data_POSCAR
  _audit_creation_date              2014-09-24
  _audit_creation_method            'ToBaCCo'
  _symmetry_space_group_name_H-M    'P1'
  _symmetry_Int_Tables_number       1
  _symmetry_cell_setting            triclinic
  loop_
  _symmetry_equiv_pos_as_xyz
 x,y,z
_cell_length_a 23.2464
_cell_length_b 28.2938
_cell_length_c 25.3109
_cell_angle_alpha 90.046000
_cell_angle_beta 89.701800
_cell_angle_gamma 88.573100
loop_
  _atom_site_label
  _atom_site_type_symbol
  _atom_site_fract_x
  _atom_site_fract_y
  _atom_site_fract_z
C1 C 1.19795 0.22752 0.21051
 C2 C 1.25106 0.24256 0.17926
 C3 C 1.29565 0.25574 0.21038
 C4 C 1.28311 0.25162 0.27019
 C5 C 1.21922 0.18844 0.24780
 C6 C 1.26357 0.20078 0.27899
 C7 C 1.18393 0.26973 0.24648
 C8 C 1.22803 0.28224 0.27829
 H9 H 1.25128 0.24642 0.13670
 H10 H 1.31941 0.26135 0.29583
 H11 H 1.19726 0.15536 0.25268
 H12 H 1.14292 0.28852 0.24587
 C13 C 0.69511 -0.27161 0.21369
 C14 C 0.74760 -0.25595 0.18210
 C15 C 0.79254 -0.24302 0.21279
 C16 C 0.78098 -0.24781 0.27268
 C17 C 0.71719 -0.31105 0.25014
 C18 C 0.76190 -0.29885 0.28099
 C19 C 0.68125 -0.22990 0.25057
 C20 C 0.72585 -0.21749 0.28198
 H21 H 0.74733 -0.25189 0.13956
 H22 H 0.81765 -0.23821 0.29793
 H23 H 0.69540 -0.34422 0.25492
 H24 H 0.63995 -0.21151 0.25103
 C25 C 0.70123 0.22331 -0.27780
 C26 C 0.74654 0.24106 -0.31218
 C27 C 0.79446 0.25896 -0.28333
 C28 C 0.78671 0.25642 -0.22571
 C29 C 0.72945 0.18867 -0.24305
 C30 C 0.77604 0.20702 -0.21333
 C31 C 0.68550 0.26359 -0.24423
 C32 C 0.73241 0.28182 -0.21486
 H33 H 0.74370 0.24232 -0.35486
 H34 H 0.82315 0.27102 -0.20420
 H35 H 0.71405 0.15314 -0.23758
 H36 H 0.64290 0.27994 -0.24382
 C37 C 1.19617 -0.27417 -0.28857
 C38 C 1.24810 -0.25885 -0.32132
 C39 C 1.29379 -0.24599 -0.29142
 C40 C 1.28338 -0.25033 -0.23133
 C41 C 1.21886 -0.31343 -0.25222
 C42 C 1.26422 -0.30116 -0.22229
 C43 C 1.18334 -0.23224 -0.25189
 C44 C 1.22862 -0.21988 -0.22133
 H45 H 1.24705 -0.25502 -0.36387
 H46 H 1.32056 -0.24064 -0.20674
 H47 H 1.19692 -0.34643 -0.24658
 H48 H 1.14199 -0.21395 -0.25067
 C49 C 0.19828 0.22990 0.79195
 C50 C 0.24753 0.24721 0.82065
 C51 C 0.29469 0.25994 0.78712
 C52 C 0.28346 0.25191 0.73084
 C53 C 0.18333 0.26934 0.75253
 C54 C 0.22764 0.28074 0.71989
 C55 C 0.22130 0.18894 0.75760
 C56 C 0.26570 0.20027 0.72560
 H57 H 0.24680 0.25326 0.86289
 H58 H 0.31895 0.26043 0.70356
 H59 H 0.14211 0.28775 0.75202
 H60 H 0.19968 0.15556 0.75426
 C61 C 0.70140 0.72540 0.77877
 C62 C 0.74718 0.74358 0.81192
 C63 C 0.79482 0.76107 0.78178
 C64 C 0.78636 0.75753 0.72435
 C65 C 0.68544 0.76522 0.74477
 C66 C 0.73201 0.78285 0.71409
 C67 C 0.72916 0.69018 0.74414
 C68 C 0.77542 0.70795 0.71316
 H69 H 0.74479 0.74545 0.85463
 H70 H 0.82254 0.77158 0.70172
 H71 H 0.64310 0.78202 0.74531
 H72 H 0.71357 0.65462 0.73958
 C73 C 0.69614 0.22936 0.28628
 C74 C 0.74876 0.24513 0.31711
 C75 C 0.79365 0.25779 0.28580
 C76 C 0.78193 0.25260 0.22610
 C77 C 0.68231 0.27083 0.24924
 C78 C 0.72685 0.28291 0.21718
 C79 C 0.71804 0.18961 0.24988
 C80 C 0.76275 0.20154 0.21847
 H81 H 0.74858 0.24945 0.35963
 H82 H 0.81856 0.26191 0.20033
 H83 H 0.64111 0.28935 0.24917
 H84 H 0.69625 0.15640 0.24566
 C85 C 0.19873 0.72809 0.29004
 C86 C 0.25168 0.74372 0.32065
 C87 C 0.29628 0.75670 0.28900
 C88 C 0.28394 0.75166 0.22933
 C89 C 0.18466 0.76978 0.25354
 C90 C 0.22874 0.78198 0.22118
 C91 C 0.22031 0.68856 0.25317
 C92 C 0.26468 0.70062 0.22145
 H93 H 0.25170 0.74818 0.36314
 H94 H 0.32023 0.76115 0.20324
 H95 H 0.14373 0.78868 0.25438
 H96 H 0.19843 0.65540 0.24886
 N97 N 1.08484 0.06010 0.05586
 N98 N 1.10997 0.10078 0.06382
 N99 N 1.07656 -0.04347 0.09348
 N100 N 1.09533 -0.07582 0.12722
 N101 N 1.11568 -0.03599 0.05707
 N102 N 1.16206 -0.06276 0.06489
 N103 N 1.04467 0.05332 0.09146
 N104 N 1.04058 0.08951 0.12416
 C105 C 1.08134 0.11878 0.10620
 C106 C 1.14867 -0.08738 0.10871
 N107 N 0.91718 -0.07514 0.05750
 N108 N 0.88879 -0.11362 0.06998
 N109 N 0.92544 0.02991 0.09165
 N110 N 0.90821 0.06531 0.12245
 N111 N 0.88713 0.02201 0.05493
 N112 N 0.84283 0.05184 0.05976
 N113 N 0.95660 -0.06693 0.09321
 N114 N 0.95665 -0.09963 0.13023
 Mn115 Mn 1.00081 -0.00685 0.09305
 C116 C 0.91465 -0.12875 0.11513
 C117 C 0.85657 0.07851 0.10209
 N118 N 1.11747 -0.03748 -0.05587
 N119 N 1.16416 -0.06426 -0.06317
 N120 N 1.04775 0.05121 -0.09350
 N121 N 1.04355 0.08765 -0.12587
 N122 N 1.08663 0.05871 -0.05725
 N123 N 1.11067 0.09997 -0.06430
 N124 N 1.07909 -0.04568 -0.09234
 N125 N 1.09850 -0.07827 -0.12558
 Mn126 Mn 1.10169 0.01142 -0.00005
 C127 C 1.15147 -0.08947 -0.10679
 C128 C 1.08299 0.11765 -0.10697
 N129 N 0.88885 0.02083 -0.05927
 N130 N 0.84752 0.05363 -0.06380
 N131 N 0.95934 -0.06953 -0.09326
 N132 N 0.95906 -0.10233 -0.13017
 N133 N 0.91865 -0.07670 -0.05809
 N134 N 0.88912 -0.11451 -0.07086
 N135 N 0.92863 0.02696 -0.09548
 N136 N 0.91537 0.06350 -0.12564
 Mn137 Mn 0.90213 -0.02751 -0.00121
 Mn138 Mn 1.00372 -0.00935 -0.09416
 Cl139 Cl 1.00192 -0.00829 -0.00059
 C140 C 0.86421 0.07913 -0.10633
 C141 C 0.91569 -0.13049 -0.11556
 N142 N 1.08320 0.55824 0.55830
 N143 N 1.10714 0.59929 0.56683
 N144 N 1.07604 0.45319 0.59107
 N145 N 1.09510 0.41994 0.62342
 N146 N 1.11486 0.46218 0.55490
 N147 N 1.16152 0.43532 0.56154
 N148 N 1.04401 0.54982 0.59435
 N149 N 1.03954 0.58527 0.62807
 C150 C 1.07902 0.61578 0.61018
 C151 C 1.14832 0.40918 0.60440
 N152 N 0.91615 0.42232 0.55617
 N153 N 0.88706 0.38399 0.56815
 N154 N 0.92514 0.52536 0.59555
 N155 N 0.91173 0.56183 0.62597
 N156 N 0.88601 0.51985 0.55895
 N157 N 0.84512 0.55307 0.56341
 N158 N 0.95663 0.42907 0.59126
 N159 N 0.95676 0.39555 0.62723
 Mn160 Mn 1.00046 0.48925 0.59354
 C161 C 0.91381 0.36735 0.61223
 C162 C 0.86119 0.57809 0.60638
 N163 N 1.11461 0.46533 0.44205
 N164 N 1.16103 0.43851 0.43408
 N165 N 1.04360 0.55473 0.40922
 N166 N 1.04020 0.59108 0.37681
 N167 N 1.08316 0.56125 0.44509
 N168 N 1.10863 0.60188 0.43756
 N169 N 1.07595 0.45806 0.40553
 N170 N 1.09507 0.42585 0.37154
 Mn171 Mn 1.09951 0.51188 0.50010
 C172 C 1.14817 0.41415 0.39001
 C173 C 1.08075 0.62018 0.39522
 N174 N 0.88573 0.52253 0.44474
 N175 N 0.84121 0.55211 0.43996
 N176 N 0.95605 0.43420 0.40513
 N177 N 0.95684 0.40176 0.36775
 N178 N 0.91628 0.42548 0.44071
 N179 N 0.88845 0.38691 0.42785
 N180 N 0.92454 0.53091 0.40825
 N181 N 0.90748 0.56636 0.37769
 Mn182 Mn 0.90019 0.47230 0.50012
 Mn183 Mn 1.00004 0.49441 0.40643
 Cl184 Cl 0.99989 0.49177 0.50002
 C185 C 0.85540 0.57914 0.39793
 C186 C 0.91493 0.37227 0.38257
 N187 N 0.58340 0.06227 0.56136
 N188 N 0.61194 0.10017 0.57537
 N189 N 0.57654 -0.04297 0.59353
 N190 N 0.59561 -0.07638 0.62579
 N191 N 0.61569 -0.03349 0.55777
 N192 N 0.66257 -0.05991 0.56478
 N193 N 0.54289 0.05345 0.59607
 N194 N 0.54147 0.08571 0.63354
 C195 C 0.58445 0.11469 0.62013
 C196 C 0.64926 -0.08649 0.60726
 N197 N 0.41786 -0.07559 0.55706
 N198 N 0.38978 -0.11453 0.56819
 N199 N 0.42438 0.02833 0.59560
 N200 N 0.40740 0.06311 0.62731
 N201 N 0.38593 0.02121 0.55882
 N202 N 0.34171 0.05102 0.56449
 N203 N 0.45738 -0.06819 0.59287
 N204 N 0.45783 -0.10199 0.62867
 Mn205 Mn 0.50030 -0.00743 0.59500
 C206 C 0.41597 -0.13089 0.61261
 C207 C 0.35567 0.07672 0.60751
 N208 N 0.61641 -0.03120 0.44442
 N209 N 0.66249 -0.05873 0.43721
 N210 N 0.54425 0.05727 0.41073
 N211 N 0.54044 0.09308 0.37765
 N212 N 0.58339 0.06480 0.44681
 N213 N 0.60820 0.10566 0.43855
 N214 N 0.57785 -0.03898 0.40791
 N215 N 0.59661 -0.07201 0.37483
 Mn216 Mn 0.60034 0.01582 0.50251
 C217 C 0.64944 -0.08384 0.39358
 C218 C 0.58025 0.12298 0.39565
 N219 N 0.38673 0.02356 0.44496
 N220 N 0.34191 0.05278 0.43971
 N221 N 0.45852 -0.06441 0.40643
 N222 N 0.45915 -0.09678 0.36887
 N223 N 0.41877 -0.07327 0.44193
 N224 N 0.39088 -0.11179 0.42898
 N225 N 0.42579 0.03220 0.40883
 N226 N 0.40867 0.06744 0.37802
 Mn227 Mn 0.40160 -0.02626 0.50069
 Mn228 Mn 0.50168 -0.00354 0.40793
 Cl229 Cl 0.50091 -0.00549 0.50154
 C230 C 0.35624 0.07983 0.39773
 C231 C 0.41723 -0.12636 0.38365
 N232 N 0.58340 0.56366 0.05362
 N233 N 0.60794 0.60451 0.06238
 N234 N 0.57799 0.45946 0.09080
 N235 N 0.59679 0.42647 0.12365
 N236 N 0.61682 0.46772 0.05433
 N237 N 0.66317 0.44054 0.06134
 N238 N 0.54401 0.55564 0.08968
 N239 N 0.53983 0.59110 0.12333
 C240 C 0.57964 0.62130 0.10562
 C241 C 0.64992 0.41513 0.10479
 N242 N 0.41946 0.42482 0.05660
 N243 N 0.39157 0.38618 0.06929
 N244 N 0.42565 0.53005 0.09147
 N245 N 0.40853 0.56531 0.12245
 N246 N 0.38682 0.52160 0.05542
 N247 N 0.34217 0.55106 0.06090
 N248 N 0.45891 0.43355 0.09211
 N249 N 0.45938 0.40094 0.12930
 Mn250 Mn 0.50169 0.49462 0.09154
 C251 C 0.41769 0.37136 0.11437
 C252 C 0.35633 0.57796 0.10299
 N253 N 0.61693 0.46691 -0.05905
 N254 N 0.66372 0.44033 -0.06634
 N255 N 0.54394 0.55423 -0.09542
 N256 N 0.54247 0.58709 -0.13218
 N257 N 0.58438 0.56260 -0.06087
 N258 N 0.61290 0.60074 -0.07435
 N259 N 0.57807 0.45780 -0.09484
 N260 N 0.59721 0.42445 -0.12738
 Mn261 Mn 0.60100 0.51542 -0.00291
 C262 C 0.65065 0.41407 -0.10904
 C263 C 0.58541 0.61593 -0.11855
 N264 N 0.38680 0.52065 -0.05836
 N265 N 0.34253 0.55045 -0.06310
 N266 N 0.45911 0.43212 -0.09438
 N267 N 0.45861 0.40020 -0.13225
 N268 N 0.41895 0.42395 -0.05901
 N269 N 0.38929 0.38645 -0.07282
 N270 N 0.42551 0.52857 -0.09504
 N271 N 0.40861 0.56388 -0.12582
 Mn272 Mn 0.40230 0.47247 -0.00130
 Mn273 Mn 0.50166 0.49312 -0.09537
 Cl274 Cl 0.50159 0.49374 -0.00204
 C275 C 0.35670 0.57698 -0.10549
 C276 C 0.41536 0.37169 -0.11833
 N277 N 1.06193 0.18439 0.16855
 N278 N 1.09274 0.21429 0.19578
 C279 C 1.14776 0.21176 0.17831
 C280 C 1.15171 0.17881 0.13785
 C281 C 1.09662 0.16205 0.13348
 H282 H 1.19056 0.16408 0.11992
 H283 H 1.01906 0.17683 0.17687
 H284 H 1.07705 0.23242 0.22899
 N285 N 1.06001 0.67980 0.67488
 N286 N 1.09094 0.71041 0.70102
 C287 C 1.14490 0.70992 0.68085
 C288 C 1.14797 0.67761 0.63975
 C289 C 1.09364 0.65903 0.63785
 H290 H 1.18636 0.66428 0.61979
 H291 H 1.01812 0.67075 0.68513
 H292 H 1.07652 0.72758 0.73531
 N293 N 0.56928 0.16609 0.69442
 N294 N 0.60158 0.19812 0.72250
 C295 C 0.65212 0.20358 0.69677
 C296 C 0.65273 0.17505 0.65158
 C297 C 0.60054 0.15195 0.65223
 H298 H 0.68887 0.16779 0.62543
 H299 H 0.52980 0.15315 0.70700
 H300 H 0.59063 0.21023 0.76032
 N301 N 0.55958 0.68522 0.17006
 N302 N 0.59004 0.71449 0.19851
 C303 C 0.64510 0.71269 0.18120
 C304 C 0.64946 0.68086 0.13960
 C305 C 0.59452 0.66403 0.13429
 H306 H 0.68848 0.66688 0.12128
 H307 H 0.51673 0.67725 0.17791
 H308 H 0.57411 0.73178 0.23219
 N309 N 0.92491 -0.18374 0.19105
 N310 N 0.89286 -0.21390 0.21706
 C311 C 0.84286 -0.21855 0.19116
 C312 C 0.84349 -0.19035 0.14615
 C313 C 0.89605 -0.16845 0.14806
 H314 H 0.80864 -0.18324 0.11889
 H315 H 0.96488 -0.17235 0.20393
 H316 H 0.90460 -0.22965 0.25284
 N317 N 0.92450 0.31463 0.68909
 N318 N 0.89246 0.28663 0.71780
 C319 C 0.84176 0.28092 0.69320
 C320 C 0.84232 0.30585 0.64564
 C321 C 0.89519 0.32789 0.64563
 H322 H 0.80699 0.31188 0.61860
 H323 H 0.96479 0.32635 0.70070
 H324 H 0.90564 0.27231 0.75389
 N325 N 0.42712 -0.18857 0.68586
 N326 N 0.39504 -0.21906 0.71134
 C327 C 0.34428 -0.22220 0.68632
 C328 C 0.34444 -0.19269 0.64238
 C329 C 0.39754 -0.17157 0.64408
 H330 H 0.30895 -0.18413 0.61629
 H331 H 0.46758 -0.17806 0.69844
 H332 H 0.40722 -0.23595 0.74634
 N333 N 0.42750 0.31651 0.19065
 N334 N 0.39553 0.28586 0.21604
 C335 C 0.34609 0.28060 0.18936
 C336 C 0.34707 0.30895 0.14448
 C337 C 0.39917 0.33155 0.14727
 H338 H 0.31261 0.31567 0.11669
 H339 H 0.46700 0.32836 0.20418
 H340 H 0.40688 0.27020 0.25197
 N341 N 0.86160 0.16609 -0.10716
 N342 N 0.84086 0.20019 -0.13770
 C343 C 0.80472 0.18136 -0.17322
 C344 C 0.80228 0.13291 -0.16406
 C345 C 0.83896 0.12490 -0.12184
 H346 H 0.78077 0.10661 -0.18729
 H347 H 0.89307 0.17072 -0.07842
 H348 H 0.85235 0.23540 -0.13379
 N349 N 0.76622 0.62943 0.39697
 N350 N 0.74209 0.66211 0.36652
 C351 C 0.77855 0.67203 0.32677
 C352 C 0.82817 0.64424 0.33183
 C353 C 0.81830 0.61749 0.37685
 H354 H 0.86444 0.64169 0.30490
 H355 H 0.74641 0.61456 0.42992
 H356 H 0.70051 0.67619 0.37193
 N357 N 0.26623 0.12907 0.39505
 N358 N 0.24229 0.16147 0.36411
 C359 C 0.27957 0.17192 0.32518
 C360 C 0.32954 0.14477 0.33131
 C361 C 0.31901 0.11782 0.37606
 H362 H 0.36650 0.14269 0.30517
 H363 H 0.24584 0.11387 0.42751
 H364 H 0.20031 0.17498 0.36859
 N365 N 0.26899 0.62887 -0.10524
 N366 N 0.24517 0.66170 -0.13567
 C367 C 0.28106 0.67035 -0.17626
 C368 C 0.32990 0.64165 -0.17182
 C369 C 0.32021 0.61567 -0.12627
 H370 H 0.36542 0.63799 -0.19946
 H371 H 0.24950 0.61479 -0.07168
 H372 H 0.20410 0.67666 -0.12972
 N373 N 1.24259 -0.13783 -0.11383
 N374 N 1.26323 -0.17222 -0.14448
 C375 C 1.22373 -0.18174 -0.18164
 C376 C 1.17625 -0.15195 -0.17434
 C377 C 1.18982 -0.12504 -0.13112
 H378 H 1.13654 -0.15039 -0.19641
 H379 H 1.26401 -0.12404 -0.08131
 H380 H 1.30305 -0.18929 -0.13888
 N381 N 1.23974 0.36678 0.38350
 N382 N 1.26112 0.33202 0.35385
 C383 C 1.22191 0.32114 0.31697
 C384 C 1.17373 0.35049 0.32343
 C385 C 1.18676 0.37856 0.36591
 H386 H 1.13396 0.35097 0.30144
 H387 H 1.26087 0.38154 0.41564
 H388 H 1.30131 0.31573 0.35990
 N389 N 0.73973 -0.13328 0.38757
 N390 N 0.76007 -0.16851 0.35795
 C391 C 0.72049 -0.17879 0.32113
 C392 C 0.67314 -0.14856 0.32766
 C393 C 0.68704 -0.12055 0.37004
 H394 H 0.63348 -0.14730 0.30549
 H395 H 0.76142 -0.11876 0.41952
 H396 H 0.79989 -0.18545 0.36389
 N397 N 0.74500 0.37145 -0.11880
 N398 N 0.76710 0.33631 -0.14742
 C399 C 0.72579 0.32000 -0.17963
 C400 C 0.67545 0.34640 -0.17102
 C401 C 0.68961 0.37837 -0.13241
 H402 H 0.63396 0.34306 -0.18958
 H403 H 0.76762 0.39016 -0.09039
 H404 H 0.80947 0.32386 -0.14358
 N405 N 1.06253 0.18503 -0.16656
 N406 N 1.09285 0.21641 -0.19238
 C407 C 1.14788 0.21423 -0.17518
 C408 C 1.15199 0.18012 -0.13593
 C409 C 1.09737 0.16208 -0.13255
 H410 H 1.19100 0.16526 -0.11882
 H411 H 1.02000 0.17699 -0.17529
 H412 H 1.07691 0.23509 -0.22490
 N413 N 1.06214 0.68637 0.33388
 N414 N 1.09329 0.71595 0.30632
 C415 C 1.14845 0.71263 0.32284
 C416 C 1.15208 0.67951 0.36307
 C417 C 1.09667 0.66347 0.36824
 H418 H 1.19081 0.66423 0.38026
 H419 H 1.01906 0.67938 0.32619
 H420 H 1.07759 0.73436 0.27350
 N421 N 0.56036 0.18774 0.33262
 N422 N 0.59095 0.21671 0.30367
 C423 C 0.64627 0.21401 0.31964
 C424 C 0.65066 0.18195 0.36093
 C425 C 0.59546 0.16588 0.36740
 H426 H 0.68971 0.16730 0.37817
 H427 H 0.51724 0.18037 0.32568
 H428 H 0.57478 0.23437 0.27052
 N429 N 0.56931 0.66894 -0.19098
 N430 N 0.60129 0.70132 -0.21909
 C431 C 0.65242 0.70609 -0.19460
 C432 C 0.65364 0.67673 -0.15008
 C433 C 0.60124 0.65384 -0.14996
 H434 H 0.69029 0.66872 -0.12515
 H435 H 0.52954 0.65638 -0.20292
 H436 H 0.58974 0.71390 -0.25644
 N437 N 0.92470 -0.18184 -0.19408
 N438 N 0.89235 -0.20994 -0.22212
 C439 C 0.84230 -0.21633 -0.19611
 C440 C 0.84373 -0.19170 -0.14834
 C441 C 0.89633 -0.16922 -0.14960
 H442 H 0.80914 -0.18641 -0.11999
 H443 H 0.96464 -0.16981 -0.20663
 H444 H 0.90501 -0.22400 -0.25863
 N445 N 0.92550 0.31803 0.30575
 N446 N 0.89362 0.28773 0.27998
 C447 C 0.84394 0.28246 0.30670
 C448 C 0.84462 0.31034 0.35195
 C449 C 0.89680 0.33272 0.34937
 H450 H 0.80997 0.31696 0.37991
 H451 H 0.96517 0.32989 0.29231
 H452 H 0.90523 0.27235 0.24384
 N453 N 0.42726 -0.18099 0.30692
 N454 N 0.39564 -0.21201 0.28195
 C455 C 0.34639 -0.21772 0.30926
 C456 C 0.34714 -0.18924 0.35410
 C457 C 0.39891 -0.16614 0.35065
 H458 H 0.31279 -0.18288 0.38243
 H459 H 0.46660 -0.16887 0.29294
 H460 H 0.40713 -0.22768 0.24594
 N461 N 0.42354 0.32466 -0.19734
 N462 N 0.38952 0.29320 -0.22465
 C463 C 0.34250 0.28497 -0.19486
 C464 C 0.34649 0.31010 -0.14733
 C465 C 0.39691 0.33552 -0.15140
 H466 H 0.31432 0.31336 -0.11640
 H467 H 0.46119 0.33911 -0.21233
 H468 H 0.39999 0.27968 -0.26192
 N469 N 1.24056 -0.13423 0.11525
 N470 N 1.26200 -0.16863 0.14511
 C471 C 1.22251 -0.17958 0.18207
 C472 C 1.17406 -0.15067 0.17540
 C473 C 1.18724 -0.12277 0.13277
 H474 H 1.13407 -0.15029 0.19745
 H475 H 1.26192 -0.11944 0.08309
 H476 H 1.30249 -0.18458 0.13923
 N477 N 1.24029 0.36200 0.61134
 N478 N 1.26146 0.32811 0.64214
 C479 C 1.22151 0.31762 0.67891
 C480 C 1.17309 0.34615 0.67106
 C481 C 1.18672 0.37350 0.62812
 H482 H 1.13304 0.34707 0.69301
 H483 H 1.26215 0.37665 0.57939
 H484 H 1.30226 0.31245 0.63728
 N485 N 0.74382 -0.12876 0.61647
 N486 N 0.76618 -0.16343 0.64535
 C487 C 0.72504 -0.17951 0.67827
 C488 C 0.67451 -0.15346 0.66978
 C489 C 0.68839 -0.12192 0.63054
 H490 H 0.63306 -0.15672 0.68885
 H491 H 0.76632 -0.11027 0.58761
 H492 H 0.80866 -0.17567 0.64130
 N493 N 0.74080 0.36645 0.11091
 N494 N 0.76127 0.33161 0.14077
 C495 C 0.72142 0.32123 0.17768
 C496 C 0.67375 0.35095 0.17092
 C497 C 0.68774 0.37880 0.12835
 H498 H 0.63384 0.35204 0.19309
 H499 H 0.76267 0.38100 0.07890
 H500 H 0.80142 0.31505 0.13499
 N501 N 0.76789 0.12935 0.10276
 N502 N 0.74364 0.16229 0.13308
 C503 C 0.77961 0.17199 0.17294
 C504 C 0.82899 0.14381 0.16814
 C505 C 0.81951 0.11705 0.12311
 H506 H 0.86485 0.14111 0.19515
 H507 H 0.74845 0.11459 0.06971
 H508 H 0.70234 0.17673 0.12746
 N509 N 0.85845 0.66510 0.60536
 N510 N 0.83844 0.69976 0.63578
 C511 C 0.80338 0.68155 0.67292
 C512 C 0.80098 0.63292 0.66507
 C513 C 0.83646 0.62415 0.62183
 H514 H 0.78017 0.60704 0.68960
 H515 H 0.88898 0.66924 0.57539
 H516 H 0.84951 0.73495 0.63059
 N517 N 0.26799 0.12879 0.60927
 N518 N 0.24482 0.16189 0.64006
 C519 C 0.28116 0.17032 0.68003
 C520 C 0.32963 0.14121 0.67481
 C521 C 0.31928 0.11524 0.62941
 H522 H 0.36563 0.13766 0.70158
 H523 H 0.24818 0.11497 0.57590
 H524 H 0.20406 0.17742 0.63457
 N525 N 0.26724 0.62848 0.10552
 N526 N 0.24366 0.66139 0.13633
 C527 C 0.28064 0.67133 0.17535
 C528 C 0.33000 0.64329 0.16943
 C529 C 0.31947 0.61640 0.12468
 H530 H 0.36657 0.64071 0.19565
 H531 H 0.24698 0.61359 0.07298
 H532 H 0.20210 0.67561 0.13168
   
