data_POSCAR
  _audit_creation_date              2014-09-24
  _audit_creation_method            'ToBaCCo'
  _symmetry_space_group_name_H-M    'P1'
  _symmetry_Int_Tables_number       1
  _symmetry_cell_setting            triclinic
  loop_
  _symmetry_equiv_pos_as_xyz
 x,y,z
_cell_length_a 34.8226
_cell_length_b 36.4287
_cell_length_c 36.6562
_cell_angle_alpha 89.424600
_cell_angle_beta 86.785100
_cell_angle_gamma 90.408900
loop_
  _atom_site_label
  _atom_site_type_symbol
  _atom_site_fract_x
  _atom_site_fract_y
  _atom_site_fract_z
C1 C 1.19920 0.26428 0.29513
 H2 H 1.18957 0.23611 0.29313
 C3 C 1.18179 0.28728 0.32149
 H4 H 1.15870 0.27651 0.33959
 C5 C 1.24257 0.31176 0.27537
 H6 H 1.26693 0.32103 0.25812
 C7 C 1.22646 0.33540 0.30165
 H8 H 1.23813 0.36288 0.30382
 N9 N 1.22877 0.27692 0.27245
 C10 C 1.23613 0.19720 0.18254
 H11 H 1.26655 0.19123 0.18168
 C12 C 1.21246 0.17969 0.15835
 H13 H 1.22500 0.16038 0.13893
 C14 C 1.18336 0.23086 0.20786
 H15 H 1.17216 0.25119 0.22678
 C16 C 1.15882 0.21455 0.18366
 H17 H 1.12879 0.22220 0.18449
 Zn18 Zn 1.25514 0.24414 0.23975
 N19 N 1.22118 0.22158 0.20731
 C20 C 1.27568 0.17199 0.26379
 N21 N 1.27900 0.20869 0.26929
 C22 C 1.29895 0.22183 0.29726
 C23 C 1.31692 0.19789 0.32084
 C24 C 1.29385 0.14703 0.28619
 C25 C 1.27984 0.29644 0.18724
 C26 C 1.30565 0.31952 0.16732
 C27 C 1.35793 0.28936 0.19583
 C28 C 1.33109 0.26675 0.21515
 N29 N 1.29281 0.27112 0.21102
 H30 H 1.25899 0.16183 0.24208
 H31 H 1.30096 0.25116 0.30122
 H32 H 1.33293 0.20997 0.34212
 H33 H 1.29104 0.11795 0.28080
 H34 H 1.24922 0.29947 0.18466
 H35 H 1.29423 0.34040 0.14988
 H36 H 1.38827 0.28611 0.20004
 H37 H 1.34087 0.24633 0.23402
 C38 C 1.17312 0.18812 0.15898
 C39 C 1.19556 0.32339 0.32495
 C40 C 1.34538 0.31629 0.17167
 C41 C 1.31478 0.15960 0.31547
 C42 C 0.67215 -0.24791 0.30954
 H43 H 0.66109 -0.26885 0.29222
 C44 C 0.64759 -0.23182 0.33602
 H45 H 0.61759 -0.24003 0.33858
 C46 C 0.72458 -0.21209 0.32802
 H47 H 0.75476 -0.20480 0.32483
 C48 C 0.70073 -0.19439 0.35407
 H49 H 0.71255 -0.17340 0.37100
 N50 N 0.70950 -0.23674 0.30501
 C51 C 0.71689 -0.31772 0.22653
 H52 H 0.74111 -0.33129 0.23781
 C53 C 0.69244 -0.33742 0.20478
 H54 H 0.69786 -0.36625 0.20003
 C55 C 0.68000 -0.26394 0.21957
 H56 H 0.67533 -0.23526 0.22564
 C57 C 0.65446 -0.28275 0.19826
 H58 H 0.63020 -0.26840 0.18778
 Zn59 Zn 0.74088 -0.25478 0.26541
 N60 N 0.70998 -0.28176 0.23390
 C61 C 0.76685 -0.31379 0.30676
 N62 N 0.77903 -0.28501 0.28510
 C63 C 0.81720 -0.27741 0.27891
 C64 C 0.84476 -0.29965 0.29415
 C65 C 0.79344 -0.33649 0.32288
 C66 C 0.75894 -0.17956 0.24726
 C67 C 0.78019 -0.15166 0.22893
 C68 C 0.80996 -0.19747 0.18972
 C69 C 0.78834 -0.22445 0.20893
 N70 N 0.76444 -0.21532 0.23794
 H71 H 0.73635 -0.31910 0.31148
 H72 H 0.82652 -0.25391 0.26253
 H73 H 0.87502 -0.29328 0.28890
 H74 H 0.78302 -0.35961 0.33946
 H75 H 0.73854 -0.17240 0.26918
 H76 H 0.77639 -0.12345 0.23738
 H77 H 0.83035 -0.20584 0.16809
 H78 H 0.79181 -0.25302 0.20172
 C79 C 0.66056 -0.31990 0.19056
 C80 C 0.66153 -0.20367 0.35744
 C81 C 0.80635 -0.16049 0.20002
 C82 C 0.83303 -0.32931 0.31679
 C83 C 0.70260 0.24934 -0.19233
 H84 H 0.69415 0.22070 -0.19194
 C85 C 0.68935 0.27243 -0.16413
 H86 H 0.67049 0.26137 -0.14219
 C87 C 0.73918 0.29806 -0.22044
 H88 H 0.75924 0.30782 -0.24198
 C89 C 0.72724 0.32183 -0.19253
 H90 H 0.73768 0.34993 -0.19320
 N91 N 0.72687 0.26252 -0.21986
 C92 C 0.72405 0.18174 -0.30752
 H93 H 0.75460 0.17700 -0.31177
 C94 C 0.69838 0.16450 -0.32984
 H95 H 0.70948 0.14654 -0.35122
 C96 C 0.67299 0.21295 -0.27597
 H97 H 0.66337 0.23255 -0.25557
 C98 C 0.64635 0.19683 -0.29822
 H99 H 0.61620 0.20376 -0.29444
 Zn100 Zn 0.74890 0.22995 -0.25500
 N101 N 0.71105 0.20510 -0.28094
 C102 C 0.77280 0.15939 -0.23130
 N103 N 0.77889 0.19622 -0.22914
 C104 C 0.80435 0.21018 -0.20599
 C105 C 0.82503 0.18682 -0.18397
 C106 C 0.79320 0.13505 -0.21014
 C107 C 0.75855 0.27523 -0.31571
 C108 C 0.77708 0.29794 -0.34207
 C109 C 0.83748 0.28456 -0.31557
 C110 C 0.81771 0.26135 -0.29014
 N111 N 0.77886 0.25768 -0.29030
 H112 H 0.75167 0.14869 -0.24889
 H113 H 0.80816 0.23959 -0.20423
 H114 H 0.84548 0.19858 -0.16616
 H115 H 0.78806 0.10580 -0.21226
 H116 H 0.72763 0.27192 -0.31521
 H117 H 0.75985 0.31174 -0.36169
 H118 H 0.86830 0.28663 -0.31421
 H119 H 0.83338 0.24685 -0.26993
 C120 C 0.65894 0.17209 -0.32534
 C121 C 0.70193 0.30920 -0.16404
 C122 C 0.81703 0.30387 -0.34192
 C123 C 0.81927 0.14866 -0.18574
 C124 C 1.19336 -0.21464 -0.21792
 H125 H 1.19102 -0.21011 -0.24693
 C126 C 1.17266 -0.19296 -0.19292
 H127 H 1.15359 -0.17239 -0.20306
 C128 C 1.22061 -0.24790 -0.16990
 H129 H 1.23990 -0.26884 -0.16108
 C130 C 1.20029 -0.22688 -0.14387
 H131 H 1.20363 -0.23214 -0.11509
 N132 N 1.21654 -0.24157 -0.20611
 C133 C 1.22525 -0.31312 -0.30030
 H134 H 1.25591 -0.31313 -0.30695
 C135 C 1.20051 -0.33295 -0.32162
 H136 H 1.21262 -0.34853 -0.34439
 C137 C 1.17270 -0.29425 -0.26123
 H138 H 1.16195 -0.27979 -0.23726
 C139 C 1.14706 -0.31390 -0.28154
 H140 H 1.11671 -0.31400 -0.27323
 Zn141 Zn 1.24481 -0.26704 -0.24263
 N142 N 1.21094 -0.29374 -0.27115
 C143 C 1.26227 -0.32773 -0.20042
 N144 N 1.27842 -0.29975 -0.22083
 C145 C 1.31707 -0.29385 -0.22296
 C146 C 1.34090 -0.31500 -0.20191
 C147 C 1.28497 -0.34956 -0.17898
 C148 C 1.29320 -0.20678 -0.25084
 C149 C 1.31246 -0.17734 -0.26833
 C150 C 1.28800 -0.19718 -0.32538
 C151 C 1.26907 -0.22623 -0.30670
 N152 N 1.27229 -0.23062 -0.27015
 H153 H 1.23143 -0.33186 -0.19944
 H154 H 1.32938 -0.27182 -0.23983
 H155 H 1.37121 -0.30834 -0.20281
 H156 H 1.27141 -0.37080 -0.16172
 H157 H 1.29457 -0.21054 -0.22162
 H158 H 1.32910 -0.15872 -0.25248
 H159 H 1.28558 -0.19508 -0.35456
 H160 H 1.25158 -0.24496 -0.32141
 C161 C 1.16073 -0.33311 -0.31243
 C162 C 1.17642 -0.19874 -0.15533
 C163 C 1.30986 -0.17203 -0.30601
 C164 C 1.32466 -0.34279 -0.17884
 C165 C 0.26548 0.21066 0.70858
 H166 H 0.23519 0.20407 0.71254
 C167 C 0.28853 0.19125 0.68301
 H168 H 0.27564 0.16976 0.66748
 C169 C 0.31840 0.24818 0.72253
 H170 H 0.32982 0.27089 0.73735
 C171 C 0.34227 0.22995 0.69682
 H172 H 0.37206 0.23848 0.69248
 N173 N 0.28080 0.23815 0.72818
 C174 C 0.20430 0.25372 0.82559
 H175 H 0.20416 0.28341 0.82530
 C176 C 0.18495 0.23449 0.85421
 H177 H 0.16976 0.24977 0.87566
 C178 C 0.22461 0.19822 0.79784
 H179 H 0.24090 0.18421 0.77635
 C180 C 0.20503 0.17779 0.82560
 H181 H 0.20725 0.14827 0.82460
 Zn182 Zn 0.24800 0.26536 0.76109
 N183 N 0.22308 0.23547 0.79785
 C184 C 0.17275 0.28531 0.74205
 N185 N 0.21110 0.28926 0.73355
 C186 C 0.22442 0.31086 0.70508
 C187 C 0.19882 0.33020 0.68426
 C188 C 0.14613 0.30436 0.72208
 C189 C 0.30367 0.28782 0.80812
 C190 C 0.32244 0.31180 0.83077
 C191 C 0.28389 0.36134 0.80867
 C192 C 0.26614 0.33647 0.78614
 N193 N 0.27626 0.30047 0.78630
 H194 H 0.16271 0.26771 0.76453
 H195 H 0.25508 0.31353 0.69901
 H196 H 0.21031 0.34816 0.66258
 H197 H 0.11570 0.30141 0.72949
 H198 H 0.31022 0.25884 0.80857
 H199 H 0.34345 0.30092 0.84857
 H200 H 0.27519 0.38983 0.80869
 H201 H 0.24338 0.34575 0.76954
 C202 C 0.18409 0.19597 0.85411
 C203 C 0.32756 0.20085 0.67699
 C204 C 0.31248 0.34913 0.83123
 C205 C 0.15902 0.32703 0.69271
 C206 C 0.78531 0.71341 0.69552
 H207 H 0.75524 0.70782 0.69178
 C208 C 0.81343 0.68999 0.68050
 H209 H 0.80443 0.66624 0.66558
 C210 C 0.83295 0.75026 0.72119
 H211 H 0.84056 0.77392 0.73682
 C212 C 0.86205 0.72733 0.70686
 H213 H 0.89179 0.73346 0.71178
 N214 N 0.79534 0.74265 0.71576
 C215 C 0.68658 0.75112 0.78006
 H216 H 0.67642 0.77767 0.77154
 C217 C 0.66261 0.72839 0.80239
 H218 H 0.63381 0.73752 0.81027
 C219 C 0.73659 0.70751 0.78065
 H220 H 0.76551 0.69949 0.77212
 C221 C 0.71429 0.68470 0.80450
 H222 H 0.72633 0.65890 0.81296
 Zn223 Zn 0.75423 0.77082 0.73728
 N224 N 0.72232 0.73981 0.76850
 C225 C 0.68898 0.78353 0.69407
 N226 N 0.72633 0.79250 0.69910
 C227 C 0.74445 0.81956 0.67871
 C228 C 0.72371 0.84190 0.65577
 C229 C 0.66728 0.80474 0.67087
 C230 C 0.79584 0.79744 0.79459
 C231 C 0.81306 0.82342 0.81627
 C232 C 0.78285 0.87137 0.78239
 C233 C 0.76593 0.84444 0.76156
 N234 N 0.77370 0.80827 0.76712
 H235 H 0.67543 0.76076 0.70894
 H236 H 0.77447 0.82555 0.68231
 H237 H 0.73797 0.86493 0.64169
 H238 H 0.63702 0.79850 0.66915
 H239 H 0.80104 0.76852 0.79893
 H240 H 0.83203 0.81404 0.83675
 H241 H 0.77723 0.90007 0.77698
 H242 H 0.74676 0.85270 0.74096
 C243 C 0.67638 0.69478 0.81528
 C244 C 0.85250 0.69684 0.68605
 C245 C 0.80688 0.86103 0.81000
 C246 C 0.68439 0.83523 0.65241
 C247 C 0.76998 0.19627 0.20670
 H248 H 0.73943 0.19046 0.20917
 C249 C 0.79401 0.17546 0.18330
 H250 H 0.78176 0.15350 0.16791
 C251 C 0.82260 0.23386 0.22164
 H252 H 0.83345 0.25741 0.23559
 C253 C 0.84741 0.21431 0.19805
 H254 H 0.87737 0.22251 0.19458
 N255 N 0.78461 0.22477 0.22532
 C256 C 0.69236 0.25138 0.30671
 H257 H 0.68881 0.28027 0.30076
 C258 C 0.67031 0.23469 0.33535
 H259 H 0.64925 0.25077 0.35093
 C260 C 0.72507 0.19573 0.29432
 H261 H 0.74738 0.18098 0.27911
 C262 C 0.70393 0.17803 0.32290
 H263 H 0.71059 0.14975 0.32881
 Zn264 Zn 0.75071 0.25680 0.25097
 N265 N 0.71873 0.23167 0.28655
 C266 C 0.68360 0.27976 0.21516
 N267 N 0.72265 0.28051 0.21509
 C268 C 0.74426 0.29684 0.18738
 C269 C 0.72674 0.31439 0.15884
 C270 C 0.66479 0.29708 0.18705
 C271 C 0.79997 0.27693 0.30377
 C272 C 0.82418 0.29948 0.32279
 C273 C 0.80633 0.35060 0.28487
 C274 C 0.78206 0.32711 0.26682
 N275 N 0.77990 0.29090 0.27615
 H276 H 0.66700 0.26549 0.23676
 H277 H 0.77530 0.29626 0.18756
 H278 H 0.74452 0.32764 0.13729
 H279 H 0.63375 0.29572 0.18758
 H280 H 0.79775 0.24796 0.31042
 H281 H 0.84079 0.28752 0.34391
 H282 H 0.80842 0.37927 0.27684
 H283 H 0.76551 0.33774 0.24508
 C284 C 0.67569 0.19747 0.34369
 C285 C 0.83317 0.18487 0.17851
 C286 C 0.82763 0.33682 0.31323
 C287 C 0.68655 0.31517 0.15860
 C288 C 0.28463 0.70753 0.19088
 H289 H 0.25572 0.70854 0.18154
 C290 C 0.31255 0.68645 0.17209
 H291 H 0.30441 0.67082 0.14877
 C292 C 0.32959 0.72603 0.23334
 H293 H 0.33639 0.74185 0.25689
 C294 C 0.35831 0.70506 0.21554
 H295 H 0.38685 0.70466 0.22588
 N296 N 0.29341 0.72659 0.22106
 C297 C 0.18303 0.74144 0.28239
 H298 H 0.18335 0.77100 0.28495
 C299 C 0.15171 0.72105 0.29723
 H300 H 0.12809 0.73501 0.31155
 C301 C 0.21368 0.68733 0.26084
 H302 H 0.23789 0.67430 0.24667
 C303 C 0.18313 0.66582 0.27567
 H304 H 0.18405 0.63635 0.27232
 Zn305 Zn 0.25367 0.75491 0.24460
 N306 N 0.21305 0.72445 0.26437
 C307 C 0.19703 0.78307 0.20016
 N308 N 0.23411 0.78726 0.20930
 C309 C 0.25675 0.81475 0.19436
 C310 C 0.24117 0.84134 0.17181
 C311 C 0.18060 0.80845 0.17715
 C312 C 0.28696 0.76320 0.31236
 C313 C 0.30274 0.78196 0.34112
 C314 C 0.28699 0.83921 0.31199
 C315 C 0.27116 0.81929 0.28412
 N316 N 0.27269 0.78201 0.28398
 H317 H 0.17979 0.76041 0.21118
 H318 H 0.28644 0.81699 0.20135
 H319 H 0.25892 0.86407 0.16142
 H320 H 0.15056 0.80538 0.17152
 H321 H 0.28675 0.73350 0.31227
 H322 H 0.31478 0.76614 0.36288
 H323 H 0.28493 0.86871 0.31046
 H324 H 0.25761 0.83392 0.26269
 C325 C 0.15174 0.68274 0.29443
 C326 C 0.35011 0.68516 0.18434
 C327 C 0.30419 0.82063 0.34081
 C328 C 0.20258 0.83843 0.16324
 N329 N 0.96286 -0.05208 0.06749
 N330 N 0.93641 -0.06080 0.09359
 N331 N 1.04068 -0.07471 0.02887
 N332 N 1.06582 -0.10147 0.03010
 N333 N 1.04386 -0.05238 0.05643
 N334 N 1.07163 -0.06332 0.07710
 N335 N 0.96050 -0.07428 0.03976
 N336 N 0.93260 -0.09844 0.04585
 C337 C 0.91772 -0.08974 0.07933
 C338 C 1.08535 -0.09372 0.05988
 N339 N 1.03096 -0.03885 -0.07114
 N340 N 1.05635 -0.04238 -0.09895
 N341 N 0.95284 -0.06624 -0.03661
 N342 N 0.92582 -0.09088 -0.04138
 N343 N 0.95046 -0.03874 -0.05973
 N344 N 0.92186 -0.04428 -0.08138
 N345 N 1.03318 -0.06637 -0.04808
 N346 N 1.06006 -0.08949 -0.05944
 Mn347 Mn 0.99688 -0.07060 -0.00405
 C348 C 1.07437 -0.07399 -0.09108
 C349 C 0.90651 -0.07678 -0.06907
 N350 N 1.04571 0.02651 0.06361
 N351 N 1.07314 0.03135 0.08658
 N352 N 0.96377 0.05523 0.05188
 N353 N 0.93702 0.07844 0.06358
 N354 N 0.96499 0.02687 0.07426
 N355 N 0.93886 0.02985 0.10154
 N356 N 1.04403 0.05487 0.04126
 N357 N 1.06983 0.08002 0.04907
 Mn358 Mn 1.00437 -0.01277 0.06591
 C359 C 1.08812 0.06466 0.07705
 C360 C 0.92169 0.06210 0.09446
 N361 N 0.95292 0.04041 -0.05296
 N362 N 0.92754 0.05227 -0.07565
 N363 N 1.03686 0.06250 -0.03756
 N364 N 1.06523 0.08600 -0.04606
 N365 N 1.03325 0.03898 -0.06413
 N366 N 1.05935 0.04514 -0.09087
 N367 N 0.95639 0.06373 -0.02616
 N368 N 0.93333 0.09200 -0.03007
 Mn369 Mn 0.99173 0.00053 -0.06229
 Mn370 Mn 1.00035 0.05953 0.00741
 Cl371 Cl 0.99833 -0.00570 0.00181
 C372 C 0.91508 0.08414 -0.06072
 C373 C 1.07900 0.07446 -0.07940
 N374 N 1.07202 0.53721 0.52700
 N375 N 1.10021 0.56120 0.53003
 N376 N 1.04953 0.46176 0.55992
 N377 N 1.06029 0.43820 0.58494
 N378 N 1.07271 0.46019 0.53046
 N379 N 1.09996 0.43581 0.53471
 N380 N 1.04750 0.53865 0.55555
 N381 N 1.05867 0.56334 0.57889
 C382 C 1.09124 0.57758 0.56227
 C383 C 1.09159 0.42202 0.56861
 N384 N 0.93879 0.45624 0.55031
 N385 N 0.91609 0.42850 0.56119
 N386 N 0.96386 0.53664 0.56754
 N387 N 0.95756 0.56468 0.58994
 N388 N 0.93529 0.53317 0.54591
 N389 N 0.90933 0.55862 0.55236
 N390 N 0.96770 0.45922 0.57160
 N391 N 0.96601 0.43332 0.59702
 Mn392 Mn 1.00715 0.49933 0.56407
 C393 C 0.93371 0.41442 0.59028
 C394 C 0.92333 0.57812 0.57971
 N395 N 1.06512 0.45727 0.45199
 N396 N 1.08988 0.43118 0.44255
 N397 N 1.03597 0.53407 0.42792
 N398 N 1.04473 0.55475 0.39857
 N399 N 1.06474 0.53418 0.44969
 N400 N 1.09330 0.55473 0.43597
 N401 N 1.03597 0.45675 0.43075
 N402 N 1.03958 0.42995 0.40694
 Mn403 Mn 1.06889 0.49704 0.48979
 C404 C 1.07324 0.41423 0.41458
 C405 C 1.08034 0.56804 0.40464
 N406 N 0.92766 0.53031 0.46902
 N407 N 0.89871 0.55283 0.46499
 N408 N 0.95406 0.45506 0.44232
 N409 N 0.94369 0.43049 0.41853
 N410 N 0.93123 0.45337 0.47206
 N411 N 0.90480 0.42755 0.46934
 N412 N 0.95200 0.53195 0.44031
 N413 N 0.93985 0.55538 0.41575
 Mn414 Mn 0.93297 0.49303 0.50941
 Mn415 Mn 0.99447 0.49472 0.43497
 Cl416 Cl 1.00090 0.49615 0.49952
 C417 C 0.90682 0.56854 0.43192
 C418 C 0.91324 0.41331 0.43598
 N419 N 0.51313 -0.07531 0.52770
 N420 N 0.53512 -0.10448 0.53009
 N421 N 0.43698 -0.04419 0.56024
 N422 N 0.40964 -0.05197 0.58562
 N423 N 0.43325 -0.06483 0.53147
 N424 N 0.40317 -0.08684 0.53621
 N425 N 0.51740 -0.05346 0.55547
 N426 N 0.54276 -0.06710 0.57738
 C427 C 0.55383 -0.09879 0.56087
 C428 C 0.38857 -0.07830 0.56992
 N429 N 0.45122 0.06273 0.54808
 N430 N 0.42784 0.08908 0.55979
 N431 N 0.52790 0.02464 0.56504
 N432 N 0.55340 0.02592 0.59033
 N433 N 0.53112 0.05380 0.54361
 N434 N 0.55842 0.07596 0.55426
 N435 N 0.44746 0.03374 0.56969
 N436 N 0.42108 0.03940 0.59626
 Mn437 Mn 0.48250 -0.00985 0.56299
 C438 C 0.40902 0.07392 0.58971
 C439 C 0.57240 0.05789 0.58307
 N440 N 0.43485 -0.05478 0.45360
 N441 N 0.40758 -0.07694 0.44288
 N442 N 0.51909 -0.03579 0.42812
 N443 N 0.54872 -0.04068 0.40455
 N444 N 0.51464 -0.06424 0.45020
 N445 N 0.54081 -0.08929 0.44234
 N446 N 0.43855 -0.02593 0.43192
 N447 N 0.41351 -0.02738 0.40623
 Mn448 Mn 0.47385 -0.06503 0.49074
 C449 C 0.39421 -0.05918 0.41360
 C450 C 0.56183 -0.07426 0.41379
 N451 N 0.53249 0.06446 0.46467
 N452 N 0.56209 0.08705 0.45808
 N453 N 0.44942 0.05167 0.44133
 N454 N 0.42515 0.06513 0.41833
 N455 N 0.45240 0.07362 0.46930
 N456 N 0.43048 0.10276 0.46584
 N457 N 0.52952 0.04168 0.43739
 N458 N 0.55717 0.04754 0.41201
 Mn459 Mn 0.49185 0.06406 0.50646
 Mn460 Mn 0.48415 0.00797 0.43437
 Cl461 Cl 0.48307 -0.00062 0.49869
 C462 C 0.57734 0.07567 0.42524
 C463 C 0.41337 0.09687 0.43412
 N464 N 0.58608 0.53208 0.03603
 N465 N 0.61602 0.55134 0.04551
 N466 N 0.54236 0.46161 0.06120
 N467 N 0.54127 0.43725 0.08808
 N468 N 0.57232 0.45620 0.03850
 N469 N 0.59263 0.42816 0.04969
 N470 N 0.55612 0.53780 0.05872
 N471 N 0.56521 0.56122 0.08433
 C472 C 0.60257 0.56975 0.07526
 C473 C 0.57251 0.41638 0.08039
 N474 N 0.43993 0.47546 0.02541
 N475 N 0.41091 0.45198 0.02895
 N476 N 0.47372 0.54952 0.05129
 N477 N 0.46311 0.57410 0.07619
 N478 N 0.45193 0.55186 0.02320
 N479 N 0.42654 0.57829 0.02801
 N480 N 0.46167 0.47297 0.05346
 N481 N 0.44812 0.44748 0.07676
 Mn482 Mn 0.50846 0.50567 0.05656
 C483 C 0.41646 0.43462 0.06099
 C484 C 0.43408 0.59226 0.06084
 N485 N 0.58489 0.45361 -0.04058
 N486 N 0.60460 0.42277 -0.04384
 N487 N 0.57558 0.53420 -0.06916
 N488 N 0.58897 0.55990 -0.09223
 N489 N 0.59866 0.52974 -0.04238
 N490 N 0.62887 0.55183 -0.04690
 N491 N 0.56238 0.45753 -0.06786
 N492 N 0.56526 0.42920 -0.08986
 Mn493 Mn 0.58587 0.49272 -0.00206
 C494 C 0.59168 0.40786 -0.07470
 C495 C 0.62224 0.57065 -0.07796
 N496 N 0.46432 0.54930 -0.05492
 N497 N 0.44096 0.57401 -0.06770
 N498 N 0.48267 0.46921 -0.07563
 N499 N 0.47701 0.44297 -0.09927
 N500 N 0.45232 0.47316 -0.05322
 N501 N 0.42472 0.45008 -0.06146
 N502 N 0.49479 0.54557 -0.07733
 N503 N 0.49291 0.56780 -0.10585
 Mn504 Mn 0.45183 0.51242 -0.01485
 Mn505 Mn 0.52901 0.50177 -0.07276
 Cl506 Cl 0.51880 0.50328 -0.00820
 C507 C 0.45948 0.58576 -0.09912
 C508 C 0.44083 0.43133 -0.09013
 C509 C 1.14669 0.17078 0.13369
 C510 C 1.15028 0.13599 0.12254
 C511 C 1.12186 0.11914 0.09921
 C512 C 1.11839 0.08263 0.09721
 H513 H 1.17315 0.11909 0.13226
 H514 H 1.10229 0.13665 0.08515
 H515 H 1.12198 0.18641 0.12596
 H516 H 1.13635 0.06527 0.11321
 C517 C 1.13291 0.64574 0.66697
 C518 C 1.13891 0.63683 0.63185
 C519 C 1.11053 0.61437 0.61371
 C520 C 1.11697 0.60367 0.57922
 H521 H 1.16482 0.64568 0.61644
 H522 H 1.08483 0.60510 0.62931
 H523 H 1.10591 0.63783 0.68119
 H524 H 1.14291 0.61246 0.56374
 C525 C 0.63097 0.15645 0.65003
 C526 C 0.63444 0.12276 0.63605
 C527 C 0.60622 0.10855 0.61115
 C528 C 0.60194 0.07251 0.60619
 H529 H 0.65757 0.10506 0.64381
 H530 H 0.58769 0.12772 0.59787
 H531 H 0.60602 0.17270 0.64425
 H532 H 0.61848 0.05323 0.62150
 C533 C 0.63271 0.66008 0.16882
 C534 C 0.64338 0.63316 0.14601
 C535 C 0.61537 0.61332 0.12461
 C536 C 0.62790 0.59221 0.09694
 H537 H 0.67352 0.62607 0.14231
 H538 H 0.58482 0.61585 0.13145
 H539 H 0.60298 0.66882 0.17042
 H540 H 0.65848 0.59104 0.08971
 C541 C 0.83095 -0.13120 0.18254
 C542 C 0.84474 -0.13330 0.14793
 C543 C 0.87284 -0.10658 0.13169
 C544 C 0.88651 -0.11151 0.09743
 H545 H 0.83595 -0.15589 0.13121
 H546 H 0.88360 -0.08445 0.14793
 H547 H 0.83802 -0.10751 0.19861
 H548 H 0.87548 -0.13406 0.08188
 C549 C 0.83349 0.32812 0.63355
 C550 C 0.87152 0.34092 0.63318
 C551 C 0.88466 0.36826 0.60848
 C552 C 0.92036 0.38495 0.61200
 H553 H 0.89077 0.33173 0.65345
 H554 H 0.86614 0.37795 0.58765
 H555 H 0.81538 0.34037 0.61360
 H556 H 0.93799 0.37609 0.63387
 C557 C 0.33163 -0.14105 0.67613
 C558 C 0.32694 -0.12943 0.64200
 C559 C 0.35333 -0.10200 0.62469
 C560 C 0.35696 -0.09914 0.58841
 H561 H 0.30527 -0.14145 0.62572
 H562 H 0.37265 -0.08690 0.64137
 H563 H 0.35337 -0.12775 0.69160
 H564 H 0.33924 -0.11601 0.57176
 C565 C 0.37412 0.34178 0.15345
 C566 C 0.36778 0.36116 0.12315
 C567 C 0.39635 0.38794 0.10760
 C568 C 0.38999 0.40625 0.07677
 H569 H 0.34126 0.35753 0.10952
 H570 H 0.42232 0.39319 0.12175
 H571 H 0.40173 0.34460 0.16547
 H572 H 0.36415 0.40058 0.06257
 C573 C 0.84058 0.12229 -0.16360
 C574 C 0.85407 0.13025 -0.13109
 C575 C 0.87605 0.10282 -0.11125
 C576 C 0.88954 0.10994 -0.07860
 H577 H 0.84908 0.15693 -0.11903
 H578 H 0.88243 0.07678 -0.12424
 H579 H 0.84434 0.09474 -0.17412
 H580 H 0.88336 0.13596 -0.06555
 C581 C 0.86257 0.64761 0.33315
 C582 C 0.85661 0.63092 0.36564
 C583 C 0.88627 0.60791 0.38144
 C584 C 0.88017 0.59383 0.41504
 H585 H 0.82957 0.63457 0.38123
 H586 H 0.91258 0.60195 0.36546
 H587 H 0.89055 0.64563 0.31880
 H588 H 0.85379 0.60021 0.43074
 C589 C 0.33234 0.13464 0.33643
 C590 C 0.35120 0.14240 0.36834
 C591 C 0.37187 0.11524 0.38566
 C592 C 0.38904 0.12205 0.41848
 H593 H 0.34992 0.16934 0.38040
 H594 H 0.37515 0.08856 0.37304
 H595 H 0.33157 0.10606 0.32829
 H596 H 0.38407 0.14799 0.43213
 C597 C 0.34704 0.63644 -0.15250
 C598 C 0.38545 0.63622 -0.15251
 C599 C 0.40431 0.61563 -0.12399
 C600 C 0.44213 0.60970 -0.12598
 H601 H 0.40312 0.65031 -0.17350
 H602 H 0.38652 0.60377 -0.10159
 H603 H 0.33081 0.62051 -0.13166
 H604 H 0.45995 0.62012 -0.14902
 C605 C 1.15478 -0.17686 -0.12767
 C606 C 1.14349 -0.14260 -0.13423
 C607 C 1.11844 -0.12341 -0.10745
 C608 C 1.10361 -0.09091 -0.11553
 H609 H 1.15161 -0.12894 -0.15992
 H610 H 1.11022 -0.13703 -0.08170
 H611 H 1.14791 -0.18937 -0.10111
 H612 H 1.11148 -0.07739 -0.14138
 C613 C 1.17952 0.34882 0.35311
 C614 C 1.14255 0.34841 0.36514
 C615 C 1.12729 0.37668 0.39049
 C616 C 1.08964 0.38351 0.39332
 H617 H 1.12275 0.32876 0.35433
 H618 H 1.14706 0.39359 0.40495
 H619 H 1.19819 0.37042 0.36224
 H620 H 1.07035 0.36798 0.37701
 C621 C 0.63441 -0.18351 0.38188
 C622 C 0.63372 -0.14684 0.38187
 C623 C 0.60278 -0.12746 0.40237
 C624 C 0.59462 -0.09249 0.39489
 H625 H 0.65443 -0.13124 0.36467
 H626 H 0.58513 -0.14271 0.42268
 H627 H 0.61168 -0.19892 0.39670
 H628 H 0.61131 -0.07749 0.37373
 C629 C 0.68987 0.33492 -0.13466
 C630 C 0.65476 0.33412 -0.11798
 C631 C 0.64189 0.36415 -0.09371
 C632 C 0.60489 0.37342 -0.09134
 H633 H 0.63399 0.31355 -0.12531
 H634 H 0.66303 0.38130 -0.08129
 H635 H 0.70907 0.35757 -0.12930
 H636 H 0.58449 0.35817 -0.10670
 C637 C 1.16179 0.17743 -0.11812
 C638 C 1.15099 0.14053 -0.11975
 C639 C 1.12478 0.12476 -0.09391
 C640 C 1.10864 0.09068 -0.10093
 H641 H 1.16016 0.12425 -0.14309
 H642 H 1.11485 0.14005 -0.07000
 H643 H 1.14931 0.19343 -0.09568
 H644 H 1.11734 0.07692 -0.12615
 C645 C 1.11955 0.66122 0.31241
 C646 C 1.12540 0.62882 0.32845
 C647 C 1.09532 0.60986 0.35166
 C648 C 1.10635 0.58762 0.37814
 H649 H 1.15416 0.61754 0.32751
 H650 H 1.06513 0.61540 0.34858
 H651 H 1.09159 0.67399 0.31608
 H652 H 1.13683 0.58473 0.38208
 C653 C 0.65147 0.18028 0.37404
 C654 C 0.64726 0.14396 0.37860
 C655 C 0.61930 0.12800 0.40612
 C656 C 0.60989 0.09255 0.40405
 H657 H 0.66225 0.12532 0.36010
 H658 H 0.60422 0.14551 0.42581
 H659 H 0.63455 0.19823 0.39194
 H660 H 0.62368 0.07595 0.38278
 C661 C 0.65155 0.67209 -0.16270
 C662 C 0.66373 0.64379 -0.14008
 C663 C 0.63711 0.62006 -0.12213
 C664 C 0.64754 0.59682 -0.09388
 H665 H 0.69392 0.64095 -0.13508
 H666 H 0.60746 0.62034 -0.12976
 H667 H 0.62101 0.67805 -0.16176
 H668 H 0.67573 0.59977 -0.08307
 C669 C 0.82692 -0.11023 -0.16985
 C670 C 0.83765 -0.11546 -0.13580
 C671 C 0.86263 -0.08902 -0.11813
 C672 C 0.87588 -0.09750 -0.08571
 H673 H 0.82941 -0.14054 -0.12116
 H674 H 0.87257 -0.06439 -0.13269
 H675 H 0.83356 -0.08432 -0.18368
 H676 H 0.86637 -0.12274 -0.07197
 C677 C 0.85424 0.36151 0.33131
 C678 C 0.86231 0.35740 0.36631
 C679 C 0.88869 0.38296 0.38306
 C680 C 0.88927 0.38563 0.41927
 H681 H 0.84833 0.33603 0.38312
 H682 H 0.90658 0.40105 0.36551
 H683 H 0.86631 0.38473 0.31573
 H684 H 0.86982 0.36912 0.43688
 C685 C 0.32244 -0.16197 0.36748
 C686 C 0.33065 -0.12421 0.36799
 C687 C 0.35331 -0.10939 0.39446
 C688 C 0.36702 -0.07334 0.39104
 H689 H 0.32217 -0.10609 0.34644
 H690 H 0.36258 -0.12683 0.41639
 H691 H 0.33373 -0.17861 0.38912
 H692 H 0.35883 -0.05649 0.36823
 C693 C 0.33019 0.37549 -0.14417
 C694 C 0.36633 0.37223 -0.13418
 C695 C 0.38367 0.39991 -0.11110
 C696 C 0.42181 0.40240 -0.11015
 H697 H 0.38414 0.35002 -0.14469
 H698 H 0.36542 0.41941 -0.09638
 H699 H 0.31373 0.39939 -0.13565
 H700 H 0.43991 0.38423 -0.12673
 C701 C 1.18475 -0.13223 0.14197
 C702 C 1.15801 -0.13975 0.11838
 C703 C 1.13562 -0.11074 0.10145
 C704 C 1.11328 -0.11919 0.07435
 H705 H 1.15142 -0.16812 0.11233
 H706 H 1.13589 -0.08316 0.11227
 H707 H 1.19333 -0.10400 0.14626
 H708 H 1.11435 -0.14656 0.06298
 C709 C 1.13057 0.34839 0.67287
 C710 C 1.13699 0.36012 0.63836
 C711 C 1.10920 0.38373 0.62066
 C712 C 1.11625 0.39542 0.58628
 H713 H 1.16322 0.35277 0.62298
 H714 H 1.08364 0.39272 0.63622
 H715 H 1.10326 0.35442 0.68714
 H716 H 1.14187 0.38634 0.57089
 C717 C 0.66142 -0.13760 0.63275
 C718 C 0.62939 -0.14623 0.61612
 C719 C 0.60562 -0.11750 0.60013
 C720 C 0.57975 -0.12606 0.57599
 H721 H 0.62046 -0.17467 0.61426
 H722 H 0.60922 -0.08919 0.60823
 H723 H 0.67131 -0.10929 0.63207
 H724 H 0.57774 -0.15405 0.56648
 C725 C 0.66903 0.33529 0.12842
 C726 C 0.63285 0.34743 0.13012
 C727 C 0.61920 0.37168 0.10126
 C728 C 0.58492 0.38765 0.10541
 H729 H 0.61387 0.34190 0.15394
 H730 H 0.63824 0.37835 0.07766
 H731 H 0.68766 0.34282 0.10477
 H732 H 0.56630 0.38141 0.12940
 C733 C 0.85921 0.16641 0.15157
 C734 C 0.85672 0.13068 0.14433
 C735 C 0.88452 0.11405 0.11795
 C736 C 0.89154 0.07815 0.11874
 H737 H 0.83547 0.11344 0.15904
 H738 H 0.90105 0.13179 0.09890
 H739 H 0.88259 0.18251 0.13859
 H740 H 0.87675 0.06064 0.13915
 C741 C 0.88329 0.67200 0.67147
 C742 C 0.88007 0.65371 0.64033
 C743 C 0.90844 0.62643 0.62642
 C744 C 0.90145 0.60904 0.59555
 H745 H 0.85515 0.65852 0.62455
 H746 H 0.93310 0.61942 0.64177
 H747 H 0.90916 0.66912 0.68635
 H748 H 0.87607 0.61647 0.58135
 C749 C 0.35318 0.18227 0.64937
 C750 C 0.34958 0.14676 0.64106
 C751 C 0.37713 0.12914 0.61473
 C752 C 0.38013 0.09260 0.61366
 H753 H 0.32737 0.13004 0.65501
 H754 H 0.39624 0.14617 0.59728
 H755 H 0.37727 0.19786 0.63704
 H756 H 0.36239 0.07578 0.63255
 C757 C 0.38069 0.66235 0.16621
 C758 C 0.38136 0.65376 0.13075
 C759 C 0.41068 0.62906 0.11397
 C760 C 0.40948 0.62027 0.07873
 H761 H 0.35965 0.66467 0.11368
 H762 H 0.43191 0.61672 0.13071
 H763 H 0.40372 0.65280 0.18252
 H764 H 0.38763 0.63239 0.06255
   
