data_POSCAR
  _audit_creation_date              2014-09-24
  _audit_creation_method            'ToBaCCo'
  _symmetry_space_group_name_H-M    'P1'
  _symmetry_Int_Tables_number       1
  _symmetry_cell_setting            triclinic
  loop_
  _symmetry_equiv_pos_as_xyz
 x,y,z
_cell_length_a 14.9005
_cell_length_b 15.0835
_cell_length_c 26.8162
_cell_angle_alpha 90.455300
_cell_angle_beta 89.795100
_cell_angle_gamma 119.923900
loop_
  _atom_site_label
  _atom_site_type_symbol
  _atom_site_fract_x
  _atom_site_fract_y
  _atom_site_fract_z
Zn1 Zn 0.92960 0.06297 1.00064
 Zn2 Zn 1.10784 0.04798 1.04004
 Zn3 Zn 0.90552 -0.14232 1.01420
 Zn4 Zn 1.03090 -0.01273 0.93887
 O5 O 0.99382 -0.01021 1.00096
 O6 O 0.98654 0.16677 1.04369
 O7 O 1.10892 -0.04577 1.08236
 O8 O 0.78037 -0.16502 1.03363
 O9 O 1.11376 0.15111 1.07764
 O10 O 0.79785 -0.01218 1.02022
 O11 O 0.95510 -0.18060 1.06425
 O12 O 1.03885 -0.12497 0.92610
 O13 O 1.22415 0.10874 1.00237
 O14 O 0.88962 -0.22767 0.96230
 O15 O 1.15611 0.09318 0.92675
 O16 O 0.93455 -0.01253 0.89805
 O17 O 0.92570 0.10969 0.93976
 C18 C 1.05975 0.19490 1.07502
 C19 C 1.03809 -0.13821 1.08973
 C20 C 0.74450 -0.10430 1.03446
 C21 C 0.96224 -0.21371 0.93259
 C22 C 1.23378 0.12957 0.95594
 C23 C 0.90320 0.05185 0.90174
 Zn24 Zn 0.08094 0.97254 0.53766
 Zn25 Zn -0.13269 0.91562 0.50126
 Zn26 Zn 0.02942 1.13505 0.51592
 Zn27 Zn 0.04857 1.01240 0.44090
 O28 O 0.00332 1.00807 0.50136
 O29 O 0.00089 0.84998 0.56446
 O30 O -0.20277 0.96865 0.53183
 O31 O 0.12081 1.18871 0.56591
 O32 O -0.15716 0.80191 0.53513
 O33 O 0.15310 1.06433 0.58514
 O34 O -0.08492 1.13429 0.53824
 O35 O 0.15809 1.13473 0.43074
 O36 O -0.18622 0.88233 0.43804
 O37 O 0.08885 1.22181 0.46363
 O38 O -0.04664 0.99240 0.39611
 O39 O 0.08816 0.92031 0.43032
 O40 O 0.17574 0.96061 0.50067
 C41 C -0.09492 0.78454 0.56016
 C42 C -0.17602 1.05972 0.54536
 C43 C 0.16692 1.15366 0.59206
 C44 C 0.15744 1.21794 0.43662
 C45 C -0.14271 0.92770 0.39760
 C46 C 0.16008 0.92387 0.45679
 O47 O 0.25550 0.54832 0.33001
 O48 O 0.22427 0.70419 0.32256
 C49 C 0.30056 0.79029 0.33499
 O50 O 0.38142 0.83826 0.30875
 O51 O 0.53424 0.84606 0.25761
 C52 C 0.57187 0.79550 0.27765
 O53 O 0.52661 0.69854 0.27682
 O54 O 0.36386 0.51659 0.28612
 C55 C 0.30919 0.50525 0.32459
 O56 O 0.17589 0.48396 0.23824
 O57 O 0.15161 0.64105 0.22985
 C58 C 0.18156 0.73004 0.21374
 O59 O 0.27027 0.80604 0.22343
 O60 O 0.41911 0.80379 0.17405
 C61 C 0.47004 0.76497 0.15568
 O62 O 0.48452 0.69977 0.17875
 O63 O 0.31327 0.52143 0.19015
 C64 C 0.21667 0.47075 0.19921
 Cr65 Cr 0.20689 0.59743 0.27930
 Cr66 Cr 0.39913 0.81841 0.24145
 Cr67 Cr 0.41928 0.61118 0.23358
 O68 O 0.34169 0.67569 0.25163
 O69 O 0.85513 0.44036 0.79653
 O70 O 0.79110 0.24874 0.77728
 C71 C 0.71814 0.17178 0.79855
 O72 O 0.62371 0.14804 0.79584
 O73 O 0.49117 0.21453 0.80776
 C74 C 0.51197 0.29095 0.83580
 O75 O 0.57722 0.38291 0.82483
 O76 O 0.76280 0.51910 0.79750
 C77 C 0.83636 0.50814 0.81320
 O78 O 0.83258 0.47020 0.69873
 O79 O 0.76585 0.27750 0.68091
 C80 C 0.68620 0.19267 0.67027
 O81 O 0.60484 0.15174 0.69676
 O82 O 0.47532 0.21789 0.70756
 C83 C 0.45663 0.29082 0.70721
 O84 O 0.50976 0.37306 0.73131
 O85 O 0.69930 0.49946 0.70199
 C86 C 0.78133 0.51001 0.68174
 Cr87 Cr 0.80535 0.35837 0.73900
 Cr88 Cr 0.55350 0.18919 0.75211
 Cr89 Cr 0.63857 0.43901 0.76335
 O90 O 0.66584 0.32829 0.75153
 C91 C 0.07853 0.27833 0.10969
 C92 C 0.00453 0.30533 0.11989
 C93 C 0.04750 0.38031 0.15493
 C94 C 0.14525 0.39491 0.16310
 O95 O 0.16489 0.33296 0.13573
 H96 H -0.07255 0.27252 0.10430
 H97 H 0.01216 0.42034 0.17241
 C98 C 0.64105 0.86121 0.05495
 C99 C 0.58166 0.90483 0.04328
 C100 C 0.50360 0.86731 0.07740
 C101 C 0.52165 0.80410 0.10757
 O102 O 0.60476 0.79981 0.09384
 H103 H 0.59717 0.96193 0.01522
 H104 H 0.44483 0.88893 0.08194
 C105 C 0.04843 0.79943 0.12878
 C106 C -0.03238 0.70462 0.14185
 C107 C 0.00678 0.66843 0.17655
 C108 C 0.10875 0.74368 0.18240
 O109 O 0.13476 0.82399 0.15349
 H110 H -0.11039 0.66563 0.12706
 H111 H -0.03352 0.59475 0.19464
 C112 C 0.86964 0.68392 0.58208
 C113 C 0.90988 0.62354 0.56687
 C114 C 0.87793 0.54861 0.60138
 C115 C 0.82089 0.56893 0.63550
 O116 O 0.81560 0.65159 0.62404
 H117 H 0.96100 0.63606 0.53563
 H118 H 0.89706 0.48821 0.60267
 C119 C 0.24224 0.22009 0.62953
 C120 C 0.25822 0.31522 0.64318
 C121 C 0.34056 0.35426 0.67489
 C122 C 0.36880 0.28013 0.67790
 O123 O 0.30913 0.19846 0.65052
 H124 H 0.21625 0.35236 0.63066
 H125 H 0.37679 0.42848 0.69303
 C126 C 0.74865 0.07817 0.57209
 C127 C 0.64359 0.01021 0.57299
 C128 C 0.60487 0.04781 0.60812
 C129 C 0.68931 0.13571 0.62618
 O130 O 0.77667 0.15461 0.60420
 H131 H 0.60122 -0.06067 0.55222
 H132 H 0.52548 0.01266 0.62086
 C133 C 0.33639 0.19887 0.93519
 C134 C 0.41695 0.27792 0.96089
 C135 C 0.49426 0.32561 0.92655
 C136 C 0.45526 0.27051 0.88297
 O137 O 0.35954 0.19398 0.88804
 H138 H 0.41815 0.29941 0.99959
 H139 H 0.57021 0.39148 0.93263
 C140 C 0.95632 0.70068 0.90358
 C141 C 1.03841 0.68425 0.89555
 C142 C 1.00282 0.60460 0.86233
 C143 C 0.90256 0.58038 0.85189
 O144 O 0.87415 0.63827 0.87698
 H145 H 1.11557 0.72699 0.91111
 H146 H 1.04616 0.57181 0.84580
 C147 C 0.83256 0.05390 0.86442
 C148 C 0.75333 -0.03291 0.84262
 C149 C 0.69594 -0.00048 0.81724
 C150 C 0.74528 0.10375 0.82504
 O151 O 0.82821 0.13718 0.85371
 H152 H 0.73738 -0.11086 0.84630
 H153 H 0.62814 -0.04659 0.79455
 C154 C 0.79654 0.91056 0.35169
 C155 C 0.83390 0.97545 0.31138
 C156 C 0.75442 0.93935 0.27827
 C157 C 0.67491 0.85399 0.30028
 O158 O 0.69963 0.83605 0.34510
 H159 H 0.90934 1.04300 0.30731
 H160 H 0.75384 0.97172 0.24247
 C161 C 0.23678 0.30840 0.41058
 C162 C 0.33177 0.32013 0.39766
 C163 C 0.37507 0.40135 0.36640
 C164 C 0.30322 0.43311 0.36247
 O165 O 0.21910 0.37714 0.38945
 H166 H 0.36299 0.27148 0.40769
 H167 H 0.44745 0.43010 0.34640
 C168 C 0.22934 0.89194 0.43468
 C169 C 0.32976 0.92615 0.44999
 C170 C 0.37109 0.89183 0.41438
 C171 C 0.29187 0.83804 0.38087
 O172 O 0.20612 0.83820 0.39293
 H173 H 0.36944 0.97462 0.48174
 H174 H 0.44951 0.90535 0.41262
   
