data_POSCAR
  _audit_creation_date              2014-09-24
  _audit_creation_method            'ToBaCCo'
  _symmetry_space_group_name_H-M    'P1'
  _symmetry_Int_Tables_number       1
  _symmetry_cell_setting            triclinic
  loop_
  _symmetry_equiv_pos_as_xyz
 x,y,z
_cell_length_a 27.2405
_cell_length_b 27.2597
_cell_length_c 27.2680
_cell_angle_alpha 90.035200
_cell_angle_beta 90.028200
_cell_angle_gamma 90.039800
loop_
  _atom_site_label
  _atom_site_type_symbol
  _atom_site_fract_x
  _atom_site_fract_y
  _atom_site_fract_z
O1 O 0.41429 0.34792 -0.04856
 O2 O 0.34657 0.41525 0.04684
 O3 O 0.41414 0.34747 0.04688
 O4 O 0.34605 0.41526 -0.04859
 O5 O 0.28886 0.35766 -0.04857
 O6 O 0.35674 0.29006 0.04670
 O7 O 0.28930 0.35768 0.04669
 O8 O 0.35693 0.29045 -0.04857
 Cu9 Cu 0.38607 0.38729 -0.00089
 Cu10 Cu 0.31719 0.31817 -0.00098
 C11 C 0.39714 0.30767 -0.06445
 C12 C 0.30643 0.39787 0.06273
 C13 C 0.39694 0.30721 0.06279
 C14 C 0.30578 0.39798 -0.06450
 O15 O 0.58569 0.65221 -0.04854
 O16 O 0.65351 0.58482 0.04672
 O17 O 0.58610 0.65276 0.04687
 O18 O 0.65382 0.58477 -0.04874
 O19 O 0.71113 0.64226 -0.04877
 O20 O 0.64362 0.71005 0.04663
 O21 O 0.71090 0.64227 0.04653
 O22 O 0.64316 0.70957 -0.04860
 Cu23 Cu 0.61397 0.61282 -0.00094
 Cu24 Cu 0.68299 0.68180 -0.00110
 C25 C 0.60287 0.69242 -0.06440
 C26 C 0.69371 0.60214 0.06258
 C27 C 0.60341 0.69300 0.06275
 C28 C 0.69407 0.60197 -0.06471
 O29 O 0.58553 0.34801 1.04852
 O30 O 0.65332 0.41545 0.95324
 O31 O 0.58568 0.34769 0.95310
 O32 O 0.65362 0.41553 1.04867
 O33 O 0.71084 0.35803 1.04862
 O34 O 0.64309 0.29037 0.95325
 O35 O 0.71059 0.35796 0.95336
 O36 O 0.64292 0.29064 1.04849
 Cu37 Cu 0.61373 0.38749 1.00090
 Cu38 Cu 0.68264 0.31846 1.00097
 C39 C 0.60270 0.30780 1.06437
 C40 C 0.69347 0.39811 0.93734
 C41 C 0.60290 0.30748 0.93716
 C42 C 0.69386 0.39830 1.06460
 O43 O 0.34648 0.58466 0.95360
 O44 O 0.41456 0.65221 1.04885
 O45 O 0.34639 0.58464 1.04906
 O46 O 0.41417 0.65247 0.95341
 O47 O 0.35677 0.70979 0.95367
 O48 O 0.28918 0.64214 1.04913
 O49 O 0.35718 0.70958 1.04894
 O50 O 0.28922 0.64215 0.95384
 Cu51 Cu 0.38619 0.61268 1.00125
 Cu52 Cu 0.31732 0.68169 1.00145
 C53 C 0.30628 0.60197 0.93778
 C54 C 0.39746 0.69247 1.06473
 C55 C 0.30617 0.60186 1.06505
 C56 C 0.39694 0.69270 0.93753
 O57 O -0.04858 0.41415 0.34713
 O58 O 0.04681 0.34707 0.41510
 O59 O 0.04696 0.41443 0.34701
 O60 O -0.04870 0.34605 0.41439
 O61 O -0.04812 0.28880 0.35691
 O62 O 0.04732 0.35695 0.28974
 O63 O 0.04721 0.28973 0.35767
 O64 O -0.04805 0.35674 0.28978
 Cu65 Cu -0.00092 0.38624 0.38671
 Cu66 Cu -0.00035 0.31728 0.31774
 C67 C -0.06424 0.39684 0.30688
 C68 C 0.06290 0.30694 0.39795
 C69 C 0.06311 0.39728 0.30684
 C70 C -0.06440 0.30573 0.39707
 O71 O 0.04706 0.65239 0.58470
 O72 O -0.04855 0.58547 0.65261
 O73 O -0.04848 0.65336 0.58512
 O74 O 0.04697 0.58512 0.65291
 O75 O 0.04734 0.64273 0.71005
 O76 O -0.04789 0.71075 0.64247
 O77 O -0.04800 0.64304 0.70983
 O78 O 0.04746 0.70986 0.64200
 Cu79 Cu -0.00079 0.61327 0.61304
 Cu80 Cu -0.00021 0.68238 0.68184
 C81 C 0.06319 0.69255 0.60180
 C82 C -0.06423 0.60288 0.69279
 C83 C -0.06416 0.69371 0.60232
 C84 C 0.06307 0.60235 0.69309
 O85 O 1.04839 0.58543 0.34728
 O86 O 0.95305 0.65265 0.41523
 O87 O 0.95287 0.58516 0.34720
 O88 O 1.04854 0.65328 0.41483
 O89 O 1.04811 0.71059 0.35747
 O90 O 0.95264 0.64266 0.29003
 O91 O 0.95279 0.71001 0.35789
 O92 O 1.04798 0.64292 0.29006
 Cu93 Cu 1.00073 0.61331 0.38694
 Cu94 Cu 1.00033 0.68233 0.31809
 C95 C 1.06411 0.60278 0.30710
 C96 C 0.93704 0.69282 0.39811
 C97 C 0.93679 0.60236 0.30704
 C98 C 1.06433 0.69356 0.39761
 O99 O 0.95256 0.34711 0.58439
 O100 O 1.04802 0.41416 0.65272
 O101 O 1.04810 0.34632 0.58505
 O102 O 0.95248 0.41452 0.65260
 O103 O 0.95202 0.35694 0.70969
 O104 O 1.04744 0.28894 0.64233
 O105 O 1.04738 0.35661 0.70986
 O106 O 0.95208 0.28968 0.64164
 Cu107 Cu 1.00033 0.38634 0.61290
 Cu108 Cu 0.99965 0.31726 0.68163
 C109 C 0.93643 0.30693 0.60139
 C110 C 1.06363 0.39677 0.69294
 C111 C 1.06376 0.30598 0.60224
 C112 C 0.93630 0.39731 0.69272
 O113 O 0.41436 0.04823 0.34748
 O114 O 0.34669 -0.04763 0.41455
 O115 O 0.41493 -0.04722 0.34737
 O116 O 0.34661 0.04786 0.41523
 O117 O 0.28942 0.04776 0.35764
 O118 O 0.35764 -0.04717 0.28987
 O119 O 0.28955 -0.04756 0.35689
 O120 O 0.35701 0.04810 0.29003
 Cu121 Cu 0.38644 0.00032 0.38699
 Cu122 Cu 0.31764 0.00029 0.31782
 C123 C 0.39716 0.06413 0.30728
 C124 C 0.30658 -0.06362 0.39705
 C125 C 0.39788 -0.06308 0.30705
 C126 C 0.30636 0.06369 0.39797
 O127 O 0.65328 -0.04799 0.58568
 O128 O 0.58559 0.04786 0.65276
 O129 O 0.65298 0.04744 0.58464
 O130 O 0.58514 -0.04763 0.65296
 O131 O 0.64259 -0.04717 0.71029
 O132 O 0.71037 0.04776 0.64204
 O133 O 0.64314 0.04814 0.71001
 O134 O 0.71059 -0.04749 0.64318
 Cu135 Cu 0.61342 -0.00011 0.61321
 Cu136 Cu 0.68244 0.00037 0.68216
 C137 C 0.69350 -0.06372 0.60308
 C138 C 0.60291 0.06399 0.69285
 C139 C 0.69327 0.06345 0.60170
 C140 C 0.60235 -0.06332 0.69325
 O141 O 0.41403 0.95204 0.65309
 O142 O 0.34626 1.04758 0.58573
 O143 O 0.41448 1.04748 0.65292
 O144 O 0.34658 0.95213 0.58503
 O145 O 0.28926 0.95207 0.64245
 O146 O 0.35711 1.04730 0.71028
 O147 O 0.28903 1.04735 0.64325
 O148 O 0.35656 0.95202 0.71037
 Cu149 Cu 0.38615 0.99980 0.61337
 Cu150 Cu 0.31721 0.99966 0.68237
 C151 C 0.39676 0.93610 0.69324
 C152 C 0.30610 1.06344 0.60312
 C153 C 0.39732 1.06335 0.69315
 C154 C 0.30634 0.93617 0.60219
 O155 O 0.65459 1.04855 0.41472
 O156 O 0.58671 0.95285 0.34727
 O157 O 0.65428 0.95302 0.41526
 O158 O 0.58620 1.04831 0.34752
 O159 O 0.64350 1.04822 0.29009
 O160 O 0.71152 0.95305 0.35777
 O161 O 0.64410 0.95292 0.28992
 O162 O 0.71174 1.04841 0.35714
 Cu163 Cu 0.61466 1.00069 0.38701
 Cu164 Cu 0.68348 1.00065 0.31796
 C165 C 0.69476 1.06448 0.39734
 C166 C 0.60391 0.93693 0.30706
 C167 C 0.69449 0.93709 0.39802
 C168 C 0.60326 1.06417 0.30724
 C169 C 0.83759 0.77336 0.47530
 C170 C 0.83760 0.77325 0.52696
 C171 C 0.80569 0.80451 0.55238
 C172 C 0.77454 0.83643 0.52678
 C173 C 0.77474 0.83666 0.47512
 C174 C 0.80595 0.80476 0.44973
 H175 H 0.80667 0.80538 0.40995
 H176 H 0.80613 0.80503 0.59216
 C177 C 0.16240 0.22662 0.47531
 C178 C 0.16218 0.22656 0.52697
 C179 C 0.19402 0.19526 0.55241
 C180 C 0.22535 0.16350 0.52683
 C181 C 0.22544 0.16351 0.47517
 C182 C 0.19426 0.19542 0.44976
 H183 H 0.19373 0.19494 0.40998
 H184 H 0.19340 0.19459 0.59218
 C185 C 0.16294 0.77281 0.52462
 C186 C 0.16280 0.77287 0.47296
 C187 C 0.19465 0.80421 0.44757
 C188 C 0.22592 0.83605 0.47319
 C189 C 0.22592 0.83604 0.52485
 C190 C 0.19475 0.80407 0.55021
 H191 H 0.19416 0.80458 0.59000
 H192 H 0.19407 0.80488 0.40779
 C193 C 0.83698 0.22631 0.52385
 C194 C 0.83722 0.22610 0.47219
 C195 C 0.80544 0.19463 0.44676
 C196 C 0.77410 0.16285 0.47234
 C197 C 0.77398 0.16304 0.52400
 C198 C 0.80512 0.19509 0.54940
 H199 H 0.80561 0.19472 0.58918
 H200 H 0.80609 0.19387 0.40698
 C201 C 0.47359 0.83638 0.77391
 C202 C 0.52530 0.83648 0.77380
 C203 C 0.55082 0.80454 0.80486
 C204 C 0.52533 0.77323 0.83665
 C205 C 0.47362 0.77328 0.83698
 C206 C 0.44808 0.80457 0.80522
 H207 H 0.40826 0.80519 0.80590
 H208 H 0.59065 0.80506 0.80533
 C209 C 0.47399 0.16395 0.22665
 C210 C 0.52570 0.16400 0.22673
 C211 C 0.55112 0.19593 0.19555
 C212 C 0.52553 0.22707 0.16369
 C213 C 0.47381 0.22689 0.16341
 C214 C 0.44837 0.19561 0.19527
 H215 H 0.40856 0.19488 0.19462
 H216 H 0.59094 0.19552 0.19505
 C217 C 0.52615 0.16394 0.77337
 C218 C 0.47444 0.16381 0.77334
 C219 C 0.44894 0.19574 0.80444
 C220 C 0.47447 0.22705 0.83625
 C221 C 0.52618 0.22703 0.83650
 C222 C 0.55169 0.19578 0.80468
 H223 H 0.59151 0.19518 0.80533
 H224 H 0.40912 0.19516 0.80497
 C225 C 0.52695 0.83698 0.22634
 C226 C 0.47523 0.83693 0.22652
 C227 C 0.44968 0.80489 0.19548
 C228 C 0.47514 0.77360 0.16364
 C229 C 0.52686 0.77377 0.16326
 C230 C 0.55243 0.80518 0.19498
 H231 H 0.59224 0.80587 0.19425
 H232 H 0.40986 0.80532 0.19508
 C233 C 0.77355 0.47467 0.83706
 C234 C 0.77335 0.52635 0.83704
 C235 C 0.80441 0.55178 0.80499
 C236 C 0.83617 0.52622 0.77366
 C237 C 0.83639 0.47454 0.77371
 C238 C 0.80472 0.44910 0.80516
 H239 H 0.80537 0.40932 0.80585
 H240 H 0.80492 0.59158 0.80546
 C241 C 0.22635 0.47451 0.16296
 C242 C 0.22666 0.52619 0.16306
 C243 C 0.19559 0.55164 0.19508
 C244 C 0.16371 0.52609 0.22630
 C245 C 0.16337 0.47442 0.22617
 C246 C 0.19505 0.44896 0.19475
 H247 H 0.19432 0.40918 0.19400
 H248 H 0.19516 0.59144 0.19468
 C249 C 0.77367 0.52543 0.16284
 C250 C 0.77332 0.47376 0.16284
 C251 C 0.80434 0.44823 0.19484
 C252 C 0.83622 0.47370 0.22615
 C253 C 0.83657 0.52537 0.22615
 C254 C 0.80495 0.55091 0.19475
 H255 H 0.80572 0.59069 0.19410
 H256 H 0.80473 0.40843 0.19433
 C257 C 0.22584 0.52520 0.83763
 C258 C 0.22607 0.47351 0.83755
 C259 C 0.19497 0.44803 0.80550
 C260 C 0.16314 0.47353 0.77419
 C261 C 0.16291 0.52522 0.77427
 C262 C 0.19459 0.55070 0.80575
 H263 H 0.19392 0.59049 0.80644
 H264 H 0.19451 0.40823 0.80593
 C265 C 0.27932 0.42454 0.09890
 C266 C 0.25566 0.44715 0.12854
 C267 C 0.72081 0.57547 0.09875
 C268 C 0.74443 0.55285 0.12840
 C269 C 0.72058 0.42476 0.90117
 C270 C 0.74424 0.44733 0.87151
 C271 C 0.27903 0.57524 0.90165
 C272 C 0.25526 0.55260 0.87204
 C273 C 0.09883 0.27988 0.42501
 C274 C 0.12823 0.25616 0.44786
 C275 C 0.09922 0.71955 0.57479
 C276 C 0.12870 0.74326 0.55200
 C277 C 0.90113 0.71995 0.42512
 C278 C 0.87175 0.74375 0.44791
 C279 C 0.90051 0.27982 0.57421
 C280 C 0.87113 0.25600 0.55132
 C281 C 0.42401 0.10022 0.28013
 C282 C 0.44664 0.12971 0.25628
 C283 C 0.57612 0.10013 0.71997
 C284 C 0.55352 0.12968 0.74380
 C285 C 0.42356 0.90006 0.72045
 C286 C 0.44619 0.87058 0.74432
 C287 C 0.57705 0.90082 0.27982
 C288 C 0.55438 0.87129 0.25593
 C289 C 0.42414 0.28048 0.89967
 C290 C 0.44697 0.25666 0.87033
 C291 C 0.57579 0.71967 0.89984
 C292 C 0.55289 0.74355 0.87061
 C293 C 0.42462 0.71981 0.10048
 C294 C 0.44755 0.74379 0.12969
 C295 C 0.57573 0.28058 0.10024
 C296 C 0.55296 0.25672 0.12959
 C297 C 0.27884 0.09961 0.57655
 C298 C 0.25495 0.12920 0.55410
 C299 C 0.72063 0.09871 0.42257
 C300 C 0.74451 0.12839 0.44507
 C301 C 0.72083 0.90014 0.57652
 C302 C 0.74482 0.87063 0.55406
 C303 C 0.27934 0.90011 0.42356
 C304 C 0.25549 0.87045 0.44597
 C305 C 0.09963 0.42346 0.72041
 C306 C 0.12905 0.44610 0.74442
 C307 C 0.10013 0.57610 0.27981
 C308 C 0.12958 0.55348 0.25593
 C309 C 0.89975 0.42355 0.27959
 C310 C 0.87032 0.44623 0.25574
 C311 C 0.89973 0.57623 0.72011
 C312 C 0.87028 0.55361 0.74400
 C313 C 0.71993 0.57648 0.90112
 C314 C 0.74376 0.55379 0.87150
 C315 C 0.27977 0.42344 0.90144
 C316 C 0.25580 0.44611 0.87191
 C317 C 0.28025 0.57635 0.09915
 C318 C 0.25635 0.55364 0.12870
 C319 C 0.71977 0.42375 0.09875
 C320 C 0.74366 0.44640 0.12838
 C321 C 0.90165 0.71967 0.57697
 C322 C 0.87201 0.74358 0.55437
 C323 C 0.90137 0.27970 0.42230
 C324 C 0.87169 0.25575 0.44482
 C325 C 0.09799 0.28003 0.57693
 C326 C 0.12767 0.25615 0.55435
 C327 C 0.09859 0.71946 0.42294
 C328 C 0.12830 0.74330 0.44554
 C329 C 0.57546 0.90059 0.72056
 C330 C 0.55274 0.87097 0.74433
 C331 C 0.42496 0.90089 0.27982
 C332 C 0.44777 0.87135 0.25605
 C333 C 0.57616 0.10017 0.28001
 C334 C 0.55327 0.12966 0.25625
 C335 C 0.42424 0.09956 0.72031
 C336 C 0.44699 0.12925 0.74396
 C337 C 0.57668 0.72032 0.09901
 C338 C 0.55416 0.74418 0.12872
 C339 C 0.42377 0.28003 0.09907
 C340 C 0.44639 0.25630 0.12881
 C341 C 0.57611 0.28028 0.90085
 C342 C 0.55353 0.25652 0.87108
 C343 C 0.42371 0.71994 0.90125
 C344 C 0.44629 0.74374 0.87153
 C345 C 0.72172 0.90091 0.42490
 C346 C 0.74540 0.87124 0.44764
 C347 C 0.27910 0.90007 0.57521
 C348 C 0.25537 0.87048 0.55239
 C349 C 0.27894 0.09968 0.42492
 C350 C 0.25506 0.12917 0.44768
 C351 C 0.72057 0.09934 0.57451
 C352 C 0.74439 0.12875 0.55158
 C353 C 0.90064 0.57539 0.27975
 C354 C 0.87103 0.55272 0.25585
 C355 C 0.90024 0.42435 0.72004
 C356 C 0.87073 0.44710 0.74397
 C357 C 0.09909 0.57533 0.72049
 C358 C 0.12857 0.55262 0.74449
 C359 C 0.09928 0.42430 0.27963
 C360 C 0.12890 0.44701 0.25579
   
