data_POSCAR
  _audit_creation_date              2014-09-24
  _audit_creation_method            'ToBaCCo'
  _symmetry_space_group_name_H-M    'P1'
  _symmetry_Int_Tables_number       1
  _symmetry_cell_setting            triclinic
  loop_
  _symmetry_equiv_pos_as_xyz
 x,y,z
_cell_length_a 39.2604
_cell_length_b 39.4186
_cell_length_c 54.8360
_cell_angle_alpha 89.986200
_cell_angle_beta 90.034300
_cell_angle_gamma 121.366200
loop_
  _atom_site_label
  _atom_site_type_symbol
  _atom_site_fract_x
  _atom_site_fract_y
  _atom_site_fract_z
C1 C -0.02006 0.47945 1.25363
 C2 C 0.02048 0.49698 1.25372
 C3 C 0.04380 0.50920 1.27675
 C4 C 0.04400 0.50611 1.23083
 C5 C -0.04304 0.47126 1.23049
 C6 C -0.04370 0.46756 1.27667
 C7 C 0.04218 0.53593 1.29275
 C8 C 0.06485 0.54781 1.31415
 C9 C 0.09025 0.53338 1.32034
 C10 C 0.09123 0.50625 1.30370
 C11 C 0.06870 0.49477 1.28229
 C12 C 0.07635 0.54475 1.22685
 C13 C 0.09794 0.55442 1.20514
 C14 C 0.08763 0.52565 1.18686
 C15 C 0.05588 0.48661 1.19116
 C16 C 0.03451 0.47685 1.21304
 C17 C -0.07674 0.43347 1.22646
 C18 C -0.09862 0.42509 1.20490
 C19 C -0.08705 0.45419 1.18664
 C20 C -0.05365 0.49234 1.19095
 C21 C -0.03232 0.50094 1.21280
 C22 C -0.03844 0.44530 1.29466
 C23 C -0.06078 0.43461 1.31617
 C24 C -0.08996 0.44467 1.31983
 C25 C -0.09600 0.46582 1.30135
 C26 C -0.07296 0.47736 1.28016
 H27 H 0.02377 0.54817 1.28844
 H28 H 0.06346 0.57003 1.32484
 H29 H 0.10777 0.49187 1.30726
 H30 H 0.07011 0.47383 1.27016
 H31 H 0.08450 0.56769 1.24044
 H32 H 0.12282 0.58449 1.20272
 H33 H 0.01016 0.44663 1.21594
 H34 H -0.08603 0.41028 1.24001
 H35 H -0.12481 0.39577 1.20268
 H36 H -0.04352 0.51549 1.17734
 H37 H -0.00714 0.53069 1.21577
 H38 H -0.01700 0.43620 1.29212
 H39 H -0.05485 0.41872 1.32997
 H40 H -0.11890 0.47315 1.30304
 H41 H -0.07805 0.49395 1.26640
 H42 H 0.04702 0.46376 1.17745
 C43 C 0.51644 0.49746 1.24952
 C44 C 0.49830 0.51908 1.24932
 C45 C 0.48652 0.53029 1.27222
 C46 C 0.48828 0.53203 1.22633
 C47 C 0.52646 0.48416 1.22661
 C48 C 0.52738 0.48584 1.27279
 C49 C 0.45832 0.50124 1.28801
 C50 C 0.44745 0.51237 1.30948
 C51 C 0.46475 0.55278 1.31562
 C52 C 0.49298 0.58168 1.29962
 C53 C 0.50339 0.57052 1.27804
 C54 C 0.44906 0.52291 1.22252
 C55 C 0.43850 0.53365 1.20085
 C56 C 0.46693 0.55374 1.18239
 C57 C 0.50652 0.56375 1.18649
 C58 C 0.51717 0.55333 1.20835
 C59 C 0.56497 0.49091 1.22354
 C60 C 0.57524 0.47890 1.20227
 C61 C 0.54738 0.46029 1.18328
 C62 C 0.50849 0.45288 1.18661
 C63 C 0.49797 0.46404 1.20820
 C64 C 0.54950 0.51394 1.29097
 C65 C 0.55915 0.50230 1.31271
 C66 C 0.54817 0.46250 1.31642
 C67 C 0.52721 0.43477 1.29775
 C68 C 0.51673 0.44626 1.27632
 H69 H 0.44459 0.47002 1.28359
 H70 H 0.42505 0.48931 1.32105
 H71 H 0.50750 0.61300 1.30389
 H72 H 0.52522 0.59330 1.26603
 H73 H 0.42638 0.50691 1.23625
 H74 H 0.40803 0.52639 1.19863
 H75 H 0.54781 0.56140 1.21111
 H76 H 0.58728 0.50572 1.23765
 H77 H 0.60505 0.48402 1.20086
 H78 H 0.48622 0.43893 1.17243
 H79 H 0.46769 0.45736 1.21041
 H80 H 0.55932 0.54494 1.28839
 H81 H 0.57494 0.52454 1.32664
 H82 H 0.51924 0.40415 1.29948
 H83 H 0.50026 0.42415 1.26240
 H84 H 0.52915 0.57905 1.17265
 C85 C 0.50112 1.02143 1.24716
 C86 C 0.48156 0.98089 1.24736
 C87 C 0.47236 0.95809 1.27054
 C88 C 0.46860 0.95704 1.22451
 C89 C 0.51448 1.04473 1.22407
 C90 C 0.51068 1.04483 1.27015
 C91 C 0.50233 0.96631 1.28756
 C92 C 0.49316 0.94494 1.30937
 C93 C 0.45367 0.91407 1.31467
 C94 C 0.42400 0.90562 1.29697
 C95 C 0.43329 0.92727 1.27531
 C96 C 0.47828 0.92784 1.22074
 C97 C 0.46655 0.90520 1.19942
 C98 C 0.44492 0.91131 1.18129
 C99 C 0.43471 0.94021 1.18527
 C100 C 0.44608 0.96255 1.20677
 C101 C 0.50623 1.07480 1.22003
 C102 C 0.51904 1.09755 1.19877
 C103 C 0.54035 1.09076 1.18052
 C104 C 0.54887 1.06053 1.18504
 C105 C 0.53661 1.03835 1.20660
 C106 C 0.48128 1.03643 1.28763
 C107 C 0.49104 1.05803 1.30938
 C108 C 0.53052 1.08949 1.31412
 C109 C 0.55940 1.09850 1.29577
 C110 C 0.54962 1.07643 1.27428
 H111 H 0.53289 0.98963 1.28407
 H112 H 0.51722 0.95407 1.32226
 H113 H 0.39359 0.88129 1.29911
 H114 H 0.40979 0.91996 1.26219
 H115 H 0.49522 0.92273 1.23429
 H116 H 0.47410 0.88258 1.19728
 H117 H 0.43751 0.98431 1.20952
 H118 H 0.48991 1.08088 1.23349
 H119 H 0.51316 1.12136 1.19745
 H120 H 0.56388 1.05257 1.17181
 H121 H 0.54421 1.01590 1.20954
 H122 H 0.45074 1.01267 1.28461
 H123 H 0.46748 1.04854 1.32266
 H124 H 0.58963 1.12341 1.29731
 H125 H 0.57267 1.08403 1.26079
 H126 H 0.41833 0.94591 1.17166
 C127 C 1.02206 0.50075 0.74711
 C128 C 0.98153 0.48322 0.74729
 C129 C 0.95767 0.47098 0.72436
 C130 C 0.95876 0.47522 0.77044
 C131 C 1.04567 0.50994 0.77003
 C132 C 1.04528 0.51287 0.72401
 C133 C 0.92919 0.48175 0.72051
 C134 C 0.90596 0.46993 0.69938
 C135 C 0.91079 0.44718 0.68149
 C136 C 0.93917 0.43617 0.68548
 C137 C 0.96201 0.44754 0.70682
 C138 C 0.96896 0.50539 0.78769
 C139 C 0.94787 0.49704 0.80960
 C140 C 0.91553 0.45853 0.81448
 C141 C 0.90462 0.42878 0.79676
 C142 C 0.92604 0.43703 0.77503
 C143 C 1.03593 0.48102 0.78803
 C144 C 1.05746 0.49077 0.80986
 C145 C 1.09012 0.52971 0.81417
 C146 C 1.10063 0.55791 0.79525
 C147 C 1.07866 0.54818 0.77368
 C148 C 1.07201 0.50031 0.71921
 C149 C 1.09520 0.51253 0.69809
 C150 C 1.09263 0.53810 0.68107
 C151 C 1.06534 0.55044 0.68615
 C152 C 1.04227 0.53820 0.70739
 H153 H 0.92494 0.49939 0.73392
 H154 H 0.88378 0.47817 0.69726
 H155 H 0.94400 0.41898 0.67205
 H156 H 0.98307 0.43800 0.70964
 H157 H 0.99354 0.53532 0.78429
 H158 H 0.95732 0.52062 0.82285
 H159 H 0.91728 0.41345 0.76184
 H160 H 1.01108 0.45097 0.78538
 H161 H 1.04693 0.46777 0.82354
 H162 H 1.12655 0.58754 0.79644
 H163 H 1.08734 0.57081 0.75982
 H164 H 1.07466 0.48062 0.73180
 H165 H 1.11404 0.50048 0.69494
 H166 H 1.06286 0.57114 0.67447
 H167 H 1.02251 0.54909 0.71107
 H168 H 0.87928 0.39908 0.79957
 C169 C 0.50125 0.52266 0.75050
 C170 C 0.52038 0.50193 0.75024
 C171 C 0.52982 0.48886 0.72701
 C172 C 0.53256 0.49066 0.77315
 C173 C 0.48811 0.53219 0.77362
 C174 C 0.49167 0.53640 0.72764
 C175 C 0.50062 0.46846 0.70902
 C176 C 0.51026 0.45696 0.68725
 C177 C 0.54894 0.46416 0.68334
 C178 C 0.57765 0.48330 0.70184
 C179 C 0.56827 0.49575 0.72329
 C180 C 0.52351 0.45148 0.77626
 C181 C 0.53447 0.44016 0.79755
 C182 C 0.55423 0.46759 0.81654
 C183 C 0.56378 0.50704 0.81323
 C184 C 0.55374 0.51859 0.79160
 C185 C 0.49808 0.57133 0.77817
 C186 C 0.48603 0.58091 0.79971
 C187 C 0.46387 0.55156 0.81732
 C188 C 0.45353 0.51221 0.81256
 C189 C 0.46503 0.50254 0.79080
 C190 C 0.52106 0.55854 0.71008
 C191 C 0.51101 0.56975 0.68831
 C192 C 0.47152 0.55981 0.68390
 C193 C 0.44256 0.53891 0.70197
 C194 C 0.45251 0.52728 0.72353
 H195 H 0.47039 0.46168 0.71173
 H196 H 0.48737 0.44275 0.67344
 H197 H 0.60737 0.48834 0.69998
 H198 H 0.59113 0.51080 0.73707
 H199 H 0.50775 0.42950 0.76215
 H200 H 0.52767 0.40987 0.79895
 H201 H 0.56211 0.54929 0.78940
 H202 H 0.51538 0.59458 0.76502
 H203 H 0.49367 0.61129 0.80239
 H204 H 0.43683 0.48885 0.82574
 H205 H 0.45618 0.47195 0.78745
 H206 H 0.55166 0.56665 0.71308
 H207 H 0.53405 0.58560 0.67478
 H208 H 0.41212 0.53166 0.69953
 H209 H 0.42945 0.51067 0.73695
 H210 H 0.57859 0.52904 0.82741
 C211 C 0.47901 -0.02265 0.75224
 C212 C 0.49799 0.01788 0.75252
 C213 C 0.50707 0.04133 0.72960
 C214 C 0.51144 0.04116 0.77561
 C215 C 0.46614 -0.04664 0.77510
 C216 C 0.47027 -0.04530 0.72897
 C217 C 0.54602 0.07301 0.72526
 C218 C 0.55536 0.09478 0.70366
 C219 C 0.52596 0.08528 0.68581
 C220 C 0.48669 0.05408 0.69045
 C221 C 0.47726 0.03261 0.71225
 C222 C 0.53442 0.03528 0.79281
 C223 C 0.54717 0.05780 0.81423
 C224 C 0.53805 0.08740 0.81864
 C225 C 0.51576 0.09373 0.80109
 C226 C 0.50255 0.07081 0.77989
 C227 C 0.44411 -0.04102 0.79304
 C228 C 0.43265 -0.06362 0.81445
 C229 C 0.44196 -0.09343 0.81836
 C230 C 0.46299 -0.09955 0.79960
 C231 C 0.47499 -0.07642 0.77850
 C232 C 0.43187 -0.07772 0.72459
 C233 C 0.42301 -0.09932 0.70293
 C234 C 0.45229 -0.08897 0.68463
 C235 C 0.49119 -0.05655 0.68959
 C236 C 0.50007 -0.03553 0.71153
 H237 H 0.56938 0.08059 0.73853
 H238 H 0.58566 0.11923 0.70101
 H239 H 0.46334 0.04576 0.67709
 H240 H 0.44680 0.00884 0.71544
 H241 H 0.54252 0.01325 0.78965
 H242 H 0.56394 0.05181 0.82738
 H243 H 0.48534 0.07628 0.76674
 H244 H 0.43608 -0.01880 0.79061
 H245 H 0.41770 -0.05624 0.82807
 H246 H 0.46935 -0.12307 0.80043
 H247 H 0.49126 -0.08192 0.76468
 H248 H 0.40854 -0.08640 0.73803
 H249 H 0.39323 -0.12493 0.70128
 H250 H 0.51501 -0.04591 0.67641
 H251 H 0.53026 -0.01117 0.71473
 H252 H 0.50899 0.11685 0.80351
 O253 O 0.39110 0.65739 0.97952
 O254 O 0.38313 0.71840 0.97220
 C255 C 0.36169 0.73301 0.96770
 O256 O 0.33077 0.72454 0.98006
 O257 O 0.26859 0.65422 0.97295
 C258 C 0.25317 0.61771 0.96810
 O259 O 0.26081 0.59495 0.98028
 O260 O 0.33050 0.60526 0.97182
 C261 C 0.36724 0.62700 0.96689
 O262 O 0.38860 0.66814 1.02818
 O263 O 0.38449 0.73106 1.02055
 C264 C 0.35814 0.73249 1.03323
 O265 O 0.32117 0.71094 1.02882
 O266 O 0.25701 0.64195 1.02145
 C267 C 0.25526 0.61376 1.03384
 O268 O 0.27590 0.59847 1.02878
 O269 O 0.34418 0.60461 1.02015
 C270 C 0.37283 0.63148 1.03271
 Cr271 Cr 0.38472 0.69246 1.00011
 Cr272 Cr 0.29561 0.68210 1.00081
 Cr273 Cr 0.30374 0.60290 1.00028
 O274 O 0.32800 0.65918 1.00033
 O275 O 0.61304 0.33947 0.97246
 O276 O 0.61209 0.27323 0.97765
 C277 C 0.63703 0.26792 0.96616
 O278 O 0.67369 0.28548 0.97168
 O279 O 0.74090 0.35168 0.97835
 C280 C 0.74737 0.38269 0.96719
 O281 O 0.73080 0.40177 0.97301
 O282 O 0.66510 0.40088 0.97827
 C283 C 0.63376 0.37595 0.96687
 O284 O 0.61119 0.34626 1.02145
 O285 O 0.61279 0.28178 1.02639
 C286 C 0.63291 0.26609 1.03177
 O287 O 0.66453 0.27395 1.02057
 O288 O 0.73028 0.34169 1.02691
 C289 C 0.74617 0.37778 1.03309
 O290 O 0.73940 0.40218 1.02222
 O291 O 0.67216 0.39916 1.02719
 C292 C 0.63561 0.37788 1.03275
 Cr293 Cr 0.61472 0.31149 0.99947
 Cr294 Cr 0.70108 0.31431 0.99939
 Cr295 Cr 0.70071 0.39861 1.00018
 O296 O 0.67216 0.34151 0.99976
 O297 O 0.66262 0.38928 0.52721
 O298 O 0.72633 0.38506 0.52235
 C299 C 0.72963 0.35897 0.53392
 O300 O 0.71006 0.32240 0.52846
 O301 O 0.64124 0.25787 0.52206
 C302 C 0.61098 0.25356 0.53326
 O303 O 0.59386 0.27210 0.52744
 O304 O 0.59958 0.33982 0.52192
 C305 C 0.62604 0.37066 0.53299
 O306 O 0.65608 0.39087 0.47818
 O307 O 0.71815 0.38450 0.47355
 C308 C 0.73154 0.36236 0.46829
 O309 O 0.72148 0.33034 0.47956
 O310 O 0.65134 0.26771 0.47348
 C311 C 0.61535 0.25383 0.46738
 O312 O 0.59239 0.26264 0.47828
 O313 O 0.60026 0.33186 0.47305
 C314 C 0.62354 0.36786 0.46716
 Cr315 Cr 0.68934 0.38500 0.50034
 Cr316 Cr 0.68006 0.29597 0.50088
 Cr317 Cr 0.59892 0.30263 0.50015
 O318 O 0.65608 0.32790 0.50038
 O319 O 0.35489 0.61505 0.52056
 O320 O 0.28834 0.61302 0.52802
 C321 C 0.26950 0.63030 0.53279
 O322 O 0.27349 0.65940 0.52032
 O323 O 0.33968 0.72709 0.52669
 C324 C 0.37658 0.74622 0.53161
 O325 O 0.40206 0.74240 0.51956
 O326 O 0.40281 0.67797 0.52712
 C327 C 0.38484 0.64143 0.53248
 O328 O 0.34275 0.61458 0.47205
 O329 O 0.27458 0.60903 0.47945
 C330 C 0.26799 0.63237 0.46710
 O331 O 0.28490 0.66918 0.47160
 O332 O 0.34930 0.73839 0.47802
 C333 C 0.37964 0.74496 0.46574
 O334 O 0.39983 0.72923 0.47087
 O335 O 0.40403 0.66655 0.47840
 C336 C 0.37942 0.63538 0.46668
 Cr337 Cr 0.31617 0.61513 0.50000
 Cr338 Cr 0.31301 0.69751 0.49916
 Cr339 Cr 0.40000 0.70285 0.49899
 O340 O 0.34308 0.67184 0.49937
 C341 C 0.43165 0.58793 0.38176
 C342 C 0.44096 0.61105 0.36057
 C343 C 0.45137 0.59949 0.33912
 C344 C 0.45332 0.56484 0.33847
 C345 C 0.44429 0.54192 0.35985
 C346 C 0.43328 0.55320 0.38120
 C347 C 0.41945 0.59968 0.40422
 C348 C 0.38498 0.57188 0.41686
 C349 C 0.37221 0.58339 0.43732
 C350 C 0.39406 0.62280 0.44578
 C351 C 0.42911 0.65038 0.43346
 C352 C 0.44149 0.63900 0.41275
 H353 H 0.45723 0.61745 0.32294
 H354 H 0.44618 0.51550 0.36021
 H355 H 0.34511 0.56146 0.44645
 H356 H 0.44642 0.68100 0.43947
 H357 H 0.42653 0.53506 0.39740
 H358 H 0.36733 0.54146 0.41053
 H359 H 0.43933 0.63764 0.36046
 H360 H 0.46831 0.66090 0.40336
 C361 C 0.42444 0.84658 0.38058
 C362 C 0.39518 0.84939 0.36764
 C363 C 0.40478 0.87179 0.34625
 C364 C 0.44409 0.89207 0.33686
 C365 C 0.47340 0.88938 0.35027
 C366 C 0.46370 0.86711 0.37174
 C367 C 0.41383 0.82160 0.40290
 C368 C 0.43130 0.79885 0.40745
 C369 C 0.42062 0.77451 0.42802
 C370 C 0.39199 0.77207 0.44449
 C371 C 0.37467 0.79498 0.44006
 C372 C 0.38559 0.81958 0.41955
 H373 H 0.38111 0.87382 0.33768
 H374 H 0.50379 0.90291 0.34392
 H375 H 0.43431 0.75701 0.43076
 H376 H 0.35267 0.79393 0.45244
 H377 H 0.48712 0.86591 0.38139
 H378 H 0.45261 0.79913 0.39481
 H379 H 0.36453 0.83379 0.37386
 H380 H 0.37201 0.83717 0.41681
 C381 C 0.16123 0.57141 0.38421
 C382 C 0.12864 0.57645 0.38183
 C383 C 0.10486 0.56355 0.36089
 C384 C 0.11302 0.54533 0.34125
 C385 C 0.14613 0.54034 0.34422
 C386 C 0.16954 0.55301 0.36529
 C387 C 0.18720 0.58623 0.40609
 C388 C 0.20037 0.56307 0.41738
 C389 C 0.22599 0.57770 0.43749
 C390 C 0.23929 0.61597 0.44657
 C391 C 0.22577 0.63895 0.43538
 C392 C 0.19988 0.62416 0.41544
 H393 H 0.07916 0.56670 0.36108
 H394 H 0.15620 0.52878 0.32995
 H395 H 0.23590 0.55928 0.44566
 H396 H 0.23540 0.66854 0.44193
 H397 H 0.19510 0.54952 0.36644
 H398 H 0.19077 0.53358 0.41066
 H399 H 0.12108 0.58988 0.39643
 H400 H 0.19051 0.64280 0.40694
 C401 C 0.57954 0.42514 0.38267
 C402 C 0.54424 0.39909 0.36994
 C403 C 0.53377 0.41145 0.34886
 C404 C 0.55876 0.44993 0.33947
 C405 C 0.59408 0.47600 0.35217
 C406 C 0.60410 0.46393 0.37359
 C407 C 0.59092 0.41161 0.40500
 C408 C 0.63131 0.42647 0.41063
 C409 C 0.64189 0.41302 0.43120
 C410 C 0.61238 0.38372 0.44628
 C411 C 0.57211 0.36886 0.44083
 C412 C 0.56150 0.38302 0.42063
 H413 H 0.50592 0.39067 0.33999
 H414 H 0.61447 0.50567 0.34543
 H415 H 0.67318 0.42463 0.43489
 H416 H 0.54879 0.34651 0.45234
 H417 H 0.63115 0.48519 0.38303
 H418 H 0.65488 0.44781 0.39887
 H419 H 0.52478 0.36879 0.37598
 H420 H 0.53017 0.37154 0.41738
 C421 C 0.56237 0.15490 0.38103
 C422 C 0.52253 0.13358 0.37317
 C423 C 0.51199 0.11226 0.35127
 C424 C 0.54097 0.11122 0.33647
 C425 C 0.58093 0.13257 0.34478
 C426 C 0.59137 0.15419 0.36648
 C427 C 0.57399 0.17822 0.40411
 C428 C 0.60511 0.18135 0.41857
 C429 C 0.61804 0.20540 0.43930
 C430 C 0.59970 0.22636 0.44637
 C431 C 0.56762 0.22218 0.43253
 C432 C 0.55508 0.19859 0.41151
 H433 H 0.48108 0.09792 0.34584
 H434 H 0.60460 0.13194 0.33519
 H435 H 0.64254 0.20768 0.44978
 H436 H 0.55313 0.23824 0.43746
 H437 H 0.62250 0.17064 0.37173
 H438 H 0.61969 0.16531 0.41385
 H439 H 0.49928 0.13320 0.38399
 H440 H 0.53138 0.19733 0.40069
 C441 C 0.83804 0.41013 0.38534
 C442 C 0.84835 0.44553 0.37302
 C443 C 0.87225 0.45702 0.35219
 C444 C 0.88576 0.43298 0.34262
 C445 C 0.87545 0.39754 0.35491
 C446 C 0.85230 0.38650 0.37610
 C447 C 0.81199 0.39770 0.40739
 C448 C 0.78521 0.35720 0.41251
 C449 C 0.75991 0.34569 0.43274
 C450 C 0.76010 0.37438 0.44795
 C451 C 0.78685 0.41475 0.44307
 C452 C 0.81288 0.42627 0.42325
 H453 H 0.88014 0.48493 0.34364
 H454 H 0.88470 0.37785 0.34802
 H455 H 0.73920 0.31435 0.43601
 H456 H 0.78781 0.43742 0.45473
 H457 H 0.84570 0.35940 0.38523
 H458 H 0.78291 0.33426 0.40056
 H459 H 0.83749 0.46429 0.37917
 H460 H 0.83372 0.45766 0.42043
 C461 C 0.58202 0.42623 1.11702
 C462 C 0.54250 0.40403 1.12559
 C463 C 0.53126 0.41490 1.14702
 C464 C 0.55901 0.44876 1.16024
 C465 C 0.59827 0.47145 1.15134
 C466 C 0.60972 0.46009 1.13025
 C467 C 0.59460 0.41387 1.09470
 C468 C 0.62510 0.44235 1.07956
 C469 C 0.63837 0.43067 1.05942
 C470 C 0.62076 0.39031 1.05354
 C471 C 0.58957 0.36182 1.06812
 C472 C 0.57694 0.37340 1.08862
 H473 H 0.50088 0.39630 1.15335
 H474 H 0.62039 0.49820 1.16060
 H475 H 0.66222 0.45324 1.04830
 H476 H 0.57578 0.33045 1.06411
 H477 H 0.64058 0.47769 1.12461
 H478 H 0.63879 0.47379 1.08315
 H479 H 0.52004 0.37819 1.11575
 H480 H 0.55401 0.35047 1.10000
 C481 C 0.84635 0.42559 1.11911
 C482 C 0.85042 0.39675 1.13165
 C483 C 0.87245 0.40623 1.15321
 C484 C 0.89034 0.44460 1.16326
 C485 C 0.88621 0.47347 1.15078
 C486 C 0.86482 0.46419 1.12891
 C487 C 0.82239 0.41509 1.09621
 C488 C 0.80027 0.43294 1.09043
 C489 C 0.77650 0.42175 1.06947
 C490 C 0.77364 0.39190 1.05412
 C491 C 0.79599 0.37438 1.05962
 C492 C 0.82047 0.38619 1.08022
 H493 H 0.87554 0.38334 1.16192
 H494 H 0.89904 0.50320 1.15803
 H495 H 0.75923 0.43544 1.06574
 H496 H 0.79463 0.35158 1.04790
 H497 H 0.86295 0.48742 1.11966
 H498 H 0.80032 0.45475 1.10242
 H499 H 0.83612 0.36651 1.12505
 H500 H 0.83783 0.37252 1.08358
 C501 C 0.57847 0.16069 1.11527
 C502 C 0.59648 0.13961 1.12275
 C503 C 0.58415 0.11675 1.14406
 C504 C 0.55286 0.11369 1.15859
 C505 C 0.53454 0.13454 1.15054
 C506 C 0.54738 0.15783 1.12949
 C507 C 0.59229 0.18608 1.09298
 C508 C 0.56513 0.19041 1.07854
 C509 C 0.57833 0.21611 1.05856
 C510 C 0.61886 0.23745 1.05217
 C511 C 0.64592 0.23225 1.06599
 C512 C 0.63285 0.20712 1.08631
 H513 H 0.60063 0.10290 1.14927
 H514 H 0.50927 0.13240 1.15986
 H515 H 0.55674 0.21922 1.04804
 H516 H 0.67741 0.24862 1.06157
 H517 H 0.53298 0.17396 1.12455
 H518 H 0.53356 0.17397 1.08265
 H519 H 0.62027 0.14069 1.11215
 H520 H 0.65478 0.20513 1.09715
 C521 C 0.43084 0.58527 1.11593
 C522 C 0.40541 0.54876 1.12751
 C523 C 0.41746 0.53828 1.14873
 C524 C 0.45510 0.56420 1.15910
 C525 C 0.48083 0.60041 1.14730
 C526 C 0.46890 0.61075 1.12594
 C527 C 0.41716 0.59720 1.09400
 C528 C 0.42777 0.63692 1.09080
 C529 C 0.41386 0.64803 1.07072
 C530 C 0.38865 0.61965 1.05344
 C531 C 0.37818 0.57997 1.05650
 C532 C 0.39244 0.56892 1.07648
 H533 H 0.39715 0.50982 1.15705
 H534 H 0.50989 0.62123 1.15485
 H535 H 0.42224 0.67881 1.06903
 H536 H 0.35900 0.55744 1.04343
 H537 H 0.48952 0.63882 1.11730
 H538 H 0.44608 0.65938 1.10413
 H539 H 0.37574 0.52856 1.12052
 H540 H 0.38418 0.53819 1.07814
 C541 C 0.15400 0.55882 1.11942
 C542 C 0.14494 0.58491 1.13109
 C543 C 0.12300 0.57388 1.15272
 C544 C 0.10985 0.53662 1.16339
 C545 C 0.11852 0.51032 1.15161
 C546 C 0.14024 0.52125 1.12985
 C547 C 0.17857 0.57127 1.09683
 C548 C 0.20715 0.56054 1.09296
 C549 C 0.23145 0.57367 1.07228
 C550 C 0.22801 0.59815 1.05505
 C551 C 0.19913 0.60849 1.05872
 C552 C 0.17455 0.59503 1.07930
 H553 H 0.11627 0.59462 1.16106
 H554 H 0.10914 0.48153 1.15942
 H555 H 0.25361 0.56540 1.07009
 H556 H 0.19552 0.62706 1.04571
 H557 H 0.14622 0.50020 1.12117
 H558 H 0.21153 0.54284 1.10625
 H559 H 0.15546 0.61425 1.12379
 H560 H 0.15237 0.60325 1.08145
 C561 C 0.40899 0.83933 1.11608
 C562 C 0.38399 0.85103 1.12657
 C563 C 0.39570 0.87457 1.14757
 C564 C 0.43287 0.88731 1.15850
 C565 C 0.45821 0.87631 1.14770
 C566 C 0.44635 0.85247 1.12686
 C567 C 0.39583 0.81277 1.09438
 C568 C 0.42330 0.81726 1.07629
 C569 C 0.41111 0.79133 1.05640
 C570 C 0.37107 0.76058 1.05397
 C571 C 0.34349 0.75642 1.07183
 C572 C 0.35575 0.78204 1.09185
 H573 H 0.37524 0.88211 1.15550
 H574 H 0.48733 0.88613 1.15536
 H575 H 0.43303 0.79548 1.04285
 H576 H 0.31248 0.73281 1.07061
 H577 H 0.46620 0.84370 1.11949
 H578 H 0.45424 0.84099 1.07741
 H579 H 0.35529 0.84200 1.11856
 H580 H 0.33391 0.77717 1.10562
 C581 C 0.57975 0.42622 0.61716
 C582 C 0.60842 0.46044 0.62971
 C583 C 0.59823 0.47315 0.65075
 C584 C 0.55930 0.45146 0.66027
 C585 C 0.53059 0.41728 0.64770
 C586 C 0.54054 0.40514 0.62632
 C587 C 0.59089 0.41215 0.59500
 C588 C 0.57180 0.37130 0.58966
 C589 C 0.58264 0.35802 0.56917
 C590 C 0.61350 0.38514 0.55387
 C591 C 0.63281 0.42585 0.55909
 C592 C 0.62126 0.43927 0.57922
 H593 H 0.62106 0.50010 0.65949
 H594 H 0.50044 0.39935 0.65453
 H595 H 0.56766 0.32639 0.56568
 H596 H 0.65651 0.44734 0.54741
 H597 H 0.51731 0.37912 0.61700
 H598 H 0.54903 0.34932 0.60157
 H599 H 0.63908 0.47725 0.62359
 H600 H 0.63609 0.47096 0.58228
 C601 C 0.55751 0.15207 0.61858
 C602 C 0.58404 0.14302 0.62979
 C603 C 0.57356 0.12097 0.65134
 C604 C 0.53645 0.10778 0.66246
 C605 C 0.50976 0.11657 0.65119
 C606 C 0.52010 0.13831 0.62946
 C607 C 0.56932 0.17654 0.59597
 C608 C 0.55793 0.20460 0.59226
 C609 C 0.57060 0.22887 0.57158
 C610 C 0.59534 0.22599 0.55426
 C611 C 0.60626 0.19759 0.55773
 C612 C 0.59318 0.17297 0.57825
 H613 H 0.59459 0.11418 0.65925
 H614 H 0.48109 0.10724 0.65934
 H615 H 0.56195 0.25071 0.56953
 H616 H 0.62503 0.19443 0.54460
 H617 H 0.49869 0.14425 0.62118
 H618 H 0.54014 0.20866 0.60568
 H619 H 0.61332 0.15356 0.62217
 H620 H 0.60183 0.15114 0.58021
 C621 C 0.83672 0.41012 0.61693
 C622 C 0.84842 0.38527 0.62757
 C623 C 0.87250 0.39728 0.64839
 C624 C 0.88593 0.43467 0.65897
 C625 C 0.87483 0.45981 0.64806
 C626 C 0.85035 0.44760 0.62744
 C627 C 0.80990 0.39682 0.59526
 C628 C 0.81420 0.42412 0.57718
 C629 C 0.78817 0.41186 0.55727
 C630 C 0.75760 0.37189 0.55477
 C631 C 0.75363 0.34444 0.57259
 C632 C 0.77928 0.35680 0.59267
 H633 H 0.87999 0.37690 0.65642
 H634 H 0.88512 0.48908 0.65541
 H635 H 0.79221 0.43365 0.54372
 H636 H 0.73012 0.31349 0.57128
 H637 H 0.84159 0.46738 0.62000
 H638 H 0.83788 0.45500 0.57827
 H639 H 0.83905 0.35646 0.61980
 H640 H 0.77451 0.33505 0.60643
 C641 C 0.43799 0.59339 0.61719
 C642 C 0.47575 0.61842 0.62769
 C643 C 0.48674 0.60752 0.64921
 C644 C 0.46040 0.57112 0.66065
 C645 C 0.42300 0.54573 0.64984
 C646 C 0.41185 0.55682 0.62850
 C647 C 0.42546 0.60578 0.59493
 C648 C 0.40097 0.57771 0.57724
 C649 C 0.38790 0.58921 0.55689
 C650 C 0.39944 0.62914 0.55359
 C651 C 0.42445 0.65732 0.57102
 C652 C 0.43709 0.64576 0.59150
 H653 H 0.51562 0.62800 0.65710
 H654 H 0.40221 0.51715 0.65786
 H655 H 0.36886 0.56686 0.54370
 H656 H 0.43355 0.68828 0.56914
 H657 H 0.38236 0.53697 0.62115
 H658 H 0.39200 0.54680 0.57904
 H659 H 0.49692 0.64652 0.61930
 H660 H 0.45523 0.66809 0.60493
 C661 C 0.42358 0.84598 0.61757
 C662 C 0.46335 0.86952 0.62531
 C663 C 0.47284 0.89068 0.64723
 C664 C 0.44286 0.88955 0.66218
 C665 C 0.40298 0.86618 0.65391
 C666 C 0.39359 0.84459 0.63222
 C667 C 0.41316 0.82242 0.59457
 C668 C 0.38034 0.81587 0.58040
 C669 C 0.36884 0.79158 0.55977
 C670 C 0.39040 0.77399 0.55245
 C671 C 0.42402 0.78156 0.56598
 C672 C 0.43507 0.80521 0.58693
 H673 H 0.50386 0.90662 0.65254
 H674 H 0.37844 0.86503 0.66356
 H675 H 0.34301 0.78653 0.54951
 H676 H 0.44090 0.76799 0.56087
 H677 H 0.36249 0.82643 0.62711
 H678 H 0.36335 0.82940 0.58525
 H679 H 0.48740 0.87172 0.61441
 H680 H 0.46008 0.80896 0.59752
 C681 C 0.16554 0.57678 0.61723
 C682 C 0.12933 0.57584 0.61773
 C683 C 0.10541 0.56330 0.63862
 C684 C 0.11693 0.55118 0.65977
 C685 C 0.15367 0.55262 0.65904
 C686 C 0.17746 0.56520 0.63816
 C687 C 0.19097 0.58977 0.59504
 C688 C 0.21054 0.57006 0.58779
 C689 C 0.23558 0.58294 0.56745
 C690 C 0.24164 0.61585 0.55380
 C691 C 0.22157 0.63522 0.56082
 C692 C 0.19650 0.62230 0.58121
 H693 H 0.07708 0.56163 0.63755
 H694 H 0.16538 0.54570 0.67485
 H695 H 0.25037 0.56717 0.56253
 H696 H 0.22565 0.66072 0.55077
 H697 H 0.20575 0.56661 0.63860
 H698 H 0.20638 0.54450 0.59781
 H699 H 0.11900 0.58398 0.60172
 H700 H 0.18215 0.63835 0.58648
 C701 C 0.42531 0.58273 0.88292
 C702 C 0.46268 0.60935 0.87253
 C703 C 0.47549 0.59898 0.85158
 C704 C 0.45105 0.56191 0.84027
 C705 C 0.41391 0.53511 0.85086
 C706 C 0.40137 0.54525 0.87198
 C707 C 0.41081 0.59424 0.90464
 C708 C 0.37013 0.58122 0.90695
 C709 C 0.35619 0.59171 0.92724
 C710 C 0.38261 0.61603 0.94560
 C711 C 0.42337 0.62961 0.94326
 C712 C 0.43729 0.61858 0.92308
 H713 H 0.50460 0.62013 0.84424
 H714 H 0.39403 0.50649 0.84257
 H715 H 0.32466 0.58123 0.92835
 H716 H 0.44438 0.64825 0.95719
 H717 H 0.37275 0.52363 0.87970
 H718 H 0.34897 0.56336 0.89288
 H719 H 0.48180 0.63861 0.88026
 H720 H 0.46871 0.62873 0.92210
 C721 C 0.15428 0.56236 0.88167
 C722 C 0.15517 0.59120 0.86624
 C723 C 0.13400 0.58050 0.84435
 C724 C 0.11149 0.54039 0.83670
 C725 C 0.11093 0.51154 0.85237
 C726 C 0.13185 0.52238 0.87447
 C727 C 0.17716 0.57434 0.90496
 C728 C 0.19649 0.55489 0.91338
 C729 C 0.22008 0.56803 0.93444
 C730 C 0.22524 0.60120 0.94731
 C731 C 0.20516 0.61998 0.93929
 C732 C 0.18111 0.60649 0.91853
 H733 H 0.13460 0.60416 0.83406
 H734 H 0.09558 0.48047 0.84750
 H735 H 0.23551 0.55321 0.94012
 H736 H 0.20823 0.64535 0.94902
 H737 H 0.13029 0.49928 0.88596
 H738 H 0.19454 0.53036 0.90327
 H739 H 0.17253 0.62240 0.87098
 H740 H 0.16584 0.62152 0.91302
 C741 C 0.40808 0.83683 0.88367
 C742 C 0.38881 0.85697 0.87678
 C743 C 0.39970 0.87971 0.85542
 C744 C 0.43068 0.88352 0.84024
 C745 C 0.45012 0.86345 0.84764
 C746 C 0.43875 0.84031 0.86874
 C747 C 0.39621 0.81193 0.90615
 C748 C 0.42490 0.80904 0.91987
 C749 C 0.41364 0.78371 0.93997
 C750 C 0.37355 0.76131 0.94722
 C751 C 0.34495 0.76514 0.93418
 C752 C 0.35610 0.78993 0.91373
 H753 H 0.38243 0.89293 0.85071
 H754 H 0.47524 0.86618 0.83779
 H755 H 0.43639 0.78171 0.94991
 H756 H 0.31377 0.74795 0.93931
 H757 H 0.45405 0.82486 0.87320
 H758 H 0.45620 0.82630 0.91509
 H759 H 0.36523 0.85530 0.88791
 H760 H 0.33306 0.79091 0.90347
 C761 C 0.58631 0.43033 0.88256
 C762 C 0.55178 0.40371 0.86938
 C763 C 0.54101 0.41601 0.84839
 C764 C 0.56497 0.45503 0.83954
 C765 C 0.59944 0.48170 0.85274
 C766 C 0.60968 0.46967 0.87408
 C767 C 0.59828 0.41693 0.90468
 C768 C 0.63886 0.43360 0.91057
 C769 C 0.65018 0.42079 0.93108
 C770 C 0.62132 0.39031 0.94585
 C771 C 0.58085 0.37332 0.94005
 C772 C 0.56942 0.38685 0.91989
 H773 H 0.51375 0.39473 0.83916
 H774 H 0.61905 0.51184 0.84646
 H775 H 0.68165 0.43399 0.93501
 H776 H 0.55804 0.34995 0.95131
 H777 H 0.63602 0.49140 0.88390
 H778 H 0.66210 0.45601 0.89909
 H779 H 0.53323 0.37303 0.87498
 H780 H 0.53790 0.37383 0.91639
 C781 C 0.84905 0.43062 0.88183
 C782 C 0.86459 0.46807 0.87081
 C783 C 0.88621 0.47721 0.84906
 C784 C 0.89319 0.44927 0.83788
 C785 C 0.87826 0.41210 0.84915
 C786 C 0.85628 0.40281 0.87072
 C787 C 0.82459 0.42012 0.90445
 C788 C 0.82648 0.39542 0.92224
 C789 C 0.80183 0.38369 0.94277
 C790 C 0.77509 0.39685 0.94619
 C791 C 0.77391 0.42240 0.92880
 C792 C 0.79818 0.43370 0.90810
 H793 H 0.89687 0.50597 0.84080
 H794 H 0.88361 0.39008 0.84133
 H795 H 0.80366 0.36424 0.95595
 H796 H 0.75335 0.43275 0.93080
 H797 H 0.84435 0.37348 0.87844
 H798 H 0.84703 0.38506 0.92032
 H799 H 0.86011 0.49044 0.87900
 H800 H 0.79536 0.45217 0.89463
 C801 C 0.57968 0.16091 0.88327
 C802 C 0.54221 0.14910 0.87310
 C803 C 0.52849 0.12475 0.85248
 C804 C 0.55209 0.11199 0.84122
 C805 C 0.58945 0.12358 0.85147
 C806 C 0.60296 0.14752 0.87230
 C807 C 0.59459 0.18761 0.90495
 C808 C 0.63536 0.21662 0.90734
 C809 C 0.64921 0.24225 0.92740
 C810 C 0.62256 0.23989 0.94537
 C811 C 0.58188 0.21090 0.94307
 C812 C 0.56811 0.18487 0.92322
 H813 H 0.49927 0.11590 0.84539
 H814 H 0.60869 0.11477 0.84317
 H815 H 0.68070 0.26453 0.92856
 H816 H 0.56068 0.20811 0.95675
 H817 H 0.63168 0.15544 0.87981
 H818 H 0.65656 0.22018 0.89346
 H819 H 0.52363 0.15920 0.88078
 H820 H 0.53668 0.16242 0.92230
   
