data_POSCAR
  _audit_creation_date              2014-09-24
  _audit_creation_method            'ToBaCCo'
  _symmetry_space_group_name_H-M    'P1'
  _symmetry_Int_Tables_number       1
  _symmetry_cell_setting            triclinic
  loop_
  _symmetry_equiv_pos_as_xyz
 x,y,z
_cell_length_a 34.0657
_cell_length_b 45.1848
_cell_length_c 37.0963
_cell_angle_alpha 89.930500
_cell_angle_beta 90.007600
_cell_angle_gamma 90.190700
loop_
  _atom_site_label
  _atom_site_type_symbol
  _atom_site_fract_x
  _atom_site_fract_y
  _atom_site_fract_z
O1 O 0.25040 0.27938 0.20257
 O2 O 0.29927 0.22059 0.25472
 O3 O 0.25011 0.22190 0.20052
 O4 O 0.29896 0.27850 0.25629
 O5 O 0.24828 0.27836 0.29344
 O6 O 0.20194 0.21905 0.24022
 O7 O 0.25046 0.22082 0.29392
 O8 O 0.19925 0.27659 0.23905
 Cu9 Cu 0.27977 0.25012 0.22476
 Cu10 Cu 0.21998 0.24869 0.27050
 C11 C 0.21624 0.28764 0.21166
 C12 C 0.28331 0.21088 0.28336
 C13 C 0.21784 0.21064 0.21103
 C14 C 0.28167 0.28833 0.28410
 O15 O 0.70077 0.27880 0.26007
 O16 O 0.74944 0.22287 0.20360
 O17 O 0.70144 0.22178 0.25872
 O18 O 0.74875 0.28051 0.20518
 O19 O 0.79935 0.28035 0.24240
 O20 O 0.75233 0.22122 0.29567
 O21 O 0.79995 0.22259 0.24096
 O22 O 0.75173 0.27905 0.29695
 Cu23 Cu 0.72010 0.25099 0.22805
 Cu24 Cu 0.78095 0.25076 0.27270
 C25 C 0.71792 0.28836 0.28815
 C26 C 0.78295 0.21316 0.21274
 C27 C 0.71870 0.21167 0.28643
 C28 C 0.78204 0.29056 0.21474
 O29 O 0.70526 0.72136 0.73692
 O30 O 0.75301 0.77943 0.79100
 O31 O 0.70516 0.77827 0.73601
 O32 O 0.75318 0.72167 0.79197
 O33 O 0.80380 0.72134 0.75480
 O34 O 0.75620 0.77860 0.69924
 O35 O 0.80382 0.77921 0.75401
 O36 O 0.75619 0.72078 0.70003
 Cu37 Cu 0.72419 0.75019 0.76785
 Cu38 Cu 0.78515 0.74996 0.72334
 C39 C 0.72243 0.71138 0.70913
 C40 C 0.78642 0.78933 0.78162
 C41 C 0.72239 0.78792 0.70800
 C42 C 0.78656 0.71170 0.78285
 O43 O 0.20425 0.77757 0.76476
 O44 O 0.25165 0.72052 0.70915
 O45 O 0.20417 0.72070 0.76449
 O46 O 0.25165 0.77828 0.70931
 O47 O 0.30258 0.77841 0.74617
 O48 O 0.25557 0.71999 0.80078
 O49 O 0.30275 0.72057 0.74583
 O50 O 0.25541 0.77778 0.80140
 Cu51 Cu 0.22293 0.74928 0.73308
 Cu52 Cu 0.28425 0.74922 0.77719
 C53 C 0.22157 0.78713 0.79274
 C54 C 0.28517 0.71073 0.71812
 C55 C 0.22161 0.71065 0.79217
 C56 C 0.28509 0.78825 0.71842
 C57 C 0.97983 0.00081 -0.00070
 C58 C 1.01965 -0.00156 0.00223
 C59 C 1.04235 0.02023 0.02364
 C60 C 1.04263 -0.02506 -0.01631
 C61 C 0.95657 -0.01807 -0.02568
 C62 C 0.95760 0.02232 0.02167
 C63 C 1.04647 0.04947 0.01145
 C64 C 1.06774 0.07003 0.03176
 C65 C 1.08428 0.06179 0.06495
 C66 C 1.08006 0.03250 0.07709
 C67 C 1.05984 0.01172 0.05623
 C68 C 1.07718 -0.01754 -0.03493
 C69 C 1.09844 -0.03910 -0.05341
 C70 C 1.08527 -0.06855 -0.05407
 C71 C 1.05134 -0.07631 -0.03471
 C72 C 1.03069 -0.05488 -0.01537
 C73 C 0.92419 -0.03403 -0.01255
 C74 C 0.90350 -0.05330 -0.03507
 C75 C 0.91475 -0.05700 -0.07126
 C76 C 0.94632 -0.04015 -0.08471
 C77 C 0.96677 -0.02065 -0.06223
 C78 C 0.96077 0.02191 0.05939
 C79 C 0.94073 0.04263 0.08027
 C80 C 0.91630 0.06376 0.06391
 C81 C 0.91207 0.06347 0.02619
 C82 C 0.93258 0.04294 0.00527
 H83 H 1.03328 0.05626 -0.01380
 H84 H 1.07052 0.09253 0.02195
 H85 H 1.09279 0.02564 0.10251
 H86 H 1.05701 -0.01084 0.06583
 H87 H 1.08733 0.00519 -0.03583
 H88 H 1.12453 -0.03256 -0.06813
 H89 H 1.00505 -0.06152 -0.00009
 H90 H 0.91560 -0.03219 0.01547
 H91 H 0.87925 -0.06582 -0.02383
 H92 H 0.95546 -0.04219 -0.11255
 H93 H 0.99109 -0.00800 -0.07314
 H94 H 0.97882 0.00553 0.07270
 H95 H 0.94418 0.04194 0.10928
 H96 H 0.89340 0.07940 0.01278
 H97 H 0.92938 0.04338 -0.02377
 H98 H 1.04094 -0.09898 -0.03435
 C99 C 0.47804 0.49971 0.50020
 C100 C 0.51823 0.49961 0.50005
 C101 C 0.54152 0.52241 0.51987
 C102 C 0.54093 0.47672 0.48002
 C103 C 0.45475 0.47999 0.47613
 C104 C 0.45529 0.51954 0.52441
 C105 C 0.53267 0.55269 0.51679
 C106 C 0.55353 0.57366 0.53681
 C107 C 0.58475 0.56491 0.55905
 C108 C 0.59493 0.53487 0.56076
 C109 C 0.57330 0.51379 0.54159
 C110 C 0.57259 0.48522 0.45801
 C111 C 0.59363 0.46407 0.43858
 C112 C 0.58295 0.43408 0.44033
 C113 C 0.55184 0.42544 0.46285
 C114 C 0.53158 0.44648 0.48312
 C115 C 0.42486 0.46217 0.49065
 C116 C 0.40392 0.44262 0.46868
 C117 C 0.41248 0.44046 0.43169
 C118 C 0.44163 0.45899 0.41700
 C119 C 0.46226 0.47879 0.43893
 C120 C 0.46318 0.52077 0.56155
 C121 C 0.44300 0.54062 0.58362
 C122 C 0.41392 0.55918 0.56913
 C123 C 0.40499 0.55703 0.53222
 C124 C 0.42549 0.53742 0.51010
 H125 H 0.50928 0.56008 0.49922
 H126 H 0.54553 0.59677 0.53462
 H127 H 0.61891 0.52760 0.57774
 H128 H 0.58101 0.49064 0.54412
 H129 H 0.58066 0.50834 0.45544
 H130 H 0.61753 0.47126 0.42140
 H131 H 0.50828 0.43917 0.50089
 H132 H 0.41835 0.46292 0.51922
 H133 H 0.38159 0.42874 0.48087
 H134 H 0.44862 0.45816 0.38855
 H135 H 0.48454 0.49286 0.42699
 H136 H 0.48539 0.50665 0.57334
 H137 H 0.45026 0.54145 0.61202
 H138 H 0.38272 0.57093 0.52019
 H139 H 0.41869 0.53666 0.48159
 H140 H 0.54348 0.40236 0.46506
 C141 C 0.01758 0.50235 0.00302
 C142 C -0.02261 0.50263 0.00241
 C143 C -0.04631 0.48306 0.02636
 C144 C -0.04497 0.52246 -0.02220
 C145 C 0.04137 0.52499 -0.01665
 C146 C 0.03976 0.47932 0.02340
 C147 C -0.07619 0.46535 0.01166
 C148 C -0.09736 0.44581 0.03352
 C149 C -0.08900 0.44355 0.07054
 C150 C -0.05993 0.46201 0.08542
 C151 C -0.03912 0.48183 0.06362
 C152 C -0.03649 0.52371 -0.05924
 C153 C -0.05638 0.54353 -0.08164
 C154 C -0.08580 0.56200 -0.06761
 C155 C -0.09530 0.55982 -0.03082
 C156 C -0.07507 0.54028 -0.00837
 C157 C 0.03235 0.55530 -0.01440
 C158 C 0.05342 0.57603 -0.03464
 C159 C 0.08511 0.56705 -0.05609
 C160 C 0.09564 0.53707 -0.05680
 C161 C 0.07370 0.51618 -0.03754
 C162 C 0.07105 0.48764 0.04594
 C163 C 0.09160 0.46634 0.06563
 C164 C 0.08081 0.43638 0.06363
 C165 C 0.05003 0.42794 0.04065
 C166 C 0.03026 0.44913 0.02013
 H167 H -0.08246 0.46612 -0.01695
 H168 H -0.11962 0.43196 0.02121
 H169 H -0.05314 0.46109 0.11392
 H170 H -0.01689 0.49585 0.07570
 H171 H -0.01406 0.50963 -0.07068
 H172 H -0.04869 0.54440 -0.10994
 H173 H -0.08233 0.53951 0.02005
 H174 H 0.00860 0.56287 0.00260
 H175 H 0.04521 0.59914 -0.03329
 H176 H 0.12002 0.52970 -0.07319
 H177 H 0.08158 0.49303 -0.03943
 H178 H 0.07922 0.51072 0.04866
 H179 H 0.11528 0.47338 0.08316
 H180 H 0.04159 0.40490 0.03821
 H181 H 0.00722 0.44197 0.00199
 H182 H -0.11784 0.57367 -0.01915
 C183 C 0.51904 0.99796 0.49675
 C184 C 0.47885 0.99793 0.49717
 C185 C 0.45607 0.97829 0.52179
 C186 C 0.45565 1.01773 0.47320
 C187 C 0.54182 1.02085 0.47656
 C188 C 0.54223 0.97518 0.51656
 C189 C 0.42583 0.96045 0.50796
 C190 C 0.40528 0.94103 0.53048
 C191 C 0.41457 0.93904 0.56734
 C192 C 0.44410 0.95757 0.58135
 C193 C 0.46434 0.97722 0.55887
 C194 C 0.46296 1.01901 0.43595
 C195 C 0.44270 1.03908 0.41417
 C196 C 0.41411 1.05782 0.42907
 C197 C 0.40569 1.05557 0.46609
 C198 C 0.42626 1.03574 0.48790
 C199 C 0.53289 1.05110 0.47983
 C200 C 0.55320 1.07217 0.45945
 C201 C 0.58398 1.06355 0.43665
 C202 C 0.59428 1.03355 0.43474
 C203 C 0.57316 1.01236 0.45428
 C204 C 0.57432 0.98383 0.53795
 C205 C 0.59586 0.96279 0.55715
 C206 C 0.58529 0.93277 0.55579
 C207 C 0.55376 0.92399 0.53387
 C208 C 0.53297 0.94492 0.51383
 H209 H 0.41873 0.96109 0.47951
 H210 H 0.38265 0.92715 0.51881
 H211 H 0.45166 0.95687 0.60969
 H212 H 0.48688 0.99133 0.57030
 H213 H 0.48486 1.00481 0.42388
 H214 H 0.44956 1.03998 0.38569
 H215 H 0.41993 1.03496 0.51650
 H216 H 0.50986 1.05838 0.49782
 H217 H 0.54515 1.09525 0.46180
 H218 H 0.61793 1.02639 0.41734
 H219 H 0.58092 0.98924 0.45160
 H220 H 0.58233 1.00697 0.54023
 H221 H 0.62008 0.97009 0.57388
 H222 H 0.54545 0.90088 0.53197
 H223 H 0.50932 0.93751 0.49652
 H224 H 0.38379 1.06960 0.47844
 C225 C 1.16330 0.14704 0.14977
 N226 N 1.14962 0.15386 0.18308
 N227 N 1.16725 0.17457 0.20289
 C228 C 1.19957 0.18894 0.19033
 N229 N 1.21346 0.18190 0.15710
 N230 N 1.19547 0.16148 0.13708
 C231 C 1.14334 0.12465 0.12775
 N232 N 1.14684 0.12491 0.09131
 N233 N 1.12798 0.10495 0.07129
 C234 C 1.10539 0.08375 0.08704
 N235 N 1.10220 0.08336 0.12352
 N236 N 1.12061 0.10357 0.14350
 C237 C 0.66502 0.64870 0.64517
 N238 N 0.70466 0.65172 0.64353
 N239 N 0.72307 0.67170 0.66390
 C240 C 0.70252 0.68906 0.68699
 N241 N 0.66295 0.68586 0.68882
 N242 N 0.64451 0.66616 0.66813
 C243 C 0.64449 0.62709 0.62243
 N244 N 0.60564 0.63024 0.61537
 N245 N 0.58680 0.61064 0.59483
 C246 C 0.60600 0.58697 0.58095
 N247 N 0.64486 0.58375 0.58818
 N248 N 0.66383 0.60357 0.60834
 C249 C -0.16544 0.35647 0.15543
 N250 N -0.20032 0.34471 0.14489
 N251 N -0.21746 0.32342 0.16422
 C252 C -0.20023 0.31295 0.19469
 N253 N -0.16531 0.32473 0.20518
 N254 N -0.14828 0.34612 0.18595
 C255 C -0.14626 0.37962 0.13386
 N256 N -0.11342 0.39340 0.14612
 N257 N -0.09557 0.41399 0.12622
 C258 C -0.10974 0.42151 0.09323
 N259 N -0.14268 0.40772 0.08108
 N260 N -0.16066 0.38724 0.10104
 C261 C 0.33868 0.85378 0.65554
 N262 N 0.30454 0.84096 0.64477
 N263 N 0.28738 0.82019 0.66491
 C264 C 0.30382 0.81137 0.69647
 N265 N 0.33797 0.82418 0.70724
 N266 N 0.35505 0.84504 0.68717
 C267 C 0.35785 0.87637 0.63305
 N268 N 0.39032 0.89085 0.64495
 N269 N 0.40806 0.91098 0.62426
 C270 C 0.39412 0.91735 0.59082
 N271 N 0.36156 0.90284 0.57903
 N272 N 0.34373 0.88281 0.59975
 C273 C -0.16080 0.64764 -0.15533
 N274 N -0.19577 0.65938 -0.14535
 N275 N -0.21290 0.68010 -0.16546
 C276 C -0.19559 0.68998 -0.19621
 N277 N -0.16055 0.67824 -0.20614
 N278 N -0.14352 0.65742 -0.18611
 C279 C -0.14177 0.62500 -0.13295
 N280 N -0.10875 0.61120 -0.14447
 N281 N -0.09123 0.59096 -0.12392
 C282 C -0.10595 0.58382 -0.09097
 N283 N -0.13904 0.59765 -0.07955
 N284 N -0.15667 0.61778 -0.10016
 C285 C 0.33839 1.14497 0.34409
 N286 N 0.35365 1.15370 0.31195
 N287 N 0.33622 1.17478 0.29259
 C288 C 0.30285 1.18782 0.30464
 N289 N 0.28758 1.17903 0.33673
 N290 N 0.30508 1.15805 0.35613
 C291 C 0.35768 1.12198 0.36574
 N292 N 0.34437 1.11540 0.39929
 N293 N 0.36212 1.09490 0.41924
 C294 C 0.39377 1.08004 0.40640
 N295 N 0.40691 1.08656 0.37271
 N296 N 0.38926 1.10716 0.35278
 C297 C 1.16453 -0.15191 -0.14103
 N298 N 1.14398 -0.16842 -0.16509
 N299 N 1.16230 -0.18757 -0.18649
 C300 C 1.20178 -0.19112 -0.18435
 N301 N 1.22234 -0.17471 -0.16015
 N302 N 1.20406 -0.15529 -0.13904
 C303 C 1.14423 -0.13069 -0.11771
 N304 N 1.16426 -0.10827 -0.10169
 N305 N 1.14557 -0.08859 -0.08127
 C306 C 1.10625 -0.09085 -0.07572
 N307 N 1.08633 -0.11347 -0.09148
 N308 N 1.10494 -0.13293 -0.11225
 C309 C 0.66126 0.35024 0.35338
 N310 N 0.64045 0.33293 0.33035
 N311 N 0.65859 0.31342 0.30931
 C312 C 0.69816 0.31025 0.31087
 N313 N 0.71899 0.32743 0.33406
 N314 N 0.70088 0.34723 0.35476
 C315 C 0.64118 0.37181 0.37636
 N316 N 0.66098 0.39522 0.39042
 N317 N 0.64249 0.41505 0.41078
 C318 C 0.60365 0.41197 0.41823
 N319 N 0.58396 0.38840 0.40438
 N320 N 0.60233 0.36879 0.38365
 C321 C 0.83958 -0.14386 -0.15741
 N322 N 0.80520 -0.15629 -0.14658
 N323 N 0.78823 -0.17752 -0.16606
 C324 C 0.80511 -0.18721 -0.19701
 N325 N 0.83950 -0.17480 -0.20784
 N326 N 0.85641 -0.15349 -0.18841
 C327 C 0.85851 -0.12075 -0.13560
 N328 N 0.89174 -0.10711 -0.14725
 N329 N 0.90929 -0.08658 -0.12706
 C330 C 0.89438 -0.07894 -0.09441
 N331 N 0.86103 -0.09258 -0.08290
 N332 N 0.84340 -0.11302 -0.10312
 C333 C 0.33570 0.35430 0.34576
 N334 N 0.30178 0.34143 0.35706
 N335 N 0.28448 0.32048 0.33735
 C336 C 0.30057 0.31154 0.30572
 N337 N 0.33449 0.32439 0.29444
 N338 N 0.35171 0.34542 0.31407
 C339 C 0.35504 0.37713 0.36768
 N340 N 0.38720 0.39165 0.35512
 N341 N 0.40514 0.41200 0.37527
 C342 C 0.39173 0.41856 0.40882
 N343 N 0.35948 0.40401 0.42127
 N344 N 0.34143 0.38376 0.40108
 C345 C 0.16554 0.64943 -0.14407
 N346 N 0.14638 0.66274 -0.17171
 N347 N 0.16482 0.68224 -0.19272
 C348 C 0.20295 0.68950 -0.18654
 N349 N 0.22208 0.67623 -0.15876
 N350 N 0.20379 0.65637 -0.13808
 C351 C 0.14493 0.62819 -0.12086
 N352 N 0.16495 0.60683 -0.10289
 N353 N 0.14595 0.58731 -0.08227
 C354 C 0.10635 0.58877 -0.07843
 N355 N 0.08643 0.61030 -0.09617
 N356 N 0.10535 0.62952 -0.11720
 C357 C 0.66237 1.14805 0.34993
 N358 N 0.70197 1.15133 0.35144
 N359 N 0.72002 1.17160 0.33118
 C360 C 0.69915 1.18900 0.30834
 N361 N 0.65960 1.18553 0.30662
 N362 N 0.64152 1.16554 0.32721
 C363 C 0.64226 1.12618 0.37267
 N364 N 0.60347 1.12909 0.38011
 N365 N 0.58508 1.10933 0.40080
 C366 C 0.60469 1.08572 0.41446
 N367 N 0.64348 1.08274 0.40683
 N368 N 0.66200 1.10272 0.38652
 C369 C 0.15879 0.35120 0.14924
 N370 N 0.13810 0.33287 0.17124
 N371 N 0.15644 0.31282 0.19146
 C372 C 0.19609 0.31014 0.19005
 N373 N 0.21676 0.32836 0.16791
 N374 N 0.19847 0.34867 0.14805
 C375 C 0.13861 0.37328 0.12698
 N376 N 0.15836 0.39706 0.11376
 N377 N 0.13997 0.41720 0.09371
 C378 C 0.10127 0.41406 0.08571
 N379 N 0.08161 0.39014 0.09875
 N380 N 0.09988 0.37021 0.11919
 C381 C 0.66519 0.84954 0.64264
 N382 N 0.64460 0.83225 0.66589
 N383 N 0.66296 0.81286 0.68699
 C384 C 0.70253 0.80980 0.68528
 N385 N 0.72315 0.82697 0.66188
 N386 N 0.70482 0.84666 0.64110
 C387 C 0.64477 0.87092 0.61959
 N388 N 0.66425 0.89436 0.60515
 N389 N 0.64537 0.91405 0.58482
 C390 C 0.60646 0.91078 0.57776
 N391 N 0.58712 0.88718 0.59197
 N392 N 0.60587 0.86772 0.61268
 C393 C 0.83868 0.14947 0.14928
 N394 N 0.80539 0.16282 0.13753
 N395 N 0.78750 0.18305 0.15780
 C396 C 0.80239 0.19076 0.19044
 N397 N 0.83572 0.17746 0.20212
 N398 N 0.85348 0.15713 0.18196
 C399 C 0.85851 0.12715 0.12708
 N400 N 0.88878 0.11128 0.14080
 N401 N 0.90693 0.09107 0.12077
 C402 C 0.89570 0.08604 0.08617
 N403 N 0.86543 0.10202 0.07245
 N404 N 0.84711 0.12213 0.09256
 C405 C 0.33853 0.64520 0.65573
 N406 N 0.30451 0.65795 0.64476
 N407 N 0.28744 0.67878 0.66469
 C408 C 0.30387 0.68772 0.69621
 N409 N 0.33790 0.67499 0.70716
 N410 N 0.35488 0.65408 0.68731
 C411 C 0.35756 0.62245 0.63361
 N412 N 0.38976 0.60798 0.64590
 N413 N 0.40737 0.58766 0.62560
 C414 C 0.39358 0.58109 0.59216
 N415 N 0.36130 0.59559 0.57997
 N416 N 0.34358 0.61581 0.60032
   
