data_POSCAR
  _audit_creation_date              2014-09-24
  _audit_creation_method            'ToBaCCo'
  _symmetry_space_group_name_H-M    'P1'
  _symmetry_Int_Tables_number       1
  _symmetry_cell_setting            triclinic
  loop_
  _symmetry_equiv_pos_as_xyz
 x,y,z
_cell_length_a 52.9696
_cell_length_b 48.1212
_cell_length_c 27.6576
_cell_angle_alpha 89.961000
_cell_angle_beta 89.868800
_cell_angle_gamma 90.005700
loop_
  _atom_site_label
  _atom_site_type_symbol
  _atom_site_fract_x
  _atom_site_fract_y
  _atom_site_fract_z
C1 C 1.27231 0.22161 0.26621
 C2 C 1.25100 0.23561 0.24805
 C3 C 1.23132 0.22027 0.22686
 C4 C 1.23278 0.19126 0.22342
 C5 C 1.25414 0.17768 0.24158
 C6 C 1.27394 0.19240 0.26371
 C7 C 1.24878 0.26624 0.25217
 C8 C 1.26854 0.28366 0.23716
 C9 C 1.26606 0.31286 0.23888
 C10 C 1.24333 0.32421 0.25715
 C11 C 1.22343 0.30693 0.27281
 C12 C 1.22643 0.27801 0.26998
 H13 H 1.28720 0.23352 0.28325
 H14 H 1.21495 0.23105 0.21279
 H15 H 1.28560 0.27424 0.22297
 H16 H 1.21135 0.26439 0.28187
 H17 H 1.25503 0.15525 0.23926
 H18 H 1.24098 0.34654 0.25891
 C19 C 0.77296 -0.28037 0.27105
 C20 C 0.75089 -0.26846 0.25230
 C21 C 0.73079 -0.28573 0.23867
 C22 C 0.73269 -0.31482 0.24273
 C23 C 0.75502 -0.32640 0.26178
 C24 C 0.77540 -0.30937 0.27618
 C25 C 0.74933 -0.23792 0.24550
 C26 C 0.76936 -0.22365 0.22292
 C27 C 0.76828 -0.19476 0.21632
 C28 C 0.74700 -0.18027 0.23271
 C29 C 0.72706 -0.19390 0.25623
 C30 C 0.72821 -0.22290 0.26217
 H31 H 0.78824 -0.26673 0.28176
 H32 H 0.71394 -0.27640 0.22362
 H33 H 0.78565 -0.23512 0.21010
 H34 H 0.71300 -0.23374 0.28041
 H35 H 0.75655 -0.34877 0.26498
 H36 H 0.74637 -0.15792 0.22854
 C37 C 0.76981 0.22291 -0.21636
 C38 C 0.74973 0.23768 -0.23765
 C39 C 0.72822 0.22311 -0.25350
 C40 C 0.72671 0.19411 -0.24796
 C41 C 0.74672 0.17998 -0.22575
 C42 C 0.76842 0.19400 -0.21034
 C43 C 0.75168 0.26821 -0.24433
 C44 C 0.77389 0.27980 -0.26327
 C45 C 0.77665 0.30874 -0.26867
 C46 C 0.75641 0.32608 -0.25445
 C47 C 0.73391 0.31483 -0.23531
 C48 C 0.73174 0.28578 -0.23083
 H49 H 0.78641 0.23402 -0.20421
 H50 H 0.71298 0.23428 -0.27089
 H51 H 0.78902 0.26594 -0.27403
 H52 H 0.71475 0.27671 -0.21571
 H53 H 0.74580 0.15761 -0.22204
 H54 H 0.75817 0.34841 -0.25795
 C55 C 1.26900 -0.28559 -0.24293
 C56 C 1.24930 -0.26818 -0.25802
 C57 C 1.22711 -0.27992 -0.27636
 C58 C 1.22422 -0.30884 -0.27971
 C59 C 1.24406 -0.32613 -0.26392
 C60 C 1.26660 -0.31479 -0.24503
 C61 C 1.25141 -0.23760 -0.25318
 C62 C 1.27266 -0.22336 -0.27121
 C63 C 1.27424 -0.19428 -0.26742
 C64 C 1.25459 -0.17978 -0.24458
 C65 C 1.23325 -0.19354 -0.22660
 C66 C 1.23175 -0.22252 -0.23114
 H67 H 1.28592 -0.27616 -0.22830
 H68 H 1.21206 -0.26628 -0.28820
 H69 H 1.28761 -0.23490 -0.28890
 H70 H 1.21540 -0.23347 -0.21721
 H71 H 1.24178 -0.34846 -0.26600
 H72 H 1.25561 -0.15737 -0.24182
 C73 C 0.21736 0.26906 0.73845
 C74 C 0.23351 0.24742 0.75315
 C75 C 0.22309 0.22238 0.77058
 C76 C 0.19681 0.21869 0.77321
 C77 C 0.18114 0.24075 0.75890
 C78 C 0.19104 0.26576 0.74112
 C79 C 0.26130 0.25023 0.74854
 C80 C 0.27390 0.27402 0.76548
 C81 C 0.30046 0.27602 0.76282
 C82 C 0.31405 0.25377 0.74196
 C83 C 0.30167 0.22991 0.72470
 C84 C 0.27531 0.22846 0.72807
 H85 H 0.22528 0.28814 0.72416
 H86 H 0.23559 0.20579 0.78188
 H87 H 0.26293 0.29058 0.78174
 H88 H 0.26549 0.21030 0.71463
 H89 H 0.16084 0.23823 0.76030
 H90 H 0.33443 0.25476 0.73960
 C91 C 0.72138 0.77083 0.72915
 C92 C 0.73475 0.74780 0.74649
 C93 C 0.72168 0.72363 0.75976
 C94 C 0.69513 0.72239 0.75679
 C95 C 0.68203 0.74581 0.73881
 C96 C 0.69494 0.77022 0.72495
 C97 C 0.76243 0.74967 0.75239
 C98 C 0.77290 0.77230 0.77748
 C99 C 0.79907 0.77450 0.78317
 C100 C 0.81475 0.75423 0.76275
 C101 C 0.80479 0.73195 0.73627
 C102 C 0.77844 0.72948 0.73195
 H103 H 0.73187 0.78926 0.71892
 H104 H 0.73232 0.70615 0.77370
 H105 H 0.76064 0.78793 0.79312
 H106 H 0.77035 0.71242 0.71167
 H107 H 0.66164 0.74517 0.73616
 H108 H 0.83501 0.75638 0.76630
 C109 C 0.72462 0.27824 0.23669
 C110 C 0.73772 0.25391 0.24900
 C111 C 0.72446 0.23120 0.26811
 C112 C 0.69822 0.23239 0.27489
 C113 C 0.68530 0.25686 0.26208
 C114 C 0.69827 0.27986 0.24252
 C115 C 0.76514 0.25150 0.23979
 C116 C 0.78202 0.27175 0.25712
 C117 C 0.80813 0.26895 0.24908
 C118 C 0.81691 0.24626 0.22208
 C119 C 0.80038 0.22583 0.20505
 C120 C 0.77451 0.22838 0.21436
 H121 H 0.73495 0.29554 0.22120
 H122 H 0.73474 0.21251 0.27754
 H123 H 0.77484 0.28917 0.27778
 H124 H 0.76161 0.21263 0.20123
 H125 H 0.66501 0.25782 0.26657
 H126 H 0.83698 0.24376 0.21591
 C127 C 0.22317 0.77925 0.24024
 C128 C 0.23392 0.75459 0.25821
 C129 C 0.21818 0.73354 0.27674
 C130 C 0.19180 0.73725 0.27835
 C131 C 0.18161 0.76215 0.26025
 C132 C 0.19694 0.78335 0.24127
 C133 C 0.26177 0.75183 0.25997
 C134 C 0.27619 0.77384 0.27838
 C135 C 0.30261 0.77253 0.27919
 C136 C 0.31461 0.74856 0.26138
 C137 C 0.30055 0.72613 0.24274
 C138 C 0.27400 0.72790 0.24257
 H139 H 0.23542 0.79528 0.22577
 H140 H 0.22663 0.71478 0.29109
 H141 H 0.26663 0.79210 0.29220
 H142 H 0.26283 0.71104 0.22796
 H143 H 0.16136 0.76516 0.26120
 H144 H 0.33503 0.74751 0.26156
 O145 O 1.03578 0.05002 0.08301
 O146 O 1.06394 0.02378 0.03911
 C147 C 1.05852 0.04304 0.07033
 O148 O 0.96616 -0.05151 0.08457
 O149 O 0.93819 -0.02582 0.03967
 C150 C 0.94352 -0.04527 0.07055
 O151 O 1.03642 -0.04681 0.09143
 O152 O 1.06439 -0.02321 0.04291
 C153 C 1.05914 -0.04023 0.07780
 O154 O 0.96519 0.05183 0.07732
 O155 O 0.93757 0.02372 0.03601
 C156 C 0.94258 0.04427 0.06466
 Zr157 Zr 1.00078 0.03530 0.05699
 O158 O 0.99963 0.03464 0.13345
 O159 O 1.00147 0.07908 0.04960
 Zr160 Zr 1.00109 -0.03427 0.06315
 O161 O 0.99937 -0.02769 0.13861
 O162 O 1.00324 -0.07788 0.07157
 O163 O 1.02364 0.00084 0.06943
 O164 O 0.97854 0.00060 0.06854
 O165 O 0.96655 0.04845 -0.08796
 O166 O 0.93840 0.02286 -0.04309
 C167 C 0.94385 0.04219 -0.07412
 O168 O 1.03649 -0.05264 -0.08413
 O169 O 1.06436 -0.02626 -0.04024
 C170 C 1.05914 -0.04560 -0.07129
 O171 O 0.96578 -0.05453 -0.07991
 O172 O 0.93785 -0.02646 -0.03930
 C173 C 0.94308 -0.04699 -0.06780
 O174 O 1.03702 0.04396 -0.09356
 O175 O 1.06463 0.02041 -0.04455
 C176 C 1.05964 0.03738 -0.07957
 Zr177 Zr 1.00146 0.03198 -0.06495
 O178 O 0.99880 0.03091 -0.14127
 O179 O 1.00309 0.07588 -0.06340
 Zr180 Zr 1.00119 -0.03796 -0.05914
 O181 O 0.99887 -0.04012 -0.13547
 O182 O 1.00216 -0.08170 -0.05222
 Zr183 Zr 1.03884 -0.00134 -0.00087
 Zr184 Zr 0.96345 -0.00137 -0.00146
 O185 O 0.97924 -0.00315 -0.07115
 O186 O 1.02396 -0.00333 -0.07142
 O187 O 0.97872 0.03893 -0.00464
 O188 O 1.02301 -0.04133 0.00259
 O189 O 1.02316 0.03867 -0.00427
 O190 O 0.97886 -0.04162 0.00226
 H191 H 0.96670 0.00112 0.09633
 H192 H 1.03418 -0.05780 0.00445
 H193 H 0.96775 -0.00372 -0.09935
 H194 H 1.03447 0.05505 -0.00587
 H195 H 0.99700 -0.08605 0.04103
 H196 H 1.00193 -0.08924 -0.08556
 H197 H 1.01336 -0.02965 -0.14882
 H198 H 1.01177 0.01775 -0.15299
 H199 H 1.00368 0.08201 -0.09760
 H200 H 1.00137 0.08694 0.08268
 H201 H 0.99873 0.05423 0.14422
 H202 H 0.99915 -0.04642 0.15348
 O203 O 1.04220 0.46085 0.59081
 O204 O 1.02090 0.42916 0.54393
 C205 C 1.03700 0.43567 0.57752
 O206 O 0.95081 0.53698 0.57863
 O207 O 0.97527 0.56846 0.53708
 C208 C 0.95669 0.56207 0.56583
 O209 O 0.95414 0.46055 0.58646
 O210 O 0.97676 0.42890 0.54170
 C211 C 0.95981 0.43537 0.57398
 O212 O 1.04433 0.53744 0.58539
 O213 O 1.02189 0.56867 0.53949
 C214 C 1.03911 0.56246 0.57128
 Zr215 Zr 1.02987 0.49902 0.56223
 O216 O 1.02593 0.50023 0.63835
 O217 O 1.06983 0.49835 0.56069
 Zr218 Zr 0.96710 0.49872 0.55915
 O219 O 0.97024 0.50046 0.63526
 O220 O 0.92725 0.49655 0.56171
 O221 O 0.99842 0.47363 0.57026
 O222 O 0.99821 0.52379 0.56902
 O223 O 1.04717 0.53692 0.41877
 O224 O 1.02266 0.56838 0.46013
 C225 C 1.04118 0.56202 0.43124
 O226 O 0.95677 0.45949 0.41014
 O227 O 0.97849 0.42841 0.45742
 C228 C 0.96231 0.43448 0.42381
 O229 O 0.95387 0.53630 0.41331
 O230 O 0.97619 0.56815 0.45792
 C231 C 0.95892 0.56149 0.42658
 O232 O 1.04434 0.46023 0.41324
 O233 O 1.02210 0.42874 0.45905
 C234 C 1.03885 0.43510 0.42636
 Zr235 Zr 1.03185 0.49862 0.44073
 O236 O 1.03432 0.50148 0.36450
 O237 O 1.07152 0.49744 0.44904
 Zr238 Zr 0.96874 0.49822 0.43721
 O239 O 0.97002 0.50087 0.36078
 O240 O 0.92884 0.49674 0.43843
 Zr241 Zr 0.99947 0.45656 0.50017
 Zr242 Zr 0.99912 0.54067 0.49906
 O243 O 1.00032 0.52298 0.42967
 O244 O 1.00054 0.47329 0.42964
 O245 O 1.03566 0.52362 0.50142
 O246 O 0.96320 0.47426 0.49826
 O247 O 1.03561 0.47445 0.50193
 O248 O 0.96275 0.52307 0.49752
 H249 H 0.99767 0.53678 0.59681
 H250 H 0.94811 0.46209 0.49780
 H251 H 1.00073 0.53556 0.40129
 H252 H 1.05068 0.46226 0.50270
 H253 H 0.92110 0.50352 0.53020
 H254 H 0.92329 0.49645 0.40422
 H255 H 0.97973 0.48473 0.34876
 H256 H 1.02241 0.48773 0.35094
 H257 H 1.07871 0.49695 0.41593
 H258 H 1.07565 0.49798 0.59470
 H259 H 1.04319 0.50088 0.65197
 H260 H 0.95273 0.50117 0.64785
 O261 O 0.53685 0.04989 0.59027
 O262 O 0.56546 0.02555 0.54418
 C263 C 0.55969 0.04366 0.57729
 O264 O 0.46717 -0.05084 0.58066
 O265 O 0.43896 -0.02394 0.53840
 C266 C 0.44447 -0.04424 0.56755
 O267 O 0.53684 -0.04740 0.58826
 O268 O 0.56555 -0.02268 0.54302
 C269 C 0.55972 -0.04114 0.57556
 O270 O 0.46700 0.05256 0.58436
 O271 O 0.43886 0.02684 0.53978
 C272 C 0.44429 0.04628 0.57070
 Zr273 Zr 0.50206 0.03617 0.56217
 O274 O 0.50072 0.03267 0.63839
 O275 O 0.50290 0.08013 0.55944
 Zr276 Zr 0.50209 -0.03313 0.56102
 O277 O 0.50040 -0.02888 0.63700
 O278 O 0.50383 -0.07697 0.56497
 O279 O 0.52493 0.00144 0.57124
 O280 O 0.47949 0.00140 0.56989
 O281 O 0.46797 0.05401 0.41822
 O282 O 0.43939 0.02726 0.46006
 C283 C 0.44515 0.04736 0.43066
 O284 O 0.53800 -0.04641 0.41264
 O285 O 0.56609 -0.02186 0.45915
 C286 C 0.56069 -0.04016 0.42625
 O287 O 0.46797 -0.04891 0.41571
 O288 O 0.43930 -0.02311 0.45897
 C289 C 0.44512 -0.04260 0.42843
 O290 O 0.53796 0.05060 0.41342
 O291 O 0.56610 0.02591 0.45969
 C292 C 0.56069 0.04426 0.42679
 Zr293 Zr 0.50276 0.03713 0.44051
 O294 O 0.50045 0.03883 0.36417
 O295 O 0.50400 0.08089 0.44726
 Zr296 Zr 0.50277 -0.03252 0.43888
 O297 O 0.50061 -0.03169 0.36243
 O298 O 0.50383 -0.07644 0.44103
 Zr299 Zr 0.54050 0.00178 0.50110
 Zr300 Zr 0.46437 0.00179 0.49982
 O301 O 0.48056 0.00237 0.43038
 O302 O 0.52558 0.00234 0.43045
 O303 O 0.47992 0.04201 0.50106
 O304 O 0.52434 -0.03811 0.50022
 O305 O 0.52454 0.04172 0.50175
 O306 O 0.48008 -0.03838 0.49939
 H307 H 0.46762 0.00111 0.59764
 H308 H 0.53531 -0.05478 0.50024
 H309 H 0.46920 0.00263 0.40195
 H310 H 0.53570 0.05824 0.50215
 H311 H 0.49794 -0.08402 0.53335
 H312 H 0.50401 -0.08282 0.40695
 H313 H 0.51546 -0.02131 0.35031
 H314 H 0.51336 0.02598 0.35120
 H315 H 0.50452 0.08838 0.41388
 H316 H 0.50310 0.08686 0.59328
 H317 H 0.50011 0.05183 0.65140
 H318 H 0.49974 -0.04804 0.65010
 O319 O 0.53349 0.55010 0.08778
 O320 O 0.56158 0.52468 0.04236
 C321 C 0.55629 0.54311 0.07517
 O322 O 0.46297 0.44977 0.08480
 O323 O 0.43488 0.47616 0.04135
 C324 C 0.44019 0.45667 0.07218
 O325 O 0.53320 0.45297 0.09004
 O326 O 0.56158 0.47705 0.04299
 C327 C 0.55602 0.45925 0.07680
 O328 O 0.46315 0.55260 0.08278
 O329 O 0.43486 0.52619 0.03972
 C330 C 0.44037 0.54593 0.07008
 Zr331 Zr 0.49824 0.53614 0.06058
 O332 O 0.49728 0.53387 0.13696
 O333 O 0.49908 0.58004 0.05586
 Zr334 Zr 0.49818 0.46659 0.06264
 O335 O 0.49700 0.47169 0.13850
 O336 O 0.49995 0.42279 0.06786
 O337 O 0.52101 0.50144 0.07080
 O338 O 0.47578 0.50138 0.07021
 O339 O 0.46286 0.55044 -0.08567
 O340 O 0.43485 0.52447 -0.04107
 C341 C 0.44011 0.54353 -0.07278
 O342 O 0.53409 0.45134 -0.08595
 O343 O 0.56190 0.47711 -0.04094
 C344 C 0.55680 0.45851 -0.07341
 O345 O 0.46363 0.44860 -0.08165
 O346 O 0.43508 0.47490 -0.03895
 C347 C 0.44078 0.45514 -0.06912
 O348 O 0.53306 0.54778 -0.09047
 O349 O 0.56153 0.52452 -0.04268
 C350 C 0.55590 0.54190 -0.07704
 Zr351 Zr 0.49811 0.53528 -0.06093
 O352 O 0.49734 0.53877 -0.13711
 O353 O 0.49865 0.57894 -0.05276
 Zr354 Zr 0.49858 0.46524 -0.05941
 O355 O 0.49650 0.46429 -0.13585
 O356 O 0.49981 0.42142 -0.05439
 Zr357 Zr 0.53628 0.50085 0.00042
 Zr358 Zr 0.46027 0.50055 0.00042
 O359 O 0.47624 0.50000 -0.06923
 O360 O 0.52093 0.50030 -0.06992
 O361 O 0.47553 0.54096 -0.00033
 O362 O 0.52037 0.46081 0.00179
 O363 O 0.52040 0.54082 -0.00048
 O364 O 0.47593 0.46034 0.00163
 H365 H 0.46414 0.50158 0.09831
 H366 H 0.53152 0.44429 0.00225
 H367 H 0.46484 0.49955 -0.09755
 H368 H 0.53174 0.55720 -0.00093
 H369 H 0.49250 0.41537 0.03776
 H370 H 0.50000 0.41436 -0.08805
 H371 H 0.51061 0.47568 -0.14849
 H372 H 0.49454 0.51988 -0.14995
 H373 H 0.49941 0.58671 -0.08591
 H374 H 0.49951 0.58724 0.08938
 H375 H 0.49677 0.55323 0.14904
 H376 H 0.49649 0.45269 0.15229
 N377 N 1.17058 0.17093 0.17376
 C378 C 1.17361 0.14315 0.16779
 N379 N 1.19602 0.13136 0.17898
 N380 N 1.21482 0.14682 0.19595
 C381 C 1.21196 0.17464 0.20240
 N382 N 1.18945 0.18643 0.19076
 C383 C 1.15330 0.12607 0.15116
 C384 C 1.13658 0.11102 0.13773
 C385 C 1.11685 0.09286 0.12201
 N386 N 1.09283 0.09692 0.13732
 N387 N 1.07434 0.08046 0.12182
 C388 C 1.07929 0.05931 0.09071
 N389 N 1.10342 0.05517 0.07573
 N390 N 1.12192 0.07164 0.09125
 N391 N 1.17548 0.64081 0.68099
 C392 C 1.15639 0.65779 0.66704
 N393 N 1.15954 0.68566 0.67026
 N394 N 1.18111 0.69618 0.68692
 C395 C 1.20034 0.67928 0.70107
 N396 N 1.19704 0.65134 0.69766
 C397 C 1.13300 0.64614 0.65021
 C398 C 1.11383 0.63487 0.63714
 C399 C 1.09203 0.61898 0.62327
 N400 N 1.07851 0.62524 0.58298
 N401 N 1.06031 0.60818 0.56761
 C402 C 1.05512 0.58432 0.59207
 N403 N 1.06845 0.57851 0.63270
 N404 N 1.08648 0.59553 0.64809
 N405 N 0.67067 0.17300 0.68104
 C406 C 0.66852 0.14579 0.69341
 N407 N 0.68465 0.13492 0.72615
 N408 N 0.70265 0.15060 0.74545
 C409 C 0.70521 0.17777 0.73293
 N410 N 0.68874 0.18874 0.70046
 C411 C 0.64979 0.12828 0.67188
 C412 C 0.63432 0.11277 0.65497
 C413 C 0.61568 0.09416 0.63612
 N414 N 0.59161 0.09560 0.65241
 N415 N 0.57403 0.07879 0.63454
 C416 C 0.57992 0.05979 0.60001
 N417 N 0.60413 0.05819 0.58400
 N418 N 0.62176 0.07506 0.60192
 N419 N 0.67163 0.66220 0.19095
 C420 C 0.67368 0.63414 0.19270
 N421 N 0.69495 0.62272 0.21136
 N422 N 0.71358 0.63886 0.22759
 C423 C 0.71167 0.66704 0.22581
 N424 N 0.69024 0.67832 0.20717
 C425 C 0.65366 0.61684 0.17424
 C426 C 0.63670 0.60278 0.15820
 C427 C 0.61624 0.58660 0.13849
 N428 N 0.59205 0.59194 0.15172
 N429 N 0.57301 0.57777 0.13213
 C430 C 0.57746 0.55773 0.09858
 N431 N 0.60173 0.55235 0.08553
 N432 N 0.62078 0.56653 0.10513
 N433 N 0.83185 -0.17561 0.17130
 C434 C 0.82846 -0.14850 0.15948
 N435 N 0.80533 -0.13698 0.16472
 N436 N 0.78621 -0.15199 0.18174
 C437 C 0.78943 -0.17907 0.19420
 N438 N 0.81264 -0.19068 0.18834
 C439 C 0.84912 -0.13154 0.14378
 C440 C 0.86594 -0.11630 0.13128
 C441 C 0.88558 -0.09760 0.11684
 N442 N 0.88059 -0.07631 0.08618
 N443 N 0.89892 -0.05907 0.07236
 C444 C 0.92281 -0.06247 0.08905
 N445 N 0.92768 -0.08372 0.12001
 N446 N 0.90936 -0.10094 0.13382
 N447 N 0.84035 0.31341 0.68231
 C448 C 0.84328 0.34122 0.67742
 N449 N 0.82399 0.35825 0.69024
 N450 N 0.80245 0.34782 0.70744
 C451 C 0.79933 0.31991 0.71258
 N452 N 0.81880 0.30299 0.69950
 C453 C 0.86664 0.35275 0.65986
 C454 C 0.88579 0.36383 0.64597
 C455 C 0.90759 0.37943 0.63080
 N456 N 0.91341 0.40317 0.65447
 N457 N 0.93132 0.41997 0.63765
 C458 C 0.94427 0.41364 0.59669
 N459 N 0.93884 0.38949 0.57343
 N460 N 0.92076 0.37266 0.59024
 N461 N 0.33154 -0.17542 0.66263
 C462 C 0.33292 -0.14765 0.67085
 N463 N 0.31562 -0.13552 0.69997
 N464 N 0.29733 -0.15057 0.71992
 C465 C 0.29560 -0.17834 0.71171
 N466 N 0.31315 -0.19053 0.68269
 C467 C 0.35238 -0.13094 0.64965
 C468 C 0.36843 -0.11584 0.63351
 C469 C 0.38764 -0.09739 0.61623
 N470 N 0.38190 -0.07600 0.58618
 N471 N 0.39986 -0.05859 0.57110
 C472 C 0.42409 -0.06194 0.58598
 N473 N 0.42968 -0.08331 0.61621
 N474 N 0.41176 -0.10067 0.63123
 N475 N 0.32578 0.33541 0.18673
 C476 C 0.32326 0.36343 0.18726
 N477 N 0.30177 0.37468 0.20541
 N478 N 0.28337 0.35841 0.22234
 C479 C 0.28570 0.33022 0.22181
 N480 N 0.30739 0.31916 0.20364
 C481 C 0.34310 0.38086 0.16837
 C482 C 0.35998 0.39502 0.15218
 C483 C 0.38039 0.41137 0.13262
 N484 N 0.37580 0.43204 0.10042
 N485 N 0.39480 0.44666 0.08147
 C486 C 0.41908 0.44111 0.09403
 N487 N 0.42359 0.42042 0.12635
 N488 N 0.40459 0.40582 0.14529
 N489 N 0.83241 0.17361 -0.16988
 C490 C 0.82895 0.14636 -0.15906
 N491 N 0.80566 0.13514 -0.16344
 N492 N 0.78644 0.15056 -0.17868
 C493 C 0.78971 0.17779 -0.19012
 N494 N 0.81310 0.18909 -0.18514
 C495 C 0.84964 0.12906 -0.14495
 C496 C 0.86644 0.11356 -0.13354
 C497 C 0.88601 0.09458 -0.11999
 N498 N 0.88096 0.07315 -0.08963
 N499 N 0.89925 0.05583 -0.07614
 C500 C 0.92317 0.05929 -0.09285
 N501 N 0.92810 0.08066 -0.12356
 N502 N 0.90981 0.09797 -0.13705
 N503 N 0.83902 0.68483 0.32474
 C504 C 0.84160 0.65695 0.32923
 N505 N 0.82211 0.64027 0.31635
 N506 N 0.80070 0.65110 0.29946
 C507 C 0.79793 0.67907 0.29470
 N508 N 0.81761 0.69565 0.30787
 C509 C 0.86485 0.64496 0.34623
 C510 C 0.88390 0.63348 0.35950
 C511 C 0.90558 0.61744 0.37371
 N512 N 0.91060 0.59342 0.35020
 N513 N 0.92868 0.57652 0.36584
 C514 C 0.94260 0.58302 0.40541
 N515 N 0.93792 0.60741 0.42856
 N516 N 0.91967 0.62435 0.41294
 N517 N 0.31374 0.13498 0.30071
 C518 C 0.33269 0.14816 0.32390
 N519 N 0.33244 0.17632 0.32668
 N520 N 0.31359 0.19082 0.30698
 C521 C 0.29438 0.17764 0.28377
 N522 N 0.29500 0.14943 0.28112
 C523 C 0.35267 0.13210 0.34468
 C524 C 0.36900 0.11743 0.36092
 C525 C 0.38830 0.09936 0.37889
 N526 N 0.41255 0.10296 0.36470
 N527 N 0.43052 0.08597 0.38067
 C528 C 0.42484 0.06468 0.41106
 N529 N 0.40048 0.06102 0.42510
 N530 N 0.38248 0.07805 0.40910
 N531 N 0.32584 0.66275 -0.19141
 C532 C 0.32339 0.63473 -0.19211
 N533 N 0.30212 0.62343 -0.21093
 N534 N 0.28385 0.63968 -0.22832
 C535 C 0.28612 0.66787 -0.22760
 N536 N 0.30760 0.67896 -0.20878
 C537 C 0.34307 0.61737 -0.17266
 C538 C 0.35988 0.60336 -0.15594
 C539 C 0.38027 0.58734 -0.13573
 N540 N 0.37566 0.56717 -0.10254
 N541 N 0.39468 0.55298 -0.08282
 C542 C 0.41897 0.55848 -0.09558
 N543 N 0.42348 0.57866 -0.12889
 N544 N 0.40448 0.59282 -0.14860
 N545 N 1.19694 -0.13413 -0.17887
 C546 C 1.17434 -0.14584 -0.16861
 N547 N 1.17105 -0.17345 -0.17620
 N548 N 1.18985 -0.18886 -0.19389
 C549 C 1.21253 -0.17713 -0.20464
 N550 N 1.21566 -0.14950 -0.19653
 C551 C 1.15407 -0.12878 -0.15161
 C552 C 1.13738 -0.11373 -0.13802
 C553 C 1.11762 -0.09557 -0.12231
 N554 N 1.09367 -0.09955 -0.13788
 N555 N 1.07516 -0.08304 -0.12255
 C556 C 1.07999 -0.06192 -0.09138
 N557 N 1.10405 -0.05785 -0.07612
 N558 N 1.12259 -0.07438 -0.09147
 N559 N 1.17428 0.35727 0.31073
 C560 C 1.15520 0.34028 0.32486
 N561 N 1.15848 0.31240 0.32216
 N562 N 1.18016 0.30190 0.30580
 C563 C 1.19938 0.31881 0.29150
 N564 N 1.19595 0.34675 0.29437
 C565 C 1.13178 0.35188 0.34182
 C566 C 1.11261 0.36307 0.35532
 C567 C 1.09085 0.37879 0.37015
 N568 N 1.07759 0.37216 0.41068
 N569 N 1.05959 0.38913 0.42729
 C570 C 1.05433 0.41329 0.40385
 N571 N 1.06737 0.41947 0.36291
 N572 N 1.08520 0.40253 0.34629
 N573 N 0.68622 -0.13373 0.28291
 C574 C 0.66980 -0.14427 0.31558
 N575 N 0.67141 -0.17154 0.32784
 N576 N 0.68923 -0.18767 0.30834
 C577 C 0.70596 -0.17705 0.27588
 N578 N 0.70396 -0.14980 0.26353
 C579 C 0.65115 -0.12641 0.33669
 C580 C 0.63571 -0.11059 0.35296
 C581 C 0.61702 -0.09162 0.37073
 N582 N 0.59320 -0.09279 0.35329
 N583 N 0.57555 -0.07564 0.37006
 C584 C 0.58112 -0.05656 0.40458
 N585 N 0.60510 -0.05521 0.42174
 N586 N 0.62280 -0.07243 0.40492
 N587 N 0.67268 0.33859 -0.18485
 C588 C 0.67489 0.36662 -0.18721
 N589 N 0.69636 0.37778 -0.20576
 N590 N 0.71501 0.36140 -0.22132
 C591 C 0.71293 0.33324 -0.21894
 N592 N 0.69132 0.32224 -0.20039
 C593 C 0.65481 0.38417 -0.16955
 C594 C 0.63775 0.39838 -0.15416
 C595 C 0.61717 0.41472 -0.13517
 N596 N 0.62149 0.43505 -0.10223
 N597 N 0.60231 0.44934 -0.08319
 C598 C 0.57813 0.44381 -0.09639
 N599 N 0.57389 0.42351 -0.12953
 N600 N 0.59306 0.40923 -0.14857
 N601 N 1.14960 0.16712 -0.19674
 C602 C 1.16385 0.14510 -0.18368
 N603 N 1.18939 0.14744 -0.18435
 N604 N 1.20024 0.17123 -0.19809
 C605 C 1.18592 0.19348 -0.21141
 N606 N 1.16039 0.19075 -0.21033
 C607 C 1.15129 0.12028 -0.16842
 C608 C 1.13788 0.10143 -0.15583
 C609 C 1.11917 0.08177 -0.14085
 N610 N 1.12345 0.06426 -0.10334
 N611 N 1.10464 0.04912 -0.08505
 C612 C 1.08093 0.05121 -0.10340
 N613 N 1.07681 0.06851 -0.14129
 N614 N 1.09562 0.08354 -0.15963
 N615 N 1.16842 0.67399 0.33526
 C616 C 1.14322 0.67910 0.33656
 N617 N 1.13437 0.70327 0.31847
 N618 N 1.15018 0.72185 0.29979
 C619 C 1.17549 0.71708 0.29823
 N620 N 1.18430 0.69268 0.31651
 C621 C 1.12575 0.65903 0.35508
 C622 C 1.11033 0.64252 0.36917
 C623 C 1.09191 0.62251 0.38422
 N624 N 1.07303 0.62949 0.41522
 N625 N 1.05618 0.61051 0.42934
 C626 C 1.05763 0.58404 0.41254
 N627 N 1.07644 0.57731 0.38124
 N628 N 1.09322 0.59622 0.36717
 N629 N 0.64653 0.18633 0.31634
 C630 C 0.65906 0.16253 0.32686
 N631 N 0.68443 0.16163 0.32085
 N632 N 0.69686 0.18388 0.30470
 C633 C 0.68440 0.20782 0.29394
 N634 N 0.65896 0.20856 0.30019
 C635 C 0.64536 0.13853 0.34323
 C636 C 0.63266 0.11912 0.35636
 C637 C 0.61574 0.09739 0.37116
 N638 N 0.62149 0.08005 0.40831
 N639 N 0.60442 0.06193 0.42480
 C640 C 0.58107 0.06064 0.40466
 N641 N 0.57560 0.07779 0.36712
 N642 N 0.59263 0.09577 0.35062
 N643 N 0.64359 0.67561 -0.21285
 C644 C 0.65605 0.65359 -0.19386
 N645 N 0.68162 0.65423 -0.19195
 N646 N 0.69426 0.67629 -0.20837
 C647 C 0.68187 0.69860 -0.22726
 N648 N 0.65622 0.69764 -0.22922
 C649 C 0.64203 0.63041 -0.17486
 C650 C 0.62891 0.61197 -0.15908
 C651 C 0.61145 0.59157 -0.14087
 N652 N 0.61743 0.57491 -0.10291
 N653 N 0.60009 0.55806 -0.08352
 C654 C 0.57622 0.55741 -0.10143
 N655 N 0.57048 0.57391 -0.13970
 N656 N 0.58776 0.59064 -0.15908
 N657 N 0.84619 -0.18249 -0.15463
 C658 C 0.83502 -0.15723 -0.15407
 N659 N 0.81128 -0.15447 -0.17180
 N660 N 0.79925 -0.17643 -0.19012
 C661 C 0.81069 -0.20173 -0.19159
 N662 N 0.83426 -0.20432 -0.17303
 C663 C 0.84957 -0.13371 -0.13932
 C664 C 0.86410 -0.11566 -0.12805
 C665 C 0.88359 -0.09642 -0.11557
 N666 N 0.87910 -0.07495 -0.08506
 N667 N 0.89801 -0.05863 -0.07081
 C668 C 0.92197 -0.06336 -0.08648
 N669 N 0.92631 -0.08477 -0.11724
 N670 N 0.90743 -0.10102 -0.13153
 N671 N 0.86883 0.30193 0.28042
 C672 C 0.86168 0.32187 0.31199
 N673 N 0.83678 0.32515 0.32224
 N674 N 0.81958 0.30867 0.30186
 C675 C 0.82671 0.28846 0.27034
 N676 N 0.85168 0.28551 0.26012
 C677 C 0.88033 0.33970 0.33290
 C678 C 0.89625 0.35495 0.34893
 C679 C 0.91477 0.37418 0.36621
 N680 N 0.93052 0.36750 0.40310
 N681 N 0.94669 0.38628 0.42041
 C682 C 0.94763 0.41224 0.40115
 N683 N 0.93204 0.41861 0.36387
 N684 N 0.91597 0.39990 0.34659
 N685 N 0.35649 -0.18292 0.31441
 C686 C 0.34471 -0.15965 0.33035
 N687 N 0.31916 -0.15861 0.32990
 N688 N 0.30582 -0.18020 0.31389
 C689 C 0.31752 -0.20362 0.29775
 N690 N 0.34316 -0.20450 0.29841
 C691 C 0.35930 -0.13642 0.34699
 C692 C 0.37261 -0.11761 0.36032
 C693 C 0.39008 -0.09650 0.37524
 N694 N 0.38391 -0.07756 0.40968
 N695 N 0.40111 -0.05949 0.42565
 C696 C 0.42501 -0.05985 0.40765
 N697 N 0.43094 -0.07868 0.37293
 N698 N 0.41380 -0.09663 0.35696
 N699 N 0.31328 0.34238 -0.17856
 C700 C 0.33885 0.34346 -0.18103
 N701 N 0.35146 0.32234 -0.20256
 N702 N 0.33901 0.30077 -0.22089
 C703 C 0.31339 0.29935 -0.21851
 N704 N 0.30080 0.32074 -0.19698
 C705 C 0.35285 0.36626 -0.16067
 C706 C 0.36636 0.38421 -0.14451
 C707 C 0.38457 0.40391 -0.12676
 N708 N 0.40879 0.40208 -0.14214
 N709 N 0.42639 0.41889 -0.12432
 C710 C 0.42047 0.43825 -0.09047
 N711 N 0.39611 0.44027 -0.07522
 N712 N 0.37843 0.42333 -0.09306
 N713 N 1.14942 -0.16544 0.21149
 C714 C 1.16339 -0.14469 0.19227
 N715 N 1.18881 -0.14767 0.18915
 N716 N 1.19985 -0.17087 0.20512
 C717 C 1.18582 -0.19189 0.22442
 N718 N 1.16040 -0.18850 0.22725
 C719 C 1.15058 -0.12077 0.17387
 C720 C 1.13704 -0.10263 0.15904
 C721 C 1.11822 -0.08373 0.14200
 N722 N 1.12285 -0.06650 0.10420
 N723 N 1.10414 -0.05176 0.08474
 C724 C 1.08021 -0.05399 0.10220
 N725 N 1.07575 -0.07105 0.14031
 N726 N 1.09444 -0.08567 0.15982
 N727 N 1.13167 0.30323 0.71703
 C728 C 1.13927 0.32372 0.68690
 N729 N 1.16416 0.32614 0.67585
 N730 N 1.18091 0.30821 0.69391
 C731 C 1.17327 0.28734 0.72370
 N732 N 1.14835 0.28539 0.73498
 C733 C 1.12089 0.34232 0.66707
 C734 C 1.10491 0.35772 0.65161
 C735 C 1.08603 0.37662 0.63459
 N736 N 1.08450 0.40236 0.65400
 N737 N 1.06793 0.42064 0.63700
 C738 C 1.05214 0.41381 0.60027
 N739 N 1.05341 0.38782 0.58127
 N740 N 1.07007 0.36947 0.59831
 N741 N 0.64380 -0.18399 0.68862
 C742 C 0.65650 -0.16059 0.67618
 N743 N 0.68199 -0.16024 0.67968
 N744 N 0.69436 -0.18263 0.69524
 C745 C 0.68178 -0.20623 0.70794
 N746 N 0.65618 -0.20637 0.70417
 C747 C 0.64293 -0.13650 0.65996
 C748 C 0.63044 -0.11697 0.64681
 C749 C 0.61383 -0.09503 0.63184
 N750 N 0.62005 -0.07763 0.59498
 N751 N 0.60328 -0.05928 0.57829
 C752 C 0.57978 -0.05779 0.59795
 N753 N 0.57385 -0.07500 0.63520
 N754 N 0.59057 -0.09322 0.65190
 N755 N 0.64584 0.32835 0.21611
 C756 C 0.65785 0.34946 0.19318
 N757 N 0.68324 0.34811 0.18717
 N758 N 0.69615 0.32623 0.20348
 C759 C 0.68416 0.30489 0.22629
 N760 N 0.65874 0.30650 0.23235
 C761 C 0.64345 0.37226 0.17397
 C762 C 0.62999 0.39032 0.15808
 C763 C 0.61214 0.41023 0.13984
 N764 N 0.61804 0.42748 0.10258
 N765 N 0.60047 0.44402 0.08334
 C766 C 0.57643 0.44375 0.10069
 N767 N 0.57076 0.42664 0.13822
 N768 N 0.58828 0.41022 0.15745
 N769 N 0.84478 0.18108 0.13919
 C770 C 0.83418 0.15568 0.14435
 N771 N 0.81148 0.15337 0.16685
 N772 N 0.79995 0.17590 0.18427
 C773 C 0.81089 0.20136 0.18007
 N774 N 0.83336 0.20349 0.15672
 C775 C 0.84866 0.13175 0.13136
 C776 C 0.86318 0.11342 0.12141
 C777 C 0.88268 0.09390 0.11025
 N778 N 0.87850 0.07241 0.07966
 N779 N 0.89752 0.05598 0.06623
 C780 C 0.92129 0.06063 0.08277
 N781 N 0.92533 0.08205 0.11364
 N782 N 0.90633 0.09840 0.12712
 N783 N 0.86386 0.69921 0.69414
 C784 C 0.85531 0.67765 0.66752
 N785 N 0.83005 0.67349 0.66359
 N786 N 0.81383 0.69060 0.68545
 C787 C 0.82236 0.71233 0.71224
 N788 N 0.84770 0.71624 0.71593
 C789 C 0.87299 0.65878 0.64620
 C790 C 0.88832 0.64271 0.63035
 C791 C 0.90636 0.62267 0.61398
 N792 N 0.90471 0.59618 0.63004
 N793 N 0.92124 0.57721 0.61532
 C794 C 0.94014 0.58405 0.58430
 N795 N 0.94192 0.61070 0.56839
 N796 N 0.92530 0.62976 0.58317
 N797 N 0.35494 0.18603 0.68354
 C798 C 0.34300 0.16257 0.66903
 N799 N 0.31750 0.16120 0.67223
 N800 N 0.30438 0.18266 0.68952
 C801 C 0.31625 0.20625 0.70429
 N802 N 0.34182 0.20746 0.70083
 C803 C 0.35746 0.13938 0.65163
 C804 C 0.37084 0.12068 0.63795
 C805 C 0.38854 0.09977 0.62300
 N806 N 0.38278 0.08099 0.58806
 N807 N 0.40021 0.06307 0.57229
 C808 C 0.42392 0.06344 0.59098
 N809 N 0.42944 0.08211 0.62617
 N810 N 0.41207 0.09990 0.64193
 N811 N 0.31307 0.65854 0.18241
 C812 C 0.33865 0.65728 0.18387
 N813 N 0.35157 0.67830 0.20498
 N814 N 0.33940 0.69992 0.22389
 C815 C 0.31380 0.70145 0.22252
 N816 N 0.30087 0.68024 0.20141
 C817 C 0.35236 0.63441 0.16296
 C818 C 0.36574 0.61643 0.14644
 C819 C 0.38394 0.59677 0.12842
 N820 N 0.40809 0.59842 0.14405
 N821 N 0.42574 0.58172 0.12599
 C822 C 0.41995 0.56265 0.09160
 N823 N 0.39566 0.56080 0.07609
 N824 N 0.37793 0.57764 0.09418
   
