data_POSCAR
  _audit_creation_date              2014-09-24
  _audit_creation_method            'ToBaCCo'
  _symmetry_space_group_name_H-M    'P1'
  _symmetry_Int_Tables_number       1
  _symmetry_cell_setting            triclinic
  loop_
  _symmetry_equiv_pos_as_xyz
 x,y,z
_cell_length_a 50.4475
_cell_length_b 49.9223
_cell_length_c 49.5998
_cell_angle_alpha 90.031400
_cell_angle_beta 89.991400
_cell_angle_gamma 90.583300
loop_
  _atom_site_label
  _atom_site_type_symbol
  _atom_site_fract_x
  _atom_site_fract_y
  _atom_site_fract_z
C1 C 0.60319 0.62666 0.64575
 C2 C 0.58346 0.64628 0.64561
 C3 C 0.58302 0.66609 0.62546
 C4 C 0.60267 0.66611 0.60535
 C5 C 0.62255 0.64668 0.60528
 C6 C 0.62283 0.62688 0.62558
 C7 C 0.60356 0.60691 0.66586
 C8 C 0.62339 0.58706 0.66638
 C9 C 0.64294 0.58771 0.64590
 C10 C 0.64275 0.60733 0.62567
 C11 C 0.66218 0.60759 0.60542
 C12 C 0.66206 0.62723 0.58510
 C13 C 0.64215 0.64673 0.58522
 H14 H 0.56818 0.64591 0.66097
 H15 H 0.60270 0.68150 0.58994
 H16 H 0.58883 0.60794 0.68168
 H17 H 0.65786 0.57233 0.64477
 H18 H 0.67768 0.59271 0.60569
 H19 H 0.64168 0.66175 0.56945
 C20 C 0.89718 0.37306 0.14585
 C21 C 0.91679 0.35334 0.14549
 C22 C 0.91730 0.33343 0.12518
 C23 C 0.89734 0.33398 0.10514
 C24 C 0.87761 0.35358 0.10531
 C25 C 0.87751 0.37320 0.12571
 C26 C 0.89703 0.39275 0.16606
 C27 C 0.87740 0.41255 0.16649
 C28 C 0.85780 0.41249 0.14633
 C29 C 0.85773 0.39299 0.12597
 C30 C 0.83819 0.39296 0.10587
 C31 C 0.83807 0.37338 0.08547
 C32 C 0.85787 0.35375 0.08538
 H33 H 0.93223 0.35446 0.16059
 H34 H 0.89622 0.31854 0.08985
 H35 H 0.91200 0.39243 0.18173
 H36 H 0.84279 0.42787 0.14627
 H37 H 0.82282 0.40797 0.10631
 H38 H 0.85812 0.33880 0.06952
 C39 C 0.39658 0.12518 -0.14523
 C40 C 0.41644 0.14507 -0.14507
 C41 C 0.41639 0.16551 -0.12556
 C42 C 0.39618 0.16590 -0.10606
 C43 C 0.37623 0.14614 -0.10592
 C44 C 0.37639 0.12572 -0.12562
 C45 C 0.39653 0.10493 -0.16486
 C46 C 0.37651 0.08487 -0.16542
 C47 C 0.35653 0.08573 -0.14541
 C48 C 0.35638 0.10586 -0.12568
 C49 C 0.33649 0.10634 -0.10591
 C50 C 0.33625 0.12651 -0.08611
 C51 C 0.35619 0.14639 -0.08632
 H52 H 0.43181 0.14485 -0.16035
 H53 H 0.39620 0.18141 -0.09075
 H54 H 0.41165 0.10576 -0.18032
 H55 H 0.34149 0.07017 -0.14425
 H56 H 0.32096 0.09117 -0.10613
 H57 H 0.35634 0.16185 -0.07096
 C58 C 0.10319 0.87497 0.35512
 C59 C 0.08326 0.85518 0.35548
 C60 C 0.08349 0.83423 0.37467
 C61 C 0.10437 0.83384 0.39369
 C62 C 0.12424 0.85370 0.39374
 C63 C 0.12371 0.87431 0.37436
 C64 C 0.10303 0.89531 0.33560
 C65 C 0.12307 0.91511 0.33511
 C66 C 0.14327 0.91449 0.35463
 C67 C 0.14371 0.89427 0.37423
 C68 C 0.16386 0.89370 0.39369
 C69 C 0.16437 0.87339 0.41331
 C70 C 0.14452 0.85340 0.41310
 H71 H 0.06825 0.85565 0.33990
 H72 H 0.10475 0.81878 0.40937
 H73 H 0.08754 0.89547 0.32047
 H74 H 0.15854 0.92992 0.35471
 H75 H 0.17932 0.90893 0.39340
 H76 H 0.14461 0.83783 0.42833
 N77 N 0.09369 0.16813 0.11228
 N78 N 0.08265 0.15657 0.13330
 C79 C 0.06116 0.17060 0.14064
 C80 C 0.05851 0.19218 0.12326
 C81 C 0.07962 0.18987 0.10552
 H82 H 0.04838 0.16540 0.15734
 H83 H 0.08455 0.20303 0.08893
 Cu84 Cu 0.09742 0.12431 0.14909
 Cu85 Cu 0.12546 0.15419 0.09521
 Cu86 Cu 0.15290 0.09741 0.12355
 N87 N 0.11352 0.09287 0.16517
 N88 N 0.13512 0.08241 0.15501
 C89 C 0.14199 0.06097 0.16977
 C90 C 0.12374 0.05776 0.19043
 C91 C 0.10596 0.07844 0.18685
 H92 H 0.15920 0.04884 0.16588
 H93 H 0.08868 0.08257 0.19897
 N94 N 0.16800 0.11549 0.09168
 N95 N 0.15756 0.13708 0.08086
 C96 C 0.17226 0.14453 0.05941
 C97 C 0.19303 0.12680 0.05656
 C98 C 0.18963 0.10866 0.07744
 H99 H 0.16823 0.16172 0.04691
 H100 H 0.20184 0.09155 0.08179
 H101 H 0.11980 0.11476 0.10660
 H102 H 0.14026 0.13627 0.12954
 N103 N 0.40502 0.83072 0.61376
 N104 N 0.41534 0.84165 0.63550
 C105 C 0.43680 0.82762 0.64291
 C106 C 0.44012 0.80670 0.62486
 C107 C 0.41950 0.80937 0.60663
 H108 H 0.44897 0.83218 0.66027
 H109 H 0.41541 0.79690 0.58928
 Cu110 Cu 0.39973 0.87315 0.65203
 Cu111 Cu 0.37368 0.84500 0.59619
 Cu112 Cu 0.34617 0.90183 0.62438
 N113 N 0.38440 0.90547 0.66717
 N114 N 0.36349 0.91655 0.65625
 C115 C 0.35697 0.93843 0.67053
 C116 C 0.37477 0.94136 0.69167
 C117 C 0.39192 0.91999 0.68880
 H118 H 0.34049 0.95122 0.66576
 H119 H 0.40859 0.91525 0.70153
 N120 N 0.33148 0.88401 0.59216
 N121 N 0.34197 0.86241 0.58138
 C122 C 0.32754 0.85512 0.55969
 C123 C 0.30690 0.87296 0.55663
 C124 C 0.31010 0.89100 0.57764
 H125 H 0.33163 0.83791 0.54720
 H126 H 0.29788 0.90813 0.58192
 H127 H 0.37971 0.88408 0.60874
 H128 H 0.35762 0.86260 0.63008
 N129 N 0.90478 0.66878 0.38635
 N130 N 0.91661 0.65634 0.36641
 C131 C 0.93872 0.67009 0.35960
 C132 C 0.94076 0.69243 0.37605
 C133 C 0.91882 0.69095 0.39276
 H134 H 0.95215 0.66453 0.34361
 H135 H 0.91367 0.70474 0.40870
 Cu136 Cu 0.90152 0.62380 0.35089
 Cu137 Cu 0.87250 0.65493 0.40307
 Cu138 Cu 0.84570 0.59647 0.37625
 N139 N 0.88604 0.59127 0.33572
 N140 N 0.86422 0.58069 0.34576
 C141 C 0.85760 0.55871 0.33145
 C142 C 0.87623 0.55528 0.31123
 C143 C 0.89400 0.57638 0.31462
 H144 H 0.84023 0.54644 0.33525
 H145 H 0.91143 0.58060 0.30264
 N146 N 0.82989 0.61544 0.40709
 N147 N 0.84004 0.63772 0.41724
 C148 C 0.82504 0.64554 0.43822
 C149 C 0.80437 0.62735 0.44149
 C150 C 0.80813 0.60855 0.42132
 H151 H 0.82888 0.66322 0.45022
 H152 H 0.79615 0.59089 0.41754
 H153 H 0.87843 0.61520 0.39323
 H154 H 0.85827 0.63535 0.36924
 N155 N 0.59561 0.33212 -0.11364
 N156 N 0.58447 0.34388 -0.13438
 C157 C 0.56265 0.32985 -0.14157
 C158 C 0.55998 0.30806 -0.12445
 C159 C 0.58132 0.31019 -0.10698
 H160 H 0.54982 0.33492 -0.15820
 H161 H 0.58598 0.29698 -0.09043
 Cu162 Cu 0.59982 0.37620 -0.15009
 Cu163 Cu 0.62756 0.34626 -0.09654
 Cu164 Cu 0.65509 0.40404 -0.12404
 N165 N 0.61555 0.40852 -0.16544
 N166 N 0.63716 0.41927 -0.15517
 C167 C 0.64392 0.44114 -0.16955
 C168 C 0.62556 0.44439 -0.19007
 C169 C 0.60782 0.42321 -0.18675
 H170 H 0.66101 0.45365 -0.16530
 H171 H 0.59064 0.41870 -0.19898
 N172 N 0.67029 0.38564 -0.09255
 N173 N 0.65982 0.36366 -0.08210
 C174 C 0.67453 0.35609 -0.06083
 C175 C 0.69534 0.37415 -0.05767
 C176 C 0.69196 0.39260 -0.07822
 H177 H 0.67046 0.33862 -0.04862
 H178 H 0.70420 0.41002 -0.08226
 H179 H 0.62197 0.38577 -0.10743
 H180 H 0.64261 0.36501 -0.13047
 C181 C -0.02280 0.27360 0.12438
 C182 C -0.03542 0.28126 0.10044
 C183 C -0.05504 0.30081 0.10065
 C184 C -0.06272 0.31347 0.12491
 C185 C -0.04980 0.30557 0.14889
 C186 C -0.03023 0.28597 0.14858
 C187 C -0.00197 0.25278 0.12410
 C188 C -0.00089 0.23337 0.14456
 C189 C 0.01868 0.21376 0.14430
 C190 C 0.03770 0.21306 0.12356
 C191 C 0.03658 0.23253 0.10311
 C192 C 0.01700 0.25213 0.10338
 H193 H -0.06329 0.30653 0.08141
 H194 H -0.05532 0.31360 0.16832
 H195 H 0.01878 0.19923 0.16044
 H196 H 0.05076 0.23276 0.08677
 H197 H -0.02077 0.28059 0.16739
 H198 H -0.01543 0.23312 0.16062
 H199 H -0.03022 0.27200 0.08143
 H200 H 0.01690 0.26701 0.08751
 C201 C 0.52208 0.72604 0.62529
 C202 C 0.53018 0.71393 0.60110
 C203 C 0.54993 0.69451 0.60116
 C204 C 0.56203 0.68674 0.62541
 C205 C 0.55393 0.69883 0.64960
 C206 C 0.53419 0.71827 0.64954
 C207 C 0.50108 0.74668 0.62522
 C208 C 0.50331 0.76952 0.64167
 C209 C 0.48357 0.78896 0.64157
 C210 C 0.46110 0.78604 0.62501
 C211 C 0.45888 0.76316 0.60857
 C212 C 0.47863 0.74373 0.60868
 H213 H 0.55556 0.68537 0.58223
 H214 H 0.56306 0.69346 0.66857
 H215 H 0.48616 0.80639 0.65429
 H216 H 0.44178 0.76001 0.59577
 H217 H 0.52819 0.72702 0.66854
 H218 H 0.52055 0.77257 0.65434
 H219 H 0.52143 0.71968 0.58206
 H220 H 0.47612 0.72616 0.59608
 C221 C 1.02296 0.77406 0.37522
 C222 C 1.01757 0.79993 0.36589
 C223 C 1.03744 0.81963 0.36550
 C224 C 1.06330 0.81415 0.37484
 C225 C 1.06838 0.78801 0.38437
 C226 C 1.04855 0.76826 0.38435
 C227 C 1.00191 0.75316 0.37543
 C228 C 1.00697 0.72739 0.36542
 C229 C 0.98706 0.70772 0.36544
 C230 C 0.96179 0.71332 0.37583
 C231 C 0.95681 0.73905 0.38602
 C232 C 0.97662 0.75883 0.38565
 H233 H 1.03196 0.83945 0.35884
 H234 H 1.08796 0.78221 0.39089
 H235 H 0.99158 0.68804 0.35763
 H236 H 0.93750 0.74405 0.39398
 H237 H 1.05320 0.74842 0.39167
 H238 H 1.02626 0.72258 0.35726
 H239 H 0.99794 0.80490 0.35872
 H240 H 0.97228 0.77849 0.39365
 C241 C 0.47764 0.22629 -0.12533
 C242 C 0.45096 0.23323 -0.12158
 C243 C 0.43110 0.21351 -0.12159
 C244 C 0.43748 0.18645 -0.12553
 C245 C 0.46414 0.17952 -0.12940
 C246 C 0.48402 0.19923 -0.12922
 C247 C 0.49874 0.24722 -0.12516
 C248 C 0.52272 0.24292 -0.11151
 C249 C 0.54255 0.26267 -0.11122
 C250 C 0.53892 0.28712 -0.12472
 C251 C 0.51495 0.29135 -0.13845
 C252 C 0.49506 0.27166 -0.13859
 H253 H 0.41070 0.21944 -0.11880
 H254 H 0.46965 0.15881 -0.13225
 H255 H 0.56080 0.25862 -0.10060
 H256 H 0.51136 0.30998 -0.14891
 H257 H 0.50438 0.19333 -0.13241
 H258 H 0.52602 0.22437 -0.10076
 H259 H 0.44549 0.25389 -0.11830
 H260 H 0.47687 0.27543 -0.14949
 C261 C 0.12306 -0.02377 0.27369
 C262 C 0.09929 -0.03169 0.28633
 C263 C 0.09929 -0.05145 0.30629
 C264 C 0.12304 -0.06372 0.31408
 C265 C 0.14680 -0.05573 0.30151
 C266 C 0.14681 -0.03599 0.28155
 C267 C 0.12309 -0.00293 0.25232
 C268 C 0.13915 -0.00564 0.22935
 C269 C 0.13933 0.01400 0.20930
 C270 C 0.12342 0.03684 0.21170
 C271 C 0.10727 0.03950 0.23464
 C272 C 0.10712 0.01985 0.25471
 H273 H 0.08070 -0.05698 0.31579
 H274 H 0.16539 -0.06500 0.30685
 H275 H 0.15176 0.01104 0.19181
 H276 H 0.09497 0.05691 0.23736
 H277 H 0.16549 -0.03012 0.27244
 H278 H 0.15134 -0.02317 0.22669
 H279 H 0.08063 -0.02286 0.28053
 H280 H 0.09481 0.02272 0.27234
 C281 C 0.62419 0.52694 -0.27243
 C282 C 0.64770 0.53479 -0.28543
 C283 C 0.64748 0.55446 -0.30546
 C284 C 0.62366 0.56705 -0.31317
 C285 C 0.60012 0.55899 -0.29982
 C286 C 0.60042 0.53926 -0.27985
 C287 C 0.62446 0.50591 -0.25125
 C288 C 0.60429 0.48634 -0.25010
 C289 C 0.60461 0.46645 -0.23028
 C290 C 0.62512 0.46564 -0.21108
 C291 C 0.64525 0.48532 -0.21224
 C292 C 0.64492 0.50519 -0.23208
 H293 H 0.66638 0.56032 -0.31401
 H294 H 0.58104 0.56698 -0.30534
 H295 H 0.58874 0.45175 -0.23020
 H296 H 0.66137 0.48554 -0.19789
 H297 H 0.58195 0.53372 -0.27010
 H298 H 0.58842 0.48614 -0.26480
 H299 H 0.66635 0.52558 -0.28024
 H300 H 0.66056 0.52021 -0.23221
 C301 C 0.37611 1.02394 0.77411
 C302 C 0.39991 1.03648 0.78189
 C303 C 0.40010 1.05643 0.80167
 C304 C 0.37641 1.06449 0.81446
 C305 C 0.35258 1.05159 0.80647
 C306 C 0.35248 1.03171 0.78664
 C307 C 0.37588 1.00287 0.75295
 C308 C 0.35570 1.00202 0.73346
 C309 C 0.35537 0.98215 0.71361
 C310 C 0.37522 0.96259 0.71273
 C311 C 0.39546 0.96351 0.73224
 C312 C 0.39579 0.98341 0.75209
 H313 H 0.41918 1.06465 0.80746
 H314 H 0.33360 1.05740 0.81458
 H315 H 0.33944 0.98226 0.69904
 H316 H 0.41113 0.94890 0.73235
 H317 H 0.33380 1.02231 0.78119
 H318 H 0.34028 1.01695 0.73335
 H319 H 0.41847 1.03100 0.77251
 H320 H 0.41144 0.98333 0.76702
 C321 C 0.87728 0.47293 0.22870
 C322 C 0.85345 0.46078 0.22020
 C323 C 0.85350 0.44119 0.20006
 C324 C 0.87737 0.43329 0.18797
 C325 C 0.90121 0.44540 0.19651
 C326 C 0.90116 0.46500 0.21663
 C327 C 0.87720 0.49389 0.24998
 C328 C 0.89366 0.51666 0.24778
 C329 C 0.89343 0.53650 0.26767
 C330 C 0.87671 0.53406 0.29025
 C331 C 0.86032 0.51121 0.29248
 C332 C 0.86057 0.49137 0.27259
 H333 H 0.83484 0.43204 0.19412
 H334 H 0.91989 0.43993 0.18739
 H335 H 0.90612 0.55389 0.26506
 H336 H 0.84742 0.50843 0.30968
 H337 H 0.91988 0.47377 0.22293
 H338 H 0.90640 0.51939 0.23041
 H339 H 0.83470 0.46665 0.22890
 H340 H 0.84797 0.47386 0.27508
 C341 C 0.27525 0.12704 -0.02520
 C342 C 0.28714 0.10291 -0.03303
 C343 C 0.30689 0.10275 -0.05278
 C344 C 0.31522 0.12672 -0.06515
 C345 C 0.30335 0.15085 -0.05732
 C346 C 0.28357 0.15101 -0.03758
 C347 C 0.25428 0.12716 -0.00418
 C348 C 0.23188 0.14343 -0.00697
 C349 C 0.21206 0.14337 0.01272
 C350 C 0.21416 0.12704 0.03571
 C351 C 0.23665 0.11086 0.03852
 C352 C 0.25645 0.11092 0.01882
 H353 H 0.31585 0.08387 -0.05818
 H354 H 0.30917 0.16961 -0.06666
 H355 H 0.19496 0.15590 0.00967
 H356 H 0.23920 0.09826 0.05604
 H357 H 0.27498 0.16995 -0.03180
 H358 H 0.22945 0.15589 -0.02465
 H359 H 0.28097 0.08407 -0.02408
 H360 H 0.27367 0.09849 0.02178
 C361 C 0.72227 0.62763 0.52337
 C362 C 0.71053 0.60343 0.53191
 C363 C 0.69101 0.60330 0.55190
 C364 C 0.68274 0.62738 0.56379
 C365 C 0.69443 0.65159 0.55520
 C366 C 0.71398 0.65171 0.53524
 C367 C 0.74317 0.62773 0.50227
 C368 C 0.76547 0.64466 0.50458
 C369 C 0.78525 0.64461 0.48485
 C370 C 0.78322 0.62761 0.46231
 C371 C 0.76083 0.61075 0.45997
 C372 C 0.74106 0.61082 0.47971
 H373 H 0.68218 0.58435 0.55788
 H374 H 0.68867 0.67044 0.56417
 H375 H 0.80227 0.65767 0.48756
 H376 H 0.75836 0.59762 0.44279
 H377 H 0.72244 0.67071 0.52890
 H378 H 0.76788 0.65765 0.52192
 H379 H 0.71669 0.58452 0.52337
 H380 H 0.72392 0.59784 0.47713
 C381 C 0.77750 0.37354 0.02414
 C382 C 0.78947 0.39764 0.03265
 C383 C 0.80911 0.39759 0.05252
 C384 C 0.81726 0.37343 0.06430
 C385 C 0.80533 0.34932 0.05574
 C386 C 0.78566 0.34938 0.03590
 C387 C 0.75652 0.37362 0.00312
 C388 C 0.73408 0.35689 0.00552
 C389 C 0.71428 0.35703 -0.01419
 C390 C 0.71644 0.37391 -0.03679
 C391 C 0.73894 0.39061 -0.03918
 C392 C 0.75873 0.39046 -0.01947
 H393 H 0.81812 0.41646 0.05849
 H394 H 0.81099 0.33042 0.06462
 H395 H 0.69717 0.34410 -0.01142
 H396 H 0.74151 0.40366 -0.05640
 H397 H 0.77701 0.33046 0.02957
 H398 H 0.73161 0.34397 0.02289
 H399 H 0.78343 0.41661 0.02418
 H400 H 0.77597 0.40329 -0.02210
 C401 C 0.22541 0.87293 0.47415
 C402 C 0.21343 0.89703 0.46641
 C403 C 0.19372 0.89717 0.44664
 C404 C 0.18550 0.87321 0.43415
 C405 C 0.19751 0.84911 0.44184
 C406 C 0.21726 0.84897 0.46160
 C407 C 0.24625 0.87280 0.49531
 C408 C 0.26871 0.85662 0.49261
 C409 C 0.28836 0.85662 0.51248
 C410 C 0.28600 0.87283 0.53555
 C411 C 0.26346 0.88895 0.53825
 C412 C 0.24384 0.88894 0.51838
 H413 H 0.18465 0.91602 0.44135
 H414 H 0.19179 0.83036 0.43240
 H415 H 0.30551 0.84414 0.50951
 H416 H 0.26072 0.90145 0.55583
 H417 H 0.22593 0.83005 0.46731
 H418 H 0.27133 0.84424 0.47489
 H419 H 0.21948 0.91585 0.47548
 H420 H 0.22656 0.90130 0.52127
   
