data_POSCAR
  _audit_creation_date              2014-09-24
  _audit_creation_method            'ToBaCCo'
  _symmetry_space_group_name_H-M    'P1'
  _symmetry_Int_Tables_number       1
  _symmetry_cell_setting            triclinic
  loop_
  _symmetry_equiv_pos_as_xyz
 x,y,z
_cell_length_a 50.1421
_cell_length_b 50.2344
_cell_length_c 54.1284
_cell_angle_alpha 89.731200
_cell_angle_beta 90.177800
_cell_angle_gamma 120.325000
loop_
  _atom_site_label
  _atom_site_type_symbol
  _atom_site_fract_x
  _atom_site_fract_y
  _atom_site_fract_z
C1 C 0.02778 0.51936 1.30382
 C2 C -0.00095 0.50753 1.31553
 C3 C -0.02909 0.49200 1.30276
 C4 C -0.02850 0.48924 1.27660
 C5 C 0.00027 0.50110 1.26413
 C6 C 0.02849 0.51584 1.27776
 C7 C 0.05618 0.52430 1.26511
 C8 C 0.05663 0.52062 1.23976
 C9 C 0.02938 0.50771 1.22579
 C10 C 0.00080 0.49757 1.23795
 C11 C -0.05567 0.47604 1.26235
 C12 C -0.05515 0.47210 1.23706
 C13 C -0.02722 0.48329 1.22408
 C14 C -0.02637 0.47905 1.19801
 C15 C 0.00231 0.48806 1.18695
 C16 C 0.02996 0.50327 1.20012
 H17 H 0.07794 0.53276 1.27449
 H18 H 0.07866 0.52717 1.23134
 H19 H -0.07804 0.46863 1.27028
 H20 H -0.07739 0.45917 1.22832
 H21 H -0.00139 0.50992 1.33542
 H22 H 0.00367 0.48551 1.16717
 C23 C 0.51005 0.48075 1.19998
 C24 C 0.49281 0.49115 1.18715
 C25 C 0.48022 0.50688 1.19914
 C26 C 0.48324 0.51067 1.22511
 C27 C 0.50020 0.49970 1.23851
 C28 C 0.51414 0.48523 1.22581
 C29 C 0.53158 0.47543 1.23928
 C30 C 0.53485 0.47918 1.26475
 C31 C 0.51960 0.49156 1.27819
 C32 C 0.50311 0.50311 1.26466
 C33 C 0.46900 0.52429 1.23812
 C34 C 0.47211 0.52795 1.26360
 C35 C 0.48938 0.51794 1.27717
 C36 C 0.49265 0.52173 1.30302
 C37 C 0.50895 0.51049 1.31609
 C38 C 0.52163 0.49440 1.30448
 H39 H 0.54311 0.46484 1.23027
 H40 H 0.55029 0.47291 1.27341
 H41 H 0.45483 0.53182 1.22883
 H42 H 0.46049 0.53849 1.27256
 H43 H 0.49037 0.48818 1.16727
 H44 H 0.51015 0.51299 1.33603
 C45 C 0.51170 1.02654 1.19503
 C46 C 0.49902 0.99754 1.18368
 C47 C 0.48467 0.97011 1.19715
 C48 C 0.48283 0.97103 1.22311
 C49 C 0.49488 0.99979 1.23530
 C50 C 0.50879 1.02766 1.22123
 C51 C 0.51636 1.05519 1.23355
 C52 C 0.51297 1.05590 1.25894
 C53 C 0.50188 1.02918 1.27357
 C54 C 0.49167 1.00053 1.26150
 C55 C 0.46870 0.94379 1.23711
 C56 C 0.46519 0.94445 1.26244
 C57 C 0.47697 0.97249 1.27531
 C58 C 0.47202 0.97321 1.30114
 C59 C 0.48088 1.00169 1.31223
 C60 C 0.49767 1.02983 1.29952
 H61 H 0.52322 1.07642 1.22379
 H62 H 0.51742 1.07759 1.26657
 H63 H 0.45946 0.92141 1.22857
 H64 H 0.45170 0.92234 1.27133
 H65 H 0.50056 0.99600 1.16380
 H66 H 0.47758 1.00211 1.33198
 C67 C 1.02715 0.51556 0.80234
 C68 C 0.99825 0.50333 0.81398
 C69 C 0.97059 0.48970 0.80077
 C70 C 0.97115 0.48794 0.77479
 C71 C 0.99982 0.49939 0.76236
 C72 C 1.02792 0.51287 0.77610
 C73 C 1.05527 0.52034 0.76336
 C74 C 1.05563 0.51736 0.73786
 C75 C 1.02865 0.50663 0.72359
 C76 C 1.00020 0.49624 0.73619
 C77 C 0.94370 0.47489 0.76095
 C78 C 0.94406 0.47147 0.73556
 C79 C 0.97195 0.48168 0.72283
 C80 C 0.97219 0.47657 0.69722
 C81 C 1.00021 0.48660 0.68513
 C82 C 1.02875 0.50319 0.69741
 H83 H 1.07666 0.52700 0.77282
 H84 H 1.07721 0.52190 0.72984
 H85 H 0.92150 0.46680 0.76962
 H86 H 0.92204 0.46017 0.72611
 H87 H 0.99699 0.50474 0.83390
 H88 H 0.99955 0.48316 0.66531
 C89 C 0.51424 0.48429 0.69740
 C90 C 0.50015 0.49779 0.68409
 C91 C 0.48731 0.51336 0.69593
 C92 C 0.48845 0.51561 0.72201
 C93 C 0.50245 0.50181 0.73584
 C94 C 0.51537 0.48606 0.72351
 C95 C 0.52870 0.47221 0.73763
 C96 C 0.53034 0.47468 0.76324
 C97 C 0.51816 0.49059 0.77583
 C98 C 0.50390 0.50413 0.76203
 C99 C 0.47693 0.53211 0.73459
 C100 C 0.47840 0.53442 0.76022
 C101 C 0.49148 0.52033 0.77435
 C102 C 0.49351 0.52295 0.80042
 C103 C 0.50865 0.51045 0.81362
 C104 C 0.52051 0.49398 0.80180
 H105 H 0.53809 0.45931 0.72906
 H106 H 0.54154 0.46418 0.77304
 H107 H 0.46706 0.54389 0.72476
 H108 H 0.46971 0.54795 0.76877
 H109 H 0.49942 0.49639 0.66408
 H110 H 0.51022 0.51256 0.83359
 C111 C 0.47978 -0.02750 0.80466
 C112 C 0.49158 0.00132 0.81627
 C113 C 0.50933 0.02902 0.80355
 C114 C 0.51429 0.02866 0.77794
 C115 C 0.50073 0.00010 0.76526
 C116 C 0.48324 -0.02811 0.77849
 C117 C 0.46789 -0.05570 0.76481
 C118 C 0.47142 -0.05592 0.73935
 C119 C 0.48970 -0.02849 0.72617
 C120 C 0.50402 -0.00012 0.73913
 C121 C 0.53158 0.05622 0.76455
 C122 C 0.53512 0.05592 0.73912
 C123 C 0.52089 0.02810 0.72593
 C124 C 0.52316 0.02769 0.69988
 C125 C 0.50944 -0.00053 0.68752
 C126 C 0.49276 -0.02849 0.70019
 H127 H 0.45170 -0.07746 0.77320
 H128 H 0.45886 -0.07787 0.73000
 H129 H 0.54225 0.07846 0.77353
 H130 H 0.54907 0.07786 0.72995
 H131 H 0.48901 0.00251 0.83606
 H132 H 0.51105 -0.00075 0.66754
 O133 O 0.37996 0.65898 0.97845
 O134 O 0.37788 0.70960 0.97237
 C135 C 0.36343 0.72404 0.96928
 O136 O 0.33999 0.71879 0.98205
 O137 O 0.28919 0.66681 0.97275
 C138 C 0.27482 0.63835 0.96751
 O139 O 0.27958 0.61875 0.97854
 O140 O 0.33223 0.62177 0.96895
 C141 C 0.36112 0.63645 0.96518
 O142 O 0.37825 0.66495 1.02774
 O143 O 0.37939 0.71723 1.02170
 C144 C 0.36022 0.72053 1.03471
 O145 O 0.33138 0.70568 1.03077
 O146 O 0.27953 0.65493 1.02181
 C147 C 0.27544 0.63067 1.03276
 O148 O 0.28983 0.61686 1.02704
 O149 O 0.34121 0.61733 1.01767
 C150 C 0.36422 0.63594 1.03075
 Cr151 Cr 0.37721 0.68683 1.00006
 Cr152 Cr 0.31084 0.68571 1.00176
 Cr153 Cr 0.31156 0.62036 0.99810
 O154 O 0.33316 0.66430 1.00001
 O155 O 0.62063 0.34325 0.98032
 O156 O 0.62178 0.29304 0.97093
 C157 C 0.63597 0.27884 0.96604
 O158 O 0.65958 0.28294 0.97796
 O159 O 0.71022 0.33575 0.97106
 C160 C 0.72466 0.36471 0.96776
 O161 O 0.72061 0.38315 0.98113
 O162 O 0.66866 0.38266 0.97474
 C163 C 0.64011 0.36805 0.96951
 O164 O 0.62089 0.33217 1.02912
 O165 O 0.62023 0.28077 1.01959
 C166 C 0.63941 0.27592 1.03135
 O167 O 0.66825 0.29067 1.02723
 O168 O 0.72080 0.34189 1.02000
 C169 C 0.72537 0.36457 1.03330
 O170 O 0.71058 0.37863 1.03047
 O171 O 0.65998 0.38036 1.02396
 C172 C 0.63562 0.36043 1.03498
 Cr173 Cr 0.62263 0.31320 1.00004
 Cr174 Cr 0.68884 0.31365 0.99914
 Cr175 Cr 0.68909 0.37948 1.00249
 O176 O 0.66680 0.33547 1.00055
 O177 O 0.66753 0.37420 0.53117
 O178 O 0.71917 0.37606 0.52130
 C179 C 0.72445 0.35611 0.53101
 O180 O 0.71063 0.32801 0.52459
 O181 O 0.65845 0.27670 0.51702
 C182 C 0.63573 0.27206 0.53054
 O183 O 0.62123 0.28653 0.52783
 O184 O 0.61950 0.33747 0.52238
 C185 C 0.63878 0.36004 0.53532
 O186 O 0.65810 0.37892 0.48252
 O187 O 0.70932 0.37907 0.47275
 C188 C 0.72243 0.36443 0.46579
 O189 O 0.71731 0.33922 0.47554
 O190 O 0.66466 0.28918 0.46788
 C191 C 0.63568 0.27475 0.46486
 O192 O 0.61754 0.27856 0.47869
 O193 O 0.61982 0.33149 0.47308
 C194 C 0.63438 0.36052 0.46996
 Cr195 Cr 0.68765 0.37533 0.50182
 Cr196 Cr 0.68691 0.30913 0.49640
 Cr197 Cr 0.62125 0.30938 0.50046
 O198 O 0.66541 0.33134 0.49956
 O199 O 0.33417 0.62349 0.52735
 O200 O 0.28135 0.62101 0.52041
 C201 C 0.27658 0.63928 0.53320
 O202 O 0.29075 0.66813 0.52961
 O203 O 0.34132 0.72086 0.52249
 C204 C 0.36579 0.72586 0.53357
 O205 O 0.38070 0.71254 0.52795
 O206 O 0.38188 0.66198 0.51907
 C207 C 0.36304 0.63809 0.53125
 O208 O 0.34188 0.62319 0.47815
 O209 O 0.29041 0.62382 0.47154
 C210 C 0.27623 0.63838 0.46761
 O211 O 0.28081 0.66173 0.48009
 O212 O 0.33230 0.71353 0.47348
 C213 C 0.36078 0.72782 0.46815
 O214 O 0.38044 0.72284 0.47888
 O215 O 0.37930 0.67132 0.47015
 C216 C 0.36514 0.64266 0.46577
 Cr217 Cr 0.31286 0.62465 0.49938
 Cr218 Cr 0.31215 0.69017 0.50138
 Cr219 Cr 0.37883 0.69129 0.49906
 O220 O 0.33462 0.66877 0.49987
 C221 C 0.45079 0.55946 0.34614
 N222 N 0.44294 0.52950 0.34878
 N223 N 0.45610 0.51757 0.33484
 C224 C 0.47740 0.53507 0.31755
 N225 N 0.48533 0.56508 0.31484
 N226 N 0.47226 0.57708 0.32892
 C227 C 0.43674 0.57248 0.36224
 N228 N 0.44740 0.60328 0.36267
 N229 N 0.43522 0.61489 0.37812
 C230 C 0.41187 0.59607 0.39359
 N231 N 0.40110 0.56529 0.39297
 N232 N 0.41334 0.55373 0.37764
 C233 C 0.39902 0.60858 0.41140
 N234 N 0.37459 0.58915 0.42567
 N235 N 0.36355 0.60013 0.44265
 C236 C 0.37657 0.63097 0.44608
 N237 N 0.40093 0.65048 0.43172
 N238 N 0.41193 0.63948 0.41465
 C239 C 0.43801 0.89816 0.34838
 N240 N 0.43219 0.92136 0.35244
 N241 N 0.44310 0.94540 0.33712
 C242 C 0.45971 0.94699 0.31677
 N243 N 0.46584 0.92385 0.31302
 N244 N 0.45524 0.89993 0.32850
 C245 C 0.42600 0.87179 0.36539
 N246 N 0.43843 0.85325 0.36610
 N247 N 0.42779 0.82968 0.38195
 C248 C 0.40408 0.82362 0.39741
 N249 N 0.39151 0.84201 0.39654
 N250 N 0.40238 0.86577 0.38092
 C251 C 0.39251 0.79799 0.41514
 N252 N 0.36448 0.78713 0.42593
 N253 N 0.35418 0.76440 0.44250
 C254 C 0.37169 0.75192 0.44910
 N255 N 0.39975 0.76279 0.43833
 N256 N 0.40990 0.78531 0.42153
 C257 C 0.10446 0.55823 0.34942
 N258 N 0.07745 0.53365 0.35693
 N259 N 0.05281 0.52157 0.34223
 C260 C 0.05428 0.53300 0.31913
 N261 N 0.08130 0.55805 0.31185
 N262 N 0.10590 0.57049 0.32672
 C263 C 0.13160 0.57073 0.36563
 N264 N 0.15425 0.60079 0.36421
 N265 N 0.17834 0.61200 0.37957
 C266 C 0.18084 0.59339 0.39658
 N267 N 0.15836 0.56329 0.39777
 N268 N 0.13408 0.55222 0.38269
 C269 C 0.20680 0.60558 0.41399
 N270 N 0.21518 0.58642 0.42474
 N271 N 0.23783 0.59706 0.44141
 C272 C 0.25259 0.62715 0.44820
 N273 N 0.24421 0.64633 0.43745
 N274 N 0.22185 0.63578 0.42051
 C275 C 0.55626 0.45369 0.35130
 N276 N 0.54428 0.44091 0.32902
 N277 N 0.53356 0.45422 0.31371
 C278 C 0.53439 0.48082 0.31996
 N279 N 0.54587 0.49308 0.34256
 N280 N 0.55683 0.47999 0.35779
 C281 C 0.56827 0.43939 0.36832
 N282 N 0.58545 0.45533 0.38815
 N283 N 0.59626 0.44253 0.40383
 C284 C 0.59008 0.41321 0.40040
 N285 N 0.57283 0.39718 0.38060
 N286 N 0.56221 0.41009 0.36477
 C287 C 0.60183 0.39927 0.41804
 N288 N 0.59094 0.36842 0.41811
 N289 N 0.60128 0.35594 0.43462
 C290 C 0.62303 0.37393 0.45148
 N291 N 0.63402 0.40477 0.45125
 N292 N 0.62352 0.41718 0.43491
 C293 C 0.53833 0.10782 0.34335
 N294 N 0.51134 0.08259 0.35007
 N295 N 0.49811 0.05779 0.33569
 C296 C 0.51093 0.05723 0.31373
 N297 N 0.53808 0.08261 0.30712
 N298 N 0.55153 0.10740 0.32162
 C299 C 0.55318 0.13455 0.35988
 N300 N 0.58318 0.15692 0.35676
 N301 N 0.59673 0.18034 0.37262
 C302 C 0.58068 0.18228 0.39202
 N303 N 0.55065 0.16006 0.39494
 N304 N 0.53720 0.13658 0.37925
 C305 C 0.59537 0.20735 0.41009
 N306 N 0.57777 0.21101 0.42718
 N307 N 0.59075 0.23282 0.44432
 C308 C 0.62186 0.25169 0.44515
 N309 N 0.63956 0.24815 0.42801
 N310 N 0.62652 0.22640 0.41072
 C311 C 0.89248 0.45438 0.34632
 N312 N 0.91777 0.48165 0.35229
 N313 N 0.94287 0.49369 0.33812
 C314 C 0.94358 0.47936 0.31706
 N315 N 0.91826 0.45181 0.31135
 N316 N 0.89323 0.43954 0.32569
 C317 C 0.86517 0.44096 0.36234
 N318 N 0.84412 0.41033 0.36155
 N319 N 0.82007 0.39803 0.37691
 C320 C 0.81600 0.41599 0.39338
 N321 N 0.83685 0.44666 0.39396
 N322 N 0.86108 0.45889 0.37881
 C323 C 0.79039 0.40231 0.41112
 N324 N 0.78182 0.42028 0.42344
 N325 N 0.75958 0.40808 0.44044
 C326 C 0.74539 0.37754 0.44591
 N327 N 0.75392 0.35957 0.43354
 N328 N 0.77589 0.37170 0.41635
 C329 C 0.54901 0.44032 1.15664
 N330 N 0.51787 0.42713 1.15852
 N331 N 0.50551 0.43980 1.17258
 C332 C 0.52384 0.46592 1.18550
 N333 N 0.55498 0.47915 1.18361
 N334 N 0.56734 0.46659 1.16942
 C335 C 0.56260 0.42707 1.14028
 N336 N 0.59322 0.44303 1.13490
 N337 N 0.60530 0.43162 1.11921
 C338 C 0.58725 0.40374 1.10846
 N339 N 0.55669 0.38763 1.11404
 N340 N 0.54456 0.39913 1.12961
 C341 C 0.60033 0.39185 1.09030
 N342 N 0.58331 0.36269 1.08147
 N343 N 0.59476 0.35242 1.06420
 C344 C 0.62358 0.37101 1.05503
 N345 N 0.64063 0.40012 1.06395
 N346 N 0.62926 0.41031 1.08132
 C347 C 0.89862 0.44547 1.15060
 N348 N 0.92299 0.44171 1.14557
 N349 N 0.94701 0.45256 1.16091
 C350 C 0.94753 0.46714 1.18219
 N351 N 0.92330 0.47140 1.18681
 N352 N 0.89930 0.46074 1.17141
 C353 C 0.87202 0.43303 1.13377
 N354 N 0.84961 0.44043 1.13644
 N355 N 0.82559 0.42910 1.12100
 C356 C 0.82302 0.40977 1.10250
 N357 N 0.84536 0.40230 1.09993
 N358 N 0.86945 0.41378 1.11524
 C359 C 0.79686 0.39740 1.08522
 N360 N 0.79251 0.37509 1.06895
 N361 N 0.76938 0.36430 1.05275
 C362 C 0.74979 0.37553 1.05211
 N363 N 0.75406 0.39781 1.06843
 N364 N 0.77712 0.40848 1.08476
 C365 C 0.55351 0.10234 1.14845
 N366 N 0.53002 0.07493 1.14044
 N367 N 0.51689 0.05067 1.15551
 C368 C 0.52616 0.05281 1.17942
 N369 N 0.55016 0.08023 1.18723
 N370 N 0.56358 0.10452 1.17206
 C371 C 0.56704 0.12908 1.13176
 N372 N 0.59499 0.15435 1.13650
 N373 N 0.60698 0.17835 1.12100
 C374 C 0.59124 0.17802 1.10040
 N375 N 0.56326 0.15283 1.09581
 N376 N 0.55147 0.12876 1.11112
 C377 C 0.60399 0.20419 1.08314
 N378 N 0.58522 0.20675 1.06639
 N379 N 0.59654 0.22990 1.05019
 C380 C 0.62713 0.25122 1.04996
 N381 N 0.64598 0.24870 1.06671
 N382 N 0.63458 0.22567 1.08311
 C383 C 0.44145 0.54535 1.15267
 N384 N 0.43254 0.51502 1.15103
 N385 N 0.44444 0.50267 1.16612
 C386 C 0.46545 0.52013 1.18360
 N387 N 0.47446 0.55051 1.18518
 N388 N 0.46263 0.56288 1.17002
 C389 C 0.42907 0.55910 1.13542
 N390 N 0.44029 0.59001 1.13516
 N391 N 0.42963 0.60249 1.11898
 C392 C 0.40729 0.58449 1.10253
 N393 N 0.39597 0.55358 1.10289
 N394 N 0.40670 0.54113 1.11900
 C395 C 0.39586 0.59810 1.08428
 N396 N 0.37236 0.57967 1.06888
 N397 N 0.36223 0.59181 1.05197
 C398 C 0.37528 0.62285 1.04976
 N399 N 0.39878 0.64135 1.06520
 N400 N 0.40887 0.62918 1.08218
 C401 C 0.10978 0.54087 1.15653
 N402 N 0.10436 0.55909 1.17166
 N403 N 0.07944 0.54697 1.18608
 C404 C 0.05900 0.51617 1.18587
 N405 N 0.06434 0.49794 1.17067
 N406 N 0.08940 0.51005 1.15638
 C407 C 0.13635 0.55452 1.13967
 N408 N 0.14450 0.53641 1.12705
 N409 N 0.16781 0.54878 1.11098
 C410 C 0.18361 0.57967 1.10677
 N411 N 0.17550 0.59777 1.11943
 N412 N 0.15238 0.58544 1.13565
 C413 C 0.20828 0.59320 1.08817
 N414 N 0.21906 0.62246 1.07995
 N415 N 0.24059 0.63443 1.06241
 C416 C 0.25233 0.61769 1.05258
 N417 N 0.24176 0.58852 1.06096
 N418 N 0.22002 0.57644 1.07836
 C419 C 0.44680 0.88961 1.15470
 N420 N 0.47742 0.91074 1.15349
 N421 N 0.48950 0.93606 1.16732
 C422 C 0.47146 0.94103 1.18306
 N423 N 0.44080 0.91996 1.18423
 N424 N 0.42869 0.89467 1.17032
 C425 C 0.43346 0.86241 1.13863
 N426 N 0.40242 0.84293 1.13755
 N427 N 0.39040 0.81903 1.12212
 C428 C 0.40901 0.81372 1.10729
 N429 N 0.44003 0.83305 1.10854
 N430 N 0.45203 0.85697 1.12390
 C431 C 0.39597 0.78833 1.08940
 N432 N 0.41499 0.78309 1.07507
 N433 N 0.40347 0.76110 1.05799
 C434 C 0.37250 0.74353 1.05455
 N435 N 0.35340 0.74859 1.06899
 N436 N 0.36494 0.77059 1.08614
 C437 C 0.55250 0.44249 0.65483
 N438 N 0.52210 0.43350 0.65285
 N439 N 0.50992 0.44654 0.66665
 C440 C 0.52761 0.46885 0.68315
 N441 N 0.55806 0.47797 0.68510
 N442 N 0.57029 0.46500 0.67119
 C443 C 0.56590 0.42870 0.63889
 N444 N 0.59690 0.44013 0.63823
 N445 N 0.60894 0.42825 0.62293
 C446 C 0.59039 0.40444 0.60784
 N447 N 0.55941 0.39288 0.60868
 N448 N 0.54740 0.40482 0.62388
 C449 C 0.60340 0.39205 0.59008
 N450 N 0.58431 0.36762 0.57577
 N451 N 0.59574 0.35712 0.55873
 C452 C 0.62670 0.37068 0.55528
 N453 N 0.64588 0.39501 0.56972
 N454 N 0.63443 0.40548 0.58685
 C455 C 0.56208 0.10551 0.65379
 N456 N 0.57080 0.08403 0.65194
 N457 N 0.55889 0.05964 0.66696
 C458 C 0.53809 0.05600 0.68458
 N459 N 0.52930 0.07744 0.68638
 N460 N 0.54112 0.10178 0.67129
 C461 C 0.57427 0.13166 0.63649
 N462 N 0.56306 0.15126 0.63636
 N463 N 0.57339 0.17431 0.62004
 C464 C 0.59536 0.17862 0.60331
 N465 N 0.60670 0.15914 0.60356
 N466 N 0.59630 0.13605 0.61981
 C467 C 0.60623 0.20344 0.58483
 N468 N 0.62931 0.20853 0.56903
 N469 N 0.63881 0.23055 0.55188
 C470 C 0.62550 0.24822 0.54982
 N471 N 0.60244 0.24319 0.56565
 N472 N 0.59300 0.22121 0.58288
 C473 C 0.89341 0.43591 0.65224
 N474 N 0.90096 0.46184 0.66523
 N475 N 0.92570 0.47448 0.67990
 C476 C 0.94378 0.46163 0.68210
 N477 N 0.93640 0.43586 0.66895
 N478 N 0.91156 0.42313 0.65438
 C479 C 0.86670 0.42260 0.63548
 N480 N 0.85726 0.39515 0.62420
 N481 N 0.83359 0.38361 0.60842
 C482 C 0.81862 0.39919 0.60327
 N483 N 0.82802 0.42658 0.61461
 N484 N 0.85156 0.43802 0.63047
 C485 C 0.79341 0.38732 0.58510
 N486 N 0.78221 0.40543 0.57710
 N487 N 0.76010 0.39530 0.56001
 C488 C 0.74818 0.36659 0.55039
 N489 N 0.75917 0.34833 0.55853
 N490 N 0.78147 0.35856 0.57553
 C491 C 0.44935 0.55304 0.64997
 N492 N 0.43180 0.53240 0.66770
 N493 N 0.44388 0.51996 0.68255
 C494 C 0.47392 0.52775 0.68019
 N495 N 0.49134 0.54814 0.66232
 N496 N 0.47933 0.56067 0.64756
 C497 C 0.43620 0.56662 0.63333
 N498 N 0.45469 0.58935 0.61732
 N499 N 0.44288 0.60139 0.60183
 C500 C 0.41211 0.59105 0.60171
 N501 N 0.39357 0.56833 0.61775
 N502 N 0.40542 0.55638 0.63333
 C503 C 0.39917 0.60382 0.58405
 N504 N 0.36814 0.59113 0.58153
 N505 N 0.35656 0.60220 0.56488
 C506 C 0.37560 0.62644 0.55023
 N507 N 0.40662 0.63925 0.55289
 N508 N 0.41818 0.62811 0.56945
 C509 C 0.45105 0.89272 0.65576
 N510 N 0.44376 0.91517 0.65318
 N511 N 0.45681 0.93999 0.66756
 C512 C 0.47740 0.94314 0.68526
 N513 N 0.48473 0.92068 0.68793
 N514 N 0.47180 0.89590 0.67339
 C515 C 0.43723 0.86601 0.63915
 N516 N 0.44803 0.84609 0.63824
 N517 N 0.43609 0.82267 0.62232
 C518 C 0.41282 0.81828 0.60687
 N519 N 0.40190 0.83806 0.60796
 N520 N 0.41393 0.86152 0.62374
 C521 C 0.40009 0.79325 0.58865
 N522 N 0.37511 0.78776 0.57497
 N523 N 0.36402 0.76597 0.55773
 C524 C 0.37757 0.74891 0.55340
 N525 N 0.40252 0.75427 0.56714
 N526 N 0.41355 0.77603 0.58450
 C527 C 0.10623 0.54400 0.65270
 N528 N 0.08043 0.51772 0.64570
 N529 N 0.05573 0.50451 0.66029
 C530 C 0.05585 0.51662 0.68275
 N531 N 0.08177 0.54312 0.68960
 N532 N 0.10645 0.55656 0.67489
 C533 C 0.13306 0.55862 0.63615
 N534 N 0.15607 0.58822 0.63962
 N535 N 0.17979 0.60151 0.62394
 C536 C 0.18143 0.58554 0.60438
 N537 N 0.15855 0.55591 0.60108
 N538 N 0.13475 0.54275 0.61659
 C539 C 0.20706 0.59988 0.58666
 N540 N 0.21097 0.58208 0.56998
 N541 N 0.23343 0.59475 0.55326
 C542 C 0.25273 0.62575 0.55244
 N543 N 0.24890 0.64365 0.56915
 N544 N 0.22651 0.63092 0.58604
 C545 C 0.45320 0.56217 0.84366
 N546 N 0.43611 0.54031 0.82665
 N547 N 0.44905 0.52831 0.81246
 C548 C 0.47956 0.53778 0.81476
 N549 N 0.49657 0.55949 0.83189
 N550 N 0.48366 0.57158 0.84598
 C551 C 0.43892 0.57467 0.86004
 N552 N 0.45668 0.59792 0.87581
 N553 N 0.44385 0.60859 0.89142
 C554 C 0.41275 0.59635 0.89192
 N555 N 0.39493 0.57316 0.87607
 N556 N 0.40780 0.56255 0.86037
 C557 C 0.39886 0.60742 0.91004
 N558 N 0.36772 0.59330 0.91286
 N559 N 0.35549 0.60272 0.93019
 C560 C 0.37399 0.62663 0.94524
 N561 N 0.40507 0.64084 0.94222
 N562 N 0.41726 0.63140 0.92499
 C563 C 0.10332 0.55590 0.84859
 N564 N 0.07579 0.53250 0.85657
 N565 N 0.05145 0.51979 0.84158
 C566 C 0.05362 0.52941 0.81776
 N567 N 0.08120 0.55326 0.80996
 N568 N 0.10558 0.56628 0.82505
 C569 C 0.13003 0.56904 0.86531
 N570 N 0.15523 0.59724 0.86110
 N571 N 0.17904 0.60890 0.87678
 C572 C 0.17859 0.59258 0.89703
 N573 N 0.15349 0.56435 0.90108
 N574 N 0.12961 0.55289 0.88560
 C575 C 0.20447 0.60487 0.91456
 N576 N 0.20700 0.58551 0.93069
 N577 N 0.22973 0.59628 0.94723
 C578 C 0.25064 0.62688 0.94848
 N579 N 0.24818 0.64635 0.93236
 N580 N 0.22556 0.63550 0.91558
 C581 C 0.44325 0.89636 0.85099
 N582 N 0.44248 0.92205 0.85729
 N583 N 0.45403 0.94636 0.84222
 C584 C 0.46635 0.94591 0.81996
 N585 N 0.46736 0.92018 0.81391
 N586 N 0.45604 0.89590 0.82907
 C587 C 0.43071 0.86977 0.86785
 N588 N 0.43682 0.84659 0.86447
 N589 N 0.42581 0.82284 0.88016
 C590 C 0.40809 0.82131 0.89966
 N591 N 0.40185 0.84439 0.90292
 N592 N 0.41306 0.86823 0.88737
 C593 C 0.39607 0.79543 0.91722
 N594 N 0.37427 0.79148 0.93396
 N595 N 0.36367 0.76849 0.95030
 C596 C 0.37464 0.74870 0.95065
 N597 N 0.39647 0.75262 0.93390
 N598 N 0.40691 0.77551 0.91741
 C599 C 0.55947 0.45550 0.84788
 N600 N 0.53428 0.43712 0.83389
 N601 N 0.52217 0.44936 0.81888
 C602 C 0.53479 0.48041 0.81739
 N603 N 0.55982 0.49878 0.83151
 N604 N 0.57205 0.48655 0.84638
 C605 C 0.57236 0.44204 0.86490
 N606 N 0.59985 0.46020 0.87629
 N607 N 0.61119 0.44812 0.89222
 C608 C 0.59534 0.41748 0.89747
 N609 N 0.56785 0.39932 0.88606
 N610 N 0.55662 0.41137 0.86999
 C611 C 0.60731 0.40436 0.91567
 N612 N 0.58905 0.37525 0.92436
 N613 N 0.59957 0.36364 0.94143
 C614 C 0.62880 0.38064 0.95031
 N615 N 0.64714 0.40968 0.94147
 N616 N 0.63654 0.42137 0.92453
 C617 C 0.89102 0.45296 0.84463
 N618 N 0.91301 0.48322 0.84620
 N619 N 0.93796 0.49500 0.83185
 C620 C 0.94170 0.47703 0.81520
 N621 N 0.91973 0.44673 0.81363
 N622 N 0.89481 0.43492 0.82806
 C623 C 0.86439 0.43978 0.86140
 N624 N 0.84428 0.40890 0.86206
 N625 N 0.82098 0.39688 0.87814
 C626 C 0.81690 0.41531 0.89409
 N627 N 0.83685 0.44620 0.89327
 N628 N 0.86019 0.45820 0.87726
 C629 C 0.79207 0.40206 0.91255
 N630 N 0.78749 0.42071 0.92786
 N631 N 0.76575 0.40878 0.94524
 C632 C 0.74784 0.37775 0.94800
 N633 N 0.75233 0.35909 0.93262
 N634 N 0.77403 0.37103 0.91519
 C635 C 0.54860 0.10905 0.84659
 N636 N 0.51744 0.09119 0.84443
 N637 N 0.50495 0.06591 0.83051
 C638 C 0.52319 0.05779 0.81803
 N639 N 0.55434 0.07561 0.82020
 N640 N 0.56682 0.10077 0.83425
 C641 C 0.56234 0.13625 0.86269
 N642 N 0.59285 0.15072 0.86846
 N643 N 0.60510 0.17464 0.88384
 C644 C 0.58734 0.18512 0.89387
 N645 N 0.55688 0.17083 0.88791
 N646 N 0.54459 0.14677 0.87266
 C647 C 0.60057 0.21061 0.91166
 N648 N 0.58400 0.22355 0.91952
 N649 N 0.59555 0.24579 0.93646
 C650 C 0.62400 0.25574 0.94626
 N651 N 0.64060 0.24288 0.93832
 N652 N 0.62915 0.22081 0.92126
   
