data_POSCAR
  _audit_creation_date              2014-09-24
  _audit_creation_method            'ToBaCCo'
  _symmetry_space_group_name_H-M    'P1'
  _symmetry_Int_Tables_number       1
  _symmetry_cell_setting            triclinic
  loop_
  _symmetry_equiv_pos_as_xyz
 x,y,z
_cell_length_a 34.8053
_cell_length_b 34.5549
_cell_length_c 34.7486
_cell_angle_alpha 89.920100
_cell_angle_beta 89.952400
_cell_angle_gamma 89.932900
loop_
  _atom_site_label
  _atom_site_type_symbol
  _atom_site_fract_x
  _atom_site_fract_y
  _atom_site_fract_z
C1 C 0.18878 1.23650 0.18975
 C2 C 0.22204 1.21988 0.17407
 C3 C 0.23765 1.18629 0.19043
 C4 C 0.22009 1.16935 0.22260
 C5 C 0.18683 1.18593 0.23836
 C6 C 0.17124 1.21955 0.22195
 H7 H 0.23531 1.23252 0.14873
 H8 H 0.23185 1.14294 0.23477
 H9 H 0.14510 1.23201 0.23370
 C10 C 0.81355 0.76035 0.18840
 C11 C 0.78094 0.77681 0.17123
 C12 C 0.76332 0.80920 0.18790
 C13 C 0.77821 0.82505 0.22184
 C14 C 0.81078 0.80863 0.23905
 C15 C 0.82839 0.77625 0.22237
 H16 H 0.76983 0.76509 0.14452
 H17 H 0.76506 0.85060 0.23430
 H18 H 0.85407 0.76410 0.23533
 C19 C 0.81018 1.24137 -0.18744
 C20 C 0.82613 1.22551 -0.22097
 C21 C 0.80885 1.19343 -0.23845
 C22 C 0.77554 1.17729 -0.22250
 C23 C 0.75956 1.19309 -0.18901
 C24 C 0.77683 1.22517 -0.17153
 H25 H 0.85236 1.23747 -0.23297
 H26 H 0.76260 1.15199 -0.23560
 H27 H 0.76481 1.23688 -0.14517
 C28 C 0.18947 0.76058 -0.19011
 C29 C 0.17240 0.77802 -0.22232
 C30 C 0.18834 0.81169 -0.23815
 C31 C 0.22144 0.82786 -0.22187
 C32 C 0.23853 0.81050 -0.18970
 C33 C 0.22260 0.77683 -0.17387
 H34 H 0.14636 0.76596 -0.23454
 H35 H 0.23335 0.85433 -0.23368
 H36 H 0.23550 0.76385 -0.14852
 C37 C 0.55834 1.05373 -0.01255
 H38 H 0.55969 1.05306 0.01855
 C39 C 0.58422 1.07644 -0.03330
 H40 H 0.60561 1.09303 -0.01789
 C41 C 0.52996 1.03118 -0.07027
 H42 H 0.50926 1.01294 -0.08458
 C43 C 0.55536 1.05344 -0.09219
 H44 H 0.55340 1.05266 -0.12327
 N45 N 0.53184 1.03180 -0.03117
 C46 C 0.44245 1.01025 0.05412
 H47 H 0.44200 0.97894 0.05384
 C48 C 0.41607 1.03060 0.07662
 H49 H 0.39521 1.01466 0.09347
 C50 C 0.46898 1.06887 0.03073
 H51 H 0.48912 1.08369 0.01223
 C52 C 0.44308 1.09039 0.05278
 H53 H 0.44414 1.12168 0.05157
 Zn54 Zn 0.50032 0.99957 -0.00049
 N55 N 0.46822 1.02953 0.03181
 C56 C 0.53343 0.96866 0.06801
 N57 N 0.53367 0.96798 0.02887
 C58 C 0.55984 0.94656 0.00912
 C59 C 0.58718 0.92457 0.02873
 C60 C 0.56032 0.94707 0.08882
 C61 C 0.44082 0.98797 -0.05288
 C62 C 0.41439 0.96728 -0.07490
 C63 C 0.44344 0.90786 -0.05249
 C64 C 0.46938 0.92971 -0.03091
 N65 N 0.46770 0.96904 -0.03161
 H66 H 0.51303 0.98662 0.08318
 H67 H 0.55969 0.94698 -0.02201
 H68 H 0.60764 0.90759 0.01242
 H69 H 0.56029 0.94868 0.11994
 H70 H 0.43966 1.01925 -0.05229
 H71 H 0.39276 0.98293 -0.09104
 H72 H 0.44530 0.87659 -0.05171
 H73 H 0.49040 0.91516 -0.01319
 C74 C 0.41595 1.07124 0.07591
 C75 C 0.58310 1.07632 -0.07370
 C76 C 0.41535 0.92665 -0.07476
 C77 C 0.58790 0.92490 0.06915
 C78 C -0.00630 0.55967 1.05241
 H79 H 0.02478 0.55976 1.05204
 C80 C -0.02617 0.58708 1.07416
 H81 H -0.01011 0.60784 1.09099
 C82 C -0.06483 0.53254 1.03052
 H83 H -0.07977 0.51184 1.01274
 C84 C -0.08588 0.55947 1.05187
 H85 H -0.11694 0.55915 1.05027
 N86 N -0.02575 0.53307 1.03125
 C87 C 0.05654 0.43983 1.01249
 H88 H 0.05606 0.43848 0.98139
 C89 C 0.07843 0.41327 1.03337
 H90 H 0.09459 0.39136 1.01806
 C91 C 0.03429 0.46889 1.07009
 H92 H 0.01647 0.49012 1.08431
 C93 C 0.05574 0.44284 1.09213
 H94 H 0.05477 0.44483 1.12320
 Zn95 Zn 0.00384 0.49937 1.00024
 N96 N 0.03514 0.46698 1.03100
 C97 C 0.07325 0.52950 0.96873
 N98 N 0.03420 0.53096 0.96779
 C99 C 0.01542 0.55723 0.94551
 C100 C 0.03598 0.58342 0.92290
 C101 C 0.09497 0.55521 0.94658
 C102 C -0.05024 0.44081 0.99078
 C103 C -0.07266 0.41382 0.97119
 C104 C -0.04931 0.44003 0.91108
 C105 C -0.02730 0.46657 0.93185
 N106 N -0.02821 0.46649 0.97099
 H107 H 0.08766 0.50897 0.98723
 H108 H -0.01564 0.55825 0.94591
 H109 H 0.02045 0.60470 0.90609
 H110 H 0.12601 0.55363 0.94769
 H111 H -0.04999 0.44106 1.02191
 H112 H -0.09014 0.39375 0.98752
 H113 H -0.04754 0.43992 0.87997
 H114 H -0.00887 0.48654 0.91666
 C115 C 0.07803 0.41439 1.07377
 C116 C -0.06653 0.58741 1.07386
 C117 C -0.07215 0.41297 0.93078
 C118 C 0.07633 0.58284 0.92346
 C119 C 1.04991 -0.00872 0.55902
 H120 H 1.04995 0.02259 0.55835
 C121 C 1.07209 -0.02838 0.58617
 H122 H 1.08967 -0.01195 0.60595
 C123 C 1.02647 -0.06797 0.53413
 H124 H 1.00792 -0.08325 0.51444
 C125 C 1.04822 -0.08883 0.56085
 H126 H 1.04615 -0.12009 0.56138
 N127 N 1.02774 -0.02863 0.53369
 C128 C 1.00660 0.05265 0.44007
 H129 H 0.97551 0.05267 0.44002
 C130 C 1.02665 0.07393 0.41247
 H131 H 1.01073 0.09082 0.39160
 C132 C 1.06493 0.03018 0.46728
 H133 H 1.07971 0.01233 0.48808
 C134 C 1.08616 0.05105 0.44016
 H135 H 1.11721 0.04904 0.44045
 Zn136 Zn 0.99599 0.00080 0.50058
 N137 N 1.02586 0.03141 0.46678
 C138 C 0.96588 0.07154 0.53013
 N139 N 0.96481 0.03225 0.53236
 C140 C 0.94317 0.01395 0.55939
 C141 C 0.92122 0.03525 0.58547
 C142 C 0.94439 0.09401 0.55572
 C143 C 0.98415 -0.05467 0.44370
 C144 C 0.96351 -0.07741 0.41781
 C145 C 0.90461 -0.05262 0.44523
 C146 C 0.92642 -0.03037 0.47065
 N147 N 0.96546 -0.03180 0.46944
 H148 H 0.98389 0.08558 0.50900
 H149 H 0.94347 -0.01732 0.56100
 H150 H 0.90484 0.02009 0.60727
 H151 H 0.94552 0.12524 0.55348
 H152 H 1.01523 -0.05464 0.44286
 H153 H 0.97899 -0.09468 0.39695
 H154 H 0.87357 -0.05110 0.44658
 H155 H 0.91208 -0.01139 0.49074
 C156 C 1.06700 0.07307 0.41207
 C157 C 1.07118 -0.06900 0.58756
 C158 C 0.92317 -0.07634 0.41815
 C159 C 0.92181 0.07587 0.58399
 C160 C 0.13842 0.32648 1.13724
 C161 C 0.10228 0.33913 1.14964
 C162 C 0.08295 0.36825 1.12946
 C163 C 0.17231 0.26778 1.17245
 C164 C 0.13618 0.37259 1.08464
 C165 C 0.15546 0.34347 1.10489
 C166 C 0.15718 0.29490 1.15667
 C167 C 0.09953 0.38507 1.09649
 H168 H 0.08872 0.32600 1.17451
 H169 H 0.05457 0.37680 1.13900
 H170 H 0.14989 0.38529 1.05966
 H171 H 0.18343 0.33387 1.09502
 C172 C -0.12955 0.67504 1.13503
 C173 C -0.09558 0.68450 1.11568
 C174 C -0.07503 0.65597 1.09598
 C175 C -0.16781 0.73053 1.17081
 C176 C -0.12239 0.60823 1.11497
 C177 C -0.14291 0.63685 1.13470
 C178 C -0.15071 0.70482 1.15477
 C179 C -0.08820 0.61749 1.09535
 H180 H -0.08507 0.71400 1.11560
 H181 H -0.04919 0.66419 1.08066
 H182 H -0.13305 0.57880 1.11534
 H183 H -0.16918 0.62922 1.14964
 C184 C -0.13495 0.32606 0.86866
 C185 C -0.13357 0.36405 0.85469
 C186 C -0.11332 0.39245 0.87493
 C187 C -0.17169 0.27097 0.83094
 C188 C -0.09594 0.34489 0.92323
 C189 C -0.11615 0.31660 0.90297
 C190 C -0.15519 0.29649 0.84780
 C191 C -0.09424 0.38316 0.90944
 H192 H -0.14807 0.37169 0.82817
 H193 H -0.11287 0.42172 0.86378
 H194 H -0.08105 0.33664 0.94933
 H195 H -0.11688 0.28724 0.91395
 C196 C 0.13848 0.67048 0.86146
 C197 C 0.15089 0.65872 0.89794
 C198 C 0.13117 0.62965 0.91777
 C199 C 0.17267 0.72924 0.82672
 C200 C 0.08684 0.62354 0.86437
 C201 C 0.10662 0.65262 0.84458
 C202 C 0.15735 0.70209 0.84220
 C203 C 0.09867 0.61198 0.90137
 H204 H 0.17538 0.67253 0.91137
 H205 H 0.14068 0.62183 0.94641
 H206 H 0.06221 0.61018 0.85079
 H207 H 0.09675 0.66152 0.81636
 C208 C 1.13036 0.13273 0.32383
 C209 C 1.09620 0.11351 0.31481
 C210 C 1.07557 0.09427 0.34352
 C211 C 1.16841 0.16823 0.26817
 C212 C 1.12325 0.11340 0.39059
 C213 C 1.14385 0.13269 0.36177
 C214 C 1.15145 0.15224 0.29393
 C215 C 1.08884 0.09398 0.38176
 H216 H 1.08558 0.11324 0.28551
 H217 H 1.04956 0.07907 0.33565
 H218 H 1.13399 0.11403 0.41981
 H219 H 1.17025 0.14754 0.36908
 C220 C 1.13314 -0.13126 0.67502
 C221 C 1.11464 -0.09644 0.68391
 C222 C 1.09471 -0.07614 0.65543
 C223 C 1.16943 -0.16899 0.73040
 C224 C 1.11175 -0.12542 0.60885
 C225 C 1.13173 -0.14570 0.63743
 C226 C 1.15313 -0.15214 0.70476
 C227 C 1.09299 -0.09040 0.61756
 H228 H 1.11541 -0.08509 0.71295
 H229 H 1.08005 -0.04963 0.66323
 H230 H 1.11128 -0.13694 0.57989
 H231 H 1.14599 -0.17262 0.63024
 C232 C 0.86113 -0.13858 0.33109
 C233 C 0.89260 -0.15583 0.34938
 C234 C 0.91230 -0.13598 0.37831
 C235 C 0.82768 -0.17344 0.27232
 C236 C 0.86861 -0.08176 0.37123
 C237 C 0.84898 -0.10166 0.34230
 C238 C 0.84256 -0.15785 0.29950
 C239 C 0.90078 -0.09852 0.38927
 H240 H 0.90227 -0.18439 0.34089
 H241 H 0.93666 -0.14984 0.39197
 H242 H 0.85935 -0.05278 0.37861
 H243 H 0.82480 -0.08793 0.32815
 C244 C 0.86094 0.14030 0.67050
 C245 C 0.84389 0.10787 0.65357
 C246 C 0.86332 0.08735 0.62487
 C247 C 0.82665 0.17554 0.72867
 C248 C 0.91670 0.13209 0.62945
 C249 C 0.89723 0.15255 0.65817
 C250 C 0.84203 0.15985 0.70178
 C251 C 0.90013 0.09899 0.61276
 H252 H 0.81581 0.09812 0.66292
 H253 H 0.84961 0.06229 0.61224
 H254 H 0.94520 0.14148 0.62115
 H255 H 0.91079 0.17747 0.67126
 C256 C 0.32844 1.13321 0.13789
 C257 C 0.33984 1.14569 0.10131
 C258 C 0.36877 1.12597 0.08145
 C259 C 0.27037 1.16798 0.17279
 C260 C 0.37540 1.08142 0.13498
 C261 C 0.34645 1.10121 0.15480
 C262 C 0.29718 1.15230 0.15727
 C263 C 0.38668 1.09339 0.09792
 H264 H 0.32591 1.17029 0.08785
 H265 H 0.37636 1.13558 0.05277
 H266 H 0.38894 1.05673 0.14861
 H267 H 0.33783 1.09129 0.18311
 C268 C 0.66910 1.13941 -0.13661
 C269 C 0.65176 1.15598 -0.10423
 C270 C 0.62324 1.13583 -0.08418
 C271 C 0.72688 1.17489 -0.17121
 C272 C 0.62882 1.08267 -0.12930
 C273 C 0.65735 1.10287 -0.14928
 C274 C 0.70017 1.15903 -0.15574
 C275 C 0.61171 1.09876 -0.09627
 H276 H 0.66066 1.18424 -0.09416
 H277 H 0.61028 1.14918 -0.05916
 H278 H 0.62098 1.05400 -0.13903
 H279 H 0.67076 1.08967 -0.17417
 C280 C 0.32871 0.86360 -0.13651
 C281 C 0.34083 0.85080 -0.10028
 C282 C 0.36950 0.87088 -0.08047
 C283 C 0.27105 0.82854 -0.17156
 C284 C 0.37440 0.91640 -0.13339
 C285 C 0.34574 0.89626 -0.15314
 C286 C 0.29768 0.84422 -0.15585
 C287 C 0.38638 0.90414 -0.09666
 H288 H 0.32767 0.82569 -0.08704
 H289 H 0.37769 0.86101 -0.05205
 H290 H 0.38717 0.94160 -0.14681
 H291 H 0.33655 0.90642 -0.18118
 C292 C 0.67584 0.86355 0.13121
 C293 C 0.68475 0.88298 0.09702
 C294 C 0.65613 0.90274 0.07680
 C295 C 0.73158 0.82771 0.16874
 C296 C 0.60935 0.88366 0.12492
 C297 C 0.63808 0.86387 0.14512
 C298 C 0.70574 0.84376 0.15200
 C299 C 0.61808 0.90334 0.09051
 H300 H 0.71392 0.88307 0.08609
 H301 H 0.66394 0.91812 0.05078
 H302 H 0.58027 0.88328 0.13600
 H303 H 0.63087 0.84888 0.17155
   
