data_POSCAR
  _audit_creation_date              2014-09-24
  _audit_creation_method            'ToBaCCo'
  _symmetry_space_group_name_H-M    'P1'
  _symmetry_Int_Tables_number       1
  _symmetry_cell_setting            triclinic
  loop_
  _symmetry_equiv_pos_as_xyz
 x,y,z
_cell_length_a 45.2783
_cell_length_b 45.0304
_cell_length_c 45.3006
_cell_angle_alpha 89.973200
_cell_angle_beta 90.231600
_cell_angle_gamma 90.169900
loop_
  _atom_site_label
  _atom_site_type_symbol
  _atom_site_fract_x
  _atom_site_fract_y
  _atom_site_fract_z
C1 C 0.19109 1.22976 0.18676
 C2 C 0.21643 1.21689 0.17414
 C3 C 0.23000 1.19201 0.18681
 C4 C 0.21842 1.17985 0.21280
 C5 C 0.19315 1.19195 0.22633
 C6 C 0.17993 1.21704 0.21299
 H7 H 0.22667 1.22677 0.15496
 H8 H 0.22967 1.16109 0.22253
 H9 H 0.15914 1.22493 0.22150
 C10 C 0.81068 0.77341 0.19266
 C11 C 0.78506 0.78652 0.18043
 C12 C 0.77309 0.81270 0.19218
 C13 C 0.78665 0.82591 0.21677
 C14 C 0.81203 0.81349 0.22948
 C15 C 0.82375 0.78732 0.21749
 H16 H 0.77530 0.77773 0.16043
 H17 H 0.77723 0.84580 0.22626
 H18 H 0.84294 0.77777 0.22806
 C19 C 0.80893 1.22599 -0.19346
 C20 C 0.82177 1.21254 -0.21851
 C21 C 0.80977 1.18664 -0.23104
 C22 C 0.78434 1.17404 -0.21866
 C23 C 0.77102 1.18679 -0.19386
 C24 C 0.78327 1.21270 -0.18156
 H25 H 0.84101 1.22224 -0.22881
 H26 H 0.77471 1.15435 -0.22856
 H27 H 0.77369 1.22110 -0.16141
 C28 C 0.18602 0.76944 -0.18683
 C29 C 0.17467 0.78279 -0.21272
 C30 C 0.18816 0.80784 -0.22537
 C31 C 0.21371 0.81963 -0.21225
 C32 C 0.22568 0.80685 -0.18666
 C33 C 0.21191 0.78180 -0.17426
 H34 H 0.15589 0.77317 -0.22406
 H35 H 0.22365 0.83954 -0.22132
 H36 H 0.22099 0.77291 -0.15401
 C37 C 0.52384 1.05250 -0.02429
 H38 H 0.50815 1.06370 -0.01031
 C39 C 0.54345 1.06924 -0.04130
 H40 H 0.54223 1.09324 -0.04066
 C41 C 0.54494 1.00776 -0.04173
 H42 H 0.54563 0.98375 -0.04134
 C43 C 0.56492 1.02360 -0.05910
 H44 H 0.58108 1.01157 -0.07191
 N45 N 0.52485 1.02232 -0.02491
 C46 C 0.47692 1.02275 0.05279
 H47 H 0.49283 1.00878 0.06386
 C48 C 0.45742 1.03980 0.06949
 H49 H 0.45894 1.03920 0.09334
 C50 C 0.45517 1.04013 0.00839
 H51 H 0.45419 1.03971 -0.01548
 C52 C 0.43529 1.05753 0.02420
 H53 H 0.41891 1.07033 0.01229
 Zn54 Zn 0.50014 0.99895 -0.00054
 N55 N 0.47554 1.02333 0.02279
 C56 C 0.54565 0.99024 0.04017
 N57 N 0.52518 0.97562 0.02358
 C58 C 0.52402 0.94544 0.02303
 C59 C 0.54386 0.92875 0.03988
 C60 C 0.56586 0.97445 0.05737
 C61 C 0.47576 0.97521 -0.05361
 C62 C 0.45579 0.95824 -0.07012
 C63 C 0.43443 0.94044 -0.02462
 C64 C 0.45477 0.95776 -0.00900
 N65 N 0.47497 0.97457 -0.02360
 H66 H 0.54645 1.01425 0.03973
 H67 H 0.50802 0.93420 0.00922
 H68 H 0.54250 0.90475 0.03930
 H69 H 0.58230 0.98653 0.07000
 H70 H 0.49155 0.98919 -0.06484
 H71 H 0.45685 0.95892 -0.09399
 H72 H 0.41819 0.92765 -0.01255
 H73 H 0.45426 0.95813 0.01487
 C74 C 0.43617 1.05743 0.05519
 C75 C 0.56443 1.05479 -0.05894
 C76 C 0.43468 0.94063 -0.05562
 C77 C 0.56521 0.94326 0.05729
 C78 C -0.01702 0.54283 1.04408
 H79 H 0.00687 0.54352 1.04399
 C80 C -0.03278 0.56267 1.06161
 H81 H -0.02079 0.57871 1.07487
 C82 C -0.06152 0.52201 1.02559
 H83 H -0.07263 0.50652 1.01110
 C84 C -0.07817 0.54150 1.04275
 H85 H -0.10204 0.54038 1.04171
 N86 N -0.03150 0.52299 1.02661
 C87 C 0.03292 0.45356 1.00905
 H88 H 0.03271 0.45387 0.98517
 C89 C 0.05020 0.43283 1.02408
 H90 H 0.06363 0.41752 1.01157
 C91 C 0.01544 0.47317 1.05424
 H92 H 0.00135 0.48848 1.06589
 C93 C 0.03240 0.45279 1.07018
 H94 H 0.03118 0.45268 1.09405
 Zn95 Zn -0.00816 0.49893 1.00174
 N96 N 0.01610 0.47325 1.02422
 C97 C 0.04507 0.52406 0.97932
 N98 N 0.01505 0.52492 0.97855
 C99 C 0.00047 0.54573 0.96239
 C100 C 0.01614 0.56664 0.94591
 C101 C 0.06163 0.54458 0.96315
 C102 C -0.04900 0.45361 0.99110
 C103 C -0.06580 0.43362 0.97449
 C104 C -0.04764 0.45697 0.93007
 C105 C -0.03119 0.47655 0.94755
 N106 N -0.03221 0.47458 0.97749
 H107 H 0.05626 0.50787 0.99290
 H108 H -0.02342 0.54615 0.96250
 H109 H 0.00409 0.58284 0.93299
 H110 H 0.08550 0.54390 0.96446
 H111 H -0.04892 0.45216 1.01494
 H112 H -0.07851 0.41669 0.98577
 H113 H -0.04662 0.45893 0.90628
 H114 H -0.01724 0.49293 0.93711
 C115 C 0.04996 0.43215 1.05508
 C116 C -0.06379 0.56231 1.06096
 C117 C -0.06511 0.43501 0.94352
 C118 C 0.04716 0.56634 0.94626
 C119 C 1.04883 -0.00745 0.54491
 H120 H 1.04862 0.01653 0.54629
 C121 C 1.06553 -0.02393 0.56500
 H122 H 1.07802 -0.01240 0.58192
 C123 C 1.03144 -0.05151 0.52203
 H124 H 1.01768 -0.06220 0.50564
 C125 C 1.04780 -0.06887 0.54171
 H126 H 1.04689 -0.09282 0.53983
 N127 N 1.03228 -0.02138 0.52394
 C128 C 1.01745 0.04538 0.45579
 H129 H 0.99357 0.04521 0.45494
 C130 C 1.03339 0.06293 0.43603
 H131 H 1.02156 0.07611 0.41990
 C132 C 1.06176 0.02703 0.47690
 H133 H 1.07273 0.01256 0.49245
 C134 C 1.07859 0.04421 0.45751
 H135 H 1.10245 0.04322 0.45879
 Zn136 Zn 1.00831 0.00276 0.49952
 N137 N 1.03175 0.02793 0.47570
 C138 C 0.98436 0.05533 0.52496
 N139 N 0.98389 0.02513 0.52488
 C140 C 0.96714 0.00963 0.54443
 C141 C 0.94980 0.02450 0.56503
 C142 C 0.96732 0.07113 0.54522
 C143 C 0.99986 -0.03703 0.45304
 C144 C 0.98423 -0.05373 0.43223
 C145 C 0.93870 -0.03660 0.45393
 C146 C 0.95522 -0.02020 0.47434
 N147 N 0.98524 -0.02082 0.47362
 H148 H 0.99838 0.06724 0.50974
 H149 H 0.96749 -0.01439 0.54412
 H150 H 0.93646 0.01171 0.58024
 H151 H 0.96842 0.09515 0.54536
 H152 H 1.02375 -0.03678 0.45272
 H153 H 0.99630 -0.06668 0.41620
 H154 H 0.91483 -0.03539 0.45449
 H155 H 0.94399 -0.00657 0.49034
 C156 C 1.06440 0.06231 0.43657
 C157 C 1.06499 -0.05509 0.56369
 C158 C 0.95321 -0.05355 0.43240
 C159 C 0.94989 0.05568 0.56575
 C160 C 0.14657 0.30176 1.14519
 C161 C 0.16386 0.28244 1.12853
 C162 C 0.17878 0.25901 1.14216
 C163 C 0.17668 0.25423 1.17298
 C164 C 0.15930 0.27434 1.18947
 C165 C 0.14446 0.29777 1.17568
 C166 C 0.13039 0.32511 1.13074
 C167 C 0.11665 0.34421 1.11812
 C168 C 0.10002 0.36642 1.10245
 C169 C 0.09856 0.39555 1.11313
 C170 C 0.08231 0.41699 1.09776
 C171 C 0.06735 0.40954 1.07147
 C172 C 0.06897 0.38018 1.06098
 C173 C 0.08519 0.35881 1.07637
 H174 H 0.16541 0.28516 1.10481
 H175 H 0.19067 0.24393 1.12799
 H176 H 0.15771 0.27278 1.21324
 H177 H 0.13127 0.31277 1.18885
 H178 H 0.11001 0.40169 1.13327
 H179 H 0.08174 0.43946 1.10622
 H180 H 0.05733 0.37362 1.04109
 H181 H 0.08608 0.33631 1.06797
 C182 C -0.15100 0.69718 1.15276
 C183 C -0.13351 0.71667 1.16927
 C184 C -0.14608 0.74151 1.18270
 C185 C -0.17663 0.74756 1.17984
 C186 C -0.19399 0.72726 1.16329
 C187 C -0.18126 0.70242 1.14994
 C188 C -0.13763 0.67236 1.13801
 C189 C -0.12594 0.65201 1.12536
 C190 C -0.11144 0.62827 1.10993
 C191 C -0.08698 0.61420 1.12264
 C192 C -0.07180 0.59233 1.10697
 C193 C -0.08089 0.58427 1.07831
 C194 C -0.10584 0.59819 1.06595
 C195 C -0.12097 0.62007 1.08166
 H196 H -0.10995 0.71297 1.17134
 H197 H -0.13122 0.75657 1.19396
 H198 H -0.21764 0.72978 1.16122
 H199 H -0.19508 0.68732 1.13735
 H200 H -0.07941 0.62039 1.14451
 H201 H -0.05292 0.58177 1.11722
 H202 H -0.11315 0.59279 1.04380
 H203 H -0.13977 0.63095 1.07155
 C204 C -0.15193 0.30122 0.84822
 C205 C -0.13467 0.28205 0.83137
 C206 C -0.14751 0.25755 0.81734
 C207 C -0.17811 0.25154 0.81994
 C208 C -0.19522 0.27153 0.83683
 C209 C -0.18223 0.29602 0.85078
 C210 C -0.13829 0.32568 0.86358
 C211 C -0.12644 0.34575 0.87669
 C212 C -0.11175 0.36920 0.89263
 C213 C -0.08370 0.37877 0.88385
 C214 C -0.06874 0.40052 0.90011
 C215 C -0.08164 0.41297 0.92545
 C216 C -0.11003 0.40348 0.93386
 C217 C -0.12497 0.38172 0.91755
 H218 H -0.11108 0.28571 0.82949
 H219 H -0.13283 0.24269 0.80582
 H220 H -0.21889 0.26905 0.83873
 H221 H -0.19587 0.31089 0.86363
 H222 H -0.07320 0.36910 0.86469
 H223 H -0.04676 0.40702 0.89330
 H224 H -0.12069 0.41288 0.95305
 H225 H -0.14668 0.37447 0.92454
 C226 C 0.14184 0.69716 0.85471
 C227 C 0.17225 0.70092 0.85852
 C228 C 0.18692 0.72442 0.84463
 C229 C 0.17144 0.74483 0.82654
 C230 C 0.14069 0.74026 0.82272
 C231 C 0.12617 0.71676 0.83668
 C232 C 0.12646 0.67376 0.86995
 C233 C 0.11312 0.65461 0.88293
 C234 C 0.09667 0.63231 0.89866
 C235 C 0.10632 0.60281 0.89917
 C236 C 0.09023 0.58129 0.91460
 C237 C 0.06425 0.58903 0.92969
 C238 C 0.05478 0.61876 0.92902
 C239 C 0.07089 0.64021 0.91361
 H240 H 0.18466 0.68570 0.87229
 H241 H 0.21060 0.72576 0.84754
 H242 H 0.12721 0.75557 0.81020
 H243 H 0.10252 0.71422 0.83382
 H244 H 0.12622 0.59645 0.88762
 H245 H 0.09791 0.55854 0.91445
 H246 H 0.03515 0.62554 0.94078
 H247 H 0.06328 0.66301 0.91345
 C248 C 1.15447 0.15202 0.30216
 C249 C 1.17150 0.13504 0.28292
 C250 C 1.18454 0.14815 0.25821
 C251 C 1.18074 0.17874 0.25205
 C252 C 1.16370 0.19558 0.27211
 C253 C 1.15075 0.18232 0.29681
 C254 C 1.14012 0.13804 0.32684
 C255 C 1.12784 0.12583 0.34707
 C256 C 1.11288 0.11067 0.37068
 C257 C 1.12211 0.08233 0.37932
 C258 C 1.10668 0.06683 0.40114
 C259 C 1.08174 0.07948 0.41458
 C260 C 1.07291 0.10818 0.40606
 C261 C 1.08839 0.12365 0.38423
 H262 H 1.17429 0.11144 0.28670
 H263 H 1.19626 0.13364 0.24333
 H264 H 1.16093 0.21928 0.26947
 H265 H 1.13775 0.19575 0.31173
 H266 H 1.14093 0.07199 0.36884
 H267 H 1.11378 0.04462 0.40687
 H268 H 1.05402 0.11865 0.41624
 H269 H 1.08106 0.14558 0.37770
 C270 C 1.14977 -0.14928 0.69886
 C271 C 1.13170 -0.16007 0.72146
 C272 C 1.14418 -0.17420 0.74594
 C273 C 1.17497 -0.17776 0.74818
 C274 C 1.19297 -0.16698 0.72527
 C275 C 1.18042 -0.15283 0.70076
 C276 C 1.13674 -0.13407 0.67411
 C277 C 1.12527 -0.12114 0.65380
 C278 C 1.11094 -0.10545 0.63008
 C279 C 1.08307 -0.11466 0.62017
 C280 C 1.06836 -0.09860 0.59821
 C281 C 1.08133 -0.07302 0.58589
 C282 C 1.10956 -0.06420 0.59569
 C283 C 1.12424 -0.08032 0.61766
 H284 H 1.10796 -0.15730 0.72028
 H285 H 1.12977 -0.18185 0.76341
 H286 H 1.21672 -0.16966 0.72623
 H287 H 1.19462 -0.14457 0.68338
 H288 H 1.07250 -0.13398 0.62976
 H289 H 1.04649 -0.10572 0.59147
 H290 H 1.12026 -0.04482 0.58639
 H291 H 1.14581 -0.07299 0.62518
 C292 C 0.85661 -0.14335 0.30170
 C293 C 0.84548 -0.12661 0.27816
 C294 C 0.83067 -0.14062 0.25488
 C295 C 0.82683 -0.17164 0.25481
 C296 C 0.83784 -0.18827 0.27873
 C297 C 0.85264 -0.17419 0.30202
 C298 C 0.87275 -0.12888 0.32507
 C299 C 0.88657 -0.11640 0.34421
 C300 C 0.90341 -0.10110 0.36654
 C301 C 0.92938 -0.08614 0.35881
 C302 C 0.94564 -0.07083 0.38024
 C303 C 0.93613 -0.07027 0.40977
 C304 C 0.91002 -0.08546 0.41736
 C305 C 0.89379 -0.10078 0.39586
 H306 H 0.84854 -0.10274 0.27763
 H307 H 0.82279 -0.12726 0.23660
 H308 H 0.83490 -0.21213 0.27947
 H309 H 0.86115 -0.18736 0.32016
 H310 H 0.93696 -0.08613 0.33615
 H311 H 0.96537 -0.05900 0.37360
 H312 H 0.90230 -0.08570 0.43995
 H313 H 0.87373 -0.11233 0.40208
 C314 C 0.85377 0.14456 0.69625
 C315 C 0.85013 0.17542 0.69644
 C316 C 0.83552 0.18916 0.71988
 C317 C 0.82438 0.17216 0.74345
 C318 C 0.82790 0.14114 0.74287
 C319 C 0.84251 0.12747 0.71944
 C320 C 0.86969 0.13036 0.67276
 C321 C 0.88331 0.11793 0.65361
 C322 C 0.89987 0.10246 0.63138
 C323 C 0.91487 0.07639 0.63881
 C324 C 0.93108 0.06120 0.61747
 C325 C 0.93251 0.07188 0.58831
 C326 C 0.91739 0.09817 0.58104
 C327 C 0.90115 0.11335 0.60246
 H328 H 0.85874 0.18886 0.67858
 H329 H 0.83283 0.21305 0.71954
 H330 H 0.81994 0.12750 0.76087
 H331 H 0.84533 0.10358 0.71959
 H332 H 0.91413 0.06784 0.66116
 H333 H 0.94286 0.04131 0.62391
 H334 H 0.91783 0.10679 0.55873
 H335 H 0.88957 0.13350 0.59646
 C336 C 0.30432 1.15060 0.14493
 C337 C 0.30430 1.15472 0.17556
 C338 C 0.28031 1.16848 0.18923
 C339 C 0.25602 1.17827 0.17240
 C340 C 0.25641 1.17426 0.14160
 C341 C 0.28039 1.16051 0.12799
 C342 C 0.32846 1.13558 0.13084
 C343 C 0.34826 1.12269 0.11863
 C344 C 0.37137 1.10697 0.10360
 C345 C 0.37993 1.07876 0.11332
 C346 C 0.40134 1.06284 0.09787
 C347 C 0.41445 1.07491 0.07241
 C348 C 0.40599 1.10347 0.06307
 C349 C 0.38458 1.11937 0.07857
 H350 H 0.32273 1.14716 0.18887
 H351 H 0.28080 1.17159 0.21293
 H352 H 0.23788 1.18121 0.12810
 H353 H 0.28012 1.15731 0.10429
 H354 H 0.36972 1.06889 0.13257
 H355 H 0.40707 1.04076 0.10539
 H356 H 0.41593 1.11352 0.04378
 H357 H 0.37812 1.14119 0.07085
 C358 C 0.69671 1.14479 -0.15206
 C359 C 0.69739 1.17569 -0.15540
 C360 C 0.72139 1.18939 -0.16926
 C361 C 0.74503 1.17231 -0.17995
 C362 C 0.74399 1.14124 -0.17667
 C363 C 0.72000 1.12761 -0.16282
 C364 C 0.67254 1.13065 -0.13698
 C365 C 0.65271 1.11839 -0.12408
 C366 C 0.62954 1.10330 -0.10836
 C367 C 0.62126 1.11303 -0.08027
 C368 C 0.59975 1.09755 -0.06437
 C369 C 0.58627 1.07204 -0.07637
 C370 C 0.59447 1.06268 -0.10481
 C371 C 0.61598 1.07822 -0.12068
 H372 H 0.67947 1.18919 -0.14714
 H373 H 0.72144 1.21331 -0.17172
 H374 H 0.76204 1.12752 -0.18426
 H375 H 0.71977 1.10369 -0.16022
 H376 H 0.63174 1.13233 -0.07046
 H377 H 0.59423 1.10508 -0.04239
 H378 H 0.58425 1.04336 -0.11480
 H379 H 0.62222 1.07049 -0.14241
 C380 C 0.30055 0.84814 -0.14462
 C381 C 0.30003 0.84450 -0.17531
 C382 C 0.27583 0.83080 -0.18899
 C383 C 0.25183 0.82056 -0.17212
 C384 C 0.25268 0.82416 -0.14128
 C385 C 0.27688 0.83785 -0.12765
 C386 C 0.32495 0.86307 -0.13052
 C387 C 0.34501 0.87587 -0.11836
 C388 C 0.36848 0.89150 -0.10346
 C389 C 0.37710 0.91971 -0.11316
 C390 C 0.39896 0.93551 -0.09789
 C391 C 0.41245 0.92330 -0.07263
 C392 C 0.40388 0.89474 -0.06328
 C393 C 0.38204 0.87897 -0.07860
 H394 H 0.31824 0.85240 -0.18865
 H395 H 0.27590 0.82811 -0.21275
 H396 H 0.23435 0.81697 -0.12774
 H397 H 0.27698 0.84071 -0.10390
 H398 H 0.36664 0.92968 -0.13228
 H399 H 0.40475 0.95759 -0.10541
 H400 H 0.41410 0.88459 -0.04415
 H401 H 0.37552 0.85714 -0.07090
 C402 C 0.69861 0.85399 0.14982
 C403 C 0.69915 0.82315 0.15365
 C404 C 0.72324 0.80968 0.16765
 C405 C 0.74710 0.82693 0.17798
 C406 C 0.74622 0.85794 0.17415
 C407 C 0.72214 0.87133 0.16017
 C408 C 0.67427 0.86791 0.13475
 C409 C 0.65428 0.88003 0.12191
 C410 C 0.63091 0.89500 0.10632
 C411 C 0.62214 0.88517 0.07832
 C412 C 0.60043 0.90057 0.06255
 C413 C 0.58725 0.92609 0.07459
 C414 C 0.59594 0.93554 0.10294
 C415 C 0.61764 0.92009 0.11867
 H416 H 0.68103 0.80951 0.14573
 H417 H 0.72315 0.78581 0.17054
 H418 H 0.76443 0.87178 0.18145
 H419 H 0.72202 0.89521 0.15718
 H420 H 0.63239 0.86587 0.06849
 H421 H 0.59452 0.89296 0.04064
 H422 H 0.58595 0.95487 0.11296
 H423 H 0.62426 0.92789 0.14034
   
