data_POSCAR
  _audit_creation_date              2014-09-24
  _audit_creation_method            'ToBaCCo'
  _symmetry_space_group_name_H-M    'P1'
  _symmetry_Int_Tables_number       1
  _symmetry_cell_setting            triclinic
  loop_
  _symmetry_equiv_pos_as_xyz
 x,y,z
_cell_length_a 43.8921
_cell_length_b 19.8752
_cell_length_c 13.8269
_cell_angle_alpha 88.998800
_cell_angle_beta 90.017500
_cell_angle_gamma 90.385500
loop_
  _atom_site_label
  _atom_site_type_symbol
  _atom_site_fract_x
  _atom_site_fract_y
  _atom_site_fract_z
C1 C 0.71804 0.21399 0.55282
 C2 C 0.71839 0.20598 0.45066
 C3 C 0.74504 0.18480 0.40479
 C4 C 0.77214 0.17516 0.45692
 C5 C 0.77309 0.19350 0.55636
 C6 C 0.74573 0.20888 0.60371
 H7 H 0.74617 0.21925 0.68036
 H8 H 0.74451 0.17570 0.32772
 C9 C 0.21782 0.72176 0.55436
 C10 C 0.21875 0.72069 0.45236
 C11 C 0.24573 0.70337 0.40567
 C12 C 0.27203 0.68676 0.45832
 C13 C 0.27172 0.68931 0.56155
 C14 C 0.24403 0.70515 0.60755
 H15 H 0.24316 0.70926 0.68555
 H16 H 0.24596 0.70075 0.32738
 C17 C 0.27342 0.30289 -0.54886
 C18 C 0.27648 0.30299 -0.44742
 C19 C 0.25210 0.28126 -0.38925
 C20 C 0.22432 0.25942 -0.42982
 C21 C 0.22218 0.25500 -0.53311
 C22 C 0.24644 0.27969 -0.59051
 H23 H 0.24541 0.27633 -0.66865
 H24 H 0.25442 0.28577 -0.31160
 C25 C -0.22472 0.80377 -0.56252
 C26 C -0.22647 0.80760 -0.46107
 C27 C -0.25244 0.78283 -0.41324
 C28 C -0.27684 0.75374 -0.46473
 C29 C -0.27595 0.75455 -0.56858
 C30 C -0.24920 0.77786 -0.61486
 H31 H -0.24770 0.77952 -0.69310
 H32 H -0.25265 0.78251 -0.33481
 N33 N -0.02584 0.92697 0.16764
 N34 N -0.04975 0.91883 0.22423
 N35 N 0.03787 0.88918 0.08912
 N36 N 0.06247 0.85115 0.09434
 N37 N 0.03812 0.93373 0.15826
 N38 N 0.06294 0.92803 0.21126
 N39 N -0.02620 0.88278 0.09809
 N40 N -0.05029 0.84278 0.10642
 C41 C -0.06457 0.86588 0.18596
 C42 C 0.07776 0.87618 0.17114
 N43 N 0.03273 0.95037 -0.18223
 N44 N 0.05521 0.94845 -0.24530
 N45 N -0.02962 0.89361 -0.11069
 N46 N -0.05357 0.85343 -0.11996
 N47 N -0.03129 0.94447 -0.17241
 N48 N -0.05641 0.94065 -0.22437
 N49 N 0.03457 0.89985 -0.12002
 N50 N 0.05835 0.86200 -0.13956
 Mn51 Mn 0.00419 0.89027 -0.01100
 C52 C 0.07100 0.89302 -0.21808
 C53 C -0.07004 0.88353 -0.19147
 N54 N 0.03574 1.07742 0.17071
 N55 N 0.06071 1.08264 0.22327
 N56 N -0.03024 1.12064 0.11668
 N57 N -0.05683 1.15092 0.12347
 N58 N -0.02848 1.07071 0.17980
 N59 N -0.05376 1.06613 0.23137
 N60 N 0.03404 1.12730 0.10765
 N61 N 0.05783 1.16781 0.11540
 Mn62 Mn 0.00493 1.00213 0.17023
 C63 C 0.07421 1.13945 0.18822
 C64 C -0.07114 1.11689 0.19605
 N65 N -0.03327 1.08850 -0.16094
 N66 N -0.05882 1.09293 -0.21066
 N67 N 0.03110 1.13757 -0.09941
 N68 N 0.05371 1.18118 -0.11131
 N69 N 0.03044 1.09474 -0.17063
 N70 N 0.05223 1.10848 -0.23369
 N71 N -0.03320 1.13118 -0.08956
 N72 N -0.05894 1.16517 -0.08789
 Mn73 Mn -0.00033 1.01949 -0.17263
 Mn74 Mn 0.00046 1.13006 0.00900
 Cl75 Cl 0.00235 1.01040 -0.00115
 C76 C -0.07439 1.14120 -0.16457
 C77 C 0.06652 1.16230 -0.19556
 N78 N 0.46977 0.42791 0.17043
 N79 N 0.44475 0.42183 0.22251
 N80 N 0.53549 0.38557 0.11713
 N81 N 0.56005 0.34885 0.13287
 N82 N 0.53376 0.43389 0.18041
 N83 N 0.55702 0.43159 0.24049
 N84 N 0.47142 0.37965 0.10705
 N85 N 0.44771 0.33853 0.11566
 C86 C 0.43137 0.36577 0.18815
 C87 C 0.57317 0.37818 0.21042
 N88 N 0.53969 0.43039 -0.15874
 N89 N 0.56439 0.42470 -0.21234
 N90 N 0.47481 0.37836 -0.10197
 N91 N 0.45014 0.34040 -0.11074
 N92 N 0.47565 0.42496 -0.17054
 N93 N 0.45158 0.42028 -0.22699
 N94 N 0.53892 0.38342 -0.09077
 N95 N 0.56304 0.34429 -0.09643
 Mn96 Mn 0.50513 0.38072 0.00784
 C97 C 0.57860 0.37076 -0.17265
 C98 C 0.43602 0.36700 -0.18966
 N99 N 0.53117 0.57856 0.17477
 N100 N 0.55284 0.59010 0.23860
 N101 N 0.46711 0.61757 0.09575
 N102 N 0.44151 0.65229 0.09949
 N103 N 0.46752 0.57121 0.16447
 N104 N 0.44245 0.57283 0.21635
 N105 N 0.53145 0.62487 0.10590
 N106 N 0.55366 0.66879 0.12018
 Mn107 Mn 0.50063 0.50283 0.17347
 C108 C 0.56664 0.64636 0.20338
 C109 C 0.42644 0.62366 0.17566
 N110 N 0.47345 0.56924 -0.17823
 N111 N 0.45114 0.57353 -0.24196
 N112 N 0.53511 0.62300 -0.10156
 N113 N 0.55900 0.66374 -0.10730
 N114 N 0.53730 0.57505 -0.16528
 N115 N 0.56257 0.58189 -0.21602
 N116 N 0.47079 0.61587 -0.11270
 N117 N 0.44636 0.65280 -0.12950
 Mn118 Mn 0.50661 0.49985 -0.16930
 Mn119 Mn 0.50104 0.62137 -0.00328
 Cl120 Cl 0.50336 0.50123 0.00214
 C121 C 0.43451 0.62579 -0.21062
 C122 C 0.57586 0.63755 -0.17950
 C123 C 0.30090 0.38727 0.34742
 C124 C 0.29910 0.32205 0.38732
 C125 C 0.32256 0.27609 0.37061
 C126 C 0.34845 0.29612 0.31771
 C127 C 0.35099 0.36332 0.28303
 C128 C 0.32682 0.40800 0.29621
 C129 C 0.37798 0.38507 0.23793
 C130 C 0.40202 0.34009 0.22431
 C131 C 0.39870 0.27253 0.25331
 C132 C 0.37217 0.25078 0.30084
 H133 H 0.32088 0.22545 0.40070
 H134 H 0.32816 0.45916 0.26818
 H135 H 0.38051 0.43722 0.21467
 H136 H 0.37046 0.19897 0.32602
 H137 H 0.28274 0.42282 0.35927
 H138 H 0.41718 0.23749 0.24336
 C139 C -0.19213 0.89413 0.36400
 C140 C -0.19722 0.82566 0.38418
 C141 C -0.17615 0.77781 0.35335
 C142 C -0.14929 0.79860 0.30631
 C143 C -0.14349 0.86810 0.29143
 C144 C -0.16530 0.91530 0.31857
 C145 C -0.11583 0.88931 0.25053
 C146 C -0.09425 0.84204 0.22164
 C147 C -0.10070 0.77311 0.23158
 C148 C -0.12795 0.75143 0.27484
 H149 H -0.18052 0.72476 0.36732
 H150 H -0.16157 0.96843 0.30462
 H151 H -0.11100 0.94265 0.24145
 H152 H -0.13218 0.69798 0.28468
 H153 H -0.20877 0.93122 0.38461
 H154 H -0.08418 0.73623 0.20927
 C155 C 0.70234 0.70319 0.28515
 C156 C 0.69849 0.73717 0.37318
 C157 C 0.66855 0.75314 0.40190
 C158 C 0.64324 0.73009 0.34998
 C159 C 0.64758 0.69426 0.26378
 C160 C 0.67720 0.68231 0.23104
 C161 C 0.62222 0.66946 0.21337
 C162 C 0.59279 0.67837 0.25011
 C163 C 0.58859 0.71389 0.33563
 C164 C 0.61363 0.74050 0.38461
 H165 H 0.66479 0.78289 0.46566
 H166 H 0.68095 0.65483 0.16514
 H167 H 0.62536 0.64114 0.14781
 H168 H 0.60991 0.76745 0.45099
 H169 H 0.72476 0.68930 0.26012
 H170 H 0.56593 0.72049 0.36481
 C171 C 0.18588 1.16056 0.45819
 C172 C 0.19784 1.22153 0.42010
 C173 C 0.18446 1.24961 0.33607
 C174 C 0.15813 1.22076 0.29632
 C175 C 0.14560 1.16147 0.33840
 C176 C 0.16003 1.13098 0.41793
 C177 C 0.11849 1.13440 0.30152
 C178 C 0.10347 1.16636 0.22384
 C179 C 0.11636 1.22460 0.18134
 C180 C 0.14352 1.25148 0.21709
 H181 H 0.19317 1.29654 0.30555
 H182 H 0.15098 1.08497 0.45024
 H183 H 0.10881 1.08923 0.33455
 H184 H 0.15282 1.29692 0.18381
 H185 H 0.19642 1.13598 0.52009
 H186 H 0.10530 1.24981 0.12094
 C187 C 0.66316 0.19743 -0.42021
 C188 C 0.69090 0.22949 -0.39682
 C189 C 0.69071 0.27938 -0.32541
 C190 C 0.66320 0.30005 -0.28383
 C191 C 0.63553 0.26850 -0.31036
 C192 C 0.63585 0.21651 -0.37728
 C193 C 0.60792 0.29060 -0.27123
 C194 C 0.60764 0.34477 -0.20781
 C195 C 0.63505 0.37597 -0.18157
 C196 C 0.66272 0.35340 -0.21863
 H197 H 0.71158 0.30571 -0.30712
 H198 H 0.61490 0.19140 -0.39784
 H199 H 0.58659 0.26703 -0.29197
 H200 H 0.68366 0.37847 -0.19784
 H201 H 0.66259 0.15708 -0.47184
 H202 H 0.63498 0.41811 -0.13290
 C203 C 0.17683 0.70220 -0.32193
 C204 C 0.19031 0.74393 -0.39306
 C205 C 0.17786 0.80756 -0.41288
 C206 C 0.15160 0.82854 -0.36472
 C207 C 0.13799 0.78614 -0.29357
 C208 C 0.15087 0.72313 -0.27245
 C209 C 0.11175 0.80751 -0.24502
 C210 C 0.09879 0.87033 -0.26773
 C211 C 0.11248 0.91178 -0.33898
 C212 C 0.13872 0.89123 -0.38676
 H213 H 0.18872 0.84082 -0.46555
 H214 H 0.14079 0.68996 -0.21811
 H215 H 0.10131 0.77510 -0.19037
 H216 H 0.14884 0.92423 -0.44127
 H217 H 0.18632 0.65318 -0.30532
 H218 H 0.10296 0.96045 -0.35759
 C219 C 0.29638 0.64330 -0.29143
 C220 C 0.29823 0.67825 -0.38110
 C221 C 0.32713 0.70167 -0.41207
 C222 C 0.35360 0.68547 -0.36016
 C223 C 0.35137 0.64861 -0.27216
 C224 C 0.32261 0.62874 -0.23772
 C225 C 0.37798 0.63131 -0.22119
 C226 C 0.40666 0.64914 -0.25877
 C227 C 0.40873 0.68546 -0.34625
 C228 C 0.38236 0.70432 -0.39610
 H229 H 0.32920 0.73294 -0.47666
 H230 H 0.32046 0.60039 -0.17039
 H231 H 0.37650 0.60236 -0.15413
 H232 H 0.38448 0.73217 -0.46387
 H233 H 0.27480 0.62404 -0.26457
 H234 H 0.43080 0.69884 -0.37620
 C235 C -0.17419 1.23424 -0.44299
 C236 C -0.19891 1.20284 -0.39461
 C237 C -0.19451 1.17822 -0.29941
 C238 C -0.16510 1.17673 -0.25923
 C239 C -0.14011 1.20195 -0.31376
 C240 C -0.14505 1.23295 -0.40367
 C241 C -0.11041 1.19318 -0.27949
 C242 C -0.10537 1.16039 -0.19088
 C243 C -0.13010 1.13906 -0.13375
 C244 C -0.15989 1.14699 -0.16790
 H245 H -0.21324 1.15480 -0.26002
 H246 H -0.12626 1.25424 -0.44508
 H247 H -0.09113 1.20950 -0.32325
 H248 H -0.17870 1.12771 -0.12466
 H249 H -0.17721 1.25794 -0.51344
 H250 H -0.12627 1.11334 -0.06512
 C251 C 0.68937 0.65603 -0.44142
 C252 C 0.70002 0.71950 -0.41173
 C253 C 0.68609 0.74949 -0.33140
 C254 C 0.66001 0.72015 -0.28885
 C255 C 0.64858 0.65857 -0.32388
 C256 C 0.66392 0.62601 -0.39816
 C257 C 0.62152 0.63130 -0.28595
 C258 C 0.60534 0.66505 -0.21403
 C259 C 0.61722 0.72531 -0.17758
 C260 C 0.64439 0.75261 -0.21456
 H261 H 0.69396 0.79817 -0.30703
 H262 H 0.65575 0.57818 -0.42472
 H263 H 0.61271 0.58446 -0.31413
 H264 H 0.65281 0.79979 -0.18656
 H265 H 0.70045 0.63009 -0.49988
 H266 H 0.60525 0.75193 -0.12163
 C267 C 0.20258 1.21576 -0.27615
 C268 C 0.19895 1.24747 -0.36759
 C269 C 0.16925 1.26582 -0.39664
 C270 C 0.14375 1.24532 -0.34273
 C271 C 0.14771 1.21061 -0.25365
 C272 C 0.17724 1.19785 -0.21972
 C273 C 0.12208 1.18699 -0.20220
 C274 C 0.09283 1.19553 -0.24115
 C275 C 0.08905 1.23039 -0.32917
 C276 C 0.11431 1.25625 -0.37890
 H277 H 0.16581 1.29442 -0.46314
 H278 H 0.18072 1.17143 -0.15144
 H279 H 0.12490 1.15905 -0.13475
 H280 H 0.11092 1.28235 -0.44748
 H281 H 0.22485 1.20080 -0.25035
 H282 H 0.06654 1.23665 -0.36006
 C283 C 0.31554 0.39253 -0.41727
 C284 C 0.30488 0.32658 -0.40067
 C285 C 0.32161 0.28261 -0.34080
 C286 C 0.34944 0.30349 -0.30089
 C287 C 0.36061 0.36909 -0.32155
 C288 C 0.34333 0.41349 -0.37880
 C289 C 0.38892 0.38918 -0.28484
 C290 C 0.40610 0.34507 -0.22638
 C291 C 0.39451 0.28070 -0.20389
 C292 C 0.36647 0.25984 -0.24149
 H293 H 0.31322 0.23190 -0.32708
 H294 H 0.35134 0.46429 -0.39408
 H295 H 0.39749 0.43937 -0.30139
 H296 H 0.35818 0.20955 -0.22447
 H297 H 0.30240 0.42769 -0.46067
 H298 H 0.40739 0.24615 -0.15862
 C299 C -0.19366 0.90238 -0.40449
 C300 C -0.20044 0.83330 -0.40403
 C301 C -0.18121 0.78826 -0.35440
 C302 C -0.15458 0.81177 -0.30927
 C303 C -0.14712 0.88108 -0.31458
 C304 C -0.16707 0.92612 -0.36087
 C305 C -0.11963 0.90407 -0.27476
 C306 C -0.09964 0.85898 -0.22815
 C307 C -0.10778 0.79072 -0.21972
 C308 C -0.13492 0.76716 -0.26067
 H309 H -0.18657 0.73492 -0.35353
 H310 H -0.16191 0.97951 -0.36443
 H311 H -0.11372 0.95706 -0.28043
 H312 H -0.14037 0.71397 -0.25532
 H313 H -0.20865 0.93779 -0.44068
 H314 H -0.09272 0.75526 -0.18385
 C315 C 0.31113 0.59847 0.42835
 C316 C 0.29843 0.66109 0.40344
 C317 C 0.31208 0.70112 0.33044
 C318 C 0.33935 0.68078 0.28716
 C319 C 0.35278 0.61932 0.31661
 C320 C 0.33828 0.57806 0.38603
 C321 C 0.38087 0.60079 0.27791
 C322 C 0.39593 0.64272 0.21009
 C323 C 0.38206 0.70265 0.17876
 C324 C 0.35396 0.72166 0.21723
 H325 H 0.30223 0.74935 0.31085
 H326 H 0.34826 0.53072 0.40915
 H327 H 0.39121 0.55401 0.30192
 H328 H 0.34394 0.76882 0.19358
 H329 H 0.30060 0.56663 0.48344
 H330 H 0.39325 0.73547 0.12627
 C331 C -0.18459 1.09782 0.45939
 C332 C -0.20230 1.14673 0.41064
 C333 C -0.19209 1.17209 0.32042
 C334 C -0.16302 1.15536 0.28602
 C335 C -0.14472 1.10957 0.33922
 C336 C -0.15613 1.07952 0.42416
 C337 C -0.11498 1.09608 0.30827
 C338 C -0.10290 1.12915 0.22615
 C339 C -0.12138 1.17374 0.17275
 C340 C -0.15125 1.18637 0.20201
 H341 H -0.20526 1.20993 0.28186
 H342 H -0.14264 1.04350 0.46507
 H343 H -0.10098 1.06125 0.34966
 H344 H -0.16489 1.22161 0.16022
 H345 H -0.19236 1.07546 0.52711
 H346 H -0.11269 1.19910 0.10840
 C347 C 0.67898 0.18685 0.32153
 C348 C 0.69275 0.22937 0.38901
 C349 C 0.68152 0.29466 0.40059
 C350 C 0.65556 0.31592 0.35058
 C351 C 0.64118 0.27243 0.28451
 C352 C 0.65338 0.20833 0.26932
 C353 C 0.61457 0.29343 0.23656
 C354 C 0.60194 0.35660 0.25590
 C355 C 0.61663 0.39938 0.32123
 C356 C 0.64331 0.37943 0.36767
 H357 H 0.69250 0.32811 0.45124
 H358 H 0.64274 0.17434 0.21883
 H359 H 0.60331 0.26010 0.18641
 H360 H 0.65408 0.41321 0.41824
 H361 H 0.68753 0.13649 0.31133
 H362 H 0.60742 0.44845 0.33673
 C363 C 0.16710 0.69027 0.39017
 C364 C 0.19156 0.73596 0.39307
 C365 C 0.18954 0.79781 0.34326
 C366 C 0.16264 0.81547 0.29460
 C367 C 0.13799 0.76921 0.29169
 C368 C 0.14063 0.70638 0.33874
 C369 C 0.11074 0.78771 0.24517
 C370 C 0.10751 0.85278 0.20583
 C371 C 0.13193 0.89848 0.20968
 C372 C 0.15951 0.87960 0.25213
 H373 H 0.20839 0.83327 0.34651
 H374 H 0.12193 0.67051 0.33794
 H375 H 0.09156 0.75305 0.24416
 H376 H 0.17803 0.91587 0.25457
 H377 H 0.16847 0.64242 0.42858
 H378 H 0.12948 0.94916 0.18069
   
