data_POSCAR
  _audit_creation_date              2014-09-24
  _audit_creation_method            'ToBaCCo'
  _symmetry_space_group_name_H-M    'P1'
  _symmetry_Int_Tables_number       1
  _symmetry_cell_setting            triclinic
  loop_
  _symmetry_equiv_pos_as_xyz
 x,y,z
_cell_length_a 42.4684
_cell_length_b 42.6470
_cell_length_c 42.8084
_cell_angle_alpha 89.970100
_cell_angle_beta 89.916000
_cell_angle_gamma 89.916600
loop_
  _atom_site_label
  _atom_site_type_symbol
  _atom_site_fract_x
  _atom_site_fract_y
  _atom_site_fract_z
N1 N 0.28590 0.22387 0.19777
 N2 N 0.27329 0.24967 0.18646
 C3 C 0.28966 0.25869 0.16103
 C4 C 0.31348 0.23719 0.15602
 C5 C 0.31039 0.21533 0.17964
 H6 H 0.28501 0.27953 0.14739
 H7 H 0.32562 0.19547 0.18403
 Cu8 Cu 0.23713 0.26928 0.20643
 Cu9 Cu 0.27166 0.20497 0.23678
 Cu10 Cu 0.20891 0.24133 0.27412
 N11 N 0.20097 0.28847 0.22688
 N12 N 0.19079 0.27803 0.25397
 C13 C 0.16654 0.29594 0.26361
 C14 C 0.16104 0.31858 0.24121
 C15 C 0.18324 0.31320 0.21818
 H16 H 0.15366 0.29262 0.28518
 H17 H 0.18646 0.32667 0.19701
 N18 N 0.23012 0.20387 0.29081
 N19 N 0.25383 0.18976 0.27657
 C20 C 0.26297 0.16492 0.29387
 C21 C 0.24397 0.16340 0.32005
 C22 C 0.22347 0.18836 0.31738
 H23 H 0.28201 0.14913 0.28797
 H24 H 0.20511 0.19471 0.33372
 H25 H 0.22592 0.22044 0.23376
 H26 H 0.25407 0.24584 0.25561
 N27 N 0.70846 -0.22850 0.20338
 N28 N 0.72240 -0.25267 0.19015
 C29 C 0.70558 -0.26155 0.16496
 C30 C 0.67993 -0.24167 0.16230
 C31 C 0.68257 -0.22095 0.18696
 H32 H 0.71125 -0.28118 0.14996
 H33 H 0.66653 -0.20214 0.19286
 Cu34 Cu 0.76013 -0.27077 0.20867
 Cu35 Cu 0.72384 -0.20925 0.24168
 Cu36 Cu 0.78989 -0.24298 0.27559
 N37 N 0.79770 -0.28918 0.22724
 N38 N 0.80840 -0.27879 0.25414
 C39 C 0.83327 -0.29626 0.26292
 C40 C 0.83846 -0.31879 0.24030
 C41 C 0.81550 -0.31364 0.21793
 H42 H 0.84662 -0.29279 0.28413
 H43 H 0.81166 -0.32720 0.19694
 N44 N 0.76794 -0.20644 0.29347
 N45 N 0.74299 -0.19332 0.28049
 C46 C 0.73404 -0.16853 0.29793
 C47 C 0.75439 -0.16602 0.32294
 C48 C 0.77555 -0.19032 0.31939
 H49 H 0.71437 -0.15325 0.29279
 H50 H 0.79516 -0.19567 0.33457
 H51 H 0.77056 -0.22210 0.23655
 H52 H 0.74469 -0.24928 0.25909
 N53 N 0.71158 0.22688 0.79925
 N54 N 0.72287 0.25365 0.80956
 C55 C 0.70602 0.26289 0.83459
 C56 C 0.68322 0.24059 0.84040
 C57 C 0.68742 0.21799 0.81764
 H58 H 0.70983 0.28426 0.84762
 H59 H 0.67336 0.19716 0.81419
 Cu60 Cu 0.75865 0.27362 0.78943
 Cu61 Cu 0.72762 0.20677 0.76152
 Cu62 Cu 0.79077 0.24286 0.72464
 N63 N 0.79443 0.29321 0.76896
 N64 N 0.80697 0.28108 0.74358
 C65 C 0.83144 0.29896 0.73442
 C66 C 0.83435 0.32354 0.75528
 C67 C 0.81051 0.31919 0.77687
 H68 H 0.84605 0.29438 0.71420
 H69 H 0.80537 0.33387 0.79683
 N70 N 0.77118 0.20406 0.70903
 N71 N 0.74714 0.19024 0.72298
 C72 C 0.73871 0.16486 0.70617
 C73 C 0.75845 0.16267 0.68058
 C74 C 0.77873 0.18779 0.68314
 H75 H 0.71945 0.14930 0.71184
 H76 H 0.79731 0.19393 0.66697
 H77 H 0.77283 0.22373 0.76540
 H78 H 0.74488 0.24700 0.74098
 N79 N 0.29366 -0.23147 0.79399
 N80 N 0.28121 -0.25703 0.80594
 C81 C 0.29824 -0.26591 0.83101
 C82 C 0.32249 -0.24470 0.83486
 C83 C 0.31889 -0.22318 0.81102
 H84 H 0.29359 -0.28630 0.84531
 H85 H 0.33374 -0.20315 0.80628
 Cu86 Cu 0.24419 -0.27612 0.78717
 Cu87 Cu 0.27684 -0.21106 0.75688
 Cu88 Cu 0.21057 -0.24458 0.72344
 N89 N 0.20662 -0.29428 0.76858
 N90 N 0.19370 -0.28196 0.74351
 C91 C 0.16853 -0.29922 0.73519
 C92 C 0.16556 -0.32365 0.75624
 C93 C 0.19006 -0.31980 0.77714
 H94 H 0.15363 -0.29447 0.71527
 H95 H 0.19551 -0.33469 0.79687
 N96 N 0.23107 -0.20672 0.70660
 N97 N 0.25631 -0.19394 0.71927
 C98 C 0.26489 -0.16882 0.70213
 C99 C 0.24403 -0.16572 0.67761
 C100 C 0.22290 -0.19004 0.68115
 H101 H 0.28494 -0.15399 0.70693
 H102 H 0.20324 -0.19530 0.66603
 H103 H 0.23111 -0.22597 0.76309
 H104 H 0.25684 -0.25066 0.73764
 N105 N 0.71540 -0.22362 0.80263
 N106 N 0.72854 -0.24895 0.81434
 C107 C 0.71158 -0.25863 0.83917
 C108 C 0.68684 -0.23798 0.84337
 C109 C 0.68999 -0.21600 0.81988
 H110 H 0.71671 -0.27913 0.85315
 H111 H 0.67444 -0.19646 0.81521
 Cu112 Cu 0.76652 -0.26684 0.79607
 Cu113 Cu 0.73095 -0.20360 0.76480
 Cu114 Cu 0.79676 -0.23656 0.72985
 N115 N 0.80326 -0.28515 0.77585
 N116 N 0.81435 -0.27383 0.74947
 C117 C 0.83870 -0.29165 0.73986
 C118 C 0.84329 -0.31521 0.76160
 C119 C 0.82049 -0.31035 0.78419
 H120 H 0.85214 -0.28773 0.71874
 H121 H 0.81635 -0.32455 0.80472
 N122 N 0.77567 -0.19879 0.71356
 N123 N 0.75011 -0.18671 0.72643
 C124 C 0.74057 -0.16197 0.70928
 C125 C 0.76137 -0.15810 0.68479
 C126 C 0.78336 -0.18172 0.68819
 H127 H 0.72008 -0.14771 0.71419
 H128 H 0.80307 -0.18644 0.67287
 H129 H 0.75144 -0.24356 0.74625
 H130 H 0.77741 -0.21727 0.76973
 N131 N 0.29037 0.22918 0.79564
 N132 N 0.27608 0.25299 0.80909
 C133 C 0.29335 0.26247 0.83377
 C134 C 0.31965 0.24342 0.83576
 C135 C 0.31700 0.22259 0.81126
 H136 H 0.28738 0.28172 0.84912
 H137 H 0.33333 0.20408 0.80522
 Cu138 Cu 0.23679 0.26942 0.79224
 Cu139 Cu 0.27368 0.20812 0.75901
 Cu140 Cu 0.20363 0.23657 0.72876
 N141 N 0.19753 0.28529 0.77483
 N142 N 0.18539 0.27300 0.74938
 C143 C 0.15997 0.28978 0.74081
 C144 C 0.15576 0.31362 0.76221
 C145 C 0.17990 0.31010 0.78355
 H146 H 0.14586 0.28529 0.72028
 H147 H 0.18485 0.32526 0.80317
 N148 N 0.22581 0.19992 0.71129
 N149 N 0.25305 0.18978 0.72222
 C150 C 0.26292 0.16546 0.70468
 C151 C 0.24067 0.15984 0.68193
 C152 C 0.21742 0.18199 0.68677
 H153 H 0.28460 0.15263 0.70822
 H154 H 0.19630 0.18512 0.67304
 H155 H 0.24939 0.24652 0.74147
 H156 H 0.22693 0.21910 0.76722
 N157 N 0.28878 -0.22528 0.20060
 N158 N 0.27730 -0.25206 0.19060
 C159 C 0.29473 -0.26219 0.16628
 C160 C 0.31806 -0.24036 0.16061
 C161 C 0.31362 -0.21722 0.18276
 H162 H 0.29072 -0.28366 0.15348
 H163 H 0.32780 -0.19643 0.18601
 Cu164 Cu 0.24025 -0.27036 0.21006
 Cu165 Cu 0.27149 -0.20352 0.23685
 Cu166 Cu 0.20483 -0.23603 0.27120
 N167 N 0.20304 -0.28864 0.22926
 N168 N 0.18913 -0.27504 0.25315
 C169 C 0.16420 -0.29243 0.26203
 C170 C 0.16241 -0.31818 0.24252
 C171 C 0.18735 -0.31507 0.22203
 H172 H 0.14860 -0.28684 0.28124
 H173 H 0.19356 -0.33097 0.20335
 N174 N 0.22451 -0.19685 0.28605
 N175 N 0.25046 -0.18512 0.27365
 C176 C 0.25946 -0.15999 0.29046
 C177 C 0.23796 -0.15550 0.31424
 C178 C 0.21607 -0.17914 0.31075
 H179 H 0.28033 -0.14616 0.28609
 H180 H 0.19621 -0.18374 0.32589
 H181 H 0.25130 -0.24209 0.25823
 H182 H 0.22586 -0.21917 0.23104
 N183 N 0.70689 0.22945 0.20602
 N184 N 0.72035 0.25403 0.19318
 C185 C 0.70289 0.26355 0.16864
 C186 C 0.67730 0.24376 0.16604
 C187 C 0.68056 0.22241 0.19010
 H188 H 0.70835 0.28327 0.15370
 H189 H 0.66496 0.20314 0.19551
 Cu190 Cu 0.75935 0.27102 0.20979
 Cu191 Cu 0.72467 0.20808 0.24204
 Cu192 Cu 0.79411 0.23766 0.27248
 N193 N 0.79722 0.28837 0.22836
 N194 N 0.81074 0.27533 0.25276
 C195 C 0.83582 0.29267 0.26121
 C196 C 0.83808 0.31779 0.24093
 C197 C 0.81328 0.31436 0.22041
 H198 H 0.85099 0.28764 0.28085
 H199 H 0.80714 0.33002 0.20150
 N200 N 0.77323 0.19988 0.28914
 N201 N 0.74614 0.18940 0.27826
 C202 C 0.73687 0.16471 0.29558
 C203 C 0.75933 0.15921 0.31819
 C204 C 0.78211 0.18182 0.31345
 H205 H 0.71534 0.15167 0.29215
 H206 H 0.80312 0.18530 0.32726
 H207 H 0.74823 0.24685 0.26026
 H208 H 0.77126 0.22051 0.23386
 C209 C 0.25007 0.01584 0.50054
 C210 C 0.24935 -0.01588 0.49888
 C211 C 0.24801 -0.03592 0.52717
 C212 C 0.24811 -0.03231 0.46854
 C213 C 0.24899 0.03583 0.47223
 C214 C 0.24952 0.03247 0.53079
 C215 C 0.27218 -0.03548 0.54949
 C216 C 0.27123 -0.05585 0.57514
 C217 C 0.24617 -0.07714 0.57877
 C218 C 0.22192 -0.07720 0.55644
 C219 C 0.22289 -0.05687 0.53093
 C220 C 0.27497 -0.04775 0.45736
 C221 C 0.27347 -0.06556 0.43004
 C222 C 0.24480 -0.06892 0.41403
 C223 C 0.21800 -0.05300 0.42509
 C224 C 0.21974 -0.03453 0.45201
 C225 C 0.22419 0.05723 0.46862
 C226 C 0.22327 0.07729 0.44293
 C227 C 0.24725 0.07652 0.42026
 C228 C 0.27203 0.05483 0.42376
 C229 C 0.27295 0.03474 0.44963
 C230 C 0.22144 0.03512 0.54782
 C231 C 0.22007 0.05436 0.57421
 C232 C 0.24694 0.07071 0.58424
 C233 C 0.27535 0.06692 0.56778
 C234 C 0.27649 0.04828 0.54099
 H235 H 0.29204 -0.01981 0.54672
 H236 H 0.29035 -0.05523 0.59183
 H237 H 0.20223 -0.09317 0.55844
 H238 H 0.20398 -0.05757 0.51400
 H239 H 0.29697 -0.04631 0.47005
 H240 H 0.29443 -0.07769 0.42212
 H241 H 0.19879 -0.02278 0.46053
 H242 H 0.20547 0.05845 0.48578
 H243 H 0.20378 0.09356 0.44101
 H244 H 0.29094 0.05370 0.40681
 H245 H 0.29259 0.01875 0.45231
 H246 H 0.20037 0.02322 0.53996
 H247 H 0.19792 0.05677 0.58655
 H248 H 0.29637 0.07938 0.57486
 H249 H 0.29825 0.04660 0.52783
 H250 H 0.19567 -0.05508 0.41308
 C251 C 0.75067 0.01541 0.50001
 C252 C 0.75063 -0.01632 0.50160
 C253 C 0.75170 -0.03629 0.47326
 C254 C 0.75162 -0.03293 0.53188
 C255 C 0.75217 0.03530 0.52837
 C256 C 0.75132 0.03208 0.46975
 C257 C 0.72739 -0.03564 0.45110
 C258 C 0.72806 -0.05600 0.42545
 C259 C 0.75299 -0.07748 0.42167
 C260 C 0.77741 -0.07772 0.44381
 C261 C 0.77672 -0.05740 0.46932
 C262 C 0.72460 -0.04813 0.54295
 C263 C 0.72594 -0.06628 0.57009
 C264 C 0.75460 -0.07023 0.58600
 C265 C 0.78155 -0.05454 0.57507
 C266 C 0.77998 -0.03575 0.54834
 C267 C 0.77737 0.05616 0.53203
 C268 C 0.77871 0.07608 0.55781
 C269 C 0.75477 0.07567 0.58054
 C270 C 0.72961 0.05451 0.57699
 C271 C 0.72827 0.03458 0.55104
 C272 C 0.77948 0.03484 0.45286
 C273 C 0.78084 0.05403 0.42638
 C274 C 0.75388 0.07018 0.41613
 C275 C 0.72540 0.06622 0.43242
 C276 C 0.72427 0.04766 0.45929
 H277 H 0.70761 -0.01985 0.45402
 H278 H 0.70883 -0.05524 0.40889
 H279 H 0.79702 -0.09383 0.44167
 H280 H 0.79574 -0.05828 0.48611
 H281 H 0.70262 -0.04632 0.53026
 H282 H 0.70488 -0.07828 0.57787
 H283 H 0.80108 -0.02431 0.53985
 H284 H 0.79611 0.05704 0.51488
 H285 H 0.79851 0.09192 0.55980
 H286 H 0.71074 0.05364 0.59400
 H287 H 0.70837 0.01897 0.54840
 H288 H 0.80059 0.02301 0.46082
 H289 H 0.80302 0.05649 0.41412
 H290 H 0.70429 0.07846 0.42511
 H291 H 0.70242 0.04582 0.47226
 H292 H 0.80389 -0.05712 0.58697
 C293 C 0.50033 0.25045 -0.01609
 C294 C 0.49851 0.25010 0.01552
 C295 C 0.52694 0.24878 0.03560
 C296 C 0.46785 0.24870 0.03183
 C297 C 0.47186 0.24918 -0.03609
 C298 C 0.53093 0.24967 -0.03254
 C299 C 0.53052 0.22380 0.05660
 C300 C 0.55600 0.22286 0.07706
 C301 C 0.57853 0.24698 0.07711
 C302 C 0.57519 0.27186 0.05572
 C303 C 0.54952 0.27279 0.03520
 C304 C 0.45134 0.22034 0.03395
 C305 C 0.42424 0.21832 0.05242
 C306 C 0.41296 0.24482 0.06845
 C307 C 0.42894 0.27347 0.06524
 C308 C 0.45646 0.27527 0.04743
 C309 C 0.44903 0.27301 -0.03527
 C310 C 0.42313 0.27202 -0.05548
 C311 C 0.41980 0.24726 -0.07696
 C312 C 0.44263 0.22336 -0.07739
 C313 C 0.46835 0.22435 -0.05723
 C314 C 0.54162 0.27649 -0.04817
 C315 C 0.56878 0.27516 -0.06657
 C316 C 0.58512 0.24672 -0.07030
 C317 C 0.57460 0.21999 -0.05416
 C318 C 0.54785 0.22155 -0.03514
 H319 H 0.51345 0.20498 0.05728
 H320 H 0.55782 0.20329 0.09307
 H321 H 0.59205 0.29087 0.05519
 H322 H 0.54693 0.29252 0.01948
 H323 H 0.46007 0.19960 0.02217
 H324 H 0.41229 0.19599 0.05445
 H325 H 0.46916 0.29724 0.04615
 H326 H 0.45156 0.29260 -0.01941
 H327 H 0.40603 0.29085 -0.05458
 H328 H 0.44082 0.20388 -0.09350
 H329 H 0.48560 0.20566 -0.05821
 H330 H 0.52858 0.29828 -0.04656
 H331 H 0.57622 0.29605 -0.07892
 H332 H 0.58682 0.19782 -0.05658
 H333 H 0.53963 0.20060 -0.02338
 H334 H 0.42089 0.29418 0.07755
 C335 C 0.50190 0.74962 -0.01568
 C336 C 0.50016 0.74950 0.01594
 C337 C 0.46960 0.75010 0.03251
 C338 C 0.52868 0.75117 0.03582
 C339 C 0.53250 0.75079 -0.03215
 C340 C 0.47338 0.75093 -0.03557
 C341 C 0.45246 0.77809 0.03515
 C342 C 0.42591 0.77952 0.05446
 C343 C 0.41578 0.75279 0.07086
 C344 C 0.43225 0.72445 0.06700
 C345 C 0.45921 0.72325 0.04830
 C346 C 0.53217 0.77633 0.05658
 C347 C 0.55808 0.77782 0.07649
 C348 C 0.58108 0.75408 0.07619
 C349 C 0.57775 0.72900 0.05509
 C350 C 0.55166 0.72749 0.03517
 C351 C 0.54386 0.72402 -0.04745
 C352 C 0.57126 0.72560 -0.06548
 C353 C 0.58717 0.75424 -0.06919
 C354 C 0.57599 0.78091 -0.05337
 C355 C 0.54902 0.77911 -0.03469
 C356 C 0.45095 0.72679 -0.03515
 C357 C 0.42498 0.72787 -0.05525
 C358 C 0.42115 0.75306 -0.07619
 C359 C 0.44355 0.77730 -0.07617
 C360 C 0.46937 0.77619 -0.05615
 H361 H 0.46035 0.79907 0.02322
 H362 H 0.41355 0.80161 0.05692
 H363 H 0.42509 0.70354 0.07948
 H364 H 0.47239 0.70155 0.04658
 H365 H 0.51476 0.79489 0.05742
 H366 H 0.55993 0.79758 0.09225
 H367 H 0.54912 0.70760 0.01967
 H368 H 0.53121 0.70204 -0.04576
 H369 H 0.57927 0.70474 -0.07756
 H370 H 0.58793 0.80322 -0.05573
 H371 H 0.54041 0.79998 -0.02306
 H372 H 0.45387 0.70689 -0.01970
 H373 H 0.40824 0.70876 -0.05472
 H374 H 0.44137 0.79708 -0.09189
 H375 H 0.48633 0.79512 -0.05680
 H376 H 0.59500 0.71030 0.05431
 C377 C 0.01508 0.50027 0.24728
 C378 C -0.01681 0.50105 0.24668
 C379 C -0.03603 0.47208 0.24527
 C380 C -0.03424 0.53103 0.24575
 C381 C 0.03436 0.52919 0.24600
 C382 C 0.03262 0.47033 0.24694
 C383 C -0.05634 0.46741 0.21992
 C384 C -0.07585 0.44116 0.21879
 C385 C -0.07560 0.41899 0.24311
 C386 C -0.05484 0.42345 0.26833
 C387 C -0.03531 0.44985 0.26945
 C388 C -0.03921 0.54655 0.21731
 C389 C -0.05878 0.57292 0.21608
 C390 C -0.07297 0.58449 0.24343
 C391 C -0.06685 0.56958 0.27206
 C392 C -0.04803 0.54272 0.27311
 C393 C 0.03365 0.55133 0.27025
 C394 C 0.05362 0.57743 0.26941
 C395 C 0.07479 0.58165 0.24442
 C396 C 0.07501 0.55956 0.22004
 C397 C 0.05506 0.53364 0.22088
 C398 C 0.04832 0.46039 0.27394
 C399 C 0.06731 0.43364 0.27325
 C400 C 0.07156 0.41693 0.24527
 C401 C 0.05538 0.42672 0.21832
 C402 C 0.03581 0.45311 0.21923
 H403 H -0.05717 0.48416 0.20093
 H404 H -0.09131 0.43844 0.19889
 H405 H -0.05403 0.40682 0.28743
 H406 H -0.02006 0.45322 0.28942
 H407 H -0.02878 0.53764 0.19598
 H408 H -0.06301 0.58413 0.19377
 H409 H -0.04457 0.53075 0.29517
 H410 H 0.01817 0.54805 0.29010
 H411 H 0.05287 0.59396 0.28859
 H412 H 0.09082 0.56209 0.20033
 H413 H 0.05592 0.51687 0.20191
 H414 H 0.04616 0.47363 0.29543
 H415 H 0.07956 0.42670 0.29432
 H416 H 0.05809 0.41413 0.19652
 H417 H 0.02393 0.46067 0.19815
 H418 H -0.07764 0.57794 0.29344
 C419 C -0.01638 0.50135 0.75242
 C420 C 0.01545 0.49927 0.75271
 C421 C 0.03170 0.46861 0.75375
 C422 C 0.03584 0.52743 0.75385
 C423 C -0.03269 0.53197 0.75344
 C424 C -0.03676 0.47317 0.75319
 C425 C 0.03454 0.45218 0.78198
 C426 C 0.05311 0.42511 0.78354
 C427 C 0.06853 0.41382 0.75671
 C428 C 0.06449 0.42967 0.72821
 C429 C 0.04659 0.45713 0.72686
 C430 C 0.05671 0.53131 0.77889
 C431 C 0.07728 0.55676 0.77969
 C432 C 0.07752 0.57890 0.75533
 C433 C 0.05637 0.57513 0.73033
 C434 C 0.03580 0.54953 0.72954
 C435 C -0.04656 0.54403 0.72629
 C436 C -0.06471 0.57135 0.72762
 C437 C -0.07007 0.58638 0.75634
 C438 C -0.05574 0.57448 0.78344
 C439 C -0.03684 0.54765 0.78193
 C440 C -0.03645 0.45128 0.72873
 C441 C -0.05697 0.42561 0.72922
 C442 C -0.07832 0.42160 0.75410
 C443 C -0.07827 0.44351 0.77862
 C444 C -0.05778 0.46902 0.77812
 H445 H 0.02321 0.46089 0.80294
 H446 H 0.05564 0.41316 0.80572
 H447 H 0.07616 0.42151 0.70722
 H448 H 0.04468 0.46972 0.70496
 H449 H 0.05715 0.51452 0.79787
 H450 H 0.09315 0.55892 0.79934
 H451 H 0.02030 0.54663 0.70970
 H452 H -0.04372 0.53197 0.70419
 H453 H -0.07565 0.57997 0.70644
 H454 H -0.05942 0.58576 0.80581
 H455 H -0.02639 0.53844 0.80310
 H456 H -0.02074 0.45437 0.70902
 H457 H -0.05644 0.40923 0.70991
 H458 H -0.09424 0.44114 0.79822
 H459 H -0.05839 0.48560 0.79725
 H460 H 0.05605 0.59165 0.71112
 N461 N 0.35655 0.21327 0.12600
 C462 C 0.33830 0.23868 0.13217
 N463 N 0.34402 0.26583 0.11665
 N464 N 0.36745 0.26767 0.09602
 C465 C 0.38580 0.24230 0.08985
 N466 N 0.37978 0.21501 0.10511
 N467 N 0.65523 0.73510 0.11766
 C468 C 0.65581 0.75740 0.14030
 N469 N 0.63212 0.77874 0.14146
 N470 N 0.60865 0.77776 0.12093
 C471 C 0.60783 0.75538 0.09838
 N472 N 0.63166 0.73409 0.09712
 N473 N 0.65232 0.26897 -0.12030
 C474 C 0.65865 0.24174 -0.13546
 N475 N 0.64138 0.21591 -0.12850
 N476 N 0.61850 0.21732 -0.10721
 C477 C 0.61187 0.24466 -0.09229
 N478 N 0.62924 0.27045 -0.09924
 N479 N 0.34933 0.73139 -0.12010
 C480 C 0.34747 0.75487 -0.14146
 N481 N 0.36946 0.77786 -0.14099
 N482 N 0.39257 0.77736 -0.12004
 C483 C 0.39467 0.75385 -0.09871
 N484 N 0.37252 0.73088 -0.09913
 N485 N 0.13009 0.36004 0.21590
 C486 C 0.13715 0.34348 0.24204
 N487 N 0.12210 0.35062 0.26911
 N488 N 0.10101 0.37376 0.27008
 C489 C 0.09391 0.39038 0.24394
 N490 N 0.10878 0.38298 0.21680
 N491 N 0.14357 0.63007 0.77868
 C492 C 0.14317 0.65251 0.75620
 N493 N 0.12083 0.65099 0.73357
 N494 N 0.09984 0.62778 0.73336
 C495 C 0.10030 0.60522 0.75580
 N496 N 0.12257 0.60694 0.77849
 N497 N -0.13524 0.63809 0.21589
 C498 C -0.13870 0.65776 0.24060
 N499 N -0.11983 0.65378 0.26589
 N500 N -0.09868 0.63071 0.26665
 C501 C -0.09528 0.61099 0.24199
 N502 N -0.11384 0.61523 0.21652
 N503 N -0.12145 0.34951 0.73204
 C504 C -0.14359 0.34766 0.75491
 N505 N -0.14399 0.36994 0.77751
 N506 N -0.12315 0.39321 0.77725
 C507 C -0.10103 0.39522 0.75440
 N508 N -0.10060 0.37286 0.73178
 N509 N 0.26747 0.11783 0.34675
 C510 C 0.24498 0.14048 0.34566
 N511 N 0.22328 0.14186 0.36887
 N512 N 0.22400 0.12142 0.39235
 C513 C 0.24646 0.09877 0.39364
 N514 N 0.26822 0.09739 0.37033
 N515 N 0.77961 0.14044 0.63218
 C516 C 0.75766 0.13949 0.65520
 N517 N 0.73486 0.11724 0.65396
 N518 N 0.73399 0.09679 0.63041
 C519 C 0.75592 0.09778 0.60726
 N520 N 0.77877 0.11999 0.60873
 N521 N 0.26776 -0.12054 0.65064
 C522 C 0.24447 -0.14224 0.65246
 N523 N 0.22166 -0.14226 0.63033
 N524 N 0.22215 -0.12143 0.60717
 C525 C 0.24546 -0.09973 0.60514
 N526 N 0.26826 -0.09970 0.62741
 N527 N 0.77682 -0.14290 0.37023
 C528 C 0.75398 -0.14266 0.34814
 N529 N 0.73083 -0.12074 0.34997
 N530 N 0.73053 -0.09988 0.37318
 C531 C 0.75340 -0.10012 0.39538
 N532 N 0.77654 -0.12206 0.39335
 N533 N 0.64312 0.78552 -0.12731
 C534 C 0.66174 0.76029 -0.13308
 N535 N 0.65631 0.73325 -0.11724
 N536 N 0.63283 0.73140 -0.09664
 C537 C 0.61416 0.75663 -0.09083
 N538 N 0.61986 0.78376 -0.10647
 N539 N 0.34637 0.26742 -0.11918
 C540 C 0.34527 0.24462 -0.14128
 N541 N 0.36845 0.22275 -0.14204
 N542 N 0.39190 0.22360 -0.12149
 C543 C 0.39320 0.24637 -0.09936
 N544 N 0.36993 0.26830 -0.09862
 N545 N 0.34918 0.73070 0.12183
 C546 C 0.34278 0.75811 0.13665
 N547 N 0.35992 0.78391 0.12929
 N548 N 0.38268 0.78234 0.10789
 C549 C 0.38932 0.75486 0.09323
 N550 N 0.37215 0.72906 0.10066
 N551 N 0.65089 0.26770 0.12073
 C552 C 0.65199 0.24475 0.14270
 N553 N 0.62917 0.22256 0.14290
 N554 N 0.60607 0.22328 0.12195
 C555 C 0.60477 0.24620 0.09994
 N556 N 0.62769 0.26844 0.09976
 N557 N -0.13137 0.64055 0.78492
 C558 C -0.13440 0.66083 0.76064
 N559 N -0.11562 0.65700 0.73520
 N560 N -0.09494 0.63350 0.73392
 C561 C -0.09191 0.61324 0.75822
 N562 N -0.11042 0.61730 0.78379
 N563 N -0.11726 0.34580 0.26452
 C564 C -0.13895 0.34349 0.24138
 N565 N -0.13950 0.36570 0.21871
 N566 N -0.11919 0.38942 0.21918
 C567 C -0.09752 0.39196 0.24236
 N568 N -0.09696 0.36962 0.26502
 N569 N 0.12677 0.35701 0.78664
 C570 C 0.13211 0.33874 0.76122
 N571 N 0.11591 0.34467 0.73456
 N572 N 0.09539 0.36829 0.73324
 C573 C 0.09002 0.38662 0.75864
 N574 N 0.10600 0.38042 0.78541
 N575 N 0.14016 0.63362 0.22088
 C576 C 0.13929 0.65622 0.24313
 N577 N 0.11698 0.65454 0.26582
 N578 N 0.09634 0.63099 0.26623
 C579 C 0.09719 0.60831 0.24392
 N580 N 0.11953 0.61018 0.22126
 N581 N 0.78547 -0.12856 0.64179
 C582 C 0.75988 -0.13453 0.65984
 N583 N 0.73272 -0.11877 0.65406
 N584 N 0.73109 -0.09806 0.63080
 C585 C 0.75670 -0.09203 0.61272
 N586 N 0.78395 -0.10760 0.61876
 N587 N 0.26652 -0.11647 0.34527
 C588 C 0.23933 -0.13202 0.33927
 N589 N 0.21373 -0.12616 0.35736
 N590 N 0.21529 -0.10554 0.38068
 C591 C 0.24258 -0.09023 0.38696
 N592 N 0.26817 -0.09611 0.36880
 N593 N 0.78426 0.12869 0.36014
 C594 C 0.75828 0.13533 0.34291
 N595 N 0.73107 0.11994 0.34929
 N596 N 0.72975 0.09897 0.37232
 C597 C 0.75571 0.09229 0.38961
 N598 N 0.78302 0.10748 0.38298
 N599 N 0.26951 0.12112 0.65060
 C600 C 0.24203 0.13598 0.65725
 N601 N 0.21601 0.12881 0.64036
 N602 N 0.21745 0.10757 0.61758
 C603 C 0.24501 0.09290 0.61067
 N604 N 0.27102 0.10011 0.62762
   
