data_POSCAR
  _audit_creation_date              2014-09-24
  _audit_creation_method            'ToBaCCo'
  _symmetry_space_group_name_H-M    'P1'
  _symmetry_Int_Tables_number       1
  _symmetry_cell_setting            triclinic
  loop_
  _symmetry_equiv_pos_as_xyz
 x,y,z
_cell_length_a 24.7992
_cell_length_b 24.6809
_cell_length_c 24.7007
_cell_angle_alpha 88.420900
_cell_angle_beta 91.702000
_cell_angle_gamma 90.892100
loop_
  _atom_site_label
  _atom_site_type_symbol
  _atom_site_fract_x
  _atom_site_fract_y
  _atom_site_fract_z
C1 C 0.19965 0.19475 0.24728
 C2 C 0.17599 0.23782 0.21753
 C3 C 0.19287 0.25165 0.16512
 C4 C 0.23363 0.22168 0.14208
 C5 C 0.25746 0.17811 0.17138
 C6 C 0.24102 0.16584 0.22425
 H7 H 0.14253 0.25908 0.23403
 H8 H 0.24563 0.23142 0.10117
 H9 H 0.25835 0.13135 0.24617
 C10 C -0.16225 0.80307 0.26160
 C11 C -0.14481 0.75453 0.23958
 C12 C -0.17353 0.73150 0.19545
 C13 C -0.21930 0.75765 0.17333
 C14 C -0.23690 0.80591 0.19504
 C15 C -0.20895 0.82764 0.23958
 H16 H -0.10791 0.73612 0.25494
 H17 H -0.23969 0.74148 0.13782
 H18 H -0.22214 0.86564 0.25542
 C19 C -0.19762 0.19312 -0.28865
 C20 C -0.23627 0.16116 -0.26135
 C21 C -0.25834 0.17887 -0.21341
 C22 C -0.24246 0.22928 -0.19328
 C23 C -0.20320 0.26101 -0.21921
 C24 C -0.18152 0.24328 -0.26743
 H25 H -0.24681 0.12128 -0.27589
 H26 H -0.25773 0.24202 -0.15504
 H27 H -0.14922 0.26637 -0.28595
 C28 C 0.18409 0.80933 -0.25826
 C29 C 0.16434 0.76318 -0.23067
 C30 C 0.19274 0.74108 -0.18546
 C31 C 0.24169 0.76515 -0.16817
 C32 C 0.26187 0.81160 -0.19541
 C33 C 0.23311 0.83310 -0.24057
 H34 H 0.12576 0.74546 -0.24276
 H35 H 0.26280 0.74945 -0.13221
 H36 H 0.24752 0.86980 -0.26073
 C37 C 0.19524 1.18356 0.75684
 C38 C 0.16588 1.22534 0.77857
 C39 C 0.18070 1.24629 0.82909
 C40 C 0.22654 1.22657 0.85737
 C41 C 0.25688 1.18556 0.83535
 C42 C 0.24138 1.16461 0.78494
 H43 H 0.12956 1.23949 0.75753
 H44 H 0.23754 1.24180 0.89689
 H45 H 0.26354 1.13110 0.76964
 C46 C 0.79943 0.82530 0.74581
 C47 C 0.82331 0.77673 0.76362
 C48 C 0.80049 0.74456 0.80485
 C49 C 0.75202 0.76043 0.82733
 C50 C 0.72726 0.80863 0.80930
 C51 C 0.75099 0.84079 0.76841
 H52 H 0.86184 0.76575 0.74769
 H53 H 0.73569 0.73762 0.86129
 H54 H 0.73310 0.87923 0.75664
 C55 C 0.18452 0.81918 1.26479
 C56 C 0.15617 0.77619 1.24077
 C57 C 0.17928 0.74690 1.19987
 C58 C 0.23204 0.75931 1.18444
 C59 C 0.26123 0.80154 1.20896
 C60 C 0.23755 0.83084 1.24964
 H61 H 0.11531 0.76702 1.25214
 H62 H 0.24891 0.73867 1.15082
 H63 H 0.25878 0.86535 1.26672
 C64 C 0.79362 1.19652 1.26950
 C65 C 0.81987 1.24455 1.25222
 C66 C 0.80270 1.27203 1.20443
 C67 C 0.75786 1.25213 1.17456
 C68 C 0.73146 1.20434 1.19147
 C69 C 0.74922 1.17707 1.23910
 H70 H 0.85574 1.25840 1.27412
 H71 H 0.74589 1.27185 1.13645
 H72 H 0.73021 1.13880 1.25038
 O73 O 0.54653 0.95284 0.90318
 O74 O 0.45421 0.94187 1.11980
 O75 O 0.61795 0.97107 1.06064
 O76 O 0.44176 0.91228 0.95579
 O77 O 0.55487 0.93619 1.11071
 O78 O 0.44833 0.97145 0.89483
 O79 O 0.43039 0.90013 1.04843
 O80 O 0.58822 0.92736 0.97623
 C81 C 0.57771 0.92052 0.92766
 C82 C 0.42967 0.90361 1.09797
 C83 C 0.60298 0.93785 1.09667
 C84 C 0.43207 0.92557 0.90862
 O85 O 0.46547 1.06803 0.93565
 O86 O 0.55915 1.04341 1.10597
 O87 O 0.63823 1.01593 0.96059
 O88 O 0.39335 1.00328 1.05702
 O89 O 0.45610 1.04471 1.10705
 O90 O 0.56443 1.05667 0.93066
 O91 O 0.39824 1.01605 0.96020
 O92 O 0.58481 1.06540 1.02537
 Co93 Co 0.50606 1.00949 0.92503
 Co94 Co 0.50634 0.99130 1.10148
 Co95 Co 0.58124 0.99568 1.00004
 Co96 Co 0.42234 0.96003 1.00511
 O97 O 0.50152 0.98712 1.01234
 C98 C 0.41610 1.06106 0.94236
 C99 C 0.58468 1.07444 1.07473
 C100 C 0.61437 1.04765 0.92392
 C101 C 0.40798 1.03982 1.08995
 O102 O 0.07045 0.45786 0.06280
 O103 O 0.04226 0.55140 -0.10849
 O104 O 0.00550 0.38455 -0.05531
 O105 O 0.01645 0.63132 0.03666
 O106 O 0.04619 0.44723 -0.10640
 O107 O 0.06033 0.55819 0.06614
 O108 O 0.06364 0.57865 -0.02858
 O109 O 0.01742 0.39026 0.04182
 C110 C 0.06284 0.40807 0.05806
 C111 C 0.07194 0.57908 -0.07790
 C112 C 0.04169 0.39915 -0.08845
 C113 C 0.05131 0.60875 0.07125
 O114 O -0.04120 0.54231 0.09787
 O115 O -0.05566 0.44300 -0.11909
 O116 O -0.08532 0.43419 0.04506
 O117 O -0.03199 0.60887 -0.06179
 O118 O -0.06399 0.54360 -0.11167
 O119 O -0.02566 0.44342 0.10578
 O120 O -0.07234 0.57976 0.02509
 O121 O -0.09778 0.42087 -0.04782
 Co122 Co 0.01311 0.49992 0.07424
 Co123 Co -0.00790 0.49669 -0.10183
 Co124 Co -0.03798 0.41396 -0.00395
 Co125 Co -0.00482 0.57368 -0.00120
 O126 O -0.01162 0.49357 -0.01242
 C127 C -0.07541 0.57216 0.07461
 C128 C -0.09422 0.41945 -0.09740
 C129 C -0.07186 0.42757 0.09274
 C130 C -0.06424 0.59202 -0.09791
 O131 O 1.11622 0.05915 0.44517
 O132 O 0.89944 0.04608 0.53815
 O133 O 0.95218 0.08483 0.43066
 O134 O 1.05651 0.03563 0.61038
 O135 O 0.89283 0.02510 0.44053
 O136 O 1.10643 0.06824 0.54583
 O137 O 0.97115 0.07634 0.57724
 O138 O 1.04365 0.09776 0.41833
 C139 C 1.09313 0.09542 0.41784
 C140 C 0.92227 0.08074 0.56724
 C141 C 0.90510 0.07124 0.42360
 C142 C 1.09349 0.06680 0.59439
 O143 O 1.10526 -0.03853 0.55584
 O144 O 0.93673 -0.07068 0.46168
 O145 O 1.05542 -0.00666 0.38720
 O146 O 0.95852 -0.01070 0.63221
 O147 O 0.93102 -0.05606 0.56062
 O148 O 1.10696 -0.04347 0.45275
 O149 O 1.02540 -0.06051 0.58225
 O150 O 0.95867 -0.02053 0.39181
 Co151 Co 1.09921 0.01139 0.50002
 Co152 Co 0.92390 -0.01101 0.49987
 Co153 Co 1.00224 0.03691 0.41355
 Co154 Co 0.99747 0.00826 0.57440
 O155 O 1.01017 0.01334 0.49437
 C156 C 1.07489 -0.06857 0.58336
 C157 C 0.94207 -0.06523 0.41169
 C158 C 1.09038 -0.04082 0.40418
 C159 C 0.92387 -0.04503 0.61018
 C160 C 1.15265 0.09691 0.33298
 C161 C 1.12663 0.13440 0.28896
 C162 C 1.17498 0.17377 0.29500
 C163 C 1.20125 0.13640 0.33895
 C164 C 1.14577 0.20496 0.33838
 C165 C 1.09710 0.16508 0.33267
 C166 C 1.12332 0.12768 0.37647
 C167 C 1.17157 0.16699 0.38305
 H168 H 1.15524 0.05214 0.33086
 H169 H 1.10824 0.12084 0.25000
 H170 H 1.24423 0.12453 0.34211
 H171 H 1.14327 0.24973 0.34036
 H172 H 1.05401 0.17673 0.33041
 H173 H 1.18958 0.18016 0.42230
 C174 C 0.86518 -0.09257 0.34354
 C175 C 0.88966 -0.11087 0.29052
 C176 C 0.86836 -0.16884 0.30238
 C177 C 0.84384 -0.15067 0.35537
 C178 C 0.92165 -0.18329 0.33282
 C179 C 0.94303 -0.12468 0.32137
 C180 C 0.91835 -0.10649 0.37415
 C181 C 0.89733 -0.16441 0.38647
 H182 H 0.84184 -0.05502 0.34811
 H183 H 0.88642 -0.08863 0.25089
 H184 H 0.80276 -0.16138 0.36925
 H185 H 0.94521 -0.22072 0.32855
 H186 H 0.98384 -0.11343 0.30748
 H187 H 0.90084 -0.18615 0.42632
 C188 C 0.84899 0.09087 0.63853
 C189 C 0.87270 0.12532 0.68475
 C190 C 0.83189 0.16981 0.66928
 C191 C 0.80790 0.13550 0.62308
 C192 C 0.87234 0.19708 0.63043
 C193 C 0.91339 0.15208 0.64581
 C194 C 0.88964 0.11766 0.59967
 C195 C 0.84888 0.16199 0.58357
 H196 H 0.83941 0.04681 0.64180
 H197 H 0.88244 0.10992 0.72651
 H198 H 0.76426 0.12863 0.61401
 H199 H 0.88201 0.24105 0.62664
 H200 H 0.95693 0.15901 0.65509
 H201 H 0.83959 0.17680 0.54153
 C202 C 1.07668 -0.12551 0.67841
 C203 C 1.09984 -0.18285 0.67094
 C204 C 1.15297 -0.16445 0.69948
 C205 C 1.12996 -0.10779 0.70742
 C206 C 1.17625 -0.14606 0.64484
 C207 C 1.12292 -0.16372 0.61558
 C208 C 1.10010 -0.10714 0.62386
 C209 C 1.15316 -0.08920 0.65270
 H210 H 1.03543 -0.11683 0.69181
 H211 H 1.07752 -0.22159 0.67809
 H212 H 1.13316 -0.08463 0.74532
 H213 H 1.21749 -0.15444 0.63126
 H214 H 1.11955 -0.18644 0.57744
 H215 H 1.17534 -0.05045 0.64504
 C216 C 0.37036 1.13945 1.10438
 C217 C 0.30964 1.14046 1.08754
 C218 C 0.29570 1.14394 1.14770
 C219 C 0.35585 1.14333 1.16476
 C220 C 0.29234 1.08156 1.15314
 C221 C 0.30683 1.07771 1.09295
 C222 C 0.36691 1.07729 1.11006
 C223 C 0.35290 1.08071 1.17000
 H224 H 0.40296 1.16277 1.08398
 H225 H 0.29207 1.16472 1.05308
 H226 H 0.37582 1.17068 1.19439
 H227 H 0.25992 1.05759 1.17314
 H228 H 0.28674 1.04975 1.06399
 H229 H 0.37092 1.05562 1.20366
 C230 C 0.36396 0.84203 0.89872
 C231 C 0.30807 0.86594 0.88434
 C232 C 0.31023 0.84161 0.82780
 C233 C 0.36594 0.81747 0.84185
 C234 C 0.33706 0.89407 0.80528
 C235 C 0.33510 0.91845 0.86219
 C236 C 0.39075 0.89444 0.87638
 C237 C 0.39345 0.87035 0.81986
 H238 H 0.37522 0.82061 0.93744
 H239 H 0.27274 0.86407 0.91093
 H240 H 0.37825 0.77557 0.83336
 H241 H 0.32662 0.91619 0.76677
 H242 H 0.32262 0.96030 0.87076
 H243 H 0.42905 0.87246 0.79366
 C244 C 0.63307 0.84301 1.14516
 C245 C 0.68437 0.82426 1.11700
 C246 C 0.71822 0.83799 1.16823
 C247 C 0.66748 0.85630 1.19671
 C248 C 0.72829 0.89611 1.14610
 C249 C 0.69413 0.88271 1.09475
 C250 C 0.64347 0.90102 1.12325
 C251 C 0.67721 0.91477 1.17430
 H252 H 0.59335 0.82163 1.14458
 H253 H 0.68681 0.78712 1.09292
 H254 H 0.65687 0.84501 1.23891
 H255 H 0.76787 0.91776 1.14653
 H256 H 0.70491 0.89407 1.05259
 H257 H 0.67392 0.95232 1.19762
 C258 C 0.70480 1.06841 0.87053
 C259 C 0.69012 1.08271 0.81050
 C260 C 0.70636 1.14221 0.82041
 C261 C 0.72138 1.12809 0.88007
 C262 C 0.64840 1.15524 0.83575
 C263 C 0.63170 1.09535 0.82627
 C264 C 0.64692 1.08157 0.88579
 C265 C 0.66311 1.14086 0.89572
 H266 H 0.72770 1.03233 0.88520
 H267 H 0.70088 1.05809 0.77560
 H268 H 0.75864 1.14175 0.90205
 H269 H 0.62541 1.19124 0.82104
 H270 H 0.59455 1.08162 0.80424
 H271 H 0.65172 1.16441 0.93118
 C272 C 0.09418 0.34706 0.14076
 C273 C 0.10191 0.28892 0.12141
 C274 C 0.16297 0.29499 0.13306
 C275 C 0.15549 0.35302 0.15259
 C276 C 0.17142 0.31662 0.07472
 C277 C 0.10984 0.31087 0.06300
 C278 C 0.10236 0.36879 0.08255
 C279 C 0.16335 0.37534 0.09398
 H280 H 0.06203 0.35987 0.16781
 H281 H 0.07660 0.25316 0.13288
 H282 H 0.17442 0.37004 0.18982
 H283 H 0.20330 0.30420 0.04723
 H284 H 0.09059 0.29354 0.02622
 H285 H 0.18827 0.41129 0.08230
 C286 C -0.16142 0.39397 -0.18226
 C287 C -0.13335 0.34671 -0.20979
 C288 C -0.17761 0.30747 -0.18941
 C289 C -0.20621 0.35409 -0.16224
 C290 C -0.14444 0.29550 -0.13686
 C291 C -0.10013 0.33483 -0.15710
 C292 C -0.12841 0.38154 -0.12988
 C293 C -0.17253 0.34244 -0.10932
 H294 H -0.16825 0.43504 -0.20035
 H295 H -0.11675 0.34925 -0.25102
 H296 H -0.25023 0.36163 -0.16489
 H297 H -0.13730 0.25459 -0.11844
 H298 H -0.05613 0.32694 -0.15458
 H299 H -0.18839 0.34105 -0.06774
 C300 C 0.13456 0.66991 -0.07564
 C301 C 0.18831 0.66103 -0.10468
 C302 C 0.16686 0.69543 -0.15353
 C303 C 0.11377 0.70473 -0.12468
 C304 C 0.14282 0.64446 -0.18008
 C305 C 0.16357 0.60936 -0.13107
 C306 C 0.11052 0.61908 -0.10246
 C307 C 0.08959 0.65378 -0.15122
 H308 H 0.13093 0.67997 -0.03237
 H309 H 0.22927 0.66413 -0.08557
 H310 H 0.09319 0.74419 -0.12233
 H311 H 0.14619 0.63427 -0.22333
 H312 H 0.18380 0.56971 -0.13327
 H313 H 0.04877 0.65056 -0.17057
 C314 C -0.07667 0.65523 0.13523
 C315 C -0.11970 0.69549 0.11403
 C316 C -0.15119 0.68444 0.16601
 C317 C -0.10823 0.64425 0.18734
 C318 C -0.18323 0.63815 0.13842
 C319 C -0.15119 0.64902 0.08604
 C320 C -0.10829 0.60884 0.10734
 C321 C -0.13962 0.59732 0.15933
 H322 H -0.03249 0.66250 0.13421
 H323 H -0.11102 0.73611 0.09560
 H324 H -0.09014 0.64209 0.22897
 H325 H -0.22750 0.63138 0.14018
 H326 H -0.16920 0.65059 0.04439
 H327 H -0.14794 0.55651 0.17746
 C328 C 1.17385 0.13600 0.62660
 C329 C 1.14792 0.18081 0.65976
 C330 C 1.17289 0.15513 0.71198
 C331 C 1.19931 0.11080 0.67947
 C332 C 1.12226 0.11922 0.71968
 C333 C 1.09701 0.14447 0.66714
 C334 C 1.12329 0.10024 0.63478
 C335 C 1.14836 0.07472 0.68688
 H336 H 1.19460 0.14252 0.58770
 H337 H 1.14809 0.22476 0.64892
 H338 H 1.24151 0.09662 0.68368
 H339 H 1.10114 0.11237 0.75834
 H340 H 1.05475 0.15805 0.66159
 H341 H 1.14801 0.03082 0.69793
 C342 C 0.87179 -0.06306 0.70187
 C343 C 0.81325 -0.08230 0.68853
 C344 C 0.82804 -0.13968 0.70954
 C345 C 0.88619 -0.12060 0.72328
 C346 C 0.84447 -0.15557 0.65260
 C347 C 0.83019 -0.09775 0.63107
 C348 C 0.88821 -0.07906 0.64504
 C349 C 0.90292 -0.13621 0.66603
 H350 H 0.88342 -0.02464 0.72178
 H351 H 0.77656 -0.05929 0.69723
 H352 H 0.90915 -0.13008 0.76156
 H353 H 0.83287 -0.19391 0.63255
 H354 H 0.80744 -0.08806 0.59275
 H355 H 0.94015 -0.15796 0.65643
 C356 C 1.11359 -0.14012 0.37391
 C357 C 1.09803 -0.14578 0.31316
 C358 C 1.15852 -0.14590 0.30036
 C359 C 1.17426 -0.14060 0.36062
 C360 C 1.15882 -0.08376 0.29220
 C361 C 1.09825 -0.08327 0.30553
 C362 C 1.11403 -0.07822 0.36571
 C363 C 1.17430 -0.07815 0.35295
 H364 H 1.09450 -0.16275 0.40794
 H365 H 1.06552 -0.17305 0.29753
 H366 H 1.20568 -0.16453 0.38301
 H367 H 1.17766 -0.06071 0.25828
 H368 H 1.06705 -0.05902 0.28320
 H369 H 1.20521 -0.04965 0.36964
 C370 C 0.81447 0.12928 0.39434
 C371 C 0.83511 0.18365 0.36858
 C372 C 0.81723 0.16393 0.31220
 C373 C 0.79588 0.11004 0.33726
 C374 C 0.87276 0.13883 0.30453
 C375 C 0.89095 0.15834 0.36103
 C376 C 0.86994 0.10445 0.38611
 C377 C 0.85190 0.08486 0.32985
 H378 H 0.79092 0.12489 0.43176
 H379 H 0.82810 0.22461 0.38419
 H380 H 0.75666 0.08946 0.32829
 H381 H 0.89688 0.14287 0.26743
 H382 H 0.93035 0.17825 0.37088
 H383 H 0.85911 0.04396 0.31415
 C384 C 0.08173 0.34394 -0.16835
 C385 C 0.14403 0.34705 -0.16339
 C386 C 0.14478 0.28668 -0.14644
 C387 C 0.08273 0.28317 -0.15156
 C388 C 0.14176 0.30069 -0.08626
 C389 C 0.14064 0.36165 -0.10299
 C390 C 0.07881 0.35800 -0.10837
 C391 C 0.07933 0.29770 -0.09133
 H392 H 0.05646 0.36205 -0.20180
 H393 H 0.17106 0.36697 -0.19319
 H394 H 0.05883 0.25052 -0.17148
 H395 H 0.16638 0.28278 -0.05226
 H396 H 0.16390 0.39445 -0.08260
 H397 H 0.05177 0.27759 -0.06218
 C398 C -0.15756 0.36454 0.10557
 C399 C -0.13720 0.30860 0.12553
 C400 C -0.16342 0.31706 0.18026
 C401 C -0.18390 0.37294 0.16058
 C402 C -0.11072 0.34304 0.20288
 C403 C -0.08442 0.33483 0.14767
 C404 C -0.10487 0.39060 0.12784
 C405 C -0.13074 0.39964 0.18256
 H406 H -0.17696 0.37339 0.06526
 H407 H -0.13995 0.27093 0.10197
 H408 H -0.22518 0.38825 0.16604
 H409 H -0.09108 0.33448 0.24309
 H410 H -0.04316 0.31945 0.14210
 H411 H -0.12767 0.43758 0.20565
 C412 C -0.13688 0.66984 -0.09372
 C413 C -0.11959 0.71606 -0.13331
 C414 C -0.16828 0.70217 -0.17074
 C415 C -0.18606 0.65634 -0.13136
 C416 C -0.13405 0.66261 -0.20186
 C417 C -0.08503 0.67626 -0.16413
 C418 C -0.10260 0.63053 -0.12486
 C419 C -0.15122 0.61623 -0.16214
 H420 H -0.13728 0.67257 -0.04898
 H421 H -0.10684 0.75752 -0.12149
 H422 H -0.22773 0.64777 -0.11795
 H423 H -0.13328 0.65965 -0.24660
 H424 H -0.04329 0.68441 -0.17742
 H425 H -0.16365 0.57463 -0.17371
 C426 C 0.09424 0.63570 0.16770
 C427 C 0.15556 0.64705 0.16186
 C428 C 0.14542 0.70791 0.16759
 C429 C 0.08452 0.69696 0.17378
 C430 C 0.13738 0.71516 0.10578
 C431 C 0.14702 0.65387 0.09962
 C432 C 0.08636 0.64323 0.10614
 C433 C 0.07639 0.70401 0.11180
 H434 H 0.07602 0.60263 0.19279
 H435 H 0.18845 0.62403 0.18292
 H436 H 0.05719 0.71377 0.20364
 H437 H 0.15535 0.74824 0.08048
 H438 H 0.17211 0.63575 0.06855
 H439 H 0.04362 0.72737 0.09090
 C440 C 0.38255 1.16108 0.90413
 C441 C 0.35872 1.15057 0.84651
 C442 C 0.30159 1.15840 0.86735
 C443 C 0.32463 1.16954 0.92466
 C444 C 0.29643 1.09750 0.88156
 C445 C 0.35363 1.08946 0.86086
 C446 C 0.37680 1.10024 0.91807
 C447 C 0.31979 1.10812 0.93890
 H448 H 0.41846 1.18679 0.91390
 H449 H 0.37431 1.16821 0.80811
 H450 H 0.31268 1.20266 0.95111
 H451 H 0.26080 1.07127 0.87208
 H452 H 0.36587 1.05613 0.83475
 H453 H 0.30385 1.09008 0.97681
 C454 C 0.34941 0.82984 1.10496
 C455 C 0.35655 0.79309 1.15654
 C456 C 0.31096 0.82374 1.18288
 C457 C 0.30354 0.85999 1.13163
 C458 C 0.35188 0.86454 1.20719
 C459 C 0.39823 0.83448 1.18044
 C460 C 0.39020 0.87061 1.12931
 C461 C 0.34448 0.90086 1.15576
 H462 H 0.34874 0.81578 1.06263
 H463 H 0.36103 0.74840 1.15733
 H464 H 0.26422 0.87059 1.11173
 H465 H 0.35334 0.87890 1.24940
 H466 H 0.43779 0.82423 1.19997
 H467 H 0.33956 0.94553 1.15516
 C468 C 0.65431 1.09676 1.15018
 C469 C 0.70478 1.12479 1.12713
 C470 C 0.68992 1.17683 1.15583
 C471 C 0.63934 1.14888 1.17877
 C472 C 0.65739 1.19665 1.10511
 C473 C 0.67175 1.14378 1.07617
 C474 C 0.62132 1.11595 1.09954
 C475 C 0.60614 1.16796 1.12794
 H476 H 0.65333 1.05532 1.16886
 H477 H 0.74561 1.10695 1.12720
 H478 H 0.62609 1.15092 1.22120
 H479 H 0.65887 1.23821 1.08684
 H480 H 0.68468 1.14136 1.03368
 H481 H 0.56518 1.18547 1.12775
 C482 C 0.64754 0.90993 0.85356
 C483 C 0.69590 0.87867 0.87827
 C484 C 0.68223 0.83176 0.84029
 C485 C 0.63383 0.86289 0.81539
 C486 C 0.64606 0.80473 0.88330
 C487 C 0.65959 0.85216 0.92150
 C488 C 0.61126 0.88339 0.89669
 C489 C 0.59692 0.83659 0.85884
 H490 H 0.64812 0.95359 0.84138
 H491 H 0.73681 0.89619 0.88608
 H492 H 0.62361 0.86728 0.77145
 H493 H 0.64546 0.76109 0.89539
 H494 H 0.66993 0.84766 0.96540
 H495 H 0.55576 0.81958 0.85137
   
