data_POSCAR
  _audit_creation_date              2014-09-24
  _audit_creation_method            'ToBaCCo'
  _symmetry_space_group_name_H-M    'P1'
  _symmetry_Int_Tables_number       1
  _symmetry_cell_setting            triclinic
  loop_
  _symmetry_equiv_pos_as_xyz
 x,y,z
_cell_length_a 37.5054
_cell_length_b 36.4899
_cell_length_c 33.6377
_cell_angle_alpha 89.958900
_cell_angle_beta 89.908600
_cell_angle_gamma 89.904300
loop_
  _atom_site_label
  _atom_site_type_symbol
  _atom_site_fract_x
  _atom_site_fract_y
  _atom_site_fract_z
C1 C 0.38010 0.27301 0.03080
 C2 C 0.39554 0.26260 -0.00544
 C3 C 0.38322 0.27600 -0.04227
 C4 C 0.35577 0.30316 -0.04165
 C5 C 0.33720 0.31084 -0.00572
 C6 C 0.34932 0.29557 0.03058
 C7 C 0.33054 0.30366 0.06570
 C8 C 0.30165 0.32761 0.06561
 C9 C 0.28888 0.34302 0.03006
 C10 C 0.30714 0.33493 -0.00595
 C11 C 0.34851 0.32556 -0.07466
 C12 C 0.31966 0.34952 -0.07478
 C13 C 0.29648 0.35208 -0.04196
 C14 C 0.26516 0.37424 -0.04280
 C15 C 0.24807 0.38219 -0.00670
 C16 C 0.25935 0.36740 0.02949
 H17 H 0.33783 0.29146 0.09382
 H18 H 0.29000 0.33418 0.09405
 H19 H 0.36608 0.32619 -0.10015
 H20 H 0.31674 0.36713 -0.10040
 H21 H 0.41760 0.24357 -0.00441
 H22 H 0.22417 0.39888 -0.00658
 C23 C 0.62037 0.72644 -0.03521
 C24 C 0.60825 0.73955 0.00154
 C25 C 0.62235 0.72666 0.03744
 C26 C 0.65223 0.70282 0.03660
 C27 C 0.66429 0.68851 -0.00021
 C28 C 0.64656 0.69839 -0.03581
 C29 C 0.65399 0.67823 -0.07033
 C30 C 0.68160 0.65279 -0.07119
 C31 C 0.70411 0.64762 -0.03817
 C32 C 0.69357 0.66357 -0.00142
 C33 C 0.67026 0.69272 0.07148
 C34 C 0.69855 0.66807 0.07046
 C35 C 0.71130 0.65376 0.03427
 C36 C 0.74033 0.62891 0.03286
 C37 C 0.75133 0.61468 -0.00381
 C38 C 0.73474 0.62445 -0.03982
 H39 H 0.63760 0.68077 -0.09660
 H40 H 0.68411 0.63639 -0.09774
 H41 H 0.66293 0.70401 0.10006
 H42 H 0.70979 0.66010 0.09868
 H43 H 0.58683 0.75945 0.00232
 H44 H 0.77470 0.59722 -0.00409
 C45 C 0.62837 0.27059 0.96926
 C46 C 0.61596 0.25700 1.00559
 C47 C 0.62550 0.27276 1.04199
 C48 C 0.64928 0.30296 1.04212
 C49 C 0.66451 0.31524 1.00585
 C50 C 0.65250 0.30050 0.96919
 C51 C 0.66352 0.31755 0.93381
 C52 C 0.68932 0.34488 0.93411
 C53 C 0.70520 0.35637 0.96981
 C54 C 0.69102 0.34319 1.00619
 C55 C 0.65657 0.32291 1.07682
 C56 C 0.68220 0.35045 1.07701
 C57 C 0.70242 0.35858 1.04281
 C58 C 0.73138 0.38393 1.04330
 C59 C 0.74568 0.39551 1.00671
 C60 C 0.73339 0.38214 0.97027
 H61 H 0.65176 0.31075 0.90549
 H62 H 0.69595 0.35748 0.90599
 H63 H 0.64175 0.31839 1.10394
 H64 H 0.68491 0.36612 1.10405
 H65 H 0.59882 0.23314 1.00549
 H66 H 0.76845 0.41369 1.00628
 C67 C 0.26185 0.62372 0.96536
 C68 C 0.25067 0.60810 1.00139
 C69 C 0.26576 0.61830 1.03807
 C70 C 0.29133 0.64731 1.03862
 C71 C 0.30196 0.66428 1.00248
 C72 C 0.28645 0.65312 0.96603
 C73 C 0.29529 0.67241 0.93120
 C74 C 0.32210 0.69862 0.93115
 C75 C 0.34056 0.70735 0.96615
 C76 C 0.32842 0.69243 1.00264
 C77 C 0.30561 0.66104 1.07426
 C78 C 0.33227 0.68742 1.07428
 C79 C 0.34330 0.70486 1.03904
 C80 C 0.37001 0.73281 1.03868
 C81 C 0.38420 0.74372 1.00176
 C82 C 0.37040 0.73104 0.96567
 H83 H 0.28148 0.66754 0.90351
 H84 H 0.32784 0.71240 0.90340
 H85 H 0.29634 0.65198 1.10299
 H86 H 0.34472 0.69278 1.10253
 H87 H 0.23250 0.58506 1.00029
 H88 H 0.40595 0.76313 1.00076
 C89 C 0.03213 0.25365 0.36797
 C90 C 0.00058 0.23687 0.38072
 C91 C -0.03290 0.24746 0.36605
 C92 C -0.03505 0.27808 0.33984
 C93 C -0.00335 0.29582 0.32714
 C94 C 0.03026 0.28390 0.34160
 C95 C 0.06084 0.30383 0.33081
 C96 C 0.05908 0.33187 0.30292
 C97 C 0.02643 0.34226 0.28586
 C98 C -0.00526 0.32621 0.30053
 C99 C -0.06794 0.29309 0.32790
 C100 C -0.06971 0.32243 0.30173
 C101 C -0.03878 0.34060 0.28885
 C102 C -0.04036 0.37196 0.26362
 C103 C -0.00871 0.38393 0.24525
 C104 C 0.02452 0.36918 0.25560
 H105 H 0.08649 0.29848 0.34417
 H106 H 0.08354 0.34615 0.29592
 H107 H -0.09305 0.28332 0.33934
 H108 H -0.09589 0.33018 0.29132
 H109 H 0.00248 0.21323 0.40016
 H110 H -0.00944 0.40620 0.22397
 C111 C 0.03005 0.62612 0.73562
 C112 C -0.00285 0.61207 0.74808
 C113 C -0.03517 0.62678 0.73403
 C114 C -0.03424 0.65936 0.71049
 C115 C -0.00106 0.67503 0.69944
 C116 C 0.03109 0.65830 0.71206
 C117 C 0.06366 0.67406 0.70060
 C118 C 0.06481 0.70396 0.67520
 C119 C 0.03343 0.72141 0.66241
 C120 C 0.00005 0.70706 0.67491
 C121 C -0.06556 0.67745 0.69859
 C122 C -0.06458 0.70726 0.67301
 C123 C -0.03217 0.72370 0.66173
 C124 C -0.03083 0.75459 0.63562
 C125 C 0.00258 0.76698 0.62237
 C126 C 0.03453 0.75189 0.63632
 H127 H 0.08889 0.66325 0.71083
 H128 H 0.09084 0.71257 0.66528
 H129 H -0.09157 0.66885 0.70872
 H130 H -0.08993 0.71614 0.66150
 H131 H -0.00303 0.58670 0.76488
 H132 H 0.00399 0.79060 0.60286
 C133 C 1.03819 0.62346 0.26647
 C134 C 1.00516 0.61099 0.25250
 C135 C 0.97332 0.62871 0.26289
 C136 C 0.97456 0.66171 0.28502
 C137 C 1.00758 0.67474 0.29961
 C138 C 1.03948 0.65552 0.29045
 C139 C 1.07169 0.66859 0.30617
 C140 C 1.07237 0.69833 0.33196
 C141 C 1.04142 0.71887 0.34041
 C142 C 1.00848 0.70635 0.32460
 C143 C 0.94341 0.68179 0.29335
 C144 C 0.94403 0.71172 0.31875
 C145 C 0.97617 0.72434 0.33507
 C146 C 0.97675 0.75357 0.36265
 C147 C 1.00919 0.76521 0.37832
 C148 C 1.04182 0.74978 0.36646
 H149 H 1.09688 0.65562 0.29944
 H150 H 1.09750 0.70374 0.34626
 H151 H 0.91797 0.67432 0.28068
 H152 H 0.91875 0.72434 0.32586
 H153 H 1.00399 0.58540 0.23618
 H154 H 1.00884 0.78859 0.39816
 C155 C 1.03000 0.37270 0.73899
 C156 C 0.99732 0.38407 0.75491
 C157 C 0.96489 0.36981 0.74117
 C158 C 0.96505 0.34283 0.71083
 C159 C 0.99798 0.33029 0.69530
 C160 C 1.03023 0.34697 0.70752
 C161 C 1.06146 0.33897 0.68620
 C162 C 1.06204 0.31118 0.65809
 C163 C 1.03174 0.28942 0.65102
 C164 C 0.99872 0.30145 0.66685
 C165 C 0.93338 0.32930 0.69400
 C166 C 0.93408 0.30110 0.66617
 C167 C 0.96648 0.28534 0.65378
 C168 C 0.96759 0.25530 0.62711
 C169 C 1.00062 0.24253 0.61327
 C170 C 1.03296 0.25806 0.62598
 H171 H 1.08559 0.35469 0.69027
 H172 H 1.08640 0.30762 0.64133
 H173 H 0.90766 0.34078 0.70137
 H174 H 0.90887 0.29245 0.65388
 H175 H 0.99714 0.40356 0.77922
 H176 H 1.00099 0.21843 0.59447
 C177 C 0.25593 -0.03045 0.36347
 C178 C 0.24507 0.00388 0.37785
 C179 C 0.26062 0.03660 0.36480
 C180 C 0.28943 0.03527 0.33757
 C181 C 0.30121 0.00094 0.32270
 C182 C 0.28496 -0.03204 0.33613
 C183 C 0.30001 -0.06551 0.32384
 C184 C 0.32772 -0.06674 0.29667
 C185 C 0.34475 -0.03464 0.28367
 C186 C 0.33042 -0.00046 0.29554
 C187 C 0.30818 0.06703 0.32644
 C188 C 0.33519 0.06571 0.29815
 C189 C 0.34574 0.03233 0.28098
 C190 C 0.37238 0.03068 0.25109
 C191 C 0.38686 -0.00339 0.24038
 C192 C 0.37530 -0.03590 0.25861
 H193 H 0.29183 -0.09152 0.33586
 H194 H 0.33559 -0.09351 0.28607
 H195 H 0.30290 0.09327 0.34003
 H196 H 0.34864 0.09108 0.29113
 H197 H 0.22248 0.00544 0.39791
 H198 H 0.40884 -0.00414 0.21944
 C199 C 0.62255 -0.03997 0.73893
 C200 C 0.61169 -0.00731 0.75761
 C201 C 0.62844 0.02617 0.74982
 C202 C 0.65657 0.02788 0.72189
 C203 C 0.66659 -0.00412 0.70082
 C204 C 0.64861 -0.03771 0.70802
 C205 C 0.65523 -0.06700 0.68175
 C206 C 0.68303 -0.06566 0.65437
 C207 C 0.70448 -0.03435 0.65083
 C208 C 0.69414 -0.00233 0.67169
 C209 C 0.67429 0.06097 0.71360
 C210 C 0.70114 0.06264 0.68512
 C211 C 0.71074 0.03157 0.66288
 C212 C 0.73649 0.03341 0.63207
 C213 C 0.74938 0.00072 0.61543
 C214 C 0.73463 -0.03341 0.62531
 H215 H 0.63834 -0.09095 0.68111
 H216 H 0.68659 -0.08893 0.63488
 H217 H 0.66741 0.08614 0.72872
 H218 H 0.71459 0.08857 0.68108
 H219 H 0.59158 -0.00792 0.78075
 H220 H 0.77074 0.00196 0.59384
 C221 C 0.25826 0.97353 0.64080
 C222 C 0.24656 1.00707 0.62543
 C223 C 0.26039 1.04078 0.63879
 C224 C 0.28968 1.04008 0.66602
 C225 C 0.30050 1.00624 0.68316
 C226 C 0.28302 0.97339 0.67238
 C227 C 0.29118 0.94104 0.69313
 C228 C 0.31972 0.93971 0.71930
 C229 C 0.34130 0.97061 0.72541
 C230 C 0.33033 1.00469 0.70932
 C231 C 0.31038 1.07135 0.67436
 C232 C 0.33890 1.07001 0.70075
 C233 C 0.35019 1.03673 0.71761
 C234 C 0.38128 1.03441 0.74160
 C235 C 0.39224 1.00023 0.75628
 C236 C 0.37359 0.96811 0.74693
 H237 H 0.27578 0.91629 0.68887
 H238 H 0.32513 0.91399 0.73418
 H239 H 0.30632 1.09703 0.65917
 H240 H 0.35247 1.09547 0.70689
 H241 H 0.22620 1.00655 0.60271
 H242 H 0.41734 0.99825 0.77210
 C243 C 0.74388 0.96642 0.36031
 C244 C 0.75524 1.00021 0.37518
 C245 C 0.73819 1.03331 0.36540
 C246 C 0.70701 1.03185 0.34123
 C247 C 0.69611 0.99798 0.32433
 C248 C 0.71422 0.96509 0.33439
 C249 C 0.70113 0.93171 0.31958
 C250 C 0.67170 0.93068 0.29463
 C251 C 0.65286 0.96275 0.28490
 C252 C 0.66580 0.99676 0.29881
 C253 C 0.68414 1.06217 0.33670
 C254 C 0.65551 1.06118 0.31056
 C255 C 0.64767 1.02947 0.28857
 C256 C 0.61988 1.02875 0.25972
 C257 C 0.60574 0.99445 0.24880
 C258 C 0.62101 0.96158 0.26238
 H259 H 0.71275 0.90571 0.32766
 H260 H 0.66393 0.90423 0.28310
 H261 H 0.68705 1.08662 0.35444
 H262 H 0.63854 1.08515 0.30917
 H263 H 0.77905 1.00052 0.39336
 H264 H 0.58284 0.99303 0.22931
 O265 O 0.89285 0.84925 0.45833
 O266 O 0.83492 0.89333 0.53317
 O267 O 0.89123 0.85016 0.53662
 O268 O 0.83908 0.89371 0.45694
 O269 O 0.80386 0.84519 0.45429
 O270 O 0.85439 0.80294 0.53622
 O271 O 0.79933 0.84510 0.53201
 O272 O 0.85736 0.80092 0.45788
 Cu273 Cu 0.86842 0.87625 0.49665
 Cu274 Cu 0.82526 0.81861 0.49503
 C275 C 0.88431 0.81802 0.44474
 C276 C 0.80712 0.87670 0.54501
 C277 C 0.88115 0.81955 0.55052
 C278 C 0.81292 0.87671 0.44191
 O279 O 0.11756 0.16173 0.46106
 O280 O 0.16982 0.11539 0.53896
 O281 O 0.11663 0.16173 0.53778
 O282 O 0.17041 0.11484 0.46183
 O283 O 0.20837 0.16116 0.46102
 O284 O 0.15566 0.20713 0.53834
 O285 O 0.20780 0.16168 0.53940
 O286 O 0.15637 0.20732 0.46058
 Cu287 Cu 0.13979 0.13370 0.49985
 Cu288 Cu 0.18601 0.18892 0.49979
 C289 C 0.12822 0.19231 0.44758
 C290 C 0.19734 0.13102 0.55283
 C291 C 0.12733 0.19227 0.55114
 C292 C 0.19816 0.13025 0.44821
 O293 O 0.11682 0.84500 0.54331
 O294 O 0.16528 0.89524 0.46568
 O295 O 0.11732 0.84412 0.46572
 O296 O 0.16948 0.89285 0.54278
 O297 O 0.21023 0.84924 0.53876
 O298 O 0.15791 0.80006 0.46486
 O299 O 0.20446 0.85000 0.46153
 O300 O 0.15819 0.80178 0.54291
 Cu301 Cu 0.13804 0.87363 0.50492
 Cu302 Cu 0.18679 0.82080 0.50237
 C303 C 0.12927 0.81507 0.55640
 C304 C 0.19234 0.88060 0.44956
 C305 C 0.12955 0.81429 0.45158
 C306 C 0.19939 0.87937 0.55305
 O307 O 0.88444 0.15433 0.53863
 O308 O 0.83015 0.10765 0.46263
 O309 O 0.88631 0.14969 0.46123
 O310 O 0.82936 0.11023 0.53963
 O311 O 0.79272 0.15746 0.53435
 O312 O 0.85075 0.19803 0.45823
 O313 O 0.79599 0.15688 0.45742
 O314 O 0.84764 0.20166 0.53634
 Cu315 Cu 0.86128 0.12570 0.50105
 Cu316 Cu 0.81838 0.18358 0.49667
 C317 C 0.87489 0.18583 0.55059
 C318 C 0.80421 0.12464 0.44672
 C319 C 0.87769 0.18024 0.44598
 C320 C 0.80086 0.12669 0.54952
 O321 O 0.46197 0.87584 0.83114
 O322 O 0.53010 0.82075 0.88292
 O323 O 0.53132 0.87542 0.83240
 O324 O 0.46078 0.82023 0.88086
 O325 O 0.46354 0.78083 0.83113
 O326 O 0.53325 0.83556 0.78294
 O327 O 0.53288 0.78265 0.83189
 O328 O 0.46375 0.83650 0.78129
 Cu329 Cu 0.49573 0.85200 0.86189
 Cu330 Cu 0.49797 0.80498 0.80168
 C331 C 0.45162 0.86559 0.79704
 C332 C 0.54345 0.79284 0.86590
 C333 C 0.54460 0.86435 0.79973
 C334 C 0.45075 0.79067 0.86440
 O335 O 0.46358 0.11845 0.15601
 O336 O 0.53503 0.17635 0.11520
 O337 O 0.53330 0.11635 0.15815
 O338 O 0.46616 0.17732 0.11202
 O339 O 0.46745 0.21273 0.16525
 O340 O 0.53184 0.15040 0.21246
 O341 O 0.53625 0.20888 0.17064
 O342 O 0.46157 0.15393 0.20922
 Cu343 Cu 0.49959 0.14349 0.13002
 Cu344 Cu 0.49887 0.18463 0.19509
 C345 C 0.45000 0.12697 0.18927
 C346 C 0.54790 0.20220 0.13598
 C347 C 0.54434 0.12355 0.19294
 C348 C 0.45608 0.20589 0.13050
 O349 O 0.46847 0.17784 0.88267
 O350 O 0.53943 0.11758 0.84550
 O351 O 0.53759 0.17702 0.88784
 O352 O 0.47111 0.12217 0.83202
 O353 O 0.48144 0.15677 0.77933
 O354 O 0.54751 0.20996 0.83375
 O355 O 0.54700 0.15304 0.79277
 O356 O 0.47514 0.21359 0.83025
 Cu357 Cu 0.50306 0.14517 0.86731
 Cu358 Cu 0.51207 0.18788 0.80470
 C359 C 0.46000 0.20618 0.86314
 C360 C 0.55548 0.12511 0.81333
 C361 C 0.55454 0.20211 0.86957
 C362 C 0.46592 0.12978 0.79549
 O363 O 0.46374 0.82318 0.11960
 O364 O 0.53497 0.87224 0.17291
 O365 O 0.53349 0.81731 0.12247
 O366 O 0.46641 0.87525 0.17387
 O367 O 0.46514 0.83480 0.22282
 O368 O 0.52807 0.77613 0.17022
 O369 O 0.53237 0.83090 0.22087
 O370 O 0.45823 0.78486 0.17013
 Cu371 Cu 0.49999 0.85081 0.14196
 Cu372 Cu 0.49602 0.80211 0.20042
 C373 C 0.44821 0.79643 0.13634
 C374 C 0.54492 0.86045 0.20660
 C375 C 0.54187 0.78661 0.13778
 C376 C 0.45538 0.86507 0.20795
 O377 O 0.88189 0.53593 0.82525
 O378 O 0.83018 0.46837 0.88380
 O379 O 0.88262 0.46515 0.83338
 O380 O 0.82973 0.53910 0.87825
 O381 O 0.79158 0.53616 0.82835
 O382 O 0.84241 0.45917 0.78577
 O383 O 0.79093 0.46443 0.83498
 O384 O 0.84315 0.52990 0.77633
 Cu385 Cu 0.86006 0.50289 0.86010
 Cu386 Cu 0.81300 0.49739 0.80144
 C387 C 0.87149 0.54371 0.79029
 C388 C 0.80213 0.45458 0.86887
 C389 C 0.87105 0.44908 0.80259
 C390 C 0.80162 0.55007 0.86106
 O391 O 0.16678 0.46032 0.11322
 O392 O 0.12005 0.53220 0.17153
 O393 O 0.17191 0.53152 0.11752
 O394 O 0.11125 0.46231 0.16003
 O395 O 0.14924 0.45169 0.20898
 O396 O 0.20980 0.52054 0.16616
 O397 O 0.15607 0.51998 0.22171
 O398 O 0.20119 0.44804 0.16494
 Cu399 Cu 0.13887 0.49794 0.13558
 Cu400 Cu 0.18348 0.48603 0.19486
 C401 C 0.19125 0.44142 0.12971
 C402 C 0.12968 0.53728 0.20737
 C403 C 0.20183 0.53682 0.13395
 C404 C 0.12029 0.44474 0.19100
 O405 O 0.83453 0.54066 0.12052
 O406 O 0.88028 0.46790 0.17696
 O407 O 0.82912 0.46945 0.12391
 O408 O 0.88441 0.53860 0.17535
 O409 O 0.84329 0.54223 0.22231
 O410 O 0.78939 0.47272 0.17238
 O411 O 0.83977 0.47254 0.22450
 O412 O 0.79402 0.54503 0.16809
 Cu413 Cu 0.86101 0.50379 0.14417
 Cu414 Cu 0.81215 0.50869 0.20122
 C415 C 0.80673 0.55536 0.13493
 C416 C 0.86815 0.45840 0.21070
 C417 C 0.80023 0.45890 0.14000
 C418 C 0.87338 0.55140 0.20830
 O419 O 0.11520 0.46560 0.83341
 O420 O 0.17025 0.53753 0.87931
 O421 O 0.11817 0.53624 0.82588
 O422 O 0.17207 0.46585 0.87838
 O423 O 0.20651 0.46018 0.82527
 O424 O 0.15444 0.53004 0.77451
 O425 O 0.20806 0.53299 0.82927
 O426 O 0.15315 0.46111 0.78321
 Cu427 Cu 0.14032 0.50199 0.85945
 Cu428 Cu 0.18478 0.49761 0.79870
 C429 C 0.12505 0.45078 0.80109
 C430 C 0.19919 0.54667 0.86261
 C431 C 0.12687 0.54395 0.79025
 C432 C 0.19790 0.45049 0.86009
 N433 N 0.20899 0.37627 0.12052
 N434 N 0.22702 0.35651 0.09436
 C435 C 0.23915 0.37894 0.06545
 C436 C 0.22700 0.41426 0.07288
 C437 C 0.20829 0.41132 0.10806
 H438 H 0.23154 0.43873 0.05539
 H439 H 0.19674 0.36571 0.14597
 H440 H 0.22984 0.32807 0.09585
 N441 N 0.79008 0.62047 0.12409
 N442 N 0.77312 0.64009 0.09700
 C443 C 0.76049 0.61732 0.06875
 C444 C 0.77103 0.58177 0.07763
 C445 C 0.78926 0.58505 0.11312
 H446 H 0.76599 0.55706 0.06078
 H447 H 0.80274 0.63134 0.14907
 H448 H 0.77109 0.66864 0.09752
 N449 N 0.77915 0.39142 0.87645
 N450 N 0.76130 0.37210 0.90305
 C451 C 0.75248 0.39416 0.93373
 C452 C 0.76663 0.42878 0.92687
 C453 C 0.78295 0.42578 0.89018
 H454 H 0.76508 0.45276 0.94572
 H455 H 0.78938 0.38090 0.84990
 H456 H 0.75640 0.34403 0.90056
 N457 N 0.25710 0.57884 0.87007
 N458 N 0.27369 0.59863 0.89716
 C459 C 0.25106 0.60558 0.92750
 C460 C 0.21870 0.58860 0.91948
 C461 C 0.22369 0.57210 0.88269
 H462 H 0.19545 0.58700 0.93849
 H463 H 0.26917 0.56865 0.84433
 H464 H 0.30069 0.60543 0.89564
 N465 N 0.12052 0.21605 0.37910
 N466 N 0.09517 0.23180 0.35785
 C467 C 0.06644 0.23737 0.38133
 C468 C 0.07346 0.22319 0.41880
 C469 C 0.10805 0.21038 0.41607
 H470 H 0.05601 0.22250 0.44445
 H471 H 0.14550 0.20842 0.36808
 H472 H 0.09737 0.23757 0.32753
 N473 N 0.12114 0.79371 0.62584
 N474 N 0.09584 0.77801 0.64726
 C475 C 0.06842 0.76922 0.62315
 C476 C 0.07619 0.78112 0.58494
 C477 C 0.10998 0.79592 0.58795
 H478 H 0.05953 0.77952 0.55876
 H479 H 0.14497 0.80397 0.63734
 H480 H 0.09704 0.77456 0.67806
 N481 N 0.89657 0.80682 0.37338
 N482 N 0.92060 0.78956 0.35153
 C483 C 0.94426 0.77323 0.37595
 C484 C 0.93530 0.78111 0.41508
 C485 C 0.90482 0.80219 0.41198
 H486 H 0.94921 0.77300 0.44186
 H487 H 0.87528 0.82199 0.36197
 H488 H 0.92124 0.78989 0.32049
 N489 N 0.88460 0.20619 0.62000
 N490 N 0.90893 0.22442 0.64028
 C491 C 0.93514 0.23483 0.61518
 C492 C 0.92761 0.22162 0.57744
 C493 C 0.89523 0.20400 0.58189
 H494 H 0.94321 0.22476 0.55055
 H495 H 0.86141 0.19506 0.63225
 H496 H 0.90778 0.22895 0.67091
 N497 N 0.38575 0.11742 0.20243
 N498 N 0.36516 0.09191 0.21816
 C499 C 0.38589 0.06402 0.23088
 C500 C 0.42119 0.07174 0.22187
 C501 C 0.41979 0.10597 0.20432
 H502 H 0.44455 0.05523 0.22794
 H503 H 0.37653 0.14202 0.19028
 H504 H 0.33739 0.09358 0.21977
 N505 N 0.61833 0.10410 0.81396
 N506 N 0.63768 0.07802 0.79725
 C507 C 0.61662 0.05856 0.77270
 C508 C 0.58229 0.07256 0.77403
 C509 C 0.58474 0.10158 0.80026
 H510 H 0.55891 0.06283 0.75848
 H511 H 0.62794 0.12301 0.83463
 H512 H 0.66465 0.07336 0.80310
 N513 N 0.41384 0.87901 0.73839
 N514 N 0.39336 0.90583 0.72533
 C515 C 0.39146 0.93222 0.75334
 C516 C 0.41229 0.92187 0.78555
 C517 C 0.42581 0.88784 0.77481
 H518 H 0.41779 0.93738 0.81225
 H519 H 0.42034 0.85565 0.72196
 H520 H 0.38222 0.90659 0.69690
 N521 N 0.57762 0.87398 0.26877
 N522 N 0.59675 0.90093 0.28373
 C523 C 0.60195 0.92654 0.25538
 C524 C 0.58459 0.91568 0.22095
 C525 C 0.56975 0.88203 0.23074
 H526 H 0.58219 0.93058 0.19325
 H527 H 0.56895 0.85125 0.28498
 H528 H 0.60498 0.90221 0.31335
 N529 N 0.40409 0.24283 0.85912
 N530 N 0.38208 0.26141 0.88592
 C531 C 0.39810 0.26133 0.92201
 C532 C 0.42983 0.24137 0.91872
 C533 C 0.43253 0.23066 0.87937
 H534 H 0.44904 0.23506 0.94167
 H535 H 0.39775 0.23713 0.82954
 H536 H 0.35594 0.26910 0.87932
 N537 N 0.60377 0.76529 0.86787
 N538 N 0.62431 0.74830 0.89389
 C539 C 0.60576 0.74335 0.92792
 C540 C 0.57230 0.75928 0.92361
 C541 C 0.57221 0.77250 0.88515
 H542 H 0.55092 0.76096 0.94517
 H543 H 0.61179 0.77298 0.83930
 H544 H 0.65099 0.74163 0.88863
 N545 N 0.38627 0.77301 0.13467
 N546 N 0.36416 0.75571 0.10722
 C547 C 0.38315 0.75003 0.07357
 C548 C 0.41692 0.76555 0.07838
 C549 C 0.41781 0.77888 0.11688
 H550 H 0.43884 0.76575 0.05743
 H551 H 0.37883 0.78080 0.16338
 H552 H 0.33683 0.75192 0.11145
 N553 N 0.60704 0.23300 0.13826
 N554 N 0.62786 0.25124 0.11342
 C555 C 0.61042 0.25590 0.07867
 C556 C 0.57751 0.23874 0.08136
 C557 C 0.57647 0.22481 0.11943
 H558 H 0.55722 0.23627 0.05867
 H559 H 0.61437 0.22491 0.16690
 H560 H 0.65412 0.25863 0.11980
 N561 N 0.22701 0.13144 0.61859
 N562 N 0.24396 0.10602 0.64312
 C563 C 0.24512 0.07358 0.62373
 C564 C 0.22722 0.07747 0.58757
 C565 C 0.21698 0.11382 0.58543
 H566 H 0.22316 0.05706 0.56471
 H567 H 0.22187 0.15875 0.62593
 H568 H 0.25055 0.11109 0.67276
 N569 N 0.76902 0.12498 0.38436
 N570 N 0.75078 0.09942 0.36132
 C571 C 0.75335 0.06645 0.37950
 C572 C 0.77472 0.07026 0.41321
 C573 C 0.78337 0.10703 0.41532
 H574 H 0.78187 0.04947 0.43473
 H575 H 0.77154 0.15282 0.37770
 H576 H 0.74048 0.10506 0.33316
 N577 N 0.77192 0.87668 0.60748
 N578 N 0.75328 0.90026 0.62890
 C579 C 0.75203 0.93272 0.60959
 C580 C 0.77213 0.92978 0.57492
 C581 C 0.78391 0.89384 0.57474
 H582 H 0.77741 0.95061 0.55279
 H583 H 0.77740 0.84972 0.61598
 H584 H 0.74298 0.89431 0.65702
 N585 N 0.21360 0.88264 0.38003
 N586 N 0.23062 0.90789 0.35541
 C587 C 0.23737 0.93824 0.37712
 C588 C 0.22282 0.93374 0.41497
 C589 C 0.20918 0.89858 0.41567
 H590 H 0.22375 0.95274 0.43965
 H591 H 0.20523 0.85652 0.37153
 H592 H 0.23421 0.90433 0.32486
 N593 N 0.11779 0.38650 0.77951
 N594 N 0.09277 0.36573 0.76373
 C595 C 0.06339 0.38636 0.75748
 C596 C 0.06962 0.42156 0.77146
 C597 C 0.10454 0.42040 0.78465
 H598 H 0.05178 0.44490 0.77096
 H599 H 0.14331 0.37740 0.78709
 H600 H 0.09584 0.33780 0.75785
 N601 N 0.11586 0.56562 0.27276
 N602 N 0.09184 0.58786 0.28839
 C603 C 0.06999 0.59988 0.25938
 C604 C 0.08013 0.58365 0.22367
 C605 C 0.10960 0.56238 0.23350
 H606 H 0.06739 0.58629 0.19496
 H607 H 0.13548 0.55201 0.28912
 H608 H 0.08981 0.59356 0.31874
 N609 N 0.87710 0.42126 0.27155
 N610 N 0.90270 0.39720 0.28635
 C611 C 0.92799 0.39254 0.25811
 C612 C 0.91938 0.41433 0.22537
 C613 C 0.88737 0.43134 0.23486
 H614 H 0.93437 0.41760 0.19808
 H615 H 0.85492 0.43068 0.28737
 H616 H 0.90354 0.38840 0.31588
 N617 N 0.88162 0.57884 0.72830
 N618 N 0.90741 0.60218 0.71271
 C619 C 0.93316 0.60650 0.74033
 C620 C 0.92477 0.58503 0.77346
 C621 C 0.89213 0.56883 0.76493
 H622 H 0.94016 0.58189 0.80045
 H623 H 0.85871 0.57038 0.71330
 H624 H 0.90783 0.61107 0.68319
 N625 N 0.76596 0.60750 0.86044
 N626 N 0.74769 0.62866 0.88838
 C627 C 0.74997 0.61162 0.92405
 C628 C 0.77126 0.58049 0.91963
 C629 C 0.78015 0.57880 0.87976
 H630 H 0.77839 0.56049 0.94203
 H631 H 0.76885 0.61393 0.83035
 H632 H 0.73777 0.65485 0.88249
 N633 N 0.23321 0.39311 0.85860
 N634 N 0.25232 0.37183 0.88561
 C635 C 0.24960 0.38781 0.92173
 C636 C 0.22741 0.41849 0.91851
 C637 C 0.21828 0.42094 0.87883
 H638 H 0.22023 0.43791 0.94149
 H639 H 0.23099 0.38777 0.82821
 H640 H 0.26345 0.34637 0.87875
 N641 N 0.26172 0.56544 0.12826
 N642 N 0.27971 0.58784 0.10131
 C643 C 0.25665 0.59744 0.07225
 C644 C 0.22402 0.58029 0.07960
 C645 C 0.22820 0.56111 0.11500
 H646 H 0.20021 0.58146 0.06149
 H647 H 0.27329 0.55295 0.15304
 H648 H 0.30725 0.59196 0.10170
 N649 N 0.76768 0.39992 0.14079
 N650 N 0.74865 0.37866 0.11374
 C651 C 0.74777 0.39681 0.07867
 C652 C 0.76769 0.42897 0.08249
 C653 C 0.77915 0.42988 0.12149
 H654 H 0.77235 0.44996 0.06034
 H655 H 0.77288 0.39276 0.17028
 H656 H 0.74069 0.35176 0.11939
 N657 N 0.88426 0.79797 0.62011
 N658 N 0.90888 0.77989 0.64417
 C659 C 0.93851 0.77366 0.62229
 C660 C 0.93405 0.78953 0.58484
 C661 C 0.89972 0.80355 0.58459
 H662 H 0.95247 0.78890 0.56003
 H663 H 0.85848 0.80550 0.62864
 H664 H 0.90529 0.77514 0.67453
 N665 N 0.88434 0.19935 0.37607
 N666 N 0.90924 0.21861 0.35356
 C667 C 0.93716 0.22647 0.37736
 C668 C 0.93151 0.21067 0.41458
 C669 C 0.89806 0.19485 0.41261
 H670 H 0.94821 0.21293 0.44068
 H671 H 0.85920 0.19116 0.36621
 H672 H 0.90682 0.22374 0.32313
 N673 N 0.12199 0.22305 0.61607
 N674 N 0.09548 0.24131 0.63724
 C675 C 0.06535 0.24080 0.61520
 C676 C 0.07157 0.22034 0.58090
 C677 C 0.10722 0.21061 0.58241
 H678 H 0.05337 0.21527 0.55659
 H679 H 0.14844 0.21994 0.62518
 H680 H 0.09865 0.25094 0.66625
 N681 N 0.12895 0.78656 0.38470
 N682 N 0.10451 0.76835 0.36068
 C683 C 0.07336 0.76633 0.38077
 C684 C 0.07694 0.78489 0.41684
 C685 C 0.11193 0.79643 0.41820
 H686 H 0.05730 0.78794 0.44023
 H687 H 0.15554 0.79169 0.37733
 H688 H 0.10932 0.76130 0.33107
 N689 N 0.60384 0.86711 0.76784
 N690 N 0.62573 0.89369 0.75094
 C691 C 0.60859 0.92628 0.75304
 C692 C 0.57636 0.92116 0.77331
 C693 C 0.57438 0.88396 0.78133
 H694 H 0.55602 0.94135 0.77983
 H695 H 0.61000 0.83926 0.77003
 H696 H 0.65206 0.88882 0.74232
 N697 N 0.42273 0.87964 0.26944
 N698 N 0.40062 0.90722 0.28369
 C699 C 0.39585 0.93191 0.25426
 C700 C 0.41608 0.92135 0.22129
 C701 C 0.43171 0.88821 0.23188
 H702 H 0.41842 0.93532 0.19301
 H703 H 0.43113 0.85695 0.28591
 H704 H 0.39230 0.90925 0.31325
 N705 N 0.60567 0.11820 0.21797
 N706 N 0.62674 0.09200 0.23671
 C707 C 0.60717 0.06115 0.24109
 C708 C 0.57386 0.06671 0.22331
 C709 C 0.57404 0.10279 0.21002
 H710 H 0.55162 0.04790 0.22210
 H711 H 0.61350 0.14504 0.21163
 H712 H 0.65372 0.09570 0.24309
 N713 N 0.44027 0.11119 0.73077
 N714 N 0.41837 0.08623 0.71651
 C715 C 0.40572 0.06595 0.74687
 C716 C 0.42114 0.07795 0.78212
 C717 C 0.44259 0.10705 0.77048
 H718 H 0.41736 0.06703 0.81174
 H719 H 0.45392 0.13027 0.71330
 H720 H 0.41288 0.08275 0.68631
 N721 N 0.57410 0.72764 0.12975
 N722 N 0.59546 0.71189 0.10362
 C723 C 0.60331 0.73627 0.07475
 C724 C 0.58546 0.76888 0.08267
 C725 C 0.56732 0.76216 0.11778
 H726 H 0.58452 0.79342 0.06460
 H727 H 0.56318 0.71430 0.15440
 H728 H 0.60275 0.68427 0.10457
 N729 N 0.42459 0.26578 0.12536
 N730 N 0.40471 0.28348 0.09923
 C731 C 0.39809 0.26118 0.06814
 C732 C 0.41529 0.22793 0.07462
 C733 C 0.43166 0.23202 0.11125
 H734 H 0.41683 0.20459 0.05485
 H735 H 0.43436 0.27731 0.15157
 H736 H 0.39745 0.31102 0.10192
 N737 N 0.61605 0.22674 0.87411
 N738 N 0.63585 0.24436 0.90034
 C739 C 0.61569 0.25196 0.93257
 C740 C 0.58195 0.23715 0.92706
 C741 C 0.58333 0.22179 0.88962
 H742 H 0.55947 0.23770 0.94728
 H743 H 0.62523 0.21726 0.84664
 H744 H 0.66297 0.24975 0.89652
 N745 N 0.41683 0.73264 0.87185
 N746 N 0.39591 0.71688 0.89841
 C747 C 0.38956 0.74071 0.92826
 C748 C 0.40797 0.77299 0.92044
 C749 C 0.42482 0.76666 0.88438
 H750 H 0.41002 0.79708 0.93904
 H751 H 0.42669 0.71957 0.84648
 H752 H 0.38779 0.68955 0.89690
 N753 N 0.79312 0.88213 0.37177
 N754 N 0.77569 0.90626 0.34978
 C755 C 0.76361 0.93334 0.37359
 C756 C 0.77493 0.92673 0.41210
 C757 C 0.79305 0.89391 0.40965
 H758 H 0.77096 0.94367 0.43815
 H759 H 0.80606 0.85891 0.36069
 H760 H 0.77341 0.90472 0.31888
 N761 N 0.25603 0.88721 0.58953
 N762 N 0.27151 0.91175 0.61242
 C763 C 0.24828 0.93920 0.61975
 C764 C 0.21662 0.93197 0.59969
 C765 C 0.22277 0.89864 0.58105
 H766 H 0.19308 0.94905 0.59768
 H767 H 0.26872 0.86377 0.57862
 H768 H 0.29823 0.91041 0.62098
 N769 N 0.22323 0.12658 0.38017
 N770 N 0.23895 0.10166 0.35766
 C771 C 0.24512 0.07144 0.37981
 C772 C 0.23149 0.07704 0.41767
 C773 C 0.21828 0.11231 0.41661
 H774 H 0.23075 0.05799 0.44234
 H775 H 0.21455 0.15218 0.37013
 H776 H 0.24378 0.10493 0.32728
 N777 N 0.74297 0.12170 0.58502
 N778 N 0.72594 0.09709 0.60665
 C779 C 0.74812 0.06877 0.61422
 C780 C 0.78066 0.07567 0.59595
 C781 C 0.77617 0.10939 0.57772
 H782 H 0.80361 0.05774 0.59398
 H783 H 0.73124 0.14544 0.57357
 H784 H 0.69884 0.09875 0.61363
 N785 N 0.88757 0.58559 0.26959
 N786 N 0.91388 0.60529 0.28415
 C787 C 0.93914 0.60936 0.25594
 C788 C 0.92881 0.59039 0.22206
 C789 C 0.89570 0.57605 0.23201
 H790 H 0.94347 0.58701 0.19457
 H791 H 0.86498 0.57787 0.28573
 H792 H 0.91486 0.61474 0.31344
 N793 N 0.87918 0.38324 0.78724
 N794 N 0.90415 0.36203 0.77174
 C795 C 0.93169 0.38326 0.76011
 C796 C 0.92444 0.41936 0.76994
 C797 C 0.89082 0.41806 0.78653
 H798 H 0.94105 0.44322 0.76526
 H799 H 0.85503 0.37385 0.79892
 H800 H 0.90250 0.33350 0.77008
 N801 N 0.11044 0.57326 0.72658
 N802 N 0.08493 0.59424 0.71213
 C803 C 0.06244 0.60342 0.74178
 C804 C 0.07367 0.58661 0.77670
 C805 C 0.10453 0.56806 0.76566
 H806 H 0.06110 0.58749 0.80566
 H807 H 0.13104 0.56201 0.70955
 H808 H 0.08267 0.60144 0.68217
 N809 N 0.10863 0.37948 0.20537
 N810 N 0.08342 0.35946 0.22202
 C811 C 0.05670 0.38175 0.23381
 C812 C 0.06476 0.41750 0.22288
 C813 C 0.09807 0.41470 0.20538
 H814 H 0.04939 0.44211 0.22842
 H815 H 0.13263 0.36912 0.19423
 H816 H 0.08470 0.33102 0.22523
   
