data_POSCAR
  _audit_creation_date              2014-09-24
  _audit_creation_method            'ToBaCCo'
  _symmetry_space_group_name_H-M    'P1'
  _symmetry_Int_Tables_number       1
  _symmetry_cell_setting            triclinic
  loop_
  _symmetry_equiv_pos_as_xyz
 x,y,z
_cell_length_a 41.8188
_cell_length_b 50.3482
_cell_length_c 43.9250
_cell_angle_alpha 87.993400
_cell_angle_beta 90.375200
_cell_angle_gamma 86.668200
loop_
  _atom_site_label
  _atom_site_type_symbol
  _atom_site_fract_x
  _atom_site_fract_y
  _atom_site_fract_z
C1 C 1.18602 0.26150 0.26785
 H2 H 1.18267 0.24034 0.26841
 C3 C 1.16559 0.27851 0.28429
 H4 H 1.14633 0.27042 0.29738
 C5 C 1.21565 0.29778 0.25067
 H6 H 1.23542 0.30519 0.23788
 C7 C 1.19620 0.31539 0.26724
 H8 H 1.20079 0.33634 0.26642
 N9 N 1.21019 0.27139 0.25113
 C10 C 1.23283 0.21007 0.18548
 H11 H 1.25864 0.20865 0.18784
 C12 C 1.21779 0.19361 0.16562
 H13 H 1.23218 0.17952 0.15264
 C14 C 1.18271 0.23009 0.19970
 H15 H 1.16912 0.24465 0.21256
 C16 C 1.16665 0.21383 0.18028
 H17 H 1.14083 0.21625 0.17843
 Zn18 Zn 1.23803 0.24732 0.23037
 N19 N 1.21517 0.22744 0.20253
 C20 C 1.25222 0.19774 0.26133
 N21 N 1.25822 0.22401 0.26038
 C22 C 1.27697 0.23432 0.28188
 C23 C 1.29193 0.21780 0.30460
 C24 C 1.26613 0.18059 0.28397
 C25 C 1.25661 0.28283 0.18471
 C26 C 1.27691 0.29862 0.16780
 C27 C 1.32146 0.27968 0.19817
 C28 C 1.30028 0.26409 0.21431
 N29 N 1.26838 0.26637 0.20780
 H30 H 1.23629 0.19004 0.24478
 H31 H 1.28035 0.25547 0.28132
 H32 H 1.30652 0.22686 0.32127
 H33 H 1.26103 0.15972 0.28414
 H34 H 1.23115 0.28410 0.17986
 H35 H 1.26613 0.31190 0.15033
 H36 H 1.34669 0.27786 0.20418
 H37 H 1.30941 0.25040 0.23218
 C38 C 1.18428 0.19492 0.16340
 C39 C 1.17090 0.30571 0.28443
 C40 C 1.30999 0.29746 0.17465
 C41 C 1.28681 0.19034 0.30573
 C42 C 0.68563 -0.23573 0.27253
 H43 H 0.68121 -0.25670 0.27281
 C44 C 0.66580 -0.21820 0.28894
 H45 H 0.64589 -0.22570 0.30160
 C46 C 0.71744 -0.20051 0.25638
 H47 H 0.73786 -0.19372 0.24405
 C48 C 0.69863 -0.18242 0.27296
 H49 H 0.70434 -0.16171 0.27255
 N50 N 0.71065 -0.22661 0.25638
 C51 C 0.73349 -0.28896 0.19175
 H52 H 0.75923 -0.29050 0.19479
 C53 C 0.71893 -0.30546 0.17161
 H54 H 0.73364 -0.31971 0.15915
 C55 C 0.68311 -0.26855 0.20449
 H56 H 0.66926 -0.25385 0.21694
 C57 C 0.66750 -0.28485 0.18472
 H58 H 0.64176 -0.28227 0.18216
 Zn59 Zn 0.73817 -0.25143 0.23621
 N60 N 0.71548 -0.27133 0.20816
 C61 C 0.75082 -0.30090 0.26787
 N62 N 0.75746 -0.27478 0.26667
 C63 C 0.77668 -0.26467 0.28793
 C64 C 0.79176 -0.28136 0.31043
 C65 C 0.76475 -0.31819 0.29037
 C66 C 0.75861 -0.21666 0.19057
 C67 C 0.77982 -0.20192 0.17343
 C68 C 0.82340 -0.22206 0.20420
 C69 C 0.80133 -0.23662 0.22050
 N70 N 0.76950 -0.23328 0.21387
 H71 H 0.73451 -0.30841 0.25153
 H72 H 0.78056 -0.24360 0.28719
 H73 H 0.80688 -0.27251 0.32684
 H74 H 0.75926 -0.33897 0.29067
 H75 H 0.73319 -0.21453 0.18561
 H76 H 0.76977 -0.18846 0.15577
 H77 H 0.84857 -0.22478 0.21025
 H78 H 0.80977 -0.25047 0.23848
 C79 C 0.68551 -0.30397 0.16840
 C80 C 0.67255 -0.19129 0.28965
 C81 C 0.81292 -0.20431 0.18029
 C82 C 0.78621 -0.30873 0.31163
 C83 C 0.68756 0.26532 -0.22848
 H84 H 0.68386 0.24431 -0.22985
 C85 C 0.66725 0.28131 -0.21075
 H86 H 0.64762 0.27262 -0.19878
 C87 C 0.71822 0.30210 -0.24168
 H88 H 0.73841 0.31003 -0.25338
 C89 C 0.69895 0.31866 -0.22361
 H90 H 0.70402 0.33943 -0.22220
 N91 N 0.71220 0.27595 -0.24383
 C92 C 0.73633 0.21718 -0.31229
 H93 H 0.76210 0.21588 -0.30947
 C94 C 0.72187 0.20099 -0.33286
 H95 H 0.73667 0.18727 -0.34595
 C96 C 0.68573 0.23641 -0.29831
 H97 H 0.67172 0.25049 -0.28515
 C98 C 0.67024 0.22036 -0.31842
 H99 H 0.64442 0.22250 -0.32056
 Zn100 Zn 0.74035 0.25270 -0.26539
 N101 N 0.71816 0.23397 -0.29496
 C102 C 0.75294 0.20199 -0.23651
 N103 N 0.75925 0.22816 -0.23600
 C104 C 0.77716 0.23759 -0.21329
 C105 C 0.79088 0.22027 -0.19066
 C106 C 0.76563 0.18405 -0.21405
 C107 C 0.76134 0.28998 -0.30820
 C108 C 0.78285 0.30550 -0.32398
 C109 C 0.82591 0.28394 -0.29370
 C110 C 0.80356 0.26865 -0.27875
 N111 N 0.77186 0.27221 -0.28585
 H112 H 0.73762 0.19500 -0.25403
 H113 H 0.78077 0.25868 -0.21276
 H114 H 0.80478 0.22867 -0.17297
 H115 H 0.76029 0.16329 -0.21501
 H116 H 0.73601 0.29232 -0.31352
 H117 H 0.77307 0.31976 -0.34098
 H118 H 0.85098 0.28092 -0.28737
 H119 H 0.81169 0.25399 -0.26146
 C120 C 0.68840 0.20192 -0.33549
 C121 C 0.67319 0.30819 -0.20780
 C122 C 0.81585 0.30273 -0.31674
 C123 C 0.78539 0.19291 -0.19096
 C124 C 1.17898 -0.22283 -0.25075
 H125 H 1.16833 -0.23737 -0.26447
 C126 C 1.15919 -0.20474 -0.23512
 H127 H 1.13342 -0.20530 -0.23731
 C128 C 1.22524 -0.20479 -0.23022
 H129 H 1.25107 -0.20502 -0.22849
 C130 C 1.20637 -0.18646 -0.21412
 H131 H 1.21806 -0.17230 -0.20054
 N132 N 1.21139 -0.22235 -0.24827
 C133 C 1.21900 -0.29728 -0.28329
 H134 H 1.23622 -0.30496 -0.26631
 C135 C 1.19928 -0.31477 -0.29723
 H136 H 1.20128 -0.33559 -0.29013
 C137 C 1.19506 -0.26080 -0.31236
 H138 H 1.19338 -0.23965 -0.31785
 C139 C 1.17464 -0.27758 -0.32672
 H140 H 1.15739 -0.26928 -0.34347
 Zn141 Zn 1.23958 -0.24678 -0.26799
 N142 N 1.21599 -0.27073 -0.29039
 C143 C 1.24647 -0.27861 -0.21504
 N144 N 1.26354 -0.26555 -0.23646
 C145 C 1.29598 -0.26543 -0.23448
 C146 C 1.31266 -0.28014 -0.21127
 C147 C 1.26209 -0.29352 -0.19144
 C148 C 1.26088 -0.20144 -0.29963
 C149 C 1.28164 -0.18670 -0.31725
 C150 C 1.31383 -0.22719 -0.32533
 C151 C 1.29195 -0.24123 -0.30809
 N152 N 1.26670 -0.22809 -0.29476
 H153 H 1.22060 -0.27780 -0.21668
 H154 H 1.30912 -0.25395 -0.25079
 H155 H 1.33841 -0.27958 -0.21088
 H156 H 1.24789 -0.30423 -0.17510
 H157 H 1.24028 -0.19138 -0.28950
 H158 H 1.27659 -0.16544 -0.31938
 H159 H 1.33435 -0.23797 -0.33489
 H160 H 1.29573 -0.26255 -0.30444
 C161 C 1.17644 -0.30490 -0.31902
 C162 C 1.17283 -0.18647 -0.21630
 C163 C 1.30901 -0.19947 -0.33009
 C164 C 1.29571 -0.29496 -0.18953
 C165 C 0.27404 0.20785 0.72293
 H166 H 0.24832 0.20913 0.71965
 C167 C 0.29328 0.19098 0.70521
 H168 H 0.28185 0.17916 0.68868
 C169 C 0.31951 0.22084 0.74988
 H170 H 0.32951 0.23220 0.76768
 C171 C 0.33965 0.20415 0.73272
 H172 H 0.36519 0.20295 0.73728
 N173 N 0.28734 0.22232 0.74474
 C174 C 0.21394 0.23108 0.81419
 H175 H 0.20787 0.25228 0.81300
 C176 C 0.19791 0.21475 0.83458
 H177 H 0.17978 0.22418 0.84862
 C178 C 0.24647 0.19429 0.79803
 H179 H 0.26563 0.18640 0.78400
 C180 C 0.23155 0.17727 0.81850
 H181 H 0.23940 0.15635 0.81953
 Zn182 Zn 0.25920 0.24342 0.76881
 N183 N 0.23735 0.22065 0.79605
 C184 C 0.19729 0.26147 0.74538
 N185 N 0.22948 0.26315 0.74222
 C186 C 0.24141 0.27878 0.71966
 C187 C 0.22092 0.29448 0.70023
 C188 C 0.17590 0.27703 0.72671
 C189 C 0.28060 0.26624 0.82288
 C190 C 0.29639 0.28413 0.84032
 C191 C 0.31790 0.30305 0.79412
 C192 C 0.30137 0.28491 0.77754
 N193 N 0.28277 0.26719 0.79197
 H194 H 0.18790 0.24812 0.76233
 H195 H 0.26697 0.27905 0.71657
 H196 H 0.23175 0.30699 0.68322
 H197 H 0.15040 0.27563 0.73015
 H198 H 0.26658 0.25165 0.83427
 H199 H 0.29382 0.28308 0.86486
 H200 H 0.33187 0.31699 0.78154
 H201 H 0.30362 0.28497 0.75309
 C202 C 0.20648 0.18720 0.83692
 C203 C 0.32664 0.18903 0.70996
 C204 C 0.31530 0.30302 0.82612
 C205 C 0.18744 0.29406 0.70382
 C206 C 0.77440 0.70772 0.71905
 H207 H 0.74881 0.70889 0.71496
 C208 C 0.79445 0.69114 0.70170
 H209 H 0.78376 0.67945 0.68459
 C210 C 0.81874 0.72058 0.74777
 H211 H 0.82799 0.73173 0.76613
 C212 C 0.83965 0.70419 0.73103
 H213 H 0.86501 0.70304 0.73648
 N214 N 0.78677 0.72197 0.74158
 C215 C 0.71367 0.72884 0.81174
 H216 H 0.70714 0.74997 0.81108
 C217 C 0.69897 0.71202 0.83266
 H218 H 0.68122 0.72102 0.84743
 C219 C 0.74633 0.69275 0.79406
 H220 H 0.76512 0.68531 0.77932
 C221 C 0.73267 0.67526 0.81489
 H222 H 0.74107 0.65447 0.81542
 Zn223 Zn 0.75793 0.74246 0.76566
 N224 N 0.73668 0.71902 0.79276
 C225 C 0.69586 0.76156 0.74314
 N226 N 0.72805 0.76225 0.73919
 C227 C 0.74005 0.77723 0.71607
 C228 C 0.71969 0.79327 0.69684
 C229 C 0.67459 0.77744 0.72462
 C230 C 0.77998 0.76463 0.81994
 C231 C 0.79613 0.78227 0.83744
 C232 C 0.81572 0.80254 0.79114
 C233 C 0.79890 0.78463 0.77453
 N234 N 0.78116 0.76630 0.78900
 H235 H 0.68639 0.74886 0.76072
 H236 H 0.76557 0.77672 0.71240
 H237 H 0.73063 0.80515 0.67932
 H238 H 0.64911 0.77686 0.72872
 H239 H 0.76663 0.74958 0.83132
 H240 H 0.79446 0.78059 0.86204
 H241 H 0.82905 0.81692 0.77854
 H242 H 0.80028 0.78530 0.75000
 C243 C 0.70839 0.68459 0.83454
 C244 C 0.82764 0.68925 0.70760
 C245 C 0.81434 0.80166 0.82323
 C246 C 0.68625 0.79390 0.70121
 C247 C 0.77792 0.21188 0.21787
 H248 H 0.75227 0.21387 0.21422
 C249 C 0.79676 0.19462 0.20038
 H250 H 0.78508 0.18312 0.18370
 C251 C 0.82357 0.22370 0.24547
 H252 H 0.83374 0.23489 0.26333
 C253 C 0.84336 0.20656 0.22850
 H254 H 0.86885 0.20474 0.23332
 N255 N 0.79149 0.22592 0.23989
 C256 C 0.71556 0.23707 0.30648
 H257 H 0.71003 0.25834 0.30512
 C258 C 0.70009 0.22129 0.32795
 H259 H 0.68249 0.23064 0.34270
 C260 C 0.74731 0.19957 0.29079
 H261 H 0.76631 0.19120 0.27693
 C262 C 0.73270 0.18316 0.31208
 H263 H 0.74026 0.16222 0.31400
 Zn264 Zn 0.76338 0.24796 0.26266
 N265 N 0.73877 0.22606 0.28846
 C266 C 0.70485 0.27130 0.23590
 N267 N 0.73736 0.26900 0.23422
 C268 C 0.75295 0.28113 0.21103
 C269 C 0.73607 0.29716 0.18917
 C270 C 0.68691 0.28727 0.21452
 C271 C 0.78455 0.26821 0.31814
 C272 C 0.80034 0.28528 0.33666
 C273 C 0.82227 0.30585 0.29158
 C274 C 0.80581 0.28848 0.27393
 N275 N 0.78701 0.27036 0.28730
 H276 H 0.69261 0.26078 0.25372
 H277 H 0.77862 0.27804 0.20917
 H278 H 0.74928 0.30673 0.17113
 H279 H 0.66121 0.28863 0.21697
 H280 H 0.77031 0.25329 0.32862
 H281 H 0.79757 0.28331 0.36114
 H282 H 0.83633 0.32019 0.27976
 H283 H 0.80807 0.28962 0.24949
 C284 C 0.70888 0.19396 0.33102
 C285 C 0.83003 0.19190 0.20550
 C286 C 0.81943 0.30460 0.32358
 C287 C 0.70259 0.30080 0.19078
 C288 C 0.27431 0.71573 0.21833
 H289 H 0.24845 0.71646 0.21673
 C290 C 0.29271 0.69985 0.19886
 H291 H 0.28056 0.68818 0.18268
 C292 C 0.32109 0.72920 0.24279
 H293 H 0.33195 0.74041 0.26025
 C294 C 0.34042 0.71350 0.22385
 H295 H 0.36620 0.71282 0.22677
 N296 N 0.28867 0.72988 0.23981
 C297 C 0.22162 0.73572 0.31503
 H298 H 0.21594 0.75694 0.31551
 C299 C 0.20801 0.71868 0.33639
 H300 H 0.19178 0.72700 0.35311
 C301 C 0.25128 0.69942 0.29381
 H302 H 0.26852 0.69200 0.27751
 C303 C 0.23853 0.68173 0.31499
 H304 H 0.24574 0.66073 0.31456
 Zn305 Zn 0.26197 0.74969 0.26630
 N306 N 0.24256 0.72587 0.29406
 C307 C 0.19858 0.76897 0.24822
 N308 N 0.23039 0.76958 0.24212
 C309 C 0.24077 0.78387 0.21768
 C310 C 0.21908 0.79896 0.19886
 C311 C 0.17604 0.78398 0.23022
 C312 C 0.28916 0.76927 0.31953
 C313 C 0.30612 0.78648 0.33684
 C314 C 0.31931 0.81050 0.29052
 C315 C 0.30175 0.79292 0.27412
 N316 N 0.28673 0.77298 0.28877
 H317 H 0.19038 0.75682 0.26694
 H318 H 0.26600 0.78331 0.21247
 H319 H 0.22876 0.81028 0.18013
 H320 H 0.15089 0.78335 0.23584
 H321 H 0.27808 0.75290 0.33090
 H322 H 0.30728 0.78319 0.36135
 H323 H 0.33028 0.82631 0.27792
 H324 H 0.30015 0.79530 0.24965
 C325 C 0.21636 0.69127 0.33634
 C326 C 0.32630 0.69861 0.20151
 C327 C 0.32147 0.80755 0.32253
 C328 C 0.18600 0.79933 0.20509
 N329 N 1.04642 0.02305 0.03714
 N330 N 1.06370 0.04284 0.04500
 N331 N 1.02931 -0.03559 0.04950
 N332 N 1.03632 -0.05647 0.06796
 N333 N 1.05264 -0.03221 0.03011
 N334 N 1.07594 -0.05071 0.03463
 N335 N 1.02296 0.01988 0.05642
 N336 N 1.02364 0.03753 0.07796
 C337 C 1.04920 0.05167 0.07049
 C338 C 1.06539 -0.06578 0.05809
 N339 N 0.93989 -0.03431 0.02062
 N340 N 0.91932 -0.05316 0.02207
 N341 N 0.95438 0.01858 0.05056
 N342 N 0.94717 0.03647 0.07105
 N343 N 0.93394 0.02100 0.02765
 N344 N 0.91223 0.04056 0.03197
 N345 N 0.96017 -0.03685 0.04367
 N346 N 0.95371 -0.05753 0.06154
 Mn347 Mn 0.99167 -0.00860 0.05044
 C348 C 0.92837 -0.06763 0.04746
 C349 C 0.92079 0.04996 0.05913
 N350 N 1.05745 -0.02381 -0.03462
 N351 N 1.08022 -0.04234 -0.03960
 N352 N 1.03060 0.03384 -0.05034
 N353 N 1.03467 0.05562 -0.06708
 N354 N 1.05145 0.03145 -0.02782
 N355 N 1.07066 0.05137 -0.02887
 N356 N 1.03692 -0.02159 -0.05743
 N357 N 1.04514 -0.03860 -0.07860
 Mn358 Mn 1.05230 -0.00037 0.00126
 C359 C 1.07216 -0.05140 -0.06705
 C360 C 1.05966 0.06633 -0.05337
 N361 N 0.93858 0.02941 -0.03745
 N362 N 0.91653 0.04914 -0.04133
 N363 N 0.96842 -0.02275 -0.06338
 N364 N 0.96695 -0.03924 -0.08598
 N365 N 0.94480 -0.02598 -0.04432
 N366 N 0.92664 -0.04485 -0.05337
 N367 N 0.96254 0.03260 -0.05612
 N368 N 0.95776 0.05472 -0.07290
 Mn369 Mn 0.93895 -0.00248 -0.00838
 Mn370 Mn 0.99964 0.00554 -0.05714
 Cl371 Cl 0.99563 -0.00153 -0.00343
 C372 C 0.92900 0.06477 -0.06345
 C373 C 0.94090 -0.05298 -0.07932
 N374 N 1.05946 0.52254 0.53374
 N375 N 1.08131 0.53864 0.54212
 N376 N 1.03892 0.46572 0.54919
 N377 N 1.04557 0.44531 0.56845
 N378 N 1.06152 0.46728 0.52864
 N379 N 1.08397 0.44809 0.53327
 N380 N 1.03651 0.52157 0.55398
 N381 N 1.04216 0.53737 0.57667
 C382 C 1.07006 0.54807 0.56856
 C383 C 1.07363 0.43441 0.55791
 N384 N 0.94862 0.46970 0.52319
 N385 N 0.92717 0.45164 0.52585
 N386 N 0.96695 0.52298 0.55058
 N387 N 0.95988 0.54068 0.57142
 N388 N 0.94580 0.52520 0.52823
 N389 N 0.92390 0.54444 0.53318
 N390 N 0.96935 0.46721 0.54589
 N391 N 0.96233 0.44729 0.56470
 Mn392 Mn 1.00290 0.49435 0.55036
 C393 C 0.93611 0.43766 0.55158
 C394 C 0.93300 0.55395 0.56009
 N395 N 1.06438 0.47392 0.46337
 N396 N 1.08682 0.45539 0.45733
 N397 N 1.04035 0.53223 0.44686
 N398 N 1.04421 0.55401 0.43008
 N399 N 1.06203 0.52942 0.46863
 N400 N 1.08155 0.54912 0.46708
 N401 N 1.04309 0.47658 0.44126
 N402 N 1.05026 0.45971 0.41963
 Mn403 Mn 1.06210 0.49825 0.49862
 C404 C 1.07750 0.44654 0.43015
 C405 C 1.06997 0.56428 0.44294
 N406 N 0.94842 0.53169 0.46291
 N407 N 0.92668 0.55157 0.45855
 N408 N 0.97458 0.47819 0.43786
 N409 N 0.97177 0.46129 0.41592
 N410 N 0.95151 0.47603 0.45775
 N411 N 0.93226 0.45749 0.44983
 N412 N 0.97187 0.53369 0.44342
 N413 N 0.96696 0.55512 0.42546
 Mn414 Mn 0.94826 0.50062 0.49304
 Mn415 Mn 1.00749 0.50523 0.44206
 Cl416 Cl 1.00516 0.49958 0.49610
 C417 C 0.93874 0.56606 0.43522
 C418 C 0.94542 0.44845 0.42374
 N419 N 0.55494 0.02732 0.53749
 N420 N 0.57208 0.04725 0.54528
 N421 N 0.53783 -0.03143 0.54991
 N422 N 0.54485 -0.05229 0.56843
 N423 N 0.56127 -0.02800 0.53062
 N424 N 0.58465 -0.04641 0.53535
 N425 N 0.53150 0.02411 0.55680
 N426 N 0.53204 0.04186 0.57823
 C427 C 0.55751 0.05611 0.57073
 C428 C 0.57405 -0.06152 0.55877
 N429 N 0.44811 -0.02982 0.52119
 N430 N 0.42629 -0.04760 0.52343
 N431 N 0.46279 0.02292 0.55114
 N432 N 0.45469 0.04006 0.57226
 N433 N 0.44245 0.02542 0.52815
 N434 N 0.41995 0.04424 0.53302
 N435 N 0.46843 -0.03262 0.54421
 N436 N 0.46074 -0.05251 0.56277
 Mn437 Mn 0.50014 -0.00438 0.55092
 C438 C 0.43467 -0.06188 0.54908
 C439 C 0.42793 0.05322 0.56055
 N440 N 0.56603 -0.01970 0.46561
 N441 N 0.58914 -0.03787 0.46017
 N442 N 0.53887 0.03778 0.44989
 N443 N 0.54193 0.05990 0.43354
 N444 N 0.55980 0.03568 0.47236
 N445 N 0.57811 0.05623 0.47161
 N446 N 0.54516 -0.01772 0.44307
 N447 N 0.55334 -0.03462 0.42177
 Mn448 Mn 0.56085 0.00385 0.50158
 C449 C 0.58076 -0.04710 0.43285
 C450 C 0.56644 0.07118 0.44730
 N451 N 0.44705 0.03369 0.46298
 N452 N 0.42461 0.05302 0.45841
 N453 N 0.47669 -0.01867 0.43724
 N454 N 0.47490 -0.03494 0.41448
 N455 N 0.45304 -0.02174 0.45630
 N456 N 0.43455 -0.04032 0.44712
 N457 N 0.47093 0.03670 0.44419
 N458 N 0.46571 0.05832 0.42663
 Mn459 Mn 0.44736 0.00190 0.49215
 Mn460 Mn 0.50797 0.00951 0.44331
 Cl461 Cl 0.50407 0.00266 0.49704
 C462 C 0.43679 0.06829 0.43578
 C463 C 0.44866 -0.04844 0.42108
 N464 N 0.54697 0.52415 0.04062
 N465 N 0.56562 0.54311 0.04843
 N466 N 0.52231 0.46816 0.05563
 N467 N 0.52448 0.44797 0.07562
 N468 N 0.54795 0.46830 0.03850
 N469 N 0.56835 0.44821 0.04654
 N470 N 0.52155 0.52397 0.05802
 N471 N 0.52222 0.54282 0.07813
 C472 C 0.54983 0.55457 0.07186
 C473 C 0.55317 0.43564 0.06959
 N474 N 0.43542 0.47364 0.02087
 N475 N 0.41391 0.45549 0.02171
 N476 N 0.45334 0.52710 0.04752
 N477 N 0.44543 0.54575 0.06691
 N478 N 0.43459 0.52938 0.02337
 N479 N 0.41330 0.54963 0.02572
 N480 N 0.45400 0.47125 0.04514
 N481 N 0.44560 0.45131 0.06319
 Mn482 Mn 0.48777 0.49758 0.05192
 C483 C 0.42067 0.44162 0.04809
 C484 C 0.42050 0.55968 0.05295
 N485 N 0.55855 0.47206 -0.02659
 N486 N 0.58127 0.45308 -0.03005
 N487 N 0.53829 0.53007 -0.04806
 N488 N 0.54406 0.55131 -0.06507
 N489 N 0.55760 0.52780 -0.02431
 N490 N 0.57750 0.54730 -0.02481
 N491 N 0.53950 0.47421 -0.05055
 N492 N 0.54853 0.45661 -0.07081
 Mn493 Mn 0.55317 0.49804 0.00714
 C494 C 0.57443 0.44345 -0.05759
 C495 C 0.56861 0.56174 -0.05043
 N496 N 0.44504 0.53306 -0.04143
 N497 N 0.42523 0.55379 -0.04848
 N498 N 0.47141 0.47746 -0.06116
 N499 N 0.47001 0.45976 -0.08250
 N500 N 0.44597 0.47720 -0.04384
 N501 N 0.42656 0.45916 -0.05285
 N502 N 0.47055 0.53316 -0.05866
 N503 N 0.46893 0.55396 -0.07781
 Mn504 Mn 0.43989 0.50334 -0.01031
 Mn505 Mn 0.50501 0.50371 -0.05488
 Cl506 Cl 0.49647 0.50063 -0.00151
 C507 C 0.44062 0.56665 -0.07114
 C508 C 0.44204 0.44841 -0.07691
 C509 C 1.16872 0.17639 0.14337
 C510 C 1.13795 0.16788 0.14838
 C511 C 1.12435 0.14734 0.12997
 N512 N 1.09619 0.13709 0.13806
 N513 N 1.08409 0.11795 0.12208
 C514 C 1.09971 0.10841 0.09736
 N515 N 1.12772 0.11880 0.08915
 N516 N 1.13985 0.13788 0.10516
 C517 C 1.08722 0.08695 0.07970
 C518 C 1.06003 0.07380 0.08811
 H519 H 1.12407 0.17516 0.16738
 H520 H 1.10044 0.08087 0.05973
 H521 H 1.18306 0.16744 0.12556
 H522 H 1.04675 0.07946 0.10818
 C523 C 1.15357 0.67764 0.66699
 C524 C 1.16047 0.65045 0.66380
 C525 C 1.13784 0.63293 0.65017
 N526 N 1.14876 0.60871 0.64085
 N527 N 1.12896 0.59259 0.62796
 C528 C 1.09737 0.59990 0.62418
 N529 N 1.08624 0.62395 0.63405
 N530 N 1.10616 0.64023 0.64674
 C531 C 1.07608 0.58255 0.60826
 C532 C 1.08897 0.56497 0.58726
 H533 H 1.18401 0.64177 0.66993
 H534 H 1.05039 0.58500 0.61112
 H535 H 1.13119 0.68662 0.65786
 H536 H 1.11435 0.56490 0.58240
 C537 C 0.67345 0.18334 0.64403
 C538 C 0.64292 0.17418 0.64875
 C539 C 0.63009 0.15330 0.63026
 N540 N 0.60211 0.14261 0.63812
 N541 N 0.59070 0.12315 0.62215
 C542 C 0.60684 0.11369 0.59768
 N543 N 0.63468 0.12452 0.58970
 N544 N 0.64613 0.14392 0.60570
 C545 C 0.59503 0.09189 0.58003
 C546 C 0.56800 0.07844 0.58828
 H547 H 0.62869 0.18117 0.66766
 H548 H 0.60855 0.08586 0.56023
 H549 H 0.68816 0.17474 0.62627
 H550 H 0.55446 0.08407 0.60820
 C551 C 0.67055 0.67744 0.14793
 C552 C 0.63917 0.66973 0.15119
 C553 C 0.62617 0.64902 0.13257
 N554 N 0.59674 0.64021 0.13868
 N555 N 0.58504 0.62095 0.12262
 C556 C 0.60233 0.60978 0.09979
 N557 N 0.63165 0.61871 0.09354
 N558 N 0.64338 0.63794 0.10963
 C559 C 0.59012 0.58808 0.08222
 C560 C 0.56111 0.57694 0.08882
 H561 H 0.62417 0.67783 0.16899
 H562 H 0.60477 0.58029 0.06394
 H563 H 0.68571 0.66783 0.13116
 H564 H 0.54641 0.58447 0.10717
 C565 C 0.83568 -0.18934 0.16486
 C566 C 0.82912 -0.17295 0.13892
 C567 C 0.85293 -0.15586 0.12518
 N568 N 0.84593 -0.14256 0.09837
 N569 N 0.86645 -0.12613 0.08603
 C570 C 0.89476 -0.12225 0.10005
 N571 N 0.90183 -0.13559 0.12688
 N572 N 0.88132 -0.15213 0.13920
 C573 C 0.91675 -0.10302 0.08717
 C574 C 0.91015 -0.08976 0.05927
 H575 H 0.80607 -0.17248 0.12764
 H576 H 0.93758 -0.09842 0.10034
 H577 H 0.86008 -0.19072 0.17352
 H578 H 0.88956 -0.09474 0.04600
 C579 C 0.83895 0.31813 0.66891
 C580 C 0.83284 0.33547 0.64367
 C581 C 0.85721 0.35227 0.63034
 N582 N 0.85056 0.36607 0.60379
 N583 N 0.87168 0.38202 0.59160
 C584 C 0.90031 0.38492 0.60550
 N585 N 0.90703 0.37113 0.63213
 N586 N 0.88589 0.35504 0.64431
 C587 C 0.92315 0.40344 0.59248
 C588 C 0.91704 0.41641 0.56432
 H589 H 0.80978 0.33673 0.63236
 H590 H 0.94427 0.40754 0.60550
 H591 H 0.86330 0.31615 0.67769
 H592 H 0.89614 0.41179 0.55127
 C593 C 0.33198 -0.18550 0.65351
 C594 C 0.32714 -0.15906 0.64285
 C595 C 0.35230 -0.14427 0.62784
 N596 N 0.34379 -0.12252 0.60993
 N597 N 0.36599 -0.10814 0.59692
 C598 C 0.39764 -0.11472 0.60159
 N599 N 0.40625 -0.13635 0.61981
 N600 N 0.38396 -0.15096 0.63261
 C601 C 0.42197 -0.09820 0.58764
 C602 C 0.41408 -0.08190 0.56213
 H603 H 0.30372 -0.14890 0.64375
 H604 H 0.44585 -0.09870 0.59742
 H605 H 0.35448 -0.19601 0.64805
 H606 H 0.39091 -0.08327 0.55131
 C607 C 0.33178 0.31374 0.15971
 C608 C 0.32418 0.33097 0.13466
 C609 C 0.34696 0.34948 0.12181
 N610 N 0.33902 0.36402 0.09601
 N611 N 0.35868 0.38160 0.08454
 C612 C 0.38704 0.38543 0.09850
 N613 N 0.39504 0.37089 0.12432
 N614 N 0.37539 0.35321 0.13576
 C615 C 0.40836 0.40557 0.08655
 C616 C 0.40151 0.41984 0.05931
 H617 H 0.30103 0.33124 0.12360
 H618 H 0.42944 0.40959 0.09969
 H619 H 0.35622 0.31295 0.16823
 H620 H 0.38085 0.41539 0.04583
 C621 C 0.79853 0.17414 -0.16919
 C622 C 0.82282 0.17897 -0.14842
 C623 C 0.83694 0.15760 -0.12805
 N624 N 0.86741 0.15885 -0.11767
 N625 N 0.88114 0.13896 -0.10055
 C626 C 0.86475 0.11723 -0.09286
 N627 N 0.83402 0.11624 -0.10264
 N628 N 0.82040 0.13602 -0.12005
 C629 C 0.88032 0.09446 -0.07561
 C630 C 0.91333 0.08937 -0.07657
 H631 H 0.83425 0.19767 -0.14896
 H632 H 0.86546 0.08004 -0.06474
 H633 H 0.79063 0.15402 -0.16968
 H634 H 0.92787 0.10254 -0.08984
 C635 C 0.80105 0.67305 0.33307
 C636 C 0.82741 0.67824 0.35122
 C637 C 0.84315 0.65734 0.37125
 N638 N 0.87459 0.65841 0.37858
 N639 N 0.88954 0.63896 0.39552
 C640 C 0.87345 0.61788 0.40604
 N641 N 0.84184 0.61709 0.39925
 N642 N 0.82698 0.63639 0.38203
 C643 C 0.88995 0.59571 0.42356
 C644 C 0.92279 0.59011 0.42098
 H645 H 0.83906 0.69678 0.34863
 H646 H 0.87564 0.58209 0.43644
 H647 H 0.79290 0.65298 0.33419
 H648 H 0.93672 0.60240 0.40601
 C649 C 0.30120 0.17232 0.32765
 C650 C 0.32638 0.17796 0.34706
 C651 C 0.34154 0.15737 0.36788
 N652 N 0.37225 0.15935 0.37728
 N653 N 0.38679 0.14023 0.39497
 C654 C 0.37102 0.11857 0.40423
 N655 N 0.34009 0.11686 0.39538
 N656 N 0.32565 0.13585 0.37741
 C657 C 0.38734 0.09668 0.42238
 C658 C 0.42047 0.09219 0.42157
 H659 H 0.33755 0.19676 0.34519
 H660 H 0.37295 0.08235 0.43405
 H661 H 0.29352 0.15210 0.32841
 H662 H 0.43462 0.10519 0.40768
 C663 C 0.31070 0.68848 -0.16650
 C664 C 0.34381 0.68341 -0.16313
 C665 C 0.35761 0.66315 -0.14111
 N666 N 0.38942 0.65624 -0.14180
 N667 N 0.40212 0.63694 -0.12321
 C668 C 0.38350 0.62385 -0.10316
 N669 N 0.35175 0.63100 -0.10215
 N670 N 0.33902 0.65027 -0.12083
 C671 C 0.39695 0.60152 -0.08372
 C672 C 0.42802 0.59082 -0.08774
 H673 H 0.36048 0.69297 -0.17795
 H674 H 0.38152 0.59232 -0.06722
 H675 H 0.29541 0.67793 -0.15097
 H676 H 0.44321 0.59954 -0.10479
 C677 C 1.15164 -0.16755 -0.19971
 C678 C 1.16090 -0.15638 -0.17267
 C679 C 1.13998 -0.13724 -0.15655
 N680 N 1.14968 -0.12822 -0.12947
 N681 N 1.13130 -0.11055 -0.11469
 C682 C 1.10254 -0.10121 -0.12646
 N683 N 1.09281 -0.11022 -0.15355
 N684 N 1.11119 -0.12794 -0.16833
 C685 C 1.08237 -0.08133 -0.11058
 C686 C 1.09128 -0.07214 -0.08242
 H687 H 1.18400 -0.16213 -0.16246
 H688 H 1.06026 -0.07357 -0.12143
 H689 H 1.12751 -0.16320 -0.20837
 H690 H 1.11314 -0.08010 -0.07131
 C691 C 1.14991 0.32359 0.30250
 C692 C 1.16168 0.34499 0.31746
 C693 C 1.14123 0.36268 0.33597
 N694 N 1.15487 0.37864 0.35596
 N695 N 1.13679 0.39504 0.37271
 C696 C 1.10437 0.39626 0.36989
 N697 N 1.09071 0.38047 0.34969
 N698 N 1.10881 0.36387 0.33311
 C699 C 1.08432 0.41481 0.38776
 C700 C 1.09635 0.42651 0.41336
 H701 H 1.18705 0.34820 0.31681
 H702 H 1.05959 0.41913 0.38085
 H703 H 1.12528 0.31868 0.30592
 H704 H 1.12036 0.42083 0.42150
 C705 C 0.65211 -0.17291 0.30769
 C706 C 0.66453 -0.15193 0.32298
 C707 C 0.64441 -0.13365 0.34117
 N708 N 0.65832 -0.11777 0.36110
 N709 N 0.64051 -0.10081 0.37744
 C710 C 0.60812 -0.09895 0.37426
 N711 N 0.59422 -0.11470 0.35416
 N712 N 0.61201 -0.13183 0.33800
 C713 C 0.58826 -0.07975 0.39151
 C714 C 0.60011 -0.06734 0.41674
 H715 H 0.69007 -0.14941 0.32268
 H716 H 0.56357 -0.07554 0.38441
 H717 H 0.62718 -0.17708 0.31071
 H718 H 0.62409 -0.07275 0.42516
 C719 C 0.65215 0.32488 -0.18841
 C720 C 0.66387 0.34469 -0.17073
 C721 C 0.64288 0.36126 -0.15139
 N722 N 0.65577 0.37584 -0.12951
 N723 N 0.63707 0.39139 -0.11227
 C724 C 0.60479 0.39305 -0.11645
 N725 N 0.59193 0.37857 -0.13842
 N726 N 0.61060 0.36286 -0.15549
 C727 C 0.58396 0.41119 -0.09880
 C728 C 0.59442 0.42286 -0.07251
 H729 H 0.68934 0.34755 -0.17019
 H730 H 0.55969 0.41572 -0.10699
 H731 H 0.62727 0.32021 -0.18638
 H732 H 0.61787 0.41718 -0.06297
 C733 C 1.19200 0.17002 -0.14406
 C734 C 1.16442 0.17613 -0.12715
 C735 C 1.14964 0.15567 -0.10818
 N736 N 1.11776 0.15790 -0.10259
 N737 N 1.10376 0.13888 -0.08666
 C738 C 1.12123 0.11711 -0.07538
 N739 N 1.15325 0.11517 -0.08036
 N740 N 1.16719 0.13405 -0.09660
 C741 C 1.10578 0.09527 -0.05937
 C742 C 1.07391 0.09050 -0.06511
 H743 H 1.15127 0.19518 -0.12978
 H744 H 1.12052 0.08105 -0.04556
 H745 H 1.20151 0.14948 -0.14259
 H746 H 1.06000 0.10331 -0.08120
 C747 C 1.20286 0.67233 0.35846
 C748 C 1.17208 0.67618 0.37008
 C749 C 1.15765 0.65572 0.38927
 N750 N 1.12536 0.65606 0.39205
 N751 N 1.11176 0.63682 0.40796
 C752 C 1.12998 0.61668 0.42192
 N753 N 1.16232 0.61666 0.41971
 N754 N 1.17592 0.63579 0.40356
 C755 C 1.11512 0.59444 0.43774
 C756 C 1.08380 0.58857 0.43109
 H757 H 1.15703 0.69347 0.36272
 H758 H 1.12989 0.58100 0.45247
 H759 H 1.21639 0.65368 0.36359
 H760 H 1.06984 0.60087 0.41455
 C761 C 0.69504 0.17641 0.35450
 C762 C 0.66458 0.18110 0.36657
 C763 C 0.65085 0.16181 0.38792
 N764 N 0.61869 0.16216 0.39176
 N765 N 0.60577 0.14372 0.40948
 C766 C 0.62456 0.12440 0.42427
 N767 N 0.65679 0.12443 0.42104
 N768 N 0.66970 0.14275 0.40311
 C769 C 0.61040 0.10257 0.44161
 C770 C 0.57915 0.09605 0.43577
 H771 H 0.64936 0.19797 0.35830
 H772 H 0.62578 0.08954 0.45625
 H773 H 0.70859 0.15806 0.36104
 H774 H 0.56463 0.10795 0.41929
 C775 C 0.69553 0.66699 -0.14571
 C776 C 0.66927 0.67254 -0.12684
 C777 C 0.65601 0.65168 -0.10721
 N778 N 0.62487 0.65411 -0.09878
 N779 N 0.61202 0.63482 -0.08228
 C780 C 0.62994 0.61255 -0.07324
 N781 N 0.66131 0.61039 -0.08103
 N782 N 0.67409 0.62956 -0.09784
 C783 C 0.61528 0.59035 -0.05701
 C784 C 0.58308 0.58601 -0.06153
 H785 H 0.65595 0.69157 -0.12809
 H786 H 0.63052 0.57560 -0.04445
 H787 H 0.70547 0.64657 -0.14504
 H788 H 0.56881 0.59931 -0.07685
 C789 C 0.82985 -0.18065 -0.15831
 C790 C 0.85065 -0.16160 -0.16878
 C791 C 0.86467 -0.14294 -0.14810
 N792 N 0.88769 -0.12703 -0.15834
 N793 N 0.90025 -0.10975 -0.14004
 C794 C 0.89015 -0.10765 -0.11085
 N795 N 0.86705 -0.12349 -0.10064
 N796 N 0.85458 -0.14085 -0.11889
 C797 C 0.90323 -0.08825 -0.09058
 C798 C 0.92901 -0.07335 -0.09891
 H799 H 0.85762 -0.16025 -0.19238
 H800 H 0.89223 -0.08560 -0.06854
 H801 H 0.82561 -0.18202 -0.13399
 H802 H 0.94079 -0.07651 -0.12047
 C803 C 0.83425 0.32196 0.34296
 C804 C 0.85552 0.34095 0.33350
 C805 C 0.86879 0.35948 0.35471
 N806 N 0.89214 0.37529 0.34513
 N807 N 0.90418 0.39250 0.36378
 C808 C 0.89324 0.39465 0.39269
 N809 N 0.86976 0.37892 0.40226
 N810 N 0.85778 0.36160 0.38362
 C811 C 0.90620 0.41394 0.41319
 C812 C 0.93252 0.42814 0.40485
 H813 H 0.86351 0.34239 0.31022
 H814 H 0.89497 0.41699 0.43504
 H815 H 0.82895 0.32043 0.36708
 H816 H 0.94431 0.42441 0.38340
 C817 C 0.33766 -0.17515 0.34092
 C818 C 0.35623 -0.15465 0.33016
 C819 C 0.37076 -0.13649 0.35108
 N820 N 0.39275 -0.11971 0.34062
 N821 N 0.40574 -0.10291 0.35922
 C822 C 0.39708 -0.10218 0.38896
 N823 N 0.37496 -0.11885 0.39938
 N824 N 0.36210 -0.13575 0.38081
 C825 C 0.41064 -0.08333 0.40959
 C826 C 0.43630 -0.06835 0.40119
 H827 H 0.36113 -0.15184 0.30620
 H828 H 0.40022 -0.08126 0.43196
 H829 H 0.33589 -0.17809 0.36541
 H830 H 0.44767 -0.07112 0.37936
 C831 C 0.33021 0.32114 -0.15551
 C832 C 0.35164 0.33971 -0.16586
 C833 C 0.36496 0.35890 -0.14539
 N834 N 0.38922 0.37376 -0.15505
 N835 N 0.40128 0.39144 -0.13697
 C836 C 0.38941 0.39504 -0.10859
 N837 N 0.36503 0.38029 -0.09899
 N838 N 0.35308 0.36250 -0.11702
 C839 C 0.40218 0.41483 -0.08861
 C840 C 0.42974 0.42782 -0.09592
 H841 H 0.35977 0.34020 -0.18913
 H842 H 0.38973 0.41914 -0.06764
 H843 H 0.32494 0.32051 -0.13136
 H844 H 0.44293 0.42280 -0.11627
 C845 C 1.16266 -0.18548 0.18764
 C846 C 1.16881 -0.17116 0.16066
 C847 C 1.14411 -0.15400 0.14444
 N848 N 1.15140 -0.14196 0.11750
 N849 N 1.12996 -0.12553 0.10288
 C850 C 1.10037 -0.12042 0.11463
 N851 N 1.09297 -0.13255 0.14156
 N852 N 1.11444 -0.14907 0.15619
 C853 C 1.07724 -0.10114 0.09921
 C854 C 1.08511 -0.08800 0.07210
 H855 H 1.19223 -0.17230 0.15045
 H856 H 1.05457 -0.09623 0.11004
 H857 H 1.13812 -0.18496 0.19552
 H858 H 1.10784 -0.09299 0.06142
 C859 C 1.16518 0.31013 0.68606
 C860 C 1.17303 0.32638 0.66105
 C861 C 1.14920 0.34440 0.64478
 N862 N 1.15780 0.35757 0.61895
 N863 N 1.13710 0.37469 0.60434
 C864 C 1.10697 0.37941 0.61504
 N865 N 1.09830 0.36622 0.64090
 N866 N 1.11902 0.34899 0.65549
 C867 C 1.08452 0.39924 0.59956
 C868 C 1.09282 0.41207 0.57239
 H869 H 1.19715 0.32609 0.65244
 H870 H 1.06180 0.40446 0.61014
 H871 H 1.14009 0.30985 0.69209
 H872 H 1.11536 0.40642 0.56171
 C873 C 0.66418 -0.18951 0.68376
 C874 C 0.67216 -0.17311 0.65886
 C875 C 0.64862 -0.15450 0.64294
 N876 N 0.65775 -0.14044 0.61790
 N877 N 0.63734 -0.12283 0.60364
 C878 C 0.60698 -0.11850 0.61388
 N879 N 0.59777 -0.13260 0.63892
 N880 N 0.61820 -0.15029 0.65318
 C881 C 0.58471 -0.09825 0.59878
 C882 C 0.59373 -0.08383 0.57288
 H883 H 0.69628 -0.17351 0.65024
 H884 H 0.56138 -0.09406 0.60868
 H885 H 0.63915 -0.18930 0.69011
 H886 H 0.61698 -0.08827 0.56295
 C887 C 0.68660 0.31783 0.16875
 C888 C 0.65360 0.32435 0.16779
 C889 C 0.63912 0.34388 0.14522
 N890 N 0.60745 0.35120 0.14673
 N891 N 0.59418 0.36952 0.12719
 C892 C 0.61205 0.38118 0.10533
 N893 N 0.64366 0.37370 0.10363
 N894 N 0.65695 0.35540 0.12322
 C895 C 0.59796 0.40230 0.08447
 C896 C 0.56653 0.41248 0.08765
 H897 H 0.63768 0.31598 0.18431
 H898 H 0.61310 0.41093 0.06730
 H899 H 0.70110 0.32715 0.15151
 H900 H 0.55153 0.40418 0.10515
 C901 C 0.85099 0.17312 0.18836
 C902 C 0.84265 0.16412 0.15984
 C903 C 0.86191 0.14340 0.14436
 N904 N 0.85208 0.13522 0.11693
 N905 N 0.86851 0.11580 0.10298
 C906 C 0.89540 0.10381 0.11598
 N907 N 0.90534 0.11206 0.14337
 N908 N 0.88889 0.13149 0.15734
 C909 C 0.91333 0.08192 0.10115
 C910 C 0.90342 0.07229 0.07350
 H911 H 0.82108 0.17219 0.14837
 H912 H 0.93458 0.07294 0.11249
 H913 H 0.87384 0.16631 0.19847
 H914 H 0.88226 0.08123 0.06199
 C915 C 0.85001 0.67109 0.69097
 C916 C 0.84306 0.66136 0.66245
 C917 C 0.86460 0.64198 0.64710
 N918 N 0.85652 0.63375 0.61916
 N919 N 0.87514 0.61571 0.60515
 C920 C 0.90259 0.60515 0.61855
 N921 N 0.91076 0.61342 0.64649
 N922 N 0.89211 0.63150 0.66052
 C923 C 0.92286 0.58464 0.60348
 C924 C 0.91464 0.57549 0.57507
 H925 H 0.82114 0.66809 0.65064
 H926 H 0.94417 0.57623 0.61520
 H927 H 0.87309 0.66553 0.70142
 H928 H 0.89335 0.58397 0.56338
 C929 C 0.34821 0.17064 0.69277
 C930 C 0.34005 0.16067 0.66466
 C931 C 0.36089 0.14110 0.64883
 N932 N 0.35180 0.13267 0.62126
 N933 N 0.36987 0.11451 0.60685
 C934 C 0.39775 0.10404 0.61949
 N935 N 0.40690 0.11249 0.64706
 N936 N 0.38881 0.13069 0.66148
 C937 C 0.41761 0.08354 0.60404
 C938 C 0.40906 0.07437 0.57571
 H939 H 0.31772 0.16736 0.65355
 H940 H 0.43922 0.07527 0.61538
 H941 H 0.37166 0.16511 0.70244
 H942 H 0.38762 0.08274 0.56421
 C943 C 0.34710 0.68096 0.18276
 C944 C 0.33738 0.67096 0.15514
 C945 C 0.35744 0.65132 0.13868
 N946 N 0.34716 0.64249 0.11169
 N947 N 0.36448 0.62395 0.09709
 C948 C 0.39273 0.61354 0.10902
 N949 N 0.40306 0.62245 0.13595
 N950 N 0.38577 0.64100 0.15051
 C951 C 0.41162 0.59233 0.09393
 C952 C 0.40250 0.58234 0.06619
 H953 H 0.31436 0.67739 0.14522
 H954 H 0.43305 0.58390 0.10544
 H955 H 0.37117 0.67571 0.19109
 H956 H 0.38148 0.59091 0.05415
   
