data_POSCAR
  _audit_creation_date              2014-09-24
  _audit_creation_method            'ToBaCCo'
  _symmetry_space_group_name_H-M    'P1'
  _symmetry_Int_Tables_number       1
  _symmetry_cell_setting            triclinic
  loop_
  _symmetry_equiv_pos_as_xyz
 x,y,z
_cell_length_a 18.8214
_cell_length_b 19.5106
_cell_length_c 21.3518
_cell_angle_alpha 89.191000
_cell_angle_beta 90.218500
_cell_angle_gamma 120.781800
loop_
  _atom_site_label
  _atom_site_type_symbol
  _atom_site_fract_x
  _atom_site_fract_y
  _atom_site_fract_z
O1 O 0.38746 0.56358 0.28561
 O2 O 0.26260 0.55910 0.34133
 C3 C 0.22279 0.58968 0.36315
 O4 O 0.21307 0.64084 0.33254
 O5 O 0.34815 0.78114 0.32046
 C6 C 0.42568 0.82469 0.31218
 O7 O 0.46343 0.81494 0.26697
 O8 O 0.48245 0.69305 0.28321
 C9 C 0.45633 0.62249 0.30276
 O10 O 0.30834 0.54154 0.17505
 O11 O 0.18016 0.52903 0.23226
 C12 C 0.15241 0.56857 0.20443
 O13 O 0.18741 0.64382 0.20753
 O14 O 0.31699 0.78669 0.19739
 C15 C 0.36371 0.79606 0.15108
 O16 O 0.40927 0.76571 0.14972
 O17 O 0.43551 0.64693 0.16382
 C18 C 0.37593 0.58041 0.14524
 Cr19 Cr 0.28638 0.55238 0.25808
 Cr20 Cr 0.26868 0.71144 0.26391
 Cr21 Cr 0.44364 0.72780 0.21691
 O22 O 0.33295 0.66394 0.24628
 O23 O 0.58891 0.34985 0.64613
 O24 O 0.56282 0.20617 0.66748
 C25 C 0.62284 0.19801 0.65024
 O26 O 0.69040 0.22761 0.68005
 O27 O 0.81803 0.34445 0.73599
 C28 C 0.84497 0.40725 0.70215
 O29 O 0.80970 0.44797 0.70169
 O30 O 0.68159 0.46445 0.68983
 C31 C 0.63479 0.42518 0.64461
 O32 O 0.53560 0.35360 0.76251
 O33 O 0.51548 0.21364 0.78587
 C34 C 0.54102 0.16935 0.80748
 O35 O 0.60922 0.17669 0.79036
 O36 O 0.73251 0.29849 0.84433
 C37 C 0.77339 0.36989 0.86275
 O38 O 0.78601 0.42886 0.82805
 O39 O 0.65149 0.43643 0.81379
 C40 C 0.57385 0.40324 0.80599
 Cr41 Cr 0.55453 0.28235 0.71643
 Cr42 Cr 0.71090 0.26405 0.76202
 Cr43 Cr 0.73009 0.44067 0.75800
 O44 O 0.66489 0.32900 0.74549
 C45 C 0.48491 -0.02896 0.44463
 C46 C 0.56972 0.00875 0.44152
 C47 C 0.61094 -0.00953 0.39704
 C48 C 0.56280 -0.06940 0.35410
 C49 C 0.47496 -0.11009 0.35652
 C50 C 0.43571 -0.08907 0.40260
 O51 O 0.45817 -0.00311 0.49096
 C52 C 0.52766 0.05191 0.51774
 C53 C 0.59759 0.06122 0.48936
 C54 C 0.67688 0.11402 0.51076
 C55 C 0.68444 0.15895 0.56375
 C56 C 0.61329 0.15082 0.59390
 C57 C 0.53373 0.09667 0.57007
 H58 H 0.67778 0.02085 0.39568
 H59 H 0.59419 -0.08473 0.31957
 H60 H 0.36899 -0.11885 0.40600
 H61 H 0.73097 0.11995 0.48781
 H62 H 0.74580 0.20025 0.58111
 H63 H 0.47820 0.08846 0.59224
 C64 C 0.08695 0.55006 0.50560
 C65 C 0.09870 0.49463 0.53694
 C66 C 0.15274 0.47119 0.51606
 C67 C 0.19561 0.50534 0.46000
 C68 C 0.18329 0.56131 0.42552
 C69 C 0.12899 0.58490 0.44953
 O70 O 0.02928 0.56047 0.53182
 C71 C 0.00379 0.51004 0.58042
 C72 C 0.04417 0.46820 0.58535
 C73 C 0.02300 0.40782 0.62945
 C74 C -0.04342 0.38871 0.66970
 C75 C -0.08730 0.43051 0.66599
 C76 C -0.06117 0.49368 0.62109
 H77 H 0.16024 0.42680 0.54129
 H78 H 0.23677 0.48636 0.44274
 H79 H 0.11717 0.62649 0.42419
 H80 H 0.05489 0.37482 0.63158
 H81 H -0.06095 0.34036 0.70318
 H82 H -0.09315 0.52636 0.61531
 C83 C 0.52213 0.52318 0.42391
 C84 C 0.59802 0.58615 0.44073
 C85 C 0.63265 0.66117 0.41246
 C86 C 0.58673 0.67199 0.36550
 C87 C 0.50754 0.60826 0.34789
 C88 C 0.47561 0.53244 0.37721
 O89 O 0.49845 0.45801 0.45865
 C90 C 0.56059 0.48039 0.49845
 C91 C 0.62307 0.55826 0.48953
 C92 C 0.69185 0.59520 0.52826
 C93 C 0.69600 0.55028 0.57856
 C94 C 0.63202 0.46989 0.58907
 C95 C 0.56388 0.43436 0.54768
 H96 H 0.69209 0.71010 0.42697
 H97 H 0.61219 0.73053 0.34395
 H98 H 0.41497 0.48281 0.36585
 H99 H 0.73978 0.65686 0.52078
 H100 H 0.74864 0.57843 0.60967
 H101 H 0.51336 0.37371 0.55492
 C102 C 0.43613 -0.07366 0.00541
 C103 C 0.37702 -0.05240 0.00046
 C104 C 0.31114 -0.07988 0.04223
 C105 C 0.30641 -0.13086 0.09127
 C106 C 0.36697 -0.15339 0.09753
 C107 C 0.43224 -0.12474 0.05330
 O108 O 0.49585 -0.03811 -0.03706
 C109 C 0.47409 0.00666 -0.06954
 C110 C 0.40175 0.00002 -0.04870
 C111 C 0.36969 0.04431 -0.07462
 C112 C 0.41456 0.09828 -0.12347
 C113 C 0.49019 0.10716 -0.14516
 C114 C 0.51947 0.05961 -0.11798
 H115 H 0.26578 -0.06171 0.03785
 H116 H 0.25597 -0.15220 0.12457
 H117 H 0.48015 -0.13969 0.05706
 H118 H 0.31302 0.03867 -0.05709
 H119 H 0.39125 0.13433 -0.14329
 H120 H 0.57733 0.06535 -0.13259
 C121 C -0.00486 0.51445 0.07581
 C122 C -0.05790 0.43498 0.08956
 C123 C -0.04786 0.39687 0.14139
 C124 C 0.02033 0.44224 0.18021
 C125 C 0.07647 0.52423 0.16686
 C126 C 0.06263 0.56107 0.11439
 O127 O -0.02194 0.53750 0.02183
 C128 C -0.08702 0.47109 0.00102
 C129 C -0.11155 0.40677 0.04087
 C130 C -0.17507 0.33037 0.02665
 C131 C -0.21429 0.31949 -0.03139
 C132 C -0.18940 0.38452 -0.07405
 C133 C -0.12558 0.46178 -0.05686
 H134 H -0.08965 0.33392 0.15062
 H135 H 0.03023 0.41314 0.22001
 H136 H 0.10551 0.62294 0.10209
 H137 H -0.19255 0.28051 0.05847
 H138 H -0.26300 0.25998 -0.04351
 H139 H -0.10407 0.51239 -0.08860
 C140 C 0.47213 0.53200 0.01068
 C141 C 0.40229 0.47544 -0.01956
 C142 C 0.32281 0.45150 0.00094
 C143 C 0.31493 0.48700 0.05508
 C144 C 0.38596 0.54570 0.08723
 C145 C 0.46576 0.56891 0.06416
 O146 O 0.54168 0.54380 -0.01518
 C147 C 0.51507 0.49364 -0.06278
 C148 C 0.43031 0.45072 -0.06760
 C149 C 0.38912 0.39365 -0.11316
 C150 C 0.43719 0.37978 -0.15532
 C151 C 0.52495 0.42244 -0.15109
 C152 C 0.56423 0.48066 -0.10411
 H153 H 0.26880 0.40637 -0.02340
 H154 H 0.25343 0.46870 0.07193
 H155 H 0.52114 0.61273 0.08799
 H156 H 0.32228 0.36035 -0.11577
 H157 H 0.40569 0.33473 -0.19056
 H158 H 0.63083 0.51397 -0.09915
   
