data_POSCAR
  _audit_creation_date              2014-09-24
  _audit_creation_method            'ToBaCCo'
  _symmetry_space_group_name_H-M    'P1'
  _symmetry_Int_Tables_number       1
  _symmetry_cell_setting            triclinic
  loop_
  _symmetry_equiv_pos_as_xyz
 x,y,z
_cell_length_a 37.1437
_cell_length_b 37.1446
_cell_length_c 37.1456
_cell_angle_alpha 89.347500
_cell_angle_beta 90.961800
_cell_angle_gamma 88.855200
loop_
  _atom_site_label
  _atom_site_type_symbol
  _atom_site_fract_x
  _atom_site_fract_y
  _atom_site_fract_z
O1 O 0.54956 0.49909 0.02945
 O2 O 0.45036 0.49985 0.02956
 O3 O 0.50056 0.44993 0.02950
 O4 O 0.49936 0.54901 0.02953
 O5 O 0.49826 0.54973 -0.02986
 O6 O 0.49946 0.45065 -0.02988
 O7 O 0.44926 0.50057 -0.02976
 O8 O 0.54847 0.49981 -0.02993
 Cu9 Cu 0.50007 0.49940 0.03546
 Cu10 Cu 0.49875 0.50026 -0.03580
 C11 C 0.56602 0.49933 -0.00026
 C12 C 0.43271 0.50034 -0.00007
 C13 C 0.50021 0.43331 -0.00020
 C14 C 0.49862 0.56635 -0.00016
 O15 O 0.02998 0.54951 0.50019
 O16 O 0.02982 0.45031 0.50073
 O17 O 0.03003 0.50018 0.45093
 O18 O 0.02982 0.49964 0.54998
 O19 O -0.02958 0.50096 0.54884
 O20 O -0.02937 0.50149 0.44978
 O21 O -0.02958 0.45163 0.49959
 O22 O -0.02936 0.55082 0.49905
 Cu23 Cu 0.03585 0.49978 0.50057
 Cu24 Cu -0.03542 0.50136 0.49920
 C25 C 0.00034 0.56727 0.49956
 C26 C 0.00008 0.43397 0.50023
 C27 C 0.00037 0.50090 0.43338
 C28 C 0.00008 0.50023 0.56639
 O29 O 0.49949 0.02941 0.54990
 O30 O 0.49939 0.02947 0.45070
 O31 O 0.44991 0.02927 0.49953
 O32 O 0.54898 0.02962 0.50107
 O33 O 0.55039 -0.02977 0.50176
 O34 O 0.45132 -0.03012 0.50022
 O35 O 0.50081 -0.02992 0.45139
 O36 O 0.50090 -0.02992 0.55059
 Cu37 Cu 0.49930 0.03539 0.50023
 Cu38 Cu 0.50100 -0.03588 0.50106
 C39 C 0.50019 -0.00026 0.56735
 C40 C 0.50009 -0.00022 0.43404
 C41 C 0.43363 -0.00049 0.49963
 C42 C 0.56667 -0.00001 0.50166
 C43 C 0.50172 0.09320 -0.06791
 C44 C 0.49949 0.06740 -0.09386
 C45 C 0.49883 0.03444 -0.07601
 N46 N 0.50032 0.03939 -0.04004
 C47 C 0.50201 0.07527 -0.03494
 C48 C 0.49784 0.00069 -0.09326
 C49 C 0.49815 -0.03308 -0.07504
 C50 C 0.50311 -0.06587 -0.09196
 C51 C 0.50283 -0.09206 -0.06565
 C52 C 0.49771 -0.07476 -0.03317
 N53 N 0.49428 -0.03880 -0.03922
 C54 C 0.49682 -0.09281 0.00064
 C55 C 0.49760 -0.07563 0.03445
 C56 C 0.49787 -0.09355 0.06741
 C57 C 0.50016 -0.06775 0.09337
 C58 C 0.50085 -0.03479 0.07552
 N59 N 0.49934 -0.03975 0.03954
 C60 C 0.50189 -0.00105 0.09277
 C61 C 0.50156 0.03272 0.07455
 C62 C 0.49661 0.06550 0.09148
 C63 C 0.49683 0.09170 0.06517
 C64 C 0.50192 0.07440 0.03268
 N65 N 0.50538 0.03845 0.03872
 C66 C 0.50275 0.09245 -0.00113
 H67 H 0.50278 0.12193 -0.07285
 H68 H 0.49862 0.07243 -0.12262
 H69 H 0.51247 0.01931 0.01992
 H70 H 0.50722 -0.07050 -0.12033
 H71 H 0.50668 -0.12063 -0.06998
 H72 H 0.49677 -0.12227 0.07235
 H73 H 0.50103 -0.07278 0.12213
 H74 H 0.49297 0.12027 0.06951
 H75 H 0.48717 -0.01966 -0.02043
 H76 H 0.49253 0.07013 0.11986
 C77 C -0.06766 0.50096 0.90625
 C78 C -0.09346 0.49879 0.93207
 C79 C -0.07551 0.49847 0.96510
 N80 N -0.03961 0.50008 0.96019
 C81 C -0.03466 0.50153 0.92426
 C82 C -0.09263 0.49767 0.99883
 C83 C -0.07435 0.49840 1.03264
 C84 C -0.09142 0.50359 1.06516
 C85 C -0.06504 0.50373 1.09144
 C86 C -0.03238 0.49863 1.07445
 N87 N -0.03835 0.49480 1.03863
 C88 C 0.00151 0.49811 1.09263
 C89 C 0.03525 0.49886 1.07553
 C90 C 0.06824 0.49945 1.09353
 C91 C 0.09405 0.50157 1.06772
 C92 C 0.07609 0.50184 1.03468
 N93 N 0.04019 0.50025 1.03960
 C94 C 0.09322 0.50259 1.00095
 C95 C 0.07494 0.50188 0.96714
 C96 C 0.09200 0.49668 0.93462
 C97 C 0.06562 0.49659 0.90834
 C98 C 0.03296 0.50173 0.92534
 N99 N 0.03894 0.50553 0.96116
 C100 C -0.00093 0.50231 0.90715
 H101 H -0.07271 0.50179 0.87747
 H102 H -0.12219 0.49776 0.92699
 H103 H 0.01990 0.51274 0.97995
 H104 H -0.11995 0.50758 1.06954
 H105 H -0.06948 0.50783 1.11984
 H106 H 0.07329 0.49867 1.12231
 H107 H 0.12278 0.50260 1.07279
 H108 H 0.07004 0.49249 0.87994
 H109 H -0.01930 0.48762 1.01984
 H110 H 0.12052 0.49265 0.93024
 C111 C 0.09377 -0.06846 0.49791
 C112 C 0.06805 -0.09429 0.50016
 C113 C 0.03503 -0.07626 0.50096
 N114 N 0.03987 -0.04032 0.49956
 C115 C 0.07573 -0.03541 0.49777
 C116 C 0.00134 -0.09334 0.50203
 C117 C -0.03250 -0.07494 0.50185
 C118 C -0.06522 -0.09172 0.49697
 C119 C -0.09151 -0.06528 0.49736
 C120 C -0.07432 -0.03286 0.50247
 N121 N -0.03834 -0.03907 0.50579
 C122 C -0.09250 0.00105 0.50345
 C123 C -0.07543 0.03477 0.50267
 C124 C -0.09348 0.06783 0.50246
 C125 C -0.06776 0.09365 0.50015
 C126 C -0.03474 0.07562 0.49940
 N127 N -0.03957 0.03968 0.50088
 C128 C -0.00105 0.09270 0.49833
 C129 C 0.03279 0.07430 0.49858
 C130 C 0.06550 0.09108 0.50355
 C131 C 0.09179 0.06464 0.50322
 C132 C 0.07461 0.03222 0.49804
 N133 N 0.03864 0.03843 0.49465
 C134 C 0.09279 -0.00169 0.49708
 H135 H 0.12252 -0.07355 0.49676
 H136 H 0.07318 -0.12307 0.50094
 H137 H 0.01958 0.01972 0.48752
 H138 H -0.06975 -0.12008 0.49283
 H139 H -0.12007 -0.06948 0.49358
 H140 H -0.12222 0.07292 0.50361
 H141 H -0.07289 0.12243 0.49931
 H142 H 0.12034 0.06884 0.50705
 H143 H -0.01927 -0.02035 0.51285
 H144 H 0.07002 0.11944 0.50771
 C145 C -0.31823 0.49870 0.99958
 C146 C -0.33654 0.49836 1.03220
 C147 C -0.37419 0.49854 1.03229
 C148 C -0.39407 0.49908 0.99968
 C149 C -0.37540 0.49941 0.96702
 C150 C -0.33774 0.49922 0.96701
 C151 C -0.27945 0.49854 0.99952
 C152 C -0.24698 0.49841 0.99944
 C153 C -0.20820 0.49826 0.99933
 C154 C -0.18861 0.46664 1.00803
 C155 C -0.15096 0.46645 1.00784
 C156 C -0.13262 0.49789 0.99888
 C157 C -0.15232 0.52957 0.99030
 C158 C -0.18997 0.52972 0.99048
 H159 H -0.32171 0.49795 1.05757
 H160 H -0.38771 0.49828 1.05789
 H161 H -0.38986 0.49982 0.94146
 H162 H -0.32385 0.49949 0.94159
 H163 H -0.20243 0.44216 1.01495
 H164 H -0.13607 0.44187 1.01462
 H165 H -0.13849 0.55405 0.98348
 H166 H -0.20485 0.55433 0.98375
 C167 C 0.31882 0.50111 1.00011
 C168 C 0.33712 0.50139 0.96750
 C169 C 0.37477 0.50115 0.96737
 C170 C 0.39482 0.50061 0.99999
 C171 C 0.37599 0.50034 1.03266
 C172 C 0.33833 0.50059 1.03265
 C173 C 0.28005 0.50135 1.00019
 C174 C 0.24757 0.50154 1.00027
 C175 C 0.20880 0.50178 1.00042
 C176 C 0.18926 0.53342 0.99167
 C177 C 0.15161 0.53368 0.99188
 C178 C 0.13321 0.50230 1.00090
 C179 C 0.15286 0.47060 1.00953
 C180 C 0.19051 0.47037 1.00933
 H181 H 0.32227 0.50180 0.94214
 H182 H 0.38808 0.50137 0.94164
 H183 H 0.39026 0.49993 1.05834
 H184 H 0.32444 0.50036 1.05807
 H185 H 0.20313 0.55785 0.98470
 H186 H 0.13677 0.55828 0.98506
 H187 H 0.13898 0.44615 1.01639
 H188 H 0.20534 0.44574 1.01610
 C189 C 0.00056 -0.31887 0.49969
 C190 C 0.03310 -0.33849 0.50023
 C191 C 0.03310 -0.37614 0.50013
 C192 C 0.00041 -0.39485 0.49950
 C193 C -0.03220 -0.37469 0.49890
 C194 C -0.03206 -0.33704 0.49900
 C195 C 0.00063 -0.28010 0.49996
 C196 C 0.00072 -0.24763 0.50024
 C197 C 0.00084 -0.20887 0.50065
 C198 C 0.00842 -0.18944 0.46922
 C199 C 0.00861 -0.15180 0.46963
 C200 C 0.00130 -0.13331 0.50153
 C201 C -0.00640 -0.15285 0.53292
 C202 C -0.00660 -0.19049 0.53248
 H203 H 0.05852 -0.32467 0.50077
 H204 H 0.05878 -0.39049 0.50060
 H205 H -0.05794 -0.38791 0.49839
 H206 H -0.05743 -0.32211 0.49858
 H207 H 0.01417 -0.20337 0.44444
 H208 H 0.01445 -0.13703 0.44518
 H209 H -0.01219 -0.13891 0.55768
 H210 H -0.01254 -0.20524 0.55693
 C211 C -0.00016 0.31823 0.50022
 C212 C 0.03248 0.33641 0.50086
 C213 C 0.03260 0.37406 0.50092
 C214 C 0.00000 0.39407 0.50033
 C215 C -0.03268 0.37552 0.49973
 C216 C -0.03272 0.33787 0.49968
 C217 C -0.00026 0.27946 0.50002
 C218 C -0.00036 0.24699 0.49980
 C219 C -0.00050 0.20823 0.49948
 C220 C 0.00700 0.18978 0.46770
 C221 C 0.00678 0.15214 0.46733
 C222 C -0.00101 0.13267 0.49875
 C223 C -0.00837 0.15123 0.53059
 C224 C -0.00817 0.18887 0.53092
 H225 H 0.05785 0.32148 0.50128
 H226 H 0.05822 0.38748 0.50138
 H227 H -0.05824 0.39008 0.49927
 H228 H -0.05815 0.32408 0.49918
 H229 H 0.01300 0.20448 0.44324
 H230 H 0.01262 0.13814 0.44262
 H231 H -0.01427 0.13651 0.55506
 H232 H -0.01396 0.20286 0.55566
 C233 C 0.49986 -0.00026 -0.31879
 C234 C 0.49918 0.03232 -0.33808
 C235 C 0.49932 0.03239 -0.37572
 C236 C 0.50014 -0.00026 -0.39477
 C237 C 0.50086 -0.03291 -0.37495
 C238 C 0.50071 -0.03284 -0.33730
 C239 C 0.49962 -0.00024 -0.28002
 C240 C 0.49937 -0.00019 -0.24755
 C241 C 0.49904 -0.00006 -0.20879
 C242 C 0.53048 0.00755 -0.18919
 C243 C 0.53013 0.00779 -0.15155
 C244 C 0.49829 0.00052 -0.13323
 C245 C 0.46688 -0.00723 -0.15294
 C246 C 0.46726 -0.00749 -0.19058
 H247 H 0.49852 0.05771 -0.32401
 H248 H 0.49876 0.05809 -0.38981
 H249 H 0.50150 -0.05862 -0.38843
 H250 H 0.50124 -0.05823 -0.32263
 H251 H 0.55521 0.01329 -0.20299
 H252 H 0.55459 0.01367 -0.13665
 H253 H 0.44217 -0.01299 -0.13913
 H254 H 0.44280 -0.01344 -0.20546
 C255 C 0.50030 -0.00019 0.31831
 C256 C 0.50098 -0.03279 0.33759
 C257 C 0.50089 -0.03284 0.37525
 C258 C 0.50011 -0.00021 0.39414
 C259 C 0.49940 0.03243 0.37449
 C260 C 0.49950 0.03240 0.33684
 C261 C 0.50048 -0.00020 0.27954
 C262 C 0.50066 -0.00024 0.24707
 C263 C 0.50091 -0.00034 0.20830
 C264 C 0.46942 -0.00789 0.18876
 C265 C 0.46970 -0.00812 0.15112
 C266 C 0.50152 -0.00088 0.13274
 C267 C 0.53297 0.00681 0.15239
 C268 C 0.53267 0.00705 0.19003
 H269 H 0.50161 -0.05819 0.32353
 H270 H 0.50145 -0.05843 0.38953
 H271 H 0.49880 0.05801 0.38818
 H272 H 0.49897 0.05780 0.32218
 H273 H 0.44471 -0.01360 0.20261
 H274 H 0.44520 -0.01395 0.13626
 H275 H 0.55767 0.01254 0.13853
 H276 H 0.55716 0.01296 0.20487
 C277 C 0.49761 -0.31805 -0.00012
 C278 C 0.49710 -0.33653 -0.03273
 C279 C 0.49740 -0.37416 -0.03279
 C280 C 0.49820 -0.39380 -0.00015
 C281 C 0.49868 -0.37495 0.03250
 C282 C 0.49838 -0.33732 0.03247
 C283 C 0.49742 -0.27934 -0.00010
 C284 C 0.49730 -0.24690 -0.00004
 C285 C 0.49720 -0.20820 0.00007
 C286 C 0.52883 -0.19001 0.00861
 C287 C 0.52874 -0.15239 0.00881
 C288 C 0.49697 -0.13273 0.00055
 C289 C 0.46535 -0.15101 -0.00810
 C290 C 0.46547 -0.18864 -0.00831
 H291 H 0.49651 -0.32185 -0.05812
 H292 H 0.49702 -0.38784 -0.05837
 H293 H 0.49930 -0.38926 0.05808
 H294 H 0.49879 -0.32325 0.05787
 H295 H 0.55352 -0.20490 0.01510
 H296 H 0.55334 -0.13855 0.01540
 H297 H 0.44070 -0.13611 -0.01462
 H298 H 0.44088 -0.20247 -0.01498
 C299 C 0.50138 0.31771 -0.00027
 C300 C 0.50185 0.33617 0.03235
 C301 C 0.50149 0.37381 0.03241
 C302 C 0.50065 0.39346 -0.00022
 C303 C 0.50021 0.37462 -0.03288
 C304 C 0.50057 0.33699 -0.03286
 C305 C 0.50167 0.27900 -0.00031
 C306 C 0.50187 0.24656 -0.00038
 C307 C 0.50208 0.20785 -0.00053
 C308 C 0.53386 0.18837 0.00783
 C309 C 0.53408 0.15074 0.00760
 C310 C 0.50251 0.13238 -0.00105
 C311 C 0.47068 0.15196 -0.00928
 C312 C 0.47049 0.18959 -0.00906
 H313 H 0.50247 0.32149 0.05773
 H314 H 0.50185 0.38749 0.05800
 H315 H 0.49957 0.38893 -0.05845
 H316 H 0.50019 0.32293 -0.05826
 H317 H 0.55842 0.20226 0.01450
 H318 H 0.55878 0.13590 0.01411
 H319 H 0.44612 0.13806 -0.01586
 H320 H 0.44577 0.20441 -0.01553
 C321 C -0.31774 0.00039 0.50288
 C322 C -0.33584 -0.03228 0.50314
 C323 C -0.37347 -0.03245 0.50280
 C324 C -0.39349 0.00013 0.50218
 C325 C -0.37502 0.03284 0.50197
 C326 C -0.33738 0.03293 0.50231
 C327 C -0.27903 0.00053 0.50308
 C328 C -0.24660 0.00065 0.50320
 C329 C -0.20789 0.00080 0.50327
 C330 C -0.18833 -0.00748 0.53495
 C331 C -0.15071 -0.00734 0.53502
 C332 C -0.13242 0.00115 0.50339
 C333 C -0.15208 0.00934 0.47166
 C334 C -0.18971 0.00920 0.47163
 H335 H -0.32087 -0.05762 0.50357
 H336 H -0.38686 -0.05808 0.50297
 H337 H -0.38962 0.05838 0.50149
 H338 H -0.32361 0.05838 0.50210
 H339 H -0.20216 -0.01406 0.55955
 H340 H -0.13580 -0.01381 0.55963
 H341 H -0.13824 0.01579 0.44705
 H342 H -0.20459 0.01561 0.44697
 C343 C 0.31804 -0.00093 0.49824
 C344 C 0.33769 -0.03346 0.49885
 C345 C 0.37533 -0.03336 0.49926
 C346 C 0.39379 -0.00064 0.49908
 C347 C 0.37376 0.03194 0.49843
 C348 C 0.33613 0.03175 0.49802
 C349 C 0.27933 -0.00108 0.49794
 C350 C 0.24690 -0.00122 0.49774
 C351 C 0.20819 -0.00140 0.49756
 C352 C 0.18993 -0.00990 0.52913
 C353 C 0.15230 -0.01006 0.52899
 C354 C 0.13272 -0.00179 0.49723
 C355 C 0.15109 0.00680 0.46568
 C356 C 0.18871 0.00697 0.46585
 H357 H 0.32393 -0.05891 0.49903
 H358 H 0.38993 -0.05889 0.49976
 H359 H 0.38714 0.05757 0.49828
 H360 H 0.32115 0.05709 0.49756
 H361 H 0.20475 -0.01637 0.55380
 H362 H 0.13840 -0.01659 0.55354
 H363 H 0.13624 0.01334 0.44104
 H364 H 0.20260 0.01362 0.44131
 C365 C 0.00064 0.50069 1.31781
 C366 C -0.03201 0.50147 1.33604
 C367 C -0.03214 0.50161 1.37366
 C368 C 0.00046 0.50096 1.39354
 C369 C 0.03316 0.50023 1.37493
 C370 C 0.03321 0.50010 1.33731
 C371 C 0.00075 0.50036 1.27911
 C372 C 0.00085 0.50003 1.24668
 C373 C 0.00101 0.49958 1.20799
 C374 C -0.00605 0.46765 1.18971
 C375 C -0.00584 0.46717 1.15210
 C376 C 0.00149 0.49863 1.13254
 C377 C 0.00844 0.53062 1.15092
 C378 C 0.00824 0.53107 1.18853
 H379 H -0.05737 0.50193 1.32118
 H380 H -0.05776 0.50218 1.38716
 H381 H 0.05871 0.49972 1.38942
 H382 H 0.05864 0.49948 1.32343
 H383 H -0.01171 0.44317 1.20452
 H384 H -0.01135 0.44235 1.13819
 H385 H 0.01400 0.55510 1.13609
 H386 H 0.01370 0.55591 1.20243
 C387 C -0.00017 0.50030 0.68196
 C388 C -0.03274 0.50093 0.66247
 C389 C -0.03270 0.50085 0.62485
 C390 C -0.00000 0.50015 0.60623
 C391 C 0.03261 0.49947 0.62610
 C392 C 0.03248 0.49955 0.66373
 C393 C -0.00025 0.50053 0.72067
 C394 C -0.00034 0.50078 0.75309
 C395 C -0.00047 0.50113 0.79179
 C396 C -0.00771 0.46960 0.81117
 C397 C -0.00789 0.46995 0.84878
 C398 C -0.00091 0.50189 0.86724
 C399 C 0.00644 0.53339 0.84776
 C400 C 0.00663 0.53301 0.81015
 H401 H -0.05816 0.50152 0.67636
 H402 H -0.05825 0.50139 0.61037
 H403 H 0.05822 0.49892 0.61260
 H404 H 0.05785 0.49906 0.67858
 H405 H -0.01320 0.44480 0.79721
 H406 H -0.01346 0.44543 0.86355
 H407 H 0.01197 0.55816 0.86173
 H408 H 0.01230 0.55752 0.79540
   
