data_POSCAR
  _audit_creation_date              2014-09-24
  _audit_creation_method            'ToBaCCo'
  _symmetry_space_group_name_H-M    'P1'
  _symmetry_Int_Tables_number       1
  _symmetry_cell_setting            triclinic
  loop_
  _symmetry_equiv_pos_as_xyz
 x,y,z
_cell_length_a 62.4294
_cell_length_b 61.0272
_cell_length_c 62.4076
_cell_angle_alpha 89.937300
_cell_angle_beta 89.999200
_cell_angle_gamma 90.010000
loop_
  _atom_site_label
  _atom_site_type_symbol
  _atom_site_fract_x
  _atom_site_fract_y
  _atom_site_fract_z
N1 N 0.59965 0.65908 0.61491
 N2 N 0.59103 0.64988 0.63191
 C3 C 0.57358 0.66142 0.63773
 C4 C 0.57120 0.67871 0.62362
 C5 C 0.58800 0.67675 0.60934
 H6 H 0.56334 0.65762 0.65121
 H7 H 0.59146 0.68740 0.59592
 Cu8 Cu 0.60345 0.62376 0.64479
 Cu9 Cu 0.62531 0.64751 0.60129
 Cu10 Cu 0.64835 0.60152 0.62439
 N11 N 0.61690 0.59828 0.65786
 N12 N 0.63444 0.58966 0.64980
 C13 C 0.64035 0.57236 0.66183
 C14 C 0.62572 0.57004 0.67831
 C15 C 0.61105 0.58675 0.67534
 H16 H 0.65426 0.56224 0.65884
 H17 H 0.59722 0.59022 0.68519
 N18 N 0.66005 0.61588 0.59863
 N19 N 0.65128 0.63340 0.58984
 C20 C 0.66288 0.63928 0.57256
 C21 C 0.67971 0.62478 0.57043
 C22 C 0.67746 0.61016 0.58718
 H23 H 0.65940 0.65307 0.56224
 H24 H 0.68778 0.59639 0.59069
 H25 H 0.62128 0.61538 0.61098
 H26 H 0.63779 0.63333 0.62869
 N27 N 0.90014 0.34000 0.11545
 N28 N 0.90826 0.34863 0.13296
 C29 C 0.92571 0.33709 0.13879
 C30 C 0.92860 0.32035 0.12415
 C31 C 0.91210 0.32267 0.10955
 H32 H 0.93560 0.34055 0.15261
 H33 H 0.90904 0.31253 0.09568
 Cu34 Cu 0.89523 0.37411 0.14640
 Cu35 Cu 0.87471 0.35185 0.10159
 Cu36 Cu 0.85167 0.39780 0.12469
 N37 N 0.88239 0.40019 0.15889
 N38 N 0.86536 0.40936 0.15032
 C39 C 0.85979 0.42699 0.16202
 C40 C 0.87411 0.42894 0.17879
 C41 C 0.88824 0.41170 0.17635
 H42 H 0.84635 0.43760 0.15862
 H43 H 0.90174 0.40790 0.18655
 N44 N 0.84017 0.38370 0.09873
 N45 N 0.84894 0.36619 0.08994
 C46 C 0.83745 0.36048 0.07254
 C47 C 0.82071 0.37507 0.07033
 C48 C 0.82288 0.38957 0.08716
 H49 H 0.84094 0.34672 0.06222
 H50 H 0.81257 0.40334 0.09066
 H51 H 0.87901 0.38367 0.11211
 H52 H 0.86137 0.36568 0.12870
 N53 N 0.40028 0.15961 -0.11498
 N54 N 0.40892 0.15038 -0.13193
 C55 C 0.42640 0.16188 -0.13776
 C56 C 0.42878 0.17918 -0.12370
 C57 C 0.41195 0.17727 -0.10944
 H58 H 0.43666 0.15804 -0.15120
 H59 H 0.40850 0.18794 -0.09606
 Cu60 Cu 0.39648 0.12425 -0.14472
 Cu61 Cu 0.37459 0.14808 -0.10134
 Cu62 Cu 0.35155 0.10206 -0.12431
 N63 N 0.38304 0.09875 -0.15772
 N64 N 0.36548 0.09015 -0.14965
 C65 C 0.35959 0.07283 -0.16162
 C66 C 0.37424 0.07048 -0.17805
 C67 C 0.38890 0.08717 -0.17513
 H68 H 0.34569 0.06270 -0.15864
 H69 H 0.40275 0.09057 -0.18499
 N70 N 0.33983 0.11646 -0.09862
 N71 N 0.34860 0.13400 -0.08988
 C72 C 0.33698 0.13989 -0.07263
 C73 C 0.32016 0.12538 -0.07045
 C74 C 0.32241 0.11075 -0.08716
 H75 H 0.34047 0.15368 -0.06234
 H76 H 0.31210 0.09696 -0.09062
 H77 H 0.37861 0.11593 -0.11091
 H78 H 0.36213 0.13386 -0.12871
 N79 N 0.09957 0.83994 0.38480
 N80 N 0.09119 0.84889 0.36755
 C81 C 0.07376 0.83732 0.36169
 C82 C 0.07114 0.82026 0.37605
 C83 C 0.08780 0.82240 0.39051
 H84 H 0.06370 0.84099 0.34804
 H85 H 0.09108 0.81198 0.40416
 Cu86 Cu 0.10391 0.87477 0.35451
 Cu87 Cu 0.12508 0.85169 0.39860
 Cu88 Cu 0.14799 0.89787 0.37562
 N89 N 0.11691 0.90066 0.34174
 N90 N 0.13415 0.90961 0.35010
 C91 C 0.13983 0.92714 0.33828
 C92 C 0.12538 0.92926 0.32165
 C93 C 0.11104 0.91222 0.32430
 H94 H 0.15347 0.93756 0.34149
 H95 H 0.09740 0.90857 0.31423
 N96 N 0.15961 0.88358 0.40145
 N97 N 0.15091 0.86599 0.41020
 C98 C 0.16247 0.86018 0.42753
 C99 C 0.17919 0.87480 0.42975
 C100 C 0.17694 0.88941 0.41300
 H101 H 0.15903 0.84636 0.43782
 H102 H 0.18720 0.90324 0.40953
 H103 H 0.12085 0.88369 0.38861
 H104 H 0.13802 0.86586 0.37144
 N105 N 0.09940 0.16006 0.11507
 N106 N 0.09103 0.15111 0.13232
 C107 C 0.07359 0.16265 0.13817
 C108 C 0.07095 0.17967 0.12380
 C109 C 0.08758 0.17757 0.10935
 H110 H 0.06352 0.15900 0.15181
 H111 H 0.09082 0.18800 0.09571
 Cu112 Cu 0.10380 0.12527 0.14539
 Cu113 Cu 0.12494 0.14838 0.10129
 Cu114 Cu 0.14796 0.10229 0.12434
 N115 N 0.11685 0.09943 0.15818
 N116 N 0.13412 0.09053 0.14985
 C117 C 0.13983 0.07302 0.16169
 C118 C 0.12536 0.07087 0.17830
 C119 C 0.11098 0.08786 0.17562
 H120 H 0.15349 0.06263 0.15849
 H121 H 0.09732 0.09147 0.18567
 N122 N 0.15957 0.11660 0.09850
 N123 N 0.15081 0.13414 0.08972
 C124 C 0.16237 0.13998 0.07240
 C125 C 0.17914 0.12542 0.07021
 C126 C 0.17692 0.11082 0.08698
 H127 H 0.15890 0.15378 0.06209
 H128 H 0.18723 0.09703 0.09046
 H129 H 0.12080 0.11637 0.11131
 H130 H 0.13790 0.13428 0.12848
 N131 N 0.40021 0.84058 0.61498
 N132 N 0.40879 0.84971 0.63201
 C133 C 0.42623 0.83815 0.63785
 C134 C 0.42865 0.82093 0.62369
 C135 C 0.41188 0.82294 0.60939
 H136 H 0.43644 0.84191 0.65135
 H137 H 0.40846 0.81235 0.59593
 Cu138 Cu 0.39633 0.87578 0.64488
 Cu139 Cu 0.37458 0.85221 0.60131
 Cu140 Cu 0.35153 0.89815 0.62439
 N141 N 0.38292 0.90127 0.65793
 N142 N 0.36541 0.90993 0.64983
 C143 C 0.35953 0.92724 0.66183
 C144 C 0.37413 0.92950 0.67831
 C145 C 0.38876 0.91278 0.67539
 H146 H 0.34568 0.93742 0.65883
 H147 H 0.40257 0.90932 0.68528
 N148 N 0.33986 0.88386 0.59862
 N149 N 0.34864 0.86636 0.58983
 C150 C 0.33705 0.86053 0.57253
 C151 C 0.32023 0.87505 0.57038
 C152 C 0.32246 0.88962 0.58714
 H153 H 0.34054 0.84677 0.56221
 H154 H 0.31214 0.90338 0.59065
 H155 H 0.37861 0.88431 0.61103
 H156 H 0.36203 0.86632 0.62868
 N157 N 0.90064 0.65958 0.38504
 N158 N 0.90922 0.65041 0.36802
 C159 C 0.92666 0.66196 0.36215
 C160 C 0.92908 0.67921 0.37627
 C161 C 0.91231 0.67723 0.39058
 H162 H 0.93688 0.65817 0.34867
 H163 H 0.90890 0.68785 0.40402
 Cu164 Cu 0.89678 0.62428 0.35523
 Cu165 Cu 0.87504 0.64794 0.39876
 Cu166 Cu 0.85204 0.60188 0.37581
 N167 N 0.88340 0.59874 0.34225
 N168 N 0.86591 0.59006 0.35039
 C169 C 0.86005 0.57271 0.33844
 C170 C 0.87463 0.57044 0.32195
 C171 C 0.88924 0.58719 0.32481
 H172 H 0.84621 0.56251 0.34148
 H173 H 0.90303 0.59066 0.31489
 N174 N 0.84037 0.61621 0.40157
 N175 N 0.84913 0.63376 0.41030
 C176 C 0.83755 0.63960 0.42760
 C177 C 0.82077 0.62504 0.42981
 C178 C 0.82301 0.61044 0.41308
 H179 H 0.84102 0.65340 0.43788
 H180 H 0.81271 0.59664 0.40962
 H181 H 0.87912 0.61582 0.38912
 H182 H 0.86248 0.63373 0.37144
 N183 N 0.60025 0.34059 -0.11544
 N184 N 0.59185 0.34954 -0.13268
 C185 C 0.57440 0.33800 -0.13849
 C186 C 0.57179 0.32097 -0.12412
 C187 C 0.58845 0.32307 -0.10970
 H188 H 0.56430 0.34165 -0.15211
 H189 H 0.59170 0.31264 -0.09607
 Cu190 Cu 0.60460 0.37539 -0.14575
 Cu191 Cu 0.62580 0.35229 -0.10169
 Cu192 Cu 0.64876 0.39841 -0.12475
 N193 N 0.61762 0.40124 -0.15856
 N194 N 0.63490 0.41016 -0.15025
 C195 C 0.64059 0.42766 -0.16210
 C196 C 0.62610 0.42979 -0.17870
 C197 C 0.61174 0.41279 -0.17601
 H198 H 0.65425 0.43806 -0.15893
 H199 H 0.59808 0.40916 -0.18604
 N200 N 0.66041 0.38411 -0.09891
 N201 N 0.65167 0.36655 -0.09015
 C202 C 0.66323 0.36073 -0.07282
 C203 C 0.67999 0.37532 -0.07063
 C204 C 0.67775 0.38991 -0.08739
 H205 H 0.65978 0.34692 -0.06252
 H206 H 0.68804 0.40372 -0.09087
 H207 H 0.62163 0.38431 -0.11170
 H208 H 0.63873 0.36643 -0.12890
 N209 N -0.02469 0.28918 0.13963
 C210 C -0.02404 0.27372 0.12407
 N211 N -0.03921 0.27385 0.10853
 N212 N -0.05458 0.28900 0.10855
 C213 C -0.05531 0.30453 0.12411
 N214 N -0.04006 0.30433 0.13965
 C215 C -0.00750 0.25739 0.12405
 C216 C 0.00638 0.24367 0.12402
 C217 C 0.02290 0.22732 0.12398
 N218 N 0.02334 0.21156 0.13930
 N219 N 0.03867 0.19636 0.13925
 C220 C 0.05406 0.19643 0.12387
 N221 N 0.05357 0.21224 0.10855
 N222 N 0.03824 0.22744 0.10860
 N223 N 0.52352 0.71055 0.63898
 C224 C 0.52335 0.72657 0.62390
 N225 N 0.53891 0.72687 0.60874
 N226 N 0.55417 0.71161 0.60866
 C227 C 0.55439 0.69555 0.62373
 N228 N 0.53879 0.69529 0.63890
 C229 C 0.50688 0.74297 0.62395
 C230 C 0.49304 0.75674 0.62396
 C231 C 0.47656 0.77313 0.62392
 N232 N 0.47634 0.78906 0.63905
 N233 N 0.46106 0.80430 0.63899
 C234 C 0.44549 0.80411 0.62379
 N235 N 0.44575 0.78813 0.60867
 N236 N 0.46104 0.77290 0.60873
 N237 N 1.02439 0.78917 0.36060
 C238 C 1.02397 0.77340 0.37591
 N239 N 1.03933 0.77330 0.39126
 N240 N 1.05465 0.78850 0.39131
 C241 C 1.05514 0.80434 0.37599
 N242 N 1.03971 0.80438 0.36063
 C243 C 1.00745 0.75705 0.37589
 C244 C 0.99358 0.74331 0.37591
 C245 C 0.97706 0.72695 0.37596
 N246 N 0.97683 0.71099 0.36087
 N247 N 0.96152 0.69578 0.36096
 C248 C 0.94593 0.69602 0.37614
 N249 N 0.94621 0.71203 0.39123
 N250 N 0.96153 0.72725 0.39114
 N251 N 0.47659 0.21087 -0.13905
 C252 C 0.47677 0.22691 -0.12403
 N253 N 0.46118 0.22728 -0.10892
 N254 N 0.44586 0.21207 -0.10882
 C255 C 0.44564 0.19598 -0.12383
 N256 N 0.46128 0.19566 -0.13895
 C257 C 0.49329 0.24327 -0.12410
 C258 C 0.50717 0.25700 -0.12414
 C259 C 0.52369 0.27334 -0.12415
 N260 N 0.53908 0.27323 -0.10881
 N261 N 0.55442 0.28841 -0.10881
 C262 C 0.55488 0.30421 -0.12414
 N263 N 0.53946 0.30428 -0.13948
 N264 N 0.52411 0.28909 -0.13948
 N265 N 0.10991 -0.03888 0.27395
 C266 C 0.12522 -0.02312 0.27349
 N267 N 0.14057 -0.02301 0.28886
 N268 N 0.14062 -0.03819 0.30422
 C269 C 0.12531 -0.05399 0.30473
 N270 N 0.10995 -0.05406 0.28932
 C271 C 0.12520 -0.00679 0.25693
 C272 C 0.12520 0.00693 0.24302
 C273 C 0.12522 0.02326 0.22646
 N274 N 0.10988 0.03898 0.22598
 N275 N 0.10992 0.05416 0.21061
 C276 C 0.12530 0.05412 0.19522
 N277 N 0.14063 0.03835 0.19575
 N278 N 0.14059 0.02317 0.21112
 N279 N 0.61023 0.53898 -0.27487
 C280 C 0.62583 0.52355 -0.27411
 N281 N 0.64140 0.52367 -0.28926
 N282 N 0.64137 0.53877 -0.30470
 C283 C 0.62576 0.55427 -0.30553
 N284 N 0.61019 0.55408 -0.29031
 C285 C 0.62586 0.50729 -0.25749
 C286 C 0.62588 0.49361 -0.24354
 C287 C 0.62592 0.47732 -0.22695
 N288 N 0.64130 0.47745 -0.21161
 N289 N 0.64136 0.46230 -0.19622
 C290 C 0.62603 0.44652 -0.19565
 N291 N 0.61064 0.44644 -0.21104
 N292 N 0.61059 0.46159 -0.22643
 N293 N 0.38979 1.03847 0.77444
 C294 C 0.37416 1.02307 0.77370
 N295 N 0.35856 1.02323 0.78881
 N296 N 0.35858 1.03835 0.80420
 C297 C 0.37421 1.05381 0.80499
 N298 N 0.38982 1.05359 0.78983
 C299 C 0.37413 1.00679 0.75713
 C300 C 0.37412 0.99312 0.74320
 C301 C 0.37411 0.97685 0.72662
 N302 N 0.38968 0.96137 0.72591
 N303 N 0.38968 0.94627 0.71050
 C304 C 0.37412 0.94614 0.69530
 N305 N 0.35855 0.96166 0.69606
 N306 N 0.35855 0.97676 0.71147
 N307 N 0.85924 0.47694 0.21126
 C308 C 0.87443 0.47663 0.22678
 N309 N 0.88953 0.46066 0.22652
 N310 N 0.88944 0.44546 0.21121
 C311 C 0.87424 0.44572 0.19565
 N312 N 0.85914 0.46174 0.19595
 C313 C 0.87450 0.49296 0.24330
 C314 C 0.87454 0.50667 0.25719
 C315 C 0.87457 0.52298 0.27374
 N316 N 0.89013 0.53847 0.27439
 N317 N 0.89015 0.55360 0.28977
 C318 C 0.87461 0.55376 0.30499
 N319 N 0.85905 0.53822 0.30428
 N320 N 0.85903 0.52309 0.28891
 N321 N 0.28825 0.14102 -0.02325
 C322 C 0.27271 0.12550 -0.02323
 N323 N 0.27275 0.10995 -0.03873
 N324 N 0.28787 0.10992 -0.05380
 C325 C 0.30346 0.12544 -0.05386
 N326 N 0.30338 0.14099 -0.03831
 C327 C 0.25644 0.12551 -0.00699
 C328 C 0.24278 0.12550 0.00666
 C329 C 0.22651 0.12549 0.02291
 N330 N 0.22648 0.10994 0.03844
 N331 N 0.21138 0.10992 0.05353
 C332 C 0.19580 0.12545 0.05358
 N333 N 0.19588 0.14100 0.03800
 N334 N 0.21098 0.14102 0.02291
 N335 N 0.71161 0.64045 0.52320
 C336 C 0.72719 0.62497 0.52323
 N337 N 0.72717 0.60943 0.53878
 N338 N 0.71204 0.60937 0.55383
 C339 C 0.69641 0.62485 0.55384
 N340 N 0.69648 0.64039 0.53825
 C341 C 0.74347 0.62501 0.50700
 C342 C 0.75713 0.62504 0.49336
 C343 C 0.77340 0.62505 0.47711
 N344 N 0.77343 0.60951 0.46159
 N345 N 0.78853 0.60952 0.44650
 C346 C 0.80411 0.62506 0.44643
 N347 N 0.80403 0.64059 0.46199
 N348 N 0.78892 0.64059 0.47708
 N349 N 0.77344 0.39070 0.03849
 C350 C 0.77346 0.37523 0.02291
 N351 N 0.78900 0.35971 0.02290
 N352 N 0.80407 0.35967 0.03802
 C353 C 0.80410 0.37514 0.05365
 N354 N 0.78851 0.39065 0.05361
 C355 C 0.75722 0.37526 0.00664
 C356 C 0.74357 0.37529 -0.00703
 C357 C 0.72732 0.37530 -0.02328
 N358 N 0.71181 0.35975 -0.02331
 N359 N 0.69671 0.35975 -0.03841
 C360 C 0.69663 0.37531 -0.05398
 N361 N 0.71219 0.39086 -0.05391
 N362 N 0.72729 0.39086 -0.03881
 N363 N 0.22646 0.89044 0.46155
 C364 C 0.22654 0.87487 0.47707
 N365 N 0.21107 0.85928 0.47704
 N366 N 0.19596 0.85926 0.46195
 C367 C 0.19584 0.87482 0.44639
 N368 N 0.21136 0.89042 0.44646
 C369 C 0.24281 0.87490 0.49332
 C370 C 0.25648 0.87492 0.50696
 C371 C 0.27276 0.87494 0.52318
 N372 N 0.28834 0.85946 0.52315
 N373 N 0.30347 0.85949 0.53821
 C374 C 0.30354 0.87501 0.55379
 N375 N 0.28791 0.89049 0.55377
 N376 N 0.27278 0.89046 0.53872
   
