data_POSCAR
  _audit_creation_date              2014-09-24
  _audit_creation_method            'ToBaCCo'
  _symmetry_space_group_name_H-M    'P1'
  _symmetry_Int_Tables_number       1
  _symmetry_cell_setting            triclinic
  loop_
  _symmetry_equiv_pos_as_xyz
 x,y,z
_cell_length_a 37.9634
_cell_length_b 38.2989
_cell_length_c 52.5196
_cell_angle_alpha 89.225000
_cell_angle_beta 90.606500
_cell_angle_gamma 122.866100
loop_
  _atom_site_label
  _atom_site_type_symbol
  _atom_site_fract_x
  _atom_site_fract_y
  _atom_site_fract_z
C1 C -0.01668 0.51013 1.25872
 C2 C 0.02488 0.52562 1.26204
 C3 C 0.04275 0.52808 1.28778
 C4 C 0.05405 0.54163 1.24008
 C5 C -0.03734 0.49426 1.23364
 C6 C -0.04400 0.50505 1.28042
 C7 C 0.07973 0.56426 1.29562
 C8 C 0.09609 0.56677 1.31996
 C9 C 0.07574 0.53304 1.33760
 C10 C 0.03834 0.49662 1.32901
 C11 C 0.02282 0.49404 1.30449
 C12 C 0.05394 0.56999 1.22295
 C13 C 0.08292 0.58730 1.20322
 C14 C 0.11285 0.57686 1.20028
 C15 C 0.11257 0.54792 1.21713
 C16 C 0.08354 0.53064 1.23701
 C17 C -0.03262 0.46518 1.22076
 C18 C -0.05718 0.44492 1.19943
 C19 C -0.08701 0.45323 1.19068
 C20 C -0.09029 0.48380 1.20282
 C21 C -0.06577 0.50402 1.22424
 C22 C -0.08274 0.46749 1.28398
 C23 C -0.10798 0.46221 1.30467
 C24 C -0.09489 0.49431 1.32233
 C25 C -0.05640 0.53218 1.31846
 C26 C -0.03147 0.53764 1.29755
 H27 H 0.09607 0.59080 1.28284
 H28 H 0.12572 0.59507 1.32395
 H29 H 0.01911 0.46995 1.34108
 H30 H -0.00550 0.46539 1.29872
 H31 H 0.03188 0.57937 1.22517
 H32 H 0.08207 0.60910 1.19028
 H33 H 0.08423 0.50894 1.25012
 H34 H -0.01138 0.45669 1.22793
 H35 H -0.05378 0.42178 1.19022
 H36 H -0.11329 0.49052 1.19655
 H37 H -0.07003 0.52616 1.23405
 H38 H -0.09322 0.44200 1.27091
 H39 H -0.13783 0.43298 1.30677
 H40 H -0.04512 0.55740 1.33182
 H41 H -0.00206 0.56717 1.29493
 H42 H 0.13547 0.53955 1.21532
 C43 C 0.53316 0.50545 1.24366
 C44 C 0.51446 0.52737 1.24292
 C45 C 0.49579 0.53288 1.26602
 C46 C 0.50792 0.54312 1.21863
 C47 C 0.53830 0.48706 1.22027
 C48 C 0.54445 0.49507 1.26847
 C49 C 0.46513 0.49792 1.27978
 C50 C 0.44481 0.50242 1.30022
 C51 C 0.45440 0.54196 1.30722
 C52 C 0.48564 0.57707 1.29374
 C53 C 0.50592 0.57251 1.27315
 C54 C 0.46719 0.52745 1.20962
 C55 C 0.46075 0.54129 1.18639
 C56 C 0.49494 0.57254 1.17213
 C57 C 0.53580 0.58896 1.18178
 C58 C 0.54220 0.57392 1.20459
 C59 C 0.57613 0.49006 1.21534
 C60 C 0.57987 0.47058 1.19406
 C61 C 0.54573 0.44758 1.17733
 C62 C 0.50802 0.44491 1.18237
 C63 C 0.50416 0.46370 1.20377
 C64 C 0.57185 0.52679 1.28527
 C65 C 0.57782 0.51703 1.31003
 C66 C 0.55599 0.47551 1.31833
 C67 C 0.52998 0.44374 1.30123
 C68 C 0.52468 0.45343 1.27633
 H69 H 0.45612 0.46699 1.27424
 H70 H 0.42115 0.47485 1.31040
 H71 H 0.49334 0.60785 1.29858
 H72 H 0.52914 0.59979 1.26256
 H73 H 0.44038 0.50351 1.22026
 H74 H 0.42888 0.52687 1.17955
 H75 H 0.57385 0.58673 1.21154
 H76 H 0.60265 0.50721 1.22809
 H77 H 0.60917 0.47276 1.19107
 H78 H 0.48120 0.42809 1.16983
 H79 H 0.47405 0.45926 1.20767
 H80 H 0.58737 0.55909 1.27946
 H81 H 0.59781 0.54188 1.32307
 H82 H 0.51285 0.41152 1.30741
 H83 H 0.50331 0.42861 1.26366
 H84 H 0.56300 0.61380 1.17196
 C85 C 0.49535 1.01539 1.24731
 C86 C 0.48170 0.97447 1.24883
 C87 C 0.46738 0.95108 1.27324
 C88 C 0.47435 0.95022 1.22545
 C89 C 0.50266 1.03697 1.22231
 C90 C 0.50028 1.03963 1.27029
 C91 C 0.49228 0.94060 1.28693
 C92 C 0.47768 0.91772 1.30977
 C93 C 0.43783 0.90512 1.31962
 C94 C 0.41302 0.91552 1.30518
 C95 C 0.42753 0.93789 1.28236
 C96 C 0.50191 0.93823 1.21880
 C97 C 0.49766 0.91941 1.19535
 C98 C 0.46565 0.91217 1.17821
 C99 C 0.43725 0.92304 1.18539
 C100 C 0.44154 0.94182 1.20882
 C101 C 0.47603 1.04971 1.21436
 C102 C 0.48040 1.06751 1.19031
 C103 C 0.51185 1.07341 1.17328
 C104 C 0.53941 1.06152 1.18184
 C105 C 0.53466 1.04334 1.20597
 C106 C 0.46647 1.04080 1.27940
 C107 C 0.47218 1.06741 1.29918
 C108 C 0.51206 1.09376 1.31049
 C109 C 0.54547 1.09068 1.30188
 C110 C 0.53963 1.06423 1.28185
 H111 H 0.52317 0.95044 1.28007
 H112 H 0.49863 0.91162 1.32006
 H113 H 0.38138 0.90502 1.31070
 H114 H 0.40737 0.94465 1.27161
 H115 H 0.52747 0.94461 1.23141
 H116 H 0.51960 0.91079 1.19054
 H117 H 0.42005 0.95102 1.21370
 H118 H 0.45112 1.04523 1.22661
 H119 H 0.45959 1.07777 1.18566
 H120 H 0.56355 1.06427 1.16961
 H121 H 0.55555 1.03360 1.21176
 H122 H 0.43568 1.02161 1.27087
 H123 H 0.44478 1.06645 1.30576
 H124 H 0.57693 1.11048 1.30931
 H125 H 0.56616 1.06384 1.27486
 H126 H 0.41255 0.91827 1.17254
 C127 C 1.01468 0.50069 0.75233
 C128 C 0.97281 0.48494 0.74888
 C129 C 0.95120 0.47124 0.72365
 C130 C 0.94513 0.47446 0.77140
 C131 C 1.03279 0.50638 0.77849
 C132 C 1.04390 0.50883 0.73095
 C133 C 0.92100 0.48019 0.71685
 C134 C 0.89669 0.46352 0.69479
 C135 C 0.90209 0.43756 0.67880
 C136 C 0.93317 0.42954 0.68536
 C137 C 0.95678 0.44545 0.70772
 C138 C 0.95257 0.50484 0.78925
 C139 C 0.93283 0.49301 0.81305
 C140 C 0.90566 0.45074 0.81924
 C141 C 0.89579 0.42074 0.80064
 C142 C 0.91499 0.43254 0.77682
 C143 C 1.01753 0.47254 0.79531
 C144 C 1.03465 0.47765 0.81966
 C145 C 1.06916 0.51660 0.82778
 C146 C 1.08470 0.55036 0.81032
 C147 C 1.06673 0.54522 0.78612
 C148 C 1.07007 0.49362 0.73296
 C149 C 1.09792 0.50037 0.71361
 C150 C 1.10049 0.52226 0.69107
 C151 C 1.07464 0.53843 0.68944
 C152 C 1.04686 0.53188 0.70915
 H153 H 0.91546 0.49931 0.72904
 H154 H 0.87267 0.46989 0.69080
 H155 H 0.93899 0.41039 0.67344
 H156 H 0.97862 0.43662 0.71284
 H157 H 0.97561 0.53736 0.78536
 H158 H 0.94088 0.51659 0.82717
 H159 H 0.90880 0.40866 0.76334
 H160 H 0.99205 0.44193 0.78962
 H161 H 1.01951 0.45069 0.83204
 H162 H 1.11188 0.58070 0.81456
 H163 H 1.07964 0.57159 0.77318
 H164 H 1.06900 0.47621 0.74969
 H165 H 1.11835 0.48931 0.71713
 H166 H 1.07432 0.55487 0.67265
 H167 H 1.02745 0.54454 0.70726
 H168 H 0.87469 0.38799 0.80502
 C169 C 0.50246 0.52986 0.75497
 C170 C 0.52438 0.51112 0.75560
 C171 C 0.52907 0.49279 0.73213
 C172 C 0.54089 0.50419 0.77973
 C173 C 0.48265 0.53353 0.77817
 C174 C 0.49279 0.54211 0.73020
 C175 C 0.49316 0.46215 0.71912
 C176 C 0.49669 0.44141 0.69870
 C177 C 0.53618 0.45054 0.69106
 C178 C 0.57226 0.48188 0.70372
 C179 C 0.56869 0.50268 0.72425
 C180 C 0.53720 0.46607 0.78417
 C181 C 0.55477 0.45998 0.80589
 C182 C 0.57626 0.49175 0.82387
 C183 C 0.57936 0.52970 0.81965
 C184 C 0.56215 0.53596 0.79772
 C185 C 0.48507 0.57062 0.78336
 C186 C 0.46428 0.57315 0.80440
 C187 C 0.44027 0.53844 0.82045
 C188 C 0.43802 0.50140 0.81521
 C189 C 0.45873 0.49889 0.79422
 C190 C 0.52535 0.56996 0.71378
 C191 C 0.51635 0.57705 0.68907
 C192 C 0.47474 0.55591 0.68039
 C193 C 0.44212 0.52940 0.69712
 C194 C 0.45105 0.52298 0.72198
 H195 H 0.46224 0.45337 0.72529
 H196 H 0.46841 0.41774 0.68911
 H197 H 0.60304 0.48924 0.69834
 H198 H 0.59667 0.52584 0.73432
 H199 H 0.52101 0.44099 0.77066
 H200 H 0.55236 0.43063 0.80822
 H201 H 0.56601 0.56586 0.79462
 H202 H 0.50286 0.59751 0.77102
 H203 H 0.46614 0.60194 0.80776
 H204 H 0.42013 0.47425 0.82733
 H205 H 0.45547 0.46959 0.79025
 H206 H 0.55774 0.58500 0.71985
 H207 H 0.54187 0.59740 0.67634
 H208 H 0.40983 0.51277 0.69065
 H209 H 0.42557 0.50128 0.73433
 H210 H 0.59520 0.55467 0.83325
 C211 C 0.51013 -0.01922 0.74283
 C212 C 0.52487 0.02191 0.74004
 C213 C 0.52609 0.04028 0.71465
 C214 C 0.54038 0.04979 0.76244
 C215 C 0.49308 -0.04096 0.76757
 C216 C 0.50664 -0.04489 0.72076
 C217 C 0.56075 0.07926 0.70737
 C218 C 0.56147 0.09645 0.68358
 C219 C 0.52774 0.07471 0.66641
 C220 C 0.49314 0.03565 0.67385
 C221 C 0.49191 0.01920 0.69786
 C222 C 0.57043 0.05065 0.77867
 C223 C 0.58715 0.07838 0.79887
 C224 C 0.57402 0.10568 0.80333
 C225 C 0.54317 0.10418 0.78753
 C226 C 0.52675 0.07668 0.76704
 C227 C 0.46424 -0.03591 0.78071
 C228 C 0.44374 -0.06014 0.80210
 C229 C 0.45076 -0.09094 0.81081
 C230 C 0.48114 -0.09464 0.79796
 C231 C 0.50179 -0.07009 0.77656
 C232 C 0.46932 -0.08317 0.71623
 C233 C 0.46530 -0.10658 0.69500
 C234 C 0.49863 -0.09242 0.67755
 C235 C 0.53651 -0.05424 0.68278
 C236 C 0.54042 -0.03102 0.70411
 H237 H 0.58728 0.09643 0.72011
 H238 H 0.58821 0.12702 0.67887
 H239 H 0.46686 0.01749 0.66115
 H240 H 0.46416 -0.01028 0.70327
 H241 H 0.58163 0.03043 0.77532
 H242 H 0.61073 0.07884 0.81092
 H243 H 0.50361 0.07647 0.75469
 H244 H 0.45653 -0.01399 0.77394
 H245 H 0.42271 -0.05400 0.81181
 H246 H 0.48737 -0.11819 0.80318
 H247 H 0.52363 -0.07480 0.76649
 H248 H 0.44293 -0.09476 0.72900
 H249 H 0.43618 -0.13637 0.69293
 H250 H 0.56286 -0.04077 0.66993
 H251 H 0.56972 -0.00169 0.70739
 H252 H 0.53281 0.12516 0.79057
 O253 O 0.37803 0.65216 0.97199
 O254 O 0.37228 0.71494 0.96034
 C255 C 0.35148 0.73157 0.95748
 O256 O 0.32719 0.72981 0.97444
 O257 O 0.25889 0.65581 0.97755
 C258 C 0.23952 0.61640 0.97842
 O259 O 0.24837 0.59727 0.99476
 O260 O 0.31326 0.59690 0.97906
 C261 C 0.34748 0.61558 0.96673
 O262 O 0.40077 0.68132 1.01971
 O263 O 0.39585 0.74506 1.00850
 C264 C 0.37531 0.75195 1.02460
 O265 O 0.33541 0.73142 1.02514
 O266 O 0.26326 0.66057 1.02863
 C267 C 0.26799 0.64018 1.04596
 O268 O 0.28481 0.61995 1.04183
 O269 O 0.34716 0.61598 1.02616
 C270 C 0.38439 0.64617 1.03050
 Cr271 Cr 0.38461 0.69731 0.99051
 Cr272 Cr 0.29723 0.69344 1.00143
 Cr273 Cr 0.29930 0.60952 1.01012
 O274 O 0.32738 0.66673 1.00069
 O275 O 0.63006 0.34276 0.96280
 O276 O 0.61735 0.26878 0.96419
 C277 C 0.64717 0.26554 0.95640
 O278 O 0.67984 0.27681 0.96941
 O279 O 0.74687 0.33735 0.99052
 C280 C 0.75872 0.37065 0.97798
 O281 O 0.74297 0.39218 0.98143
 O282 O 0.67901 0.40000 0.98244
 C283 C 0.65370 0.38190 0.96411
 O284 O 0.60641 0.33545 1.01239
 O285 O 0.59478 0.26223 1.01403
 C286 C 0.60857 0.24058 1.02216
 O287 O 0.64380 0.24726 1.01552
 O288 O 0.70895 0.30977 1.03630
 C289 C 0.73130 0.34628 1.04470
 O290 O 0.73635 0.37755 1.03246
 O291 O 0.66784 0.37904 1.03192
 C292 C 0.62804 0.35982 1.03061
 Cr293 Cr 0.61420 0.30314 0.98874
 Cr294 Cr 0.69394 0.29395 1.00278
 Cr295 Cr 0.70536 0.38510 1.00685
 O296 O 0.67082 0.32715 0.99952
 O297 O 0.63276 0.38559 0.53172
 O298 O 0.69939 0.38127 0.53451
 C299 C 0.71626 0.36034 0.53359
 O300 O 0.71066 0.33670 0.51503
 O301 O 0.63736 0.26732 0.51483
 C302 C 0.59796 0.24690 0.51787
 O303 O 0.57476 0.25676 0.50668
 O304 O 0.58046 0.31880 0.53066
 C305 C 0.60034 0.35386 0.54147
 O306 O 0.65003 0.40705 0.48151
 O307 O 0.71764 0.40594 0.48551
 C308 C 0.72152 0.38735 0.46693
 O309 O 0.70073 0.34803 0.46510
 O310 O 0.62862 0.27619 0.46405
 C311 C 0.59927 0.27744 0.45289
 O312 O 0.58297 0.29574 0.46237
 O313 O 0.58344 0.35551 0.48624
 C314 C 0.61142 0.38992 0.47635
 Cr315 Cr 0.67380 0.39302 0.50802
 Cr316 Cr 0.66849 0.30805 0.48999
 Cr317 Cr 0.58253 0.30775 0.49654
 O318 O 0.64178 0.33631 0.49824
 O319 O 0.36102 0.59180 0.51217
 O320 O 0.30092 0.59156 0.53626
 C321 C 0.28281 0.60786 0.54606
 O322 O 0.28262 0.63788 0.53539
 O323 O 0.35601 0.70836 0.53488
 C324 C 0.39564 0.72922 0.53277
 O325 O 0.41424 0.72540 0.51404
 O326 O 0.41391 0.65736 0.51715
 C327 C 0.39582 0.61889 0.52217
 O328 O 0.32498 0.59092 0.46781
 O329 O 0.26264 0.58583 0.49197
 C330 C 0.25286 0.60976 0.48188
 O331 O 0.27454 0.64880 0.48496
 O332 O 0.34574 0.72084 0.48538
 C333 C 0.36953 0.72694 0.46661
 O334 O 0.38942 0.70901 0.46488
 O335 O 0.39262 0.64208 0.46679
 C336 C 0.36044 0.61030 0.45698
 Cr337 Cr 0.31350 0.59215 0.50201
 Cr338 Cr 0.31572 0.67809 0.50986
 Cr339 Cr 0.40058 0.68230 0.49101
 O340 O 0.34325 0.65095 0.50086
 C341 C 0.42667 0.57912 0.36563
 C342 C 0.38392 0.55148 0.36611
 C343 C 0.36246 0.52065 0.34802
 C344 C 0.38606 0.51804 0.32867
 C345 C 0.43029 0.54601 0.32770
 C346 C 0.45079 0.57724 0.34642
 O347 O 0.44089 0.60538 0.38502
 C348 C 0.40631 0.59402 0.39798
 C349 C 0.37066 0.56124 0.38715
 C350 C 0.33111 0.54377 0.39774
 C351 C 0.32814 0.56058 0.42054
 C352 C 0.36443 0.59427 0.43237
 C353 C 0.40411 0.61136 0.42068
 H354 H 0.32879 0.49923 0.34885
 H355 H 0.36982 0.49438 0.31431
 H356 H 0.48450 0.59876 0.34635
 H357 H 0.30354 0.51788 0.38887
 H358 H 0.29748 0.54704 0.42904
 H359 H 0.43246 0.63686 0.42917
 C360 C 0.42044 0.83538 0.37566
 C361 C 0.39101 0.83822 0.38874
 C362 C 0.37650 0.86277 0.38051
 C363 C 0.39259 0.88513 0.35769
 C364 C 0.42291 0.88288 0.34316
 C365 C 0.43726 0.85765 0.35287
 O366 O 0.42942 0.80962 0.38676
 C367 C 0.40511 0.79610 0.40733
 C368 C 0.38111 0.81281 0.40935
 C369 C 0.35321 0.80297 0.42917
 C370 C 0.34988 0.77477 0.44779
 C371 C 0.37418 0.75678 0.44640
 C372 C 0.40226 0.76774 0.42570
 H373 H 0.35358 0.86478 0.39135
 H374 H 0.38208 0.90530 0.35208
 H375 H 0.45934 0.85363 0.34261
 H376 H 0.33457 0.81649 0.43027
 H377 H 0.32811 0.76692 0.46327
 H378 H 0.42124 0.75468 0.42393
 C379 C 0.14011 0.57473 0.39629
 C380 C 0.12530 0.53874 0.41000
 C381 C 0.09411 0.50023 0.40103
 C382 C 0.07743 0.49851 0.37683
 C383 C 0.09161 0.53526 0.36163
 C384 C 0.12358 0.57409 0.37238
 O385 O 0.17222 0.60782 0.40746
 C386 C 0.17789 0.59213 0.42863
 C387 C 0.14974 0.54996 0.43111
 C388 C 0.15161 0.52651 0.45082
 C389 C 0.18457 0.54717 0.46834
 C390 C 0.21489 0.59049 0.46580
 C391 C 0.21077 0.61348 0.44601
 H392 H 0.08392 0.47211 0.41192
 H393 H 0.05530 0.46762 0.36999
 H394 H 0.13562 0.60376 0.36312
 H395 H 0.12938 0.49325 0.45216
 H396 H 0.18726 0.52911 0.48338
 H397 H 0.23395 0.64629 0.44320
 C398 C 0.59258 0.46024 0.38216
 C399 C 0.55600 0.44318 0.39583
 C400 C 0.51898 0.43642 0.38540
 C401 C 0.51965 0.44763 0.35982
 C402 C 0.55695 0.46540 0.34537
 C403 C 0.59411 0.47229 0.35675
 O404 O 0.62312 0.46067 0.39506
 C405 C 0.60540 0.44347 0.41731
 C406 C 0.56442 0.43247 0.41874
 C407 C 0.53883 0.41123 0.43944
 C408 C 0.55573 0.39972 0.45919
 C409 C 0.59751 0.40950 0.45792
 C410 C 0.62308 0.43278 0.43696
 H411 H 0.49039 0.42214 0.39640
 H412 H 0.49113 0.44227 0.35113
 H413 H 0.62270 0.48511 0.34587
 H414 H 0.50649 0.40237 0.43993
 H415 H 0.53572 0.38174 0.47503
 H416 H 0.65460 0.43956 0.43509
 C417 C 0.55642 0.16700 0.36557
 C418 C 0.53070 0.18189 0.36524
 C419 C 0.49840 0.16893 0.34774
 C420 C 0.49229 0.13940 0.32975
 C421 C 0.51845 0.12318 0.32924
 C422 C 0.55127 0.13787 0.34767
 O423 O 0.58438 0.18245 0.38442
 C424 C 0.57611 0.20777 0.39614
 C425 C 0.54365 0.20864 0.38504
 C426 C 0.52921 0.23240 0.39438
 C427 C 0.54863 0.25586 0.41629
 C428 C 0.58178 0.25507 0.42855
 C429 C 0.59595 0.23088 0.41802
 H430 H 0.47859 0.18121 0.34787
 H431 H 0.46807 0.13082 0.31562
 H432 H 0.57135 0.12595 0.34896
 H433 H 0.50351 0.23248 0.38531
 H434 H 0.53721 0.27404 0.42392
 H435 H 0.62089 0.22923 0.42690
 C436 C 0.83249 0.44433 0.37860
 C437 C 0.83116 0.47723 0.38738
 C438 C 0.85264 0.51620 0.37574
 C439 C 0.87662 0.52149 0.35417
 C440 C 0.87899 0.48815 0.34486
 C441 C 0.85644 0.44899 0.35741
 O442 O 0.80937 0.40976 0.39221
 C443 C 0.79311 0.42111 0.41001
 C444 C 0.80565 0.46215 0.40797
 C445 C 0.79263 0.48065 0.42473
 C446 C 0.76541 0.45578 0.44435
 C447 C 0.75155 0.41314 0.44672
 C448 C 0.76572 0.39566 0.42921
 H449 H 0.85079 0.54152 0.38289
 H450 H 0.89291 0.55144 0.34461
 H451 H 0.85788 0.42299 0.35114
 H452 H 0.80294 0.51302 0.42274
 H453 H 0.75462 0.46964 0.45742
 H454 H 0.75580 0.36332 0.43048
 C455 C 0.58723 0.42137 1.11998
 C456 C 0.55186 0.38448 1.11271
 C457 C 0.51431 0.36609 1.12591
 C458 C 0.51295 0.38673 1.14736
 C459 C 0.54865 0.42551 1.15507
 C460 C 0.58648 0.44277 1.14112
 O461 O 0.61992 0.43307 1.10502
 C462 C 0.60474 0.40293 1.08792
 C463 C 0.56317 0.37262 1.09170
 C464 C 0.54085 0.33840 1.07590
 C465 C 0.56233 0.33510 1.05546
 C466 C 0.60550 0.36551 1.05133
 C467 C 0.62690 0.40002 1.06787
 H468 H 0.48705 0.33672 1.12001
 H469 H 0.48405 0.37215 1.15805
 H470 H 0.61428 0.47230 1.14620
 H471 H 0.50809 0.31499 1.07926
 H472 H 0.54551 0.30832 1.04319
 H473 H 0.65978 0.42378 1.06527
 C474 C 0.84333 0.42051 1.13245
 C475 C 0.82457 0.37811 1.13378
 C476 C 0.83377 0.35857 1.15273
 C477 C 0.86343 0.38378 1.17118
 C478 C 0.88309 0.42763 1.17038
 C479 C 0.87277 0.44619 1.15069
 O480 O 0.83053 0.43274 1.11263
 C481 C 0.80305 0.39725 1.10126
 C482 C 0.79821 0.36296 1.11353
 C483 C 0.77130 0.32271 1.10488
 C484 C 0.74874 0.31756 1.08246
 C485 C 0.75356 0.35247 1.06912
 C486 C 0.78095 0.39290 1.07890
 H487 H 0.81858 0.32513 1.15333
 H488 H 0.87052 0.36910 1.18638
 H489 H 0.88741 0.47954 1.14952
 H490 H 0.76805 0.29624 1.11492
 H491 H 0.72794 0.28635 1.07538
 H492 H 0.78550 0.42019 1.06922
 C493 C 0.55656 0.13107 1.11165
 C494 C 0.52160 0.12753 1.10099
 C495 C 0.48269 0.10576 1.11265
 C496 C 0.47962 0.08719 1.13641
 C497 C 0.51532 0.09071 1.14851
 C498 C 0.55431 0.11264 1.13528
 O499 O 0.59104 0.15498 1.09797
 C500 C 0.57741 0.16675 1.07829
 C501 C 0.53511 0.15075 1.07925
 C502 C 0.51468 0.16103 1.06147
 C503 C 0.53895 0.18949 1.04211
 C504 C 0.58278 0.20685 1.04075
 C505 C 0.60208 0.19465 1.05894
 H506 H 0.45555 0.10334 1.10383
 H507 H 0.44879 0.06920 1.14485
 H508 H 0.58289 0.11770 1.14357
 H509 H 0.48145 0.14849 1.06287
 H510 H 0.52373 0.19865 1.02850
 H511 H 0.63560 0.20816 1.05885
 C512 C 0.44439 0.59995 1.11945
 C513 C 0.47527 0.61616 1.10130
 C514 C 0.51287 0.61862 1.10478
 C515 C 0.51890 0.60377 1.12794
 C516 C 0.48797 0.58778 1.14743
 C517 C 0.45019 0.58621 1.14287
 O518 O 0.41038 0.59911 1.11210
 C519 C 0.42009 0.61534 1.08881
 C520 C 0.45967 0.62677 1.08139
 C521 C 0.47661 0.64541 1.05795
 C522 C 0.45165 0.65241 1.04146
 C523 C 0.41036 0.63980 1.04844
 C524 C 0.39432 0.62092 1.07243
 H525 H 0.53645 0.63087 1.09002
 H526 H 0.54748 0.60425 1.13034
 H527 H 0.42592 0.57507 1.15710
 H528 H 0.50794 0.65443 1.05260
 H529 H 0.46408 0.66687 1.02308
 H530 H 0.36302 0.61140 1.07824
 C531 C 0.18203 0.59397 1.14404
 C532 C 0.19979 0.63580 1.13985
 C533 C 0.19210 0.66020 1.15519
 C534 C 0.16441 0.64057 1.17554
 C535 C 0.14476 0.59724 1.18002
 C536 C 0.15436 0.57376 1.16428
 O537 O 0.19171 0.57623 1.12622
 C538 C 0.21589 0.60756 1.11039
 C539 C 0.22159 0.64459 1.11795
 C540 C 0.24274 0.68071 1.10337
 C541 C 0.25831 0.67856 1.07985
 C542 C 0.25311 0.64093 1.07154
 C543 C 0.23220 0.60498 1.08723
 H544 H 0.20626 0.69300 1.15131
 H545 H 0.15780 0.65902 1.18763
 H546 H 0.13928 0.54055 1.16697
 H547 H 0.24601 0.70920 1.10952
 H548 H 0.27399 0.70613 1.06789
 H549 H 0.22699 0.57568 1.08103
 C550 C 0.42137 0.84948 1.11786
 C551 C 0.45757 0.86260 1.10455
 C552 C 0.49717 0.89147 1.11418
 C553 C 0.49953 0.90755 1.13847
 C554 C 0.46262 0.89452 1.15265
 C555 C 0.42297 0.86501 1.14202
 O556 O 0.38697 0.82106 1.10563
 C557 C 0.40176 0.81611 1.08413
 C558 C 0.44474 0.84079 1.08248
 C559 C 0.46673 0.83947 1.06190
 C560 C 0.44352 0.81109 1.04243
 C561 C 0.39909 0.78480 1.04382
 C562 C 0.37807 0.78801 1.06492
 H563 H 0.52526 0.90126 1.10340
 H564 H 0.53010 0.93054 1.14608
 H565 H 0.39421 0.85393 1.15239
 H566 H 0.50061 0.85901 1.06109
 H567 H 0.46029 0.80908 1.02656
 H568 H 0.34438 0.76821 1.06687
 C569 C 0.57123 0.42124 0.63249
 C570 C 0.54299 0.37890 0.63247
 C571 C 0.51236 0.35818 0.65099
 C572 C 0.51063 0.38213 0.67029
 C573 C 0.53924 0.42594 0.67071
 C574 C 0.57020 0.44566 0.65157
 O575 O 0.59726 0.43480 0.61284
 C576 C 0.58513 0.40026 0.60015
 C577 C 0.55207 0.36522 0.61139
 C578 C 0.53386 0.32583 0.60109
 C579 C 0.55028 0.32239 0.57816
 C580 C 0.58429 0.35809 0.56601
 C581 C 0.60206 0.39758 0.57738
 H582 H 0.49048 0.32482 0.65054
 H583 H 0.48718 0.36649 0.68501
 H584 H 0.59217 0.47904 0.65123
 H585 H 0.50776 0.29875 0.61027
 H586 H 0.53628 0.29188 0.56986
 H587 H 0.62784 0.42548 0.56863
 C588 C 0.56469 0.13677 0.60470
 C589 C 0.52704 0.12707 0.59439
 C590 C 0.48893 0.10109 0.60646
 C591 C 0.48956 0.08420 0.63013
 C592 C 0.52789 0.09287 0.64115
 C593 C 0.56602 0.11955 0.62797
 O594 O 0.59754 0.16478 0.59106
 C595 C 0.58013 0.17291 0.57175
 C596 C 0.53704 0.15031 0.57284
 C597 C 0.51236 0.15527 0.55541
 C598 C 0.53293 0.18563 0.53641
 C599 C 0.57747 0.21064 0.53533
 C600 C 0.60135 0.20337 0.55295
 H601 H 0.45983 0.09497 0.59827
 H602 H 0.46012 0.06524 0.64007
 H603 H 0.59592 0.12706 0.63558
 H604 H 0.47851 0.13730 0.55683
 H605 H 0.51402 0.19062 0.52314
 H606 H 0.63530 0.22238 0.55300
 C607 C 0.83059 0.41642 0.62163
 C608 C 0.82097 0.37766 0.61482
 C609 C 0.83646 0.35691 0.62785
 C610 C 0.86296 0.37685 0.64878
 C611 C 0.87417 0.41728 0.65619
 C612 C 0.85749 0.43719 0.64218
 O613 O 0.81184 0.43029 0.60697
 C614 C 0.78999 0.39959 0.59053
 C615 C 0.79474 0.36679 0.59446
 C616 C 0.77517 0.33159 0.57932
 C617 C 0.74970 0.33009 0.55925
 C618 C 0.74378 0.36326 0.55482
 C619 C 0.76420 0.39849 0.57086
 H620 H 0.82798 0.32616 0.62231
 H621 H 0.87396 0.36020 0.65946
 H622 H 0.86533 0.46802 0.64694
 H623 H 0.77946 0.30620 0.58278
 H624 H 0.73417 0.30280 0.54734
 H625 H 0.76053 0.42439 0.56795
 C626 C 0.46210 0.59523 0.61678
 C627 C 0.44501 0.55949 0.60271
 C628 C 0.43731 0.52221 0.61278
 C629 C 0.44761 0.52169 0.63844
 C630 C 0.46545 0.55810 0.65332
 C631 C 0.47326 0.59556 0.64229
 O632 O 0.46353 0.62627 0.60412
 C633 C 0.44695 0.60973 0.58160
 C634 C 0.43536 0.56900 0.57978
 C635 C 0.41463 0.54463 0.55869
 C636 C 0.40425 0.56251 0.53897
 C637 C 0.41462 0.60405 0.54061
 C638 C 0.43738 0.62838 0.56197
 H639 H 0.42304 0.49431 0.60146
 H640 H 0.44155 0.49294 0.64683
 H641 H 0.48616 0.62351 0.65347
 H642 H 0.40530 0.51248 0.55790
 H643 H 0.38662 0.54343 0.52284
 H644 H 0.44454 0.65967 0.56413
 C645 C 0.45012 0.83496 0.62273
 C646 C 0.48511 0.84042 0.61127
 C647 C 0.52528 0.86702 0.62078
 C648 C 0.52962 0.88908 0.64296
 C649 C 0.49398 0.88452 0.65536
 C650 C 0.45356 0.85652 0.64470
 O651 O 0.41475 0.80834 0.61064
 C652 C 0.42774 0.79666 0.59111
 C653 C 0.47054 0.81542 0.59058
 C654 C 0.49079 0.80783 0.57165
 C655 C 0.46586 0.77960 0.55255
 C656 C 0.42150 0.75959 0.55274
 C657 C 0.40233 0.76844 0.57240
 H658 H 0.55237 0.87048 0.61155
 H659 H 0.56089 0.90846 0.65071
 H660 H 0.42527 0.85255 0.65234
 H661 H 0.52455 0.82302 0.57161
 H662 H 0.48117 0.77317 0.53776
 H663 H 0.36867 0.75385 0.57318
 C664 C 0.17127 0.56466 0.63394
 C665 C 0.18448 0.53771 0.63319
 C666 C 0.17048 0.50478 0.65012
 C667 C 0.14206 0.49956 0.66890
 C668 C 0.12818 0.52748 0.67103
 C669 C 0.14308 0.56033 0.65264
 O670 O 0.18798 0.59344 0.61559
 C671 C 0.21220 0.58426 0.60306
 C672 C 0.21120 0.55048 0.61321
 C673 C 0.23385 0.53515 0.60316
 C674 C 0.25819 0.55508 0.58150
 C675 C 0.25939 0.58965 0.57017
 C676 C 0.23622 0.60463 0.58139
 H677 H 0.18066 0.48339 0.64873
 H678 H 0.13005 0.47248 0.68107
 H679 H 0.13465 0.58310 0.65317
 H680 H 0.23252 0.50850 0.61156
 H681 H 0.27552 0.54300 0.57334
 H682 H 0.23619 0.63074 0.57326
 C683 C 0.41215 0.57641 0.87821
 C684 C 0.37237 0.54283 0.88310
 C685 C 0.35298 0.50724 0.86830
 C686 C 0.37557 0.50617 0.84767
 C687 C 0.41680 0.54035 0.84224
 C688 C 0.43517 0.57603 0.85780
 O689 O 0.42478 0.60722 0.89452
 C690 C 0.39225 0.59278 0.91003
 C691 C 0.35937 0.55353 0.90389
 C692 C 0.32214 0.53267 0.91757
 C693 C 0.31860 0.55317 0.93840
 C694 C 0.35205 0.59383 0.94514
 C695 C 0.38946 0.61372 0.93064
 H696 H 0.32154 0.48128 0.87243
 H697 H 0.36071 0.47889 0.83576
 H698 H 0.46663 0.60248 0.85436
 H699 H 0.29666 0.50179 0.91235
 H700 H 0.28967 0.53740 0.94913
 H701 H 0.41558 0.64471 0.93509
 C702 C 0.13240 0.56428 0.88745
 C703 C 0.12519 0.52942 0.90006
 C704 C 0.10021 0.48987 0.89011
 C705 C 0.08177 0.48591 0.86616
 C706 C 0.08790 0.52127 0.85233
 C707 C 0.11394 0.56118 0.86372
 O708 O 0.15877 0.59923 0.89979
 C709 C 0.16842 0.58597 0.92061
 C710 C 0.14850 0.54346 0.92172
 C711 C 0.15500 0.52293 0.94140
 C712 C 0.18378 0.54724 0.96053
 C713 C 0.20564 0.59135 0.95967
 C714 C 0.19721 0.61085 0.93948
 H715 H 0.09583 0.46294 0.90017
 H716 H 0.06444 0.45504 0.85830
 H717 H 0.11946 0.58940 0.85498
 H718 H 0.13912 0.48941 0.94175
 H719 H 0.18979 0.53159 0.97564
 H720 H 0.21366 0.64436 0.93794
 C721 C 0.41829 0.83561 0.86613
 C722 C 0.37950 0.82856 0.87102
 C723 C 0.36245 0.84678 0.85696
 C724 C 0.38636 0.87348 0.83694
 C725 C 0.42707 0.88198 0.83126
 C726 C 0.44277 0.86211 0.84635
 O727 O 0.42909 0.81597 0.88227
 C728 C 0.39626 0.79607 0.89766
 C729 C 0.36509 0.80281 0.89155
 C730 C 0.32853 0.78626 0.90560
 C731 C 0.32411 0.76213 0.92705
 C732 C 0.35595 0.75492 0.93393
 C733 C 0.39233 0.77173 0.91876
 H734 H 0.33165 0.84048 0.86115
 H735 H 0.37188 0.88598 0.82543
 H736 H 0.47383 0.86814 0.84377
 H737 H 0.30458 0.79225 0.90046
 H738 H 0.29599 0.74931 0.93840
 H739 H 0.41737 0.76721 0.92370
 C740 C 0.59820 0.44096 0.87883
 C741 C 0.63622 0.47373 0.88724
 C742 C 0.65595 0.51314 0.87622
 C743 C 0.63579 0.51893 0.85556
 C744 C 0.59644 0.48561 0.84644
 C745 C 0.57742 0.44610 0.85853
 O746 O 0.58503 0.40592 0.89171
 C747 C 0.61542 0.41681 0.90864
 C748 C 0.64742 0.45799 0.90676
 C749 C 0.68226 0.47600 0.92274
 C750 C 0.68407 0.45057 0.94151
 C751 C 0.65148 0.40789 0.94385
 C752 C 0.61675 0.39084 0.92699
 H753 H 0.68604 0.53840 0.88307
 H754 H 0.65139 0.54915 0.84635
 H755 H 0.54727 0.42004 0.85239
 H756 H 0.70707 0.50849 0.92090
 H757 H 0.71097 0.46417 0.95415
 H758 H 0.59125 0.35853 0.92831
 C759 C 0.85410 0.43498 0.88338
 C760 C 0.86415 0.40900 0.89493
 C761 C 0.88771 0.39615 0.88301
 C762 C 0.90136 0.41052 0.85813
 C763 C 0.89150 0.43734 0.84574
 C764 C 0.86796 0.45020 0.85868
 O765 O 0.82919 0.44121 0.89752
 C766 C 0.82343 0.41867 0.91839
 C767 C 0.84433 0.39854 0.91776
 C768 C 0.84101 0.37157 0.93694
 C769 C 0.81434 0.36430 0.95740
 C770 C 0.79151 0.38384 0.95836
 C771 C 0.79690 0.41213 0.93871
 H772 H 0.89472 0.37525 0.89237
 H773 H 0.91958 0.40073 0.84840
 H774 H 0.85960 0.47022 0.84949
 H775 H 0.85743 0.35575 0.93584
 H776 H 0.81054 0.34242 0.97210
 H777 H 0.77925 0.42679 0.93849
 C778 C 0.59163 0.17038 0.86159
 C779 C 0.63473 0.19337 0.86257
 C780 C 0.65944 0.19004 0.84470
 C781 C 0.63889 0.16147 0.82505
 C782 C 0.59447 0.13703 0.82360
 C783 C 0.57046 0.14197 0.84196
 O784 O 0.57432 0.17712 0.88126
 C785 C 0.60729 0.20491 0.89491
 C786 C 0.64487 0.21578 0.88417
 C787 C 0.68337 0.24293 0.89550
 C788 C 0.68330 0.25937 0.91907
 C789 C 0.64508 0.24851 0.93094
 C790 C 0.60644 0.22128 0.91843
 H791 H 0.69331 0.20830 0.84607
 H792 H 0.65754 0.15815 0.81099
 H793 H 0.53651 0.12327 0.84146
 H794 H 0.71246 0.25075 0.88667
 H795 H 0.71322 0.28053 0.92814
 H796 H 0.57682 0.21215 0.92707
   
