data_POSCAR
  _audit_creation_date              2014-09-24
  _audit_creation_method            'ToBaCCo'
  _symmetry_space_group_name_H-M    'P1'
  _symmetry_Int_Tables_number       1
  _symmetry_cell_setting            triclinic
  loop_
  _symmetry_equiv_pos_as_xyz
 x,y,z
_cell_length_a 35.2365
_cell_length_b 34.2134
_cell_length_c 33.5235
_cell_angle_alpha 87.682000
_cell_angle_beta 88.941900
_cell_angle_gamma 88.392700
loop_
  _atom_site_label
  _atom_site_type_symbol
  _atom_site_fract_x
  _atom_site_fract_y
  _atom_site_fract_z
C1 C 0.22805 0.22430 0.24060
 C2 C 0.74136 0.73190 0.25459
 C3 C 0.75025 0.27383 0.71720
 C4 C 0.25655 0.75719 0.77547
 C5 C -0.00101 0.07800 0.00245
 H6 H -0.01763 0.08640 -0.02341
 C7 C 0.02122 0.10577 0.01967
 H8 H 0.02083 0.13556 0.00745
 C9 C 0.02093 0.02894 0.04900
 H10 H 0.02172 -0.00111 0.05980
 C11 C 0.04347 0.05564 0.06707
 H12 H 0.06128 0.04555 0.09159
 N13 N -0.00079 0.04034 0.01729
 C14 C -0.00595 -0.06056 -0.05695
 H15 H -0.03540 -0.06840 -0.05364
 C16 C 0.01827 -0.08096 -0.08274
 H17 H 0.00756 -0.10489 -0.09905
 C18 C 0.04372 -0.01879 -0.04103
 H19 H 0.05331 0.00614 -0.02563
 C20 C 0.06909 -0.03896 -0.06573
 H21 H 0.09815 -0.02965 -0.06895
 Zn22 Zn -0.02813 0.00199 -0.00869
 N23 N 0.00682 -0.02939 -0.03767
 C24 C -0.05998 0.02014 -0.08433
 N25 N -0.06257 0.02767 -0.04481
 C26 C -0.08833 0.05454 -0.03102
 C27 C -0.11299 0.07470 -0.05732
 C28 C -0.08433 0.03919 -0.11148
 C29 C -0.03369 -0.05554 0.05356
 C30 C -0.05133 -0.07762 0.08417
 C31 C -0.11180 -0.04978 0.06320
 C32 C -0.09293 -0.02766 0.03346
 N33 N -0.05441 -0.03018 0.02972
 H34 H -0.03871 -0.00023 -0.09519
 H35 H -0.08939 0.06062 0.00041
 H36 H -0.13336 0.09597 -0.04597
 H37 H -0.08159 0.03302 -0.14286
 H38 H -0.00340 -0.05882 0.04874
 H39 H -0.03440 -0.09732 0.10318
 H40 H -0.14241 -0.04706 0.06617
 H41 H -0.10919 -0.00833 0.01367
 C42 C 0.05612 -0.06979 -0.08761
 C43 C 0.04393 0.09459 0.05237
 C44 C -0.09082 -0.07458 0.08940
 C45 C -0.11120 0.06686 -0.09808
 C46 C 0.09747 0.57343 0.50707
 H47 H 0.09823 0.57362 0.47479
 C48 C 0.12341 0.59521 0.52734
 H49 H 0.14374 0.61261 0.51039
 C50 C 0.06969 0.55068 0.56828
 H51 H 0.04877 0.53323 0.58414
 C52 C 0.09504 0.57200 0.58972
 H53 H 0.09357 0.57027 0.62202
 N54 N 0.07162 0.55139 0.52771
 C55 C 0.04910 0.45747 0.44864
 H56 H 0.01890 0.46194 0.44440
 C57 C 0.06830 0.42621 0.43106
 H58 H 0.05290 0.40690 0.41274
 C59 C 0.10567 0.47628 0.47899
 H60 H 0.11991 0.49529 0.49849
 C61 C 0.12584 0.44487 0.46260
 H62 H 0.15576 0.44047 0.46872
 Zn63 Zn 0.03897 0.52051 0.49853
 N64 N 0.06801 0.48204 0.47165
 C65 C 0.01579 0.54968 0.42182
 N66 N 0.01115 0.55368 0.46186
 C67 C -0.01324 0.58135 0.47649
 C68 C -0.03586 0.60467 0.45064
 C69 C -0.00584 0.57275 0.39490
 C70 C 0.02312 0.46265 0.55585
 C71 C 0.00157 0.43763 0.58038
 C72 C -0.05493 0.47384 0.55954
 C73 C -0.03227 0.49776 0.53472
 N74 N 0.00609 0.49198 0.53359
 H75 H 0.03614 0.52847 0.41058
 H76 H -0.01569 0.58476 0.50838
 H77 H -0.05565 0.62604 0.46281
 H78 H -0.00238 0.56850 0.36319
 H79 H 0.05360 0.45817 0.55382
 H80 H 0.01593 0.41378 0.59666
 H81 H -0.08528 0.47955 0.56056
 H82 H -0.04554 0.52054 0.51618
 C83 C 0.10707 0.41952 0.43826
 C84 C 0.12253 0.59453 0.56928
 C85 C -0.03810 0.44300 0.58266
 C86 C -0.03254 0.60022 0.40926
 C87 C 0.55246 0.06196 0.52184
 H88 H 0.55674 0.06287 0.48977
 C89 C 0.57100 0.08826 0.54495
 H90 H 0.58960 0.10935 0.53045
 C91 C 0.52147 0.03449 0.57928
 H92 H 0.50161 0.01396 0.59238
 C93 C 0.53914 0.06065 0.60354
 H94 H 0.53323 0.05958 0.63537
 N95 N 0.52846 0.03559 0.53920
 C96 C 0.52310 -0.05597 0.45154
 H97 H 0.49286 -0.05727 0.44697
 C98 C 0.54803 -0.08217 0.43248
 H99 H 0.53660 -0.10362 0.41344
 C100 C 0.57441 -0.02781 0.48356
 H101 H 0.58476 -0.00724 0.50406
 C102 C 0.60024 -0.05316 0.46500
 H103 H 0.63019 -0.05083 0.47082
 Zn104 Zn 0.50196 0.00428 0.50413
 N105 N 0.53660 -0.02938 0.47648
 C106 C 0.47506 0.03608 0.42868
 N107 N 0.47601 0.03996 0.46887
 C108 C 0.45766 0.07034 0.48661
 C109 C 0.43672 0.09802 0.46396
 C110 C 0.45390 0.06290 0.40488
 C111 C 0.47778 -0.05576 0.55870
 C112 C 0.45150 -0.07963 0.57896
 C113 C 0.40100 -0.04381 0.54468
 C114 C 0.42816 -0.02077 0.52505
 N115 N 0.46575 -0.02688 0.53246
 H116 H 0.49015 0.01197 0.41512
 H117 H 0.45887 0.07271 0.51863
 H118 H 0.42164 0.12150 0.47877
 H119 H 0.45282 0.05924 0.37299
 H120 H 0.50784 -0.06041 0.56367
 H121 H 0.46169 -0.10279 0.59932
 H122 H 0.37125 -0.03790 0.53872
 H123 H 0.41904 0.00191 0.50375
 C124 C 0.58725 -0.08115 0.43931
 C125 C 0.56423 0.08801 0.58632
 C126 C 0.41245 -0.07383 0.57202
 C127 C 0.43429 0.09424 0.42263
 C128 C 0.56173 0.52696 0.04015
 H129 H 0.57193 0.52702 0.00952
 C130 C 0.58013 0.54883 0.06802
 H131 H 0.60405 0.56621 0.05834
 C132 C 0.51783 0.50482 0.08980
 H133 H 0.49370 0.48754 0.09851
 C134 C 0.53535 0.52610 0.11854
 H135 H 0.52447 0.52468 0.14897
 N136 N 0.53047 0.50641 0.05116
 C137 C 0.53346 0.45041 -0.05785
 H138 H 0.51432 0.47169 -0.07195
 C139 C 0.55545 0.42588 -0.08162
 H140 H 0.55267 0.42845 -0.11375
 C141 C 0.55959 0.42060 0.00087
 H142 H 0.56100 0.41888 0.03311
 C143 C 0.58210 0.39519 -0.02190
 H144 H 0.60106 0.37408 -0.00705
 Zn145 Zn 0.50277 0.48008 0.01260
 N146 N 0.53550 0.44716 -0.01738
 C147 C 0.44627 0.50443 -0.04118
 N148 N 0.47804 0.51642 -0.02326
 C149 C 0.49264 0.55211 -0.03257
 C150 C 0.47523 0.57720 -0.06105
 C151 C 0.42766 0.52882 -0.06932
 C152 C 0.46907 0.41125 0.04685
 C153 C 0.44226 0.39121 0.07043
 C154 C 0.40638 0.45196 0.07661
 C155 C 0.43404 0.47085 0.05345
 N156 N 0.46491 0.45052 0.03961
 H157 H 0.43565 0.47560 -0.03398
 H158 H 0.51799 0.56109 -0.01836
 H159 H 0.48711 0.60555 -0.06817
 H160 H 0.40248 0.51880 -0.08341
 H161 H 0.49370 0.39556 0.03550
 H162 H 0.44694 0.36029 0.07735
 H163 H 0.38211 0.46883 0.08735
 H164 H 0.43142 0.50207 0.04724
 C165 C 0.58004 0.39768 -0.06375
 C166 C 0.56645 0.54916 0.10769
 C167 C 0.41073 0.41176 0.08625
 C168 C 0.44230 0.56559 -0.07969
 C169 C 0.20904 -0.18808 -0.21199
 C170 C 0.18720 -0.16537 -0.18575
 C171 C 0.19711 -0.16477 -0.14518
 C172 C 0.22897 -0.18634 -0.13178
 C173 C 0.24896 -0.21091 -0.15743
 C174 C 0.23762 -0.21475 -0.19750
 C175 C 0.17446 -0.14351 -0.11841
 C176 C 0.14078 -0.12466 -0.13130
 C177 C 0.13049 -0.12573 -0.17184
 C178 C 0.15435 -0.14510 -0.19904
 C179 C 0.09592 -0.10839 -0.18422
 C180 C 0.07151 -0.09069 -0.15660
 C181 C 0.08171 -0.08920 -0.11643
 C182 C 0.11661 -0.10576 -0.10402
 H183 H 0.20164 -0.18759 -0.24327
 H184 H 0.23768 -0.18533 -0.10101
 H185 H 0.27304 -0.22738 -0.14531
 H186 H 0.18218 -0.14303 -0.08726
 H187 H 0.14641 -0.14600 -0.23009
 H188 H 0.08749 -0.10908 -0.21510
 H189 H 0.04478 -0.07770 -0.16663
 H190 H 0.12438 -0.10481 -0.07292
 C191 C 0.20432 0.25734 0.30616
 C192 C 0.18438 0.28804 0.32485
 C193 C 0.16347 0.31611 0.30146
 C194 C 0.16306 0.31351 0.26008
 C195 C 0.18388 0.28402 0.24173
 C196 C 0.20558 0.25576 0.26407
 C197 C 0.14344 0.34666 0.31962
 C198 C 0.14483 0.35040 0.36092
 C199 C 0.16630 0.32301 0.38455
 C200 C 0.18546 0.29159 0.36644
 C201 C 0.16849 0.32790 0.42581
 C202 C 0.14963 0.35961 0.44334
 C203 C 0.12774 0.38642 0.41999
 C204 C 0.12539 0.38155 0.37883
 H205 H 0.21865 0.23516 0.32464
 H206 H 0.14711 0.33473 0.24173
 H207 H 0.18356 0.28352 0.20946
 H208 H 0.12724 0.36792 0.30150
 H209 H 0.20176 0.27043 0.38456
 H210 H 0.18492 0.30738 0.44446
 H211 H 0.15162 0.36291 0.47522
 H212 H 0.10889 0.40249 0.36066
 C213 C 0.71695 -0.22586 0.31323
 C214 C 0.69025 -0.19992 0.33031
 C215 C 0.65876 -0.18584 0.30804
 C216 C 0.65469 -0.19781 0.26895
 C217 C 0.68105 -0.22409 0.25240
 C218 C 0.71189 -0.24008 0.27465
 C219 C 0.63216 -0.15969 0.32502
 C220 C 0.63650 -0.14772 0.36425
 C221 C 0.66794 -0.16212 0.38657
 C222 C 0.69469 -0.18785 0.36941
 C223 C 0.67214 -0.15060 0.42581
 C224 C 0.64569 -0.12480 0.44280
 C225 C 0.61455 -0.10959 0.42089
 C226 C 0.61005 -0.12149 0.38152
 H227 H 0.74187 -0.23426 0.33020
 H228 H 0.63110 -0.18682 0.25107
 H229 H 0.67709 -0.23232 0.22196
 H230 H 0.60810 -0.14873 0.30776
 H231 H 0.71883 -0.19871 0.38662
 H232 H 0.69588 -0.16163 0.44345
 H233 H 0.64952 -0.11701 0.47342
 H234 H 0.58641 -0.10988 0.36409
 C235 C 0.70179 0.28605 -0.22601
 C236 C 0.68065 0.31059 -0.20089
 C237 C 0.67814 0.35115 -0.21020
 C238 C 0.69681 0.36644 -0.24420
 C239 C 0.71891 0.34213 -0.26825
 C240 C 0.72214 0.30127 -0.25981
 C241 C 0.65776 0.37603 -0.18491
 C242 C 0.64043 0.36094 -0.14987
 C243 C 0.64315 0.32039 -0.14015
 C244 C 0.66295 0.29536 -0.16596
 C245 C 0.62616 0.30568 -0.10466
 C246 C 0.60635 0.33087 -0.07928
 C247 C 0.60303 0.37113 -0.08909
 C248 C 0.62048 0.38594 -0.12434
 H249 H 0.70370 0.25495 -0.21844
 H250 H 0.69534 0.39758 -0.25158
 H251 H 0.73401 0.35645 -0.29265
 H252 H 0.65584 0.40720 -0.19221
 H253 H 0.66508 0.26423 -0.15855
 H254 H 0.62801 0.27469 -0.09665
 H255 H 0.59284 0.31876 -0.05245
 H256 H 0.61861 0.41705 -0.13187
 C257 C -0.22384 0.20901 -0.24764
 C258 C -0.20377 0.18902 -0.21704
 C259 C -0.18628 0.21015 -0.18747
 C260 C -0.18958 0.25100 -0.18877
 C261 C -0.20957 0.27075 -0.21936
 C262 C -0.22639 0.25042 -0.25020
 C263 C -0.16583 0.19008 -0.15711
 C264 C -0.16243 0.14909 -0.15623
 C265 C -0.18021 0.12796 -0.18576
 C266 C -0.20096 0.14802 -0.21576
 C267 C -0.17646 0.08707 -0.18520
 C268 C -0.15458 0.06727 -0.15618
 C269 C -0.13642 0.08794 -0.12698
 C270 C -0.14093 0.12887 -0.12678
 H271 H -0.23766 0.19150 -0.26880
 H272 H -0.17671 0.26776 -0.16611
 H273 H -0.21170 0.30239 -0.21927
 H274 H -0.15225 0.20635 -0.13447
 H275 H -0.21445 0.13174 -0.23845
 H276 H -0.18999 0.07046 -0.20754
 H277 H -0.15169 0.03568 -0.15660
 H278 H -0.12664 0.14501 -0.10457
 C279 C -0.19117 0.70856 0.27810
 C280 C -0.16736 0.68856 0.30577
 C281 C -0.18319 0.67060 0.34067
 C282 C -0.22257 0.67213 0.34684
 C283 C -0.24602 0.69178 0.31909
 C284 C -0.23085 0.71204 0.28513
 C285 C -0.15955 0.65063 0.36840
 C286 C -0.12020 0.64788 0.36143
 C287 C -0.10433 0.66539 0.32625
 C288 C -0.12797 0.68576 0.29875
 C289 C -0.06508 0.66191 0.31899
 C290 C -0.04179 0.64096 0.34609
 C291 C -0.05721 0.62349 0.38119
 C292 C -0.09650 0.62735 0.38880
 H293 H -0.17855 0.72021 0.25066
 H294 H -0.23533 0.65772 0.37295
 H295 H -0.27644 0.69153 0.32431
 H296 H -0.17182 0.63687 0.39518
 H297 H -0.11573 0.69925 0.27182
 H298 H -0.05242 0.67513 0.29219
 H299 H -0.01159 0.63858 0.33973
 H300 H -0.10872 0.61352 0.41553
 C301 C 0.28101 0.21021 0.29139
 C302 C 0.30677 0.18485 0.31184
 C303 C 0.30574 0.14416 0.30653
 C304 C 0.27937 0.12955 0.28081
 C305 C 0.25405 0.15483 0.26052
 C306 C 0.25325 0.19563 0.26634
 C307 C 0.33152 0.11863 0.32639
 C308 C 0.35835 0.13320 0.35181
 C309 C 0.35948 0.17391 0.35738
 C310 C 0.33380 0.19953 0.33719
 C311 C 0.38607 0.18820 0.38338
 C312 C 0.41085 0.16235 0.40409
 C313 C 0.40982 0.12185 0.39877
 C314 C 0.38372 0.10754 0.37220
 H315 H 0.28279 0.24150 0.29454
 H316 H 0.27883 0.09850 0.27564
 H317 H 0.23608 0.14191 0.23918
 H318 H 0.33065 0.08740 0.32211
 H319 H 0.33471 0.23076 0.34140
 H320 H 0.38741 0.21927 0.38806
 H321 H 0.43086 0.17398 0.42437
 H322 H 0.38236 0.07629 0.36841
 C323 C 0.31221 0.70940 -0.21071
 C324 C 0.32976 0.68038 -0.18605
 C325 C 0.30887 0.66225 -0.15445
 C326 C 0.27071 0.67288 -0.14848
 C327 C 0.25397 0.70298 -0.17186
 C328 C 0.27489 0.72383 -0.20201
 C329 C 0.32659 0.63429 -0.12881
 C330 C 0.36542 0.62532 -0.13342
 C331 C 0.38650 0.64352 -0.16496
 C332 C 0.36834 0.67028 -0.19163
 C333 C 0.42562 0.63540 -0.16860
 C334 C 0.44380 0.61007 -0.14084
 C335 C 0.42302 0.59186 -0.10949
 C336 C 0.38373 0.59923 -0.10627
 H337 H 0.32834 0.72132 -0.23592
 H338 H 0.25402 0.65873 -0.12486
 H339 H 0.22469 0.71104 -0.16525
 H340 H 0.31046 0.62046 -0.10452
 H341 H 0.38455 0.68436 -0.21570
 H342 H 0.44226 0.64912 -0.19252
 H343 H 0.47409 0.60446 -0.14394
 H344 H 0.36766 0.58558 -0.08184
 C345 C -0.21224 -0.21394 0.23239
 C346 C -0.19453 -0.19002 0.20283
 C347 C -0.20600 -0.19130 0.16274
 C348 C -0.23471 -0.21625 0.15284
 C349 C -0.25114 -0.24080 0.18197
 C350 C -0.23911 -0.24160 0.22210
 C351 C -0.18866 -0.16768 0.13302
 C352 C -0.15901 -0.14354 0.14252
 C353 C -0.14683 -0.14261 0.18243
 C354 C -0.16511 -0.16538 0.21249
 C355 C -0.11622 -0.11930 0.19139
 C356 C -0.09779 -0.09739 0.16108
 C357 C -0.11016 -0.09781 0.12150
 C358 C -0.14096 -0.12078 0.11249
 H359 H -0.20436 -0.21188 0.26331
 H360 H -0.24443 -0.21695 0.12240
 H361 H -0.27386 -0.25879 0.17271
 H362 H -0.19780 -0.16860 0.10234
 H363 H -0.15590 -0.16456 0.24314
 H364 H -0.10633 -0.11829 0.22174
 H365 H -0.07412 -0.07970 0.16856
 H366 H -0.15027 -0.12157 0.08188
 C367 C -0.18463 0.30435 0.69593
 C368 C -0.16294 0.32928 0.67097
 C369 C -0.17887 0.34666 0.63604
 C370 C -0.21645 0.33904 0.62685
 C371 C -0.23840 0.31550 0.65271
 C372 C -0.22339 0.29830 0.68841
 C373 C -0.15712 0.37173 0.61117
 C374 C -0.12000 0.38061 0.62162
 C375 C -0.10443 0.36379 0.65709
 C376 C -0.12569 0.33773 0.68113
 C377 C -0.06795 0.37367 0.66827
 C378 C -0.04692 0.39988 0.64451
 C379 C -0.06152 0.41621 0.60854
 C380 C -0.09830 0.40628 0.59736
 H381 H -0.17063 0.29043 0.72120
 H382 H -0.22921 0.35202 0.60013
 H383 H -0.26778 0.31143 0.64532
 H384 H -0.16930 0.38486 0.58416
 H385 H -0.11355 0.32473 0.70823
 H386 H -0.05580 0.36143 0.69565
 H387 H -0.01922 0.40758 0.65464
 H388 H -0.10997 0.41807 0.56958
 C389 C 0.27848 -0.20362 0.71299
 C390 C 0.30560 -0.18018 0.69292
 C391 C 0.33801 -0.16884 0.71323
 C392 C 0.34259 -0.18053 0.75324
 C393 C 0.31603 -0.20423 0.77275
 C394 C 0.28422 -0.21830 0.75277
 C395 C 0.36523 -0.14563 0.69343
 C396 C 0.36071 -0.13378 0.65326
 C397 C 0.32833 -0.14505 0.63276
 C398 C 0.30085 -0.16794 0.65275
 C399 C 0.32406 -0.13329 0.59252
 C400 C 0.35149 -0.11051 0.57283
 C401 C 0.38373 -0.09882 0.59297
 C402 C 0.38809 -0.11074 0.63332
 H403 H 0.25291 -0.20989 0.69736
 H404 H 0.36687 -0.17143 0.76956
 H405 H 0.32085 -0.21230 0.80382
 H406 H 0.39002 -0.13693 0.70926
 H407 H 0.27602 -0.17655 0.63696
 H408 H 0.29955 -0.14181 0.57621
 H409 H 0.34762 -0.10235 0.54160
 H410 H 0.41248 -0.10158 0.64944
 C411 C 0.26880 0.28234 0.21583
 C412 C 0.29519 0.29962 0.18951
 C413 C 0.31105 0.27819 0.15790
 C414 C 0.30100 0.23918 0.15413
 C415 C 0.27472 0.22202 0.18078
 C416 C 0.25655 0.24389 0.21084
 C417 C 0.33697 0.29603 0.13105
 C418 C 0.34734 0.33491 0.13583
 C419 C 0.33188 0.35588 0.16809
 C420 C 0.30593 0.33815 0.19463
 C421 C 0.34258 0.39436 0.17339
 C422 C 0.36825 0.41219 0.14687
 C423 C 0.38347 0.39209 0.11419
 C424 C 0.37293 0.35324 0.10896
 H425 H 0.25839 0.29914 0.24061
 H426 H 0.31357 0.22188 0.13069
 H427 H 0.26800 0.19164 0.17756
 H428 H 0.34906 0.27970 0.10659
 H429 H 0.29393 0.35444 0.21918
 H430 H 0.33123 0.41065 0.19820
 H431 H 0.37657 0.44169 0.15233
 H432 H 0.38422 0.33745 0.08380
 C433 C 0.18836 0.20738 0.17904
 C434 C 0.15872 0.18741 0.16227
 C435 C 0.13550 0.16322 0.18695
 C436 C 0.14153 0.16030 0.22805
 C437 C 0.17108 0.18013 0.24447
 C438 C 0.19620 0.20257 0.22018
 C439 C 0.10667 0.14222 0.17018
 C440 C 0.10106 0.14468 0.12891
 C441 C 0.12366 0.16950 0.10419
 C442 C 0.15216 0.19100 0.12109
 C443 C 0.11794 0.17161 0.06287
 C444 C 0.09106 0.14823 0.04604
 C445 C 0.06932 0.12258 0.07031
 C446 C 0.07385 0.12178 0.11187
 H447 H 0.20463 0.22704 0.15986
 H448 H 0.12351 0.14251 0.24754
 H449 H 0.17493 0.17749 0.27646
 H450 H 0.08914 0.12334 0.18914
 H451 H 0.16980 0.20973 0.10210
 H452 H 0.13493 0.19053 0.04346
 H453 H 0.08828 0.14916 0.01390
 H454 H 0.05673 0.10260 0.13091
 C455 C 0.24157 0.71726 0.71611
 C456 C 0.21598 0.69711 0.69314
 C457 C 0.17743 0.69552 0.70515
 C458 C 0.16522 0.71315 0.74004
 C459 C 0.19057 0.73306 0.76256
 C460 C 0.22906 0.73791 0.75014
 C461 C 0.15166 0.67551 0.68272
 C462 C 0.16387 0.65679 0.64825
 C463 C 0.20240 0.65817 0.63593
 C464 C 0.22829 0.67830 0.65848
 C465 C 0.21430 0.63923 0.60133
 C466 C 0.18835 0.61888 0.57944
 C467 C 0.15001 0.61707 0.59173
 C468 C 0.13803 0.63644 0.62611
 H469 H 0.27135 0.71708 0.70740
 H470 H 0.13601 0.71100 0.75042
 H471 H 0.17959 0.74395 0.79043
 H472 H 0.12211 0.67429 0.69227
 H473 H 0.25787 0.67934 0.64908
 H474 H 0.24371 0.63988 0.59136
 H475 H 0.19845 0.60390 0.55330
 H476 H 0.10846 0.63589 0.63558
 C477 C 0.68939 0.23918 0.69428
 C478 C 0.67212 0.21097 0.67184
 C479 C 0.69402 0.18948 0.64415
 C480 C 0.73280 0.19631 0.63952
 C481 C 0.74999 0.22351 0.66268
 C482 C 0.72893 0.24528 0.69097
 C483 C 0.67693 0.16122 0.62178
 C484 C 0.63826 0.15358 0.62728
 C485 C 0.61636 0.17460 0.65541
 C486 C 0.63332 0.20344 0.67720
 C487 C 0.57787 0.16628 0.66136
 C488 C 0.56115 0.13762 0.63946
 C489 C 0.58250 0.11701 0.61095
 C490 C 0.62115 0.12512 0.60513
 H491 H 0.67160 0.25561 0.71448
 H492 H 0.75007 0.18005 0.61848
 H493 H 0.78034 0.22697 0.65919
 H494 H 0.69381 0.14492 0.60039
 H495 H 0.61645 0.21965 0.69866
 H496 H 0.56066 0.18203 0.68285
 H497 H 0.53124 0.13214 0.64417
 H498 H 0.63796 0.10905 0.58353
 C499 C 0.68488 0.68697 0.23939
 C500 C 0.66952 0.65814 0.21617
 C501 C 0.69344 0.63659 0.19027
 C502 C 0.73239 0.64320 0.18900
 C503 C 0.74720 0.67264 0.21109
 C504 C 0.72352 0.69659 0.23500
 C505 C 0.67802 0.60943 0.16533
 C506 C 0.63874 0.60415 0.16517
 C507 C 0.61478 0.62510 0.19159
 C508 C 0.63036 0.65156 0.21731
 C509 C 0.57550 0.61995 0.19112
 C510 C 0.56000 0.59497 0.16418
 C511 C 0.58346 0.57440 0.13731
 C512 C 0.62296 0.57887 0.13836
 H513 H 0.66630 0.70235 0.25983
 H514 H 0.75129 0.62652 0.16984
 H515 H 0.77725 0.67807 0.20804
 H516 H 0.69647 0.59327 0.14520
 H517 H 0.61187 0.66799 0.23716
 H518 H 0.55667 0.63580 0.21107
 H519 H 0.52945 0.59249 0.16373
 H520 H 0.64141 0.56282 0.11819
   
