data_POSCAR
  _audit_creation_date              2014-09-24
  _audit_creation_method            'ToBaCCo'
  _symmetry_space_group_name_H-M    'P1'
  _symmetry_Int_Tables_number       1
  _symmetry_cell_setting            triclinic
  loop_
  _symmetry_equiv_pos_as_xyz
 x,y,z
_cell_length_a 33.0107
_cell_length_b 33.7131
_cell_length_c 30.6583
_cell_angle_alpha 87.868200
_cell_angle_beta 93.368800
_cell_angle_gamma 118.700200
loop_
  _atom_site_label
  _atom_site_type_symbol
  _atom_site_fract_x
  _atom_site_fract_y
  _atom_site_fract_z
C1 C 0.53957 0.07641 0.06025
 H2 H 0.57228 0.07636 0.05954
 C3 C 0.53666 0.10976 0.08319
 H4 H 0.56729 0.13516 0.10041
 C5 C 0.46063 0.04461 0.03663
 H6 H 0.43155 0.01999 0.01724
 C7 C 0.45612 0.07749 0.05930
 H8 H 0.42338 0.07762 0.05694
 N9 N 0.50202 0.04489 0.03738
 C10 C 0.53898 -0.06090 0.01733
 H11 H 0.53811 -0.06147 -0.01798
 C12 C 0.54798 -0.09177 0.04194
 H13 H 0.55506 -0.11522 0.02508
 C14 C 0.53080 -0.02924 0.08180
 H15 H 0.52302 -0.00557 0.09724
 C16 C 0.53974 -0.05938 0.10763
 H17 H 0.53921 -0.05827 0.14285
 Zn18 Zn 0.51342 0.00676 0.00225
 N19 N 0.53043 -0.03061 0.03749
 C20 C 0.60340 0.04704 -0.03313
 N21 N 0.56175 0.04609 -0.03352
 C22 C 0.55379 0.07674 -0.05711
 C23 C 0.58855 0.11059 -0.08110
 C24 C 0.63937 0.08046 -0.05675
 C25 C 0.42250 -0.06280 -0.01189
 C26 C 0.38357 -0.09402 -0.03603
 C27 C 0.42309 -0.05983 -0.10218
 C28 C 0.46123 -0.02951 -0.07674
 N29 N 0.46029 -0.03148 -0.03244
 H30 H 0.60927 0.02279 -0.01356
 H31 H 0.52037 0.07530 -0.05656
 H32 H 0.57995 0.13360 -0.09957
 H33 H 0.67258 0.08114 -0.05531
 H34 H 0.42288 -0.06388 0.02345
 H35 H 0.35434 -0.11806 -0.01821
 H36 H 0.42498 -0.05775 -0.13743
 H37 H 0.49191 -0.00507 -0.09255
 C38 C 0.54756 -0.09173 0.08779
 C39 C 0.49477 0.11091 0.08262
 C40 C 0.38367 -0.09325 -0.08209
 C41 C 0.63277 0.11370 -0.08036
 C42 C -0.05699 0.48581 0.61475
 H43 H -0.05806 0.45321 0.61590
 C44 C -0.08848 0.49254 0.58741
 H45 H -0.11335 0.46484 0.56748
 C46 C -0.02401 0.56072 0.64099
 H47 H 0.00041 0.58681 0.66272
 C48 C -0.05494 0.56892 0.61407
 H49 H -0.05382 0.60153 0.61491
 N50 N -0.02564 0.51962 0.64084
 C51 C 0.08118 0.48093 0.67367
 H52 H 0.08075 0.47988 0.70896
 C53 C 0.11309 0.47295 0.65292
 H54 H 0.13710 0.46555 0.67251
 C55 C 0.05111 0.49298 0.60540
 H56 H 0.02732 0.50139 0.58697
 C57 C 0.08243 0.48521 0.58331
 H58 H 0.08101 0.48656 0.54803
 Zn59 Zn 0.01129 0.50461 0.68028
 N60 N 0.05103 0.49071 0.64978
 C61 C -0.02996 0.41402 0.71445
 N62 N -0.03030 0.45424 0.71305
 C63 C -0.06305 0.45948 0.73303
 C64 C -0.09719 0.42358 0.75578
 C65 C -0.06356 0.37705 0.73697
 C66 C 0.08186 0.59211 0.69945
 C67 C 0.11175 0.62873 0.72563
 C68 C 0.07325 0.58514 0.78902
 C69 C 0.04422 0.54942 0.76160
 N70 N 0.04878 0.55360 0.71766
 H71 H -0.00422 0.41025 0.69754
 H72 H -0.06288 0.49167 0.73078
 H73 H -0.12273 0.42910 0.77098
 H74 H -0.06309 0.34511 0.73754
 H75 H 0.08526 0.59418 0.66444
 H76 H 0.13777 0.65828 0.70957
 H77 H 0.06896 0.58082 0.82395
 H78 H 0.01851 0.51818 0.77564
 C79 C 0.11450 0.47568 0.60722
 C80 C -0.08792 0.53450 0.58722
 C81 C 0.10775 0.62564 0.77137
 C82 C -0.09793 0.38143 0.75775
 C83 C 0.52235 0.45296 0.38586
 H84 H 0.48864 0.42325 0.38554
 C85 C 0.55880 0.45343 0.41162
 H86 H 0.55277 0.42397 0.43142
 C87 C 0.57147 0.52649 0.35865
 H88 H 0.57656 0.55426 0.33687
 C89 C 0.60904 0.52836 0.38390
 H90 H 0.64252 0.55784 0.38096
 N91 N 0.52922 0.48907 0.36000
 C92 C 0.39000 0.46957 0.32983
 H93 H 0.38933 0.46956 0.29450
 C94 C 0.35202 0.46572 0.35111
 H95 H 0.32205 0.46258 0.33187
 C96 C 0.43043 0.47476 0.39763
 H97 H 0.46132 0.47894 0.41564
 C98 C 0.39320 0.47100 0.42028
 H99 H 0.39609 0.47128 0.45554
 Zn100 Zn 0.47915 0.48182 0.32170
 N101 N 0.42814 0.47386 0.35322
 C102 C 0.42143 0.39331 0.28675
 N103 N 0.46398 0.43038 0.28782
 C104 C 0.49931 0.43127 0.26650
 C105 C 0.49261 0.39424 0.24231
 C106 C 0.41309 0.35534 0.26290
 C107 C 0.50722 0.57335 0.30398
 C108 C 0.51767 0.61189 0.27828
 C109 C 0.50431 0.56712 0.21400
 C110 C 0.49415 0.52955 0.24096
 N111 N 0.49597 0.53332 0.28509
 H112 H 0.39407 0.39280 0.30484
 H113 H 0.53308 0.46087 0.26877
 H114 H 0.52227 0.39671 0.22688
 H115 H 0.37894 0.32611 0.26264
 H116 H 0.50755 0.57517 0.33917
 H117 H 0.52567 0.64268 0.29483
 H118 H 0.50227 0.56307 0.17890
 H119 H 0.48399 0.49724 0.22641
 C120 C 0.35338 0.46687 0.39690
 C121 C 0.60292 0.49124 0.41065
 C122 C 0.51620 0.60915 0.23234
 C123 C 0.44880 0.35525 0.24001
 C124 C 0.14982 0.46861 0.58612
 C125 C 0.16398 0.48333 0.54368
 C126 C 0.20141 0.47903 0.52349
 C127 C 0.20400 0.48265 0.47787
 C128 C 0.23968 0.48060 0.45742
 C129 C 0.27377 0.47493 0.48230
 C130 C 0.27151 0.47186 0.52796
 C131 C 0.23576 0.47381 0.54842
 C132 C 0.31340 0.47463 0.46221
 C133 C 0.31292 0.46407 0.41841
 H134 H 0.14732 0.49906 0.52392
 H135 H 0.17846 0.48747 0.45793
 H136 H 0.24097 0.48479 0.42231
 H137 H 0.29776 0.46826 0.54795
 H138 H 0.23613 0.47247 0.58370
 H139 H 0.34381 0.48311 0.48321
 H140 H 0.16625 0.45249 0.60565
 H141 H 0.28170 0.45427 0.39816
 C142 C 0.55423 0.87493 0.11584
 C143 C 0.54428 0.83226 0.10126
 C144 C 0.54474 0.79655 0.13063
 C145 C 0.51769 0.75121 0.11836
 C146 C 0.51550 0.71629 0.14582
 C147 C 0.54106 0.72606 0.18603
 C148 C 0.56870 0.77145 0.19800
 C149 C 0.57085 0.80640 0.17052
 C150 C 0.53780 0.68995 0.21705
 C151 C 0.52443 0.64581 0.20392
 H152 H 0.53107 0.82281 0.06799
 H153 H 0.49720 0.74268 0.08785
 H154 H 0.49267 0.68183 0.13588
 H155 H 0.58872 0.77991 0.22878
 H156 H 0.59315 0.84092 0.18062
 H157 H 0.54751 0.69946 0.25084
 H158 H 0.56255 0.88263 0.15020
 H159 H 0.52026 0.63929 0.16919
 C160 C 0.34682 0.87541 0.89108
 C161 C 0.30756 0.83739 0.90605
 C162 C 0.27185 0.80375 0.87594
 C163 C 0.24714 0.75859 0.88994
 C164 C 0.21446 0.72552 0.86188
 C165 C 0.20514 0.73717 0.81932
 C166 C 0.22930 0.78253 0.80564
 C167 C 0.26210 0.81557 0.83366
 C168 C 0.17237 0.70296 0.78772
 C169 C 0.13721 0.66042 0.80028
 H170 H 0.30437 0.82910 0.94047
 H171 H 0.25403 0.74863 0.92235
 H172 H 0.19773 0.69086 0.87342
 H173 H 0.22278 0.79248 0.77308
 H174 H 0.27942 0.85026 0.82216
 H175 H 0.17597 0.71283 0.75368
 H176 H 0.35034 0.87981 0.85609
 H177 H 0.13187 0.65372 0.83485
 C178 C 0.87792 0.54294 0.56110
 C179 C 0.83845 0.50641 0.53130
 C180 C 0.79812 0.51222 0.50640
 C181 C 0.76336 0.47632 0.48218
 C182 C 0.72680 0.48050 0.46139
 C183 C 0.72416 0.52071 0.46462
 C184 C 0.75963 0.55704 0.48792
 C185 C 0.79618 0.55274 0.50890
 C186 C 0.68556 0.52584 0.44307
 C187 C 0.64168 0.48891 0.43539
 H188 H 0.83090 0.46802 0.52272
 H189 H 0.76431 0.44486 0.47940
 H190 H 0.70107 0.45236 0.44235
 H191 H 0.75869 0.58856 0.49042
 H192 H 0.82279 0.58094 0.52725
 H193 H 0.69160 0.55968 0.43499
 H194 H 0.85702 0.52231 0.54518
 H195 H 0.63493 0.45621 0.44867
 C196 C 0.49430 0.14945 0.10372
 C197 C 0.45441 0.15114 0.11367
 C198 C 0.45709 0.19235 0.13203
 C199 C 0.42467 0.18861 0.16175
 C200 C 0.42814 0.22728 0.18091
 C201 C 0.46373 0.27056 0.16987
 C202 C 0.49512 0.27409 0.13903
 C203 C 0.49182 0.23556 0.12023
 C204 C 0.47130 0.31270 0.19086
 C205 C 0.43967 0.31608 0.21704
 H206 H 0.42098 0.12122 0.11050
 H207 H 0.39745 0.15563 0.17112
 H208 H 0.40360 0.22273 0.20497
 H209 H 0.52270 0.30687 0.12965
 H210 H 0.51648 0.23975 0.09632
 H211 H 0.50352 0.34241 0.18419
 H212 H 0.52755 0.17795 0.11262
 H213 H 0.40575 0.28705 0.21952
 C214 C -0.32945 0.14899 0.89877
 C215 C -0.32977 0.18740 0.87998
 C216 C -0.28898 0.22595 0.86111
 C217 C -0.25275 0.22151 0.84393
 C218 C -0.21559 0.25903 0.82543
 C219 C -0.21409 0.30138 0.82388
 C220 C -0.25022 0.30568 0.84100
 C221 C -0.28735 0.26833 0.85918
 C222 C -0.17281 0.34395 0.80224
 C223 C -0.13212 0.34352 0.77875
 H224 H -0.35969 0.19212 0.88211
 H225 H -0.25341 0.18913 0.84381
 H226 H -0.18820 0.25494 0.81206
 H227 H -0.25003 0.33790 0.84002
 H228 H -0.31490 0.27265 0.87193
 H229 H -0.18061 0.37557 0.80760
 H230 H -0.29731 0.14760 0.89975
 H231 H -0.15378 0.34484 0.79129
   
