data_POSCAR
  _audit_creation_date              2014-09-24
  _audit_creation_method            'ToBaCCo'
  _symmetry_space_group_name_H-M    'P1'
  _symmetry_Int_Tables_number       1
  _symmetry_cell_setting            triclinic
  loop_
  _symmetry_equiv_pos_as_xyz
 x,y,z
_cell_length_a 51.8832
_cell_length_b 50.5811
_cell_length_c 50.0780
_cell_angle_alpha 89.949400
_cell_angle_beta 84.376500
_cell_angle_gamma 88.013900
loop_
  _atom_site_label
  _atom_site_type_symbol
  _atom_site_fract_x
  _atom_site_fract_y
  _atom_site_fract_z
N1 N 0.18335 1.25576 0.16578
 N2 N 0.16340 1.25352 0.18388
 C3 C 0.14531 1.27238 0.17966
 C4 C 0.15447 1.28718 0.15771
 C5 C 0.17877 1.27623 0.14951
 H6 H 0.12654 1.27461 0.19104
 H7 H 0.19153 1.28178 0.13217
 Cu8 Cu 0.16218 1.22457 0.20948
 Cu9 Cu 0.21180 1.22945 0.16241
 Cu10 Cu 0.21809 1.19308 0.22043
 N11 N 0.16345 1.19711 0.23651
 N12 N 0.18550 1.18534 0.24138
 C13 C 0.18096 1.16755 0.26118
 C14 C 0.15455 1.16791 0.26868
 C15 C 0.14405 1.18693 0.25267
 H16 H 0.19566 1.15474 0.26884
 H17 H 0.12378 1.19270 0.25265
 N18 N 0.24563 1.19432 0.19030
 N19 N 0.24285 1.20758 0.16797
 C20 C 0.26297 1.20141 0.14980
 C21 C 0.27912 1.18325 0.16111
 C22 C 0.26769 1.17930 0.18686
 H23 H 0.26489 1.20826 0.12926
 H24 H 0.27382 1.16495 0.20118
 H25 H 0.19833 1.19846 0.18747
 H26 H 0.20903 1.22943 0.20267
 N27 N 0.78690 0.74219 0.20794
 N28 N 0.80599 0.74474 0.22309
 C29 C 0.82646 0.72951 0.21314
 C30 C 0.81972 0.71654 0.19069
 C31 C 0.79441 0.72484 0.18807
 H32 H 0.84508 0.72854 0.22118
 H33 H 0.78288 0.71986 0.17204
 Cu34 Cu 0.80283 0.76868 0.25366
 Cu35 Cu 0.75524 0.76440 0.21342
 Cu36 Cu 0.76656 0.82331 0.24496
 N37 N 0.80328 0.79887 0.27745
 N38 N 0.78944 0.82053 0.27349
 C39 C 0.79526 0.83940 0.29061
 C40 C 0.81366 0.82891 0.30622
 C41 C 0.81819 0.80304 0.29749
 H42 H 0.78727 0.85946 0.29107
 H43 H 0.83224 0.78884 0.30418
 N44 N 0.73771 0.81900 0.22263
 N45 N 0.73267 0.79632 0.21153
 C46 C 0.71217 0.80001 0.19719
 C47 C 0.70407 0.82633 0.19937
 C48 C 0.72058 0.83772 0.21570
 H49 H 0.70463 0.78504 0.18497
 H50 H 0.72054 0.85832 0.22146
 H51 H 0.78052 0.79238 0.21983
 H52 H 0.75815 0.78462 0.25002
 N53 N 0.80136 1.25696 -0.16829
 N54 N 0.81468 1.26302 -0.19104
 C55 C 0.82857 1.28448 -0.18728
 C56 C 0.82378 1.29204 -0.16066
 C57 C 0.80649 1.27414 -0.14920
 H58 H 0.84198 1.29320 -0.20241
 H59 H 0.79873 1.27323 -0.12838
 Cu60 Cu 0.81441 1.24050 -0.22238
 Cu61 Cu 0.77998 1.22605 -0.16465
 Cu62 Cu 0.76664 1.19792 -0.22465
 N63 N 0.81682 1.21194 -0.24857
 N64 N 0.79749 1.19610 -0.25039
 C65 C 0.80431 1.17800 -0.26972
 C66 C 0.82955 1.18235 -0.28002
 C67 C 0.83685 1.20416 -0.26627
 H68 H 0.79242 1.16188 -0.27463
 H69 H 0.85554 1.21320 -0.26836
 N70 N 0.74559 1.19198 -0.19043
 N71 N 0.75160 1.20161 -0.16743
 C72 C 0.73571 1.19175 -0.14732
 C73 C 0.71896 1.17507 -0.15817
 C74 C 0.72562 1.17574 -0.18558
 H75 H 0.73666 1.19584 -0.12626
 H76 H 0.71757 1.16415 -0.20068
 H77 H 0.79300 1.20405 -0.19857
 H78 H 0.77029 1.23291 -0.20226
 N79 N 0.23041 0.74173 -0.20188
 N80 N 0.21354 0.74209 -0.21985
 C81 C 0.19562 0.72396 -0.21324
 C82 C 0.20147 0.71185 -0.18971
 C83 C 0.22370 0.72351 -0.18309
 H84 H 0.17878 0.72094 -0.22387
 H85 H 0.23367 0.71979 -0.16539
 Cu86 Cu 0.21473 0.76831 -0.24841
 Cu87 Cu 0.25853 0.76648 -0.20339
 Cu88 Cu 0.24074 0.82543 -0.23250
 N89 N 0.20975 0.80033 -0.26904
 N90 N 0.21946 0.82274 -0.26221
 C91 C 0.21103 0.84231 -0.27768
 C92 C 0.19517 0.83160 -0.29520
 C93 C 0.19492 0.80483 -0.28934
 H94 H 0.21549 0.86292 -0.27577
 H95 H 0.18376 0.79004 -0.29816
 N96 N 0.26889 0.82216 -0.20881
 N97 N 0.27642 0.79946 -0.19853
 C98 C 0.29620 0.80364 -0.18368
 C99 C 0.30124 0.83031 -0.18466
 C100 C 0.28364 0.84142 -0.20077
 H101 H 0.30564 0.78857 -0.17236
 H102 H 0.28165 0.86207 -0.20608
 H103 H 0.22964 0.79212 -0.21084
 H104 H 0.25545 0.78801 -0.23939
 C105 C 0.47788 0.96615 -0.01717
 C106 C 0.48934 0.98071 0.00208
 C107 C 0.47432 0.99908 0.01842
 C108 C 0.44808 1.00380 0.01497
 C109 C 0.43689 0.98951 -0.00466
 C110 C 0.45150 0.97045 -0.02061
 C111 C 0.51756 0.97939 0.00322
 C112 C 0.53304 0.99589 -0.01364
 C113 C 0.55937 0.99830 -0.01025
 C114 C 0.57013 0.98356 0.00994
 C115 C 0.55499 0.96646 0.02653
 C116 C 0.52860 0.96441 0.02306
 H117 H 0.48966 0.95223 -0.02997
 H118 H 0.48344 1.01058 0.03290
 H119 H 0.52420 1.00780 -0.02851
 H120 H 0.51646 0.95206 0.03635
 H121 H 0.41656 0.99299 -0.00725
 H122 H 0.59047 0.98524 0.01266
 C123 C -0.02082 0.48468 0.97248
 C124 C -0.00177 0.49717 0.98548
 C125 C 0.01403 0.48234 1.00153
 C126 C 0.01015 0.45529 1.00568
 C127 C -0.00933 0.44310 0.99310
 C128 C -0.02460 0.45750 0.97611
 C129 C -0.00008 0.52612 0.98494
 C130 C -0.01748 0.54146 1.00216
 C131 C -0.01427 0.56873 1.00483
 C132 C 0.00641 0.58060 0.98964
 C133 C 0.02340 0.56556 0.97151
 C134 C 0.02012 0.53821 0.96938
 H135 H -0.03307 0.49626 0.96021
 H136 H 0.02849 0.49217 1.01178
 H137 H -0.03286 0.53186 1.01433
 H138 H 0.03359 0.52621 0.95617
 H139 H -0.01218 0.42213 0.99605
 H140 H 0.00890 0.60168 0.99142
 C141 C 0.98087 -0.03157 0.47818
 C142 C 1.00049 -0.01727 0.48828
 C143 C 1.01656 -0.00174 0.47097
 C144 C 1.01250 0.00049 0.44376
 C145 C 0.99246 -0.01345 0.43397
 C146 C 0.97680 -0.02977 0.45092
 C147 C 1.00238 -0.01576 0.51734
 C148 C 1.02220 -0.02964 0.52909
 C149 C 1.02567 -0.02561 0.55625
 C150 C 1.00929 -0.00724 0.57135
 C151 C 0.98905 0.00633 0.55987
 C152 C 0.98557 0.00173 0.53287
 H153 H 0.96831 -0.04332 0.49168
 H154 H 1.03137 0.00961 0.47905
 H155 H 1.03520 -0.04305 0.51692
 H156 H 0.97048 0.01261 0.52353
 H157 H 0.98928 -0.01195 0.41295
 H158 H 1.01188 -0.00395 0.59228
 C159 C 0.11386 0.34384 1.11867
 N160 N 0.13919 0.33816 1.11062
 N161 N 0.15251 0.32005 1.12351
 C162 C 0.14104 0.30712 1.14506
 N163 N 0.11582 0.31317 1.15336
 N164 N 0.10245 0.33108 1.14031
 C165 C 0.09860 0.36231 1.10337
 N166 N 0.07233 0.36222 1.10653
 N167 N 0.05833 0.37787 1.09167
 C168 C 0.07009 0.39439 1.07328
 N169 N 0.09637 0.39474 1.07032
 N170 N 0.11039 0.37887 1.08500
 C171 C 0.05454 0.41073 1.05620
 N172 N 0.06490 0.43150 1.04226
 N173 N 0.05074 0.44590 1.02640
 C174 C 0.02583 0.43983 1.02364
 N175 N 0.01555 0.41902 1.03757
 N176 N 0.02960 0.40483 1.05365
 C177 C -0.13134 0.67088 1.13617
 N178 N -0.15742 0.67114 1.13524
 N179 N -0.17307 0.68552 1.15274
 C180 C -0.16320 0.69993 1.17196
 N181 N -0.13715 0.69947 1.17303
 N182 N -0.12150 0.68529 1.15539
 C183 C -0.11400 0.65566 1.11645
 N184 N -0.08822 0.66008 1.11342
 N185 N -0.07248 0.64655 1.09531
 C186 C -0.08192 0.62795 1.07972
 N187 N -0.10769 0.62343 1.08283
 N188 N -0.12347 0.63715 1.10078
 C189 C -0.06451 0.61285 1.05996
 N190 N -0.07248 0.59051 1.04875
 N191 N -0.05653 0.57655 1.03118
 C192 C -0.03210 0.58453 1.02394
 N193 N -0.02423 0.60701 1.03503
 N194 N -0.04010 0.62084 1.05279
 C195 C -0.13907 0.34961 0.87988
 N196 N -0.13597 0.34831 0.85265
 N197 N -0.14805 0.33020 0.83963
 C198 C -0.16375 0.31286 0.85337
 N199 N -0.16705 0.31439 0.88054
 N200 N -0.15487 0.33235 0.89355
 C201 C -0.12452 0.36825 0.89453
 N202 N -0.12365 0.36555 0.92138
 N203 N -0.10931 0.38131 0.93467
 C204 C -0.09546 0.40053 0.92166
 N205 N -0.09658 0.40351 0.89483
 N206 N -0.11079 0.38758 0.88148
 C207 C -0.07832 0.41652 0.93623
 N208 N -0.06725 0.43834 0.92498
 N209 N -0.05066 0.45186 0.93792
 C210 C -0.04434 0.44387 0.96244
 N211 N -0.05558 0.42215 0.97367
 N212 N -0.07232 0.40881 0.96089
 C213 C 0.15415 0.66133 0.85771
 N214 N 0.17317 0.67441 0.86833
 N215 N 0.18866 0.68998 0.85304
 C216 C 0.18551 0.69327 0.82664
 N217 N 0.16654 0.68015 0.81599
 N218 N 0.15123 0.66434 0.83122
 C219 C 0.13627 0.64526 0.87489
 N220 N 0.12105 0.62769 0.86401
 N221 N 0.10411 0.61390 0.87962
 C222 C 0.10157 0.61743 0.90665
 N223 N 0.11680 0.63498 0.91751
 N224 N 0.13393 0.64854 0.90193
 C225 C 0.08198 0.60332 0.92377
 N226 N 0.07394 0.61238 0.94881
 N227 N 0.05543 0.60028 0.96402
 C228 C 0.04445 0.57847 0.95490
 N229 N 0.05272 0.56924 0.92995
 N230 N 0.07103 0.58153 0.91460
 C231 C 1.11423 0.11985 0.32284
 N232 N 1.14055 0.11862 0.31993
 N233 N 1.15371 0.13428 0.30245
 C234 C 1.14102 0.15187 0.28742
 N235 N 1.11472 0.15322 0.29058
 N236 N 1.10158 0.13744 0.30786
 C237 C 1.09950 0.10213 0.34134
 N238 N 1.07373 0.09959 0.33984
 N239 N 1.06022 0.08329 0.35624
 C240 C 1.07192 0.06907 0.37492
 N241 N 1.09769 0.07169 0.37657
 N242 N 1.11127 0.08785 0.35998
 C243 C 1.05681 0.05109 0.39280
 N244 N 1.06647 0.04084 0.41498
 N245 N 1.05243 0.02477 0.43124
 C246 C 1.02832 0.01815 0.42576
 N247 N 1.01880 0.02834 0.40348
 N248 N 1.03272 0.04456 0.38738
 C249 C 1.15152 -0.12695 0.65368
 N250 N 1.16693 -0.11421 0.66948
 N251 N 1.18144 -0.12775 0.68562
 C252 C 1.18095 -0.15455 0.68679
 N253 N 1.16566 -0.16734 0.67083
 N254 N 1.15126 -0.15378 0.65451
 C255 C 1.13452 -0.11171 0.63710
 N256 N 1.12157 -0.12380 0.61850
 N257 N 1.10539 -0.10988 0.60432
 C258 C 1.10144 -0.08345 0.60841
 N259 N 1.11445 -0.07140 0.62695
 N260 N 1.13076 -0.08525 0.64094
 C261 C 1.08258 -0.06819 0.59402
 N262 N 1.07421 -0.04373 0.60283
 N263 N 1.05632 -0.03015 0.59064
 C264 C 1.04626 -0.04038 0.56901
 N265 N 1.05488 -0.06476 0.56000
 N266 N 1.07263 -0.07848 0.57236
 C267 C 0.85341 -0.13053 0.35916
 N268 N 0.83526 -0.11794 0.34556
 N269 N 0.82195 -0.13125 0.32889
 C270 C 0.82649 -0.15762 0.32496
 N271 N 0.84450 -0.17029 0.33878
 N272 N 0.85767 -0.15699 0.35563
 C273 C 0.86933 -0.11536 0.37592
 N274 N 0.88488 -0.12774 0.39269
 N275 N 0.90043 -0.11386 0.40661
 C276 C 0.90113 -0.08715 0.40402
 N277 N 0.88548 -0.07482 0.38736
 N278 N 0.86978 -0.08864 0.37368
 C279 C 0.91969 -0.07191 0.41747
 N280 N 0.92580 -0.04737 0.40853
 N281 N 0.94372 -0.03392 0.41945
 C282 C 0.95604 -0.04434 0.43994
 N283 N 0.94964 -0.06875 0.44919
 N284 N 0.93189 -0.08237 0.43804
 C285 C 0.87588 0.13419 0.66801
 N286 N 0.88586 0.15510 0.67992
 N287 N 0.87071 0.17109 0.69629
 C288 C 0.84506 0.16659 0.70160
 N289 N 0.83507 0.14574 0.68956
 N290 N 0.85017 0.12991 0.67296
 C291 C 0.89278 0.11590 0.65092
 N292 N 0.88257 0.09839 0.63469
 N293 N 0.89790 0.08129 0.61977
 C294 C 0.92397 0.08087 0.62080
 N295 N 0.93416 0.09835 0.63706
 N296 N 0.91886 0.11563 0.65176
 C297 C 0.94083 0.06159 0.60492
 N298 N 0.96551 0.05654 0.61079
 N299 N 0.98075 0.03884 0.59660
 C300 C 0.97198 0.02568 0.57585
 N301 N 0.94732 0.03086 0.56991
 N302 N 0.93198 0.04837 0.58428
 C303 C 0.33742 1.13620 0.11933
 N304 N 0.33321 1.13460 0.14648
 N305 N 0.31507 1.15005 0.15999
 C306 C 0.30064 1.16774 0.14682
 N307 N 0.30517 1.16960 0.11975
 N308 N 0.32315 1.15407 0.10626
 C309 C 0.35574 1.11782 0.10400
 N310 N 0.35513 1.11549 0.07708
 N311 N 0.37060 1.09787 0.06309
 C312 C 0.38740 1.08204 0.07544
 N313 N 0.38826 1.08454 0.10234
 N314 N 0.37260 1.10204 0.11641
 C315 C 0.40355 1.06197 0.05989
 N316 N 0.42396 1.04949 0.07016
 N317 N 0.43828 1.03109 0.05587
 C318 C 0.43251 1.02430 0.03094
 N319 N 0.41205 1.03679 0.02079
 N320 N 0.39792 1.05533 0.03493
 C321 C 0.66757 1.12496 -0.11532
 N322 N 0.68398 1.13966 -0.10250
 N323 N 0.69997 1.15594 -0.11618
 C324 C 0.70028 1.15803 -0.14322
 N325 N 0.68382 1.14341 -0.15609
 N326 N 0.66767 1.12721 -0.14236
 C327 C 0.65074 1.10637 -0.10007
 N328 N 0.63169 1.09411 -0.11155
 N329 N 0.61681 1.07696 -0.09755
 C330 C 0.62061 1.07133 -0.07167
 N331 N 0.63966 1.08357 -0.06027
 N332 N 0.65439 1.10082 -0.07417
 C333 C 0.60468 1.05218 -0.05612
 N334 N 0.61166 1.04342 -0.03217
 N335 N 0.59736 1.02615 -0.01780
 C336 C 0.57541 1.01706 -0.02671
 N337 N 0.56838 1.02590 -0.05069
 N338 N 0.58281 1.04306 -0.06519
 C339 C 0.35322 0.87111 -0.14256
 N340 N 0.33605 0.88435 -0.15690
 N341 N 0.31981 0.87127 -0.17060
 C342 C 0.32000 0.84445 -0.17035
 N343 N 0.33724 0.83114 -0.15610
 N344 N 0.35361 0.84424 -0.14247
 C345 C 0.37012 0.88585 -0.12648
 N346 N 0.38904 0.87331 -0.11381
 N347 N 0.40351 0.88684 -0.09838
 C348 C 0.39945 0.91335 -0.09496
 N349 N 0.38063 0.92584 -0.10773
 N350 N 0.36631 0.91237 -0.12326
 C351 C 0.41402 0.92830 -0.07668
 N352 N 0.40577 0.95315 -0.06914
 N353 N 0.41794 0.96655 -0.05160
 C354 C 0.43899 0.95574 -0.04103
 N355 N 0.44751 0.93096 -0.04886
 N356 N 0.43516 0.91742 -0.06628
 C357 C 0.65039 0.86690 0.15594
 N358 N 0.65232 0.84005 0.15522
 N359 N 0.66908 0.82697 0.16942
 C360 C 0.68439 0.84029 0.18492
 N361 N 0.68218 0.86709 0.18586
 N362 N 0.66556 0.88014 0.17159
 C363 C 0.63350 0.88170 0.13889
 N364 N 0.63589 0.90818 0.13587
 N365 N 0.62187 0.92169 0.11928
 C366 C 0.60475 0.90930 0.10521
 N367 N 0.60206 0.88283 0.10845
 N368 N 0.61626 0.86924 0.12494
 C369 C 0.59075 0.92427 0.08570
 N370 N 0.57051 0.91393 0.07447
 N371 N 0.55869 0.92749 0.05601
 C372 C 0.56691 0.95172 0.04792
 N373 N 0.58707 0.96198 0.05929
 N374 N 0.59867 0.94859 0.07788
   
