data_POSCAR
  _audit_creation_date              2014-09-24
  _audit_creation_method            'ToBaCCo'
  _symmetry_space_group_name_H-M    'P1'
  _symmetry_Int_Tables_number       1
  _symmetry_cell_setting            triclinic
  loop_
  _symmetry_equiv_pos_as_xyz
 x,y,z
_cell_length_a 42.3059
_cell_length_b 39.3974
_cell_length_c 38.9148
_cell_angle_alpha 90.112200
_cell_angle_beta 87.438900
_cell_angle_gamma 88.956800
loop_
  _atom_site_label
  _atom_site_type_symbol
  _atom_site_fract_x
  _atom_site_fract_y
  _atom_site_fract_z
C1 C 0.30082 0.28126 0.23667
 H2 H 0.30144 0.28116 0.26444
 C3 C 0.32265 0.30024 0.21723
 H4 H 0.34021 0.31448 0.23027
 C5 C 0.27768 0.26192 0.18606
 H6 H 0.26043 0.24665 0.17391
 C7 C 0.29898 0.28060 0.16564
 H8 H 0.29728 0.28003 0.13797
 N9 N 0.27858 0.26304 0.22095
 C10 C 0.19950 0.25450 0.29601
 H11 H 0.19622 0.22733 0.29547
 C12 C 0.17960 0.27502 0.31712
 H13 H 0.16077 0.26344 0.33248
 C14 C 0.22767 0.30248 0.27588
 H15 H 0.24627 0.31315 0.25962
 C16 C 0.20842 0.32395 0.29673
 H17 H 0.21293 0.35090 0.29669
 Zn18 Zn 0.24956 0.23839 0.24926
 N19 N 0.22324 0.26838 0.27631
 C20 C 0.27086 0.21420 0.31290
 N21 N 0.27350 0.21020 0.27816
 C22 C 0.29437 0.18729 0.26336
 C23 C 0.31308 0.16665 0.28375
 C24 C 0.28922 0.19426 0.33422
 C25 C 0.20342 0.22928 0.20094
 C26 C 0.18375 0.21154 0.17962
 C27 C 0.20345 0.15905 0.20332
 C28 C 0.22288 0.17781 0.22404
 N29 N 0.22295 0.21227 0.22204
 H30 H 0.25489 0.23323 0.32419
 H31 H 0.29639 0.18503 0.23563
 H32 H 0.32906 0.14811 0.27145
 H33 H 0.28709 0.19832 0.36176
 H34 H 0.20356 0.25673 0.20027
 H35 H 0.16919 0.22561 0.16223
 H36 H 0.20365 0.13166 0.20543
 H37 H 0.23779 0.16475 0.24173
 C38 C 0.18409 0.31026 0.31792
 C39 C 0.32175 0.30030 0.18117
 C40 C 0.18376 0.17589 0.18042
 C41 C 0.31063 0.16997 0.31975
 C42 C 0.79655 0.79514 0.23391
 H43 H 0.79668 0.79577 0.26171
 C44 C 0.81826 0.81423 0.21441
 H45 H 0.83524 0.82860 0.22810
 C46 C 0.77529 0.77324 0.18345
 H47 H 0.75860 0.75710 0.17143
 C48 C 0.79662 0.79174 0.16290
 H49 H 0.79466 0.79014 0.13535
 N50 N 0.77545 0.77544 0.21827
 C51 C 0.69513 0.76270 0.29108
 H52 H 0.69347 0.73533 0.29109
 C53 C 0.67308 0.78238 0.31047
 H54 H 0.65474 0.76991 0.32580
 C55 C 0.72123 0.81208 0.27113
 H56 H 0.73967 0.82362 0.25532
 C57 C 0.69973 0.83272 0.29018
 H58 H 0.70191 0.86003 0.28879
 Zn59 Zn 0.74746 0.74928 0.24621
 N60 N 0.71883 0.77771 0.27226
 C61 C 0.76640 0.72234 0.31013
 N62 N 0.77231 0.72257 0.27548
 C63 C 0.79686 0.70428 0.26062
 C64 C 0.81626 0.68420 0.28072
 C65 C 0.78507 0.70239 0.33117
 C66 C 0.70096 0.73642 0.19937
 C67 C 0.68216 0.71706 0.17856
 C68 C 0.70954 0.66656 0.19748
 C69 C 0.72762 0.68686 0.21818
 N70 N 0.72330 0.72116 0.21844
 H71 H 0.74728 0.73762 0.32158
 H72 H 0.80124 0.70524 0.23304
 H73 H 0.83541 0.66942 0.26839
 H74 H 0.78009 0.70253 0.35871
 H75 H 0.69786 0.76373 0.20030
 H76 H 0.66473 0.72965 0.16323
 H77 H 0.71320 0.63928 0.19760
 H78 H 0.74504 0.67513 0.23400
 C79 C 0.67532 0.81790 0.31032
 C80 C 0.81877 0.81289 0.17809
 C81 C 0.68647 0.68166 0.17733
 C82 C 0.81034 0.68296 0.31647
 C83 C 0.80182 0.29811 0.72851
 H84 H 0.80404 0.29722 0.75609
 C85 C 0.82232 0.31794 0.70828
 H86 H 0.84046 0.33202 0.72056
 C87 C 0.77624 0.27955 0.67910
 H88 H 0.75849 0.26427 0.66776
 C89 C 0.79614 0.29917 0.65791
 H90 H 0.79299 0.29922 0.63045
 N91 N 0.77922 0.27960 0.71375
 C92 C 0.70158 0.26453 0.78908
 H93 H 0.69974 0.23719 0.78800
 C94 C 0.67955 0.28366 0.80909
 H95 H 0.66096 0.27086 0.82371
 C96 C 0.72802 0.31441 0.77113
 H97 H 0.74659 0.32638 0.75586
 C98 C 0.70669 0.33449 0.79105
 H99 H 0.70907 0.36181 0.79089
 Zn100 Zn 0.75324 0.25242 0.74304
 N101 N 0.72528 0.28007 0.77074
 C102 C 0.77552 0.22580 0.80555
 N103 N 0.78023 0.22658 0.77085
 C104 C 0.80523 0.20999 0.75504
 C105 C 0.82677 0.19164 0.77421
 C106 C 0.79617 0.20740 0.82579
 C107 C 0.70482 0.23770 0.69878
 C108 C 0.68471 0.21732 0.68052
 C109 C 0.71296 0.16781 0.70041
 C110 C 0.73251 0.18913 0.71833
 N111 N 0.72824 0.22340 0.71706
 H112 H 0.75593 0.23986 0.81777
 H113 H 0.80842 0.21103 0.72732
 H114 H 0.84534 0.17786 0.75989
 H115 H 0.79184 0.20909 0.85331
 H116 H 0.70168 0.26501 0.69861
 H117 H 0.66641 0.22921 0.66584
 H118 H 0.71644 0.14059 0.70218
 H119 H 0.75080 0.17821 0.73360
 C120 C 0.68203 0.31912 0.81027
 C121 C 0.81963 0.31871 0.67243
 C122 C 0.68861 0.18185 0.68123
 C123 C 0.82279 0.18978 0.81054
 C124 C 0.30180 0.78630 0.74154
 H125 H 0.30355 0.78436 0.76913
 C126 C 0.32335 0.80584 0.72234
 H127 H 0.34182 0.81865 0.73540
 C128 C 0.27622 0.77075 0.69108
 H129 H 0.25801 0.75680 0.67894
 C130 C 0.29719 0.79012 0.67090
 H131 H 0.29442 0.79131 0.64340
 N132 N 0.27869 0.76945 0.72578
 C133 C 0.20026 0.75595 0.80072
 H134 H 0.19737 0.72877 0.79909
 C135 C 0.17942 0.77551 0.82176
 H136 H 0.16037 0.76316 0.83608
 C137 C 0.22803 0.80505 0.78300
 H138 H 0.24682 0.81653 0.76764
 C139 C 0.20779 0.82556 0.80376
 H140 H 0.21170 0.85262 0.80460
 Zn141 Zn 0.25108 0.74273 0.75366
 N142 N 0.22416 0.77086 0.78213
 C143 C 0.27168 0.71276 0.81547
 N144 N 0.27643 0.71416 0.78071
 C145 C 0.30004 0.69575 0.76426
 C146 C 0.31967 0.67437 0.78279
 C147 C 0.29066 0.69160 0.83499
 C148 C 0.20243 0.73240 0.70827
 C149 C 0.18184 0.71384 0.68873
 C150 C 0.20811 0.66227 0.70651
 C151 C 0.22809 0.68179 0.72580
 N152 N 0.22507 0.71621 0.72618
 H153 H 0.25312 0.72794 0.82818
 H154 H 0.30361 0.69774 0.73664
 H155 H 0.33854 0.66024 0.76920
 H156 H 0.28601 0.69033 0.86254
 H157 H 0.20018 0.75978 0.70950
 H158 H 0.16363 0.72720 0.67516
 H159 H 0.21124 0.63493 0.70621
 H160 H 0.24585 0.66930 0.74061
 C161 C 0.18308 0.81084 0.82358
 C162 C 0.32119 0.80802 0.68649
 C163 C 0.18448 0.67824 0.68772
 C164 C 0.31504 0.67198 0.81868
 Si165 Si -0.00510 0.00944 -0.00104
 Si166 Si 0.00266 0.51371 0.49557
 Si167 Si 0.49990 0.00664 0.50990
 Si168 Si 0.50030 0.50204 0.00764
 C169 C 0.15077 -0.17940 -0.12143
 C170 C 0.13057 -0.15921 -0.10022
 C171 C 0.12029 -0.12706 -0.11108
 C172 C 0.13109 -0.11529 -0.14360
 C173 C 0.15123 -0.13553 -0.16484
 C174 C 0.16133 -0.16782 -0.15401
 C175 C 0.09939 -0.10633 -0.08723
 C176 C 0.08147 -0.07998 -0.09725
 C177 C 0.06075 -0.05920 -0.07329
 C178 C 0.03627 -0.03951 -0.08684
 C179 C 0.01648 -0.01911 -0.06539
 C180 C 0.02087 -0.01795 -0.02993
 C181 C 0.04547 -0.03723 -0.01628
 C182 C 0.06535 -0.05755 -0.03769
 H183 H 0.15854 -0.20388 -0.11203
 H184 H 0.12297 -0.16877 -0.07517
 H185 H 0.12460 -0.09032 -0.15267
 H186 H 0.15876 -0.12592 -0.18987
 H187 H 0.09795 -0.11421 -0.06061
 H188 H 0.08072 -0.07396 -0.12430
 H189 H 0.03237 -0.03998 -0.11417
 H190 H -0.00217 -0.00432 -0.07665
 H191 H 0.04951 -0.03627 0.01099
 H192 H 0.08455 -0.07125 -0.02623
 C193 C 0.15398 0.32164 0.37400
 C194 C 0.13502 0.34263 0.39569
 C195 C 0.12522 0.37496 0.38485
 C196 C 0.13533 0.38609 0.35184
 C197 C 0.15417 0.36502 0.33009
 C198 C 0.16372 0.33253 0.34088
 C199 C 0.10534 0.39636 0.40908
 C200 C 0.08793 0.42320 0.39934
 C201 C 0.06767 0.44439 0.42338
 C202 C 0.04432 0.46550 0.40963
 C203 C 0.02479 0.48617 0.43102
 C204 C 0.02815 0.48604 0.46667
 C205 C 0.05177 0.46558 0.48056
 C206 C 0.07146 0.44497 0.45919
 H207 H 0.16141 0.29705 0.38341
 H208 H 0.12795 0.33353 0.42108
 H209 H 0.12926 0.41115 0.34270
 H210 H 0.16110 0.37415 0.30469
 H211 H 0.10410 0.38848 0.43570
 H212 H 0.08710 0.42933 0.37233
 H213 H 0.04113 0.46597 0.38216
 H214 H 0.00722 0.50221 0.41950
 H215 H 0.05511 0.46569 0.50800
 H216 H 0.08982 0.43016 0.47089
 C217 C 0.62007 -0.16835 0.33308
 C218 C 0.59858 -0.14818 0.35275
 C219 C 0.60893 -0.12013 0.37117
 C220 C 0.64125 -0.11209 0.36875
 C221 C 0.66271 -0.13220 0.34900
 C222 C 0.65241 -0.16064 0.33107
 C223 C 0.58530 -0.09945 0.39173
 C224 C 0.59267 -0.08097 0.41916
 C225 C 0.56953 -0.06006 0.44023
 C226 C 0.58121 -0.03537 0.46219
 C227 C 0.56059 -0.01530 0.48299
 C228 C 0.52786 -0.01985 0.48258
 C229 C 0.51597 -0.04422 0.46056
 C230 C 0.53655 -0.06438 0.43974
 H231 H 0.61133 -0.18976 0.31908
 H232 H 0.57378 -0.15467 0.35381
 H233 H 0.65007 -0.09005 0.38157
 H234 H 0.68749 -0.12566 0.34804
 H235 H 0.56109 -0.10029 0.38405
 H236 H 0.61695 -0.08081 0.42679
 H237 H 0.60643 -0.03142 0.46310
 H238 H 0.57042 0.00382 0.49914
 H239 H 0.49070 -0.04790 0.45976
 H240 H 0.52638 -0.08354 0.42395
 C241 C 0.62632 0.33351 -0.16940
 C242 C 0.60443 0.35348 -0.15004
 C243 C 0.61461 0.37991 -0.12925
 C244 C 0.64716 0.38655 -0.12880
 C245 C 0.66902 0.36680 -0.14844
 C246 C 0.65884 0.34000 -0.16883
 C247 C 0.59070 0.40072 -0.10935
 C248 C 0.59670 0.41583 -0.07950
 C249 C 0.57271 0.43625 -0.05931
 C250 C 0.57490 0.43834 -0.02350
 C251 C 0.55290 0.45770 -0.00367
 C252 C 0.52858 0.47564 -0.01937
 C253 C 0.52666 0.47426 -0.05520
 C254 C 0.54847 0.45462 -0.07505
 H255 H 0.61779 0.31333 -0.18528
 H256 H 0.57947 0.34813 -0.15110
 H257 H 0.65578 0.40733 -0.11383
 H258 H 0.69395 0.37232 -0.14751
 H259 H 0.56699 0.40199 -0.11873
 H260 H 0.61944 0.41164 -0.06834
 H261 H 0.59356 0.42475 -0.01082
 H262 H 0.55497 0.45881 0.02395
 H263 H 0.50853 0.48843 -0.06800
 H264 H 0.54671 0.45451 -0.10270
 C265 C -0.12501 0.16400 -0.18270
 C266 C -0.10367 0.14618 -0.16274
 C267 C -0.11275 0.13493 -0.12978
 C268 C -0.14343 0.14263 -0.11662
 C269 C -0.16475 0.16086 -0.13624
 C270 C -0.15626 0.17198 -0.17003
 C271 C -0.08946 0.11615 -0.10939
 C272 C -0.09787 0.09212 -0.08661
 C273 C -0.07470 0.07267 -0.06671
 C274 C -0.08178 0.03937 -0.05673
 C275 C -0.06072 0.02041 -0.03747
 C276 C -0.03259 0.03475 -0.02718
 C277 C -0.02543 0.06807 -0.03685
 C278 C -0.04630 0.08694 -0.05651
 H279 H -0.11584 0.17290 -0.20735
 H280 H -0.07989 0.14108 -0.17319
 H281 H -0.15103 0.13485 -0.09095
 H282 H -0.18835 0.16448 -0.12492
 H283 H -0.06461 0.12090 -0.11490
 H284 H -0.12243 0.08492 -0.08380
 H285 H -0.10355 0.02789 -0.06413
 H286 H -0.06652 -0.00540 -0.03046
 H287 H -0.00377 0.07954 -0.02921
 H288 H -0.04048 0.11283 -0.06307
 C289 C -0.18333 0.64151 0.36458
 C290 C -0.16441 0.62099 0.38488
 C291 C -0.13138 0.62052 0.37973
 C292 C -0.11759 0.64042 0.35329
 C293 C -0.13653 0.66070 0.33279
 C294 C -0.16957 0.66153 0.33830
 C295 C -0.11214 0.59814 0.40145
 C296 C -0.08227 0.60499 0.40887
 C297 C -0.06285 0.58268 0.43047
 C298 C -0.03843 0.59701 0.44859
 C299 C -0.01902 0.57666 0.46849
 C300 C -0.02331 0.54151 0.46999
 C301 C -0.04770 0.52705 0.45200
 C302 C -0.06729 0.54739 0.43229
 H303 H -0.20878 0.64130 0.36906
 H304 H -0.17560 0.60559 0.40482
 H305 H -0.09227 0.63993 0.34792
 H306 H -0.12530 0.67593 0.31276
 H307 H -0.12358 0.57632 0.41299
 H308 H -0.07198 0.62862 0.40021
 H309 H -0.03446 0.62409 0.44749
 H310 H -0.00063 0.58854 0.48242
 H311 H -0.05135 0.49992 0.45290
 H312 H -0.08531 0.53531 0.41794
 C313 C 0.31801 0.13665 0.37385
 C314 C 0.33679 0.11732 0.39535
 C315 C 0.36846 0.10939 0.38580
 C316 C 0.38076 0.12071 0.35365
 C317 C 0.36199 0.14023 0.33222
 C318 C 0.33044 0.14860 0.34214
 C319 C 0.38727 0.08899 0.40998
 C320 C 0.41892 0.08516 0.40755
 C321 C 0.43752 0.06554 0.43254
 C322 C 0.47033 0.07040 0.43282
 C323 C 0.48881 0.05270 0.45595
 C324 C 0.47480 0.03009 0.47952
 C325 C 0.44226 0.02433 0.47876
 C326 C 0.42376 0.04176 0.45545
 H327 H 0.29362 0.14200 0.38201
 H328 H 0.32649 0.10865 0.41969
 H329 H 0.40469 0.11455 0.34461
 H330 H 0.37239 0.14918 0.30806
 H331 H 0.37421 0.07804 0.43160
 H332 H 0.43232 0.09811 0.38743
 H333 H 0.48171 0.08808 0.41517
 H334 H 0.51406 0.05686 0.45560
 H335 H 0.43105 0.00603 0.49574
 H336 H 0.39892 0.03593 0.45527
 C337 C 0.34580 0.61745 -0.17401
 C338 C 0.36524 0.59626 -0.15498
 C339 C 0.37510 0.60643 -0.12263
 C340 C 0.36446 0.63812 -0.10936
 C341 C 0.34514 0.65936 -0.12846
 C342 C 0.33562 0.64934 -0.16105
 C343 C 0.39567 0.58297 -0.10334
 C344 C 0.41377 0.59312 -0.07791
 C345 C 0.43465 0.57017 -0.05841
 C346 C 0.45745 0.58485 -0.03816
 C347 C 0.47728 0.56462 -0.01867
 C348 C 0.47482 0.52923 -0.01916
 C349 C 0.45193 0.51434 -0.03898
 C350 C 0.43192 0.53455 -0.05840
 H351 H 0.33840 0.60865 -0.19872
 H352 H 0.37269 0.57183 -0.16565
 H353 H 0.37052 0.64659 -0.08410
 H354 H 0.33789 0.68382 -0.11777
 H355 H 0.39680 0.55678 -0.11171
 H356 H 0.41450 0.61984 -0.07166
 H357 H 0.45989 0.61216 -0.03731
 H358 H 0.49431 0.57687 -0.00314
 H359 H 0.44932 0.48704 -0.03913
 H360 H 0.41411 0.52206 -0.07264
 C361 C -0.15006 -0.17821 0.12368
 C362 C -0.12879 -0.15924 0.10345
 C363 C -0.11625 -0.12930 0.11609
 C364 C -0.12469 -0.11914 0.14993
 C365 C -0.14586 -0.13812 0.17032
 C366 C -0.15927 -0.16800 0.15758
 C367 C -0.09402 -0.10987 0.09350
 C368 C -0.08971 -0.07640 0.09691
 C369 C -0.06862 -0.05665 0.07335
 C370 C -0.07468 -0.02175 0.06969
 C371 C -0.05557 -0.00224 0.04755
 C372 C -0.02964 -0.01709 0.02910
 C373 C -0.02342 -0.05194 0.03276
 C374 C -0.04255 -0.07154 0.05487
 H375 H -0.15816 -0.20158 0.11276
 H376 H -0.12221 -0.16800 0.07766
 H377 H -0.11486 -0.09666 0.16098
 H378 H -0.15241 -0.12826 0.19563
 H379 H -0.08248 -0.12337 0.07204
 H380 H -0.10363 -0.06229 0.11629
 H381 H -0.09463 -0.00965 0.08354
 H382 H -0.06158 0.02433 0.04433
 H383 H -0.00388 -0.06427 0.01865
 H384 H -0.03658 -0.09817 0.05764
 C385 C -0.14718 0.32729 0.61806
 C386 C -0.12653 0.34663 0.59743
 C387 C -0.11679 0.37859 0.60842
 C388 C -0.12797 0.39065 0.64092
 C389 C -0.14876 0.37136 0.66148
 C390 C -0.15861 0.33944 0.65033
 C391 C -0.09432 0.39772 0.58564
 C392 C -0.08845 0.43090 0.58922
 C393 C -0.06600 0.44981 0.56625
 C394 C -0.06827 0.48543 0.56579
 C395 C -0.04755 0.50433 0.54479
 C396 C -0.02400 0.48800 0.52405
 C397 C -0.02149 0.45251 0.52442
 C398 C -0.04206 0.43355 0.54554
 H399 H -0.15376 0.30254 0.60893
 H400 H -0.11806 0.33647 0.57274
 H401 H -0.12052 0.41463 0.65101
 H402 H -0.15726 0.38159 0.68610
 H403 H -0.08319 0.38380 0.56425
 H404 H -0.10147 0.44556 0.60882
 H405 H -0.08628 0.49869 0.58158
 H406 H -0.04997 0.53175 0.54468
 H407 H -0.00363 0.43925 0.50854
 H408 H -0.03869 0.40630 0.54577
 C409 C 0.35531 -0.18272 0.63291
 C410 C 0.37652 -0.16326 0.61310
 C411 C 0.38679 -0.13192 0.62521
 C412 C 0.37578 -0.12075 0.65809
 C413 C 0.35446 -0.14017 0.67785
 C414 C 0.34389 -0.17134 0.66548
 C415 C 0.40933 -0.11230 0.60302
 C416 C 0.41469 -0.07907 0.60713
 C417 C 0.43630 -0.05937 0.58396
 C418 C 0.43260 -0.02388 0.58316
 C419 C 0.45196 -0.00435 0.56127
 C420 C 0.47528 -0.01995 0.53965
 C421 C 0.47993 -0.05520 0.54120
 C422 C 0.46068 -0.07479 0.56319
 H423 H 0.34818 -0.20691 0.62287
 H424 H 0.38486 -0.17272 0.58809
 H425 H 0.38370 -0.09732 0.66901
 H426 H 0.34602 -0.13056 0.70275
 H427 H 0.42058 -0.12568 0.58134
 H428 H 0.40146 -0.06492 0.62698
 H429 H 0.41440 -0.01125 0.59923
 H430 H 0.44843 0.02294 0.56085
 H431 H 0.49849 -0.06772 0.52564
 H432 H 0.46534 -0.10183 0.56405
 C433 C 0.35710 0.30848 0.12833
 C434 C 0.37769 0.32819 0.10802
 C435 C 0.38581 0.36084 0.11862
 C436 C 0.37341 0.37309 0.15057
 C437 C 0.35273 0.35341 0.17083
 C438 C 0.34420 0.32094 0.15990
 C439 C 0.40782 0.38069 0.09606
 C440 C 0.41066 0.41452 0.09813
 C441 C 0.43251 0.43450 0.07548
 C442 C 0.42774 0.46983 0.07376
 C443 C 0.44800 0.48981 0.05334
 C444 C 0.47355 0.47488 0.03443
 C445 C 0.47844 0.43966 0.03587
 C446 C 0.45832 0.41963 0.05643
 H447 H 0.35153 0.28332 0.11945
 H448 H 0.38721 0.31790 0.08379
 H449 H 0.37978 0.39760 0.16037
 H450 H 0.34310 0.36384 0.19493
 H451 H 0.42099 0.36673 0.07604
 H452 H 0.39548 0.42877 0.11625
 H453 H 0.40822 0.48203 0.08824
 H454 H 0.44379 0.51699 0.05242
 H455 H 0.49792 0.42748 0.02145
 H456 H 0.46359 0.39274 0.05764
 C457 C 0.17492 0.12583 0.14216
 C458 C 0.15616 0.10758 0.12026
 C459 C 0.12564 0.11929 0.11298
 C460 C 0.11446 0.15014 0.12778
 C461 C 0.13319 0.16831 0.14983
 C462 C 0.16364 0.15638 0.15732
 C463 C 0.10683 0.09882 0.08942
 C464 C 0.07543 0.10247 0.08655
 C465 C 0.05672 0.08078 0.06407
 C466 C 0.02400 0.07855 0.07115
 C467 C 0.00555 0.05775 0.05132
 C468 C 0.01943 0.03862 0.02407
 C469 C 0.05186 0.04189 0.01592
 C470 C 0.07037 0.06278 0.03565
 H471 H 0.19848 0.11624 0.14678
 H472 H 0.16557 0.08414 0.10897
 H473 H 0.09152 0.16075 0.12225
 H474 H 0.12369 0.19165 0.16122
 H475 H 0.11942 0.07874 0.07525
 H476 H 0.06227 0.12057 0.10274
 H477 H 0.01271 0.09262 0.09243
 H478 H -0.01951 0.05655 0.05762
 H479 H 0.06302 0.02857 -0.00583
 H480 H 0.09517 0.06496 0.02820
 C481 C 0.15110 0.62686 0.68058
 C482 C 0.13049 0.60758 0.66178
 C483 C 0.12080 0.61864 0.62957
 C484 C 0.13184 0.64991 0.61680
 C485 C 0.15257 0.66914 0.63558
 C486 C 0.16250 0.65781 0.66766
 C487 C 0.09855 0.59729 0.61094
 C488 C 0.09360 0.60015 0.57722
 C489 C 0.07143 0.57861 0.55867
 C490 C 0.07449 0.57698 0.52261
 C491 C 0.05390 0.55749 0.50398
 C492 C 0.02970 0.53946 0.52102
 C493 C 0.02650 0.54086 0.55698
 C494 C 0.04695 0.56048 0.57567
 H495 H 0.15773 0.61770 0.70551
 H496 H 0.12208 0.58386 0.67249
 H497 H 0.12432 0.66002 0.59264
 H498 H 0.16101 0.69280 0.62482
 H499 H 0.08693 0.57750 0.62566
 H500 H 0.10721 0.61800 0.56186
 H501 H 0.09294 0.59077 0.50878
 H502 H 0.05682 0.55657 0.47619
 H503 H 0.00811 0.52706 0.57078
 H504 H 0.04299 0.56170 0.60327
 C505 C 0.67913 0.13049 0.64507
 C506 C 0.65894 0.10936 0.62776
 C507 C 0.62640 0.11688 0.62721
 C508 C 0.61435 0.14586 0.64491
 C509 C 0.63457 0.16702 0.66222
 C510 C 0.66719 0.15960 0.66248
 C511 C 0.60594 0.09338 0.60878
 C512 C 0.57752 0.10226 0.59729
 C513 C 0.55804 0.07881 0.57760
 C514 C 0.53640 0.09246 0.55479
 C515 C 0.51847 0.07115 0.53485
 C516 C 0.52185 0.03582 0.53750
 C517 C 0.54224 0.02208 0.56144
 C518 C 0.56025 0.04331 0.58132
 H519 H 0.70417 0.12423 0.64451
 H520 H 0.66884 0.08713 0.61451
 H521 H 0.58931 0.15198 0.64615
 H522 H 0.62456 0.18884 0.67604
 H523 H 0.61568 0.06835 0.60285
 H524 H 0.56895 0.12819 0.60021
 H525 H 0.53378 0.11970 0.55193
 H526 H 0.50219 0.08243 0.51735
 H527 H 0.54459 -0.00518 0.56440
 H528 H 0.57563 0.03182 0.59965
 C529 C 0.68103 0.63443 0.13493
 C530 C 0.66265 0.61462 0.11400
 C531 C 0.62983 0.62015 0.11344
 C532 C 0.61577 0.64652 0.13357
 C533 C 0.63419 0.66655 0.15423
 C534 C 0.66697 0.66058 0.15525
 C535 C 0.61115 0.59874 0.09089
 C536 C 0.58081 0.59132 0.09827
 C537 C 0.56216 0.56952 0.07607
 C538 C 0.53730 0.55079 0.09113
 C539 C 0.51889 0.53030 0.07092
 C540 C 0.52462 0.52881 0.03521
 C541 C 0.54930 0.54759 0.02000
 C542 C 0.56793 0.56785 0.04020
 H543 H 0.70631 0.62961 0.13488
 H544 H 0.67406 0.59472 0.09841
 H545 H 0.59066 0.65210 0.13301
 H546 H 0.62276 0.68652 0.16968
 H547 H 0.62338 0.58725 0.06863
 H548 H 0.56958 0.59993 0.12237
 H549 H 0.53231 0.55178 0.11867
 H550 H 0.50019 0.51584 0.08336
 H551 H 0.55403 0.54676 -0.00758
 H552 H 0.58634 0.58266 0.02760
   
