data_POSCAR
  _audit_creation_date              2014-09-24
  _audit_creation_method            'ToBaCCo'
  _symmetry_space_group_name_H-M    'P1'
  _symmetry_Int_Tables_number       1
  _symmetry_cell_setting            triclinic
  loop_
  _symmetry_equiv_pos_as_xyz
 x,y,z
_cell_length_a 24.5370
_cell_length_b 23.3576
_cell_length_c 24.9939
_cell_angle_alpha 88.889700
_cell_angle_beta 90.408700
_cell_angle_gamma 88.553100
loop_
  _atom_site_label
  _atom_site_type_symbol
  _atom_site_fract_x
  _atom_site_fract_y
  _atom_site_fract_z
C1 C 0.23961 0.22849 0.24636
 C2 C 0.76068 0.74840 0.25445
 C3 C 0.73379 0.26838 0.76525
 C4 C 0.26372 0.74022 0.73854
 C5 C 0.09336 0.04593 0.01122
 H6 H 0.10984 0.03036 -0.02593
 C7 C 0.12504 0.07998 0.04404
 H8 H 0.16565 0.09100 0.03142
 C9 C 0.01931 0.05406 0.07093
 H10 H -0.02253 0.04493 0.08058
 C11 C 0.05074 0.08490 0.10659
 H12 H 0.03301 0.09807 0.14408
 N13 N 0.04205 0.03210 0.02602
 C14 C 0.04412 -0.04770 -0.11871
 H15 H 0.01512 -0.01664 -0.13531
 C16 C 0.07840 -0.07801 -0.15310
 H17 H 0.07619 -0.06890 -0.19573
 C18 C 0.08304 -0.09709 -0.04351
 H19 H 0.08469 -0.10406 -0.00061
 C20 C 0.11706 -0.12951 -0.07666
 H21 H 0.14476 -0.16159 -0.05912
 Zn22 Zn 0.00049 -0.01777 -0.01667
 N23 N 0.04708 -0.05748 -0.06490
 C24 C -0.03324 0.07147 -0.08629
 N25 N -0.05265 0.02898 -0.05429
 C26 C -0.10734 0.02274 -0.04783
 C27 C -0.14468 0.05960 -0.07476
 C28 C -0.06902 0.10878 -0.11422
 C29 C -0.02175 -0.07750 0.08099
 C30 C -0.05276 -0.11134 0.11510
 C31 C -0.10249 -0.14387 0.03824
 C32 C -0.07095 -0.10860 0.00558
 N33 N -0.03366 -0.07373 0.02771
 H34 H 0.01029 0.07651 -0.08991
 H35 H -0.12231 -0.00984 -0.02093
 H36 H -0.18800 0.05480 -0.06872
 H37 H -0.05285 0.14231 -0.13962
 H38 H 0.01082 -0.05319 0.09764
 H39 H -0.04514 -0.11101 0.15784
 H40 H -0.13424 -0.16899 0.02064
 H41 H -0.07822 -0.10675 -0.03717
 C42 C 0.11433 -0.12076 -0.13233
 C43 C 0.10516 0.09666 0.09424
 C44 C -0.09533 -0.14285 0.09397
 C45 C -0.12547 0.10365 -0.10789
 C46 C 0.05281 0.58789 0.54454
 H47 H 0.02379 0.60789 0.51690
 C48 C 0.08806 0.62203 0.57319
 H49 H 0.08620 0.66813 0.56742
 C50 C 0.09045 0.50396 0.58677
 H51 H 0.09059 0.45791 0.59231
 C52 C 0.12688 0.53648 0.61579
 H53 H 0.15559 0.51542 0.64329
 N54 N 0.05513 0.52987 0.55110
 C55 C 0.01976 0.41129 0.42287
 H56 H -0.02349 0.41949 0.41766
 C57 C 0.04792 0.37847 0.38534
 H58 H 0.02616 0.36071 0.35193
 C59 C 0.10179 0.42764 0.47015
 H60 H 0.12320 0.44782 0.50215
 C61 C 0.13135 0.39487 0.43389
 H62 H 0.17509 0.38953 0.43884
 Zn63 Zn 0.00732 0.48508 0.51010
 N64 N 0.04691 0.43533 0.46420
 C65 C -0.01513 0.55629 0.42056
 N66 N -0.03632 0.53455 0.46660
 C67 C -0.08825 0.54748 0.48163
 C68 C -0.12171 0.58244 0.44892
 C69 C -0.04736 0.59120 0.38644
 C70 C -0.03774 0.45189 0.60972
 C71 C -0.07424 0.42418 0.64338
 C72 C -0.11204 0.37807 0.56628
 C73 C -0.07476 0.40653 0.53407
 N74 N -0.03865 0.44279 0.55606
 H75 H 0.02654 0.54568 0.41001
 H76 H -0.10381 0.53040 0.51884
 H77 H -0.16331 0.59192 0.46071
 H78 H -0.03078 0.60727 0.34919
 H79 H -0.00986 0.48188 0.62643
 H80 H -0.07383 0.43231 0.68589
 H81 H -0.14120 0.34997 0.54838
 H82 H -0.07570 0.40075 0.49138
 C83 C 0.10451 0.37101 0.39028
 C84 C 0.12644 0.59608 0.60825
 C85 C -0.11221 0.38747 0.62140
 C86 C -0.10154 0.60350 0.40023
 C87 C 0.60129 0.07512 0.53085
 H88 H 0.61727 0.06213 0.49262
 C89 C 0.62993 0.11393 0.56175
 H90 H 0.66739 0.13131 0.54656
 C91 C 0.53157 0.07105 0.59566
 H92 H 0.49209 0.05633 0.60791
 C93 C 0.56056 0.10620 0.62928
 H94 H 0.54391 0.11616 0.66812
 N95 N 0.55294 0.05457 0.54820
 C96 C 0.58765 -0.08748 0.48303
 H97 H 0.57841 -0.10149 0.52337
 C98 C 0.62379 -0.11977 0.45218
 H99 H 0.64258 -0.15859 0.46901
 C100 C 0.57517 -0.01937 0.41215
 H101 H 0.55687 0.02039 0.39712
 C102 C 0.60990 -0.05114 0.37945
 H103 H 0.61734 -0.03632 0.33889
 Zn104 Zn 0.51408 0.00217 0.50586
 N105 N 0.56387 -0.03857 0.46251
 C106 C 0.44590 0.02074 0.41530
 N107 N 0.46184 0.04311 0.46261
 C108 C 0.43971 0.09331 0.48009
 C109 C 0.39979 0.12296 0.44959
 C110 C 0.40742 0.04980 0.38288
 C111 C 0.49004 -0.05848 0.60252
 C112 C 0.45789 -0.09136 0.63630
 C113 C 0.40292 -0.11579 0.56004
 C114 C 0.43451 -0.07991 0.52810
 N115 N 0.47652 -0.05114 0.54991
 H116 H 0.46300 -0.01984 0.40265
 H117 H 0.45247 0.11005 0.51805
 H118 H 0.38187 0.16237 0.46439
 H119 H 0.39600 0.03200 0.34483
 H120 H 0.52527 -0.03808 0.61884
 H121 H 0.46717 -0.09308 0.67872
 H122 H 0.36947 -0.13820 0.54213
 H123 H 0.42492 -0.07433 0.48603
 C124 C 0.63524 -0.10161 0.39971
 C125 C 0.60931 0.13032 0.61166
 C126 C 0.41413 -0.12141 0.61510
 C127 C 0.38286 0.10086 0.40054
 C128 C 0.57259 0.57959 0.04305
 H129 H 0.58182 0.56764 0.00250
 C130 C 0.60767 0.61525 0.06986
 H131 H 0.64368 0.63044 0.04980
 C132 C 0.51396 0.57598 0.11777
 H133 H 0.47591 0.56333 0.13524
 C134 C 0.54963 0.60929 0.14722
 H135 H 0.54009 0.61961 0.18821
 N136 N 0.52790 0.55864 0.06788
 C137 C 0.52957 0.46587 -0.07162
 H138 H 0.49389 0.48665 -0.08952
 C139 C 0.56571 0.43509 -0.10362
 H140 H 0.55781 0.43220 -0.14617
 C141 C 0.58224 0.44118 0.00586
 H142 H 0.58782 0.44341 0.04874
 C143 C 0.61968 0.41032 -0.02475
 H144 H 0.65412 0.38823 -0.00557
 Zn145 Zn 0.48813 0.50599 0.02676
 N146 N 0.53825 0.46797 -0.01790
 C147 C 0.45729 0.59053 -0.04750
 N148 N 0.43679 0.54820 -0.01610
 C149 C 0.38293 0.53543 -0.01816
 C150 C 0.34839 0.56284 -0.05598
 C151 C 0.42426 0.61927 -0.08520
 C152 C 0.45343 0.44161 0.12072
 C153 C 0.42208 0.39997 0.14585
 C154 C 0.39725 0.36498 0.05897
 C155 C 0.42810 0.40798 0.03552
 N156 N 0.45342 0.44690 0.06637
 H157 H 0.50000 0.60025 -0.04495
 H158 H 0.36702 0.50267 0.00804
 H159 H 0.30627 0.55053 -0.05933
 H160 H 0.44165 0.65132 -0.11144
 H161 H 0.47683 0.46979 0.14489
 H162 H 0.41974 0.39819 0.18911
 H163 H 0.37515 0.33602 0.03393
 H164 H 0.43031 0.41171 -0.00761
 C165 C 0.61079 0.40639 -0.07993
 C166 C 0.59841 0.62701 0.12381
 C167 C 0.39201 0.36260 0.11468
 C168 C 0.36979 0.60380 -0.09112
 C169 C 0.16608 -0.20884 -0.25125
 C170 C 0.22274 -0.21915 -0.23595
 C171 C 0.24139 -0.18582 -0.19277
 C172 C 0.20600 -0.15526 -0.16002
 C173 C 0.14976 -0.15524 -0.16854
 C174 C 0.12922 -0.18331 -0.21390
 C175 C 0.14459 -0.21926 -0.30291
 C176 C 0.08865 -0.21772 -0.31299
 C177 C 0.05257 -0.20324 -0.27269
 C178 C 0.07250 -0.18536 -0.22372
 H179 H 0.17004 -0.22707 -0.33686
 H180 H 0.07329 -0.22793 -0.35229
 H181 H 0.00907 -0.20343 -0.28015
 H182 H 0.04308 -0.17246 -0.19400
 H183 H 0.28408 -0.18605 -0.18203
 H184 H 0.22287 -0.13195 -0.12697
 C185 C 0.21736 0.33181 0.29176
 C186 C 0.20547 0.27213 0.28171
 C187 C 0.16176 0.24911 0.31109
 C188 C 0.12839 0.28179 0.34383
 C189 C 0.13649 0.33997 0.34938
 C190 C 0.17925 0.36606 0.32130
 C191 C 0.26610 0.35923 0.27638
 C192 C 0.27220 0.41811 0.28070
 C193 C 0.23120 0.45169 0.30268
 C194 C 0.18548 0.42599 0.32366
 H195 H 0.30160 0.33719 0.26229
 H196 H 0.30929 0.43770 0.26710
 H197 H 0.23575 0.49753 0.30535
 H198 H 0.15517 0.45347 0.34217
 H199 H 0.15250 0.20458 0.30902
 H200 H 0.09641 0.26098 0.36602
 C201 C 0.75147 -0.14996 0.30625
 C202 C 0.73374 -0.20739 0.29442
 C203 C 0.69121 -0.22842 0.32650
 C204 C 0.66049 -0.19393 0.35976
 C205 C 0.67211 -0.13648 0.36562
 C206 C 0.71891 -0.11438 0.34062
 C207 C 0.80122 -0.12676 0.28804
 C208 C 0.81569 -0.07086 0.29874
 C209 C 0.78274 -0.03654 0.33009
 C210 C 0.73553 -0.05826 0.35184
 H211 H 0.83195 -0.15052 0.26752
 H212 H 0.85368 -0.05457 0.28367
 H213 H 0.79479 0.00650 0.33915
 H214 H 0.71323 -0.03091 0.37883
 H215 H 0.67914 -0.27212 0.32425
 H216 H 0.62623 -0.21234 0.38044
 C217 C 0.66793 0.27553 -0.15176
 C218 C 0.70241 0.30292 -0.19094
 C219 C 0.70841 0.36281 -0.18682
 C220 C 0.68005 0.39495 -0.14960
 C221 C 0.64581 0.36905 -0.11284
 C222 C 0.64077 0.30897 -0.11222
 C223 C 0.65540 0.21674 -0.15375
 C224 C 0.62200 0.19099 -0.11597
 C225 C 0.59820 0.22332 -0.07611
 C226 C 0.60656 0.28188 -0.07465
 H227 H 0.66832 0.19008 -0.18574
 H228 H 0.61356 0.14584 -0.11844
 H229 H 0.57182 0.20327 -0.04713
 H230 H 0.58534 0.30562 -0.04413
 H231 H 0.73505 0.38645 -0.21264
 H232 H 0.68438 0.44102 -0.14994
 C233 C -0.18993 0.24522 -0.16008
 C234 C -0.22898 0.22527 -0.19896
 C235 C -0.23335 0.16492 -0.20242
 C236 C -0.20100 0.12664 -0.17189
 C237 C -0.16362 0.14590 -0.13459
 C238 C -0.16013 0.20527 -0.12623
 C239 C -0.17782 0.30386 -0.15476
 C240 C -0.14359 0.32278 -0.11445
 C241 C -0.11918 0.28387 -0.07866
 C242 C -0.12685 0.22563 -0.08461
 H243 H -0.19231 0.33616 -0.18249
 H244 H -0.13578 0.36800 -0.11120
 H245 H -0.09317 0.29876 -0.04693
 H246 H -0.10655 0.19672 -0.05613
 H247 H -0.26252 0.14541 -0.22823
 H248 H -0.20487 0.08110 -0.17798
 C249 C -0.22292 0.64812 0.31053
 C250 C -0.20792 0.70594 0.29497
 C251 C -0.16253 0.72807 0.32213
 C252 C -0.12824 0.69434 0.35468
 C253 C -0.13798 0.63657 0.36311
 C254 C -0.18479 0.61256 0.34039
 C255 C -0.27441 0.62399 0.29981
 C256 C -0.28406 0.56619 0.30941
 C257 C -0.24374 0.53068 0.33190
 C258 C -0.19477 0.55358 0.34799
 H259 H -0.30906 0.64805 0.28493
 H260 H -0.32328 0.54890 0.29931
 H261 H -0.25110 0.48561 0.33858
 H262 H -0.16502 0.52467 0.36690
 H263 H -0.15171 0.77209 0.31680
 H264 H -0.09352 0.71369 0.37357
 C265 C 0.25701 0.13390 0.31076
 C266 C 0.27026 0.19106 0.29154
 C267 C 0.31176 0.21840 0.32021
 C268 C 0.34687 0.18910 0.35538
 C269 C 0.34028 0.13131 0.36727
 C270 C 0.29342 0.10412 0.34775
 C271 C 0.20838 0.10550 0.29709
 C272 C 0.19798 0.05020 0.31539
 C273 C 0.23416 0.02172 0.34987
 C274 C 0.28080 0.04860 0.36680
 H275 H 0.17583 0.12451 0.27391
 H276 H 0.16070 0.02982 0.30366
 H277 H 0.22524 -0.02079 0.36487
 H278 H 0.30586 0.02586 0.39635
 H279 H 0.32012 0.26275 0.31286
 H280 H 0.38082 0.21169 0.37219
 C281 C 0.33110 0.65585 -0.23212
 C282 C 0.28813 0.69781 -0.22059
 C283 C 0.26578 0.69299 -0.16804
 C284 C 0.29115 0.66106 -0.12707
 C285 C 0.33754 0.62790 -0.13686
 C286 C 0.35490 0.62097 -0.19000
 C287 C 0.35322 0.64894 -0.28359
 C288 C 0.39438 0.60871 -0.29417
 C289 C 0.41541 0.57366 -0.25338
 C290 C 0.39605 0.57961 -0.20170
 H291 H 0.34046 0.67507 -0.31616
 H292 H 0.41008 0.60488 -0.33435
 H293 H 0.44706 0.54202 -0.26170
 H294 H 0.41320 0.55098 -0.17109
 H295 H 0.22829 0.71461 -0.15691
 H296 H 0.27507 0.66355 -0.08689
 C297 C -0.22375 -0.17607 0.17498
 C298 C -0.20291 -0.22107 0.21090
 C299 C -0.14718 -0.23734 0.20478
 C300 C -0.11422 -0.21299 0.16607
 C301 C -0.13428 -0.17065 0.13084
 C302 C -0.18918 -0.15144 0.13509
 C303 C -0.27706 -0.15201 0.17931
 C304 C -0.29643 -0.10815 0.14524
 C305 C -0.26291 -0.08530 0.10649
 C306 C -0.20965 -0.10592 0.10184
 H307 H -0.30424 -0.16382 0.21028
 H308 H -0.33744 -0.09084 0.14988
 H309 H -0.27784 -0.05051 0.08067
 H310 H -0.18471 -0.08482 0.07243
 H311 H -0.12706 -0.26938 0.22988
 H312 H -0.07189 -0.22716 0.16394
 C313 C -0.24586 0.35122 0.69155
 C314 C -0.22771 0.30461 0.72685
 C315 C -0.17250 0.28570 0.72054
 C316 C -0.13623 0.31360 0.68748
 C317 C -0.15306 0.36023 0.65595
 C318 C -0.20808 0.37906 0.65681
 C319 C -0.30039 0.37158 0.68956
 C320 C -0.31751 0.41681 0.65586
 C321 C -0.28045 0.44382 0.62299
 C322 C -0.22613 0.42552 0.62354
 H323 H -0.33013 0.35477 0.71531
 H324 H -0.35973 0.43145 0.65589
 H325 H -0.29375 0.47929 0.59718
 H326 H -0.19852 0.44812 0.59757
 H327 H -0.15570 0.24778 0.74037
 H328 H -0.09443 0.29760 0.68561
 C329 C 0.36215 -0.21775 0.72929
 C330 C 0.30481 -0.21988 0.71562
 C331 C 0.28612 -0.17706 0.67807
 C332 C 0.32196 -0.14560 0.64696
 C333 C 0.37830 -0.15572 0.65065
 C334 C 0.39881 -0.19336 0.69161
 C335 C 0.38490 -0.23552 0.77940
 C336 C 0.44104 -0.24364 0.78613
 C337 C 0.47587 -0.23185 0.74403
 C338 C 0.45516 -0.20621 0.69718
 H339 H 0.36035 -0.24304 0.81421
 H340 H 0.45743 -0.25975 0.82398
 H341 H 0.51929 -0.24004 0.74859
 H342 H 0.48371 -0.19558 0.66600
 H343 H 0.24325 -0.17039 0.66964
 H344 H 0.30520 -0.11461 0.61811
 C345 C 0.25757 0.30516 0.16821
 C346 C 0.27772 0.26106 0.20558
 C347 C 0.33483 0.24940 0.20514
 C348 C 0.37044 0.28103 0.17418
 C349 C 0.35152 0.32521 0.14044
 C350 C 0.29486 0.33670 0.13582
 C351 C 0.20194 0.32264 0.16498
 C352 C 0.18322 0.36600 0.13003
 C353 C 0.21950 0.39516 0.09814
 C354 C 0.27479 0.38153 0.10152
 H355 H 0.17193 0.30627 0.19101
 H356 H 0.14032 0.37806 0.12880
 H357 H 0.20492 0.42952 0.07165
 H358 H 0.30139 0.40731 0.07735
 H359 H 0.35432 0.21731 0.23061
 H360 H 0.41385 0.27182 0.17777
 C361 C 0.22864 0.14145 0.17962
 C362 C 0.20552 0.19027 0.20723
 C363 C 0.14937 0.20248 0.19762
 C364 C 0.11884 0.17301 0.16066
 C365 C 0.14066 0.12615 0.13366
 C366 C 0.19502 0.10789 0.14566
 C367 C 0.28335 0.12213 0.18746
 C368 C 0.30363 0.07180 0.16531
 C369 C 0.26979 0.03790 0.13568
 C370 C 0.21592 0.05511 0.12656
 H371 H 0.31116 0.14307 0.21273
 H372 H 0.34549 0.05801 0.17288
 H373 H 0.28513 -0.00235 0.12028
 H374 H 0.19068 0.02553 0.10566
 H375 H 0.12727 0.23590 0.21785
 H376 H 0.07705 0.18726 0.15332
 C377 C 0.24402 0.69656 0.64093
 C378 C 0.23632 0.70199 0.69894
 C379 C 0.19580 0.66644 0.72192
 C380 C 0.16233 0.63238 0.69230
 C381 C 0.16598 0.63124 0.63716
 C382 C 0.20687 0.66243 0.61086
 C383 C 0.28682 0.72143 0.61076
 C384 C 0.29027 0.71748 0.55540
 C385 C 0.25278 0.68654 0.52736
 C386 C 0.21223 0.65830 0.55468
 H387 H 0.32133 0.74115 0.62786
 H388 H 0.32344 0.73739 0.53427
 H389 H 0.25619 0.68284 0.48440
 H390 H 0.18571 0.63233 0.53107
 H391 H 0.18732 0.66720 0.76430
 H392 H 0.13148 0.60804 0.71284
 C393 C 0.63547 0.24700 0.71509
 C394 C 0.69418 0.23786 0.72441
 C395 C 0.72138 0.20104 0.68829
 C396 C 0.69407 0.16732 0.65230
 C397 C 0.63783 0.17247 0.64567
 C398 C 0.60922 0.21607 0.67325
 C399 C 0.60112 0.28671 0.74274
 C400 C 0.54656 0.29677 0.72919
 C401 C 0.52377 0.26976 0.68623
 C402 C 0.55489 0.23078 0.65786
 H403 H 0.61408 0.31502 0.77262
 H404 H 0.52241 0.32798 0.75086
 H405 H 0.48203 0.27966 0.67432
 H406 H 0.53600 0.21301 0.62290
 H407 H 0.76523 0.19505 0.69032
 H408 H 0.71743 0.13588 0.63016
 C409 C 0.73575 0.66606 0.18678
 C410 C 0.71954 0.71535 0.21788
 C411 C 0.66364 0.73236 0.21494
 C412 C 0.62589 0.70383 0.18437
 C413 C 0.64083 0.65545 0.15586
 C414 C 0.69561 0.63494 0.15825
 C415 C 0.78994 0.64358 0.18649
 C416 C 0.80408 0.59319 0.16063
 C417 C 0.76450 0.56220 0.13538
 C418 C 0.71076 0.58215 0.13483
 H419 H 0.82217 0.66177 0.20837
 H420 H 0.84584 0.57707 0.16189
 H421 H 0.77529 0.52198 0.11690
 H422 H 0.68124 0.55471 0.11694
 H423 H 0.64704 0.76801 0.23660
 H424 H 0.58402 0.71978 0.18324
   
