data_POSCAR
  _audit_creation_date              2014-09-24
  _audit_creation_method            'ToBaCCo'
  _symmetry_space_group_name_H-M    'P1'
  _symmetry_Int_Tables_number       1
  _symmetry_cell_setting            triclinic
  loop_
  _symmetry_equiv_pos_as_xyz
 x,y,z
_cell_length_a 34.0967
_cell_length_b 33.6774
_cell_length_c 58.9716
_cell_angle_alpha 91.771600
_cell_angle_beta 91.770300
_cell_angle_gamma 101.595700
loop_
  _atom_site_label
  _atom_site_type_symbol
  _atom_site_fract_x
  _atom_site_fract_y
  _atom_site_fract_z
C1 C -0.01055 0.37446 0.98673
 C2 C -0.01269 0.37484 1.00989
 C3 C -0.00324 0.41522 1.01742
 N4 N 0.00378 0.43951 0.99954
 C5 C -0.00081 0.41460 0.98077
 C6 C 0.00055 0.42911 1.04048
 C7 C 0.00228 0.47044 1.04683
 C8 C 0.01882 0.48889 1.06724
 C9 C 0.01398 0.52837 1.06716
 C10 C -0.00577 0.53308 1.04679
 N11 N -0.01230 0.49769 1.03431
 C12 C -0.01774 0.56931 1.04030
 C13 C -0.02551 0.57631 1.01716
 C14 C -0.04621 0.60503 1.00933
 C15 C -0.04351 0.60473 0.98619
 C16 C -0.02200 0.57530 0.98062
 N17 N -0.01114 0.55780 0.99952
 C18 C -0.01019 0.56701 0.95856
 C19 C 0.00322 0.53116 0.95269
 C20 C 0.02131 0.52409 0.93264
 C21 C 0.02575 0.48439 0.93251
 C22 C 0.01082 0.46854 0.95267
 N23 N -0.00292 0.49721 0.96482
 C24 C 0.00655 0.42763 0.95849
 H25 H -0.01553 0.34761 0.97562
 H26 H -0.02026 0.34830 1.01999
 H27 H -0.02005 0.49236 0.97915
 H28 H 0.03353 0.47547 1.08066
 H29 H 0.02444 0.55114 1.08052
 H30 H -0.06144 0.62442 1.01927
 H31 H -0.05599 0.62389 0.97476
 H32 H 0.03793 0.46891 0.91891
 H33 H -0.02900 0.49145 1.01906
 H34 H 0.02962 0.54501 0.91922
 C35 C 0.60979 -0.03591 0.48713
 C36 C 0.61091 -0.03815 0.51029
 C37 C 0.58096 -0.01944 0.51818
 N38 N 0.56125 -0.00635 0.50057
 C39 C 0.57903 -0.01623 0.48159
 C40 C 0.57340 -0.01298 0.54137
 C41 C 0.53631 -0.00420 0.54812
 C42 C 0.52958 0.01241 0.56916
 C43 C 0.48970 0.01423 0.56924
 C44 C 0.47327 -0.00040 0.54811
 N45 N 0.50178 -0.01158 0.53530
 C46 C 0.43240 -0.00469 0.54161
 C47 C 0.41829 -0.00777 0.51876
 C48 C 0.37828 -0.01505 0.51168
 C49 C 0.37747 -0.01195 0.48855
 C50 C 0.41704 -0.00325 0.48224
 N51 N 0.44192 -0.00041 0.50078
 C52 C 0.42968 0.00523 0.45999
 C53 C 0.47022 0.01097 0.45400
 C54 C 0.48521 0.02732 0.43396
 C55 C 0.52501 0.02496 0.43398
 C56 C 0.53311 0.00659 0.45382
 N57 N 0.49961 -0.00172 0.46595
 C58 C 0.56969 -0.00503 0.45949
 H59 H 0.62937 -0.04751 0.47567
 H60 H 0.63139 -0.05204 0.52019
 H61 H 0.49587 -0.01950 0.48013
 H62 H 0.55113 0.02246 0.58304
 H63 H 0.47461 0.02554 0.58319
 H64 H 0.35235 -0.02116 0.52213
 H65 H 0.35074 -0.01503 0.47773
 H66 H 0.54540 0.03499 0.42065
 H67 H 0.49698 -0.02713 0.51961
 H68 H 0.46921 0.03929 0.42053
 C69 C 0.07499 0.02131 0.26180
 H70 H 0.07777 0.02214 0.24365
 C71 C 0.10950 0.02500 0.27575
 H72 H 0.13828 0.02868 0.26797
 C73 C 0.03468 0.01824 0.29386
 H74 H 0.00577 0.01652 0.30106
 C75 C 0.06827 0.02103 0.30841
 H76 H 0.06405 0.01988 0.32651
 N77 N 0.03830 0.01740 0.27093
 C78 C -0.04347 -0.06928 0.23345
 H79 H -0.06642 -0.06864 0.24556
 C80 C -0.04647 -0.10322 0.21875
 H81 H -0.07178 -0.12821 0.21981
 C82 C 0.01575 -0.03676 0.21633
 H83 H 0.03918 -0.01029 0.21485
 C84 C 0.01404 -0.07007 0.20141
 H85 H 0.03721 -0.06925 0.18919
 Zn86 Zn -0.00856 0.01033 0.25128
 N87 N -0.01242 -0.03702 0.23219
 C88 C -0.03345 0.05208 0.21513
 N89 N -0.00509 0.05492 0.23213
 C90 C 0.02507 0.08809 0.23492
 C91 C 0.02768 0.12001 0.22008
 C92 C -0.03240 0.08355 0.20017
 C93 C -0.06305 -0.02379 0.28418
 C94 C -0.09568 -0.02630 0.29818
 C95 C -0.11309 0.03100 0.27963
 C96 C -0.07953 0.03305 0.26640
 N97 N -0.05516 0.00596 0.26889
 H98 H -0.05712 0.02533 0.21331
 H99 H 0.04728 0.08984 0.24857
 H100 H 0.05255 0.14559 0.22230
 H101 H -0.05596 0.08088 0.18716
 H102 H -0.04323 -0.04499 0.28592
 H103 H -0.10001 -0.04917 0.31085
 H104 H -0.13228 0.05250 0.27689
 H105 H -0.07293 0.05660 0.25427
 C106 C -0.01745 -0.10392 0.20243
 C107 C 0.10644 0.02420 0.29945
 C108 C -0.12130 0.00145 0.29612
 C109 C -0.00134 0.11809 0.20237
 C110 C 0.02161 0.07207 0.75798
 H111 H 0.02367 0.07461 0.73980
 C112 C 0.02406 0.10690 0.77191
 H113 H 0.02891 0.13619 0.76424
 C114 C 0.01313 0.03065 0.78990
 H115 H 0.00804 0.00085 0.79686
 C116 C 0.01474 0.06451 0.80438
 H117 H 0.01062 0.06003 0.82231
 N118 N 0.01701 0.03496 0.76719
 C119 C 0.06215 -0.04271 0.71783
 H120 H 0.03807 -0.06911 0.71771
 C121 C 0.09505 -0.04283 0.70434
 H122 H 0.09591 -0.06935 0.69366
 C123 C 0.08980 0.02417 0.73169
 H124 H 0.08806 0.04998 0.74263
 C125 C 0.12314 0.02546 0.71834
 H126 H 0.14667 0.05243 0.71909
 Zn127 Zn 0.01307 -0.01183 0.74787
 N128 N 0.05973 -0.00927 0.73083
 C129 C -0.02885 -0.01595 0.70528
 N130 N -0.03247 -0.01489 0.72819
 C131 C -0.06824 -0.01385 0.73753
 C132 C -0.10233 -0.01431 0.72368
 C133 C -0.06214 -0.01654 0.69082
 C134 C 0.04076 -0.06131 0.77874
 C135 C 0.03935 -0.09347 0.79321
 C136 C -0.02912 -0.11950 0.78014
 C137 C -0.02631 -0.08686 0.76577
 N138 N 0.00806 -0.05821 0.76567
 H139 H -0.00010 -0.01591 0.69812
 H140 H -0.07013 -0.01219 0.75581
 H141 H -0.13038 -0.01280 0.73145
 H142 H -0.05864 -0.01787 0.67264
 H143 H 0.06785 -0.03832 0.77810
 H144 H 0.06580 -0.09528 0.80344
 H145 H -0.05714 -0.14128 0.78053
 H146 H -0.05179 -0.08416 0.75503
 C147 C 0.12586 -0.00822 0.70429
 C148 C 0.02065 0.10344 0.79551
 C149 C 0.00386 -0.12282 0.79433
 C150 C -0.09950 -0.01552 0.69996
 C151 C -0.02432 -0.33819 0.09009
 C152 C -0.00657 -0.32842 0.06931
 C153 C -0.00412 -0.35879 0.05311
 C154 C -0.01983 -0.39993 0.05706
 C155 C -0.03732 -0.40957 0.07809
 C156 C -0.03938 -0.37908 0.09442
 C157 C -0.02679 -0.30555 0.10711
 C158 C -0.01619 -0.30906 0.13006
 C159 C -0.01624 -0.27707 0.14577
 C160 C -0.02719 -0.24104 0.13887
 C161 C -0.03894 -0.23818 0.11601
 C162 C -0.03856 -0.26997 0.10031
 C163 C -0.02526 -0.20608 0.15521
 C164 C -0.01194 -0.16620 0.14829
 C165 C -0.00972 -0.13322 0.16354
 C166 C -0.02041 -0.13920 0.18620
 C167 C -0.03379 -0.17907 0.19315
 C168 C -0.03623 -0.21212 0.17783
 H169 H 0.00611 -0.29721 0.06574
 H170 H 0.01100 -0.35004 0.03760
 H171 H -0.05041 -0.44068 0.08170
 H172 H -0.05350 -0.38739 0.11027
 H173 H -0.00666 -0.33604 0.13570
 H174 H -0.00656 -0.28011 0.16317
 H175 H -0.04846 -0.21129 0.11021
 H176 H -0.04754 -0.26677 0.08279
 H177 H -0.00269 -0.16041 0.13111
 H178 H 0.00012 -0.10295 0.15748
 H179 H -0.04190 -0.18479 0.21053
 H180 H -0.04700 -0.24240 0.18367
 C181 C 0.00808 0.34316 0.09099
 C182 C 0.03276 0.34598 0.07219
 C183 C 0.03055 0.37439 0.05569
 C184 C 0.00403 0.40131 0.05766
 C185 C -0.01935 0.39971 0.07701
 C186 C -0.01772 0.37072 0.09329
 C187 C 0.00843 0.31089 0.10772
 C188 C 0.00168 0.31776 0.13079
 C189 C 0.00055 0.28687 0.14622
 C190 C 0.00675 0.24843 0.13907
 C191 C 0.01430 0.24186 0.11609
 C192 C 0.01475 0.27248 0.10061
 C193 C 0.00482 0.21514 0.15537
 C194 C -0.01048 0.17459 0.14824
 C195 C -0.01208 0.14327 0.16337
 C196 C 0.00087 0.15161 0.18622
 C197 C 0.01589 0.19219 0.19341
 C198 C 0.01811 0.22349 0.17816
 H199 H 0.05396 0.32627 0.07018
 H200 H 0.05011 0.37573 0.04148
 H201 H -0.04032 0.41973 0.07902
 H202 H -0.03764 0.36919 0.10731
 H203 H -0.00269 0.34707 0.13702
 H204 H -0.00585 0.29302 0.16370
 H205 H 0.01998 0.21299 0.10997
 H206 H 0.01939 0.26567 0.08296
 H207 H -0.02168 0.16690 0.13096
 H208 H -0.02319 0.11244 0.15703
 H209 H 0.02562 0.19997 0.21092
 H210 H 0.03060 0.25421 0.18425
 C211 C 0.34658 -0.00405 0.59348
 C212 C 0.36653 -0.03655 0.59103
 C213 C 0.39475 -0.03647 0.57434
 C214 C 0.40322 -0.00408 0.55970
 C215 C 0.38373 0.02862 0.56222
 C216 C 0.35569 0.02869 0.57900
 C217 C 0.31579 -0.00466 0.61076
 C218 C 0.31433 0.03040 0.62398
 C219 C 0.28475 0.02996 0.63992
 C220 C 0.25580 -0.00547 0.64288
 C221 C 0.25748 -0.04058 0.62971
 C222 C 0.28720 -0.04020 0.61388
 C223 C 0.22349 -0.00566 0.65929
 C224 C 0.20979 -0.03997 0.67205
 C225 C 0.17839 -0.04068 0.68681
 C226 C 0.16016 -0.00700 0.68927
 C227 C 0.17424 0.02755 0.67682
 C228 C 0.20545 0.02817 0.66195
 H229 H 0.36043 -0.06193 0.60212
 H230 H 0.40973 -0.06183 0.57265
 H231 H 0.39009 0.05390 0.55107
 H232 H 0.34052 0.05394 0.58037
 H233 H 0.33633 0.05806 0.62214
 H234 H 0.28475 0.05732 0.65005
 H235 H 0.23525 -0.06816 0.63124
 H236 H 0.28725 -0.06749 0.60369
 H237 H 0.22349 -0.06626 0.67073
 H238 H 0.16852 -0.06750 0.69644
 H239 H 0.16036 0.05373 0.67814
 H240 H 0.21477 0.05482 0.65211
 C241 C -0.33399 -0.01382 0.59126
 C242 C -0.32574 0.00661 0.57102
 C243 C -0.35612 0.00663 0.55462
 C244 C -0.39575 -0.01366 0.55802
 C245 C -0.40386 -0.03422 0.57835
 C246 C -0.37332 -0.03442 0.59472
 C247 C -0.30145 -0.01359 0.60859
 C248 C -0.29773 -0.04926 0.61946
 C249 C -0.26585 -0.04929 0.63496
 C250 C -0.23712 -0.01361 0.63998
 C251 C -0.24148 0.02225 0.62948
 C252 C -0.27321 0.02223 0.61394
 C253 C -0.20211 -0.01391 0.65558
 C254 C -0.16400 0.00819 0.65064
 C255 C -0.13088 0.00776 0.66508
 C256 C -0.13497 -0.01490 0.68479
 C257 C -0.17310 -0.03692 0.68980
 C258 C -0.20631 -0.03645 0.67534
 H259 H -0.29563 0.02240 0.56779
 H260 H -0.34873 0.02350 0.53946
 H261 H -0.43375 -0.05086 0.58141
 H262 H -0.38055 -0.05032 0.61020
 H263 H -0.31883 -0.07741 0.61548
 H264 H -0.26308 -0.07752 0.64254
 H265 H -0.22036 0.05043 0.63333
 H266 H -0.27575 0.05035 0.60614
 H267 H -0.15962 0.02544 0.63541
 H268 H -0.10206 0.02550 0.66088
 H269 H -0.17719 -0.05495 0.70475
 H270 H -0.23533 -0.05349 0.67973
 C271 C -0.00891 -0.34322 0.90794
 C272 C -0.03240 -0.38246 0.90429
 C273 C -0.03321 -0.41155 0.92078
 C274 C -0.01041 -0.40201 0.94116
 C275 C 0.01276 -0.36283 0.94493
 C276 C 0.01341 -0.33370 0.92854
 C277 C -0.00734 -0.31230 0.89036
 C278 C 0.02888 -0.28548 0.88644
 C279 C 0.03031 -0.25549 0.87050
 C280 C -0.00437 -0.25175 0.85797
 C281 C -0.04045 -0.27903 0.86149
 C282 C -0.04195 -0.30893 0.87757
 C283 C -0.00288 -0.21889 0.84165
 C284 C -0.02222 -0.22655 0.82012
 C285 C -0.02010 -0.19547 0.80471
 C286 C 0.00121 -0.15605 0.81060
 C287 C 0.02006 -0.14842 0.83229
 C288 C 0.01815 -0.17948 0.84758
 H289 H -0.04961 -0.39089 0.88852
 H290 H -0.05135 -0.44164 0.91761
 H291 H 0.03050 -0.35489 0.96057
 H292 H 0.03122 -0.30359 0.93209
 H293 H 0.05628 -0.28781 0.89562
 H294 H 0.05868 -0.23534 0.86784
 H295 H -0.06772 -0.27656 0.85222
 H296 H -0.07042 -0.32879 0.88036
 H297 H -0.03833 -0.25676 0.81504
 H298 H -0.03455 -0.20249 0.78806
 H299 H 0.03591 -0.11824 0.83759
 H300 H 0.03271 -0.17254 0.86422
 C301 C 0.01559 0.33771 0.90649
 C302 C -0.02198 0.34178 0.91446
 C303 C -0.02484 0.37137 0.93110
 C304 C 0.00978 0.39700 0.94042
 C305 C 0.04733 0.39313 0.93269
 C306 C 0.05021 0.36402 0.91573
 C307 C 0.01859 0.30568 0.88899
 C308 C 0.05116 0.28584 0.88954
 C309 C 0.05329 0.25486 0.87359
 C310 C 0.02258 0.24235 0.85687
 C311 C -0.00975 0.26252 0.85616
 C312 C -0.01155 0.29396 0.87187
 C313 C 0.02360 0.20763 0.84075
 C314 C 0.00773 0.20677 0.81838
 C315 C 0.00699 0.17323 0.80367
 C316 C 0.02261 0.13988 0.81082
 C317 C 0.03942 0.14125 0.83299
 C318 C 0.03957 0.17445 0.84779
 H319 H -0.04923 0.32162 0.90817
 H320 H -0.05403 0.37393 0.93700
 H321 H 0.07433 0.41283 0.93971
 H322 H 0.07957 0.36238 0.90978
 H323 H 0.07473 0.29358 0.90259
 H324 H 0.07905 0.24063 0.87446
 H325 H -0.03425 0.25350 0.84376
 H326 H -0.03671 0.30899 0.87059
 H327 H -0.00422 0.23201 0.81219
 H328 H -0.00659 0.17319 0.78684
 H329 H 0.05246 0.11658 0.83901
 H330 H 0.05154 0.17361 0.86495
 C331 C -0.34160 -0.00302 0.40854
 C332 C -0.38116 -0.02470 0.40439
 C333 C -0.40982 -0.02571 0.42093
 C334 C -0.39989 -0.00430 0.44180
 C335 C -0.36067 0.01775 0.44591
 C336 C -0.33176 0.01796 0.42964
 C337 C -0.31067 -0.00230 0.39110
 C338 C -0.27961 0.03187 0.38943
 C339 C -0.24983 0.03214 0.37368
 C340 C -0.25071 -0.00133 0.35865
 C341 C -0.28224 -0.03520 0.35998
 C342 C -0.31153 -0.03585 0.37612
 C343 C -0.21860 -0.00097 0.34195
 C344 C -0.20617 -0.03694 0.33546
 C345 C -0.17542 -0.03634 0.32025
 C346 C -0.15552 0.00036 0.31146
 C347 C -0.16808 0.03628 0.31790
 C348 C -0.19946 0.03553 0.33266
 H349 H -0.39024 -0.04062 0.38827
 H350 H -0.43988 -0.04305 0.41742
 H351 H -0.35232 0.03456 0.46187
 H352 H -0.30155 0.03421 0.43381
 H353 H -0.27819 0.05869 0.40026
 H354 H -0.22579 0.05855 0.37359
 H355 H -0.28451 -0.06132 0.34849
 H356 H -0.33452 -0.06301 0.37701
 H357 H -0.21963 -0.06563 0.34242
 H358 H -0.16732 -0.06481 0.31544
 H359 H -0.15327 0.06533 0.31192
 H360 H -0.20859 0.06379 0.33676
 C361 C 0.33908 0.01551 0.40921
 C362 C 0.34306 -0.02266 0.41700
 C363 C 0.37295 -0.02592 0.43316
 C364 C 0.39898 0.00890 0.44222
 C365 C 0.39510 0.04705 0.43472
 C366 C 0.36576 0.05033 0.41819
 C367 C 0.30689 0.01892 0.39209
 C368 C 0.28815 0.05252 0.39271
 C369 C 0.25730 0.05518 0.37701
 C370 C 0.24376 0.02396 0.36050
 C371 C 0.26268 -0.00951 0.35981
 C372 C 0.29403 -0.01179 0.37522
 C373 C 0.20949 0.02573 0.34447
 C374 C 0.20762 0.00853 0.32232
 C375 C 0.17447 0.00827 0.30773
 C376 C 0.14254 0.02592 0.31470
 C377 C 0.14498 0.04420 0.33662
 C378 C 0.17776 0.04375 0.35136
 H379 H 0.32264 -0.05009 0.41096
 H380 H 0.37539 -0.05558 0.43894
 H381 H 0.41499 0.07424 0.44160
 H382 H 0.36422 0.08015 0.41237
 H383 H 0.29671 0.07657 0.40559
 H384 H 0.24409 0.08181 0.37787
 H385 H 0.25285 -0.03450 0.34763
 H386 H 0.30815 -0.03777 0.37386
 H387 H 0.23174 -0.00493 0.31618
 H388 H 0.17361 -0.00659 0.29114
 H389 H 0.12150 0.05886 0.34251
 H390 H 0.17769 0.05685 0.36834
   
