data_POSCAR
  _audit_creation_date              2014-09-24
  _audit_creation_method            'ToBaCCo'
  _symmetry_space_group_name_H-M    'P1'
  _symmetry_Int_Tables_number       1
  _symmetry_cell_setting            triclinic
  loop_
  _symmetry_equiv_pos_as_xyz
 x,y,z
_cell_length_a 41.0947
_cell_length_b 44.0624
_cell_length_c 40.6339
_cell_angle_alpha 89.400000
_cell_angle_beta 91.365600
_cell_angle_gamma 90.623700
loop_
  _atom_site_label
  _atom_site_type_symbol
  _atom_site_fract_x
  _atom_site_fract_y
  _atom_site_fract_z
N1 N 0.20693 0.20681 0.20058
 N2 N -0.20812 0.76658 0.21790
 N3 N -0.21209 0.23070 -0.22794
 N4 N 0.23204 0.78257 -0.21159
 N5 N 0.20159 1.20444 0.80362
 N6 N 0.77012 0.77390 0.77767
 N7 N 0.20662 0.79305 1.21629
 N8 N 0.78314 1.23617 1.21564
 O9 O 0.53979 0.97566 0.94330
 O10 O 0.47745 0.97509 1.07227
 O11 O 0.57716 0.99176 1.03982
 O12 O 0.47598 0.95168 0.97357
 O13 O 0.53842 0.97376 1.06998
 O14 O 0.48078 0.98375 0.93579
 O15 O 0.46645 0.94803 1.03008
 O16 O 0.56257 0.96349 0.98916
 C17 C 0.55678 0.95740 0.95992
 C18 C 0.46535 0.95155 1.06017
 C19 C 0.56769 0.97403 1.06206
 C20 C 0.47450 0.95724 0.94397
 O21 O 0.48668 1.03944 0.95802
 O22 O 0.53899 1.03373 1.06365
 O23 O 0.59150 1.01391 0.97880
 O24 O 0.44127 1.00520 1.03098
 O25 O 0.47652 1.03216 1.06100
 O26 O 0.54743 1.03529 0.95710
 O27 O 0.44697 1.00916 0.97204
 O28 O 0.55636 1.04243 1.01474
 Co29 Co 0.51340 1.00733 0.95410
 Co30 Co 0.50831 1.00322 1.06107
 Co31 Co 0.55640 1.00252 1.00141
 Co32 Co 0.46156 0.97988 1.00152
 O33 O 0.50836 0.99716 1.00725
 C34 C 0.45678 1.03477 0.96161
 C35 C 0.55434 1.05028 1.04397
 C36 C 0.57833 1.03176 0.95606
 C37 C 0.44811 1.02762 1.04960
 O38 O 0.04339 0.47805 0.04128
 O39 O 0.04192 0.53273 -0.04670
 O40 O 0.00795 0.44145 -0.02915
 O41 O 0.00916 0.56775 0.02707
 O42 O 0.03762 0.47534 -0.05496
 O43 O 0.04387 0.53288 0.03591
 O44 O 0.00957 0.56838 -0.03203
 O45 O 0.00749 0.44357 0.03133
 C46 C 0.03591 0.45075 0.04015
 C47 C 0.03670 0.56024 -0.04275
 C48 C 0.03158 0.44829 -0.04725
 C49 C 0.03748 0.56029 0.03531
 O50 O -0.01553 0.53447 0.06414
 O51 O -0.02399 0.48112 -0.07189
 O52 O -0.05252 0.46649 0.02911
 O53 O -0.05235 0.54424 -0.03309
 O54 O -0.01858 0.53730 -0.07088
 O55 O -0.01685 0.47944 0.06657
 O56 O -0.05094 0.54096 0.02568
 O57 O -0.05295 0.45855 -0.03371
 Co58 Co 0.01216 0.50631 0.04734
 Co59 Co 0.00811 0.50681 -0.05543
 Co60 Co -0.02099 0.45773 -0.00050
 Co61 Co -0.01971 0.55129 -0.00307
 O62 O -0.00458 0.50532 -0.00315
 C63 C -0.04413 0.54062 0.05548
 C64 C -0.04842 0.46549 -0.06323
 C65 C -0.04494 0.46978 0.05869
 C66 C -0.04648 0.54457 -0.06269
 O67 O 1.06851 0.01159 0.46945
 O68 O 0.93620 0.03213 0.52390
 O69 O 0.97512 0.04733 0.45430
 O70 O 1.02361 0.02326 0.56370
 O71 O 0.93152 0.02309 0.46245
 O72 O 1.04818 0.03674 0.52011
 O73 O 0.96495 0.01291 0.56551
 O74 O 1.03022 0.04103 0.45985
 C75 C 1.05905 0.03495 0.45520
 C76 C 0.94525 0.03263 0.55369
 C77 C 0.94526 0.04621 0.45189
 C78 C 1.04153 0.04184 0.54915
 O79 O 1.07840 -0.01280 0.52894
 O80 O 0.93798 -0.03402 0.47242
 O81 O 1.02494 -0.01927 0.44033
 O82 O 0.97778 -0.04614 0.54822
 O83 O 0.93302 -0.02563 0.53356
 O84 O 1.04388 -0.03929 0.48604
 O85 O 1.03480 -0.03550 0.54676
 O86 O 0.96666 -0.01254 0.43340
 Co87 Co 1.04365 -0.00146 0.50404
 Co88 Co 0.94041 -0.00083 0.49826
 Co89 Co 0.99900 0.01314 0.45080
 Co90 Co 0.99984 -0.01020 0.55132
 O91 O 0.99402 0.00104 0.49976
 C92 C 1.06525 -0.03081 0.55048
 C93 C 0.94835 -0.03397 0.44362
 C94 C 1.03852 -0.04117 0.45557
 C95 C 0.94772 -0.04713 0.54703
 C96 C 1.17463 0.16018 0.28637
 C97 C 1.18479 0.19077 0.28811
 C98 C 1.19480 0.20634 0.25984
 C99 C 1.19500 0.19154 0.22948
 C100 C 1.18472 0.16116 0.22763
 C101 C 1.17449 0.14568 0.25569
 C102 C 1.16323 0.14351 0.31601
 C103 C 1.16973 0.11241 0.32032
 C104 C 1.15599 0.09590 0.34613
 C105 C 1.13563 0.11015 0.36841
 C106 C 1.13070 0.14161 0.36523
 C107 C 1.14421 0.15806 0.33926
 C108 C 1.11729 0.09190 0.39289
 C109 C 1.08464 0.09874 0.39871
 C110 C 1.06623 0.08052 0.41955
 C111 C 1.07987 0.05484 0.43501
 C112 C 1.11266 0.04815 0.42988
 C113 C 1.13125 0.06656 0.40900
 H114 H 1.18545 0.20253 0.31138
 H115 H 1.20296 0.22972 0.26165
 H116 H 1.18454 0.14950 0.20429
 H117 H 1.16606 0.12244 0.25324
 H118 H 1.18490 0.10064 0.30328
 H119 H 1.16017 0.07171 0.34772
 H120 H 1.11565 0.15340 0.38236
 H121 H 1.13861 0.18193 0.33666
 H122 H 1.07286 0.11763 0.38623
 H123 H 1.04095 0.08620 0.42295
 H124 H 1.12375 0.02851 0.44160
 H125 H 1.15644 0.06085 0.40526
 C126 C 0.84665 -0.19116 0.29505
 C127 C 0.81244 -0.19021 0.29439
 C128 C 0.79440 -0.20572 0.27028
 C129 C 0.81013 -0.22221 0.24610
 C130 C 0.84418 -0.22464 0.24779
 C131 C 0.86228 -0.20929 0.27208
 C132 C 0.86576 -0.17152 0.31806
 C133 C 0.89391 -0.15617 0.30754
 C134 C 0.91008 -0.13537 0.32807
 C135 C 0.89835 -0.12931 0.35950
 C136 C 0.87068 -0.14527 0.37028
 C137 C 0.85472 -0.16623 0.34991
 C138 C 0.91394 -0.10569 0.38063
 C139 C 0.91531 -0.10959 0.41499
 C140 C 0.92693 -0.08636 0.43521
 C141 C 0.93795 -0.05880 0.42159
 C142 C 0.93814 -0.05526 0.38724
 C143 C 0.92601 -0.07843 0.36693
 H144 H 0.79958 -0.17624 0.31144
 H145 H 0.76815 -0.20367 0.26943
 H146 H 0.85686 -0.23717 0.22933
 H147 H 0.88855 -0.21093 0.27231
 H148 H 0.90286 -0.15942 0.28299
 H149 H 0.93158 -0.12381 0.31917
 H150 H 0.86065 -0.14092 0.39415
 H151 H 0.83338 -0.17795 0.35895
 H152 H 0.90709 -0.13056 0.42635
 H153 H 0.92713 -0.08993 0.46163
 H154 H 0.94663 -0.03425 0.37617
 H155 H 0.92505 -0.07454 0.34058
 C156 C 0.83931 0.18699 0.69666
 C157 C 0.80509 0.18565 0.69705
 C158 C 0.78809 0.20166 0.72046
 C159 C 0.80491 0.21893 0.74432
 C160 C 0.83892 0.22178 0.74277
 C161 C 0.85593 0.20606 0.71910
 C162 C 0.85752 0.16691 0.67459
 C163 C 0.88642 0.15296 0.68577
 C164 C 0.90227 0.13226 0.66606
 C165 C 0.88944 0.12476 0.63479
 C166 C 0.86082 0.13909 0.62341
 C167 C 0.84519 0.16004 0.64296
 C168 C 0.90530 0.10165 0.61433
 C169 C 0.90540 0.10496 0.57991
 C170 C 0.91849 0.08253 0.56043
 C171 C 0.93226 0.05641 0.57487
 C172 C 0.93321 0.05340 0.60929
 C173 C 0.91963 0.07571 0.62884
 H174 H 0.79146 0.17103 0.68037
 H175 H 0.76185 0.19934 0.72113
 H176 H 0.85247 0.23496 0.76088
 H177 H 0.88220 0.20817 0.71898
 H178 H 0.89638 0.15734 0.71019
 H179 H 0.92451 0.12202 0.67541
 H180 H 0.84996 0.13361 0.59965
 H181 H 0.82323 0.17062 0.63339
 H182 H 0.89536 0.12495 0.56794
 H183 H 0.91794 0.08572 0.53395
 H184 H 0.94371 0.03350 0.62104
 H185 H 0.91963 0.07223 0.65525
 C186 C 1.19025 -0.16516 0.70971
 C187 C 1.19387 -0.19674 0.70655
 C188 C 1.20761 -0.21400 0.73235
 C189 C 1.21792 -0.19996 0.76165
 C190 C 1.21455 -0.16849 0.76475
 C191 C 1.20079 -0.15128 0.73913
 C192 C 1.17454 -0.14671 0.68310
 C193 C 1.18579 -0.11712 0.67615
 C194 C 1.16927 -0.09873 0.65322
 C195 C 1.14118 -0.10955 0.63660
 C196 C 1.13068 -0.13954 0.64261
 C197 C 1.14712 -0.15789 0.66564
 C198 C 1.12204 -0.08925 0.61425
 C199 C 1.08786 -0.09029 0.61433
 C200 C 1.06960 -0.07113 0.59375
 C201 C 1.08505 -0.05033 0.57269
 C202 C 1.11920 -0.04898 0.57272
 C203 C 1.13754 -0.06830 0.59327
 H204 H 1.18629 -0.20805 0.68408
 H205 H 1.21029 -0.23824 0.72955
 H206 H 1.22216 -0.15733 0.78731
 H207 H 1.19775 -0.12717 0.74269
 H208 H 1.20718 -0.10800 0.68879
 H209 H 1.17790 -0.07570 0.64932
 H210 H 1.10945 -0.14875 0.62978
 H211 H 1.13768 -0.18048 0.67055
 H212 H 1.07514 -0.10566 0.63067
 H213 H 1.04330 -0.07266 0.59436
 H214 H 1.13174 -0.03321 0.55667
 H215 H 1.16383 -0.06711 0.59245
 C216 C 0.27857 1.15993 1.14716
 C217 C 0.28152 1.16292 1.18153
 C218 C 0.25841 1.17883 1.19879
 C219 C 0.23163 1.19188 1.18219
 C220 C 0.22842 1.18876 1.14790
 C221 C 0.25179 1.17315 1.13050
 C222 C 0.30314 1.14264 1.12904
 C223 C 0.29384 1.12406 1.10242
 C224 C 0.31691 1.10671 1.08655
 C225 C 0.34973 1.10736 1.09713
 C226 C 0.35901 1.12629 1.12345
 C227 C 0.33609 1.14388 1.13899
 C228 C 0.37417 1.08768 1.08181
 C229 C 0.40654 1.09781 1.07891
 C230 C 0.43037 1.07834 1.06794
 C231 C 0.42228 1.04850 1.05894
 C232 C 0.38972 1.03873 1.06005
 C233 C 0.36590 1.05807 1.07167
 H234 H 0.30140 1.15247 1.19527
 H235 H 0.26119 1.18075 1.22526
 H236 H 0.20762 1.19815 1.13466
 H237 H 0.24892 1.17151 1.10403
 H238 H 0.26861 1.12233 1.09432
 H239 H 0.30899 1.09270 1.06609
 H240 H 0.38393 1.12703 1.13268
 H241 H 0.34423 1.15834 1.15899
 H242 H 0.41363 1.12072 1.08554
 H243 H 0.45525 1.08659 1.06667
 H244 H 0.38292 1.01579 1.05321
 H245 H 0.34130 1.04939 1.07387
 C246 C 0.32081 0.81934 0.82743
 C247 C 0.29334 0.81626 0.84728
 C248 C 0.26454 0.80337 0.83476
 C249 C 0.26258 0.79335 0.80216
 C250 C 0.28991 0.79611 0.78230
 C251 C 0.31887 0.80885 0.79486
 C252 C 0.35059 0.83493 0.84036
 C253 C 0.36803 0.85538 0.82047
 C254 C 0.39370 0.87272 0.83384
 C255 C 0.40233 0.87013 0.86744
 C256 C 0.38584 0.84859 0.88687
 C257 C 0.36046 0.83109 0.87345
 C258 C 0.42601 0.89160 0.88312
 C259 C 0.44560 0.88227 0.91014
 C260 C 0.46291 0.90357 0.92895
 C261 C 0.46153 0.93453 0.92072
 C262 C 0.44440 0.94367 0.89213
 C263 C 0.42655 0.92243 0.87362
 H264 H 0.29369 0.82476 0.87219
 H265 H 0.24340 0.80202 0.85014
 H266 H 0.28860 0.78865 0.75700
 H267 H 0.33965 0.81066 0.77904
 H268 H 0.36096 0.85901 0.79491
 H269 H 0.40620 0.88873 0.81805
 H270 H 0.39143 0.84617 0.91292
 H271 H 0.34796 0.81511 0.88928
 H272 H 0.44651 0.85862 0.91758
 H273 H 0.47641 0.89599 0.95068
 H274 H 0.44295 0.96748 0.88537
 H275 H 0.41157 0.93053 0.85317
 C276 C 0.72525 0.82593 1.16789
 C277 C 0.75422 0.83727 1.18240
 C278 C 0.77617 0.81781 1.19821
 C279 C 0.76949 0.78652 1.20053
 C280 C 0.74070 0.77502 1.18584
 C281 C 0.71882 0.79451 1.16961
 C282 C 0.70187 0.84700 1.15140
 C283 C 0.66810 0.84245 1.15395
 C284 C 0.64626 0.86299 1.13942
 C285 C 0.65767 0.88871 1.12225
 C286 C 0.69143 0.89312 1.11957
 C287 C 0.71322 0.87243 1.13372
 C288 C 0.63459 0.91088 1.10713
 C289 C 0.64164 0.92523 1.07702
 C290 C 0.62023 0.94625 1.06289
 C291 C 0.59101 0.95311 1.07824
 C292 C 0.58373 0.93874 1.10821
 C293 C 0.60542 0.91801 1.12265
 H294 H 0.75978 0.86134 1.18204
 H295 H 0.79841 0.82728 1.20881
 H296 H 0.73508 0.75099 1.18721
 H297 H 0.69698 0.78495 1.15826
 H298 H 0.65850 0.82331 1.16769
 H299 H 0.62042 0.85861 1.14153
 H300 H 0.70116 0.91283 1.10692
 H301 H 0.73903 0.87640 1.13076
 H302 H 0.66348 0.91984 1.06399
 H303 H 0.62623 0.95659 1.03948
 H304 H 0.56135 0.94364 1.12057
 H305 H 0.59945 0.90779 1.14611
 C306 C 0.72314 1.17307 0.82576
 C307 C 0.74964 1.16091 0.80925
 C308 C 0.77085 1.17973 0.79199
 C309 C 0.76571 1.21119 0.78990
 C310 C 0.73903 1.22341 0.80601
 C311 C 0.71809 1.20460 0.82391
 C312 C 0.70133 1.15284 0.84512
 C313 C 0.66784 1.15865 0.84698
 C314 C 0.64754 1.13937 0.86504
 C315 C 0.66015 1.11357 0.88133
 C316 C 0.69360 1.10772 0.87925
 C317 C 0.71393 1.12724 0.86175
 C318 C 0.63877 1.09283 0.90057
 C319 C 0.65090 1.07822 0.92919
 C320 C 0.63138 1.05805 0.94680
 C321 C 0.59900 1.05250 0.93671
 C322 C 0.58649 1.06743 0.90858
 C323 C 0.60626 1.08718 0.89048
 H324 H 0.75403 1.13674 0.80949
 H325 H 0.79149 1.16960 0.78041
 H326 H 0.73454 1.24756 0.80487
 H327 H 0.69828 1.21486 0.83671
 H328 H 0.65716 1.17792 0.83418
 H329 H 0.62201 1.14489 0.86645
 H330 H 0.70419 1.08784 0.89090
 H331 H 0.73965 1.12227 0.86150
 H332 H 0.67544 1.08258 0.93833
 H333 H 0.64155 1.04728 0.96874
 H334 H 0.56157 1.06355 0.90032
 H335 H 0.59618 1.09763 0.86834
 C336 C 0.16159 0.28583 0.15924
 C337 C 0.14450 0.26640 0.18063
 C338 C 0.15950 0.24099 0.19481
 C339 C 0.19219 0.23461 0.18848
 C340 C 0.20985 0.25509 0.16881
 C341 C 0.19467 0.28013 0.15403
 C342 C 0.14458 0.31093 0.14123
 C343 C 0.16100 0.33809 0.13310
 C344 C 0.14521 0.36091 0.11485
 C345 C 0.11244 0.35736 0.10468
 C346 C 0.09593 0.33043 0.11335
 C347 C 0.11184 0.30745 0.13101
 C348 C 0.09519 0.38164 0.08560
 C349 C 0.07057 0.37408 0.06234
 C350 C 0.05199 0.39664 0.04692
 C351 C 0.05816 0.42737 0.05355
 C352 C 0.08388 0.43517 0.07532
 C353 C 0.10202 0.41254 0.09142
 H354 H 0.11929 0.27051 0.18608
 H355 H 0.14517 0.22586 0.20998
 H356 H 0.23526 0.25121 0.16403
 H357 H 0.20867 0.29435 0.13761
 H358 H 0.18608 0.34184 0.14089
 H359 H 0.15886 0.38118 0.10843
 H360 H 0.07050 0.32705 0.10673
 H361 H 0.09846 0.28672 0.13615
 H362 H 0.06519 0.35065 0.05640
 H363 H 0.03227 0.38998 0.03031
 H364 H 0.08898 0.45871 0.08111
 H365 H 0.12048 0.41931 0.10939
 C366 C -0.17924 0.31519 -0.18851
 C367 C -0.18894 0.31306 -0.22186
 C368 C -0.20016 0.28542 -0.23472
 C369 C -0.20221 0.25956 -0.21441
 C370 C -0.19293 0.26169 -0.18110
 C371 C -0.18145 0.28912 -0.16832
 C372 C -0.16560 0.34393 -0.17481
 C373 C -0.17155 0.35185 -0.14213
 C374 C -0.15554 0.37657 -0.12769
 C375 C -0.13355 0.39450 -0.14571
 C376 C -0.12911 0.38770 -0.17905
 C377 C -0.14482 0.36260 -0.19339
 C378 C -0.11326 0.41807 -0.12867
 C379 C -0.08038 0.42251 -0.13675
 C380 C -0.05969 0.44028 -0.11684
 C381 C -0.07136 0.45335 -0.08819
 C382 C -0.10454 0.45080 -0.08131
 C383 C -0.12540 0.43374 -0.10164
 H384 H -0.18786 0.33272 -0.23801
 H385 H -0.20719 0.28410 -0.26052
 H386 H -0.19372 0.24182 -0.16522
 H387 H -0.17340 0.28964 -0.14277
 H388 H -0.18798 0.33841 -0.12730
 H389 H -0.15937 0.38066 -0.10186
 H390 H -0.11284 0.40127 -0.19389
 H391 H -0.13956 0.35713 -0.21861
 H392 H -0.06997 0.41066 -0.15711
 H393 H -0.03407 0.44181 -0.12241
 H394 H -0.11406 0.46105 -0.05947
 H395 H -0.15076 0.43174 -0.09526
 C396 C 0.17753 0.71489 -0.15915
 C397 C 0.16189 0.73461 -0.18179
 C398 C 0.17961 0.75647 -0.19918
 C399 C 0.21365 0.75884 -0.19506
 C400 C 0.22940 0.73827 -0.17343
 C401 C 0.21160 0.71696 -0.15539
 C402 C 0.15838 0.69258 -0.13934
 C403 C 0.17173 0.66453 -0.12956
 C404 C 0.15376 0.64371 -0.11099
 C405 C 0.12158 0.64994 -0.10234
 C406 C 0.10826 0.67802 -0.11205
 C407 C 0.12651 0.69915 -0.12990
 C408 C 0.10154 0.62687 -0.08452
 C409 C 0.07677 0.63571 -0.06336
 C410 C 0.05611 0.61407 -0.04918
 C411 C 0.06033 0.58304 -0.05495
 C412 C 0.08592 0.57406 -0.07485
 C413 C 0.10601 0.59567 -0.08974
 H414 H 0.13585 0.73329 -0.18616
 H415 H 0.16641 0.77181 -0.21546
 H416 H 0.25558 0.73902 -0.16990
 H417 H 0.22465 0.70258 -0.13796
 H418 H 0.19596 0.65830 -0.13662
 H419 H 0.16523 0.62267 -0.10352
 H420 H 0.08344 0.68362 -0.10647
 H421 H 0.11550 0.72070 -0.13619
 H422 H 0.07294 0.65939 -0.05802
 H423 H 0.03640 0.62171 -0.03426
 H424 H 0.08962 0.55031 -0.08011
 H425 H 0.12423 0.58780 -0.10633
 C426 C -0.17922 0.68240 0.17774
 C427 C -0.18717 0.68434 0.21115
 C428 C -0.19722 0.71184 0.22421
 C429 C -0.19992 0.73778 0.20405
 C430 C -0.19283 0.73575 0.17059
 C431 C -0.18244 0.70844 0.15760
 C432 C -0.16566 0.65411 0.16416
 C433 C -0.17225 0.64609 0.13127
 C434 C -0.15572 0.62231 0.11693
 C435 C -0.13255 0.60551 0.13526
 C436 C -0.12776 0.61207 0.16884
 C437 C -0.14393 0.63622 0.18307
 C438 C -0.11116 0.58377 0.11842
 C439 C -0.07796 0.58181 0.12752
 C440 C -0.05649 0.56578 0.10825
 C441 C -0.06763 0.55186 0.07916
 C442 C -0.10103 0.55196 0.07116
 C443 C -0.12265 0.56749 0.09079
 H444 H -0.18539 0.66468 0.22727
 H445 H -0.20268 0.71305 0.25009
 H446 H -0.19426 0.75565 0.15478
 H447 H -0.17578 0.70810 0.13200
 H448 H -0.18943 0.65888 0.11619
 H449 H -0.15995 0.61825 0.09095
 H450 H -0.11066 0.59921 0.18393
 H451 H -0.13814 0.64173 0.20845
 H452 H -0.06802 0.59427 0.14832
 H453 H -0.03081 0.56607 0.11491
 H454 H -0.11024 0.54095 0.04907
 H455 H -0.14816 0.56770 0.08356
 C456 C 1.16085 0.16725 0.71625
 C457 C 1.17519 0.14837 0.74043
 C458 C 1.18921 0.16063 0.76911
 C459 C 1.18963 0.19231 0.77436
 C460 C 1.17613 0.21113 0.74925
 C461 C 1.16172 0.19875 0.72082
 C462 C 1.14377 0.15394 0.68708
 C463 C 1.11244 0.16371 0.67760
 C464 C 1.09517 0.14949 0.65186
 C465 C 1.10908 0.12551 0.63474
 C466 C 1.14088 0.11649 0.64343
 C467 C 1.15795 0.13042 0.66948
 C468 C 1.08967 0.10817 0.60986
 C469 C 1.10337 0.09947 0.58005
 C470 C 1.08651 0.07967 0.55878
 C471 C 1.05594 0.06779 0.56728
 C472 C 1.04156 0.07774 0.59622
 C473 C 1.05814 0.09791 0.61717
 H474 H 1.17446 0.12394 0.73771
 H475 H 1.19844 0.14513 0.78786
 H476 H 1.17665 0.23558 0.75167
 H477 H 1.15123 0.21385 0.70234
 H478 H 1.10083 0.18165 0.69089
 H479 H 1.07073 0.15690 0.64563
 H480 H 1.15206 0.09785 0.63091
 H481 H 1.18214 0.12258 0.67615
 H482 H 1.12754 0.10725 0.57374
 H483 H 1.09824 0.07218 0.53674
 H484 H 1.01802 0.06891 0.60337
 H485 H 1.04707 0.10408 0.64004
 C486 C 0.82378 -0.18400 0.70093
 C487 C 0.79390 -0.19893 0.69395
 C488 C 0.77605 -0.21243 0.71922
 C489 C 0.78801 -0.21179 0.75172
 C490 C 0.81793 -0.19755 0.75883
 C491 C 0.83545 -0.18346 0.73382
 C492 C 0.84226 -0.16824 0.67440
 C493 C 0.87645 -0.16587 0.67628
 C494 C 0.89352 -0.14876 0.65306
 C495 C 0.87697 -0.13403 0.62685
 C496 C 0.84296 -0.13778 0.62398
 C497 C 0.82583 -0.15432 0.64758
 C498 C 0.89472 -0.11329 0.60399
 C499 C 0.87956 -0.08697 0.59149
 C500 C 0.89653 -0.06629 0.57195
 C501 C 0.92936 -0.07097 0.56484
 C502 C 0.94454 -0.09745 0.57668
 C503 C 0.92732 -0.11853 0.59580
 H504 H 0.78435 -0.20043 0.66898
 H505 H 0.75311 -0.22371 0.71347
 H506 H 0.82732 -0.19693 0.78395
 H507 H 0.85782 -0.17165 0.74048
 H508 H 0.89016 -0.17689 0.69599
 H509 H 0.91961 -0.14631 0.65641
 H510 H 0.82934 -0.12749 0.60374
 H511 H 0.79956 -0.15531 0.64524
 H512 H 0.85485 -0.08160 0.59774
 H513 H 0.88420 -0.04596 0.56345
 H514 H 0.96980 -0.10169 0.57144
 H515 H 0.93969 -0.13878 0.60438
 C516 C 1.16027 -0.16681 0.29651
 C517 C 1.17874 -0.14913 0.27471
 C518 C 1.19496 -0.16252 0.24888
 C519 C 1.19313 -0.19418 0.24376
 C520 C 1.17621 -0.21201 0.26706
 C521 C 1.15990 -0.19849 0.29293
 C522 C 1.14021 -0.15191 0.32165
 C523 C 1.13759 -0.16396 0.35371
 C524 C 1.11873 -0.14942 0.37706
 C525 C 1.10186 -0.12269 0.36872
 C526 C 1.10438 -0.11089 0.33659
 C527 C 1.12319 -0.12531 0.31341
 C528 C 1.08255 -0.10622 0.39333
 C529 C 1.05339 -0.09194 0.38357
 C530 C 1.03791 -0.07231 0.40476
 C531 C 1.05097 -0.06672 0.43639
 C532 C 1.07862 -0.08280 0.44724
 C533 C 1.09435 -0.10233 0.42584
 H534 H 1.18015 -0.12471 0.27723
 H535 H 1.20758 -0.14774 0.23184
 H536 H 1.17523 -0.23648 0.26502
 H537 H 1.14607 -0.21279 0.30946
 H538 H 1.15052 -0.18436 0.36087
 H539 H 1.11720 -0.15915 0.40155
 H540 H 1.09224 -0.09007 0.32942
 H541 H 1.12422 -0.11566 0.28883
 H542 H 1.04312 -0.09510 0.35903
 H543 H 1.01638 -0.06050 0.39589
 H544 H 1.08929 -0.07879 0.47146
 H545 H 1.11678 -0.11291 0.43413
 C546 C 0.82741 0.19152 0.29725
 C547 C 0.84631 0.20659 0.27350
 C548 C 0.83162 0.22246 0.24728
 C549 C 0.79749 0.22281 0.24311
 C550 C 0.77854 0.20820 0.26708
 C551 C 0.79325 0.19333 0.29403
 C552 C 0.84323 0.17283 0.32409
 C553 C 0.82693 0.14758 0.33775
 C554 C 0.84232 0.12893 0.36121
 C555 C 0.87501 0.13407 0.37096
 C556 C 0.89109 0.15973 0.35796
 C557 C 0.87529 0.17906 0.33535
 C558 C 0.89249 0.11201 0.39323
 C559 C 0.91912 0.12114 0.41352
 C560 C 0.93643 0.09987 0.43272
 C561 C 0.92682 0.06924 0.43289
 C562 C 0.89988 0.06016 0.41348
 C563 C 0.88330 0.08109 0.39352
 H564 H 0.87258 0.20534 0.27425
 H565 H 0.84706 0.23299 0.22908
 H566 H 0.75222 0.20866 0.26512
 H567 H 0.77759 0.18317 0.31219
 H568 H 0.80249 0.14143 0.32977
 H569 H 0.82846 0.11016 0.37128
 H570 H 0.91628 0.16461 0.36441
 H571 H 0.88859 0.19868 0.32646
 H572 H 0.92670 0.14468 0.41473
 H573 H 0.95712 0.10736 0.44765
 H574 H 0.89234 0.03653 0.41280
 H575 H 0.86383 0.07263 0.37766
 C576 C 0.15462 0.27835 -0.15268
 C577 C 0.13665 0.25637 -0.17043
 C578 C 0.15215 0.23208 -0.18506
 C579 C 0.18633 0.22914 -0.18293
 C580 C 0.20431 0.25181 -0.16592
 C581 C 0.18869 0.27582 -0.15082
 C582 C 0.13780 0.30348 -0.13585
 C583 C 0.15220 0.33251 -0.13338
 C584 C 0.13632 0.35598 -0.11754
 C585 C 0.10539 0.35121 -0.10415
 C586 C 0.09103 0.32218 -0.10666
 C587 C 0.10710 0.29862 -0.12201
 C588 C 0.08784 0.37644 -0.08827
 C589 C 0.06716 0.37066 -0.06174
 C590 C 0.04919 0.39400 -0.04821
 C591 C 0.05196 0.42386 -0.06032
 C592 C 0.07328 0.42989 -0.08617
 C593 C 0.09081 0.40645 -0.10013
 H594 H 0.11044 0.25781 -0.17303
 H595 H 0.13716 0.21505 -0.19728
 H596 H 0.23062 0.25095 -0.16428
 H597 H 0.20341 0.29210 -0.13716
 H598 H 0.17560 0.33731 -0.14404
 H599 H 0.14844 0.37785 -0.11571
 H600 H 0.06705 0.31764 -0.09719
 H601 H 0.09544 0.27649 -0.12281
 H602 H 0.06471 0.34803 -0.05142
 H603 H 0.03288 0.38858 -0.02844
 H604 H 0.07574 0.45261 -0.09630
 H605 H 0.10596 0.41180 -0.12087
 C606 C -0.17756 0.31885 0.18016
 C607 C -0.18112 0.31378 0.21412
 C608 C -0.19409 0.28639 0.22589
 C609 C -0.20468 0.26346 0.20401
 C610 C -0.20146 0.26884 0.16997
 C611 C -0.18786 0.29592 0.15830
 C612 C -0.16211 0.34731 0.16742
 C613 C -0.17135 0.35924 0.13640
 C614 C -0.15448 0.38377 0.12271
 C615 C -0.12833 0.39770 0.13996
 C616 C -0.12044 0.38701 0.17190
 C617 C -0.13685 0.36197 0.18530
 C618 C -0.10770 0.42114 0.12339
 C619 C -0.07387 0.42250 0.12983
 C620 C -0.05367 0.44065 0.11046
 C621 C -0.06673 0.45725 0.08376
 C622 C -0.10057 0.45764 0.07853
 C623 C -0.12090 0.44016 0.09848
 H624 H -0.17406 0.33103 0.23174
 H625 H -0.19652 0.28333 0.25220
 H626 H -0.20819 0.25149 0.15232
 H627 H -0.18461 0.29842 0.13207
 H628 H -0.19124 0.34920 0.12221
 H629 H -0.16122 0.39087 0.09793
 H630 H -0.10100 0.39747 0.18635
 H631 H -0.12882 0.35348 0.20918
 H632 H -0.06253 0.40805 0.14838
 H633 H -0.02757 0.43978 0.11472
 H634 H -0.11114 0.47057 0.05822
 H635 H -0.14686 0.44065 0.09344
 C636 C -0.18841 0.69282 -0.18246
 C637 C -0.19430 0.71779 -0.16215
 C638 C -0.20872 0.74400 -0.17506
 C639 C -0.21728 0.74602 -0.20861
 C640 C -0.21167 0.72120 -0.22897
 C641 C -0.19760 0.69476 -0.21601
 C642 C -0.17158 0.66553 -0.16879
 C643 C -0.14895 0.64982 -0.18750
 C644 C -0.13112 0.62584 -0.17359
 C645 C -0.13516 0.61719 -0.14050
 C646 C -0.15862 0.63226 -0.12221
 C647 C -0.17674 0.65588 -0.13624
 C648 C -0.11347 0.59435 -0.12420
 C649 C -0.12482 0.57591 -0.09831
 C650 C -0.10321 0.55837 -0.07932
 C651 C -0.06994 0.55831 -0.08628
 C652 C -0.05891 0.57468 -0.11369
 C653 C -0.08039 0.59276 -0.13229
 H654 H -0.18686 0.71750 -0.13642
 H655 H -0.21230 0.76314 -0.15910
 H656 H -0.21815 0.72240 -0.25493
 H657 H -0.19389 0.67588 -0.23228
 H658 H -0.14410 0.65670 -0.21257
 H659 H -0.11371 0.61447 -0.18864
 H660 H -0.16221 0.62666 -0.09655
 H661 H -0.19444 0.66697 -0.12128
 H662 H -0.15025 0.57578 -0.09196
 H663 H -0.11233 0.54560 -0.05849
 H664 H -0.03329 0.57514 -0.11940
 H665 H -0.07057 0.60681 -0.15175
 C666 C 0.16114 0.72123 0.16333
 C667 C 0.19517 0.72487 0.16407
 C668 C 0.21017 0.74794 0.18244
 C669 C 0.19170 0.76883 0.20022
 C670 C 0.15752 0.76487 0.19956
 C671 C 0.14262 0.74127 0.18186
 C672 C 0.14502 0.69725 0.14268
 C673 C 0.11399 0.70200 0.12832
 C674 C 0.09873 0.67967 0.10911
 C675 C 0.11435 0.65212 0.10278
 C676 C 0.14560 0.64750 0.11674
 C677 C 0.16054 0.66957 0.13668
 C678 C 0.09756 0.62819 0.08257
 C679 C 0.10281 0.59710 0.08902
 C680 C 0.08478 0.57484 0.07204
 C681 C 0.06055 0.58316 0.04884
 C682 C 0.05603 0.61402 0.04154
 C683 C 0.07470 0.63621 0.05768
 H684 H 0.21042 0.71033 0.14986
 H685 H 0.23649 0.74954 0.18254
 H686 H 0.14196 0.78068 0.21174
 H687 H 0.11641 0.73899 0.18258
 H688 H 0.10136 0.72313 0.13160
 H689 H 0.07439 0.68403 0.09963
 H690 H 0.15873 0.62686 0.11222
 H691 H 0.18419 0.66469 0.14762
 H692 H 0.11977 0.58982 0.10820
 H693 H 0.08851 0.55119 0.07845
 H694 H 0.03737 0.62108 0.02396
 H695 H 0.07058 0.65973 0.05107
 C696 C 0.28116 1.16361 0.85476
 C697 C 0.25603 1.17739 0.87189
 C698 C 0.22968 1.19058 0.85504
 C699 C 0.22777 1.19124 0.82026
 C700 C 0.25342 1.17788 0.80316
 C701 C 0.27949 1.16412 0.82013
 C702 C 0.30834 1.14802 0.87302
 C703 C 0.33990 1.14729 0.86032
 C704 C 0.36479 1.13128 0.87678
 C705 C 0.35890 1.11588 0.90659
 C706 C 0.32767 1.11760 0.91986
 C707 C 0.30272 1.13310 0.90318
 C708 C 0.38440 1.09656 0.92279
 C709 C 0.37548 1.06921 0.93846
 C710 C 0.39903 1.05000 0.95210
 C711 C 0.43232 1.05724 0.95008
 C712 C 0.44144 1.08488 0.93520
 C713 C 0.41771 1.10439 0.92176
 H714 H 0.25657 1.17802 0.89852
 H715 H 0.21035 1.19976 0.86946
 H716 H 0.25352 1.17832 0.77652
 H717 H 0.29808 1.15344 0.80596
 H718 H 0.34544 1.15894 0.83753
 H719 H 0.38839 1.13030 0.86559
 H720 H 0.32227 1.10661 0.94307
 H721 H 0.27877 1.13267 0.91368
 H722 H 0.35026 1.06198 0.93927
 H723 H 0.39105 1.02891 0.96338
 H724 H 0.46689 1.09116 0.93337
 H725 H 0.42550 1.12548 0.91039
 C726 C 0.29146 0.83198 1.17615
 C727 C 0.26414 0.82492 1.15599
 C728 C 0.23625 0.81179 1.16923
 C729 C 0.23430 0.80596 1.20329
 C730 C 0.26125 0.81378 1.22367
 C731 C 0.28959 0.82613 1.21023
 C732 C 0.32131 0.84593 1.16163
 C733 C 0.34125 0.86613 1.17985
 C734 C 0.36809 0.88043 1.16556
 C735 C 0.37532 0.87569 1.13231
 C736 C 0.35589 0.85487 1.11437
 C737 C 0.32964 0.83993 1.12893
 C738 C 0.40153 0.89370 1.11585
 C739 C 0.41796 0.88221 1.08862
 C740 C 0.43961 0.90058 1.07098
 C741 C 0.44611 0.93052 1.08077
 C742 C 0.43121 0.94150 1.10892
 C743 C 0.40894 0.92352 1.12597
 H744 H 0.26390 0.83001 1.12988
 H745 H 0.21565 0.80695 1.15293
 H746 H 0.26072 0.80934 1.24991
 H747 H 0.31014 0.83064 1.22664
 H748 H 0.33576 0.87170 1.20496
 H749 H 0.38283 0.89557 1.18064
 H750 H 0.36015 0.85067 1.08867
 H751 H 0.31567 0.82388 1.11422
 H752 H 0.41375 0.85918 1.08046
 H753 H 0.45090 0.89155 1.04940
 H754 H 0.43539 0.96467 1.11676
 H755 H 0.39650 0.93368 1.14619
 C756 C 0.70960 1.19062 1.16049
 C757 C 0.70924 1.22233 1.16328
 C758 C 0.73331 1.23745 1.18195
 C759 C 0.75831 1.22122 1.19864
 C760 C 0.75772 1.18923 1.19652
 C761 C 0.73388 1.17425 1.17756
 C762 C 0.68503 1.17449 1.13958
 C763 C 0.69468 1.15142 1.11842
 C764 C 0.67157 1.13511 1.09982
 C765 C 0.63825 1.14135 1.10214
 C766 C 0.62862 1.16489 1.12275
 C767 C 0.65181 1.18145 1.14113
 C768 C 0.61375 1.12170 1.08506
 C769 C 0.58689 1.11026 1.10218
 C770 C 0.56643 1.08823 1.08802
 C771 C 0.57220 1.07735 1.05631
 C772 C 0.59781 1.09019 1.03834
 C773 C 0.61850 1.11203 1.05266
 H774 H 0.69073 1.23550 1.15042
 H775 H 0.73227 1.26193 1.18351
 H776 H 0.77656 1.17574 1.20840
 H777 H 0.73448 1.14973 1.17616
 H778 H 0.72015 1.14583 1.11645
 H779 H 0.67971 1.11688 1.08447
 H780 H 0.60311 1.17025 1.12491
 H781 H 0.64371 1.19907 1.15732
 H782 H 0.58275 1.11711 1.12724
 H783 H 0.54686 1.07880 1.10244
 H784 H 0.60290 1.08222 1.01389
 H785 H 0.63882 1.12072 1.03878
 C786 C 0.69860 0.82140 0.83106
 C787 C 0.69618 0.78982 0.82717
 C788 C 0.71928 0.77438 0.80911
 C789 C 0.74508 0.79023 0.79431
 C790 C 0.74673 0.82199 0.79726
 C791 C 0.72388 0.83735 0.81559
 C792 C 0.67556 0.83770 0.85201
 C793 C 0.68732 0.85923 0.87472
 C794 C 0.66587 0.87516 0.89412
 C795 C 0.63212 0.87013 0.89110
 C796 C 0.62029 0.84840 0.86858
 C797 C 0.64185 0.83215 0.84939
 C798 C 0.60957 0.88877 0.91028
 C799 C 0.58247 0.90246 0.89476
 C800 C 0.56405 0.92360 0.91153
 C801 C 0.57224 0.93126 0.94421
 C802 C 0.59797 0.91604 0.96040
 C803 C 0.61654 0.89512 0.94355
 H804 H 0.67699 0.77696 0.83890
 H805 H 0.71728 0.74996 0.80699
 H806 H 0.76621 0.83496 0.78624
 H807 H 0.72606 0.86176 0.81783
 H808 H 0.71320 0.86372 0.87750
 H809 H 0.67568 0.89203 0.91094
 H810 H 0.59439 0.84403 0.86582
 H811 H 0.63215 0.81574 0.83199
 H812 H 0.57659 0.89808 0.86912
 H813 H 0.54424 0.93488 0.89848
 H814 H 0.60483 0.92140 0.98560
 H815 H 0.63701 0.88456 0.95625
   
