data_POSCAR
  _audit_creation_date              2014-09-24
  _audit_creation_method            'ToBaCCo'
  _symmetry_space_group_name_H-M    'P1'
  _symmetry_Int_Tables_number       1
  _symmetry_cell_setting            triclinic
  loop_
  _symmetry_equiv_pos_as_xyz
 x,y,z
_cell_length_a 30.5854
_cell_length_b 30.5504
_cell_length_c 30.5414
_cell_angle_alpha 96.445800
_cell_angle_beta 85.034100
_cell_angle_gamma 94.123400
loop_
  _atom_site_label
  _atom_site_type_symbol
  _atom_site_fract_x
  _atom_site_fract_y
  _atom_site_fract_z
O1 O 0.55318 0.51133 0.04297
 O2 O 0.43353 0.50343 0.03326
 O3 O 0.49159 0.44784 0.04387
 O4 O 0.49479 0.56673 0.03237
 O5 O 0.50650 0.55245 -0.03994
 O6 O 0.50348 0.43358 -0.02842
 O7 O 0.44497 0.48889 -0.03896
 O8 O 0.56464 0.49700 -0.02934
 Cu9 Cu 0.49217 0.50874 0.04536
 Cu10 Cu 0.50599 0.49157 -0.04141
 C11 C 0.57941 0.50535 0.00852
 C12 C 0.41863 0.49501 -0.00457
 C13 C 0.49720 0.42036 0.00973
 C14 C 0.50100 0.57994 -0.00580
 O15 O -0.04087 0.55574 0.50987
 O16 O -0.03083 0.43594 0.50547
 O17 O -0.03102 0.50109 0.56798
 O18 O -0.04069 0.49044 0.44795
 O19 O 0.03121 0.50209 0.43670
 O20 O 0.04109 0.51038 0.55659
 O21 O 0.04110 0.44610 0.49295
 O22 O 0.03121 0.56619 0.50040
 Cu23 Cu -0.04307 0.49483 0.50906
 Cu24 Cu 0.04338 0.50718 0.49556
 C25 C -0.00663 0.58160 0.50573
 C26 C 0.00689 0.42047 0.49821
 C27 C 0.00674 0.50712 0.58283
 C28 C -0.00644 0.49486 0.42178
 O29 O 0.49997 0.03082 0.56985
 O30 O 0.50810 0.04190 0.45049
 O31 O 0.44469 0.04087 0.51196
 O32 O 0.56428 0.03171 0.50777
 O33 O 0.55475 -0.04045 0.49235
 O34 O 0.43500 -0.03158 0.49929
 O35 O 0.49810 -0.03039 0.43626
 O36 O 0.49246 -0.04152 0.55553
 Cu37 Cu 0.50531 0.04356 0.51155
 Cu38 Cu 0.49403 -0.04323 0.49452
 C39 C 0.49529 -0.00730 0.58324
 C40 C 0.50400 0.00771 0.42298
 C41 C 0.41941 0.00625 0.50606
 C42 C 0.58002 -0.00595 0.49908
 C43 C 0.49971 -0.04198 -0.09501
 C44 C 0.50028 -0.08560 -0.08523
 C45 C 0.50015 -0.09596 -0.04179
 C46 C 0.49977 -0.06165 -0.00652
 C47 C 0.49981 -0.01713 -0.01572
 C48 C 0.49991 -0.00719 -0.06008
 C49 C 0.50103 0.03726 -0.06828
 C50 C 0.50022 0.07108 -0.03378
 C51 C 0.50015 0.06209 0.01037
 C52 C 0.50015 0.01757 0.01954
 C53 C 0.50003 -0.07062 0.03760
 C54 C 0.49932 -0.03678 0.07210
 C55 C 0.50006 0.00763 0.06389
 C56 C 0.49989 0.04237 0.09883
 C57 C 0.49908 0.08597 0.08913
 C58 C 0.49945 0.09637 0.04568
 H59 H 0.50271 0.04659 -0.10151
 H60 H 0.49968 0.10443 -0.04229
 H61 H 0.50074 -0.10395 0.04611
 H62 H 0.49802 -0.04606 0.10534
 H63 H 0.49998 -0.11219 -0.11195
 H64 H 0.49900 0.11250 0.11593
 C65 C 0.04285 0.50525 0.90743
 C66 C 0.08592 0.50085 0.91765
 C67 C 0.09575 0.49623 0.96073
 C68 C 0.06125 0.49508 0.99477
 C69 C 0.01748 0.50048 0.98514
 C70 C 0.00830 0.50607 0.94145
 C71 C -0.03499 0.51322 0.93312
 C72 C -0.06893 0.51296 0.96652
 C73 C -0.06099 0.50563 1.00966
 C74 C -0.01721 0.50026 1.01929
 C75 C 0.06918 0.48770 1.03790
 C76 C 0.03525 0.48753 1.07132
 C77 C -0.00803 0.49471 1.06299
 C78 C -0.04257 0.49560 1.09702
 C79 C -0.08564 0.49997 1.08679
 C80 C -0.09547 0.50450 1.04370
 H81 H -0.04308 0.51958 0.90074
 H82 H -0.10144 0.51910 0.95818
 H83 H 0.10166 0.48148 1.04624
 H84 H 0.04332 0.48118 1.10372
 H85 H 0.11231 0.50098 0.89153
 H86 H -0.11204 0.49989 1.11292
 C87 C -0.04018 -0.09701 0.49121
 C88 C -0.08377 -0.08585 0.49131
 C89 C -0.09443 -0.04227 0.49038
 C90 C -0.06058 -0.00822 0.48958
 C91 C -0.01618 -0.01874 0.48988
 C92 C -0.00581 -0.06334 0.48975
 C93 C 0.03863 -0.07314 0.48653
 C94 C 0.07205 -0.03979 0.48624
 C95 C 0.06249 0.00481 0.48900
 C96 C 0.01800 0.01537 0.48948
 C97 C -0.06981 0.03580 0.48706
 C98 C -0.03638 0.06914 0.48666
 C99 C 0.00767 0.05986 0.48881
 C100 C 0.04187 0.09365 0.48886
 C101 C 0.08541 0.08273 0.48935
 C102 C 0.09626 0.03907 0.48969
 H103 H 0.04820 -0.10680 0.48349
 H104 H 0.10557 -0.04953 0.48309
 H105 H -0.10298 0.04497 0.48483
 H106 H -0.04552 0.10225 0.48411
 H107 H -0.11009 -0.11155 0.49278
 H108 H 0.11135 0.10891 0.49027
 C109 C -0.28092 0.50941 1.02063
 C110 C -0.29792 0.49909 0.97916
 C111 C -0.34318 0.49828 0.97515
 C112 C -0.37250 0.50759 1.01256
 C113 C -0.35546 0.51825 1.05399
 C114 C -0.31019 0.51921 1.05796
 C115 C -0.23294 0.50918 1.02514
 C116 C -0.21168 0.54187 1.05345
 C117 C -0.16684 0.54080 1.05876
 C118 C -0.14235 0.50716 1.03575
 C119 C -0.16340 0.47451 1.00741
 C120 C -0.20822 0.47564 1.00195
 H121 H -0.35520 0.49002 0.94273
 H122 H -0.37713 0.52551 1.08348
 H123 H -0.15121 0.56612 1.08100
 H124 H -0.14522 0.44781 0.99003
 H125 H -0.29816 0.52674 1.09045
 H126 H -0.22972 0.56835 1.07142
 H127 H -0.27615 0.49190 0.94972
 H128 H -0.22379 0.44960 0.98046
 C129 C 0.28121 0.49109 0.98356
 C130 C 0.29812 0.50027 1.02515
 C131 C 0.34338 0.50103 1.02917
 C132 C 0.37298 0.49291 0.99158
 C133 C 0.35580 0.48336 0.94998
 C134 C 0.31053 0.48238 0.94608
 C135 C 0.23324 0.49136 0.97912
 C136 C 0.21205 0.45902 0.95040
 C137 C 0.16720 0.46012 0.94518
 C138 C 0.14264 0.49348 0.96863
 C139 C 0.16366 0.52581 0.99735
 C140 C 0.20847 0.52460 1.00278
 H141 H 0.35508 0.50838 1.06184
 H142 H 0.37730 0.47693 0.92019
 H143 H 0.15162 0.43506 0.92264
 H144 H 0.14545 0.55233 1.01506
 H145 H 0.29851 0.47570 0.91352
 H146 H 0.23017 0.43279 0.93205
 H147 H 0.27627 0.50661 1.05468
 H148 H 0.22402 0.55035 1.02460
 C149 C -0.01880 -0.28160 0.50330
 C150 C 0.02276 -0.29802 0.50390
 C151 C 0.02687 -0.34318 0.50490
 C152 C -0.01068 -0.37278 0.50628
 C153 C -0.05240 -0.35576 0.50703
 C154 C -0.05631 -0.31076 0.50502
 C155 C -0.02309 -0.23429 0.49980
 C156 C -0.04640 -0.22146 0.46626
 C157 C -0.05083 -0.17683 0.46288
 C158 C -0.03249 -0.14421 0.49329
 C159 C -0.00966 -0.15711 0.52726
 C160 C -0.00439 -0.20180 0.53006
 H161 H 0.05955 -0.35482 0.50447
 H162 H -0.08213 -0.37726 0.50811
 H163 H -0.06889 -0.16767 0.43665
 H164 H 0.00374 -0.13259 0.55178
 H165 H -0.08872 -0.29863 0.50489
 H166 H -0.06093 -0.24605 0.44250
 H167 H 0.05212 -0.27600 0.50247
 H168 H 0.01335 -0.21109 0.55643
 C169 C 0.01910 0.28036 0.49261
 C170 C -0.02160 0.29846 0.50535
 C171 C -0.02565 0.34391 0.50690
 C172 C 0.01101 0.37227 0.49606
 C173 C 0.05173 0.35413 0.48342
 C174 C 0.05569 0.30866 0.48158
 C175 C 0.02354 0.23216 0.49103
 C176 C 0.04817 0.20967 0.45562
 C177 C 0.05331 0.16450 0.45461
 C178 C 0.03386 0.14095 0.48889
 C179 C 0.00929 0.16327 0.52435
 C180 C 0.00389 0.20843 0.52525
 H181 H -0.05747 0.35685 0.51679
 H182 H 0.08060 0.37506 0.47491
 H183 H 0.07266 0.14787 0.42715
 H184 H -0.00521 0.14578 0.55153
 H185 H 0.08758 0.29569 0.47215
 H186 H 0.06334 0.22702 0.42862
 H187 H -0.05043 0.27737 0.51364
 H188 H -0.01475 0.22504 0.55324
 C189 C 0.49380 -0.02055 -0.28010
 C190 C 0.49275 0.02127 -0.29462
 C191 C 0.49324 0.02575 -0.33975
 C192 C 0.49378 -0.01170 -0.37128
 C193 C 0.49366 -0.05369 -0.35625
 C194 C 0.49421 -0.05796 -0.31122
 C195 C 0.49546 -0.02519 -0.23264
 C196 C 0.52915 -0.04774 -0.21851
 C197 C 0.53095 -0.05222 -0.17370
 C198 C 0.49880 -0.03468 -0.14225
 C199 C 0.46456 -0.01289 -0.15654
 C200 C 0.46332 -0.00751 -0.20131
 H201 H 0.49315 0.05863 -0.34982
 H202 H 0.49407 -0.08337 -0.37927
 H203 H 0.55738 -0.06956 -0.16350
 H204 H 0.43874 -0.00019 -0.13303
 H205 H 0.49479 -0.09055 -0.30059
 H206 H 0.55429 -0.06155 -0.24218
 H207 H 0.49257 0.05056 -0.27107
 H208 H 0.43680 0.00958 -0.21165
 C209 C 0.50489 0.02108 0.28416
 C210 C 0.49818 0.05756 0.31574
 C211 C 0.49876 0.05337 0.36077
 C212 C 0.50537 0.01242 0.37519
 C213 C 0.51224 -0.02406 0.34355
 C214 C 0.51238 -0.01967 0.29843
 C215 C 0.50336 0.02551 0.23653
 C216 C 0.53663 0.00943 0.20552
 C217 C 0.53553 0.01467 0.16071
 C218 C 0.50052 0.03497 0.14603
 C219 C 0.46723 0.05089 0.17703
 C220 C 0.46870 0.04633 0.22186
 H221 H 0.49325 0.08204 0.38436
 H222 H 0.51751 -0.05600 0.35368
 H223 H 0.56209 0.00312 0.13747
 H224 H 0.44016 0.06703 0.16645
 H225 H 0.51742 -0.04831 0.27468
 H226 H 0.56396 -0.00626 0.21613
 H227 H 0.49270 0.08941 0.30551
 H228 H 0.44255 0.05877 0.24511
 C229 C 0.50130 -0.28143 -0.01995
 C230 C 0.51428 -0.31155 -0.05614
 C231 C 0.51420 -0.35655 -0.05154
 C232 C 0.50150 -0.37234 -0.01055
 C233 C 0.48879 -0.34215 0.02572
 C234 C 0.48850 -0.29718 0.02101
 C235 C 0.50110 -0.23374 -0.02498
 C236 C 0.46546 -0.20927 -0.00669
 C237 C 0.46509 -0.16444 -0.01199
 C238 C 0.50069 -0.14318 -0.03498
 C239 C 0.53620 -0.16756 -0.05341
 C240 C 0.53643 -0.21244 -0.04846
 H241 H 0.52414 -0.37896 -0.08012
 H242 H 0.47877 -0.35328 0.05772
 H243 H 0.43702 -0.14629 0.00169
 H244 H 0.56378 -0.15174 -0.07158
 H245 H 0.47875 -0.27462 0.04953
 H246 H 0.43753 -0.22503 0.01100
 H247 H 0.52387 -0.30035 -0.08819
 H248 H 0.56443 -0.23042 -0.06262
 C249 C 0.49738 0.28177 0.02389
 C250 C 0.48403 0.31181 0.06000
 C251 C 0.48393 0.35679 0.05541
 C252 C 0.49680 0.37265 0.01448
 C253 C 0.50985 0.34253 -0.02172
 C254 C 0.51033 0.29759 -0.01701
 C255 C 0.49783 0.23411 0.02893
 C256 C 0.53374 0.20989 0.01091
 C257 C 0.53434 0.16508 0.01621
 C258 C 0.49869 0.14358 0.03890
 C259 C 0.46292 0.16771 0.05707
 C260 C 0.46247 0.21257 0.05214
 H261 H 0.47373 0.37915 0.08394
 H262 H 0.52002 0.35371 -0.05368
 H263 H 0.56260 0.14713 0.00273
 H264 H 0.43530 0.15170 0.07502
 H265 H 0.52036 0.27509 -0.04548
 H266 H 0.56170 0.22584 -0.00656
 H267 H 0.47430 0.30055 0.09202
 H268 H 0.43426 0.23036 0.06609
 C269 C -0.28028 -0.01800 0.49362
 C270 C -0.30874 -0.05481 0.48190
 C271 C -0.35404 -0.05081 0.48364
 C272 C -0.37190 -0.00986 0.49696
 C273 C -0.34343 0.02704 0.50852
 C274 C -0.29807 0.02296 0.50701
 C275 C -0.23226 -0.02262 0.49212
 C276 C -0.20774 -0.00265 0.52671
 C277 C -0.16277 -0.00855 0.52599
 C278 C -0.14153 -0.03398 0.49040
 C279 C -0.16584 -0.05370 0.45573
 C280 C -0.21078 -0.04803 0.45652
 H281 H -0.37507 -0.07989 0.47459
 H282 H -0.35619 0.05904 0.51892
 H283 H -0.14459 0.00627 0.55338
 H284 H -0.14996 -0.07364 0.42814
 H285 H -0.27683 0.05194 0.51585
 H286 H -0.22358 0.01657 0.55483
 H287 H -0.29599 -0.08691 0.47202
 H288 H -0.22877 -0.06342 0.42923
 C289 C 0.28075 0.01765 0.50166
 C290 C 0.31039 0.05455 0.49802
 C291 C 0.35532 0.05099 0.50050
 C292 C 0.37158 0.01026 0.50602
 C293 C 0.34186 -0.02663 0.50999
 C294 C 0.29676 -0.02287 0.50821
 C295 C 0.23336 0.02149 0.49792
 C296 C 0.20183 0.00550 0.52943
 C297 C 0.15717 0.01080 0.52663
 C298 C 0.14330 0.03113 0.49164
 C299 C 0.17483 0.04670 0.45993
 C300 C 0.21946 0.04205 0.46311
 H301 H 0.37743 0.07996 0.49719
 H302 H 0.35348 -0.05840 0.51434
 H303 H 0.13343 -0.00053 0.55198
 H304 H 0.16482 0.06277 0.43288
 H305 H 0.27446 -0.05180 0.51093
 H306 H 0.21188 -0.01002 0.55682
 H307 H 0.29872 0.08623 0.49336
 H308 H 0.24320 0.05438 0.43829
 C309 C -0.01913 0.49024 1.28207
 C310 C 0.02206 0.50017 1.29916
 C311 C 0.02633 0.50103 1.34444
 C312 C -0.01056 0.49219 1.37362
 C313 C -0.05165 0.48180 1.35643
 C314 C -0.05587 0.48075 1.31115
 C315 C -0.02400 0.49074 1.23425
 C316 C -0.05071 0.45797 1.21150
 C317 C -0.05622 0.45921 1.16673
 C318 C -0.03503 0.49314 1.14392
 C319 C -0.00847 0.52598 1.16654
 C320 C -0.00277 0.52466 1.21124
 H321 H 0.05846 0.50908 1.35662
 H322 H -0.08072 0.47486 1.37803
 H323 H -0.07706 0.43375 1.14983
 H324 H 0.00746 0.55287 1.14961
 H325 H -0.08810 0.47348 1.29899
 H326 H -0.06717 0.43127 1.22831
 H327 H 0.05102 0.50713 1.27744
 H328 H 0.01739 0.55074 1.22809
 C329 C 0.01943 0.51136 0.72249
 C330 C 0.05625 0.52052 0.69340
 C331 C 0.05203 0.51960 0.64812
 C332 C 0.01085 0.50971 0.63099
 C333 C -0.02611 0.50124 0.66019
 C334 C -0.02183 0.50193 0.70546
 C335 C 0.02430 0.51066 0.77028
 C336 C 0.00295 0.47673 0.79317
 C337 C 0.00867 0.47520 0.83785
 C338 C 0.03533 0.50788 0.86055
 C339 C 0.05665 0.54182 0.83784
 C340 C 0.05115 0.54324 0.79309
 H341 H 0.08115 0.52625 0.62650
 H342 H -0.05830 0.49356 0.64804
 H343 H -0.00736 0.44829 0.85468
 H344 H 0.07758 0.56715 0.85480
 H345 H -0.05084 0.49522 0.72720
 H346 H -0.01733 0.45079 0.77626
 H347 H 0.08853 0.52742 0.70554
 H348 H 0.06772 0.56994 0.77635
   
