data_POSCAR
  _audit_creation_date              2014-09-24
  _audit_creation_method            'ToBaCCo'
  _symmetry_space_group_name_H-M    'P1'
  _symmetry_Int_Tables_number       1
  _symmetry_cell_setting            triclinic
  loop_
  _symmetry_equiv_pos_as_xyz
 x,y,z
_cell_length_a 24.7159
_cell_length_b 24.7012
_cell_length_c 9.3107
_cell_angle_alpha 90.188900
_cell_angle_beta 90.160900
_cell_angle_gamma 120.523700
loop_
  _atom_site_label
  _atom_site_type_symbol
  _atom_site_fract_x
  _atom_site_fract_y
  _atom_site_fract_z
C1 C 0.17039 0.43939 0.42082
 C2 C 0.16359 0.43586 0.57439
 C3 C 0.20630 0.42527 0.65497
 C4 C 0.26125 0.43160 0.59452
 C5 C 0.26977 0.44031 0.44185
 C6 C 0.22107 0.43779 0.35908
 H7 H 0.22619 0.44149 0.24305
 H8 H 0.20133 0.41998 0.77059
 C9 C 0.56288 -0.26649 0.40244
 C10 C 0.55736 -0.27423 0.55587
 C11 C 0.56355 -0.22422 0.64073
 C12 C 0.56318 -0.17242 0.58184
 C13 C 0.56264 -0.16704 0.42837
 C14 C 0.56794 -0.21178 0.34370
 H15 H 0.57034 -0.20685 0.22781
 H16 H 0.56206 -0.22883 0.75685
 C17 C 1.26907 0.84147 0.43273
 C18 C 1.26427 0.83314 0.58588
 C19 C 1.21018 0.78332 0.64772
 C20 C 1.16210 0.73587 0.56494
 C21 C 1.16621 0.74407 0.41237
 C22 C 1.21651 0.79817 0.35130
 H23 H 1.21795 0.80189 0.23510
 H24 H 1.20827 0.77848 0.76373
 C25 C 0.83110 0.55880 0.43009
 C26 C 0.82864 0.56468 0.58301
 C27 C 0.78014 0.57137 0.64217
 C28 C 0.72768 0.56123 0.56015
 C29 C 0.73207 0.55895 0.40637
 C30 C 0.78425 0.55978 0.34592
 H31 H 0.78639 0.55750 0.22982
 H32 H 0.77865 0.57489 0.75821
 C33 C 0.43977 0.26967 0.44358
 C34 C 0.42873 0.25990 0.59552
 C35 C 0.42066 0.20401 0.65569
 C36 C 0.43169 0.16138 0.57574
 C37 C 0.43868 0.17043 0.42344
 C38 C 0.44042 0.22260 0.36162
 H39 H 0.44662 0.22876 0.24614
 H40 H 0.41377 0.19819 0.77083
 C41 C 0.74178 0.16999 0.41351
 C42 C 0.73648 0.16270 0.56631
 C43 C 0.78718 0.20767 0.64958
 C44 C 0.83598 0.26358 0.58998
 C45 C 0.83963 0.27174 0.43674
 C46 C 0.79379 0.22232 0.35300
 H47 H 0.79572 0.22689 0.23694
 H48 H 0.78459 0.20289 0.76556
 N49 N 0.94296 0.56997 0.17348
 N50 N 0.90062 0.58418 0.21494
 N51 N 1.08286 0.60393 0.21761
 N52 N 1.11929 0.63617 0.32598
 N53 N 1.07166 0.64017 0.13500
 N54 N 1.09864 0.69763 0.19098
 N55 N 0.95201 0.53759 0.27261
 N56 N 0.91488 0.52879 0.38357
 C57 C 0.88309 0.55829 0.34706
 C58 C 1.12758 0.69342 0.31107
 N59 N 1.07813 0.44514 0.14156
 N60 N 1.10598 0.41685 0.20217
 N61 N 0.95538 0.41883 0.27627
 N62 N 0.91930 0.38862 0.38800
 N63 N 0.94821 0.37774 0.17742
 N64 N 0.90859 0.31972 0.21988
 N65 N 1.08739 0.49305 0.22102
 N66 N 1.12479 0.49896 0.33877
 Mn67 Mn 1.02013 0.51362 0.24394
 C68 C 1.13275 0.44975 0.32554
 C69 C 0.89041 0.32660 0.35279
 N70 N 1.05302 0.62903 -0.17686
 N71 N 1.09163 0.68729 -0.22004
 N72 N 0.91764 0.51653 -0.22642
 N73 N 0.88400 0.51341 -0.33952
 N74 N 0.92208 0.55917 -0.13503
 N75 N 0.88834 0.58617 -0.19068
 N76 N 1.04832 0.58823 -0.27444
 N77 N 1.08417 0.61889 -0.38627
 Mn78 Mn 0.99744 0.59982 -0.00119
 C79 C 1.11100 0.68087 -0.35213
 C80 C 0.86724 0.55640 -0.31947
 N81 N 0.92805 0.36676 -0.13107
 N82 N 0.89616 0.30508 -0.18547
 N83 N 1.05057 0.46696 -0.27164
 N84 N 1.08441 0.46941 -0.38532
 N85 N 1.05935 0.43650 -0.16737
 N86 N 1.10228 0.41901 -0.20903
 N87 N 0.92070 0.40305 -0.22216
 N88 N 0.88708 0.37060 -0.33387
 Mn89 Mn 1.00333 0.40628 0.00426
 Mn90 Mn 0.98372 0.49342 -0.24524
 Cl91 Cl 1.00104 0.50329 0.00032
 C92 C 0.87332 0.31164 -0.31329
 C93 C 1.11669 0.44039 -0.34533
 N94 N 0.59448 0.52675 0.22477
 N95 N 0.62299 0.51555 0.32911
 N96 N 0.56764 0.63446 0.12990
 N97 N 0.58744 0.69634 0.17533
 N98 N 0.53109 0.59603 0.22856
 N99 N 0.52481 0.62626 0.33739
 N100 N 0.63424 0.56821 0.13530
 N101 N 0.69251 0.58810 0.18132
 C102 C 0.68364 0.55431 0.30460
 C103 C 0.55927 0.68719 0.30698
 N104 N 0.51536 0.58010 -0.27030
 N105 N 0.50805 0.60899 -0.38225
 N106 N 0.62272 0.55589 -0.17887
 N107 N 0.68027 0.57946 -0.22920
 N108 N 0.58099 0.51435 -0.26948
 N109 N 0.61297 0.51086 -0.39042
 N110 N 0.55875 0.62179 -0.18310
 N111 N 0.58214 0.67899 -0.23484
 Mn112 Mn 0.59663 0.59586 -0.02408
 C113 C 0.55052 0.67094 -0.35944
 C114 C 0.67448 0.55219 -0.35949
 N115 N 0.41475 0.48067 0.26649
 N116 N 0.38623 0.48836 0.37860
 N117 N 0.43612 0.37187 0.17955
 N118 N 0.41340 0.31478 0.23220
 N119 N 0.47936 0.41396 0.26648
 N120 N 0.48730 0.38564 0.37855
 N121 N 0.37257 0.43772 0.17885
 N122 N 0.31549 0.41515 0.23072
 Mn123 Mn 0.50758 0.50702 0.24269
 C124 C 0.32409 0.44673 0.35569
 C125 C 0.44534 0.32358 0.35695
 N126 N 0.46575 0.39913 -0.22772
 N127 N 0.47346 0.36758 -0.34099
 N128 N 0.35998 0.42679 -0.13639
 N129 N 0.30150 0.40657 -0.18271
 N130 N 0.39991 0.46658 -0.22842
 N131 N 0.36885 0.47488 -0.34194
 N132 N 0.42540 0.35955 -0.13596
 N133 N 0.40420 0.30084 -0.18223
 Mn134 Mn 0.48758 0.48721 -0.24543
 Mn135 Mn 0.39767 0.39814 0.02157
 Cl136 Cl 0.49732 0.49715 -0.00134
 C137 C 0.43394 0.30743 -0.31125
 C138 C 0.30856 0.43631 -0.31204
 N139 N 0.37655 -0.05618 0.17460
 N140 N 0.31836 -0.09596 0.21617
 N141 N 0.49005 0.08509 0.22175
 N142 N 0.49718 0.12207 0.33116
 N143 N 0.44132 0.07406 0.14361
 N144 N 0.41263 0.10148 0.20365
 N145 N 0.41733 -0.04645 0.27670
 N146 N 0.38366 -0.08141 0.39740
 C147 C 0.32256 -0.11197 0.35370
 C148 C 0.44827 0.13055 0.32179
 N149 N 0.63918 0.07292 0.13657
 N150 N 0.69662 0.10139 0.19283
 N151 N 0.53813 -0.04775 0.27281
 N152 N 0.53048 -0.08460 0.38366
 N153 N 0.57090 -0.05600 0.17315
 N154 N 0.58656 -0.09731 0.21419
 N155 N 0.60218 0.08331 0.21850
 N156 N 0.63374 0.12062 0.32637
 Mn157 Mn 0.51238 0.01938 0.24471
 C158 C 0.69150 0.13037 0.31212
 C159 C 0.56116 -0.11524 0.34649
 N160 N 0.43479 0.05810 -0.16613
 N161 N 0.41598 0.10010 -0.20772
 N162 N 0.40405 -0.08194 -0.21905
 N163 N 0.37245 -0.11931 -0.32680
 N164 N 0.36698 -0.07192 -0.13677
 N165 N 0.30961 -0.10021 -0.19265
 N166 N 0.46501 0.04940 -0.27129
 N167 N 0.46647 0.08290 -0.38506
 Mn168 Mn 0.40469 0.00083 0.00342
 C169 C 0.43669 0.11449 -0.34453
 C170 C 0.31471 -0.12893 -0.31208
 N171 N 0.56051 -0.07689 -0.13645
 N172 N 0.58691 -0.11122 -0.19259
 N173 N 0.58799 0.04924 -0.27439
 N174 N 0.61896 0.08484 -0.38646
 N175 N 0.62866 0.05435 -0.17597
 N176 N 0.68694 0.09284 -0.21863
 N177 N 0.51761 -0.08162 -0.22710
 N178 N 0.51358 -0.11585 -0.33976
 Mn179 Mn 0.60009 -0.00141 -0.00098
 Mn180 Mn 0.49326 -0.01676 -0.24506
 Cl181 Cl 0.50276 0.00050 0.00042
 C182 C 0.55634 -0.13279 -0.32075
 C183 C 0.68092 0.11200 -0.35107
   
