data_POSCAR
  _audit_creation_date              2014-09-24
  _audit_creation_method            'ToBaCCo'
  _symmetry_space_group_name_H-M    'P1'
  _symmetry_Int_Tables_number       1
  _symmetry_cell_setting            triclinic
  loop_
  _symmetry_equiv_pos_as_xyz
 x,y,z
_cell_length_a 29.8575
_cell_length_b 26.2729
_cell_length_c 36.7917
_cell_angle_alpha 88.809800
_cell_angle_beta 89.955300
_cell_angle_gamma 94.228500
loop_
  _atom_site_label
  _atom_site_type_symbol
  _atom_site_fract_x
  _atom_site_fract_y
  _atom_site_fract_z
C1 C 1.24961 0.23479 0.25887
 C2 C 0.75107 -0.26759 0.26295
 C3 C 0.72939 0.24733 -0.23004
 C4 C 1.23736 -0.24410 -0.25291
 C5 C 0.26829 0.23979 0.73871
 C6 C 0.76327 0.73615 0.73705
 C7 C 0.75200 0.26878 0.23013
 C8 C 0.24777 0.75593 0.24971
 O9 O 1.09338 0.04616 0.01809
 O10 O 0.90510 -0.05379 0.02226
 O11 O 0.96410 0.09613 0.02773
 O12 O 1.03468 -0.10602 0.02190
 O13 O 0.92881 0.02819 0.04720
 O14 O 1.07415 -0.03910 0.03849
 O15 O 0.96010 -0.09066 0.04291
 O16 O 1.03697 0.07517 0.04322
 C17 C 1.07749 0.06974 0.04341
 C18 C 0.92157 -0.07792 0.04766
 C19 C 0.94193 0.07306 0.05235
 C20 C 1.06320 -0.08507 0.04305
 O21 O 1.07267 -0.06933 -0.03094
 O22 O 0.92140 0.06921 -0.02114
 O23 O 1.06066 0.08865 -0.02815
 O24 O 0.93150 -0.09075 -0.02959
 O25 O 0.91640 -0.01474 -0.04473
 O26 O 1.07461 0.01911 -0.05204
 O27 O 1.00663 -0.09254 -0.04818
 O28 O 0.98504 0.08762 -0.04434
 Co29 Co 1.07052 -0.00986 -0.00630
 Co30 Co 0.92577 0.00640 0.00080
 Co31 Co 1.01019 0.07824 -0.00053
 Co32 Co 0.98443 -0.08631 -0.00290
 O33 O 0.99773 -0.00310 -0.00224
 C34 C 1.04737 -0.09078 -0.05366
 C35 C 0.94420 0.08927 -0.04661
 C36 C 1.07362 0.06605 -0.05508
 C37 C 0.91473 -0.06061 -0.05192
 O38 O 1.08123 0.47682 0.54928
 O39 O 0.92214 0.47337 0.54936
 O40 O 1.00161 0.56593 0.54482
 O41 O 1.00495 0.38156 0.54970
 O42 O 0.93689 0.55787 0.52270
 O43 O 1.06856 0.39176 0.52548
 O44 O 0.92957 0.39512 0.53582
 O45 O 1.07473 0.55267 0.52961
 C46 C 1.08555 0.52310 0.55463
 C47 C 0.91498 0.42734 0.55705
 C48 C 0.96174 0.57329 0.54774
 C49 C 1.04559 0.37707 0.55228
 O50 O 1.06904 0.43145 0.45861
 O51 O 0.93466 0.51729 0.45672
 O52 O 1.04997 0.54820 0.45654
 O53 O 0.95161 0.39444 0.46137
 O54 O 0.90303 0.43756 0.48413
 O55 O 1.10207 0.51073 0.48111
 O56 O 1.02322 0.36841 0.47562
 O57 O 0.98113 0.57906 0.47161
 Co58 Co 1.07230 0.45500 0.50370
 Co59 Co 0.93189 0.49443 0.50315
 Co60 Co 1.02457 0.55341 0.50082
 Co61 Co 0.97959 0.39293 0.50544
 O62 O 1.00195 0.47390 0.50334
 C63 C 1.05103 0.38852 0.45275
 C64 C 0.95257 0.56029 0.44984
 C65 C 1.08918 0.53714 0.45528
 C66 C 0.91520 0.41316 0.45791
 O67 O 0.59791 0.02147 0.54639
 O68 O 0.43872 0.00157 0.54525
 O69 O 0.51680 0.09948 0.53853
 O70 O 0.51872 -0.08519 0.54951
 O71 O 0.45068 0.08440 0.51955
 O72 O 0.58595 -0.06877 0.53122
 O73 O 0.44416 -0.07537 0.53044
 O74 O 0.59103 0.08880 0.51648
 C75 C 0.59993 0.06875 0.54600
 C76 C 0.43352 -0.04417 0.55365
 C77 C 0.47627 0.10224 0.54349
 C78 C 0.55937 -0.08629 0.55531
 O79 O 0.58834 -0.04427 0.45986
 O80 O 0.45166 0.04367 0.45170
 O81 O 0.56003 0.07815 0.44856
 O82 O 0.47157 -0.07956 0.45853
 O83 O 0.42111 -0.03526 0.47814
 O84 O 0.61405 0.03946 0.47169
 O85 O 0.54349 -0.10489 0.48047
 O86 O 0.49080 0.10925 0.46817
 Co87 Co 0.58901 -0.01104 0.50242
 Co88 Co 0.44798 0.02183 0.49857
 Co89 Co 0.53734 0.08549 0.49364
 Co90 Co 0.49659 -0.07754 0.50406
 O91 O 0.51774 0.00443 0.49963
 C92 C 0.57071 -0.08794 0.45646
 C93 C 0.46461 0.08865 0.44583
 C94 C 0.59871 0.06445 0.44577
 C95 C 0.43477 -0.06180 0.45346
 O96 O 0.56884 0.54505 0.04270
 O97 O 0.40931 0.50191 0.04726
 O98 O 0.47832 0.61045 0.04352
 O99 O 0.50002 0.43303 0.04995
 O100 O 0.41182 0.58617 0.02738
 O101 O 0.56434 0.45703 0.02798
 O102 O 0.42260 0.42808 0.03027
 O103 O 0.55265 0.61368 0.01790
 C104 C 0.56757 0.59164 0.04485
 C105 C 0.40608 0.45570 0.05316
 C106 C 0.43767 0.60814 0.04983
 C107 C 0.54122 0.43935 0.05439
 O108 O 0.55831 0.48271 -0.04441
 O109 O 0.41411 0.55331 -0.04405
 O110 O 0.51688 0.60291 -0.04818
 O111 O 0.45098 0.43101 -0.04026
 O112 O 0.39496 0.46881 -0.02202
 O113 O 0.57686 0.56943 -0.03154
 O114 O 0.52532 0.41670 -0.01964
 O115 O 0.44599 0.62116 -0.02431
 Co116 Co 0.55966 0.51438 -0.00102
 Co117 Co 0.41512 0.52693 0.00177
 Co118 Co 0.49727 0.60305 -0.00233
 Co119 Co 0.47586 0.43629 0.00467
 O120 O 0.48697 0.52002 0.00068
 C121 C 0.54629 0.43685 -0.04624
 C122 C 0.42460 0.59910 -0.04897
 C123 C 0.55643 0.59563 -0.05413
 C124 C 0.41242 0.44346 -0.04590
 C125 C 1.21517 0.21226 0.19579
 C126 C 1.18637 0.18302 0.17345
 C127 C 1.15485 0.14607 0.18874
 C128 C 1.15400 0.13773 0.22632
 C129 C 1.18437 0.16555 0.24838
 C130 C 1.21528 0.20441 0.23391
 C131 C 1.12564 0.11726 0.16609
 C132 C 1.12922 0.12368 0.12828
 C133 C 1.16226 0.15938 0.11308
 C134 C 1.18984 0.18959 0.13575
 C135 C 1.16767 0.16389 0.07536
 C136 C 1.14049 0.13325 0.05280
 C137 C 1.10690 0.09904 0.06772
 C138 C 1.10090 0.09441 0.10532
 H139 H 1.23811 0.24005 0.18233
 H140 H 1.13073 0.10874 0.23860
 H141 H 1.18426 0.15587 0.27714
 H142 H 1.10097 0.08919 0.17776
 H143 H 1.21475 0.21738 0.12403
 H144 H 1.19305 0.19076 0.06338
 H145 H 1.14490 0.13705 0.02360
 H146 H 1.07493 0.06750 0.11649
 C147 C 1.20238 0.67740 0.71252
 C148 C 1.17473 0.65586 0.68561
 C149 C 1.14705 0.68677 0.66512
 C150 C 1.14620 0.73847 0.67314
 C151 C 1.17356 0.75960 0.70056
 C152 C 1.20206 0.72952 0.72125
 C153 C 1.12240 0.66593 0.63593
 C154 C 1.12544 0.61459 0.62720
 C155 C 1.15156 0.58315 0.64897
 C156 C 1.17609 0.60404 0.67799
 C157 C 1.15371 0.53161 0.64074
 C158 C 1.13127 0.51168 0.61046
 C159 C 1.10691 0.54314 0.58778
 C160 C 1.10373 0.59446 0.59650
 H161 H 1.22629 0.65338 0.72471
 H162 H 1.12545 0.76297 0.65748
 H163 H 1.17349 0.80022 0.70448
 H164 H 1.10194 0.68988 0.61947
 H165 H 1.19706 0.58023 0.69412
 H166 H 1.17330 0.50696 0.65734
 H167 H 1.13403 0.47206 0.60428
 H168 H 1.08499 0.61891 0.57907
 C169 C 0.67202 0.22316 0.72115
 C170 C 0.65521 0.18778 0.69557
 C171 C 0.65834 0.13495 0.70197
 C172 C 0.67791 0.11851 0.73420
 C173 C 0.69802 0.15401 0.75801
 C174 C 0.69649 0.20731 0.75154
 C175 C 0.64496 0.09981 0.67498
 C176 C 0.63152 0.11728 0.64065
 C177 C 0.62919 0.17043 0.63438
 C178 C 0.63934 0.20497 0.66216
 C179 C 0.61869 0.18878 0.59989
 C180 C 0.61090 0.15516 0.57164
 C181 C 0.61176 0.10199 0.57721
 C182 C 0.62198 0.08304 0.61204
 H183 H 0.67099 0.26365 0.71518
 H184 H 0.68106 0.07820 0.73953
 H185 H 0.71753 0.13878 0.77979
 H186 H 0.64761 0.05930 0.67993
 H187 H 0.63773 0.24560 0.65692
 H188 H 0.61725 0.22935 0.59453
 H189 H 0.60349 0.17132 0.54526
 H190 H 0.62308 0.04228 0.61669
 C191 C 0.68763 0.71717 0.21620
 C192 C 0.66589 0.68691 0.18935
 C193 C 0.67490 0.63505 0.18650
 C194 C 0.70561 0.61443 0.21011
 C195 C 0.72854 0.64512 0.23540
 C196 C 0.71947 0.69683 0.23973
 C197 C 0.65498 0.60516 0.15889
 C198 C 0.62751 0.62694 0.13293
 C199 C 0.61856 0.67891 0.13554
 C200 C 0.63709 0.70829 0.16408
 C201 C 0.59223 0.70102 0.10891
 C202 C 0.57589 0.67241 0.07958
 C203 C 0.58477 0.62081 0.07655
 C204 C 0.61005 0.59801 0.10374
 H205 H 0.68174 0.75730 0.21743
 H206 H 0.71375 0.57509 0.20777
 H207 H 0.75493 0.62830 0.25056
 H208 H 0.66229 0.56548 0.15676
 H209 H 0.63040 0.74819 0.16583
 H210 H 0.58496 0.74074 0.11039
 H211 H 0.55626 0.69083 0.05912
 H212 H 0.61711 0.55827 0.10169
 C213 C 0.78149 -0.20129 0.21426
 C214 C 0.81205 -0.18462 0.18664
 C215 C 0.84828 -0.21401 0.17825
 C216 C 0.85269 -0.26016 0.19711
 C217 C 0.82188 -0.27675 0.22420
 C218 C 0.78695 -0.24654 0.23475
 C219 C 0.87869 -0.19763 0.15043
 C220 C 0.87274 -0.15264 0.13029
 C221 C 0.83607 -0.12360 0.13852
 C222 C 0.80631 -0.13946 0.16678
 C223 C 0.82914 -0.07956 0.11788
 C224 C 0.85748 -0.06499 0.08878
 C225 C 0.89403 -0.09334 0.08011
 C226 C 0.90201 -0.13684 0.10141
 H227 H 0.75291 -0.17932 0.21930
 H228 H 0.87946 -0.28404 0.19039
 H229 H 0.82536 -0.31377 0.23687
 H230 H 0.90640 -0.22039 0.14400
 H231 H 0.77828 -0.11703 0.17294
 H232 H 0.80123 -0.05689 0.12376
 H233 H 0.85057 -0.03142 0.07282
 H234 H 0.92986 -0.15922 0.09474
 C235 C 0.76420 0.31222 0.72086
 C236 C 0.79401 0.32479 0.69187
 C237 C 0.82174 0.28798 0.67868
 C238 C 0.81929 0.23921 0.69489
 C239 C 0.79030 0.22732 0.72418
 C240 C 0.76321 0.26397 0.73878
 C241 C 0.85101 0.30032 0.64925
 C242 C 0.85340 0.34946 0.63320
 C243 C 0.82613 0.38648 0.64702
 C244 C 0.79636 0.37379 0.67587
 C245 C 0.82906 0.43585 0.63185
 C246 C 0.85844 0.44860 0.60311
 C247 C 0.88527 0.41218 0.58843
 C248 C 0.88257 0.36241 0.60365
 H249 H 0.74130 0.34009 0.72864
 H250 H 0.83976 0.21010 0.68488
 H251 H 0.78899 0.18899 0.73571
 H252 H 0.87195 0.27180 0.63896
 H253 H 0.77531 0.40227 0.68610
 H254 H 0.80859 0.46474 0.64220
 H255 H 0.85957 0.48713 0.59196
 H256 H 0.90328 0.33411 0.59277
 C257 C 0.29858 -0.17496 0.71985
 C258 C 0.32733 -0.15920 0.69060
 C259 C 0.33983 -0.19545 0.66540
 C260 C 0.32559 -0.24664 0.67081
 C261 C 0.29538 -0.26109 0.69851
 C262 C 0.27719 -0.22491 0.72133
 C263 C 0.36607 -0.18018 0.63501
 C264 C 0.37864 -0.12851 0.62847
 C265 C 0.36705 -0.09191 0.65384
 C266 C 0.34239 -0.10761 0.68526
 C267 C 0.37914 -0.04009 0.64669
 C268 C 0.40118 -0.02470 0.61429
 C269 C 0.41192 -0.06084 0.58857
 C270 C 0.40138 -0.11285 0.59629
 H271 H 0.29421 -0.14836 0.74122
 H272 H 0.33669 -0.27549 0.65292
 H273 H 0.28590 -0.30127 0.70145
 H274 H 0.37519 -0.20834 0.61570
 H275 H 0.33300 -0.07947 0.70446
 H276 H 0.37074 -0.01137 0.66576
 H277 H 0.40946 0.01562 0.60924
 H278 H 0.40976 -0.14109 0.57681
 C279 C 0.27863 0.31075 0.21714
 C280 C 0.30757 0.33213 0.18990
 C281 C 0.34515 0.30638 0.17919
 C282 C 0.35385 0.26043 0.19655
 C283 C 0.32474 0.23900 0.22325
 C284 C 0.28638 0.26351 0.23434
 C285 C 0.37247 0.32586 0.15035
 C286 C 0.36249 0.37076 0.13187
 C287 C 0.32553 0.39733 0.14327
 C288 C 0.29836 0.37788 0.17216
 C289 C 0.31596 0.44266 0.12525
 C290 C 0.34243 0.46128 0.09602
 C291 C 0.37869 0.43476 0.08402
 C292 C 0.38860 0.38938 0.10199
 H293 H 0.24827 0.32919 0.22311
 H294 H 0.38235 0.23995 0.18852
 H295 H 0.33186 0.20190 0.23398
 H296 H 0.40092 0.30555 0.14184
 H297 H 0.26962 0.39788 0.18041
 H298 H 0.28788 0.46358 0.13363
 H299 H 0.33399 0.49610 0.08226
 H300 H 0.41682 0.36909 0.09301
 C301 C 0.79970 0.22672 -0.19245
 C302 C 0.81926 0.20180 -0.16316
 C303 C 0.79172 0.17685 -0.13601
 C304 C 0.74513 0.17800 -0.13828
 C305 C 0.72587 0.20142 -0.16810
 C306 C 0.75262 0.22401 -0.19672
 C307 C 0.81114 0.15071 -0.10725
 C308 C 0.85778 0.14826 -0.10576
 C309 C 0.88540 0.17319 -0.13295
 C310 C 0.86601 0.20042 -0.16120
 C311 C 0.93194 0.16984 -0.13172
 C312 C 0.95096 0.14201 -0.10380
 C313 C 0.92385 0.11763 -0.07645
 C314 C 0.87720 0.12081 -0.07764
 H315 H 0.82161 0.24752 -0.21187
 H316 H 0.72347 0.15972 -0.11744
 H317 H 0.68962 0.20012 -0.16954
 H318 H 0.78995 0.13153 -0.08642
 H319 H 0.88719 0.21939 -0.18211
 H320 H 0.95359 0.18841 -0.15244
 H321 H 0.98693 0.13957 -0.10367
 H322 H 0.85599 0.10181 -0.05678
 C323 C 0.81614 0.71289 0.30651
 C324 C 0.83469 0.68198 0.33326
 C325 C 0.80738 0.64238 0.35053
 C326 C 0.76170 0.63604 0.34219
 C327 C 0.74375 0.66644 0.31529
 C328 C 0.77131 0.70270 0.29497
 C329 C 0.82605 0.60969 0.37585
 C330 C 0.87171 0.61635 0.38448
 C331 C 0.89898 0.65683 0.36815
 C332 C 0.88030 0.68937 0.34251
 C333 C 0.94437 0.66416 0.37801
 C334 C 0.96227 0.63216 0.40423
 C335 C 0.93534 0.59166 0.42019
 C336 C 0.89025 0.58358 0.40982
 H337 H 0.83708 0.74383 0.29403
 H338 H 0.73998 0.60692 0.35599
 H339 H 0.70838 0.65988 0.30916
 H340 H 0.80507 0.57902 0.38881
 H341 H 0.90126 0.72004 0.32958
 H342 H 0.96577 0.69507 0.36591
 H343 H 0.99708 0.63912 0.41216
 H344 H 0.86907 0.55296 0.42257
 C345 C 0.30360 0.21891 0.31104
 C346 C 0.33140 0.18850 0.33106
 C347 C 0.32907 0.13532 0.32601
 C348 C 0.30052 0.11390 0.29955
 C349 C 0.27481 0.14497 0.27814
 C350 C 0.27406 0.19809 0.28445
 C351 C 0.35650 0.10479 0.34656
 C352 C 0.38715 0.12732 0.37129
 C353 C 0.39090 0.18098 0.37498
 C354 C 0.36263 0.21113 0.35520
 C355 C 0.42248 0.20368 0.39880
 C356 C 0.44860 0.17332 0.42021
 C357 C 0.44322 0.11983 0.41832
 C358 C 0.41353 0.09705 0.39295
 H359 H 0.30745 0.25943 0.31499
 H360 H 0.29964 0.07343 0.29419
 H361 H 0.25767 0.12688 0.25551
 H362 H 0.35420 0.06374 0.34317
 H363 H 0.36507 0.25219 0.35849
 H364 H 0.42614 0.24476 0.40157
 H365 H 0.47154 0.19175 0.43949
 H366 H 0.40991 0.05588 0.39093
 C367 C 0.29899 0.73391 -0.20779
 C368 C 0.31744 0.70291 -0.18106
 C369 C 0.29375 0.65685 -0.16964
 C370 C 0.25158 0.64336 -0.18419
 C371 C 0.23317 0.67472 -0.21021
 C372 C 0.25723 0.71954 -0.22408
 C373 C 0.31183 0.62570 -0.14298
 C374 C 0.35281 0.64083 -0.12670
 C375 C 0.37639 0.68735 -0.13763
 C376 C 0.35886 0.71777 -0.16511
 C377 C 0.41656 0.70322 -0.12021
 C378 C 0.43249 0.67398 -0.09159
 C379 C 0.40913 0.62785 -0.08060
 C380 C 0.36979 0.61094 -0.09872
 H381 H 0.31714 0.76965 -0.21563
 H382 H 0.23229 0.60898 -0.17490
 H383 H 0.19939 0.66351 -0.21890
 H384 H 0.29348 0.59035 -0.13427
 H385 H 0.37695 0.75339 -0.17354
 H386 H 0.43507 0.73876 -0.12813
 H387 H 0.46298 0.68756 -0.07785
 H388 H 0.35137 0.57571 -0.09000
 C389 C 1.18086 -0.22438 -0.20397
 C390 C 1.15777 -0.19276 -0.18177
 C391 C 1.16445 -0.13943 -0.18608
 C392 C 1.19078 -0.11925 -0.21529
 C393 C 1.21229 -0.15175 -0.23840
 C394 C 1.21191 -0.20486 -0.23078
 C395 C 1.14346 -0.10775 -0.16191
 C396 C 1.11489 -0.12940 -0.13431
 C397 C 1.10595 -0.18305 -0.13204
 C398 C 1.12784 -0.21427 -0.15543
 C399 C 1.07563 -0.20488 -0.10605
 C400 C 1.05519 -0.17406 -0.08165
 C401 C 1.06558 -0.12121 -0.08229
 C402 C 1.09517 -0.09873 -0.10877
 H403 H 1.17348 -0.26480 -0.20037
 H404 H 1.19349 -0.07852 -0.22102
 H405 H 1.22644 -0.13484 -0.26312
 H406 H 1.14929 -0.06660 -0.16457
 H407 H 1.12186 -0.25545 -0.15291
 H408 H 1.06813 -0.24585 -0.10434
 H409 H 1.03247 -0.19168 -0.06129
 H410 H 1.10277 -0.05773 -0.10935
 C411 C 1.18030 0.26226 0.29563
 C412 C 1.16113 0.29233 0.32158
 C413 C 1.18562 0.33614 0.33437
 C414 C 1.22870 0.34929 0.32076
 C415 C 1.24819 0.31803 0.29592
 C416 C 1.22504 0.27284 0.28303
 C417 C 1.16709 0.36531 0.36122
 C418 C 1.12495 0.34993 0.37632
 C419 C 1.10034 0.30588 0.36366
 C420 C 1.11822 0.27790 0.33582
 C421 C 1.05883 0.28989 0.37975
 C422 C 1.04235 0.31669 0.40876
 C423 C 1.06675 0.36038 0.42151
 C424 C 1.10770 0.37718 0.40470
 H425 H 1.15921 0.23055 0.28644
 H426 H 1.24803 0.38297 0.33021
 H427 H 1.28232 0.32909 0.28760
 H428 H 1.18603 0.39901 0.37117
 H429 H 1.09944 0.24393 0.32616
 H430 H 1.03956 0.25615 0.37036
 H431 H 1.01063 0.30335 0.42120
 H432 H 1.12700 0.41074 0.41445
 C433 C 0.68403 -0.23484 0.29799
 C434 C 0.66748 -0.20163 0.32371
 C435 C 0.69370 -0.15686 0.33305
 C436 C 0.73596 -0.14633 0.31708
 C437 C 0.75308 -0.18069 0.29325
 C438 C 0.72743 -0.22519 0.28250
 C439 C 0.67840 -0.12449 0.35957
 C440 C 0.63795 -0.13725 0.37817
 C441 C 0.61178 -0.18231 0.36933
 C442 C 0.62627 -0.21374 0.34170
 C443 C 0.57205 -0.19565 0.38890
 C444 C 0.55881 -0.16518 0.41727
 C445 C 0.58459 -0.12029 0.42629
 C446 C 0.62393 -0.10630 0.40618
 H447 H 0.66428 -0.26982 0.29188
 H448 H 0.75693 -0.11275 0.32455
 H449 H 0.78752 -0.17321 0.28435
 H450 H 0.69880 -0.09025 0.36664
 H451 H 0.60622 -0.24839 0.33505
 H452 H 0.55150 -0.23004 0.38258
 H453 H 0.52821 -0.17661 0.43206
 H454 H 0.64425 -0.07186 0.41285
 C455 C 0.66066 0.28676 -0.20157
 C456 C 0.64386 0.32162 -0.17722
 C457 C 0.67132 0.36496 -0.16679
 C458 C 0.71530 0.37206 -0.17998
 C459 C 0.73279 0.33533 -0.20164
 C460 C 0.70590 0.29236 -0.21360
 C461 C 0.65554 0.39881 -0.14148
 C462 C 0.61378 0.38807 -0.12439
 C463 C 0.58673 0.34391 -0.13393
 C464 C 0.60127 0.31189 -0.16110
 C465 C 0.54641 0.33142 -0.11508
 C466 C 0.53362 0.36155 -0.08648
 C467 C 0.55986 0.40590 -0.07709
 C468 C 0.59959 0.41950 -0.09670
 H469 H 0.63966 0.25294 -0.20833
 H470 H 0.73723 0.40436 -0.17154
 H471 H 0.76829 0.33955 -0.20801
 H472 H 0.67679 0.43204 -0.13364
 H473 H 0.58044 0.27805 -0.16832
 H474 H 0.52537 0.29754 -0.12176
 H475 H 0.50309 0.35018 -0.07162
 H476 H 0.62039 0.45328 -0.08934
 C477 C 1.20752 0.21557 -0.21357
 C478 C 1.18441 0.18073 -0.18955
 C479 C 1.19501 0.12919 -0.18811
 C480 C 1.22850 0.11341 -0.21095
 C481 C 1.25135 0.14824 -0.23483
 C482 C 1.24037 0.19975 -0.23751
 C483 C 1.17305 0.09474 -0.16304
 C484 C 1.14103 0.11151 -0.13898
 C485 C 1.13012 0.16308 -0.14100
 C486 C 1.15155 0.19711 -0.16635
 C487 C 1.09888 0.18044 -0.11685
 C488 C 1.07997 0.14784 -0.08989
 C489 C 1.09104 0.09677 -0.08682
 C490 C 1.12090 0.07829 -0.11207
 H491 H 1.20024 0.25538 -0.21349
 H492 H 1.23783 0.07432 -0.20978
 H493 H 1.27854 0.13465 -0.25048
 H494 H 1.18169 0.05535 -0.16165
 H495 H 1.14337 0.23668 -0.16744
 H496 H 1.09004 0.21972 -0.11808
 H497 H 1.05708 0.16315 -0.07082
 H498 H 1.12996 0.03917 -0.10975
 C499 C 1.22827 0.69486 0.30292
 C500 C 1.19748 0.66693 0.32581
 C501 C 1.15106 0.66939 0.32018
 C502 C 1.13632 0.69764 0.29053
 C503 C 1.16717 0.72456 0.26733
 C504 C 1.21434 0.72687 0.27400
 C505 C 1.12022 0.64290 0.34393
 C506 C 1.13550 0.61349 0.37308
 C507 C 1.18211 0.60954 0.37784
 C508 C 1.21276 0.63635 0.35427
 C509 C 1.19741 0.57937 0.40643
 C510 C 1.16694 0.55449 0.43083
 C511 C 1.12064 0.55957 0.42724
 C512 C 1.10504 0.58850 0.39786
 H513 H 1.26317 0.69022 0.30795
 H514 H 1.10075 0.69835 0.28485
 H515 H 1.15321 0.74278 0.24377
 H516 H 1.08446 0.64539 0.33986
 H517 H 1.24852 0.63383 0.35834
 H518 H 1.23301 0.57564 0.41027
 H519 H 1.17976 0.53229 0.45312
 H520 H 1.06935 0.59231 0.39466
 C521 C 0.73142 0.21146 0.28657
 C522 C 0.70156 0.18317 0.30973
 C523 C 0.65521 0.18009 0.30235
 C524 C 0.64017 0.20206 0.27005
 C525 C 0.67067 0.22871 0.24631
 C526 C 0.71669 0.23809 0.25545
 C527 C 0.62508 0.15424 0.32701
 C528 C 0.64131 0.13065 0.35851
 C529 C 0.68818 0.13127 0.36440
 C530 C 0.71788 0.15780 0.34020
 C531 C 0.70477 0.10617 0.39485
 C532 C 0.67527 0.08237 0.42023
 C533 C 0.62862 0.08387 0.41594
 C534 C 0.61169 0.10717 0.38457
 H535 H 0.76650 0.21166 0.29329
 H536 H 0.60500 0.19761 0.26267
 H537 H 0.65799 0.24055 0.22022
 H538 H 0.58926 0.15277 0.32183
 H539 H 0.75373 0.15926 0.34535
 H540 H 0.74061 0.10583 0.39944
 H541 H 0.68915 0.06448 0.44406
 H542 H 0.57572 0.10797 0.38088
 C543 C 0.70110 0.72194 -0.21541
 C544 C 0.67701 0.69170 -0.18923
 C545 C 0.68426 0.63935 -0.18523
 C546 C 0.71445 0.61779 -0.20833
 C547 C 0.73800 0.64797 -0.23460
 C548 C 0.73145 0.70060 -0.23902
 C549 C 0.66218 0.60972 -0.15758
 C550 C 0.63237 0.63176 -0.13421
 C551 C 0.62382 0.68377 -0.13926
 C552 C 0.64649 0.71346 -0.16645
 C553 C 0.59284 0.70543 -0.11688
 C554 C 0.57074 0.67604 -0.08956
 C555 C 0.57991 0.62486 -0.08364
 C556 C 0.61088 0.60275 -0.10589
 H557 H 0.69720 0.76262 -0.21682
 H558 H 0.72085 0.57784 -0.20543
 H559 H 0.76292 0.63007 -0.25025
 H560 H 0.66841 0.56974 -0.15409
 H561 H 0.64050 0.75353 -0.16978
 H562 H 0.58569 0.74506 -0.12050
 H563 H 0.54703 0.69369 -0.07245
 H564 H 0.61753 0.56306 -0.10153
 C565 C 0.79413 -0.19204 -0.22068
 C566 C 0.82061 -0.17512 -0.19118
 C567 C 0.85081 -0.20761 -0.17488
 C568 C 0.85453 -0.25625 -0.18883
 C569 C 0.82795 -0.27293 -0.21808
 C570 C 0.79766 -0.24105 -0.23507
 C571 C 0.87575 -0.19154 -0.14427
 C572 C 0.87077 -0.14329 -0.12973
 C573 C 0.84114 -0.11046 -0.14663
 C574 C 0.81626 -0.12658 -0.17710
 C575 C 0.83655 -0.06201 -0.13263
 C576 C 0.86074 -0.04620 -0.10201
 C577 C 0.88970 -0.07868 -0.08443
 C578 C 0.89467 -0.12730 -0.09850
 H579 H 0.76931 -0.16757 -0.23110
 H580 H 0.87712 -0.28200 -0.17648
 H581 H 0.83025 -0.31167 -0.22697
 H582 H 0.89854 -0.21678 -0.13153
 H583 H 0.79319 -0.10149 -0.18967
 H584 H 0.81417 -0.03632 -0.14533
 H585 H 0.85637 -0.00848 -0.09183
 H586 H 0.91730 -0.15237 -0.08539
 C587 C 0.78322 0.33153 0.27880
 C588 C 0.81315 0.34450 0.30750
 C589 C 0.85213 0.31772 0.31227
 C590 C 0.86030 0.27824 0.28908
 C591 C 0.82938 0.26360 0.26239
 C592 C 0.79054 0.29049 0.25561
 C593 C 0.88108 0.32831 0.34157
 C594 C 0.87072 0.36393 0.36742
 C595 C 0.83172 0.39090 0.36306
 C596 C 0.80360 0.38174 0.33277
 C597 C 0.82100 0.42555 0.38965
 C598 C 0.84801 0.43246 0.42051
 C599 C 0.88668 0.40548 0.42518
 C600 C 0.89814 0.37176 0.39815
 H601 H 0.75267 0.35108 0.27606
 H602 H 0.88915 0.25606 0.29326
 H603 H 0.83460 0.22799 0.24954
 H604 H 0.91073 0.30721 0.34509
 H605 H 0.77353 0.40218 0.32962
 H606 H 0.79135 0.44673 0.38688
 H607 H 0.83861 0.45906 0.44075
 H608 H 0.92792 0.35085 0.40135
 C609 C 0.28543 -0.17245 0.29034
 C610 C 0.31817 -0.15676 0.31653
 C611 C 0.35352 -0.18778 0.32480
 C612 C 0.35583 -0.23361 0.30708
 C613 C 0.32254 -0.25003 0.28273
 C614 C 0.28528 -0.22084 0.27331
 C615 C 0.38543 -0.17349 0.35148
 C616 C 0.38160 -0.12916 0.37138
 C617 C 0.34612 -0.09787 0.36343
 C618 C 0.31528 -0.11120 0.33560
 C619 C 0.34129 -0.05455 0.38422
 C620 C 0.37035 -0.04324 0.41319
 C621 C 0.40581 -0.07398 0.42147
 C622 C 0.41176 -0.11654 0.39990
 H623 H 0.26079 -0.14600 0.28441
 H624 H 0.38258 -0.25818 0.31316
 H625 H 0.32563 -0.28787 0.27239
 H626 H 0.41236 -0.19786 0.35762
 H627 H 0.28809 -0.08711 0.32977
 H628 H 0.31436 -0.03004 0.37866
 H629 H 0.36494 -0.01019 0.42929
 H630 H 0.43871 -0.14078 0.40612
 C631 C 0.29280 0.31199 -0.21655
 C632 C 0.31961 0.33076 -0.18744
 C633 C 0.35621 0.30373 -0.17540
 C634 C 0.36461 0.25785 -0.19182
 C635 C 0.33691 0.23854 -0.21960
 C636 C 0.30150 0.26587 -0.23367
 C637 C 0.38287 0.32185 -0.14624
 C638 C 0.37249 0.36583 -0.12789
 C639 C 0.33524 0.39232 -0.13929
 C640 C 0.30950 0.37513 -0.16930
 C641 C 0.32388 0.43507 -0.12001
 C642 C 0.34878 0.45110 -0.08957
 C643 C 0.38628 0.42559 -0.07821
 C644 C 0.39814 0.38307 -0.09780
 H645 H 0.26402 0.33225 -0.22465
 H646 H 0.39178 0.23588 -0.18233
 H647 H 0.34294 0.20138 -0.22994
 H648 H 0.41101 0.30099 -0.13723
 H649 H 0.28104 0.39566 -0.17802
 H650 H 0.29534 0.45578 -0.12818
 H651 H 0.33883 0.48379 -0.07497
 H652 H 0.42658 0.36265 -0.08910
 C653 C 1.21950 -0.21043 0.18796
 C654 C 1.19004 -0.18235 0.16734
 C655 C 1.16660 -0.14443 0.18369
 C656 C 1.17137 -0.13749 0.22121
 C657 C 1.19802 -0.16876 0.24230
 C658 C 1.22462 -0.20552 0.22659
 C659 C 1.13714 -0.11624 0.16253
 C660 C 1.12905 -0.12811 0.12572
 C661 C 1.15074 -0.16862 0.11031
 C662 C 1.18199 -0.19420 0.13076
 C663 C 1.14064 -0.18342 0.07468
 C664 C 1.10996 -0.15778 0.05397
 C665 C 1.08989 -0.11575 0.06794
 C666 C 1.09948 -0.10088 0.10397
 H667 H 1.23545 -0.23899 0.17300
 H668 H 1.15195 -0.11023 0.23477
 H669 H 1.19407 -0.16719 0.27145
 H670 H 1.11960 -0.08632 0.17493
 H671 H 1.19907 -0.22458 0.11844
 H672 H 1.15664 -0.21482 0.06274
 H673 H 1.10343 -0.16936 0.02625
 H674 H 1.08395 -0.06846 0.11491
 C675 C 1.19365 0.26577 0.70949
 C676 C 1.17159 0.29375 0.68273
 C677 C 1.19563 0.33395 0.66339
 C678 C 1.24022 0.34782 0.67287
 C679 C 1.26177 0.32025 0.69972
 C680 C 1.23950 0.27790 0.71806
 C681 C 1.17531 0.35827 0.63396
 C682 C 1.13087 0.34352 0.62403
 C683 C 1.10574 0.30577 0.64494
 C684 C 1.12641 0.28067 0.67388
 C685 C 1.06052 0.29328 0.63616
 C686 C 1.04061 0.31734 0.60660
 C687 C 1.06594 0.35298 0.58451
 C688 C 1.11121 0.36564 0.59335
 H689 H 1.17564 0.23233 0.72145
 H690 H 1.25912 0.37876 0.65846
 H691 H 1.29711 0.32998 0.70456
 H692 H 1.19431 0.38808 0.61844
 H693 H 1.10754 0.25047 0.68912
 H694 H 1.04056 0.26486 0.65214
 H695 H 1.00568 0.30709 0.60041
 H696 H 1.13109 0.39293 0.57640
 C697 C 0.69306 -0.22740 0.70723
 C698 C 0.67420 -0.19420 0.68202
 C699 C 0.70199 -0.15577 0.66399
 C700 C 0.74775 -0.15003 0.67232
 C701 C 0.76626 -0.18316 0.69728
 C702 C 0.73950 -0.22241 0.71540
 C703 C 0.68406 -0.12508 0.63681
 C704 C 0.63865 -0.13255 0.62718
 C705 C 0.61033 -0.16961 0.64613
 C706 C 0.62827 -0.20019 0.67346
 C707 C 0.56475 -0.17628 0.63677
 C708 C 0.54775 -0.14787 0.60803
 C709 C 0.57614 -0.11269 0.58792
 C710 C 0.62140 -0.10449 0.59817
 H711 H 0.67175 -0.25877 0.71869
 H712 H 0.76963 -0.12097 0.65859
 H713 H 0.80221 -0.17930 0.70159
 H714 H 0.70572 -0.09637 0.62245
 H715 H 0.60674 -0.22939 0.68743
 H716 H 0.54244 -0.20417 0.65121
 H717 H 0.51268 -0.15461 0.60078
 H718 H 0.64342 -0.07689 0.58315
 C719 C 0.69010 0.33173 0.21200
 C720 C 0.67036 0.35928 0.18367
 C721 C 0.69693 0.37773 0.15383
 C722 C 0.74287 0.37088 0.15398
 C723 C 0.76101 0.34011 0.18075
 C724 C 0.73377 0.31458 0.20795
 C725 C 0.67710 0.40138 0.12395
 C726 C 0.63039 0.40427 0.12257
 C727 C 0.60363 0.38653 0.15261
 C728 C 0.62396 0.36558 0.18347
 C729 C 0.55681 0.38819 0.15064
 C730 C 0.53658 0.40560 0.11884
 C731 C 0.56279 0.42245 0.08854
 C732 C 0.60988 0.42274 0.09101
 H733 H 0.67031 0.32201 0.23603
 H734 H 0.76444 0.38709 0.13234
 H735 H 0.79636 0.33543 0.17904
 H736 H 0.69773 0.41505 0.10098
 H737 H 0.60332 0.35123 0.20625
 H738 H 0.53570 0.37483 0.17338
 H739 H 0.50032 0.40552 0.11788
 H740 H 0.63056 0.43585 0.06796
 C741 C 0.81207 0.23880 0.18558
 C742 C 0.82970 0.20224 0.16368
 C743 C 0.80283 0.15819 0.15425
 C744 C 0.75869 0.15167 0.16704
 C745 C 0.74203 0.18719 0.19033
 C746 C 0.76893 0.23077 0.20168
 C747 C 0.82059 0.12147 0.13230
 C748 C 0.86525 0.12820 0.12017
 C749 C 0.89242 0.17195 0.13051
 C750 C 0.87442 0.20873 0.15198
 C751 C 0.93695 0.17893 0.11848
 C752 C 0.95378 0.14440 0.09477
 C753 C 0.92662 0.10198 0.08310
 C754 C 0.88281 0.09299 0.09682
 H755 H 0.83400 0.27181 0.19229
 H756 H 0.73718 0.11849 0.15962
 H757 H 0.70796 0.17916 0.19934
 H758 H 0.79970 0.08789 0.12459
 H759 H 0.89524 0.24243 0.15958
 H760 H 0.95826 0.21203 0.12638
 H761 H 0.98767 0.15182 0.08441
 H762 H 0.86155 0.06071 0.08745
 C763 C 0.83065 0.71082 0.69847
 C764 C 0.84792 0.68317 0.67016
 C765 C 0.81843 0.65228 0.64838
 C766 C 0.77233 0.64931 0.65529
 C767 C 0.75553 0.67601 0.68388
 C768 C 0.78434 0.70607 0.70669
 C769 C 0.83537 0.62509 0.61983
 C770 C 0.88157 0.62779 0.61303
 C771 C 0.91134 0.65789 0.63513
 C772 C 0.89428 0.68584 0.66336
 C773 C 0.95768 0.65934 0.62860
 C774 C 0.97427 0.63138 0.60035
 C775 C 0.94473 0.60219 0.57794
 C776 C 0.89842 0.60063 0.58443
 H777 H 0.85344 0.73628 0.71361
 H778 H 0.74920 0.62623 0.63862
 H779 H 0.71960 0.67298 0.68848
 H780 H 0.81263 0.60169 0.60299
 H781 H 0.91703 0.70922 0.68018
 H782 H 0.98105 0.68198 0.64533
 H783 H 1.01011 0.63316 0.59573
 H784 H 0.87545 0.57793 0.56737
 C785 C 0.33723 0.22443 0.69762
 C786 C 0.35647 0.19897 0.66892
 C787 C 0.32919 0.16468 0.64786
 C788 C 0.28347 0.15626 0.65571
 C789 C 0.26494 0.18051 0.68475
 C790 C 0.29156 0.21360 0.70719
 C791 C 0.34786 0.13944 0.61907
 C792 C 0.39373 0.14734 0.61128
 C793 C 0.42151 0.18082 0.63257
 C794 C 0.40259 0.20694 0.66107
 C795 C 0.46769 0.18739 0.62492
 C796 C 0.48594 0.16134 0.59626
 C797 C 0.45824 0.12890 0.57459
 C798 C 0.41216 0.12206 0.58241
 H799 H 0.35802 0.25265 0.71213
 H800 H 0.26199 0.13058 0.63953
 H801 H 0.22941 0.17283 0.69011
 H802 H 0.32670 0.11343 0.60281
 H803 H 0.42376 0.23291 0.67731
 H804 H 0.48963 0.21266 0.64103
 H805 H 0.52150 0.16721 0.59069
 H806 H 0.39053 0.09667 0.56609
 C807 C 0.30698 0.73729 0.20454
 C808 C 0.32612 0.70661 0.17915
 C809 C 0.30497 0.65843 0.17115
 C810 C 0.26589 0.64093 0.19002
 C811 C 0.24761 0.67099 0.21641
 C812 C 0.26781 0.72009 0.22462
 C813 C 0.32292 0.62901 0.14402
 C814 C 0.36240 0.64694 0.12561
 C815 C 0.38471 0.69414 0.13517
 C816 C 0.36608 0.72396 0.16147
 C817 C 0.42518 0.71104 0.11805
 C818 C 0.44301 0.68201 0.09106
 C819 C 0.42013 0.63629 0.08018
 C820 C 0.37992 0.61873 0.09764
 H821 H 0.32238 0.77544 0.20863
 H822 H 0.24914 0.60403 0.18415
 H823 H 0.21685 0.65577 0.22937
 H824 H 0.30619 0.59241 0.13719
 H825 H 0.38270 0.76068 0.16819
 H826 H 0.44287 0.74687 0.12535
 H827 H 0.47400 0.69616 0.07783
 H828 H 0.36247 0.58321 0.08949
   
