data_POSCAR
  _audit_creation_date              2014-09-24
  _audit_creation_method            'ToBaCCo'
  _symmetry_space_group_name_H-M    'P1'
  _symmetry_Int_Tables_number       1
  _symmetry_cell_setting            triclinic
  loop_
  _symmetry_equiv_pos_as_xyz
 x,y,z
_cell_length_a 40.1708
_cell_length_b 40.1702
_cell_length_c 34.1473
_cell_angle_alpha 89.957500
_cell_angle_beta 89.957700
_cell_angle_gamma 90.043000
loop_
  _atom_site_label
  _atom_site_type_symbol
  _atom_site_fract_x
  _atom_site_fract_y
  _atom_site_fract_z
O1 O -0.03210 0.30828 0.03747
 O2 O 0.03312 0.30816 -0.03869
 O3 O -0.03193 0.30818 -0.03880
 O4 O 0.03293 0.30836 0.03759
 O5 O 0.03281 0.25330 0.03767
 O6 O -0.03183 0.25312 -0.03848
 O7 O 0.03298 0.25312 -0.03837
 O8 O -0.03200 0.25323 0.03754
 Cu9 Cu 0.00051 0.31382 -0.00063
 Cu10 Cu 0.00049 0.24766 -0.00039
 C11 C -0.04314 0.28072 0.05022
 C12 C 0.04414 0.28056 -0.05125
 C13 C -0.04291 0.28057 -0.05138
 C14 C 0.04389 0.28081 0.05039
 O15 O 0.53253 0.80770 0.46215
 O16 O 0.46765 0.80780 0.53864
 O17 O 0.53270 0.80758 0.53842
 O18 O 0.46749 0.80778 0.46236
 O19 O 0.46744 0.75272 0.46249
 O20 O 0.53243 0.75253 0.53831
 O21 O 0.46758 0.75275 0.53854
 O22 O 0.53227 0.75265 0.46227
 Cu23 Cu 0.50010 0.81329 0.50040
 Cu24 Cu 0.49991 0.74713 0.50041
 C25 C 0.54343 0.78011 0.44944
 C26 C 0.45658 0.78024 0.55135
 C27 C 0.54366 0.77997 0.55106
 C28 C 0.45638 0.78022 0.44971
 O29 O 0.96741 0.69310 -0.03936
 O30 O 1.03256 0.69292 0.03678
 O31 O 0.96753 0.69294 0.03692
 O32 O 1.03246 0.69297 -0.03951
 O33 O 1.03246 0.74802 -0.03935
 O34 O 0.96773 0.74799 0.03686
 O35 O 1.03255 0.74798 0.03671
 O36 O 0.96762 0.74814 -0.03919
 Cu37 Cu 0.99998 0.68741 -0.00131
 Cu38 Cu 1.00010 0.75357 -0.00124
 C39 C 0.95643 0.72070 -0.05199
 C40 C 1.04362 0.72048 0.04948
 C41 C 0.95660 0.72051 0.04966
 C42 C 1.04351 0.72055 -0.05219
 O43 O 0.53222 0.19115 0.53859
 O44 O 0.46740 0.19104 0.46217
 O45 O 0.53242 0.19128 0.46232
 O46 O 0.46718 0.19109 0.53846
 O47 O 0.46722 0.24615 0.53833
 O48 O 0.53222 0.24633 0.46244
 O49 O 0.46742 0.24610 0.46228
 O50 O 0.53204 0.24620 0.53847
 Cu51 Cu 0.49981 0.18556 0.50039
 Cu52 Cu 0.49971 0.25173 0.50038
 C53 C 0.54315 0.21874 0.55129
 C54 C 0.45640 0.21860 0.44944
 C55 C 0.54340 0.21890 0.44966
 C56 C 0.45612 0.21865 0.55111
 O57 O 0.69168 -0.03214 0.03735
 O58 O 0.69188 0.03308 -0.03880
 O59 O 0.69179 -0.03197 -0.03891
 O60 O 0.69168 0.03289 0.03748
 O61 O 0.74674 0.03279 0.03746
 O62 O 0.74685 -0.03185 -0.03869
 O63 O 0.74693 0.03297 -0.03858
 O64 O 0.74674 -0.03201 0.03733
 Cu65 Cu 0.68618 0.00047 -0.00074
 Cu66 Cu 0.75235 0.00048 -0.00062
 C67 C 0.71924 -0.04315 0.05006
 C68 C 0.71950 0.04411 -0.05142
 C69 C 0.71939 -0.04294 -0.05155
 C70 C 0.71925 0.04385 0.05023
 O71 O 0.19222 0.46728 0.53830
 O72 O 0.19221 0.53216 0.46180
 O73 O 0.19242 0.46712 0.46202
 O74 O 0.19214 0.53233 0.53809
 O75 O 0.24719 0.53238 0.53806
 O76 O 0.24747 0.46739 0.46223
 O77 O 0.24726 0.53222 0.46200
 O78 O 0.24727 0.46754 0.53827
 Cu79 Cu 0.18667 0.49971 0.50005
 Cu80 Cu 0.25283 0.49990 0.50015
 C81 C 0.21979 0.45637 0.55105
 C82 C 0.21978 0.54322 0.44912
 C83 C 0.22005 0.45617 0.44942
 C84 C 0.21968 0.54343 0.55078
 O85 O 0.30708 1.03364 0.03805
 O86 O 0.30700 0.96848 -0.03809
 O87 O 0.30694 1.03353 -0.03824
 O88 O 0.30725 0.96859 0.03818
 O89 O 0.25220 0.96856 0.03831
 O90 O 0.25190 1.03329 -0.03789
 O91 O 0.25195 0.96846 -0.03773
 O92 O 0.25203 1.03339 0.03816
 Cu93 Cu 0.31264 1.00108 -0.00005
 Cu94 Cu 0.24649 1.00091 0.00023
 C95 C 0.27951 1.04459 0.05083
 C96 C 0.27941 0.95738 -0.05062
 C97 C 0.27932 1.04445 -0.05084
 C98 C 0.27973 0.95753 0.05100
 O99 O 0.80901 0.53234 0.53828
 O100 O 0.80879 0.46751 0.46186
 O101 O 0.80887 0.53255 0.46199
 O102 O 0.80874 0.46730 0.53812
 O103 O 0.75369 0.46753 0.53809
 O104 O 0.75382 0.53252 0.46221
 O105 O 0.75374 0.46772 0.46207
 O106 O 0.75395 0.53234 0.53826
 Cu107 Cu 0.81443 0.49992 0.50005
 Cu108 Cu 0.74826 0.50004 0.50017
 C109 C 0.78147 0.54336 0.55103
 C110 C 0.78118 0.45659 0.44921
 C111 C 0.78130 0.54361 0.44938
 C112 C 0.78114 0.45632 0.55081
 O113 O 0.24359 0.19748 0.23775
 O114 O 0.22555 0.27027 0.29975
 O115 O 0.19815 0.24341 0.23809
 O116 O 0.27099 0.22434 0.29944
 O117 O 0.30241 0.25563 0.26127
 O118 O 0.22957 0.27469 0.19991
 O119 O 0.25696 0.30155 0.26157
 O120 O 0.27501 0.22876 0.19957
 Cu121 Cu 0.23143 0.23074 0.27258
 Cu122 Cu 0.26914 0.26829 0.22676
 C123 C 0.26215 0.20071 0.20783
 C124 C 0.23838 0.29833 0.29146
 C125 C 0.20143 0.26209 0.20829
 C126 C 0.29912 0.23697 0.29109
 O127 O 0.75633 0.80233 0.23795
 O128 O 0.77513 0.72951 0.29963
 O129 O 0.80217 0.75681 0.23790
 O130 O 0.72924 0.77501 0.29962
 O131 O 0.69804 0.74359 0.26147
 O132 O 0.77096 0.72537 0.19977
 O133 O 0.74392 0.69808 0.26149
 O134 O 0.72513 0.77090 0.19979
 Cu135 Cu 0.76884 0.76906 0.27260
 Cu136 Cu 0.73139 0.73134 0.22681
 C137 C 0.73774 0.79904 0.20811
 C138 C 0.76252 0.70138 0.29132
 C139 C 0.79900 0.73820 0.20806
 C140 C 0.70120 0.76219 0.29131
 O141 O 0.72933 0.22516 0.29991
 O142 O 0.80216 0.24367 0.23806
 O143 O 0.77508 0.27086 0.29972
 O144 O 0.75636 0.19802 0.23818
 O145 O 0.72504 0.22936 0.20006
 O146 O 0.74378 0.30220 0.26158
 O147 O 0.77085 0.27500 0.19991
 O148 O 0.69802 0.25650 0.26179
 Cu149 Cu 0.76887 0.23129 0.27279
 Cu150 Cu 0.73128 0.26891 0.22702
 C151 C 0.70125 0.23788 0.29164
 C152 C 0.79893 0.26228 0.20820
 C153 C 0.76241 0.29896 0.29138
 C154 C 0.73772 0.20127 0.20838
 O155 O 0.25625 0.69810 0.26131
 O156 O 0.27480 0.77132 0.20011
 O157 O 0.30193 0.74387 0.26163
 O158 O 0.22916 0.72553 0.19972
 O159 O 0.19776 0.75660 0.23804
 O160 O 0.27053 0.77492 0.29998
 O161 O 0.24341 0.80238 0.23846
 O162 O 0.22484 0.72917 0.29962
 Cu163 Cu 0.26868 0.73159 0.22686
 Cu164 Cu 0.23098 0.76888 0.27286
 C165 C 0.23761 0.70116 0.29116
 C166 C 0.26205 0.79934 0.20860
 C167 C 0.29864 0.76231 0.29160
 C168 C 0.20105 0.73817 0.20806
 O169 O 0.75638 0.19729 0.76202
 O170 O 0.77480 0.27012 0.70012
 O171 O 0.80211 0.24301 0.76167
 O172 O 0.72907 0.22440 0.70043
 O173 O 0.69788 0.25574 0.73870
 O174 O 0.77092 0.27435 0.79994
 O175 O 0.74362 0.30146 0.73839
 O176 O 0.72520 0.22863 0.80029
 Cu177 Cu 0.76871 0.23056 0.72723
 Cu178 Cu 0.73127 0.26818 0.77316
 C179 C 0.73786 0.20053 0.79196
 C180 C 0.76216 0.29822 0.70847
 C181 C 0.79898 0.26166 0.79148
 C182 C 0.70102 0.23711 0.70887
 O183 O 0.30143 0.74392 0.73887
 O184 O 0.22822 0.72546 0.80009
 O185 O 0.25569 0.69821 0.73865
 O186 O 0.27395 0.77118 0.80028
 O187 O 0.24287 0.80245 0.76181
 O188 O 0.22461 0.72948 0.70018
 O189 O 0.19714 0.75673 0.76163
 O190 O 0.27035 0.77518 0.70040
 Cu191 Cu 0.26793 0.73156 0.77333
 Cu192 Cu 0.23063 0.76909 0.72715
 C193 C 0.29838 0.76248 0.70895
 C194 C 0.20020 0.73817 0.79156
 C195 C 0.23727 0.70140 0.70865
 C196 C 0.26130 0.79926 0.79180
 O197 O 0.25610 0.30172 0.73904
 O198 O 0.27430 0.22877 0.80071
 O199 O 0.30161 0.25584 0.73902
 O200 O 0.22876 0.27460 0.80068
 O201 O 0.19735 0.24341 0.76249
 O202 O 0.27020 0.22464 0.70085
 O203 O 0.24288 0.19757 0.76254
 O204 O 0.22470 0.27052 0.70085
 Cu205 Cu 0.26834 0.26835 0.77368
 Cu206 Cu 0.23064 0.23091 0.72786
 C207 C 0.23751 0.29856 0.70918
 C208 C 0.26148 0.20073 0.79240
 C209 C 0.29833 0.23726 0.70917
 C210 C 0.20062 0.26198 0.79235
 O211 O 0.74474 0.69788 0.73868
 O212 O 0.72583 0.77090 0.79982
 O213 O 0.69881 0.74333 0.73839
 O214 O 0.77177 0.72545 0.80016
 O215 O 0.80295 0.75677 0.76175
 O216 O 0.72998 0.77464 0.69997
 O217 O 0.75701 0.80221 0.76141
 O218 O 0.77591 0.72919 0.70027
 Cu219 Cu 0.73217 0.73125 0.77311
 Cu220 Cu 0.76959 0.76884 0.72700
 C221 C 0.76332 0.70108 0.70879
 C222 C 0.73840 0.79901 0.79128
 C223 C 0.70195 0.76183 0.70841
 C224 C 0.79980 0.73828 0.79174
 C225 C 0.27614 0.11795 0.12995
 C226 C 0.25723 0.11409 0.16409
 C227 C 0.25328 0.14080 0.18993
 C228 C 0.27924 0.06909 0.07819
 C229 C 0.28770 0.17521 0.14787
 C230 C 0.29160 0.14847 0.12209
 C231 C 0.27827 0.09118 0.10205
 C232 C 0.26816 0.17179 0.18188
 H233 H 0.24505 0.09061 0.17040
 H234 H 0.23808 0.13732 0.21581
 H235 H 0.29947 0.19872 0.14080
 H236 H 0.30621 0.15177 0.09567
 C237 C 0.77804 0.61805 0.63164
 C238 C 0.79333 0.64861 0.62358
 C239 C 0.78922 0.67545 0.64917
 C240 C 0.78124 0.56916 0.58001
 C241 C 0.75498 0.64101 0.69142
 C242 C 0.75913 0.61421 0.66578
 C243 C 0.78023 0.59125 0.60384
 C244 C 0.76965 0.67206 0.68315
 H245 H 0.80791 0.65188 0.59715
 H246 H 0.80083 0.69900 0.64195
 H247 H 0.73977 0.63757 0.71730
 H248 H 0.74709 0.59069 0.67221
 C249 C 0.72291 0.88195 0.13061
 C250 C 0.70772 0.85134 0.12266
 C251 C 0.71189 0.82453 0.14834
 C252 C 0.71951 0.93093 0.07897
 C253 C 0.74601 0.85910 0.19044
 C254 C 0.74179 0.88587 0.16472
 C255 C 0.72060 0.90878 0.10278
 C256 C 0.73142 0.82800 0.18230
 H257 H 0.69315 0.84800 0.09626
 H258 H 0.70034 0.80094 0.14120
 H259 H 0.76119 0.86261 0.21630
 H260 H 0.75376 0.90943 0.17108
 C261 C 0.22330 0.38157 0.63169
 C262 C 0.20785 0.35108 0.62377
 C263 C 0.21183 0.32425 0.64944
 C264 C 0.22010 0.43053 0.58003
 C265 C 0.24628 0.35855 0.69148
 C266 C 0.24226 0.38534 0.66576
 C267 C 0.22113 0.40841 0.60387
 C268 C 0.23142 0.32757 0.68337
 H269 H 0.19321 0.34786 0.59740
 H270 H 0.20007 0.30075 0.64234
 H271 H 0.26152 0.36193 0.71732
 H272 H 0.25442 0.40880 0.67209
 C273 C 0.88190 0.27699 0.13068
 C274 C 0.85134 0.29224 0.12272
 C275 C 0.82451 0.28809 0.14839
 C276 C 0.93092 0.28041 0.07910
 C277 C 0.85895 0.25385 0.19050
 C278 C 0.88573 0.25804 0.16479
 C279 C 0.90876 0.27931 0.10289
 C280 C 0.82791 0.26852 0.18236
 H281 H 0.84806 0.30685 0.09633
 H282 H 0.80097 0.29971 0.14125
 H283 H 0.86240 0.23864 0.21637
 H284 H 0.90925 0.24602 0.17116
 C285 C 0.38165 0.77683 0.63184
 C286 C 0.38531 0.75791 0.66598
 C287 C 0.35844 0.75386 0.69160
 C288 C 0.43071 0.77998 0.58031
 C289 C 0.32427 0.78822 0.64931
 C290 C 0.35118 0.79222 0.62375
 C291 C 0.40855 0.77897 0.60410
 C292 C 0.32748 0.76865 0.68330
 H293 H 0.40876 0.74578 0.67246
 H294 H 0.36174 0.73864 0.71749
 H295 H 0.30079 0.79992 0.64205
 H296 H 0.34804 0.80682 0.59731
 C297 C 0.11833 0.72395 0.13019
 C298 C 0.14891 0.70869 0.12227
 C299 C 0.17564 0.71266 0.14806
 C300 C 0.06948 0.72074 0.07842
 C301 C 0.14109 0.74674 0.19022
 C302 C 0.11440 0.74272 0.16438
 C303 C 0.09157 0.72177 0.10229
 C304 C 0.17214 0.73206 0.18212
 H305 H 0.15227 0.69419 0.09581
 H306 H 0.19919 0.70104 0.14094
 H307 H 0.13756 0.76183 0.21616
 H308 H 0.09087 0.75474 0.17074
 C309 C 0.61793 0.22244 0.63177
 C310 C 0.61417 0.24146 0.66580
 C311 C 0.64099 0.24562 0.69141
 C312 C 0.56898 0.21909 0.58023
 C313 C 0.67529 0.21118 0.64935
 C314 C 0.64843 0.20706 0.62379
 C315 C 0.59109 0.22018 0.60403
 C316 C 0.67198 0.23084 0.68323
 H317 H 0.59070 0.25357 0.67218
 H318 H 0.63762 0.26091 0.71721
 H319 H 0.69879 0.19947 0.64219
 H320 H 0.65164 0.19238 0.59745
 C321 C 0.72326 0.11762 0.86958
 C322 C 0.74216 0.11376 0.83545
 C323 C 0.74631 0.14052 0.80969
 C324 C 0.71987 0.06865 0.92125
 C325 C 0.71213 0.17500 0.85183
 C326 C 0.70802 0.14819 0.87754
 C327 C 0.72097 0.09079 0.89742
 C328 C 0.73166 0.17157 0.81783
 H329 H 0.75417 0.09023 0.82908
 H330 H 0.76149 0.13705 0.78380
 H331 H 0.70053 0.19855 0.85897
 H332 H 0.69344 0.15149 0.90396
 C333 C 0.22325 0.61800 0.36844
 C334 C 0.24228 0.61432 0.33438
 C335 C 0.24632 0.64115 0.30870
 C336 C 0.22008 0.56905 0.42011
 C337 C 0.21174 0.67531 0.35075
 C338 C 0.20774 0.64844 0.37638
 C339 C 0.22109 0.59116 0.39626
 C340 C 0.23142 0.67208 0.31685
 H341 H 0.25449 0.59089 0.32804
 H342 H 0.26163 0.63783 0.28288
 H343 H 0.19994 0.69876 0.35788
 H344 H 0.19305 0.65159 0.40274
 C345 C 0.27569 0.88235 0.86910
 C346 C 0.25687 0.88613 0.83492
 C347 C 0.25278 0.85931 0.80927
 C348 C 0.27905 0.93144 0.92054
 C349 C 0.28687 0.82493 0.85161
 C350 C 0.29092 0.85179 0.87721
 C351 C 0.27795 0.90925 0.89681
 C352 C 0.26743 0.82828 0.81756
 H353 H 0.24487 0.90964 0.82842
 H354 H 0.23766 0.86273 0.78334
 H355 H 0.29848 0.80140 0.85887
 H356 H 0.30544 0.84855 0.90366
 C357 C 0.77730 0.38188 0.36865
 C358 C 0.79258 0.35132 0.37659
 C359 C 0.78839 0.32451 0.35098
 C360 C 0.78078 0.43078 0.42025
 C361 C 0.75407 0.35897 0.30897
 C362 C 0.75831 0.38574 0.33463
 C363 C 0.77964 0.40868 0.39643
 C364 C 0.76875 0.32793 0.31710
 H365 H 0.80724 0.34804 0.40293
 H366 H 0.80002 0.30096 0.35810
 H367 H 0.73880 0.36243 0.28316
 H368 H 0.74627 0.40926 0.32829
 C369 C 0.11767 0.27681 0.86979
 C370 C 0.14828 0.29200 0.87776
 C371 C 0.17510 0.28783 0.85210
 C372 C 0.06869 0.28021 0.92143
 C373 C 0.14055 0.25370 0.80998
 C374 C 0.11378 0.25792 0.83569
 C375 C 0.09083 0.27912 0.89761
 C376 C 0.17165 0.26830 0.81814
 H377 H 0.15161 0.30657 0.90416
 H378 H 0.19869 0.29939 0.85925
 H379 H 0.13706 0.23852 0.78412
 H380 H 0.09022 0.24595 0.82931
 C381 C 0.61822 0.77650 0.36880
 C382 C 0.64871 0.79195 0.37669
 C383 C 0.67554 0.78794 0.35102
 C384 C 0.56927 0.77976 0.42046
 C385 C 0.64122 0.75344 0.30904
 C386 C 0.61444 0.75750 0.33476
 C387 C 0.59138 0.77870 0.39661
 C388 C 0.67221 0.76831 0.31712
 H389 H 0.65193 0.80661 0.40303
 H390 H 0.69903 0.79970 0.35810
 H391 H 0.63783 0.73818 0.28322
 H392 H 0.59097 0.74533 0.32844
 C393 C 0.88283 0.72426 0.86920
 C394 C 0.88658 0.74317 0.83505
 C395 C 0.85978 0.74714 0.80935
 C396 C 0.93187 0.72106 0.92073
 C397 C 0.82550 0.71277 0.85160
 C398 C 0.85234 0.70884 0.87724
 C399 C 0.90971 0.72209 0.89696
 C400 C 0.82881 0.73229 0.81756
 H401 H 0.91005 0.75532 0.82861
 H402 H 0.86317 0.76233 0.78344
 H403 H 0.80201 0.70101 0.85880
 H404 H 0.84912 0.69424 0.90367
 C405 C 0.38190 0.22215 0.36859
 C406 C 0.38584 0.24112 0.33451
 C407 C 0.35914 0.24530 0.30875
 C408 C 0.43064 0.21888 0.42041
 C409 C 0.32458 0.21096 0.35075
 C410 C 0.35133 0.20682 0.37646
 C411 C 0.40862 0.21992 0.39650
 C412 C 0.32807 0.23059 0.31684
 H413 H 0.40938 0.25319 0.32822
 H414 H 0.36265 0.26056 0.28293
 H415 H 0.30101 0.19931 0.35783
 H416 H 0.34797 0.19218 0.40283
 C417 C 0.72327 0.88218 0.86812
 C418 C 0.70807 0.85160 0.87623
 C419 C 0.71233 0.82470 0.85076
 C420 C 0.71976 0.93120 0.91954
 C421 C 0.74657 0.85914 0.80851
 C422 C 0.74226 0.88599 0.83404
 C423 C 0.72091 0.90906 0.89579
 C424 C 0.73198 0.82807 0.81684
 H425 H 0.69342 0.84835 0.90262
 H426 H 0.70076 0.80114 0.85802
 H427 H 0.76184 0.86256 0.78267
 H428 H 0.75425 0.90953 0.82756
 C429 C 0.22399 0.38122 0.36904
 C430 C 0.20861 0.35068 0.37697
 C431 C 0.21267 0.32388 0.35129
 C432 C 0.22049 0.43023 0.42057
 C433 C 0.24711 0.35829 0.30925
 C434 C 0.24300 0.38505 0.33498
 C435 C 0.22166 0.40807 0.39681
 C436 C 0.23229 0.32727 0.31735
 H437 H 0.19393 0.34740 0.40333
 H438 H 0.20094 0.30036 0.35840
 H439 H 0.26236 0.36174 0.28341
 H440 H 0.25512 0.40855 0.32862
 C441 C 0.27572 0.11779 0.86999
 C442 C 0.25670 0.11401 0.83596
 C443 C 0.25267 0.14077 0.81020
 C444 C 0.27894 0.06891 0.92174
 C445 C 0.28723 0.17508 0.85211
 C446 C 0.29121 0.14827 0.87782
 C447 C 0.27789 0.09099 0.89785
 C448 C 0.26758 0.17174 0.81822
 H449 H 0.24450 0.09054 0.82969
 H450 H 0.23739 0.13737 0.78440
 H451 H 0.29903 0.19857 0.85915
 H452 H 0.30589 0.15151 0.90415
 C453 C 0.77749 0.61848 0.36881
 C454 C 0.75854 0.61456 0.33475
 C455 C 0.75428 0.64131 0.30903
 C456 C 0.78099 0.56952 0.42046
 C457 C 0.78846 0.67590 0.35104
 C458 C 0.79268 0.64910 0.37671
 C459 C 0.77986 0.59166 0.39664
 C460 C 0.76887 0.67242 0.31712
 H461 H 0.74657 0.59099 0.32842
 H462 H 0.73905 0.63780 0.28320
 H463 H 0.80003 0.69949 0.35814
 H464 H 0.80730 0.65245 0.40307
 C465 C 0.11699 0.72390 0.86878
 C466 C 0.11331 0.74282 0.83464
 C467 C 0.14016 0.74684 0.80898
 C468 C 0.06800 0.72083 0.92042
 C469 C 0.17433 0.71245 0.85122
 C470 C 0.14745 0.70847 0.87683
 C471 C 0.09012 0.72180 0.89657
 C472 C 0.17111 0.73202 0.81723
 H473 H 0.08987 0.75498 0.82821
 H474 H 0.13684 0.76206 0.78309
 H475 H 0.19780 0.70071 0.85844
 H476 H 0.15060 0.69387 0.90325
 C477 C 0.61832 0.22296 0.36916
 C478 C 0.61447 0.24202 0.33515
 C479 C 0.64124 0.24629 0.30943
 C480 C 0.56933 0.21933 0.42076
 C481 C 0.67570 0.21191 0.35136
 C482 C 0.64889 0.20768 0.37703
 C483 C 0.59148 0.22053 0.39696
 C484 C 0.67229 0.23158 0.31748
 H485 H 0.59095 0.25406 0.32884
 H486 H 0.63778 0.26159 0.28363
 H487 H 0.69924 0.20026 0.35843
 H488 H 0.65217 0.19298 0.40336
 C489 C 0.88218 0.27664 0.86832
 C490 C 0.85165 0.29195 0.87637
 C491 C 0.82475 0.28771 0.85090
 C492 C 0.93122 0.28017 0.91972
 C493 C 0.85905 0.25329 0.80881
 C494 C 0.88591 0.25757 0.83433
 C495 C 0.90907 0.27901 0.89598
 C496 C 0.82804 0.26800 0.81706
 H497 H 0.84847 0.30666 0.90268
 H498 H 0.80124 0.29937 0.85810
 H499 H 0.86241 0.23798 0.78303
 H500 H 0.90940 0.24551 0.82791
 C501 C 0.38149 0.77668 0.36924
 C502 C 0.35090 0.79186 0.37727
 C503 C 0.32411 0.78783 0.35157
 C504 C 0.43046 0.77996 0.42084
 C505 C 0.35865 0.75385 0.30927
 C506 C 0.38539 0.75793 0.33502
 C507 C 0.40832 0.77891 0.39705
 C508 C 0.32758 0.76845 0.31748
 H509 H 0.34757 0.80633 0.40375
 H510 H 0.30054 0.79938 0.35877
 H511 H 0.36216 0.73878 0.28332
 H512 H 0.40894 0.74597 0.32859
 C513 C 0.27644 0.88260 0.13150
 C514 C 0.25748 0.88626 0.16561
 C515 C 0.25343 0.85939 0.19123
 C516 C 0.27953 0.93165 0.07995
 C517 C 0.28786 0.82524 0.14901
 C518 C 0.29187 0.85215 0.12344
 C519 C 0.27857 0.90949 0.10374
 C520 C 0.26825 0.82844 0.18297
 H521 H 0.24533 0.90970 0.17206
 H522 H 0.23818 0.86269 0.21710
 H523 H 0.29959 0.80177 0.14178
 H524 H 0.30650 0.84901 0.09703
 C525 C 0.77709 0.38126 0.63112
 C526 C 0.79225 0.35066 0.62309
 C527 C 0.78801 0.32380 0.64869
 C528 C 0.78073 0.43035 0.57966
 C529 C 0.75386 0.35828 0.69087
 C530 C 0.75814 0.38509 0.66522
 C531 C 0.77953 0.40816 0.60340
 C532 C 0.76844 0.32720 0.68267
 H533 H 0.80686 0.34738 0.59670
 H534 H 0.79956 0.30024 0.64151
 H535 H 0.73865 0.36173 0.71675
 H536 H 0.74619 0.40864 0.67164
 C537 C 0.72289 0.11844 0.13096
 C538 C 0.74191 0.11455 0.16497
 C539 C 0.74612 0.14128 0.19069
 C540 C 0.71954 0.06963 0.07923
 C541 C 0.71173 0.17576 0.14877
 C542 C 0.70757 0.14898 0.12311
 C543 C 0.72061 0.09169 0.10311
 C544 C 0.73140 0.17232 0.18263
 H545 H 0.75398 0.09103 0.17126
 H546 H 0.76140 0.13781 0.21648
 H547 H 0.70007 0.19930 0.14170
 H548 H 0.69290 0.15229 0.09678
 C549 C 0.22307 0.61839 0.63119
 C550 C 0.20781 0.64894 0.62311
 C551 C 0.21178 0.67577 0.64877
 C552 C 0.21990 0.56937 0.57965
 C553 C 0.24586 0.64138 0.69111
 C554 C 0.24184 0.61459 0.66541
 C555 C 0.22091 0.59153 0.60342
 C556 C 0.23118 0.67240 0.68285
 H557 H 0.19332 0.65219 0.59664
 H558 H 0.20016 0.69929 0.64153
 H559 H 0.26095 0.63795 0.71707
 H560 H 0.25387 0.59109 0.67188
 C561 C 0.88191 0.72399 0.13043
 C562 C 0.88571 0.74299 0.16446
 C563 C 0.85895 0.74701 0.19024
 C564 C 0.93078 0.72080 0.07867
 C565 C 0.82463 0.71247 0.14833
 C566 C 0.85142 0.70850 0.12260
 C567 C 0.90870 0.72183 0.10255
 C568 C 0.82798 0.73211 0.18222
 H569 H 0.90917 0.75519 0.17073
 H570 H 0.86236 0.76228 0.21605
 H571 H 0.80114 0.70067 0.14129
 H572 H 0.84818 0.69383 0.09626
 C573 C 0.38124 0.22238 0.63168
 C574 C 0.35063 0.20717 0.62376
 C575 C 0.32383 0.21136 0.64943
 C576 C 0.43021 0.21894 0.58003
 C577 C 0.35839 0.24554 0.69148
 C578 C 0.38515 0.24131 0.66576
 C579 C 0.40807 0.22004 0.60385
 C580 C 0.32729 0.23093 0.68337
 H581 H 0.34730 0.19257 0.59739
 H582 H 0.30024 0.19979 0.64232
 H583 H 0.36189 0.26075 0.71732
 H584 H 0.40871 0.25329 0.67209
 C585 C 0.11854 0.27716 0.13104
 C586 C 0.14913 0.29240 0.12308
 C587 C 0.17593 0.28817 0.14870
 C588 C 0.06969 0.28054 0.07937
 C589 C 0.14137 0.25390 0.19077
 C590 C 0.11461 0.25818 0.16510
 C591 C 0.09176 0.27947 0.10321
 C592 C 0.17246 0.26852 0.18261
 H593 H 0.15247 0.30705 0.09671
 H594 H 0.19952 0.29976 0.14156
 H595 H 0.13787 0.23863 0.21660
 H596 H 0.09106 0.24616 0.17146
 C597 C 0.61880 0.77612 0.63118
 C598 C 0.64933 0.79148 0.62308
 C599 C 0.67621 0.78744 0.64863
 C600 C 0.56964 0.77956 0.57985
 C601 C 0.64193 0.75309 0.69091
 C602 C 0.61508 0.75717 0.66531
 C603 C 0.59186 0.77842 0.60353
 C604 C 0.67292 0.76788 0.68264
 H605 H 0.65252 0.80611 0.59667
 H606 H 0.69971 0.79915 0.64139
 H607 H 0.63855 0.73788 0.71681
 H608 H 0.59160 0.74507 0.67180
   
