data_POSCAR
  _audit_creation_date              2014-09-24
  _audit_creation_method            'ToBaCCo'
  _symmetry_space_group_name_H-M    'P1'
  _symmetry_Int_Tables_number       1
  _symmetry_cell_setting            triclinic
  loop_
  _symmetry_equiv_pos_as_xyz
 x,y,z
_cell_length_a 46.3177
_cell_length_b 42.5321
_cell_length_c 42.1714
_cell_angle_alpha 89.601900
_cell_angle_beta 91.907200
_cell_angle_gamma 89.676700
loop_
  _atom_site_label
  _atom_site_type_symbol
  _atom_site_fract_x
  _atom_site_fract_y
  _atom_site_fract_z
C1 C 0.16518 0.18659 0.17329
 C2 C 0.16847 0.19939 0.14301
 C3 C 0.19111 0.18997 0.12456
 C4 C 0.21097 0.16729 0.13655
 C5 C 0.20767 0.15492 0.16654
 C6 C 0.18452 0.16429 0.18469
 C7 C 0.14478 0.19075 0.19599
 N8 N 0.15099 0.17071 0.22066
 C9 C 0.17560 0.15479 0.21379
 C10 C 0.22982 0.13411 0.17267
 N11 N 0.24692 0.13303 0.14708
 C12 C 0.23524 0.15325 0.12470
 C13 C 0.18870 0.20698 0.09654
 N14 N 0.16510 0.22613 0.09776
 C15 C 0.15281 0.22152 0.12620
 H16 H 0.12604 0.20601 0.19372
 H17 H 0.18681 0.13772 0.22890
 H18 H 0.23257 0.12025 0.19417
 H19 H 0.24409 0.15845 0.10185
 H20 H 0.20311 0.20560 0.07691
 H21 H 0.13430 0.23417 0.13470
 C22 C -0.13577 0.81819 0.19521
 C23 C -0.14225 0.79661 0.17089
 C24 C -0.16814 0.79909 0.15373
 C25 C -0.18792 0.82300 0.16058
 C26 C -0.18144 0.84442 0.18407
 C27 C -0.15513 0.84200 0.20146
 C28 C -0.11268 0.82129 0.21648
 N29 N -0.11736 0.84660 0.23547
 C30 C -0.14347 0.85923 0.22609
 C31 C -0.20473 0.86463 0.18567
 N32 N -0.22557 0.85584 0.16389
 C33 C -0.21506 0.83029 0.14843
 C34 C -0.16883 0.77519 0.13192
 N35 N -0.14399 0.75808 0.13522
 C36 C -0.12764 0.77108 0.15914
 H37 H -0.09376 0.80628 0.21737
 H38 H -0.15422 0.87884 0.23693
 H39 H -0.20646 0.88354 0.20251
 H40 H -0.22582 0.81785 0.12920
 H41 H -0.18608 0.77101 0.11456
 H42 H -0.10677 0.76247 0.16773
 C43 C -0.18027 0.16357 -0.20327
 C44 C -0.18256 0.18535 -0.17863
 C45 C -0.20398 0.18227 -0.15664
 C46 C -0.22360 0.15702 -0.15923
 C47 C -0.22123 0.13596 -0.18377
 C48 C -0.19946 0.13918 -0.20569
 C49 C -0.16156 0.16053 -0.22783
 N50 N -0.16895 0.13462 -0.24530
 C51 C -0.19235 0.12166 -0.23146
 C52 C -0.24283 0.11435 -0.18139
 N53 N -0.25886 0.12119 -0.15580
 C54 C -0.24693 0.14737 -0.14199
 C55 C -0.20073 0.20711 -0.13581
 N56 N -0.17791 0.22495 -0.14467
 C57 C -0.16690 0.21164 -0.17093
 H58 H -0.14409 0.17650 -0.23230
 H59 H -0.20359 0.10062 -0.23876
 H60 H -0.24580 0.09462 -0.19713
 H61 H -0.25484 0.15935 -0.12146
 H62 H -0.21394 0.21166 -0.11565
 H63 H -0.14911 0.22073 -0.18415
 C64 C 0.12967 0.86284 -0.15171
 C65 C 0.13423 0.83737 -0.13096
 C66 C 0.16003 0.83428 -0.11376
 C67 C 0.18154 0.85721 -0.11674
 C68 C 0.17693 0.88242 -0.13706
 C69 C 0.15093 0.88504 -0.15497
 C70 C 0.10907 0.86818 -0.17536
 N71 N 0.11745 0.89282 -0.19365
 C72 C 0.14295 0.90351 -0.18069
 C73 C 0.20229 0.89901 -0.13774
 N74 N 0.22257 0.88479 -0.11815
 C75 C 0.20969 0.85897 -0.10538
 C76 C 0.16004 0.80488 -0.09974
 N77 N 0.13493 0.79014 -0.10818
 C78 C 0.11901 0.81016 -0.12703
 H79 H 0.09107 0.85278 -0.18062
 H80 H 0.15590 0.92234 -0.18988
 H81 H 0.20555 0.91927 -0.15275
 H82 H 0.21967 0.84204 -0.08920
 H83 H 0.17793 0.79424 -0.08636
 H84 H 0.09828 0.80500 -0.13831
 C85 C 0.16486 1.10733 0.86184
 C86 C 0.18479 1.10930 0.88752
 C87 C 0.18045 1.13064 0.91145
 C88 C 0.15621 1.15056 0.90991
 C89 C 0.13670 1.14874 0.88459
 C90 C 0.14106 1.12695 0.86039
 C91 C 0.16539 1.09148 0.83352
 N92 N 0.14260 1.10119 0.81446
 C93 C 0.12764 1.12294 0.83116
 C94 C 0.11808 1.17383 0.88664
 N95 N 0.12587 1.19150 0.91244
 C96 C 0.14914 1.17680 0.92690
 C97 C 0.20479 1.13009 0.93107
 N98 N 0.22407 1.10911 0.91956
 C99 C 0.21177 1.09636 0.89284
 H100 H 0.18253 1.07575 0.82684
 H101 H 0.10856 1.13567 0.82292
 H102 H 0.10111 1.17918 0.86924
 H103 H 0.16199 1.18562 0.94672
 H104 H 0.20833 1.14486 0.95156
 H105 H 0.22217 1.08033 0.87699
 C106 C 0.81887 0.87527 0.79646
 C107 C 0.79684 0.87371 0.81845
 C108 C 0.79537 0.84821 0.83846
 C109 C 0.81582 0.82407 0.83714
 C110 C 0.83766 0.82525 0.81572
 C111 C 0.83918 0.85138 0.79486
 C112 C 0.82454 0.89687 0.77330
 N113 N 0.84793 0.88728 0.75693
 C114 C 0.85701 0.85931 0.77036
 C115 C 0.85363 0.79777 0.82027
 N116 N 0.84188 0.78016 0.84396
 C117 C 0.81864 0.79670 0.85402
 C118 C 0.77118 0.85177 0.85606
 N119 N 0.75766 0.87911 0.84739
 C120 C 0.77344 0.89274 0.82432
 H121 H 0.81206 0.91812 0.76927
 H122 H 0.87473 0.84493 0.76266
 H123 H 0.87230 0.79146 0.80695
 H124 H 0.80424 0.79004 0.87245
 H125 H 0.76352 0.83479 0.87298
 H126 H 0.76830 0.91469 0.81228
 C127 C 0.16828 0.84578 1.18916
 C128 C 0.19206 0.83947 1.16994
 C129 C 0.18887 0.81850 1.14503
 C130 C 0.16233 0.80397 1.13858
 C131 C 0.13914 0.81063 1.15691
 C132 C 0.14218 0.83138 1.18231
 C133 C 0.16482 0.86218 1.21712
 N134 N 0.13743 0.85743 1.22746
 C135 C 0.12367 0.83883 1.20565
 C136 C 0.11702 0.79115 1.14743
 N137 N 0.12629 0.77227 1.12388
 C138 C 0.15409 0.78027 1.11824
 C139 C 0.21510 0.81525 1.13137
 N140 N 0.23449 0.83387 1.14689
 C141 C 0.22066 0.84884 1.17058
 H142 H 0.18175 0.87482 1.22977
 H143 H 0.10162 0.83075 1.20624
 H144 H 0.09611 0.79020 1.15801
 H145 H 0.16814 0.76839 1.10214
 H146 H 0.21964 0.80067 1.11116
 H147 H 0.23072 0.86501 1.18723
 C148 C 0.80873 1.17275 1.19470
 C149 C 0.78703 1.17238 1.17079
 C150 C 0.78656 1.19500 1.14737
 C151 C 0.80737 1.21852 1.14763
 C152 C 0.82888 1.21929 1.17118
 C153 C 0.82966 1.19579 1.19505
 C154 C 0.81417 1.15337 1.22025
 N155 N 0.83815 1.16351 1.23676
 C156 C 0.84768 1.18969 1.22120
 C157 C 0.84524 1.24572 1.16525
 N158 N 0.83372 1.26070 1.13901
 C159 C 0.81072 1.24391 1.12815
 C160 C 0.76300 1.18958 1.12770
 N161 N 0.74870 1.16416 1.13875
 C162 C 0.76342 1.15347 1.16521
 H163 H 0.80148 1.13287 1.22544
 H164 H 0.86609 1.20382 1.22818
 H165 H 0.86365 1.25380 1.17936
 H166 H 0.79734 1.24962 1.10735
 H167 H 0.75689 1.20333 1.10686
 H168 H 0.75711 1.13400 1.18003
 N169 N 0.47009 0.91597 0.98795
 N170 N 0.44688 0.89830 0.98573
 N171 N 0.53097 0.93613 0.96722
 N172 N 0.55437 0.93377 0.95053
 N173 N 0.53098 0.91476 0.98987
 N174 N 0.55477 0.89740 0.98919
 N175 N 0.47003 0.93705 0.96504
 N176 N 0.44632 0.93442 0.94682
 C177 C 0.43227 0.90986 0.95992
 C178 C 0.56898 0.90941 0.96424
 N179 N 0.53145 1.02633 0.98636
 N180 N 0.55395 1.04485 0.98472
 N181 N 0.47127 1.00446 0.96231
 N182 N 0.44749 1.00488 0.94436
 N183 N 0.47061 1.02666 0.98374
 N184 N 0.44613 1.04280 0.98076
 N185 N 0.53226 1.00416 0.96491
 N186 N 0.55563 1.00735 0.94780
 Mn187 Mn 0.50122 0.97040 0.96442
 C188 C 0.56890 1.03302 0.96063
 C189 C 0.43207 1.02905 0.95581
 N190 N 0.53065 0.91619 1.05794
 N191 N 0.55262 0.89666 1.06146
 N192 N 0.47146 0.94040 1.07804
 N193 N 0.44814 0.94109 1.09494
 N194 N 0.46970 0.91819 1.05658
 N195 N 0.44482 0.90309 1.05858
 N196 N 0.53241 0.93880 1.07893
 N197 N 0.55609 0.93523 1.09724
 Mn198 Mn 0.50026 0.91585 1.02308
 C199 C 0.56833 0.90853 1.08605
 C200 C 0.43176 0.91766 1.08294
 N201 N 0.47155 1.02862 1.05189
 N202 N 0.44716 1.04447 1.04977
 N203 N 0.53243 1.00653 1.07649
 N204 N 0.55595 1.00890 1.09477
 N205 N 0.53198 1.02805 1.05405
 N206 N 0.55516 1.04585 1.05659
 N207 N 0.47121 1.00783 1.07507
 N208 N 0.44612 1.00923 1.08931
 Mn209 Mn 0.50135 1.02773 1.01902
 Mn210 Mn 0.50201 0.97342 1.07760
 Cl211 Cl 0.50120 0.97181 1.02102
 C212 C 0.43157 1.03252 1.07330
 C213 C 0.56981 1.03367 1.08219
 N214 N -0.04440 0.46992 0.00046
 N215 N -0.06245 0.44753 0.00879
 N216 N -0.01792 0.53539 0.01516
 N217 N -0.01713 0.56027 0.03357
 N218 N -0.04095 0.53607 -0.00388
 N219 N -0.05669 0.56148 0.00147
 N220 N -0.02138 0.46971 0.01949
 N221 N -0.02296 0.44728 0.04098
 C222 C -0.04861 0.43361 0.03415
 C223 C -0.04137 0.57639 0.02489
 N224 N 0.06053 0.52827 -0.01542
 N225 N 0.07786 0.55281 -0.01645
 N226 N 0.03966 0.46451 0.01246
 N227 N 0.04081 0.43872 0.03001
 N228 N 0.05735 0.46231 -0.01110
 N229 N 0.07130 0.43515 -0.00992
 N230 N 0.04322 0.53059 0.00844
 N231 N 0.04821 0.55670 0.02423
 Mn232 Mn 0.01096 0.50006 0.01418
 C233 C 0.06997 0.57025 0.00861
 C234 C 0.06088 0.42080 0.01597
 N235 N -0.04924 0.53259 -0.07242
 N236 N -0.06420 0.55912 -0.07520
 N237 N -0.03524 0.46381 -0.09176
 N238 N -0.03970 0.43735 -0.10715
 N239 N -0.05274 0.46612 -0.06796
 N240 N -0.06963 0.44110 -0.06674
 N241 N -0.03181 0.52970 -0.09621
 N242 N -0.03443 0.55402 -0.11565
 Mn243 Mn -0.04735 0.50122 -0.03597
 C244 C -0.05479 0.57214 -0.10245
 C245 C -0.06132 0.42347 -0.09160
 N246 N 0.04891 0.45898 -0.07854
 N247 N 0.06181 0.43132 -0.07798
 N248 N 0.02977 0.52547 -0.10265
 N249 N 0.02976 0.55177 -0.11962
 N250 N 0.05227 0.52460 -0.08289
 N251 N 0.06805 0.55000 -0.08594
 N252 N 0.02636 0.45890 -0.09825
 N253 N 0.02347 0.43098 -0.11160
 Mn254 Mn 0.05506 0.49354 -0.04709
 Mn255 Mn -0.00279 0.49445 -0.09766
 Cl256 Cl 0.00387 0.49733 -0.04164
 C257 C 0.04598 0.41416 -0.09889
 C258 C 0.05405 0.56661 -0.10913
 N259 N 0.99276 0.08434 0.46716
 N260 N 0.98915 0.10426 0.44325
 N261 N 0.97213 0.06105 0.53287
 N262 N 0.95402 0.06413 0.55610
 N263 N 0.99140 0.08359 0.53376
 N264 N 0.98696 0.10253 0.55783
 N265 N 0.97278 0.06257 0.46615
 N266 N 0.95498 0.06717 0.44137
 C267 C 0.96552 0.09329 0.42728
 C268 C 0.96352 0.09009 0.57152
 N269 N 0.99375 -0.02878 0.53212
 N270 N 0.99080 -0.04894 0.55565
 N271 N 0.97414 -0.00497 0.46552
 N272 N 0.95673 -0.00728 0.44041
 N273 N 0.99451 -0.02658 0.46522
 N274 N 0.99117 -0.04444 0.43970
 N275 N 0.97343 -0.00712 0.53229
 N276 N 0.95597 -0.01220 0.55600
 Mn277 Mn 0.97276 0.02785 0.49931
 C278 C 0.96714 -0.03847 0.57038
 C279 C 0.96739 -0.03194 0.42445
 N280 N 1.05328 0.08455 0.53759
 N281 N 1.05287 0.10073 0.56412
 N282 N 1.07567 0.06386 0.47325
 N283 N 1.09162 0.06398 0.44816
 N284 N 1.05501 0.08503 0.47044
 N285 N 1.05642 0.10003 0.44285
 N286 N 1.07328 0.06257 0.53955
 N287 N 1.08699 0.06329 0.56752
 Mn288 Mn 1.02316 0.08481 0.50212
 C289 C 1.07421 0.08750 0.58246
 C290 C 1.07974 0.08667 0.42948
 N291 N 1.05737 -0.02527 0.46923
 N292 N 1.06206 -0.04318 0.44440
 N293 N 1.07508 -0.00482 0.53765
 N294 N 1.09155 -0.00711 0.56349
 N295 N 1.05572 -0.02722 0.53651
 N296 N 1.05825 -0.04512 0.56234
 N297 N 1.07704 -0.00323 0.47171
 N298 N 1.09562 -0.00560 0.44881
 Mn299 Mn 1.02536 -0.02748 0.50063
 Mn300 Mn 1.07549 0.02965 0.50566
 Cl301 Cl 1.02411 0.02865 0.50189
 C302 C 1.08609 -0.03060 0.43192
 C303 C 1.08104 -0.03231 0.57867
 C304 C 1.13795 0.13786 0.26438
 C305 C 1.12291 0.13299 0.29203
 C306 C 1.10453 0.15664 0.30339
 C307 C 1.10067 0.18451 0.28570
 C308 C 1.11553 0.18909 0.25760
 C309 C 1.13505 0.16610 0.24704
 C310 C 1.09074 0.15202 0.33230
 C311 C 1.09533 0.12396 0.34970
 C312 C 1.11307 0.10008 0.33725
 C313 C 1.12653 0.10469 0.30858
 C314 C 1.11783 0.07205 0.35399
 C315 C 1.10616 0.06798 0.38352
 C316 C 1.08931 0.09172 0.39693
 C317 C 1.08324 0.11948 0.37963
 H318 H 1.15145 0.11899 0.25611
 H319 H 1.08647 0.20292 0.29378
 H320 H 1.11258 0.21119 0.24505
 H321 H 1.07700 0.17033 0.34147
 H322 H 1.14044 0.08645 0.29950
 H323 H 1.13112 0.05350 0.34456
 H324 H 1.11070 0.04612 0.39607
 H325 H 1.07015 0.13778 0.38981
 C326 C 0.89607 -0.11279 0.27316
 C327 C 0.91304 -0.10231 0.29909
 C328 C 0.93501 -0.12180 0.31255
 C329 C 0.94008 -0.15128 0.29907
 C330 C 0.92314 -0.16160 0.27305
 C331 C 0.90038 -0.14281 0.25994
 C332 C 0.95126 -0.11158 0.33937
 C333 C 0.94562 -0.08206 0.35282
 C334 C 0.92395 -0.06246 0.33861
 C335 C 0.90798 -0.07261 0.31190
 C336 C 0.91809 -0.03309 0.35161
 C337 C 0.93288 -0.02339 0.37901
 C338 C 0.95400 -0.04270 0.39406
 C339 C 0.96075 -0.07192 0.38051
 H340 H 0.87976 -0.09699 0.26320
 H341 H 0.95692 -0.16659 0.30893
 H342 H 0.92744 -0.18486 0.26416
 H343 H 0.96791 -0.12670 0.34996
 H344 H 0.89120 -0.05756 0.30140
 H345 H 0.90168 -0.01776 0.34088
 H346 H 0.92743 -0.00065 0.38865
 H347 H 0.97702 -0.08697 0.39189
 C348 C 0.87022 0.13717 0.71754
 C349 C 0.88401 0.12535 0.69087
 C350 C 0.87217 0.09932 0.67455
 C351 C 0.84680 0.08566 0.68491
 C352 C 0.83316 0.09747 0.71129
 C353 C 0.84453 0.12339 0.72839
 C354 C 0.88577 0.08731 0.64803
 C355 C 0.91112 0.10108 0.63745
 C356 C 0.92312 0.12718 0.65362
 C357 C 0.90951 0.13914 0.68029
 C358 C 0.94849 0.14085 0.64272
 C359 C 0.96174 0.12883 0.61599
 C360 C 0.94985 0.10294 0.59982
 C361 C 0.92457 0.08914 0.61080
 H362 H 0.87999 0.15688 0.72971
 H363 H 0.83738 0.06576 0.67252
 H364 H 0.81347 0.08601 0.71765
 H365 H 0.87660 0.06728 0.63559
 H366 H 0.91869 0.15916 0.69272
 H367 H 0.95804 0.16084 0.65481
 H368 H 0.98129 0.13977 0.60801
 H369 H 0.91522 0.06914 0.59849
 C370 C 1.12018 -0.08043 0.75569
 C371 C 1.10871 -0.07447 0.72510
 C372 C 1.08081 -0.08516 0.71625
 C373 C 1.06466 -0.10131 0.73855
 C374 C 1.07648 -0.10786 0.76885
 C375 C 1.10472 -0.09812 0.77780
 C376 C 1.06974 -0.07986 0.68521
 C377 C 1.08649 -0.06425 0.66290
 C378 C 1.11444 -0.05358 0.67207
 C379 C 1.12526 -0.05864 0.70301
 C380 C 1.13123 -0.03783 0.65020
 C381 C 1.12035 -0.03208 0.61962
 C382 C 1.09255 -0.04214 0.61015
 C383 C 1.07575 -0.05869 0.63173
 H384 H 1.14192 -0.07267 0.76120
 H385 H 1.04304 -0.10935 0.73241
 H386 H 1.06319 -0.12046 0.78518
 H387 H 1.04830 -0.08804 0.67839
 H388 H 1.14672 -0.05045 0.70981
 H389 H 1.15267 -0.02956 0.65686
 H390 H 1.13366 -0.01926 0.60338
 H391 H 1.05417 -0.06619 0.62464
 C392 C 0.28311 1.10866 1.11502
 C393 C 0.30849 1.09075 1.11277
 C394 C 0.32310 1.07949 1.14056
 C395 C 0.31148 1.08539 1.17011
 C396 C 0.28598 1.10278 1.17222
 C397 C 0.27151 1.11514 1.14478
 C398 C 0.34934 1.06305 1.13840
 C399 C 0.36123 1.05792 1.10871
 C400 C 0.34590 1.06822 1.08086
 C401 C 0.31963 1.08435 1.08306
 C402 C 0.35759 1.06325 1.05119
 C403 C 0.38498 1.05005 1.04915
 C404 C 0.40106 1.04118 1.07662
 C405 C 0.38871 1.04397 1.10638
 H406 H 0.27222 1.11687 1.09341
 H407 H 0.32234 1.07693 1.19171
 H408 H 0.27848 1.10747 1.19571
 H409 H 0.36083 1.05501 1.15980
 H410 H 0.30829 1.09269 1.06166
 H411 H 0.34600 1.07057 1.02963
 H412 H 0.39401 1.04745 1.02596
 H413 H 0.40111 1.03716 1.12761
 C414 C 0.27077 0.87565 0.90506
 C415 C 0.29938 0.88548 0.91062
 C416 C 0.30867 0.91442 0.89809
 C417 C 0.28916 0.93299 0.88009
 C418 C 0.26068 0.92318 0.87467
 C419 C 0.25074 0.89431 0.88706
 C420 C 0.33720 0.92444 0.90401
 C421 C 0.35648 0.90599 0.92268
 C422 C 0.34713 0.87690 0.93506
 C423 C 0.31878 0.86676 0.92880
 C424 C 0.36615 0.85856 0.95399
 C425 C 0.39396 0.86922 0.96131
 C426 C 0.40348 0.89824 0.94957
 C427 C 0.38477 0.91636 0.92978
 H428 H 0.26461 0.85322 0.91479
 H429 H 0.29586 0.95534 0.87035
 H430 H 0.24662 0.93890 0.86111
 H431 H 0.34427 0.94670 0.89440
 H432 H 0.31170 0.84450 0.93847
 H433 H 0.35937 0.83618 0.96358
 H434 H 0.40800 0.85478 0.97651
 H435 H 0.39187 0.93885 0.92079
 C436 C 0.72562 0.85399 1.14130
 C437 C 0.69837 0.86789 1.13576
 C438 C 0.69258 0.89825 1.14734
 C439 C 0.71422 0.91393 1.16493
 C440 C 0.74131 0.89979 1.17075
 C441 C 0.74769 0.86965 1.15875
 C442 C 0.66534 0.91234 1.14104
 C443 C 0.64385 0.89623 1.12335
 C444 C 0.64982 0.86557 1.11234
 C445 C 0.67686 0.85166 1.11864
 C446 C 0.62879 0.84927 1.09467
 C447 C 0.60227 0.86335 1.08716
 C448 C 0.59597 0.89398 1.09728
 C449 C 0.61672 0.91026 1.11591
 H450 H 0.72904 0.83050 1.13253
 H451 H 0.71027 0.93725 1.17407
 H452 H 0.75738 0.91315 1.18392
 H453 H 0.66098 0.93580 1.14964
 H454 H 0.68127 0.82823 1.10991
 H455 H 0.63302 0.82575 1.08618
 H456 H 0.58669 0.85020 1.07294
 H457 H 0.61212 0.93394 1.12372
 C458 C 0.70595 1.10895 0.88401
 C459 C 0.68201 1.09149 0.89369
 C460 C 0.66889 1.06950 0.87288
 C461 C 0.68005 1.06512 0.84287
 C462 C 0.70393 1.08227 0.83344
 C463 C 0.71747 1.10456 0.85374
 C464 C 0.64468 1.05241 0.88225
 C465 C 0.63329 1.05710 0.91227
 C466 C 0.64673 1.07883 0.93325
 C467 C 0.67098 1.09574 0.92391
 C468 C 0.63543 1.08374 0.96315
 C469 C 0.61059 1.06806 0.97190
 C470 C 0.59656 1.04689 0.95111
 C471 C 0.60836 1.04097 0.92146
 H472 H 0.71582 1.12531 0.90056
 H473 H 0.67019 1.04851 0.82649
 H474 H 0.71100 1.07831 0.80967
 H475 H 0.63455 1.03576 0.86608
 H476 H 0.68105 1.11248 0.94005
 H477 H 0.64551 1.10015 0.97960
 H478 H 0.60215 1.07285 0.99504
 H479 H 0.59769 1.02472 0.90528
 C480 C 0.12638 0.25914 0.07383
 C481 C 0.11769 0.28628 0.05722
 C482 C 0.13782 0.30301 0.03928
 C483 C 0.16620 0.29150 0.03758
 C484 C 0.17505 0.26509 0.05550
 C485 C 0.15541 0.24938 0.07471
 C486 C 0.12960 0.33167 0.02478
 C487 C 0.10206 0.34447 0.02960
 C488 C 0.08199 0.32740 0.04745
 C489 C 0.08965 0.29802 0.06027
 C490 C 0.05501 0.34062 0.05353
 C491 C 0.04831 0.37102 0.04315
 C492 C 0.06810 0.38837 0.02579
 C493 C 0.09467 0.37468 0.01824
 H494 H 0.11081 0.24664 0.08770
 H495 H 0.18192 0.30387 0.02379
 H496 H 0.19753 0.25802 0.05563
 H497 H 0.14507 0.34474 0.01123
 H498 H 0.07434 0.28520 0.07429
 H499 H 0.03942 0.32782 0.06714
 H500 H 0.02757 0.38101 0.04867
 H501 H 0.11000 0.38803 0.00479
 C502 C -0.13857 0.26302 -0.13396
 C503 C -0.12858 0.29188 -0.12215
 C504 C -0.14715 0.31141 -0.10500
 C505 C -0.17543 0.30136 -0.09972
 C506 C -0.18542 0.27272 -0.11210
 C507 C -0.16725 0.25341 -0.12979
 C508 C -0.13726 0.34080 -0.09399
 C509 C -0.10922 0.35108 -0.10060
 C510 C -0.09082 0.33127 -0.11781
 C511 C -0.10045 0.30175 -0.12804
 C512 C -0.06317 0.34151 -0.12519
 C513 C -0.05392 0.37138 -0.11634
 C514 C -0.07185 0.39152 -0.09939
 C515 C -0.09940 0.38105 -0.09103
 H516 H -0.12395 0.24820 -0.14675
 H517 H -0.19004 0.31594 -0.08660
 H518 H -0.20761 0.26617 -0.10853
 H519 H -0.15154 0.35588 -0.08096
 H520 H -0.08626 0.28677 -0.14134
 H521 H -0.04882 0.32659 -0.13830
 H522 H -0.03252 0.37873 -0.12277
 H523 H -0.11339 0.39648 -0.07804
 C524 C 0.10858 0.74135 -0.12193
 C525 C 0.10168 0.70990 -0.11588
 C526 C 0.11437 0.69434 -0.08915
 C527 C 0.13345 0.71065 -0.06874
 C528 C 0.14004 0.74210 -0.07483
 C529 C 0.12775 0.75782 -0.10149
 C530 C 0.10784 0.66276 -0.08331
 C531 C 0.08854 0.64667 -0.10367
 C532 C 0.07549 0.66232 -0.13016
 C533 C 0.08230 0.69382 -0.13623
 C534 C 0.05571 0.64618 -0.14998
 C535 C 0.04876 0.61487 -0.14346
 C536 C 0.06185 0.59916 -0.11733
 C537 C 0.08187 0.61520 -0.09769
 H538 H 0.09933 0.75270 -0.14296
 H539 H 0.14325 0.69909 -0.04804
 H540 H 0.15462 0.75416 -0.05853
 H541 H 0.11771 0.65072 -0.06292
 H542 H 0.07243 0.70585 -0.15663
 H543 H 0.04542 0.65786 -0.17033
 H544 H 0.03319 0.60295 -0.15880
 H545 H 0.09187 0.60340 -0.07723
 C546 C -0.10738 0.72259 0.11256
 C547 C -0.10010 0.69637 0.09427
 C548 C -0.12215 0.67832 0.07939
 C549 C -0.15111 0.68677 0.08321
 C550 C -0.15818 0.71274 0.10161
 C551 C -0.13648 0.73104 0.11648
 C552 C -0.11494 0.65198 0.06125
 C553 C -0.08592 0.64310 0.05822
 C554 C -0.06390 0.66115 0.07327
 C555 C -0.07110 0.68778 0.09087
 C556 C -0.03497 0.65191 0.07102
 C557 C -0.02791 0.62463 0.05474
 C558 C -0.04952 0.60636 0.03983
 C559 C -0.07853 0.61603 0.04112
 H560 H -0.09033 0.73655 0.12346
 H561 H -0.16833 0.67312 0.07217
 H562 H -0.18077 0.71820 0.10450
 H563 H -0.13191 0.63813 0.04992
 H564 H -0.05414 0.70152 0.10237
 H565 H -0.01783 0.66542 0.08239
 H566 H -0.00540 0.61770 0.05397
 H567 H -0.09533 0.60189 0.02992
 C568 C 1.11744 0.10962 0.76364
 C569 C 1.11270 0.10155 0.73172
 C570 C 1.12719 0.07541 0.71911
 C571 C 1.14611 0.05770 0.73877
 C572 C 1.15103 0.06606 0.77048
 C573 C 1.13698 0.09233 0.78356
 C574 C 1.12265 0.06753 0.68705
 C575 C 1.10392 0.08569 0.66741
 C576 C 1.08944 0.11188 0.68012
 C577 C 1.09388 0.11959 0.71214
 C578 C 1.07067 0.12997 0.66060
 C579 C 1.06609 0.12213 0.62878
 C580 C 1.08028 0.09617 0.61584
 C581 C 1.09930 0.07805 0.63529
 H582 H 1.10650 0.13020 0.77224
 H583 H 1.15725 0.03740 0.72959
 H584 H 1.16557 0.05134 0.78467
 H585 H 1.13377 0.04742 0.67739
 H586 H 1.08275 0.13971 0.72179
 H587 H 1.05942 0.15010 0.66997
 H588 H 1.05125 0.13636 0.61431
 H589 H 1.11019 0.05783 0.62558
 C590 C 0.88539 -0.10736 0.71776
 C591 C 0.89684 -0.09130 0.69167
 C592 C 0.88234 -0.06462 0.67874
 C593 C 0.85681 -0.05434 0.69208
 C594 C 0.84554 -0.07023 0.71788
 C595 C 0.85944 -0.09715 0.73145
 C596 C 0.89346 -0.04865 0.65258
 C597 C 0.91900 -0.05903 0.63900
 C598 C 0.93369 -0.08563 0.65203
 C599 C 0.92257 -0.10154 0.67824
 C600 C 0.95923 -0.09599 0.63849
 C601 C 0.96999 -0.08041 0.61216
 C602 C 0.95549 -0.05412 0.59875
 C603 C 0.93002 -0.04339 0.61247
 H604 H 0.89710 -0.12752 0.72730
 H605 H 0.84535 -0.03395 0.68241
 H606 H 0.82551 -0.06118 0.72648
 H607 H 0.88215 -0.02822 0.64272
 H608 H 0.93388 -0.12197 0.68808
 H609 H 0.97085 -0.11625 0.64817
 H610 H 0.98973 -0.08910 0.60220
 H611 H 0.91868 -0.02311 0.60240
 C612 C 1.13900 -0.10828 0.27362
 C613 C 1.12645 -0.09769 0.30167
 C614 C 1.10064 -0.11151 0.31187
 C615 C 1.08778 -0.13548 0.29410
 C616 C 1.10007 -0.14567 0.26629
 C617 C 1.12582 -0.13228 0.25521
 C618 C 1.08791 -0.10121 0.33966
 C619 C 1.10047 -0.07694 0.35748
 C620 C 1.12619 -0.06281 0.34737
 C621 C 1.13909 -0.07333 0.31960
 C622 C 1.13848 -0.03830 0.36520
 C623 C 1.12543 -0.02795 0.39271
 C624 C 1.09990 -0.04195 0.40297
 C625 C 1.08755 -0.06651 0.38520
 H626 H 1.15850 -0.09709 0.26590
 H627 H 1.06813 -0.14651 0.30174
 H628 H 1.08936 -0.16485 0.25424
 H629 H 1.06812 -0.11200 0.34733
 H630 H 1.15884 -0.06251 0.31191
 H631 H 1.15813 -0.02708 0.35785
 H632 H 1.13537 -0.00894 0.40598
 H633 H 1.06780 -0.07737 0.39280
 C634 C 0.87730 0.15910 0.27677
 C635 C 0.88970 0.14408 0.30385
 C636 C 0.87502 0.11909 0.31838
 C637 C 0.84819 0.10968 0.30589
 C638 C 0.83595 0.12461 0.27912
 C639 C 0.85023 0.14949 0.26368
 C640 C 0.88727 0.10386 0.34524
 C641 C 0.91409 0.11341 0.35802
 C642 C 0.92884 0.13852 0.34364
 C643 C 0.91662 0.15362 0.31662
 C644 C 0.95554 0.14819 0.35665
 C645 C 0.96741 0.13331 0.38375
 C646 C 0.95292 0.10837 0.39825
 C647 C 0.92629 0.09839 0.38510
 H648 H 0.88923 0.17781 0.26588
 H649 H 0.83651 0.09073 0.31690
 H650 H 0.81495 0.11646 0.27120
 H651 H 0.87589 0.08466 0.35626
 H652 H 0.92801 0.17283 0.30562
 H653 H 0.96719 0.16736 0.34599
 H654 H 0.98802 0.14138 0.39336
 H655 H 0.91491 0.07921 0.39613
 C656 C 0.09467 0.23641 -0.10029
 C657 C 0.08634 0.26756 -0.09449
 C658 C 0.09759 0.28313 -0.06739
 C659 C 0.11593 0.26693 -0.04586
 C660 C 0.12437 0.23606 -0.05188
 C661 C 0.11482 0.22047 -0.07981
 C662 C 0.09090 0.31485 -0.06259
 C663 C 0.07328 0.33130 -0.08479
 C664 C 0.06114 0.31555 -0.11140
 C665 C 0.06767 0.28369 -0.11603
 C666 C 0.04310 0.33213 -0.13318
 C667 C 0.03774 0.36423 -0.12903
 C668 C 0.05060 0.38019 -0.10326
 C669 C 0.06803 0.36345 -0.08101
 H670 H 0.08622 0.22557 -0.12168
 H671 H 0.12430 0.27836 -0.02464
 H672 H 0.13868 0.22487 -0.03446
 H673 H 0.09996 0.32693 -0.04203
 H674 H 0.05881 0.27171 -0.13675
 H675 H 0.03340 0.32038 -0.15357
 H676 H 0.02398 0.37669 -0.14623
 H677 H 0.07762 0.37545 -0.06067
 C678 C -0.12698 0.29675 0.12459
 C679 C -0.11736 0.32277 0.10721
 C680 C -0.13751 0.34156 0.08949
 C681 C -0.16696 0.33470 0.09032
 C682 C -0.17633 0.30889 0.10764
 C683 C -0.15646 0.28922 0.12434
 C684 C -0.12792 0.36672 0.07102
 C685 C -0.09843 0.37369 0.07031
 C686 C -0.07836 0.35546 0.08875
 C687 C -0.08791 0.33001 0.10686
 C688 C -0.04902 0.36310 0.08892
 C689 C -0.03965 0.38860 0.07114
 C690 C -0.05926 0.40648 0.05223
 C691 C -0.08868 0.39882 0.05174
 H692 H -0.11148 0.28175 0.13729
 H693 H -0.18275 0.34906 0.07726
 H694 H -0.19924 0.30412 0.10769
 H695 H -0.14340 0.38085 0.05719
 H696 H -0.07242 0.31585 0.12063
 H697 H -0.03335 0.34958 0.10305
 H698 H -0.01691 0.39430 0.07215
 H699 H -0.10398 0.41278 0.03754
 C700 C -0.12408 0.73592 -0.15543
 C701 C -0.11486 0.70662 -0.14270
 C702 C -0.13039 0.69240 -0.11821
 C703 C -0.15483 0.70734 -0.10699
 C704 C -0.16395 0.73615 -0.11965
 C705 C -0.14885 0.75138 -0.14407
 C706 C -0.12142 0.66336 -0.10526
 C707 C -0.09709 0.64800 -0.11661
 C708 C -0.08148 0.66197 -0.14125
 C709 C -0.09038 0.69122 -0.15406
 C710 C -0.05727 0.64635 -0.15270
 C711 C -0.04875 0.61716 -0.14005
 C712 C -0.06412 0.60308 -0.11554
 C713 C -0.08823 0.61876 -0.10380
 H714 H -0.11175 0.74634 -0.17405
 H715 H -0.16706 0.69667 -0.08831
 H716 H -0.18312 0.74594 -0.10976
 H717 H -0.13346 0.65265 -0.08641
 H718 H -0.07835 0.70190 -0.17292
 H719 H -0.04496 0.65666 -0.17151
 H720 H -0.02994 0.60565 -0.14936
 H721 H -0.10026 0.60808 -0.08496
 C722 C 0.12015 0.73141 0.08248
 C723 C 0.10700 0.70382 0.07124
 C724 C 0.08357 0.69097 0.08751
 C725 C 0.07346 0.70602 0.11437
 C726 C 0.08706 0.73298 0.12583
 C727 C 0.11083 0.74585 0.11037
 C728 C 0.07107 0.66281 0.07725
 C729 C 0.08214 0.64686 0.05138
 C730 C 0.10539 0.65969 0.03479
 C731 C 0.11747 0.68836 0.04459
 C732 C 0.11650 0.64324 0.00912
 C733 C 0.10497 0.61411 0.00035
 C734 C 0.08212 0.60113 0.01707
 C735 C 0.07063 0.61785 0.04232
 H736 H 0.13796 0.74118 0.06978
 H737 H 0.05552 0.69644 0.12709
 H738 H 0.07931 0.74298 0.14743
 H739 H 0.05322 0.65289 0.08993
 H740 H 0.13544 0.69816 0.03204
 H741 H 0.13434 0.65268 -0.00386
 H742 H 0.11407 0.60163 -0.01929
 H743 H 0.05289 0.60811 0.05527
 C744 C 0.26934 1.07770 0.92074
 C745 C 0.29834 1.07334 0.93030
 C746 C 0.31164 1.09436 0.95199
 C747 C 0.29556 1.11947 0.96368
 C748 C 0.26681 1.12414 0.95343
 C749 C 0.25332 1.10347 0.93158
 C750 C 0.34082 1.09009 0.96131
 C751 C 0.35690 1.06527 0.94880
 C752 C 0.34349 1.04453 0.92680
 C753 C 0.31432 1.04851 0.91795
 C754 C 0.35950 1.02013 0.91379
 C755 C 0.38844 1.01587 0.92280
 C756 C 0.40196 1.03579 0.94515
 C757 C 0.38615 1.06075 0.95786
 H758 H 0.25947 1.06098 0.90458
 H759 H 0.30536 1.13588 0.98032
 H760 H 0.25553 1.14438 0.96228
 H761 H 0.35102 1.10616 0.97804
 H762 H 0.30413 1.03248 0.90114
 H763 H 0.34961 1.00428 0.89669
 H764 H 0.40016 0.99658 0.91250
 H765 H 0.39647 1.07643 0.97486
 C766 C 0.27778 0.86670 1.14006
 C767 C 0.30561 0.87069 1.12832
 C768 C 0.32025 0.84485 1.11512
 C769 C 0.30697 0.81536 1.11433
 C770 C 0.27921 0.81168 1.12571
 C771 C 0.26417 0.83732 1.13829
 C772 C 0.34777 0.84895 1.10266
 C773 C 0.36093 0.87859 1.10330
 C774 C 0.34628 0.90432 1.11680
 C775 C 0.31878 0.90024 1.12908
 C776 C 0.35945 0.93380 1.11801
 C777 C 0.38704 0.93775 1.10653
 C778 C 0.40194 0.91247 1.09312
 C779 C 0.38861 0.88294 1.09109
 H780 H 0.26628 0.88667 1.14941
 H781 H 0.31787 0.79522 1.10450
 H782 H 0.26931 0.78871 1.12444
 H783 H 0.35890 0.82911 1.09248
 H784 H 0.30762 0.92008 1.13922
 H785 H 0.34855 0.95377 1.12817
 H786 H 0.39677 0.96081 1.10815
 H787 H 0.40006 0.86332 1.08096
 C788 C 0.71343 1.12090 1.13280
 C789 C 0.68726 1.10903 1.12046
 C790 C 0.66975 1.12783 1.09971
 C791 C 0.67852 1.15825 1.09197
 C792 C 0.70429 1.17013 1.10484
 C793 C 0.72213 1.15164 1.12535
 C794 C 0.64358 1.11610 1.08735
 C795 C 0.63435 1.08607 1.09608
 C796 C 0.65164 1.06736 1.11717
 C797 C 0.67818 1.07880 1.12891
 C798 C 0.64190 1.03765 1.12644
 C799 C 0.61514 1.02673 1.11517
 C800 C 0.59798 1.04515 1.09409
 C801 C 0.60782 1.07468 1.08440
 H802 H 0.72693 1.10608 1.14815
 H803 H 0.66524 1.17306 1.07630
 H804 H 0.70986 1.19406 1.09900
 H805 H 0.63020 1.13052 1.07135
 H806 H 0.69150 1.06443 1.14500
 H807 H 0.65484 1.02300 1.14261
 H808 H 0.60796 1.00377 1.12277
 H809 H 0.59459 1.08904 1.06822
 C810 C 0.71968 0.87802 0.88763
 C811 C 0.69239 0.88706 0.89800
 C812 C 0.67589 0.90949 0.88030
 C813 C 0.68692 0.92244 0.85261
 C814 C 0.71379 0.91279 0.84205
 C815 C 0.73050 0.89029 0.85922
 C816 C 0.64849 0.91833 0.89030
 C817 C 0.63715 0.90465 0.91753
 C818 C 0.65352 0.88212 0.93526
 C819 C 0.68117 0.87363 0.92551
 C820 C 0.64183 0.86838 0.96233
 C821 C 0.61417 0.87689 0.97174
 C822 C 0.59785 0.89934 0.95426
 C823 C 0.60956 0.91312 0.92719
 H824 H 0.73229 0.86125 0.90173
 H825 H 0.67450 0.93964 0.83875
 H826 H 0.72106 0.92255 0.82001
 H827 H 0.63585 0.93558 0.87669
 H828 H 0.69376 0.85630 0.93906
 H829 H 0.65407 0.85106 0.97622
 H830 H 0.60565 0.86614 0.99279
 H831 H 0.59718 0.93052 0.91353
   
