data_POSCAR
  _audit_creation_date              2014-09-24
  _audit_creation_method            'ToBaCCo'
  _symmetry_space_group_name_H-M    'P1'
  _symmetry_Int_Tables_number       1
  _symmetry_cell_setting            triclinic
  loop_
  _symmetry_equiv_pos_as_xyz
 x,y,z
_cell_length_a 36.1847
_cell_length_b 36.6915
_cell_length_c 36.1582
_cell_angle_alpha 90.436600
_cell_angle_beta 89.420100
_cell_angle_gamma 119.748300
loop_
  _atom_site_label
  _atom_site_type_symbol
  _atom_site_fract_x
  _atom_site_fract_y
  _atom_site_fract_z
C1 C 0.52082 0.06186 0.05268
 H2 H 0.55119 0.06283 0.05174
 C3 C 0.51563 0.09029 0.07487
 H4 H 0.54234 0.11327 0.09081
 C5 C 0.44982 0.03184 0.03156
 H6 H 0.42450 0.00949 0.01415
 C7 C 0.44326 0.05980 0.05331
 H8 H 0.41253 0.05811 0.05295
 N9 N 0.48811 0.03325 0.03178
 C10 C 0.51971 -0.06531 0.01083
 H11 H 0.51964 -0.06573 -0.01909
 C12 C 0.52644 -0.09424 0.03022
 H13 H 0.53223 -0.11644 0.01496
 C14 C 0.51159 -0.03611 0.06692
 H15 H 0.50467 -0.01417 0.08113
 C16 C 0.51816 -0.06449 0.08742
 H17 H 0.51622 -0.06398 0.11731
 Zn18 Zn 0.49949 -0.00186 0.00082
 N19 N 0.51252 -0.03700 0.02932
 C20 C 0.58310 0.03304 -0.03015
 N21 N 0.54590 0.03383 -0.02997
 C22 C 0.54119 0.06206 -0.05060
 C23 C 0.57441 0.09057 -0.07306
 C24 C 0.61727 0.06113 -0.05220
 C25 C 0.41590 -0.06624 -0.00982
 C26 C 0.38017 -0.09526 -0.02941
 C27 C 0.41813 -0.06464 -0.08626
 C28 C 0.45308 -0.03629 -0.06543
 N29 N 0.45135 -0.03750 -0.02794
 H30 H 0.58655 0.01098 -0.01295
 H31 H 0.51155 0.06253 -0.04934
 H32 H 0.57015 0.11314 -0.08887
 H33 H 0.64654 0.05988 -0.05225
 H34 H 0.41544 -0.06665 0.02010
 H35 H 0.35248 -0.11590 -0.01315
 H36 H 0.42265 -0.06328 -0.11587
 H37 H 0.48205 -0.01411 -0.07943
 C38 C 0.52535 -0.09432 0.06907
 C39 C 0.47647 0.08959 0.07530
 C40 C 0.38038 -0.09561 -0.06866
 C41 C 0.61313 0.09038 -0.07406
 C42 C -0.06497 0.48013 0.61914
 H43 H -0.06534 0.45048 0.61976
 C44 C -0.09415 0.48446 0.59741
 H45 H -0.11651 0.45809 0.58088
 C46 C -0.03524 0.55040 0.64019
 H47 H -0.01280 0.57570 0.65751
 C48 C -0.06390 0.55614 0.61874
 H49 H -0.06319 0.58598 0.61974
 N50 N -0.03624 0.51283 0.63988
 C51 C 0.06521 0.48385 0.65855
 H52 H 0.06548 0.48340 0.68846
 C53 C 0.09492 0.47797 0.63830
 H54 H 0.11761 0.47236 0.65286
 C55 C 0.03547 0.49222 0.60336
 H56 H 0.01298 0.49883 0.58984
 C57 C 0.06458 0.48648 0.58204
 H58 H 0.06407 0.48876 0.55223
 Zn59 Zn -0.00067 0.50185 0.67023
 N60 N 0.03620 0.49068 0.64090
 C61 C -0.03523 0.41873 0.69875
 N62 N -0.03712 0.45485 0.69953
 C63 C -0.06735 0.45792 0.71973
 C64 C -0.09716 0.42391 0.74044
 C65 C -0.06447 0.38387 0.71915
 C66 C 0.06354 0.58445 0.68368
 C67 C 0.09206 0.61895 0.70472
 C68 C 0.05915 0.57911 0.76012
 C69 C 0.03128 0.54538 0.73803
 N70 N 0.03393 0.54862 0.70053
 H71 H -0.01164 0.41657 0.68181
 H72 H -0.06843 0.48686 0.71945
 H73 H -0.12075 0.42717 0.75656
 H74 H -0.06302 0.35512 0.71770
 H75 H 0.06548 0.58588 0.65380
 H76 H 0.11604 0.64682 0.69075
 H77 H 0.05648 0.57592 0.78991
 H78 H 0.00817 0.51640 0.75094
 C79 C 0.09500 0.47948 0.59949
 C80 C -0.09407 0.52277 0.59720
 C81 C 0.09033 0.61641 0.74350
 C82 C -0.09617 0.38613 0.74015
 C83 C 0.54625 0.48018 0.37966
 H84 H 0.51668 0.45060 0.37920
 C85 C 0.58005 0.48448 0.40102
 H86 H 0.57600 0.45816 0.41742
 C87 C 0.58715 0.55032 0.35865
 H88 H 0.59002 0.57559 0.34152
 C89 C 0.62185 0.55603 0.37973
 H90 H 0.65121 0.58581 0.37862
 N91 N 0.55026 0.51284 0.35915
 C92 C 0.41964 0.48479 0.34231
 H93 H 0.41848 0.48435 0.31242
 C94 C 0.38438 0.47908 0.36301
 H95 H 0.35588 0.47362 0.34879
 C96 C 0.45853 0.49287 0.39703
 H97 H 0.48780 0.49926 0.41019
 C98 C 0.42402 0.48731 0.41879
 H99 H 0.42723 0.48951 0.44858
 Zn100 Zn 0.50315 0.50206 0.32949
 N101 N 0.45570 0.49137 0.35950
 C102 C 0.45286 0.41888 0.30116
 N103 N 0.49124 0.45479 0.29987
 C104 C 0.52375 0.45748 0.27869
 C105 C 0.51820 0.42342 0.25722
 C106 C 0.44594 0.38394 0.28014
 C107 C 0.52242 0.58482 0.31656
 C108 C 0.52837 0.61928 0.29576
 C109 C 0.51960 0.57899 0.24012
 C110 C 0.51381 0.54532 0.26197
 N111 N 0.51532 0.54879 0.29947
 H112 H 0.42771 0.41703 0.31877
 H113 H 0.55421 0.48615 0.27879
 H114 H 0.54472 0.42605 0.24098
 H115 H 0.41512 0.35570 0.28128
 H116 H 0.52260 0.58644 0.34645
 H117 H 0.53295 0.64731 0.30993
 H118 H 0.51834 0.57560 0.21032
 H119 H 0.50722 0.51619 0.24886
 C120 C 0.38637 0.48052 0.40181
 C121 C 0.61859 0.52271 0.40109
 C122 C 0.52660 0.61648 0.25699
 C123 C 0.47890 0.38596 0.25779
 C124 C 0.18992 0.47047 0.53384
 C125 C 0.14759 0.45060 0.52209
 C126 C 0.11655 0.45296 0.54367
 C127 C 0.12749 0.47529 0.57732
 C128 C 0.17005 0.49468 0.58911
 C129 C 0.20102 0.49230 0.56748
 C130 C 0.22225 0.46970 0.51090
 C131 C 0.24971 0.46990 0.49159
 C132 C 0.28293 0.47112 0.46849
 C133 C 0.29356 0.49320 0.43511
 C134 C 0.32682 0.49580 0.41320
 C135 C 0.34999 0.47637 0.42443
 C136 C 0.33876 0.45387 0.45788
 C137 C 0.30545 0.45130 0.47975
 H138 H 0.13865 0.43360 0.49609
 H139 H 0.08399 0.43728 0.53406
 H140 H 0.17962 0.51261 0.61458
 H141 H 0.23374 0.50798 0.57675
 H142 H 0.27647 0.50885 0.42622
 H143 H 0.33505 0.51386 0.38790
 H144 H 0.35565 0.43817 0.46706
 H145 H 0.29746 0.43411 0.50555
 C146 C 0.53554 0.81189 0.13166
 C147 C 0.55551 0.85351 0.14416
 C148 C 0.55272 0.88421 0.12362
 C149 C 0.52988 0.87362 0.09027
 C150 C 0.51032 0.83176 0.07779
 C151 C 0.51314 0.80116 0.09836
 C152 C 0.53678 0.77981 0.15336
 C153 C 0.53670 0.75220 0.17129
 C154 C 0.53526 0.71838 0.19234
 C155 C 0.56194 0.72676 0.22277
 C156 C 0.55948 0.69368 0.24368
 C157 C 0.53028 0.65177 0.23434
 C158 C 0.50382 0.64375 0.20353
 C159 C 0.50633 0.67683 0.18272
 H160 H 0.57294 0.86215 0.16991
 H161 H 0.56851 0.91622 0.13375
 H162 H 0.49194 0.82243 0.05258
 H163 H 0.49735 0.76900 0.08854
 H164 H 0.58447 0.75883 0.23045
 H165 H 0.58056 0.70085 0.26699
 H166 H 0.48053 0.61192 0.19597
 H167 H 0.48537 0.67000 0.15933
 C168 C 0.27739 0.81283 0.86946
 C169 C 0.30746 0.85014 0.85277
 C170 C 0.34129 0.88084 0.87328
 C171 C 0.34622 0.87505 0.91138
 C172 C 0.31448 0.83701 0.92769
 C173 C 0.28080 0.80650 0.90695
 C174 C 0.24384 0.78033 0.84791
 C175 C 0.21615 0.75250 0.83000
 C176 C 0.18361 0.71857 0.80884
 C177 C 0.16593 0.72683 0.77797
 C178 C 0.13525 0.69365 0.75687
 C179 C 0.12188 0.65177 0.76643
 C180 C 0.13967 0.64388 0.79769
 C181 C 0.17030 0.67705 0.81871
 H182 H 0.30484 0.85557 0.82374
 H183 H 0.36227 0.90959 0.85888
 H184 H 0.31623 0.82873 0.95593
 H185 H 0.25784 0.77742 0.92009
 H186 H 0.17601 0.75887 0.77009
 H187 H 0.12184 0.70074 0.73320
 H188 H 0.13061 0.61206 0.80545
 H189 H 0.18395 0.67031 0.84243
 C190 C 0.81373 0.53428 0.53177
 C191 C 0.85568 0.56759 0.53337
 C192 C 0.88569 0.56419 0.55502
 C193 C 0.87407 0.52732 0.57515
 C194 C 0.83168 0.49431 0.57369
 C195 C 0.80180 0.49780 0.55214
 C196 C 0.78288 0.53657 0.50856
 C197 C 0.75601 0.53657 0.48911
 C198 C 0.72282 0.53430 0.46596
 C199 C 0.71448 0.56766 0.46454
 C200 C 0.68092 0.56425 0.44304
 C201 C 0.65522 0.52730 0.42289
 C202 C 0.66432 0.49424 0.42415
 C203 C 0.69784 0.49775 0.44554
 H204 H 0.86528 0.59592 0.51759
 H205 H 0.91816 0.58997 0.55536
 H206 H 0.82157 0.46582 0.58935
 H207 H 0.76940 0.47186 0.55116
 H208 H 0.73353 0.59605 0.48035
 H209 H 0.67446 0.59007 0.44285
 H210 H 0.64559 0.46569 0.40847
 H211 H 0.70406 0.47176 0.44639
 C212 C 0.46434 0.18270 0.13878
 C213 C 0.48538 0.16290 0.15362
 C214 C 0.48865 0.13207 0.13328
 C215 C 0.47093 0.12064 0.09774
 C216 C 0.44915 0.14018 0.08333
 C217 C 0.44596 0.17106 0.10372
 C218 C 0.46329 0.21616 0.15891
 C219 C 0.46356 0.24482 0.17567
 C220 C 0.46526 0.27973 0.19557
 C221 C 0.44725 0.27401 0.23097
 C222 C 0.45095 0.30842 0.25100
 C223 C 0.47288 0.34905 0.23586
 C224 C 0.49025 0.35433 0.20000
 C225 C 0.48646 0.31989 0.18003
 H226 H 0.49972 0.17167 0.18074
 H227 H 0.50512 0.11723 0.14532
 H228 H 0.43565 0.13246 0.05588
 H229 H 0.42981 0.18636 0.09189
 H230 H 0.43096 0.24307 0.24333
 H231 H 0.43770 0.30342 0.27869
 H232 H 0.50681 0.38511 0.18741
 H233 H 0.50050 0.32468 0.15264
 C234 C -0.28348 0.18301 0.86048
 C235 C -0.27557 0.17234 0.89544
 C236 C -0.30904 0.14158 0.91649
 C237 C -0.35088 0.12124 0.90284
 C238 C -0.35831 0.13168 0.86738
 C239 C -0.32484 0.16236 0.84639
 C240 C -0.24973 0.21642 0.83966
 C241 C -0.22225 0.24501 0.82213
 C242 C -0.19048 0.27980 0.80109
 C243 C -0.14811 0.28870 0.80052
 C244 C -0.11736 0.32313 0.78052
 C245 C -0.12866 0.34914 0.76097
 C246 C -0.17141 0.33967 0.76154
 C247 C -0.20204 0.30528 0.78146
 H248 H -0.24371 0.18830 0.90669
 H249 H -0.30238 0.13459 0.94385
 H250 H -0.39006 0.11618 0.85591
 H251 H -0.33132 0.17038 0.81936
 H252 H -0.13881 0.26923 0.81571
 H253 H -0.08466 0.32984 0.78088
 H254 H -0.18126 0.35865 0.74628
 H255 H -0.23476 0.29861 0.78163
   
