data_POSCAR
  _audit_creation_date              2014-09-24
  _audit_creation_method            'ToBaCCo'
  _symmetry_space_group_name_H-M    'P1'
  _symmetry_Int_Tables_number       1
  _symmetry_cell_setting            triclinic
  loop_
  _symmetry_equiv_pos_as_xyz
 x,y,z
_cell_length_a 41.7984
_cell_length_b 42.1132
_cell_length_c 41.4837
_cell_angle_alpha 93.454200
_cell_angle_beta 90.590800
_cell_angle_gamma 93.040700
loop_
  _atom_site_label
  _atom_site_type_symbol
  _atom_site_fract_x
  _atom_site_fract_y
  _atom_site_fract_z
N1 N 0.65701 0.64553 0.63185
 N2 N 0.84721 0.34632 0.11395
 N3 N 0.36384 0.11295 -0.11254
 N4 N 0.10753 0.90370 0.40576
 N5 N 0.06865 0.16956 0.12975
 N6 N 0.05954 0.15583 0.15600
 C7 C 0.03421 0.17053 0.16844
 C8 C 0.02683 0.19459 0.14870
 C9 C 0.04924 0.19321 0.12435
 H10 H 0.02159 0.16363 0.18976
 H11 H 0.05139 0.20827 0.10419
 Cu12 Cu 0.08044 0.11894 0.17034
 Cu13 Cu 0.10419 0.15490 0.10400
 Cu14 Cu 0.15287 0.10299 0.14064
 N15 N 0.10816 0.09048 0.19104
 N16 N 0.13663 0.08470 0.17967
 C17 C 0.15073 0.06456 0.19864
 C18 C 0.12997 0.05722 0.22329
 C19 C 0.10314 0.07418 0.21762
 H20 H 0.17414 0.05553 0.19443
 H21 H 0.08169 0.07495 0.23192
 N22 N 0.16472 0.12387 0.10086
 N23 N 0.14634 0.14392 0.08719
 C24 C 0.16112 0.15459 0.06093
 C25 C 0.18999 0.14022 0.05765
 C26 C 0.19145 0.12084 0.08332
 H27 H 0.15140 0.17124 0.04508
 H28 H 0.21077 0.10594 0.08896
 H29 H 0.10945 0.10931 0.11972
 H30 H 0.12704 0.14378 0.14550
 N31 N 0.43621 0.82654 0.59059
 N32 N 0.45085 0.83955 0.61670
 C33 C 0.47751 0.82395 0.62212
 C34 C 0.47978 0.79999 0.59801
 C35 C 0.45315 0.80243 0.57838
 H36 H 0.49417 0.82967 0.64199
 H37 H 0.44622 0.78732 0.55720
 Cu38 Cu 0.43351 0.87551 0.64104
 Cu39 Cu 0.39566 0.84098 0.57509
 Cu40 Cu 0.36447 0.90536 0.61777
 N41 N 0.41625 0.91219 0.66423
 N42 N 0.38904 0.92346 0.65526
 C43 C 0.38214 0.94805 0.67580
 C44 C 0.40643 0.95260 0.69883
 C45 C 0.42772 0.92943 0.69065
 H46 H 0.36109 0.96171 0.67398
 H47 H 0.44956 0.92505 0.70343
 N48 N 0.34322 0.88374 0.57920
 N49 N 0.35494 0.85900 0.56322
 C50 C 0.33456 0.84890 0.53895
 C51 C 0.30883 0.86826 0.53952
 C52 C 0.31519 0.89016 0.56532
 H53 H 0.33819 0.82895 0.52200
 H54 H 0.30009 0.90888 0.57381
 H55 H 0.40309 0.88764 0.59329
 H56 H 0.38026 0.85979 0.61910
 N57 N 0.92974 0.66335 0.38197
 N58 N 0.94487 0.64913 0.35802
 C59 C 0.96778 0.66945 0.34738
 C60 C 0.96720 0.69787 0.36590
 C61 C 0.94278 0.69309 0.38768
 H62 H 0.98390 0.66383 0.32789
 H63 H 0.93483 0.71013 0.40602
 Cu64 Cu 0.93349 0.60542 0.34311
 Cu65 Cu 0.89413 0.64231 0.40368
 Cu66 Cu 0.87170 0.56503 0.37537
 N67 N 0.91363 0.56723 0.32123
 N68 N 0.88909 0.55171 0.33366
 C69 C 0.88044 0.52605 0.31398
 C70 C 0.90074 0.52540 0.28777
 C71 C 0.92151 0.55198 0.29323
 H72 H 0.86130 0.50877 0.31884
 H73 H 0.94088 0.55972 0.27799
 N74 N 0.85063 0.58719 0.41184
 N75 N 0.85886 0.61672 0.42236
 C76 C 0.83991 0.62510 0.44716
 C77 C 0.81866 0.59965 0.45255
 C78 C 0.82622 0.57603 0.42962
 H79 H 0.84178 0.64791 0.46062
 H80 H 0.81460 0.55255 0.42585
 H81 H 0.90771 0.59673 0.39509
 H82 H 0.88011 0.61151 0.36446
 N83 N 0.56505 0.33178 -0.13474
 N84 N 0.55241 0.34424 -0.15989
 C85 C 0.52701 0.32546 -0.17080
 C86 C 0.52341 0.29998 -0.15131
 C87 C 0.54802 0.30483 -0.12865
 H88 H 0.51196 0.33020 -0.19111
 H89 H 0.55338 0.28972 -0.10936
 Cu90 Cu 0.57005 0.38399 -0.17570
 Cu91 Cu 0.60272 0.35127 -0.11187
 Cu92 Cu 0.63580 0.42114 -0.14054
 N93 N 0.58941 0.42286 -0.19187
 N94 N 0.61538 0.43696 -0.17830
 C95 C 0.62399 0.46283 -0.19436
 C96 C 0.60216 0.46523 -0.21929
 C97 C 0.58050 0.43945 -0.21694
 H98 H 0.64437 0.47897 -0.18804
 H99 H 0.56003 0.43306 -0.23258
 N100 N 0.65306 0.40145 -0.10264
 N101 N 0.64080 0.37458 -0.09200
 C102 C 0.65811 0.36712 -0.06621
 C103 C 0.68226 0.39055 -0.06017
 C104 C 0.67828 0.41193 -0.08374
 H105 H 0.65321 0.34644 -0.05248
 H106 H 0.69296 0.43335 -0.08709
 H107 H 0.59554 0.39750 -0.12312
 H108 H 0.62135 0.37385 -0.15093
 C109 C -0.11444 0.31140 0.13787
 C110 C -0.08878 0.29129 0.13488
 C111 C -0.07489 0.28530 0.10431
 C112 C -0.08707 0.29931 0.07727
 C113 C -0.11274 0.31913 0.08045
 C114 C -0.12658 0.32542 0.11072
 C115 C -0.04911 0.26538 0.10124
 C116 C -0.03719 0.25114 0.12828
 C117 C -0.05127 0.25688 0.15879
 C118 C -0.07687 0.27703 0.16193
 C119 C -0.03956 0.24221 0.18564
 C120 C -0.01421 0.22197 0.18232
 C121 C 0.00010 0.21623 0.15217
 C122 C -0.01152 0.23104 0.12524
 H123 H -0.12523 0.31601 0.16122
 H124 H -0.07673 0.29497 0.05367
 H125 H -0.12161 0.32993 0.05932
 H126 H -0.03842 0.26087 0.07780
 H127 H -0.08760 0.28151 0.18535
 H128 H -0.05006 0.24633 0.20920
 H129 H -0.00561 0.21109 0.20351
 H130 H -0.00103 0.22653 0.10175
 C131 C 0.61608 0.67757 0.60795
 C132 C 0.59278 0.70032 0.61112
 C133 C 0.58675 0.71495 0.64190
 C134 C 0.60389 0.70635 0.66897
 C135 C 0.62681 0.68348 0.66561
 C136 C 0.63318 0.66902 0.63514
 C137 C 0.56362 0.73782 0.64516
 C138 C 0.54616 0.74601 0.61810
 C139 C 0.55190 0.73110 0.58740
 C140 C 0.57531 0.70850 0.58406
 C141 C 0.53399 0.73896 0.56055
 C142 C 0.51052 0.76129 0.56405
 C143 C 0.50477 0.77644 0.59440
 C144 C 0.52282 0.76871 0.62134
 H145 H 0.62076 0.66619 0.58446
 H146 H 0.59955 0.71727 0.69273
 H147 H 0.63990 0.67722 0.68677
 H148 H 0.55909 0.74911 0.66875
 H149 H 0.57979 0.69716 0.56049
 H150 H 0.53805 0.72776 0.53684
 H151 H 0.49715 0.76697 0.54287
 H152 H 0.51834 0.77989 0.64495
 C153 C 1.07716 0.85679 0.38036
 C154 C 1.05635 0.82978 0.38262
 C155 C 1.04292 0.82298 0.41277
 C156 C 1.05086 0.84310 0.44018
 C157 C 1.07207 0.86959 0.43779
 C158 C 1.08523 0.87667 0.40793
 C159 C 1.02207 0.79602 0.41511
 C160 C 1.01497 0.77542 0.38784
 C161 C 1.02881 0.78195 0.35782
 C162 C 1.04916 0.80925 0.35532
 C163 C 1.02230 0.76086 0.33082
 C164 C 1.00239 0.73347 0.33354
 C165 C 0.98825 0.72692 0.36316
 C166 C 0.99453 0.74814 0.39021
 H167 H 1.08769 0.86210 0.35740
 H168 H 1.04089 0.83820 0.46348
 H169 H 1.07817 0.88478 0.45920
 H170 H 1.01169 0.79089 0.43821
 H171 H 1.05967 0.81430 0.33226
 H172 H 1.03274 0.76545 0.30765
 H173 H 0.99773 0.71762 0.31230
 H174 H 0.98410 0.74311 0.41328
 C175 C 0.39609 0.15585 -0.13713
 C176 C 0.41977 0.18082 -0.13479
 C177 C 0.43595 0.18854 -0.10500
 C178 C 0.42798 0.17134 -0.07805
 C179 C 0.40425 0.14668 -0.08056
 C180 C 0.38820 0.13862 -0.11008
 C181 C 0.45976 0.21336 -0.10260
 C182 C 0.46743 0.23074 -0.12953
 C183 C 0.45103 0.22323 -0.15922
 C184 C 0.42741 0.19823 -0.16171
 C185 C 0.45849 0.24095 -0.18593
 C186 C 0.48193 0.26591 -0.18330
 C187 C 0.49855 0.27349 -0.15398
 C188 C 0.49116 0.25567 -0.12717
 H189 H 0.38352 0.14996 -0.15986
 H190 H 0.44011 0.17695 -0.05504
 H191 H 0.39860 0.13356 -0.05951
 H192 H 0.47222 0.21919 -0.07977
 H193 H 0.41492 0.19242 -0.18452
 H194 H 0.44617 0.23553 -0.20888
 H195 H 0.48729 0.27902 -0.20441
 H196 H 0.50347 0.26146 -0.10429
 C197 C 0.12886 -0.06098 0.36457
 C198 C 0.12414 -0.03954 0.34056
 C199 C 0.09284 -0.03044 0.33359
 C200 C 0.06685 -0.04292 0.35077
 C201 C 0.07176 -0.06436 0.37451
 C202 C 0.10273 -0.07362 0.38163
 C203 C 0.08799 -0.00921 0.30943
 C204 C 0.11402 0.00288 0.29197
 C205 C 0.14529 -0.00624 0.29893
 C206 C 0.15018 -0.02730 0.32324
 C207 C 0.17118 0.00572 0.28130
 C208 C 0.16617 0.02638 0.25684
 C209 C 0.13518 0.03560 0.24960
 C210 C 0.10920 0.02379 0.26747
 H211 H 0.15277 -0.06830 0.36965
 H212 H 0.04271 -0.03620 0.34577
 H213 H 0.05135 -0.07370 0.38750
 H214 H 0.06397 -0.00228 0.30407
 H215 H 0.17418 -0.03432 0.32853
 H216 H 0.19532 -0.00096 0.28635
 H217 H 0.18671 0.03528 0.24380
 H218 H 0.08513 0.03037 0.26205
 C219 C 0.62897 0.60345 -0.33858
 C220 C 0.62920 0.57937 -0.31665
 C221 C 0.65830 0.57263 -0.30142
 C222 C 0.68670 0.58983 -0.30872
 C223 C 0.68626 0.61357 -0.33080
 C224 C 0.65745 0.62064 -0.34577
 C225 C 0.65856 0.54885 -0.27917
 C226 C 0.63014 0.53152 -0.27216
 C227 C 0.60115 0.53792 -0.28777
 C228 C 0.60083 0.56190 -0.30980
 C229 C 0.57293 0.52018 -0.28108
 C230 C 0.57335 0.49640 -0.25903
 C231 C 0.60193 0.49009 -0.24306
 C232 C 0.63029 0.50779 -0.24981
 H233 H 0.60676 0.60876 -0.35033
 H234 H 0.70921 0.58496 -0.29732
 H235 H 0.70836 0.62676 -0.33600
 H236 H 0.68084 0.54382 -0.26736
 H237 H 0.57855 0.56693 -0.32162
 H238 H 0.55052 0.52473 -0.29285
 H239 H 0.55113 0.48330 -0.25413
 H240 H 0.65258 0.50290 -0.23800
 C241 C 0.38969 1.07820 0.84646
 C242 C 0.38774 1.05636 0.81948
 C243 C 0.35751 1.04726 0.80516
 C244 C 0.32979 1.05998 0.81819
 C245 C 0.33195 1.08145 0.84521
 C246 C 0.36184 1.09081 0.85950
 C247 C 0.35545 1.02547 0.77820
 C248 C 0.38317 1.01235 0.76557
 C249 C 0.41335 1.02122 0.78007
 C250 C 0.41547 1.04332 0.80680
 C251 C 0.44091 1.00765 0.76768
 C252 C 0.43862 0.98537 0.74130
 C253 C 0.40878 0.97646 0.72660
 C254 C 0.38113 0.99022 0.73884
 H255 H 0.41276 1.08511 0.85765
 H256 H 0.30644 1.05324 0.80755
 H257 H 0.31027 1.09106 0.85487
 H258 H 0.33226 1.01855 0.76720
 H259 H 0.43864 1.05017 0.81786
 H260 H 0.46424 1.01417 0.77847
 H261 H 0.46033 0.97536 0.73221
 H262 H 0.35791 0.98329 0.72803
 C263 C 0.87478 0.38873 0.14928
 C264 C 0.87449 0.41200 0.17492
 C265 C 0.84598 0.41637 0.19233
 C266 C 0.81818 0.39758 0.18355
 C267 C 0.81862 0.37469 0.15777
 C268 C 0.84689 0.36999 0.14055
 C269 C 0.84568 0.43947 0.21813
 C270 C 0.87344 0.45849 0.22654
 C271 C 0.90181 0.45439 0.20884
 C272 C 0.90221 0.43107 0.18326
 C273 C 0.92935 0.47375 0.21698
 C274 C 0.92886 0.49696 0.24245
 C275 C 0.90092 0.50107 0.26046
 C276 C 0.87325 0.48167 0.25233
 H277 H 0.89653 0.38539 0.13577
 H278 H 0.79611 0.40064 0.19657
 H279 H 0.79696 0.36036 0.15136
 H280 H 0.82384 0.44271 0.23157
 H281 H 0.92403 0.42785 0.16980
 H282 H 0.95129 0.47095 0.20366
 H283 H 0.95060 0.51134 0.24833
 H284 H 0.85143 0.48482 0.26575
 C285 C 0.32326 0.13489 -0.07603
 C286 C 0.30089 0.13123 -0.05136
 C287 C 0.29708 0.10173 -0.03684
 C288 C 0.31534 0.07628 -0.04764
 C289 C 0.33709 0.07998 -0.07264
 C290 C 0.34131 0.10928 -0.08684
 C291 C 0.27496 0.09806 -0.01198
 C292 C 0.25609 0.12329 -0.00189
 C293 C 0.25941 0.15256 -0.01687
 C294 C 0.28202 0.15646 -0.04126
 C295 C 0.23983 0.17738 -0.00734
 C296 C 0.21712 0.17324 0.01673
 C297 C 0.21395 0.14444 0.03208
 C298 C 0.23366 0.11957 0.02273
 H299 H 0.32637 0.15740 -0.08729
 H300 H 0.31265 0.05348 -0.03689
 H301 H 0.35096 0.06010 -0.08079
 H302 H 0.27220 0.07550 -0.00072
 H303 H 0.28470 0.17898 -0.05260
 H304 H 0.24198 0.19993 -0.01862
 H305 H 0.20232 0.19279 0.02367
 H306 H 0.23108 0.09710 0.03412
 C307 C 0.69026 0.61929 0.59021
 C308 C 0.71342 0.62081 0.56603
 C309 C 0.72716 0.65074 0.55820
 C310 C 0.71741 0.67859 0.57460
 C311 C 0.69434 0.67684 0.59863
 C312 C 0.68061 0.64724 0.60673
 C313 C 0.75047 0.65235 0.53418
 C314 C 0.76023 0.62441 0.51788
 C315 C 0.74636 0.59451 0.52559
 C316 C 0.72305 0.59289 0.54961
 C317 C 0.75610 0.56670 0.50915
 C318 C 0.77945 0.56841 0.48537
 C319 C 0.79359 0.59797 0.47757
 C320 C 0.78371 0.62593 0.49398
 H321 H 0.67955 0.59640 0.59614
 H322 H 0.72770 0.70172 0.56894
 H323 H 0.68742 0.69863 0.61123
 H324 H 0.76106 0.67531 0.52825
 H325 H 0.71248 0.56993 0.55556
 H326 H 0.74575 0.54357 0.51476
 H327 H 0.78665 0.54644 0.47342
 H328 H 0.79402 0.64895 0.48809
 C329 C 0.81185 0.37226 0.07672
 C330 C 0.78776 0.37053 0.05280
 C331 C 0.77320 0.34058 0.04219
 C332 C 0.78318 0.31288 0.05558
 C333 C 0.80747 0.31482 0.07912
 C334 C 0.82193 0.34446 0.08989
 C335 C 0.74910 0.33877 0.01826
 C336 C 0.73968 0.36649 0.00446
 C337 C 0.75450 0.39638 0.01484
 C338 C 0.77827 0.39824 0.03909
 C339 C 0.74545 0.42395 0.00062
 C340 C 0.72204 0.42197 -0.02378
 C341 C 0.70698 0.39244 -0.03419
 C342 C 0.71586 0.36477 -0.01980
 H343 H 0.82324 0.39513 0.08479
 H344 H 0.77233 0.28973 0.04772
 H345 H 0.81493 0.29320 0.08915
 H346 H 0.73788 0.31581 0.01019
 H347 H 0.78957 0.42119 0.04709
 H348 H 0.75656 0.44704 0.00828
 H349 H 0.71546 0.44368 -0.03421
 H350 H 0.70472 0.34180 -0.02786
 C351 C 0.15338 0.88033 0.43168
 C352 C 0.18050 0.88318 0.45204
 C353 C 0.18955 0.91294 0.46808
 C354 C 0.17146 0.93940 0.46315
 C355 C 0.14464 0.93639 0.44256
 C356 C 0.13534 0.90687 0.42679
 C357 C 0.21653 0.91576 0.48869
 C358 C 0.23474 0.88926 0.49319
 C359 C 0.22587 0.85964 0.47677
 C360 C 0.19873 0.85675 0.45646
 C361 C 0.24435 0.83336 0.48090
 C362 C 0.27138 0.83630 0.50113
 C363 C 0.28031 0.86550 0.51784
 C364 C 0.26178 0.89193 0.51375
 H365 H 0.14643 0.85759 0.41927
 H366 H 0.17806 0.96240 0.47518
 H367 H 0.13088 0.95702 0.43912
 H368 H 0.22339 0.93854 0.50111
 H369 H 0.19188 0.83397 0.44401
 H370 H 0.23791 0.81050 0.46849
 H371 H 0.28499 0.81548 0.50403
 H372 H 0.26860 0.91468 0.52619
   
