data_POSCAR
  _audit_creation_date              2014-09-24
  _audit_creation_method            'ToBaCCo'
  _symmetry_space_group_name_H-M    'P1'
  _symmetry_Int_Tables_number       1
  _symmetry_cell_setting            triclinic
  loop_
  _symmetry_equiv_pos_as_xyz
 x,y,z
_cell_length_a 37.2304
_cell_length_b 36.0332
_cell_length_c 36.2326
_cell_angle_alpha 91.794200
_cell_angle_beta 89.836700
_cell_angle_gamma 88.112500
loop_
  _atom_site_label
  _atom_site_type_symbol
  _atom_site_fract_x
  _atom_site_fract_y
  _atom_site_fract_z
N1 N 0.32140 0.24722 0.21954
 N2 N 0.31066 0.28176 0.21408
 C3 C 0.32902 0.29473 0.18535
 C4 C 0.35204 0.26659 0.17190
 C5 C 0.34675 0.23696 0.19437
 H6 H 0.32498 0.32204 0.17418
 H7 H 0.35982 0.20973 0.19197
 Cu8 Cu 0.27168 0.30566 0.24284
 Cu9 Cu 0.30065 0.21749 0.25766
 Cu10 Cu 0.22187 0.25293 0.29704
 N11 N 0.22426 0.32237 0.26047
 N12 N 0.20446 0.30098 0.28037
 C13 C 0.17266 0.31845 0.28762
 C14 C 0.17269 0.35310 0.27219
 C15 C 0.20573 0.35439 0.25460
 H16 H 0.15088 0.30665 0.30263
 H17 H 0.21537 0.37680 0.23847
 N18 N 0.24411 0.20508 0.31070
 N19 N 0.27478 0.19194 0.29647
 C20 C 0.28423 0.16018 0.31314
 C21 C 0.25790 0.15273 0.33868
 C22 C 0.23313 0.18200 0.33663
 H23 H 0.30894 0.14423 0.30792
 H24 H 0.20931 0.18650 0.35352
 H25 H 0.25126 0.24298 0.24878
 H26 H 0.27675 0.25952 0.29046
 N27 N 0.67937 -0.24447 0.20179
 N28 N 0.69572 -0.27084 0.18165
 C29 C 0.67494 -0.27964 0.15262
 C30 C 0.64330 -0.25800 0.15472
 C31 C 0.64758 -0.23553 0.18626
 H32 H 0.68216 -0.30075 0.13183
 H33 H 0.63004 -0.21291 0.19631
 Cu34 Cu 0.74298 -0.29057 0.19481
 Cu35 Cu 0.70047 -0.22477 0.24721
 Cu36 Cu 0.79300 -0.23909 0.25188
 N37 N 0.79049 -0.30781 0.21001
 N38 N 0.81056 -0.28686 0.23120
 C39 C 0.84250 -0.30444 0.23622
 C40 C 0.84276 -0.33855 0.21706
 C41 C 0.80875 -0.33973 0.20126
 H42 H 0.86387 -0.29298 0.25271
 H43 H 0.79716 -0.36280 0.18631
 N44 N 0.76605 -0.20262 0.28382
 N45 N 0.73073 -0.19809 0.28288
 C46 C 0.72014 -0.17394 0.31015
 C47 C 0.75021 -0.16335 0.32960
 C48 C 0.77889 -0.18155 0.31183
 H49 H 0.69258 -0.16515 0.31587
 H50 H 0.80685 -0.18074 0.31973
 H51 H 0.74743 -0.22699 0.21967
 H52 H 0.74397 -0.26189 0.25643
 N53 N 0.70180 0.23587 0.80355
 N54 N 0.71127 0.26932 0.81437
 C55 C 0.68956 0.28184 0.84213
 C56 C 0.66542 0.25461 0.84916
 C57 C 0.67404 0.22567 0.82445
 H58 H 0.69087 0.30882 0.85591
 H59 H 0.66047 0.19969 0.82116
 Cu60 Cu 0.75116 0.29302 0.79114
 Cu61 Cu 0.72585 0.20892 0.76242
 Cu62 Cu 0.77630 0.26402 0.70616
 N63 N 0.79499 0.30985 0.76882
 N64 N 0.80372 0.30031 0.73459
 C65 C 0.83383 0.31760 0.72530
 C66 C 0.84559 0.33780 0.75600
 C67 C 0.81970 0.33267 0.78286
 H68 H 0.84709 0.31423 0.69874
 H69 H 0.81818 0.34565 0.81017
 N70 N 0.75913 0.21494 0.69003
 N71 N 0.74137 0.19338 0.71202
 C72 C 0.73603 0.16069 0.69422
 C73 C 0.75163 0.16155 0.65960
 C74 C 0.76560 0.19651 0.65764
 H75 H 0.72213 0.13778 0.70565
 H76 H 0.78059 0.20714 0.63488
 H77 H 0.77243 0.23868 0.75473
 H78 H 0.72891 0.25816 0.73726
 N79 N 0.30467 -0.25200 0.78156
 N80 N 0.28669 -0.27583 0.80051
 C81 C 0.30660 -0.28627 0.82966
 C82 C 0.33889 -0.26846 0.82840
 C83 C 0.33665 -0.24671 0.79775
 H84 H 0.29834 -0.30520 0.85040
 H85 H 0.35642 -0.22762 0.78866
 Cu86 Cu 0.23925 -0.29103 0.78469
 Cu87 Cu 0.28418 -0.22713 0.73926
 Cu88 Cu 0.19882 -0.25202 0.71191
 N89 N 0.19185 -0.30575 0.76831
 N90 N 0.17652 -0.29097 0.73942
 C91 C 0.14512 -0.30742 0.73287
 C92 C 0.13985 -0.33370 0.75955
 C93 C 0.17061 -0.33199 0.78121
 H94 H 0.12866 -0.30220 0.70894
 H95 H 0.17705 -0.34856 0.80478
 N96 N 0.22590 -0.21326 0.68768
 N97 N 0.25887 -0.20476 0.69741
 C98 C 0.26987 -0.17702 0.67649
 C99 C 0.24241 -0.16734 0.65291
 C100 C 0.21495 -0.19084 0.66051
 H101 H 0.29536 -0.16368 0.67914
 H102 H 0.18876 -0.19092 0.64770
 H103 H 0.23082 -0.23209 0.75415
 H104 H 0.25085 -0.26939 0.72281
 N105 N 0.69860 -0.21995 0.80152
 N106 N 0.70864 -0.25332 0.81188
 C107 C 0.68461 -0.26526 0.83620
 C108 C 0.65784 -0.23797 0.84122
 C109 C 0.66809 -0.20918 0.81942
 H110 H 0.68620 -0.29204 0.84890
 H111 H 0.65417 -0.18264 0.81629
 Cu112 Cu 0.75223 -0.27783 0.79256
 Cu113 Cu 0.72453 -0.19528 0.76290
 Cu114 Cu 0.76819 -0.26024 0.70400
 N115 N 0.78860 -0.30594 0.76440
 N116 N 0.79378 -0.30043 0.72914
 C117 C 0.81844 -0.32566 0.71586
 C118 C 0.82948 -0.34808 0.74456
 C119 C 0.81033 -0.33405 0.77508
 H120 H 0.82872 -0.32641 0.68787
 H121 H 0.81112 -0.34449 0.80274
 N122 N 0.75237 -0.20999 0.68876
 N123 N 0.73812 -0.18471 0.71209
 C124 C 0.73190 -0.15295 0.69442
 C125 C 0.74162 -0.15864 0.65776
 C126 C 0.75519 -0.19494 0.65532
 H127 H 0.72078 -0.12764 0.70734
 H128 H 0.76633 -0.20925 0.63101
 H129 H 0.72578 -0.24696 0.73979
 H130 H 0.77103 -0.22944 0.75157
 N131 N 0.31614 0.23826 0.79919
 N132 N 0.29587 0.25985 0.82113
 C133 C 0.31381 0.26681 0.85270
 C134 C 0.34700 0.24827 0.85052
 C135 C 0.34781 0.23129 0.81570
 H136 H 0.30339 0.28376 0.87572
 H137 H 0.36965 0.21461 0.80344
 Cu138 Cu 0.24816 0.27718 0.80636
 Cu139 Cu 0.29818 0.21611 0.75360
 Cu140 Cu 0.21799 0.25259 0.72146
 N141 N 0.20817 0.30368 0.78333
 N142 N 0.19697 0.29446 0.75000
 C143 C 0.16896 0.31699 0.74121
 C144 C 0.16201 0.34130 0.77075
 C145 C 0.18753 0.33236 0.79695
 H146 H 0.15412 0.31529 0.71563
 H147 H 0.19059 0.34553 0.82394
 N148 N 0.24374 0.21015 0.69681
 N149 N 0.27492 0.19685 0.70864
 C150 C 0.28470 0.16654 0.68789
 C151 C 0.25805 0.16006 0.66225
 C152 C 0.23279 0.18860 0.66822
 H153 H 0.30875 0.14953 0.69197
 H154 H 0.20762 0.19236 0.65379
 H155 H 0.26784 0.26385 0.74347
 H156 H 0.24360 0.22416 0.76362
 N157 N 0.30796 -0.25549 0.20158
 N158 N 0.28887 -0.27894 0.18194
 C159 C 0.30764 -0.29004 0.15150
 C160 C 0.34031 -0.27309 0.15259
 C161 C 0.33964 -0.25119 0.18454
 H162 H 0.29828 -0.30875 0.12996
 H163 H 0.36015 -0.23256 0.19388
 Cu164 Cu 0.24166 -0.29295 0.19835
 Cu165 Cu 0.28900 -0.22943 0.24567
 Cu166 Cu 0.20351 -0.25182 0.27381
 N167 N 0.19449 -0.30642 0.21543
 N168 N 0.17998 -0.29052 0.24527
 C169 C 0.14880 -0.30665 0.25259
 C170 C 0.14315 -0.33380 0.22560
 C171 C 0.17290 -0.33317 0.20269
 H172 H 0.13227 -0.30031 0.27670
 H173 H 0.17883 -0.35174 0.17929
 N174 N 0.23169 -0.21354 0.29909
 N175 N 0.26473 -0.20587 0.28919
 C176 C 0.27643 -0.17806 0.31129
 C177 C 0.24929 -0.16766 0.33581
 C178 C 0.22138 -0.19065 0.32752
 H179 H 0.30210 -0.16516 0.30880
 H180 H 0.19527 -0.18998 0.34070
 H181 H 0.25517 -0.27062 0.26083
 H182 H 0.23552 -0.23330 0.23166
 N183 N 0.69172 0.24860 0.21820
 N184 N 0.70218 0.28242 0.21232
 C185 C 0.68108 0.29765 0.18627
 C186 C 0.65613 0.27191 0.17547
 C187 C 0.66385 0.24105 0.19600
 H188 H 0.68424 0.32492 0.17527
 H189 H 0.65039 0.21490 0.19451
 Cu190 Cu 0.74351 0.30272 0.23763
 Cu191 Cu 0.71536 0.21652 0.25346
 Cu192 Cu 0.79772 0.24443 0.28508
 N193 N 0.79202 0.31554 0.25169
 N194 N 0.81359 0.29188 0.26838
 C195 C 0.84542 0.30753 0.27434
 C196 C 0.84345 0.34332 0.26162
 C197 C 0.80935 0.34724 0.24677
 H198 H 0.86824 0.29399 0.28729
 H199 H 0.79799 0.37144 0.23362
 N200 N 0.77648 0.19782 0.29952
 N201 N 0.74424 0.18799 0.28876
 C202 C 0.73526 0.15745 0.30667
 C203 C 0.76346 0.14735 0.32930
 C204 C 0.78905 0.17360 0.32433
 H205 H 0.70973 0.14410 0.30432
 H206 H 0.81400 0.17595 0.33929
 H207 H 0.74288 0.25586 0.28461
 H208 H 0.76414 0.23838 0.24001
 O209 O 0.22584 0.03450 0.46340
 O210 O 0.21953 -0.03616 0.53397
 O211 O 0.22437 0.03581 0.53509
 O212 O 0.22151 -0.03708 0.46198
 O213 O 0.28070 -0.04333 0.46304
 O214 O 0.28361 0.02923 0.53654
 O215 O 0.27868 -0.04261 0.53496
 O216 O 0.28511 0.02804 0.46408
 Cu217 Cu 0.21685 -0.00016 0.49859
 Cu218 Cu 0.28801 -0.00773 0.49989
 C219 C 0.25648 0.04282 0.45136
 C220 C 0.24799 -0.05113 0.54684
 C221 C 0.25449 0.04466 0.54839
 C222 C 0.25061 -0.05199 0.44943
 O223 O 0.78314 0.03191 0.53343
 O224 O 0.78344 -0.04355 0.46256
 O225 O 0.78732 0.02835 0.46101
 O226 O 0.77923 -0.03939 0.53439
 O227 O 0.72025 -0.03385 0.53067
 O228 O 0.72829 0.03273 0.45674
 O229 O 0.72421 -0.03856 0.45963
 O230 O 0.72405 0.03812 0.52924
 Cu231 Cu 0.78926 -0.00601 0.49808
 Cu232 Cu 0.71827 0.00043 0.49374
 C233 C 0.75352 0.04723 0.54398
 C234 C 0.75378 -0.05427 0.44945
 C235 C 0.75921 0.04117 0.44550
 C236 C 0.74821 -0.04776 0.54552
 O237 O 0.47247 0.23592 0.04523
 O238 O 0.54373 0.23233 -0.02552
 O239 O 0.54206 0.23901 0.04697
 O240 O 0.47424 0.22956 -0.02564
 O241 O 0.47085 0.29027 -0.03074
 O242 O 0.53753 0.29999 0.04381
 O243 O 0.54002 0.29341 -0.02839
 O244 O 0.46746 0.29689 0.04118
 Cu245 Cu 0.50885 0.22812 0.01073
 Cu246 Cu 0.50368 0.30131 0.00628
 C247 C 0.45722 0.26683 0.05461
 C248 C 0.55331 0.26222 -0.03981
 C249 C 0.55077 0.27110 0.05849
 C250 C 0.46135 0.25805 -0.04122
 O251 O 0.52126 0.77557 0.03003
 O252 O 0.45385 0.76851 -0.04401
 O253 O 0.45282 0.76555 0.02753
 O254 O 0.52290 0.77928 -0.04200
 O255 O 0.53372 0.71859 -0.04592
 O256 O 0.46343 0.70483 0.02325
 O257 O 0.46491 0.70790 -0.04895
 O258 O 0.53168 0.71485 0.02510
 Cu259 Cu 0.48666 0.77839 -0.00682
 Cu260 Cu 0.49936 0.70541 -0.01227
 C261 C 0.53748 0.74618 0.04050
 C262 C 0.44811 0.73701 -0.05913
 C263 C 0.44676 0.73297 0.03771
 C264 C 0.54028 0.75121 -0.05568
 O265 O 0.03821 0.45862 0.22416
 O266 O -0.03547 0.52671 0.20701
 O267 O 0.03404 0.52899 0.20898
 O268 O -0.03135 0.45577 0.22013
 O269 O -0.03398 0.46896 0.27989
 O270 O 0.02822 0.54480 0.26820
 O271 O -0.04058 0.53874 0.26681
 O272 O 0.03612 0.47467 0.28322
 Cu273 Cu 0.00174 0.49104 0.20908
 Cu274 Cu -0.00272 0.50794 0.28059
 C275 C 0.04990 0.45503 0.25682
 C276 C -0.05095 0.54410 0.23400
 C277 C 0.04145 0.54994 0.23651
 C278 C -0.04362 0.44956 0.25201
 O279 O 0.02497 0.54083 0.79093
 O280 O -0.03773 0.46409 0.79164
 O281 O 0.03183 0.46890 0.79660
 O282 O -0.04472 0.53474 0.78447
 O283 O -0.03904 0.52821 0.72416
 O284 O 0.03695 0.46180 0.73619
 O285 O -0.03191 0.45627 0.73149
 O286 O 0.03011 0.53417 0.73029
 Cu287 Cu -0.00676 0.50300 0.79695
 Cu288 Cu -0.00035 0.49455 0.72447
 C289 C 0.03791 0.55078 0.76050
 C290 C -0.04519 0.44646 0.76195
 C291 C 0.04682 0.45320 0.76843
 C292 C -0.05554 0.54221 0.75220
 C293 C 0.37331 0.24213 0.10888
 C294 C 0.37617 0.26736 0.13949
 C295 C 0.40309 0.29357 0.13973
 C296 C 0.42846 0.29369 0.11139
 C297 C 0.42753 0.26771 0.08185
 C298 C 0.39904 0.24247 0.07967
 C299 C 0.34476 0.21733 0.10607
 C300 C 0.34168 0.19338 0.07537
 C301 C 0.36655 0.19396 0.04669
 C302 C 0.39482 0.21836 0.04856
 H303 H 0.32414 0.21668 0.12709
 H304 H 0.31958 0.17463 0.07357
 H305 H 0.36367 0.17572 0.02265
 H306 H 0.41265 0.21864 0.02499
 H307 H 0.40525 0.31332 0.16274
 H308 H 0.44976 0.31344 0.11320
 C309 C 0.57887 0.75486 0.13687
 C310 C 0.61503 0.74254 0.12855
 C311 C 0.62337 0.73103 0.09191
 C312 C 0.59806 0.73325 0.06398
 C313 C 0.56349 0.74781 0.07104
 C314 C 0.55356 0.75918 0.10755
 C315 C 0.56607 0.75974 0.17358
 C316 C 0.53097 0.77251 0.18104
 C317 C 0.50739 0.77963 0.15229
 C318 C 0.51829 0.77260 0.11589
 H319 H 0.58211 0.75190 0.19698
 H320 H 0.52181 0.77625 0.20934
 H321 H 0.48009 0.78930 0.15825
 H322 H 0.49845 0.77680 0.09459
 H323 H 0.65017 0.72126 0.08403
 H324 H 0.60574 0.72387 0.03626
 C325 C 0.60500 0.28107 -0.12885
 C326 C 0.63535 0.25694 -0.12417
 C327 C 0.63712 0.23421 -0.09361
 C328 C 0.61010 0.23611 -0.06688
 C329 C 0.58027 0.26056 -0.07006
 C330 C 0.57689 0.28249 -0.10194
 C331 C 0.60147 0.30297 -0.16038
 C332 C 0.57084 0.32544 -0.16556
 C333 C 0.54298 0.32612 -0.13988
 C334 C 0.54570 0.30474 -0.10854
 H335 H 0.62201 0.30254 -0.18157
 H336 H 0.56846 0.34195 -0.18993
 H337 H 0.51893 0.34305 -0.14445
 H338 H 0.52271 0.30530 -0.09030
 H339 H 0.66003 0.21534 -0.09004
 H340 H 0.61287 0.21877 -0.04309
 C341 C 0.40426 0.72156 -0.15343
 C342 C 0.36797 0.73075 -0.14395
 C343 C 0.35907 0.74087 -0.10735
 C344 C 0.38552 0.74303 -0.08035
 C345 C 0.42150 0.73424 -0.08898
 C346 C 0.43124 0.72318 -0.12563
 C347 C 0.41432 0.71022 -0.18977
 C348 C 0.45018 0.70170 -0.19869
 C349 C 0.47658 0.70388 -0.17167
 C350 C 0.46731 0.71429 -0.13542
 H351 H 0.39468 0.70756 -0.21152
 H352 H 0.45752 0.69327 -0.22672
 H353 H 0.50438 0.69735 -0.17879
 H354 H 0.48866 0.71544 -0.11530
 H355 H 0.33148 0.74805 -0.09978
 H356 H 0.37781 0.75144 -0.05238
 C357 C 0.11941 0.38893 0.30221
 C358 C 0.14241 0.38096 0.27142
 C359 C 0.13499 0.39793 0.23798
 C360 C 0.10497 0.42145 0.23418
 C361 C 0.08067 0.42856 0.26346
 C362 C 0.08737 0.41131 0.29781
 C363 C 0.12781 0.37563 0.33754
 C364 C 0.10386 0.38110 0.36694
 C365 C 0.07120 0.39994 0.36185
 C366 C 0.06292 0.41491 0.32779
 H367 H 0.15314 0.36144 0.34306
 H368 H 0.11055 0.37036 0.39371
 H369 H 0.05226 0.40328 0.38453
 H370 H 0.03690 0.42850 0.32554
 H371 H 0.15222 0.39236 0.21416
 H372 H 0.10073 0.43422 0.20780
 C373 C 0.07661 0.64669 0.74731
 C374 C 0.11188 0.64058 0.76202
 C375 C 0.11975 0.60638 0.77859
 C376 C 0.09536 0.57796 0.77796
 C377 C 0.06227 0.58221 0.76042
 C378 C 0.05233 0.61675 0.74523
 C379 C 0.06356 0.68232 0.73739
 C380 C 0.02941 0.68746 0.72231
 C381 C 0.00692 0.65763 0.71789
 C382 C 0.01793 0.62267 0.72969
 H383 H 0.07862 0.70695 0.74282
 H384 H 0.02009 0.71492 0.71463
 H385 H -0.01964 0.66184 0.70635
 H386 H -0.00103 0.60063 0.72726
 H387 H 0.14575 0.60039 0.79069
 H388 H 0.10287 0.55188 0.79040
 C389 C -0.12628 0.60376 0.18999
 C390 C -0.12997 0.63302 0.21744
 C391 C -0.10665 0.63229 0.24788
 C392 C -0.08224 0.60297 0.25271
 C393 C -0.07985 0.57266 0.22759
 C394 C -0.10295 0.57227 0.19641
 C395 C -0.14335 0.60581 0.15526
 C396 C -0.14198 0.57572 0.13013
 C397 C -0.12315 0.54321 0.13869
 C398 C -0.10364 0.54141 0.17136
 H399 H -0.15674 0.63101 0.14644
 H400 H -0.15572 0.57761 0.10393
 H401 H -0.12298 0.51955 0.11953
 H402 H -0.08969 0.51543 0.17675
 H403 H -0.10799 0.65380 0.26940
 H404 H -0.06490 0.60418 0.27666
 C405 C -0.10403 0.36560 0.79161
 C406 C -0.12413 0.36039 0.75850
 C407 C -0.11413 0.37950 0.72715
 C408 C -0.08827 0.40644 0.72912
 C409 C -0.07040 0.41497 0.76221
 C410 C -0.07720 0.39322 0.79367
 C411 C -0.10775 0.34178 0.82165
 C412 C -0.08778 0.34646 0.85374
 C413 C -0.06271 0.37400 0.85631
 C414 C -0.05700 0.39671 0.82661
 H415 H -0.12481 0.31815 0.82026
 H416 H -0.09117 0.32802 0.87641
 H417 H -0.04678 0.37710 0.88110
 H418 H -0.03571 0.41581 0.83003
 H419 H -0.12818 0.37560 0.70124
 H420 H -0.08318 0.42176 0.70449
 C421 C 0.26683 0.08498 0.35658
 C422 C 0.25801 0.12281 0.36591
 C423 C 0.24877 0.13286 0.40253
 C424 C 0.24876 0.10660 0.42985
 C425 C 0.25858 0.06953 0.42161
 C426 C 0.26780 0.05830 0.38488
 C427 C 0.27318 0.07262 0.31968
 C428 C 0.28163 0.03533 0.31110
 C429 C 0.28363 0.00958 0.33890
 C430 C 0.27673 0.02080 0.37544
 H431 H 0.27082 0.09123 0.29697
 H432 H 0.28640 0.02632 0.28268
 H433 H 0.29009 -0.01934 0.33206
 H434 H 0.27805 -0.00021 0.39607
 H435 H 0.24172 0.16149 0.41021
 H436 H 0.24123 0.11534 0.45779
 C437 C 0.76745 0.09508 0.63833
 C438 C 0.75361 0.13129 0.63100
 C439 C 0.74049 0.13886 0.59572
 C440 C 0.74014 0.11117 0.56800
 C441 C 0.75338 0.07520 0.57459
 C442 C 0.76677 0.06668 0.61006
 C443 C 0.78265 0.08653 0.67286
 C444 C 0.79513 0.05056 0.67997
 C445 C 0.79298 0.02250 0.65291
 C446 C 0.77905 0.03034 0.61826
 H447 H 0.78548 0.10746 0.69456
 H448 H 0.80649 0.04442 0.70664
 H449 H 0.80238 -0.00546 0.65870
 H450 H 0.77785 0.00762 0.59818
 H451 H 0.72991 0.16639 0.58974
 H452 H 0.72980 0.11795 0.54103
 C453 C 0.22015 -0.10408 0.63220
 C454 C 0.24217 -0.13667 0.62685
 C455 C 0.26608 -0.13954 0.59701
 C456 C 0.26765 -0.11138 0.57171
 C457 C 0.24555 -0.07924 0.57560
 C458 C 0.22210 -0.07489 0.60660
 C459 C 0.19721 -0.09929 0.66320
 C460 C 0.17684 -0.06648 0.66906
 C461 C 0.17920 -0.03773 0.64453
 C462 C 0.20165 -0.04166 0.61371
 H463 H 0.19517 -0.12051 0.68348
 H464 H 0.15950 -0.06314 0.69305
 H465 H 0.16379 -0.01206 0.64960
 H466 H 0.20331 -0.01802 0.59627
 H467 H 0.28347 -0.16407 0.59305
 H468 H 0.28600 -0.11498 0.54851
 C469 C 0.72962 -0.14221 0.39418
 C470 C 0.75159 -0.13812 0.36255
 C471 C 0.77556 -0.10900 0.36193
 C472 C 0.77659 -0.08278 0.39089
 C473 C 0.75365 -0.08484 0.42139
 C474 C 0.73060 -0.11526 0.42382
 C475 C 0.70766 -0.17317 0.39771
 C476 C 0.68666 -0.17705 0.42918
 C477 C 0.68752 -0.15069 0.45800
 C478 C 0.70944 -0.12024 0.45563
 H479 H 0.70708 -0.19513 0.37677
 H480 H 0.67000 -0.20094 0.43144
 H481 H 0.67153 -0.15414 0.48257
 H482 H 0.71017 -0.10127 0.47930
 H483 H 0.79290 -0.10586 0.33824
 H484 H 0.79463 -0.05993 0.38889
 C485 C 0.59091 0.77300 -0.14408
 C486 C 0.62612 0.76051 -0.13406
 C487 C 0.63161 0.74530 -0.09932
 C488 C 0.60344 0.74282 -0.07440
 C489 C 0.56893 0.75620 -0.08298
 C490 C 0.56230 0.77174 -0.11786
 C491 C 0.58292 0.78503 -0.17998
 C492 C 0.54827 0.79733 -0.18915
 C493 C 0.52077 0.79740 -0.16311
 C494 C 0.52752 0.78456 -0.12785
 H495 H 0.60283 0.78413 -0.20169
 H496 H 0.54265 0.80653 -0.21677
 H497 H 0.49389 0.80682 -0.17046
 H498 H 0.50511 0.78425 -0.10884
 H499 H 0.65811 0.73532 -0.09122
 H500 H 0.60871 0.73059 -0.04792
 C501 C 0.39923 0.21676 -0.11554
 C502 C 0.37594 0.24810 -0.12126
 C503 C 0.38154 0.28115 -0.10106
 C504 C 0.40962 0.28382 -0.07599
 C505 C 0.43404 0.25393 -0.07092
 C506 C 0.42996 0.22051 -0.09239
 C507 C 0.39240 0.18146 -0.13162
 C508 C 0.41727 0.15196 -0.12888
 C509 C 0.44931 0.15693 -0.11010
 C510 C 0.45575 0.19077 -0.09205
 H511 H 0.36758 0.17595 -0.14577
 H512 H 0.41186 0.12525 -0.14182
 H513 H 0.46913 0.13432 -0.10914
 H514 H 0.48153 0.19329 -0.07887
 H515 H 0.36411 0.30539 -0.10483
 H516 H 0.41207 0.30964 -0.06021
 C517 C 0.40392 0.71234 0.13044
 C518 C 0.36829 0.72536 0.12372
 C519 C 0.35911 0.73863 0.08900
 C520 C 0.38490 0.74047 0.06133
 C521 C 0.42034 0.72809 0.06727
 C522 C 0.43017 0.71342 0.10183
 C523 C 0.41402 0.69804 0.16487
 C524 C 0.44930 0.68571 0.17118
 C525 C 0.47503 0.68709 0.14338
 C526 C 0.46567 0.70065 0.10897
 H527 H 0.39480 0.69612 0.18712
 H528 H 0.45671 0.67500 0.19778
 H529 H 0.50242 0.67765 0.14849
 H530 H 0.48660 0.70132 0.08832
 H531 H 0.33194 0.74873 0.08363
 H532 H 0.37718 0.75184 0.03505
 C533 C 0.60021 0.30152 0.14708
 C534 C 0.62904 0.27479 0.14591
 C535 C 0.63127 0.24837 0.11685
 C536 C 0.60592 0.24823 0.08881
 C537 C 0.57706 0.27422 0.08900
 C538 C 0.57362 0.30096 0.11870
 C539 C 0.59633 0.32774 0.17672
 C540 C 0.56699 0.35276 0.17857
 C541 C 0.54067 0.35174 0.15144
 C542 C 0.54364 0.32600 0.12198
 H543 H 0.61554 0.32888 0.19900
 H544 H 0.56435 0.37265 0.20151
 H545 H 0.51758 0.37076 0.15346
 H546 H 0.52174 0.32564 0.10257
 H547 H 0.65302 0.22760 0.11581
 H548 H 0.60890 0.22745 0.06664
 C549 C -0.13890 0.59612 0.71480
 C550 C -0.14408 0.62288 0.74439
 C551 C -0.12219 0.62010 0.77570
 C552 C -0.09406 0.59404 0.77712
 C553 C -0.08707 0.56836 0.74796
 C554 C -0.11051 0.56832 0.71684
 C555 C -0.16327 0.59395 0.68493
 C556 C -0.15906 0.56667 0.65708
 C557 C -0.13155 0.53991 0.65896
 C558 C -0.10798 0.54015 0.68871
 H559 H -0.18682 0.61200 0.68333
 H560 H -0.17798 0.56559 0.63447
 H561 H -0.12910 0.51811 0.63776
 H562 H -0.08902 0.51699 0.68964
 H563 H -0.12549 0.63968 0.79887
 H564 H -0.07712 0.59449 0.80139
 C565 C -0.10433 0.37641 0.29231
 C566 C -0.12775 0.37080 0.26187
 C567 C -0.12266 0.39060 0.22976
 C568 C -0.09487 0.41519 0.22707
 C569 C -0.07066 0.42057 0.25618
 C570 C -0.07451 0.39999 0.28877
 C571 C -0.11022 0.35982 0.32656
 C572 C -0.08562 0.36336 0.35526
 C573 C -0.05484 0.38350 0.35058
 C574 C -0.04924 0.40168 0.31778
 H575 H -0.13407 0.34457 0.33187
 H576 H -0.09033 0.35012 0.38117
 H577 H -0.03534 0.38539 0.37262
 H578 H -0.02461 0.41629 0.31538
 H579 H -0.14023 0.38677 0.20625
 H580 H -0.09257 0.43055 0.20198
 C581 C 0.10522 0.36979 0.80048
 C582 C 0.13279 0.37002 0.77340
 C583 C 0.13160 0.39701 0.74654
 C584 C 0.10399 0.42391 0.74621
 C585 C 0.07625 0.42470 0.77253
 C586 C 0.07658 0.39721 0.80005
 C587 C 0.10460 0.34181 0.82693
 C588 C 0.07676 0.34089 0.85260
 C589 C 0.04878 0.36732 0.85213
 C590 C 0.04844 0.39498 0.82610
 H591 H 0.12516 0.32000 0.82777
 H592 H 0.07667 0.31925 0.87265
 H593 H 0.02694 0.36615 0.87181
 H594 H 0.02555 0.41389 0.82658
 H595 H 0.15232 0.39723 0.72548
 H596 H 0.10424 0.44432 0.72488
 C597 C 0.07827 0.64747 0.23358
 C598 C 0.11485 0.63826 0.22519
 C599 C 0.12536 0.60099 0.21802
 C600 C 0.10096 0.57283 0.22096
 C601 C 0.06542 0.58103 0.23163
 C602 C 0.05351 0.61851 0.23743
 C603 C 0.06541 0.68475 0.23711
 C604 C 0.02943 0.69320 0.24559
 C605 C 0.00548 0.66487 0.25019
 C606 C 0.01723 0.62786 0.24594
 H607 H 0.08263 0.70771 0.23248
 H608 H 0.02002 0.72191 0.24824
 H609 H -0.02246 0.67159 0.25654
 H610 H -0.00243 0.60676 0.24881
 H611 H 0.15306 0.59338 0.21132
 H612 H 0.11018 0.54424 0.21607
 C613 C 0.71182 -0.10389 0.62528
 C614 C 0.74023 -0.13096 0.62822
 C615 C 0.76955 -0.13012 0.60403
 C616 C 0.77161 -0.10280 0.57790
 C617 C 0.74485 -0.07468 0.57548
 C618 C 0.71521 -0.07422 0.60044
 C619 C 0.67975 -0.10590 0.64597
 C620 C 0.65351 -0.07746 0.64535
 C621 C 0.65862 -0.04655 0.62421
 C622 C 0.68910 -0.04476 0.60200
 H623 H 0.67422 -0.12966 0.66226
 H624 H 0.62929 -0.07922 0.66172
 H625 H 0.63868 -0.02399 0.62471
 H626 H 0.69204 -0.01968 0.58695
 H627 H 0.79148 -0.15052 0.60567
 H628 H 0.79447 -0.10377 0.55928
 C629 C 0.22720 -0.10407 0.35921
 C630 C 0.24912 -0.13659 0.36317
 C631 C 0.27175 -0.13968 0.39369
 C632 C 0.27195 -0.11179 0.42109
 C633 C 0.24968 -0.07984 0.41868
 C634 C 0.22774 -0.07519 0.38699
 C635 C 0.20564 -0.09913 0.32762
 C636 C 0.18530 -0.06641 0.32330
 C637 C 0.18632 -0.03790 0.35000
 C638 C 0.20737 -0.04202 0.38145
 H639 H 0.20472 -0.12016 0.30571
 H640 H 0.16904 -0.06295 0.29885
 H641 H 0.17096 -0.01228 0.34617
 H642 H 0.20804 -0.01853 0.40065
 H643 H 0.28893 -0.16426 0.39666
 H644 H 0.28924 -0.11551 0.44479
 C645 C 0.79035 0.08961 0.35829
 C646 C 0.76371 0.11856 0.35737
 C647 C 0.73636 0.12050 0.38392
 C648 C 0.73566 0.09519 0.41202
 C649 C 0.76198 0.06662 0.41430
 C650 C 0.78916 0.06288 0.38653
 C651 C 0.81736 0.08581 0.33085
 C652 C 0.84246 0.05627 0.33092
 C653 C 0.84077 0.02963 0.35775
 C654 C 0.81429 0.03256 0.38507
 H655 H 0.81901 0.10518 0.30877
 H656 H 0.86295 0.05368 0.30965
 H657 H 0.85985 0.00629 0.35716
 H658 H 0.81348 0.01023 0.40415
 H659 H 0.71573 0.14241 0.38337
 H660 H 0.71445 0.09831 0.43254
 C661 C 0.26303 0.09118 0.64391
 C662 C 0.25627 0.12887 0.63480
 C663 C 0.24774 0.13740 0.59831
 C664 C 0.24718 0.10970 0.57069
 C665 C 0.25554 0.07272 0.57865
 C666 C 0.26336 0.06301 0.61539
 C667 C 0.26803 0.08052 0.68081
 C668 C 0.27464 0.04339 0.68912
 C669 C 0.27605 0.01610 0.66109
 C670 C 0.27038 0.02566 0.62456
 H671 H 0.26597 0.10039 0.70370
 H672 H 0.27841 0.03571 0.71753
 H673 H 0.28106 -0.01269 0.66773
 H674 H 0.27111 0.00351 0.60373
 H675 H 0.24203 0.16591 0.59100
 H676 H 0.24069 0.11725 0.54270
   
