data_POSCAR
  _audit_creation_date              2014-09-24
  _audit_creation_method            'ToBaCCo'
  _symmetry_space_group_name_H-M    'P1'
  _symmetry_Int_Tables_number       1
  _symmetry_cell_setting            triclinic
  loop_
  _symmetry_equiv_pos_as_xyz
 x,y,z
_cell_length_a 33.4006
_cell_length_b 34.4846
_cell_length_c 32.5096
_cell_angle_alpha 90.072600
_cell_angle_beta 90.391700
_cell_angle_gamma 91.698600
loop_
  _atom_site_label
  _atom_site_type_symbol
  _atom_site_fract_x
  _atom_site_fract_y
  _atom_site_fract_z
C1 C 0.28020 0.45046 0.99212
 C2 C 0.25286 0.45029 1.03059
 C3 C 0.23155 0.48323 1.03515
 C4 C 0.23907 0.51343 1.00118
 C5 C 0.25067 0.45784 0.95696
 C6 C 0.22984 0.49081 0.96112
 C7 C 0.30558 0.48790 0.99665
 C8 C 0.28472 0.52055 1.00208
 H9 H 0.24760 0.42594 1.05083
 H10 H 0.22154 0.54009 1.00478
 H11 H 0.24509 0.43743 0.93206
 H12 H 0.33805 0.48814 0.99725
 C13 C 0.71274 0.55142 0.00083
 C14 C 0.73666 0.54851 0.04131
 C15 C 0.76103 0.51757 0.04430
 C16 C 0.75957 0.49032 0.00675
 C17 C 0.74376 0.54782 -0.03347
 C18 C 0.76831 0.51695 -0.03043
 C19 C 0.68743 0.51398 -0.00151
 C20 C 0.71208 0.47879 0.00250
 H21 H 0.73534 0.57022 0.06534
 H22 H 0.77912 0.46491 0.00918
 H23 H 0.74599 0.56847 -0.05850
 H24 H 0.69677 0.49165 0.00043
 C25 C 0.03412 0.22551 0.50082
 C26 C 0.03143 0.25304 0.46723
 C27 C -0.00396 0.27524 0.46701
 C28 C -0.02987 0.26747 0.50223
 C29 C 0.03131 0.25143 0.53952
 C30 C -0.00215 0.27341 0.54021
 C31 C -0.00559 0.20206 0.50137
 C32 C -0.03892 0.22341 0.50154
 H33 H 0.05514 0.25755 0.44497
 H34 H -0.05703 0.28532 0.50291
 H35 H 0.05391 0.25456 0.56325
 H36 H -0.00712 0.17060 0.50155
 C37 C 0.96424 0.77853 0.49808
 C38 C 0.96710 0.75454 0.45825
 C39 C 1.00014 0.73253 0.45627
 C40 C 1.02807 0.73633 0.49447
 C41 C 0.96709 0.74771 0.53207
 C42 C 1.00054 0.72563 0.53107
 C43 C 1.00402 0.80154 0.49941
 C44 C 1.03718 0.78006 0.49846
 H45 H 0.94399 0.75141 0.43507
 H46 H 1.05628 0.72043 0.49319
 H47 H 0.94376 0.74350 0.55474
 H48 H 1.00576 0.83296 0.50105
 C49 C 0.49608 0.04467 0.21614
 C50 C 0.46167 0.04289 0.24715
 C51 C 0.46062 0.01060 0.27103
 C52 C 0.49512 -0.01708 0.26295
 C53 C 0.53361 0.04125 0.24391
 C54 C 0.53349 0.00856 0.26762
 C55 C 0.49422 0.00809 0.19397
 C56 C 0.49276 -0.02587 0.21912
 H57 H 0.43976 0.06531 0.24978
 H58 H 0.49537 -0.04296 0.28322
 H59 H 0.55809 0.06224 0.24616
 H60 H 0.49472 0.00657 0.16066
 C61 C 0.49325 -0.03933 0.77781
 C62 C 0.46164 -0.03307 0.74431
 C63 C 0.46931 -0.00240 0.71881
 C64 C 0.50902 0.01932 0.72903
 C65 C 0.53310 -0.04206 0.75516
 C66 C 0.54099 -0.01223 0.72913
 C67 C 0.49755 0.00028 0.79978
 C68 C 0.50537 0.03086 0.77435
 H69 H 0.43435 -0.05078 0.74228
 H70 H 0.51550 0.04486 0.70931
 H71 H 0.55302 -0.06609 0.75859
 H72 H 0.49664 0.00449 0.83267
 C73 C 0.30471 0.03553 0.44941
 H74 H 0.30350 0.06005 0.47011
 C75 C 0.33288 0.03560 0.41796
 H76 H 0.35291 0.06057 0.41397
 C77 C 0.28114 -0.02755 0.43040
 H78 H 0.26179 -0.05256 0.43615
 C79 C 0.30937 -0.02896 0.39898
 H80 H 0.31130 -0.05491 0.38039
 N81 N 0.27912 0.00455 0.45462
 C82 C 0.18351 0.05141 0.52942
 H83 H 0.18235 0.03008 0.55379
 C84 C 0.15679 0.08181 0.52925
 H85 H 0.13471 0.08373 0.55335
 C86 C 0.21286 0.07433 0.46750
 H87 H 0.23411 0.07096 0.44300
 C88 C 0.18706 0.10543 0.46643
 H89 H 0.18875 0.12595 0.44126
 Zn90 Zn 0.24500 0.00539 0.50074
 N91 N 0.21075 0.04816 0.49878
 C92 C 0.27945 0.03977 0.57321
 N93 N 0.27937 0.00933 0.54649
 C94 C 0.30748 -0.01827 0.54863
 C95 C 0.33772 -0.01566 0.57812
 C96 C 0.30939 0.04354 0.60335
 C97 C 0.18751 -0.04873 0.47165
 C98 C 0.16408 -0.08291 0.47134
 C99 C 0.19355 -0.10031 0.53659
 C100 C 0.21649 -0.06578 0.53566
 N101 N 0.21343 -0.04105 0.50324
 H102 H 0.25729 0.06181 0.57029
 H103 H 0.30697 -0.04173 0.52649
 H104 H 0.36047 -0.03740 0.57905
 H105 H 0.31010 0.06827 0.62393
 H106 H 0.18525 -0.02828 0.44658
 H107 H 0.14326 -0.08853 0.44619
 H108 H 0.19607 -0.11972 0.56258
 H109 H 0.23651 -0.05874 0.56098
 C110 C 0.15812 0.10887 0.49714
 C111 C 0.33523 0.00315 0.39218
 C112 C 0.16734 -0.10932 0.50389
 C113 C 0.33931 0.01598 0.60515
 C114 C 0.71538 0.02676 0.56856
 H115 H 0.73249 0.05332 0.56321
 C116 C 0.68917 0.02432 0.60180
 H117 H 0.68598 0.04922 0.62170
 C118 C 0.69575 -0.03681 0.54721
 H119 H 0.69792 -0.06016 0.52516
 C120 C 0.67030 -0.04097 0.58072
 H121 H 0.65306 -0.06780 0.58456
 N122 N 0.71846 -0.00379 0.54238
 C123 C 0.77944 0.07186 0.46487
 H124 H 0.75953 0.06576 0.43921
 C125 C 0.80242 0.10641 0.46543
 H126 H 0.80000 0.12672 0.44021
 C127 C 0.80841 0.05236 0.52802
 H128 H 0.81079 0.03090 0.55209
 C129 C 0.83197 0.08647 0.52975
 H130 H 0.85301 0.09094 0.55493
 Zn131 Zn 0.75201 -0.00148 0.49603
 N132 N 0.78263 0.04578 0.49604
 C133 C 0.68931 0.02356 0.44805
 N134 N 0.71735 -0.00418 0.44980
 C135 C 0.71797 -0.03330 0.42151
 C136 C 0.68977 -0.03480 0.38944
 C137 C 0.66089 0.02332 0.41649
 C138 C 0.78764 -0.06796 0.53027
 C139 C 0.81414 -0.09839 0.53216
 C140 C 0.84165 -0.07745 0.46711
 C141 C 0.81407 -0.04769 0.46608
 N142 N 0.78768 -0.04352 0.49738
 H143 H 0.68896 0.04584 0.47150
 H144 H 0.73978 -0.05570 0.42416
 H145 H 0.69010 -0.05823 0.36724
 H146 H 0.63882 0.04569 0.41541
 H147 H 0.76768 -0.06363 0.55566
 H148 H 0.81360 -0.11768 0.55844
 H149 H 0.86286 -0.08023 0.44230
 H150 H 0.81393 -0.02762 0.44054
 C151 C 0.82890 0.11409 0.49830
 C152 C 0.66687 -0.01021 0.60863
 C153 C 0.84212 -0.10286 0.50078
 C154 C 0.66108 -0.00596 0.38662
 C155 C 0.50167 0.17838 1.01872
 H156 H 0.50055 0.16724 0.98769
 C157 C 0.49769 0.15269 1.05152
 H158 H 0.49415 0.12186 1.04557
 C159 C 0.50652 0.23186 1.06463
 H160 H 0.50979 0.26287 1.06928
 C161 C 0.50263 0.20708 1.09846
 H162 H 0.50287 0.21893 1.12933
 N163 N 0.50640 0.21714 1.02575
 C164 C 0.47303 0.32408 0.98640
 H165 H 0.50294 0.33645 0.98965
 C166 C 0.44053 0.34853 0.98593
 H167 H 0.44566 0.37963 0.98824
 C168 C 0.42941 0.26881 0.98078
 H169 H 0.42544 0.23761 0.97893
 C170 C 0.39597 0.29228 0.98018
 H171 H 0.36618 0.27920 0.97762
 Zn172 Zn 0.51125 0.25165 0.98087
 N173 N 0.46707 0.28503 0.98266
 C174 C 0.48126 0.22515 0.90293
 N175 N 0.51135 0.22343 0.93125
 C176 C 0.54271 0.19975 0.92596
 C177 C 0.54320 0.17436 0.89267
 C178 C 0.48058 0.20020 0.86905
 C179 C 0.58746 0.27371 1.01452
 C180 C 0.62134 0.29813 1.01889
 C181 C 0.60065 0.33284 0.95815
 C182 C 0.56760 0.30739 0.95455
 N183 N 0.56044 0.28005 0.98389
 H184 H 0.45713 0.24486 0.90717
 H185 H 0.56636 0.19928 0.94885
 H186 H 0.56712 0.15397 0.89020
 H187 H 0.45563 0.20041 0.84761
 H188 H 0.58204 0.25078 1.03655
 H189 H 0.64124 0.29472 1.04500
 H190 H 0.60423 0.35665 0.93666
 H191 H 0.54620 0.31098 0.92982
 C192 C 0.40157 0.33266 0.98180
 C193 C 0.49784 0.16707 1.09184
 C194 C 0.62679 0.32931 0.99170
 C195 C 0.51149 0.17397 0.86420
 C196 C 0.44570 0.79389 -0.05397
 H197 H 0.41936 0.78400 -0.03739
 C198 C 0.44197 0.81906 -0.08729
 H199 H 0.41269 0.82865 -0.09659
 C200 C 0.51646 0.79551 -0.06073
 H201 H 0.54548 0.78733 -0.04933
 C202 C 0.51405 0.82017 -0.09447
 H203 H 0.54120 0.83076 -0.10924
 N204 N 0.48259 0.78298 -0.04125
 C205 C 0.41889 0.71524 0.04219
 H206 H 0.42330 0.73544 0.06733
 C207 C 0.38816 0.68687 0.04431
 H208 H 0.36942 0.68495 0.07133
 C209 C 0.43773 0.69247 -0.02349
 H210 H 0.45660 0.69509 -0.05017
 C211 C 0.40762 0.66360 -0.02251
 H212 H 0.40420 0.64347 -0.04799
 Zn213 Zn 0.48759 0.75318 0.00690
 N214 N 0.44367 0.71685 0.00908
 C215 C 0.49275 0.77428 0.09225
 N216 N 0.48742 0.78720 0.05304
 C217 C 0.48227 0.82546 0.04517
 C218 C 0.48284 0.85237 0.07706
 C219 C 0.49453 0.80055 0.12516
 C220 C 0.54342 0.70700 -0.03177
 C221 C 0.57722 0.68471 -0.03596
 C222 C 0.59789 0.70371 0.03263
 C223 C 0.56385 0.72627 0.03528
 N224 N 0.53664 0.72641 0.00384
 H225 H 0.49627 0.74366 0.09791
 H226 H 0.47798 0.83543 0.01406
 H227 H 0.47885 0.88275 0.07013
 H228 H 0.50014 0.79023 0.15606
 H229 H 0.52245 0.70864 -0.05706
 H230 H 0.58132 0.66828 -0.06396
 H231 H 0.61799 0.70184 0.05879
 H232 H 0.55883 0.74263 0.06294
 C233 C 0.38320 0.65999 0.01215
 C234 C 0.47652 0.83241 -0.10764
 C235 C 0.60436 0.68206 -0.00311
 C236 C 0.48930 0.84011 0.11755
 C237 C 1.05997 0.46104 0.20400
 H238 H 1.04788 0.43449 0.21712
 C239 C 1.09147 0.45924 0.17607
 H240 H 1.10448 0.43155 0.16944
 C241 C 1.05582 0.52874 0.19380
 H242 H 1.04108 0.55559 0.20008
 C243 C 1.08666 0.52811 0.16496
 H244 H 1.09572 0.55463 0.14931
 N245 N 1.04404 0.49574 0.21383
 C246 C 0.96095 0.44659 0.30540
 H247 H 0.93504 0.46321 0.29762
 C248 C 0.95781 0.41744 0.33523
 H249 H 0.92955 0.41241 0.35074
 C250 C 1.03012 0.43575 0.29796
 H251 H 1.05895 0.44470 0.28582
 C252 C 1.02778 0.40490 0.32568
 H253 H 1.05461 0.38928 0.33276
 Zn254 Zn 1.00038 0.49867 0.25123
 N255 N 0.99669 0.45499 0.28708
 C256 C 0.94394 0.47069 0.19342
 N257 N 0.95350 0.50146 0.21816
 C258 C 0.93156 0.53411 0.21728
 C259 C 0.89748 0.53592 0.19244
 C260 C 0.91081 0.47182 0.16698
 C261 C 1.03930 0.56505 0.29008
 C262 C 1.04046 0.59745 0.31616
 C263 C 0.97120 0.58384 0.33307
 C264 C 0.97182 0.55111 0.30805
 N265 N 1.00495 0.54308 0.28589
 H266 H 0.96251 0.44552 0.19376
 H267 H 0.94068 0.55924 0.23515
 H268 H 0.88010 0.56193 0.19266
 H269 H 0.90424 0.44756 0.14660
 H270 H 1.06597 0.55718 0.27381
 H271 H 1.06815 0.61425 0.31995
 H272 H 0.94396 0.59036 0.34922
 H273 H 0.94525 0.53261 0.30535
 C274 C 0.99121 0.39516 0.34475
 C275 C 1.10577 0.49323 0.15683
 C276 C 1.00567 0.60778 0.33712
 C277 C 0.88653 0.50442 0.16705
 C278 C -0.06567 0.46918 0.80011
 H279 H -0.04891 0.44345 0.79408
 C280 C -0.09670 0.46786 0.82870
 H281 H -0.10394 0.44106 0.84470
 C282 C -0.07491 0.53630 0.78884
 H283 H -0.06533 0.56314 0.77430
 C284 C -0.10611 0.53626 0.81729
 H285 H -0.12068 0.56308 0.82440
 N286 N -0.05495 0.50319 0.78144
 C287 C -0.03999 0.45431 0.68852
 H288 H -0.06370 0.47485 0.68835
 C289 C -0.04213 0.42280 0.66140
 H290 H -0.06714 0.41973 0.64014
 C291 C 0.02058 0.43226 0.71708
 H292 H 0.04466 0.43540 0.73919
 C293 C 0.01965 0.40034 0.69039
 H294 H 0.04348 0.37974 0.69168
 Zn295 Zn -0.00741 0.50412 0.74998
 N296 N -0.00859 0.45901 0.71522
 C297 C 0.07518 0.50028 0.77434
 N298 N 0.03699 0.50451 0.78768
 C299 C 0.02941 0.51077 0.82824
 C300 C 0.06064 0.51279 0.85702
 C301 C 0.10726 0.50127 0.80229
 C302 C -0.03564 0.55775 0.69128
 C303 C -0.03294 0.58874 0.66373
 C304 C 0.03316 0.60465 0.69038
 C305 C 0.02922 0.57330 0.71748
 N306 N -0.00438 0.54985 0.71672
 H307 H 0.08079 0.49611 0.74192
 H308 H -0.00089 0.51476 0.83846
 H309 H 0.05395 0.51796 0.88908
 H310 H 0.13730 0.49670 0.79132
 H311 H -0.06262 0.53978 0.69195
 H312 H -0.05740 0.59379 0.64254
 H313 H 0.06066 0.62208 0.68999
 H314 H 0.05357 0.56720 0.73824
 C315 C -0.01204 0.39537 0.66213
 C316 C -0.11648 0.50196 0.83823
 C317 C 0.00209 0.61200 0.66264
 C318 C 0.10021 0.50820 0.84419
 C319 C 0.07017 0.17031 0.46250
 C320 C 0.06910 0.19765 0.49593
 C321 C 0.09911 0.19590 0.52648
 C322 C 0.12780 0.16746 0.52585
 C323 C 0.12801 0.13952 0.49475
 C324 C 0.09919 0.14069 0.46270
 C325 C 0.04232 0.17073 0.42931
 C326 C 0.04244 0.14274 0.39840
 C327 C 0.06986 0.11335 0.39963
 C328 C 0.09781 0.11207 0.43145
 H329 H 0.01971 0.19217 0.42641
 H330 H 0.02074 0.14363 0.37355
 H331 H 0.06939 0.09132 0.37587
 H332 H 0.11796 0.08813 0.43137
 H333 H 0.10066 0.21593 0.55188
 H334 H 0.14992 0.16692 0.55038
 C335 C 0.70292 0.62654 0.00192
 C336 C 0.68700 0.58775 -0.00223
 C337 C 0.64528 0.58274 -0.00875
 C338 C 0.62001 0.61366 -0.00928
 C339 C 0.63465 0.65152 -0.00380
 C340 C 0.67641 0.65851 0.00129
 C341 C 0.74446 0.63456 0.00648
 C342 C 0.75940 0.67258 0.01041
 C343 C 0.73355 0.70347 0.00961
 C344 C 0.69245 0.69666 0.00492
 H345 H 0.76603 0.61189 0.00676
 H346 H 0.79132 0.67813 0.01386
 H347 H 0.74545 0.73290 0.01238
 H348 H 0.67346 0.72151 0.00374
 H349 H 0.63087 0.55457 -0.01316
 H350 H 0.58816 0.60774 -0.01337
 C351 C 0.92804 -0.16666 0.53690
 C352 C 0.92914 -0.19371 0.50331
 C353 C 0.89948 -0.19120 0.47244
 C354 C 0.87172 -0.16194 0.47254
 C355 C 0.87204 -0.13378 0.50339
 C356 C 0.90025 -0.13590 0.53601
 C357 C 0.95476 -0.16849 0.57089
 C358 C 0.95514 -0.14050 0.60182
 C359 C 0.92933 -0.10977 0.59974
 C360 C 0.90230 -0.10724 0.56717
 H361 H 0.97603 -0.19114 0.57431
 H362 H 0.97601 -0.14242 0.62731
 H363 H 0.93028 -0.08771 0.62347
 H364 H 0.88346 -0.08232 0.56658
 H365 H 0.89733 -0.21125 0.44712
 H366 H 0.84983 -0.16102 0.44782
 C367 C 0.33463 0.41571 0.94994
 C368 C 0.30777 0.41614 0.98431
 C369 C 0.31016 0.38593 1.01337
 C370 C 0.33931 0.35802 1.01084
 C371 C 0.36715 0.35872 0.97907
 C372 C 0.36380 0.38636 0.94724
 C373 C 0.33423 0.44425 0.91853
 C374 C 0.36018 0.44290 0.88522
 C375 C 0.38737 0.41341 0.88214
 C376 C 0.38931 0.38540 0.91277
 H377 H 0.31437 0.46825 0.91883
 H378 H 0.35910 0.46491 0.86155
 H379 H 0.40720 0.41233 0.85600
 H380 H 0.41078 0.36279 0.90899
 H381 H 0.29093 0.38414 1.03974
 H382 H 0.34133 0.33666 1.03513
 C383 C 0.89359 0.20262 0.53170
 C384 C 0.92110 0.20372 0.49871
 C385 C 0.91405 0.17954 0.46455
 C386 C 0.88234 0.15256 0.46392
 C387 C 0.85666 0.14856 0.49758
 C388 C 0.86097 0.17489 0.53105
 C389 C 0.89842 0.22745 0.56595
 C390 C 0.87140 0.22566 0.59844
 C391 C 0.83908 0.19923 0.59740
 C392 C 0.83374 0.17407 0.56406
 H393 H 0.92270 0.24865 0.56779
 H394 H 0.87545 0.24505 0.62445
 H395 H 0.81802 0.19823 0.62256
 H396 H 0.80800 0.15428 0.56418
 H397 H 0.93485 0.17996 0.43909
 H398 H 0.87947 0.13287 0.43799
 C399 C 0.33662 0.56142 0.04174
 C400 C 0.30558 0.55823 0.01154
 C401 C 0.29761 0.59026 -0.01326
 C402 C 0.32214 0.62367 -0.01151
 C403 C 0.35494 0.62626 0.01557
 C404 C 0.36201 0.59532 0.04310
 C405 C 0.34307 0.53158 0.07065
 C406 C 0.37469 0.53428 0.09876
 C407 C 0.40061 0.56655 0.09871
 C408 C 0.39453 0.59679 0.07119
 H409 H 0.32348 0.50611 0.07232
 H410 H 0.37922 0.51110 0.12058
 H411 H 0.42544 0.56828 0.12028
 H412 H 0.41562 0.62114 0.07228
 H413 H 0.27352 0.58876 -0.03566
 H414 H 0.31634 0.64726 -0.03251
 C415 C 0.10670 -0.20045 0.47163
 C416 C 0.07736 -0.20068 0.50302
 C417 C 0.08284 -0.17574 0.53687
 C418 C 0.11395 -0.14811 0.53794
 C419 C 0.14070 -0.14446 0.50518
 C420 C 0.13862 -0.17200 0.47274
 C421 C 0.10464 -0.22688 0.43854
 C422 C 0.13324 -0.22564 0.40750
 C423 C 0.16459 -0.19818 0.40887
 C424 C 0.16746 -0.17163 0.44119
 H425 H 0.08152 -0.24913 0.43652
 H426 H 0.13120 -0.24627 0.38239
 H427 H 0.18689 -0.19755 0.38486
 H428 H 0.19263 -0.15113 0.44150
 H429 H 0.06102 -0.17580 0.56141
 H430 H 0.11540 -0.12762 0.56324
 C431 C 0.66643 0.42450 1.03694
 C432 C 0.69755 0.43329 1.00885
 C433 C 0.70882 0.40556 0.98017
 C434 C 0.68721 0.37038 0.97672
 C435 C 0.65422 0.36225 1.00215
 C436 C 0.64423 0.38894 1.03341
 C437 C 0.65608 0.45129 1.06773
 C438 C 0.62416 0.44342 1.09407
 C439 C 0.60166 0.40908 1.08997
 C440 C 0.61127 0.38215 1.05988
 H441 H 0.67280 0.47833 1.07214
 H442 H 0.61669 0.46420 1.11758
 H443 H 0.57654 0.40329 1.11015
 H444 H 0.59240 0.35627 1.05767
 H445 H 0.73211 0.41258 0.95817
 H446 H 0.69471 0.35036 0.95244
 C447 C 0.45907 0.08409 1.15977
 C448 C 0.49324 0.07932 1.18626
 C449 C 0.52544 0.10653 1.18287
 C450 C 0.52542 0.13588 1.15361
 C451 C 0.49321 0.13975 1.12663
 C452 C 0.45899 0.11502 1.13065
 C453 C 0.42502 0.05858 1.16074
 C454 C 0.39178 0.06430 1.13559
 C455 C 0.39142 0.09539 1.10856
 C456 C 0.42463 0.12054 1.10595
 H457 H 0.42326 0.03371 1.18045
 H458 H 0.36609 0.04448 1.13721
 H459 H 0.36538 0.09993 1.08936
 H460 H 0.42297 0.14454 1.08467
 H461 H 0.55202 0.10510 1.20155
 H462 H 0.55171 0.15488 1.15087
 C463 C 0.02178 0.65730 0.55697
 C464 C 0.00823 0.69584 0.56400
 C465 C -0.00211 0.70605 0.60450
 C466 C -0.00263 0.67910 0.63637
 C467 C 0.00768 0.64081 0.62930
 C468 C 0.02106 0.62980 0.58994
 C469 C 0.03520 0.64448 0.51834
 C470 C 0.04707 0.60655 0.51203
 C471 C 0.04610 0.58011 0.54411
 C472 C 0.03329 0.59147 0.58276
 H473 H 0.03715 0.66290 0.49230
 H474 H 0.05713 0.59766 0.48195
 H475 H 0.05538 0.55068 0.53907
 H476 H 0.03320 0.56994 0.60695
 H477 H -0.01113 0.73524 0.61150
 H478 H -0.01236 0.68793 0.66660
 C479 C 0.48685 0.88615 -0.20987
 C480 C 0.48284 0.92508 -0.19547
 C481 C 0.46854 0.93037 -0.15522
 C482 C 0.46478 0.89959 -0.12796
 C483 C 0.47433 0.86220 -0.13995
 C484 C 0.48392 0.85475 -0.18140
 C485 C 0.49340 0.87739 -0.25179
 C486 C 0.49895 0.83936 -0.26470
 C487 C 0.49761 0.80911 -0.23646
 C488 C 0.48993 0.81656 -0.19519
 H489 H 0.49366 0.89943 -0.27532
 H490 H 0.50413 0.83331 -0.29688
 H491 H 0.50189 0.77965 -0.24670
 H492 H 0.48800 0.79212 -0.17436
 H493 H 0.46029 0.95838 -0.14387
 H494 H 0.45583 0.90530 -0.09659
 C495 C 0.95803 0.30627 0.41028
 C496 C 0.99078 0.30547 0.43851
 C497 C 1.02169 0.33362 0.43510
 C498 C 1.02029 0.36273 0.40569
 C499 C 0.98925 0.36367 0.37643
 C500 C 0.95819 0.33448 0.37795
 C501 C 0.92675 0.27784 0.41124
 C502 C 0.89681 0.27660 0.38122
 C503 C 0.89791 0.30291 0.34891
 C504 C 0.92846 0.33121 0.34686
 H505 H 0.92535 0.25590 0.43463
 H506 H 0.87317 0.25448 0.38250
 H507 H 0.87524 0.30106 0.32497
 H508 H 0.92894 0.34959 0.32001
 H509 H 1.04698 0.33364 0.45620
 H510 H 1.04421 0.38464 0.40560
 C511 C 0.46684 0.90555 0.20999
 C512 C 0.49453 0.93683 0.20135
 C513 C 0.52225 0.93230 0.16954
 C514 C 0.52174 0.89940 0.14512
 C515 C 0.49283 0.86980 0.15054
 C516 C 0.46562 0.87208 0.18375
 C517 C 0.43800 0.90775 0.24144
 C518 C 0.40941 0.87809 0.24741
 C519 C 0.40825 0.84582 0.22179
 C520 C 0.43574 0.84288 0.19001
 H521 H 0.43652 0.93231 0.26153
 H522 H 0.38764 0.88047 0.27174
 H523 H 0.38560 0.82314 0.22624
 H524 H 0.43288 0.81773 0.17027
 H525 H 0.54438 0.95503 0.16285
 H526 H 0.54301 0.89792 0.12017
 C527 C -0.01098 0.29298 0.61507
 C528 C -0.00873 0.30272 0.57272
 C529 C -0.01086 0.34162 0.56093
 C530 C -0.01282 0.37099 0.59030
 C531 C -0.01302 0.36242 0.63246
 C532 C -0.01335 0.32302 0.64514
 C533 C -0.01194 0.25392 0.62815
 C534 C -0.01507 0.24466 0.66974
 C535 C -0.01762 0.27392 0.69903
 C536 C -0.01699 0.31273 0.68700
 H537 H -0.01110 0.23020 0.60641
 H538 H -0.01594 0.21458 0.67927
 H539 H -0.02047 0.26649 0.73124
 H540 H -0.02007 0.33442 0.71073
 H541 H -0.00948 0.34948 0.52869
 H542 H -0.01301 0.40086 0.58003
 C543 C 0.53901 0.09817 0.78429
 C544 C 0.50633 0.07137 0.79000
 C545 C 0.47401 0.08216 0.81435
 C546 C 0.47495 0.11705 0.83567
 C547 C 0.50822 0.14249 0.83330
 C548 C 0.53972 0.13416 0.80601
 C549 C 0.57163 0.08988 0.75877
 C550 C 0.60354 0.11642 0.75396
 C551 C 0.60367 0.15186 0.77441
 C552 C 0.57208 0.16081 0.80018
 H553 H 0.57291 0.06316 0.74206
 H554 H 0.62823 0.10948 0.73410
 H555 H 0.62835 0.17251 0.77030
 H556 H 0.57302 0.18885 0.81521
 H557 H 0.44843 0.06250 0.81842
 H558 H 0.45052 0.12306 0.85627
 C559 C 1.01697 0.71044 0.38391
 C560 C 1.00314 0.70236 0.42417
 C561 C 0.98741 0.66541 0.43316
 C562 C 0.98974 0.63532 0.40504
 C563 C 1.00535 0.64163 0.36559
 C564 C 1.01799 0.67990 0.35421
 C565 C 1.02845 0.74850 0.37212
 C566 C 1.04116 0.75637 0.33218
 C567 C 1.04176 0.72679 0.30306
 C568 C 1.02990 0.68901 0.31367
 H569 H 1.02730 0.77250 0.39352
 H570 H 1.05005 0.78569 0.32362
 H571 H 1.05097 0.73325 0.27189
 H572 H 1.02939 0.66744 0.28955
 H573 H 0.97350 0.65963 0.46262
 H574 H 0.97893 0.60671 0.41422
 C575 C 1.20462 0.51461 0.09992
 C576 C 1.20060 0.48741 0.06728
 C577 C 1.16653 0.46286 0.06531
 C578 C 1.13632 0.46527 0.09446
 C579 C 1.13947 0.49181 0.12716
 C580 C 1.17442 0.51615 0.13069
 C581 C 1.23860 0.53962 0.10337
 C582 C 1.24348 0.56486 0.13663
 C583 C 1.21482 0.56538 0.16741
 C584 C 1.18072 0.54116 0.16476
 H585 H 1.26171 0.53975 0.08061
 H586 H 1.26991 0.58373 0.13878
 H587 H 1.21910 0.58451 0.19360
 H588 H 1.15989 0.54188 0.19000
 H589 H 1.16305 0.44189 0.04059
 H590 H 1.11001 0.44634 0.09129
 C591 C 0.61497 -0.00297 0.71341
 C592 C 0.57531 -0.01302 0.70095
 C593 C 0.56814 -0.02702 0.66121
 C594 C 0.59820 -0.02597 0.63204
 C595 C 0.63719 -0.01308 0.64234
 C596 C 0.64634 -0.00314 0.68388
 C597 C 0.62425 0.00647 0.75470
 C598 C 0.66353 0.01577 0.76666
 C599 C 0.69428 0.01508 0.73802
 C600 C 0.68599 0.00540 0.69710
 H601 H 0.60129 0.00668 0.77803
 H602 H 0.67020 0.02312 0.79840
 H603 H 0.72481 0.02170 0.74765
 H604 H 0.71101 0.00392 0.67632
 H605 H 0.53871 -0.03833 0.65242
 H606 H 0.59066 -0.03477 0.60087
 C607 C -0.15930 0.50618 0.94705
 C608 C -0.20075 0.50970 0.93776
 C609 C -0.21312 0.50920 0.89638
 C610 C -0.18562 0.50599 0.86460
 C611 C -0.14476 0.50285 0.87306
 C612 C -0.13121 0.50266 0.91446
 C613 C -0.14470 0.50769 0.98779
 C614 C -0.10399 0.50497 0.99656
 C615 C -0.07672 0.50127 0.96482
 C616 C -0.09000 0.50038 0.92411
 H617 H -0.16430 0.51137 1.01321
 H618 H -0.09355 0.50610 1.02816
 H619 H -0.04508 0.49947 0.97174
 H620 H -0.06759 0.49825 0.90042
 H621 H -0.24450 0.51191 0.88854
 H622 H -0.19626 0.50637 0.83305
 C623 C 0.38795 -0.00393 0.28805
 C624 C 0.42811 0.00352 0.30090
 C625 C 0.43670 0.00930 0.34259
 C626 C 0.40625 0.00835 0.37157
 C627 C 0.36611 0.00233 0.35968
 C628 C 0.35655 -0.00360 0.31748
 C629 C 0.37831 -0.01142 0.24641
 C630 C 0.33863 -0.01681 0.23369
 C631 C 0.30780 -0.01467 0.26209
 C632 C 0.31650 -0.00803 0.30357
 H633 H 0.40140 -0.01390 0.22356
 H634 H 0.33175 -0.02246 0.20161
 H635 H 0.27698 -0.01829 0.25195
 H636 H 0.29151 -0.00602 0.32433
 H637 H 0.46697 0.01614 0.35270
 H638 H 0.41402 0.01310 0.40364
 C639 C 0.20186 0.52545 0.89900
 C640 C 0.19682 0.49965 0.93249
 C641 C 0.16035 0.47928 0.93732
 C642 C 0.12934 0.48322 0.90896
 C643 C 0.13350 0.50810 0.87501
 C644 C 0.16959 0.53066 0.87070
 C645 C 0.23850 0.54588 0.89277
 C646 C 0.24266 0.57251 0.86075
 C647 C 0.21055 0.57919 0.83443
 C648 C 0.17430 0.55859 0.83926
 H649 H 0.26414 0.54137 0.91250
 H650 H 0.27085 0.58826 0.85653
 H651 H 0.21378 0.60036 0.81003
 H652 H 0.15002 0.56515 0.81849
 H653 H 0.15632 0.45917 0.96264
 H654 H 0.10214 0.46577 0.91297
 C655 C 0.60783 0.00029 0.28195
 C656 C 0.56739 -0.00075 0.29531
 C657 C 0.55914 -0.00785 0.33677
 C658 C 0.58998 -0.01060 0.36551
 C659 C 0.63014 -0.00666 0.35369
 C660 C 0.63948 -0.00168 0.31149
 C661 C 0.61754 0.00292 0.23980
 C662 C 0.65734 0.00575 0.22726
 C663 C 0.68817 0.00591 0.25627
 C664 C 0.67950 0.00226 0.29800
 H665 H 0.59459 0.00228 0.21616
 H666 H 0.66430 0.00795 0.19486
 H667 H 0.71900 0.00857 0.24636
 H668 H 0.70442 0.00259 0.31939
 H669 H 0.52859 -0.00982 0.34739
 H670 H 0.58240 -0.01485 0.39758
 C671 C 0.79100 0.48001 0.10426
 C672 C 0.78984 0.51345 0.07894
 C673 C 0.81811 0.54367 0.08538
 C674 C 0.84878 0.54020 0.11413
 C675 C 0.85149 0.50698 0.13873
 C676 C 0.82137 0.47718 0.13511
 C677 C 0.76187 0.44985 0.10054
 C678 C 0.76193 0.41795 0.12678
 C679 C 0.79072 0.41574 0.15771
 C680 C 0.82000 0.44513 0.16218
 H681 H 0.73848 0.45099 0.07789
 H682 H 0.73911 0.39517 0.12351
 H683 H 0.79017 0.39130 0.17858
 H684 H 0.84089 0.44276 0.18751
 H685 H 0.81767 0.56947 0.06638
 H686 H 0.87125 0.56342 0.11644
 C687 C 0.44610 0.01994 0.64679
 C688 C 0.43839 0.01074 0.68885
 C689 C 0.39858 0.01076 0.70276
 C690 C 0.36671 0.01522 0.67567
 C691 C 0.37356 0.02037 0.63377
 C692 C 0.41324 0.02490 0.61924
 C693 C 0.48514 0.02337 0.63075
 C694 C 0.49184 0.03181 0.58940
 C695 C 0.45973 0.03718 0.56288
 C696 C 0.42074 0.03387 0.57753
 H697 H 0.51104 0.02021 0.64952
 H698 H 0.52217 0.03441 0.57797
 H699 H 0.46505 0.04402 0.53085
 H700 H 0.39656 0.03876 0.55599
 H701 H 0.39184 0.00537 0.73484
 H702 H 0.33639 0.01238 0.68717
   
