data_POSCAR
  _audit_creation_date              2014-09-24
  _audit_creation_method            'ToBaCCo'
  _symmetry_space_group_name_H-M    'P1'
  _symmetry_Int_Tables_number       1
  _symmetry_cell_setting            triclinic
  loop_
  _symmetry_equiv_pos_as_xyz
 x,y,z
_cell_length_a 27.2252
_cell_length_b 27.2581
_cell_length_c 27.2877
_cell_angle_alpha 90.044100
_cell_angle_beta 90.082000
_cell_angle_gamma 90.104400
loop_
  _atom_site_label
  _atom_site_type_symbol
  _atom_site_fract_x
  _atom_site_fract_y
  _atom_site_fract_z
O1 O 0.27351 1.05257 0.44008
 O2 O 0.29226 0.95043 0.52599
 O3 O 0.28028 0.95859 0.43175
 O4 O 0.28697 1.04584 0.53332
 O5 O 0.20837 1.03363 0.54882
 O6 O 0.19992 0.95181 0.44178
 O7 O 0.21191 0.94125 0.53438
 O8 O 0.19353 1.04754 0.45326
 Cu9 Cu 0.29137 1.00244 0.48178
 Cu10 Cu 0.19503 0.99367 0.49516
 C11 C 0.23015 1.06752 0.43243
 C12 C 0.25548 0.92837 0.54439
 C13 C 0.23915 0.94058 0.41944
 C14 C 0.24926 1.05362 0.55942
 O15 O 0.70935 -0.04197 0.46224
 O16 O 0.70884 0.04233 0.56813
 O17 O 0.70712 0.05446 0.47339
 O18 O 0.70941 -0.05295 0.55554
 O19 O 0.79033 -0.04850 0.55761
 O20 O 0.78819 0.05508 0.47176
 O21 O 0.78991 0.04519 0.56719
 O22 O 0.79048 -0.04010 0.46201
 Cu23 Cu 0.70051 0.00068 0.51467
 Cu24 Cu 0.79783 0.00319 0.51432
 C25 C 0.75016 -0.05632 0.44489
 C26 C 0.74919 0.05769 0.58604
 C27 C 0.74727 0.07284 0.45839
 C28 C 0.75048 -0.06885 0.57093
 O29 O 0.28721 0.44509 0.95162
 O30 O 0.28258 0.55216 1.03216
 O31 O 0.28248 0.45814 1.04721
 O32 O 0.28724 0.53868 0.93841
 O33 O 0.20615 0.53903 0.93524
 O34 O 0.20171 0.45590 1.04177
 O35 O 0.20153 0.55196 1.02847
 O36 O 0.20620 0.44378 0.94705
 Cu37 Cu 0.29297 0.49824 0.99292
 Cu38 Cu 0.19571 0.49730 0.98792
 C39 C 0.24779 0.42666 0.93490
 C40 C 0.24151 0.57086 1.04347
 C41 C 0.24122 0.44312 1.06315
 C42 C 0.24746 0.55324 0.91888
 O43 O 0.44250 0.29567 1.06074
 O44 O 0.54612 0.28983 0.97431
 O45 O 0.45125 0.29001 0.96381
 O46 O 0.53651 0.29815 1.06902
 O47 O 0.53859 0.21729 1.07235
 O48 O 0.45064 0.20927 0.97055
 O49 O 0.54658 0.20892 0.97909
 O50 O 0.44313 0.21474 1.06585
 Cu51 Cu 0.49370 0.30155 1.01611
 Cu52 Cu 0.49441 0.20445 1.02239
 C53 C 0.42611 0.25605 1.07893
 C54 C 0.56441 0.24861 0.96249
 C55 C 0.43668 0.24819 0.94919
 C56 C 0.55244 0.25889 1.08842
 O57 O 0.45620 0.70548 -0.05704
 O58 O 0.54444 0.72346 0.04396
 O59 O 0.45093 0.72033 0.03663
 O60 O 0.55213 0.70982 -0.05178
 O61 O 0.55489 0.79042 -0.05832
 O62 O 0.44606 0.79977 0.02097
 O63 O 0.54066 0.80381 0.03375
 O64 O 0.45953 0.78505 -0.07240
 Cu65 Cu 0.50147 0.70654 -0.00628
 Cu66 Cu 0.49997 0.80279 -0.02061
 C67 C 0.44303 0.74249 -0.08186
 C68 C 0.55629 0.76666 0.05700
 C69 C 0.43117 0.76186 0.04356
 C70 C 0.57184 0.74842 -0.06907
 O71 O 1.03940 0.48466 0.28587
 O72 O 0.93119 0.56500 0.27612
 O73 O 0.94132 0.47620 0.28847
 O74 O 1.02165 0.58327 0.26647
 O75 O 1.03831 0.55320 0.19352
 O76 O 0.93848 0.46346 0.20855
 O77 O 0.93801 0.56006 0.19558
 O78 O 1.02944 0.46093 0.20914
 Cu79 Cu 0.98623 0.52811 0.28746
 Cu80 Cu 0.98547 0.51008 0.19305
 C81 C 1.05029 0.45631 0.25049
 C82 C 0.91699 0.57715 0.23362
 C83 C 0.92434 0.45296 0.25162
 C84 C 1.04494 0.58562 0.22625
 O85 O -0.04190 0.43684 0.71597
 O86 O 0.05397 0.53027 0.69860
 O87 O 0.05412 0.43575 0.70808
 O88 O -0.04142 0.53174 0.70810
 O89 O -0.03362 0.53969 0.78818
 O90 O 0.06012 0.44267 0.78858
 O91 O 0.06037 0.53878 0.77894
 O92 O -0.03502 0.44393 0.79630
 Cu93 Cu 0.00536 0.48274 0.69967
 Cu94 Cu 0.01374 0.49180 0.79608
 C95 C -0.05478 0.42432 0.75888
 C96 C 0.07298 0.55088 0.73578
 C97 C 0.07328 0.42298 0.74855
 C98 C -0.05326 0.55276 0.74802
 O99 O 0.43559 0.96463 0.28787
 O100 O 0.52926 1.05969 0.30891
 O101 O 0.43480 1.06135 0.30021
 O102 O 0.53039 0.96586 0.29813
 O103 O 0.54108 0.97864 0.21893
 O104 O 0.43764 1.06581 0.21956
 O105 O 0.53310 1.07293 0.22902
 O106 O 0.44533 0.97219 0.20787
 Cu107 Cu 0.48119 1.01174 0.30683
 Cu108 Cu 0.49001 1.02327 0.21079
 C109 C 0.42506 0.95170 0.24436
 C110 C 0.54679 1.08261 0.27246
 C111 C 0.41961 1.07976 0.26019
 C112 C 0.55322 0.95726 0.25851
 O113 O 1.04558 0.28994 0.56695
 O114 O 0.94278 0.29979 0.48069
 O115 O 0.95040 0.28524 0.57457
 O116 O 1.03778 0.29584 0.47280
 O117 O 1.03833 0.21511 0.46529
 O118 O 0.94694 0.20493 0.56329
 O119 O 0.94446 0.21964 0.46824
 O120 O 1.04254 0.20931 0.56056
 Cu121 Cu 0.99407 0.30081 0.52481
 Cu122 Cu 0.99285 0.20405 0.51383
 C123 C 1.06161 0.24793 0.57861
 C124 C 0.92728 0.26186 0.45860
 C125 C 0.93361 0.24327 0.58582
 C126 C 1.05280 0.25714 0.45156
 O127 O -0.04673 0.70408 0.53389
 O128 O 0.04331 0.70785 0.43317
 O129 O 0.05011 0.70369 0.52754
 O130 O -0.05200 0.70874 0.43875
 O131 O -0.05033 0.78976 0.44141
 O132 O 0.04951 0.78457 0.53222
 O133 O 0.04352 0.78882 0.43728
 O134 O -0.04624 0.78511 0.53750
 Cu135 Cu -0.00159 0.69789 0.48335
 Cu136 Cu -0.00098 0.79519 0.48792
 C137 C -0.06196 0.74394 0.55246
 C138 C 0.05841 0.74920 0.41787
 C139 C 0.06772 0.74346 0.54440
 C140 C -0.06754 0.75010 0.42398
 O141 O 0.70199 0.46242 1.06230
 O142 O 0.71393 0.54555 0.95626
 O143 O 0.71079 0.45093 0.96839
 O144 O 0.69999 0.55695 1.05017
 O145 O 0.78074 0.55975 1.05802
 O146 O 0.79128 0.44959 0.97867
 O147 O 0.79460 0.54625 0.96544
 O148 O 0.78265 0.46406 1.07195
 Cu149 Cu 0.69868 0.50390 1.00830
 Cu150 Cu 0.79544 0.50495 1.01943
 C151 C 0.74053 0.44880 1.08470
 C152 C 0.75619 0.56063 0.94335
 C153 C 0.75228 0.43157 0.96018
 C154 C 0.73837 0.57699 1.06737
 O155 O 0.46690 1.04233 0.71780
 O156 O 0.56067 0.94666 0.71326
 O157 O 0.46509 0.94604 0.70901
 O158 O 0.55940 1.04131 0.72810
 O159 O 0.55200 1.03176 0.80828
 O160 O 0.46094 0.93512 0.78914
 O161 O 0.55680 0.93817 0.79376
 O162 O 0.45661 1.02902 0.79694
 Cu163 Cu 0.51358 0.99464 0.70880
 Cu164 Cu 0.50602 0.98238 0.80508
 C165 C 0.44587 1.05236 0.75800
 C166 C 0.57539 0.92693 0.75260
 C167 C 0.44690 0.92451 0.74615
 C168 C 0.57081 1.05324 0.77167
 C169 C 0.23346 0.23026 0.29694
 C170 C 0.19768 0.26802 0.29695
 C171 C 0.19822 0.30465 0.26012
 C172 C 0.23473 0.30451 0.22302
 C173 C 0.27125 0.26721 0.22371
 C174 C 0.27020 0.22950 0.25999
 C175 C 0.74399 0.80358 0.28468
 C176 C 0.77779 0.76454 0.27898
 C177 C 0.77248 0.73113 0.23955
 C178 C 0.73336 0.73652 0.20583
 C179 C 0.69956 0.77549 0.21150
 C180 C 0.70492 0.80911 0.25076
 C181 C 0.75309 0.20035 0.74473
 C182 C 0.79205 0.23505 0.74314
 C183 C 0.79521 0.27289 0.77914
 C184 C 0.76088 0.27414 0.81808
 C185 C 0.72204 0.23958 0.81971
 C186 C 0.71860 0.20265 0.78353
 C187 C 0.26424 0.77209 0.68786
 C188 C 0.30033 0.77005 0.72538
 C189 C 0.29922 0.73200 0.76111
 C190 C 0.26090 0.69650 0.75988
 C191 C 0.22500 0.69844 0.72211
 C192 C 0.22669 0.73596 0.68618
 C193 C 0.22545 0.23457 0.71329
 C194 C 0.22339 0.27250 0.74937
 C195 C 0.25888 0.27423 0.78758
 C196 C 0.29656 0.23872 0.78969
 C197 C 0.29758 0.20029 0.75531
 C198 C 0.26173 0.19787 0.71807
 C199 C 0.79515 0.73917 0.71056
 C200 C 0.75739 0.77488 0.71159
 C201 C 0.72242 0.77464 0.74999
 C202 C 0.72535 0.73894 0.78767
 C203 C 0.76407 0.70401 0.78710
 C204 C 0.79881 0.70356 0.74829
 C205 C 0.19691 0.76664 0.25584
 C206 C 0.23477 0.80259 0.25859
 C207 C 0.27176 0.80400 0.22220
 C208 C 0.27077 0.77032 0.18317
 C209 C 0.23272 0.73508 0.17940
 C210 C 0.19482 0.73343 0.21549
 C211 C 0.77330 0.27009 0.31348
 C212 C 0.77171 0.30502 0.27523
 C213 C 0.73367 0.30277 0.23983
 C214 C 0.69712 0.26542 0.24246
 C215 C 0.69882 0.23036 0.28140
 C216 C 0.73737 0.23265 0.31657
 C217 C 0.22653 0.15694 0.41589
 C218 C 0.22261 0.10882 0.39915
 C219 C 0.21545 0.10136 0.34870
 C220 C 0.21835 0.14114 0.31586
 C221 C 0.22923 0.18893 0.33274
 C222 C 0.22914 0.19628 0.38383
 C223 C 0.26320 0.22324 0.41773
 C224 C 0.26060 0.17944 0.45209
 H225 H 0.21013 0.06468 0.33449
 H226 H 0.21335 0.13442 0.27717
 H227 H 0.24601 0.25589 0.43454
 H228 H 0.30039 0.22970 0.40266
 H229 H 0.24207 0.18770 0.48742
 H230 H 0.29592 0.15924 0.45523
 C231 C 0.78483 0.90836 0.36753
 C232 C 0.75078 0.90629 0.40582
 C233 C 0.71885 0.86553 0.40745
 C234 C 0.71825 0.83087 0.36908
 C235 C 0.74828 0.83717 0.32756
 C236 C 0.78306 0.87503 0.32897
 C237 C 0.79515 0.91332 0.29191
 C238 C 0.79702 0.94990 0.33402
 H239 H 0.69376 0.86100 0.43787
 H240 H 0.69280 0.80040 0.37076
 H241 H 0.76456 0.92026 0.26587
 H242 H 0.83155 0.90709 0.27465
 H243 H 0.76744 0.97796 0.33238
 H244 H 0.83448 0.96469 0.34089
 C245 C 0.70744 0.11851 0.64029
 C246 C 0.74857 0.08996 0.62951
 C247 C 0.78882 0.09282 0.66193
 C248 C 0.78915 0.12717 0.70061
 C249 C 0.74983 0.16023 0.70721
 C250 C 0.70794 0.15295 0.67784
 C251 C 0.67747 0.18795 0.64833
 C252 C 0.67766 0.15026 0.60733
 H253 H 0.82062 0.06963 0.65654
 H254 H 0.82094 0.12915 0.72428
 H255 H 0.69664 0.22247 0.63868
 H256 H 0.64001 0.19331 0.66322
 H257 H 0.69846 0.16240 0.57444
 H258 H 0.64082 0.13432 0.59976
 C259 C 0.26905 0.89871 0.62885
 C260 C 0.26347 0.88854 0.57920
 C261 C 0.26537 0.83916 0.56422
 C262 C 0.26720 0.80123 0.59944
 C263 C 0.26604 0.81208 0.65018
 C264 C 0.26998 0.86177 0.66329
 C265 C 0.24490 0.89283 0.70075
 C266 C 0.24290 0.93323 0.66218
 H267 H 0.26343 0.82990 0.52566
 H268 H 0.26782 0.76351 0.58707
 H269 H 0.26932 0.90252 0.73189
 H270 H 0.20843 0.87868 0.71159
 H271 H 0.26574 0.96574 0.67168
 H272 H 0.20501 0.94159 0.64946
 C273 C 0.34167 0.23711 0.10821
 C274 C 0.38778 0.25784 0.11659
 C275 C 0.39711 0.27821 0.16318
 C276 C 0.35924 0.28138 0.19834
 C277 C 0.31094 0.26673 0.18640
 C278 C 0.30384 0.24317 0.14154
 C279 C 0.26671 0.25091 0.10227
 C280 C 0.30782 0.24287 0.06579
 H281 H 0.43336 0.29201 0.17214
 H282 H 0.36715 0.29672 0.23411
 H283 H 0.25299 0.28912 0.10093
 H284 H 0.23827 0.22163 0.10149
 H285 H 0.31629 0.27596 0.04350
 H286 H 0.30358 0.20788 0.04538
 C287 C 0.42069 0.74214 0.83003
 C288 C 0.40694 0.73685 0.87886
 C289 C 0.35643 0.73513 0.88954
 C290 C 0.32139 0.73379 0.85145
 C291 C 0.33624 0.73230 0.80182
 C292 C 0.38657 0.73920 0.79271
 C293 C 0.42210 0.71599 0.75824
 C294 C 0.45925 0.71745 0.80012
 H295 H 0.34411 0.73493 0.92723
 H296 H 0.28282 0.73368 0.86090
 H297 H 0.43244 0.74093 0.72785
 H298 H 0.41164 0.67846 0.74650
 H299 H 0.49106 0.74192 0.79272
 H300 H 0.46872 0.68047 0.81443
 C301 C 0.62371 0.81080 0.10080
 C302 C 0.58788 0.77399 0.10007
 C303 C 0.58272 0.74457 0.14217
 C304 C 0.61685 0.74821 0.18084
 C305 C 0.65755 0.77993 0.17713
 C306 C 0.65823 0.81321 0.13816
 C307 C 0.69850 0.82729 0.10394
 C308 C 0.66075 0.82448 0.06286
 H309 H 0.55371 0.71741 0.14425
 H310 H 0.61359 0.72370 0.21181
 H311 H 0.72758 0.79894 0.10110
 H312 H 0.71204 0.86517 0.11071
 H313 H 0.66784 0.79431 0.03633
 H314 H 0.65272 0.86071 0.04604
 C315 C 0.61355 0.28447 0.89475
 C316 C 0.60692 0.24735 0.92927
 C317 C 0.64291 0.21021 0.93183
 C318 C 0.68158 0.20857 0.89737
 C319 C 0.68392 0.24300 0.85887
 C320 C 0.65029 0.28178 0.85994
 C321 C 0.61831 0.30338 0.82108
 C322 C 0.57790 0.30621 0.85938
 H323 H 0.64058 0.18201 0.95967
 H324 H 0.70836 0.17934 0.89955
 H325 H 0.60973 0.27746 0.79100
 H326 H 0.63103 0.34011 0.80906
 H327 H 0.54627 0.28150 0.85159
 H328 H 0.56792 0.34446 0.86934
 C329 C 0.12972 0.42311 0.28357
 C330 C 0.08581 0.41626 0.25776
 C331 C 0.07572 0.36870 0.23996
 C332 C 0.11158 0.33154 0.24277
 C333 C 0.15900 0.34231 0.26048
 C334 C 0.16568 0.38722 0.28414
 C335 C 0.20673 0.42316 0.28274
 C336 C 0.16752 0.46259 0.28031
 H337 H 0.04075 0.36066 0.22275
 H338 H 0.10337 0.29539 0.22841
 H339 H 0.22911 0.42109 0.24893
 H340 H 0.22808 0.42382 0.31745
 H341 H 0.16668 0.48029 0.24397
 H342 H 0.16733 0.48738 0.31267
 C343 C 0.87672 0.37302 0.72619
 C344 C 0.90789 0.38560 0.76484
 C345 C 0.90515 0.35656 0.80760
 C346 C 0.86898 0.31954 0.81216
 C347 C 0.83365 0.31193 0.77490
 C348 C 0.84059 0.33807 0.73121
 C349 C 0.80727 0.36293 0.69559
 C350 C 0.84679 0.40255 0.69117
 H351 H 0.93078 0.36242 0.83742
 H352 H 0.86855 0.29720 0.84486
 H353 H 0.77245 0.37616 0.71177
 H354 H 0.80263 0.34162 0.66121
 H355 H 0.83551 0.43850 0.70680
 H356 H 0.86372 0.40421 0.65416
 C357 C 0.15006 0.58326 0.69842
 C358 C 0.10914 0.59016 0.72848
 C359 C 0.10241 0.63682 0.74960
 C360 C 0.13896 0.67322 0.74504
 C361 C 0.18370 0.66267 0.72135
 C362 C 0.18686 0.61836 0.69564
 C363 C 0.22644 0.58075 0.69319
 C364 C 0.18613 0.54212 0.69663
 H365 H 0.06969 0.64460 0.77073
 H366 H 0.13377 0.70824 0.76296
 H367 H 0.25098 0.58120 0.72564
 H368 H 0.24547 0.58090 0.65719
 H369 H 0.18722 0.52072 0.73131
 H370 H 0.18223 0.51982 0.66272
 C371 C 0.87764 0.65087 0.19623
 C372 C 0.87588 0.61156 0.22901
 C373 C 0.83518 0.60828 0.26071
 C374 C 0.80038 0.64632 0.26271
 C375 C 0.80661 0.68898 0.23437
 C376 C 0.84413 0.68902 0.19940
 C377 C 0.88196 0.72686 0.18793
 C378 C 0.91884 0.68515 0.18462
 H379 H 0.83158 0.57751 0.28555
 H380 H 0.77035 0.64376 0.28850
 H381 H 0.88911 0.75218 0.21904
 H382 H 0.87511 0.74503 0.15214
 H383 H 0.94707 0.68627 0.21403
 H384 H 0.93332 0.67945 0.14699
 C385 C 0.11166 0.20186 0.64063
 C386 C 0.10328 0.24426 0.61295
 C387 C 0.13829 0.28219 0.61579
 C388 C 0.18114 0.27658 0.64393
 C389 C 0.19001 0.23339 0.67085
 C390 C 0.15596 0.19469 0.66512
 C391 C 0.16079 0.14168 0.64382
 C392 C 0.10770 0.15010 0.62487
 H393 H 0.13340 0.31568 0.59502
 H394 H 0.20725 0.30646 0.64522
 H395 H 0.19838 0.05820 0.69909
 H396 H 0.18203 0.15015 0.60916
 H397 H 0.07867 0.13120 0.64646
 H398 H 0.10413 0.14524 0.58453
 C399 C 0.91359 0.75235 0.63991
 C400 C 0.90136 0.74253 0.59149
 C401 C 0.85153 0.73143 0.58191
 C402 C 0.81659 0.73064 0.62053
 C403 C 0.83108 0.73972 0.66965
 C404 C 0.88056 0.75036 0.67708
 C405 C 0.91832 0.76101 0.71526
 C406 C 0.95552 0.76361 0.67295
 H407 H 0.83959 0.72373 0.54483
 H408 H 0.77858 0.72232 0.61221
 H409 H 0.92499 0.72945 0.74001
 H410 H 0.91251 0.79659 0.73410
 H411 H 0.98296 0.73347 0.67371
 H412 H 0.97022 0.80114 0.66672
 C413 C 0.09679 0.79350 0.34806
 C414 C 0.09337 0.75176 0.37699
 C415 C 0.12569 0.71293 0.36501
 C416 C 0.15972 0.71777 0.32583
 C417 C 0.16169 0.76121 0.29722
 C418 C 0.12890 0.79811 0.31037
 C419 C 0.11049 0.84786 0.29721
 C420 C 0.07385 0.84217 0.33969
 H421 H 0.12521 0.67932 0.38613
 H422 H 0.18444 0.68776 0.31794
 H423 H 0.09287 0.84874 0.26046
 H424 H 0.13787 0.87701 0.30461
 H425 H 0.03500 0.83899 0.32749
 H426 H 0.08062 0.86795 0.37057
 C427 C 0.84901 0.29688 0.42705
 C428 C 0.89024 0.26731 0.42008
 C429 C 0.89668 0.24527 0.37383
 C430 C 0.85955 0.24842 0.33801
 C431 C 0.81459 0.27141 0.34896
 C432 C 0.81157 0.29809 0.39267
 C433 C 0.77269 0.30056 0.43101
 C434 C 0.81378 0.29904 0.46882
 H435 H 0.92975 0.22475 0.36588
 H436 H 0.86468 0.23041 0.30301
 H437 H 0.74908 0.26748 0.43203
 H438 H 0.75265 0.33602 0.43053
 H439 H 0.81383 0.26488 0.49105
 H440 H 0.81740 0.33364 0.49010
 C441 C 0.29154 0.38199 0.86909
 C442 C 0.25116 0.38548 0.90040
 C443 C 0.21500 0.34858 0.89774
 C444 C 0.21790 0.31172 0.86160
 C445 C 0.25603 0.31217 0.82664
 C446 C 0.29366 0.34660 0.83275
 C447 C 0.31572 0.38152 0.79681
 C448 C 0.31338 0.42029 0.83671
 H449 H 0.18424 0.34872 0.92286
 H450 H 0.18983 0.28357 0.86025
 H451 H 0.29118 0.38950 0.76534
 H452 H 0.35396 0.37171 0.78675
 H453 H 0.28717 0.45042 0.82839
 H454 H 0.35018 0.43236 0.84974
 C455 C 0.74658 0.36384 0.11623
 C456 C 0.73665 0.41306 0.12441
 C457 C 0.72305 0.42617 0.17262
 C458 C 0.72132 0.39016 0.21028
 C459 C 0.73246 0.34030 0.20032
 C460 C 0.74393 0.32919 0.15188
 C461 C 0.75999 0.28923 0.11828
 C462 C 0.76317 0.32873 0.07806
 H463 H 0.71450 0.46397 0.18128
 H464 H 0.71093 0.40108 0.24690
 H465 H 0.73034 0.26222 0.11123
 H466 H 0.79620 0.27362 0.12869
 H467 H 0.73558 0.32408 0.04833
 H468 H 0.80131 0.33640 0.06577
 C469 C 0.73970 0.58782 0.85764
 C470 C 0.76021 0.59689 0.90369
 C471 C 0.77966 0.64408 0.91259
 C472 C 0.78168 0.67928 0.87466
 C473 C 0.76645 0.66695 0.82676
 C474 C 0.74437 0.62144 0.81993
 C475 C 0.75276 0.58324 0.78217
 C476 C 0.74766 0.54627 0.82305
 H477 H 0.79293 0.65374 0.94878
 H478 H 0.79594 0.71558 0.88235
 H479 H 0.79050 0.58352 0.76719
 H480 H 0.72253 0.58145 0.75481
 H481 H 0.78265 0.52664 0.83043
 H482 H 0.71408 0.52362 0.81877
 C483 C 0.20323 0.64897 0.07413
 C484 C 0.24099 0.61457 0.07494
 C485 C 0.27951 0.62361 0.10854
 C486 C 0.27723 0.66360 0.14147
 C487 C 0.23703 0.69658 0.14099
 C488 C 0.20178 0.68847 0.10472
 C489 C 0.15300 0.70485 0.08611
 C490 C 0.15484 0.66020 0.05146
 H491 H 0.31018 0.59851 0.11117
 H492 H 0.30548 0.66693 0.16918
 H493 H 0.15521 0.74064 0.06676
 H494 H 0.12346 0.70201 0.11396
 H495 H 0.15824 0.67016 0.01212
 H496 H 0.12678 0.63180 0.06000
 C497 C 0.37495 0.09171 0.79541
 C498 C 0.41163 0.09029 0.75951
 C499 C 0.41382 0.12945 0.72568
 C500 C 0.37817 0.16663 0.72619
 C501 C 0.33751 0.16334 0.75767
 C502 C 0.33793 0.12667 0.79350
 C503 C 0.29907 0.09065 0.80716
 C504 C 0.33941 0.05231 0.80958
 H505 H 0.44322 0.13159 0.69904
 H506 H 0.38127 0.19681 0.70063
 H507 H 0.27224 0.08400 0.77715
 H508 H 0.28259 0.09861 0.84346
 H509 H 0.33578 0.02324 0.78116
 H510 H 0.34625 0.03858 0.84732
 C511 C 0.38229 0.87435 0.26875
 C512 C 0.38832 0.91304 0.23615
 C513 C 0.35612 0.91373 0.19536
 C514 C 0.31874 0.87768 0.19011
 C515 C 0.31298 0.83987 0.22528
 C516 C 0.34718 0.83929 0.26330
 C517 C 0.36302 0.81227 0.30807
 C518 C 0.40265 0.85222 0.31422
 H519 H 0.35876 0.94280 0.16847
 H520 H 0.29355 0.88016 0.15950
 H521 H 0.37822 0.77551 0.29923
 H522 H 0.33528 0.81283 0.33774
 H523 H 0.44066 0.83842 0.30908
 H524 H 0.39694 0.87603 0.34680
 C525 C 0.63275 0.10737 0.28936
 C526 C 0.58402 0.12026 0.28092
 C527 C 0.57174 0.17030 0.28319
 C528 C 0.60903 0.20616 0.28684
 C529 C 0.65922 0.19253 0.28657
 C530 C 0.66937 0.14227 0.29213
 C531 C 0.70672 0.10815 0.27091
 C532 C 0.66558 0.07031 0.26622
 H533 H 0.53379 0.18170 0.27998
 H534 H 0.59881 0.24453 0.28666
 H535 H 0.73462 0.09655 0.29814
 H536 H 0.72250 0.12067 0.23568
 H537 H 0.67102 0.03762 0.28993
 H538 H 0.65520 0.06221 0.22762
 C539 C 0.60387 0.84445 0.72859
 C540 C 0.61383 0.88988 0.74987
 C541 C 0.66162 0.89916 0.76713
 C542 C 0.69706 0.86162 0.76681
 C543 C 0.68451 0.81380 0.75140
 C544 C 0.63799 0.80675 0.73055
 C545 C 0.59887 0.76987 0.74153
 C546 C 0.56165 0.81096 0.73766
 H547 H 0.67113 0.93485 0.78177
 H548 H 0.73355 0.86924 0.78066
 H549 H 0.60105 0.75572 0.77948
 H550 H 0.59503 0.74182 0.71219
 H551 H 0.54242 0.81897 0.77271
 H552 H 0.53740 0.80752 0.70510
 C553 C 0.79515 0.88048 0.62887
 C554 C 0.75235 0.89070 0.60236
 C555 C 0.71235 0.85803 0.60779
 C556 C 0.71473 0.81889 0.64150
 C557 C 0.75568 0.81351 0.67275
 C558 C 0.79635 0.84364 0.66378
 C559 C 0.82673 0.87348 0.69819
 C560 C 0.82549 0.91398 0.66004
 H561 H 0.67928 0.86261 0.58618
 H562 H 0.68398 0.79387 0.64418
 H563 H 0.86405 0.85816 0.70329
 H564 H 0.80706 0.88300 0.73251
 H565 H 0.86201 0.92154 0.64348
 H566 H 0.80494 0.94706 0.67218
 C567 C 0.19521 0.38945 0.11840
 C568 C 0.23901 0.41281 0.10483
 C569 C 0.28011 0.40533 0.13561
 C570 C 0.27782 0.37225 0.17535
 C571 C 0.23523 0.34390 0.18435
 C572 C 0.19327 0.35590 0.15671
 C573 C 0.15698 0.32433 0.12997
 C574 C 0.15993 0.36065 0.08790
 H575 H 0.31433 0.42444 0.12876
 H576 H 0.30994 0.36800 0.19828
 H577 H 0.12000 0.32428 0.14683
 H578 H 0.17101 0.28727 0.12087
 H579 H 0.12503 0.38082 0.08161
 H580 H 0.17723 0.34514 0.05441
 C581 C 0.21941 0.08224 0.63794
 C582 C 0.25330 0.08372 0.60052
 C583 C 0.29231 0.11779 0.60632
 C584 C 0.29469 0.15351 0.64440
 C585 C 0.26179 0.15611 0.68450
 C586 C 0.22673 0.11997 0.68866
 C587 C 0.15595 0.10727 0.71736
 C588 C 0.14981 0.06040 0.65162
 H589 H 0.32001 0.12027 0.57795
 H590 H 0.32244 0.18171 0.64090
 H591 H 0.12808 0.13637 0.72428
 H592 H 0.15682 0.08625 0.75264
 H593 H 0.12327 0.06472 0.62100
 H594 H 0.14740 0.02039 0.66058
 C595 C 0.24549 0.92095 0.33131
 C596 C 0.23775 0.90552 0.37931
 C597 C 0.23685 0.85484 0.38871
 C598 C 0.23750 0.82110 0.34965
 C599 C 0.23740 0.83763 0.30054
 C600 C 0.24441 0.88804 0.29296
 C601 C 0.22136 0.92405 0.25882
 C602 C 0.22156 0.96013 0.30153
 H603 H 0.23522 0.84143 0.42604
 H604 H 0.23713 0.78229 0.35787
 H605 H 0.18412 0.91323 0.24626
 H606 H 0.24651 0.93549 0.22896
 H607 H 0.18419 0.96949 0.31497
 H608 H 0.24646 0.99190 0.29544
 C609 C 0.70872 0.14886 0.42388
 C610 C 0.74668 0.11478 0.42452
 C611 C 0.78443 0.12203 0.38970
 C612 C 0.78176 0.16082 0.35520
 C613 C 0.74202 0.19435 0.35532
 C614 C 0.70667 0.18684 0.39157
 C615 C 0.65902 0.20498 0.41153
 C616 C 0.66163 0.16199 0.44802
 H617 H 0.81492 0.09665 0.38772
 H618 H 0.80957 0.16305 0.32705
 H619 H 0.62812 0.20136 0.38528
 H620 H 0.66251 0.24156 0.42919
 H621 H 0.63276 0.13373 0.44202
 H622 H 0.66696 0.17379 0.48665
 C623 C 0.62476 0.70041 0.87723
 C624 C 0.61283 0.74468 0.90031
 C625 C 0.64430 0.78506 0.89203
 C626 C 0.68304 0.78182 0.85808
 C627 C 0.68926 0.73945 0.82905
 C628 C 0.66138 0.69795 0.84200
 C629 C 0.63295 0.66179 0.81180
 C630 C 0.59257 0.66532 0.85000
 H631 H 0.63878 0.81939 0.91127
 H632 H 0.70665 0.81332 0.85297
 H633 H 0.64942 0.62466 0.81105
 H634 H 0.62230 0.67561 0.77512
 H635 H 0.58683 0.63061 0.87059
 H636 H 0.55856 0.68288 0.83598
 C637 C 0.11350 0.30391 0.40183
 C638 C 0.08619 0.26128 0.40957
 C639 C 0.08961 0.22379 0.37410
 C640 C 0.12409 0.22718 0.33583
 C641 C 0.15681 0.26732 0.33330
 C642 C 0.14773 0.30705 0.36468
 C643 C 0.18086 0.33909 0.39449
 C644 C 0.14390 0.33406 0.43601
 H645 H 0.06679 0.19132 0.37671
 H646 H 0.12697 0.19730 0.30984
 H647 H 0.18273 0.37723 0.38054
 H648 H 0.21715 0.32260 0.40190
 H649 H 0.12575 0.36924 0.44568
 H650 H 0.15799 0.31246 0.46759
 C651 C 0.60855 0.21851 0.14453
 C652 C 0.58483 0.26087 0.12824
 C653 C 0.59346 0.30438 0.15513
 C654 C 0.62798 0.30520 0.19383
 C655 C 0.65687 0.26350 0.20480
 C656 C 0.64352 0.21972 0.18118
 C657 C 0.67235 0.17923 0.15839
 C658 C 0.63482 0.17921 0.11705
 H659 H 0.57393 0.33780 0.14625
 H660 H 0.63310 0.33896 0.21406
 H661 H 0.66990 0.14494 0.17987
 H662 H 0.70995 0.19007 0.14716
 H663 H 0.61304 0.14473 0.11494
 H664 H 0.64998 0.19241 0.08159
 C665 C 0.36475 0.21058 0.90712
 C666 C 0.40355 0.24418 0.90672
 C667 C 0.41115 0.27167 0.86364
 C668 C 0.37738 0.26858 0.82443
 C669 C 0.33439 0.24006 0.82894
 C670 C 0.33058 0.20910 0.86944
 C671 C 0.28866 0.20100 0.90342
 C672 C 0.32583 0.20353 0.94477
 H673 H 0.44257 0.29589 0.86061
 H674 H 0.38367 0.28993 0.79163
 H675 H 0.27190 0.16410 0.89916
 H676 H 0.26217 0.23186 0.90385
 H677 H 0.33000 0.16840 0.96500
 H678 H 0.32138 0.23691 0.96746
 C679 C 0.34619 0.78612 0.06825
 C680 C 0.39171 0.76603 0.07957
 C681 C 0.39795 0.74860 0.12797
 C682 C 0.35901 0.75126 0.16228
 C683 C 0.31247 0.76969 0.14831
 C684 C 0.30833 0.78704 0.10062
 C685 C 0.27291 0.80698 0.06425
 C686 C 0.31573 0.80560 0.02733
 H687 H 0.43276 0.73305 0.13925
 H688 H 0.36473 0.73773 0.19915
 H689 H 0.26070 0.84469 0.07373
 H690 H 0.24307 0.78051 0.05552
 H691 H 0.32812 0.84250 0.01518
 H692 H 0.31031 0.77818 -0.00231
 C693 C 0.88691 0.60374 0.70506
 C694 C 0.91292 0.59148 0.74758
 C695 C 0.90571 0.62175 0.78906
 C696 C 0.87034 0.65946 0.78855
 C697 C 0.83963 0.66670 0.74744
 C698 C 0.85116 0.63978 0.70509
 C699 C 0.81993 0.61270 0.66902
 C700 C 0.85873 0.57255 0.66982
 H701 H 0.92697 0.61622 0.82217
 H702 H 0.86640 0.68223 0.82075
 H703 H 0.81791 0.63144 0.63300
 H704 H 0.78386 0.60108 0.68393
 H705 H 0.87816 0.56834 0.63427
 H706 H 0.84561 0.53776 0.68662
 C707 C 0.35709 0.12767 0.21808
 C708 C 0.38375 0.11656 0.26054
 C709 C 0.37496 0.14569 0.30243
 C710 C 0.33927 0.18310 0.30159
 C711 C 0.30897 0.19033 0.26028
 C712 C 0.31976 0.16236 0.21847
 C713 C 0.28724 0.13143 0.18682
 C714 C 0.32821 0.09376 0.18603
 H715 H 0.39627 0.14037 0.33555
 H716 H 0.33498 0.20599 0.33346
 H717 H 0.28035 0.14766 0.15019
 H718 H 0.25385 0.11817 0.20591
 H719 H 0.34528 0.08940 0.14930
 H720 H 0.31843 0.05882 0.20470
 C721 C 0.12563 0.61200 0.20083
 C722 C 0.07873 0.62321 0.21797
 C723 C 0.06791 0.67281 0.22751
 C724 C 0.10425 0.70930 0.22144
 C725 C 0.15378 0.69640 0.21221
 C726 C 0.16272 0.64709 0.20096
 C727 C 0.19941 0.61254 0.22218
 C728 C 0.15942 0.57413 0.22088
 H729 H 0.03149 0.68346 0.23918
 H730 H 0.09418 0.74723 0.22718
 H731 H 0.21090 0.62280 0.25992
 H732 H 0.22981 0.60308 0.19710
 H733 H 0.14815 0.56177 0.25801
 H734 H 0.16633 0.54488 0.19336
 C735 C 0.86102 0.40958 0.30210
 C736 C 0.88842 0.41297 0.25895
 C737 C 0.88111 0.37617 0.22323
 C738 C 0.84406 0.34043 0.22912
 C739 C 0.81257 0.34146 0.27012
 C740 C 0.82384 0.37512 0.30736
 C741 C 0.79202 0.41011 0.33488
 C742 C 0.83271 0.44794 0.32890
 H743 H 0.90316 0.37568 0.19024
 H744 H 0.83897 0.31298 0.20091
 H745 H 0.78659 0.39896 0.37361
 H746 H 0.75787 0.41986 0.31497
 H747 H 0.85049 0.45824 0.36413
 H748 H 0.82224 0.47929 0.30502
 C749 C 0.10535 0.34170 0.77513
 C750 C 0.11183 0.38548 0.74934
 C751 C 0.15778 0.39409 0.72737
 C752 C 0.19427 0.35748 0.72777
 C753 C 0.18466 0.31091 0.74819
 C754 C 0.14066 0.30505 0.77400
 C755 C 0.10297 0.26532 0.77227
 C756 C 0.06421 0.30548 0.77331
 H757 H 0.16515 0.42870 0.70937
 H758 H 0.22911 0.36466 0.71013
 H759 H 0.10333 0.24248 0.80599
 H760 H 0.10330 0.24448 0.73737
 H761 H 0.04215 0.30561 0.80755
 H762 H 0.04247 0.30796 0.73885
 C763 C 0.85766 0.71697 0.38254
 C764 C 0.89514 0.75198 0.38506
 C765 C 0.89745 0.78766 0.34776
 C766 C 0.86023 0.79056 0.31199
 C767 C 0.81938 0.75886 0.31380
 C768 C 0.82026 0.72079 0.34814
 C769 C 0.78205 0.70472 0.38383
 C770 C 0.82297 0.70052 0.42155
 H771 H 0.92741 0.81384 0.34687
 H772 H 0.86228 0.81879 0.28419
 H773 H 0.76564 0.66869 0.37401
 H774 H 0.75515 0.73404 0.39247
 H775 H 0.83012 0.66212 0.43319
 H776 H 0.81975 0.72750 0.45197
 C777 C 0.91286 0.23825 0.67399
 C778 C 0.89780 0.23953 0.62517
 C779 C 0.84733 0.24326 0.61516
 C780 C 0.81295 0.24076 0.65347
 C781 C 0.82831 0.23374 0.70233
 C782 C 0.87899 0.23463 0.71149
 C783 C 0.91134 0.20215 0.74126
 C784 C 0.94860 0.20578 0.69976
 H785 H 0.83456 0.24780 0.57787
 H786 H 0.77455 0.24495 0.64499
 H787 H 0.89620 0.16464 0.74611
 H788 H 0.92388 0.22039 0.77552
 H789 H 0.95458 0.17049 0.68021
 H790 H 0.98265 0.22575 0.71037
 C791 C 0.11970 0.78161 0.60942
 C792 C 0.11040 0.74237 0.57771
 C793 C 0.14412 0.70318 0.57754
 C794 C 0.18294 0.70175 0.61177
 C795 C 0.18781 0.73863 0.64775
 C796 C 0.15709 0.77959 0.64401
 C797 C 0.12612 0.80370 0.68212
 C798 C 0.08544 0.80598 0.64423
 H799 H 0.13995 0.67327 0.55173
 H800 H 0.20821 0.67114 0.61110
 H801 H 0.13951 0.84065 0.69238
 H802 H 0.11750 0.77920 0.71344
 H803 H 0.07616 0.84396 0.63270
 H804 H 0.05373 0.78229 0.65346
 C805 C 0.69513 0.62501 0.13191
 C806 C 0.73318 0.62122 0.09782
 C807 C 0.76478 0.66183 0.09240
 C808 C 0.76163 0.70202 0.12484
 C809 C 0.72826 0.70129 0.16434
 C810 C 0.69317 0.66367 0.16491
 C811 C 0.67550 0.63139 0.20540
 C812 C 0.67798 0.58893 0.16930
 H813 H 0.79301 0.66165 0.06448
 H814 H 0.78790 0.73168 0.12154
 H815 H 0.63732 0.63999 0.21674
 H816 H 0.70216 0.62814 0.23595
 H817 H 0.64133 0.57344 0.16004
 H818 H 0.70656 0.56138 0.17872
 C819 C 0.28858 0.58999 0.84539
 C820 C 0.24914 0.58799 0.87762
 C821 C 0.21184 0.62328 0.87007
 C822 C 0.21587 0.65872 0.83217
 C823 C 0.25639 0.65895 0.79951
 C824 C 0.29214 0.62346 0.80851
 C825 C 0.34115 0.60495 0.79287
 C826 C 0.33666 0.56692 0.83426
 H827 H 0.18051 0.62470 0.89443
 H828 H 0.18805 0.68680 0.82948
 H829 H 0.37086 0.63174 0.80021
 H830 H 0.34055 0.58874 0.75550
 H831 H 0.36378 0.57230 0.86428
 H832 H 0.33268 0.52869 0.82076
 C833 C 0.72559 0.38952 0.88472
 C834 C 0.75417 0.38890 0.92713
 C835 C 0.78325 0.34709 0.93609
 C836 C 0.78565 0.30897 0.90089
 C837 C 0.76204 0.31412 0.85505
 C838 C 0.73122 0.35423 0.84868
 C839 C 0.73067 0.39118 0.80864
 C840 C 0.72272 0.42937 0.84795
 H841 H 0.80409 0.34408 0.96975
 H842 H 0.80709 0.27649 0.90868
 H843 H 0.69900 0.38694 0.78332
 H844 H 0.76714 0.39526 0.79107
 H845 H 0.68568 0.44643 0.84695
 H846 H 0.75435 0.45442 0.85224
 C847 C 0.59720 0.88541 0.29416
 C848 C 0.59475 0.92268 0.25906
 C849 C 0.63407 0.92689 0.22573
 C850 C 0.67156 0.89127 0.22471
 C851 C 0.66975 0.85035 0.25620
 C852 C 0.63349 0.84981 0.29242
 C853 C 0.59878 0.81011 0.30727
 C854 C 0.55895 0.84908 0.30905
 H855 H 0.63507 0.95673 0.19957
 H856 H 0.70052 0.89431 0.19776
 H857 H 0.60763 0.79478 0.34393
 H858 H 0.59279 0.78240 0.27803
 H859 H 0.54504 0.85612 0.34667
 H860 H 0.53008 0.84404 0.28061
 C861 C 0.64579 0.08784 0.81073
 C862 C 0.60516 0.09347 0.77997
 C863 C 0.59726 0.13956 0.75827
 C864 C 0.63299 0.17658 0.76243
 C865 C 0.67779 0.16703 0.78619
 C866 C 0.68175 0.12373 0.81329
 C867 C 0.72214 0.08705 0.81681
 C868 C 0.68273 0.04752 0.81342
 H869 H 0.56458 0.14622 0.73661
 H870 H 0.62737 0.21110 0.74387
 H871 H 0.74073 0.08822 0.85308
 H872 H 0.74712 0.08755 0.78474
 H873 H 0.67905 0.02556 0.84753
 H874 H 0.68459 0.02578 0.77897
 C875 C 0.40526 0.85762 0.69865
 C876 C 0.40860 0.88711 0.74009
 C877 C 0.37356 0.87831 0.77733
 C878 C 0.33778 0.84094 0.77208
 C879 C 0.33690 0.81042 0.73005
 C880 C 0.37183 0.82077 0.69410
 C881 C 0.39198 0.80440 0.64599
 C882 C 0.42993 0.84601 0.65148
 H883 H 0.37361 0.90031 0.81039
 H884 H 0.31116 0.83553 0.80103
 H885 H 0.36622 0.81046 0.61509
 H886 H 0.40836 0.76716 0.64766
 H887 H 0.42549 0.87585 0.62410
 H888 H 0.46806 0.83266 0.65676
   
