data_POSCAR
  _audit_creation_date              2014-09-24
  _audit_creation_method            'ToBaCCo'
  _symmetry_space_group_name_H-M    'P1'
  _symmetry_Int_Tables_number       1
  _symmetry_cell_setting            triclinic
  loop_
  _symmetry_equiv_pos_as_xyz
 x,y,z
_cell_length_a 32.8799
_cell_length_b 36.8873
_cell_length_c 20.4345
_cell_angle_alpha 89.997100
_cell_angle_beta 89.913500
_cell_angle_gamma 89.810000
loop_
  _atom_site_label
  _atom_site_type_symbol
  _atom_site_fract_x
  _atom_site_fract_y
  _atom_site_fract_z
C1 C 0.70229 0.33840 0.50133
 C2 C 0.71481 0.32453 0.56228
 C3 C 0.73620 0.29129 0.56290
 C4 C 0.74196 0.27053 0.50535
 C5 C 0.72648 0.28454 0.44602
 C6 C 0.70815 0.31882 0.44343
 C7 C 0.76376 0.23450 0.50734
 C8 C 0.78133 0.21936 0.45019
 C9 C 0.80018 0.18488 0.45069
 C10 C 0.80405 0.16698 0.51122
 C11 C 0.78876 0.18207 0.56907
 C12 C 0.76745 0.21495 0.56648
 H13 H 0.68485 0.36327 0.49846
 H14 H 0.74953 0.28244 0.60838
 H15 H 0.72839 0.26921 0.40113
 H16 H 0.77943 0.23391 0.40467
 H17 H 0.82184 0.14232 0.51473
 H18 H 0.75390 0.22476 0.61130
 C19 C 0.19759 0.83383 0.50510
 C20 C 0.21035 0.81954 0.56563
 C21 C 0.23118 0.78600 0.56550
 C22 C 0.23650 0.76560 0.50742
 C23 C 0.22067 0.78002 0.44865
 C24 C 0.20270 0.81444 0.44686
 C25 C 0.25835 0.72958 0.50783
 C26 C 0.27470 0.71498 0.44951
 C27 C 0.29294 0.68066 0.44847
 C28 C 0.29766 0.66152 0.50703
 C29 C 0.28433 0.67599 0.56716
 C30 C 0.26332 0.70944 0.56627
 H31 H 0.18051 0.85892 0.50291
 H32 H 0.24448 0.77667 0.61071
 H33 H 0.22211 0.76491 0.40347
 H34 H 0.27353 0.72991 0.40413
 H35 H 0.31495 0.63653 0.50548
 H36 H 0.24966 0.71891 0.61117
 C37 C 0.30507 0.33140 -0.50390
 C38 C 0.29133 0.31721 -0.56335
 C39 C 0.26939 0.28467 -0.56326
 C40 C 0.26360 0.26451 -0.50505
 C41 C 0.27950 0.27891 -0.44621
 C42 C 0.29884 0.31277 -0.44511
 C43 C 0.24156 0.22871 -0.50605
 C44 C 0.22421 0.21395 -0.44847
 C45 C 0.20485 0.17979 -0.44848
 C46 C 0.20032 0.16185 -0.50885
 C47 C 0.21550 0.17655 -0.56700
 C48 C 0.23734 0.20901 -0.56491
 H49 H 0.32237 0.35636 -0.50357
 H50 H 0.25691 0.27566 -0.60928
 H51 H 0.27718 0.26424 -0.40068
 H52 H 0.22664 0.22853 -0.40305
 H53 H 0.18208 0.13754 -0.51195
 H54 H 0.25084 0.21838 -0.60999
 C55 C -0.20136 0.83852 -0.50221
 C56 C -0.21407 0.82472 -0.56305
 C57 C -0.23568 0.79173 -0.56348
 C58 C -0.24168 0.77119 -0.50577
 C59 C -0.22605 0.78512 -0.44654
 C60 C -0.20734 0.81914 -0.44419
 C61 C -0.26398 0.73554 -0.50731
 C62 C -0.28092 0.72059 -0.44962
 C63 C -0.30040 0.68681 -0.45027
 C64 C -0.30559 0.66873 -0.50982
 C65 C -0.29085 0.68347 -0.56829
 C66 C -0.26899 0.71608 -0.56647
 H67 H -0.18370 0.86318 -0.49955
 H68 H -0.24905 0.78296 -0.60893
 H69 H -0.22819 0.76996 -0.40151
 H70 H -0.27928 0.73479 -0.40355
 H71 H -0.32287 0.64376 -0.51094
 H72 H -0.25594 0.72564 -0.61177
 N73 N 0.04435 1.03804 0.11495
 N74 N 0.07275 1.04407 0.15906
 N75 N -0.04110 1.06502 0.07268
 N76 N -0.06627 1.09148 0.08949
 N77 N -0.04108 1.03939 0.11732
 N78 N -0.06626 1.04763 0.16537
 N79 N 0.04439 1.06363 0.07020
 N80 N 0.07285 1.08786 0.08288
 C81 C 0.09060 1.07483 0.13784
 C82 C -0.08227 1.07973 0.14668
 N83 N -0.04328 1.03914 -0.11357
 N84 N -0.07155 1.04591 -0.15765
 N85 N 0.04283 1.06389 -0.07128
 N86 N 0.06874 1.08965 -0.08797
 N87 N 0.04217 1.03827 -0.11593
 N88 N 0.06764 1.04583 -0.16389
 N89 N -0.04266 1.06472 -0.06882
 N90 N -0.07052 1.08968 -0.08146
 Mn91 Mn 0.00087 1.06470 0.00069
 C92 C -0.08861 1.07712 -0.13640
 C93 C 0.08449 1.07748 -0.14512
 N94 N -0.04240 0.96144 0.11699
 N95 N -0.07033 0.95564 0.16210
 N96 N 0.04232 0.93445 0.07083
 N97 N 0.06769 0.90796 0.08651
 N98 N 0.04304 0.96008 0.11544
 N99 N 0.06894 0.95181 0.16235
 N100 N -0.04318 0.93584 0.07231
 N101 N -0.07170 0.91180 0.08605
 Mn102 Mn 0.00098 0.99974 0.11661
 C103 C -0.08865 0.92497 0.14163
 C104 C 0.08460 0.91969 0.14294
 N105 N 0.04154 0.96025 -0.11542
 N106 N 0.06941 0.95372 -0.16037
 N107 N -0.04386 0.93552 -0.06916
 N108 N -0.06992 0.90970 -0.08468
 N109 N -0.04393 0.96111 -0.11389
 N110 N -0.07006 0.95344 -0.16075
 N111 N 0.04165 0.93469 -0.07063
 N112 N 0.06964 0.90995 -0.08412
 Mn113 Mn -0.00088 0.99969 -0.11516
 Mn114 Mn -0.00077 0.93474 0.00083
 Cl115 Cl 0.00005 0.99972 0.00073
 C116 C 0.08699 0.92264 -0.13968
 C117 C -0.08654 0.92178 -0.14116
 N118 N 0.45479 0.53818 -0.11483
 N119 N 0.42631 0.54422 -0.15887
 N120 N 0.54013 0.56537 -0.07324
 N121 N 0.56511 0.59182 -0.09003
 N122 N 0.54021 0.53978 -0.11796
 N123 N 0.56527 0.54805 -0.16609
 N124 N 0.45466 0.56380 -0.07014
 N125 N 0.42604 0.58808 -0.08283
 C126 C 0.40830 0.57502 -0.13770
 C127 C 0.58108 0.58013 -0.14734
 N128 N 0.54319 0.53957 0.11299
 N129 N 0.57118 0.54661 0.15728
 N130 N 0.45667 0.56401 0.07129
 N131 N 0.43033 0.58958 0.08787
 N132 N 0.45777 0.53845 0.11603
 N133 N 0.43220 0.54587 0.16400
 N134 N 0.54214 0.56516 0.06828
 N135 N 0.56942 0.59043 0.08122
 Mn136 Mn 0.49839 0.56497 -0.00095
 C137 C 0.58765 0.57801 0.13624
 C138 C 0.41483 0.57737 0.14509
 N139 N 0.54238 0.46180 -0.11758
 N140 N 0.57020 0.45603 -0.16296
 N141 N 0.45810 0.43459 -0.07058
 N142 N 0.43312 0.40792 -0.08611
 N143 N 0.45695 0.46018 -0.11527
 N144 N 0.43113 0.45168 -0.16210
 N145 N 0.54358 0.43623 -0.07286
 N146 N 0.57229 0.41223 -0.08683
 Mn147 Mn 0.49858 0.49999 -0.11685
 C148 C 0.58890 0.42541 -0.14261
 C149 C 0.41597 0.41949 -0.14254
 N150 N 0.45929 0.46047 0.11569
 N151 N 0.43194 0.45371 0.16128
 N152 N 0.54477 0.43597 0.06859
 N153 N 0.57106 0.41015 0.08396
 N154 N 0.54472 0.46155 0.11332
 N155 N 0.57100 0.45389 0.16004
 N156 N 0.45929 0.43489 0.07094
 N157 N 0.43189 0.40991 0.08510
 Mn158 Mn 0.50125 0.50001 0.11495
 Mn159 Mn 0.50144 0.43504 -0.00098
 Cl160 Cl 0.49992 0.50000 -0.00096
 C161 C 0.41477 0.42247 0.14102
 C162 C 0.58771 0.42224 0.14034
 C163 C 0.33890 0.36941 0.26576
 C164 C 0.32051 0.39011 0.31507
 C165 C 0.30267 0.37310 0.36899
 C166 C 0.30312 0.33509 0.37437
 C167 C 0.31954 0.31443 0.32274
 C168 C 0.33750 0.33152 0.26889
 C169 C 0.36355 0.38710 0.21710
 C170 C 0.38609 0.40274 0.18014
 H171 H 0.32160 0.41945 0.31335
 H172 H 0.28991 0.38966 0.40772
 H173 H 0.32073 0.28514 0.32590
 H174 H 0.35198 0.31523 0.23135
 C175 C -0.16686 0.87586 0.26758
 C176 C -0.17726 0.89654 0.32235
 C177 C -0.19512 0.88019 0.37677
 C178 C -0.20279 0.84250 0.37792
 C179 C -0.19511 0.82255 0.31996
 C180 C -0.17686 0.83907 0.26567
 C181 C -0.14162 0.89179 0.21774
 C182 C -0.11836 0.90629 0.18044
 H183 H -0.17004 0.92517 0.32413
 H184 H -0.20254 0.89733 0.41808
 H185 H -0.19975 0.79356 0.31790
 H186 H -0.16871 0.82272 0.22357
 C187 C 0.66360 0.63187 0.25928
 C188 C 0.68239 0.61113 0.30805
 C189 C 0.69977 0.62805 0.36235
 C190 C 0.69847 0.66600 0.36865
 C191 C 0.68185 0.68677 0.31743
 C192 C 0.66431 0.66976 0.26319
 C193 C 0.63898 0.61407 0.21082
 C194 C 0.61641 0.59817 0.17437
 H195 H 0.68183 0.58178 0.30576
 H196 H 0.71267 0.61143 0.40083
 H197 H 0.68005 0.71601 0.32134
 H198 H 0.64950 0.68608 0.22608
 C199 C 0.16903 1.12626 0.26005
 C200 C 0.18764 1.10506 0.30837
 C201 C 0.20544 1.12152 0.36278
 C202 C 0.20471 1.15945 0.36963
 C203 C 0.18835 1.18065 0.31877
 C204 C 0.17042 1.16411 0.26442
 C205 C 0.14368 1.10910 0.21188
 C206 C 0.12036 1.09393 0.17568
 H207 H 0.18653 1.07574 0.30571
 H208 H 0.21811 1.10458 0.40100
 H209 H 0.18696 1.20989 0.32310
 H210 H 0.15575 1.18078 0.22768
 C211 C 0.66732 0.37610 -0.26868
 C212 C 0.67730 0.33925 -0.26665
 C213 C 0.69566 0.32259 -0.32080
 C214 C 0.70347 0.34244 -0.37877
 C215 C 0.69582 0.38018 -0.37773
 C216 C 0.67784 0.39669 -0.32344
 C217 C 0.64199 0.39220 -0.21895
 C218 C 0.61867 0.40676 -0.18162
 H219 H 0.66906 0.32298 -0.22455
 H220 H 0.70025 0.29356 -0.31864
 H221 H 0.70334 0.39726 -0.41902
 H222 H 0.67065 0.42536 -0.32531
 C223 C 0.16458 0.87160 -0.26475
 C224 C 0.17571 0.89211 -0.31928
 C225 C 0.19322 0.87538 -0.37371
 C226 C 0.19979 0.83748 -0.37512
 C227 C 0.19157 0.81764 -0.31731
 C228 C 0.17363 0.83454 -0.26300
 C229 C 0.13951 0.88812 -0.21515
 C230 C 0.11641 0.90321 -0.17815
 H231 H 0.16926 0.92093 -0.32092
 H232 H 0.20115 0.89239 -0.41490
 H233 H 0.19545 0.78853 -0.31547
 H234 H 0.16495 0.81834 -0.22105
 C235 C 0.32974 0.62497 -0.26220
 C236 C 0.32040 0.66198 -0.26103
 C237 C 0.30249 0.67853 -0.31565
 C238 C 0.29463 0.65837 -0.37320
 C239 C 0.30142 0.62052 -0.37115
 C240 C 0.31888 0.60415 -0.31642
 C241 C 0.35503 0.60887 -0.21254
 C242 C 0.37841 0.59409 -0.17569
 H243 H 0.32889 0.67844 -0.21935
 H244 H 0.29840 0.70763 -0.31430
 H245 H 0.29376 0.60329 -0.41214
 H246 H 0.32556 0.57536 -0.31763
 C247 C -0.16609 1.13066 -0.25801
 C248 C -0.18536 1.10996 -0.30619
 C249 C -0.20283 1.12689 -0.36051
 C250 C -0.20111 1.16478 -0.36741
 C251 C -0.18416 1.18555 -0.31662
 C252 C -0.16654 1.16854 -0.26236
 C253 C -0.14101 1.11280 -0.21008
 C254 C -0.11797 1.09699 -0.17409
 H255 H -0.18499 1.08062 -0.30355
 H256 H -0.21596 1.11029 -0.39871
 H257 H -0.18202 1.21475 -0.32102
 H258 H -0.15135 1.18481 -0.22571
 C259 C 0.64821 0.63687 -0.27949
 C260 C 0.67217 0.61659 -0.32275
 C261 C 0.68981 0.63316 -0.37718
 C262 C 0.68367 0.67031 -0.38923
 C263 C 0.66072 0.69084 -0.34433
 C264 C 0.64291 0.67413 -0.28987
 C265 C 0.62604 0.61848 -0.22868
 C266 C 0.60624 0.60163 -0.18948
 H267 H 0.67628 0.58771 -0.31544
 H268 H 0.70775 0.61681 -0.41057
 H269 H 0.65521 0.71942 -0.35275
 H270 H 0.62405 0.69001 -0.25705
 C271 C 0.15324 1.13130 -0.27896
 C272 C 0.16831 1.10981 -0.32972
 C273 C 0.18610 1.12577 -0.38451
 C274 C 0.18919 1.16389 -0.39023
 C275 C 0.17536 1.18519 -0.33696
 C276 C 0.15725 1.16898 -0.28218
 C277 C 0.13070 1.11427 -0.22699
 C278 C 0.11040 1.09826 -0.18731
 H279 H 0.16560 1.08056 -0.32759
 H280 H 0.19803 1.10783 -0.42183
 H281 H 0.17590 1.21448 -0.33870
 H282 H 0.14525 1.18593 -0.24334
 C283 C 0.34840 0.36205 -0.27272
 C284 C 0.32409 0.38226 -0.31547
 C285 C 0.30684 0.36581 -0.37023
 C286 C 0.31369 0.32884 -0.38311
 C287 C 0.33676 0.30829 -0.33853
 C288 C 0.35422 0.32490 -0.28374
 C289 C 0.37066 0.38057 -0.22226
 C290 C 0.39060 0.39764 -0.18365
 H291 H 0.31959 0.41106 -0.30769
 H292 H 0.28882 0.38215 -0.40343
 H293 H 0.34277 0.27985 -0.34761
 H294 H 0.37335 0.30908 -0.25132
 C295 C -0.15646 0.86634 -0.27095
 C296 C -0.18157 0.88694 -0.31187
 C297 C -0.19938 0.87111 -0.36680
 C298 C -0.19226 0.83441 -0.38165
 C299 C -0.16843 0.81343 -0.33878
 C300 C -0.15045 0.82940 -0.28384
 C301 C -0.13348 0.88429 -0.22068
 C302 C -0.11283 0.90077 -0.18220
 H303 H -0.18622 0.91558 -0.30265
 H304 H -0.21793 0.88776 -0.39871
 H305 H -0.16219 0.78520 -0.34943
 H306 H -0.13070 0.81330 -0.25287
 C307 C 0.34514 0.63249 0.27652
 C308 C 0.35117 0.66939 0.28922
 C309 C 0.33297 0.68559 0.34391
 C310 C 0.30884 0.66490 0.38670
 C311 C 0.30186 0.62818 0.37219
 C312 C 0.31992 0.61211 0.31752
 C313 C 0.36802 0.61444 0.22602
 C314 C 0.38859 0.59808 0.18705
 H315 H 0.37101 0.68531 0.25819
 H316 H 0.33917 0.71383 0.35428
 H317 H 0.28307 0.61174 0.40401
 H318 H 0.31526 0.58348 0.30842
 C319 C -0.14909 1.13519 0.28130
 C320 C -0.15235 1.17295 0.28447
 C321 C -0.17001 1.18957 0.33930
 C322 C -0.18421 1.16860 0.39267
 C323 C -0.18172 1.13042 0.38714
 C324 C -0.16435 1.11405 0.33228
 C325 C -0.12719 1.11767 0.22904
 C326 C -0.10747 1.10119 0.18909
 H327 H -0.14015 1.18961 0.24549
 H328 H -0.17000 1.21886 0.34092
 H329 H -0.19391 1.11275 0.42456
 H330 H -0.16219 1.08475 0.33022
 C331 C 0.65769 0.36638 0.26997
 C332 C 0.68303 0.38671 0.31071
 C333 C 0.70072 0.37074 0.36570
 C334 C 0.69324 0.33417 0.38079
 C335 C 0.66919 0.31343 0.33810
 C336 C 0.65133 0.32954 0.28309
 C337 C 0.63476 0.38454 0.21976
 C338 C 0.61409 0.40115 0.18133
 H339 H 0.68794 0.41527 0.30131
 H340 H 0.71945 0.38719 0.39749
 H341 H 0.66266 0.28531 0.34894
 H342 H 0.63139 0.31366 0.25227
 C343 C 0.15274 0.86281 0.27364
 C344 C 0.17807 0.88291 0.31478
 C345 C 0.19544 0.86673 0.36983
 C346 C 0.18765 0.83017 0.38460
 C347 C 0.16348 0.80970 0.34163
 C348 C 0.14595 0.82603 0.28656
 C349 C 0.13037 0.88119 0.22301
 C350 C 0.11026 0.89807 0.18423
 H351 H 0.18330 0.91145 0.30554
 H352 H 0.21428 0.88298 0.40179
 H353 H 0.15670 0.78160 0.35220
 H354 H 0.12600 0.81033 0.25544
   
