data_POSCAR
  _audit_creation_date              2014-09-24
  _audit_creation_method            'ToBaCCo'
  _symmetry_space_group_name_H-M    'P1'
  _symmetry_Int_Tables_number       1
  _symmetry_cell_setting            triclinic
  loop_
  _symmetry_equiv_pos_as_xyz
 x,y,z
_cell_length_a 17.3565
_cell_length_b 18.0273
_cell_length_c 28.0527
_cell_angle_alpha 95.979700
_cell_angle_beta 92.041200
_cell_angle_gamma 93.111900
loop_
  _atom_site_label
  _atom_site_type_symbol
  _atom_site_fract_x
  _atom_site_fract_y
  _atom_site_fract_z
C1 C 0.00719 0.69505 0.98997
 C2 C 0.01078 0.66956 1.03571
 C3 C 0.00146 0.59223 1.03863
 C4 C -0.01524 0.54106 0.99731
 C5 C -0.02291 0.56959 0.95243
 C6 C -0.00681 0.64554 0.94801
 C7 C -0.02050 0.45822 1.00070
 C8 C -0.00472 0.40736 0.96077
 C9 C -0.00712 0.33017 0.96381
 C10 C -0.01776 0.30388 1.00859
 C11 C -0.03247 0.35284 1.04885
 C12 C -0.03764 0.42905 1.04430
 H13 H 0.00859 0.75402 0.98648
 H14 H 0.00895 0.57243 1.07347
 H15 H -0.03889 0.53278 0.92026
 H16 H 0.01023 0.42685 0.92697
 H17 H -0.01405 0.24512 1.01269
 H18 H -0.05268 0.46507 1.07541
 C19 C 0.30614 0.02974 0.51126
 C20 C 0.35170 0.03009 0.55367
 C21 C 0.43247 0.03014 0.55135
 C22 C 0.46760 0.02259 0.50650
 C23 C 0.41947 0.01823 0.46446
 C24 C 0.33980 0.02499 0.46650
 C25 C 0.55277 0.01365 0.50229
 C26 C 0.58908 0.02982 0.45996
 C27 C 0.66210 0.00469 0.44944
 C28 C 0.70344 -0.02846 0.48474
 C29 C 0.67419 -0.03421 0.53030
 C30 C 0.59737 -0.01587 0.53828
 H31 H 0.24403 0.03074 0.51331
 H32 H 0.46680 0.03335 0.58450
 H33 H 0.44310 0.00830 0.42939
 H34 H 0.55917 0.05885 0.43364
 H35 H 0.76231 -0.04299 0.47868
 H36 H 0.57176 -0.02769 0.57135
 C37 C 0.13287 -0.00019 0.29343
 H38 H 0.13865 -0.04053 0.26274
 C39 C 0.18511 0.00200 0.33274
 H40 H 0.22908 -0.03824 0.33159
 C41 C 0.06692 0.09909 0.33224
 H42 H 0.02049 0.13657 0.33198
 C43 C 0.11783 0.10341 0.37214
 H44 H 0.10993 0.14438 0.40240
 N45 N 0.07396 0.04666 0.29440
 C46 C 0.01053 -0.02352 0.15105
 H47 H 0.00150 0.03283 0.14338
 C48 C 0.02101 -0.07764 0.11312
 H49 H 0.01990 -0.06187 0.07687
 C50 C 0.02203 -0.11267 0.20678
 H51 H 0.02385 -0.12583 0.24353
 C52 C 0.03180 -0.16917 0.16957
 H53 H 0.04102 -0.22512 0.17830
 Zn54 Zn -0.00577 0.03800 0.24577
 N55 N 0.01066 -0.04143 0.19696
 C56 C 0.06492 0.15819 0.20679
 N57 N -0.00550 0.12812 0.21659
 C58 C -0.07170 0.15288 0.19798
 C59 C -0.06823 0.20798 0.16632
 C60 C 0.07101 0.21256 0.17503
 C61 C -0.12593 -0.05111 0.28019
 C62 C -0.18018 -0.06655 0.31379
 C63 C -0.18682 0.06599 0.33571
 C64 C -0.13122 0.07891 0.30219
 N65 N -0.10002 0.02052 0.27641
 H66 H 0.11662 0.13605 0.22100
 H67 H -0.12688 0.12621 0.20492
 H68 H -0.12122 0.22335 0.14943
 H69 H 0.12772 0.23261 0.16537
 H70 H -0.10110 -0.09691 0.25961
 H71 H -0.19611 -0.12411 0.31871
 H72 H -0.20693 0.11283 0.35828
 H73 H -0.10926 0.13542 0.29914
 C74 C 0.03068 -0.15170 0.12188
 C75 C 0.17724 0.05387 0.37318
 C76 C -0.20925 -0.00779 0.34305
 C77 C 0.00414 0.23658 0.15335
 C78 C 0.00354 0.11214 0.79040
 H79 H 0.01053 0.12544 0.75403
 C80 C -0.00296 0.16969 0.82753
 H81 H -0.00094 0.22707 0.81933
 C82 C -0.01246 0.02111 0.84490
 H83 H -0.01833 -0.03663 0.85180
 C84 C -0.02040 0.07629 0.88256
 H85 H -0.03096 0.06014 0.91800
 N86 N 0.00002 0.03945 0.79986
 C87 C 0.10070 -0.09276 0.68059
 H88 H 0.06098 -0.14123 0.68013
 C89 C 0.15587 -0.09053 0.64591
 H90 H 0.15837 -0.13773 0.61885
 C91 C 0.14247 0.02903 0.71503
 H92 H 0.13636 0.07580 0.74169
 C93 C 0.19912 0.03356 0.68083
 H94 H 0.23502 0.08459 0.68117
 Zn95 Zn 0.00490 -0.04146 0.75098
 N96 N 0.09298 -0.03259 0.71313
 C97 C -0.07528 -0.02821 0.66466
 N98 N -0.08560 -0.04469 0.71025
 C99 C -0.15787 -0.05763 0.72619
 C100 C -0.22289 -0.05786 0.69490
 C101 C -0.13804 -0.02717 0.63265
 C102 C 0.08255 -0.13048 0.80652
 C103 C 0.09157 -0.18008 0.84078
 C104 C -0.03787 -0.23253 0.82000
 C105 C -0.04454 -0.18139 0.78589
 N106 N 0.01411 -0.12946 0.78164
 H107 H -0.01832 -0.01361 0.65313
 H108 H -0.16518 -0.06723 0.76322
 H109 H -0.28003 -0.06857 0.70787
 H110 H -0.12725 -0.01088 0.59734
 H111 H 0.12799 -0.08834 0.80257
 H112 H 0.14454 -0.17620 0.86276
 H113 H -0.08715 -0.26938 0.82587
 H114 H -0.09831 -0.17997 0.76553
 C115 C 0.20467 -0.02626 0.64489
 C116 C -0.01510 0.15153 0.87435
 C117 C 0.02988 -0.22962 0.84932
 C118 C -0.21321 -0.04403 0.64709
 C119 C 0.01903 -0.28097 0.07852
 C120 C 0.03823 -0.20732 0.07981
 H121 H 0.00641 -0.30366 0.11180
 H122 H 0.05636 -0.18388 0.04789
 C123 C -0.04099 0.32336 0.09572
 C124 C 0.01269 0.28048 0.11197
 H125 H -0.09122 0.33616 0.11615
 H126 H 0.06520 0.27446 0.09239
 C127 C 0.31387 0.02649 0.59996
 C128 C 0.25270 -0.02145 0.60264
 H129 H 0.33761 0.06103 0.63148
 H130 H 0.23569 -0.05989 0.57120
 C131 C -0.27422 -0.05469 0.56587
 C132 C -0.28120 -0.04142 0.61354
 H133 H -0.22032 -0.07584 0.55356
 H134 H -0.33419 -0.02236 0.62843
 C135 C -0.00681 -0.32855 0.90222
 C136 C 0.03389 -0.26587 0.89409
 H137 H -0.03667 -0.36227 0.87222
 H138 H 0.07391 -0.23860 0.92182
 C139 C 0.00362 0.27811 0.92017
 C140 C -0.02699 0.20768 0.91532
 H141 H 0.03619 0.29862 0.89156
 H142 H -0.06103 0.18829 0.94364
 C143 C -0.30639 0.01614 0.40499
 C144 C -0.25093 -0.02513 0.38579
 H145 H -0.32998 0.05802 0.38447
 H146 H -0.23497 -0.07484 0.40144
 C147 C 0.29297 0.02240 0.42102
 C148 C 0.22623 0.05608 0.41784
 H149 H 0.31676 -0.00481 0.38913
 H150 H 0.20684 0.08871 0.44931
   
