data_POSCAR
  _audit_creation_date              2014-09-24
  _audit_creation_method            'ToBaCCo'
  _symmetry_space_group_name_H-M    'P1'
  _symmetry_Int_Tables_number       1
  _symmetry_cell_setting            triclinic
  loop_
  _symmetry_equiv_pos_as_xyz
 x,y,z
_cell_length_a 85.0513
_cell_length_b 85.0597
_cell_length_c 24.9180
_cell_angle_alpha 89.939800
_cell_angle_beta 90.074900
_cell_angle_gamma 120.024800
loop_
  _atom_site_label
  _atom_site_type_symbol
  _atom_site_fract_x
  _atom_site_fract_y
  _atom_site_fract_z
C1 C 0.24800 0.49588 0.52231
 C2 C 0.24799 0.49585 0.46756
 C3 C 0.23370 0.49696 0.43618
 C4 C 0.26217 0.49452 0.43648
 C5 C 0.26339 0.49695 0.55368
 C6 C 0.23253 0.49461 0.55344
 C7 C 0.22376 0.48376 0.39714
 C8 C 0.20987 0.48431 0.36864
 C9 C 0.20587 0.49815 0.37856
 C10 C 0.21604 0.51161 0.41660
 C11 C 0.22995 0.51107 0.44503
 C12 C 0.26562 0.48021 0.44555
 C13 C 0.27940 0.47942 0.41733
 C14 C 0.28972 0.49280 0.37939
 C15 C 0.28604 0.50684 0.36921
 C16 C 0.27228 0.50766 0.39745
 C17 C 0.28129 0.51103 0.54473
 C18 C 0.29571 0.51153 0.57321
 C19 C 0.29237 0.49809 0.61130
 C20 C 0.27453 0.48430 0.62132
 C21 C 0.26010 0.48377 0.59283
 C22 C 0.23563 0.50775 0.59251
 C23 C 0.22110 0.50692 0.62107
 C24 C 0.20336 0.49288 0.61118
 C25 C 0.20022 0.47953 0.57309
 C26 C 0.21473 0.48032 0.54455
 H27 H 0.22651 0.47284 0.38953
 H28 H 0.20217 0.47380 0.33931
 H29 H 0.21319 0.52247 0.42464
 H30 H 0.23769 0.52157 0.47425
 H31 H 0.25774 0.46975 0.47474
 H32 H 0.28208 0.46846 0.42535
 H33 H 0.26974 0.51872 0.38967
 H34 H 0.28408 0.52152 0.51543
 H35 H 0.30945 0.52230 0.56528
 H36 H 0.27179 0.47385 0.65076
 H37 H 0.24640 0.47287 0.60052
 H38 H 0.24926 0.51879 0.60016
 H39 H 0.22369 0.51730 0.65054
 H40 H 0.18655 0.46856 0.56531
 H41 H 0.21210 0.46987 0.51533
 H42 H 0.29393 0.51724 0.33986
 C43 C 0.50288 -0.24863 0.52826
 C44 C 0.50288 -0.24885 0.47352
 C45 C 0.50425 -0.26313 0.44300
 C46 C 0.50170 -0.23473 0.44155
 C47 C 0.50417 -0.23301 0.55877
 C48 C 0.50174 -0.26392 0.56022
 C49 C 0.51855 -0.26656 0.45257
 C50 C 0.51951 -0.28025 0.42433
 C51 C 0.50630 -0.29051 0.38587
 C52 C 0.49223 -0.28691 0.37537
 C53 C 0.49124 -0.27324 0.40363
 C54 C 0.51488 -0.22488 0.40238
 C55 C 0.51427 -0.21112 0.37341
 C56 C 0.50039 -0.20718 0.38299
 C57 C 0.48695 -0.21724 0.42105
 C58 C 0.48754 -0.23102 0.45001
 C59 C 0.49113 -0.23595 0.59795
 C60 C 0.49201 -0.22130 0.62601
 C61 C 0.50602 -0.20360 0.61550
 C62 C 0.51929 -0.20062 0.57729
 C63 C 0.51844 -0.21525 0.54925
 C64 C 0.48764 -0.28182 0.55159
 C65 C 0.48712 -0.29618 0.58040
 C66 C 0.50057 -0.29277 0.61855
 C67 C 0.51439 -0.27490 0.62832
 C68 C 0.51493 -0.26054 0.59946
 H69 H 0.52892 -0.25867 0.48200
 H70 H 0.53051 -0.28286 0.43258
 H71 H 0.48196 -0.29475 0.34560
 H72 H 0.48018 -0.27073 0.39543
 H73 H 0.52585 -0.22761 0.39508
 H74 H 0.52472 -0.20343 0.34401
 H75 H 0.47706 -0.23869 0.47934
 H76 H 0.48010 -0.24954 0.60611
 H77 H 0.48169 -0.22376 0.65559
 H78 H 0.53025 -0.18698 0.56903
 H79 H 0.52884 -0.21273 0.51997
 H80 H 0.47715 -0.28466 0.52220
 H81 H 0.47631 -0.30993 0.57256
 H82 H 0.52488 -0.27206 0.65777
 H83 H 0.52584 -0.24683 0.60689
 H84 H 0.47612 -0.21433 0.42864
 C85 C 1.24674 0.75301 0.53036
 C86 C 1.24680 0.75304 0.47561
 C87 C 1.26221 0.76740 0.44448
 C88 C 1.23134 0.73886 0.44426
 C89 C 1.23239 0.73762 0.56155
 C90 C 1.26092 0.76849 0.56166
 C91 C 1.25895 0.77737 0.40551
 C92 C 1.27340 0.79137 0.37741
 C93 C 1.29125 0.79544 0.38765
 C94 C 1.29455 0.78525 0.42554
 C95 C 1.28010 0.77123 0.45360
 C96 C 1.21355 0.73535 0.45295
 C97 C 1.19904 0.72162 0.42430
 C98 C 1.20220 0.71141 0.38631
 C99 C 1.21994 0.71512 0.37656
 C100 C 1.23446 0.72883 0.40523
 C101 C 1.22856 0.71972 0.55263
 C102 C 1.21460 0.70529 0.58091
 C103 C 1.20445 0.70862 0.61881
 C104 C 1.20851 0.72648 0.62880
 C105 C 1.22246 0.74090 0.60048
 C106 C 1.27099 0.76541 0.60072
 C107 C 1.28471 0.77994 0.62930
 C108 C 1.28840 0.79769 0.61943
 C109 C 1.27812 0.80080 0.58136
 C110 C 1.26439 0.78627 0.55283
 H111 H 1.24525 0.77456 0.39771
 H112 H 1.27063 0.79912 0.34817
 H113 H 1.30828 0.78820 0.43375
 H114 H 1.28286 0.76347 0.48277
 H115 H 1.21090 0.74318 0.48213
 H116 H 1.18537 0.71892 0.43197
 H117 H 1.24809 0.73142 0.39772
 H118 H 1.23629 0.71694 0.52349
 H119 H 1.21166 0.69156 0.57291
 H120 H 1.20080 0.72927 0.65805
 H121 H 1.22527 0.75460 0.60814
 H122 H 1.26843 0.75178 0.60832
 H123 H 1.29253 0.77733 0.65872
 H124 H 1.28077 0.81445 0.57347
 H125 H 1.25653 0.78888 0.52360
 H126 H 1.22253 0.70732 0.34715
 C127 C 0.75255 0.50436 0.52780
 C128 C 0.75247 0.50436 0.47305
 C129 C 0.76669 0.50319 0.44158
 C130 C 0.73828 0.50573 0.44202
 C131 C 0.73723 0.50331 0.55930
 C132 C 0.76806 0.50558 0.55876
 C133 C 0.77662 0.51637 0.40247
 C134 C 0.79043 0.51576 0.37391
 C135 C 0.79436 0.50187 0.38381
 C136 C 0.78422 0.48844 0.42183
 C137 C 0.77039 0.48903 0.45039
 C138 C 0.73487 0.52006 0.45112
 C139 C 0.72117 0.52096 0.42265
 C140 C 0.71090 0.50768 0.38441
 C141 C 0.71451 0.49360 0.37430
 C142 C 0.72818 0.49267 0.40280
 C143 C 0.71930 0.48928 0.55040
 C144 C 0.70493 0.48881 0.57895
 C145 C 0.70835 0.50225 0.61710
 C146 C 0.72623 0.51600 0.62708
 C147 C 0.74060 0.51648 0.59850
 C148 C 0.76501 0.49239 0.59764
 C149 C 0.77959 0.49310 0.62577
 C150 C 0.79734 0.50710 0.61562
 C151 C 0.80042 0.52054 0.57778
 C152 C 0.78585 0.51984 0.54970
 H153 H 0.77391 0.52734 0.39489
 H154 H 0.79818 0.52621 0.34452
 H155 H 0.78710 0.47760 0.42967
 H156 H 0.76265 0.47854 0.47965
 H157 H 0.74274 0.53047 0.48045
 H158 H 0.71855 0.53196 0.43060
 H159 H 0.73070 0.48160 0.39497
 H160 H 0.71645 0.47879 0.52107
 H161 H 0.69118 0.47804 0.57095
 H162 H 0.72909 0.52647 0.65654
 H163 H 0.75432 0.52735 0.60615
 H164 H 0.75138 0.48136 0.60541
 H165 H 0.77699 0.48263 0.65500
 H166 H 0.81408 0.53149 0.56968
 H167 H 0.78844 0.53033 0.52061
 H168 H 0.70666 0.48328 0.34471
 C169 C 0.49679 0.24838 0.52985
 C170 C 0.49670 0.24863 0.47511
 C171 C 0.49535 0.26296 0.44473
 C172 C 0.49777 0.23448 0.44303
 C173 C 0.49543 0.23271 0.56026
 C174 C 0.49806 0.26370 0.56189
 C175 C 0.48111 0.26645 0.45454
 C176 C 0.48019 0.28022 0.42655
 C177 C 0.49338 0.29050 0.38810
 C178 C 0.50738 0.28683 0.37732
 C179 C 0.50832 0.27308 0.40532
 C180 C 0.48455 0.22473 0.40383
 C181 C 0.48507 0.21096 0.37473
 C182 C 0.49889 0.20691 0.38420
 C183 C 0.51237 0.21688 0.42231
 C184 C 0.51188 0.23067 0.45139
 C185 C 0.50851 0.23554 0.59933
 C186 C 0.50757 0.22084 0.62730
 C187 C 0.49345 0.20316 0.61682
 C188 C 0.48016 0.20029 0.57867
 C189 C 0.48108 0.21499 0.55075
 C190 C 0.51221 0.28158 0.55320
 C191 C 0.51285 0.29597 0.58207
 C192 C 0.49947 0.29261 0.62034
 C193 C 0.48561 0.27477 0.63018
 C194 C 0.48496 0.26038 0.60127
 H195 H 0.47077 0.25856 0.48400
 H196 H 0.46925 0.28289 0.43503
 H197 H 0.51763 0.29468 0.34756
 H198 H 0.51933 0.27051 0.39694
 H199 H 0.47363 0.22753 0.39660
 H200 H 0.47459 0.20334 0.34529
 H201 H 0.52239 0.23827 0.48073
 H202 H 0.51960 0.24910 0.60748
 H203 H 0.51792 0.22327 0.65680
 H204 H 0.46911 0.18671 0.57032
 H205 H 0.47067 0.21256 0.52154
 H206 H 0.52263 0.28438 0.52370
 H207 H 0.52369 0.30970 0.57417
 H208 H 0.47518 0.27196 0.65973
 H209 H 0.47401 0.24669 0.60875
 H210 H 0.52316 0.21390 0.42981
 C211 C 0.75286 0.24692 0.52984
 C212 C 0.75292 0.24700 0.47510
 C213 C 0.73754 0.23277 0.44355
 C214 C 0.76846 0.26122 0.44412
 C215 C 0.76723 0.26220 0.56137
 C216 C 0.73853 0.23146 0.56080
 C217 C 0.74082 0.22285 0.40456
 C218 C 0.72641 0.20903 0.37586
 C219 C 0.70859 0.20509 0.38551
 C220 C 0.70525 0.21520 0.42344
 C221 C 0.71966 0.22905 0.45214
 C222 C 0.78622 0.26462 0.45306
 C223 C 0.80079 0.27837 0.42471
 C224 C 0.79775 0.28871 0.38677
 C225 C 0.78004 0.28510 0.37679
 C226 C 0.76546 0.27137 0.40516
 C227 C 0.77120 0.28015 0.55267
 C228 C 0.78525 0.29447 0.58107
 C229 C 0.79532 0.29097 0.61888
 C230 C 0.79110 0.27306 0.62873
 C231 C 0.77707 0.25874 0.60029
 C232 C 0.72847 0.23459 0.59965
 C233 C 0.71459 0.22006 0.62785
 C234 C 0.71076 0.20229 0.61781
 C235 C 0.72102 0.19912 0.58001
 C236 C 0.73491 0.21363 0.55183
 H237 H 0.75451 0.22558 0.39715
 H238 H 0.72914 0.20131 0.34654
 H239 H 0.69152 0.21231 0.43108
 H240 H 0.71688 0.23677 0.48132
 H241 H 0.78877 0.25670 0.48219
 H242 H 0.81443 0.28099 0.43255
 H243 H 0.75186 0.26887 0.39746
 H244 H 0.76354 0.28306 0.52354
 H245 H 0.78831 0.30825 0.57317
 H246 H 0.79875 0.27014 0.65791
 H247 H 0.77415 0.24499 0.60778
 H248 H 0.73114 0.24824 0.60736
 H249 H 0.70676 0.22267 0.65709
 H250 H 0.71821 0.18543 0.57210
 H251 H 0.74275 0.21098 0.52277
 H252 H 0.77754 0.29300 0.34743
 N253 N 0.98088 0.51765 0.05721
 N254 N 0.96706 0.52040 0.06434
 N255 N 1.01929 0.52629 0.09414
 N256 N 1.03282 0.53542 0.12799
 N257 N 1.01910 0.53710 0.05678
 N258 N 1.03249 0.55389 0.06413
 N259 N 0.98108 0.50684 0.09456
 N260 N 0.96742 0.50193 0.12816
 C261 C 0.95885 0.51050 0.10868
 C262 C 1.04089 0.55255 0.10854
 N263 N 1.01974 0.48170 0.05727
 N264 N 1.03360 0.47899 0.06414
 N265 N 0.98147 0.47317 0.09493
 N266 N 0.96800 0.46416 0.12899
 N267 N 0.98152 0.46226 0.05776
 N268 N 0.96808 0.44551 0.06545
 N269 N 1.01968 0.49262 0.09441
 N270 N 1.03350 0.49765 0.12760
 Mn271 Mn 1.00038 0.49973 0.09514
 C272 C 1.04199 0.48903 0.10809
 C273 C 0.95982 0.44699 0.10990
 N274 N 1.01896 0.53695 -0.05883
 N275 N 1.03262 0.55363 -0.06594
 N276 N 0.98080 0.50664 -0.09561
 N277 N 0.96728 0.50202 -0.12966
 N278 N 0.98074 0.51755 -0.05843
 N279 N 0.96718 0.52066 -0.06612
 N280 N 1.01901 0.52603 -0.09597
 N281 N 1.03271 0.53495 -0.12940
 Mn282 Mn 0.99992 0.52749 -0.00082
 C283 C 1.04100 0.55210 -0.11006
 C284 C 0.95894 0.51084 -0.11053
 N285 N 0.98128 0.46211 -0.05788
 N286 N 0.96764 0.44540 -0.06466
 N287 N 1.01933 0.49232 -0.09570
 N288 N 1.03282 0.49694 -0.12979
 N289 N 1.01950 0.48150 -0.05833
 N290 N 1.03310 0.47845 -0.06591
 N291 N 0.98112 0.47294 -0.09523
 N292 N 0.96738 0.46391 -0.12848
 Mn293 Mn 1.00051 0.47171 -0.00029
 Mn294 Mn 1.00007 0.49948 -0.09625
 Cl295 Cl 1.00022 0.49960 -0.00056
 C296 C 0.95916 0.44681 -0.10878
 C297 C 1.04125 0.48821 -0.11049
 N298 N 0.48237 0.46295 0.05372
 N299 N 0.47915 0.44625 0.06172
 N300 N 0.47409 0.49294 0.09031
 N301 N 0.46509 0.49753 0.12397
 N302 N 0.46318 0.48195 0.05309
 N303 N 0.44646 0.47875 0.06037
 N304 N 0.49328 0.47394 0.09092
 N305 N 0.49778 0.46503 0.12528
 C306 C 0.48890 0.44784 0.10634
 C307 C 0.44795 0.48860 0.10460
 N308 N 0.51884 0.53780 0.05293
 N309 N 0.52202 0.55452 0.06036
 N310 N 0.52712 0.50790 0.09078
 N311 N 0.53610 0.50340 0.12487
 N312 N 0.53803 0.51881 0.05348
 N313 N 0.55476 0.52205 0.06112
 N314 N 0.50792 0.52689 0.09022
 N315 N 0.50336 0.53586 0.12408
 Mn316 Mn 0.50060 0.50042 0.09117
 C317 C 0.51223 0.55301 0.10475
 C318 C 0.55326 0.51231 0.10566
 N319 N 0.46321 0.48185 -0.06254
 N320 N 0.44658 0.47898 -0.06953
 N321 N 0.49335 0.47376 -0.09920
 N322 N 0.49839 0.46492 -0.13203
 N323 N 0.48243 0.46284 -0.06191
 N324 N 0.47973 0.44626 -0.06830
 N325 N 0.47415 0.49275 -0.09983
 N326 N 0.46528 0.49761 -0.13325
 Mn327 Mn 0.47261 0.47221 -0.00443
 C328 C 0.44815 0.48890 -0.11375
 C329 C 0.48976 0.44784 -0.11216
 N330 N 0.53806 0.51867 -0.06214
 N331 N 0.55470 0.52154 -0.06879
 N332 N 0.50795 0.52667 -0.09992
 N333 N 0.50288 0.53542 -0.13309
 N334 N 0.51884 0.53766 -0.06270
 N335 N 0.52149 0.55422 -0.06949
 N336 N 0.52715 0.50768 -0.09934
 N337 N 0.53605 0.50277 -0.13235
 Mn338 Mn 0.52863 0.52843 -0.00463
 Mn339 Mn 0.50065 0.50021 -0.10020
 Cl340 Cl 0.50062 0.50032 -0.00450
 C341 C 0.55316 0.51154 -0.11270
 C342 C 0.51146 0.55254 -0.11353
 N343 N 0.46165 -0.01910 0.06082
 N344 N 0.44496 -0.03271 0.06808
 N345 N 0.49190 0.01906 0.09779
 N346 N 0.49696 0.03290 0.13085
 N347 N 0.48100 0.01913 0.06052
 N348 N 0.47833 0.03302 0.06715
 N349 N 0.47257 -0.01914 0.09808
 N350 N 0.46363 -0.03276 0.13174
 C351 C 0.44648 -0.04105 0.11239
 C352 C 0.48836 0.04140 0.11114
 N353 N 0.53651 0.01874 0.06067
 N354 N 0.55318 0.03245 0.06751
 N355 N 0.50630 -0.01938 0.09812
 N356 N 0.50129 -0.03316 0.13140
 N357 N 0.51716 -0.01950 0.06090
 N358 N 0.51985 -0.03337 0.06779
 N359 N 0.52563 0.01883 0.09788
 N360 N 0.53457 0.03258 0.13109
 Mn361 Mn 0.49910 -0.00016 0.09859
 C362 C 0.55168 0.04089 0.11154
 C363 C 0.50987 -0.04169 0.11188
 N364 N 0.48092 0.01905 -0.05510
 N365 N 0.47783 0.03263 -0.06277
 N366 N 0.47247 -0.01925 -0.09207
 N367 N 0.46341 -0.03280 -0.12587
 N368 N 0.46161 -0.01915 -0.05482
 N369 N 0.44485 -0.03262 -0.06221
 N370 N 0.49179 0.01896 -0.09234
 N371 N 0.49641 0.03247 -0.12640
 Mn372 Mn 0.47111 -0.00002 0.00286
 C373 C 0.48761 0.04084 -0.10724
 C374 C 0.44627 -0.04097 -0.10654
 N375 N 0.51714 -0.01955 -0.05473
 N376 N 0.52033 -0.03306 -0.06241
 N377 N 0.52556 0.01871 -0.09225
 N378 N 0.53458 0.03222 -0.12622
 N379 N 0.53645 0.01865 -0.05495
 N380 N 0.55320 0.03210 -0.06248
 N381 N 0.50624 -0.01950 -0.09203
 N382 N 0.50169 -0.03297 -0.12614
 Mn383 Mn 0.52700 -0.00042 0.00299
 Mn384 Mn 0.49901 -0.00027 -0.09280
 Cl385 Cl 0.49906 -0.00022 0.00289
 C386 C 0.51055 -0.04128 -0.10692
 C387 C 0.55174 0.04041 -0.10694
 C388 C 1.19247 0.49829 0.35316
 C389 C 1.17997 0.49822 0.33004
 C390 C 1.16487 0.49790 0.30286
 C391 C 1.15604 0.50638 0.32586
 C392 C 1.14105 0.50565 0.30022
 C393 C 1.13467 0.49637 0.25120
 C394 C 1.14373 0.48799 0.22824
 C395 C 1.15872 0.48875 0.25393
 C396 C 1.11849 0.49523 0.22457
 C397 C 1.10535 0.47893 0.20044
 C398 C 1.08996 0.47776 0.17619
 C399 C 1.08750 0.49283 0.17565
 C400 C 1.10052 0.50913 0.19927
 C401 C 1.11592 0.51034 0.22359
 C402 C 1.07150 0.49151 0.15146
 C403 C 1.05805 0.49038 0.13150
 H404 H 1.16063 0.51343 0.36386
 H405 H 1.13423 0.51203 0.31929
 H406 H 1.13929 0.48094 0.19022
 H407 H 1.16546 0.48214 0.23575
 H408 H 1.10680 0.46699 0.20117
 H409 H 1.07993 0.46505 0.15820
 H410 H 1.09877 0.52090 0.19899
 H411 H 1.12589 0.52313 0.24120
 C412 C 0.50708 0.69515 0.35756
 C413 C 0.50765 0.68305 0.33411
 C414 C 0.50824 0.66852 0.30642
 C415 C 0.52364 0.66665 0.31038
 C416 C 0.52414 0.65240 0.28408
 C417 C 0.50921 0.63979 0.25346
 C418 C 0.49381 0.64183 0.24960
 C419 C 0.49335 0.65610 0.27591
 C420 C 0.50964 0.62450 0.22607
 C421 C 0.49417 0.60704 0.22564
 C422 C 0.49465 0.59261 0.20043
 C423 C 0.51056 0.59542 0.17527
 C424 C 0.52598 0.61275 0.17526
 C425 C 0.52554 0.62720 0.20048
 C426 C 0.51111 0.58049 0.15002
 C427 C 0.51161 0.56796 0.12918
 H428 H 0.53522 0.67615 0.33407
 H429 H 0.53609 0.65106 0.28843
 H430 H 0.48220 0.63249 0.22580
 H431 H 0.48137 0.65745 0.27248
 H432 H 0.48181 0.60447 0.24558
 H433 H 0.48265 0.57923 0.20085
 H434 H 0.53836 0.61509 0.15581
 H435 H 0.53759 0.64052 0.19952
 C436 C 0.30535 -0.19045 0.36173
 C437 C 0.31779 -0.17779 0.33918
 C438 C 0.33256 -0.16247 0.31276
 C439 C 0.33595 -0.16339 0.25824
 C440 C 0.35011 -0.14837 0.23247
 C441 C 0.36106 -0.13220 0.26095
 C442 C 0.35758 -0.13145 0.31582
 C443 C 0.34343 -0.14649 0.34149
 C444 C 0.37599 -0.11614 0.23359
 C445 C 0.37921 -0.09856 0.24493
 C446 C 0.39335 -0.08342 0.21957
 C447 C 0.40446 -0.08562 0.18256
 C448 C 0.40133 -0.10305 0.17082
 C449 C 0.38718 -0.11822 0.19611
 C450 C 0.41919 -0.06998 0.15721
 C451 C 0.43160 -0.05680 0.13648
 H452 H 0.32757 -0.17568 0.23557
 H453 H 0.35231 -0.14930 0.19008
 H454 H 0.36592 -0.11930 0.33902
 H455 H 0.34094 -0.14564 0.38373
 H456 H 0.37069 -0.09652 0.27299
 H457 H 0.39563 -0.07000 0.22888
 H458 H 0.40989 -0.10491 0.14238
 H459 H 0.38518 -0.13154 0.18701
 C460 C 0.80904 0.50167 0.35579
 C461 C 0.82151 0.50171 0.33273
 C462 C 0.83660 0.50199 0.30569
 C463 C 0.84307 0.51151 0.25742
 C464 C 0.85805 0.51222 0.23193
 C465 C 0.86678 0.50343 0.25449
 C466 C 0.86008 0.49378 0.30283
 C467 C 0.84509 0.49308 0.32822
 C468 C 0.88297 0.50454 0.22816
 C469 C 0.89788 0.50695 0.25905
 C470 C 0.91319 0.50815 0.23433
 C471 C 0.91382 0.50696 0.17846
 C472 C 0.89906 0.50453 0.14733
 C473 C 0.88373 0.50334 0.17198
 C474 C 0.92963 0.50823 0.15323
 C475 C 0.94294 0.50929 0.13262
 H476 H 0.83664 0.51853 0.23976
 H477 H 0.86302 0.51994 0.19515
 H478 H 0.86635 0.48667 0.32083
 H479 H 0.84018 0.48566 0.36555
 H480 H 0.89783 0.50819 0.30229
 H481 H 0.92456 0.51008 0.25880
 H482 H 0.89938 0.50354 0.10405
 H483 H 0.87239 0.50127 0.14716
 C484 C 0.49268 0.30497 0.36024
 C485 C 0.49218 0.31719 0.33726
 C486 C 0.49167 0.33190 0.31024
 C487 C 0.48541 0.34210 0.33732
 C488 C 0.48510 0.35653 0.31143
 C489 C 0.49106 0.36095 0.25800
 C490 C 0.49727 0.35056 0.23105
 C491 C 0.49758 0.33614 0.25706
 C492 C 0.49085 0.37637 0.23062
 C493 C 0.48543 0.37493 0.17661
 C494 C 0.48514 0.38943 0.15104
 C495 C 0.49029 0.40555 0.17904
 C496 C 0.49575 0.40713 0.23270
 C497 C 0.49604 0.39265 0.25835
 C498 C 0.48984 0.42043 0.15295
 C499 C 0.48943 0.43292 0.13147
 H500 H 0.48076 0.33891 0.37847
 H501 H 0.48000 0.36411 0.33301
 H502 H 0.50216 0.35376 0.19016
 H503 H 0.50252 0.32837 0.23578
 H504 H 0.48115 0.36251 0.15438
 H505 H 0.48083 0.38804 0.10953
 H506 H 0.49980 0.41957 0.25471
 H507 H 0.50051 0.39428 0.29970
 C508 C 0.69373 0.19041 0.35726
 C509 C 0.68136 0.17795 0.33392
 C510 C 0.66666 0.16287 0.30644
 C511 C 0.64934 0.16097 0.30571
 C512 C 0.63498 0.14609 0.28001
 C513 C 0.63778 0.13290 0.25469
 C514 C 0.65528 0.13501 0.25539
 C515 C 0.66960 0.14989 0.28112
 C516 C 0.62247 0.11688 0.22833
 C517 C 0.62507 0.11027 0.17933
 C518 C 0.61072 0.09498 0.15510
 C519 C 0.59361 0.08610 0.17948
 C520 C 0.59087 0.09262 0.22805
 C521 C 0.60518 0.10790 0.25233
 C522 C 0.57891 0.07021 0.15501
 C523 C 0.56652 0.05684 0.13494
 H524 H 0.64691 0.17095 0.32512
 H525 H 0.62173 0.14497 0.27959
 H526 H 0.65782 0.12498 0.23692
 H527 H 0.68294 0.15119 0.28165
 H528 H 0.63814 0.11701 0.15952
 H529 H 0.61298 0.09008 0.11742
 H530 H 0.57769 0.08581 0.24735
 H531 H 0.60281 0.11250 0.29038
 C532 C 0.49277 0.18879 -0.35682
 C533 C 0.49223 0.17606 -0.33378
 C534 C 0.49165 0.16082 -0.30666
 C535 C 0.50605 0.16339 -0.27357
 C536 C 0.50560 0.14856 -0.24778
 C537 C 0.49070 0.13094 -0.25477
 C538 C 0.47626 0.12852 -0.28799
 C539 C 0.47675 0.14337 -0.31376
 C540 C 0.49027 0.11514 -0.22782
 C541 C 0.47405 0.10126 -0.20536
 C542 C 0.47362 0.08631 -0.18049
 C543 C 0.48937 0.08501 -0.17772
 C544 C 0.50558 0.09876 -0.19977
 C545 C 0.50605 0.11374 -0.22463
 C546 C 0.48884 0.06950 -0.15266
 C547 C 0.48832 0.05645 -0.13184
 H548 H 0.51763 0.17685 -0.26772
 H549 H 0.51681 0.15090 -0.22195
 H550 H 0.46473 0.11511 -0.29476
 H551 H 0.46556 0.14122 -0.33946
 H552 H 0.46175 0.10206 -0.20654
 H553 H 0.46100 0.07576 -0.16344
 H554 H 0.51784 0.09787 -0.19801
 H555 H 0.51868 0.12407 -0.24213
 C556 C 0.69432 0.50217 -0.35637
 C557 C 0.68194 0.50231 -0.33325
 C558 C 0.66722 0.50271 -0.30609
 C559 C 0.67044 0.51252 -0.25838
 C560 C 0.65625 0.51333 -0.23275
 C561 C 0.63861 0.50432 -0.25457
 C562 C 0.63549 0.49437 -0.30237
 C563 C 0.64971 0.49359 -0.32794
 C564 C 0.62359 0.50548 -0.22805
 C565 C 0.60607 0.49017 -0.22511
 C566 C 0.59188 0.49138 -0.20097
 C567 C 0.59500 0.50790 -0.17947
 C568 C 0.61240 0.52318 -0.18194
 C569 C 0.62661 0.52200 -0.20603
 C570 C 0.58031 0.50921 -0.15550
 C571 C 0.56796 0.51030 -0.13578
 H572 H 0.68394 0.51962 -0.24109
 H573 H 0.65904 0.52090 -0.19567
 H574 H 0.62214 0.48749 -0.32056
 H575 H 0.64708 0.48602 -0.36500
 H576 H 0.60337 0.47722 -0.24107
 H577 H 0.57848 0.47946 -0.19917
 H578 H 0.61495 0.53605 -0.16560
 H579 H 0.63987 0.53409 -0.20830
 C580 C 0.80947 0.30495 -0.35489
 C581 C 0.82217 0.31726 -0.33207
 C582 C 0.83753 0.33188 -0.30532
 C583 C 0.83506 0.34298 -0.26891
 C584 C 0.85004 0.35720 -0.24313
 C585 C 0.86771 0.36049 -0.25344
 C586 C 0.87003 0.34924 -0.29010
 C587 C 0.85504 0.33505 -0.31583
 C588 C 0.88367 0.37564 -0.22636
 C589 C 0.89805 0.37335 -0.20790
 C590 C 0.91321 0.38770 -0.18326
 C591 C 0.91423 0.40452 -0.17672
 C592 C 0.89996 0.40692 -0.19465
 C593 C 0.88477 0.39258 -0.21928
 C594 C 0.93002 0.41939 -0.15231
 C595 C 0.94330 0.43188 -0.13224
 H596 H 0.82156 0.34062 -0.26038
 H597 H 0.84779 0.36548 -0.21466
 H598 H 0.88346 0.35158 -0.29948
 H599 H 0.85711 0.32658 -0.34408
 H600 H 0.89750 0.36042 -0.21210
 H601 H 0.92416 0.38569 -0.16942
 H602 H 0.90064 0.41990 -0.18996
 H603 H 0.87405 0.39484 -0.23365
 C604 C 0.50666 -0.18848 -0.35657
 C605 C 0.50713 -0.17580 -0.33354
 C606 C 0.50762 -0.16062 -0.30644
 C607 C 0.52343 -0.14359 -0.30750
 C608 C 0.52383 -0.12876 -0.28194
 C609 C 0.50840 -0.13079 -0.25493
 C610 C 0.49260 -0.14800 -0.25388
 C611 C 0.49222 -0.16280 -0.27951
 C612 C 0.50874 -0.11499 -0.22836
 C613 C 0.50036 -0.11695 -0.17819
 C614 C 0.50067 -0.10207 -0.15335
 C615 C 0.50932 -0.08504 -0.17831
 C616 C 0.51769 -0.08294 -0.22819
 C617 C 0.51741 -0.09780 -0.25307
 C618 C 0.50965 -0.06970 -0.15281
 C619 C 0.51001 -0.05677 -0.13172
 H620 H 0.53544 -0.14176 -0.32815
 H621 H 0.53627 -0.11576 -0.28287
 H622 H 0.48043 -0.14994 -0.23404
 H623 H 0.47989 -0.17591 -0.27861
 H624 H 0.49378 -0.12995 -0.15784
 H625 H 0.49419 -0.10383 -0.11466
 H626 H 0.52438 -0.06983 -0.24794
 H627 H 0.52376 -0.09590 -0.29200
 C628 C 0.30723 0.49822 -0.36067
 C629 C 0.31963 0.49810 -0.33751
 C630 C 0.33437 0.49773 -0.31025
 C631 C 0.35146 0.50530 -0.33454
 C632 C 0.36567 0.50454 -0.30871
 C633 C 0.36296 0.49615 -0.25820
 C634 C 0.34575 0.48867 -0.23398
 C635 C 0.33156 0.48946 -0.25987
 C636 C 0.37795 0.49500 -0.23127
 C637 C 0.37454 0.47903 -0.20440
 C638 C 0.38870 0.47784 -0.17987
 C639 C 0.40645 0.49257 -0.18179
 C640 C 0.40997 0.50855 -0.20814
 C641 C 0.39583 0.50977 -0.23273
 C642 C 0.42108 0.49123 -0.15735
 C643 C 0.43339 0.49013 -0.13725
 H644 H 0.35376 0.51166 -0.37365
 H645 H 0.37868 0.51021 -0.32873
 H646 H 0.34329 0.48232 -0.19485
 H647 H 0.31839 0.48356 -0.24068
 H648 H 0.36097 0.46735 -0.20318
 H649 H 0.38583 0.46538 -0.15975
 H650 H 0.42365 0.52006 -0.20977
 H651 H 0.39886 0.52232 -0.25248
 C652 C 1.19044 0.69455 -0.35488
 C653 C 1.17788 0.68215 -0.33188
 C654 C 1.16269 0.66744 -0.30481
 C655 C 1.16261 0.65124 -0.29424
 C656 C 1.14770 0.63686 -0.26870
 C657 C 1.13268 0.63853 -0.25337
 C658 C 1.13295 0.65491 -0.26398
 C659 C 1.14785 0.66925 -0.28954
 C660 C 1.11670 0.62319 -0.22695
 C661 C 1.10777 0.62639 -0.18447
 C662 C 1.09255 0.61197 -0.16027
 C663 C 1.08604 0.59418 -0.17816
 C664 C 1.09488 0.59084 -0.22017
 C665 C 1.11011 0.60523 -0.24442
 C666 C 1.07020 0.57937 -0.15380
 C667 C 1.05689 0.56695 -0.13369
 H668 H 1.17404 0.64970 -0.30581
 H669 H 1.14800 0.62451 -0.26049
 H670 H 1.12149 0.65653 -0.25338
 H671 H 1.14775 0.68171 -0.29773
 H672 H 1.11265 0.64002 -0.16965
 H673 H 1.08584 0.61471 -0.12768
 H674 H 1.08992 0.57712 -0.23445
 H675 H 1.11653 0.60234 -0.27746
 C676 C 0.81160 0.50745 -0.35832
 C677 C 0.82425 0.50767 -0.33576
 C678 C 0.83941 0.50784 -0.30947
 C679 C 0.84481 0.51544 -0.25830
 C680 C 0.85961 0.51566 -0.23298
 C681 C 0.86920 0.50830 -0.25863
 C682 C 0.86362 0.50065 -0.31003
 C683 C 0.84882 0.50043 -0.33523
 C684 C 0.88502 0.50866 -0.23207
 C685 C 0.90065 0.51265 -0.26180
 C686 C 0.91554 0.51300 -0.23685
 C687 C 0.91504 0.50935 -0.18192
 C688 C 0.89957 0.50536 -0.15195
 C689 C 0.88465 0.50502 -0.17682
 C690 C 0.93043 0.50978 -0.15637
 C691 C 0.94340 0.51022 -0.13529
 H692 H 0.83764 0.52125 -0.23806
 H693 H 0.86371 0.52185 -0.19371
 H694 H 0.87056 0.49465 -0.33050
 H695 H 0.84471 0.49446 -0.37479
 H696 H 0.90145 0.51576 -0.30420
 H697 H 0.92748 0.51616 -0.26037
 H698 H 0.89902 0.50248 -0.10942
 H699 H 0.87274 0.50169 -0.15300
 C700 C 0.49966 0.30668 -0.35302
 C701 C 0.49962 0.31910 -0.32991
 C702 C 0.49931 0.33388 -0.30289
 C703 C 0.50762 0.35114 -0.32639
 C704 C 0.50685 0.36539 -0.30103
 C705 C 0.49771 0.36254 -0.25180
 C706 C 0.48953 0.34517 -0.22830
 C707 C 0.49033 0.33094 -0.25372
 C708 C 0.49647 0.37756 -0.22558
 C709 C 0.48017 0.37431 -0.20137
 C710 C 0.47888 0.38851 -0.17768
 C711 C 0.49385 0.40613 -0.17779
 C712 C 0.51016 0.40949 -0.20145
 C713 C 0.51148 0.39531 -0.22520
 C714 C 0.49241 0.42079 -0.15428
 C715 C 0.49118 0.43311 -0.13490
 H716 H 0.51453 0.35353 -0.36458
 H717 H 0.51307 0.37853 -0.32049
 H718 H 0.48260 0.34261 -0.19012
 H719 H 0.48386 0.31764 -0.23518
 H720 H 0.46831 0.36085 -0.20165
 H721 H 0.46617 0.38577 -0.15964
 H722 H 0.52185 0.42308 -0.20165
 H723 H 0.52428 0.39820 -0.24291
 C724 C 0.69608 0.18730 -0.35445
 C725 C 0.68366 0.17472 -0.33166
 C726 C 0.66870 0.15968 -0.30495
 C727 C 0.67184 0.15153 -0.26055
 C728 C 0.65729 0.13682 -0.23490
 C729 C 0.63940 0.13009 -0.25337
 C730 C 0.63640 0.13842 -0.29797
 C731 C 0.65097 0.15311 -0.32356
 C732 C 0.62394 0.11437 -0.22653
 C733 C 0.60741 0.11405 -0.21839
 C734 C 0.59280 0.09914 -0.19369
 C735 C 0.59450 0.08437 -0.17683
 C736 C 0.61089 0.08457 -0.18456
 C737 C 0.62553 0.09947 -0.20921
 C738 C 0.57939 0.06893 -0.15200
 C739 C 0.56675 0.05594 -0.13136
 H740 H 0.68551 0.15654 -0.24574
 H741 H 0.66001 0.13085 -0.20028
 H742 H 0.62283 0.13340 -0.31359
 H743 H 0.64840 0.15929 -0.35801
 H744 H 0.60584 0.12541 -0.23063
 H745 H 0.58018 0.09914 -0.18778
 H746 H 0.61233 0.07318 -0.17181
 H747 H 0.63798 0.09920 -0.21554
 C748 C 1.18837 0.49233 -0.36049
 C749 C 1.17579 0.49194 -0.33712
 C750 C 1.16073 0.49156 -0.30966
 C751 C 1.16269 0.50740 -0.28634
 C752 C 1.14798 0.50712 -0.26042
 C753 C 1.13110 0.49096 -0.25750
 C754 C 1.12931 0.47508 -0.28088
 C755 C 1.14403 0.47540 -0.30681
 C756 C 1.11540 0.49068 -0.23059
 C757 C 1.10360 0.47590 -0.19811
 C758 C 1.08869 0.47555 -0.17333
 C759 C 1.08538 0.48995 -0.18067
 C760 C 1.09707 0.50475 -0.21272
 C761 C 1.11199 0.50513 -0.23751
 C762 C 1.06989 0.48945 -0.15574
 C763 C 1.05685 0.48894 -0.13502
 H764 H 1.17557 0.51998 -0.28825
 H765 H 1.14985 0.51950 -0.24223
 H766 H 1.11644 0.46250 -0.27993
 H767 H 1.14236 0.46308 -0.32493
 H768 H 1.10599 0.46469 -0.19146
 H769 H 1.07975 0.46405 -0.14850
 H770 H 1.09459 0.51594 -0.21881
 H771 H 1.12069 0.51658 -0.26282
 C772 C 0.50050 0.69320 -0.35487
 C773 C 0.50064 0.68081 -0.33181
 C774 C 0.50107 0.66606 -0.30485
 C775 C 0.51009 0.66902 -0.25569
 C776 C 0.51101 0.65484 -0.23032
 C777 C 0.50291 0.63748 -0.25388
 C778 C 0.49374 0.63462 -0.30311
 C779 C 0.49285 0.64883 -0.32841
 C780 C 0.50427 0.62252 -0.22771
 C781 C 0.48933 0.60472 -0.22735
 C782 C 0.49076 0.59059 -0.20356
 C783 C 0.50711 0.59405 -0.17986
 C784 C 0.52201 0.61170 -0.17976
 C785 C 0.52062 0.62586 -0.20349
 C786 C 0.50865 0.57944 -0.15618
 C787 C 0.50995 0.56718 -0.13660
 H788 H 0.51650 0.68232 -0.23709
 H789 H 0.51797 0.65741 -0.19214
 H790 H 0.48758 0.62149 -0.32261
 H791 H 0.48591 0.64642 -0.36661
 H792 H 0.47651 0.60176 -0.24508
 H793 H 0.47912 0.57697 -0.20375
 H794 H 0.53475 0.61451 -0.16168
 H795 H 0.53243 0.63935 -0.20376
 C796 C 0.30213 -0.18810 -0.35387
 C797 C 0.31439 -0.17550 -0.33063
 C798 C 0.32914 -0.16043 -0.30336
 C799 C 0.34262 -0.16261 -0.27805
 C800 C 0.35714 -0.14789 -0.25240
 C801 C 0.35837 -0.13077 -0.25175
 C802 C 0.34469 -0.12874 -0.27711
 C803 C 0.33019 -0.14348 -0.30276
 C804 C 0.37392 -0.11506 -0.22517
 C805 C 0.37121 -0.10268 -0.19475
 C806 C 0.38589 -0.08778 -0.17027
 C807 C 0.40346 -0.08503 -0.17588
 C808 C 0.40630 -0.09729 -0.20589
 C809 C 0.39163 -0.11221 -0.23037
 C810 C 0.41859 -0.06956 -0.15124
 C811 C 0.43124 -0.05654 -0.13077
 H812 H 0.34192 -0.17569 -0.27822
 H813 H 0.36733 -0.14994 -0.23266
 H814 H 0.34538 -0.11568 -0.27792
 H815 H 0.31986 -0.14162 -0.32245
 H816 H 0.35771 -0.10463 -0.18944
 H817 H 0.38355 -0.07839 -0.14702
 H818 H 0.41985 -0.09525 -0.21063
 H819 H 0.39419 -0.12136 -0.25410
 C820 C 0.50022 -0.19252 0.35471
 C821 C 0.50029 -0.18004 0.33151
 C822 C 0.50062 -0.16494 0.30443
 C823 C 0.48880 -0.15885 0.32029
 C824 C 0.48952 -0.14380 0.29518
 C825 C 0.50210 -0.13463 0.25383
 C826 C 0.51381 -0.14097 0.23784
 C827 C 0.51307 -0.15601 0.26304
 C828 C 0.50321 -0.11835 0.22812
 C829 C 0.50586 -0.11560 0.17240
 C830 C 0.50715 -0.10012 0.14844
 C831 C 0.50581 -0.08721 0.17983
 C832 C 0.50313 -0.08984 0.23523
 C833 C 0.50183 -0.10530 0.25926
 C834 C 0.50727 -0.07120 0.15536
 C835 C 0.50848 -0.05774 0.13529
 H836 H 0.47910 -0.16567 0.35227
 H837 H 0.48017 -0.13940 0.30790
 H838 H 0.52379 -0.13407 0.20663
 H839 H 0.52235 -0.16057 0.25063
 H840 H 0.50676 -0.12550 0.14728
 H841 H 0.50918 -0.09823 0.10548
 H842 H 0.50213 -0.07990 0.25991
 H843 H 0.50004 -0.10690 0.30232
 C844 C 0.30430 0.49233 0.35171
 C845 C 0.31667 0.49204 0.32905
 C846 C 0.33156 0.49179 0.30260
 C847 C 0.33037 0.48738 0.24809
 C848 C 0.34489 0.48716 0.22249
 C849 C 0.36079 0.49138 0.25114
 C850 C 0.36184 0.49580 0.30593
 C851 C 0.34731 0.49599 0.33143
 C852 C 0.37621 0.49111 0.22414
 C853 C 0.39423 0.50456 0.23540
 C854 C 0.40874 0.50416 0.21054
 C855 C 0.40546 0.49033 0.17413
 C856 C 0.38760 0.47694 0.16244
 C857 C 0.37305 0.47732 0.18722
 C858 C 0.42043 0.48977 0.14926
 C859 C 0.43299 0.48926 0.12873
 H860 H 0.31826 0.48415 0.22537
 H861 H 0.34376 0.48392 0.18015
 H862 H 0.37379 0.49886 0.32924
 H863 H 0.34835 0.49938 0.37368
 H864 H 0.39709 0.51548 0.26306
 H865 H 0.42252 0.51462 0.21977
 H866 H 0.38491 0.46614 0.13443
 H867 H 0.35936 0.46665 0.17823
 C868 C 1.18721 0.69693 0.35797
 C869 C 1.17462 0.68468 0.33465
 C870 C 1.15955 0.66995 0.30730
 C871 C 1.14178 0.66565 0.31940
 C872 C 1.12710 0.65115 0.29351
 C873 C 1.13002 0.64074 0.25517
 C874 C 1.14796 0.64522 0.24316
 C875 C 1.16262 0.65974 0.26908
 C876 C 1.11442 0.62520 0.22817
 C877 C 1.11445 0.60888 0.21924
 C878 C 1.09964 0.59417 0.19449
 C879 C 1.08463 0.59558 0.17830
 C880 C 1.08451 0.61178 0.18676
 C881 C 1.09929 0.62650 0.21153
 C882 C 1.06929 0.58038 0.15347
 C883 C 1.05636 0.56766 0.13287
 H884 H 1.13925 0.67342 0.34910
 H885 H 1.11346 0.64789 0.30416
 H886 H 1.15065 0.63762 0.21337
 H887 H 1.17633 0.66298 0.25937
 H888 H 1.12579 0.60738 0.23220
 H889 H 1.09985 0.58167 0.18828
 H890 H 1.07297 0.61303 0.17425
 H891 H 1.09897 0.63895 0.21720
 C892 C 0.49897 0.19225 0.35573
 C893 C 0.49881 0.17978 0.33233
 C894 C 0.49838 0.16469 0.30493
 C895 C 0.50702 0.15591 0.32739
 C896 C 0.50615 0.14091 0.30163
 C897 C 0.49659 0.13446 0.25305
 C898 C 0.48806 0.14347 0.23060
 C899 C 0.48896 0.15848 0.25641
 C900 C 0.49528 0.11824 0.22641
 C901 C 0.47881 0.10503 0.20326
 C902 C 0.47747 0.08957 0.17916
 C903 C 0.49255 0.08711 0.17780
 C904 C 0.50901 0.10022 0.20039
 C905 C 0.51039 0.11568 0.22455
 C906 C 0.49105 0.07103 0.15388
 C907 C 0.48980 0.05752 0.13419
 H908 H 0.51427 0.16056 0.36508
 H909 H 0.51265 0.13412 0.32029
 H910 H 0.48079 0.13897 0.19292
 H911 H 0.48223 0.16519 0.23867
 H912 H 0.46688 0.10648 0.20469
 H913 H 0.46464 0.07947 0.16196
 H914 H 0.52078 0.09846 0.19945
 H915 H 0.52330 0.12571 0.24141
 C916 C 0.69649 0.50834 0.35612
 C917 C 0.68430 0.50881 0.33278
 C918 C 0.66965 0.50927 0.30532
 C919 C 0.66789 0.52475 0.30839
 C920 C 0.65350 0.52511 0.28243
 C921 C 0.64064 0.50996 0.25308
 C922 C 0.64258 0.49449 0.25009
 C923 C 0.65699 0.49417 0.27605
 C924 C 0.62521 0.51024 0.22610
 C925 C 0.60770 0.49484 0.22720
 C926 C 0.59314 0.49519 0.20234
 C927 C 0.59586 0.51090 0.17603
 C928 C 0.61322 0.52626 0.17451
 C929 C 0.62781 0.52595 0.19938
 C930 C 0.58082 0.51132 0.15100
 C931 C 0.56823 0.51174 0.13022
 H932 H 0.67758 0.53649 0.33114
 H933 H 0.65225 0.53712 0.28608
 H934 H 0.63304 0.48271 0.22725
 H935 H 0.65825 0.48213 0.27335
 H936 H 0.60522 0.48264 0.24804
 H937 H 0.57974 0.48325 0.20390
 H938 H 0.61549 0.53848 0.15414
 H939 H 0.64116 0.53793 0.19724
 C940 C 0.81280 0.30320 0.35869
 C941 C 0.82542 0.31546 0.33553
 C942 C 0.84049 0.33021 0.30829
 C943 C 0.83878 0.34456 0.28737
 C944 C 0.85350 0.35907 0.26167
 C945 C 0.87014 0.35940 0.25654
 C946 C 0.87169 0.34485 0.27751
 C947 C 0.85695 0.33037 0.30324
 C948 C 0.88586 0.37490 0.22985
 C949 C 0.89720 0.37194 0.19531
 C950 C 0.91209 0.38657 0.17061
 C951 C 0.91585 0.40433 0.18010
 C952 C 0.90463 0.40742 0.21426
 C953 C 0.88973 0.39282 0.23897
 C954 C 0.93131 0.41939 0.15515
 C955 C 0.94430 0.43200 0.13442
 H956 H 0.82609 0.34456 0.29099
 H957 H 0.85182 0.36994 0.24535
 H958 H 0.88438 0.34483 0.27483
 H959 H 0.85843 0.31936 0.31948
 H960 H 0.89444 0.35830 0.18695
 H961 H 0.92067 0.38402 0.14413
 H962 H 0.90746 0.42113 0.22202
 H963 H 0.88140 0.39556 0.26589
   
