data_POSCAR
  _audit_creation_date              2014-09-24
  _audit_creation_method            'ToBaCCo'
  _symmetry_space_group_name_H-M    'P1'
  _symmetry_Int_Tables_number       1
  _symmetry_cell_setting            triclinic
  loop_
  _symmetry_equiv_pos_as_xyz
 x,y,z
_cell_length_a 51.0320
_cell_length_b 51.1210
_cell_length_c 19.2875
_cell_angle_alpha 90.112400
_cell_angle_beta 89.978200
_cell_angle_gamma 120.004000
loop_
  _atom_site_label
  _atom_site_type_symbol
  _atom_site_fract_x
  _atom_site_fract_y
  _atom_site_fract_z
C1 C 0.17336 0.45848 0.56379
 C2 C 0.15997 0.45860 0.50075
 C3 C 0.17313 0.45829 0.43750
 C4 C 0.20037 0.45738 0.43666
 C5 C 0.21414 0.45702 0.50050
 C6 C 0.20059 0.45757 0.56442
 C7 C 0.21485 0.45764 0.62694
 C8 C 0.24209 0.45754 0.62681
 C9 C 0.25610 0.45735 0.56418
 C10 C 0.24189 0.45690 0.50040
 C11 C 0.21444 0.45724 0.37404
 C12 C 0.24166 0.45711 0.37397
 C13 C 0.25581 0.45712 0.43648
 C14 C 0.28378 0.45780 0.43697
 C15 C 0.29742 0.45803 0.49982
 C16 C 0.28416 0.45803 0.56317
 H17 H 0.20506 0.45792 0.67657
 H18 H 0.25220 0.45775 0.67631
 H19 H 0.20452 0.45737 0.32450
 H20 H 0.25163 0.45714 0.32439
 H21 H 0.13930 0.45983 0.50093
 H22 H 0.31924 0.45912 0.49925
 C23 C 0.54178 -0.28455 0.56316
 C24 C 0.54158 -0.29817 0.50028
 C25 C 0.54176 -0.28490 0.43695
 C26 C 0.54260 -0.25682 0.43599
 C27 C 0.54301 -0.24262 0.49980
 C28 C 0.54259 -0.25656 0.56371
 C29 C 0.54253 -0.24240 0.62623
 C30 C 0.54254 -0.21515 0.62616
 C31 C 0.54261 -0.20106 0.56353
 C32 C 0.54304 -0.21484 0.49973
 C33 C 0.54260 -0.24277 0.37337
 C34 C 0.54266 -0.21549 0.37330
 C35 C 0.54270 -0.20129 0.43582
 C36 C 0.54195 -0.17408 0.43634
 C37 C 0.54174 -0.16065 0.49922
 C38 C 0.54184 -0.17378 0.56256
 H39 H 0.54235 -0.25239 0.67581
 H40 H 0.54235 -0.20522 0.67568
 H41 H 0.54243 -0.25287 0.32384
 H42 H 0.54253 -0.20566 0.32372
 H43 H 0.54040 -0.32000 0.50080
 H44 H 0.54059 -0.13998 0.49869
 C45 C 1.17382 0.71589 0.56368
 C46 C 1.16060 0.70261 0.50030
 C47 C 1.17397 0.71624 0.43748
 C48 C 1.20119 0.74423 0.43706
 C49 C 1.21484 0.75817 0.50102
 C50 C 1.20112 0.74398 0.56476
 C51 C 1.21529 0.75802 0.62742
 C52 C 1.24256 0.78528 0.62762
 C53 C 1.25672 0.79953 0.56514
 C54 C 1.24266 0.78596 0.50118
 C55 C 1.21531 0.75837 0.37459
 C56 C 1.24259 0.78561 0.37472
 C57 C 1.25675 0.79971 0.43737
 C58 C 1.28485 0.82698 0.43829
 C59 C 1.29828 0.84017 0.50157
 C60 C 1.28479 0.82678 0.56457
 H61 H 1.20541 0.74792 0.67690
 H62 H 1.25259 0.79509 0.67728
 H63 H 1.20539 0.74838 0.32498
 H64 H 1.25261 0.79552 0.32521
 H65 H 1.13992 0.68078 0.49967
 H66 H 1.32015 0.86085 0.50180
 C67 C 0.82658 0.54188 0.56469
 C68 C 0.83982 0.54189 0.50130
 C69 C 0.82646 0.54223 0.43848
 C70 C 0.79920 0.54299 0.43820
 C71 C 0.78555 0.54322 0.50226
 C72 C 0.79927 0.54267 0.56591
 C73 C 0.78511 0.54248 0.62867
 C74 C 0.75782 0.54248 0.62900
 C75 C 0.74364 0.54265 0.56659
 C76 C 0.75773 0.54320 0.50259
 C77 C 0.78503 0.54307 0.37581
 C78 C 0.75772 0.54304 0.37614
 C79 C 0.74364 0.54294 0.43887
 C80 C 0.71560 0.54212 0.43981
 C81 C 0.70210 0.54181 0.50293
 C82 C 0.71554 0.54186 0.56602
 H83 H 0.79502 0.54220 0.67810
 H84 H 0.74778 0.54220 0.67867
 H85 H 0.79491 0.54303 0.32615
 H86 H 0.74763 0.54298 0.32672
 H87 H 0.86053 0.54075 0.50068
 H88 H 0.68023 0.54064 0.50278
 C89 C 0.45770 0.17364 0.43873
 C90 C 0.45790 0.16051 0.50194
 C91 C 0.45775 0.17393 0.56488
 C92 C 0.45701 0.20117 0.56535
 C93 C 0.45658 0.21467 0.50137
 C94 C 0.45692 0.20084 0.43768
 C95 C 0.45692 0.21478 0.37494
 C96 C 0.45692 0.24203 0.37461
 C97 C 0.45693 0.25629 0.43701
 C98 C 0.45660 0.24244 0.50105
 C99 C 0.45713 0.21546 0.62776
 C100 C 0.45718 0.24273 0.62749
 C101 C 0.45709 0.25670 0.56474
 C102 C 0.45792 0.28476 0.56357
 C103 C 0.45799 0.29797 0.50019
 C104 C 0.45771 0.28428 0.43734
 H105 H 0.45705 0.20476 0.32553
 H106 H 0.45704 0.25194 0.32496
 H107 H 0.45734 0.20569 0.67738
 H108 H 0.45741 0.25291 0.67695
 H109 H 0.45905 0.13986 0.50214
 H110 H 0.45916 0.31979 0.49962
 C111 C 0.71628 0.17411 0.43737
 C112 C 0.70275 0.16086 0.50036
 C113 C 0.71615 0.17417 0.56352
 C114 C 0.74418 0.20141 0.56447
 C115 C 0.75831 0.21506 0.50074
 C116 C 0.74430 0.20135 0.43680
 C117 C 0.75843 0.21545 0.37431
 C118 C 0.78570 0.24273 0.37447
 C119 C 0.79979 0.25684 0.43712
 C120 C 0.78609 0.24283 0.50092
 C121 C 0.75819 0.21555 0.62714
 C122 C 0.78547 0.24283 0.62735
 C123 C 0.79972 0.25694 0.56486
 C124 C 0.82701 0.28501 0.56416
 C125 C 0.84030 0.29839 0.50099
 C126 C 0.82701 0.28486 0.43793
 H127 H 0.74840 0.20553 0.32473
 H128 H 0.79563 0.25277 0.32499
 H129 H 0.74805 0.20567 0.67659
 H130 H 0.79529 0.25289 0.67699
 H131 H 0.68092 0.14020 0.50022
 H132 H 0.86098 0.32022 0.50075
 N133 N 0.96864 0.53131 0.07377
 N134 N 0.94764 0.53847 0.08813
 N135 N 1.03230 0.54460 0.12054
 N136 N 1.05351 0.55948 0.16717
 N137 N 1.03220 0.56313 0.07363
 N138 N 1.05327 0.59125 0.08759
 N139 N 0.96867 0.51274 0.12064
 N140 N 0.94762 0.50654 0.16760
 C141 C 0.93448 0.52250 0.14653
 C142 C 1.06659 0.58851 0.14581
 N143 N 1.03245 0.46981 0.07436
 N144 N 1.05322 0.46243 0.08934
 N145 N 0.96880 0.45666 0.12097
 N146 N 0.94778 0.44188 0.16798
 N147 N 0.96885 0.43799 0.07421
 N148 N 0.94795 0.40988 0.08865
 N149 N 1.03245 0.48853 0.12105
 N150 N 1.05330 0.49460 0.16851
 Mn151 Mn 1.00055 0.50064 0.12134
 C152 C 1.06631 0.47842 0.14792
 C153 C 0.93475 0.41276 0.14700
 N154 N 1.03218 0.56299 -0.07639
 N155 N 1.05300 0.59112 -0.09104
 N156 N 0.96858 0.51242 -0.12306
 N157 N 0.94746 0.50608 -0.16995
 N158 N 0.96858 0.53110 -0.07625
 N159 N 0.94754 0.53817 -0.09052
 N160 N 1.03225 0.54432 -0.12315
 N161 N 1.05317 0.55913 -0.17037
 Mn162 Mn 1.00040 0.54746 -0.00130
 C163 C 1.06615 0.58827 -0.14954
 C164 C 0.93431 0.52206 -0.14884
 N165 N 0.96881 0.43778 -0.07582
 N166 N 0.94782 0.40964 -0.09001
 N167 N 1.03236 0.48821 -0.12264
 N168 N 1.05357 0.49458 -0.16925
 N169 N 1.03238 0.46965 -0.07571
 N170 N 1.05353 0.46268 -0.08963
 N171 N 0.96872 0.45632 -0.12273
 N172 N 0.94759 0.44142 -0.16956
 Mn173 Mn 1.00062 0.45348 -0.00076
 Mn174 Mn 1.00047 0.50031 -0.12346
 Cl175 Cl 1.00052 0.50047 -0.00105
 C176 C 0.93454 0.41236 -0.14836
 C177 C 1.06678 0.47873 -0.14784
 N178 N 0.46873 0.43725 0.07390
 N179 N 0.46156 0.40913 0.08804
 N180 N 0.45551 0.48760 0.12072
 N181 N 0.44062 0.49394 0.16727
 N182 N 0.43695 0.46897 0.07364
 N183 N 0.40878 0.46191 0.08742
 N184 N 0.48733 0.45585 0.12096
 N185 N 0.49352 0.44103 0.16785
 C186 C 0.47754 0.41195 0.14653
 C187 C 0.41154 0.47800 0.14570
 N188 N 0.53051 0.56245 0.07522
 N189 N 0.53786 0.59058 0.09013
 N190 N 0.54356 0.51201 0.12184
 N191 N 0.55832 0.50581 0.16897
 N192 N 0.56230 0.53070 0.07526
 N193 N 0.59044 0.53793 0.08995
 N194 N 0.51173 0.54378 0.12176
 N195 N 0.50561 0.55857 0.16907
 Mn196 Mn 0.49952 0.49980 0.12187
 C197 C 0.52181 0.58771 0.14853
 C198 C 0.58750 0.52189 0.14826
 N199 N 0.43714 0.46905 -0.07639
 N200 N 0.40898 0.46176 -0.09121
 N201 N 0.48775 0.45601 -0.12274
 N202 N 0.49406 0.44123 -0.16969
 N203 N 0.46899 0.43736 -0.07613
 N204 N 0.46183 0.40925 -0.09061
 N205 N 0.45588 0.48774 -0.12298
 N206 N 0.44109 0.49386 -0.17024
 Mn207 Mn 0.45262 0.45282 -0.00124
 C208 C 0.41189 0.47775 -0.14962
 C209 C 0.47797 0.41213 -0.14883
 N210 N 0.56257 0.53081 -0.07477
 N211 N 0.59075 0.53795 -0.08871
 N212 N 0.51215 0.54391 -0.12193
 N213 N 0.50577 0.55873 -0.16846
 N214 N 0.53073 0.56249 -0.07481
 N215 N 0.53771 0.59057 -0.08851
 N216 N 0.54401 0.51219 -0.12186
 N217 N 0.55893 0.50595 -0.16858
 Mn218 Mn 0.54686 0.54695 0.00021
 Mn219 Mn 0.49995 0.49997 -0.12294
 Cl220 Cl 0.49974 0.49989 -0.00053
 C221 C 0.58802 0.52194 -0.14712
 C222 C 0.52165 0.58776 -0.14680
 N223 N 0.43706 -0.03247 0.07559
 N224 N 0.40889 -0.05321 0.09056
 N225 N 0.48758 0.03108 0.12240
 N226 N 0.49385 0.05212 0.16946
 N227 N 0.46882 0.03102 0.07575
 N228 N 0.46163 0.05194 0.09030
 N229 N 0.45582 -0.03246 0.12217
 N230 N 0.44105 -0.05327 0.16952
 C231 C 0.41184 -0.06627 0.14900
 C232 C 0.47774 0.06515 0.14861
 N233 N 0.56248 0.03117 0.07460
 N234 N 0.59065 0.05218 0.08876
 N235 N 0.51212 -0.03235 0.12122
 N236 N 0.50577 -0.05355 0.16764
 N237 N 0.53074 -0.03229 0.07415
 N238 N 0.53778 -0.05337 0.08779
 N239 N 0.54388 0.03117 0.12164
 N240 N 0.55875 0.05226 0.16854
 Mn241 Mn 0.49986 -0.00064 0.12241
 C242 C 0.58786 0.06538 0.14724
 C243 C 0.52170 -0.06667 0.14599
 N244 N 0.46861 0.03104 -0.07423
 N245 N 0.46147 0.05204 -0.08806
 N246 N 0.45553 -0.03241 -0.12157
 N247 N 0.44068 -0.05359 -0.16826
 N248 N 0.43693 -0.03242 -0.07449
 N249 N 0.40879 -0.05353 -0.08841
 N250 N 0.48725 0.03112 -0.12128
 N251 N 0.49350 0.05225 -0.16787
 Mn252 Mn 0.45252 -0.00071 0.00064
 C253 C 0.47749 0.06532 -0.14635
 C254 C 0.41160 -0.06677 -0.14677
 N255 N 0.53058 -0.03229 -0.07588
 N256 N 0.53794 -0.05308 -0.09083
 N257 N 0.54357 0.03122 -0.12204
 N258 N 0.55834 0.05232 -0.16879
 N259 N 0.56228 0.03120 -0.07537
 N260 N 0.59041 0.05222 -0.08958
 N261 N 0.51182 -0.03234 -0.12251
 N262 N 0.50572 -0.05321 -0.16991
 Mn263 Mn 0.54685 -0.00056 -0.00062
 Mn264 Mn 0.49953 -0.00060 -0.12241
 Cl265 Cl 0.49969 -0.00063 0.00000
 C266 C 0.52191 -0.06619 -0.14934
 C267 C 0.58750 0.06544 -0.14773
 C268 C 1.12924 0.46947 0.27878
 C269 C 1.12334 0.49314 0.28884
 C270 C 1.10369 0.49658 0.24450
 C271 C 1.15957 0.46095 0.37880
 C272 C 1.09658 0.45337 0.17739
 C273 C 1.11619 0.44981 0.22234
 C274 C 1.14639 0.46427 0.33073
 C275 C 1.08964 0.47640 0.18917
 H276 H 1.13316 0.50840 0.33247
 H277 H 1.09890 0.51462 0.25467
 H278 H 1.08598 0.43747 0.13522
 H279 H 1.12043 0.43128 0.21433
 C280 C 0.53057 0.65974 0.27868
 C281 C 0.50697 0.63016 0.28894
 C282 C 0.50359 0.60701 0.24486
 C283 C 0.53907 0.69880 0.37834
 C284 C 0.54673 0.64305 0.17763
 C285 C 0.55022 0.66628 0.22231
 C286 C 0.53575 0.68220 0.33041
 C287 C 0.52377 0.61308 0.18959
 H288 H 0.49172 0.62478 0.33254
 H289 H 0.48560 0.58419 0.25517
 H290 H 0.56263 0.64832 0.13549
 H291 H 0.56871 0.68907 0.21415
 C292 C 0.33994 -0.12915 0.27967
 C293 C 0.33329 -0.11612 0.22340
 C294 C 0.35646 -0.09652 0.17852
 C295 C 0.30106 -0.15947 0.37961
 C296 C 0.39265 -0.10359 0.24534
 C297 C 0.36956 -0.12322 0.28962
 C298 C 0.31758 -0.14629 0.33157
 C299 C 0.38648 -0.08957 0.19018
 H300 H 0.31047 -0.12038 0.21548
 H301 H 0.35112 -0.08595 0.13648
 H302 H 0.41552 -0.09879 0.25542
 H303 H 0.37503 -0.13303 0.33312
 C304 C 0.87103 0.53105 0.27617
 C305 C 0.87681 0.50730 0.28590
 C306 C 0.89660 0.50396 0.24183
 C307 C 0.84070 0.53956 0.37618
 C308 C 0.90404 0.54740 0.17556
 C309 C 0.88429 0.55086 0.22026
 C310 C 0.85388 0.53624 0.32811
 C311 C 0.91091 0.52432 0.18713
 H312 H 0.86681 0.49194 0.32915
 H313 H 0.90133 0.48588 0.25177
 H314 H 0.91484 0.56343 0.13386
 H315 H 0.88013 0.56946 0.21255
 C316 C 0.46900 0.33999 0.27544
 C317 C 0.49275 0.36952 0.28558
 C318 C 0.49609 0.39264 0.24176
 C319 C 0.46044 0.30115 0.37510
 C320 C 0.45264 0.35664 0.17493
 C321 C 0.44918 0.33343 0.21938
 C322 C 0.46378 0.31764 0.32716
 C323 C 0.47571 0.38658 0.18691
 H324 H 0.50812 0.37489 0.32896
 H325 H 0.51417 0.41545 0.25202
 H326 H 0.43660 0.35140 0.13311
 H327 H 0.43058 0.31068 0.21136
 C328 C 0.66010 0.12917 0.27592
 C329 C 0.63050 0.12322 0.28631
 C330 C 0.60727 0.10330 0.24259
 C331 C 0.69922 0.15978 0.37529
 C332 C 0.64331 0.09605 0.17540
 C333 C 0.66662 0.11594 0.21974
 C334 C 0.68259 0.14648 0.32748
 C335 C 0.61331 0.08903 0.18760
 H336 H 0.62516 0.13320 0.32979
 H337 H 0.58441 0.09845 0.25302
 H338 H 0.64853 0.08529 0.13346
 H339 H 0.68943 0.12022 0.21152
 C340 C 0.46912 0.12922 -0.27393
 C341 C 0.49280 0.12334 -0.28443
 C342 C 0.49609 0.10338 -0.24106
 C343 C 0.46055 0.15975 -0.37301
 C344 C 0.45272 0.09597 -0.17396
 C345 C 0.44932 0.11589 -0.21796
 C346 C 0.46392 0.14651 -0.32530
 C347 C 0.47573 0.08900 -0.18630
 H348 H 0.50815 0.13338 -0.32776
 H349 H 0.51411 0.09857 -0.25159
 H350 H 0.43670 0.08513 -0.13219
 H351 H 0.43077 0.12011 -0.20967
 C352 C 0.66037 0.53042 -0.27543
 C353 C 0.66681 0.55025 -0.21944
 C354 C 0.64348 0.54681 -0.17518
 C355 C 0.69935 0.53908 -0.37520
 C356 C 0.60756 0.50334 -0.24201
 C357 C 0.63082 0.50666 -0.28565
 C358 C 0.68281 0.53567 -0.32714
 C359 C 0.61352 0.52373 -0.18726
 H360 H 0.68958 0.56886 -0.21138
 H361 H 0.64864 0.56286 -0.13342
 H362 H 0.58474 0.48526 -0.25235
 H363 H 0.62552 0.49129 -0.32899
 C364 C 0.87082 0.34016 -0.27720
 C365 C 0.87657 0.36966 -0.28719
 C366 C 0.89646 0.39286 -0.24339
 C367 C 0.84049 0.30123 -0.37709
 C368 C 0.90405 0.35701 -0.17687
 C369 C 0.88421 0.33372 -0.22129
 C370 C 0.85364 0.31775 -0.32901
 C371 C 0.91089 0.38691 -0.18871
 H372 H 0.86649 0.37494 -0.33046
 H373 H 0.90117 0.41565 -0.25354
 H374 H 0.91494 0.35185 -0.13517
 H375 H 0.88009 0.31100 -0.21340
 C376 C 0.53064 -0.12953 -0.27937
 C377 C 0.50711 -0.12341 -0.28989
 C378 C 0.50375 -0.10361 -0.24588
 C379 C 0.53914 -0.16015 -0.37886
 C380 C 0.54676 -0.09673 -0.17820
 C381 C 0.55024 -0.11650 -0.22282
 C382 C 0.53581 -0.14685 -0.33099
 C383 C 0.52387 -0.08961 -0.19041
 H384 H 0.49191 -0.13321 -0.33363
 H385 H 0.48581 -0.09868 -0.25638
 H386 H 0.56261 -0.08619 -0.13591
 H387 H 0.56867 -0.12090 -0.21445
 C388 C 0.33971 0.46919 -0.27905
 C389 C 0.33314 0.44966 -0.22257
 C390 C 0.35643 0.45308 -0.17816
 C391 C 0.30050 0.46074 -0.37828
 C392 C 0.39260 0.49590 -0.24590
 C393 C 0.36939 0.49259 -0.28971
 C394 C 0.31716 0.46406 -0.33050
 C395 C 0.38649 0.47585 -0.19050
 H396 H 0.31028 0.43133 -0.21410
 H397 H 0.35113 0.43729 -0.13592
 H398 H 0.41550 0.51374 -0.25651
 H399 H 0.37480 0.50774 -0.33341
 C400 C 1.12961 0.66042 -0.27870
 C401 C 1.12349 0.63083 -0.28954
 C402 C 1.10366 0.60763 -0.24581
 C403 C 1.16023 0.69958 -0.37782
 C404 C 1.09674 0.64364 -0.17778
 C405 C 1.11655 0.66692 -0.22212
 C406 C 1.14695 0.68294 -0.33010
 C407 C 1.08961 0.61367 -0.19031
 H408 H 1.13332 0.62548 -0.33332
 H409 H 1.09872 0.58481 -0.25655
 H410 H 1.08617 0.64889 -0.13547
 H411 H 1.12095 0.68971 -0.21351
 C412 C 0.87054 0.53041 -0.27749
 C413 C 0.87657 0.50686 -0.28811
 C414 C 0.89648 0.50356 -0.24441
 C415 C 0.84012 0.53906 -0.37687
 C416 C 0.90355 0.54666 -0.17683
 C417 C 0.88368 0.55007 -0.22113
 C418 C 0.85331 0.53564 -0.32905
 C419 C 0.91066 0.52379 -0.18924
 H420 H 0.86667 0.49162 -0.33175
 H421 H 0.90140 0.48565 -0.25500
 H422 H 0.91424 0.56258 -0.13474
 H423 H 0.87934 0.56852 -0.21275
 C424 C 0.46941 0.34010 -0.27819
 C425 C 0.49311 0.36963 -0.28834
 C426 C 0.49647 0.39280 -0.24439
 C427 C 0.46072 0.30111 -0.37792
 C428 C 0.45314 0.35682 -0.17748
 C429 C 0.44967 0.33358 -0.22203
 C430 C 0.46414 0.31769 -0.32997
 C431 C 0.47616 0.38676 -0.18944
 H432 H 0.50842 0.37497 -0.33180
 H433 H 0.51450 0.41561 -0.25463
 H434 H 0.43716 0.35160 -0.13556
 H435 H 0.43111 0.31082 -0.21401
 C436 C 0.65972 0.12929 -0.27579
 C437 C 0.63007 0.12315 -0.28657
 C438 C 0.60683 0.10320 -0.24308
 C439 C 0.69897 0.15989 -0.37464
 C440 C 0.64293 0.09629 -0.17541
 C441 C 0.66625 0.11621 -0.21949
 C442 C 0.68226 0.14661 -0.32708
 C443 C 0.61290 0.08909 -0.18797
 H444 H 0.62472 0.13301 -0.33016
 H445 H 0.58394 0.09820 -0.25378
 H446 H 0.64818 0.08566 -0.13336
 H447 H 0.68910 0.12064 -0.21099
 C448 C 1.13031 0.47023 -0.27684
 C449 C 1.12477 0.49414 -0.28634
 C450 C 1.10499 0.49752 -0.24234
 C451 C 1.16008 0.46134 -0.37737
 C452 C 1.09719 0.45383 -0.17653
 C453 C 1.11692 0.45034 -0.22116
 C454 C 1.14718 0.46485 -0.32904
 C455 C 1.09049 0.47702 -0.18800
 H456 H 1.13488 0.50957 -0.32945
 H457 H 1.10037 0.51569 -0.25215
 H458 H 1.08623 0.43771 -0.13508
 H459 H 1.12090 0.43161 -0.21369
 C460 C 0.53007 0.65975 -0.27493
 C461 C 0.54995 0.66626 -0.21905
 C462 C 0.54648 0.64304 -0.17473
 C463 C 0.53889 0.69852 -0.37471
 C464 C 0.50286 0.60712 -0.24130
 C465 C 0.50621 0.63027 -0.28498
 C466 C 0.53541 0.68204 -0.32673
 C467 C 0.52334 0.61314 -0.18673
 H468 H 0.56863 0.68899 -0.21115
 H469 H 0.56259 0.64822 -0.13310
 H470 H 0.48473 0.58433 -0.25150
 H471 H 0.49080 0.62496 -0.32826
 C472 C 0.33956 -0.13019 -0.27594
 C473 C 0.33302 -0.11677 -0.22019
 C474 C 0.35625 -0.09708 -0.17549
 C475 C 0.30093 -0.15992 -0.37656
 C476 C 0.39220 -0.10496 -0.24139
 C477 C 0.36905 -0.12470 -0.28545
 C478 C 0.31732 -0.14703 -0.32819
 C479 C 0.38617 -0.09044 -0.18697
 H480 H 0.31029 -0.12071 -0.21271
 H481 H 0.35106 -0.08610 -0.13399
 H482 H 0.41501 -0.10039 -0.25120
 H483 H 0.37439 -0.13484 -0.32861
 C484 C 0.53027 -0.13013 0.27422
 C485 C 0.55023 -0.11668 0.21859
 C486 C 0.54672 -0.09696 0.17420
 C487 C 0.53910 -0.16002 0.37418
 C488 C 0.50288 -0.10489 0.24015
 C489 C 0.50627 -0.12466 0.28391
 C490 C 0.53563 -0.14704 0.32613
 C491 C 0.52345 -0.09033 0.18587
 H492 H 0.56902 -0.12061 0.21097
 H493 H 0.56290 -0.08595 0.13279
 H494 H 0.48465 -0.10034 0.25010
 H495 H 0.49079 -0.13482 0.32698
 C496 C 0.33945 0.46936 0.27457
 C497 C 0.36890 0.49338 0.28410
 C498 C 0.39207 0.49679 0.24013
 C499 C 0.30072 0.46058 0.37478
 C500 C 0.35619 0.45292 0.17428
 C501 C 0.33295 0.44939 0.21889
 C502 C 0.31718 0.46402 0.32665
 C503 C 0.38609 0.47622 0.18579
 H504 H 0.37420 0.50887 0.32720
 H505 H 0.41486 0.51505 0.24995
 H506 H 0.35104 0.43674 0.13283
 H507 H 0.31024 0.43059 0.21138
 C508 C 1.12996 0.66055 0.27495
 C509 C 1.11650 0.66700 0.21926
 C510 C 1.09681 0.64377 0.17459
 C511 C 1.15985 0.69929 0.37524
 C512 C 1.10480 0.60799 0.24040
 C513 C 1.12453 0.63114 0.28444
 C514 C 1.14686 0.68282 0.32707
 C515 C 1.09023 0.61393 0.18603
 H516 H 1.12040 0.68967 0.21179
 H517 H 1.08580 0.64890 0.13312
 H518 H 1.10028 0.58524 0.25018
 H519 H 1.13471 0.62588 0.32755
 C520 C 0.46916 0.12866 0.27777
 C521 C 0.49273 0.12264 0.28838
 C522 C 0.49609 0.10280 0.24455
 C523 C 0.46053 0.15924 0.37692
 C524 C 0.45300 0.09577 0.17690
 C525 C 0.44954 0.11558 0.22132
 C526 C 0.46393 0.14594 0.32926
 C527 C 0.47591 0.08869 0.18926
 H528 H 0.50795 0.13250 0.33207
 H529 H 0.51403 0.09788 0.25511
 H530 H 0.43712 0.08514 0.13471
 H531 H 0.43107 0.11994 0.21293
 C532 C 0.65947 0.53069 0.27823
 C533 C 0.66608 0.55032 0.22197
 C534 C 0.64286 0.54678 0.17724
 C535 C 0.69848 0.53935 0.37786
 C536 C 0.60674 0.50361 0.24420
 C537 C 0.62988 0.50704 0.28833
 C538 C 0.68187 0.53595 0.33002
 C539 C 0.61286 0.52380 0.18911
 H540 H 0.68889 0.56884 0.21398
 H541 H 0.64815 0.56267 0.13523
 H542 H 0.58388 0.48561 0.25438
 H543 H 0.62448 0.49181 0.33185
 C544 C 0.87153 0.34083 0.27642
 C545 C 0.87734 0.37034 0.28668
 C546 C 0.89707 0.39347 0.24272
 C547 C 0.84126 0.30190 0.37594
 C548 C 0.90438 0.35749 0.17558
 C549 C 0.88469 0.33428 0.22015
 C550 C 0.85443 0.31846 0.32812
 C551 C 0.91127 0.38741 0.18763
 H552 H 0.86741 0.37570 0.33022
 H553 H 0.90183 0.41627 0.25303
 H554 H 0.91510 0.35225 0.13357
 H555 H 0.88051 0.31153 0.21204
   
