data_POSCAR
  _audit_creation_date              2014-09-24
  _audit_creation_method            'ToBaCCo'
  _symmetry_space_group_name_H-M    'P1'
  _symmetry_Int_Tables_number       1
  _symmetry_cell_setting            triclinic
  loop_
  _symmetry_equiv_pos_as_xyz
 x,y,z
_cell_length_a 44.6231
_cell_length_b 44.5703
_cell_length_c 24.0526
_cell_angle_alpha 89.945100
_cell_angle_beta 89.815000
_cell_angle_gamma 89.353400
loop_
  _atom_site_label
  _atom_site_type_symbol
  _atom_site_fract_x
  _atom_site_fract_y
  _atom_site_fract_z
C1 C -0.00120 0.26321 -0.02482
 C2 C -0.00072 0.26366 0.03191
 C3 C -0.02883 0.26483 0.06515
 C4 C 0.02785 0.26177 0.06328
 C5 C 0.02688 0.26467 -0.05804
 C6 C -0.02973 0.25966 -0.05554
 C7 C -0.05044 0.28734 0.05603
 C8 C -0.07772 0.28701 0.08468
 C9 C -0.08377 0.26470 0.12499
 C10 C -0.06175 0.24203 0.13327
 C11 C -0.03454 0.24243 0.10448
 C12 C 0.03477 0.28383 0.10249
 C13 C 0.06216 0.28294 0.13052
 C14 C 0.08300 0.25949 0.12076
 C15 C 0.07578 0.23744 0.08122
 C16 C 0.04836 0.23828 0.05355
 C17 C 0.03376 0.24197 -0.09643
 C18 C 0.06174 0.24105 -0.12267
 C19 C 0.08366 0.26257 -0.11034
 C20 C 0.07551 0.28680 -0.07567
 C21 C 0.04751 0.28773 -0.04954
 C22 C -0.04813 0.23498 -0.04510
 C23 C -0.07604 0.23283 -0.07068
 C24 C -0.08641 0.25558 -0.10679
 C25 C -0.06678 0.27909 -0.12026
 C26 C -0.03881 0.28120 -0.09462
 H27 H -0.04649 0.30477 0.02556
 H28 H -0.09428 0.30387 0.07369
 H29 H -0.06577 0.22335 0.16099
 H30 H -0.01833 0.22455 0.11140
 H31 H 0.01928 0.30226 0.11022
 H32 H 0.06703 0.30120 0.15836
 H33 H 0.04332 0.22084 0.02380
 H34 H 0.01786 0.22435 -0.10465
 H35 H 0.06615 0.22320 -0.15206
 H36 H 0.09095 0.30484 -0.06786
 H37 H 0.04220 0.30605 -0.02149
 H38 H -0.04096 0.21752 -0.01658
 H39 H -0.08925 0.21319 -0.06206
 H40 H -0.07319 0.29610 -0.15022
 H41 H -0.02455 0.30003 -0.10422
 H42 H 0.09156 0.21961 0.07124
 C43 C 0.49958 0.76731 0.47498
 C44 C 0.50050 0.76687 0.53166
 C45 C 0.47262 0.76804 0.56535
 C46 C 0.52938 0.76353 0.56159
 C47 C 0.52745 0.76855 0.44135
 C48 C 0.47085 0.76535 0.44420
 C49 C 0.45149 0.79119 0.55768
 C50 C 0.42333 0.78965 0.58292
 C51 C 0.41555 0.76472 0.61575
 C52 C 0.43795 0.74308 0.62751
 C53 C 0.46612 0.74465 0.60224
 C54 C 0.53868 0.78568 0.59879
 C55 C 0.56716 0.78394 0.62282
 C56 C 0.58703 0.76016 0.60955
 C57 C 0.57647 0.73682 0.57560
 C58 C 0.54809 0.73864 0.55154
 C59 C 0.53410 0.74556 0.40348
 C60 C 0.56149 0.74504 0.37531
 C61 C 0.58253 0.76799 0.38311
 C62 C 0.57557 0.79108 0.42117
 C63 C 0.54816 0.79156 0.44933
 C64 C 0.45099 0.74180 0.45435
 C65 C 0.42343 0.74089 0.42722
 C66 C 0.41545 0.76288 0.38767
 C67 C 0.43559 0.78646 0.37764
 C68 C 0.46311 0.78744 0.40518
 H69 H 0.45645 0.80992 0.53057
 H70 H 0.40733 0.80763 0.57549
 H71 H 0.43386 0.72466 0.65564
 H72 H 0.48242 0.72692 0.60968
 H73 H 0.52422 0.80473 0.60801
 H74 H 0.57366 0.80140 0.65142
 H75 H 0.54083 0.72079 0.52436
 H76 H 0.51855 0.72737 0.39742
 H77 H 0.56650 0.72615 0.34847
 H78 H 0.59153 0.80834 0.43089
 H79 H 0.54344 0.80943 0.47866
 H80 H 0.45665 0.72434 0.48398
 H81 H 0.40818 0.72298 0.43750
 H82 H 0.43008 0.80472 0.34987
 H83 H 0.47806 0.80594 0.39718
 H84 H 0.59001 0.71705 0.56735
 C85 C 1.00077 0.73787 -0.02642
 C86 C 1.00003 0.73798 0.03028
 C87 C 1.02814 0.73771 0.06314
 C88 C 0.97138 0.73956 0.06172
 C89 C 0.97305 0.73575 -0.06009
 C90 C 1.02950 0.74096 -0.05702
 C91 C 1.04957 0.71478 0.05602
 C92 C 1.07739 0.71652 0.08215
 C93 C 1.08458 0.74147 0.11526
 C94 C 1.06197 0.76310 0.12584
 C95 C 1.03412 0.76130 0.09975
 C96 C 0.96506 0.71795 0.10231
 C97 C 0.93763 0.71847 0.13054
 C98 C 0.91610 0.74109 0.11951
 C99 C 0.92276 0.76276 0.07876
 C100 C 0.95022 0.76229 0.05086
 C101 C 0.96632 0.75807 -0.09928
 C102 C 0.93924 0.75766 -0.12816
 C103 C 0.91858 0.73439 -0.11982
 C104 C 0.92559 0.71196 -0.08041
 C105 C 0.95270 0.71242 -0.05151
 C106 C 1.04750 0.76611 -0.04875
 C107 C 1.07564 0.76785 -0.07394
 C108 C 1.08684 0.74409 -0.10714
 C109 C 1.06739 0.72010 -0.11884
 C110 C 1.03919 0.71845 -0.09362
 H111 H 1.04499 0.69591 0.02914
 H112 H 1.09355 0.69859 0.07546
 H113 H 1.06558 0.78159 0.15394
 H114 H 1.01755 0.77885 0.10675
 H115 H 0.98108 0.70013 0.11101
 H116 H 0.93332 0.70054 0.15953
 H117 H 0.95479 0.77942 0.02013
 H118 H 0.98156 0.77648 -0.10596
 H119 H 0.93417 0.77608 -0.15605
 H120 H 0.90988 0.69449 -0.07033
 H121 H 0.95747 0.69500 -0.02130
 H122 H 1.03982 0.78429 -0.02226
 H123 H 1.08845 0.78797 -0.06720
 H124 H 1.07389 0.70240 -0.14734
 H125 H 1.02517 0.69927 -0.10171
 H126 H 0.90649 0.78000 0.06802
 C127 C 0.50014 0.23281 0.47148
 C128 C 0.49999 0.23311 0.52822
 C129 C 0.52824 0.23534 0.56028
 C130 C 0.47144 0.23261 0.56023
 C131 C 0.47194 0.23567 0.43927
 C132 C 0.52851 0.23077 0.43918
 C133 C 0.53555 0.21350 0.60001
 C134 C 0.56305 0.21431 0.62765
 C135 C 0.58359 0.23745 0.61690
 C136 C 0.57586 0.25941 0.57715
 C137 C 0.54835 0.25865 0.54987
 C138 C 0.45022 0.21017 0.55099
 C139 C 0.42192 0.21205 0.57583
 C140 C 0.41407 0.23660 0.60997
 C141 C 0.43648 0.25748 0.62305
 C142 C 0.46476 0.25562 0.59807
 C143 C 0.45228 0.25995 0.44820
 C144 C 0.42480 0.26137 0.42084
 C145 C 0.41671 0.23909 0.38236
 C146 C 0.43677 0.21490 0.37324
 C147 C 0.46423 0.21344 0.40095
 C148 C 0.53546 0.25322 0.40063
 C149 C 0.56309 0.25291 0.37321
 C150 C 0.58411 0.22960 0.38238
 C151 C 0.57687 0.20704 0.42113
 C152 C 0.54922 0.20742 0.44860
 H153 H 0.52037 0.19521 0.60824
 H154 H 0.56823 0.19616 0.65585
 H155 H 0.59135 0.27707 0.56660
 H156 H 0.54300 0.27591 0.51965
 H157 H 0.45533 0.19163 0.52334
 H158 H 0.40604 0.19446 0.56751
 H159 H 0.48109 0.27276 0.60684
 H160 H 0.45793 0.27746 0.47742
 H161 H 0.40959 0.27974 0.43051
 H162 H 0.43114 0.19645 0.34632
 H163 H 0.47905 0.19438 0.39397
 H164 H 0.51994 0.27166 0.39335
 H165 H 0.56826 0.27140 0.34576
 H166 H 0.59276 0.18952 0.43185
 H167 H 0.54428 0.18990 0.47839
 H168 H 0.43223 0.27553 0.65210
 C169 C 0.73816 -0.00263 -0.03150
 C170 C 0.73880 -0.00231 0.02518
 C171 C 0.73695 -0.03038 0.05835
 C172 C 0.74235 0.02618 0.05610
 C173 C 0.73648 0.02565 -0.06419
 C174 C 0.74024 -0.03112 -0.06319
 C175 C 0.71366 -0.05071 0.04986
 C176 C 0.71328 -0.07806 0.07825
 C177 C 0.73568 -0.08539 0.11757
 C178 C 0.75909 -0.06474 0.12536
 C179 C 0.75941 -0.03743 0.09685
 C180 C 0.72092 0.03512 0.09554
 C181 C 0.72291 0.06315 0.12114
 C182 C 0.74617 0.08297 0.10723
 C183 C 0.76884 0.07277 0.07072
 C184 C 0.76683 0.04476 0.04525
 C185 C 0.75881 0.03210 -0.10326
 C186 C 0.75877 0.05961 -0.13108
 C187 C 0.73574 0.08111 -0.12203
 C188 C 0.71349 0.07438 -0.08212
 C189 C 0.71361 0.04682 -0.05438
 C190 C 0.76382 -0.05149 -0.05368
 C191 C 0.76491 -0.07887 -0.08164
 C192 C 0.74304 -0.08625 -0.12153
 C193 C 0.71927 -0.06556 -0.13042
 C194 C 0.71821 -0.03819 -0.10217
 H195 H 0.69615 -0.04573 0.02006
 H196 H 0.69582 -0.09364 0.06772
 H197 H 0.77773 -0.06991 0.15255
 H198 H 0.77786 -0.02225 0.10332
 H199 H 0.70223 0.02074 0.10539
 H200 H 0.70595 0.06952 0.15131
 H201 H 0.78421 0.03769 0.01642
 H202 H 0.77697 0.01625 -0.11066
 H203 H 0.77735 0.06426 -0.15868
 H204 H 0.69635 0.09057 -0.07067
 H205 H 0.69625 0.04232 -0.02402
 H206 H 0.78114 -0.04638 -0.02383
 H207 H 0.78284 -0.09448 -0.07143
 H208 H 0.70081 -0.07050 -0.15769
 H209 H 0.69961 -0.02286 -0.10945
 H210 H 0.78831 0.08612 0.06171
 C211 C 0.23501 0.50147 0.47339
 C212 C 0.23413 0.50283 0.53004
 C213 C 0.23287 0.47513 0.56408
 C214 C 0.23630 0.53189 0.55982
 C215 C 0.23479 0.52916 0.43925
 C216 C 0.23794 0.47237 0.44376
 C217 C 0.21004 0.45424 0.55604
 C218 C 0.21157 0.42617 0.58174
 C219 C 0.23624 0.41822 0.61530
 C220 C 0.25750 0.44044 0.62739
 C221 C 0.25592 0.46853 0.60170
 C222 C 0.21319 0.54149 0.59533
 C223 C 0.21415 0.56987 0.62005
 C224 C 0.23815 0.58938 0.60923
 C225 C 0.26230 0.57856 0.57676
 C226 C 0.26124 0.55029 0.55195
 C227 C 0.25890 0.53517 0.40369
 C228 C 0.26101 0.56300 0.37732
 C229 C 0.23913 0.58553 0.38655
 C230 C 0.21366 0.57825 0.41836
 C231 C 0.21162 0.55046 0.44479
 C232 C 0.26235 0.45313 0.45426
 C233 C 0.26397 0.42483 0.42956
 C234 C 0.24094 0.41488 0.39431
 C235 C 0.21763 0.43523 0.38091
 C236 C 0.21606 0.46360 0.40564
 H237 H 0.19157 0.45931 0.52834
 H238 H 0.19382 0.41037 0.57409
 H239 H 0.27566 0.43621 0.65605
 H240 H 0.27339 0.48466 0.60939
 H241 H 0.19409 0.52725 0.60295
 H242 H 0.19603 0.57641 0.64758
 H243 H 0.27979 0.54281 0.52612
 H244 H 0.27669 0.51870 0.39799
 H245 H 0.27996 0.56664 0.35023
 H246 H 0.19563 0.59442 0.42408
 H247 H 0.19240 0.54586 0.47094
 H248 H 0.28004 0.45999 0.48207
 H249 H 0.28345 0.41098 0.43810
 H250 H 0.20039 0.42912 0.35160
 H251 H 0.19741 0.47846 0.39604
 H252 H 0.28209 0.59192 0.57028
 C253 C 0.26408 1.00266 -0.02851
 C254 C 0.26404 1.00188 0.02817
 C255 C 0.26545 1.02980 0.06175
 C256 C 0.26125 0.97312 0.05863
 C257 C 0.26543 0.97470 -0.06210
 C258 C 0.26140 1.03149 -0.05892
 C259 C 0.28847 1.05050 0.05337
 C260 C 0.28826 1.07787 0.08163
 C261 C 0.26553 1.08489 0.12071
 C262 C 0.24240 1.06386 0.12843
 C263 C 0.24267 1.03653 0.10005
 C264 C 0.28345 0.96401 0.09622
 C265 C 0.28208 0.93578 0.12140
 C266 C 0.25866 0.91595 0.10888
 C267 C 0.23527 0.92633 0.07436
 C268 C 0.23669 0.95448 0.04919
 C269 C 0.24260 0.96852 -0.10003
 C270 C 0.24219 0.94114 -0.12823
 C271 C 0.26524 0.91951 -0.12073
 C272 C 0.28804 0.92600 -0.08205
 C273 C 0.28837 0.95341 -0.05394
 C274 C 0.23678 1.05062 -0.04957
 C275 C 0.23540 1.07881 -0.07469
 C276 C 0.25904 1.08894 -0.10886
 C277 C 0.28245 1.06842 -0.12157
 C278 C 0.28371 1.04014 -0.09648
 H279 H 0.30618 1.04579 0.02364
 H280 H 0.30554 1.09372 0.07115
 H281 H 0.22352 1.06876 0.15541
 H282 H 0.22440 1.02108 0.10636
 H283 H 0.30220 0.97846 0.10501
 H284 H 0.29953 0.92944 0.15039
 H285 H 0.21878 0.96165 0.02178
 H286 H 0.22437 0.98443 -0.10613
 H287 H 0.22325 0.93670 -0.15485
 H288 H 0.30527 0.90970 -0.07176
 H289 H 0.30612 0.95769 -0.02447
 H290 H 0.21873 1.04377 -0.02232
 H291 H 0.21565 1.09252 -0.06714
 H292 H 0.29996 1.07412 -0.15081
 H293 H 0.30246 1.02524 -0.10539
 H294 H 0.21573 0.91285 0.06666
 C295 C 0.76114 0.49797 0.47045
 C296 C 0.76265 0.49767 0.52709
 C297 C 0.76479 0.52582 0.55949
 C298 C 0.76079 0.46915 0.55871
 C299 C 0.76088 0.46959 0.43843
 C300 C 0.75883 0.52642 0.43842
 C301 C 0.78748 0.54652 0.54840
 C302 C 0.78683 0.57474 0.57350
 C303 C 0.76323 0.58299 0.60962
 C304 C 0.74227 0.56097 0.62468
 C305 C 0.74292 0.53277 0.59948
 C306 C 0.78472 0.45968 0.59218
 C307 C 0.78420 0.43153 0.61789
 C308 C 0.75979 0.41215 0.61012
 C309 C 0.73488 0.42293 0.57993
 C310 C 0.73551 0.45096 0.55406
 C311 C 0.73634 0.46290 0.40469
 C312 C 0.73420 0.43476 0.37961
 C313 C 0.75653 0.41261 0.38827
 C314 C 0.78219 0.42043 0.41874
 C315 C 0.78426 0.44853 0.44382
 C316 C 0.73605 0.54747 0.44988
 C317 C 0.73527 0.57500 0.42214
 C318 C 0.75668 0.58185 0.38098
 C319 C 0.77928 0.56036 0.36925
 C320 C 0.78010 0.53286 0.39728
 H321 H 0.80518 0.54112 0.51903
 H322 H 0.80452 0.59030 0.56366
 H323 H 0.72502 0.56552 0.65528
 H324 H 0.72564 0.51677 0.60964
 H325 H 0.80412 0.47379 0.59725
 H326 H 0.80298 0.42511 0.64372
 H327 H 0.71643 0.45834 0.52969
 H328 H 0.71837 0.47917 0.39919
 H329 H 0.71498 0.43070 0.35369
 H330 H 0.80043 0.40448 0.42415
 H331 H 0.80377 0.45364 0.46861
 H332 H 0.71923 0.54283 0.48119
 H333 H 0.71806 0.59121 0.43344
 H334 H 0.79704 0.56479 0.33994
 H335 H 0.79798 0.51696 0.38817
 H336 H 0.71492 0.40957 0.57576
 O337 O 0.24353 0.20227 0.26322
 O338 O 0.23643 0.27834 0.32126
 O339 O 0.20215 0.24392 0.26176
 O340 O 0.27773 0.23705 0.32149
 O341 O 0.29698 0.25554 0.24418
 O342 O 0.22147 0.26264 0.18475
 O343 O 0.25595 0.29715 0.24447
 O344 O 0.26275 0.22091 0.18605
 Cu345 Cu 0.23793 0.23853 0.29959
 Cu346 Cu 0.26111 0.26098 0.20704
 C347 C 0.25443 0.19856 0.21484
 C348 C 0.24544 0.30067 0.29324
 C349 C 0.19894 0.25427 0.21289
 C350 C 0.30024 0.24525 0.29305
 O351 O 0.76098 0.72098 0.31923
 O352 O 0.75522 0.79714 0.26096
 O353 O 0.71994 0.76288 0.31791
 O354 O 0.79612 0.75521 0.26022
 O355 O 0.77740 0.73696 0.18259
 O356 O 0.70138 0.74421 0.24046
 O357 O 0.73640 0.77873 0.18352
 O358 O 0.74257 0.70241 0.24162
 Cu359 Cu 0.76000 0.76081 0.29740
 Cu360 Cu 0.73763 0.73862 0.20429
 C361 C 0.75258 0.69870 0.29058
 C362 C 0.74473 0.80097 0.21242
 C363 C 0.69765 0.75499 0.28886
 C364 C 0.79971 0.74515 0.21122
 O365 O 0.79860 0.24104 0.26547
 O366 O 0.72195 0.23159 0.31928
 O367 O 0.75906 0.19876 0.26075
 O368 O 0.76164 0.27363 0.32453
 O369 O 0.74362 0.29365 0.24737
 O370 O 0.74075 0.21882 0.18387
 O371 O 0.70378 0.25164 0.24229
 O372 O 0.78036 0.26095 0.18845
 Cu373 Cu 0.76214 0.23423 0.30026
 Cu374 Cu 0.74028 0.25827 0.20777
 C375 C 0.80259 0.25254 0.21767
 C376 C 0.69978 0.24012 0.29002
 C377 C 0.74956 0.19605 0.21132
 C378 C 0.75301 0.29640 0.29687
 O379 O 0.26312 0.77975 0.18474
 O380 O 0.25650 0.70446 0.24597
 O381 O 0.22278 0.73852 0.18339
 O382 O 0.29737 0.74562 0.24593
 O383 O 0.27698 0.76558 0.32125
 O384 O 0.20213 0.75792 0.25898
 O385 O 0.23640 0.72436 0.32160
 O386 O 0.24229 0.79951 0.25984
 Cu387 Cu 0.26203 0.74006 0.20749
 Cu388 Cu 0.23740 0.76382 0.29803
 C389 C 0.25348 0.80243 0.21156
 C390 C 0.24557 0.70161 0.29449
 C391 C 0.19974 0.74727 0.21022
 C392 C 0.29994 0.75669 0.29428
 O393 O 0.75660 0.19889 0.73737
 O394 O 0.76398 0.27512 0.68090
 O395 O 0.79784 0.23957 0.74078
 O396 O 0.72265 0.23456 0.67886
 O397 O 0.70270 0.25260 0.75623
 O398 O 0.77778 0.25884 0.81699
 O399 O 0.74322 0.29383 0.75696
 O400 O 0.73710 0.21747 0.81465
 Cu401 Cu 0.76234 0.23521 0.70178
 Cu402 Cu 0.73830 0.25761 0.79398
 C403 C 0.74563 0.19513 0.78562
 C404 C 0.75438 0.29744 0.70878
 C405 C 0.80058 0.24993 0.78966
 C406 C 0.69985 0.24268 0.70710
 O407 O 0.29633 0.74845 0.75482
 O408 O 0.22142 0.74209 0.81731
 O409 O 0.25571 0.70731 0.75621
 O410 O 0.26229 0.78340 0.81466
 O411 O 0.24250 0.80242 0.73816
 O412 O 0.23485 0.72641 0.68076
 O413 O 0.20119 0.76174 0.74176
 O414 O 0.27613 0.76700 0.67826
 Cu415 Cu 0.26086 0.74337 0.79347
 Cu416 Cu 0.23657 0.76628 0.70214
 C417 C 0.29901 0.75862 0.70576
 C418 C 0.19855 0.75109 0.79052
 C419 C 0.24441 0.70393 0.70822
 C420 C 0.25372 0.80591 0.78615
 O421 O 0.25499 0.29878 0.75425
 O422 O 0.26251 0.22346 0.81553
 O423 O 0.29611 0.25691 0.75266
 O424 O 0.22176 0.26530 0.81779
 O425 O 0.20082 0.24601 0.74306
 O426 O 0.27529 0.23703 0.67835
 O427 O 0.24126 0.20390 0.74134
 O428 O 0.23450 0.27912 0.67942
 Cu429 Cu 0.26097 0.26311 0.79249
 Cu430 Cu 0.23590 0.23958 0.70299
 C431 C 0.24367 0.30177 0.70616
 C432 C 0.25279 0.20088 0.78924
 C433 C 0.29840 0.24561 0.70436
 C434 C 0.19863 0.25682 0.79178
 O435 O 0.74750 0.70167 0.75123
 O436 O 0.74032 0.77676 0.81356
 O437 O 0.70572 0.74251 0.75416
 O438 O 0.78183 0.73536 0.81145
 O439 O 0.80041 0.75525 0.73480
 O440 O 0.72423 0.76279 0.67782
 O441 O 0.75896 0.79673 0.73703
 O442 O 0.76586 0.72182 0.67462
 Cu443 Cu 0.74197 0.73711 0.79037
 Cu444 Cu 0.76423 0.76122 0.69843
 C445 C 0.75769 0.69898 0.70209
 C446 C 0.74860 0.79955 0.78598
 C447 C 0.70201 0.75358 0.70596
 C448 C 0.80411 0.74403 0.78290
 C449 C 0.26360 0.11411 0.14688
 C450 C 0.29340 0.13115 0.15369
 C451 C 0.29013 0.15902 0.17622
 C452 C 0.25762 0.16748 0.19092
 C453 C 0.24004 0.16340 0.13685
 C454 C 0.24316 0.13567 0.11390
 C455 C 0.25048 0.11410 0.20643
 C456 C 0.24712 0.14192 0.22911
 H457 H 0.31547 0.12157 0.14590
 H458 H 0.30917 0.17305 0.18578
 H459 H 0.22619 0.18087 0.11820
 H460 H 0.23203 0.12960 0.07549
 H461 H 0.24563 0.09397 0.23007
 H462 H 0.23895 0.14515 0.27125
 C463 C 0.76127 0.61461 0.63337
 C464 C 0.72951 0.62547 0.65009
 C465 C 0.72865 0.65342 0.67272
 C466 C 0.75939 0.66837 0.67620
 C467 C 0.77927 0.64614 0.70847
 C468 C 0.78023 0.61811 0.68613
 C469 C 0.77225 0.63946 0.59372
 C470 C 0.77148 0.66746 0.61622
 H471 H 0.70910 0.61336 0.64153
 H472 H 0.70776 0.66451 0.68432
 H473 H 0.79167 0.65201 0.74559
 H474 H 0.79342 0.60000 0.70428
 H475 H 0.77870 0.63574 0.55072
 H476 H 0.77780 0.68715 0.59253
 C477 C 0.73702 0.88542 0.14393
 C478 C 0.70698 0.86872 0.15033
 C479 C 0.70976 0.84083 0.17309
 C480 C 0.74206 0.83205 0.18837
 C481 C 0.76015 0.83589 0.13460
 C482 C 0.75751 0.86362 0.11144
 C483 C 0.74964 0.88534 0.20371
 C484 C 0.75251 0.85752 0.22661
 H485 H 0.68508 0.87854 0.14219
 H486 H 0.69049 0.82704 0.18252
 H487 H 0.77398 0.81827 0.11631
 H488 H 0.76905 0.86955 0.07321
 H489 H 0.75452 0.90545 0.22729
 H490 H 0.76029 0.85422 0.26891
 C491 C 0.23897 0.38657 0.63889
 C492 C 0.27084 0.37622 0.65570
 C493 C 0.27210 0.34812 0.67777
 C494 C 0.24164 0.33254 0.68076
 C495 C 0.22119 0.35420 0.71329
 C496 C 0.21979 0.38236 0.69143
 C497 C 0.22870 0.36175 0.59873
 C498 C 0.22987 0.33362 0.62071
 H499 H 0.29110 0.38866 0.64744
 H500 H 0.29312 0.33737 0.68935
 H501 H 0.20873 0.34787 0.75025
 H502 H 0.20619 0.40010 0.70987
 H503 H 0.22229 0.36570 0.55582
 H504 H 0.22402 0.31396 0.59664
 C505 C 0.88693 0.26244 0.15120
 C506 C 0.88728 0.24992 0.20774
 C507 C 0.85804 0.24617 0.23130
 C508 C 0.83384 0.25609 0.19445
 C509 C 0.84080 0.28717 0.18085
 C510 C 0.87011 0.29080 0.15744
 C511 C 0.86738 0.24282 0.11923
 C512 C 0.83828 0.23931 0.14303
 H513 H 0.90737 0.24682 0.23255
 H514 H 0.85487 0.23918 0.27415
 H515 H 0.82670 0.30618 0.19254
 H516 H 0.87976 0.31292 0.15289
 H517 H 0.87400 0.23171 0.08082
 H518 H 0.82135 0.22526 0.12425
 C519 C 0.38388 0.76225 0.63906
 C520 C 0.37394 0.73054 0.65677
 C521 C 0.34579 0.72964 0.67854
 C522 C 0.32976 0.76027 0.68036
 C523 C 0.35094 0.78082 0.71246
 C524 C 0.37913 0.78185 0.69092
 C525 C 0.35911 0.77245 0.59830
 C526 C 0.33091 0.77162 0.61997
 H527 H 0.38664 0.71008 0.64913
 H528 H 0.33525 0.70874 0.69042
 H529 H 0.34427 0.79360 0.74895
 H530 H 0.39656 0.79546 0.70915
 H531 H 0.36321 0.77873 0.55536
 H532 H 0.31130 0.77756 0.59559
 C533 C 0.11583 0.74390 0.14016
 C534 C 0.12548 0.77554 0.15864
 C535 C 0.15328 0.77634 0.18166
 C536 C 0.16928 0.74571 0.18391
 C537 C 0.14759 0.72506 0.21490
 C538 C 0.11975 0.72411 0.19206
 C539 C 0.14124 0.73386 0.10043
 C540 C 0.16906 0.73457 0.12335
 H541 H 0.11291 0.79604 0.15070
 H542 H 0.16362 0.79720 0.19425
 H543 H 0.15367 0.71215 0.25155
 H544 H 0.10202 0.71044 0.20939
 H545 H 0.13785 0.72781 0.05722
 H546 H 0.18904 0.72874 0.09970
 C547 C 0.61459 0.23820 0.64326
 C548 C 0.62379 0.26971 0.66279
 C549 C 0.65220 0.27107 0.68290
 C550 C 0.66895 0.24079 0.68275
 C551 C 0.64845 0.21953 0.71512
 C552 C 0.62002 0.21822 0.69491
 C553 C 0.63917 0.22862 0.60170
 C554 C 0.66750 0.22994 0.62218
 H555 H 0.60902 0.28922 0.66188
 H556 H 0.66171 0.29175 0.69842
 H557 H 0.65535 0.20746 0.75226
 H558 H 0.60296 0.20564 0.71656
 H559 H 0.63459 0.22132 0.55955
 H560 H 0.68697 0.22382 0.59734
 C561 C 0.73733 0.11044 0.85229
 C562 C 0.70738 0.12800 0.84644
 C563 C 0.71033 0.15597 0.82434
 C564 C 0.74270 0.16399 0.80911
 C565 C 0.76064 0.15928 0.86272
 C566 C 0.75784 0.13146 0.88522
 C567 C 0.75007 0.11059 0.79245
 C568 C 0.75311 0.13849 0.77023
 H569 H 0.68544 0.11873 0.85467
 H570 H 0.69115 0.17038 0.81551
 H571 H 0.77444 0.17642 0.88144
 H572 H 0.76924 0.12497 0.92329
 H573 H 0.75481 0.09054 0.76827
 H574 H 0.76093 0.14184 0.72792
 C575 C 0.24190 0.61696 0.36224
 C576 C 0.27351 0.62652 0.34322
 C577 C 0.27444 0.65459 0.32102
 C578 C 0.24396 0.67088 0.32001
 C579 C 0.22300 0.64969 0.28890
 C580 C 0.22191 0.62160 0.31095
 C581 C 0.23230 0.64205 0.40293
 C582 C 0.23315 0.67013 0.38081
 H583 H 0.29394 0.61373 0.35025
 H584 H 0.29529 0.66487 0.30816
 H585 H 0.21000 0.65628 0.25272
 H586 H 0.20804 0.60415 0.29343
 H587 H 0.22634 0.63821 0.44614
 H588 H 0.22758 0.68992 0.40515
 C589 C 0.26318 0.89029 0.85336
 C590 C 0.29296 0.87258 0.84582
 C591 C 0.28959 0.84473 0.82357
 C592 C 0.25703 0.83695 0.80986
 C593 C 0.23970 0.84152 0.86440
 C594 C 0.24292 0.86923 0.88706
 C595 C 0.24978 0.89046 0.79418
 C596 C 0.24633 0.86268 0.77180
 H597 H 0.31504 0.88168 0.85301
 H598 H 0.30859 0.83025 0.81362
 H599 H 0.22599 0.82439 0.88360
 H600 H 0.23198 0.87562 0.92576
 H601 H 0.24485 0.91066 0.77050
 H602 H 0.23799 0.85956 0.72989
 C603 C 0.75432 0.38112 0.36425
 C604 C 0.72316 0.37108 0.34401
 C605 C 0.72298 0.34294 0.32207
 C606 C 0.75368 0.32710 0.32249
 C607 C 0.77482 0.34853 0.29207
 C608 C 0.77515 0.37667 0.31383
 C609 C 0.76366 0.35624 0.40557
 C610 C 0.76354 0.32810 0.38370
 H611 H 0.70243 0.38354 0.35005
 H612 H 0.70248 0.33230 0.30852
 H613 H 0.78846 0.34208 0.25648
 H614 H 0.78901 0.39428 0.29664
 H615 H 0.76905 0.36030 0.44888
 H616 H 0.76909 0.30842 0.40838
 C617 C 0.11502 0.26059 0.86443
 C618 C 0.14019 0.27237 0.90221
 C619 C 0.16791 0.27158 0.87841
 C620 C 0.16828 0.25867 0.81908
 C621 C 0.15369 0.22781 0.82497
 C622 C 0.12603 0.22869 0.84889
 C623 C 0.11773 0.27888 0.81049
 C624 C 0.14549 0.27790 0.78685
 H625 H 0.13688 0.27946 0.94497
 H626 H 0.18777 0.27848 0.90073
 H627 H 0.16485 0.20685 0.81400
 H628 H 0.11428 0.20825 0.85915
 H629 H 0.09931 0.29166 0.79249
 H630 H 0.15079 0.28987 0.74880
 C631 C 0.61333 0.76550 0.35598
 C632 C 0.61326 0.75256 0.29653
 C633 C 0.64106 0.74878 0.27398
 C634 C 0.66661 0.75864 0.31246
 C635 C 0.65875 0.79128 0.32735
 C636 C 0.63090 0.79498 0.34978
 C637 C 0.63422 0.74448 0.38905
 C638 C 0.66196 0.74088 0.36636
 H639 H 0.59309 0.74792 0.27312
 H640 H 0.64432 0.74053 0.23193
 H641 H 0.67324 0.81009 0.31829
 H642 H 0.62176 0.81715 0.35827
 H643 H 0.62767 0.73333 0.42730
 H644 H 0.67904 0.72659 0.38506
 C645 C 0.88802 0.73589 0.85215
 C646 C 0.87117 0.70596 0.84662
 C647 C 0.84348 0.70881 0.82338
 C648 C 0.83504 0.74113 0.80712
 C649 C 0.83875 0.75950 0.86048
 C650 C 0.86632 0.75675 0.88393
 C651 C 0.88840 0.74827 0.79222
 C652 C 0.86076 0.75121 0.76888
 H653 H 0.88070 0.68410 0.85631
 H654 H 0.82950 0.68959 0.81477
 H655 H 0.82118 0.77359 0.87826
 H656 H 0.87222 0.76843 0.92189
 H657 H 0.90870 0.75312 0.76907
 H658 H 0.85774 0.75893 0.72644
 C659 C 0.38568 0.24029 0.35624
 C660 C 0.37574 0.27195 0.33748
 C661 C 0.34726 0.27345 0.31754
 C662 C 0.33123 0.24315 0.31705
 C663 C 0.35218 0.22217 0.28406
 C664 C 0.38066 0.22075 0.30412
 C665 C 0.36140 0.23037 0.39768
 C666 C 0.33302 0.23183 0.37736
 H667 H 0.39009 0.29144 0.33845
 H668 H 0.33729 0.29422 0.30238
 H669 H 0.34552 0.21043 0.24661
 H670 H 0.39808 0.20843 0.28214
 H671 H 0.36621 0.22276 0.43964
 H672 H 0.31374 0.22549 0.40216
 C673 C 0.74401 0.88452 0.85241
 C674 C 0.77573 0.87429 0.83409
 C675 C 0.77705 0.84596 0.81319
 C676 C 0.74659 0.83034 0.81112
 C677 C 0.73464 0.83168 0.87106
 C678 C 0.73331 0.85988 0.89248
 C679 C 0.72506 0.88024 0.79923
 C680 C 0.72629 0.85190 0.77821
 H681 H 0.79539 0.88839 0.83576
 H682 H 0.79779 0.83589 0.79806
 H683 H 0.72774 0.81222 0.89483
 H684 H 0.72524 0.86430 0.93437
 H685 H 0.71360 0.89805 0.77680
 H686 H 0.71511 0.84581 0.73988
 C687 C 0.24203 0.38373 0.36804
 C688 C 0.21119 0.36886 0.36095
 C689 C 0.21237 0.34164 0.33522
 C690 C 0.24421 0.33134 0.31939
 C691 C 0.25675 0.35701 0.28379
 C692 C 0.25558 0.38427 0.30923
 C693 C 0.26057 0.35978 0.39969
 C694 C 0.26190 0.33264 0.37394
 H695 H 0.19029 0.37836 0.37645
 H696 H 0.19252 0.32834 0.32808
 H697 H 0.26579 0.35414 0.24216
 H698 H 0.26363 0.40451 0.28926
 H699 H 0.27020 0.36291 0.44058
 H700 H 0.27337 0.31341 0.39217
 C701 C 0.25787 0.11835 0.86571
 C702 C 0.28859 0.13295 0.85438
 C703 C 0.28677 0.15999 0.82813
 C704 C 0.25456 0.17049 0.81619
 C705 C 0.24057 0.14477 0.78294
 C706 C 0.24231 0.11767 0.80879
 C707 C 0.24076 0.14276 0.89919
 C708 C 0.23877 0.16974 0.87294
 H709 H 0.30992 0.12377 0.86830
 H710 H 0.30642 0.17324 0.81870
 H711 H 0.23013 0.14751 0.74253
 H712 H 0.23336 0.09745 0.79028
 H713 H 0.23257 0.13996 0.94138
 H714 H 0.22818 0.18921 0.89212
 C715 C 0.75615 0.61293 0.35434
 C716 C 0.72463 0.62352 0.33634
 C717 C 0.72358 0.65204 0.31605
 C718 C 0.75414 0.66752 0.31461
 C719 C 0.76574 0.66549 0.37466
 C720 C 0.76676 0.63707 0.39522
 C721 C 0.77551 0.61759 0.30166
 C722 C 0.77453 0.64613 0.28133
 H723 H 0.70486 0.60959 0.33838
 H724 H 0.70294 0.66245 0.30147
 H725 H 0.77263 0.68465 0.39911
 H726 H 0.77455 0.63213 0.43700
 H727 H 0.78745 0.60000 0.27949
 H728 H 0.78622 0.65256 0.24357
 C729 C 0.11621 0.74558 0.86737
 C730 C 0.13980 0.76365 0.89988
 C731 C 0.16671 0.76580 0.87352
 C732 C 0.16822 0.74924 0.81765
 C733 C 0.15906 0.71698 0.83139
 C734 C 0.13211 0.71499 0.85776
 C735 C 0.11497 0.76034 0.80960
 C736 C 0.14200 0.76226 0.78365
 H737 H 0.13661 0.77234 0.94163
 H738 H 0.18569 0.77699 0.89215
 H739 H 0.17312 0.69745 0.82304
 H740 H 0.12384 0.69366 0.87286
 H741 H 0.09443 0.76864 0.79061
 H742 H 0.14436 0.77220 0.74268
 C743 C 0.61510 0.23123 0.35581
 C744 C 0.63558 0.25244 0.38822
 C745 C 0.66342 0.25539 0.36593
 C746 C 0.66860 0.23686 0.31301
 C747 C 0.66099 0.20452 0.32938
 C748 C 0.63303 0.20146 0.35148
 C749 C 0.61527 0.24334 0.29571
 C750 C 0.64317 0.24649 0.27354
 H751 H 0.62869 0.26417 0.42577
 H752 H 0.68023 0.26971 0.38429
 H753 H 0.67574 0.18543 0.32163
 H754 H 0.62409 0.17953 0.36105
 H755 H 0.59519 0.24789 0.27165
 H756 H 0.64659 0.25407 0.23112
 C757 C 0.88275 0.25408 0.86631
 C758 C 0.86696 0.28479 0.85862
 C759 C 0.84004 0.28333 0.83230
 C760 C 0.83091 0.25135 0.81656
 C761 C 0.85722 0.23903 0.78163
 C762 C 0.88420 0.24049 0.80765
 C763 C 0.85920 0.23527 0.89761
 C764 C 0.83234 0.23367 0.87129
 H765 H 0.87565 0.30582 0.87411
 H766 H 0.82617 0.30307 0.82465
 H767 H 0.85497 0.22993 0.74004
 H768 H 0.90483 0.23262 0.78822
 H769 H 0.86231 0.22571 0.93867
 H770 H 0.81335 0.22208 0.88925
 C771 C 0.38465 0.76177 0.36055
 C772 C 0.37546 0.73003 0.34229
 C773 C 0.34724 0.72850 0.32135
 C774 C 0.33065 0.75886 0.31942
 C775 C 0.33160 0.77060 0.37947
 C776 C 0.35975 0.77207 0.40080
 C777 C 0.37981 0.78097 0.30771
 C778 C 0.35157 0.77952 0.28663
 H779 H 0.39015 0.71048 0.34436
 H780 H 0.33783 0.70767 0.30636
 H781 H 0.31194 0.77719 0.40337
 H782 H 0.36397 0.77997 0.44271
 H783 H 0.39720 0.79311 0.28604
 H784 H 0.34509 0.79104 0.24866
 C785 C 0.25756 0.88498 0.13556
 C786 C 0.28838 0.86972 0.14484
 C787 C 0.28694 0.84263 0.17090
 C788 C 0.25490 0.83286 0.18480
 C789 C 0.24148 0.85884 0.21917
 C790 C 0.24290 0.88597 0.19341
 C791 C 0.23982 0.86119 0.10307
 C792 C 0.23823 0.83417 0.12913
 H793 H 0.30948 0.87874 0.13026
 H794 H 0.30673 0.82901 0.17934
 H795 H 0.23168 0.85627 0.26023
 H796 H 0.23432 0.90639 0.21252
 H797 H 0.23082 0.86444 0.06164
 H798 H 0.22720 0.81504 0.11057
 C799 C 0.75914 0.38099 0.63636
 C800 C 0.78992 0.36614 0.64826
 C801 C 0.78817 0.33872 0.67310
 C802 C 0.75598 0.32825 0.68337
 C803 C 0.74111 0.35362 0.71728
 C804 C 0.74277 0.38107 0.69266
 C805 C 0.74285 0.35727 0.60127
 C806 C 0.74094 0.32993 0.62610
 H807 H 0.81128 0.37530 0.63556
 H808 H 0.80791 0.32523 0.68261
 H809 H 0.73016 0.35042 0.75716
 H810 H 0.73328 0.40114 0.71165
 H811 H 0.73457 0.36115 0.55947
 H812 H 0.73054 0.31093 0.60593
 C813 C 0.74729 0.11387 0.13404
 C814 C 0.71644 0.12959 0.13980
 C815 C 0.71729 0.15653 0.16631
 C816 C 0.74888 0.16575 0.18412
 C817 C 0.76055 0.13946 0.21972
 C818 C 0.75968 0.11245 0.19353
 C819 C 0.76664 0.13748 0.10405
 C820 C 0.76761 0.16439 0.13056
 H821 H 0.69578 0.12076 0.12306
 H822 H 0.69739 0.17034 0.17284
 H823 H 0.76882 0.14174 0.26188
 H824 H 0.76723 0.09183 0.21335
 H825 H 0.77696 0.13447 0.06356
 H826 H 0.77943 0.18346 0.11341
 C827 C 0.23923 0.62056 0.63528
 C828 C 0.25602 0.64419 0.60048
 C829 C 0.25804 0.67146 0.62546
 C830 C 0.24264 0.67318 0.68257
 C831 C 0.21040 0.66306 0.67186
 C832 C 0.20855 0.63572 0.64688
 C833 C 0.25521 0.62020 0.69178
 C834 C 0.25700 0.64757 0.71652
 H835 H 0.26437 0.64044 0.55861
 H836 H 0.26867 0.69043 0.60540
 H837 H 0.19073 0.67669 0.68139
 H838 H 0.18719 0.62665 0.63416
 H839 H 0.26436 0.59999 0.71078
 H840 H 0.26772 0.65056 0.75654
 C841 C 0.88517 0.74149 0.14658
 C842 C 0.88056 0.72178 0.19881
 C843 C 0.85210 0.72278 0.21950
 C844 C 0.83078 0.74348 0.18694
 C845 C 0.84635 0.77402 0.18611
 C846 C 0.87478 0.77298 0.16552
 C847 C 0.86094 0.73123 0.10569
 C848 C 0.83262 0.73223 0.12659
 H849 H 0.89813 0.70958 0.22040
 H850 H 0.84568 0.71085 0.25700
 H851 H 0.83608 0.79464 0.20133
 H852 H 0.88879 0.79271 0.16387
 H853 H 0.86575 0.72365 0.06367
 H854 H 0.81340 0.72555 0.10219
 C855 C 0.38252 0.23950 0.63412
 C856 C 0.37886 0.22152 0.68821
 C857 C 0.35093 0.22332 0.71098
 C858 C 0.32891 0.24299 0.67782
 C859 C 0.34436 0.27342 0.67197
 C860 C 0.37220 0.27172 0.64890
 C861 C 0.35737 0.22822 0.59573
 C862 C 0.32946 0.22983 0.61868
 H863 H 0.39678 0.20835 0.70694
 H864 H 0.34500 0.21165 0.74903
 H865 H 0.33370 0.29470 0.68249
 H866 H 0.38461 0.29180 0.63884
 H867 H 0.36088 0.22088 0.55318
 H868 H 0.30962 0.22338 0.59584
 C869 C 0.11384 0.25867 0.14777
 C870 C 0.12385 0.22708 0.16688
 C871 C 0.15218 0.22578 0.18755
 C872 C 0.16803 0.25617 0.18834
 C873 C 0.16658 0.26742 0.12793
 C874 C 0.13835 0.26869 0.10691
 C875 C 0.11839 0.27831 0.19995
 C876 C 0.14674 0.27706 0.22074
 H877 H 0.10964 0.20749 0.16544
 H878 H 0.16218 0.20507 0.20297
 H879 H 0.18598 0.27387 0.10356
 H880 H 0.13380 0.27625 0.06481
 H881 H 0.10079 0.29060 0.22145
 H882 H 0.15307 0.28889 0.25828
 C883 C 0.61837 0.75871 0.63461
 C884 C 0.63341 0.78938 0.64332
 C885 C 0.66086 0.78759 0.66782
 C886 C 0.67119 0.75539 0.68089
 C887 C 0.64587 0.74220 0.71657
 C888 C 0.61839 0.74396 0.69236
 C889 C 0.64188 0.74073 0.60065
 C890 C 0.66926 0.73879 0.62516
 H891 H 0.62397 0.81063 0.62946
 H892 H 0.67436 0.80725 0.67565
 H893 H 0.64913 0.73230 0.75738
 H894 H 0.59836 0.73557 0.71254
 H895 H 0.63813 0.73179 0.55936
 H896 H 0.68820 0.72755 0.60543
   
