data_POSCAR
  _audit_creation_date              2014-09-24
  _audit_creation_method            'ToBaCCo'
  _symmetry_space_group_name_H-M    'P1'
  _symmetry_Int_Tables_number       1
  _symmetry_cell_setting            triclinic
  loop_
  _symmetry_equiv_pos_as_xyz
 x,y,z
_cell_length_a 36.9496
_cell_length_b 36.9031
_cell_length_c 36.9451
_cell_angle_alpha 90.139600
_cell_angle_beta 89.763400
_cell_angle_gamma 90.162900
loop_
  _atom_site_label
  _atom_site_type_symbol
  _atom_site_fract_x
  _atom_site_fract_y
  _atom_site_fract_z
C1 C 0.25247 0.92345 -0.03307
 C2 C 0.25076 0.90535 0.00051
 C3 C 0.24357 0.92362 0.03305
 C4 C 0.23646 0.96116 0.03235
 C5 C 0.23998 0.98059 -0.00058
 C6 C 0.24849 0.96186 -0.03320
 C7 C 0.25450 0.98237 -0.06474
 C8 C 0.25026 1.01973 -0.06490
 C9 C 0.23964 1.03873 -0.03355
 C10 C 0.23547 1.01899 -0.00072
 C11 C 0.22599 0.97986 0.06382
 C12 C 0.22019 1.01692 0.06332
 C13 C 0.22723 1.03750 0.03213
 C14 C 0.22370 1.07578 0.03209
 C15 C 0.22470 1.09402 -0.00098
 C16 C 0.23469 1.07698 -0.03359
 H17 H 0.26385 0.97016 -0.08966
 H18 H 0.25626 1.03323 -0.09009
 H19 H 0.22164 0.96615 0.08927
 H20 H 0.20938 1.02899 0.08772
 H21 H 0.25239 0.87615 0.00173
 H22 H 0.21837 1.12267 -0.00093
 C23 C 0.73927 0.41728 0.46328
 C24 C 0.73301 0.40030 0.49660
 C25 C 0.73035 0.41986 0.52887
 C26 C 0.73350 0.45812 0.52812
 C27 C 0.74018 0.47589 0.49464
 C28 C 0.74325 0.45541 0.46218
 C29 C 0.74980 0.47368 0.42944
 C30 C 0.75328 0.51116 0.42847
 C31 C 0.74923 0.53217 0.45997
 C32 C 0.74359 0.51428 0.49356
 C33 C 0.72944 0.47917 0.55959
 C34 C 0.73463 0.51647 0.55884
 C35 C 0.74195 0.53461 0.52619
 C36 C 0.74839 0.57239 0.52534
 C37 C 0.75262 0.58974 0.49181
 C38 C 0.75175 0.57051 0.45911
 H39 H 0.75228 0.45937 0.40400
 H40 H 0.75984 0.52331 0.40268
 H41 H 0.72223 0.46719 0.58527
 H42 H 0.73249 0.53081 0.58429
 H43 H 0.73131 0.37098 0.49776
 H44 H 0.75571 0.61897 0.49109
 C45 C 0.71726 1.01820 1.07165
 C46 C 0.71668 0.98377 1.08723
 C47 C 0.72666 0.95264 1.06790
 C48 C 0.73341 0.95563 1.03009
 C49 C 0.73311 0.99036 1.01336
 C50 C 0.72512 1.02179 1.03420
 C51 C 0.72336 1.05548 1.01661
 C52 C 0.73086 1.05864 0.97975
 C53 C 0.73956 1.02809 0.95862
 C54 C 0.73969 0.99348 0.97541
 C55 C 0.73758 0.92491 1.00798
 C56 C 0.74575 0.92803 0.97157
 C57 C 0.74600 0.96188 0.95434
 C58 C 0.75233 0.96493 0.91663
 C59 C 0.75396 0.99934 0.90091
 C60 C 0.74703 1.03105 0.92100
 H61 H 0.71543 1.07977 1.03094
 H62 H 0.72888 1.08532 0.96791
 H63 H 0.73354 0.89777 1.01801
 H64 H 0.75145 0.90316 0.95727
 H65 H 0.71080 0.98164 1.11599
 H66 H 0.76053 1.00132 0.87236
 C67 C 0.24348 0.46484 0.57293
 C68 C 0.23884 0.49772 0.59119
 C69 C 0.23997 0.53106 0.57308
 C70 C 0.24421 0.53139 0.53499
 C71 C 0.24823 0.49819 0.51582
 C72 C 0.24793 0.46480 0.53483
 C73 C 0.25142 0.43238 0.51514
 C74 C 0.25682 0.43266 0.47794
 C75 C 0.25627 0.46519 0.45826
 C76 C 0.25241 0.49837 0.47750
 C77 C 0.24504 0.56407 0.51559
 C78 C 0.24894 0.56424 0.47819
 C79 C 0.25289 0.53177 0.45858
 C80 C 0.25679 0.53188 0.42050
 C81 C 0.26079 0.49889 0.40192
 C82 C 0.26011 0.46561 0.42002
 H83 H 0.24995 0.40621 0.52804
 H84 H 0.26146 0.40680 0.46506
 H85 H 0.24267 0.59003 0.52900
 H86 H 0.24871 0.59032 0.46491
 H87 H 0.23453 0.49728 0.62025
 H88 H 0.26444 0.49911 0.37278
 C89 C 0.92386 0.25771 -0.02475
 C90 C 0.90601 0.25967 0.00893
 C91 C 0.92467 0.25883 0.04164
 C92 C 0.96287 0.25642 0.04148
 C93 C 0.98177 0.25414 0.00803
 C94 C 0.96230 0.25541 -0.02510
 C95 C 0.98204 0.25702 -0.05768
 C96 C 1.01942 0.25551 -0.05807
 C97 C 1.03935 0.25201 -0.02593
 C98 C 1.02036 0.25197 0.00768
 C99 C 0.98275 0.25803 0.07371
 C100 C 1.02021 0.25532 0.07351
 C101 C 1.03978 0.25132 0.04094
 C102 C 1.07820 0.24872 0.04054
 C103 C 1.09588 0.24742 0.00679
 C104 C 1.07772 0.25081 -0.02633
 H105 H 0.96924 0.26104 -0.08356
 H106 H 1.03209 0.25818 -0.08428
 H107 H 0.96966 0.26221 0.09960
 H108 H 1.03340 0.25767 0.09942
 H109 H 0.87675 0.25969 0.01038
 H110 H 1.12428 0.24060 0.00593
 C111 C 0.42196 0.73809 0.46937
 C112 C 0.40422 0.74502 0.50234
 C113 C 0.42279 0.74588 0.53532
 C114 C 0.46104 0.74191 0.53520
 C115 C 0.47926 0.73355 0.50227
 C116 C 0.45953 0.73084 0.46944
 C117 C 0.47813 0.72193 0.43733
 C118 C 0.51520 0.71589 0.43732
 C119 C 0.53554 0.72002 0.46906
 C120 C 0.51746 0.72865 0.50197
 C121 C 0.48176 0.74750 0.56661
 C122 C 0.51922 0.74313 0.56623
 C123 C 0.53761 0.73309 0.53439
 C124 C 0.57569 0.72837 0.53368
 C125 C 0.59253 0.71807 0.50127
 C126 C 0.57348 0.71520 0.46899
 H127 H 0.46436 0.71945 0.41170
 H128 H 0.52774 0.70801 0.41201
 H129 H 0.46940 0.75623 0.59170
 H130 H 0.53360 0.74807 0.59121
 H131 H 0.37512 0.74888 0.50249
 H132 H 0.62148 0.71323 0.50081
 C133 C 0.02446 0.76034 -0.07666
 C134 C -0.00959 0.75622 -0.09232
 C135 C -0.04126 0.75236 -0.07199
 C136 C -0.03898 0.75217 -0.03356
 C137 C -0.00471 0.75709 -0.01665
 C138 C 0.02709 0.76161 -0.03822
 C139 C 0.05991 0.76894 -0.02058
 C140 C 0.06284 0.76636 0.01672
 C141 C 0.03230 0.76051 0.03867
 C142 C -0.00210 0.75692 0.02197
 C143 C -0.06904 0.74410 -0.01165
 C144 C -0.06659 0.74430 0.02587
 C145 C -0.03369 0.75189 0.04362
 C146 C -0.03115 0.75219 0.08223
 C147 C 0.00374 0.75369 0.09771
 C148 C 0.03519 0.75754 0.07676
 H149 H 0.08392 0.77716 -0.03507
 H150 H 0.08960 0.76946 0.02781
 H151 H -0.09469 0.73613 -0.02313
 H152 H -0.09077 0.73661 0.04049
 H153 H -0.01156 0.75576 -0.12171
 H154 H 0.00727 0.75351 0.12671
 C155 C 0.54190 0.24835 0.58025
 C156 C 0.51126 0.25566 0.60164
 C157 C 0.47632 0.25675 0.58695
 C158 C 0.47167 0.25042 0.54953
 C159 C 0.50216 0.24265 0.52732
 C160 C 0.53736 0.24099 0.54273
 C161 C 0.56642 0.23003 0.52059
 C162 C 0.56144 0.22242 0.48392
 C163 C 0.52722 0.22559 0.46772
 C164 C 0.49712 0.23508 0.48984
 C165 C 0.43692 0.24966 0.53415
 C166 C 0.43207 0.24230 0.49770
 C167 C 0.46174 0.23581 0.47482
 C168 C 0.45686 0.22815 0.43765
 C169 C 0.48662 0.21848 0.41648
 C170 C 0.52162 0.21773 0.43047
 H171 H 0.59321 0.22620 0.53150
 H172 H 0.58465 0.21309 0.46867
 H173 H 0.41276 0.25385 0.55020
 H174 H 0.40456 0.24076 0.48800
 H175 H 0.51472 0.26082 0.63033
 H176 H 0.48255 0.21245 0.38800
 C177 C 0.92443 -0.03076 0.24894
 C178 C 0.90576 0.00211 0.25121
 C179 C 0.92403 0.03533 0.25423
 C180 C 0.96221 0.03550 0.25639
 C181 C 0.98157 0.00271 0.25191
 C182 C 0.96254 -0.03039 0.24739
 C183 C 0.98202 -0.06220 0.24038
 C184 C 1.01951 -0.06190 0.23979
 C185 C 1.03906 -0.03012 0.24772
 C186 C 1.02003 0.00291 0.25231
 C187 C 0.98144 0.06726 0.26465
 C188 C 1.01902 0.06713 0.26664
 C189 C 1.03920 0.03596 0.25778
 C190 C 1.07783 0.03591 0.25673
 C191 C 1.09578 0.00237 0.25480
 C192 C 1.07713 -0.03040 0.25065
 H193 H 0.96848 -0.08758 0.23454
 H194 H 1.03282 -0.08700 0.23285
 H195 H 0.96754 0.09226 0.27107
 H196 H 1.03172 0.09162 0.27638
 H197 H 0.87649 0.00176 0.25074
 H198 H 1.12515 0.00164 0.25542
 C199 C 0.42752 0.47742 0.73254
 C200 C 0.41018 0.51103 0.73102
 C201 C 0.42978 0.54344 0.73056
 C202 C 0.46802 0.54254 0.73217
 C203 C 0.48598 0.50864 0.73243
 C204 C 0.46564 0.47601 0.73110
 C205 C 0.48398 0.44286 0.72870
 C206 C 0.52147 0.44167 0.72896
 C207 C 0.54215 0.47327 0.73426
 C208 C 0.52435 0.50728 0.73440
 C209 C 0.48882 0.57441 0.73321
 C210 C 0.52610 0.57310 0.73711
 C211 C 0.54468 0.53990 0.73692
 C212 C 0.58288 0.53827 0.73980
 C213 C 0.59985 0.50438 0.74114
 C214 C 0.58014 0.47192 0.73875
 H215 H 0.46968 0.41740 0.72614
 H216 H 0.53380 0.41547 0.72502
 H217 H 0.47669 0.60093 0.73156
 H218 H 0.53987 0.59869 0.74044
 H219 H 0.38083 0.51198 0.73074
 H220 H 0.62902 0.50323 0.74422
 C221 C 1.03734 0.93181 0.74580
 C222 C 1.00407 0.91462 0.73798
 C223 C 0.97229 0.93401 0.73201
 C224 C 0.97338 0.97221 0.73165
 C225 C 1.00597 0.99069 0.74005
 C226 C 1.03804 0.97057 0.74720
 C227 C 1.06932 0.98992 0.75725
 C228 C 1.06976 1.02756 0.75849
 C229 C 1.03888 1.04814 0.75001
 C230 C 1.00626 1.02943 0.74173
 C231 C 0.94290 0.99235 0.72194
 C232 C 0.94277 1.02973 0.72450
 C233 C 0.97365 1.04912 0.73582
 C234 C 0.97287 1.08726 0.74185
 C235 C 1.00620 1.10518 0.74739
 C236 C 1.03941 1.08671 0.75116
 H237 H 1.09384 0.97649 0.76546
 H238 H 1.09455 1.04007 0.76765
 H239 H 0.91853 0.97949 0.71208
 H240 H 0.91790 1.04253 0.71666
 H241 H 1.00244 0.88549 0.73514
 H242 H 1.00660 1.13430 0.74539
 C243 C 0.46393 0.57634 0.23640
 C244 C 0.49665 0.59537 0.24001
 C245 C 0.53024 0.57771 0.23899
 C246 C 0.53120 0.53960 0.23500
 C247 C 0.49836 0.51981 0.23212
 C248 C 0.46472 0.53831 0.23189
 C249 C 0.43270 0.51822 0.22742
 C250 C 0.43357 0.48079 0.22389
 C251 C 0.46629 0.46162 0.22633
 C252 C 0.49915 0.48137 0.22934
 C253 C 0.56418 0.52084 0.23249
 C254 C 0.56494 0.48334 0.22910
 C255 C 0.53281 0.46287 0.22901
 C256 C 0.53325 0.42450 0.22706
 C257 C 0.50058 0.40553 0.22411
 C258 C 0.46722 0.42329 0.22463
 H259 H 0.40648 0.53110 0.22653
 H260 H 0.40812 0.46722 0.21893
 H261 H 0.58988 0.53494 0.23251
 H262 H 0.59114 0.47076 0.22602
 H263 H 0.49593 0.62452 0.24356
 H264 H 0.50106 0.37616 0.22261
 O265 O 0.25395 0.14227 0.21396
 O266 O 0.29780 0.14049 0.26469
 O267 O 0.16302 0.19553 0.25753
 O268 O 0.15323 0.24706 0.29092
 O269 O 0.20874 0.23551 0.15871
 O270 O 0.26228 0.26780 0.14291
 O271 O 0.26067 0.30541 0.33740
 O272 O 0.21806 0.25977 0.35386
 O273 O 0.35211 0.24332 0.30064
 O274 O 0.35603 0.19240 0.25135
 O275 O 0.31504 0.33146 0.24202
 O276 O 0.26330 0.33900 0.19713
 O277 O 0.26539 0.34182 0.28804
 O278 O 0.22636 0.34858 0.23624
 O279 O 0.35551 0.28529 0.24532
 O280 O 0.36625 0.23283 0.21498
 O281 O 0.30982 0.25524 0.34394
 O282 O 0.25900 0.21840 0.36201
 O283 O 0.25439 0.18015 0.16542
 O284 O 0.29840 0.22515 0.14822
 O285 O 0.16484 0.24172 0.20155
 O286 O 0.15783 0.28783 0.24661
 O287 O 0.20502 0.15109 0.26562
 O288 O 0.25179 0.14464 0.30565
 Zr289 Zr 0.25456 0.17776 0.25898
 O290 O 0.28956 0.21152 0.28872
 Zr291 Zr 0.19393 0.24356 0.25059
 O292 O 0.22699 0.28044 0.27946
 Zr293 Zr 0.25733 0.23242 0.18758
 O294 O 0.29327 0.26793 0.21363
 Zr295 Zr 0.26029 0.25235 0.31575
 O296 O 0.22451 0.21564 0.28960
 Zr297 Zr 0.32313 0.23929 0.25223
 O298 O 0.29065 0.20280 0.22255
 Zr299 Zr 0.26377 0.30599 0.24394
 O300 O 0.22743 0.27271 0.21448
 O301 O 0.22223 0.20468 0.22167
 O302 O 0.29609 0.27952 0.28155
 C303 C 0.25366 0.14844 0.17973
 C304 C 0.17232 0.16241 0.26363
 C305 C 0.17561 0.23971 0.16849
 C306 C 0.26295 0.33674 0.32226
 C307 C 0.34260 0.24992 0.33337
 C308 C 0.34749 0.31889 0.24259
 H309 H 0.30375 0.19647 0.30555
 H310 H 0.30918 0.27950 0.19543
 H311 H 0.20563 0.18846 0.20824
 H312 H 0.21143 0.29808 0.29227
 H313 H 0.19943 0.24114 0.34862
 H314 H 0.16091 0.26574 0.30856
 H315 H 0.35715 0.24050 0.19107
 H316 H 0.31550 0.20716 0.15817
 H317 H 0.27575 0.19796 0.35786
 H318 H 0.23837 0.15856 0.32427
 H319 H 0.28523 0.33347 0.18272
 H320 H 0.24819 0.28974 0.14909
 H321 H 0.28846 0.11558 0.26056
 H322 H 0.35622 0.18214 0.27607
 H323 H 0.16750 0.30391 0.22745
 H324 H 0.20697 0.34578 0.25457
 O325 O 0.75002 0.84749 0.20270
 O326 O 0.70354 0.85568 0.24866
 O327 O 0.83957 0.80584 0.26016
 O328 O 0.84821 0.76011 0.30107
 O329 O 0.80619 0.75214 0.16411
 O330 O 0.75690 0.71250 0.14964
 O331 O 0.73844 0.70730 0.34774
 O332 O 0.77517 0.75537 0.36132
 O333 O 0.64805 0.75628 0.29313
 O334 O 0.64842 0.79914 0.23623
 O335 O 0.69446 0.66179 0.25112
 O336 O 0.75021 0.64870 0.21588
 O337 O 0.73954 0.66237 0.30550
 O338 O 0.78463 0.64936 0.25746
 O339 O 0.65254 0.70626 0.24487
 O340 O 0.64297 0.75292 0.20604
 O341 O 0.68679 0.75089 0.34048
 O342 O 0.73522 0.79817 0.35510
 O343 O 0.75516 0.80409 0.15903
 O344 O 0.71693 0.75236 0.14519
 O345 O 0.84488 0.75263 0.21183
 O346 O 0.84836 0.71285 0.26363
 O347 O 0.79571 0.84878 0.25458
 O348 O 0.74605 0.85794 0.29381
 Zr349 Zr 0.74772 0.81911 0.25147
 O350 O 0.71051 0.78912 0.28232
 Zr351 Zr 0.81110 0.75592 0.25778
 O352 O 0.77649 0.72282 0.28921
 Zr353 Zr 0.75433 0.75473 0.18830
 O354 O 0.71726 0.72176 0.21670
 Zr355 Zr 0.73877 0.75487 0.31730
 O356 O 0.77631 0.78812 0.28948
 Zr357 Zr 0.68221 0.75436 0.24754
 O358 O 0.71652 0.78734 0.21585
 Zr359 Zr 0.74437 0.68998 0.25535
 O360 O 0.78227 0.72011 0.22380
 O361 O 0.78440 0.78867 0.22115
 O362 O 0.70755 0.72067 0.28501
 C363 C 0.75256 0.83732 0.16965
 C364 C 0.82889 0.83896 0.25735
 C365 C 0.83818 0.75119 0.17772
 C366 C 0.73843 0.67385 0.33849
 C367 C 0.65486 0.75293 0.32695
 C368 C 0.66176 0.67286 0.24663
 H369 H 0.69411 0.80577 0.29537
 H370 H 0.70377 0.70672 0.19913
 H371 H 0.80117 0.80366 0.20652
 H372 H 0.79126 0.70836 0.30606
 H373 H 0.79537 0.77170 0.35447
 H374 H 0.83876 0.74507 0.32113
 H375 H 0.65430 0.74091 0.18491
 H376 H 0.69780 0.77027 0.15081
 H377 H 0.71199 0.81091 0.35160
 H378 H 0.76131 0.84866 0.31367
 H379 H 0.73346 0.65418 0.19583
 H380 H 0.77166 0.69308 0.16059
 H381 H 0.71294 0.88033 0.24332
 H382 H 0.64479 0.81276 0.25905
 H383 H 0.84171 0.69422 0.24549
 H384 H 0.80091 0.65529 0.27783
 O385 O 0.75139 0.16166 0.79944
 O386 O 0.71305 0.15538 0.74802
 O387 O 0.84724 0.21064 0.75562
 O388 O 0.86016 0.26093 0.72137
 O389 O 0.79994 0.25389 0.85210
 O390 O 0.75018 0.28894 0.86631
 O391 O 0.75112 0.31515 0.66742
 O392 O 0.78969 0.26757 0.65003
 O393 O 0.65893 0.26436 0.70913
 O394 O 0.64666 0.22327 0.75332
 O395 O 0.70711 0.35440 0.76157
 O396 O 0.75455 0.36412 0.80145
 O397 O 0.75618 0.35591 0.71334
 O398 O 0.79821 0.35963 0.76858
 O399 O 0.66156 0.31290 0.75899
 O400 O 0.65089 0.25658 0.79980
 O401 O 0.70146 0.26540 0.66453
 O402 O 0.75623 0.22402 0.65246
 O403 O 0.75041 0.20116 0.84675
 O404 O 0.70834 0.25201 0.85840
 O405 O 0.84515 0.25826 0.81040
 O406 O 0.85566 0.30169 0.75980
 O407 O 0.80510 0.16580 0.75139
 O408 O 0.75685 0.16202 0.70578
 Zr409 Zr 0.75502 0.19447 0.75320
 O410 O 0.72019 0.22824 0.72307
 Zr411 Zr 0.81783 0.25853 0.75993
 O412 O 0.78768 0.29342 0.72668
 Zr413 Zr 0.75256 0.25285 0.82186
 O414 O 0.72116 0.29060 0.79339
 Zr415 Zr 0.75169 0.26452 0.69287
 O416 O 0.78695 0.22949 0.72156
 Zr417 Zr 0.68869 0.26199 0.75687
 O418 O 0.71875 0.22358 0.78697
 Zr419 Zr 0.75405 0.32387 0.76058
 O420 O 0.78574 0.29057 0.79420
 O421 O 0.78731 0.22208 0.79007
 O422 O 0.71898 0.29739 0.72494
 C423 C 0.74943 0.16889 0.83342
 C424 C 0.83820 0.17723 0.75252
 C425 C 0.83334 0.25716 0.84326
 C426 C 0.75376 0.34762 0.67965
 C427 C 0.66831 0.26512 0.67577
 C428 C 0.67370 0.34573 0.76055
 H429 H 0.70465 0.21283 0.70760
 H430 H 0.70661 0.30500 0.81069
 H431 H 0.80245 0.20579 0.80489
 H432 H 0.80446 0.30885 0.71256
 H433 H 0.81204 0.27830 0.66008
 H434 H 0.85087 0.24896 0.69926
 H435 H 0.65210 0.27875 0.81485
 H436 H 0.69177 0.23256 0.85019
 H437 H 0.73443 0.20845 0.65401
 H438 H 0.77800 0.17000 0.69127
 H439 H 0.74049 0.35460 0.82218
 H440 H 0.76411 0.31073 0.85910
 H441 H 0.72347 0.13080 0.75104
 H442 H 0.65837 0.19937 0.75615
 H443 H 0.85037 0.31687 0.78129
 H444 H 0.81292 0.35982 0.74614
 O445 O 0.25124 0.84004 0.80370
 O446 O 0.29077 0.84646 0.74903
 O447 O 0.15321 0.79799 0.75969
 O448 O 0.13453 0.75124 0.72720
 O449 O 0.20571 0.74413 0.85095
 O450 O 0.25695 0.70511 0.85478
 O451 O 0.23789 0.69613 0.65811
 O452 O 0.19364 0.74428 0.65363
 O453 O 0.33331 0.74332 0.69180
 O454 O 0.34795 0.78738 0.74422
 O455 O 0.29253 0.65253 0.74462
 O456 O 0.24539 0.64209 0.79136
 O457 O 0.24101 0.65330 0.70203
 O458 O 0.20348 0.64284 0.75663
 O459 O 0.33732 0.69490 0.74218
 O460 O 0.35531 0.74515 0.77805
 O461 O 0.28566 0.74561 0.65314
 O462 O 0.23552 0.78644 0.64714
 O463 O 0.25595 0.79547 0.84581
 O464 O 0.29655 0.74564 0.85090
 O465 O 0.15811 0.74705 0.81222
 O466 O 0.14342 0.70526 0.76222
 O467 O 0.19671 0.84172 0.75661
 O468 O 0.24109 0.85133 0.71300
 Zr469 Zr 0.24525 0.81159 0.75402
 O470 O 0.27474 0.78006 0.71622
 Zr471 Zr 0.18120 0.74850 0.76005
 O472 O 0.20772 0.71460 0.72243
 Zr473 Zr 0.25098 0.74715 0.81650
 O474 O 0.28073 0.71334 0.78179
 Zr475 Zr 0.23987 0.74560 0.68719
 O476 O 0.20977 0.78008 0.72201
 Zr477 Zr 0.30949 0.74472 0.74389
 O478 O 0.28291 0.77904 0.78167
 Zr479 Zr 0.24481 0.68225 0.75053
 O480 O 0.21508 0.71299 0.78851
 O481 O 0.21484 0.78146 0.79067
 O482 O 0.27591 0.71128 0.71327
 C483 C 0.25561 0.82894 0.83644
 C484 C 0.16343 0.83132 0.75804
 C485 C 0.17172 0.74457 0.84413
 C486 C 0.23935 0.66299 0.66878
 C487 C 0.31970 0.74416 0.65980
 C488 C 0.32582 0.66197 0.74248
 H489 H 0.28844 0.79633 0.69994
 H490 H 0.29696 0.69811 0.79650
 H491 H 0.20097 0.79696 0.80763
 H492 H 0.18987 0.70001 0.70881
 H493 H 0.17673 0.76280 0.66316
 H494 H 0.14002 0.73809 0.70449
 H495 H 0.34930 0.73027 0.79948
 H496 H 0.31446 0.76293 0.84081
 H497 H 0.25388 0.80528 0.65225
 H498 H 0.22402 0.84166 0.69477
 H499 H 0.26733 0.64590 0.80616
 H500 H 0.23931 0.68600 0.84813
 H501 H 0.28392 0.87095 0.75778
 H502 H 0.34431 0.80203 0.72215
 H503 H 0.15231 0.68792 0.78054
 H504 H 0.18459 0.64778 0.73842
 O505 O 0.25637 0.35746 0.71342
 O506 O 0.21292 0.36341 0.76343
 O507 O 0.35010 0.31453 0.76417
 O508 O 0.36067 0.26729 0.80379
 O509 O 0.31136 0.26306 0.66922
 O510 O 0.25931 0.22378 0.65698
 O511 O 0.25359 0.21110 0.85311
 O512 O 0.29704 0.25844 0.86429
 O513 O 0.16269 0.26210 0.81083
 O514 O 0.15784 0.30810 0.75553
 O515 O 0.20441 0.17019 0.75914
 O516 O 0.25842 0.16025 0.71789
 O517 O 0.25227 0.16807 0.80906
 O518 O 0.29409 0.15679 0.75887
 O519 O 0.16223 0.21483 0.76029
 O520 O 0.14958 0.26246 0.72368
 O521 O 0.20614 0.25953 0.85403
 O522 O 0.25384 0.29929 0.86831
 O523 O 0.26029 0.31532 0.66846
 O524 O 0.22122 0.26553 0.65495
 O525 O 0.35265 0.26279 0.71466
 O526 O 0.36027 0.22215 0.76265
 O527 O 0.30588 0.35749 0.76357
 O528 O 0.25891 0.36609 0.80443
 Zr529 Zr 0.25788 0.32771 0.76167
 O530 O 0.22383 0.29632 0.79468
 Zr531 Zr 0.32172 0.26450 0.76199
 O532 O 0.28965 0.22930 0.79370
 Zr533 Zr 0.26049 0.26539 0.69639
 O534 O 0.22472 0.23181 0.72611
 Zr535 Zr 0.25490 0.26061 0.82575
 O536 O 0.28930 0.29581 0.79673
 Zr537 Zr 0.19234 0.26281 0.76150
 O538 O 0.22427 0.29662 0.72780
 Zr539 Zr 0.25469 0.19829 0.76072
 O540 O 0.29079 0.22979 0.72858
 O541 O 0.29268 0.29842 0.72820
 O542 O 0.22087 0.22775 0.79495
 C543 C 0.25772 0.34819 0.67999
 C544 C 0.33917 0.34773 0.76448
 C545 C 0.34413 0.26168 0.68111
 C546 C 0.25225 0.17801 0.84240
 C547 C 0.17303 0.26073 0.84404
 C548 C 0.17139 0.18134 0.75964
 H549 H 0.20869 0.31250 0.80973
 H550 H 0.20966 0.21763 0.70912
 H551 H 0.30856 0.31398 0.71317
 H552 H 0.30535 0.21387 0.80877
 H553 H 0.31436 0.27807 0.85821
 H554 H 0.35437 0.24873 0.82206
 H555 H 0.15991 0.25386 0.70048
 H556 H 0.20167 0.28190 0.66323
 H557 H 0.23886 0.31995 0.86048
 H558 H 0.27499 0.35630 0.82339
 H559 H 0.23807 0.16472 0.70118
 H560 H 0.27655 0.20502 0.66509
 H561 H 0.22120 0.38823 0.75712
 H562 H 0.15503 0.31960 0.77960
 H563 H 0.35100 0.20288 0.74644
 H564 H 0.31233 0.16223 0.77764
 O565 O 0.76610 0.65485 0.69018
 O566 O 0.81123 0.65226 0.74176
 O567 O 0.67244 0.69669 0.73904
 O568 O 0.65956 0.74538 0.77705
 O569 O 0.71418 0.74685 0.64399
 O570 O 0.76582 0.78778 0.63276
 O571 O 0.76048 0.80810 0.82686
 O572 O 0.71926 0.75663 0.83799
 O573 O 0.85583 0.75627 0.78933
 O574 O 0.86420 0.70686 0.73751
 O575 O 0.81580 0.84371 0.73422
 O576 O 0.76276 0.85022 0.68888
 O577 O 0.76548 0.84797 0.78026
 O578 O 0.72692 0.85716 0.73025
 O579 O 0.85851 0.79951 0.73561
 O580 O 0.87321 0.74972 0.70335
 O581 O 0.81162 0.76036 0.83211
 O582 O 0.76646 0.72126 0.84710
 O583 O 0.76662 0.69710 0.64543
 O584 O 0.80360 0.74641 0.63146
 O585 O 0.67045 0.74619 0.68752
 O586 O 0.65972 0.78854 0.73404
 O587 O 0.71765 0.65490 0.74248
 O588 O 0.76450 0.64725 0.78117
 Zr589 Zr 0.76480 0.68581 0.73881
 O590 O 0.79623 0.71936 0.77268
 Zr591 Zr 0.69964 0.74753 0.73598
 O592 O 0.72978 0.78506 0.76712
 Zr593 Zr 0.76362 0.74670 0.67254
 O594 O 0.79785 0.78132 0.70198
 Zr595 Zr 0.76387 0.75636 0.80189
 O596 O 0.73190 0.71855 0.77258
 Zr597 Zr 0.82868 0.75178 0.73938
 O598 O 0.79908 0.71657 0.70532
 Zr599 Zr 0.76566 0.81527 0.73414
 O600 O 0.73091 0.78215 0.70253
 O601 O 0.73074 0.71352 0.70388
 O602 O 0.79860 0.78809 0.77062
 C603 C 0.76736 0.66424 0.65659
 C604 C 0.68423 0.66384 0.74178
 C605 C 0.68085 0.74675 0.65441
 C606 C 0.76230 0.84048 0.81388
 C607 C 0.84494 0.75948 0.82227
 C608 C 0.84891 0.83272 0.73461
 H609 H 0.81099 0.70419 0.78894
 H610 H 0.81339 0.79499 0.68493
 H611 H 0.71565 0.69708 0.68902
 H612 H 0.71298 0.80086 0.78074
 H613 H 0.70443 0.73491 0.83244
 H614 H 0.66493 0.76477 0.79479
 H615 H 0.86432 0.75814 0.67962
 H616 H 0.82401 0.73192 0.64082
 H617 H 0.77659 0.69802 0.83854
 H618 H 0.74961 0.65760 0.80096
 H619 H 0.78581 0.84826 0.67530
 H620 H 0.74625 0.80515 0.63855
 H621 H 0.80462 0.62758 0.73332
 H622 H 0.86665 0.69737 0.76240
 H623 H 0.66888 0.80732 0.71723
 H624 H 0.70596 0.85009 0.74543
 O625 O 0.24606 0.65784 0.29849
 O626 O 0.20481 0.65074 0.24991
 O627 O 0.34130 0.69991 0.24943
 O628 O 0.35506 0.74860 0.21171
 O629 O 0.30048 0.75059 0.34514
 O630 O 0.25292 0.78807 0.35957
 O631 O 0.24964 0.80290 0.15845
 O632 O 0.28174 0.75166 0.14311
 O633 O 0.15358 0.75900 0.20803
 O634 O 0.14179 0.72121 0.25466
 O635 O 0.20699 0.84995 0.25340
 O636 O 0.25735 0.86022 0.28955
 O637 O 0.25268 0.84669 0.20164
 O638 O 0.29878 0.85228 0.25419
 O639 O 0.16016 0.80990 0.25602
 O640 O 0.14957 0.75608 0.29916
 O641 O 0.19440 0.76007 0.16181
 O642 O 0.24454 0.71159 0.14975
 O643 O 0.24912 0.69935 0.34398
 O644 O 0.20908 0.75290 0.35495
 O645 O 0.34395 0.74955 0.30140
 O646 O 0.35381 0.79117 0.24904
 O647 O 0.29677 0.65712 0.24859
 O648 O 0.24652 0.65391 0.20488
 Zr649 Zr 0.24850 0.68825 0.25096
 O650 O 0.21379 0.72172 0.22075
 Zr651 Zr 0.31440 0.74958 0.25209
 O652 O 0.28421 0.78390 0.21818
 Zr653 Zr 0.25181 0.74999 0.31677
 O654 O 0.22074 0.78752 0.28757
 Zr655 Zr 0.24568 0.75480 0.18757
 O656 O 0.28079 0.71997 0.21650
 Zr657 Zr 0.18545 0.75826 0.25433
 O658 O 0.21524 0.72033 0.28507
 Zr659 Zr 0.25303 0.81775 0.25127
 O660 O 0.28494 0.78492 0.28554
 O661 O 0.28355 0.71617 0.28507
 O662 O 0.21546 0.79066 0.21896
 C663 C 0.24645 0.66657 0.33208
 C664 C 0.33033 0.66690 0.24849
 C665 C 0.33361 0.75075 0.33478
 C666 C 0.25198 0.83606 0.16842
 C667 C 0.16174 0.76032 0.17441
 C668 C 0.17331 0.84232 0.25535
 H669 H 0.19690 0.70638 0.20673
 H670 H 0.20767 0.80339 0.30477
 H671 H 0.29863 0.69999 0.30005
 H672 H 0.30108 0.79764 0.20251
 H673 H 0.30530 0.76110 0.15161
 H674 H 0.34504 0.73449 0.19124
 H675 H 0.15298 0.77838 0.31368
 H676 H 0.19201 0.73300 0.34915
 H677 H 0.22033 0.70013 0.15093
 H678 H 0.26773 0.65969 0.18946
 H679 H 0.24474 0.85211 0.31175
 H680 H 0.26689 0.80913 0.35052
 H681 H 0.21448 0.62587 0.25309
 H682 H 0.15266 0.69698 0.25806
 H683 H 0.34932 0.80769 0.26972
 H684 H 0.31188 0.85071 0.23084
 O685 O 0.73694 0.33409 0.29965
 O686 O 0.77501 0.34680 0.24771
 O687 O 0.64276 0.28667 0.24934
 O688 O 0.62663 0.23779 0.21989
 O689 O 0.69524 0.23865 0.34422
 O690 O 0.74591 0.19888 0.34936
 O691 O 0.73901 0.19549 0.15049
 O692 O 0.69261 0.23912 0.14478
 O693 O 0.82908 0.24273 0.19118
 O694 O 0.84136 0.28461 0.23651
 O695 O 0.79060 0.14989 0.24192
 O696 O 0.74275 0.13309 0.27942
 O697 O 0.74032 0.15011 0.19201
 O698 O 0.69946 0.13729 0.24703
 O699 O 0.83318 0.19453 0.24076
 O700 O 0.84309 0.24782 0.28176
 O701 O 0.78330 0.24635 0.15041
 O702 O 0.72989 0.28593 0.14468
 O703 O 0.74199 0.28912 0.34131
 O704 O 0.78607 0.24015 0.34630
 O705 O 0.64857 0.23650 0.30425
 O706 O 0.63984 0.19258 0.25134
 O707 O 0.68370 0.33297 0.25189
 O708 O 0.72976 0.34429 0.20700
 Zr709 Zr 0.73415 0.30628 0.24969
 O710 O 0.76778 0.27752 0.21349
 Zr711 Zr 0.67355 0.23907 0.25238
 O712 O 0.70359 0.20868 0.21428
 Zr713 Zr 0.74113 0.24104 0.31104
 O714 O 0.77331 0.20897 0.27692
 Zr715 Zr 0.73587 0.24270 0.18191
 O716 O 0.70159 0.27343 0.21612
 Zr717 Zr 0.80259 0.24273 0.24164
 O718 O 0.77269 0.27550 0.27831
 Zr719 Zr 0.74082 0.17691 0.24273
 O720 O 0.70850 0.20498 0.28115
 O721 O 0.70412 0.27361 0.28433
 O722 O 0.77222 0.20880 0.20826
 C723 C 0.73962 0.32261 0.33234
 C724 C 0.65115 0.32047 0.25006
 C725 C 0.66151 0.23704 0.33665
 C726 C 0.74024 0.16194 0.15925
 C727 C 0.81697 0.24490 0.15870
 C728 C 0.82354 0.16109 0.24217
 H729 H 0.78187 0.29490 0.19871
 H730 H 0.78917 0.19413 0.29241
 H731 H 0.68877 0.28832 0.30068
 H732 H 0.68714 0.19391 0.19916
 H733 H 0.67291 0.25445 0.15458
 H734 H 0.63464 0.23130 0.19516
 H735 H 0.84066 0.22697 0.29838
 H736 H 0.80208 0.26048 0.33912
 H737 H 0.74955 0.30365 0.14896
 H738 H 0.71014 0.33578 0.19088
 H739 H 0.75579 0.14181 0.30109
 H740 H 0.72806 0.18004 0.34249
 H741 H 0.76425 0.37045 0.25469
 H742 H 0.83012 0.30652 0.24710
 H743 H 0.64638 0.17759 0.27251
 H744 H 0.68390 0.13917 0.22539
 C745 C 0.22038 0.09804 0.06305
 C746 C 0.23693 0.09235 0.09476
 C747 C 0.23695 0.12136 0.12210
 C748 C 0.25135 0.11728 0.15494
 H749 H 0.25349 0.06867 0.09934
 H750 H 0.22550 0.14735 0.11472
 H751 H 0.20814 0.12450 0.05932
 H752 H 0.26115 0.09107 0.16364
 C753 C 0.75075 0.59442 0.55899
 C754 C 0.77726 0.61876 0.56363
 C755 C 0.77900 0.64382 0.59463
 C756 C 0.76823 0.63579 0.62846
 H757 H 0.79699 0.62288 0.54225
 H758 H 0.79045 0.67028 0.58898
 H759 H 0.73029 0.59103 0.57977
 H760 H 0.75951 0.60861 0.63530
 C761 C 0.72934 0.92050 0.08834
 C762 C 0.75385 0.89403 0.08300
 C763 C 0.75642 0.86268 0.10762
 C764 C 0.75222 0.86689 0.14329
 H765 H 0.77349 0.89541 0.06127
 H766 H 0.76326 0.83644 0.09639
 H767 H 0.71260 0.91890 0.11246
 H768 H 0.74837 0.89388 0.15428
 C769 C 0.24221 0.43162 0.59530
 C770 C 0.26863 0.40677 0.59515
 C771 C 0.26843 0.37535 0.61982
 C772 C 0.25642 0.37808 0.65390
 H773 H 0.29092 0.40909 0.57617
 H774 H 0.28095 0.35048 0.61055
 H775 H 0.22014 0.42935 0.61456
 H776 H 0.24723 0.40405 0.66406
 C777 C 0.74876 0.06684 0.90220
 C778 C 0.73555 0.07118 0.86871
 C779 C 0.73893 0.10434 0.84648
 C780 C 0.74645 0.13787 0.85873
 H781 H 0.72262 0.04837 0.85550
 H782 H 0.73382 0.10044 0.81788
 H783 H 0.76172 0.08932 0.91583
 H784 H 0.74965 0.14292 0.88740
 C785 C 0.25699 0.56618 0.39961
 C786 C 0.23634 0.57015 0.37027
 C787 C 0.23633 0.60273 0.34729
 C788 C 0.24494 0.63643 0.35831
 H789 H 0.21996 0.54754 0.36112
 H790 H 0.22785 0.59825 0.31960
 H791 H 0.27406 0.58823 0.40872
 H792 H 0.25107 0.64195 0.38642
 C793 C 0.25536 0.90331 0.93415
 C794 C 0.26897 0.86959 0.93197
 C795 C 0.26794 0.84608 0.89948
 C796 C 0.25912 0.85621 0.86567
 H797 H 0.28115 0.85716 0.95537
 H798 H 0.27467 0.81800 0.90452
 H799 H 0.24528 0.91531 0.90963
 H800 H 0.25391 0.88426 0.85922
 C801 C 0.74278 0.39434 0.43034
 C802 C 0.72162 0.36531 0.42507
 C803 C 0.72589 0.34002 0.39456
 C804 C 0.73815 0.34949 0.36172
 H805 H 0.70117 0.35831 0.44496
 H806 H 0.71624 0.31263 0.39909
 H807 H 0.76376 0.40074 0.41086
 H808 H 0.74464 0.37746 0.35566
 C809 C 0.09901 0.24570 0.07273
 C810 C 0.13431 0.25486 0.07428
 C811 C 0.15848 0.24947 0.10544
 C812 C 0.14823 0.24276 0.13965
 H813 H 0.14754 0.26727 0.05127
 H814 H 0.18701 0.25284 0.09938
 H815 H 0.08636 0.23554 0.09702
 H816 H 0.11992 0.24138 0.14706
 C817 C 0.59898 0.73362 0.56599
 C818 C 0.63152 0.74985 0.56308
 C819 C 0.65901 0.75150 0.59187
 C820 C 0.65209 0.74617 0.62699
 H821 H 0.63985 0.76089 0.53721
 H822 H 0.68637 0.75788 0.58329
 H823 H 0.58995 0.72242 0.59148
 H824 H 0.62464 0.74180 0.63634
 C825 C 0.05331 0.76325 0.89839
 C826 C 0.08640 0.74922 0.90225
 C827 C 0.11208 0.75160 0.87184
 C828 C 0.14678 0.74250 0.87518
 H829 H 0.09385 0.73387 0.92600
 H830 H 0.10231 0.76150 0.84604
 H831 H 0.04682 0.77388 0.87178
 H832 H 0.15719 0.73412 0.90123
 C833 C 0.55057 0.20889 0.40404
 C834 C 0.57940 0.23010 0.39900
 C835 C 0.60344 0.22489 0.36753
 C836 C 0.63674 0.23872 0.36780
 H837 H 0.58445 0.25262 0.41721
 H838 H 0.59390 0.20989 0.34415
 H839 H 0.54515 0.18758 0.38450
 H840 H 0.64666 0.25162 0.39226
 C841 C 0.93718 0.75270 0.10451
 C842 C 0.93624 0.74473 0.14013
 C843 C 0.90360 0.74707 0.16367
 C844 C 0.86916 0.74905 0.15217
 H845 H 0.96027 0.73585 0.15396
 H846 H 0.90874 0.74604 0.19250
 H847 H 0.91208 0.76090 0.09236
 H848 H 0.86305 0.74861 0.12359
 C849 C 0.44474 0.26404 0.61102
 C850 C 0.43987 0.24612 0.64207
 C851 C 0.40808 0.25074 0.66600
 C852 C 0.37442 0.25901 0.65483
 H853 H 0.46064 0.22766 0.65123
 H854 H 0.41264 0.24454 0.69425
 H855 H 0.42448 0.28319 0.60219
 H856 H 0.36883 0.26265 0.62632
 C857 C 0.90348 0.25627 0.94284
 C858 C 0.87013 0.27016 0.93961
 C859 C 0.84752 0.26683 0.90705
 C860 C 0.85940 0.25983 0.87328
 H861 H 0.85763 0.28460 0.96184
 H862 H 0.81898 0.27180 0.91165
 H863 H 0.91503 0.24314 0.91941
 H864 H 0.88797 0.25731 0.86733
 C865 C 0.40057 0.73820 0.43530
 C866 C 0.37657 0.76435 0.42840
 C867 C 0.35238 0.76422 0.39679
 C868 C 0.36113 0.75168 0.36369
 H869 H 0.37211 0.78550 0.44830
 H870 H 0.32605 0.77635 0.40117
 H871 H 0.40425 0.71641 0.41598
 H872 H 0.38830 0.74233 0.35786
 C873 C 0.10021 0.06713 0.25770
 C874 C 0.09154 0.09993 0.24434
 C875 C 0.11627 0.13167 0.24521
 C876 C 0.14437 0.13446 0.26782
 H877 H 0.06690 0.10332 0.22904
 H878 H 0.11150 0.15305 0.22576
 H879 H 0.12790 0.06307 0.26619
 H880 H 0.14974 0.11346 0.28741
 C881 C 0.60616 0.57091 0.74404
 C882 C 0.60572 0.59878 0.72066
 C883 C 0.62809 0.63203 0.72440
 C884 C 0.65876 0.63324 0.74345
 H885 H 0.58737 0.59780 0.69789
 H886 H 0.62052 0.65528 0.70829
 H887 H 0.62463 0.57086 0.76665
 H888 H 0.66850 0.60913 0.75677
 C889 C 0.93977 0.10731 0.74227
 C890 C 0.93607 0.14009 0.75780
 C891 C 0.90264 0.16211 0.75808
 C892 C 0.86852 0.15087 0.75110
 H893 H 0.95860 0.15274 0.77150
 H894 H 0.90716 0.19007 0.76586
 H895 H 0.91551 0.09590 0.73117
 H896 H 0.86265 0.12276 0.74513
 C897 C 0.42936 0.59690 0.23709
 C898 C 0.42317 0.62244 0.26208
 C899 C 0.39164 0.64678 0.26203
 C900 C 0.35879 0.63886 0.24851
 H901 H 0.44371 0.62809 0.28218
 H902 H 0.39600 0.67280 0.27497
 H903 H 0.40938 0.59150 0.21642
 H904 H 0.35269 0.61202 0.23831
 C905 C 0.06913 0.91048 0.75043
 C906 C 0.06843 0.87544 0.76073
 C907 C 0.09989 0.85071 0.76279
 C908 C 0.13488 0.85949 0.75766
 H909 H 0.04316 0.86291 0.76867
 H910 H 0.09297 0.82279 0.76871
 H911 H 0.09518 0.92265 0.74540
 H912 H 0.14295 0.88723 0.75275
 C913 C 0.56666 0.40237 0.22772
 C914 C 0.59205 0.40577 0.25338
 C915 C 0.62353 0.38130 0.25545
 C916 C 0.62064 0.34587 0.24821
 H917 H 0.59019 0.42737 0.27319
 H918 H 0.64887 0.39235 0.26522
 H919 H 0.56859 0.38049 0.20820
 H920 H 0.59442 0.33451 0.24149
 C921 C 0.90380 0.93479 0.25088
 C922 C 0.87235 0.93043 0.23370
 C923 C 0.84810 0.89906 0.23816
 C924 C 0.85633 0.86779 0.25477
 H925 H 0.86252 0.95187 0.21638
 H926 H 0.82151 0.90236 0.22637
 H927 H 0.91443 0.91352 0.26782
 H928 H 0.88328 0.86243 0.26465
 C929 C 0.40529 0.44440 0.73766
 C930 C 0.38073 0.44268 0.76429
 C931 C 0.35671 0.41140 0.76978
 C932 C 0.36639 0.37691 0.76357
 H933 H 0.37598 0.46624 0.78119
 H934 H 0.32976 0.41746 0.77968
 H935 H 0.40942 0.42142 0.71987
 H936 H 0.39403 0.37028 0.75631
 C937 C 0.09824 0.25178 0.94109
 C938 C 0.13215 0.26495 0.93981
 C939 C 0.15584 0.26499 0.90773
 C940 C 0.14552 0.26061 0.87313
 H941 H 0.14439 0.27648 0.96379
 H942 H 0.18408 0.27002 0.91374
 H943 H 0.08645 0.24224 0.91621
 H944 H 0.11731 0.25756 0.86600
 C945 C 0.59559 0.70896 0.43619
 C946 C 0.59577 0.73235 0.40870
 C947 C 0.62514 0.73149 0.38184
 C948 C 0.62389 0.75144 0.35185
 H949 H 0.57604 0.75401 0.40768
 H950 H 0.64876 0.71494 0.38718
 H951 H 0.61680 0.68876 0.43772
 H952 H 0.59956 0.76628 0.34513
 C953 C 0.92713 0.74752 0.90738
 C954 C 0.89547 0.76431 0.91324
 C955 C 0.86621 0.76345 0.88588
 C956 C 0.87315 0.76205 0.85012
 H957 H 0.89110 0.78045 0.93734
 H958 H 0.83855 0.76532 0.89550
 H959 H 0.93052 0.73338 0.88185
 H960 H 0.90081 0.76282 0.84038
 C961 C 0.42156 0.22896 0.41892
 C962 C 0.39952 0.25778 0.41931
 C963 C 0.36847 0.26011 0.39444
 C964 C 0.37206 0.24998 0.35984
 H965 H 0.40466 0.28039 0.43732
 H966 H 0.34341 0.27186 0.40414
 H967 H 0.41594 0.20680 0.40043
 H968 H 0.39831 0.24113 0.35006
 C969 C 0.07026 0.75451 0.09624
 C970 C 0.09641 0.77993 0.09583
 C971 C 0.13023 0.77666 0.11722
 C972 C 0.13037 0.76120 0.14993
 H973 H 0.09336 0.80375 0.07909
 H974 H 0.15443 0.79001 0.10728
 H975 H 0.07333 0.73088 0.11326
 H976 H 0.10509 0.75138 0.16123
 C977 C 0.57702 0.24606 0.59984
 C978 C 0.60718 0.26452 0.59064
 C979 C 0.64008 0.26538 0.61391
 C980 C 0.63763 0.26490 0.65013
 H981 H 0.60796 0.27955 0.56552
 H982 H 0.66628 0.26842 0.60103
 H983 H 0.57658 0.23102 0.62497
 H984 H 0.61098 0.26446 0.66247
 C985 C 0.90218 0.26108 0.07487
 C986 C 0.90332 0.23619 0.10116
 C987 C 0.87775 0.23626 0.13201
 C988 C 0.84301 0.24601 0.12849
 H989 H 0.92380 0.21525 0.10044
 H990 H 0.88728 0.22561 0.15753
 H991 H 0.88155 0.28187 0.07562
 H992 H 0.83271 0.25355 0.10215
 C993 C 0.40048 0.75150 0.56854
 C994 C 0.40317 0.73046 0.59801
 C995 C 0.37914 0.73375 0.63012
 C996 C 0.34422 0.74344 0.62806
 H997 H 0.42421 0.71013 0.59918
 H998 H 0.39002 0.72508 0.65585
 H999 H 0.37914 0.77149 0.56716
 H1000 H 0.33245 0.74920 0.60191
 C1001 C 0.23930 0.09843 0.93485
 C1002 C 0.24967 0.13342 0.93642
 C1003 C 0.25296 0.15842 0.90556
 C1004 C 0.25013 0.14967 0.87042
 H1005 H 0.25690 0.14555 0.96208
 H1006 H 0.25814 0.18635 0.91307
 H1007 H 0.23517 0.08638 0.90862
 H1008 H 0.24607 0.12192 0.86187
 C1009 C 0.75438 0.59225 0.42534
 C1010 C 0.73204 0.58788 0.39701
 C1011 C 0.73269 0.61224 0.36519
 C1012 C 0.73811 0.64792 0.36876
 H1013 H 0.71273 0.56577 0.39679
 H1014 H 0.72614 0.60091 0.33895
 H1015 H 0.77332 0.61471 0.42539
 H1016 H 0.74160 0.65927 0.39561
 C1017 C 0.70998 0.04881 0.09679
 C1018 C 0.73235 0.07709 0.10039
 C1019 C 0.72796 0.10289 0.13063
 C1020 C 0.74293 0.13579 0.12923
 H1021 H 0.75501 0.08043 0.08196
 H1022 H 0.71211 0.09502 0.15412
 H1023 H 0.68853 0.04522 0.11660
 H1024 H 0.75652 0.14444 0.10465
 C1025 C 0.23656 0.56499 0.59470
 C1026 C 0.25463 0.56912 0.62578
 C1027 C 0.25146 0.60045 0.65040
 C1028 C 0.24004 0.63377 0.64133
 H1029 H 0.27196 0.54741 0.63501
 H1030 H 0.26090 0.59559 0.67768
 H1031 H 0.21893 0.58624 0.58517
 H1032 H 0.23292 0.64009 0.61368
 C1033 C 0.75850 0.93312 0.89259
 C1034 C 0.73526 0.90506 0.89098
 C1035 C 0.74120 0.87206 0.86889
 C1036 C 0.76048 0.87202 0.83822
 H1037 H 0.71133 0.90532 0.90801
 H1038 H 0.72671 0.84775 0.87680
 H1039 H 0.78228 0.93373 0.87542
 H1040 H 0.77207 0.89707 0.82826
 C1041 C 0.26487 0.43242 0.39760
 C1042 C 0.24175 0.40431 0.39889
 C1043 C 0.24614 0.37066 0.37741
 C1044 C 0.26226 0.36966 0.34490
 H1045 H 0.21918 0.40515 0.41767
 H1046 H 0.23311 0.34645 0.38774
 H1047 H 0.28723 0.43223 0.37859
 H1048 H 0.27237 0.39442 0.33283
 C1049 C 0.24264 0.90245 0.06732
 C1050 C 0.26812 0.87793 0.07478
 C1051 C 0.26662 0.85378 0.10641
 C1052 C 0.25415 0.86329 0.13929
 H1053 H 0.28957 0.87296 0.05533
 H1054 H 0.27768 0.82691 0.10231
 H1055 H 0.22047 0.90643 0.08613
 H1056 H 0.24604 0.89093 0.14485
 C1057 C 0.72375 0.39809 0.56192
 C1058 C 0.74403 0.40047 0.59171
 C1059 C 0.74025 0.37296 0.62022
 C1060 C 0.75467 0.37727 0.65307
 H1061 H 0.76478 0.42113 0.59412
 H1062 H 0.72579 0.34814 0.61386
 H1063 H 0.70455 0.37590 0.55965
 H1064 H 0.76736 0.40273 0.66043
 C1065 C 0.07249 0.10662 0.75402
 C1066 C 0.07448 0.14112 0.76589
 C1067 C 0.10729 0.16434 0.76623
 C1068 C 0.14165 0.15415 0.75944
 H1069 H 0.05060 0.15440 0.77640
 H1070 H 0.10201 0.19243 0.77296
 H1071 H 0.09741 0.09370 0.74603
 H1072 H 0.14825 0.12611 0.75416
 C1073 C 0.56388 0.59950 0.24333
 C1074 C 0.56839 0.63108 0.22615
 C1075 C 0.59975 0.65543 0.23078
 C1076 C 0.63256 0.64566 0.24294
 H1077 H 0.54708 0.64089 0.20870
 H1078 H 0.59531 0.68315 0.22236
 H1079 H 0.58475 0.58946 0.26109
 H1080 H 0.63843 0.61768 0.24927
 C1081 C 0.09906 0.93612 0.24786
 C1082 C 0.09237 0.90636 0.26778
 C1083 C 0.11438 0.87299 0.26530
 C1084 C 0.14947 0.87403 0.25662
 H1085 H 0.06926 0.90585 0.28590
 H1086 H 0.10188 0.84752 0.27289
 H1087 H 0.12206 0.93703 0.22968
 H1088 H 0.16252 0.89994 0.25205
 C1089 C 0.60090 0.43759 0.74021
 C1090 C 0.59179 0.40939 0.76151
 C1091 C 0.61338 0.37570 0.76272
 C1092 C 0.64934 0.37704 0.76032
 H1093 H 0.56743 0.41045 0.77785
 H1094 H 0.59970 0.35013 0.76736
 H1095 H 0.62540 0.43647 0.72408
 H1096 H 0.66250 0.40329 0.75873
 C1097 C 0.90282 0.06942 0.25261
 C1098 C 0.87008 0.07210 0.26803
 C1099 C 0.84451 0.10207 0.26239
 C1100 C 0.85201 0.13362 0.24597
 H1101 H 0.86006 0.05001 0.28454
 H1102 H 0.81748 0.09740 0.27290
 H1103 H 0.91380 0.09151 0.23682
 H1104 H 0.87918 0.14036 0.23730
 C1105 C 0.40859 0.57712 0.72773
 C1106 C 0.41021 0.60364 0.75249
 C1107 C 0.38606 0.63530 0.75139
 C1108 C 0.35177 0.63221 0.74045
 H1109 H 0.42970 0.60227 0.77425
 H1110 H 0.39568 0.66059 0.76281
 H1111 H 0.38893 0.57837 0.70611
 H1112 H 0.34115 0.60594 0.73265
 C1113 C 0.93885 0.91255 0.72565
 C1114 C 0.90810 0.91789 0.74451
 C1115 C 0.87595 0.89402 0.74146
 C1116 C 0.87904 0.85875 0.73382
 H1117 H 0.90628 0.94043 0.76325
 H1118 H 0.84982 0.90502 0.74895
 H1119 H 0.94096 0.89003 0.70696
 H1120 H 0.90565 0.84724 0.72957
 C1121 C 0.43443 0.40016 0.22358
 C1122 C 0.40738 0.40349 0.24766
 C1123 C 0.37562 0.37921 0.24807
 C1124 C 0.37820 0.34402 0.23986
 H1125 H 0.40795 0.42519 0.26744
 H1126 H 0.35027 0.39006 0.25809
 H1127 H 0.43409 0.37823 0.20405
 H1128 H 0.40433 0.33247 0.23324
   
