data_POSCAR
  _audit_creation_date              2014-09-24
  _audit_creation_method            'ToBaCCo'
  _symmetry_space_group_name_H-M    'P1'
  _symmetry_Int_Tables_number       1
  _symmetry_cell_setting            triclinic
  loop_
  _symmetry_equiv_pos_as_xyz
 x,y,z
_cell_length_a 26.4899
_cell_length_b 26.3354
_cell_length_c 43.6115
_cell_angle_alpha 90.015400
_cell_angle_beta 90.473700
_cell_angle_gamma 85.176500
loop_
  _atom_site_label
  _atom_site_type_symbol
  _atom_site_fract_x
  _atom_site_fract_y
  _atom_site_fract_z
O1 O -0.03132 0.55680 0.96978
 O2 O -0.04005 0.45895 1.02951
 O3 O -0.03309 0.55708 1.02945
 O4 O -0.03966 0.45911 0.96973
 O5 O 0.04370 0.44608 0.97030
 O6 O 0.05014 0.54275 1.03100
 O7 O 0.04310 0.44448 1.02977
 O8 O 0.05207 0.54422 0.97154
 Cu9 Cu -0.04438 0.50931 0.99954
 Cu10 Cu 0.05559 0.49301 1.00075
 C11 C 0.01197 0.56759 0.96070
 C12 C 0.00006 0.43451 1.03970
 C13 C 0.00961 0.56682 1.04041
 C14 C 0.00085 0.43580 0.95978
 O15 O 0.55267 -0.04365 0.53100
 O16 O 0.45624 -0.04706 0.47007
 O17 O 0.55392 -0.04103 0.47119
 O18 O 0.45518 -0.04946 0.52954
 O19 O 0.44449 0.03445 0.53149
 O20 O 0.54068 0.04277 0.47170
 O21 O 0.44291 0.03669 0.47194
 O22 O 0.54253 0.04026 0.53126
 Cu23 Cu 0.50580 -0.05369 0.50032
 Cu24 Cu 0.49149 0.04695 0.50173
 C25 C 0.56458 -0.00116 0.54145
 C26 C 0.43255 -0.00588 0.46086
 C27 C 0.56406 0.00235 0.46136
 C28 C 0.43288 -0.00892 0.54048
 C29 C 0.08804 0.03431 0.27252
 H30 H 0.08459 0.06080 0.25358
 C31 C 0.13106 0.03262 0.29139
 H32 H 0.16014 0.05802 0.28671
 C33 C 0.05601 -0.03274 0.30057
 H34 H 0.02723 -0.05872 0.30391
 C35 C 0.09826 -0.03565 0.31999
 H36 H 0.10065 -0.06319 0.33847
 N37 N 0.05141 0.00200 0.27742
 C38 C -0.04227 -0.06694 0.20927
 H39 H -0.07637 -0.04130 0.20978
 C40 C -0.03988 -0.10990 0.19038
 H41 H -0.07229 -0.11677 0.17616
 C42 C 0.04203 -0.08781 0.22648
 H43 H 0.07400 -0.07878 0.24040
 C44 C 0.04603 -0.13121 0.20798
 H45 H 0.08098 -0.15567 0.20826
 Zn46 Zn -0.00584 0.00341 0.25060
 N47 N -0.00151 -0.05655 0.22661
 C48 C -0.00247 0.05457 0.19355
 N49 N -0.00599 0.06126 0.22443
 C50 C -0.00838 0.10872 0.23700
 C51 C -0.00914 0.15181 0.21828
 C52 C -0.00234 0.09656 0.17403
 C53 C -0.07669 -0.03701 0.28954
 C54 C -0.11921 -0.03673 0.30829
 C55 C -0.14258 0.05006 0.29274
 C56 C -0.09961 0.04810 0.27432
 N57 N -0.06673 0.00552 0.27374
 H58 H 0.00042 0.01665 0.18394
 H59 H -0.00978 0.11307 0.26165
 H60 H -0.01130 0.18930 0.22864
 H61 H -0.00003 0.09057 0.14949
 H62 H -0.05162 -0.07136 0.28761
 H63 H -0.12534 -0.07048 0.32145
 H64 H -0.16794 0.08451 0.29304
 H65 H -0.09272 0.08089 0.26071
 C66 C 0.00487 -0.14254 0.18940
 C67 C 0.13666 -0.00284 0.31547
 C68 C -0.15237 0.00758 0.31050
 C69 C -0.00615 0.14592 0.18637
 C70 C -0.01209 0.10624 0.76182
 H71 H -0.01774 0.10969 0.73728
 C72 C -0.01357 0.14992 0.78009
 H73 H -0.01996 0.18705 0.76942
 C74 C 0.00359 0.05350 0.80547
 H75 H 0.00967 0.01589 0.81537
 C76 C 0.00277 0.09611 0.82453
 H77 H 0.00807 0.09077 0.84900
 N78 N -0.00311 0.05926 0.77467
 C79 C 0.06687 -0.04285 0.70574
 H80 H 0.04145 -0.07292 0.70608
 C81 C 0.10936 -0.04714 0.68690
 H82 H 0.11611 -0.08044 0.67248
 C83 C 0.08846 0.03735 0.72399
 H84 H 0.08061 0.06987 0.73879
 C85 C 0.13128 0.03473 0.70541
 H86 H 0.15604 0.06539 0.70615
 Zn87 Zn -0.00109 0.00155 0.74870
 N88 N 0.05698 -0.00088 0.72356
 C89 C -0.05696 0.00844 0.69298
 N90 N -0.06066 0.00671 0.72406
 C91 C -0.10661 0.00970 0.73797
 C92 C -0.15111 0.01137 0.72045
 C93 C -0.10050 0.01110 0.67461
 C94 C 0.04833 -0.07179 0.78718
 C95 C 0.05406 -0.11460 0.80616
 C96 C -0.03237 -0.13085 0.79450
 C97 C -0.03616 -0.08818 0.77535
 N98 N 0.00349 -0.05891 0.77263
 H99 H -0.02027 0.00753 0.68231
 H100 H -0.10860 0.00986 0.76274
 H101 H -0.18740 0.01253 0.73180
 H102 H -0.09688 0.01135 0.64989
 H103 H 0.07958 -0.04834 0.78424
 H104 H 0.09027 -0.12412 0.81729
 H105 H -0.06524 -0.15212 0.79724
 H106 H -0.07116 -0.07823 0.76317
 C107 C 0.14210 -0.00788 0.68648
 C108 C -0.00569 0.14511 0.81187
 C109 C 0.01307 -0.14441 0.81050
 C110 C -0.14821 0.01170 0.68835
 C111 C 0.01585 -0.31373 0.10653
 C112 C 0.06096 -0.34096 0.09708
 C113 C 0.05894 -0.38031 0.07577
 C114 C 0.01218 -0.39294 0.06395
 C115 C -0.03207 -0.36566 0.07456
 N116 N -0.02913 -0.32736 0.09522
 C117 C 0.01539 -0.27061 0.12840
 N118 N -0.02801 -0.25680 0.14392
 C119 C -0.03210 -0.21671 0.16365
 C120 C 0.00908 -0.18735 0.16857
 C121 C 0.05415 -0.20079 0.15272
 C122 C 0.05746 -0.24217 0.13264
 H123 H 0.09401 -0.40066 0.06846
 H124 H -0.06898 -0.37431 0.06624
 H125 H -0.06745 -0.20805 0.17556
 H126 H 0.08649 -0.17853 0.15523
 H127 H 0.09746 -0.33258 0.10613
 H128 H 0.09214 -0.25052 0.12004
 C129 C -0.00802 0.31753 0.10472
 C130 C -0.05246 0.34681 0.09587
 C131 C -0.04991 0.38575 0.07435
 C132 C -0.00310 0.39605 0.06177
 C133 C 0.04050 0.36594 0.07156
 N134 N 0.03685 0.32780 0.09218
 C135 C -0.00875 0.27444 0.12635
 N136 N 0.02616 0.23384 0.12314
 C137 C 0.02765 0.19261 0.14195
 C138 C -0.00702 0.19095 0.16599
 C139 C -0.04273 0.23277 0.17013
 C140 C -0.04390 0.27447 0.15029
 H141 H -0.08469 0.40758 0.06755
 H142 H 0.07746 0.37201 0.06253
 H143 H 0.05621 0.16137 0.13829
 H144 H -0.07013 0.23285 0.18843
 H145 H -0.08899 0.33895 0.10480
 H146 H -0.07148 0.30655 0.15396
 C147 C 0.31375 -0.01703 0.60558
 C148 C 0.33727 -0.06219 0.59313
 C149 C 0.37664 -0.05959 0.57226
 C150 C 0.39256 -0.01225 0.56351
 C151 C 0.36818 0.03192 0.57648
 N152 N 0.32994 0.02843 0.59675
 C153 C 0.27055 -0.01671 0.62705
 N154 N 0.24134 0.02778 0.63127
 C155 C 0.20071 0.03159 0.65019
 C156 C 0.18708 -0.01127 0.66628
 C157 C 0.21693 -0.05742 0.66262
 C158 C 0.25874 -0.06030 0.64323
 H159 H 0.39406 -0.09464 0.56262
 H160 H 0.37910 0.06926 0.57035
 H161 H 0.17857 0.06787 0.65218
 H162 H 0.20837 -0.09114 0.67511
 H163 H 0.32497 -0.09917 0.59862
 H164 H 0.28157 -0.09613 0.64150
 C165 C -0.32033 0.00283 0.60821
 C166 C -0.33733 -0.04411 0.59950
 C167 C -0.37550 -0.04549 0.57738
 C168 C -0.39751 -0.00010 0.56412
 C169 C -0.37970 0.04619 0.57389
 N170 N -0.34171 0.04638 0.59505
 C171 C -0.27797 0.00571 0.63017
 N172 N -0.24399 0.04093 0.62561
 C173 C -0.20287 0.04413 0.64416
 C174 C -0.19444 0.01089 0.66916
 C175 C -0.22978 -0.02467 0.67482
 C176 C -0.27143 -0.02759 0.65529
 H177 H -0.38763 -0.08220 0.57069
 H178 H -0.39512 0.08220 0.56433
 H179 H -0.17667 0.07245 0.63931
 H180 H -0.22443 -0.05101 0.69386
 H181 H -0.32033 -0.07954 0.60902
 H182 H -0.29823 -0.05546 0.65984
 C183 C 0.02096 -0.31245 0.89559
 C184 C 0.06395 -0.32906 0.91304
 C185 C 0.06128 -0.36885 0.93392
 C186 C 0.01579 -0.39179 0.93767
 C187 C -0.02612 -0.37451 0.91947
 N188 N -0.02245 -0.33601 0.89905
 C189 C 0.02156 -0.26983 0.87364
 N190 N -0.00734 -0.27019 0.84772
 C191 C -0.00979 -0.23143 0.82704
 C192 C 0.01721 -0.18838 0.83216
 C193 C 0.04707 -0.18734 0.85892
 C194 C 0.04956 -0.22796 0.87954
 H195 H 0.09455 -0.38113 0.94745
 H196 H -0.06174 -0.39154 0.92144
 H197 H -0.03272 -0.23453 0.80660
 H198 H 0.06750 -0.15459 0.86443
 H199 H 0.09936 -0.31186 0.91042
 H200 H 0.07182 -0.22576 0.90035
 C201 C -0.00676 0.31826 0.89261
 C202 C -0.05076 0.34929 0.89989
 C203 C -0.04821 0.38797 0.92159
 C204 C -0.00200 0.39598 0.93604
 C205 C 0.04113 0.36432 0.92797
 N206 N 0.03761 0.32661 0.90698
 C207 C -0.00752 0.27512 0.87090
 N208 N 0.02813 0.23510 0.87409
 C209 C 0.02955 0.19360 0.85551
 C210 C -0.00628 0.19079 0.83181
 C211 C -0.04276 0.23206 0.82765
 C212 C -0.04356 0.27423 0.84712
 H213 H -0.08250 0.41129 0.92724
 H214 H 0.07748 0.36894 0.93866
 H215 H 0.05889 0.16300 0.85915
 H216 H -0.07112 0.23139 0.80966
 H217 H -0.08708 0.34306 0.88969
 H218 H -0.07174 0.30579 0.84327
 C219 C -0.31897 0.01211 0.39503
 C220 C -0.34631 0.05683 0.40533
 C221 C -0.38466 0.05360 0.42680
 C222 C -0.39627 0.00600 0.43794
 C223 C -0.36888 -0.03785 0.42655
 N224 N -0.33152 -0.03372 0.40572
 C225 C -0.27698 0.01311 0.37285
 N226 N -0.26334 -0.02963 0.35628
 C227 C -0.22437 -0.03217 0.33609
 C228 C -0.19611 0.01001 0.33173
 C229 C -0.20939 0.05438 0.34868
 C230 C -0.24953 0.05608 0.36923
 H231 H -0.40516 0.08841 0.43468
 H232 H -0.37678 -0.07536 0.43433
 H233 H -0.21575 -0.06705 0.32336
 H234 H -0.18789 0.08740 0.34665
 H235 H -0.33885 0.09397 0.39678
 H236 H -0.25772 0.09026 0.38266
 C237 C 0.31192 -0.01154 0.39540
 C238 C 0.34406 -0.05569 0.40153
 C239 C 0.38368 -0.05367 0.42264
 C240 C 0.39202 -0.00778 0.43743
 C241 C 0.36013 0.03581 0.42999
 N242 N 0.32141 0.03280 0.40958
 C243 C 0.26784 -0.01140 0.37415
 N244 N 0.24606 0.03415 0.36378
 C245 C 0.20478 0.03785 0.34492
 C246 C 0.18244 -0.00616 0.33554
 C247 C 0.20419 -0.05352 0.34597
 C248 C 0.24653 -0.05634 0.36529
 H249 H 0.40776 -0.08811 0.42740
 H250 H 0.36532 0.07208 0.44073
 H251 H 0.18890 0.07523 0.33782
 H252 H 0.18860 -0.08853 0.33911
 H253 H 0.33935 -0.09146 0.39018
 H254 H 0.26132 -0.09338 0.37350
   
