data_POSCAR
  _audit_creation_date              2014-09-24
  _audit_creation_method            'ToBaCCo'
  _symmetry_space_group_name_H-M    'P1'
  _symmetry_Int_Tables_number       1
  _symmetry_cell_setting            triclinic
  loop_
  _symmetry_equiv_pos_as_xyz
 x,y,z
_cell_length_a 40.9590
_cell_length_b 43.3152
_cell_length_c 41.5892
_cell_angle_alpha 90.916500
_cell_angle_beta 93.973100
_cell_angle_gamma 94.223700
loop_
  _atom_site_label
  _atom_site_type_symbol
  _atom_site_fract_x
  _atom_site_fract_y
  _atom_site_fract_z
C1 C 0.20098 0.48879 1.03903
 H2 H 0.20029 0.50762 1.02226
 C3 C 0.17956 0.48709 1.06364
 H4 H 0.16217 0.50463 1.06455
 C5 C 0.22308 0.44212 1.05533
 H6 H 0.23990 0.42449 1.05171
 C7 C 0.20195 0.43934 1.08029
 H8 H 0.20415 0.41996 1.09615
 N9 N 0.22227 0.46665 1.03544
 C10 C 0.29930 0.50881 0.98098
 H11 H 0.29745 0.49245 0.96089
 C12 C 0.32604 0.53062 0.98495
 H13 H 0.34459 0.53140 0.96757
 C14 C 0.27862 0.52623 1.02945
 H15 H 0.26091 0.52347 1.04745
 C16 C 0.30474 0.54890 1.03401
 H17 H 0.30678 0.56385 1.05529
 Zn18 Zn 0.24807 0.47039 0.99974
 N19 N 0.27675 0.50649 1.00347
 C20 C 0.21680 0.49742 0.94551
 N21 N 0.21894 0.47125 0.96290
 C22 C 0.19754 0.44605 0.95680
 C23 C 0.17222 0.44671 0.93273
 C24 C 0.19154 0.49924 0.92142
 C25 C 0.29949 0.43749 1.02174
 C26 C 0.32614 0.41972 1.01900
 C27 C 0.30275 0.40144 0.96655
 C28 C 0.27655 0.41987 0.97017
 N29 N 0.27584 0.43786 0.99722
 H30 H 0.23367 0.51742 0.95135
 H31 H 0.19961 0.42573 0.97139
 H32 H 0.15530 0.42643 0.92843
 H33 H 0.18924 0.52079 0.90893
 H34 H 0.29865 0.45257 1.04261
 H35 H 0.34545 0.42061 1.03824
 H36 H 0.30397 0.38832 0.94433
 H37 H 0.25804 0.42127 0.95055
 C38 C 0.32925 0.55048 1.01206
 C39 C 0.17951 0.46203 1.08498
 C40 C 0.32846 0.40219 0.99073
 C41 C 0.16840 0.47386 0.91525
 C42 C 0.80002 0.54140 -0.04525
 H43 H 0.79366 0.55916 -0.02871
 C44 C 0.82315 0.54849 -0.06758
 H45 H 0.83399 0.57200 -0.06834
 C46 C 0.79332 0.48925 -0.06403
 H47 H 0.78222 0.46601 -0.06198
 C48 C 0.81672 0.49526 -0.08657
 H49 H 0.82339 0.47643 -0.10162
 N50 N 0.78553 0.51225 -0.04391
 C51 C 0.70406 0.53690 0.01115
 H52 H 0.70778 0.52321 0.03244
 C53 C 0.67922 0.55741 0.00933
 H54 H 0.66394 0.55961 0.02937
 C55 C 0.71864 0.55004 -0.04134
 H56 H 0.73364 0.54669 -0.06130
 C57 C 0.69357 0.57022 -0.04447
 H58 H 0.68975 0.58267 -0.06663
 Zn59 Zn 0.75667 0.50542 -0.01062
 N60 N 0.72367 0.53411 -0.01369
 C61 C 0.78079 0.53449 0.04977
 N62 N 0.78325 0.51056 0.02870
 C63 C 0.80701 0.49045 0.03356
 C64 C 0.82945 0.49389 0.06047
 C65 C 0.80270 0.53876 0.07707
 C66 C 0.71824 0.45679 -0.04262
 C67 C 0.70023 0.42815 -0.04620
 C68 C 0.71620 0.41760 0.00932
 C69 C 0.73436 0.44628 0.01170
 N70 N 0.73504 0.46520 -0.01410
 H71 H 0.76250 0.55087 0.04507
 H72 H 0.80893 0.47204 0.01605
 H73 H 0.84867 0.47808 0.06330
 H74 H 0.80033 0.55797 0.09350
 H75 H 0.71858 0.47256 -0.06252
 H76 H 0.68667 0.42200 -0.06896
 H77 H 0.71557 0.40292 0.03014
 H78 H 0.74718 0.45373 0.03440
 C79 C 0.67375 0.57424 -0.01880
 C80 C 0.83226 0.52519 -0.08833
 C81 C 0.69883 0.40829 -0.01992
 C82 C 0.82768 0.51847 0.08257
 C83 C -0.00866 0.30565 0.48016
 H84 H -0.02491 0.30204 0.49940
 C85 C -0.01531 0.32737 0.45670
 H86 H -0.03638 0.34059 0.45929
 C87 C 0.03968 0.29383 0.45614
 H88 H 0.06116 0.28075 0.45617
 C89 C 0.03409 0.31552 0.43210
 H90 H 0.05118 0.31764 0.41345
 N91 N 0.01821 0.28918 0.47936
 C92 C -0.00663 0.20651 0.53251
 H93 H 0.01411 0.20799 0.55019
 C94 C -0.02883 0.18053 0.53112
 H95 H -0.02530 0.16205 0.54795
 C96 C -0.03595 0.22849 0.48843
 H97 H -0.03811 0.24684 0.47131
 C98 C -0.05916 0.20307 0.48656
 H99 H -0.07923 0.20204 0.46811
 Zn100 Zn 0.02388 0.26136 0.51364
 N101 N -0.01035 0.22968 0.51121
 C102 C -0.00226 0.27947 0.57184
 N103 N 0.02281 0.28461 0.55231
 C104 C 0.04600 0.30847 0.55822
 C105 C 0.04417 0.32874 0.58433
 C106 C -0.00516 0.29932 0.59812
 C107 C 0.06670 0.22175 0.48742
 C108 C 0.08985 0.19956 0.48944
 C109 C 0.10585 0.21742 0.54397
 C110 C 0.08267 0.23946 0.54081
 N111 N 0.06303 0.24064 0.51317
 H112 H -0.02084 0.26077 0.56631
 H113 H 0.06547 0.31218 0.54208
 H114 H 0.06275 0.34775 0.58844
 H115 H -0.02607 0.29565 0.61252
 H116 H 0.05004 0.22241 0.46613
 H117 H 0.09115 0.18354 0.46939
 H118 H 0.12017 0.21577 0.56668
 H119 H 0.07873 0.25394 0.56136
 C120 C -0.05531 0.17856 0.50779
 C121 C 0.00604 0.33282 0.43181
 C122 C 0.10887 0.19645 0.51845
 C123 C 0.01789 0.32474 0.60425
 C124 C 0.94110 0.72203 0.51645
 H125 H 0.92186 0.72460 0.49772
 C126 C 0.93680 0.69963 0.53963
 H127 H 0.91365 0.68580 0.53895
 C128 C 0.99439 0.73747 0.53960
 H129 H 1.01700 0.75193 0.53889
 C130 C 0.99153 0.71449 0.56282
 H131 H 1.01228 0.71141 0.57971
 N132 N 0.96942 0.74044 0.51682
 C133 C 0.92974 0.80724 0.45071
 H134 H 0.94579 0.80628 0.43119
 C135 C 0.90345 0.82610 0.44845
 H136 H 0.89928 0.83964 0.42708
 C137 C 0.91667 0.79221 0.50312
 H138 H 0.92247 0.77983 0.52485
 C139 C 0.89049 0.81104 0.50205
 H140 H 0.87591 0.81240 0.52271
 Zn141 Zn 0.97253 0.76648 0.48107
 N142 N 0.93549 0.79034 0.47754
 C143 C 0.94881 0.73581 0.42159
 N144 N 0.97356 0.73911 0.44523
 C145 C 0.99799 0.71947 0.44693
 C146 C 0.99778 0.69489 0.42480
 C147 C 0.94782 0.71170 0.39871
 C148 C 1.01014 0.81645 0.50974
 C149 C 1.03353 0.84162 0.51186
 C150 C 1.05763 0.82114 0.46537
 C151 C 1.03342 0.79645 0.46387
 N152 N 1.01002 0.79489 0.48562
 H153 H 0.92899 0.75092 0.42118
 H154 H 1.01687 0.72207 0.46651
 H155 H 1.01669 0.67877 0.42768
 H156 H 0.92777 0.70938 0.38026
 H157 H 0.99104 0.81480 0.52648
 H158 H 1.03259 0.85912 0.53060
 H159 H 1.07538 0.82280 0.44723
 H160 H 1.03250 0.77940 0.44451
 C161 C 0.88366 0.82828 0.47449
 C162 C 0.96256 0.69478 0.56268
 C163 C 1.05722 0.84455 0.48907
 C164 C 0.97214 0.69038 0.40053
 C165 C 0.44060 -0.02105 0.28233
 H166 H 0.46070 -0.03543 0.28759
 C167 C 0.41317 -0.02410 0.30037
 H168 H 0.41204 -0.04136 0.31890
 C169 C 0.41897 0.02070 0.25387
 H170 H 0.42188 0.03899 0.23677
 C171 C 0.39082 0.01822 0.27124
 H172 H 0.37224 0.03454 0.26716
 N173 N 0.44330 0.00130 0.25987
 C174 C 0.50609 -0.01818 0.18612
 H175 H 0.51531 0.00546 0.18276
 C176 C 0.50876 -0.04008 0.16180
 H177 H 0.52071 -0.03254 0.14058
 C178 C 0.48160 -0.05621 0.21882
 H179 H 0.47049 -0.06235 0.24084
 C180 C 0.48425 -0.07915 0.19521
 H181 H 0.47436 -0.10241 0.19964
 Zn182 Zn 0.48506 0.00675 0.24262
 N183 N 0.49175 -0.02622 0.21358
 C184 C 0.54068 -0.01104 0.28153
 N185 N 0.51609 0.00837 0.27826
 C186 C 0.51165 0.02976 0.30148
 C187 C 0.53227 0.03223 0.32957
 C188 C 0.56201 -0.00935 0.30940
 C189 C 0.46943 0.04864 0.19368
 C190 C 0.47614 0.07297 0.17295
 C191 C 0.52545 0.08802 0.20650
 C192 C 0.51759 0.06367 0.22684
 N193 N 0.49025 0.04425 0.21986
 H194 H 0.54351 -0.02799 0.26275
 H195 H 0.49181 0.04483 0.29813
 H196 H 0.52840 0.04959 0.34766
 H197 H 0.58114 -0.02528 0.31205
 H198 H 0.44861 0.03219 0.18788
 H199 H 0.46000 0.07542 0.15155
 H200 H 0.54782 0.10268 0.21178
 H201 H 0.53438 0.05933 0.24716
 C202 C 0.49699 -0.07113 0.16550
 C203 C 0.38818 -0.00390 0.29539
 C204 C 0.50488 0.09252 0.17888
 C205 C 0.55768 0.01235 0.33397
 C206 C 0.53499 -0.05474 0.71403
 H207 H 0.51929 -0.07498 0.71920
 C208 C 0.55630 -0.05603 0.68943
 H209 H 0.55737 -0.07780 0.67660
 C210 C 0.55273 -0.00220 0.72550
 H211 H 0.55070 0.01884 0.73933
 C212 C 0.57363 -0.00214 0.70031
 H213 H 0.58723 0.01931 0.69500
 N214 N 0.53386 -0.02825 0.73171
 C215 C 0.48511 -0.06799 0.81314
 H216 H 0.46356 -0.05501 0.81338
 C217 C 0.49047 -0.09035 0.83641
 H218 H 0.47267 -0.09493 0.85415
 C219 C 0.53585 -0.07626 0.79151
 H220 H 0.55415 -0.06991 0.77486
 C221 C 0.54251 -0.09823 0.81475
 H222 H 0.56545 -0.10921 0.81523
 Zn223 Zn 0.50223 -0.02817 0.76260
 N224 N 0.50746 -0.06169 0.79096
 C225 C 0.43536 -0.05137 0.74346
 N226 N 0.46080 -0.03025 0.73887
 C227 C 0.45873 -0.00941 0.71488
 C228 C 0.43046 -0.00924 0.69427
 C229 C 0.40617 -0.05156 0.72376
 C230 C 0.53485 0.01056 0.81003
 C231 C 0.53840 0.03395 0.83373
 C232 C 0.48822 0.05371 0.81136
 C233 C 0.48524 0.02951 0.78843
 N234 N 0.50818 0.00831 0.78853
 H235 H 0.43761 -0.06826 0.76212
 H236 H 0.47949 0.00680 0.71137
 H237 H 0.43033 0.00685 0.67465
 H238 H 0.38608 -0.06820 0.72825
 H239 H 0.55254 -0.00677 0.80972
 H240 H 0.55899 0.03469 0.85161
 H241 H 0.46921 0.06978 0.81189
 H242 H 0.46397 0.02703 0.77147
 C243 C 0.51968 -0.10542 0.83755
 C244 C 0.57568 -0.02935 0.68174
 C245 C 0.51457 0.05549 0.83488
 C246 C 0.40345 -0.03039 0.69851
 C247 C 0.25443 0.01133 0.49720
 C248 C 0.74764 0.01504 0.51326
 C249 C 0.50340 0.24469 0.98984
 C250 C 0.50413 0.73485 0.01797
 C251 C 1.01731 0.50097 0.25801
 C252 C -0.00294 0.52831 0.73358
 C253 C 0.14923 0.16015 0.49969
 C254 C 0.16628 0.13329 0.50366
 C255 C 0.16241 0.11518 0.53134
 C256 C 0.14230 0.12467 0.55497
 C257 C 0.12577 0.15157 0.55104
 C258 C 0.12877 0.16940 0.52330
 C259 C 0.17854 0.08781 0.53489
 C260 C 0.19895 0.07852 0.51135
 C261 C 0.20356 0.09706 0.48423
 C262 C 0.18704 0.12418 0.48036
 C263 C 0.22502 0.08840 0.46159
 C264 C 0.24150 0.06147 0.46541
 C265 C 0.23602 0.04139 0.49139
 C266 C 0.21499 0.05106 0.51468
 H267 H 0.15181 0.17386 0.47830
 H268 H 0.13910 0.11114 0.57637
 H269 H 0.10979 0.15798 0.56933
 H270 H 0.17524 0.07378 0.55596
 H271 H 0.19039 0.13821 0.45931
 H272 H 0.22955 0.10282 0.44106
 H273 H 0.25892 0.05738 0.44791
 H274 H 0.21111 0.03693 0.53557
 C275 C 0.64526 0.61916 0.00126
 C276 C 0.61947 0.63886 -0.00118
 C277 C 0.59459 0.63411 -0.02649
 C278 C 0.59654 0.61040 -0.04950
 C279 C 0.62264 0.59132 -0.04725
 C280 C 0.64690 0.59528 -0.02168
 C281 C 0.56807 0.65293 -0.02821
 C282 C 0.56623 0.67660 -0.00510
 C283 C 0.59170 0.68206 0.01941
 C284 C 0.61811 0.66312 0.02132
 C285 C 0.59030 0.70638 0.04170
 C286 C 0.56319 0.72417 0.04083
 C287 C 0.53600 0.71741 0.01831
 C288 C 0.53900 0.69453 -0.00578
 H289 H 0.66419 0.62247 0.02082
 H290 H 0.57781 0.60654 -0.06915
 H291 H 0.62357 0.57300 -0.06512
 H292 H 0.54870 0.64892 -0.04728
 H293 H 0.63741 0.66709 0.04047
 H294 H 0.61018 0.71159 0.05999
 H295 H 0.56402 0.74313 0.05807
 H296 H 0.51924 0.68980 -0.02431
 C297 C 0.85560 -0.12949 0.49999
 C298 C 0.83168 -0.10798 0.49931
 C299 C 0.80853 -0.10752 0.47250
 C300 C 0.80990 -0.12860 0.44673
 C301 C 0.83435 -0.14953 0.44729
 C302 C 0.85733 -0.15013 0.47390
 C303 C 0.78505 -0.08547 0.47153
 C304 C 0.78546 -0.06301 0.49632
 C305 C 0.80875 -0.06350 0.52296
 C306 C 0.83125 -0.08633 0.52463
 C307 C 0.80975 -0.04064 0.54717
 C308 C 0.78934 -0.01638 0.54405
 C309 C 0.76708 -0.01430 0.51675
 C310 C 0.76384 -0.03931 0.49417
 H311 H 0.87360 -0.12955 0.52038
 H312 H 0.79244 -0.12854 0.42594
 H313 H 0.83525 -0.16540 0.42703
 H314 H 0.76739 -0.08501 0.45090
 H315 H 0.84916 -0.08659 0.54509
 H316 H 0.82720 -0.04085 0.56797
 H317 H 0.79193 0.00174 0.56248
 H318 H 0.74531 -0.04033 0.47434
 C319 C 0.35785 0.35582 0.97562
 C320 C 0.38711 0.34111 0.97360
 C321 C 0.41764 0.35816 0.98086
 C322 C 0.41849 0.38961 0.98937
 C323 C 0.38937 0.40382 0.99203
 C324 C 0.35888 0.38700 0.98575
 C325 C 0.44681 0.34327 0.98089
 C326 C 0.44587 0.31125 0.97526
 C327 C 0.41559 0.29426 0.96720
 C328 C 0.38638 0.30940 0.96579
 C329 C 0.41498 0.26222 0.96194
 C330 C 0.44363 0.24689 0.96740
 C331 C 0.47366 0.26317 0.97847
 C332 C 0.47468 0.29585 0.97954
 H333 H 0.33435 0.34278 0.97077
 H334 H 0.44167 0.40301 0.99485
 H335 H 0.39061 0.42804 0.99926
 H336 H 0.47010 0.35632 0.98706
 H337 H 0.36305 0.29626 0.96014
 H338 H 0.39210 0.24880 0.95513
 H339 H 0.44194 0.22188 0.96507
 H340 H 0.49737 0.30978 0.98511
 C341 C 0.88800 0.15244 0.50547
 C342 C 0.86680 0.12541 0.50486
 C343 C 0.87988 0.09614 0.50294
 C344 C 0.91377 0.09434 0.50177
 C345 C 0.93469 0.12127 0.50311
 C346 C 0.92203 0.15042 0.50510
 C347 C 0.85900 0.06909 0.50284
 C348 C 0.82528 0.07079 0.50556
 C349 C 0.81209 0.09991 0.50753
 C350 C 0.83288 0.12711 0.50683
 C351 C 0.77833 0.10125 0.51025
 C352 C 0.75805 0.07402 0.51198
 C353 C 0.77101 0.04468 0.51157
 C354 C 0.80473 0.04363 0.50673
 H355 H 0.87823 0.17495 0.50725
 H356 H 0.92415 0.07210 0.50031
 H357 H 0.96087 0.11938 0.50257
 H358 H 0.86911 0.04668 0.50143
 H359 H 0.82279 0.14950 0.50837
 H360 H 0.76762 0.12335 0.51130
 H361 H 0.73204 0.07576 0.51413
 H362 H 0.81543 0.02181 0.50358
 C363 C 0.35779 0.60322 0.02130
 C364 C 0.38679 0.62275 0.02480
 C365 C 0.41758 0.60978 0.02653
 C366 C 0.41887 0.57758 0.02476
 C367 C 0.38997 0.55841 0.02033
 C368 C 0.35935 0.57107 0.01835
 C369 C 0.44659 0.62917 0.02892
 C370 C 0.44530 0.66139 0.02807
 C371 C 0.41461 0.67438 0.02638
 C372 C 0.38553 0.65502 0.02541
 C373 C 0.41350 0.70651 0.02490
 C374 C 0.44236 0.72543 0.02313
 C375 C 0.47325 0.71282 0.02280
 C376 C 0.47429 0.68067 0.02757
 H377 H 0.33411 0.61297 0.01956
 H378 H 0.44222 0.56726 0.02601
 H379 H 0.39146 0.53359 0.01831
 H380 H 0.47014 0.61915 0.03001
 H381 H 0.36197 0.66503 0.02393
 H382 H 0.39023 0.71697 0.02403
 H383 H 0.44052 0.75011 0.02072
 H384 H 0.49733 0.67006 0.03026
 C385 C 0.11346 -0.12819 0.48634
 C386 C 0.13422 -0.10076 0.48665
 C387 C 0.12062 -0.07173 0.48846
 C388 C 0.08671 -0.07056 0.49019
 C389 C 0.06640 -0.09784 0.49050
 C390 C 0.07947 -0.12686 0.48864
 C391 C 0.14113 -0.04431 0.48898
 C392 C 0.17526 -0.04539 0.48867
 C393 C 0.18892 -0.07430 0.48711
 C394 C 0.16834 -0.10182 0.48572
 C395 C 0.22300 -0.07518 0.48733
 C396 C 0.24337 -0.04781 0.49011
 C397 C 0.23047 -0.01845 0.49271
 C398 C 0.19584 -0.01790 0.49057
 H399 H 0.12372 -0.15050 0.48505
 H400 H 0.07590 -0.04853 0.49159
 H401 H 0.04025 -0.09629 0.49187
 H402 H 0.13057 -0.02212 0.49037
 H403 H 0.17891 -0.12401 0.48450
 H404 H 0.23401 -0.09711 0.48598
 H405 H 0.26964 -0.04966 0.49114
 H406 H 0.18417 0.00357 0.49060
 C407 C 0.65566 0.37121 1.00066
 C408 C 0.63350 0.34490 0.99650
 C409 C 0.63424 0.32536 0.96902
 C410 C 0.65736 0.33235 0.94636
 C411 C 0.67878 0.35899 0.95030
 C412 C 0.67794 0.37879 0.97727
 C413 C 0.61114 0.29982 0.96408
 C414 C 0.58646 0.29430 0.98556
 C415 C 0.58596 0.31371 1.01310
 C416 C 0.60980 0.33852 1.01873
 C417 C 0.56098 0.30863 1.03407
 C418 C 0.53562 0.28580 1.02686
 C419 C 0.53449 0.26697 0.99858
 C420 C 0.56149 0.27051 0.97909
 H421 H 0.65457 0.38659 1.02133
 H422 H 0.65831 0.31765 0.92517
 H423 H 0.69593 0.36431 0.93212
 H424 H 0.61154 0.28507 0.94281
 H425 H 0.60913 0.35355 1.03975
 H426 H 0.56031 0.32315 1.05544
 H427 H 0.51578 0.28382 1.04278
 H428 H 0.56306 0.25576 0.95822
 C429 C 0.49130 0.13525 1.14174
 C430 C 0.49934 0.15540 1.11696
 C431 C 0.53094 0.15616 1.10511
 C432 C 0.55434 0.13748 1.11915
 C433 C 0.54617 0.11756 1.14395
 C434 C 0.51444 0.11588 1.15502
 C435 C 0.53831 0.17503 1.07902
 C436 C 0.51440 0.19301 1.06460
 C437 C 0.48331 0.19296 1.07731
 C438 C 0.47599 0.17429 1.10341
 C439 C 0.45983 0.21144 1.06359
 C440 C 0.46624 0.22863 1.03645
 C441 C 0.49608 0.22709 1.02133
 C442 C 0.52076 0.21047 1.03722
 H443 H 0.46688 0.13427 1.15041
 H444 H 0.57872 0.13780 1.11052
 H445 H 0.56431 0.10264 1.15374
 H446 H 0.56233 0.17518 1.06953
 H447 H 0.45188 0.17398 1.11275
 H448 H 0.43627 0.21252 1.07378
 H449 H 0.44734 0.24315 1.02797
 H450 H 0.54451 0.21013 1.02727
 C451 C -0.02458 0.66915 0.61596
 C452 C -0.02655 0.64308 0.63572
 C453 C -0.04527 0.61586 0.62434
 C454 C -0.06126 0.61489 0.59352
 C455 C -0.05842 0.64042 0.57377
 C456 C -0.04033 0.66798 0.58466
 C457 C -0.04692 0.58960 0.64344
 C458 C -0.02880 0.58956 0.67319
 C459 C -0.00989 0.61651 0.68477
 C460 C -0.00945 0.64342 0.66627
 C461 C 0.00879 0.61572 0.71428
 C462 C 0.01055 0.58794 0.73089
 C463 C -0.00615 0.56027 0.71812
 C464 C -0.02805 0.56231 0.69068
 H465 H -0.01068 0.69014 0.62491
 H466 H -0.07532 0.59404 0.58432
 H467 H -0.06994 0.63815 0.54956
 H468 H -0.06116 0.56872 0.63449
 H469 H 0.00511 0.66415 0.67507
 H470 H 0.02276 0.63637 0.72409
 H471 H 0.02531 0.58820 0.75349
 H472 H -0.04280 0.54180 0.68159
 C473 C 0.50479 0.84756 -0.13099
 C474 C 0.51119 0.82756 -0.10548
 C475 C 0.54005 0.83313 -0.08484
 C476 C 0.56262 0.85794 -0.09090
 C477 C 0.55627 0.87746 -0.11665
 C478 C 0.52712 0.87273 -0.13651
 C479 C 0.54552 0.81424 -0.05817
 C480 C 0.52239 0.78997 -0.05180
 C481 C 0.49432 0.78369 -0.07323
 C482 C 0.48892 0.80241 -0.09997
 C483 C 0.47172 0.75905 -0.06727
 C484 C 0.47545 0.74224 -0.03912
 C485 C 0.50143 0.75026 -0.01554
 C486 C 0.52622 0.77266 -0.02369
 H487 H 0.48242 0.84369 -0.14652
 H488 H 0.58495 0.86247 -0.07548
 H489 H 0.57374 0.89681 -0.12060
 H490 H 0.56727 0.81896 -0.04193
 H491 H 0.46701 0.79786 -0.11603
 H492 H 0.45072 0.75312 -0.08411
 H493 H 0.45747 0.72321 -0.03613
 H494 H 0.54738 0.77805 -0.00688
 C495 C 1.02506 0.36990 0.39101
 C496 C 1.01859 0.39258 0.36808
 C497 C 0.98614 0.40076 0.36127
 C498 C 0.96068 0.38598 0.37728
 C499 C 0.96720 0.36354 0.40010
 C500 C 0.99954 0.35511 0.40776
 C501 C 0.97962 0.42361 0.33860
 C502 C 1.00523 0.43837 0.32251
 C503 C 1.03770 0.43022 0.32936
 C504 C 1.04422 0.40746 0.35210
 C505 C 1.06326 0.44529 0.31368
 C506 C 1.05671 0.46769 0.29088
 C507 C 1.02424 0.47505 0.28222
 C508 C 0.99886 0.46117 0.29971
 H509 H 1.05034 0.36507 0.39663
 H510 H 0.93555 0.39166 0.37207
 H511 H 0.94633 0.35216 0.41078
 H512 H 0.95465 0.42982 0.33344
 H513 H 1.06922 0.40136 0.35735
 H514 H 1.08843 0.43991 0.31921
 H515 H 1.07738 0.47941 0.28015
 H516 H 0.97405 0.46800 0.29539
 C517 C 0.49916 0.87497 0.14539
 C518 C 0.49947 0.85363 0.11957
 C519 C 0.49685 0.86409 0.08756
 C520 C 0.49454 0.89555 0.08181
 C521 C 0.49492 0.91667 0.10744
 C522 C 0.49718 0.90694 0.13976
 C523 C 0.49670 0.84301 0.06169
 C524 C 0.49996 0.81156 0.06730
 C525 C 0.50317 0.80099 0.09918
 C526 C 0.50266 0.82204 0.12519
 C527 C 0.50648 0.76949 0.10443
 C528 C 0.50711 0.74883 0.07834
 C529 C 0.50495 0.75903 0.04616
 C530 C 0.49998 0.79064 0.04128
 H531 H 0.50191 0.86663 0.16976
 H532 H 0.49232 0.90389 0.05738
 H533 H 0.49190 0.94057 0.10151
 H534 H 0.49444 0.85117 0.03716
 H535 H 0.50487 0.81387 0.14971
 H536 H 0.50856 0.76078 0.12871
 H537 H 0.50943 0.72457 0.08321
 H538 H 0.49523 0.79942 0.01742
 C539 C 0.01943 0.37986 0.62344
 C540 C 0.01381 0.40251 0.64640
 C541 C 0.00158 0.39367 0.67611
 C542 C -0.00448 0.36211 0.68238
 C543 C 0.00124 0.33961 0.65932
 C544 C 0.01317 0.34826 0.62959
 C545 C -0.00451 0.41653 0.69886
 C546 C 0.00155 0.44806 0.69216
 C547 C 0.01418 0.45662 0.66255
 C548 C 0.02011 0.43388 0.63987
 C549 C 0.02137 0.48783 0.65625
 C550 C 0.01565 0.51055 0.67875
 C551 C 0.00099 0.50294 0.70772
 C552 C -0.00452 0.47118 0.71464
 H553 H 0.02795 0.38696 0.60040
 H554 H -0.01376 0.35483 0.70505
 H555 H -0.00356 0.31541 0.66478
 H556 H -0.01403 0.40981 0.72163
 H557 H 0.02973 0.44061 0.61713
 H558 H 0.03204 0.49472 0.63409
 H559 H 0.02343 0.53419 0.67342
 H560 H -0.01332 0.46447 0.73767
 C561 C 0.51401 0.10941 0.85784
 C562 C 0.51351 0.12979 0.88446
 C563 C 0.51339 0.11779 0.91590
 C564 C 0.51492 0.08593 0.92036
 C565 C 0.51612 0.06599 0.89390
 C566 C 0.51530 0.07744 0.86251
 C567 C 0.51157 0.13775 0.94243
 C568 C 0.51059 0.16972 0.93815
 C569 C 0.51188 0.18192 0.90698
 C570 C 0.51303 0.16187 0.88023
 C571 C 0.51153 0.21392 0.90310
 C572 C 0.50976 0.23359 0.92980
 C573 C 0.50826 0.22199 0.96136
 C574 C 0.50803 0.18950 0.96473
 H575 H 0.51355 0.11830 0.83360
 H576 H 0.51502 0.07642 0.94431
 H577 H 0.51689 0.04138 0.89787
 H578 H 0.51097 0.12839 0.96644
 H579 H 0.51347 0.17120 0.85620
 H580 H 0.51244 0.22379 0.87938
 H581 H 0.50924 0.25820 0.92581
 H582 H 0.50503 0.17877 0.98761
 C583 C 0.99838 0.65066 0.36804
 C584 C 0.99639 0.62345 0.34898
 C585 C 0.96540 0.60810 0.33983
 C586 C 0.93695 0.62025 0.34996
 C587 C 0.93916 0.64714 0.36925
 C588 C 0.96985 0.66264 0.37861
 C589 C 0.96337 0.58085 0.32082
 C590 C 0.99197 0.56875 0.31082
 C591 C 1.02293 0.58398 0.32028
 C592 C 1.02496 0.61122 0.33921
 C593 C 1.05143 0.57154 0.31089
 C594 C 1.04934 0.54489 0.29140
 C595 C 1.01866 0.53040 0.27979
 C596 C 0.99009 0.54175 0.29138
 H597 H 1.02220 0.66250 0.37461
 H598 H 0.91299 0.60873 0.34331
 H599 H 0.91678 0.65534 0.37749
 H600 H 0.93957 0.56916 0.31372
 H601 H 1.04878 0.62285 0.34640
 H602 H 1.07542 0.58248 0.31856
 H603 H 1.07196 0.53585 0.28485
 H604 H 0.96630 0.52976 0.28518
 C605 C 1.14442 0.48624 0.12259
 C606 C 1.12178 0.48395 0.14638
 C607 C 1.11154 0.45464 0.15802
 C608 C 1.12441 0.42814 0.14587
 C609 C 1.14702 0.43054 0.12221
 C610 C 1.15730 0.45960 0.10981
 C611 C 1.08870 0.45231 0.18165
 C612 C 1.07632 0.47905 0.19408
 C613 C 1.08674 0.50838 0.18256
 C614 C 1.10931 0.51066 0.15873
 C615 C 1.07415 0.53496 0.19480
 C616 C 1.05211 0.53266 0.21891
 C617 C 1.04272 0.50377 0.23214
 C618 C 1.05380 0.47691 0.21800
 H619 H 1.15270 0.50913 0.11508
 H620 H 1.11673 0.40544 0.15444
 H621 H 1.15511 0.40921 0.11280
 H622 H 1.08078 0.42977 0.19055
 H623 H 1.11717 0.53321 0.14981
 H624 H 1.08125 0.55757 0.18566
 H625 H 1.04229 0.55371 0.22703
 H626 H 1.04515 0.45425 0.22593
 C627 C 0.62595 -0.01001 0.65391
 C628 C 0.64537 -0.00977 0.62737
 C629 C 0.63669 -0.03050 0.60107
 C630 C 0.60824 -0.05043 0.60130
 C631 C 0.58840 -0.04975 0.62722
 C632 C 0.59706 -0.02980 0.65406
 C633 C 0.65623 -0.03059 0.57470
 C634 C 0.68357 -0.00927 0.57365
 C635 C 0.69170 0.01209 0.59946
 C636 C 0.67301 0.01128 0.62650
 C637 C 0.71833 0.03401 0.59774
 C638 C 0.73611 0.03548 0.57028
 C639 C 0.72773 0.01500 0.54366
 C640 C 0.70245 -0.00854 0.54680
 H641 H 0.63352 0.00525 0.67437
 H642 H 0.60094 -0.06615 0.58112
 H643 H 0.56593 -0.06463 0.62579
 H644 H 0.64966 -0.04669 0.55464
 H645 H 0.67951 0.02749 0.64647
 H646 H 0.72532 0.05020 0.61759
 H647 H 0.75694 0.05232 0.57060
 H648 H 0.69672 -0.02564 0.52752
 C649 C -0.14208 0.51794 0.85874
 C650 C -0.11623 0.52404 0.83859
 C651 C -0.08915 0.54462 0.84947
 C652 C -0.08822 0.55858 0.88012
 C653 C -0.11371 0.55214 0.90007
 C654 C -0.14100 0.53189 0.88971
 C655 C -0.06311 0.55059 0.82983
 C656 C -0.06328 0.53570 0.79967
 C657 C -0.09018 0.51516 0.78857
 C658 C -0.11673 0.50968 0.80796
 C659 C -0.08983 0.50033 0.75836
 C660 C -0.06244 0.50468 0.74008
 C661 C -0.03448 0.52357 0.75189
 C662 C -0.03640 0.54052 0.78089
 H663 H -0.16301 0.50246 0.85028
 H664 H -0.06751 0.57420 0.88888
 H665 H -0.11170 0.56267 0.92397
 H666 H -0.04232 0.56628 0.83834
 H667 H -0.13742 0.49387 0.79949
 H668 H -0.11059 0.48508 0.74901
 H669 H -0.06332 0.49318 0.71674
 H670 H -0.01600 0.55655 0.78958
 C671 C 0.36974 -0.00331 0.35113
 C672 C 0.34534 -0.00226 0.37300
 C673 C 0.31202 -0.00234 0.36158
 C674 C 0.30386 -0.00304 0.32818
 C675 C 0.32852 -0.00345 0.30644
 C676 C 0.36160 -0.00382 0.31778
 C677 C 0.28765 -0.00124 0.38375
 C678 C 0.29643 0.00089 0.41708
 C679 C 0.32986 0.00149 0.42812
 C680 C 0.35400 -0.00055 0.40614
 C681 C 0.33883 0.00437 0.46104
 C682 C 0.31519 0.00762 0.48304
 C683 C 0.28145 0.00809 0.47289
 C684 C 0.27249 0.00310 0.43955
 H685 H 0.39528 -0.00295 0.36005
 H686 H 0.27850 -0.00296 0.31889
 H687 H 0.32179 -0.00378 0.28078
 H688 H 0.26205 -0.00139 0.37508
 H689 H 0.37963 -0.00024 0.41482
 H690 H 0.36436 0.00440 0.46988
 H691 H 0.32408 0.00933 0.50807
 H692 H 0.24679 0.00216 0.43109
 C693 C 0.14120 0.49322 0.86403
 C694 C 0.11297 0.49680 0.84367
 C695 C 0.08232 0.48310 0.85185
 C696 C 0.08033 0.46615 0.88009
 C697 C 0.10837 0.46299 0.90033
 C698 C 0.13909 0.47643 0.89262
 C699 C 0.05403 0.48676 0.83189
 C700 C 0.05582 0.50423 0.80395
 C701 C 0.08632 0.51789 0.79555
 C702 C 0.11481 0.51402 0.81542
 C703 C 0.08777 0.53476 0.76715
 C704 C 0.05919 0.53848 0.74762
 C705 C 0.02820 0.52641 0.75654
 C706 C 0.02740 0.50799 0.78424
 H707 H 0.16474 0.50349 0.85763
 H708 H 0.05697 0.45567 0.88677
 H709 H 0.10579 0.45056 0.92250
 H710 H 0.03055 0.47624 0.83826
 H711 H 0.13829 0.52449 0.80900
 H712 H 0.11104 0.54481 0.75984
 H713 H 0.06135 0.55072 0.72530
 H714 H 0.00468 0.49591 0.79043
 C715 C 0.61299 0.01197 0.36418
 C716 C 0.63294 0.01433 0.39312
 C717 C 0.61856 0.01877 0.42265
 C718 C 0.58460 0.02061 0.42282
 C719 C 0.56497 0.01821 0.39402
 C720 C 0.57889 0.01404 0.36443
 C721 C 0.63827 0.02112 0.45158
 C722 C 0.67218 0.01861 0.45153
 C723 C 0.68667 0.01433 0.42212
 C724 C 0.66700 0.01237 0.39303
 C725 C 0.72061 0.01224 0.42236
 C726 C 0.73976 0.01304 0.45153
 C727 C 0.72546 0.01506 0.48142
 C728 C 0.69168 0.02001 0.48063
 H729 H 0.62401 0.00903 0.34149
 H730 H 0.57319 0.02383 0.44526
 H731 H 0.53873 0.01938 0.39492
 H732 H 0.62714 0.02443 0.47420
 H733 H 0.67814 0.00909 0.37043
 H734 H 0.73235 0.00968 0.40001
 H735 H 0.76594 0.01123 0.45088
 H736 H 0.68008 0.02518 0.50243
 C737 C 0.86539 0.49888 0.12696
 C738 C 0.89072 0.50400 0.15147
 C739 C 0.90359 0.53457 0.15941
 C740 C 0.89061 0.55947 0.14310
 C741 C 0.86560 0.55418 0.11864
 C742 C 0.85287 0.52389 0.11006
 C743 C 0.92960 0.53976 0.18310
 C744 C 0.94317 0.51476 0.19880
 C745 C 0.93014 0.48425 0.19118
 C746 C 0.90385 0.47903 0.16771
 C747 C 0.94440 0.45939 0.20635
 C748 C 0.97153 0.46464 0.22857
 C749 C 0.98445 0.49501 0.23732
 C750 C 0.97022 0.51985 0.22134
 H751 H 0.85557 0.47543 0.12090
 H752 H 0.90023 0.58303 0.14885
 H753 H 0.85687 0.57384 0.10580
 H754 H 0.93963 0.56322 0.18892
 H755 H 0.89410 0.45555 0.16161
 H756 H 0.93520 0.43577 0.20029
 H757 H 0.98298 0.44468 0.23806
 H758 H 0.98087 0.54330 0.22576
 C759 C 0.36446 -0.00383 0.66045
 C760 C 0.33952 -0.00496 0.63548
 C761 C 0.32190 -0.03343 0.62665
 C762 C 0.32943 -0.06025 0.64317
 C763 C 0.35528 -0.05918 0.66708
 C764 C 0.37356 -0.03108 0.67565
 C765 C 0.29813 -0.03487 0.60053
 C766 C 0.29322 -0.00856 0.58196
 C767 C 0.31095 0.01983 0.59085
 C768 C 0.33321 0.02170 0.61811
 C769 C 0.30742 0.04556 0.57143
 C770 C 0.28828 0.04274 0.54235
 C771 C 0.27086 0.01437 0.53223
 C772 C 0.27237 -0.01075 0.55356
 H773 H 0.37747 0.01824 0.66723
 H774 H 0.31627 -0.08233 0.63665
 H775 H 0.36168 -0.08068 0.67787
 H776 H 0.28484 -0.05682 0.59359
 H777 H 0.34698 0.04350 0.62469
 H778 H 0.32092 0.06751 0.57783
 H779 H 0.28834 0.06261 0.52688
 H780 H 0.25891 -0.03268 0.54787
   
