data_POSCAR
  _audit_creation_date              2014-09-24
  _audit_creation_method            'ToBaCCo'
  _symmetry_space_group_name_H-M    'P1'
  _symmetry_Int_Tables_number       1
  _symmetry_cell_setting            triclinic
  loop_
  _symmetry_equiv_pos_as_xyz
 x,y,z
_cell_length_a 43.8566
_cell_length_b 42.4620
_cell_length_c 18.9378
_cell_angle_alpha 90.422100
_cell_angle_beta 89.800700
_cell_angle_gamma 89.934000
loop_
  _atom_site_label
  _atom_site_type_symbol
  _atom_site_fract_x
  _atom_site_fract_y
  _atom_site_fract_z
O1 O 0.23294 0.27644 0.16953
 O2 O 0.28654 0.21784 0.23926
 O3 O 0.23416 0.21420 0.17917
 O4 O 0.28632 0.27837 0.23207
 O5 O 0.26460 0.27966 0.33723
 O6 O 0.20772 0.22224 0.27690
 O7 O 0.26167 0.21838 0.34067
 O8 O 0.21230 0.28213 0.27523
 Cu9 Cu 0.26205 0.24658 0.19419
 Cu10 Cu 0.23439 0.25057 0.31821
 C11 C 0.21374 0.28971 0.21056
 C12 C 0.28322 0.20793 0.30186
 C13 C 0.21131 0.20808 0.21817
 C14 C 0.28492 0.28930 0.29469
 O15 O 0.79199 0.27888 0.29003
 O16 O 0.73684 0.21984 0.35160
 O17 O 0.79157 0.21757 0.29804
 O18 O 0.73713 0.28076 0.34365
 O19 O 0.71770 0.27776 0.23655
 O20 O 0.77236 0.21511 0.19036
 O21 O 0.71744 0.21680 0.24462
 O22 O 0.77249 0.27625 0.18298
 Cu23 Cu 0.76640 0.24956 0.33149
 Cu24 Cu 0.74308 0.24614 0.20286
 C25 C 0.79173 0.28772 0.22608
 C26 C 0.71744 0.20835 0.30893
 C27 C 0.79124 0.20577 0.23630
 C28 C 0.71788 0.28985 0.29810
 O29 O 0.73598 0.78012 0.65405
 O30 O 0.79018 0.71850 0.70683
 O31 O 0.73557 0.71950 0.65365
 O32 O 0.79082 0.78010 0.70672
 O33 O 0.77128 0.78100 0.81404
 O34 O 0.71666 0.71915 0.76181
 O35 O 0.77148 0.71977 0.81514
 O36 O 0.71646 0.78061 0.76162
 Cu37 Cu 0.76523 0.74952 0.66970
 Cu38 Cu 0.74203 0.75017 0.79900
 C39 C 0.71672 0.79065 0.69857
 C40 C 0.79014 0.70863 0.77000
 C41 C 0.71655 0.70910 0.69840
 C42 C 0.79052 0.79115 0.76930
 O43 O 0.22659 0.72271 0.81443
 O44 O 0.28417 0.78120 0.76164
 O45 O 0.22865 0.78398 0.80906
 O46 O 0.28252 0.71991 0.76725
 O47 O 0.26593 0.71898 0.65738
 O48 O 0.21090 0.78184 0.70045
 O49 O 0.26667 0.77966 0.65255
 O50 O 0.21011 0.72025 0.70459
 Cu51 Cu 0.25716 0.75207 0.79910
 Cu52 Cu 0.23653 0.75001 0.66791
 C53 C 0.20865 0.71131 0.76838
 C54 C 0.28528 0.79038 0.69797
 C55 C 0.21051 0.79398 0.76204
 C56 C 0.28375 0.70882 0.70480
 C57 C 1.01882 0.06773 0.14353
 C58 C 0.98763 0.06636 0.14933
 C59 C 0.97743 0.04968 0.09098
 N60 N 1.00114 0.04116 0.04934
 C61 C 1.02650 0.05249 0.08086
 C62 C 0.94659 0.04522 0.07282
 C63 C 0.93738 0.02172 0.02419
 C64 C 0.90884 0.01969 -0.00686
 C65 C 0.90862 -0.00768 -0.04630
 C66 C 0.93709 -0.02143 -0.03858
 N67 N 0.95443 -0.00342 0.00456
 C68 C 0.94593 -0.05079 -0.06760
 C69 C 0.97676 -0.06005 -0.07342
 C70 C 0.98678 -0.09015 -0.09024
 C71 C 1.01795 -0.08854 -0.09569
 C72 C 1.02585 -0.05747 -0.08232
 N73 N 1.00065 -0.04009 -0.06877
 C74 C 1.05554 -0.04497 -0.08771
 C75 C 1.06261 -0.01404 -0.06588
 C76 C 1.08753 0.00311 -0.08880
 C77 C 1.08724 0.03103 -0.05130
 C78 C 1.06266 0.02967 -0.00497
 N79 N 1.04751 0.00227 -0.01522
 C80 C 1.05579 0.05186 0.04915
 H81 H 1.03400 0.07913 0.18064
 H82 H 0.97397 0.07658 0.19135
 H83 H 1.03012 -0.00661 0.01653
 H84 H 0.89003 0.03605 -0.00134
 H85 H 0.88965 -0.01649 -0.07701
 H86 H 0.97306 -0.11105 -0.09814
 H87 H 1.03300 -0.10796 -0.10879
 H88 H 1.10356 0.04992 -0.05712
 H89 H 0.97551 -0.00963 0.02546
 H90 H 1.10410 -0.00379 -0.12850
 C91 C 0.51568 0.58458 0.61305
 C92 C 0.48442 0.58412 0.61484
 C93 C 0.47538 0.55782 0.57649
 N94 N 0.50010 0.54239 0.55101
 C95 C 0.52478 0.55848 0.57389
 C96 C 0.44476 0.54992 0.56134
 C97 C 0.43594 0.52257 0.52334
 C98 C 0.40691 0.51719 0.49699
 C99 C 0.40720 0.48771 0.46665
 C100 C 0.43629 0.47563 0.47586
 N101 N 0.45360 0.49697 0.51078
 C102 C 0.44542 0.44484 0.45578
 C103 C 0.47612 0.43469 0.45444
 C104 C 0.48544 0.40381 0.44366
 C105 C 0.51670 0.40413 0.44262
 C106 C 0.52545 0.43519 0.45284
 N107 N 0.50061 0.45384 0.45975
 C108 C 0.55591 0.44598 0.45172
 C109 C 0.56458 0.47693 0.47109
 C110 C 0.59313 0.48978 0.45857
 C111 C 0.59304 0.51938 0.48827
 C112 C 0.56434 0.52403 0.51770
 N113 N 0.54726 0.49786 0.50763
 C114 C 0.55532 0.55136 0.55568
 H115 H 0.52999 0.60250 0.63662
 H116 H 0.47005 0.60161 0.64020
 H117 H 0.52631 0.49323 0.53092
 H118 H 0.38734 0.53269 0.49971
 H119 H 0.38799 0.47633 0.44145
 H120 H 0.47122 0.38319 0.43714
 H121 H 0.53130 0.38381 0.43511
 H122 H 0.61210 0.53553 0.48828
 H123 H 0.47501 0.49285 0.53187
 H124 H 0.61217 0.47890 0.43122
 C125 C -0.01721 0.58020 -0.12955
 C126 C 0.01401 0.58082 -0.13053
 C127 C 0.02377 0.55561 -0.09031
 N128 N -0.00053 0.53988 -0.06418
 C129 C -0.02563 0.55464 -0.08873
 C130 C 0.05462 0.54891 -0.07478
 C131 C 0.06433 0.52233 -0.03606
 C132 C 0.09358 0.51809 -0.01012
 C133 C 0.09420 0.48901 0.02125
 C134 C 0.06539 0.47608 0.01313
 N135 N 0.04741 0.49644 -0.02230
 C136 C 0.05702 0.44551 0.03526
 C137 C 0.02655 0.43474 0.03823
 C138 C 0.01800 0.40399 0.05230
 C139 C -0.01324 0.40366 0.05461
 C140 C -0.02279 0.43421 0.04175
 N141 N 0.00157 0.45319 0.03205
 C142 C -0.05353 0.44429 0.04306
 C143 C -0.06322 0.47440 0.02052
 C144 C -0.09226 0.48654 0.03107
 C145 C -0.09306 0.51534 -0.00160
 C146 C -0.06438 0.52024 -0.03063
 N147 N -0.04646 0.49499 -0.01755
 C148 C -0.05607 0.54681 -0.07112
 H149 H -0.03195 0.59713 -0.15487
 H150 H 0.02787 0.59827 -0.15685
 H151 H -0.02525 0.49057 -0.03986
 H152 H 0.11268 0.53410 -0.01373
 H153 H 0.11376 0.47851 0.04662
 H154 H 0.03273 0.38388 0.06038
 H155 H -0.02730 0.38325 0.06477
 H156 H -0.11268 0.53076 -0.00383
 H157 H 0.02604 0.49146 -0.04273
 H158 H -0.11107 0.47569 0.05885
 C159 C 0.48444 1.09874 0.46583
 C160 C 0.51572 1.09888 0.46472
 C161 C 0.52496 1.06790 0.47293
 N162 N 0.50040 1.04886 0.47860
 C163 C 0.47560 1.06768 0.47460
 C164 C 0.55561 1.05758 0.47149
 C165 C 0.56481 1.02647 0.48737
 C166 C 0.59374 1.01447 0.47459
 C167 C 0.59415 0.98439 0.50077
 C168 C 0.56536 0.97863 0.52837
 N169 N 0.54772 1.00456 0.52061
 C170 C 0.55672 0.95053 0.56289
 C171 C 0.52622 0.94255 0.57920
 C172 C 0.51740 0.91562 0.61485
 C173 C 0.48616 0.91537 0.61518
 C174 C 0.47683 0.94215 0.57974
 N175 N 0.50137 0.95854 0.55727
 C176 C 0.44619 0.94964 0.56411
 C177 C 0.43695 0.97775 0.53053
 C178 C 0.40802 0.98305 0.50361
 C179 C 0.40776 1.01324 0.47814
 C180 C 0.43643 1.02578 0.49067
 N181 N 0.45401 1.00408 0.52314
 C182 C 0.44506 1.05705 0.47464
 H183 H 0.46989 1.11918 0.46044
 H184 H 0.53000 1.11943 0.45833
 H185 H 0.47517 1.00815 0.54569
 H186 H 0.61275 1.02624 0.44954
 H187 H 0.61361 0.96872 0.49986
 H188 H 0.53189 0.89761 0.63704
 H189 H 0.47200 0.89714 0.63771
 H190 H 0.38852 1.02468 0.45346
 H191 H 0.52653 1.00833 0.54357
 H192 H 0.38891 0.96697 0.50258
 C193 C 1.14465 0.14370 0.14744
 C194 C 1.17581 0.13750 0.13448
 C195 C 1.19784 0.15992 0.15413
 C196 C 1.18954 0.18612 0.19595
 C197 C 1.15885 0.18992 0.21601
 C198 C 1.13650 0.16964 0.18993
 C199 C 1.12167 0.12109 0.11945
 C200 C 1.09094 0.12932 0.11039
 C201 C 1.07022 0.10731 0.08411
 C202 C 1.07907 0.07590 0.07125
 C203 C 1.11012 0.06795 0.07859
 C204 C 1.13165 0.09097 0.09761
 C205 C 1.18459 0.10826 0.10593
 C206 C 1.16300 0.08477 0.09187
 H207 H 1.20851 0.10292 0.09769
 H208 H 1.17089 0.06199 0.07310
 H209 H 1.22165 0.15580 0.14137
 H210 H 1.15183 0.20962 0.24901
 H211 H 1.04698 0.11482 0.07501
 H212 H 1.11770 0.04409 0.06792
 H213 H 1.11303 0.17390 0.20492
 H214 H 1.08294 0.15296 0.12121
 C215 C 0.64897 0.64199 0.63063
 C216 C 0.65767 0.64364 0.70251
 C217 C 0.67961 0.66568 0.72464
 C218 C 0.69377 0.68556 0.67565
 C219 C 0.68587 0.68311 0.60417
 C220 C 0.66371 0.66176 0.58185
 C221 C 0.62468 0.61900 0.60953
 C222 C 0.61285 0.61720 0.54044
 C223 C 0.59025 0.59536 0.52343
 C224 C 0.57916 0.57467 0.57451
 C225 C 0.59037 0.57637 0.64355
 C226 C 0.61277 0.59860 0.66162
 C227 C 0.64465 0.62310 0.75166
 C228 C 0.62298 0.60079 0.73147
 H229 H 0.65155 0.62408 0.80652
 H230 H 0.61380 0.58525 0.77138
 H231 H 0.68596 0.66708 0.77985
 H232 H 0.69653 0.69816 0.56533
 H233 H 0.58145 0.59444 0.47007
 H234 H 0.58136 0.56056 0.68319
 H235 H 0.65861 0.66108 0.52622
 H236 H 0.62046 0.63259 0.49897
 C237 C -0.14229 0.35622 0.15581
 C238 C -0.16384 0.34353 0.10794
 C239 C -0.18539 0.32137 0.13116
 C240 C -0.18586 0.31144 0.20175
 C241 C -0.16454 0.32416 0.24903
 C242 C -0.14308 0.34621 0.22659
 C243 C -0.11945 0.37954 0.12876
 C244 C -0.09700 0.39344 0.17206
 C245 C -0.07593 0.41459 0.14407
 C246 C -0.07669 0.42243 0.07246
 C247 C -0.09905 0.40914 0.02887
 C248 C -0.12038 0.38777 0.05641
 C249 C -0.16368 0.35288 0.03715
 C250 C -0.14241 0.37449 0.01194
 H251 H -0.18019 0.34322 0.00048
 H252 H -0.14317 0.38082 -0.04336
 H253 H -0.20173 0.31175 0.09399
 H254 H -0.16432 0.31699 0.30379
 H255 H -0.05879 0.42482 0.17832
 H256 H -0.09957 0.41526 -0.02661
 H257 H -0.12730 0.35497 0.26553
 H258 H -0.09518 0.38827 0.22751
 C259 C 0.35350 0.85734 0.63359
 C260 C 0.34577 0.85416 0.70585
 C261 C 0.32373 0.83208 0.72663
 C262 C 0.30855 0.81355 0.67620
 C263 C 0.31572 0.81730 0.60455
 C264 C 0.33795 0.83877 0.58340
 C265 C 0.37757 0.88074 0.61371
 C266 C 0.38834 0.88424 0.54391
 C267 C 0.41067 0.90652 0.52813
 C268 C 0.42249 0.92599 0.58123
 C269 C 0.41235 0.92255 0.65090
 C270 C 0.39031 0.89984 0.66767
 C271 C 0.35977 0.87328 0.75682
 C272 C 0.38127 0.89590 0.73804
 H273 H 0.35375 0.87098 0.81210
 H274 H 0.39121 0.91033 0.77939
 H275 H 0.31805 0.82967 0.78210
 H276 H 0.30431 0.80332 0.56455
 H277 H 0.41870 0.90873 0.47422
 H278 H 0.42197 0.93738 0.69202
 H279 H 0.34239 0.84058 0.52756
 H280 H 0.38009 0.86986 0.50091
 C281 C -0.14594 0.63681 -0.16852
 C282 C -0.15924 0.65701 -0.11717
 C283 C -0.18046 0.67999 -0.13746
 C284 C -0.18795 0.68400 -0.20880
 C285 C -0.17409 0.66458 -0.25982
 C286 C -0.15350 0.64117 -0.24008
 C287 C -0.12374 0.61226 -0.14447
 C288 C -0.11089 0.58958 -0.19054
 C289 C -0.08959 0.56786 -0.16592
 C290 C -0.08052 0.56834 -0.09517
 C291 C -0.09361 0.59020 -0.04837
 C292 C -0.11546 0.61182 -0.07223
 C293 C -0.15083 0.65463 -0.04611
 C294 C -0.12905 0.63286 -0.02432
 H295 H -0.16085 0.67023 -0.00686
 H296 H -0.12292 0.63234 0.03105
 H297 H -0.19064 0.69528 -0.09776
 H298 H -0.17939 0.66732 -0.31527
 H299 H -0.07966 0.55094 -0.20244
 H300 H -0.08663 0.59036 0.00651
 H301 H -0.14349 0.62707 -0.28171
 H302 H -0.11694 0.58819 -0.24560
 C303 C 0.34945 1.14237 0.38327
 C304 C 0.35078 1.15234 0.31217
 C305 C 0.32878 1.17318 0.28607
 C306 C 0.30519 1.18457 0.32958
 C307 C 0.30360 1.17437 0.39978
 C308 C 0.32539 1.15354 0.42639
 C309 C 0.37385 1.12051 0.40923
 C310 C 0.37501 1.10945 0.47925
 C311 C 0.39825 1.08910 0.50052
 C312 C 0.42082 1.07936 0.45264
 C313 C 0.42001 1.09020 0.38307
 C314 C 0.39685 1.11067 0.36109
 C315 C 0.37415 1.14169 0.26743
 C316 C 0.39664 1.12126 0.29131
 H317 H 0.37511 1.14932 0.21297
 H318 H 0.41424 1.11372 0.25457
 H319 H 0.33031 1.18080 0.23165
 H320 H 0.28565 1.18278 0.43455
 H321 H 0.39863 1.08081 0.55446
 H322 H 0.43745 1.08247 0.34603
 H323 H 0.32307 1.14666 0.48083
 H324 H 0.35825 1.11618 0.51833
 C325 C 1.14736 -0.13331 -0.18716
 C326 C 1.16884 -0.14361 -0.13669
 C327 C 1.18977 -0.16750 -0.15404
 C328 C 1.18995 -0.18155 -0.22157
 C329 C 1.16905 -0.17068 -0.27204
 C330 C 1.14808 -0.14697 -0.25519
 C331 C 1.12447 -0.10877 -0.16525
 C332 C 1.10123 -0.09789 -0.21034
 C333 C 1.07939 -0.07643 -0.18586
 C334 C 1.08033 -0.06520 -0.11623
 C335 C 1.10389 -0.07487 -0.07169
 C336 C 1.12572 -0.09674 -0.09532
 C337 C 1.16918 -0.13026 -0.06886
 C338 C 1.14817 -0.10725 -0.04871
 H339 H 1.18580 -0.13795 -0.03040
 H340 H 1.14918 -0.09795 0.00468
 H341 H 1.20583 -0.17523 -0.11432
 H342 H 1.16860 -0.18069 -0.32482
 H343 H 1.06128 -0.06904 -0.22080
 H344 H 1.10446 -0.06621 -0.01767
 H345 H 1.13256 -0.13985 -0.29614
 H346 H 1.09911 -0.10610 -0.26409
 C347 C 0.64950 0.35878 0.35452
 C348 C 0.67121 0.34884 0.40488
 C349 C 0.69379 0.32684 0.38585
 C350 C 0.69509 0.31428 0.31711
 C351 C 0.67381 0.32452 0.26710
 C352 C 0.65137 0.34646 0.28533
 C353 C 0.62528 0.38169 0.37746
 C354 C 0.60239 0.39272 0.33167
 C355 C 0.58006 0.41362 0.35596
 C356 C 0.57996 0.42399 0.42626
 C357 C 0.60267 0.41348 0.47226
 C358 C 0.62526 0.39243 0.44848
 C359 C 0.67008 0.36063 0.47411
 C360 C 0.64761 0.38195 0.49543
 H361 H 0.68673 0.35309 0.51264
 H362 H 0.64764 0.39022 0.54971
 H363 H 0.71010 0.31917 0.42504
 H364 H 0.67429 0.31531 0.21361
 H365 H 0.56269 0.42173 0.31982
 H366 H 0.60254 0.42160 0.52669
 H367 H 0.63562 0.35320 0.24456
 H368 H 0.60119 0.38548 0.27710
 C369 C 0.85523 -0.13935 -0.17090
 C370 C 0.83376 -0.15068 -0.12128
 C371 C 0.81217 -0.17340 -0.14155
 C372 C 0.81164 -0.18550 -0.21094
 C373 C 0.83292 -0.17397 -0.26005
 C374 C 0.85433 -0.15126 -0.24049
 C375 C 0.87829 -0.11555 -0.14671
 C376 C 0.90065 -0.10282 -0.19194
 C377 C 0.92218 -0.08150 -0.16628
 C378 C 0.92203 -0.07235 -0.09511
 C379 C 0.89956 -0.08425 -0.04987
 C380 C 0.87776 -0.10574 -0.07504
 C381 C 0.83414 -0.13957 -0.05145
 C382 C 0.85570 -0.11766 -0.02880
 H383 H 0.81766 -0.14818 -0.01345
 H384 H 0.85520 -0.11005 0.02596
 H385 H 0.79597 -0.18186 -0.10269
 H386 H 0.83323 -0.18257 -0.31406
 H387 H 0.93928 -0.07226 -0.20197
 H388 H 0.89942 -0.07710 0.00523
 H389 H 0.87006 -0.14358 -0.28067
 H390 H 0.90208 -0.10911 -0.24709
 C391 C 0.35121 0.35676 0.36885
 C392 C 0.35204 0.34594 0.29795
 C393 C 0.33022 0.32420 0.27370
 C394 C 0.30733 0.31305 0.31909
 C395 C 0.30632 0.32424 0.38894
 C396 C 0.32787 0.34576 0.41357
 C397 C 0.37524 0.37945 0.39313
 C398 C 0.37688 0.39093 0.46312
 C399 C 0.39972 0.41198 0.48312
 C400 C 0.42142 0.42214 0.43402
 C401 C 0.42019 0.41088 0.36434
 C402 C 0.39740 0.38955 0.34365
 C403 C 0.37466 0.35679 0.25176
 C404 C 0.39676 0.37822 0.27402
 H405 H 0.37528 0.34859 0.19743
 H406 H 0.41373 0.38592 0.23618
 H407 H 0.33122 0.31583 0.21951
 H408 H 0.28889 0.31617 0.42518
 H409 H 0.40053 0.42044 0.53719
 H410 H 0.43706 0.41879 0.32641
 H411 H 0.32580 0.35337 0.46779
 H412 H 0.36087 0.38394 0.50335
 C413 C 0.14309 0.64070 -0.17175
 C414 C 0.15641 0.66054 -0.11998
 C415 C 0.17799 0.68327 -0.13975
 C416 C 0.18595 0.68731 -0.21095
 C417 C 0.17202 0.66830 -0.26236
 C418 C 0.15099 0.64521 -0.24318
 C419 C 0.12074 0.61618 -0.14821
 C420 C 0.10791 0.59380 -0.19476
 C421 C 0.08689 0.57171 -0.17034
 C422 C 0.07805 0.57154 -0.09930
 C423 C 0.09089 0.59332 -0.05219
 C424 C 0.11248 0.61528 -0.07586
 C425 C 0.14780 0.65790 -0.04897
 C426 C 0.12598 0.63608 -0.02755
 H427 H 0.15782 0.67324 -0.00939
 H428 H 0.11981 0.63526 0.02788
 H429 H 0.18825 0.69820 -0.09969
 H430 H 0.17764 0.67105 -0.31772
 H431 H 0.07718 0.55486 -0.20710
 H432 H 0.08410 0.59297 0.00292
 H433 H 0.14102 0.63140 -0.28512
 H434 H 0.11387 0.59281 -0.25001
 C435 C 0.65073 1.14431 0.38443
 C436 C 0.65098 1.15341 0.31268
 C437 C 0.67335 1.17426 0.28772
 C438 C 0.69569 1.18660 0.33332
 C439 C 0.69542 1.17725 0.40442
 C440 C 0.67336 1.15645 0.42960
 C441 C 0.62628 1.12220 0.40906
 C442 C 0.62405 1.11166 0.47938
 C443 C 0.60094 1.09095 0.49946
 C444 C 0.57953 1.08035 0.45016
 C445 C 0.58133 1.09069 0.38024
 C446 C 0.60451 1.11145 0.35933
 C447 C 0.62879 1.14184 0.26623
 C448 C 0.60607 1.12134 0.28905
 H449 H 0.62895 1.14879 0.21128
 H450 H 0.58943 1.11308 0.25100
 H451 H 0.67305 1.18109 0.23265
 H452 H 0.71222 1.18615 0.44130
 H453 H 0.59978 1.08302 0.55365
 H454 H 0.56478 1.08227 0.34212
 H455 H 0.67443 1.15038 0.48470
 H456 H 0.63989 1.11896 0.51965
 C457 C 0.15038 0.35823 0.12925
 C458 C 0.14966 0.34972 0.20139
 C459 C 0.17065 0.32776 0.22752
 C460 C 0.19251 0.31379 0.18290
 C461 C 0.19341 0.32248 0.11160
 C462 C 0.17270 0.34441 0.08504
 C463 C 0.12709 0.38130 0.10324
 C464 C 0.12551 0.39109 0.03229
 C465 C 0.10293 0.41209 0.01058
 C466 C 0.08150 0.42385 0.05894
 C467 C 0.08302 0.41472 0.12972
 C468 C 0.10550 0.39352 0.15214
 C469 C 0.12786 0.36291 0.24702
 C470 C 0.10627 0.38435 0.22294
 H471 H 0.12736 0.35643 0.30225
 H472 H 0.08978 0.39374 0.26032
 H473 H 0.16967 0.32129 0.28276
 H474 H 0.21006 0.31214 0.07595
 H475 H 0.10199 0.41903 -0.04429
 H476 H 0.06644 0.42398 0.16710
 H477 H 0.17445 0.35000 0.02974
 H478 H 0.14130 0.38268 -0.00734
 C479 C 0.64997 0.85889 0.63309
 C480 C 0.65700 0.85537 0.70552
 C481 C 0.67865 0.83295 0.72662
 C482 C 0.69418 0.81448 0.67636
 C483 C 0.68788 0.81872 0.60452
 C484 C 0.66601 0.84051 0.58303
 C485 C 0.62601 0.88236 0.61294
 C486 C 0.61559 0.88586 0.54304
 C487 C 0.59315 0.90800 0.52708
 C488 C 0.58088 0.92736 0.58009
 C489 C 0.59076 0.92400 0.64984
 C490 C 0.61286 0.90136 0.66681
 C491 C 0.64267 0.87444 0.75637
 C492 C 0.62140 0.89726 0.73732
 H493 H 0.64820 0.87191 0.81177
 H494 H 0.61117 0.91162 0.77861
 H495 H 0.68369 0.83016 0.78224
 H496 H 0.69961 0.80481 0.56465
 H497 H 0.58529 0.91010 0.47315
 H498 H 0.58078 0.93870 0.69094
 H499 H 0.66219 0.84268 0.52707
 H500 H 0.62412 0.87149 0.50015
 C501 C 0.85608 0.13479 0.17601
 C502 C 0.86121 0.16688 0.15964
 C503 C 0.83986 0.18989 0.17990
 C504 C 0.81353 0.18149 0.21693
 C505 C 0.80845 0.14998 0.23417
 C506 C 0.82943 0.12677 0.21382
 C507 C 0.87920 0.11089 0.15185
 C508 C 0.87612 0.07828 0.16404
 C509 C 0.89811 0.05701 0.13919
 C510 C 0.92358 0.06770 0.10159
 C511 C 0.92703 0.10003 0.08976
 C512 C 0.90516 0.12161 0.11438
 C513 C 0.88752 0.17587 0.12298
 C514 C 0.90905 0.15373 0.10098
 H515 H 0.89151 0.20044 0.11094
 H516 H 0.92900 0.16190 0.07258
 H517 H 0.84366 0.21442 0.16690
 H518 H 0.78805 0.14330 0.26276
 H519 H 0.89517 0.03209 0.14890
 H520 H 0.94669 0.10831 0.06037
 H521 H 0.82430 0.10280 0.22798
 H522 H 0.85689 0.06870 0.19219
 C523 C 0.35134 0.63873 0.65142
 C524 C 0.33755 0.65708 0.59817
 C525 C 0.31499 0.67924 0.61596
 C526 C 0.30647 0.68430 0.68661
 C527 C 0.32051 0.66654 0.73951
 C528 C 0.34252 0.64390 0.72227
 C529 C 0.37521 0.61516 0.62993
 C530 C 0.38907 0.59442 0.67806
 C531 C 0.41141 0.57314 0.65539
 C532 C 0.42057 0.57219 0.58457
 C533 C 0.40691 0.59247 0.53604
 C534 C 0.38403 0.61356 0.55792
 C535 C 0.34678 0.65375 0.52764
 C536 C 0.36980 0.63276 0.50810
 H537 H 0.33635 0.66795 0.48698
 H538 H 0.37639 0.63137 0.45295
 H539 H 0.30460 0.69319 0.57477
 H540 H 0.31441 0.67010 0.79447
 H541 H 0.42177 0.55743 0.69324
 H542 H 0.41397 0.59150 0.48112
 H543 H 0.35260 0.63107 0.76523
 H544 H 0.38287 0.59410 0.73318
   
