data_POSCAR
  _audit_creation_date              2014-09-24
  _audit_creation_method            'ToBaCCo'
  _symmetry_space_group_name_H-M    'P1'
  _symmetry_Int_Tables_number       1
  _symmetry_cell_setting            triclinic
  loop_
  _symmetry_equiv_pos_as_xyz
 x,y,z
_cell_length_a 25.4834
_cell_length_b 25.1196
_cell_length_c 24.5387
_cell_angle_alpha 89.050700
_cell_angle_beta 90.005400
_cell_angle_gamma 90.084300
loop_
  _atom_site_label
  _atom_site_type_symbol
  _atom_site_fract_x
  _atom_site_fract_y
  _atom_site_fract_z
C1 C 0.32763 0.31824 0.23099
 H2 H 0.33344 0.31650 0.27465
 C3 C 0.36064 0.34970 0.19833
 H4 H 0.39182 0.37238 0.21697
 C5 C 0.27992 0.29069 0.15344
 H6 H 0.24935 0.26685 0.13572
 C7 C 0.31122 0.32245 0.11948
 H8 H 0.30411 0.32302 0.07595
 N9 N 0.28793 0.28989 0.20825
 C10 C 0.17221 0.27325 0.33810
 H11 H 0.17007 0.23046 0.34338
 C12 C 0.14236 0.30617 0.37132
 H13 H 0.11707 0.28847 0.40211
 C14 C 0.20710 0.34830 0.29072
 H15 H 0.23201 0.36459 0.25897
 C16 C 0.17740 0.38259 0.32242
 H17 H 0.18037 0.42515 0.31529
 Zn18 Zn 0.24502 0.24894 0.25610
 N19 N 0.20459 0.29477 0.29955
 C20 C 0.29226 0.21051 0.35487
 N21 N 0.29073 0.20663 0.29966
 C22 C 0.32399 0.17383 0.27297
 C23 C 0.35963 0.14219 0.30196
 C24 C 0.32739 0.17955 0.38552
 C25 C 0.16322 0.22936 0.18196
 C26 C 0.13073 0.19875 0.14893
 C27 C 0.16710 0.11945 0.19111
 C28 C 0.19964 0.15152 0.22249
 N29 N 0.19815 0.20542 0.21640
 H30 H 0.26653 0.23779 0.37537
 H31 H 0.32278 0.17236 0.22894
 H32 H 0.38596 0.11662 0.27977
 H33 H 0.32687 0.18263 0.42928
 H34 H 0.16171 0.27235 0.17905
 H35 H 0.10413 0.21835 0.12065
 H36 H 0.16964 0.07656 0.19555
 H37 H 0.22638 0.13319 0.25128
 C38 C 0.14505 0.36163 0.36379
 C39 C 0.35212 0.35239 0.14192
 C40 C 0.13301 0.14303 0.15285
 C41 C 0.36158 0.14456 0.35910
 C42 C 0.84241 0.78902 0.21198
 H43 H 0.85746 0.77138 0.24924
 C44 C 0.87455 0.82300 0.18120
 H45 H 0.91376 0.83043 0.19614
 C46 C 0.77172 0.80372 0.15126
 H47 H 0.73148 0.79633 0.13986
 C48 C 0.80231 0.83853 0.11947
 H49 H 0.78469 0.85568 0.08319
 N50 N 0.79199 0.77987 0.19669
 C51 C 0.66402 0.76105 0.31302
 H52 H 0.65666 0.71864 0.31207
 C53 C 0.63268 0.79365 0.34516
 H54 H 0.60147 0.77594 0.36932
 C55 C 0.71448 0.83540 0.28363
 H56 H 0.74648 0.85157 0.25963
 C57 C 0.68394 0.86942 0.31488
 H58 H 0.69220 0.91150 0.31314
 Zn59 Zn 0.74833 0.73696 0.24274
 N60 N 0.70457 0.78221 0.28380
 C61 C 0.78102 0.69403 0.34499
 N62 N 0.79094 0.69516 0.29049
 C63 C 0.83180 0.66748 0.26924
 C64 C 0.86536 0.63830 0.30335
 C65 C 0.81275 0.66424 0.38036
 C66 C 0.66249 0.71352 0.17573
 C67 C 0.62819 0.68164 0.14619
 C68 C 0.68167 0.60529 0.16921
 C69 C 0.71482 0.63860 0.19862
 N70 N 0.70507 0.69177 0.20089
 H71 H 0.74873 0.71643 0.36135
 H72 H 0.83888 0.66894 0.22577
 H73 H 0.89824 0.61716 0.28606
 H74 H 0.80461 0.66400 0.42369
 H75 H 0.65478 0.75565 0.17916
 H76 H 0.59493 0.69993 0.12582
 H77 H 0.69012 0.56322 0.16842
 H78 H 0.74813 0.62171 0.21979
 C79 C 0.64296 0.84857 0.34697
 C80 C 0.85476 0.84941 0.13432
 C81 C 0.63761 0.62672 0.14254
 C82 C 0.85587 0.63660 0.35961
 C83 C 0.82158 0.33133 0.73171
 H84 H 0.82021 0.33371 0.77567
 C85 C 0.85690 0.36292 0.70212
 H86 H 0.88290 0.38919 0.72393
 C87 C 0.79074 0.29210 0.65063
 H88 H 0.76574 0.26370 0.63070
 C89 C 0.82500 0.32345 0.61935
 H90 H 0.82450 0.31958 0.57552
 N91 N 0.78950 0.29673 0.70576
 C92 C 0.66945 0.27382 0.82965
 H93 H 0.67466 0.23211 0.83988
 C94 C 0.63423 0.30430 0.85935
 H95 H 0.61476 0.28508 0.89339
 C96 C 0.69066 0.34803 0.77336
 H97 H 0.71236 0.36470 0.73927
 C98 C 0.65392 0.37938 0.80028
 H99 H 0.64779 0.41956 0.78549
 Zn100 Zn 0.74590 0.25338 0.75040
 N101 N 0.69807 0.29638 0.78875
 C102 C 0.78916 0.21928 0.85360
 N103 N 0.79109 0.21485 0.79853
 C104 C 0.82745 0.18348 0.77472
 C105 C 0.86215 0.15322 0.80636
 C106 C 0.82271 0.18922 0.88705
 C107 C 0.67350 0.22739 0.66898
 C108 C 0.64493 0.19444 0.63454
 C109 C 0.68095 0.11800 0.68235
 C110 C 0.70942 0.15241 0.71535
 N111 N 0.70606 0.20603 0.70743
 H112 H 0.76166 0.24610 0.87210
 H113 H 0.82949 0.18202 0.73073
 H114 H 0.89123 0.13047 0.78486
 H115 H 0.81718 0.19288 0.93039
 H116 H 0.67055 0.27020 0.66442
 H117 H 0.61975 0.21215 0.60369
 H118 H 0.68476 0.07540 0.68860
 H119 H 0.73424 0.13614 0.74715
 C120 C 0.62541 0.35815 0.84482
 C121 C 0.85926 0.35909 0.64506
 C122 C 0.64892 0.13895 0.64069
 C123 C 0.86013 0.15440 0.86407
 C124 C 0.34477 0.80184 0.71233
 H125 H 0.36043 0.77445 0.74253
 C126 C 0.37923 0.83311 0.68135
 H127 H 0.42086 0.82944 0.68904
 C128 C 0.27171 0.84204 0.66883
 H129 H 0.22966 0.84662 0.66537
 C130 C 0.30483 0.87309 0.63583
 H131 H 0.28723 0.89957 0.60590
 N132 N 0.29202 0.80636 0.70538
 C133 C 0.16606 0.78232 0.82463
 H134 H 0.16107 0.73967 0.82374
 C135 C 0.13269 0.81274 0.85675
 H136 H 0.10246 0.79294 0.88057
 C137 C 0.21234 0.85962 0.79577
 H138 H 0.24361 0.87774 0.77221
 C139 C 0.18005 0.89151 0.82755
 H140 H 0.18644 0.93414 0.82744
 Zn141 Zn 0.24724 0.76303 0.74970
 N142 N 0.20452 0.80609 0.79438
 C143 C 0.29575 0.72858 0.84777
 N144 N 0.28913 0.71815 0.79404
 C145 C 0.31231 0.67550 0.77062
 C146 C 0.34290 0.64054 0.80187
 C147 C 0.32656 0.69502 0.88038
 C148 C 0.19174 0.73009 0.65410
 C149 C 0.15774 0.69731 0.62517
 C150 C 0.15022 0.64018 0.70491
 C151 C 0.18358 0.67450 0.73258
 N152 N 0.20334 0.71875 0.70718
 H153 H 0.27723 0.76300 0.86529
 H154 H 0.30668 0.66853 0.72763
 H155 H 0.36106 0.60676 0.78260
 H156 H 0.33114 0.70354 0.92324
 H157 H 0.20847 0.76446 0.63388
 H158 H 0.14873 0.70699 0.58304
 H159 H 0.13463 0.60533 0.72588
 H160 H 0.19390 0.66568 0.77449
 C161 C 0.13916 0.86820 0.85814
 C162 C 0.35965 0.86908 0.64182
 C163 C 0.13642 0.65187 0.65075
 C164 C 0.35014 0.65005 0.85755
 Si165 Si -0.00495 0.00446 0.00353
 Si166 Si 0.00459 0.50385 0.50595
 Si167 Si 0.51158 -0.00151 0.49237
 Si168 Si 0.48906 0.49805 -0.00495
 C169 C 0.12187 -0.05190 -0.08468
 C170 C 0.10337 -0.09808 -0.10944
 C171 C 0.04966 -0.11050 -0.10300
 C172 C 0.01744 -0.07994 -0.06900
 C173 C 0.03790 -0.03607 -0.04106
 C174 C 0.09004 -0.02154 -0.05125
 C175 C 0.13408 -0.01286 -0.01199
 C176 C 0.16859 -0.04564 -0.04887
 H177 H 0.03271 -0.14441 -0.12323
 H178 H -0.02315 -0.09155 -0.06340
 H179 H 0.12689 -0.03206 0.02850
 H180 H 0.14665 0.02946 -0.01073
 H181 H 0.18154 -0.08391 -0.02986
 H182 H 0.20015 -0.02196 -0.06908
 C183 C 0.09128 0.44370 0.37714
 C184 C 0.11490 0.39784 0.39898
 C185 C 0.10915 0.38773 0.45528
 C186 C 0.07692 0.42030 0.48708
 C187 C 0.05022 0.46405 0.46365
 C188 C 0.05941 0.47606 0.40855
 C189 C 0.02118 0.48320 0.36264
 C190 C 0.05634 0.44826 0.32865
 H191 H 0.12815 0.35375 0.47443
 H192 H 0.07105 0.40972 0.52954
 H193 H 0.01990 0.52478 0.34665
 H194 H -0.01777 0.46504 0.37167
 H195 H 0.07552 0.47007 0.29425
 H196 H 0.03791 0.40969 0.31782
 C197 C 0.63523 -0.08272 0.42040
 C198 C 0.61155 -0.11698 0.38312
 C199 C 0.55635 -0.12141 0.38547
 C200 C 0.52656 -0.08756 0.41878
 C201 C 0.55109 -0.04864 0.45082
 C202 C 0.60590 -0.04994 0.45354
 C203 C 0.64643 -0.00706 0.45153
 C204 C 0.67871 -0.04301 0.41541
 H205 H 0.53604 -0.14966 0.36010
 H206 H 0.48438 -0.09204 0.41927
 H207 H 0.66476 -0.00042 0.49197
 H208 H 0.63275 0.02931 0.42948
 H209 H 0.71547 -0.05726 0.43514
 H210 H 0.68339 -0.02559 0.37385
 C211 C 0.58336 0.44701 -0.13159
 C212 C 0.58658 0.39138 -0.12480
 C213 C 0.54991 0.36844 -0.08771
 C214 C 0.51965 0.40038 -0.05306
 C215 C 0.52430 0.45621 -0.05487
 C216 C 0.55282 0.47818 -0.09830
 C217 C 0.58755 0.52559 -0.10539
 C218 C 0.62214 0.49094 -0.14101
 H219 H 0.54506 0.32590 -0.08350
 H220 H 0.49414 0.38082 -0.02380
 H221 H 0.60755 0.53822 -0.06776
 H222 H 0.56783 0.55820 -0.12867
 H223 H 0.66105 0.48199 -0.12253
 H224 H 0.62307 0.50509 -0.18415
 C225 C -0.07659 0.08237 -0.12741
 C226 C -0.10677 0.12354 -0.10451
 C227 C -0.10004 0.13057 -0.04738
 C228 C -0.06941 0.09521 -0.01557
 C229 C -0.04414 0.05174 -0.03921
 C230 C -0.04615 0.04773 -0.09576
 C231 C -0.06064 0.00089 -0.12917
 C232 C -0.09367 0.03822 -0.16374
 H233 H -0.11776 0.16314 -0.02603
 H234 H -0.06638 0.10134 0.02791
 H235 H -0.08442 -0.02903 -0.10612
 H236 H -0.02650 -0.01525 -0.15169
 H237 H -0.13646 0.02987 -0.16084
 H238 H -0.07826 0.04282 -0.20594
 C239 C -0.12787 0.57338 0.43761
 C240 C -0.10836 0.60775 0.39697
 C241 C -0.05362 0.61534 0.39424
 C242 C -0.01983 0.58502 0.42780
 C243 C -0.04004 0.54559 0.46345
 C244 C -0.09445 0.54262 0.46976
 C245 C -0.13039 0.49568 0.46819
 C246 C -0.16708 0.52953 0.43327
 H247 H -0.03699 0.64376 0.36540
 H248 H 0.02215 0.59097 0.42441
 H249 H -0.14685 0.48556 0.50903
 H250 H -0.11319 0.46164 0.44598
 H251 H -0.20452 0.53917 0.45413
 H252 H -0.17134 0.51501 0.39093
 C253 C 0.43199 0.13071 0.43078
 C254 C 0.39947 0.11054 0.38979
 C255 C 0.40790 0.05730 0.37458
 C256 C 0.44331 0.02448 0.40348
 C257 C 0.47234 0.04419 0.44757
 C258 C 0.46792 0.09854 0.45837
 C259 C 0.45995 0.12660 0.51083
 C260 C 0.41981 0.16102 0.48121
 H261 H 0.38512 0.04008 0.34203
 H262 H 0.44582 -0.01676 0.39248
 H263 H 0.49521 0.14941 0.52334
 H264 H 0.44272 0.10062 0.54329
 H265 H 0.43169 0.20352 0.47762
 H266 H 0.37949 0.15384 0.49693
 C267 C 0.41372 0.63231 -0.06660
 C268 C 0.38132 0.61303 -0.10790
 C269 C 0.37880 0.55742 -0.11455
 C270 C 0.41121 0.52321 -0.08358
 C271 C 0.44642 0.54377 -0.04510
 C272 C 0.44574 0.59855 -0.03594
 C273 C 0.48995 0.63781 -0.03735
 C274 C 0.45469 0.67459 -0.07049
 H275 H 0.35259 0.54043 -0.14434
 H276 H 0.40931 0.48075 -0.09029
 H277 H 0.52450 0.62333 -0.06041
 H278 H 0.49905 0.65385 0.00349
 H279 H 0.46873 0.68159 -0.11293
 H280 H 0.44318 0.71102 -0.04837
 C281 C -0.05892 -0.11181 0.11118
 C282 C -0.11381 -0.11307 0.10497
 C283 C -0.13568 -0.07282 0.07046
 C284 C -0.10342 -0.03694 0.04083
 C285 C -0.04847 -0.04046 0.04404
 C286 C -0.02750 -0.07736 0.08094
 C287 C 0.01538 -0.11705 0.07520
 C288 C -0.01894 -0.15531 0.10808
 H289 H -0.17761 -0.06798 0.06630
 H290 H -0.12170 -0.00746 0.01441
 H291 H 0.05157 -0.10492 0.09704
 H292 H 0.02133 -0.12984 0.03257
 H293 H -0.00187 -0.16562 0.14857
 H294 H -0.03301 -0.18983 0.08430
 C295 C -0.08234 0.43932 0.63276
 C296 C -0.10176 0.39100 0.61319
 C297 C -0.08129 0.37339 0.56301
 C298 C -0.04822 0.40646 0.53126
 C299 C -0.03430 0.45741 0.54929
 C300 C -0.04935 0.47156 0.60171
 C301 C -0.07442 0.52134 0.62136
 C302 C -0.11079 0.48602 0.65524
 H303 H -0.09182 0.33485 0.54729
 H304 H -0.03546 0.39301 0.49174
 H305 H -0.09497 0.54397 0.58846
 H306 H -0.04711 0.54527 0.64644
 H307 H -0.15243 0.48789 0.64176
 H308 H -0.10458 0.48996 0.69982
 C309 C 0.44923 -0.11192 0.60191
 C310 C 0.39640 -0.09753 0.60824
 C311 C 0.38057 -0.04928 0.58257
 C312 C 0.41467 -0.02116 0.54713
 C313 C 0.46561 -0.04008 0.53674
 C314 C 0.48272 -0.08421 0.56715
 C315 C 0.51040 -0.13383 0.55091
 C316 C 0.47388 -0.16414 0.58933
 H317 H 0.34174 -0.03328 0.58880
 H318 H 0.40062 0.01486 0.52733
 H319 H 0.55202 -0.13429 0.56444
 H320 H 0.50385 -0.14443 0.50777
 H321 H 0.49468 -0.18186 0.62506
 H322 H 0.44656 -0.19146 0.56813
 C323 C 0.36322 0.41767 0.06505
 C324 C 0.38562 0.38579 0.10609
 C325 C 0.44071 0.38563 0.11087
 C326 C 0.47158 0.41954 0.07774
 C327 C 0.44798 0.45448 0.03961
 C328 C 0.39361 0.45153 0.03265
 C329 C 0.35340 0.49477 0.03514
 C330 C 0.32024 0.45745 0.07007
 H331 H 0.45977 0.35993 0.14067
 H332 H 0.51376 0.41906 0.08259
 H333 H 0.33517 0.50352 -0.00513
 H334 H 0.36767 0.53028 0.05724
 H335 H 0.28369 0.44432 0.04950
 H336 H 0.31499 0.47128 0.11254
 C337 C 0.07681 0.06316 0.13662
 C338 C 0.10129 0.10929 0.11649
 C339 C 0.09625 0.12119 0.06041
 C340 C 0.06434 0.08964 0.02700
 C341 C 0.03672 0.04565 0.04886
 C342 C 0.04501 0.03200 0.10376
 C343 C 0.00601 0.02420 0.14888
 C344 C 0.04111 0.05782 0.18440
 H345 H 0.11637 0.15524 0.04256
 H346 H 0.06067 0.10010 -0.01582
 H347 H 0.00395 -0.01771 0.16384
 H348 H -0.03255 0.04299 0.13967
 H349 H 0.05948 0.03492 0.21852
 H350 H 0.02304 0.09630 0.19594
 C351 C 0.10440 0.56126 0.62565
 C352 C 0.10012 0.61663 0.62120
 C353 C 0.06052 0.63740 0.58697
 C354 C 0.03099 0.60355 0.55364
 C355 C 0.04140 0.54843 0.55264
 C356 C 0.07614 0.52790 0.59186
 C357 C 0.12181 0.49101 0.58662
 C358 C 0.15217 0.52730 0.62414
 H359 H 0.05352 0.67989 0.58468
 H360 H 0.00135 0.62122 0.52767
 H361 H 0.13827 0.49067 0.54468
 H362 H 0.11391 0.45123 0.60537
 H363 H 0.18596 0.54757 0.60394
 H364 H 0.16088 0.50868 0.66453
 C365 C 0.59731 0.05586 0.62358
 C366 C 0.62035 0.10289 0.60374
 C367 C 0.61536 0.11443 0.54756
 C368 C 0.58376 0.08244 0.51425
 C369 C 0.55623 0.03842 0.53624
 C370 C 0.56577 0.02442 0.59083
 C371 C 0.52822 0.01401 0.63671
 C372 C 0.56306 0.04802 0.67221
 H373 H 0.63447 0.14904 0.52968
 H374 H 0.57912 0.09361 0.47175
 H375 H 0.52796 -0.02843 0.65018
 H376 H 0.48887 0.03176 0.62921
 H377 H 0.58305 0.02496 0.70519
 H378 H 0.54399 0.08550 0.68527
 C379 C 0.62161 0.55849 0.07040
 C380 C 0.60199 0.59312 0.10977
 C381 C 0.54712 0.60059 0.11169
 C382 C 0.51343 0.57155 0.07780
 C383 C 0.53379 0.53568 0.03992
 C384 C 0.58818 0.53064 0.03626
 C385 C 0.62121 0.48173 0.03844
 C386 C 0.65747 0.51159 0.07629
 H387 H 0.53014 0.62806 0.14029
 H388 H 0.47144 0.57712 0.08126
 H389 H 0.63955 0.47288 -0.00147
 H390 H 0.60115 0.44738 0.05854
 H391 H 0.69680 0.51954 0.05831
 H392 H 0.65781 0.49403 0.11815
   
