data_POSCAR
  _audit_creation_date              2014-09-24
  _audit_creation_method            'ToBaCCo'
  _symmetry_space_group_name_H-M    'P1'
  _symmetry_Int_Tables_number       1
  _symmetry_cell_setting            triclinic
  loop_
  _symmetry_equiv_pos_as_xyz
 x,y,z
_cell_length_a 29.8535
_cell_length_b 29.7582
_cell_length_c 74.9729
_cell_angle_alpha 98.239000
_cell_angle_beta 81.377000
_cell_angle_gamma 120.122800
loop_
  _atom_site_label
  _atom_site_type_symbol
  _atom_site_fract_x
  _atom_site_fract_y
  _atom_site_fract_z
C1 C 0.02869 -0.02308 0.52211
 H2 H 0.06180 -0.02861 0.52223
 C3 C 0.02199 0.01280 0.53466
 H4 H 0.04979 0.03441 0.54463
 C5 C -0.04728 -0.04421 0.50868
 H6 H -0.07351 -0.06599 0.49828
 C7 C -0.05577 -0.00884 0.52116
 H8 H -0.08868 -0.00348 0.52033
 N9 N -0.00504 -0.04987 0.50924
 C10 C 0.06704 -0.14002 0.50254
 H11 H 0.09829 -0.11806 0.49268
 C12 C 0.07261 -0.17180 0.51308
 H13 H 0.10779 -0.17469 0.51093
 C14 C -0.01586 -0.16192 0.51781
 H15 H -0.04933 -0.15624 0.52016
 C16 C -0.01196 -0.19402 0.52860
 H17 H -0.04294 -0.21317 0.53901
 Zn18 Zn 0.01312 -0.09200 0.49188
 N19 N 0.02293 -0.13617 0.50492
 C20 C 0.09877 -0.06742 0.46488
 N21 N 0.07508 -0.04736 0.47786
 C22 C 0.09094 0.00450 0.47965
 C23 C 0.13073 0.03803 0.46783
 C24 C 0.13910 -0.03507 0.45278
 C25 C -0.08735 -0.17148 0.48201
 C26 C -0.12422 -0.20425 0.46987
 C27 C -0.06419 -0.15518 0.44562
 C28 C -0.02895 -0.12332 0.45823
 N29 N -0.04016 -0.13274 0.47599
 H30 H 0.08460 -0.10897 0.46330
 H31 H 0.07087 0.01980 0.48959
 H32 H 0.14040 0.07853 0.46901
 H33 H 0.15669 -0.05198 0.44233
 H34 H -0.09626 -0.17807 0.49619
 H35 H -0.15961 -0.23614 0.47544
 H36 H -0.05329 -0.14428 0.43184
 H37 H 0.00758 -0.09091 0.45367
 C38 C 0.03267 -0.19940 0.52631
 C39 C -0.02014 0.02094 0.53410
 C40 C -0.11279 -0.19789 0.45105
 C41 C 0.15480 0.01833 0.45392
 C42 C 0.95717 0.01471 0.13887
 H43 H 0.92644 0.01911 0.13485
 C44 C 0.99658 0.01644 0.12590
 H45 H 0.99490 0.02085 0.11196
 C46 C 0.99858 0.00693 0.16194
 H47 H 1.00009 0.00544 0.17616
 C48 C 1.03892 0.00850 0.14936
 H49 H 1.07121 0.00780 0.15399
 N50 N 0.95937 0.01116 0.15657
 C51 C 0.87372 0.08470 0.16373
 H52 H 0.90300 0.11758 0.17122
 C53 C 0.84035 0.09148 0.15450
 H54 H 0.84411 0.12976 0.15501
 C55 C 0.83288 -0.00528 0.15398
 H56 H 0.83062 -0.04279 0.15375
 C57 C 0.79880 -0.00032 0.14466
 H58 H 0.77083 -0.03423 0.13706
 Zn59 Zn 0.91428 0.02422 0.17441
 N60 N 0.86981 0.03695 0.16305
 C61 C 0.99671 0.12518 0.18152
 N62 N 0.95768 0.08248 0.18948
 C63 C 0.95451 0.07812 0.20750
 C64 C 0.99251 0.11679 0.21813
 C65 C 1.03586 0.16467 0.19165
 C66 C 0.87710 -0.07566 0.18768
 C67 C 0.84468 -0.11560 0.19902
 C68 C 0.79999 -0.06747 0.21118
 C69 C 0.83313 -0.02865 0.19970
 N70 N 0.87126 -0.03290 0.18848
 H71 H 0.99889 0.12722 0.16710
 H72 H 0.92411 0.04341 0.21353
 H73 H 0.99055 0.11122 0.23224
 H74 H 1.06758 0.19757 0.18500
 H75 H 0.90731 -0.07846 0.17848
 H76 H 0.85069 -0.14872 0.19863
 H77 H 0.76998 -0.06312 0.22002
 H78 H 0.82900 0.00550 0.19986
 C79 C 0.80247 0.04860 0.14471
 C80 C 1.03898 0.01501 0.13117
 C81 C 0.80597 -0.11135 0.21117
 C82 C 1.03465 0.16010 0.21013
 C83 C 0.12335 1.03839 0.85430
 H84 H 0.09150 0.99934 0.85185
 C85 C 0.16170 1.04700 0.86496
 H86 H 0.15870 1.01424 0.87079
 C87 C 0.16365 1.12865 0.85045
 H88 H 0.16348 1.16033 0.84503
 C89 C 0.20299 1.13909 0.86113
 H90 H 0.23349 1.17890 0.86360
 N91 N 0.12472 1.07889 0.84740
 C92 C 0.01903 1.06130 0.86966
 H93 H 0.05858 1.08007 0.87320
 C94 C -0.02016 1.05704 0.88312
 H95 H -0.00822 1.07402 0.89647
 C96 C -0.04097 1.02308 0.84748
 H97 H -0.04864 1.01128 0.83344
 C98 C -0.08175 1.01751 0.86058
 H99 H -0.12037 0.99882 0.85617
 Zn100 Zn 0.06694 1.06074 0.83477
 N101 N 0.00844 1.04503 0.85217
 C102 C 0.01320 0.95618 0.81763
 N103 N 0.05814 1.00268 0.81828
 C104 C 0.10109 1.01011 0.80705
 C105 C 0.09956 0.97096 0.79411
 C106 C 0.00980 0.91586 0.80471
 C107 C 0.12354 1.13992 0.81032
 C108 C 0.12967 1.17546 0.79855
 C109 C 0.04452 1.16279 0.81002
 C110 C 0.04038 1.12818 0.82173
 N111 N 0.07886 1.11609 0.82133
 H112 H -0.02010 0.95010 0.82702
 H113 H 0.13701 1.04643 0.80828
 H114 H 0.13457 0.97790 0.78548
 H115 H -0.02668 0.87967 0.80406
 H116 H 0.15428 1.13088 0.81042
 H117 H 0.16544 1.19356 0.78985
 H118 H 0.01190 1.16915 0.80996
 H119 H 0.00530 1.10951 0.83060
 C120 C -0.07196 1.03543 0.87887
 C121 C 0.20204 1.09791 0.86865
 C122 C 0.08914 1.18618 0.79790
 C123 C 0.05326 0.92328 0.79257
 C124 C 0.59574 0.08013 0.02393
 C125 C 0.62506 0.07763 0.00782
 C126 C 0.60946 0.07577 -0.00911
 C127 C 0.56366 0.07834 -0.00990
 C128 C 0.53202 0.07809 0.00629
 C129 C 0.54799 0.07877 0.02327
 C130 C 0.51652 0.07952 0.03913
 C131 C 0.46932 0.07759 0.03832
 C132 C 0.45221 0.07596 0.02164
 C133 C 0.48471 0.07803 0.00551
 C134 C 0.54954 0.08292 -0.02634
 C135 C 0.50401 0.08442 -0.02703
 C136 C 0.47033 0.08066 -0.01135
 C137 C 0.42339 0.08107 -0.01197
 C138 C 0.39107 0.07738 0.00396
 C139 C 0.40419 0.07388 0.02066
 H140 H 0.52801 0.08153 0.05237
 H141 H 0.44688 0.07854 0.05097
 H142 H 0.57417 0.08662 -0.03881
 H143 H 0.49570 0.08881 -0.04003
 H144 H 0.66042 0.07633 0.00852
 H145 H 0.35431 0.07590 0.00324
 C146 C 0.02597 0.57644 0.67852
 C147 C 0.02285 0.59048 0.66190
 C148 C 0.01777 0.55806 0.64601
 C149 C 0.01474 0.50933 0.64663
 C150 C 0.01921 0.49497 0.66326
 C151 C 0.02576 0.52901 0.67920
 C152 C 0.03377 0.51557 0.69520
 C153 C 0.03356 0.46891 0.69574
 C154 C 0.02467 0.43341 0.68036
 C155 C 0.01812 0.44690 0.66389
 C156 C 0.00850 0.47515 0.63101
 C157 C 0.00617 0.42755 0.63171
 C158 C 0.01153 0.41293 0.64794
 C159 C 0.01054 0.36520 0.64865
 C160 C 0.01627 0.35211 0.66501
 C161 C 0.02384 0.38554 0.68079
 H162 H 0.04142 0.54152 0.70741
 H163 H 0.04098 0.46134 0.70835
 H164 H 0.00532 0.48480 0.61806
 H165 H 0.00042 0.40244 0.61932
 H166 H 0.02368 0.62713 0.66134
 H167 H 0.01592 0.31561 0.66537
 C168 C 0.35903 0.36551 0.31819
 C169 C 0.34553 0.33299 0.33210
 C170 C 0.37907 0.34500 0.34536
 C171 C 0.42804 0.39108 0.34475
 C172 C 0.44232 0.42460 0.33076
 C173 C 0.40790 0.41168 0.31736
 C174 C 0.42277 0.44590 0.30378
 C175 C 0.47102 0.49105 0.30303
 C176 C 0.50588 0.50439 0.31607
 C177 C 0.49092 0.47150 0.33030
 C178 C 0.46346 0.40418 0.35758
 C179 C 0.51032 0.45081 0.35742
 C180 C 0.52421 0.48568 0.34420
 C181 C 0.57100 0.53400 0.34429
 C182 C 0.58595 0.56496 0.32980
 C183 C 0.55476 0.55050 0.31556
 H184 H 0.39717 0.43834 0.29361
 H185 H 0.48024 0.51604 0.29234
 H186 H 0.45539 0.37855 0.36791
 H187 H 0.53597 0.45889 0.36765
 H188 H 0.30784 0.29791 0.33273
 H189 H 0.62242 0.60142 0.32969
 C190 C -0.07308 0.05147 0.55635
 C191 C -0.07633 0.08929 0.56910
 C192 C -0.03216 0.13787 0.57216
 C193 C 0.01527 0.14863 0.56205
 C194 C 0.01865 0.11084 0.54947
 C195 C -0.02528 0.06165 0.54666
 N196 N -0.03552 0.17469 0.58611
 N197 N 0.00296 0.22020 0.58867
 C198 C 0.00199 0.25695 0.60309
 C199 C 0.04535 0.30693 0.60427
 C200 C 0.04753 0.34272 0.61885
 C201 C 0.00618 0.32888 0.63246
 C202 C -0.03758 0.27899 0.63123
 C203 C -0.03986 0.24325 0.61657
 H204 H -0.10743 0.01379 0.55447
 H205 H -0.11309 0.08045 0.57683
 H206 H 0.05000 0.18584 0.56412
 H207 H 0.05580 0.11993 0.54200
 H208 H 0.07797 0.31777 0.59404
 H209 H 0.08187 0.38082 0.61975
 H210 H -0.06956 0.26760 0.64173
 H211 H -0.07361 0.20470 0.61601
 C212 C 0.76064 0.86409 0.24202
 C213 C 0.72899 0.82701 0.25432
 C214 C 0.70898 0.77391 0.24913
 C215 C 0.72111 0.75801 0.23136
 C216 C 0.75288 0.79520 0.21897
 C217 C 0.77282 0.84868 0.22417
 N218 N 0.67742 0.73746 0.26234
 N219 N 0.65798 0.68839 0.25904
 C220 C 0.62774 0.65347 0.27286
 C221 C 0.61140 0.60026 0.26918
 C222 C 0.58564 0.56611 0.28289
 C223 C 0.57546 0.58481 0.30044
 C224 C 0.59038 0.63783 0.30397
 C225 C 0.61624 0.67191 0.29031
 H226 H 0.77612 0.90495 0.24656
 H227 H 0.72023 0.83970 0.26801
 H228 H 0.70610 0.71707 0.22706
 H229 H 0.76124 0.78214 0.20529
 H230 H 0.62010 0.58556 0.25582
 H231 H 0.57515 0.52546 0.27999
 H232 H 0.58315 0.65303 0.31745
 H233 H 0.62827 0.71282 0.29351
 C234 C 0.25625 0.14981 -0.10557
 C235 C 0.28738 0.15500 -0.09236
 C236 C 0.30331 0.11817 -0.09213
 C237 C 0.28986 0.07726 -0.10583
 C238 C 0.25898 0.07215 -0.11908
 C239 C 0.24067 0.10758 -0.11883
 N240 N 0.33002 0.12120 -0.07726
 N241 N 0.34091 0.08602 -0.07534
 C242 C 0.36511 0.08741 -0.06000
 C243 C 0.37282 0.04561 -0.05824
 C244 C 0.39278 0.04387 -0.04279
 C245 C 0.40586 0.08438 -0.02897
 C246 C 0.39878 0.12662 -0.03083
 C247 C 0.37865 0.12825 -0.04624
 H248 H 0.24242 0.17745 -0.10488
 H249 H 0.29745 0.18667 -0.08185
 H250 H 0.30207 0.04852 -0.10604
 H251 H 0.24846 0.03976 -0.12932
 H252 H 0.36216 0.01374 -0.06868
 H253 H 0.39723 0.01059 -0.04144
 H254 H 0.40823 0.15796 -0.02021
 H255 H 0.37284 0.16087 -0.04724
 C256 C 0.08548 0.78572 0.54549
 C257 C 0.08910 0.75741 0.55804
 C258 C 0.04559 0.71125 0.56359
 C259 C -0.00147 0.69264 0.55599
 C260 C -0.00515 0.72086 0.54344
 C261 C 0.03803 0.76821 0.53829
 N262 N 0.04947 0.68576 0.57764
 N263 N 0.01087 0.64491 0.58389
 C264 C 0.01439 0.62120 0.59858
 C265 C -0.02998 0.57721 0.60520
 C266 C -0.02877 0.55555 0.62038
 C267 C 0.01708 0.57758 0.62904
 C268 C 0.06175 0.62112 0.62225
 C269 C 0.06054 0.64273 0.60710
 H270 H 0.11927 0.82228 0.54196
 H271 H 0.12554 0.77223 0.56384
 H272 H -0.03562 0.65693 0.56001
 H273 H -0.04200 0.70594 0.53792
 H274 H -0.06584 0.56046 0.59883
 H275 H -0.06375 0.52234 0.62561
 H276 H 0.09729 0.63883 0.62889
 H277 H 0.09529 0.67684 0.60230
 C278 C 0.13050 0.21322 0.21315
 C279 C 0.17219 0.24217 0.22382
 C280 C 0.16346 0.25570 0.24214
 C281 C 0.11247 0.24176 0.24956
 C282 C 0.07073 0.21269 0.23893
 C283 C 0.07917 0.19713 0.22071
 N284 N 0.20625 0.28024 0.25315
 N285 N 0.20059 0.29278 0.26996
 C286 C 0.24229 0.31438 0.28136
 C287 C 0.23305 0.32859 0.29957
 C288 C 0.27154 0.34637 0.31141
 C289 C 0.32001 0.35027 0.30519
 C290 C 0.32956 0.33643 0.28689
 C291 C 0.29105 0.31882 0.27501
 H292 H 0.13824 0.20128 0.19923
 H293 H 0.21125 0.25253 0.21795
 H294 H 0.10468 0.25190 0.26369
 H295 H 0.03169 0.20133 0.24507
 H296 H 0.19555 0.32499 0.30464
 H297 H 0.26335 0.35647 0.32552
 H298 H 0.36648 0.33847 0.28192
 H299 H 0.29894 0.30762 0.26102
 C300 C 0.89455 0.03896 -0.08896
 C301 C 0.85865 0.04362 -0.07573
 C302 C 0.81459 0.04212 -0.08052
 C303 C 0.80592 0.03466 -0.09884
 C304 C 0.84235 0.03100 -0.11223
 C305 C 0.88835 0.03433 -0.10762
 N306 N 0.78085 0.05079 -0.06654
 N307 N 0.73471 0.03916 -0.06876
 C308 C 0.70348 0.05063 -0.05445
 C309 C 0.64928 0.01994 -0.05347
 C310 C 0.61845 0.02847 -0.03890
 C311 C 0.64138 0.06930 -0.02547
 C312 C 0.69571 0.10108 -0.02685
 C313 C 0.72652 0.09159 -0.04112
 H314 H 0.92667 0.03834 -0.08424
 H315 H 0.86526 0.04850 -0.06159
 H316 H 0.77207 0.03374 -0.10284
 H317 H 0.83512 0.02861 -0.12611
 H318 H 0.63109 -0.01184 -0.06364
 H319 H 0.57679 0.00259 -0.03792
 H320 H 0.71437 0.13270 -0.01668
 H321 H 0.76836 0.11615 -0.04173
 C322 C 0.10387 0.06504 0.10637
 C323 C 0.14750 0.07575 0.09417
 C324 C 0.17291 0.04674 0.09329
 C325 C 0.15437 0.00675 0.10495
 C326 C 0.11076 -0.00381 0.11733
 C327 C 0.08486 0.02505 0.11805
 N328 N 0.21696 0.05869 0.08031
 N329 N 0.24062 0.03240 0.07761
 C330 C 0.28406 0.04529 0.06423
 C331 C 0.30444 0.01134 0.05995
 C332 C 0.34453 0.02126 0.04610
 C333 C 0.36540 0.06589 0.03654
 C334 C 0.34570 0.10050 0.04110
 C335 C 0.30539 0.09035 0.05483
 H336 H 0.08543 0.08865 0.10686
 H337 H 0.16155 0.10676 0.08530
 H338 H 0.17350 -0.01617 0.10451
 H339 H 0.09690 -0.03485 0.12616
 H340 H 0.28825 -0.02359 0.06703
 H341 H 0.35848 -0.00645 0.04256
 H342 H 0.36098 0.13492 0.03380
 H343 H 0.29044 0.11732 0.05789
 C344 C 0.87100 0.76437 0.42009
 C345 C 0.83693 0.73030 0.40741
 C346 C 0.78421 0.69946 0.41256
 C347 C 0.76562 0.70234 0.43075
 C348 C 0.79963 0.73602 0.44361
 C349 C 0.85341 0.76855 0.43862
 N350 N 0.75057 0.66657 0.39890
 N351 N 0.70137 0.64069 0.40203
 C352 C 0.66878 0.60937 0.38790
 C353 C 0.61498 0.58942 0.39118
 C354 C 0.58278 0.56309 0.37715
 C355 C 0.60393 0.55548 0.35968
 C356 C 0.65768 0.57387 0.35658
 C357 C 0.68990 0.60066 0.37055
 H358 H 0.91159 0.78512 0.41516
 H359 H 0.85180 0.72793 0.39341
 H360 H 0.72470 0.67898 0.43502
 H361 H 0.78228 0.73790 0.45721
 H362 H 0.59826 0.59605 0.40446
 H363 H 0.54159 0.55017 0.37976
 H364 H 0.67484 0.56869 0.34320
 H365 H 0.73135 0.61551 0.36769
 C366 C 0.11600 0.21631 0.76643
 C367 C 0.11428 0.24261 0.75276
 C368 C 0.08750 0.27072 0.75610
 C369 C 0.06421 0.27428 0.77357
 C370 C 0.06661 0.24869 0.78737
 C371 C 0.09158 0.21838 0.78388
 N372 N 0.08298 0.29346 0.74135
 N373 N 0.05154 0.31103 0.74235
 C374 C 0.04674 0.33240 0.72724
 C375 C 0.00552 0.34261 0.72789
 C376 C -0.00187 0.36051 0.71290
 C377 C 0.03267 0.36945 0.69718
 C378 C 0.07440 0.35992 0.69665
 C379 C 0.08140 0.34149 0.71153
 H380 H 0.13480 0.19276 0.76307
 H381 H 0.13232 0.23954 0.73933
 H382 H 0.04381 0.29637 0.77651
 H383 H 0.04837 0.25222 0.80070
 H384 H -0.02162 0.33548 0.73987
 H385 H -0.03479 0.36681 0.71345
 H386 H 0.10125 0.36628 0.68461
 H387 H 0.11358 0.33395 0.71069
 C388 C 0.71622 0.01569 0.13273
 C389 C 0.68591 0.01830 0.12083
 C390 C 0.70705 0.05983 0.10986
 C391 C 0.75853 0.10011 0.11145
 C392 C 0.78893 0.09755 0.12335
 C393 C 0.76846 0.05469 0.13381
 N394 N 0.67688 0.05828 0.09639
 N395 N 0.69425 0.09444 0.08579
 C396 C 0.66594 0.09167 0.07147
 C397 C 0.68801 0.13320 0.06045
 C398 C 0.66406 0.12996 0.04533
 C399 C 0.61744 0.08509 0.04106
 C400 C 0.59459 0.04375 0.05228
 C401 C 0.61858 0.04704 0.06746
 H402 H 0.69908 -0.01739 0.14083
 H403 H 0.64628 -0.01291 0.11977
 H404 H 0.77583 0.13263 0.10309
 H405 H 0.82913 0.12793 0.12374
 H406 H 0.72461 0.16758 0.06333
 H407 H 0.68245 0.16198 0.03669
 H408 H 0.55900 0.00857 0.04901
 H409 H 0.60096 0.01427 0.07572
 C410 C 0.19122 0.03369 0.42149
 C411 C 0.22105 0.06761 0.40800
 C412 C 0.25184 0.12098 0.41251
 C413 C 0.25502 0.13979 0.43082
 C414 C 0.22579 0.10587 0.44435
 C415 C 0.19223 0.05264 0.43983
 N416 N 0.27670 0.15553 0.39831
 N417 N 0.29664 0.20470 0.40148
 C418 C 0.31969 0.23950 0.38734
 C419 C 0.33434 0.29214 0.39165
 C420 C 0.35408 0.32664 0.37805
 C421 C 0.36046 0.30909 0.35994
 C422 C 0.34613 0.25637 0.35562
 C423 C 0.32587 0.22175 0.36921
 H424 H 0.16544 -0.00682 0.41745
 H425 H 0.21829 0.05264 0.39392
 H426 H 0.27914 0.18084 0.43467
 H427 H 0.22846 0.12160 0.45833
 H428 H 0.32933 0.30617 0.40554
 H429 H 0.36394 0.36694 0.38160
 H430 H 0.35030 0.24201 0.34170
 H431 H 0.31464 0.18118 0.36554
 C432 C 0.07783 0.89607 0.76111
 C433 C 0.07764 0.85811 0.74779
 C434 C 0.05012 0.80551 0.75118
 C435 C 0.02225 0.79097 0.76814
 C436 C 0.02273 0.82906 0.78159
 C437 C 0.05087 0.88215 0.77826
 N438 N 0.05166 0.76813 0.73714
 N439 N 0.02438 0.71914 0.73828
 C440 C 0.02729 0.68324 0.72384
 C441 C -0.01004 0.63034 0.72395
 C442 C -0.00987 0.59515 0.70943
 C443 C 0.02844 0.61232 0.69477
 C444 C 0.06659 0.66515 0.69490
 C445 C 0.06603 0.70035 0.70928
 H446 H 0.09897 0.93639 0.75792
 H447 H 0.09896 0.86971 0.73472
 H448 H 0.00077 0.75042 0.77106
 H449 H 0.00201 0.81705 0.79469
 H450 H -0.04016 0.61668 0.73505
 H451 H -0.04024 0.55475 0.70943
 H452 H 0.09629 0.67925 0.68368
 H453 H 0.09551 0.74099 0.70891
   
