data_POSCAR
  _audit_creation_date              2014-09-24
  _audit_creation_method            'ToBaCCo'
  _symmetry_space_group_name_H-M    'P1'
  _symmetry_Int_Tables_number       1
  _symmetry_cell_setting            triclinic
  loop_
  _symmetry_equiv_pos_as_xyz
 x,y,z
_cell_length_a 46.1974
_cell_length_b 45.4092
_cell_length_c 43.5767
_cell_angle_alpha 90.098800
_cell_angle_beta 89.334600
_cell_angle_gamma 90.415700
loop_
  _atom_site_label
  _atom_site_type_symbol
  _atom_site_fract_x
  _atom_site_fract_y
  _atom_site_fract_z
C1 C 0.60049 0.65470 0.62622
 C2 C 0.59868 0.63097 0.64681
 C3 C 0.62108 0.61014 0.64834
 C4 C 0.64456 0.61268 0.62757
 C5 C 0.64601 0.63555 0.60593
 C6 C 0.62430 0.65699 0.60604
 H7 H 0.58031 0.62954 0.66244
 H8 H 0.66171 0.59654 0.62783
 H9 H 0.62528 0.67486 0.58960
 C10 C 0.90130 0.34800 0.12193
 C11 C 0.90125 0.36955 0.14526
 C12 C 0.88038 0.39185 0.14599
 C13 C 0.85909 0.39249 0.12334
 C14 C 0.85858 0.37119 0.09999
 C15 C 0.87978 0.34918 0.09929
 H16 H 0.91752 0.36918 0.16296
 H17 H 0.84282 0.40956 0.12394
 H18 H 0.87926 0.33285 0.08113
 C19 C 0.40231 0.14978 -0.12357
 C20 C 0.40297 0.12809 -0.14658
 C21 C 0.38185 0.10570 -0.14730
 C22 C 0.35993 0.10521 -0.12469
 C23 C 0.35887 0.12686 -0.10169
 C24 C 0.38018 0.14905 -0.10121
 H25 H 0.41994 0.12868 -0.16395
 H26 H 0.34348 0.08809 -0.12513
 H27 H 0.37947 0.16583 -0.08351
 C28 C 0.09728 0.84807 0.37775
 C29 C 0.12132 0.84557 0.39724
 C30 C 0.14270 0.86767 0.39810
 C31 C 0.14097 0.89159 0.37793
 C32 C 0.11775 0.89415 0.35771
 C33 C 0.09556 0.87286 0.35839
 H34 H 0.12286 0.82708 0.41280
 H35 H 0.15779 0.90836 0.37799
 H36 H 0.07763 0.87503 0.34276
 N37 N 0.08666 0.16773 0.10791
 N38 N 0.07550 0.15677 0.13339
 C39 C 0.05225 0.17275 0.14173
 C40 C 0.04842 0.19445 0.12002
 C41 C 0.07050 0.19061 0.09881
 H42 H 0.03889 0.16883 0.16187
 H43 H 0.07493 0.20399 0.07877
 Cu44 Cu 0.09196 0.12216 0.15256
 Cu45 Cu 0.12242 0.15285 0.08973
 Cu46 Cu 0.15293 0.09200 0.12444
 N47 N 0.10883 0.08753 0.17132
 N48 N 0.13314 0.07638 0.16064
 C49 C 0.14059 0.05330 0.17811
 C50 C 0.11966 0.04959 0.20067
 C51 C 0.09975 0.07158 0.19571
 H52 H 0.15963 0.03996 0.17449
 H53 H 0.08035 0.07576 0.20909
 N54 N 0.16974 0.11094 0.08764
 N55 N 0.15859 0.13460 0.07491
 C56 C 0.17574 0.14307 0.05124
 C57 C 0.19843 0.12356 0.04878
 C58 C 0.19394 0.10342 0.07206
 H59 H 0.17198 0.16190 0.03670
 H60 H 0.20766 0.08501 0.07751
 H61 H 0.11674 0.11002 0.10452
 H62 H 0.13868 0.13489 0.12943
 N63 N 0.40747 0.82809 0.61237
 N64 N 0.42454 0.84679 0.62668
 C65 C 0.44973 0.83346 0.63291
 C66 C 0.44817 0.80484 0.62222
 C67 C 0.42107 0.80210 0.60941
 H68 H 0.46772 0.84370 0.64461
 H69 H 0.41228 0.78291 0.59800
 Cu70 Cu 0.41218 0.88644 0.63706
 Cu71 Cu 0.37024 0.83977 0.59592
 Cu72 Cu 0.34377 0.90620 0.62158
 N73 N 0.39368 0.91943 0.65779
 N74 N 0.36666 0.92641 0.65231
 C75 C 0.35872 0.94861 0.67097
 C76 C 0.38205 0.95608 0.68897
 C77 C 0.40398 0.93723 0.67999
 H78 H 0.33747 0.95845 0.67161
 H79 H 0.42544 0.93595 0.68953
 N80 N 0.32391 0.88216 0.59073
 N81 N 0.33337 0.85618 0.58165
 C82 C 0.31561 0.84559 0.55985
 C83 C 0.29424 0.86613 0.55487
 C84 C 0.30013 0.88898 0.57479
 H85 H 0.31876 0.82521 0.54741
 H86 H 0.28836 0.90939 0.57691
 H87 H 0.37649 0.88470 0.59658
 H88 H 0.36361 0.86676 0.63321
 N89 N 0.90553 0.67156 0.38116
 N90 N 0.92448 0.65291 0.36972
 C91 C 0.95026 0.66659 0.36647
 C92 C 0.94709 0.69548 0.37584
 C93 C 0.91843 0.69800 0.38484
 H94 H 0.96967 0.65653 0.35729
 H95 H 0.90792 0.71736 0.39404
 Cu96 Cu 0.91325 0.61326 0.35788
 Cu97 Cu 0.86598 0.65972 0.39161
 Cu98 Cu 0.85147 0.58511 0.38586
 N99 N 0.89532 0.57867 0.33946
 N100 N 0.87061 0.56808 0.35007
 C101 C 0.86245 0.54499 0.33275
 C102 C 0.88327 0.54084 0.31016
 C103 C 0.90392 0.56248 0.31513
 H104 H 0.84284 0.53222 0.33633
 H105 H 0.92335 0.56656 0.30166
 N106 N 0.82788 0.61171 0.41092
 N107 N 0.83252 0.64040 0.41221
 C108 C 0.81319 0.65236 0.43195
 C109 C 0.79585 0.62997 0.44363
 C110 C 0.80572 0.60455 0.42975
 H111 H 0.81274 0.67534 0.43853
 H112 H 0.79780 0.58238 0.43363
 H113 H 0.88018 0.61847 0.40144
 H114 H 0.86154 0.62274 0.36385
 N115 N 0.58983 0.33219 -0.10866
 N116 N 0.57782 0.34476 -0.13248
 C117 C 0.55424 0.32906 -0.14054
 C118 C 0.55116 0.30574 -0.12042
 C119 C 0.57400 0.30841 -0.10041
 H120 H 0.54023 0.33417 -0.15948
 H121 H 0.57908 0.29375 -0.08173
 Cu122 Cu 0.59420 0.38048 -0.15034
 Cu123 Cu 0.62592 0.34663 -0.09119
 Cu124 Cu 0.65585 0.40980 -0.12357
 N125 N 0.61054 0.41649 -0.16765
 N126 N 0.63537 0.42706 -0.15789
 C127 C 0.64281 0.45079 -0.17473
 C128 C 0.62129 0.45560 -0.19582
 C129 C 0.60105 0.43357 -0.19068
 H130 H 0.66231 0.46376 -0.17176
 H131 H 0.58134 0.42990 -0.20332
 N132 N 0.67327 0.38916 -0.08866
 N133 N 0.66232 0.36468 -0.07684
 C134 C 0.67955 0.35553 -0.05406
 C135 C 0.70209 0.37543 -0.05119
 C136 C 0.69744 0.39650 -0.07334
 H137 H 0.67582 0.33610 -0.04021
 H138 H 0.71088 0.41560 -0.07803
 H139 H 0.62010 0.39020 -0.10294
 H140 H 0.64141 0.36710 -0.13038
 C141 C -0.03692 0.28276 0.12062
 N142 N -0.05433 0.28680 0.09615
 N143 N -0.07444 0.30770 0.09665
 C144 C -0.07763 0.32572 0.12142
 N145 N -0.05993 0.32168 0.14575
 N146 N -0.04015 0.30049 0.14547
 C147 C -0.01495 0.25963 0.12033
 N148 N -0.00613 0.24740 0.14700
 N149 N 0.01386 0.22640 0.14685
 C150 C 0.02608 0.21724 0.12005
 N151 N 0.01742 0.22961 0.09338
 N152 N -0.00292 0.25028 0.09349
 C153 C 0.53547 0.71852 0.62518
 N154 N 0.52883 0.68993 0.63119
 N155 N 0.54952 0.66964 0.63170
 C156 C 0.57755 0.67715 0.62580
 N157 N 0.58412 0.70574 0.61960
 N158 N 0.56349 0.72608 0.61948
 C159 C 0.51273 0.74091 0.62472
 N160 N 0.51951 0.76988 0.62794
 N161 N 0.49889 0.79023 0.62747
 C162 C 0.47080 0.78236 0.62337
 N163 N 0.46403 0.75341 0.62000
 N164 N 0.48460 0.73302 0.62086
 C165 C 1.03355 0.78389 0.37719
 N166 N 1.05884 0.77931 0.39187
 N167 N 1.07928 0.80013 0.39228
 C168 C 1.07550 0.82621 0.37759
 N169 N 1.05016 0.83058 0.36272
 N170 N 1.02951 0.80994 0.36272
 C171 C 1.01104 0.76098 0.37685
 N172 N 0.98273 0.76821 0.37404
 N173 N 0.96229 0.74734 0.37398
 C174 C 0.96950 0.71851 0.37622
 N175 N 0.99782 0.71127 0.37879
 N176 N 1.01821 0.73216 0.37935
 C177 C 0.46550 0.21641 -0.12202
 N178 N 0.45635 0.20503 -0.14908
 N179 N 0.43638 0.18372 -0.14955
 C180 C 0.42457 0.17325 -0.12301
 N181 N 0.43362 0.18479 -0.09596
 N182 N 0.45385 0.20585 -0.09547
 C183 C 0.48766 0.23972 -0.12152
 N184 N 0.50306 0.24507 -0.09573
 N185 N 0.52339 0.26603 -0.09541
 C186 C 0.52878 0.28264 -0.12074
 N187 N 0.51324 0.27743 -0.14645
 N188 N 0.49317 0.25622 -0.14690
 C189 C 0.11755 -0.03808 0.29247
 N190 N 0.09221 -0.04990 0.30290
 N191 N 0.09216 -0.07137 0.32375
 C192 C 0.11744 -0.08154 0.33518
 N193 N 0.14271 -0.06949 0.32487
 N194 N 0.14278 -0.04828 0.30383
 C195 C 0.11792 -0.01509 0.26884
 N196 N 0.14270 -0.00895 0.25301
 N197 N 0.14318 0.01161 0.23126
 C198 C 0.11896 0.02700 0.22474
 N199 N 0.09418 0.02102 0.24069
 N200 N 0.09363 0.00022 0.26225
 C201 C 0.61981 0.54427 -0.28643
 N202 N 0.64381 0.54938 -0.30386
 N203 N 0.64401 0.57036 -0.32515
 C204 C 0.62037 0.58743 -0.32965
 N205 N 0.59636 0.58229 -0.31201
 N206 N 0.59601 0.56099 -0.29098
 C207 C 0.61994 0.52132 -0.26279
 N208 N 0.59489 0.50856 -0.25281
 N209 N 0.59528 0.48746 -0.23158
 C210 C 0.62068 0.47872 -0.21928
 N211 N 0.64567 0.49166 -0.22910
 N212 N 0.64532 0.51243 -0.25063
 C213 C 0.38293 1.04181 0.78305
 N214 N 0.40773 1.05585 0.79123
 N215 N 0.40741 1.07622 0.81329
 C216 C 0.38235 1.08312 0.82820
 N217 N 0.35762 1.06892 0.82006
 N218 N 0.35788 1.04876 0.79784
 C219 C 0.38299 1.01961 0.75853
 N220 N 0.35766 1.01038 0.74617
 N221 N 0.35748 0.99028 0.72390
 C222 C 0.38259 0.97845 0.71334
 N223 N 0.40795 0.98757 0.72576
 N224 N 0.40815 1.00791 0.74787
 C225 C 0.88174 0.45560 0.21566
 N226 N 0.85633 0.44700 0.20299
 N227 N 0.85591 0.42690 0.18070
 C228 C 0.88085 0.41439 0.17047
 N229 N 0.90624 0.42294 0.18327
 N230 N 0.90670 0.44328 0.20533
 C231 C 0.88220 0.47776 0.24020
 N232 N 0.90716 0.49201 0.24741
 N233 N 0.90751 0.51222 0.26962
 C234 C 0.88297 0.51864 0.28565
 N235 N 0.85806 0.50427 0.27855
 N236 N 0.85764 0.48431 0.25612
 C237 C 0.29116 0.12572 -0.03683
 N238 N 0.30171 0.10020 -0.04857
 N239 N 0.32324 0.10058 -0.06917
 C240 C 0.33529 0.12647 -0.07852
 N241 N 0.32487 0.15198 -0.06656
 N242 N 0.30310 0.15163 -0.04623
 C243 C 0.26712 0.12526 -0.01451
 N244 N 0.25105 0.14972 -0.00934
 N245 N 0.22901 0.14914 0.01067
 C246 C 0.22248 0.12418 0.02646
 N247 N 0.23866 0.09977 0.02142
 N248 N 0.26047 0.10025 0.00115
 C249 C 0.71089 0.63542 0.53771
 N250 N 0.69631 0.66054 0.54433
 N251 N 0.67587 0.66078 0.56621
 C252 C 0.66945 0.63598 0.58245
 N253 N 0.68427 0.61100 0.57587
 N254 N 0.70451 0.61069 0.55391
 C255 C 0.73284 0.63447 0.51310
 N256 N 0.74316 0.60815 0.50328
 N257 N 0.76302 0.60686 0.48098
 C258 C 0.77345 0.63184 0.46774
 N259 N 0.76321 0.65823 0.47755
 N260 N 0.74313 0.65952 0.49976
 C261 C 0.79287 0.37278 0.03448
 N262 N 0.80453 0.34685 0.04340
 N263 N 0.82565 0.34637 0.06395
 C264 C 0.83569 0.37177 0.07661
 N265 N 0.82393 0.39768 0.06773
 N266 N 0.80304 0.39819 0.04692
 C267 C 0.76947 0.37335 0.01200
 N268 N 0.76301 0.39865 -0.00291
 N269 N 0.74169 0.39924 -0.02321
 C270 C 0.72581 0.37464 -0.02907
 N271 N 0.73217 0.34936 -0.01406
 N272 N 0.75372 0.34869 0.00599
 C273 C 0.20810 0.86535 0.46396
 N274 N 0.19929 0.89129 0.45199
 N275 N 0.17884 0.89188 0.43075
 C276 C 0.16620 0.86657 0.42081
 N277 N 0.17500 0.84057 0.43285
 N278 N 0.19570 0.83996 0.45392
 C279 C 0.23034 0.86512 0.48773
 N280 N 0.24423 0.83991 0.49523
 N281 N 0.26463 0.84011 0.51665
 C282 C 0.27158 0.86546 0.53152
 N283 N 0.25755 0.89056 0.52414
 N284 N 0.23740 0.89042 0.50256
   
