data_POSCAR
  _audit_creation_date              2014-09-24
  _audit_creation_method            'ToBaCCo'
  _symmetry_space_group_name_H-M    'P1'
  _symmetry_Int_Tables_number       1
  _symmetry_cell_setting            triclinic
  loop_
  _symmetry_equiv_pos_as_xyz
 x,y,z
_cell_length_a 52.4278
_cell_length_b 52.6275
_cell_length_c 22.6639
_cell_angle_alpha 89.968300
_cell_angle_beta 90.388100
_cell_angle_gamma 119.312100
loop_
  _atom_site_label
  _atom_site_type_symbol
  _atom_site_fract_x
  _atom_site_fract_y
  _atom_site_fract_z
C1 C 0.13983 0.42634 0.52049
 C2 C 0.13808 0.42334 0.46025
 C3 C 0.16638 0.43325 0.44034
 N4 N 0.18521 0.44139 0.48664
 C5 C 0.16899 0.43731 0.53551
 C6 C 0.17496 0.43656 0.38029
 C7 C 0.20308 0.44129 0.36434
 C8 C 0.21753 0.45439 0.31248
 C9 C 0.24368 0.45428 0.31352
 C10 C 0.24464 0.44138 0.36615
 N11 N 0.21991 0.43361 0.39705
 C12 C 0.26737 0.43586 0.38340
 C13 C 0.27113 0.42972 0.44224
 C14 C 0.28835 0.41787 0.46005
 C15 C 0.28907 0.41884 0.52051
 C16 C 0.27282 0.43193 0.53748
 N17 N 0.26147 0.43815 0.48945
 C18 C 0.27052 0.44022 0.59587
 C19 C 0.24872 0.44766 0.61071
 C20 C 0.24974 0.46430 0.65917
 C21 C 0.22443 0.46603 0.65804
 C22 C 0.20877 0.45073 0.60860
 N23 N 0.22370 0.43966 0.57985
 C24 C 0.18069 0.44602 0.59281
 H25 H 0.12177 0.42116 0.54992
 H26 H 0.11825 0.41511 0.43412
 H27 H 0.21598 0.42526 0.54421
 H28 H 0.21025 0.46353 0.27778
 H29 H 0.26018 0.46297 0.27957
 H30 H 0.29948 0.40972 0.43225
 H31 H 0.30072 0.41129 0.54869
 H32 H 0.21840 0.47750 0.68975
 H33 H 0.21374 0.42144 0.43580
 H34 H 0.26710 0.47457 0.69161
 C35 C 0.57979 -0.13468 0.47637
 C36 C 0.57830 -0.13626 0.53671
 C37 C 0.56810 -0.16525 0.55128
 N38 N 0.56395 -0.18130 0.50194
 C39 C 0.57086 -0.16264 0.45619
 C40 C 0.56058 -0.17706 0.60881
 C41 C 0.55745 -0.20478 0.62202
 C42 C 0.54242 -0.22199 0.66992
 C43 C 0.54542 -0.24647 0.66760
 C44 C 0.56174 -0.24382 0.61786
 N45 N 0.56895 -0.21844 0.59019
 C46 C 0.57054 -0.26401 0.60023
 C47 C 0.57842 -0.26556 0.54162
 C48 C 0.59164 -0.28136 0.52316
 C49 C 0.59182 -0.28046 0.46271
 C50 C 0.57833 -0.26445 0.44630
 N51 N 0.57050 -0.25501 0.49473
 C52 C 0.57089 -0.26105 0.38766
 C53 C 0.56457 -0.23844 0.37289
 C54 C 0.54996 -0.23744 0.32226
 C55 C 0.54870 -0.21197 0.32469
 C56 C 0.56200 -0.19836 0.37719
 N57 N 0.57171 -0.21449 0.40625
 C58 C 0.56558 -0.17131 0.39654
 H59 H 0.58618 -0.11530 0.45021
 H60 H 0.58366 -0.11822 0.56643
 H61 H 0.58446 -0.20831 0.44457
 H62 H 0.53018 -0.21765 0.70282
 H63 H 0.53623 -0.26439 0.69852
 H64 H 0.59974 -0.29280 0.55044
 H65 H 0.60034 -0.29092 0.43399
 H66 H 0.53856 -0.20465 0.29211
 H67 H 0.58312 -0.20982 0.55458
 H68 H 0.54060 -0.25359 0.28754
 C69 C 1.15295 0.69026 0.49582
 C70 C 1.15285 0.69404 0.55554
 C71 C 1.16784 0.72389 0.56581
 N72 N 1.17757 0.73842 0.51446
 C73 C 1.16834 0.71785 0.47173
 C74 C 1.17164 0.73750 0.62151
 C75 C 1.19410 0.76657 0.63089
 C76 C 1.19514 0.78442 0.67693
 C77 C 1.22149 0.80971 0.67290
 C78 C 1.23578 0.80662 0.62445
 N79 N 1.21871 0.78051 0.59837
 C80 C 1.26475 0.82662 0.60759
 C81 C 1.27381 0.82741 0.54847
 C82 C 1.30260 0.83961 0.53007
 C83 C 1.30178 0.83672 0.46999
 C84 C 1.27252 0.82260 0.45344
 N85 N 1.25536 0.81658 0.50158
 C86 C 1.26208 0.81580 0.39446
 C87 C 1.23360 0.79255 0.38185
 C88 C 1.21876 0.78780 0.32840
 C89 C 1.19338 0.76148 0.33289
 C90 C 1.19313 0.75126 0.38929
 N91 N 1.21752 0.77036 0.41899
 C92 C 1.17196 0.72391 0.41093
 H93 H 1.14299 0.66956 0.47279
 H94 H 1.14306 0.67674 0.58769
 H95 H 1.22439 0.76675 0.45983
 H96 H 1.17873 0.77961 0.71029
 H97 H 1.22939 0.82817 0.70259
 H98 H 1.32220 0.84906 0.55710
 H99 H 1.32060 0.84355 0.44181
 H100 H 1.17706 0.75099 0.29856
 H101 H 1.22510 0.77143 0.56461
 H102 H 1.22566 0.80161 0.28980
 C103 C 0.84910 0.54105 0.51631
 C104 C 0.85243 0.54525 0.45654
 C105 C 0.83827 0.56061 0.44078
 N106 N 0.82663 0.56620 0.48888
 C107 C 0.83341 0.55442 0.53527
 C108 C 0.83684 0.56994 0.38305
 C109 C 0.81648 0.57903 0.36713
 C110 C 0.81702 0.59320 0.31518
 C111 C 0.79139 0.59442 0.31294
 C112 C 0.77600 0.58099 0.36364
 N113 N 0.79158 0.57200 0.39670
 C114 C 0.74679 0.57384 0.37466
 C115 C 0.73379 0.56514 0.43078
 C116 C 0.70400 0.55163 0.44135
 C117 C 0.70060 0.54752 0.50113
 C118 C 0.72847 0.55905 0.52531
 N119 N 0.74874 0.56965 0.48209
 C120 C 0.73521 0.55999 0.58624
 C121 C 0.76320 0.56496 0.60463
 C122 C 0.77594 0.57612 0.65916
 C123 C 0.80163 0.57515 0.66143
 C124 C 0.80394 0.56344 0.60820
 N125 N 0.78075 0.55788 0.57322
 C126 C 0.82608 0.55635 0.59458
 H127 H 0.85699 0.52911 0.54253
 H128 H 0.86350 0.53739 0.42786
 H129 H 0.77549 0.54663 0.53319
 H130 H 0.83367 0.60094 0.28149
 H131 H 0.78438 0.60321 0.27710
 H132 H 0.68647 0.54489 0.40926
 H133 H 0.67989 0.53671 0.52386
 H134 H 0.81679 0.58204 0.69832
 H135 H 0.78365 0.55808 0.43273
 H136 H 0.76748 0.58396 0.69390
 C137 C 0.41401 0.13379 0.47253
 C138 C 0.41297 0.13234 0.53292
 C139 C 0.42485 0.16077 0.55335
 N140 N 0.43240 0.17946 0.50749
 C141 C 0.42600 0.16298 0.45815
 C142 C 0.43115 0.16959 0.61313
 C143 C 0.43617 0.19755 0.63100
 C144 C 0.45155 0.21229 0.68125
 C145 C 0.45148 0.23832 0.68254
 C146 C 0.43611 0.23897 0.63297
 N147 N 0.42711 0.21416 0.60136
 C148 C 0.43087 0.26224 0.61796
 C149 C 0.42541 0.26701 0.55877
 C150 C 0.41431 0.28499 0.54106
 C151 C 0.41650 0.28696 0.48078
 C152 C 0.42821 0.26962 0.46362
 N153 N 0.43348 0.25727 0.51119
 C154 C 0.43648 0.26749 0.40557
 C155 C 0.44184 0.24479 0.38835
 C156 C 0.45595 0.24432 0.33717
 C157 C 0.45526 0.21784 0.33582
 C158 C 0.44079 0.20299 0.38627
 N159 N 0.43260 0.21949 0.41789
 C160 C 0.43413 0.17436 0.40082
 H161 H 0.40720 0.11555 0.44258
 H162 H 0.40497 0.11267 0.55888
 H163 H 0.41899 0.21265 0.45456
 H164 H 0.46250 0.20546 0.71295
 H165 H 0.46231 0.25521 0.71548
 H166 H 0.40614 0.29609 0.56886
 H167 H 0.41043 0.29984 0.45279
 H168 H 0.46437 0.21041 0.30159
 H169 H 0.41371 0.20805 0.56392
 H170 H 0.46572 0.26124 0.30422
 C171 C 0.70696 0.13897 0.54845
 C172 C 0.70513 0.13737 0.48810
 C173 C 0.72245 0.16547 0.46763
 N174 N 0.73487 0.18421 0.51331
 C175 C 0.72518 0.16806 0.56284
 C176 C 0.72429 0.17396 0.40807
 C177 C 0.74573 0.20173 0.38851
 C178 C 0.74455 0.21448 0.33580
 C179 C 0.76970 0.24106 0.33317
 C180 C 0.78562 0.24369 0.38420
 N181 N 0.77093 0.21953 0.41748
 C182 C 0.81356 0.26743 0.39759
 C183 C 0.82688 0.27198 0.45382
 C184 C 0.85590 0.29183 0.46606
 C185 C 0.85930 0.29185 0.52615
 C186 C 0.83217 0.27222 0.54858
 N187 N 0.81241 0.25999 0.50429
 C188 C 0.82506 0.26826 0.60904
 C189 C 0.79738 0.24676 0.62903
 C190 C 0.78521 0.24801 0.68221
 C191 C 0.75835 0.22336 0.68517
 C192 C 0.75509 0.20727 0.63429
 N193 N 0.77899 0.22188 0.60001
 C194 C 0.73067 0.17965 0.62086
 H195 H 0.69585 0.12085 0.57844
 H196 H 0.69222 0.11785 0.46224
 H197 H 0.78359 0.21420 0.56141
 H198 H 0.72727 0.20569 0.30290
 H199 H 0.77556 0.25663 0.29763
 H200 H 0.87273 0.30525 0.43495
 H201 H 0.87925 0.30537 0.55063
 H202 H 0.74287 0.21823 0.72059
 H203 H 0.77881 0.21428 0.45515
 H204 H 0.79438 0.26528 0.71482
 O205 O 0.97578 0.51714 -0.09700
 O206 O 1.02851 0.51364 0.12494
 O207 O 0.95735 0.50769 0.03185
 O208 O 1.05207 0.55998 -0.03387
 O209 O 0.97724 0.50329 0.11160
 O210 O 1.02815 0.53962 -0.11357
 O211 O 1.04253 0.54831 0.06541
 O212 O 0.93976 0.47938 -0.06117
 C213 C 0.94899 0.50148 -0.09250
 C214 C 1.03998 0.54016 0.11648
 C215 C 0.96326 0.51355 0.08498
 C216 C 1.04584 0.56164 -0.08579
 O217 O 1.02677 0.49010 -0.11964
 O218 O 0.96391 0.44897 0.07521
 O219 O 0.95837 0.44392 -0.02818
 O220 O 1.05648 0.50398 0.05186
 O221 O 1.01594 0.46442 0.07246
 O222 O 0.97217 0.46421 -0.11310
 O223 O 1.06231 0.51584 -0.05541
 O224 O 0.92679 0.45273 0.04231
 Co225 Co 1.00048 0.50220 -0.10100
 Co226 Co 0.99684 0.48438 0.08639
 Co227 Co 0.95976 0.47689 0.00291
 Co228 Co 1.04908 0.52905 0.00678
 O229 O 1.00358 0.50014 -0.00564
 C230 C 1.05270 0.50014 -0.10147
 C231 C 0.93720 0.44187 0.08123
 C232 C 0.96003 0.44164 -0.08240
 C233 C 1.04316 0.47783 0.06907
 O234 O 0.50087 0.46328 -0.11022
 O235 O 0.47249 0.50272 0.10833
 O236 O 0.51913 0.45876 0.07044
 O237 O 0.45998 0.51284 -0.07314
 O238 O 0.48471 0.46518 0.10120
 O239 O 0.46423 0.47673 -0.10078
 O240 O 0.44917 0.49664 0.02739
 O241 O 0.49813 0.44373 -0.02639
 C242 C 0.49147 0.44093 -0.07920
 C243 C 0.44871 0.49248 0.08106
 C244 C 0.49601 0.44953 0.09866
 C245 C 0.44916 0.48867 -0.09785
 O246 O 0.50585 0.53407 -0.11718
 O247 O 0.54308 0.50636 0.10615
 O248 O 0.54845 0.48665 -0.07289
 O249 O 0.49483 0.54812 0.06261
 O250 O 0.53046 0.54336 0.09307
 O251 O 0.54288 0.52113 -0.10654
 O252 O 0.51178 0.55800 -0.03756
 O253 O 0.56305 0.50821 0.02345
 Co254 Co 0.50365 0.49906 -0.09865
 Co255 Co 0.50749 0.50414 0.09219
 Co256 Co 0.52947 0.47712 -0.00153
 Co257 Co 0.48164 0.52613 -0.00497
 O258 O 0.50556 0.50161 -0.00324
 C259 C 0.51621 0.55797 -0.09097
 C260 C 0.56565 0.51530 0.07591
 C261 C 0.55808 0.50935 -0.10261
 C262 C 0.51898 0.55877 0.08798
 O263 O 0.54512 0.02560 -0.08406
 O264 O 0.49532 -0.03010 0.12096
 O265 O 0.54781 0.04259 0.05095
 O266 O 0.48112 -0.06553 -0.05030
 O267 O 0.52014 0.02258 0.12396
 O268 O 0.51927 -0.02828 -0.08660
 O269 O 0.50455 -0.04809 0.04571
 O270 O 0.54212 0.06141 -0.04341
 C271 C 0.55535 0.05233 -0.07541
 C272 C 0.50720 -0.04341 0.09917
 C273 C 0.54534 0.03721 0.10405
 C274 C 0.50356 -0.05526 -0.08156
 O275 O 0.46852 -0.02992 -0.11437
 O276 O 0.47388 0.02405 0.07678
 O277 O 0.48856 0.04479 -0.03005
 O278 O 0.44791 -0.07398 0.05486
 O279 O 0.44688 -0.03285 0.07420
 O280 O 0.49564 0.02638 -0.11181
 O281 O 0.44290 -0.05047 -0.03425
 O282 O 0.51477 0.06642 0.06195
 Co283 Co 0.50642 -0.00167 -0.09129
 Co284 Co 0.48501 -0.00399 0.09053
 Co285 Co 0.51613 0.04024 0.01359
 Co286 Co 0.47487 -0.04607 0.00919
 O287 O 0.49840 -0.00274 -0.00006
 C288 C 0.44421 -0.04623 -0.08930
 C289 C 0.48953 0.05146 0.08829
 C290 C 0.48661 0.04183 -0.08550
 C291 C 0.43641 -0.06036 0.08318
 C292 C 1.13522 0.42513 0.23617
 C293 C 1.12115 0.44153 0.24511
 C294 C 1.12423 0.45555 0.29920
 C295 C 1.14154 0.45356 0.34402
 C296 C 1.15615 0.43736 0.33572
 C297 C 1.15258 0.42305 0.28105
 C298 C 1.10426 0.44512 0.19881
 C299 C 1.09012 0.44978 0.16262
 C300 C 1.07358 0.45731 0.12424
 C301 C 1.05955 0.46562 0.09595
 H302 H 1.13297 0.41416 0.19445
 H303 H 1.11366 0.46855 0.30639
 H304 H 1.14444 0.46574 0.38435
 H305 H 1.16307 0.41003 0.27320
 C306 C 0.54825 0.66687 0.31672
 C307 C 0.55890 0.67513 0.25957
 C308 C 0.57395 0.70469 0.24456
 C309 C 0.57819 0.72591 0.28671
 C310 C 0.56741 0.71784 0.34457
 C311 C 0.55240 0.68791 0.35874
 C312 C 0.55340 0.65281 0.21673
 C313 C 0.54747 0.63280 0.18340
 C314 C 0.53902 0.60806 0.14731
 C315 C 0.53055 0.58599 0.11891
 H316 H 0.53633 0.64404 0.32869
 H317 H 0.58233 0.71133 0.20037
 H318 H 0.59033 0.74866 0.27433
 H319 H 0.54297 0.68062 0.40201
 C320 C 0.31911 -0.12165 0.30880
 C321 C 0.32221 -0.13596 0.25975
 C322 C 0.30429 -0.16609 0.25355
 C323 C 0.28379 -0.18200 0.29700
 C324 C 0.28103 -0.16799 0.34771
 C325 C 0.29873 -0.13745 0.35231
 C326 C 0.34513 -0.11990 0.21806
 C327 C 0.36511 -0.10625 0.18485
 C328 C 0.38929 -0.09018 0.14781
 C329 C 0.41052 -0.07649 0.11759
 H330 H 0.33286 -0.09832 0.31403
 H331 H 0.30671 -0.17743 0.21597
 H332 H 0.27124 -0.20546 0.29232
 H333 H 0.29684 -0.12575 0.38984
 C334 C 0.86190 0.54737 0.24586
 C335 C 0.89231 0.56184 0.25403
 C336 C 0.90473 0.58022 0.30295
 C337 C 0.88679 0.58361 0.34409
 C338 C 0.85621 0.56853 0.33687
 C339 C 0.84396 0.55069 0.28697
 C340 C 0.91029 0.55586 0.21474
 C341 C 0.92444 0.54923 0.18274
 C342 C 0.93974 0.53936 0.14658
 C343 C 0.95143 0.52886 0.11729
 H344 H 0.85199 0.53290 0.20850
 H345 H 0.92819 0.59137 0.31004
 H346 H 0.89665 0.59746 0.38228
 H347 H 0.82045 0.53870 0.28079
 C348 C 0.46886 0.34228 0.33539
 C349 C 0.45425 0.33585 0.28089
 C350 C 0.43322 0.30704 0.26752
 C351 C 0.42705 0.28477 0.30829
 C352 C 0.44189 0.29110 0.36281
 C353 C 0.46275 0.32008 0.37607
 C354 C 0.46140 0.35889 0.23870
 C355 C 0.46820 0.37876 0.20451
 C356 C 0.47703 0.40271 0.16586
 C357 C 0.48530 0.42374 0.13429
 H358 H 0.48520 0.36444 0.34625
 H359 H 0.42178 0.30178 0.22550
 H360 H 0.41088 0.26258 0.29726
 H361 H 0.47457 0.32541 0.41765
 C362 C 0.64987 0.12611 0.33790
 C363 C 0.65722 0.11577 0.28751
 C364 C 0.68666 0.12461 0.27620
 C365 C 0.70858 0.14361 0.31523
 C366 C 0.70124 0.15393 0.36596
 C367 C 0.67170 0.14508 0.37680
 C368 C 0.63444 0.09677 0.24705
 C369 C 0.61474 0.08144 0.21383
 C370 C 0.59101 0.06446 0.17538
 C371 C 0.57033 0.05115 0.14276
 H372 H 0.62722 0.11960 0.34698
 H373 H 0.69266 0.11690 0.23721
 H374 H 0.73123 0.15021 0.30609
 H375 H 0.66560 0.15294 0.41542
 C376 C 0.45545 0.11962 -0.32077
 C377 C 0.44483 0.11646 -0.26330
 C378 C 0.42914 0.13048 -0.24678
 C379 C 0.42429 0.14775 -0.28751
 C380 C 0.43506 0.15129 -0.34565
 C381 C 0.45068 0.13681 -0.36147
 C382 C 0.45109 0.09958 -0.22135
 C383 C 0.45744 0.08568 -0.18782
 C384 C 0.46619 0.06979 -0.15033
 C385 C 0.47482 0.05669 -0.11986
 H386 H 0.46790 0.10914 -0.33395
 H387 H 0.42080 0.12821 -0.20237
 H388 H 0.41176 0.15804 -0.27374
 H389 H 0.46025 0.13964 -0.40482
 C390 C 0.67430 0.56354 -0.33468
 C391 C 0.67069 0.54598 -0.28558
 C392 C 0.68886 0.53369 -0.27825
 C393 C 0.71029 0.53859 -0.32005
 C394 C 0.71392 0.55583 -0.37046
 C395 C 0.69571 0.56849 -0.37663
 C396 C 0.64768 0.53970 -0.24383
 C397 C 0.62802 0.53380 -0.20958
 C398 C 0.60440 0.52612 -0.17055
 C399 C 0.58365 0.51888 -0.13859
 H400 H 0.66046 0.57331 -0.34073
 H401 H 0.68617 0.51990 -0.24064
 H402 H 0.72333 0.52796 -0.31392
 H403 H 0.69834 0.58268 -0.41345
 C404 C 0.87433 0.29993 -0.25628
 C405 C 0.88217 0.32942 -0.26062
 C406 C 0.87202 0.33897 -0.30843
 C407 C 0.85392 0.31918 -0.35136
 C408 C 0.84584 0.28957 -0.34720
 C409 C 0.85621 0.28008 -0.29936
 C410 C 0.90000 0.35010 -0.21583
 C411 C 0.91456 0.36872 -0.18015
 C412 C 0.93114 0.39224 -0.14132
 C413 C 0.94476 0.41392 -0.11178
 H414 H 0.88194 0.29226 -0.21942
 H415 H 0.87782 0.36169 -0.31214
 H416 H 0.84580 0.32686 -0.38736
 H417 H 0.85000 0.25727 -0.29516
 C418 C 0.52944 -0.13490 -0.31758
 C419 C 0.53972 -0.13300 -0.25980
 C420 C 0.55735 -0.14526 -0.24546
 C421 C 0.56452 -0.15957 -0.28880
 C422 C 0.55418 -0.16180 -0.34730
 C423 C 0.53657 -0.14914 -0.36093
 C424 C 0.53224 -0.11810 -0.21590
 C425 C 0.52564 -0.10504 -0.18116
 C426 C 0.51775 -0.08886 -0.14322
 C427 C 0.51111 -0.07410 -0.11345
 H428 H 0.51571 -0.12554 -0.32908
 H429 H 0.56560 -0.14370 -0.20089
 H430 H 0.57858 -0.16849 -0.27680
 H431 H 0.52746 -0.15104 -0.40480
 C432 C 0.34276 0.46117 -0.33321
 C433 C 0.33439 0.45115 -0.27566
 C434 C 0.30479 0.43716 -0.26051
 C435 C 0.28361 0.43330 -0.30287
 C436 C 0.29175 0.44336 -0.36117
 C437 C 0.32173 0.45739 -0.37552
 C438 C 0.35661 0.45629 -0.23235
 C439 C 0.37633 0.46177 -0.19810
 C440 C 0.40063 0.46963 -0.16050
 C441 C 0.42233 0.47761 -0.13061
 H442 H 0.36566 0.47234 -0.34524
 H443 H 0.29808 0.42935 -0.21599
 H444 H 0.26080 0.42206 -0.29027
 H445 H 0.32910 0.46637 -0.41908
 C446 C 1.14727 0.70191 -0.23170
 C447 C 1.11767 0.68273 -0.24326
 C448 C 1.10530 0.68409 -0.29714
 C449 C 1.12280 0.70334 -0.34072
 C450 C 1.15311 0.72141 -0.33133
 C451 C 1.16486 0.72131 -0.27520
 C452 C 1.10097 0.65909 -0.20370
 C453 C 1.08737 0.63796 -0.17334
 C454 C 1.07208 0.61208 -0.14071
 C455 C 1.05969 0.58928 -0.11481
 H456 H 1.15709 0.70083 -0.19023
 H457 H 1.08239 0.66934 -0.30651
 H458 H 1.11279 0.70352 -0.38259
 H459 H 1.18807 0.73461 -0.26634
 C460 C 0.88596 0.55592 -0.31573
 C461 C 0.87013 0.53800 -0.26881
 C462 C 0.83994 0.52717 -0.26567
 C463 C 0.82549 0.53375 -0.31006
 C464 C 0.84102 0.55108 -0.35871
 C465 C 0.87160 0.56250 -0.36020
 C466 C 0.88486 0.52970 -0.22573
 C467 C 0.89800 0.52271 -0.19162
 C468 C 0.91446 0.51475 -0.15426
 C469 C 0.92961 0.50836 -0.12468
 H470 H 0.90939 0.56455 -0.31834
 H471 H 0.82748 0.51315 -0.22960
 H472 H 0.80194 0.52421 -0.30759
 H473 H 0.88448 0.57672 -0.39565
 C474 C 0.42686 0.29434 -0.23717
 C475 C 0.44324 0.32411 -0.24953
 C476 C 0.45484 0.33331 -0.30577
 C477 C 0.45043 0.31295 -0.34952
 C478 C 0.43413 0.28281 -0.33799
 C479 C 0.42233 0.27381 -0.28106
 C480 C 0.44958 0.34571 -0.20472
 C481 C 0.45667 0.36547 -0.17025
 C482 C 0.46698 0.39032 -0.13398
 C483 C 0.47738 0.41285 -0.10677
 H484 H 0.41784 0.28701 -0.19363
 H485 H 0.46786 0.35633 -0.31555
 H486 H 0.46083 0.32090 -0.39178
 H487 H 0.40939 0.25086 -0.27066
 C488 C 0.69831 0.14577 -0.23379
 C489 C 0.66852 0.13448 -0.24603
 C490 C 0.65937 0.13771 -0.30218
 C491 C 0.67986 0.15233 -0.34606
 C492 C 0.71003 0.16408 -0.33456
 C493 C 0.71897 0.16049 -0.27773
 C494 C 0.64688 0.11893 -0.20201
 C495 C 0.62746 0.10516 -0.16796
 C496 C 0.60339 0.08801 -0.13178
 C497 C 0.58185 0.07231 -0.10416
 H498 H 0.70556 0.14310 -0.19050
 H499 H 0.63632 0.12902 -0.31202
 H500 H 0.67211 0.15519 -0.38865
 H501 H 0.74190 0.16867 -0.26761
 C502 C 1.14035 0.48050 -0.33329
 C503 C 1.13299 0.46607 -0.27894
 C504 C 1.14088 0.44472 -0.26670
 C505 C 1.15617 0.43794 -0.30856
 C506 C 1.16368 0.45244 -0.36308
 C507 C 1.15562 0.47376 -0.37509
 C508 C 1.11703 0.47308 -0.23642
 C509 C 1.10332 0.47924 -0.20229
 C510 C 1.08663 0.48662 -0.16438
 C511 C 1.07164 0.49289 -0.13421
 H512 H 1.13433 0.49701 -0.34331
 H513 H 1.13523 0.43335 -0.22488
 H514 H 1.16221 0.42145 -0.29850
 H515 H 1.16139 0.48533 -0.41667
 C516 C 0.54530 0.66275 -0.32735
 C517 C 0.55985 0.67096 -0.27284
 C518 C 0.57895 0.70044 -0.26063
 C519 C 0.58310 0.72166 -0.30253
 C520 C 0.56813 0.71353 -0.35690
 C521 C 0.54937 0.68389 -0.36910
 C522 C 0.55388 0.64898 -0.22903
 C523 C 0.54743 0.62961 -0.19389
 C524 C 0.53821 0.60581 -0.15503
 C525 C 0.52893 0.58449 -0.12422
 H526 H 0.53036 0.64002 -0.33713
 H527 H 0.59022 0.70703 -0.21850
 H528 H 0.59756 0.74443 -0.29229
 H529 H 0.53737 0.67721 -0.41045
 C530 C 0.32660 -0.10774 -0.32085
 C531 C 0.32796 -0.11898 -0.26571
 C532 C 0.30738 -0.14761 -0.25132
 C533 C 0.28603 -0.16525 -0.29243
 C534 C 0.28501 -0.15463 -0.34915
 C535 C 0.30528 -0.12532 -0.36211
 C536 C 0.35165 -0.10190 -0.22553
 C537 C 0.37206 -0.08822 -0.19270
 C538 C 0.39660 -0.07289 -0.15535
 C539 C 0.41807 -0.06039 -0.12452
 H540 H 0.34238 -0.08553 -0.33239
 H541 H 0.30835 -0.15661 -0.20889
 H542 H 0.27128 -0.18773 -0.28079
 H543 H 0.30465 -0.11594 -0.40429
 C544 C 0.57260 -0.12354 0.26487
 C545 C 0.55026 -0.11690 0.27630
 C546 C 0.53289 -0.12829 0.32643
 C547 C 0.53785 -0.14609 0.36512
 C548 C 0.56033 -0.15267 0.35430
 C549 C 0.57762 -0.14138 0.30372
 C550 C 0.54440 -0.09901 0.23644
 C551 C 0.53814 -0.08464 0.20411
 C552 C 0.52917 -0.06881 0.16714
 C553 C 0.52002 -0.05643 0.13600
 H554 H 0.58607 -0.11496 0.22602
 H555 H 0.51543 -0.12348 0.33554
 H556 H 0.52413 -0.15478 0.40362
 H557 H 0.59502 -0.14626 0.29465
 C558 C 0.30416 0.42821 0.24568
 C559 C 0.33331 0.44940 0.25638
 C560 C 0.34083 0.46555 0.30884
 C561 C 0.31937 0.46081 0.35022
 C562 C 0.29007 0.43978 0.33974
 C563 C 0.28260 0.42339 0.28725
 C564 C 0.35573 0.45539 0.21362
 C565 C 0.37558 0.46184 0.17973
 C566 C 0.40000 0.47099 0.14251
 C567 C 0.42177 0.48011 0.11305
 H568 H 0.29810 0.41562 0.20517
 H569 H 0.36328 0.48205 0.31751
 H570 H 0.32554 0.47382 0.39018
 H571 H 0.26010 0.40710 0.27843
 C572 C 1.14703 0.66524 0.29349
 C573 C 1.11655 0.65188 0.29877
 C574 C 1.10420 0.66334 0.33787
 C575 C 1.12225 0.68757 0.37271
 C576 C 1.15285 0.70052 0.36888
 C577 C 1.16511 0.68946 0.32835
 C578 C 1.09807 0.62626 0.26444
 C579 C 1.08312 0.60503 0.23468
 C580 C 1.06654 0.58086 0.19749
 C581 C 1.05354 0.56134 0.16261
 H582 H 1.15681 0.65662 0.26317
 H583 H 1.08067 0.65328 0.34211
 H584 H 1.11243 0.69581 0.40379
 H585 H 1.18863 0.69904 0.32507
 C586 C 0.42782 0.13240 0.26045
 C587 C 0.44871 0.12365 0.27135
 C588 C 0.46447 0.13121 0.32449
 C589 C 0.45952 0.14757 0.36658
 C590 C 0.43868 0.15649 0.35602
 C591 C 0.42280 0.14879 0.30272
 C592 C 0.45470 0.10740 0.22811
 C593 C 0.46098 0.09404 0.19355
 C594 C 0.46971 0.07879 0.15507
 C595 C 0.47824 0.06611 0.12376
 H596 H 0.41558 0.12669 0.21934
 H597 H 0.48074 0.12463 0.33320
 H598 H 0.47209 0.15351 0.40729
 H599 H 0.40667 0.15555 0.29395
 C600 C 0.69385 0.58625 0.28078
 C601 C 0.68774 0.56597 0.23541
 C602 C 0.70267 0.55006 0.23315
 C603 C 0.72285 0.55359 0.27730
 C604 C 0.72824 0.57306 0.32418
 C605 C 0.71412 0.58987 0.32494
 C606 C 0.66380 0.55884 0.19538
 C607 C 0.64265 0.55114 0.16403
 C608 C 0.61677 0.54027 0.13019
 C609 C 0.59381 0.52956 0.10388
 H610 H 0.68219 0.59844 0.28323
 H611 H 0.69786 0.53409 0.19860
 H612 H 0.73339 0.54031 0.27626
 H613 H 0.71802 0.60494 0.36086
 C614 C 0.85291 0.30496 0.25714
 C615 C 0.85758 0.33323 0.26664
 C616 C 0.84771 0.33984 0.31855
 C617 C 0.83333 0.31833 0.36097
 C618 C 0.82872 0.28999 0.35191
 C619 C 0.83849 0.28337 0.29964
 C620 C 0.87325 0.35580 0.22418
 C621 C 0.88685 0.37517 0.18979
 C622 C 0.90347 0.39824 0.15083
 C623 C 0.91841 0.41813 0.11854
 H624 H 0.86057 0.29967 0.21718
 H625 H 0.85130 0.36166 0.32638
 H626 H 0.82580 0.32373 0.40098
 H627 H 0.83508 0.26160 0.29207
   
