data_POSCAR
  _audit_creation_date              2014-09-24
  _audit_creation_method            'ToBaCCo'
  _symmetry_space_group_name_H-M    'P1'
  _symmetry_Int_Tables_number       1
  _symmetry_cell_setting            triclinic
  loop_
  _symmetry_equiv_pos_as_xyz
 x,y,z
_cell_length_a 33.0286
_cell_length_b 33.0386
_cell_length_c 30.2601
_cell_angle_alpha 88.698600
_cell_angle_beta 90.302200
_cell_angle_gamma 118.851600
loop_
  _atom_site_label
  _atom_site_type_symbol
  _atom_site_fract_x
  _atom_site_fract_y
  _atom_site_fract_z
C1 C 0.50099 0.07744 0.05039
 H2 H 0.53635 0.08438 0.04672
 C3 C 0.49132 0.10724 0.07449
 H4 H 0.51943 0.13684 0.08978
 C5 C 0.42142 0.03001 0.03510
 H6 H 0.39438 0.00022 0.01924
 C7 C 0.41008 0.05845 0.05985
 H8 H 0.37427 0.05026 0.06311
 N9 N 0.46631 0.03990 0.03104
 C10 C 0.51393 -0.06146 0.01826
 H11 H 0.51758 -0.06213 -0.01718
 C12 C 0.52027 -0.09255 0.04570
 H13 H 0.52869 -0.11710 0.03093
 C14 C 0.49475 -0.03100 0.08001
 H15 H 0.48360 -0.00785 0.09318
 C16 C 0.50018 -0.06178 0.10851
 H17 H 0.49353 -0.06176 0.14353
 Zn18 Zn 0.48495 0.00409 -0.00265
 N19 N 0.50112 -0.03173 0.03573
 C20 C 0.57760 0.04784 -0.03704
 N21 N 0.53570 0.04628 -0.03780
 C22 C 0.52883 0.07756 -0.06194
 C23 C 0.56480 0.11219 -0.08666
 C24 C 0.61470 0.08187 -0.06160
 C25 C 0.39890 -0.07285 -0.01899
 C26 C 0.36322 -0.10595 -0.04423
 C27 C 0.40542 -0.06533 -0.11023
 C28 C 0.44027 -0.03318 -0.08369
 N29 N 0.43636 -0.03733 -0.03893
 H30 H 0.58261 0.02326 -0.01682
 H31 H 0.49532 0.07594 -0.06138
 H32 H 0.55834 0.13690 -0.10526
 H33 H 0.64756 0.08232 -0.05960
 H34 H 0.39705 -0.07580 0.01671
 H35 H 0.33430 -0.13350 -0.02679
 H36 H 0.40956 -0.06131 -0.14584
 H37 H 0.47072 -0.00535 -0.09903
 C38 C 0.51268 -0.09330 0.09145
 C39 C 0.44538 0.09797 0.07919
 C40 C 0.36624 -0.10268 -0.09080
 C41 C 0.60864 0.11504 -0.08675
 C42 C -0.06186 0.47408 0.61051
 H43 H -0.06338 0.44066 0.60951
 C44 C -0.09299 0.48242 0.58578
 H45 H -0.11851 0.45491 0.56614
 C46 C -0.02859 0.54912 0.64007
 H47 H -0.00423 0.57461 0.66208
 C48 C -0.05936 0.55879 0.61618
 H49 H -0.05805 0.59197 0.61963
 N50 N -0.03028 0.50734 0.63671
 C51 C 0.07852 0.46994 0.65804
 H52 H 0.07988 0.46989 0.69377
 C53 C 0.10999 0.46238 0.63369
 H54 H 0.13486 0.45563 0.65113
 C55 C 0.04404 0.47868 0.59221
 H56 H 0.01902 0.48602 0.57606
 C57 C 0.07452 0.47084 0.56662
 H58 H 0.07232 0.47177 0.53091
 Zn59 Zn 0.00738 0.49132 0.67237
 N60 N 0.04641 0.47790 0.63709
 C61 C -0.03120 0.39915 0.70833
 N62 N -0.03325 0.43927 0.70714
 C63 C -0.06674 0.44324 0.72932
 C64 C -0.10029 0.40590 0.75371
 C65 C -0.06391 0.36088 0.73268
 C66 C 0.07864 0.58035 0.68925
 C67 C 0.10889 0.61761 0.71462
 C68 C 0.07093 0.57269 0.78044
 C69 C 0.04150 0.53634 0.75375
 N70 N 0.04566 0.54088 0.70902
 H71 H -0.00463 0.39650 0.68999
 H72 H -0.06757 0.47558 0.72766
 H73 H -0.12567 0.41125 0.77113
 H74 H -0.06181 0.32914 0.73293
 H75 H 0.08151 0.58276 0.65357
 H76 H 0.13440 0.64815 0.69727
 H77 H 0.06692 0.56813 0.81602
 H78 H 0.01567 0.50438 0.76892
 C79 C 0.10843 0.46327 0.58728
 C80 C -0.09191 0.52534 0.58848
 C81 C 0.10543 0.61414 0.76118
 C82 C -0.09971 0.36346 0.75525
 C83 C 0.56991 0.51166 0.40095
 H84 H 0.54252 0.50902 0.42214
 C85 C 0.60959 0.51387 0.41985
 H86 H 0.61191 0.51271 0.45548
 C87 C 0.59857 0.51295 0.32902
 H88 H 0.59361 0.51187 0.29361
 C89 C 0.63858 0.51475 0.34652
 H90 H 0.66453 0.51533 0.32439
 N91 N 0.56533 0.51169 0.35624
 C92 C 0.42317 0.45805 0.37251
 H93 H 0.41537 0.43136 0.34882
 C94 C 0.38920 0.45320 0.40275
 H95 H 0.35607 0.42205 0.40261
 C96 C 0.47554 0.53112 0.40104
 H97 H 0.50908 0.56177 0.39958
 C98 C 0.44276 0.52751 0.43206
 H99 H 0.45135 0.55543 0.45468
 Zn100 Zn 0.51083 0.50566 0.32933
 N101 N 0.46544 0.49651 0.37230
 C102 C 0.47863 0.41262 0.30906
 N103 N 0.48941 0.45482 0.29133
 C104 C 0.48917 0.46166 0.24690
 C105 C 0.47841 0.42530 0.21835
 C106 C 0.46682 0.37502 0.28179
 C107 C 0.56663 0.59429 0.28770
 C108 C 0.57354 0.63366 0.26341
 C109 C 0.49068 0.60152 0.25835
 C110 C 0.48546 0.56251 0.28191
 N111 N 0.52305 0.55966 0.29626
 H112 H 0.48023 0.40846 0.34449
 H113 H 0.49885 0.49570 0.23340
 H114 H 0.47952 0.43189 0.18301
 H115 H 0.45973 0.34246 0.29726
 H116 H 0.59610 0.59155 0.29963
 H117 H 0.60855 0.66079 0.25684
 H118 H 0.45974 0.60171 0.24696
 H119 H 0.45121 0.53428 0.28897
 C120 C 0.39877 0.48852 0.43276
 C121 C 0.64462 0.51556 0.39242
 C122 C 0.53535 0.63820 0.24895
 C123 C 0.46725 0.38121 0.23548
 C124 C 0.14134 0.45653 0.55952
 C125 C 0.18598 0.46802 0.57312
 C126 C 0.21947 0.46488 0.54344
 N127 N 0.26444 0.48329 0.55547
 N128 N 0.29544 0.48189 0.52843
 C129 C 0.28254 0.46184 0.48841
 N130 N 0.23748 0.44300 0.47659
 N131 N 0.20653 0.44456 0.50355
 C132 C 0.31645 0.46096 0.45765
 C133 C 0.36398 0.48592 0.46496
 H134 H 0.19790 0.48242 0.60538
 H135 H 0.30353 0.44236 0.42731
 H136 H 0.13129 0.44557 0.52588
 H137 H 0.37633 0.50723 0.49387
 C138 C 0.51290 0.87092 0.12152
 C139 C 0.53739 0.84731 0.11324
 C140 C 0.53116 0.80776 0.14138
 N141 N 0.56149 0.79114 0.13899
 N142 N 0.55509 0.75441 0.16347
 C143 C 0.51787 0.73278 0.19092
 N144 N 0.48746 0.74923 0.19304
 N145 N 0.49406 0.78611 0.16889
 C146 C 0.50892 0.69113 0.21692
 C147 C 0.54312 0.67860 0.22540
 H148 H 0.56151 0.85784 0.08580
 H149 H 0.47487 0.67169 0.23149
 H150 H 0.49262 0.86273 0.15167
 H151 H 0.57813 0.70256 0.21477
 C152 C 0.33262 0.86476 0.88123
 C153 C 0.29283 0.82474 0.89536
 C154 C 0.26080 0.79096 0.86388
 N155 N 0.22422 0.75128 0.87914
 N156 N 0.19553 0.71989 0.85112
 C157 C 0.20232 0.72704 0.80676
 N158 N 0.23875 0.76683 0.79150
 N159 N 0.26747 0.79819 0.81952
 C160 C 0.17158 0.69236 0.77525
 C161 C 0.13501 0.64970 0.78927
 H162 H 0.28481 0.81649 0.93002
 H163 H 0.17927 0.70111 0.74062
 H164 H 0.33848 0.87062 0.84588
 H165 H 0.12943 0.64332 0.82460
 C166 C 0.87404 0.53505 0.56528
 C167 C 0.85122 0.51254 0.52707
 C168 C 0.81422 0.51934 0.50696
 N169 N 0.79573 0.49951 0.46791
 N170 N 0.76104 0.50388 0.45005
 C171 C 0.74343 0.52811 0.47069
 N172 N 0.76193 0.54794 0.50976
 N173 N 0.79672 0.54370 0.52755
 C174 C 0.70393 0.53170 0.45228
 C175 C 0.68627 0.51544 0.41051
 H176 H 0.86051 0.48912 0.51120
 H177 H 0.68875 0.54780 0.47215
 H178 H 0.86715 0.56133 0.57853
 H179 H 0.70429 0.50299 0.38965
 C180 C 0.43402 0.12869 0.10481
 C181 C 0.46223 0.17651 0.10324
 C182 C 0.45465 0.20779 0.13155
 N183 N 0.47744 0.25391 0.12256
 N184 N 0.47327 0.28319 0.14927
 C185 C 0.44641 0.26746 0.18618
 N186 N 0.42363 0.22129 0.19523
 N187 N 0.42750 0.19194 0.16829
 C188 C 0.44453 0.29987 0.21760
 C189 C 0.45988 0.34620 0.20575
 H190 H 0.49113 0.19175 0.08031
 H191 H 0.43112 0.28656 0.25033
 H192 H 0.40222 0.11363 0.12391
 H193 H 0.46713 0.35588 0.17103
 C194 C -0.35563 0.15167 0.88915
 C195 C -0.31052 0.15883 0.88399
 C196 C -0.27494 0.20048 0.86075
 N197 N -0.23340 0.20404 0.85025
 N198 N -0.20102 0.24187 0.82954
 C199 C -0.20899 0.27758 0.81883
 N200 N -0.25036 0.27408 0.82961
 N201 N -0.28272 0.23627 0.85009
 C202 C -0.17399 0.31991 0.79629
 C203 C -0.13340 0.32379 0.77798
 H204 H -0.30060 0.13398 0.89636
 H205 H -0.18249 0.34750 0.79255
 H206 H -0.36371 0.17662 0.87322
 H207 H -0.12856 0.29359 0.77993
   
