data_POSCAR
  _audit_creation_date              2014-09-24
  _audit_creation_method            'ToBaCCo'
  _symmetry_space_group_name_H-M    'P1'
  _symmetry_Int_Tables_number       1
  _symmetry_cell_setting            triclinic
  loop_
  _symmetry_equiv_pos_as_xyz
 x,y,z
_cell_length_a 24.2317
_cell_length_b 24.1449
_cell_length_c 9.7501
_cell_angle_alpha 89.848900
_cell_angle_beta 90.151000
_cell_angle_gamma 119.998300
loop_
  _atom_site_label
  _atom_site_type_symbol
  _atom_site_fract_x
  _atom_site_fract_y
  _atom_site_fract_z
C1 C 0.47307 0.94251 0.57407
 C2 C 0.46900 0.94277 0.43002
 C3 C 0.49630 1.00117 0.35952
 C4 C 0.52746 1.05949 0.43019
 C5 C 0.53136 1.05931 0.57461
 C6 C 0.50409 1.00077 0.64504
 H7 H 0.50686 1.00054 0.75629
 H8 H 0.49339 1.00109 0.24832
 C9 C 0.05718 0.53023 0.56779
 C10 C 0.05697 0.52570 0.42404
 C11 C -0.00119 0.49449 0.35343
 C12 C -0.05927 0.46756 0.42428
 C13 C -0.05902 0.47214 0.56832
 C14 C -0.00078 0.50336 0.63871
 H15 H -0.00056 0.50660 0.74974
 H16 H -0.00113 0.49141 0.24233
 C17 C 0.46919 0.52740 0.57679
 C18 C 0.47347 0.53153 0.43273
 C19 C 0.50456 0.50438 0.36270
 C20 C 0.53157 0.47322 0.43381
 C21 C 0.52725 0.46890 0.57786
 C22 C 0.49617 0.49614 0.64810
 H23 H 0.49315 0.49317 0.75931
 H24 H 0.50758 0.50734 0.25161
 O25 O 0.43024 0.65267 -0.11584
 O26 O 0.42741 0.75838 -0.16015
 C27 C 0.39808 0.78865 -0.18218
 O28 O 0.34850 0.77833 -0.11723
 O29 O 0.24324 0.66985 -0.16162
 C30 C 0.21318 0.61017 -0.18340
 O31 O 0.22341 0.57065 -0.11796
 O32 O 0.33154 0.57335 -0.15970
 C33 C 0.39103 0.60286 -0.18097
 O34 O 0.42728 0.67018 0.15581
 O35 O 0.42953 0.77827 0.11169
 C36 C 0.38993 0.78795 0.17710
 O37 O 0.33051 0.75768 0.15448
 O38 O 0.22275 0.65192 0.10985
 C39 C 0.21268 0.60225 0.17534
 O40 O 0.24302 0.57301 0.15415
 O41 O 0.34864 0.57086 0.11257
 C42 C 0.39791 0.61055 0.17838
 Cr43 Cr 0.42499 0.71304 -0.00221
 Cr44 Cr 0.28808 0.71264 -0.00364
 Cr45 Cr 0.28846 0.57561 -0.00279
 O46 O 0.33384 0.66708 -0.00300
 O47 O 0.57262 0.33046 -0.15573
 O48 O 0.56981 0.22192 -0.11268
 C49 C 0.60905 0.21166 -0.17803
 O50 O 0.66850 0.24157 -0.15579
 O51 O 0.77658 0.34724 -0.11348
 C52 C 0.78654 0.39686 -0.17916
 O53 O 0.75669 0.42652 -0.15688
 O54 O 0.65161 0.42953 -0.11225
 C55 C 0.60197 0.39017 -0.17744
 O56 O 0.57073 0.34793 0.11633
 O57 O 0.57284 0.24196 0.15940
 C58 C 0.60223 0.21181 0.18198
 O59 O 0.65153 0.22168 0.11645
 O60 O 0.75720 0.32982 0.15872
 C61 C 0.78759 0.38950 0.18018
 O62 O 0.77752 0.42909 0.11470
 O63 O 0.66981 0.42676 0.15937
 C64 C 0.61041 0.39737 0.18188
 Cr65 Cr 0.57513 0.28737 0.00180
 Cr66 Cr 0.71164 0.28690 0.00147
 Cr67 Cr 0.71208 0.42433 0.00123
 O68 O 0.66628 0.33285 0.00146
 C69 C 0.44686 0.88711 -0.35156
 C70 C 0.42432 0.84051 -0.27858
 C71 C 0.11544 0.56095 -0.35358
 C72 C 0.16169 0.58476 -0.28017
 C73 C 0.44033 0.55380 -0.34924
 C74 C 0.41653 0.57653 -0.27673
 C75 C 0.56008 0.11431 -0.34980
 C76 C 0.58369 0.16039 -0.27559
 C77 C 0.88313 0.44484 -0.35180
 C78 C 0.83741 0.42267 -0.27717
 C79 C 0.55330 0.43977 -0.34719
 C80 C 0.57577 0.41577 -0.27392
 C81 C 0.88558 0.43860 0.34981
 C82 C 0.83921 0.41480 0.27667
 C83 C 0.55385 0.11461 0.35466
 C84 C 0.57635 0.16067 0.28014
 C85 C 0.56206 0.44566 0.35445
 C86 C 0.58553 0.42334 0.27992
 C87 C 0.11503 0.55330 0.34513
 C88 C 0.16118 0.57588 0.27173
 C89 C 0.43844 0.88473 0.35006
 C90 C 0.41490 0.83891 0.27525
 C91 C 0.44596 0.56199 0.35229
 C92 C 0.42370 0.58547 0.27704
   
