data_POSCAR
  _audit_creation_date              2014-09-24
  _audit_creation_method            'ToBaCCo'
  _symmetry_space_group_name_H-M    'P1'
  _symmetry_Int_Tables_number       1
  _symmetry_cell_setting            triclinic
  loop_
  _symmetry_equiv_pos_as_xyz
 x,y,z
_cell_length_a 40.5602
_cell_length_b 40.4647
_cell_length_c 39.5942
_cell_angle_alpha 90.255100
_cell_angle_beta 91.579300
_cell_angle_gamma 90.687600
loop_
  _atom_site_label
  _atom_site_type_symbol
  _atom_site_fract_x
  _atom_site_fract_y
  _atom_site_fract_z
C1 C 0.24242 0.50887 0.98519
 C2 C 0.75147 0.50975 0.00739
 C3 C -0.01668 0.22850 0.47985
 C4 C 1.02069 0.74661 0.51251
 C5 C 0.49896 -0.00160 0.24929
 C6 C 0.51019 0.02373 0.75977
 C7 C 0.30356 0.03718 0.45641
 H8 H 0.30880 0.05358 0.47759
 C9 C 0.32248 0.03922 0.42746
 H10 H 0.34219 0.05743 0.42634
 C11 C 0.27229 -0.00733 0.43246
 H12 H 0.25329 -0.02600 0.43462
 C13 C 0.29017 -0.00578 0.40292
 H14 H 0.28475 -0.02338 0.38278
 N15 N 0.27922 0.01391 0.45852
 C16 C 0.20075 0.03654 0.52685
 H17 H 0.20117 0.01387 0.54123
 C18 C 0.17550 0.05902 0.53132
 H19 H 0.15636 0.05301 0.54886
 C20 C 0.22457 0.07065 0.48537
 H21 H 0.24370 0.07486 0.46734
 C22 C 0.19983 0.09411 0.48931
 H23 H 0.20046 0.11651 0.47448
 Zn24 Zn 0.25645 0.00913 0.49947
 N25 N 0.22463 0.04261 0.50421
 C26 C 0.28045 0.02982 0.56397
 N27 N 0.28717 0.01081 0.53664
 C28 C 0.31521 -0.00730 0.53577
 C29 C 0.33736 -0.00738 0.56353
 C30 C 0.30164 0.03013 0.59233
 C31 C 0.20555 -0.03421 0.47897
 C32 C 0.18680 -0.06333 0.47798
 C33 C 0.22526 -0.08713 0.51844
 C34 C 0.24326 -0.05746 0.51873
 N35 N 0.23328 -0.03183 0.49899
 H36 H 0.25836 0.04442 0.56412
 H37 H 0.32012 -0.02206 0.51366
 H38 H 0.35922 -0.02244 0.56277
 H39 H 0.29563 0.04510 0.61400
 H40 H 0.19800 -0.01334 0.46376
 H41 H 0.16500 -0.06480 0.46162
 H42 H 0.23331 -0.10714 0.53462
 H43 H 0.26506 -0.05492 0.53486
 C44 C 0.17479 0.08844 0.51258
 C45 C 0.31591 0.01738 0.40036
 C46 C 0.19656 -0.09027 0.49793
 C47 C 0.33034 0.01110 0.59250
 C48 C 0.72641 0.00656 0.56024
 H49 H 0.74071 0.02534 0.54786
 C50 C 0.70745 0.01541 0.58760
 H51 H 0.70715 0.04115 0.59504
 C52 C 0.70799 -0.04898 0.56395
 H53 H 0.70787 -0.07397 0.55411
 C54 C 0.68926 -0.04137 0.59202
 H55 H 0.67556 -0.06096 0.60401
 N56 N 0.72595 -0.02505 0.54850
 C57 C 0.80965 -0.00193 0.49934
 H58 H 0.82039 -0.02458 0.50857
 C59 C 0.83026 0.02431 0.49041
 H60 H 0.85669 0.02115 0.49235
 C61 C 0.76229 0.02917 0.48481
 H62 H 0.73571 0.03076 0.48260
 C63 C 0.78196 0.05621 0.47607
 H64 H 0.77011 0.07870 0.46781
 Zn65 Zn 0.74856 -0.03513 0.50815
 N66 N 0.77632 0.00096 0.49658
 C67 C 0.72738 -0.03872 0.43975
 N68 N 0.71711 -0.04055 0.47217
 C69 C 0.68448 -0.03965 0.47924
 C70 C 0.66096 -0.03482 0.45352
 C71 C 0.70452 -0.03411 0.41313
 C72 C 0.78241 -0.08289 0.54671
 C73 C 0.80703 -0.10597 0.55307
 C74 C 0.81607 -0.10920 0.49314
 C75 C 0.79099 -0.08623 0.48788
 N76 N 0.77533 -0.07291 0.51459
 H77 H 0.75343 -0.03809 0.43477
 H78 H 0.67665 -0.04036 0.50502
 H79 H 0.63528 -0.03206 0.45973
 H80 H 0.71304 -0.03053 0.38771
 H81 H 0.77051 -0.07149 0.56776
 H82 H 0.81290 -0.11277 0.57894
 H83 H 0.82963 -0.11789 0.47173
 H84 H 0.78553 -0.07754 0.46263
 C85 C 0.81652 0.05407 0.47882
 C86 C 0.68839 -0.00862 0.60402
 C87 C 0.82511 -0.11848 0.52622
 C88 C 0.67109 -0.03102 0.42027
 C89 C 0.46991 0.21501 1.05657
 H90 H 0.44686 0.21710 1.04250
 C91 C 0.47433 0.18896 1.07930
 H92 H 0.45455 0.17114 1.08252
 C93 C 0.52455 0.23416 1.06791
 H94 H 0.54460 0.25094 1.06256
 C95 C 0.53002 0.20857 1.09069
 H96 H 0.55393 0.20663 1.10333
 N97 N 0.49498 0.23684 1.05114
 C98 C 0.45059 0.32388 1.02555
 H99 H 0.47304 0.33646 1.03345
 C100 C 0.42162 0.34187 1.02321
 H101 H 0.42240 0.36765 1.03058
 C102 C 0.42242 0.27546 1.00649
 H103 H 0.42308 0.24973 0.99911
 C104 C 0.39289 0.29283 1.00291
 H105 H 0.37112 0.28011 0.99284
 Zn106 Zn 0.49164 0.26869 1.01626
 N107 N 0.45071 0.29129 1.01704
 C108 C 0.47602 0.25489 0.94718
 N109 N 0.49473 0.24601 0.97463
 C110 C 0.51474 0.21934 0.97370
 C111 C 0.51557 0.19964 0.94475
 C112 C 0.47603 0.23581 0.91768
 C113 C 0.53077 0.31556 1.05183
 C114 C 0.55625 0.33853 1.05721
 C115 C 0.57492 0.32704 1.00101
 C116 C 0.54871 0.30455 0.99652
 N117 N 0.52719 0.29938 1.02175
 H118 H 0.46057 0.27643 0.94836
 H119 H 0.52959 0.21296 0.99576
 H120 H 0.53156 0.17841 0.94462
 H121 H 0.46016 0.24266 0.89649
 H122 H 0.51354 0.31071 1.07165
 H123 H 0.55786 0.35173 1.08105
 H124 H 0.59208 0.33035 0.98081
 H125 H 0.54562 0.29115 0.97294
 C126 C 0.39239 0.32673 1.01075
 C127 C 0.50498 0.18518 1.09612
 C128 C 0.57890 0.34454 1.03167
 C129 C 0.49559 0.20743 0.91641
 C130 C 0.47955 0.80803 -0.04813
 H131 H 0.45689 0.80646 -0.03441
 C132 C 0.48441 0.83383 -0.07096
 H133 H 0.46540 0.85211 -0.07481
 C134 C 0.53275 0.78727 -0.05849
 H135 H 0.55189 0.76960 -0.05302
 C136 C 0.53887 0.81299 -0.08092
 H137 H 0.56255 0.81471 -0.09282
 N138 N 0.50358 0.78538 -0.04237
 C139 C 0.45379 0.70255 0.00678
 H140 H 0.47020 0.69955 0.02853
 C141 C 0.42718 0.68079 0.00158
 H142 H 0.42319 0.66104 0.01944
 C143 C 0.44032 0.73072 -0.04402
 H144 H 0.44601 0.74965 -0.06216
 C145 C 0.41371 0.70914 -0.05048
 H146 H 0.39877 0.71196 -0.07336
 Zn147 Zn 0.49841 0.75308 -0.00814
 N148 N 0.45973 0.72706 -0.01573
 C149 C 0.47185 0.77174 0.05524
 N150 N 0.49724 0.77579 0.03379
 C151 C 0.52206 0.79788 0.04069
 C152 C 0.52194 0.81709 0.07006
 C153 C 0.47103 0.79008 0.08520
 C154 C 0.53487 0.70360 -0.03658
 C155 C 0.56041 0.68130 -0.04042
 C156 C 0.58444 0.70036 0.01278
 C157 C 0.55813 0.72220 0.01577
 N158 N 0.53431 0.72369 -0.00904
 H159 H 0.45183 0.75481 0.04898
 H160 H 0.54172 0.80095 0.02301
 H161 H 0.54174 0.83478 0.07504
 H162 H 0.45047 0.78694 0.10181
 H163 H 0.51539 0.70506 -0.05572
 H164 H 0.55997 0.66533 -0.06243
 H165 H 0.60365 0.70010 0.03230
 H166 H 0.55702 0.73816 0.03765
 C167 C 0.40702 0.68371 -0.02757
 C168 C 0.51464 0.83678 -0.08713
 C169 C 0.58598 0.67974 -0.01582
 C170 C 0.49612 0.81333 0.09266
 C171 C 1.05906 0.48017 0.20073
 H172 H 1.03876 0.46319 0.19537
 C173 C 1.08612 0.48077 0.17982
 H174 H 1.08663 0.46391 0.15854
 C175 C 1.08261 0.52318 0.23468
 H176 H 1.08081 0.54020 0.25560
 C177 C 1.11032 0.52452 0.21443
 H178 H 1.12961 0.54264 0.21994
 N179 N 1.05770 0.50118 0.22751
 C180 C 0.99034 0.45488 0.29802
 H181 H 0.97256 0.47426 0.30138
 C182 C 0.98783 0.42554 0.31640
 H183 H 0.96785 0.42230 0.33372
 C184 C 1.03814 0.43553 0.27153
 H185 H 1.05812 0.43962 0.25455
 C186 C 1.03626 0.40570 0.28895
 H187 H 1.05479 0.38711 0.28509
 Zn188 Zn 1.01816 0.49969 0.25193
 N189 N 1.01513 0.45926 0.27595
 C190 C 0.95637 0.48309 0.21827
 N191 N 0.98308 0.50377 0.21960
 C192 C 0.98585 0.52938 0.19770
 C193 C 0.96063 0.53588 0.17414
 C194 C 0.93046 0.48869 0.19495
 C195 C 1.03934 0.53855 0.30857
 C196 C 1.03894 0.56576 0.33051
 C197 C 0.99067 0.58549 0.30016
 C198 C 0.99197 0.55803 0.27892
 N199 N 1.01647 0.53558 0.28291
 H200 H 0.95480 0.46267 0.23568
 H201 H 1.00753 0.54522 0.19908
 H202 H 0.96333 0.55655 0.15713
 H203 H 0.90893 0.47261 0.19485
 H204 H 1.05823 0.52008 0.31161
 H205 H 1.05785 0.56823 0.35022
 H206 H 0.97093 0.60301 0.29646
 H207 H 0.97330 0.55482 0.25921
 C208 C 1.01088 0.40042 0.31171
 C209 C 1.11204 0.50342 0.18632
 C210 C 1.01460 0.58993 0.32608
 C211 C 0.93221 0.51574 0.17286
 C212 C -0.05804 0.45009 0.79070
 H213 H -0.03986 0.43100 0.78795
 C214 C -0.08100 0.44748 0.81604
 H215 H -0.08024 0.42627 0.83262
 C216 C -0.07940 0.50179 0.77373
 H217 H -0.07771 0.52372 0.75852
 C218 C -0.10292 0.50020 0.79893
 H219 H -0.11999 0.52034 0.80169
 N220 N -0.05806 0.47646 0.76952
 C221 C -0.00013 0.43120 0.68996
 H222 H 0.02075 0.44795 0.68907
 C223 C -0.00360 0.40592 0.66590
 H224 H 0.01464 0.40405 0.64660
 C225 C -0.05049 0.41543 0.71436
 H226 H -0.06965 0.41995 0.73210
 C227 C -0.05440 0.38924 0.69156
 H228 H -0.07580 0.37323 0.69350
 Zn229 Zn -0.02277 0.47580 0.73885
 N230 N -0.02388 0.43610 0.71298
 C231 C 0.03191 0.45472 0.78176
 N232 N 0.01526 0.48022 0.76727
 C233 C 0.02231 0.51205 0.77603
 C234 C 0.04739 0.51951 0.79937
 C235 C 0.05658 0.46109 0.80662
 C236 C -0.04752 0.52998 0.69674
 C237 C -0.04216 0.55868 0.67779
 C238 C 0.01600 0.54662 0.67860
 C239 C 0.00959 0.51852 0.69736
 N240 N -0.02144 0.51157 0.70766
 H241 H 0.02515 0.42953 0.77512
 H242 H 0.00795 0.53190 0.76522
 H243 H 0.05289 0.54527 0.80465
 H244 H 0.06853 0.44051 0.81904
 H245 H -0.07233 0.52288 0.70303
 H246 H -0.06280 0.57412 0.67064
 H247 H 0.04115 0.55220 0.67186
 H248 H 0.02990 0.50310 0.70531
 C249 C -0.03150 0.38490 0.66592
 C250 C -0.10405 0.47259 0.82030
 C251 C -0.00979 0.56786 0.66980
 C252 C 0.06419 0.49399 0.81615
 C253 C 0.06574 0.17988 0.48701
 C254 C 0.06635 0.17186 0.52061
 C255 C 0.04186 0.18120 0.54224
 C256 C 0.01558 0.19946 0.52866
 C257 C 0.01397 0.20905 0.49381
 C258 C 0.04029 0.19885 0.47308
 O259 O 0.09036 0.16670 0.47028
 C260 C 0.10686 0.15003 0.49398
 C261 C 0.09330 0.15265 0.52528
 C262 C 0.10609 0.13661 0.55359
 C263 C 0.13368 0.11660 0.54936
 C264 C 0.14761 0.11239 0.51705
 C265 C 0.13413 0.12995 0.48908
 H266 H 0.04242 0.17388 0.56850
 H267 H -0.00416 0.20537 0.54542
 H268 H 0.04162 0.20460 0.44673
 H269 H 0.09503 0.13916 0.57802
 H270 H 0.14397 0.10417 0.57131
 H271 H 0.14360 0.12705 0.46397
 C272 C 0.68935 0.58100 0.00578
 C273 C 0.68708 0.58808 -0.02804
 C274 C 0.70450 0.57106 -0.05206
 C275 C 0.72544 0.54586 -0.04083
 C276 C 0.72989 0.53871 -0.00566
 C277 C 0.71055 0.55647 0.01768
 O278 O 0.66900 0.59873 0.02415
 C279 C 0.65367 0.61747 0.00130
 C280 C 0.66401 0.61196 -0.03099
 C281 C 0.65093 0.62835 -0.05892
 C282 C 0.62591 0.65119 -0.05345
 C283 C 0.61401 0.65690 -0.02050
 C284 C 0.62855 0.63992 0.00733
 H285 H 0.70128 0.57626 -0.07874
 H286 H 0.73702 0.53150 -0.06010
 H287 H 0.71176 0.55090 0.04441
 H288 H 0.65960 0.62365 -0.08408
 H289 H 0.61581 0.66440 -0.07500
 H290 H 0.61991 0.64325 0.03273
 C291 C 0.93702 -0.20794 0.51414
 C292 C 0.94269 -0.18771 0.54168
 C293 C 0.97185 -0.18785 0.56071
 C294 C 0.99649 -0.20937 0.55066
 C295 C 0.99221 -0.23008 0.52152
 C296 C 0.96109 -0.22999 0.50389
 O297 O 0.90775 -0.20320 0.49912
 C298 C 0.89484 -0.17934 0.51758
 C299 C 0.91523 -0.16920 0.54402
 C300 C 0.90721 -0.14397 0.56607
 C301 C 0.87704 -0.12817 0.56043
 C302 C 0.85550 -0.13773 0.53308
 C303 C 0.86458 -0.16397 0.51148
 H304 H 0.97565 -0.17174 0.58240
 H305 H 1.01940 -0.20953 0.56533
 H306 H 0.95533 -0.24645 0.48296
 H307 H 0.92391 -0.13622 0.58646
 H308 H 0.87107 -0.10767 0.57673
 H309 H 0.84886 -0.17181 0.49034
 C310 C 0.30548 0.43833 0.98435
 C311 C 0.28562 0.41149 0.99078
 C312 C 0.25168 0.41409 0.99360
 C313 C 0.23786 0.44562 0.98996
 C314 C 0.25787 0.47411 0.98365
 C315 C 0.29247 0.46976 0.98111
 O316 O 0.33724 0.43123 0.98406
 C317 C 0.33756 0.39921 0.99066
 C318 C 0.30672 0.38579 0.99521
 C319 C 0.30198 0.35293 1.00439
 C320 C 0.33019 0.33333 1.00920
 C321 C 0.36231 0.34681 1.00465
 C322 C 0.36564 0.38020 0.99464
 H323 H 0.23645 0.39276 0.99919
 H324 H 0.21158 0.44812 0.99307
 H325 H 0.30959 0.49017 0.97853
 H326 H 0.27755 0.34293 1.00843
 H327 H 0.32697 0.30801 1.01728
 H328 H 0.38947 0.39144 0.99028
 C329 C 0.92330 0.15317 0.48015
 C330 C 0.90080 0.16173 0.45531
 C331 C 0.90348 0.19081 0.43712
 C332 C 0.93042 0.21187 0.44488
 C333 C 0.95503 0.20348 0.46997
 C334 C 0.95057 0.17332 0.48784
 O335 O 0.91537 0.12543 0.49589
 C336 C 0.88726 0.11621 0.48054
 C337 C 0.87728 0.13746 0.45540
 C338 C 0.84818 0.13267 0.43653
 C339 C 0.82858 0.10489 0.44396
 C340 C 0.83804 0.08278 0.47024
 C341 C 0.86803 0.08874 0.48863
 H342 H 0.88494 0.19757 0.41831
 H343 H 0.93132 0.23534 0.43196
 H344 H 0.96702 0.16547 0.50792
 H345 H 0.84081 0.14968 0.41679
 H346 H 0.80616 0.10061 0.42906
 H347 H 0.87590 0.07303 0.50930
 C348 C 0.30119 0.58542 -0.01422
 C349 C 0.31308 0.58321 -0.04629
 C350 C 0.30294 0.55875 -0.06901
 C351 C 0.28002 0.53527 -0.05806
 C352 C 0.26749 0.53618 -0.02467
 C353 C 0.27763 0.56283 -0.00303
 O354 O 0.31522 0.60975 0.00390
 C355 C 0.33645 0.62306 -0.01724
 C356 C 0.33584 0.60792 -0.04841
 C357 C 0.35648 0.61742 -0.07419
 C358 C 0.37904 0.64332 -0.06741
 C359 C 0.38083 0.65878 -0.03516
 C360 C 0.35895 0.64862 -0.00983
 H361 H 0.31277 0.55740 -0.09411
 H362 H 0.27234 0.51573 -0.07543
 H363 H 0.26789 0.56636 0.02178
 H364 H 0.35564 0.60497 -0.09846
 H365 H 0.39592 0.65054 -0.08685
 H366 H 0.35984 0.65990 0.01504
 C367 C 0.08553 -0.18375 0.50104
 C368 C 0.11401 -0.20174 0.50065
 C369 C 0.11399 -0.23602 0.50228
 C370 C 0.08345 -0.25227 0.50536
 C371 C 0.05355 -0.23426 0.50785
 C372 C 0.05496 -0.19934 0.50385
 O373 O 0.09079 -0.15139 0.49956
 C374 C 0.12336 -0.14887 0.49842
 C375 C 0.13881 -0.17893 0.49900
 C376 C 0.17296 -0.18181 0.49893
 C377 C 0.19188 -0.15249 0.49838
 C378 C 0.17646 -0.12115 0.49787
 C379 C 0.14161 -0.11952 0.49775
 H380 H 0.13668 -0.24977 0.50151
 H381 H 0.08308 -0.27898 0.50681
 H382 H 0.03312 -0.18430 0.50308
 H383 H 0.18462 -0.20572 0.49954
 H384 H 0.21849 -0.15421 0.49815
 H385 H 0.12904 -0.09608 0.49800
 C386 C 0.67960 0.44735 1.01177
 C387 C 0.68064 0.43870 1.04524
 C388 C 0.70258 0.45313 1.06861
 C389 C 0.72503 0.47680 1.05684
 C390 C 0.72622 0.48479 1.02177
 C391 C 0.70175 0.47061 0.99947
 O392 O 0.65665 0.43096 0.99373
 C393 C 0.64303 0.41133 1.01635
 C394 C 0.65688 0.41504 1.04824
 C395 C 0.64691 0.39633 1.07554
 C396 C 0.62154 0.37293 1.06976
 C397 C 0.60636 0.36889 1.03715
 C398 C 0.61751 0.38854 1.01009
 H399 H 0.70230 0.44657 1.09507
 H400 H 0.74106 0.48877 1.07548
 H401 H 0.70078 0.47681 0.97288
 H402 H 0.65850 0.39936 1.10033
 H403 H 0.61409 0.35771 1.09069
 H404 H 0.60647 0.38653 0.98497
 C405 C 0.49463 0.07638 1.19260
 C406 C 0.52451 0.07441 1.17729
 C407 C 0.54699 0.04971 1.18441
 C408 C 0.53807 0.02568 1.20788
 C409 C 0.50677 0.02609 1.22361
 C410 C 0.48532 0.05292 1.21634
 O411 O 0.47683 0.10189 1.18207
 C412 C 0.49592 0.11619 1.15953
 C413 C 0.52542 0.10036 1.15580
 C414 C 0.54911 0.11095 1.13348
 C415 C 0.54210 0.13903 1.11412
 C416 C 0.51180 0.15587 1.11734
 C417 C 0.48835 0.14414 1.14041
 H418 H 0.57051 0.04884 1.17219
 H419 H 0.55535 0.00613 1.21349
 H420 H 0.46218 0.05615 1.22864
 H421 H 0.57206 0.09793 1.13089
 H422 H 0.56006 0.14732 1.09619
 H423 H 0.46509 0.15649 1.14351
 C424 C -0.00157 0.67796 0.57502
 C425 C 0.02326 0.68148 0.59904
 C426 C 0.04782 0.70550 0.59730
 C427 C 0.04716 0.72650 0.56929
 C428 C 0.02254 0.72284 0.54299
 C429 C -0.00310 0.69897 0.54724
 O430 O -0.02174 0.65261 0.58084
 C431 C -0.00922 0.63986 0.60919
 C432 C 0.01820 0.65685 0.62141
 C433 C 0.03602 0.64733 0.65007
 C434 C 0.02562 0.61863 0.66644
 C435 C -0.00195 0.59990 0.65384
 C436 C -0.02010 0.61114 0.62517
 H437 H 0.06690 0.70797 0.61683
 H438 H 0.06566 0.74590 0.56878
 H439 H -0.02316 0.69629 0.52879
 H440 H 0.05754 0.66112 0.65912
 H441 H 0.03942 0.61062 0.68868
 H442 H -0.04096 0.59718 0.61476
 C443 C 0.50839 0.94305 -0.18720
 C444 C 0.53550 0.94839 -0.16630
 C445 C 0.55562 0.97617 -0.16857
 C446 C 0.54703 0.99984 -0.19287
 C447 C 0.51857 0.99579 -0.21469
 C448 C 0.49995 0.96579 -0.21238
 O449 O 0.49180 0.91558 -0.17989
 C450 C 0.50888 0.90340 -0.15376
 C451 C 0.53607 0.92241 -0.14472
 C452 C 0.55741 0.91442 -0.11799
 C453 C 0.55036 0.88571 -0.09969
 C454 C 0.52210 0.86601 -0.10799
 C455 C 0.50105 0.87501 -0.13547
 H456 H 0.57681 0.97990 -0.15171
 H457 H 0.56215 1.02197 -0.19406
 H458 H 0.47929 0.95991 -0.22917
 H459 H 0.57862 0.92983 -0.11134
 H460 H 0.56647 0.87916 -0.07857
 H461 H 0.47932 0.86038 -0.14228
 C462 C 0.99797 0.30187 0.41861
 C463 C 1.00234 0.28535 0.38879
 C464 C 1.00181 0.25112 0.38658
 C465 C 0.99635 0.23325 0.41628
 C466 C 0.99222 0.24937 0.44811
 C467 C 0.99309 0.28469 0.44850
 O468 O 0.99788 0.33449 0.41521
 C469 C 1.00238 0.33868 0.38244
 C470 C 1.00541 0.30939 0.36510
 C471 C 1.01013 0.30814 0.33045
 C472 C 1.01197 0.33829 0.31308
 C473 C 1.00867 0.36884 0.33041
 C474 C 1.00369 0.36889 0.36563
 H475 H 1.00463 0.23856 0.36266
 H476 H 0.99445 0.20659 0.41433
 H477 H 0.98909 0.29922 0.47085
 H478 H 1.01236 0.28482 0.31728
 H479 H 1.01556 0.33788 0.28609
 H480 H 1.00133 0.39178 0.37959
 C481 C 0.49801 0.92857 0.18202
 C482 C 0.49237 0.90131 0.20164
 C483 C 0.48820 0.90361 0.23630
 C484 C 0.49051 0.93519 0.25127
 C485 C 0.49736 0.96396 0.23177
 C486 C 0.49982 0.96003 0.19615
 O487 O 0.50127 0.92147 0.14960
 C488 C 0.49770 0.88891 0.14861
 C489 C 0.49195 0.87523 0.17968
 C490 C 0.48701 0.84141 0.18399
 C491 C 0.48818 0.82103 0.15515
 C492 C 0.49464 0.83471 0.12299
 C493 C 0.49938 0.86919 0.11985
 H494 H 0.48341 0.88189 0.25133
 H495 H 0.48727 0.93735 0.27824
 H496 H 0.50261 0.98054 0.17912
 H497 H 0.48238 0.83110 0.20861
 H498 H 0.48453 0.79463 0.15785
 H499 H 0.50387 0.88039 0.09559
 C500 C -0.01606 0.29095 0.55396
 C501 C -0.04911 0.29430 0.55932
 C502 C -0.07323 0.27769 0.54018
 C503 C -0.06294 0.25639 0.51462
 C504 C -0.02874 0.25202 0.50815
 C505 C -0.00522 0.27057 0.52819
 O506 O 0.00288 0.30868 0.57528
 C507 C -0.01880 0.32366 0.59445
 C508 C -0.05094 0.31587 0.58553
 C509 C -0.07762 0.32941 0.60159
 C510 C -0.07093 0.35201 0.62791
 C511 C -0.03791 0.36019 0.63830
 C512 C -0.01151 0.34549 0.62109
 H513 H -0.09916 0.28084 0.54491
 H514 H -0.08211 0.24365 0.50015
 H515 H 0.02096 0.26899 0.52385
 H516 H -0.10273 0.32327 0.59374
 H517 H -0.09169 0.36359 0.63953
 H518 H 0.01399 0.35067 0.62814
 C519 C 0.49760 0.09141 0.82760
 C520 C 0.49538 0.11895 0.80754
 C521 C 0.49570 0.11724 0.77253
 C522 C 0.49945 0.08601 0.75769
 C523 C 0.50367 0.05705 0.77778
 C524 C 0.50103 0.06009 0.81343
 O525 O 0.49750 0.09837 0.86036
 C526 C 0.49543 0.13105 0.86100
 C527 C 0.49399 0.14491 0.82937
 C528 C 0.49270 0.17888 0.82434
 C529 C 0.49304 0.19937 0.85312
 C530 C 0.49471 0.18565 0.88609
 C531 C 0.49569 0.15087 0.88986
 H532 H 0.49368 0.13923 0.75717
 H533 H 0.50031 0.08438 0.73042
 H534 H 0.50201 0.03907 0.83011
 H535 H 0.49192 0.18927 0.79919
 H536 H 0.49268 0.22588 0.84967
 H537 H 0.49664 0.13948 0.91455
 C538 C 1.01885 0.67899 0.44323
 C539 C 1.01092 0.69735 0.41517
 C540 C 1.00569 0.73118 0.41670
 C541 C 1.00842 0.74659 0.44853
 C542 C 1.01520 0.72810 0.47849
 C543 C 1.02169 0.69374 0.47500
 O544 O 1.02374 0.64733 0.43636
 C545 C 1.01865 0.64560 0.40317
 C546 C 1.01077 0.67554 0.38894
 C547 C 1.00459 0.67931 0.35448
 C548 C 1.00624 0.65102 0.33396
 C549 C 1.01399 0.61971 0.34808
 C550 C 1.02051 0.61719 0.38327
 H551 H 1.00021 0.74533 0.39415
 H552 H 1.00541 0.77310 0.44994
 H553 H 1.02985 0.67866 0.49599
 H554 H 0.99863 0.70314 0.34378
 H555 H 1.00169 0.65356 0.30703
 H556 H 1.02620 0.59372 0.39494
 C557 C 1.18619 0.50929 0.06232
 C558 C 1.20882 0.51123 0.08868
 C559 C 1.24263 0.51226 0.08354
 C560 C 1.25325 0.51180 0.04994
 C561 C 1.23023 0.51168 0.02197
 C562 C 1.19608 0.50895 0.02912
 O563 O 1.15528 0.50701 0.07199
 C564 C 1.15828 0.50768 0.10532
 C565 C 1.19046 0.51030 0.11706
 C566 C 1.19874 0.51117 0.15145
 C567 C 1.17282 0.50925 0.17439
 C568 C 1.13952 0.50615 0.16256
 C569 C 1.13240 0.50556 0.12745
 H570 H 1.26022 0.51275 0.10459
 H571 H 1.27948 0.51146 0.04558
 H572 H 1.17712 0.50536 0.00973
 H573 H 1.22418 0.51318 0.16030
 H574 H 1.17865 0.50961 0.20124
 H575 H 1.10729 0.50370 0.11754
 C576 C 0.57813 0.00328 0.69667
 C577 C 0.60050 0.02829 0.70347
 C578 C 0.59530 0.05288 0.72706
 C579 C 0.56567 0.05192 0.74429
 C580 C 0.54130 0.02658 0.73786
 C581 C 0.54882 0.00113 0.71439
 O582 O 0.58769 -0.01704 0.67242
 C583 C 0.61680 -0.00451 0.66401
 C584 C 0.62588 0.02294 0.68268
 C585 C 0.65552 0.03974 0.67865
 C586 C 0.67648 0.02824 0.65376
 C587 C 0.66720 0.00091 0.63267
 C588 C 0.63693 -0.01597 0.63847
 H589 H 0.61353 0.07213 0.73220
 H590 H 0.56271 0.07051 0.76359
 H591 H 0.53212 -0.01959 0.70990
 H592 H 0.66232 0.06098 0.69415
 H593 H 0.69988 0.04088 0.65099
 H594 H 0.62860 -0.03665 0.62294
 C595 C -0.18822 0.50090 0.93468
 C596 C -0.19150 0.46796 0.92677
 C597 C -0.21124 0.44645 0.94471
 C598 C -0.22920 0.45958 0.97128
 C599 C -0.22818 0.49415 0.97890
 C600 C -0.20573 0.51450 0.96104
 O601 O -0.16783 0.51703 0.91469
 C602 C -0.15816 0.49369 0.89361
 C603 C -0.17195 0.46321 0.89996
 C604 C -0.16540 0.43528 0.88088
 C605 C -0.14348 0.43883 0.85432
 C606 C -0.12849 0.46991 0.84741
 C607 C -0.13625 0.49780 0.86732
 H608 H -0.21264 0.42036 0.93861
 H609 H -0.24342 0.44233 0.98584
 H610 H -0.20294 0.54058 0.96687
 H611 H -0.17676 0.41161 0.88623
 H612 H -0.13828 0.41734 0.83906
 H613 H -0.12504 0.52177 0.86302
 C614 C 0.43013 0.00874 0.31432
 C615 C 0.40250 0.00843 0.29352
 C616 C 0.40411 0.00430 0.25872
 C617 C 0.43550 0.00108 0.24489
 C618 C 0.46485 0.00259 0.26564
 C619 C 0.46132 0.00517 0.30127
 O620 O 0.42357 0.01208 0.34676
 C621 C 0.39100 0.01402 0.34654
 C622 C 0.37677 0.01177 0.31465
 C623 C 0.34276 0.01218 0.30897
 C624 C 0.32276 0.01474 0.33732
 C625 C 0.33702 0.01710 0.37043
 C626 C 0.37170 0.01701 0.37491
 H627 H 0.38201 0.00349 0.24277
 H628 H 0.43713 -0.00226 0.21784
 H629 H 0.48185 0.00385 0.31910
 H630 H 0.33200 0.01016 0.28372
 H631 H 0.29622 0.01473 0.33356
 H632 H 0.38329 0.01804 0.39987
 C633 C 0.17695 0.49606 0.91296
 C634 C 0.15875 0.52407 0.91736
 C635 C 0.16735 0.54852 0.94067
 C636 C 0.19539 0.54344 0.96117
 C637 C 0.21345 0.51345 0.95951
 C638 C 0.20468 0.49008 0.93366
 O639 O 0.16472 0.47649 0.88848
 C640 C 0.13799 0.49241 0.87763
 C641 C 0.13320 0.52143 0.89484
 C642 C 0.10615 0.54137 0.88905
 C643 C 0.08321 0.53134 0.86400
 C644 C 0.08809 0.50235 0.84429
 C645 C 0.11587 0.48233 0.85174
 H646 H 0.15298 0.57073 0.94303
 H647 H 0.20237 0.56228 0.97962
 H648 H 0.21864 0.46792 0.92960
 H649 H 0.10253 0.56362 0.90370
 H650 H 0.06149 0.54629 0.86031
 H651 H 0.12051 0.46001 0.83760
 C652 C 0.57390 -0.01932 0.30942
 C653 C 0.57638 0.01038 0.32625
 C654 C 0.55615 0.03687 0.31881
 C655 C 0.53185 0.03237 0.29342
 C656 C 0.52734 0.00143 0.27626
 C657 C 0.54997 -0.02436 0.28383
 O658 O 0.59511 -0.04158 0.32115
 C659 C 0.61111 -0.02555 0.34609
 C660 C 0.60050 0.00637 0.35016
 C661 C 0.61259 0.02722 0.37569
 C662 C 0.63639 0.01453 0.39824
 C663 C 0.64762 -0.01829 0.39471
 C664 C 0.63515 -0.03858 0.36805
 H665 H 0.55868 0.06008 0.33239
 H666 H 0.51563 0.05278 0.28766
 H667 H 0.54933 -0.04779 0.27072
 H668 H 0.60354 0.05209 0.37857
 H669 H 0.64586 0.03005 0.41874
 H670 H 0.64309 -0.06387 0.36528
 C671 C 0.82274 0.50609 0.07319
 C672 C 0.82783 0.53886 0.08099
 C673 C 0.80962 0.56389 0.06586
 C674 C 0.78480 0.55479 0.04205
 C675 C 0.77789 0.52087 0.03423
 C676 C 0.79832 0.49648 0.04963
 O677 O 0.84307 0.48613 0.08995
 C678 C 0.86141 0.50680 0.10885
 C679 C 0.85311 0.53937 0.10426
 C680 C 0.86932 0.56515 0.12135
 C681 C 0.89517 0.55704 0.14401
 C682 C 0.90439 0.52361 0.14914
 C683 C 0.88700 0.49815 0.13129
 H684 H 0.81462 0.58962 0.07185
 H685 H 0.77174 0.57452 0.02947
 H686 H 0.79492 0.47051 0.04359
 H687 H 0.86230 0.59060 0.11743
 H688 H 0.90779 0.57683 0.15780
 H689 H 0.89354 0.47246 0.13432
 C690 C 0.44458 0.01536 0.68677
 C691 C 0.41668 0.01029 0.70499
 C692 C 0.41724 0.00904 0.74000
 C693 C 0.44787 0.01281 0.75692
 C694 C 0.47774 0.01697 0.73903
 C695 C 0.47536 0.01933 0.70311
 O696 O 0.43844 0.01705 0.65367
 C697 C 0.40592 0.01288 0.65100
 C698 C 0.39144 0.00878 0.68173
 C699 C 0.35756 0.00513 0.68499
 C700 C 0.33776 0.00575 0.65538
 C701 C 0.35201 0.00986 0.62327
 C702 C 0.38670 0.01324 0.62113
 H703 H 0.39482 0.00583 0.75387
 H704 H 0.44843 0.01273 0.78428
 H705 H 0.49625 0.02543 0.68794
 H706 H 0.34672 0.00213 0.70948
 H707 H 0.31132 0.00285 0.65741
 H708 H 0.39825 0.01683 0.59707
   
