data_POSCAR
  _audit_creation_date              2014-09-24
  _audit_creation_method            'ToBaCCo'
  _symmetry_space_group_name_H-M    'P1'
  _symmetry_Int_Tables_number       1
  _symmetry_cell_setting            triclinic
  loop_
  _symmetry_equiv_pos_as_xyz
 x,y,z
_cell_length_a 34.5711
_cell_length_b 34.6982
_cell_length_c 34.5995
_cell_angle_alpha 90.081700
_cell_angle_beta 90.126600
_cell_angle_gamma 89.906300
loop_
  _atom_site_label
  _atom_site_type_symbol
  _atom_site_fract_x
  _atom_site_fract_y
  _atom_site_fract_z
N1 N 0.18525 0.18668 0.18341
 N2 N -0.18256 0.81521 0.18600
 N3 N -0.18782 0.18484 -0.18635
 N4 N 0.18335 0.81554 -0.18365
 N5 N 0.18118 1.18050 0.82194
 N6 N 0.81609 0.81676 0.81272
 N7 N 0.18503 0.81217 1.18570
 N8 N 0.81391 1.18679 1.18575
 O9 O 0.44616 0.92858 0.93256
 O10 O 0.40357 0.96396 0.96921
 C11 C 0.41142 0.93802 0.94337
 O12 O 0.55509 0.93179 1.07224
 O13 O 0.59703 0.96577 1.03391
 C14 C 0.58967 0.94124 1.06113
 O15 O 0.44649 0.92687 1.06844
 O16 O 0.40396 0.96336 1.03307
 C17 C 0.41163 0.93678 1.05825
 O18 O 0.55504 0.93288 0.92918
 O19 O 0.59697 0.96750 0.96708
 C20 C 0.58971 0.94301 0.93971
 Zr21 Zr 0.50044 0.94995 0.95158
 O22 O 0.50468 0.88908 0.95141
 O23 O 0.49615 0.95034 0.89054
 Zr24 Zr 0.50066 0.94835 1.04922
 O25 O 0.50264 0.88792 1.04185
 O26 O 0.50008 0.94176 1.10998
 O27 O 0.46608 0.94139 1.00034
 O28 O 0.53438 0.94235 1.00032
 O29 O 0.55375 1.06628 0.93183
 O30 O 0.59637 1.03186 0.96913
 C31 C 0.58861 1.05670 0.94226
 O32 O 0.44512 1.06631 1.07009
 O33 O 0.40300 1.03051 1.03331
 C34 C 0.41051 1.05662 1.05909
 O35 O 0.55400 1.06385 1.07357
 O36 O 0.59643 1.03041 1.03511
 C37 C 0.58872 1.05473 1.06251
 O38 O 0.44490 1.06988 0.93608
 O39 O 0.40322 1.03086 0.96949
 C40 C 0.41041 1.05842 0.94539
 Zr41 Zr 0.49948 1.04748 0.95331
 O42 O 0.50353 1.10834 0.95393
 O43 O 0.49460 1.04783 0.89230
 Zr44 Zr 0.49973 1.04581 1.05116
 O45 O 0.50334 1.10673 1.05174
 O46 O 0.49616 1.04490 1.11223
 Zr47 Zr 0.44268 0.99747 1.00137
 Zr48 Zr 0.55749 0.99837 1.00124
 O49 O 0.53304 1.05396 1.00235
 O50 O 0.46512 1.05393 1.00240
 O51 O 0.53439 0.99913 0.94481
 O52 O 0.46660 0.99675 1.05729
 O53 O 0.46637 0.99857 0.94541
 O54 O 0.53461 0.99724 1.05770
 H55 H 0.55235 0.92007 0.99995
 H56 H 0.44901 0.99646 1.07985
 H57 H 0.55028 1.07674 1.00278
 H58 H 0.44873 0.99886 0.92279
 H59 H 0.49218 0.96679 1.12108
 H60 H 0.51725 1.02807 1.12178
 H61 H 0.48079 1.11681 1.03728
 H62 H 0.48302 1.11809 0.97127
 H63 H 0.51696 1.03341 0.88182
 H64 H 0.51668 0.96753 0.88072
 H65 H 0.48452 0.87921 0.96907
 H66 H 0.50356 0.87687 1.06822
 O67 O -0.07270 0.44570 0.06499
 O68 O -0.03486 0.40358 0.03051
 C69 C -0.06184 0.41114 0.05536
 O70 O -0.07131 0.55380 -0.07160
 O71 O -0.03460 0.59606 -0.03592
 C72 C -0.06043 0.58837 -0.06206
 O73 O -0.07404 0.44526 -0.06817
 O74 O -0.03511 0.40339 -0.03455
 C75 C -0.06270 0.41077 -0.05885
 O76 O -0.06928 0.55401 0.06843
 O77 O -0.03375 0.59615 0.03176
 C78 C -0.05879 0.58855 0.05852
 Zr79 Zr -0.05057 0.49978 0.04709
 O80 O -0.11163 0.50405 0.04860
 O81 O -0.04860 0.49560 0.10811
 Zr82 Zr -0.05192 0.49960 -0.05062
 O83 O -0.11302 0.50372 -0.05043
 O84 O -0.05186 0.49530 -0.11168
 O85 O -0.05867 0.46529 -0.00166
 O86 O -0.05834 0.53316 -0.00171
 O87 O 0.06605 0.55419 0.06723
 O88 O 0.03010 0.59618 0.03074
 C89 C 0.05571 0.58879 0.05717
 O90 O 0.06710 0.44523 -0.07074
 O91 O 0.03168 0.40328 -0.03373
 C92 C 0.05771 0.41075 -0.05949
 O93 O 0.06435 0.55396 -0.07344
 O94 O 0.02921 0.59592 -0.03617
 C95 C 0.05426 0.58856 -0.06300
 O96 O 0.06995 0.44578 0.06365
 O97 O 0.03200 0.40369 0.02942
 C98 C 0.05941 0.41116 0.05387
 Zr99 Zr 0.04737 0.49994 0.04600
 O100 O 0.10844 0.50424 0.04579
 O101 O 0.04750 0.49579 0.10704
 Zr102 Zr 0.04597 0.49970 -0.05191
 O103 O 0.10707 0.50360 -0.05263
 O104 O 0.04466 0.49571 -0.11296
 Zr105 Zr -0.00204 0.44262 -0.00222
 Zr106 Zr -0.00238 0.55691 -0.00238
 O107 O 0.05366 0.53319 -0.00305
 O108 O 0.05437 0.46559 -0.00301
 O109 O -0.00159 0.53421 0.05410
 O110 O -0.00296 0.46619 -0.05824
 O111 O -0.00139 0.46645 0.05370
 O112 O -0.00317 0.53400 -0.05884
 H113 H -0.08104 0.55063 -0.00147
 H114 H -0.00317 0.44863 -0.08085
 H115 H 0.07633 0.55062 -0.00327
 H116 H -0.00104 0.44890 0.07627
 H117 H -0.03758 0.51779 -0.12181
 H118 H 0.02903 0.51757 -0.12266
 H119 H 0.11734 0.48172 -0.03743
 H120 H 0.11839 0.48367 0.02867
 H121 H 0.03234 0.51777 0.11718
 H122 H -0.03432 0.51829 0.11791
 H123 H -0.12206 0.48370 0.03149
 H124 H -0.12296 0.48256 -0.03413
 O125 O 1.07201 -0.06552 0.55466
 O126 O 1.03574 -0.02924 0.59674
 C127 C 1.06200 -0.05488 0.58925
 O128 O 1.07068 0.07321 0.44644
 O129 O 1.03670 0.03536 0.40383
 C130 C 1.06140 0.06232 0.41167
 O131 O 1.07410 0.06845 0.55553
 O132 O 1.03501 0.03479 0.59703
 C133 C 1.06246 0.05909 0.58997
 O134 O 1.06953 -0.06845 0.44569
 O135 O 1.03514 -0.03076 0.40343
 C136 C 1.05976 -0.05795 0.41094
 Zr137 Zr 1.05144 -0.04648 0.50012
 O138 O 1.11257 -0.04636 0.49647
 O139 O 1.05139 -0.10737 0.50412
 Zr140 Zr 1.05240 0.05101 0.50061
 O141 O 1.11349 0.04982 0.49659
 O142 O 1.05341 0.11182 0.50548
 O143 O 1.05920 0.00208 0.53491
 O144 O 1.05920 0.00227 0.46688
 O145 O 0.93650 -0.06783 0.44483
 O146 O 0.97083 -0.02981 0.40297
 C147 C 0.94621 -0.05695 0.41030
 O148 O 0.93265 0.07059 0.55386
 O149 O 0.96892 0.03478 0.59619
 C150 C 0.94250 0.06022 0.58861
 O151 O 0.93695 0.07425 0.44509
 O152 O 0.97197 0.03683 0.40314
 C153 C 0.94711 0.06386 0.41044
 O154 O 0.93209 -0.06463 0.55324
 O155 O 0.96813 -0.02894 0.59599
 C156 C 0.94172 -0.05424 0.58803
 Zr157 Zr 0.95359 -0.04544 0.49925
 O158 O 0.89256 -0.04293 0.49432
 O159 O 0.95136 -0.10625 0.50320
 Zr160 Zr 0.95442 0.05209 0.49958
 O161 O 0.89336 0.05226 0.49477
 O162 O 0.95467 0.11294 0.50410
 Zr163 Zr 1.00247 0.00268 0.55719
 Zr164 Zr 1.00333 0.00295 0.44255
 O165 O 0.94715 0.00346 0.46578
 O166 O 0.94613 0.00331 0.53380
 O167 O 1.00269 -0.05341 0.46526
 O168 O 1.00320 0.05853 0.53355
 O169 O 1.00222 -0.05307 0.53317
 O170 O 1.00374 0.05920 0.46571
 H171 H 1.08196 0.00200 0.44953
 H172 H 1.00325 0.08113 0.55109
 H173 H 0.92472 0.00369 0.44791
 H174 H 1.00194 -0.07575 0.55053
 H175 H 1.03683 0.12226 0.48464
 H176 H 0.97089 0.12296 0.48286
 H177 H 0.88311 0.03655 0.51626
 H178 H 0.88253 -0.03002 0.51776
 H179 H 0.97007 -0.11668 0.48430
 H180 H 1.03561 -0.11737 0.48245
 H181 H 1.12254 -0.03208 0.51915
 H182 H 1.12329 0.03414 0.51837
 C183 C 1.13359 0.13417 0.28089
 C184 C 1.14274 0.11160 0.24841
 C185 C 1.16020 0.12910 0.21644
 C186 C 1.16778 0.16891 0.21656
 C187 C 1.15803 0.19124 0.24908
 C188 C 1.14128 0.17390 0.28160
 C189 C 1.11551 0.11583 0.31473
 C190 C 1.10707 0.13816 0.34759
 C191 C 1.09003 0.12044 0.37980
 C192 C 1.08059 0.08101 0.37867
 C193 C 1.08907 0.05918 0.34544
 C194 C 1.10691 0.07632 0.31353
 C195 C 1.13216 0.19537 0.31484
 C196 C 1.11555 0.17776 0.34736
 C197 C 1.13408 0.07206 0.24849
 C198 C 1.11629 0.05475 0.28045
 H199 H 1.13804 0.22602 0.31578
 H200 H 1.10908 0.19534 0.37244
 H201 H 1.14094 0.05439 0.22358
 H202 H 1.10993 0.02421 0.27932
 H203 H 1.16738 0.11204 0.19118
 H204 H 1.16407 0.22188 0.24911
 H205 H 1.08330 0.13736 0.40529
 H206 H 1.08223 0.02873 0.34466
 C207 C 0.87150 -0.13060 0.28154
 C208 C 0.86317 -0.17018 0.28326
 C209 C 0.84530 -0.18796 0.25151
 C210 C 0.83515 -0.16625 0.21873
 C211 C 0.84321 -0.12656 0.21764
 C212 C 0.86177 -0.10861 0.24886
 C213 C 0.89087 -0.11185 0.31454
 C214 C 0.90004 -0.07251 0.31241
 C215 C 0.91882 -0.05491 0.34368
 C216 C 0.92750 -0.07614 0.37722
 C217 C 0.91774 -0.11545 0.37914
 C218 C 0.89981 -0.13361 0.34760
 C219 C 0.87104 -0.06923 0.24798
 C220 C 0.89001 -0.05151 0.27917
 C221 C 0.87288 -0.19108 0.31666
 C222 C 0.89069 -0.17305 0.34839
 H223 H 0.86373 -0.05199 0.22291
 H224 H 0.89671 -0.02111 0.27733
 H225 H 0.86653 -0.22160 0.31835
 H226 H 0.89754 -0.19016 0.37367
 H227 H 0.83891 -0.21852 0.25222
 H228 H 0.83572 -0.11002 0.19214
 H229 H 0.92590 -0.02456 0.34233
 H230 H 0.92459 -0.13190 0.40488
 C231 C 0.86616 0.13140 0.71817
 C232 C 0.87232 0.11657 0.75546
 C233 C 0.85361 0.13385 0.78690
 C234 C 0.82990 0.16626 0.78122
 C235 C 0.82407 0.18097 0.74390
 C236 C 0.84190 0.16336 0.71206
 C237 C 0.88566 0.11326 0.68495
 C238 C 0.87902 0.12763 0.64760
 C239 C 0.89742 0.11004 0.61605
 C240 C 0.92279 0.07870 0.62180
 C241 C 0.92957 0.06520 0.65965
 C242 C 0.91075 0.08205 0.69124
 C243 C 0.83613 0.17708 0.67430
 C244 C 0.85423 0.15938 0.64258
 C245 C 0.89738 0.08507 0.76055
 C246 C 0.91651 0.06828 0.72899
 H247 H 0.81742 0.20164 0.66920
 H248 H 0.84893 0.17079 0.61392
 H249 H 0.90249 0.07350 0.78918
 H250 H 0.93587 0.04424 0.73417
 H251 H 0.85799 0.12285 0.81589
 H252 H 0.80560 0.20593 0.73991
 H253 H 0.89225 0.12098 0.58717
 H254 H 0.94939 0.04151 0.66463
 C255 C 1.13344 -0.12904 0.71944
 C256 C 1.14243 -0.16849 0.71731
 C257 C 1.15864 -0.18677 0.74963
 C258 C 1.16658 -0.16564 0.78339
 C259 C 1.15788 -0.12606 0.78495
 C260 C 1.14086 -0.10765 0.75314
 C261 C 1.11572 -0.10981 0.68581
 C262 C 1.10562 -0.07066 0.68834
 C263 C 1.08794 -0.05277 0.65657
 C264 C 1.08124 -0.07359 0.62227
 C265 C 1.09220 -0.11259 0.61993
 C266 C 1.10900 -0.13103 0.65185
 C267 C 1.13086 -0.06840 0.75440
 C268 C 1.11332 -0.05026 0.72261
 C269 C 1.13506 -0.18880 0.68293
 C270 C 1.11883 -0.17032 0.65066
 H271 H 1.13639 -0.05163 0.78026
 H272 H 1.10580 -0.02001 0.72484
 H273 H 1.14198 -0.21920 0.68092
 H274 H 1.11367 -0.18700 0.62467
 H275 H 1.16562 -0.21721 0.74852
 H276 H 1.16379 -0.10999 0.81119
 H277 H 1.07977 -0.02262 0.65833
 H278 H 1.08673 -0.12876 0.59364
 C279 C 0.28143 1.13306 1.13012
 C280 C 0.28337 1.14299 1.16947
 C281 C 0.25138 1.16069 1.18692
 C282 C 0.21813 1.16915 1.16508
 C283 C 0.21681 1.15955 1.12557
 C284 C 0.24828 1.14108 1.10800
 C285 C 0.31464 1.11368 1.11181
 C286 C 0.31225 1.10270 1.07278
 C287 C 0.34367 1.08364 1.05573
 C288 C 0.37752 1.07643 1.07723
 C289 C 0.37969 1.08814 1.11613
 C290 C 0.34809 1.10635 1.13374
 C291 C 0.24715 1.13012 1.06890
 C292 C 0.27854 1.11107 1.05163
 C293 C 0.31722 1.13495 1.19052
 C294 C 0.34913 1.11715 1.17289
 H295 H 0.22170 1.13610 1.05157
 H296 H 0.27643 1.10289 1.02146
 H297 H 0.31909 1.14257 1.22084
 H298 H 0.37474 1.11155 1.19011
 H299 H 0.25224 1.16823 1.21731
 H300 H 0.19096 1.16568 1.10890
 H301 H 0.34208 1.07495 1.02564
 H302 H 0.40564 1.08235 1.13281
 C303 C 0.28119 0.86502 0.87078
 C304 C 0.28229 0.85703 0.83099
 C305 C 0.24977 0.84064 0.81319
 C306 C 0.21680 0.83159 0.83507
 C307 C 0.21635 0.83921 0.87501
 C308 C 0.24836 0.85637 0.89298
 C309 C 0.31493 0.88309 0.88949
 C310 C 0.31333 0.89222 0.92901
 C311 C 0.34512 0.91024 0.94644
 C312 C 0.37856 0.91833 0.92486
 C313 C 0.38005 0.90835 0.88546
 C314 C 0.34803 0.89116 0.86746
 C315 C 0.24807 0.86543 0.93257
 C316 C 0.27996 0.88325 0.95025
 C317 C 0.31581 0.86570 0.80985
 C318 C 0.34822 0.88228 0.82783
 H319 H 0.22288 0.85897 0.94996
 H320 H 0.27849 0.89001 0.98079
 H321 H 0.31702 0.85958 0.77916
 H322 H 0.37353 0.88847 0.81050
 H323 H 0.24999 0.83460 0.78244
 H324 H 0.19076 0.83267 0.89176
 H325 H 0.34408 0.91759 0.97683
 H326 H 0.40568 0.91488 0.86871
 C327 C 0.71994 0.86724 1.13305
 C328 C 0.75199 0.85704 1.11032
 C329 C 0.78383 0.83913 1.12788
 C330 C 0.78400 0.83218 1.16791
 C331 C 0.75179 0.84273 1.19035
 C332 C 0.71943 0.85996 1.17297
 C333 C 0.68637 0.88611 1.11473
 C334 C 0.65395 0.89564 1.13727
 C335 C 0.62196 0.91332 1.11956
 C336 C 0.62288 0.92231 1.07992
 C337 C 0.65571 0.91285 1.05788
 C338 C 0.68738 0.89432 1.07503
 C339 C 0.68661 0.87013 1.19463
 C340 C 0.65433 0.88746 1.17704
 C341 C 0.75169 0.86526 1.07058
 C342 C 0.71997 0.88374 1.05326
 H343 H 0.68583 0.86457 1.22542
 H344 H 0.62956 0.89474 1.19475
 H345 H 0.77625 0.85754 1.05276
 H346 H 0.72091 0.88969 1.02256
 H347 H 0.80886 0.83134 1.11074
 H348 H 0.75202 0.83719 1.22117
 H349 H 0.59673 0.92072 1.13660
 H350 H 0.65624 0.91926 1.02727
 C351 C 0.71745 1.13057 0.86775
 C352 C 0.71129 1.15187 0.83376
 C353 C 0.74290 1.16961 0.81576
 C354 C 0.78000 1.16666 0.83206
 C355 C 0.78576 1.14562 0.86621
 C356 C 0.75457 1.12709 0.88404
 C357 C 0.68445 1.11149 0.88660
 C358 C 0.69079 1.08952 0.92005
 C359 C 0.65939 1.07124 0.93773
 C360 C 0.62166 1.07548 0.92274
 C361 C 0.61585 1.09771 0.88914
 C362 C 0.64722 1.11554 0.87078
 C363 C 0.75972 1.10502 0.91766
 C364 C 0.72840 1.08633 0.93522
 C365 C 0.67369 1.15501 0.81860
 C366 C 0.64216 1.13730 0.83690
 H367 H 0.78823 1.10201 0.93039
 H368 H 0.73364 1.06936 0.96097
 H369 H 0.66856 1.17140 0.79245
 H370 H 0.61361 1.14056 0.82435
 H371 H 0.73885 1.18600 0.78941
 H372 H 0.81459 1.14341 0.87838
 H373 H 0.66439 1.05398 0.96332
 H374 H 0.58705 1.10091 0.87710
 C375 C 0.13247 0.28189 0.12850
 C376 C 0.16698 0.28735 0.14932
 C377 C 0.18439 0.25563 0.16749
 C378 C 0.16689 0.21919 0.16562
 C379 C 0.13209 0.21421 0.14526
 C380 C 0.11497 0.24543 0.12611
 C381 C 0.11434 0.31494 0.10878
 C382 C 0.08043 0.30923 0.08718
 C383 C 0.06325 0.34070 0.06857
 C384 C 0.07912 0.37795 0.07218
 C385 C 0.11330 0.38313 0.09384
 C386 C 0.13121 0.35161 0.11197
 C387 C 0.08096 0.24090 0.10432
 C388 C 0.06415 0.27222 0.08491
 C389 C 0.18329 0.32436 0.15147
 C390 C 0.16557 0.35600 0.13330
 H391 H 0.06734 0.21288 0.10207
 H392 H 0.03806 0.26747 0.06818
 H393 H 0.20985 0.32894 0.16749
 H394 H 0.17895 0.38410 0.13590
 H395 H 0.21127 0.25906 0.18328
 H396 H 0.11910 0.18584 0.14374
 H397 H 0.03715 0.33619 0.05178
 H398 H 0.12600 0.41155 0.09653
 C399 C -0.13485 0.28101 -0.13271
 C400 C -0.11246 0.24830 -0.14130
 C401 C -0.12998 0.21679 -0.15959
 C402 C -0.16970 0.21757 -0.16849
 C403 C -0.19185 0.25034 -0.15933
 C404 C -0.17445 0.28242 -0.14179
 C405 C -0.11649 0.31438 -0.11375
 C406 C -0.13862 0.34748 -0.10595
 C407 C -0.12083 0.37932 -0.08832
 C408 C -0.08154 0.37766 -0.07772
 C409 C -0.05992 0.34410 -0.08536
 C410 C -0.07713 0.31252 -0.10379
 C411 C -0.19575 0.31587 -0.13321
 C412 C -0.17808 0.34794 -0.11579
 C413 C -0.07309 0.24768 -0.13122
 C414 C -0.05575 0.27919 -0.11258
 H415 H -0.22629 0.31734 -0.14016
 H416 H -0.19550 0.37324 -0.10982
 H417 H -0.05556 0.22256 -0.13763
 H418 H -0.02534 0.27750 -0.10513
 H419 H -0.11299 0.19139 -0.16620
 H420 H -0.22241 0.25086 -0.16636
 H421 H -0.13759 0.40505 -0.08224
 H422 H -0.02953 0.34286 -0.07759
 C423 C 0.12775 0.71910 -0.13442
 C424 C 0.16101 0.71352 -0.15703
 C425 C 0.17951 0.74567 -0.17309
 C426 C 0.16432 0.78277 -0.16728
 C427 C 0.13070 0.78793 -0.14521
 C428 C 0.11253 0.75617 -0.12817
 C429 C 0.10869 0.68555 -0.11668
 C430 C 0.07633 0.69133 -0.09296
 C431 C 0.05891 0.65950 -0.07535
 C432 C 0.07286 0.62187 -0.08216
 C433 C 0.10516 0.61659 -0.10642
 C434 C 0.12347 0.64842 -0.12340
 C435 C 0.07974 0.76071 -0.10470
 C436 C 0.06213 0.72885 -0.08712
 C437 C 0.17506 0.67596 -0.16300
 C438 C 0.15646 0.64394 -0.14665
 H439 H 0.06782 0.78916 -0.09958
 H440 H 0.03712 0.73362 -0.06890
 H441 H 0.20061 0.67128 -0.18048
 H442 H 0.16821 0.61546 -0.15201
 H443 H 0.20542 0.74208 -0.19032
 H444 H 0.11938 0.81676 -0.14083
 H445 H 0.03456 0.66414 -0.05626
 H446 H 0.11649 0.58790 -0.11153
 C447 C -0.12950 0.71808 0.13415
 C448 C -0.10732 0.75115 0.14167
 C449 C -0.12488 0.78293 0.15951
 C450 C -0.16441 0.78200 0.16895
 C451 C -0.18633 0.74883 0.16102
 C452 C -0.16889 0.71653 0.14395
 C453 C -0.11123 0.68458 0.11535
 C454 C -0.13321 0.65125 0.10840
 C455 C -0.11565 0.61946 0.09050
 C456 C -0.07678 0.62137 0.07868
 C457 C -0.05523 0.65503 0.08568
 C458 C -0.07218 0.68661 0.10442
 C459 C -0.18999 0.68277 0.13640
 C460 C -0.17239 0.65059 0.11913
 C461 C -0.06817 0.75187 0.13086
 C462 C -0.05094 0.72020 0.11235
 H463 H -0.22035 0.68119 0.14394
 H464 H -0.18967 0.62509 0.11384
 H465 H -0.05079 0.77724 0.13648
 H466 H -0.02075 0.72200 0.10423
 H467 H -0.10821 0.80873 0.16534
 H468 H -0.21675 0.74827 0.16850
 H469 H -0.13239 0.59365 0.08487
 H470 H -0.02521 0.65640 0.07695
 C471 C 1.13141 0.13056 0.72320
 C472 C 1.17182 0.13264 0.72632
 C473 C 1.18837 0.14901 0.75956
 C474 C 1.16484 0.16444 0.78926
 C475 C 1.12416 0.16262 0.78496
 C476 C 1.10740 0.14517 0.75243
 C477 C 1.11387 0.11255 0.68871
 C478 C 1.07347 0.10910 0.68636
 C479 C 1.05699 0.09122 0.65395
 C480 C 1.08053 0.07798 0.62355
 C481 C 1.12091 0.08227 0.62589
 C482 C 1.13783 0.09899 0.65884
 C483 C 1.06706 0.14165 0.74875
 C484 C 1.05039 0.12362 0.71643
 C485 C 1.19487 0.11839 0.69605
 C486 C 1.17816 0.10214 0.66276
 H487 H 1.04822 0.15265 0.77121
 H488 H 1.01917 0.12121 0.71487
 H489 H 1.22611 0.11996 0.69804
 H490 H 1.19699 0.09167 0.64005
 H491 H 1.21959 0.15077 0.76192
 H492 H 1.10559 0.17349 0.80771
 H493 H 1.02582 0.08810 0.65203
 H494 H 1.13903 0.07173 0.60261
 C495 C 0.86760 -0.12799 0.71674
 C496 C 0.85692 -0.16695 0.71384
 C497 C 0.84010 -0.18514 0.74583
 C498 C 0.83323 -0.16436 0.78003
 C499 C 0.84361 -0.12524 0.78234
 C500 C 0.86123 -0.10697 0.75088
 C501 C 0.88602 -0.10891 0.68350
 C502 C 0.89778 -0.07032 0.68684
 C503 C 0.91609 -0.05260 0.65545
 C504 C 0.92186 -0.07291 0.62070
 C505 C 0.90926 -0.11137 0.61757
 C506 C 0.89175 -0.12969 0.64912
 C507 C 0.87290 -0.06825 0.75293
 C508 C 0.89105 -0.05029 0.72151
 C509 C 0.86330 -0.18685 0.67903
 C510 C 0.88022 -0.16847 0.64714
 H511 H 0.86820 -0.05177 0.77913
 H512 H 0.89983 -0.02046 0.72435
 H513 H 0.85507 -0.21685 0.67639
 H514 H 0.88456 -0.18483 0.62081
 H515 H 0.83191 -0.21524 0.74421
 H516 H 0.83864 -0.10942 0.80890
 H517 H 0.92549 -0.02296 0.65788
 H518 H 0.91395 -0.12724 0.59097
 C519 C 1.13209 -0.13304 0.28112
 C520 C 1.12853 -0.11663 0.24417
 C521 C 1.14651 -0.13469 0.21270
 C522 C 1.16734 -0.16908 0.21804
 C523 C 1.17042 -0.18541 0.25503
 C524 C 1.15307 -0.16729 0.28687
 C525 C 1.11344 -0.11404 0.31439
 C526 C 1.11746 -0.13007 0.35143
 C527 C 1.09996 -0.11163 0.38305
 C528 C 1.07812 -0.07770 0.37766
 C529 C 1.07402 -0.06242 0.34010
 C530 C 1.09190 -0.08024 0.30847
 C531 C 1.15625 -0.18260 0.32432
 C532 C 1.13888 -0.16423 0.35608
 C533 C 1.10691 -0.08264 0.23946
 C534 C 1.08874 -0.06486 0.27104
 H535 H 1.17240 -0.20896 0.32915
 H536 H 1.14217 -0.17693 0.38449
 H537 H 1.10389 -0.06977 0.21109
 H538 H 1.07216 -0.03879 0.26613
 H539 H 1.14400 -0.12246 0.18401
 H540 H 1.18655 -0.21195 0.25880
 H541 H 1.10313 -0.12383 0.41170
 H542 H 1.05719 -0.03647 0.33543
 C543 C 0.87052 0.13526 0.28100
 C544 C 0.84990 0.16977 0.28642
 C545 C 0.83121 0.18679 0.25469
 C546 C 0.83234 0.16890 0.21829
 C547 C 0.85252 0.13408 0.21337
 C548 C 0.87220 0.11735 0.24458
 C549 C 0.89080 0.11756 0.31405
 C550 C 0.91225 0.08366 0.30836
 C551 C 0.93145 0.06692 0.33983
 C552 C 0.92852 0.08321 0.37708
 C553 C 0.90698 0.11737 0.38221
 C554 C 0.88833 0.13485 0.35069
 C555 C 0.89383 0.08335 0.24007
 C556 C 0.91380 0.06697 0.27136
 C557 C 0.84847 0.18650 0.32340
 C558 C 0.86715 0.16920 0.35504
 H559 H 0.89554 0.06943 0.21208
 H560 H 0.93046 0.04093 0.26659
 H561 H 0.83261 0.21307 0.32796
 H562 H 0.86510 0.18289 0.38313
 H563 H 0.81555 0.21366 0.25811
 H564 H 0.85350 0.12076 0.18503
 H565 H 0.94810 0.04082 0.33538
 H566 H 0.90479 0.13038 0.41062
 C567 C 0.13088 0.27863 -0.12799
 C568 C 0.13373 0.27604 -0.16836
 C569 C 0.15014 0.24297 -0.18499
 C570 C 0.16489 0.21291 -0.16158
 C571 C 0.16227 0.21662 -0.12092
 C572 C 0.14475 0.24901 -0.10409
 C573 C 0.11279 0.31296 -0.11039
 C574 C 0.10844 0.31479 -0.07008
 C575 C 0.09026 0.34699 -0.05361
 C576 C 0.07765 0.37764 -0.07709
 C577 C 0.08295 0.37583 -0.11733
 C578 C 0.09993 0.34314 -0.13425
 C579 C 0.14043 0.25218 -0.06381
 C580 C 0.12228 0.28436 -0.04711
 C581 C 0.12021 0.30665 -0.19129
 C582 C 0.10388 0.33976 -0.17452
 H583 H 0.15086 0.22943 -0.04505
 H584 H 0.11919 0.28551 -0.01596
 H585 H 0.12239 0.30507 -0.22249
 H586 H 0.09394 0.36275 -0.19325
 H587 H 0.15251 0.24103 -0.21617
 H588 H 0.17260 0.19357 -0.10245
 H589 H 0.08627 0.34850 -0.02255
 H590 H 0.07279 0.39927 -0.13541
 C591 C -0.13356 0.28240 0.13092
 C592 C -0.17325 0.28364 0.13946
 C593 C -0.19050 0.25182 0.15749
 C594 C -0.16813 0.21947 0.16763
 C595 C -0.12831 0.21889 0.15927
 C596 C -0.11093 0.25014 0.14054
 C597 C -0.11534 0.31548 0.11145
 C598 C -0.07588 0.31377 0.10207
 C599 C -0.05880 0.34506 0.08317
 C600 C -0.08061 0.37822 0.07452
 C601 C -0.12003 0.37976 0.08455
 C602 C -0.13771 0.34816 0.10261
 C603 C -0.07145 0.24969 0.13104
 C604 C -0.05426 0.28091 0.11196
 C605 C -0.19478 0.31666 0.12983
 C606 C -0.17726 0.34847 0.11193
 H607 H -0.05373 0.22493 0.13826
 H608 H -0.02375 0.27940 0.10508
 H609 H -0.22540 0.31800 0.13633
 H610 H -0.19486 0.37344 0.10516
 H611 H -0.22114 0.25217 0.16406
 H612 H -0.11117 0.19377 0.16662
 H613 H -0.02836 0.34398 0.07590
 H614 H -0.13695 0.40521 0.07772
 C615 C -0.13134 0.71865 -0.13640
 C616 C -0.17153 0.71902 -0.14246
 C617 C -0.18878 0.75161 -0.15922
 C618 C -0.16601 0.78322 -0.17052
 C619 C -0.12571 0.78214 -0.16474
 C620 C -0.10824 0.75006 -0.14730
 C621 C -0.11314 0.68485 -0.11799
 C622 C -0.07314 0.68501 -0.11085
 C623 C -0.05614 0.65324 -0.09249
 C624 C -0.07866 0.62120 -0.08203
 C625 C -0.11857 0.62105 -0.09011
 C626 C -0.13610 0.65312 -0.10765
 C627 C -0.06822 0.74889 -0.14022
 C628 C -0.05099 0.71697 -0.12214
 C629 C -0.19358 0.68684 -0.13159
 C630 C -0.17614 0.65436 -0.11468
 H631 H -0.05010 0.77295 -0.14847
 H632 H -0.02007 0.71730 -0.11700
 H633 H -0.22459 0.68673 -0.13623
 H634 H -0.19420 0.63014 -0.10676
 H635 H -0.21978 0.75240 -0.16388
 H636 H -0.10823 0.80664 -0.17308
 H637 H -0.02537 0.65311 -0.08678
 H638 H -0.13600 0.59646 -0.08185
 C639 C 0.12962 0.71762 0.13221
 C640 C 0.11597 0.75512 0.12514
 C641 C 0.13417 0.78635 0.14335
 C642 C 0.16605 0.78014 0.16782
 C643 C 0.17955 0.74259 0.17456
 C644 C 0.16123 0.71104 0.15698
 C645 C 0.11059 0.68463 0.11319
 C646 C 0.12396 0.64712 0.12056
 C647 C 0.10570 0.61583 0.10245
 C648 C 0.07461 0.62189 0.07669
 C649 C 0.06192 0.65986 0.06937
 C650 C 0.07955 0.69127 0.08782
 C651 C 0.17384 0.67310 0.16356
 C652 C 0.15543 0.64167 0.14577
 C653 C 0.08459 0.76058 0.09985
 C654 C 0.06681 0.72920 0.08136
 H655 H 0.19812 0.66766 0.18265
 H656 H 0.16604 0.61287 0.15166
 H657 H 0.07383 0.78936 0.09413
 H658 H 0.04284 0.73468 0.06188
 H659 H 0.12400 0.81548 0.13833
 H660 H 0.20413 0.73818 0.19356
 H661 H 0.11598 0.58686 0.10816
 H662 H 0.03835 0.66506 0.04935
 C663 C 0.27841 1.12930 0.87348
 C664 C 0.24898 1.10585 0.85835
 C665 C 0.21691 1.12308 0.84048
 C666 C 0.21332 1.16368 0.83864
 C667 C 0.24318 1.18663 0.85462
 C668 C 0.27593 1.16960 0.87149
 C669 C 0.31246 1.11126 0.89184
 C670 C 0.34256 1.13464 0.90586
 C671 C 0.37517 1.11725 0.92276
 C672 C 0.37696 1.07696 0.92673
 C673 C 0.34631 1.05399 0.91310
 C674 C 0.31423 1.07096 0.89505
 C675 C 0.30638 1.19208 0.88626
 C676 C 0.33925 1.17490 0.90288
 C677 C 0.25204 1.06560 0.86170
 C678 C 0.28397 1.04846 0.88001
 H679 H 0.30488 1.22324 0.88478
 H680 H 0.36215 1.19328 0.91372
 H681 H 0.22943 1.04720 0.85028
 H682 H 0.28509 1.01732 0.88221
 H683 H 0.19400 1.10495 0.82921
 H684 H 0.24136 1.21777 0.85286
 H685 H 0.39866 1.13492 0.93359
 H686 H 0.34785 1.02289 0.91595
 C687 C 0.28117 0.86365 1.13111
 C688 C 0.28716 0.83932 1.16300
 C689 C 0.25507 0.82246 1.18110
 C690 C 0.21758 0.82950 1.16707
 C691 C 0.21201 0.85356 1.13492
 C692 C 0.24375 0.87104 1.11697
 C693 C 0.31469 0.88192 1.11229
 C694 C 0.30857 0.90691 1.08102
 C695 C 0.34039 0.92477 1.06367
 C696 C 0.37834 0.91729 1.07681
 C697 C 0.38395 0.89183 1.10808
 C698 C 0.35216 0.87430 1.12612
 C699 C 0.23885 0.89591 1.08534
 C700 C 0.27071 0.91370 1.06779
 C701 C 0.32505 0.83243 1.17609
 C702 C 0.35700 0.84950 1.15787
 H703 H 0.21014 0.90186 1.07421
 H704 H 0.26566 0.93291 1.04363
 H705 H 0.33006 0.81366 1.20060
 H706 H 0.38573 0.84340 1.16887
 H707 H 0.25901 0.80376 1.20587
 H708 H 0.18298 0.85885 1.12431
 H709 H 0.33548 0.94459 1.04001
 H710 H 0.41289 0.88603 1.11870
 C711 C 0.71790 1.13124 1.13378
 C712 C 0.74990 1.14130 1.11096
 C713 C 0.78128 1.16023 1.12821
 C714 C 0.78109 1.16839 1.16805
 C715 C 0.74902 1.15780 1.19062
 C716 C 0.71707 1.13956 1.17351
 C717 C 0.68469 1.11154 1.11572
 C718 C 0.65226 1.10225 1.13827
 C719 C 0.62053 1.08393 1.12075
 C720 C 0.62173 1.07409 1.08128
 C721 C 0.65463 1.08325 1.05927
 C722 C 0.68602 1.10238 1.07621
 C723 C 0.68430 1.12951 1.19523
 C724 C 0.65235 1.11139 1.17786
 C725 C 0.74994 1.13201 1.07143
 C726 C 0.71860 1.11272 1.05438
 H727 H 0.68327 1.13585 1.22588
 H728 H 0.62759 1.10430 1.19562
 H729 H 0.77448 1.13956 1.05356
 H730 H 0.71980 1.10599 1.02383
 H731 H 0.80621 1.16800 1.11098
 H732 H 0.74895 1.16423 1.22128
 H733 H 0.59528 1.07677 1.13780
 H734 H 0.65542 1.07619 1.02879
 C735 C 0.72006 0.87009 0.86618
 C736 C 0.75659 0.87206 0.88399
 C737 C 0.78810 0.85349 0.86658
 C738 C 0.78332 0.83412 0.83124
 C739 C 0.74680 0.83268 0.81347
 C740 C 0.71481 0.85028 0.83112
 C741 C 0.68671 0.88924 0.88455
 C742 C 0.65000 0.88653 0.86731
 C743 C 0.61823 0.90420 0.88535
 C744 C 0.62320 0.92503 0.92001
 C745 C 0.66050 0.92814 0.93632
 C746 C 0.69222 0.90991 0.91901
 C747 C 0.67773 0.84855 0.81449
 C748 C 0.64583 0.86616 0.83240
 C749 C 0.76090 0.89287 0.91857
 C750 C 0.72931 0.91174 0.93562
 H751 H 0.67330 0.83330 0.78749
 H752 H 0.61770 0.86394 0.81873
 H753 H 0.78896 0.89479 0.93244
 H754 H 0.73392 0.92777 0.96213
 H755 H 0.81652 0.85469 0.87982
 H756 H 0.74350 0.81764 0.78619
 H757 H 0.58978 0.90190 0.87233
 H758 H 0.66484 0.94428 0.96279
   
