data_POSCAR
  _audit_creation_date              2014-09-24
  _audit_creation_method            'ToBaCCo'
  _symmetry_space_group_name_H-M    'P1'
  _symmetry_Int_Tables_number       1
  _symmetry_cell_setting            triclinic
  loop_
  _symmetry_equiv_pos_as_xyz
 x,y,z
_cell_length_a 39.0521
_cell_length_b 39.0910
_cell_length_c 13.5659
_cell_angle_alpha 90.092600
_cell_angle_beta 90.001000
_cell_angle_gamma 119.869300
loop_
  _atom_site_label
  _atom_site_type_symbol
  _atom_site_fract_x
  _atom_site_fract_y
  _atom_site_fract_z
C1 C 0.19921 0.46348 0.44859
 C2 C 0.20017 0.46555 0.55423
 C3 C 0.23116 0.46409 0.60376
 C4 C 0.26340 0.46485 0.55557
 C5 C 0.26255 0.46308 0.45033
 C6 C 0.23103 0.46322 0.40051
 H7 H 0.23225 0.46482 0.32133
 H8 H 0.22980 0.46158 0.68274
 C9 C 0.53652 -0.26374 0.44672
 C10 C 0.53417 -0.26482 0.55197
 C11 C 0.53498 -0.23286 0.60174
 C12 C 0.53463 -0.20121 0.55362
 C13 C 0.53701 -0.20004 0.44837
 C14 C 0.53717 -0.23157 0.39848
 H15 H 0.53612 -0.23176 0.31923
 H16 H 0.53661 -0.23238 0.68083
 C17 C 1.26384 0.80136 0.44428
 C18 C 1.26493 0.79982 0.54958
 C19 C 1.23310 0.76845 0.59867
 C20 C 1.20152 0.73690 0.54973
 C21 C 1.20036 0.73816 0.44481
 C22 C 1.23171 0.76996 0.39536
 H23 H 1.23180 0.76927 0.31610
 H24 H 1.23255 0.76890 0.67781
 C25 C 0.79872 0.53478 0.45123
 C26 C 0.79979 0.53688 0.55652
 C27 C 0.76794 0.53683 0.60558
 C28 C 0.73607 0.53665 0.55642
 C29 C 0.73526 0.53459 0.45112
 C30 C 0.76727 0.53521 0.40226
 H31 H 0.76802 0.53664 0.32315
 H32 H 0.76710 0.53519 0.68477
 C33 C 0.46470 0.26392 0.45162
 C34 C 0.46267 0.26300 0.55692
 C35 C 0.46279 0.23129 0.60599
 C36 C 0.46305 0.19964 0.55679
 C37 C 0.46510 0.20083 0.45150
 C38 C 0.46432 0.23208 0.40266
 H39 H 0.46279 0.23131 0.32356
 H40 H 0.46442 0.23211 0.68519
 C41 C 0.73758 0.20153 0.44723
 C42 C 0.73832 0.19999 0.55216
 C43 C 0.76941 0.23162 0.60277
 C44 C 0.80038 0.26440 0.55505
 C45 C 0.80162 0.26382 0.44967
 C46 C 0.76982 0.23279 0.39929
 H47 H 0.76994 0.23326 0.32004
 H48 H 0.76907 0.23079 0.68198
 N49 N 0.95855 0.54031 0.10631
 N50 N 0.93080 0.54925 0.12649
 N51 N 1.04172 0.55795 0.17177
 N52 N 1.06905 0.57764 0.23864
 N53 N 1.04161 0.58196 0.10431
 N54 N 1.06902 0.61873 0.12350
 N55 N 0.95885 0.51610 0.17291
 N56 N 0.93129 0.50772 0.23967
 C57 C 0.91388 0.52830 0.20937
 C58 C 1.08610 0.61532 0.20688
 N59 N 1.04257 0.46067 0.10391
 N60 N 1.06987 0.45106 0.12409
 N61 N 0.95960 0.44301 0.17258
 N62 N 0.93284 0.42344 0.24056
 N63 N 0.95932 0.41888 0.10473
 N64 N 0.93214 0.38210 0.12472
 N65 N 1.04240 0.48468 0.17153
 N66 N 1.06934 0.49193 0.23938
 Mn67 Mn 1.00065 0.50046 0.17296
 C68 C 1.08659 0.47127 0.20826
 C69 C 0.91566 0.38566 0.20914
 N70 N 1.04103 0.58203 -0.10863
 N71 N 1.06848 0.61875 -0.12846
 N72 N 0.95810 0.51630 -0.17456
 N73 N 0.93084 0.50874 -0.24166
 N74 N 0.95786 0.54014 -0.10661
 N75 N 0.93025 0.54938 -0.12565
 N76 N 1.04103 0.55778 -0.17571
 N77 N 1.06850 0.57715 -0.24247
 Mn78 Mn 0.99976 0.56154 -0.00112
 C79 C 1.08554 0.61501 -0.21170
 C80 C 0.91342 0.52911 -0.20954
 N81 N 0.95873 0.41878 -0.10818
 N82 N 0.93114 0.38204 -0.12736
 N83 N 1.04134 0.48457 -0.17597
 N84 N 1.06914 0.49320 -0.24213
 N85 N 1.04172 0.46053 -0.10907
 N86 N 1.06972 0.45189 -0.12833
 N87 N 0.95834 0.44290 -0.17489
 N88 N 0.93044 0.42339 -0.24073
 Mn89 Mn 1.00059 0.43928 -0.00219
 Mn90 Mn 0.99969 0.50037 -0.17610
 Cl91 Cl 1.00018 0.50041 -0.00160
 C92 C 0.91356 0.38562 -0.20971
 C93 C 1.08669 0.47288 -0.21100
 N94 N 0.41737 0.45916 -0.10703
 N95 N 0.38060 0.45008 -0.12666
 N96 N 0.48308 0.44174 -0.17371
 N97 N 0.49067 0.42207 -0.24093
 N98 N 0.45922 0.41772 -0.10602
 N99 N 0.45001 0.38095 -0.12534
 N100 N 0.44157 0.48333 -0.17398
 N101 N 0.42211 0.49155 -0.24044
 C102 C 0.38425 0.47090 -0.20962
 C103 C 0.47029 0.38436 -0.20915
 N104 N 0.58081 0.53922 -0.10590
 N105 N 0.61763 0.54859 -0.12555
 N106 N 0.51492 0.55648 -0.17348
 N107 N 0.50640 0.57572 -0.23960
 N108 N 0.53916 0.58076 -0.10652
 N109 N 0.54803 0.61739 -0.12574
 N110 N 0.55670 0.51527 -0.17362
 N111 N 0.57639 0.50782 -0.24112
 Mn112 Mn 0.49908 0.49920 -0.17451
 C113 C 0.61421 0.52834 -0.20954
 C114 C 0.52697 0.61349 -0.20841
 N115 N 0.45915 0.41799 0.10694
 N116 N 0.45009 0.38131 0.12682
 N117 N 0.44178 0.48364 0.17347
 N118 N 0.42222 0.49128 0.24079
 N119 N 0.41761 0.45965 0.10594
 N120 N 0.38083 0.45037 0.12554
 N121 N 0.48342 0.44232 0.17380
 N122 N 0.49174 0.42306 0.24041
 Mn123 Mn 0.43790 0.43819 -0.00003
 C124 C 0.47106 0.38520 0.20977
 C125 C 0.38444 0.47079 0.20927
 N126 N 0.53910 0.58128 0.10641
 N127 N 0.54855 0.61810 0.12638
 N128 N 0.55659 0.51553 0.17388
 N129 N 0.57593 0.50717 0.24021
 N130 N 0.58083 0.53970 0.10703
 N131 N 0.61755 0.54870 0.12657
 N132 N 0.51522 0.55723 0.17404
 N133 N 0.50788 0.57694 0.24178
 Mn134 Mn 0.56041 0.56067 0.00022
 Mn135 Mn 0.49923 0.49968 0.17457
 Cl136 Cl 0.49916 0.49944 0.00005
 C137 C 0.52840 0.61473 0.21051
 C138 C 0.61375 0.52777 0.20934
 N139 N 0.41888 -0.04133 0.10598
 N140 N 0.38206 -0.06860 0.12590
 N141 N 0.48482 0.04175 0.17323
 N142 N 0.49317 0.06939 0.23975
 N143 N 0.46047 0.04176 0.10653
 N144 N 0.45136 0.06940 0.12634
 N145 N 0.44306 -0.04112 0.17359
 N146 N 0.42342 -0.06805 0.24130
 C147 C 0.38555 -0.08527 0.21001
 C148 C 0.47240 0.08653 0.20910
 N149 N 0.58233 0.04143 0.10560
 N150 N 0.61907 0.06911 0.12475
 N151 N 0.51674 -0.04119 0.17261
 N152 N 0.50917 -0.06828 0.23986
 N153 N 0.54058 -0.04157 0.10487
 N154 N 0.54981 -0.06913 0.12425
 N155 N 0.55816 0.04160 0.17264
 N156 N 0.57760 0.06943 0.23867
 Mn157 Mn 0.50070 0.00025 0.17381
 C158 C 0.61541 0.08648 0.20747
 C159 C 0.52954 -0.08573 0.20810
 N160 N 0.46057 0.04197 -0.10637
 N161 N 0.45123 0.06947 -0.12576
 N162 N 0.44320 -0.04109 -0.17405
 N163 N 0.42389 -0.06883 -0.24017
 N164 N 0.41898 -0.04102 -0.10703
 N165 N 0.38229 -0.06870 -0.12626
 N166 N 0.48443 0.04168 -0.17419
 N167 N 0.49184 0.06876 -0.24153
 Mn168 Mn 0.43928 0.00034 -0.00025
 C169 C 0.47139 0.08616 -0.20974
 C170 C 0.38613 -0.08591 -0.20899
 N171 N 0.54061 -0.04164 -0.10814
 N172 N 0.54969 -0.06933 -0.12802
 N173 N 0.55799 0.04130 -0.17478
 N174 N 0.57758 0.06820 -0.24242
 N175 N 0.58216 0.04142 -0.10728
 N176 N 0.61896 0.06863 -0.12712
 N177 N 0.51635 -0.04155 -0.17499
 N178 N 0.50804 -0.06919 -0.24163
 Mn179 Mn 0.56185 -0.00010 -0.00121
 Mn180 Mn 0.50049 0.00011 -0.17529
 Cl181 Cl 0.50058 0.00015 -0.00073
 C182 C 0.52875 -0.08644 -0.21101
 C183 C 0.61540 0.08530 -0.21106
 C184 C 1.16183 0.49039 0.25138
 C185 C 1.16796 0.50150 0.36206
 C186 C 1.16895 0.46347 0.38606
 C187 C 1.16312 0.45228 0.27462
 C188 C 1.12378 0.44043 0.40031
 C189 C 1.12261 0.47869 0.37748
 C190 C 1.11700 0.46777 0.26771
 C191 C 1.11784 0.42972 0.28953
 H192 H 1.17734 0.51077 0.18933
 H193 H 1.18893 0.53154 0.38977
 H194 H 1.17811 0.44023 0.22841
 H195 H 1.10587 0.41762 0.45513
 H196 H 1.10567 0.48980 0.41920
 H197 H 1.09718 0.40017 0.25853
 C198 C 0.56981 0.68776 0.28951
 C199 C 0.54692 0.71017 0.27364
 C200 C 0.53627 0.70568 0.38524
 C201 C 0.55958 0.68381 0.40049
 C202 C 0.49821 0.66649 0.36309
 C203 C 0.50881 0.67062 0.25216
 C204 C 0.53175 0.64871 0.26932
 C205 C 0.52133 0.64422 0.37929
 H206 H 0.59928 0.69646 0.25814
 H207 H 0.55857 0.73674 0.22621
 H208 H 0.58253 0.68915 0.45556
 H209 H 0.46828 0.65760 0.39150
 H210 H 0.48805 0.66519 0.19040
 H211 H 0.51055 0.61649 0.42179
 C212 C 0.35596 -0.12184 0.37853
 C213 C 0.31623 -0.12323 0.39922
 C214 C 0.29448 -0.16829 0.38342
 C215 C 0.33382 -0.16711 0.36180
 C216 C 0.29012 -0.16205 0.27180
 C217 C 0.31241 -0.11688 0.28821
 C218 C 0.35159 -0.11585 0.26854
 C219 C 0.32980 -0.16058 0.25086
 H220 H 0.38365 -0.10496 0.42147
 H221 H 0.31073 -0.10572 0.45430
 H222 H 0.34276 -0.18812 0.39020
 H223 H 0.26362 -0.17689 0.22388
 H224 H 0.30364 -0.09615 0.25685
 H225 H 0.33540 -0.17581 0.18910
 C226 C 0.86473 0.55708 0.25160
 C227 C 0.82333 0.52164 0.27378
 C228 C 0.82930 0.53229 0.38543
 C229 C 0.87038 0.56777 0.36258
 C230 C 0.84715 0.50524 0.39931
 C231 C 0.84166 0.49494 0.28845
 C232 C 0.88260 0.53035 0.26778
 C233 C 0.88863 0.54085 0.37767
 H234 H 0.87198 0.57825 0.19002
 H235 H 0.79688 0.51255 0.22693
 H236 H 0.88227 0.59827 0.39082
 H237 H 0.83959 0.48170 0.45419
 H238 H 0.82990 0.46494 0.25679
 H239 H 0.91611 0.54902 0.41940
 C240 C 0.45847 0.34755 0.37787
 C241 C 0.43155 0.30249 0.36270
 C242 C 0.46710 0.29686 0.38578
 C243 C 0.49415 0.34166 0.39974
 C244 C 0.47773 0.30141 0.27419
 C245 C 0.44222 0.30740 0.25176
 C246 C 0.46895 0.35189 0.26802
 C247 C 0.50443 0.34633 0.28895
 H248 H 0.45028 0.36688 0.41951
 H249 H 0.40103 0.28399 0.39080
 H250 H 0.51772 0.35762 0.45474
 H251 H 0.48686 0.28403 0.22741
 H252 H 0.42102 0.29349 0.19006
 H253 H 0.53444 0.36446 0.25745
 C254 C 0.65484 0.15903 0.28504
 C255 C 0.65977 0.15385 0.39598
 C256 C 0.70454 0.17116 0.38152
 C257 C 0.69976 0.17680 0.26989
 C258 C 0.69858 0.12984 0.35950
 C259 C 0.65356 0.11215 0.37497
 C260 C 0.64895 0.11784 0.26500
 C261 C 0.69343 0.13514 0.24842
 H262 H 0.63673 0.17096 0.25329
 H263 H 0.64421 0.16181 0.45144
 H264 H 0.71728 0.20299 0.22270
 H265 H 0.71703 0.11779 0.38824
 H266 H 0.63412 0.08489 0.41692
 H267 H 0.70709 0.12740 0.18694
 C268 C 0.47838 0.12277 -0.37787
 C269 C 0.44008 0.12424 -0.39845
 C270 C 0.46335 0.16927 -0.38255
 C271 C 0.50146 0.16801 -0.36103
 C272 C 0.45277 0.16304 -0.27095
 C273 C 0.42994 0.11790 -0.28747
 C274 C 0.46804 0.11679 -0.26791
 C275 C 0.49094 0.16149 -0.25009
 H276 H 0.48917 0.10583 -0.42082
 H277 H 0.41707 0.10676 -0.45345
 H278 H 0.53135 0.18898 -0.38955
 H279 H 0.44108 0.17793 -0.22311
 H280 H 0.40050 0.09719 -0.25607
 H281 H 0.51172 0.17664 -0.18829
 C282 C 0.67008 0.50878 -0.25056
 C283 C 0.66613 0.49832 -0.36161
 C284 C 0.70537 0.53639 -0.38285
 C285 C 0.70967 0.54691 -0.27113
 C286 C 0.68350 0.55967 -0.39834
 C287 C 0.64386 0.52142 -0.37803
 C288 C 0.64817 0.53169 -0.26796
 C289 C 0.68725 0.56976 -0.28724
 H290 H 0.66451 0.48798 -0.18899
 H291 H 0.65732 0.46847 -0.39046
 H292 H 0.73619 0.55855 -0.22325
 H293 H 0.68897 0.58270 -0.45305
 H294 H 0.61617 0.51068 -0.42096
 H295 H 0.69586 0.59915 -0.25551
 C296 C 0.84094 0.34580 -0.28720
 C297 C 0.84610 0.34065 -0.39812
 C298 C 0.82908 0.29600 -0.38309
 C299 C 0.82340 0.30101 -0.27142
 C300 C 0.87054 0.30226 -0.36110
 C301 C 0.88797 0.34721 -0.37701
 C302 C 0.88227 0.35198 -0.26715
 C303 C 0.86522 0.30763 -0.25005
 H304 H 0.82885 0.36382 -0.25568
 H305 H 0.83801 0.35614 -0.45331
 H306 H 0.79734 0.28378 -0.22349
 H307 H 0.88282 0.28397 -0.38967
 H308 H 0.91525 0.36677 -0.41886
 H309 H 0.87310 0.29422 -0.18835
 C310 C 0.54102 -0.11257 -0.37880
 C311 C 0.56800 -0.13078 -0.36295
 C312 C 0.53242 -0.17192 -0.38478
 C313 C 0.50533 -0.15413 -0.39972
 C314 C 0.52191 -0.17726 -0.27300
 C315 C 0.55748 -0.13578 -0.25182
 C316 C 0.53071 -0.11798 -0.26885
 C317 C 0.49521 -0.15899 -0.28875
 H318 H 0.54909 -0.08525 -0.42084
 H319 H 0.59844 -0.11904 -0.39157
 H320 H 0.48172 -0.16185 -0.45463
 H321 H 0.51275 -0.20330 -0.22479
 H322 H 0.57877 -0.12824 -0.19022
 H323 H 0.46523 -0.17054 -0.25715
 C324 C 0.34588 0.45868 -0.37730
 C325 C 0.30080 0.43158 -0.36167
 C326 C 0.29490 0.46704 -0.38290
 C327 C 0.33968 0.49426 -0.39760
 C328 C 0.29993 0.47743 -0.27099
 C329 C 0.30618 0.44198 -0.25040
 C330 C 0.35066 0.46886 -0.26721
 C331 C 0.34482 0.50426 -0.28651
 H332 H 0.36529 0.45077 -0.41959
 H333 H 0.28234 0.40119 -0.39073
 H334 H 0.35545 0.51793 -0.45219
 H335 H 0.28285 0.48644 -0.22272
 H336 H 0.29255 0.42063 -0.18906
 H337 H 0.36302 0.53419 -0.25452
 C338 C 1.15809 0.65413 -0.28885
 C339 C 1.15312 0.65908 -0.39991
 C340 C 1.17066 0.70385 -0.38536
 C341 C 1.17606 0.69902 -0.27355
 C342 C 1.12933 0.69811 -0.36403
 C343 C 1.11142 0.65307 -0.37961
 C344 C 1.11690 0.64845 -0.26948
 C345 C 1.13441 0.69292 -0.25280
 H346 H 1.16987 0.63595 -0.25685
 H347 H 1.16105 0.64334 -0.45492
 H348 H 1.20219 0.71635 -0.22575
 H349 H 1.11742 0.71662 -0.39299
 H350 H 1.08418 0.63379 -0.42209
 H351 H 1.12670 0.70670 -0.19153
 C352 C 0.88151 0.57036 -0.28694
 C353 C 0.87529 0.56026 -0.39802
 C354 C 0.83022 0.53683 -0.38260
 C355 C 0.83631 0.54736 -0.27091
 C356 C 0.83165 0.49885 -0.36130
 C357 C 0.87693 0.52210 -0.37764
 C358 C 0.88276 0.53239 -0.26759
 C359 C 0.83803 0.50932 -0.25026
 H360 H 0.90212 0.59977 -0.25515
 H361 H 0.89273 0.58330 -0.45275
 H362 H 0.82129 0.55893 -0.22316
 H363 H 0.81078 0.46899 -0.39023
 H364 H 0.89404 0.51146 -0.42042
 H365 H 0.82292 0.48851 -0.18867
 C366 C 0.47734 0.35481 -0.37730
 C367 C 0.50068 0.33281 -0.36080
 C368 C 0.46270 0.29349 -0.38224
 C369 C 0.43917 0.31509 -0.39782
 C370 C 0.45220 0.28917 -0.27060
 C371 C 0.49024 0.32884 -0.24981
 C372 C 0.46708 0.35048 -0.26731
 C373 C 0.42910 0.31133 -0.28679
 H374 H 0.48792 0.38245 -0.42006
 H375 H 0.53058 0.34173 -0.38957
 H376 H 0.41607 0.30947 -0.45267
 H377 H 0.44069 0.26269 -0.22288
 H378 H 0.51111 0.33457 -0.18813
 H379 H 0.39966 0.30261 -0.25515
 C380 C 0.64469 0.12167 -0.37938
 C381 C 0.66704 0.16685 -0.36225
 C382 C 0.70621 0.16778 -0.38432
 C383 C 0.68424 0.12279 -0.40043
 C384 C 0.71069 0.16149 -0.27298
 C385 C 0.67119 0.16028 -0.25152
 C386 C 0.64922 0.11561 -0.26954
 C387 C 0.68821 0.11635 -0.28960
 H388 H 0.61697 0.10504 -0.42235
 H389 H 0.65830 0.18804 -0.39043
 H390 H 0.68965 0.10537 -0.45605
 H391 H 0.73743 0.17639 -0.22586
 H392 H 0.66574 0.17549 -0.18949
 H393 H 0.69680 0.09545 -0.25851
 C394 C 1.13583 0.44421 -0.25082
 C395 C 1.13028 0.43308 -0.36155
 C396 C 1.17134 0.46847 -0.38453
 C397 C 1.17723 0.47961 -0.27307
 C398 C 1.15360 0.49554 -0.39999
 C399 C 1.11209 0.46000 -0.37806
 C400 C 1.11802 0.47088 -0.26851
 C401 C 1.15894 0.50623 -0.28934
 H402 H 1.12848 0.42330 -0.18857
 H403 H 1.11840 0.40251 -0.38933
 H404 H 1.20357 0.48912 -0.22549
 H405 H 1.16121 0.51903 -0.45496
 H406 H 1.08459 0.45175 -0.41979
 H407 H 1.17058 0.53632 -0.25838
 C408 C 0.53979 0.65130 -0.37571
 C409 C 0.50421 0.65731 -0.39773
 C410 C 0.53131 0.70202 -0.38292
 C411 C 0.56675 0.69629 -0.35974
 C412 C 0.52043 0.69724 -0.27152
 C413 C 0.49369 0.65239 -0.28709
 C414 C 0.52909 0.64675 -0.26607
 C415 C 0.55586 0.69115 -0.24898
 H416 H 0.54801 0.63199 -0.41737
 H417 H 0.48073 0.64152 -0.45304
 H418 H 0.59731 0.71482 -0.38759
 H419 H 0.51119 0.71451 -0.22463
 H420 H 0.46362 0.63419 -0.25594
 H421 H 0.57692 0.70483 -0.18692
 C422 C 0.34748 -0.15787 -0.28803
 C423 C 0.30254 -0.17605 -0.27314
 C424 C 0.29787 -0.16996 -0.38462
 C425 C 0.34268 -0.15227 -0.39873
 C426 C 0.30334 -0.12893 -0.36130
 C427 C 0.30837 -0.13468 -0.25045
 C428 C 0.35286 -0.11699 -0.26684
 C429 C 0.34841 -0.11084 -0.37656
 H430 H 0.36578 -0.16965 -0.25660
 H431 H 0.28532 -0.20248 -0.22644
 H432 H 0.35863 -0.15985 -0.45388
 H433 H 0.28470 -0.11701 -0.38942
 H434 H 0.29451 -0.12739 -0.18859
 H435 H 0.36769 -0.08334 -0.41786
 C436 C 0.52225 -0.12167 0.37648
 C437 C 0.49921 -0.16690 0.36039
 C438 C 0.53724 -0.16808 0.38339
 C439 C 0.56049 -0.12303 0.39827
 C440 C 0.54807 -0.16233 0.27202
 C441 C 0.50999 -0.16083 0.24970
 C442 C 0.53287 -0.11611 0.26667
 C443 C 0.57092 -0.11712 0.28748
 H444 H 0.51131 -0.10471 0.41883
 H445 H 0.46923 -0.18783 0.38839
 H446 H 0.58340 -0.10546 0.45345
 H447 H 0.55978 -0.17761 0.22573
 H448 H 0.48937 -0.17614 0.18773
 H449 H 0.60041 -0.09653 0.25620
 C450 C 0.32877 0.49029 0.25171
 C451 C 0.28934 0.45222 0.27373
 C452 C 0.29437 0.46295 0.38524
 C453 C 0.33343 0.50096 0.36255
 C454 C 0.31630 0.43970 0.39954
 C455 C 0.31182 0.42938 0.28861
 C456 C 0.35074 0.46742 0.26812
 C457 C 0.35576 0.47793 0.37807
 H458 H 0.33398 0.51094 0.19004
 H459 H 0.26236 0.44056 0.22751
 H460 H 0.34235 0.53089 0.39099
 H461 H 0.31106 0.41676 0.45434
 H462 H 0.30306 0.39995 0.25691
 H463 H 0.38361 0.48881 0.42040
 C464 C 1.16124 0.67081 0.24825
 C465 C 1.16269 0.71046 0.26867
 C466 C 1.16854 0.70613 0.38034
 C467 C 1.16740 0.66684 0.35935
 C468 C 1.12347 0.68451 0.39524
 C469 C 1.11745 0.68831 0.28408
 C470 C 1.11648 0.64918 0.26508
 C471 C 1.12213 0.64483 0.37524
 H472 H 1.17654 0.66506 0.18697
 H473 H 1.17796 0.73706 0.22147
 H474 H 1.18841 0.65802 0.38862
 H475 H 1.10605 0.69018 0.45026
 H476 H 1.09677 0.69700 0.25189
 H477 H 1.10515 0.61723 0.41815
 C478 C 0.44320 0.13524 0.25127
 C479 C 0.43247 0.12946 0.36214
 C480 C 0.46785 0.17053 0.38551
 C481 C 0.47855 0.17666 0.27400
 C482 C 0.49511 0.15291 0.39936
 C483 C 0.45959 0.11143 0.37717
 C484 C 0.47013 0.11761 0.26741
 C485 C 0.50545 0.15856 0.28862
 H486 H 0.42202 0.12794 0.18949
 H487 H 0.40193 0.11743 0.39025
 H488 H 0.48757 0.20311 0.22747
 H489 H 0.51867 0.16054 0.45441
 H490 H 0.45154 0.08396 0.41851
 H491 H 0.53549 0.17043 0.25715
 C492 C 0.69161 0.55679 0.25136
 C493 C 0.69650 0.56741 0.36237
 C494 C 0.70227 0.53199 0.38517
 C495 C 0.69776 0.52140 0.27352
 C496 C 0.65747 0.50483 0.39887
 C497 C 0.65143 0.54038 0.37726
 C498 C 0.64712 0.52995 0.26737
 C499 C 0.65283 0.49459 0.28801
 H500 H 0.70545 0.57799 0.18983
 H501 H 0.71493 0.59789 0.39085
 H502 H 0.71523 0.51238 0.22674
 H503 H 0.64159 0.48126 0.45368
 H504 H 0.63198 0.54845 0.41884
 H505 H 0.63474 0.46461 0.25619
 C506 C 0.84073 0.32968 0.25076
 C507 C 0.83981 0.29048 0.27391
 C508 C 0.83369 0.29565 0.38507
 C509 C 0.83431 0.33449 0.36124
 C510 C 0.87877 0.31789 0.40035
 C511 C 0.88503 0.31327 0.28975
 C512 C 0.88548 0.35197 0.26812
 C513 C 0.87956 0.35712 0.37775
 H514 H 0.82528 0.33458 0.18841
 H515 H 0.82487 0.26340 0.22802
 H516 H 0.81302 0.34328 0.38863
 H517 H 0.89654 0.31295 0.45582
 H518 H 0.90600 0.30464 0.25907
 H519 H 0.89610 0.38504 0.41999
   
