data_POSCAR
  _audit_creation_date              2014-09-24
  _audit_creation_method            'ToBaCCo'
  _symmetry_space_group_name_H-M    'P1'
  _symmetry_Int_Tables_number       1
  _symmetry_cell_setting            triclinic
  loop_
  _symmetry_equiv_pos_as_xyz
 x,y,z
_cell_length_a 38.2629
_cell_length_b 42.7974
_cell_length_c 38.4071
_cell_angle_alpha 90.155800
_cell_angle_beta 91.799800
_cell_angle_gamma 89.714300
loop_
  _atom_site_label
  _atom_site_type_symbol
  _atom_site_fract_x
  _atom_site_fract_y
  _atom_site_fract_z
C1 C 0.34110 0.32450 1.39089
 C2 C 0.30799 0.33360 1.40196
 C3 C 0.29235 0.36172 1.39040
 C4 C 0.30984 0.38003 1.36584
 C5 C 0.34263 0.37073 1.35374
 C6 C 0.35862 0.34328 1.36702
 C7 C 0.35692 0.29685 1.40337
 C8 C 0.39060 0.28804 1.39279
 C9 C 0.40814 0.30749 1.36977
 C10 C 0.39208 0.33446 1.35619
 C11 C 0.40872 0.35219 1.33115
 C12 C 0.39228 0.37844 1.31611
 C13 C 0.35950 0.38814 1.32819
 H14 H 0.29472 0.31902 1.42042
 H15 H 0.29789 0.40101 1.35515
 H16 H 0.34320 0.28298 1.42202
 H17 H 0.43399 0.30101 1.36130
 H18 H 0.43414 0.34482 1.32234
 H19 H 0.34688 0.40894 1.31783
 C20 C 1.13562 0.66975 0.90573
 C21 C 1.16028 0.65732 0.92985
 C22 C 1.17612 0.62810 0.92404
 C23 C 1.16708 0.61161 0.89319
 C24 C 1.14287 0.62393 0.86884
 C25 C 1.12671 0.65292 0.87521
 C26 C 1.12046 0.69914 0.91129
 C27 C 1.09662 0.71228 0.88645
 C28 C 1.08703 0.69464 0.85671
 C29 C 1.10229 0.66537 0.85064
 C30 C 1.09451 0.64885 0.81977
 C31 C 1.11140 0.62032 0.81303
 C32 C 1.13543 0.60804 0.83761
 H33 H 1.16736 0.67057 0.95312
 H34 H 1.17981 0.58987 0.88671
 H35 H 1.12738 0.71120 0.93523
 H36 H 1.06860 0.70424 0.83747
 H37 H 1.07649 0.65881 0.80046
 H38 H 1.14847 0.58605 0.83227
 C39 C 0.67356 -0.16998 0.10360
 C40 C 0.70410 -0.15657 0.09054
 C41 C 0.71920 -0.13016 0.10690
 C42 C 0.70347 -0.11729 0.13616
 C43 C 0.67305 -0.13014 0.14916
 C44 C 0.65782 -0.15649 0.13284
 C45 C 0.65909 -0.19714 0.08858
 C46 C 0.62914 -0.21118 0.10222
 C47 C 0.61320 -0.19680 0.13096
 C48 C 0.62740 -0.16974 0.14638
 C49 C 0.61233 -0.15628 0.17593
 C50 C 0.62796 -0.13025 0.19245
 C51 C 0.65823 -0.11742 0.17888
 H52 H 0.71647 -0.16724 0.06847
 H53 H 0.71516 -0.09713 0.14908
 H54 H 0.67165 -0.20771 0.06649
 H55 H 0.59031 -0.20663 0.14236
 H56 H 0.58942 -0.16679 0.18683
 H57 H 0.67048 -0.09752 0.19178
 C58 C -0.14576 1.15877 -0.41830
 C59 C -0.17598 1.14747 -0.43552
 C60 C -0.19226 1.12001 -0.42442
 C61 C -0.17751 1.10384 -0.39546
 C62 C -0.14763 1.11529 -0.37760
 C63 C -0.13179 1.14300 -0.38881
 C64 C -0.12938 1.18572 -0.43016
 C65 C -0.09991 1.19785 -0.41238
 C66 C -0.08644 1.18260 -0.38235
 C67 C -0.10206 1.15495 -0.37058
 C68 C -0.08846 1.13893 -0.34113
 C69 C -0.10427 1.11115 -0.32979
 C70 C -0.13361 1.09954 -0.34840
 H71 H -0.18682 1.16015 -0.45782
 H72 H -0.18967 1.08304 -0.38563
 H73 H -0.13982 1.19759 -0.45317
 H74 H -0.06346 1.19180 -0.36875
 H75 H -0.06535 1.14789 -0.32765
 H76 H -0.14586 1.07821 -0.33984
 C77 C 0.66093 0.68959 0.63144
 C78 C 0.69017 0.67983 0.61285
 C79 C 0.70882 0.65286 0.62291
 C80 C 0.69890 0.63606 0.65226
 C81 C 0.67064 0.64611 0.67175
 C82 C 0.65128 0.67277 0.66114
 C83 C 0.64137 0.71595 0.62092
 C84 C 0.61202 0.72588 0.63970
 C85 C 0.60339 0.70927 0.66981
 C86 C 0.62258 0.68280 0.68050
 C87 C 0.61364 0.66626 0.71042
 C88 C 0.63323 0.63995 0.72128
 C89 C 0.66171 0.63011 0.70192
 H90 H 0.69812 0.69285 0.59028
 H91 H 0.71383 0.61558 0.66038
 H92 H 0.64987 0.72863 0.59847
 H93 H 0.58128 0.71673 0.68484
 H94 H 0.59200 0.67435 0.72566
 H95 H 0.67686 0.60986 0.71036
 C96 C 0.84542 0.32214 0.10678
 C97 C 0.81189 0.33206 0.09562
 C98 C 0.79667 0.35921 0.10956
 C99 C 0.81497 0.37546 0.13645
 C100 C 0.84822 0.36550 0.14826
 C101 C 0.86380 0.33919 0.13286
 C102 C 0.86087 0.29544 0.09228
 C103 C 0.89494 0.28601 0.10305
 C104 C 0.91321 0.30375 0.12841
 C105 C 0.89760 0.32965 0.14396
 C106 C 0.91503 0.34559 0.17114
 C107 C 0.89915 0.37092 0.18773
 C108 C 0.86583 0.38111 0.17578
 H109 H 0.79793 0.31897 0.07539
 H110 H 0.80336 0.39535 0.14919
 H111 H 0.84656 0.28284 0.07201
 H112 H 0.93935 0.29672 0.13708
 H113 H 0.94073 0.33767 0.18014
 H114 H 0.85288 0.40040 0.18836
 C115 C 0.36518 0.17640 0.88113
 C116 C 0.33318 0.16933 0.89607
 C117 C 0.31547 0.14149 0.88760
 C118 C 0.32979 0.12126 0.86262
 C119 C 0.36135 0.12845 0.84694
 C120 C 0.37939 0.15594 0.85641
 C121 C 0.38324 0.20357 0.89079
 C122 C 0.41551 0.21070 0.87627
 C123 C 0.42974 0.19015 0.85170
 C124 C 0.41155 0.16299 0.84115
 C125 C 0.42468 0.14287 0.81547
 C126 C 0.40602 0.11581 0.80513
 C127 C 0.37487 0.10860 0.82158
 H128 H 0.32244 0.18527 0.91503
 H129 H 0.31617 0.10037 0.85419
 H130 H 0.37248 0.21888 0.91031
 H131 H 0.45459 0.19562 0.84044
 H132 H 0.44931 0.14829 0.80383
 H133 H 0.36062 0.08768 0.81400
 C134 C 0.12697 0.82873 0.40050
 C135 C 0.15727 0.83927 0.41829
 C136 C 0.17325 0.86734 0.40897
 C137 C 0.15875 0.88482 0.38092
 C138 C 0.12842 0.87453 0.36277
 C139 C 0.11237 0.84645 0.37277
 C140 C 0.11137 0.80052 0.40989
 C141 C 0.08113 0.78940 0.39180
 C142 C 0.06643 0.80774 0.36463
 C143 C 0.08188 0.83596 0.35489
 C144 C 0.06763 0.85356 0.32709
 C145 C 0.08383 0.88110 0.31632
 C146 C 0.11409 0.89166 0.33453
 H147 H 0.16855 0.82554 0.43956
 H148 H 0.17129 0.90598 0.37250
 H149 H 0.12330 0.78774 0.43136
 H150 H 0.04312 0.79977 0.35049
 H151 H 0.04430 0.84541 0.31318
 H152 H 0.12631 0.91330 0.32706
 Zn153 Zn 0.02386 1.04615 -0.02186
 Zn154 Zn -0.00629 0.98409 -0.04383
 Zn155 Zn 0.05744 0.98819 0.00368
 Zn156 Zn -0.01133 1.00629 0.03037
 O157 O 0.01572 1.00614 -0.00806
 O158 O 0.00803 1.05297 -0.06515
 O159 O 0.01871 0.95022 -0.05652
 O160 O 0.09388 1.01207 -0.00501
 O161 O -0.01443 1.00772 -0.08264
 O162 O 0.06945 1.05648 -0.02231
 O163 O 0.06451 0.95334 -0.01986
 O164 O 0.01073 0.99134 0.06926
 O165 O -0.04776 0.96833 -0.03131
 O166 O 0.06209 0.97829 0.04862
 O167 O -0.04971 0.98326 0.02388
 O168 O -0.02652 1.04469 0.04094
 O169 O 0.00180 1.07431 0.00398
 C170 C -0.00719 1.03626 -0.08822
 C171 C 0.04748 0.93948 -0.04403
 C172 C 0.09638 1.03984 -0.01574
 C173 C 0.04150 0.98046 0.07369
 C174 C -0.06274 0.96870 -0.00225
 C175 C -0.01938 1.07126 0.02852
 Zn176 Zn 0.46215 0.00007 0.44772
 Zn177 Zn 0.46718 -0.02552 0.52121
 Zn178 Zn 0.52827 -0.02824 0.47363
 Zn179 Zn 0.50628 0.03280 0.50113
 O180 O 0.49074 -0.00531 0.48619
 O181 O 0.41978 -0.01446 0.45451
 O182 O 0.48721 -0.06306 0.53278
 O183 O 0.52758 -0.03847 0.42870
 O184 O 0.42185 -0.03377 0.50813
 O185 O 0.47743 -0.01868 0.40889
 O186 O 0.53066 -0.06408 0.49590
 O187 O 0.55291 0.03684 0.50126
 O188 O 0.46608 -0.00205 0.56107
 O189 O 0.56930 -0.00967 0.48253
 O190 O 0.49479 0.04011 0.54472
 O191 O 0.48800 0.06473 0.47654
 O192 O 0.45490 0.04013 0.43709
 C193 C 0.40522 -0.02765 0.47966
 C194 C 0.51340 -0.07667 0.51961
 C195 C 0.50538 -0.03392 0.40405
 C196 C 0.57668 0.01737 0.49391
 C197 C 0.47859 0.02502 0.56745
 C198 C 0.46632 0.06513 0.45087
 Zn199 Zn 0.96611 0.49032 0.54248
 Zn200 Zn 1.00052 0.45936 0.48278
 Zn201 Zn 0.96880 0.52358 0.47448
 Zn202 Zn 1.03400 0.51412 0.51813
 O203 O 0.99233 0.49683 0.50437
 O204 O 0.95738 0.44987 0.54983
 O205 O 0.98146 0.45825 0.43953
 O206 O 0.92684 0.53515 0.48979
 O207 O 0.98351 0.42647 0.50611
 O208 O 0.92512 0.51068 0.54043
 O209 O 0.95999 0.50619 0.43293
 O210 O 1.03978 0.55188 0.50013
 O211 O 1.04635 0.45161 0.47752
 O212 O 0.99214 0.55940 0.46697
 O213 O 1.07094 0.49209 0.50443
 O214 O 1.03843 0.51977 0.56429
 O215 O 0.98694 0.50372 0.58163
 C216 C 0.96622 0.42526 0.53381
 C217 C 0.96577 0.47900 0.42121
 C218 C 0.91149 0.52877 0.51764
 C219 C 1.02145 0.56867 0.47944
 C220 C 1.07332 0.46696 0.48710
 C221 C 1.01670 0.51549 0.58810
 Zn222 Zn 0.50075 0.46614 1.02672
 Zn223 Zn 0.46888 0.49860 0.96494
 Zn224 Zn 0.46472 0.52858 1.03451
 Zn225 Zn 0.53287 0.52499 0.99952
 O226 O 0.49188 0.50448 1.00656
 O227 O 0.48594 0.43344 0.99985
 O228 O 0.42615 0.51502 0.96368
 O229 O 0.45470 0.50895 1.07362
 O230 O 0.46261 0.45853 0.95442
 O231 O 0.48011 0.46253 1.06825
 O232 O 0.42298 0.53835 1.01492
 O233 O 0.53540 0.56216 1.02117
 O234 O 0.49078 0.51534 0.92929
 O235 O 0.48472 0.56492 1.04716
 O236 O 0.53937 0.53353 0.95452
 O237 O 0.57012 0.50321 1.01507
 O238 O 0.54666 0.45978 1.03514
 C239 C 0.47029 0.43334 0.97014
 C240 C 0.40946 0.53089 0.98553
 C241 C 0.46171 0.48186 1.08516
 C242 C 0.51402 0.57665 1.04006
 C243 C 0.51985 0.52919 0.92763
 C244 C 0.57312 0.47664 1.02946
 C245 C 1.25968 0.37009 0.40369
 C246 C 1.24436 0.39976 0.40096
 C247 C 1.21057 0.40689 0.41663
 N248 N 1.20221 0.43686 0.42457
 N249 N 1.17179 0.44367 0.43881
 C250 C 1.14842 0.42080 0.44539
 N251 N 1.15659 0.39085 0.43709
 N252 N 1.18719 0.38399 0.42317
 C253 C 1.11424 0.42831 0.46001
 C254 C 1.10828 0.45660 0.47692
 H255 H 1.25828 0.41904 0.38984
 H256 H 1.09336 0.41141 0.45713
 H257 H 1.24629 0.35290 0.41906
 H258 H 1.12988 0.47248 0.48167
 C259 C 0.20221 0.61736 0.94782
 C260 C 0.21666 0.58734 0.94678
 C261 C 0.25078 0.57956 0.96295
 N262 N 0.26642 0.55237 0.95401
 N263 N 0.29888 0.54594 0.96516
 C264 C 0.31692 0.56642 0.98580
 N265 N 0.30102 0.59334 0.99554
 N266 N 0.26854 0.59992 0.98409
 C267 C 0.35352 0.56001 0.99610
 C268 C 0.37337 0.53972 0.97626
 H269 H 0.20445 0.56913 0.93121
 H270 H 0.36524 0.57213 1.01831
 H271 H 0.21252 0.63352 0.96731
 H272 H 0.36193 0.52961 0.95267
 C273 C -0.24772 0.88413 0.09604
 C274 C -0.23360 0.88166 0.06303
 C275 C -0.20160 0.89906 0.05485
 N276 N -0.18871 0.89854 0.02227
 N277 N -0.16011 0.91477 0.01503
 C278 C -0.14347 0.93212 0.04015
 N279 N -0.15633 0.93253 0.07260
 N280 N -0.18478 0.91638 0.07979
 C281 C -0.11181 0.95023 0.03353
 C282 C -0.09571 0.95144 0.00148
 H283 H -0.24660 0.86806 0.04273
 H284 H -0.10032 0.96289 0.05548
 H285 H -0.23454 0.89906 0.11507
 H286 H -0.10678 0.93892 -0.02075
 C287 C 0.77665 0.11055 0.55809
 C288 C 0.76036 0.08172 0.56252
 C289 C 0.72567 0.07499 0.54674
 N290 N 0.71435 0.04506 0.54433
 N291 N 0.68240 0.03873 0.53153
 C292 C 0.66047 0.06213 0.52093
 N293 N 0.67173 0.09208 0.52348
 N294 N 0.70380 0.09840 0.53600
 C295 C 0.62438 0.05553 0.50891
 C296 C 0.61366 0.02545 0.49989
 H297 H 0.77323 0.06310 0.57696
 H298 H 0.60566 0.07462 0.50805
 H299 H 0.76458 0.12657 0.53942
 H300 H 0.63286 0.00682 0.49860
 C301 C 0.40751 0.26050 0.40410
 C302 C 0.39086 0.23528 0.41936
 C303 C 0.41020 0.20645 0.42778
 N304 N 0.39338 0.17865 0.42700
 N305 N 0.41084 0.15222 0.43354
 C306 C 0.44570 0.15267 0.44139
 N307 N 0.46243 0.18053 0.44278
 N308 N 0.44504 0.20694 0.43581
 C309 C 0.46480 0.12365 0.44950
 C310 C 0.45229 0.09492 0.43770
 H311 H 0.36278 0.23489 0.42159
 H312 H 0.48868 0.12486 0.46535
 H313 H 0.43487 0.25752 0.39819
 H314 H 0.42994 0.09417 0.41968
 C315 C 0.91652 0.22598 0.57325
 C316 C 0.92814 0.25091 0.59387
 C317 C 0.93860 0.28073 0.57813
 N318 N 0.93927 0.30730 0.59749
 N319 N 0.94715 0.33461 0.58311
 C320 C 0.95483 0.33634 0.54886
 N321 N 0.95466 0.30971 0.52963
 N322 N 0.94653 0.28245 0.54394
 C323 C 0.96331 0.36642 0.53252
 C324 C 0.95655 0.39492 0.54870
 H325 H 0.92636 0.24961 0.62191
 H326 H 0.97444 0.36609 0.50693
 H327 H 0.91518 0.22886 0.54521
 H328 H 0.94397 0.39512 0.57358
 C329 C 0.08258 0.74258 -0.11023
 C330 C 0.09495 0.76469 -0.08609
 C331 C 0.08119 0.79669 -0.08465
 N332 N 0.09840 0.81804 -0.06459
 N333 N 0.08653 0.84718 -0.06241
 C334 C 0.05693 0.85617 -0.08013
 N335 N 0.03956 0.83480 -0.10022
 N336 N 0.05156 0.80556 -0.10255
 C337 C 0.04313 0.88810 -0.07608
 C338 C 0.06207 0.90995 -0.05643
 H339 H 0.11708 0.75972 -0.06884
 H340 H 0.01723 0.89375 -0.08648
 H341 H 0.06238 0.74998 -0.12890
 H342 H 0.08802 0.90389 -0.04645
 C343 C 0.61717 0.76047 1.08720
 C344 C 0.58796 0.74363 1.09770
 C345 C 0.57880 0.71269 1.08316
 N346 N 0.54975 0.69792 1.09391
 N347 N 0.54139 0.66964 1.08175
 C348 C 0.56184 0.65500 1.05841
 N349 N 0.59089 0.66976 1.04765
 N350 N 0.59924 0.69806 1.05979
 C351 C 0.55314 0.62361 1.04491
 C352 C 0.52295 0.60780 1.05407
 H353 H 0.57102 0.75258 1.11735
 H354 H 0.57089 0.61279 1.02699
 H355 H 0.63206 0.75057 1.06626
 H356 H 0.50485 0.61881 1.07148
 C357 C 0.41005 0.39382 1.28705
 C358 C 0.39383 0.41410 1.26315
 C359 C 0.41105 0.42319 1.23097
 N360 N 0.39679 0.44583 1.21031
 N361 N 0.41149 0.45344 1.18053
 C362 C 0.44083 0.43851 1.17014
 N363 N 0.45498 0.41573 1.19069
 N364 N 0.44040 0.40826 1.22057
 C365 C 0.45692 0.44640 1.13699
 C366 C 0.44719 0.47326 1.11873
 H367 H 0.36750 0.42245 1.26684
 H368 H 0.47711 0.43121 1.12719
 H369 H 0.43665 0.38649 1.28231
 H370 H 0.42834 0.48916 1.12973
 C371 C 0.61538 -0.11722 0.22544
 C372 C 0.58042 -0.11642 0.23467
 C373 C 0.57045 -0.10220 0.26795
 N374 N 0.53673 -0.09401 0.27355
 N375 N 0.52803 -0.08062 0.30352
 C376 C 0.55276 -0.07512 0.32896
 N377 N 0.58629 -0.08361 0.32344
 N378 N 0.59499 -0.09677 0.29351
 C379 C 0.54424 -0.06090 0.36253
 C380 C 0.51214 -0.04694 0.36931
 H381 H 0.56017 -0.12487 0.21676
 H382 H 0.56470 -0.06100 0.38268
 H383 H 0.63463 -0.10592 0.24245
 H384 H 0.49191 -0.04546 0.34901
 C385 C -0.09105 1.09304 -0.29910
 C386 C -0.06992 1.10531 -0.27216
 C387 C -0.06008 1.08699 -0.24079
 N388 N -0.04115 1.10062 -0.21451
 N389 N -0.03270 1.08475 -0.18565
 C390 C -0.04283 1.05458 -0.18184
 N391 N -0.06164 1.04086 -0.20820
 N392 N -0.07012 1.05676 -0.23711
 C393 C -0.03405 1.03711 -0.14953
 C394 C -0.01608 1.05144 -0.12173
 H395 H -0.06153 1.12937 -0.27302
 H396 H -0.04227 1.01303 -0.14739
 H397 H -0.10027 1.06928 -0.29657
 H398 H -0.00828 1.07561 -0.12427
 C399 C 1.10607 0.60367 0.77974
 C400 C 1.07403 0.60306 0.76169
 C401 C 1.06971 0.58609 0.72865
 N402 N 1.03728 0.57839 0.71643
 N403 N 1.03310 0.56302 0.68642
 C404 C 1.06117 0.55498 0.66747
 N405 N 1.09359 0.56297 0.67952
 N406 N 1.09780 0.57811 0.70968
 C407 C 1.05657 0.53922 0.63370
 C408 C 1.02486 0.52562 0.62386
 H409 H 1.05129 0.61395 0.77275
 H410 H 1.07800 0.53927 0.61593
 H411 H 1.12762 0.58987 0.77021
 H412 H 1.00422 0.52421 0.64248
 C413 C 0.73976 0.64286 0.60391
 C414 C 0.74321 0.61218 0.59231
 C415 C 0.77661 0.59963 0.58058
 N416 N 0.77709 0.57501 0.55825
 N417 N 0.80730 0.56196 0.54952
 C418 C 0.83804 0.57272 0.56340
 N419 N 0.83753 0.59719 0.58591
 N420 N 0.80738 0.61056 0.59417
 C421 C 0.87130 0.55726 0.55597
 C422 C 0.87748 0.54328 0.52400
 H423 H 0.72098 0.59663 0.59293
 H424 H 0.89229 0.55845 0.57555
 H425 H 0.76028 0.65964 0.59961
 H426 H 0.85853 0.54564 0.50260
 C427 C 0.76359 0.36891 1.09642
 C428 C 0.74904 0.39843 1.10234
 C429 C 0.71439 0.40756 1.08817
 N430 N 0.70559 0.43826 1.08642
 N431 N 0.67420 0.44709 1.07405
 C432 C 0.65030 0.42552 1.06324
 N433 N 0.65895 0.39477 1.06528
 N434 N 0.69050 0.38594 1.07739
 C435 C 0.61532 0.43514 1.05028
 C436 C 0.60827 0.46585 1.04027
 H437 H 0.76398 0.41648 1.11560
 H438 H 0.59492 0.41771 1.04820
 H439 H 0.74923 0.35322 1.07904
 H440 H 0.62933 0.48267 1.04014
 C441 C 0.28391 1.13509 -0.09598
 C442 C 0.26804 1.10576 -0.09596
 C443 C 0.23477 1.10006 -0.07911
 N444 N 0.22581 1.07037 -0.07131
 N445 N 0.19536 1.06440 -0.05700
 C446 C 0.17254 1.08786 -0.05016
 N447 N 0.18137 1.11762 -0.05816
 N448 N 0.21205 1.12364 -0.07223
 C449 C 0.13806 1.08083 -0.03622
 C450 C 0.13157 1.05163 -0.02198
 H451 H 0.28110 1.08552 -0.10641
 H452 H 0.11729 1.09802 -0.03887
 H453 H 0.27205 1.15352 -0.08083
 H454 H 0.15311 1.03538 -0.01790
 C455 C 0.20583 -0.12326 0.42822
 C456 C 0.21859 -0.09277 0.42912
 C457 C 0.25216 -0.08445 0.44656
 N458 N 0.26442 -0.05495 0.44359
 N459 N 0.29548 -0.04720 0.45753
 C460 C 0.31552 -0.06856 0.47517
 N461 N 0.30300 -0.09798 0.47872
 N462 N 0.27191 -0.10579 0.46464
 C463 C 0.35123 -0.06056 0.48791
 C464 C 0.36785 -0.03449 0.47462
 H465 H 0.20398 -0.07420 0.41624
 H466 H 0.36565 -0.07673 0.50466
 H467 H 0.22003 -0.14109 0.44288
 H468 H 0.35378 -0.02012 0.45563
 C469 C 0.59115 -0.24812 0.62988
 C470 C 0.59366 -0.23205 0.59842
 C471 C 0.57228 -0.20440 0.58934
 N472 N 0.57523 -0.19161 0.55739
 N473 N 0.55730 -0.16601 0.54857
 C474 C 0.53564 -0.15203 0.57130
 N475 N 0.53239 -0.16495 0.60331
 N476 N 0.55039 -0.19071 0.61218
 C477 C 0.51752 -0.12253 0.56171
 C478 C 0.52518 -0.10791 0.53050
 H479 H 0.61117 -0.23994 0.57872
 H480 H 0.50018 -0.11147 0.57982
 H481 H 0.57107 -0.24052 0.64737
 H482 H 0.54358 -0.11906 0.51349
 C483 C 1.06524 0.76058 0.39941
 C484 C 1.07827 0.73898 0.42393
 C485 C 1.06183 0.70855 0.42998
 N486 N 1.07759 0.68834 0.45266
 N487 N 1.06367 0.66051 0.45855
 C488 C 1.03339 0.65173 0.44202
 N489 N 1.01747 0.67198 0.41936
 N490 N 1.03147 0.69990 0.41339
 C491 C 1.01807 0.62083 0.44867
 C492 C 1.03535 0.59947 0.47058
 H493 H 1.10198 0.74335 0.43900
 H494 H 0.99312 0.61490 0.43638
 H495 H 1.04172 0.75425 0.38462
 H496 H 1.06046 0.60564 0.48242
 C497 C -0.08829 1.25956 0.08962
 C498 C -0.10503 1.23541 0.07132
 C499 C -0.08508 1.20789 0.06046
 N500 N -0.10053 1.17946 0.05864
 N501 N -0.08210 1.15419 0.05028
 C502 C -0.04766 1.15654 0.04316
 N503 N -0.03239 1.18505 0.04434
 N504 N -0.05070 1.21024 0.05310
 C505 C -0.02722 1.12903 0.03332
 C506 C -0.03720 1.09892 0.04215
 H507 H -0.13320 1.23471 0.06825
 H508 H -0.00356 1.13261 0.01911
 H509 H -0.06068 1.25645 0.09606
 H510 H -0.05928 1.09551 0.05869
 C511 C 0.43457 0.23926 0.88749
 C512 C 0.41657 0.26688 0.89467
 C513 C 0.43282 0.29482 0.91050
 N514 N 0.41468 0.32211 0.91002
 N515 N 0.42761 0.34743 0.92581
 C516 C 0.45908 0.34645 0.94313
 N517 N 0.47725 0.31907 0.94384
 N518 N 0.46440 0.29370 0.92775
 C519 C 0.47289 0.37457 0.96115
 C520 C 0.45917 0.40403 0.95311
 H521 H 0.38878 0.26819 0.88844
 H522 H 0.49432 0.37224 0.98007
 H523 H 0.46286 0.23867 0.88967
 H524 H 0.43965 0.40606 0.93216
 C525 C 0.62537 0.62296 0.75342
 C526 C 0.59144 0.61928 0.76476
 C527 C 0.58418 0.60217 0.79678
 N528 N 0.55108 0.59311 0.80306
 N529 N 0.54407 0.57782 0.83215
 C530 C 0.56990 0.57120 0.85612
 N531 N 0.60297 0.58045 0.84996
 N532 N 0.61002 0.59555 0.82074
 C533 C 0.56219 0.55541 0.88888
 C534 C 0.53007 0.54122 0.89373
 H535 H 0.56950 0.62803 0.74912
 H536 H 0.58191 0.55548 0.90974
 H537 H 0.64677 0.61138 0.76740
 H538 H 0.51111 0.53986 0.87223
 C539 C 0.41753 0.09439 0.77719
 C540 C 0.43874 0.10332 0.75008
 C541 C 0.44444 0.08300 0.71958
 N542 N 0.46382 0.09355 0.69316
 N543 N 0.46797 0.07623 0.66470
 C544 C 0.45287 0.04764 0.66142
 N545 N 0.43364 0.03694 0.68796
 N546 N 0.42948 0.05430 0.71649
 C547 C 0.45650 0.02890 0.62923
 C548 C 0.47501 0.04055 0.60144
 H549 H 0.44969 0.12656 0.74976
 H550 H 0.44385 0.00637 0.62706
 H551 H 0.40594 0.07134 0.77603
 H552 H 0.48733 0.06320 0.60423
 C553 C 0.06841 0.89818 0.28597
 C554 C 0.08843 0.91540 0.26317
 C555 C 0.07352 0.92925 0.23085
 N556 N 0.09521 0.94020 0.20648
 N557 N 0.08239 0.95190 0.17660
 C558 C 0.04733 0.95329 0.16996
 N559 N 0.02557 0.94272 0.19453
 N560 N 0.03842 0.93083 0.22438
 C561 C 0.03303 0.96541 0.13646
 C562 C 0.05448 0.96999 0.10823
 H563 H 0.11644 0.91692 0.26764
 H564 H 0.00512 0.96939 0.13347
 H565 H 0.04093 0.89467 0.27954
 H566 H 0.08207 0.96441 0.11102
 C567 C 0.91719 0.38416 0.21902
 C568 C 0.90749 0.41182 0.23544
 C569 C 0.92282 0.42069 0.26959
 N570 N 0.91348 0.44803 0.28470
 N571 N 0.92603 0.45562 0.31633
 C572 C 0.94827 0.43606 0.33404
 N573 N 0.95766 0.40877 0.31890
 N574 N 0.94517 0.40123 0.28727
 C575 C 0.96150 0.44359 0.36934
 C576 C 0.95367 0.47179 0.38549
 H577 H 0.88779 0.42706 0.22382
 H578 H 0.97763 0.42640 0.38298
 H579 H 0.93873 0.37074 0.23039
 H580 H 0.93826 0.48929 0.37153
   
