data_POSCAR
  _audit_creation_date              2014-09-24
  _audit_creation_method            'ToBaCCo'
  _symmetry_space_group_name_H-M    'P1'
  _symmetry_Int_Tables_number       1
  _symmetry_cell_setting            triclinic
  loop_
  _symmetry_equiv_pos_as_xyz
 x,y,z
_cell_length_a 25.2418
_cell_length_b 28.6005
_cell_length_c 19.3553
_cell_angle_alpha 92.872900
_cell_angle_beta 95.044600
_cell_angle_gamma 92.979500
loop_
  _atom_site_label
  _atom_site_type_symbol
  _atom_site_fract_x
  _atom_site_fract_y
  _atom_site_fract_z
C1 C 0.23282 0.18221 0.25864
 C2 C 0.21208 0.16012 0.31465
 C3 C 0.17905 0.18394 0.35797
 C4 C 0.16363 0.22901 0.34111
 C5 C 0.18128 0.25029 0.28299
 C6 C 0.21730 0.22747 0.24280
 C7 C 0.27002 0.16033 0.21961
 C8 C 0.29316 0.18341 0.16593
 C9 C 0.27585 0.22820 0.14951
 C10 C 0.23817 0.25021 0.18729
 C11 C 0.22174 0.29507 0.17133
 C12 C 0.18413 0.31695 0.20949
 C13 C 0.16404 0.29441 0.26511
 H14 H 0.22400 0.12535 0.32670
 H15 H 0.13639 0.24723 0.37171
 H16 H 0.28230 0.12589 0.23289
 H17 H 0.29153 0.24661 0.10766
 H18 H 0.23780 0.31289 0.12896
 H19 H 0.13595 0.31182 0.29544
 C20 C -0.18189 0.86434 0.10453
 C21 C -0.13588 0.89285 0.12445
 C22 C -0.08552 0.87405 0.12720
 C23 C -0.08108 0.82784 0.10118
 C24 C -0.12708 0.79823 0.08612
 C25 C -0.17777 0.81614 0.08977
 C26 C -0.23193 0.88254 0.10627
 C27 C -0.27831 0.85272 0.09955
 C28 C -0.27393 0.80394 0.08874
 C29 C -0.22389 0.78550 0.08385
 C30 C -0.21852 0.73683 0.07856
 C31 C -0.16782 0.71932 0.07637
 C32 C -0.12281 0.75007 0.07637
 H33 H -0.13952 0.92904 0.14230
 H34 H -0.04252 0.81275 0.10271
 H35 H -0.23431 0.91989 0.11738
 H36 H -0.30898 0.78015 0.08412
 H37 H -0.25310 0.71271 0.07864
 H38 H -0.08363 0.73614 0.07618
 C39 C -0.26768 0.17890 -0.34458
 C40 C -0.24628 0.17418 -0.40834
 C41 C -0.19474 0.19218 -0.41553
 C42 C -0.16814 0.22230 -0.36247
 C43 C -0.19187 0.23136 -0.30022
 C44 C -0.24029 0.20684 -0.28966
 C45 C -0.31295 0.15141 -0.33355
 C46 C -0.32924 0.14702 -0.26643
 C47 C -0.30332 0.17696 -0.21161
 C48 C -0.25979 0.20811 -0.22358
 C49 C -0.23391 0.23902 -0.17056
 C50 C -0.18817 0.26753 -0.18255
 C51 C -0.16656 0.26190 -0.24690
 H52 H -0.26622 0.15020 -0.44883
 H53 H -0.12801 0.23614 -0.36794
 H54 H -0.33162 0.12987 -0.37725
 H55 H -0.31618 0.17542 -0.15976
 H56 H -0.24972 0.24073 -0.12043
 H57 H -0.13010 0.28153 -0.25573
 C58 C 0.19697 0.80135 -0.23439
 C59 C 0.15228 0.82587 -0.25548
 C60 C 0.10188 0.80235 -0.27080
 C61 C 0.09704 0.75360 -0.26522
 C62 C 0.14171 0.72866 -0.24591
 C63 C 0.19202 0.75232 -0.23023
 C64 C 0.24636 0.82534 -0.21700
 C65 C 0.29149 0.80109 -0.19707
 C66 C 0.28694 0.75179 -0.19392
 C67 C 0.23701 0.72710 -0.20947
 C68 C 0.23042 0.67809 -0.20310
 C69 C 0.17975 0.65495 -0.21863
 C70 C 0.13621 0.68035 -0.24073
 H71 H 0.15686 0.86357 -0.25909
 H72 H 0.05894 0.73449 -0.27719
 H73 H 0.24994 0.86314 -0.21989
 H74 H 0.32175 0.73301 -0.17796
 H75 H 0.26383 0.65840 -0.18449
 H76 H 0.09715 0.66239 -0.25130
 C77 C 0.13353 1.21174 0.88517
 C78 C 0.08888 1.18023 0.88065
 C79 C 0.09376 1.13290 0.86099
 C80 C 0.14484 1.11634 0.85571
 C81 C 0.19018 1.14712 0.86582
 C82 C 0.18442 1.19544 0.87764
 C83 C 0.12709 1.25967 0.89195
 C84 C 0.17043 1.29237 0.88990
 C85 C 0.22191 1.27596 0.88565
 C86 C 0.22914 1.22749 0.87970
 C87 C 0.27992 1.21037 0.87412
 C88 C 0.28596 1.16178 0.86599
 C89 C 0.24088 1.13058 0.86105
 H90 H 0.04987 1.19384 0.88398
 H91 H 0.14918 1.07961 0.84167
 H92 H 0.08726 1.27137 0.89634
 H93 H 0.25610 1.30039 0.88540
 H94 H 0.31454 1.23466 0.87734
 H95 H 0.24526 1.09324 0.85286
 C96 C 0.81442 0.75271 0.74256
 C97 C 0.83252 0.77369 0.68450
 C98 C 0.81483 0.81740 0.66428
 C99 C 0.78015 0.84095 0.70578
 C100 C 0.75925 0.81912 0.76220
 C101 C 0.77591 0.77440 0.77968
 C102 C 0.83349 0.70969 0.76291
 C103 C 0.81101 0.68558 0.81576
 C104 C 0.77026 0.70637 0.85014
 C105 C 0.75366 0.75104 0.83371
 C106 C 0.71448 0.77230 0.86970
 C107 C 0.69723 0.81675 0.85286
 C108 C 0.72065 0.84035 0.79992
 H109 H 0.86151 0.75609 0.65606
 H110 H 0.76693 0.87497 0.69176
 H111 H 0.86407 0.69382 0.73508
 H112 H 0.75287 0.68889 0.89184
 H113 H 0.69727 0.75410 0.91090
 H114 H 0.70712 0.87429 0.78611
 C115 C 0.20022 0.76741 1.29725
 C116 C 0.17552 0.78254 1.35628
 C117 C 0.20245 0.81526 1.40554
 C118 C 0.25494 0.83087 1.39792
 C119 C 0.27886 0.81817 1.33795
 C120 C 0.25112 0.78715 1.28663
 C121 C 0.17360 0.73563 1.24630
 C122 C 0.19541 0.72618 1.18269
 C123 C 0.24504 0.74815 1.17167
 C124 C 0.27300 0.77817 1.22310
 C125 C 0.32112 0.80158 1.21033
 C126 C 0.34809 0.83302 1.26096
 C127 C 0.32781 0.83980 1.32562
 H128 H 0.13474 0.77079 1.36228
 H129 H 0.27511 0.85680 1.43542
 H130 H 0.13467 0.72026 1.25472
 H131 H 0.26289 0.74146 1.12358
 H132 H 0.33663 0.79676 1.16010
 H133 H 0.34760 0.86522 1.36410
 C134 C 0.85158 1.27938 1.28324
 C135 C 0.89235 1.25190 1.30794
 C136 C 0.88438 1.20295 1.30884
 C137 C 0.83309 1.18212 1.28763
 C138 C 0.79147 1.20959 1.26251
 C139 C 0.80093 1.25854 1.26063
 C140 C 0.86251 1.32695 1.27492
 C141 C 0.82415 1.35378 1.24188
 C142 C 0.77245 1.33426 1.22387
 C143 C 0.76087 1.28644 1.23213
 C144 C 0.71173 1.26534 1.20546
 C145 C 0.70270 1.21639 1.20318
 C146 C 0.74201 1.18880 1.23417
 H147 H 0.93067 1.26929 1.32486
 H148 H 0.82609 1.14440 1.28760
 H149 H 0.90253 1.34228 1.28860
 H150 H 0.74306 1.35481 1.19696
 H151 H 0.68163 1.28709 1.18298
 H152 H 0.73539 1.15099 1.23235
 O153 O 0.52501 0.93266 0.92187
 O154 O 0.45596 0.99088 1.15502
 O155 O 0.61087 1.00014 1.07842
 O156 O 0.42265 0.93143 0.95600
 O157 O 0.55171 0.97470 1.14433
 O158 O 0.44116 0.96122 0.86375
 O159 O 0.42237 0.94227 1.07505
 O160 O 0.60053 0.96533 0.95967
 C161 C 0.57352 0.92938 0.93574
 C162 C 0.43736 0.95094 1.13694
 C163 C 0.59337 0.96872 1.11544
 C164 C 0.41842 0.92882 0.89182
 O165 O 0.47173 1.04658 0.89212
 O166 O 0.57064 1.06461 1.13028
 O167 O 0.56990 1.04930 0.91182
 O168 O 0.39906 1.03553 1.06652
 O169 O 0.47010 1.07491 1.12214
 O170 O 0.53395 0.99671 0.83346
 O171 O 0.39885 1.02405 0.93708
 O172 O 0.57465 1.08225 1.02600
 Co173 Co 0.50051 0.99070 0.91132
 Co174 Co 0.51183 1.02421 1.12703
 Co175 Co 0.58184 1.02224 0.99600
 Co176 Co 0.41778 0.98524 1.00847
 O177 O 0.50062 1.00409 1.01481
 C178 C 0.42402 1.05255 0.90194
 C179 C 0.58030 1.09448 1.08823
 C180 C 0.56758 1.03242 0.84971
 C181 C 0.42104 1.07222 1.10023
 O182 O 0.07623 0.48773 0.13150
 O183 O 0.03076 0.51552 -0.14617
 O184 O 0.06818 0.42810 -0.01119
 O185 O 0.03285 0.61245 0.02202
 O186 O 0.03250 0.43528 -0.11280
 O187 O 0.07354 0.57128 0.09972
 O188 O 0.06640 0.56338 -0.06724
 O189 O 0.03503 0.42032 0.10192
 C190 C 0.07414 0.44372 0.13281
 C191 C 0.06921 0.54305 -0.12371
 C192 C 0.07147 0.42447 -0.07393
 C193 C 0.06985 0.60851 0.06835
 O194 O -0.03198 0.57062 0.11205
 O195 O -0.06804 0.43500 -0.07527
 O196 O -0.05973 0.43407 0.06029
 O197 O -0.02756 0.59318 -0.10934
 O198 O -0.07021 0.52247 -0.10908
 O199 O -0.02930 0.48501 0.14605
 O200 O -0.06023 0.57954 0.00231
 O201 O -0.02345 0.37943 -0.02162
 Co202 Co 0.02094 0.52658 0.11313
 Co203 Co -0.01677 0.47941 -0.10066
 Co204 Co 0.00336 0.43475 0.01823
 Co205 Co 0.00196 0.56515 -0.03533
 O206 O 0.00796 0.50342 0.00671
 C207 C -0.06491 0.58633 0.06622
 C208 C -0.06337 0.39098 -0.06454
 C209 C -0.06354 0.45354 0.11958
 C210 C -0.06914 0.56479 -0.13002
 O211 O 1.08744 0.06291 0.55290
 O212 O 0.88561 0.02469 0.47000
 O213 O 1.02436 0.06140 0.40626
 O214 O 0.94605 0.01282 0.67566
 O215 O 0.94256 0.04000 0.38029
 O216 O 1.02259 0.04563 0.64415
 O217 O 0.92422 0.05459 0.56822
 O218 O 1.10663 0.03146 0.45505
 C219 C 1.11127 0.06564 0.49884
 C220 C 0.89450 0.05911 0.51410
 C221 C 0.97954 0.07048 0.38139
 C222 C 0.99149 0.03673 0.69186
 O223 O 1.04770 -0.04408 0.63386
 O224 O 0.97193 -0.04910 0.36990
 O225 O 1.06919 -0.05479 0.44004
 O226 O 0.88399 -0.03244 0.55702
 O227 O 0.91119 -0.06699 0.46587
 O228 O 1.10725 -0.02957 0.54250
 O229 O 0.96395 -0.06130 0.61240
 O230 O 1.04499 -0.01057 0.33728
 Co231 Co 1.06069 0.00814 0.58632
 Co232 Co 0.93275 -0.01249 0.42804
 Co233 Co 1.04152 0.00240 0.42669
 Co234 Co 0.94853 -0.00264 0.58615
 O235 O 0.99583 -0.00128 0.50705
 C236 C 1.00827 -0.07142 0.63852
 C237 C 1.00226 -0.03844 0.32172
 C238 C 1.10169 -0.06016 0.49186
 C239 C 0.88283 -0.06822 0.51636
 C240 C 1.16134 0.16274 0.41658
 C241 C 1.14281 0.18647 0.47297
 C242 C 1.12671 0.15272 0.51488
 C243 C 1.13566 0.11075 0.48100
 O244 O 1.15729 0.11664 0.42184
 H245 H 1.14061 0.22387 0.48258
 H246 H 1.10719 0.15798 0.56204
 C247 C 0.95683 -0.10206 0.16777
 C248 C 1.01035 -0.11014 0.16625
 C249 C 1.03544 -0.08452 0.22219
 C250 C 0.99523 -0.06408 0.25436
 O251 O 0.94794 -0.07400 0.22132
 H252 H 1.02886 -0.13262 0.12990
 H253 H 1.07745 -0.08309 0.23969
 C254 C 0.83477 0.16593 0.53484
 C255 C 0.81582 0.15574 0.46619
 C256 C 0.83743 0.11470 0.44738
 C257 C 0.86776 0.10298 0.50591
 O258 O 0.86661 0.13400 0.55842
 H259 H 0.78523 0.17316 0.43621
 H260 H 0.82934 0.09430 0.39864
 C261 C 1.05820 -0.17215 0.70698
 C262 C 1.00530 -0.18873 0.69609
 C263 C 0.97829 -0.15203 0.67150
 C264 C 1.01648 -0.11629 0.66888
 O265 O 1.06450 -0.12812 0.69075
 H266 H 0.98794 -0.22310 0.70446
 H267 H 0.93626 -0.15168 0.65586
 C268 C 0.33405 1.16246 1.13158
 C269 C 0.36382 1.18383 1.08369
 C270 C 0.40047 1.15282 1.06740
 C271 C 0.39056 1.11452 1.10533
 O272 O 0.35031 1.11985 1.14413
 H273 H 0.36069 1.21819 1.06343
 H274 H 0.43066 1.15732 1.03149
 C275 C 0.34260 0.82870 0.82015
 C276 C 0.39121 0.81636 0.79971
 C277 C 0.42590 0.85371 0.82094
 C278 C 0.39591 0.88581 0.85304
 O279 O 0.34550 0.87071 0.85299
 H280 H 0.40001 0.78445 0.77159
 H281 H 0.46825 0.85670 0.81555
 C282 C 0.67290 0.87250 1.10772
 C283 C 0.62575 0.84841 1.11918
 C284 C 0.59044 0.88213 1.12807
 C285 C 0.61828 0.92398 1.12021
 O286 O 0.66795 0.91836 1.10766
 H287 H 0.61782 0.81110 1.12225
 H288 H 0.54878 0.87680 1.13656
 C289 C 0.63257 1.11073 0.74522
 C290 C 0.60376 1.08209 0.69321
 C291 C 0.57671 1.04897 0.72596
 C292 C 0.58996 1.05934 0.79545
 O293 O 0.62331 1.09697 0.80782
 H294 H 0.60179 1.08415 0.63750
 H295 H 0.55002 1.02077 0.70195
 C296 C 0.16731 0.36423 0.19336
 C297 C 0.20138 0.40372 0.19763
 C298 C 0.17021 0.43949 0.17918
 C299 C 0.11948 0.41911 0.16425
 O300 O 0.11757 0.37335 0.17295
 H301 H 0.24385 0.40599 0.21227
 H302 H 0.18324 0.47575 0.17445
 C303 C -0.16223 0.30305 -0.12887
 C304 C -0.18016 0.31292 -0.06446
 C305 C -0.14580 0.34754 -0.03309
 C306 C -0.10941 0.35683 -0.08020
 O307 O -0.11896 0.32993 -0.13833
 H308 H -0.21414 0.29710 -0.04232
 H309 H -0.14692 0.36397 0.01834
 C310 C 0.16722 0.60615 -0.20253
 C311 C 0.15871 0.56991 -0.25298
 C312 C 0.12328 0.53826 -0.22829
 C313 C 0.11258 0.55782 -0.16495
 O314 O 0.13919 0.59847 -0.14943
 H315 H 0.17140 0.56946 -0.30496
 H316 H 0.10410 0.50713 -0.25567
 C317 C -0.15841 0.66976 0.08388
 C318 C -0.16907 0.64612 0.14208
 C319 C -0.13602 0.60967 0.14335
 C320 C -0.10855 0.61394 0.08543
 O321 O -0.12204 0.64998 0.04954
 H322 H -0.19348 0.65709 0.18253
 H323 H -0.13069 0.58462 0.18313
 C324 C 1.04906 0.10471 0.83429
 C325 C 0.99645 0.11175 0.84536
 C326 C 0.96667 0.08263 0.79704
 C327 C 1.00334 0.06107 0.75962
 O328 O 1.05283 0.07360 0.78273
 H329 H 0.98138 0.13660 0.88173
 H330 H 0.92378 0.08071 0.78628
 C331 C 0.83214 -0.16287 0.60406
 C332 C 0.85188 -0.18803 0.54980
 C333 C 0.86846 -0.15563 0.50606
 C334 C 0.85845 -0.11287 0.53655
 O335 O 0.83569 -0.11707 0.59548
 H336 H 0.85483 -0.22554 0.54298
 H337 H 0.88895 -0.16222 0.46001
 C338 C 1.17381 -0.15869 0.45642
 C339 C 1.19118 -0.15197 0.52603
 C340 C 1.16471 -0.11490 0.54989
 C341 C 1.13387 -0.10141 0.49273
 O342 O 1.13908 -0.12799 0.43621
 H343 H 1.22213 -0.16986 0.55459
 H344 H 1.16911 -0.09837 0.60178
 C345 C 0.92716 0.17526 0.32864
 C346 C 0.98028 0.19122 0.34133
 C347 C 1.00725 0.15326 0.35981
 C348 C 0.96920 0.11698 0.35731
 O349 O 0.92080 0.12987 0.33795
 H350 H 0.99827 0.22599 0.33756
 H351 H 1.04941 0.15232 0.37483
 C352 C 0.15988 0.34007 -0.10820
 C353 C 0.19633 0.37819 -0.10538
 C354 C 0.16680 0.41672 -0.09820
 C355 C 0.11485 0.39917 -0.09928
 O356 O 0.11082 0.35324 -0.10463
 H357 H 0.23922 0.37828 -0.10465
 H358 H 0.18160 0.45289 -0.08890
 C359 C -0.15711 0.39696 0.21196
 C360 C -0.18655 0.43501 0.19627
 C361 C -0.15397 0.46328 0.16131
 C362 C -0.10794 0.43971 0.15812
 O363 O -0.10972 0.39978 0.18837
 H364 H -0.22708 0.44076 0.20720
 H365 H -0.16330 0.49598 0.13848
 C366 C -0.17083 0.64146 -0.16684
 C367 C -0.19999 0.60744 -0.13578
 C368 C -0.16713 0.57152 -0.12657
 C369 C -0.11966 0.58629 -0.15087
 O370 O -0.12191 0.62860 -0.17585
 H371 H -0.24034 0.60846 -0.12120
 H372 H -0.17528 0.54003 -0.09963
 C373 C 0.16717 0.69646 0.13035
 C374 C 0.17573 0.69570 0.06047
 C375 C 0.13899 0.66354 0.02836
 C376 C 0.11155 0.64615 0.08063
 O377 O 0.12798 0.66607 0.14248
 H378 H 0.20384 0.71705 0.03485
 H379 H 0.13328 0.65341 -0.02652
 C380 C 0.33871 1.14207 0.86463
 C381 C 0.38431 1.16443 0.84475
 C382 C 0.42278 1.13267 0.85268
 C383 C 0.39763 1.09368 0.87710
 O384 O 0.34692 1.09932 0.88433
 H385 H 0.38906 1.19951 0.82689
 H386 H 0.46442 1.13785 0.84408
 C387 C 0.39180 0.86463 1.24243
 C388 C 0.43176 0.88521 1.28919
 C389 C 0.45584 0.91930 1.25436
 C390 C 0.42886 0.91682 1.18911
 O391 O 0.39034 0.88352 1.18137
 H392 H 0.44045 0.87792 1.34321
 H393 H 0.48780 0.94423 1.27478
 C394 C 0.65544 1.19388 1.16106
 C395 C 0.62654 1.21507 1.10824
 C396 C 0.59300 1.18060 1.07551
 C397 C 0.60325 1.14116 1.11098
 O398 O 0.64110 1.14880 1.16264
 H399 H 0.63140 1.25056 1.09209
 H400 H 0.56571 1.18337 1.02971
 C401 C 0.65229 0.83686 0.88728
 C402 C 0.61062 0.81024 0.91009
 C403 C 0.57575 0.84150 0.93178
 C404 C 0.59888 0.88500 0.92198
 O405 O 0.64518 0.88247 0.89464
 H406 H 0.60512 0.77242 0.90840
 H407 H 0.53776 0.83363 0.95176
   
