data_POSCAR
  _audit_creation_date              2014-09-24
  _audit_creation_method            'ToBaCCo'
  _symmetry_space_group_name_H-M    'P1'
  _symmetry_Int_Tables_number       1
  _symmetry_cell_setting            triclinic
  loop_
  _symmetry_equiv_pos_as_xyz
 x,y,z
_cell_length_a 42.2047
_cell_length_b 38.8850
_cell_length_c 36.3306
_cell_angle_alpha 94.867000
_cell_angle_beta 93.075100
_cell_angle_gamma 92.757400
loop_
  _atom_site_label
  _atom_site_type_symbol
  _atom_site_fract_x
  _atom_site_fract_y
  _atom_site_fract_z
N1 N 0.19414 1.26332 0.18003
 N2 N 0.17081 1.26484 0.20260
 C3 C 0.15141 1.28955 0.19308
 C4 C 0.16320 1.30407 0.16271
 C5 C 0.19029 1.28681 0.15522
 H6 H 0.13000 1.29578 0.20665
 H7 H 0.20587 1.29087 0.13311
 Cu8 Cu 0.16736 1.23296 0.24080
 Cu9 Cu 0.22742 1.23052 0.18398
 Cu10 Cu 0.22172 1.17420 0.25282
 N11 N 0.16394 1.20110 0.27904
 N12 N 0.18558 1.17841 0.28381
 C13 C 0.17729 1.15879 0.31088
 C14 C 0.14872 1.16964 0.32357
 C15 C 0.14100 1.19656 0.30284
 H16 H 0.19063 1.13760 0.31966
 H17 H 0.11984 1.21111 0.30447
 N18 N 0.25645 1.17403 0.21864
 N19 N 0.25868 1.19554 0.19254
 C20 C 0.28421 1.18826 0.17314
 C21 C 0.29861 1.16080 0.18769
 C22 C 0.28042 1.15242 0.21639
 H23 H 0.29122 1.20133 0.14955
 H24 H 0.28412 1.13159 0.23380
 H25 H 0.20026 1.19301 0.20673
 H26 H 0.22416 1.22486 0.23965
 N27 N 0.79741 0.76077 0.11417
 N28 N 0.81313 0.75752 0.14582
 C29 C 0.83148 0.73025 0.14187
 C30 C 0.82728 0.71590 0.10560
 C31 C 0.80547 0.73586 0.08885
 H32 H 0.84740 0.72237 0.16354
 H33 H 0.79672 0.73288 0.06017
 Cu34 Cu 0.80987 0.79002 0.18928
 Cu35 Cu 0.76892 0.79810 0.10908
 Cu36 Cu 0.77832 0.86759 0.16982
 N37 N 0.81566 0.83251 0.22328
 N38 N 0.80488 0.86234 0.21484
 C39 C 0.81544 0.88719 0.24122
 C40 C 0.83384 0.87239 0.26752
 C41 C 0.83336 0.83755 0.25548
 H42 H 0.81073 0.91427 0.24087
 H43 H 0.84628 0.81772 0.26792
 N44 N 0.74279 0.86182 0.13296
 N45 N 0.73889 0.83453 0.10888
 C46 C 0.71335 0.83821 0.08596
 C47 C 0.70061 0.86942 0.09638
 C48 C 0.71996 0.88380 0.12626
 H49 H 0.70486 0.81984 0.06312
 H50 H 0.71812 0.90861 0.14164
 H51 H 0.80814 0.82772 0.15415
 H52 H 0.76983 0.81696 0.17499
 N53 N 0.79120 1.24879 -0.16690
 N54 N 0.81287 1.25293 -0.19104
 C55 C 0.83179 1.28114 -0.17960
 C56 C 0.82144 1.29514 -0.14633
 C57 C 0.79574 1.27398 -0.13911
 H58 H 0.85287 1.28917 -0.19296
 H59 H 0.78246 1.27570 -0.11442
 Cu60 Cu 0.81742 1.21808 -0.23168
 Cu61 Cu 0.76103 1.20904 -0.17104
 Cu62 Cu 0.77783 1.14049 -0.23268
 N63 N 0.83050 1.17769 -0.26086
 N64 N 0.81548 1.14726 -0.26083
 C65 C 0.83056 1.12385 -0.28205
 C66 C 0.85647 1.14070 -0.29590
 C67 C 0.85560 1.17477 -0.28196
 H68 H 0.82336 1.09669 -0.28658
 H69 H 0.87241 1.19576 -0.28623
 N70 N 0.74074 1.13948 -0.20170
 N71 N 0.73402 1.16615 -0.17903
 C72 C 0.70738 1.15821 -0.16217
 C73 C 0.69682 1.12485 -0.17466
 C74 C 0.71858 1.11365 -0.19956
 H75 H 0.69697 1.17516 -0.14156
 H76 H 0.71823 1.08853 -0.21487
 H77 H 0.79532 1.17741 -0.19182
 H78 H 0.76484 1.19096 -0.22639
 N79 N 0.19694 0.71922 -0.15630
 N80 N 0.17028 0.72507 -0.17460
 C81 C 0.14759 0.70135 -0.16728
 C82 C 0.16104 0.67957 -0.14324
 C83 C 0.19228 0.69158 -0.13706
 H84 H 0.12326 0.70019 -0.17844
 H85 H 0.21002 0.68156 -0.11884
 Cu86 Cu 0.16777 0.76311 -0.20618
 Cu87 Cu 0.23482 0.74972 -0.15522
 Cu88 Cu 0.23395 0.81278 -0.21604
 N89 N 0.17140 0.79203 -0.24729
 N90 N 0.19798 0.80978 -0.25198
 C91 C 0.19421 0.82723 -0.28214
 C92 C 0.16352 0.82057 -0.29693
 C93 C 0.14956 0.79797 -0.27422
 H94 H 0.21209 0.84464 -0.29180
 H95 H 0.12548 0.78687 -0.27681
 N96 N 0.27061 0.80746 -0.18162
 N97 N 0.27063 0.78356 -0.15794
 C98 C 0.29633 0.78947 -0.13426
 C99 C 0.31341 0.81825 -0.14366
 C100 C 0.29656 0.82899 -0.17394
 H101 H 0.30111 0.77548 -0.11026
 H102 H 0.30130 0.85244 -0.18715
 H103 H 0.21351 0.79303 -0.17072
 H104 H 0.22503 0.76153 -0.20899
 C105 C 0.47258 1.06006 0.02638
 C106 C 0.49860 1.04308 0.04801
 C107 C 0.51632 1.02013 0.02581
 C108 C 0.50563 1.01794 -0.01562
 C109 C 0.48962 1.07778 -0.00335
 C110 C 0.50787 1.05562 -0.02564
 C111 C 0.45245 1.03039 0.00557
 C112 C 0.47000 1.00762 -0.01708
 H113 H 0.50311 1.04804 0.07767
 H114 H 0.51861 0.99997 -0.03366
 H115 H 0.48966 1.10541 -0.00555
 H116 H 0.42684 1.02852 0.00644
 C117 C 0.02121 0.48041 1.04839
 C118 C 0.03996 0.50045 1.02169
 C119 C 0.02061 0.51818 0.99704
 C120 C -0.01502 0.51323 1.00289
 C121 C 0.00132 0.50708 1.06814
 C122 C -0.01835 0.52479 1.04408
 C123 C -0.00258 0.45661 1.02422
 C124 C -0.02218 0.47401 0.99964
 H125 H 0.06562 0.50217 1.02334
 H126 H -0.03001 0.52656 0.98318
 H127 H 0.00203 0.51204 1.09799
 H128 H -0.00286 0.42881 1.02461
 C129 C 1.04137 0.00478 0.49139
 C130 C 1.02230 0.02292 0.52100
 C131 C 0.99953 0.00063 0.53601
 C132 C 0.99974 -0.03704 0.51940
 C133 C 1.05640 -0.02461 0.50990
 C134 C 1.03423 -0.04723 0.52528
 C135 C 1.01685 -0.01272 0.46274
 C136 C 0.99420 -0.03513 0.47755
 H137 H 1.02559 0.05039 0.52850
 H138 H 0.98217 -0.05468 0.53114
 H139 H 1.08189 -0.02589 0.51332
 H140 H 1.01807 -0.00946 0.43357
 C141 C 0.15054 0.32960 1.14242
 C142 C 0.12353 0.34676 1.15224
 C143 C 0.10909 0.37173 1.12908
 N144 N 0.08505 0.39049 1.14179
 N145 N 0.07100 0.41240 1.12071
 C146 C 0.08038 0.41623 1.08605
 N147 N 0.10442 0.39745 1.07332
 N148 N 0.11858 0.37566 1.09446
 C149 C 0.06417 0.43916 1.06187
 C150 C 0.04121 0.46118 1.07453
 H151 H 0.11237 0.34192 1.17756
 H152 H 0.06979 0.43801 1.03306
 H153 H 0.16233 0.33616 1.11799
 H154 H 0.03524 0.46182 1.10321
 C155 C -0.15613 0.68729 1.08727
 C156 C -0.13437 0.66862 1.10653
 C157 C -0.11566 0.64194 1.08818
 N158 N -0.09500 0.62480 1.10881
 N159 N -0.07720 0.60114 1.09280
 C160 C -0.07931 0.59373 1.05551
 N161 N -0.10005 0.61083 1.03483
 N162 N -0.11791 0.63453 1.05086
 C163 C -0.05935 0.56786 1.03761
 C164 C -0.03827 0.54966 1.05857
 H165 H -0.13029 0.67405 1.13615
 H166 H -0.06170 0.56341 1.00783
 H167 H -0.16070 0.68137 1.05773
 H168 H -0.03729 0.55487 1.08840
 C169 C -0.16251 0.32211 0.87989
 C170 C -0.13920 0.34549 0.86974
 C171 C -0.11931 0.36734 0.89788
 N172 N -0.10208 0.39535 0.88849
 N173 N -0.08274 0.41403 0.91366
 C174 C -0.07972 0.40507 0.94898
 N175 N -0.09684 0.37702 0.95824
 N176 N -0.11639 0.35862 0.93325
 C177 C -0.05682 0.42340 0.97652
 C178 C -0.04553 0.45750 0.97443
 H179 H -0.13484 0.34712 0.84082
 H180 H -0.04999 0.40967 1.00013
 H181 H -0.16861 0.32278 0.90852
 H182 H -0.05618 0.47229 0.95350
 C183 C 0.14638 0.65062 0.87446
 C184 C 0.11368 0.64349 0.87423
 C185 C 0.10043 0.61665 0.89625
 N186 N 0.06860 0.61276 0.89966
 N187 N 0.05673 0.58949 0.92090
 C188 C 0.07631 0.56924 0.93942
 N189 N 0.10804 0.57296 0.93572
 N190 N 0.11987 0.59619 0.91459
 C191 C 0.06424 0.54436 0.96433
 C192 C 0.03206 0.53966 0.97098
 H193 H 0.09752 0.65896 0.85941
 H194 H 0.08186 0.52997 0.97815
 H195 H 0.16223 0.63560 0.89030
 H196 H 0.01495 0.55349 0.95549
 C197 C 1.13010 0.15576 0.34987
 C198 C 1.13921 0.12805 0.36933
 C199 C 1.11794 0.11102 0.39379
 N200 N 1.12809 0.08402 0.41171
 N201 N 1.10871 0.06715 0.43257
 C202 C 1.07842 0.07665 0.43627
 N203 N 1.06831 0.10381 0.41855
 N204 N 1.08772 0.12071 0.39770
 C205 C 1.05626 0.05703 0.45755
 C206 C 1.06526 0.02807 0.47486
 H207 H 1.16224 0.11754 0.36587
 H208 H 1.03184 0.06439 0.45809
 H209 H 1.10738 0.16667 0.35460
 H210 H 1.08955 0.02037 0.47372
 C211 C 1.15043 -0.16436 0.67269
 C212 C 1.11828 -0.16768 0.66094
 C213 C 1.10603 -0.14816 0.63063
 N214 N 1.07445 -0.14345 0.62566
 N215 N 1.06368 -0.12390 0.59970
 C216 C 1.08416 -0.10861 0.57764
 N217 N 1.11558 -0.11386 0.58224
 N218 N 1.12632 -0.13319 0.60821
 C219 C 1.07371 -0.08491 0.55053
 C220 C 1.04258 -0.07443 0.54635
 H221 H 1.10157 -0.18258 0.67564
 H222 H 1.09213 -0.07438 0.53458
 H223 H 1.16621 -0.14769 0.65866
 H224 H 1.02411 -0.08731 0.56051
 C225 C 0.85115 -0.10952 0.29740
 C226 C 0.86970 -0.12520 0.32351
 C227 C 0.89177 -0.10435 0.35031
 N228 N 0.90505 -0.11838 0.38009
 N229 N 0.92625 -0.09990 0.40330
 C230 C 0.93508 -0.06687 0.39728
 N231 N 0.92187 -0.05298 0.36749
 N232 N 0.90053 -0.07129 0.34457
 C233 C 0.96001 -0.04662 0.42058
 C234 C 0.96921 -0.05379 0.45654
 H235 H 0.86878 -0.15304 0.32383
 H236 H 0.97025 -0.02417 0.40907
 H237 H 0.85061 -0.08158 0.29970
 H238 H 0.95564 -0.07341 0.46934
 C239 C 0.87956 0.12743 0.68162
 C240 C 0.88015 0.09262 0.66862
 C241 C 0.90535 0.08006 0.64517
 N242 N 0.90518 0.04623 0.63227
 N243 N 0.92779 0.03482 0.61077
 C244 C 0.95142 0.05687 0.60147
 N245 N 0.95160 0.09062 0.61446
 N246 N 0.92904 0.10199 0.63590
 C247 C 0.97625 0.04540 0.57702
 C248 C 0.97759 0.01128 0.56178
 H249 H 0.86193 0.07412 0.67558
 H250 H 0.99346 0.06514 0.57064
 H251 H 0.89807 0.14542 0.67421
 H252 H 0.96045 -0.00798 0.56966
 C253 C 0.32590 1.14217 0.17438
 C254 C 0.34389 1.15337 0.14621
 C255 C 0.36906 1.13300 0.13023
 N256 N 0.38582 1.14533 0.10291
 N257 N 0.40775 1.12662 0.08695
 C258 C 0.41373 1.09484 0.09770
 N259 N 0.39711 1.08258 0.12520
 N260 N 0.37518 1.10132 0.14120
 C261 C 0.43664 1.07314 0.07890
 C262 C 0.45337 1.08422 0.04964
 H263 H 0.33896 1.17745 0.13468
 H264 H 0.43925 1.04717 0.08692
 H265 H 0.33150 1.11862 0.18667
 H266 H 0.45036 1.11002 0.04130
 C267 C 0.66935 1.10475 -0.16259
 C268 C 0.64597 1.12083 -0.14277
 C269 C 0.62012 1.10185 -0.12630
 N270 N 0.59790 1.11987 -0.10856
 N271 N 0.57521 1.10361 -0.09155
 C272 C 0.57387 1.06865 -0.09153
 N273 N 0.59599 1.05054 -0.10951
 N274 N 0.61872 1.06683 -0.12663
 C275 C 0.55001 1.05079 -0.07065
 C276 C 0.52799 1.06935 -0.05076
 H277 H 0.64684 1.14874 -0.13828
 H278 H 0.55140 1.02324 -0.06955
 H279 H 0.66771 1.07701 -0.16913
 H280 H 0.52746 1.09688 -0.05338
 C281 C 0.33913 0.83745 -0.12052
 C282 C 0.35777 0.86407 -0.13310
 C283 C 0.37747 0.88834 -0.10710
 N284 N 0.40112 0.90857 -0.11935
 N285 N 0.41750 0.93228 -0.09620
 C286 C 0.41048 0.93684 -0.06010
 N287 N 0.38680 0.91671 -0.04796
 N288 N 0.37073 0.89277 -0.07095
 C289 C 0.42600 0.96486 -0.03488
 C290 C 0.45646 0.97894 -0.03942
 H291 H 0.35683 0.86814 -0.16225
 H292 H 0.41321 0.97343 -0.01106
 H293 H 0.34237 0.83154 -0.09199
 H294 H 0.47072 0.96633 -0.05995
 C295 C 0.67317 0.88434 0.07804
 C296 C 0.65979 0.91398 0.09331
 C297 C 0.63319 0.93001 0.07476
 N298 N 0.61925 0.95672 0.09280
 N299 N 0.59540 0.97195 0.07637
 C300 C 0.58467 0.96114 0.04118
 N301 N 0.59870 0.93450 0.02306
 N302 N 0.62249 0.91916 0.03955
 C303 C 0.55855 0.97805 0.02258
 C304 C 0.54100 1.00253 0.04179
 H305 H 0.66885 0.92587 0.12005
 H306 H 0.55309 0.97023 -0.00637
 H307 H 0.66319 0.87148 0.05210
 H308 H 0.54649 1.00810 0.07124
   
