data_POSCAR
  _audit_creation_date              2014-09-24
  _audit_creation_method            'ToBaCCo'
  _symmetry_space_group_name_H-M    'P1'
  _symmetry_Int_Tables_number       1
  _symmetry_cell_setting            triclinic
  loop_
  _symmetry_equiv_pos_as_xyz
 x,y,z
_cell_length_a 26.7395
_cell_length_b 27.0682
_cell_length_c 27.1074
_cell_angle_alpha 90.072900
_cell_angle_beta 90.142000
_cell_angle_gamma 89.951000
loop_
  _atom_site_label
  _atom_site_type_symbol
  _atom_site_fract_x
  _atom_site_fract_y
  _atom_site_fract_z
N1 N 0.54059 0.10973 0.01364
 N2 N 0.58021 0.13265 0.03100
 N3 N 0.43799 0.09579 -0.03717
 N4 N 0.39912 0.11871 -0.05713
 N5 N 0.43626 0.09888 0.01118
 N6 N 0.39608 0.12306 0.02544
 N7 N 0.54335 0.10530 -0.03463
 N8 N 0.58534 0.12540 -0.05104
 C9 C 0.60754 0.14280 -0.00945
 C10 C 0.37326 0.13522 -0.01737
 N11 N 0.45312 -0.03554 -0.09879
 N12 N 0.41719 -0.05982 -0.12146
 N13 N 0.55247 0.02308 -0.10252
 N14 N 0.59065 0.04116 -0.12759
 N15 N 0.55759 -0.02484 -0.09652
 N16 N 0.59952 -0.04046 -0.11665
 N17 N 0.44754 0.01239 -0.10453
 N18 N 0.40747 0.02178 -0.13178
 Mn19 Mn 0.49523 0.05969 -0.07041
 C20 C 0.38901 -0.02387 -0.14199
 C21 C 0.61963 0.00097 -0.13613
 N22 N 0.44147 0.03219 0.09367
 N23 N 0.39913 0.04639 0.11466
 N24 N 0.55191 -0.00499 0.09936
 N25 N 0.59429 -0.01636 0.12142
 N26 N 0.54657 0.04309 0.09616
 N27 N 0.58513 0.06581 0.11690
 N28 N 0.44715 -0.01577 0.09750
 N29 N 0.40886 -0.03566 0.12046
 Mn30 Mn 0.49104 0.07152 0.05394
 C31 C 0.37939 0.00337 0.13123
 C32 C 0.61430 0.02802 0.13276
 N33 N 0.56329 -0.09243 -0.01487
 N34 N 0.60035 -0.12700 -0.02660
 N35 N 0.45706 -0.09676 0.03098
 N36 N 0.41754 -0.11812 0.05021
 N37 N 0.45833 -0.10320 -0.01692
 N38 N 0.41706 -0.13148 -0.03165
 N39 N 0.56147 -0.08662 0.03310
 N40 N 0.59508 -0.11444 0.05519
 Mn41 Mn 0.50810 -0.06433 -0.05730
 Mn42 Mn 0.50448 -0.05115 0.06552
 Cl43 Cl 0.49969 0.00397 -0.00214
 C44 C 0.61907 -0.13884 0.01854
 C45 C 0.39326 -0.13954 0.01191
 N46 N 0.11018 0.46796 0.01374
 N47 N 0.13422 0.42800 0.02801
 N48 N 0.08931 0.57297 -0.02687
 N49 N 0.11160 0.61428 -0.04114
 N50 N 0.08991 0.56950 0.02141
 N51 N 0.11179 0.60812 0.04131
 N52 N 0.10811 0.47017 -0.03467
 N53 N 0.13122 0.43152 -0.05430
 C54 C 0.14799 0.40603 -0.01453
 C55 C 0.12488 0.63598 0.00217
 N56 N -0.03855 0.55478 -0.09701
 N57 N -0.06412 0.58859 -0.12128
 N58 N 0.02889 0.46207 -0.10685
 N59 N 0.05263 0.42783 -0.13218
 N60 N -0.01937 0.45277 -0.10564
 N61 N -0.02958 0.41191 -0.13055
 N62 N 0.00969 0.56384 -0.09947
 N63 N 0.01810 0.60389 -0.12609
 Mn64 Mn 0.05948 0.51748 -0.06754
 C65 C -0.02844 0.61909 -0.13910
 C66 C 0.01585 0.39700 -0.14705
 N67 N 0.01949 0.55041 0.09895
 N68 N 0.02901 0.59116 0.12437
 N69 N -0.00750 0.43854 0.09237
 N70 N -0.01585 0.39839 0.11868
 N71 N 0.04039 0.44854 0.09089
 N72 N 0.06615 0.41518 0.11566
 N73 N -0.02838 0.53998 0.10034
 N74 N -0.05279 0.57335 0.12620
 Mn75 Mn 0.06542 0.50934 0.05646
 C76 C -0.01665 0.60487 0.14129
 C77 C 0.03059 0.38400 0.13260
 N78 N -0.09120 0.43338 -0.02786
 N79 N -0.11866 0.39307 -0.04560
 N80 N -0.10646 0.53004 0.02891
 N81 N -0.13477 0.56244 0.05171
 N82 N -0.10952 0.53571 -0.01907
 N83 N -0.14020 0.57267 -0.03006
 N84 N -0.08498 0.42890 0.01992
 N85 N -0.10455 0.38745 0.03610
 Mn86 Mn -0.06519 0.49417 -0.06301
 Mn87 Mn -0.05711 0.48411 0.06058
 Cl88 Cl 0.00064 0.50134 -0.00347
 C89 C -0.12510 0.36558 -0.00409
 C90 C -0.15593 0.58868 0.01486
 N91 N 0.04175 0.09519 0.45045
 N92 N 0.06600 0.11679 0.41425
 N93 N -0.00961 0.10113 0.55253
 N94 N -0.02122 0.13059 0.58973
 N95 N 0.03820 0.08998 0.55369
 N96 N 0.06028 0.11127 0.59164
 N97 N -0.00612 0.10603 0.44865
 N98 N -0.01558 0.13555 0.41087
 C99 C 0.03000 0.14192 0.38984
 C100 C 0.02284 0.13633 0.61397
 N101 N -0.10904 -0.00479 0.54345
 N102 N -0.13274 -0.02081 0.58272
 N103 N -0.09704 0.04826 0.44268
 N104 N -0.11520 0.07100 0.40327
 N105 N -0.10566 0.00059 0.44001
 N106 N -0.12916 -0.01055 0.39876
 N107 N -0.10010 0.04282 0.54693
 N108 N -0.11804 0.06044 0.58896
 Mn109 Mn -0.05372 0.07525 0.49770
 C110 C -0.13877 0.02012 0.61044
 C111 C -0.13543 0.03361 0.37652
 N112 N 0.09716 0.00115 0.55097
 N113 N 0.12639 0.01064 0.58908
 N114 N 0.09002 -0.04087 0.44417
 N115 N 0.10971 -0.05985 0.40377
 N116 N 0.10051 0.00641 0.44757
 N117 N 0.12805 0.02072 0.40988
 N118 N 0.08732 -0.04626 0.54811
 N119 N 0.10937 -0.07032 0.58449
 Mn120 Mn 0.06982 0.04849 0.50077
 C121 C 0.13358 -0.03429 0.60979
 C122 C 0.13365 -0.02104 0.38297
 N123 N -0.04731 -0.08782 0.43735
 N124 N -0.07051 -0.11118 0.39783
 N125 N -0.00272 -0.10418 0.54234
 N126 N 0.00748 -0.13343 0.58009
 N127 N -0.05059 -0.09356 0.54099
 N128 N -0.07424 -0.11521 0.57767
 N129 N 0.00023 -0.09955 0.43848
 N130 N 0.01132 -0.13033 0.40208
 Mn131 Mn -0.07858 -0.04657 0.49041
 Mn132 Mn 0.04417 -0.07324 0.49325
 Cl133 Cl -0.00459 0.00100 0.49556
 C134 C -0.03247 -0.13701 0.37721
 C135 C -0.03768 -0.14006 0.60175
 C136 C 0.72479 0.21749 -0.03264
 C137 C 0.74930 0.20896 0.01123
 C138 C 0.73139 0.17729 0.04725
 C139 C 0.68562 0.15414 0.03839
 C140 C 0.65853 0.16306 -0.00579
 C141 C 0.67900 0.19417 -0.04258
 O142 O 0.74627 0.25284 -0.05935
 C143 C 0.78467 0.26710 -0.03135
 C144 C 0.78773 0.24133 0.01221
 C145 C 0.82039 0.25376 0.04997
 C146 C 0.85056 0.29526 0.04329
 C147 C 0.84860 0.32322 -0.00120
 C148 C 0.81624 0.30753 -0.03991
 H149 H 0.75102 0.17202 0.08182
 H150 H 0.67057 0.13026 0.06674
 H151 H 0.65844 0.20251 -0.07600
 H152 H 0.82098 0.23358 0.08442
 H153 H 0.87503 0.30575 0.07345
 H154 H 0.81248 0.32846 -0.07375
 C155 C 0.28149 0.78516 -0.01296
 C156 C 0.25955 0.78769 0.03276
 C157 C 0.28075 0.81229 0.07240
 C158 C 0.32651 0.83570 0.06480
 C159 C 0.34967 0.83608 0.01747
 C160 C 0.32630 0.81040 -0.02221
 O161 O 0.25776 0.75439 -0.04344
 C162 C 0.22013 0.73745 -0.01614
 C163 C 0.21945 0.75751 0.03049
 C164 C 0.18588 0.74325 0.06664
 C165 C 0.15249 0.70540 0.05500
 C166 C 0.15362 0.68204 0.00813
 C167 C 0.18689 0.69933 -0.02867
 H168 H 0.26356 0.81199 0.10851
 H169 H 0.34371 0.85348 0.09634
 H170 H 0.34328 0.80835 -0.05840
 H171 H 0.18660 0.75943 0.10318
 H172 H 0.12717 0.69275 0.08344
 H173 H 0.18935 0.68137 -0.06429
 C174 C 0.27779 0.23452 -0.04408
 C175 C 0.24325 0.22371 -0.00813
 C176 C 0.24738 0.18305 0.02283
 C177 C 0.28944 0.15274 0.01736
 C178 C 0.32605 0.16319 -0.01884
 C179 C 0.31961 0.20400 -0.05091
 O180 O 0.26931 0.27781 -0.06585
 C181 C 0.22876 0.29468 -0.04292
 C182 C 0.21149 0.26274 -0.00735
 C183 C 0.17276 0.27454 0.02459
 C184 C 0.15130 0.32148 0.02028
 C185 C 0.16847 0.35548 -0.01564
 C186 C 0.20705 0.34156 -0.04855
 H187 H 0.22031 0.17611 0.05162
 H188 H 0.29439 0.12195 0.04241
 H189 H 0.34802 0.21372 -0.07758
 H190 H 0.16068 0.24919 0.05300
 H191 H 0.12182 0.33175 0.04567
 H192 H 0.22168 0.36738 -0.07535
 C193 C 0.71042 0.76104 0.00085
 C194 C 0.72265 0.75253 0.04933
 C195 C 0.70359 0.77993 0.08815
 C196 C 0.66960 0.81743 0.07689
 C197 C 0.65468 0.82691 0.02726
 C198 C 0.67640 0.79854 -0.01149
 O199 O 0.73242 0.72938 -0.02996
 C200 C 0.75876 0.70027 0.00004
 C201 C 0.75362 0.71312 0.04886
 C202 C 0.77555 0.68703 0.08712
 C203 C 0.80437 0.64589 0.07477
 C204 C 0.81162 0.63185 0.02477
 C205 C 0.78832 0.65951 -0.01336
 H206 H 0.71401 0.77225 0.12599
 H207 H 0.65438 0.83841 0.10744
 H208 H 0.66617 0.80430 -0.04974
 H209 H 0.77016 0.69760 0.12527
 H210 H 0.82098 0.62493 0.10455
 H211 H 0.79270 0.64944 -0.05177
 C212 C -0.00530 0.71380 0.22850
 C213 C -0.05347 0.73152 0.22614
 C214 C -0.09009 0.71081 0.19625
 C215 C -0.07677 0.66966 0.16793
 C216 C -0.02755 0.65016 0.16965
 C217 C 0.00906 0.67307 0.19985
 O218 O 0.02260 0.73741 0.26172
 C219 C -0.00882 0.77052 0.28066
 C220 C -0.05570 0.76832 0.25991
 C221 C -0.09524 0.79752 0.27548
 C222 C -0.08651 0.83011 0.31463
 C223 C -0.03866 0.83313 0.33777
 C224 C 0.00106 0.80322 0.31958
 H225 H -0.12789 0.72515 0.19553
 H226 H -0.10501 0.65270 0.14490
 H227 H 0.04670 0.65849 0.20242
 H228 H -0.13190 0.79464 0.25870
 H229 H -0.11765 0.85247 0.32711
 H230 H 0.03794 0.80390 0.33619
 C231 C 0.00168 0.28878 0.76588
 C232 C 0.04883 0.26863 0.76931
 C233 C 0.08579 0.28766 0.79997
 C234 C 0.07390 0.32956 0.82794
 C235 C 0.02565 0.35126 0.82510
 C236 C -0.01128 0.33010 0.79416
 O237 O -0.02669 0.26674 0.73207
 C238 C 0.00328 0.23205 0.71383
 C239 C 0.04979 0.23164 0.73560
 C240 C 0.08790 0.20008 0.72080
 C241 C 0.07792 0.16792 0.68149
 C242 C 0.03056 0.16799 0.65771
 C243 C -0.00757 0.20013 0.67465
 H244 H 0.12280 0.27150 0.80149
 H245 H 0.10247 0.34532 0.85158
 H246 H -0.04809 0.34645 0.79069
 H247 H 0.12433 0.20085 0.73827
 H248 H 0.10749 0.14358 0.66906
 H249 H -0.04384 0.20147 0.65687
 C250 C 0.01571 0.28295 0.22690
 C251 C 0.06385 0.26514 0.22892
 C252 C 0.10218 0.28342 0.19958
 C253 C 0.09053 0.32211 0.16717
 C254 C 0.04123 0.34130 0.16453
 C255 C 0.00313 0.32089 0.19436
 O256 O -0.01438 0.26230 0.25989
 C257 C 0.01547 0.23081 0.28328
 C258 C 0.06365 0.23108 0.26554
 C259 C 0.10162 0.20250 0.28573
 C260 C 0.08960 0.17265 0.32616
 C261 C 0.04036 0.17206 0.34572
 C262 C 0.00260 0.20126 0.32354
 H263 H 0.13990 0.26913 0.20229
 H264 H 0.12000 0.33744 0.14455
 H265 H -0.03463 0.33537 0.19367
 H266 H 0.13932 0.20365 0.27134
 H267 H 0.11897 0.15047 0.34255
 H268 H -0.03516 0.20190 0.33785
 C269 C -0.01681 0.71965 0.76499
 C270 C -0.06489 0.73780 0.76502
 C271 C -0.10181 0.72010 0.79633
 C272 C -0.08887 0.68166 0.82857
 C273 C -0.03966 0.66199 0.82916
 C274 C -0.00289 0.68183 0.79734
 O275 O 0.01173 0.73989 0.73041
 C276 C -0.01906 0.77140 0.70815
 C277 C -0.06631 0.77158 0.72809
 C278 C -0.10504 0.80030 0.70939
 C279 C -0.09481 0.82982 0.66817
 C280 C -0.04655 0.83000 0.64642
 C281 C -0.00798 0.80067 0.66714
 H282 H -0.13953 0.73462 0.79526
 H283 H -0.11738 0.66684 0.85268
 H284 H 0.03471 0.66699 0.79640
 H285 H -0.14201 0.79953 0.72554
 H286 H -0.12471 0.85213 0.65294
 H287 H 0.02910 0.79974 0.65119
 C288 C 0.28269 -0.01260 0.76647
 C289 C 0.26376 -0.05984 0.76842
 C290 C 0.28262 -0.09580 0.79983
 C291 C 0.32312 -0.08282 0.83003
 C292 C 0.34392 -0.03456 0.82838
 C293 C 0.32282 0.00131 0.79661
 O294 O 0.26077 0.01509 0.73226
 C295 C 0.22750 -0.01540 0.71219
 C296 C 0.22784 -0.06167 0.73304
 C297 C 0.19775 -0.10006 0.71617
 C298 C 0.16617 -0.09045 0.67589
 C299 C 0.16528 -0.04311 0.65351
 C300 C 0.19609 -0.00493 0.67238
 H301 H 0.26737 -0.13282 0.80039
 H302 H 0.33870 -0.11069 0.85424
 H303 H 0.33831 0.03816 0.79406
 H304 H 0.19912 -0.13632 0.73290
 H305 H 0.14283 -0.12000 0.66188
 H306 H 0.19668 0.03141 0.65573
 C307 C 0.71904 0.06193 0.21973
 C308 C 0.75544 0.02990 0.20333
 C309 C 0.74895 -0.00070 0.16263
 C310 C 0.70272 0.00098 0.13834
 C311 C 0.66436 0.03316 0.15469
 C312 C 0.67299 0.06508 0.19518
 O313 O 0.73052 0.08296 0.26265
 C314 C 0.77490 0.06358 0.27364
 C315 C 0.79174 0.03100 0.23832
 C316 C 0.83406 0.00185 0.24470
 C317 C 0.85949 0.00549 0.28976
 C318 C 0.84265 0.03819 0.32703
 C319 C 0.80051 0.06865 0.31849
 H320 H 0.77758 -0.02662 0.15137
 H321 H 0.69616 -0.02392 0.10767
 H322 H 0.64354 0.08856 0.20939
 H323 H 0.84562 -0.02461 0.21701
 H324 H 0.89119 -0.01856 0.29650
 H325 H 0.78577 0.09221 0.34732
 C326 C 0.27465 0.01603 0.22291
 C327 C 0.24763 -0.02579 0.21154
 C328 C 0.25925 -0.05634 0.17201
 C329 C 0.30131 -0.04413 0.14393
 C330 C 0.33081 -0.00230 0.15580
 C331 C 0.31650 0.02916 0.19494
 O332 O 0.25941 0.03778 0.26417
 C333 C 0.22230 0.00889 0.27922
 C334 C 0.21372 -0.03056 0.24834
 C335 C 0.17943 -0.06763 0.25901
 C336 C 0.15290 -0.06395 0.30344
 C337 C 0.16089 -0.02355 0.33585
 C338 C 0.19571 0.01369 0.32321
 H339 H 0.23778 -0.08931 0.16409
 H340 H 0.31183 -0.06795 0.11365
 H341 H 0.33920 0.06058 0.20547
 H342 H 0.17411 -0.09883 0.23455
 H343 H 0.12636 -0.09267 0.31267
 H344 H 0.20321 0.04447 0.34768
 C345 C 0.72223 0.03383 0.77429
 C346 C 0.75519 -0.00417 0.78333
 C347 C 0.74693 -0.04004 0.81900
 C348 C 0.70259 -0.03701 0.84622
 C349 C 0.66774 0.00154 0.83753
 C350 C 0.67817 0.03807 0.80167
 O351 O 0.73477 0.06086 0.73531
 C352 C 0.77640 0.03929 0.71933
 C353 C 0.79044 -0.00058 0.74769
 C354 C 0.82965 -0.03180 0.73513
 C355 C 0.85466 -0.02235 0.69088
 C356 C 0.84043 0.01786 0.66045
 C357 C 0.80163 0.05002 0.67543
 H358 H 0.77290 -0.07024 0.82456
 H359 H 0.69500 -0.06522 0.87348
 H360 H 0.65157 0.06711 0.79344
 H361 H 0.83912 -0.06365 0.75739
 H362 H 0.88393 -0.04749 0.67926
 H363 H 0.78891 0.07972 0.65180
   
