data_POSCAR
  _audit_creation_date              2014-09-24
  _audit_creation_method            'ToBaCCo'
  _symmetry_space_group_name_H-M    'P1'
  _symmetry_Int_Tables_number       1
  _symmetry_cell_setting            triclinic
  loop_
  _symmetry_equiv_pos_as_xyz
 x,y,z
_cell_length_a 56.7663
_cell_length_b 56.8089
_cell_length_c 56.8131
_cell_angle_alpha 90.144600
_cell_angle_beta 90.458200
_cell_angle_gamma 90.326400
loop_
  _atom_site_label
  _atom_site_type_symbol
  _atom_site_fract_x
  _atom_site_fract_y
  _atom_site_fract_z
N1 N 0.18443 0.18892 0.18688
 N2 N 0.68408 0.68888 0.68694
 N3 N 0.31896 0.82221 0.68612
 N4 N 0.77050 0.27375 0.22746
 N5 N 0.81488 0.69031 0.32424
 N6 N 0.31551 0.19263 -0.17572
 N7 N 0.73590 0.26662 -0.24224
 N8 N 0.23548 0.76800 0.25794
 N9 N 0.43383 0.43591 0.43860
 N10 N -0.06317 -0.06477 0.93801
 N11 N 1.01131 0.51684 0.97936
 N12 N 0.51315 0.01640 0.48068
 N13 N -0.01995 0.02874 0.52710
 N14 N 0.43583 0.57359 0.07204
 N15 N 0.57120 -0.05517 0.06298
 N16 N 1.02291 0.49217 0.51233
 C17 C 0.41353 0.01613 0.21396
 H18 H 0.41333 0.03208 0.22439
 C19 C 0.43051 0.01322 0.19651
 H20 H 0.44338 0.02699 0.19340
 C21 C 0.39759 -0.02172 0.20576
 H22 H 0.38516 -0.03556 0.20975
 C23 C 0.41423 -0.02533 0.18818
 H24 H 0.41436 -0.04182 0.17855
 N25 N 0.39745 -0.00119 0.21817
 C26 C 0.33840 0.03246 0.25352
 H27 H 0.33719 0.02144 0.26897
 C28 C 0.32199 0.05031 0.24982
 H29 H 0.30811 0.05313 0.26248
 C30 C 0.35752 0.04180 0.21772
 H31 H 0.37108 0.03813 0.20504
 C32 C 0.34144 0.05984 0.21334
 H33 H 0.34278 0.07014 0.19738
 Zn34 Zn 0.37616 0.00298 0.24333
 N35 N 0.35578 0.02862 0.23762
 C36 C 0.39135 0.02733 0.28481
 N37 N 0.39437 0.00801 0.27095
 C38 C 0.41091 -0.00844 0.27624
 C39 C 0.42466 -0.00626 0.29661
 C40 C 0.40476 0.03020 0.30537
 C41 C 0.34191 -0.02974 0.22880
 C42 C 0.32769 -0.04983 0.23010
 C43 C 0.34406 -0.05767 0.26867
 C44 C 0.35799 -0.03744 0.26665
 N45 N 0.35699 -0.02419 0.24674
 H46 H 0.37850 0.04047 0.28006
 H47 H 0.41314 -0.02346 0.26473
 H48 H 0.43750 -0.01965 0.30089
 H49 H 0.40204 0.04542 0.31653
 H50 H 0.34121 -0.01868 0.21333
 H51 H 0.31603 -0.05436 0.21557
 H52 H 0.34520 -0.06832 0.28442
 H53 H 0.36961 -0.03246 0.28097
 C54 C 0.32349 0.06407 0.22951
 C55 C 0.43087 -0.00775 0.18357
 C56 C 0.32893 -0.06400 0.25015
 C57 C 0.42142 0.01314 0.31139
 C58 C 0.09280 -0.00659 0.72347
 H59 H 0.09189 -0.02289 0.73324
 C60 C 0.07809 -0.00319 0.70399
 H61 H 0.06584 -0.01693 0.69866
 C62 C 0.10996 0.03121 0.71840
 H63 H 0.12226 0.04464 0.72418
 C64 C 0.09555 0.03533 0.69878
 H65 H 0.09695 0.05183 0.68937
 N66 N 0.10860 0.01033 0.73004
 C67 C 0.16479 -0.02797 0.76564
 H68 H 0.16516 -0.01913 0.78253
 C69 C 0.18112 -0.04561 0.76079
 H70 H 0.19407 -0.05047 0.77399
 C71 C 0.14799 -0.03197 0.72746
 H72 H 0.13545 -0.02627 0.71432
 C73 C 0.16399 -0.04967 0.72190
 H74 H 0.16354 -0.05769 0.70458
 Zn75 Zn 0.12816 0.00363 0.75629
 N76 N 0.14858 -0.02160 0.74910
 C77 C 0.10942 -0.02575 0.79219
 N78 N 0.10814 -0.00432 0.78158
 C79 C 0.09149 0.01162 0.78779
 C80 C 0.07536 0.00635 0.80547
 C81 C 0.09362 -0.03173 0.80996
 C82 C 0.16388 0.03653 0.74812
 C83 C 0.17960 0.05485 0.75328
 C84 C 0.16141 0.05902 0.79136
 C85 C 0.14600 0.04061 0.78550
 N86 N 0.14744 0.02985 0.76412
 H87 H 0.12238 -0.03840 0.78663
 H88 H 0.09061 0.02835 0.77877
 H89 H 0.06205 0.01907 0.81019
 H90 H 0.09460 -0.04888 0.81819
 H91 H 0.16493 0.02738 0.73144
 H92 H 0.19275 0.05993 0.74051
 H93 H 0.16032 0.06736 0.80849
 H94 H 0.13323 0.03468 0.79820
 C95 C 0.18073 -0.05650 0.73868
 C96 C 0.07961 0.01788 0.69144
 C97 C 0.17840 0.06614 0.77513
 C98 C 0.07641 -0.01555 0.81660
 C99 C 0.58915 0.49459 0.22404
 H100 H 0.58794 0.47794 0.23316
 C101 C 0.57322 0.49980 0.20597
 H102 H 0.55973 0.48710 0.20105
 C103 C 0.60765 0.53188 0.21984
 H104 H 0.62072 0.54454 0.22564
 C105 C 0.59204 0.53779 0.20167
 H106 H 0.59329 0.55491 0.19340
 N107 N 0.60598 0.51053 0.23055
 C108 C 0.66027 0.46972 0.26647
 H109 H 0.66152 0.47950 0.28281
 C110 C 0.67460 0.45019 0.26286
 H111 H 0.68691 0.44481 0.27646
 C112 C 0.64264 0.46471 0.22877
 H113 H 0.63032 0.47055 0.21546
 C114 C 0.65667 0.44505 0.22444
 H115 H 0.65496 0.43565 0.20789
 Zn116 Zn 0.62543 0.50275 0.25658
 N117 N 0.64442 0.47636 0.24969
 C118 C 0.60541 0.47428 0.29244
 N119 N 0.60514 0.49582 0.28198
 C120 C 0.58927 0.51250 0.28836
 C121 C 0.57296 0.50787 0.30607
 C122 C 0.58941 0.46894 0.31023
 C123 C 0.66254 0.53412 0.24823
 C124 C 0.67884 0.55198 0.25325
 C125 C 0.66100 0.55680 0.29143
 C126 C 0.64501 0.53885 0.28570
 N127 N 0.64597 0.52803 0.26432
 H128 H 0.61768 0.46103 0.28675
 H129 H 0.58914 0.52930 0.27945
 H130 H 0.56027 0.52117 0.31091
 H131 H 0.58959 0.45169 0.31831
 H132 H 0.66315 0.52495 0.23153
 H133 H 0.69203 0.55666 0.24038
 H134 H 0.66023 0.56525 0.30853
 H135 H 0.63211 0.53339 0.29847
 C136 C 0.67266 0.43765 0.24172
 C137 C 0.57462 0.52164 0.19475
 C138 C 0.67807 0.56339 0.27507
 C139 C 0.57301 0.48586 0.31704
 C140 C 0.91152 0.51725 0.71103
 H141 H 0.91158 0.53265 0.72228
 C142 C 0.92653 0.51624 0.69169
 H143 H 0.93816 0.53093 0.68794
 C144 C 0.89621 0.47932 0.70201
 H145 H 0.88458 0.46486 0.70619
 C146 C 0.91094 0.47759 0.68253
 H147 H 0.91039 0.46192 0.67162
 N148 N 0.89642 0.49914 0.71554
 C149 C 0.83758 0.53080 0.75285
 H150 H 0.83698 0.51980 0.76836
 C151 C 0.82079 0.54841 0.74959
 H152 H 0.80724 0.55107 0.76264
 C153 C 0.85551 0.54039 0.71652
 H154 H 0.86870 0.53691 0.70341
 C155 C 0.83906 0.55816 0.71257
 H156 H 0.83982 0.56845 0.69656
 Zn157 Zn 0.87589 0.50216 0.74149
 N158 N 0.85460 0.52725 0.73650
 C159 C 0.89130 0.52667 0.78270
 N160 N 0.89465 0.50753 0.76868
 C161 C 0.91172 0.49152 0.77363
 C162 C 0.92563 0.49392 0.79389
 C163 C 0.90484 0.52974 0.80314
 C164 C 0.84211 0.46874 0.72753
 C165 C 0.82830 0.44839 0.72907
 C166 C 0.84604 0.44044 0.76701
 C167 C 0.85954 0.46093 0.76477
 N168 N 0.85763 0.47440 0.74507
 H169 H 0.87803 0.53947 0.77822
 H170 H 0.91421 0.47664 0.76201
 H171 H 0.93884 0.48083 0.79796
 H172 H 0.90179 0.54477 0.81446
 H173 H 0.84067 0.47997 0.71225
 H174 H 0.81623 0.44383 0.71489
 H175 H 0.84784 0.42966 0.78262
 H176 H 0.87148 0.46600 0.77880
 C177 C 0.82155 0.56218 0.72924
 C178 C 0.92606 0.49631 0.67721
 C179 C 0.83041 0.43405 0.74893
 C180 C 0.92199 0.51308 0.80888
 C181 C 0.21398 0.41755 0.01688
 H182 H 0.22397 0.41911 0.03311
 C183 C 0.19380 0.43109 0.01346
 H184 H 0.18815 0.44310 0.02711
 C185 C 0.20898 0.39984 -0.02071
 H186 H 0.21503 0.38777 -0.03404
 C187 C 0.18869 0.41307 -0.02484
 H188 H 0.17904 0.41098 -0.04125
 N189 N 0.22090 0.40199 0.00008
 C190 C 0.25892 0.34756 0.03837
 H191 H 0.27558 0.34787 0.02927
 C192 C 0.25490 0.33095 0.05600
 H193 H 0.26852 0.31845 0.06058
 C194 C 0.22042 0.36286 0.04297
 H195 H 0.20681 0.37490 0.03748
 C196 C 0.21569 0.34654 0.06068
 H197 H 0.19854 0.34624 0.06891
 Zn198 Zn 0.24786 0.38363 0.00676
 N199 N 0.24180 0.36314 0.03228
 C200 C 0.28404 0.40374 0.03543
 N201 N 0.27291 0.40458 0.01414
 C202 C 0.27859 0.42121 -0.00209
 C203 C 0.29636 0.43769 0.00269
 C204 C 0.30191 0.41990 0.04092
 C205 C 0.23972 0.34717 -0.02523
 C206 C 0.24478 0.33122 -0.04319
 C207 C 0.28233 0.35071 -0.04846
 C208 C 0.27656 0.36633 -0.03037
 N209 N 0.25550 0.36432 -0.01923
 H210 H 0.27891 0.39079 0.04831
 H211 H 0.26918 0.42171 -0.01872
 H212 H 0.30074 0.45090 -0.01029
 H213 H 0.31063 0.41920 0.05794
 H214 H 0.22331 0.34570 -0.01576
 H215 H 0.23221 0.31748 -0.04768
 H216 H 0.29922 0.35220 -0.05707
 H217 H 0.28911 0.37967 -0.02497
 C218 C 0.23304 0.33039 0.06716
 C219 C 0.18093 0.42866 -0.00750
 C220 C 0.26632 0.33295 -0.05483
 C221 C 0.30811 0.43702 0.02441
 C222 C 0.72626 0.09553 -0.01521
 H223 H 0.73642 0.09408 -0.03118
 C224 C 0.70800 0.07957 -0.01087
 H225 H 0.70397 0.06584 -0.02357
 C226 C 0.71964 0.11460 0.02132
 H227 H 0.72456 0.12786 0.03411
 C228 C 0.70125 0.09901 0.02634
 H229 H 0.69196 0.10049 0.04285
 N230 N 0.73166 0.11266 0.00077
 C231 C 0.76977 0.16649 -0.03862
 H232 H 0.78553 0.16812 -0.02789
 C233 C 0.76721 0.18016 -0.05887
 H234 H 0.78106 0.19233 -0.06383
 C235 C 0.73250 0.14852 -0.04541
 H236 H 0.71894 0.13632 -0.04003
 C237 C 0.72923 0.16186 -0.06579
 H238 H 0.71326 0.15972 -0.07616
 Zn239 Zn 0.75804 0.13218 -0.00541
 N240 N 0.75273 0.15075 -0.03254
 C241 C 0.79596 0.11191 -0.03071
 N242 N 0.78393 0.11187 -0.01007
 C243 C 0.78883 0.09595 0.00713
 C244 C 0.80651 0.07927 0.00396
 C245 C 0.81378 0.09553 -0.03459
 C246 C 0.74692 0.16920 0.02489
 C247 C 0.74931 0.18413 0.04433
 C248 C 0.78659 0.16575 0.05340
 C249 C 0.78350 0.15115 0.03377
 N250 N 0.76365 0.15279 0.02029
 H251 H 0.79142 0.12421 -0.04444
 H252 H 0.77866 0.09599 0.02316
 H253 H 0.81009 0.06647 0.01761
 H254 H 0.82304 0.09545 -0.05119
 H255 H 0.73145 0.17028 0.01371
 H256 H 0.73563 0.19674 0.04822
 H257 H 0.80217 0.16400 0.06438
 H258 H 0.79681 0.13834 0.02957
 C259 C 0.74684 0.17766 -0.07267
 C260 C 0.69546 0.08129 0.01014
 C261 C 0.76920 0.18219 0.05886
 C262 C 0.81900 0.07899 -0.01715
 C263 C 0.22350 0.59963 0.48496
 H264 H 0.23464 0.59725 0.46979
 C265 C 0.20335 0.58573 0.48759
 H266 H 0.19888 0.57263 0.47437
 C267 C 0.21567 0.61965 0.52074
 H268 H 0.22065 0.63272 0.53370
 C269 C 0.19533 0.60609 0.52404
 H270 H 0.18457 0.60892 0.53944
 N271 N 0.22906 0.61644 0.50122
 C272 C 0.27011 0.66802 0.46204
 H273 H 0.28600 0.66886 0.47265
 C274 C 0.26814 0.68168 0.44171
 H275 H 0.28258 0.69305 0.43656
 C276 C 0.23186 0.65209 0.45564
 H277 H 0.21766 0.64074 0.46121
 C278 C 0.22917 0.66546 0.43522
 H279 H 0.21302 0.66416 0.42501
 Zn280 Zn 0.25653 0.63451 0.49558
 N281 N 0.25228 0.65325 0.46834
 C282 C 0.29345 0.61241 0.47043
 N283 N 0.28146 0.61297 0.49108
 C284 C 0.28585 0.59706 0.50843
 C285 C 0.30304 0.57983 0.50542
 C286 C 0.31078 0.59549 0.46672
 C287 C 0.24744 0.67249 0.52555
 C288 C 0.25178 0.68876 0.54357
 C289 C 0.28855 0.66911 0.55194
 C290 C 0.28352 0.65320 0.53376
 N291 N 0.26315 0.65507 0.52110
 H292 H 0.28930 0.62472 0.45659
 H293 H 0.27573 0.59760 0.52448
 H294 H 0.30628 0.56710 0.51922
 H295 H 0.32006 0.59501 0.45014
 H296 H 0.23159 0.67382 0.51495
 H297 H 0.23922 0.70262 0.54695
 H298 H 0.30484 0.66759 0.56186
 H299 H 0.29606 0.63961 0.52961
 C300 C 0.24756 0.68021 0.42809
 C301 C 0.18907 0.58910 0.50722
 C302 C 0.27254 0.68704 0.55687
 C303 C 0.31555 0.57901 0.48433
 C304 C 0.71642 0.91742 0.51678
 H305 H 0.72684 0.91924 0.53272
 C306 C 0.69639 0.93123 0.51350
 H307 H 0.69129 0.94370 0.52696
 C308 C 0.71013 0.89877 0.47985
 H309 H 0.71561 0.88622 0.46671
 C310 C 0.68997 0.91224 0.47586
 H311 H 0.67986 0.90985 0.45977
 N312 N 0.72262 0.90126 0.50027
 C313 C 0.76025 0.84664 0.53875
 H314 H 0.77661 0.84623 0.52912
 C315 C 0.75621 0.83037 0.55670
 H316 H 0.76952 0.81745 0.56101
 C317 C 0.72246 0.86327 0.54427
 H318 H 0.70909 0.87566 0.53900
 C319 C 0.71771 0.84733 0.56232
 H320 H 0.70080 0.84768 0.57102
 Zn321 Zn 0.74928 0.88238 0.50671
 N322 N 0.74349 0.86268 0.53293
 C323 C 0.78793 0.90147 0.53295
 N324 N 0.77524 0.90271 0.51256
 C325 C 0.78067 0.91869 0.49562
 C326 C 0.80010 0.93365 0.49844
 C327 C 0.80751 0.91612 0.53648
 C328 C 0.73947 0.84524 0.47567
 C329 C 0.74381 0.82885 0.45787
 C330 C 0.78159 0.84747 0.45143
 C331 C 0.77655 0.86352 0.46935
 N332 N 0.75571 0.86219 0.48098
 H333 H 0.78306 0.88901 0.54641
 H334 H 0.77010 0.91949 0.47971
 H335 H 0.80458 0.94599 0.48465
 H336 H 0.81780 0.91475 0.55256
 H337 H 0.72326 0.84429 0.48551
 H338 H 0.73088 0.81529 0.45390
 H339 H 0.79832 0.84848 0.44242
 H340 H 0.78951 0.87667 0.47421
 C341 C 0.73468 0.83065 0.56848
 C342 C 0.68293 0.92844 0.49295
 C343 C 0.76511 0.82995 0.44572
 C344 C 0.81376 0.93220 0.51897
 C345 C 0.01327 0.22515 0.41348
 H346 H 0.02918 0.23572 0.41370
 C347 C 0.01097 0.20620 0.42894
 H348 H 0.02517 0.20207 0.44107
 C349 C -0.02465 0.21742 0.39731
 H350 H -0.03859 0.22195 0.38513
 C351 C -0.02767 0.19835 0.41246
 H352 H -0.04381 0.18809 0.41171
 N353 N -0.00421 0.23009 0.39775
 C354 C 0.03082 0.26446 0.33887
 H355 H 0.02069 0.28049 0.33756
 C356 C 0.04855 0.25987 0.32260
 H357 H 0.05219 0.27243 0.30875
 C358 C 0.03801 0.22812 0.35801
 H359 H 0.03353 0.21552 0.37146
 C360 C 0.05587 0.22285 0.34211
 H361 H 0.06522 0.20634 0.34354
 Zn362 Zn 0.00061 0.25540 0.37661
 N363 N 0.02600 0.24872 0.35622
 C364 C 0.02680 0.29578 0.39165
 N365 N 0.00684 0.28278 0.39475
 C366 C -0.00934 0.28883 0.41121
 C367 C -0.00620 0.30916 0.42476
 C368 C 0.03063 0.31626 0.40486
 C369 C -0.03247 0.24214 0.34223
 C370 C -0.05230 0.24422 0.32769
 C371 C -0.05906 0.28285 0.34413
 C372 C -0.03910 0.28006 0.35837
 N373 N -0.02647 0.25977 0.35744
 H374 H 0.03970 0.29042 0.37888
 H375 H -0.02488 0.27800 0.41352
 H376 H -0.01938 0.31408 0.43752
 H377 H 0.04636 0.32673 0.40205
 H378 H -0.02190 0.22637 0.34157
 H379 H -0.05713 0.22998 0.31585
 H380 H -0.06916 0.29894 0.34514
 H381 H -0.03375 0.29412 0.37010
 C382 C 0.06115 0.23885 0.32422
 C383 C -0.00961 0.19256 0.42825
 C384 C -0.06578 0.26471 0.32876
 C385 C 0.01387 0.32309 0.42141
 C386 C -0.02006 0.71404 0.09342
 H387 H -0.03578 0.72472 0.09321
 C388 C -0.01864 0.69424 0.07888
 H389 H -0.03333 0.68955 0.06748
 C390 C 0.01837 0.70707 0.10845
 H391 H 0.03289 0.71227 0.11974
 C392 C 0.02052 0.68715 0.09419
 H393 H 0.03657 0.67693 0.09475
 N394 N -0.00185 0.71984 0.10809
 C395 C -0.03395 0.75940 0.16536
 H396 H -0.02367 0.77549 0.16495
 C397 C -0.05114 0.75629 0.18258
 H398 H -0.05420 0.77003 0.19543
 C399 C -0.04210 0.72148 0.14962
 H400 H -0.03821 0.70773 0.13712
 C401 C -0.05942 0.71766 0.16651
 H402 H -0.06895 0.70109 0.16679
 Zn403 Zn -0.00526 0.74684 0.12738
 N404 N -0.02987 0.74216 0.14924
 C405 C -0.03185 0.78537 0.10945
 N406 N -0.01186 0.77246 0.10719
 C407 C 0.00359 0.77663 0.08947
 C408 C -0.00063 0.79461 0.07329
 C409 C -0.03675 0.80352 0.09362
 C410 C 0.02894 0.73602 0.16117
 C411 C 0.04967 0.73870 0.17432
 C412 C 0.05689 0.77553 0.15436
 C413 C 0.03601 0.77216 0.14156
 N414 N 0.02275 0.75243 0.14488
 H415 H -0.04419 0.78143 0.12328
 H416 H 0.01913 0.76583 0.08784
 H417 H 0.01172 0.79775 0.05919
 H418 H -0.05276 0.81364 0.09543
 H419 H 0.01789 0.72066 0.16367
 H420 H 0.05467 0.72535 0.18696
 H421 H 0.06756 0.79110 0.15139
 H422 H 0.03055 0.78526 0.12894
 C423 C -0.06395 0.73519 0.18316
 C424 C 0.00179 0.68061 0.07940
 C425 C 0.06385 0.75854 0.17074
 C426 C -0.02100 0.80815 0.07538
 C427 C 0.48070 0.21440 0.59300
 H428 H 0.46490 0.22496 0.59276
 C429 C 0.48224 0.19450 0.57861
 H430 H 0.46755 0.18962 0.56728
 C431 C 0.51922 0.20782 0.60801
 H432 H 0.53371 0.21319 0.61923
 C433 C 0.52148 0.18781 0.59389
 H434 H 0.53760 0.17771 0.59450
 N435 N 0.49889 0.22043 0.60761
 C436 C 0.46671 0.25996 0.66484
 H437 H 0.47696 0.27607 0.66437
 C438 C 0.44957 0.25684 0.68208
 H439 H 0.44649 0.27061 0.69491
 C440 C 0.45862 0.22199 0.64918
 H441 H 0.46252 0.20823 0.63670
 C442 C 0.44134 0.21817 0.66611
 H443 H 0.43184 0.20158 0.66643
 Zn444 Zn 0.49534 0.24746 0.62682
 N445 N 0.47080 0.24270 0.64874
 C446 C 0.46843 0.28572 0.60892
 N447 N 0.48854 0.27301 0.60661
 C448 C 0.50392 0.27734 0.58886
 C449 C 0.49949 0.29529 0.57270
 C450 C 0.46333 0.30384 0.59312
 C451 C 0.52950 0.23685 0.66065
 C452 C 0.55023 0.23956 0.67378
 C453 C 0.55752 0.27629 0.65366
 C454 C 0.53663 0.27290 0.64087
 N455 N 0.52333 0.25319 0.64428
 H456 H 0.45615 0.28166 0.62277
 H457 H 0.51955 0.26668 0.58719
 H458 H 0.51177 0.29855 0.55857
 H459 H 0.44723 0.31380 0.59497
 H460 H 0.51844 0.22152 0.66321
 H461 H 0.55522 0.22625 0.68648
 H462 H 0.56822 0.29182 0.65061
 H463 H 0.53118 0.28594 0.62818
 C464 C 0.43680 0.23573 0.68272
 C465 C 0.50276 0.18102 0.57919
 C466 C 0.56445 0.25936 0.67011
 C467 C 0.47899 0.30863 0.57484
 C468 C 0.51095 0.72244 0.91474
 H469 H 0.52781 0.73141 0.91508
 C470 C 0.50614 0.70483 0.93115
 H471 H 0.51936 0.70014 0.94415
 C472 C 0.47278 0.71812 0.89790
 H473 H 0.45966 0.72370 0.88526
 C474 C 0.46725 0.70042 0.91401
 H475 H 0.44995 0.69227 0.91360
 N476 N 0.49438 0.72867 0.89851
 C477 C 0.53349 0.76248 0.84203
 H478 H 0.52448 0.77919 0.84132
 C479 C 0.55123 0.75750 0.82592
 H480 H 0.55598 0.77043 0.81278
 C481 C 0.53781 0.72486 0.85954
 H482 H 0.53220 0.71201 0.87234
 C483 C 0.55565 0.71916 0.84373
 H484 H 0.56387 0.70201 0.84452
 Zn485 Zn 0.50179 0.75402 0.87830
 N486 N 0.52722 0.74627 0.85847
 C487 C 0.53122 0.79058 0.89664
 N488 N 0.50966 0.78003 0.89775
 C489 C 0.49346 0.78686 0.91389
 C490 C 0.49859 0.80515 0.92961
 C491 C 0.53706 0.80894 0.91205
 C492 C 0.46918 0.74459 0.84241
 C493 C 0.45129 0.74932 0.82612
 C494 C 0.44767 0.78825 0.84291
 C495 C 0.46564 0.78280 0.85891
 N496 N 0.47594 0.76123 0.85840
 H497 H 0.54406 0.78453 0.88412
 H498 H 0.47662 0.77789 0.91465
 H499 H 0.48565 0.81037 0.94250
 H500 H 0.55432 0.81713 0.91121
 H501 H 0.47798 0.72775 0.84213
 H502 H 0.44619 0.73607 0.81328
 H503 H 0.43974 0.80555 0.84321
 H504 H 0.47164 0.79599 0.87133
 C505 C 0.56234 0.73562 0.82674
 C506 C 0.48407 0.69380 0.93083
 C507 C 0.44052 0.77139 0.82631
 C508 C 0.52061 0.81624 0.92871
 C509 C 0.17031 0.19585 0.20544
 C510 C 0.15773 0.20186 0.22135
 C511 C 0.14226 0.20898 0.23998
 C512 C 0.13767 0.19369 0.25873
 C513 C 0.12181 0.20021 0.27627
 C514 C 0.11049 0.22203 0.27514
 C515 C 0.11527 0.23742 0.25653
 C516 C 0.13113 0.23091 0.23898
 C517 C 0.09342 0.22829 0.29264
 C518 C 0.07884 0.23327 0.30712
 H519 H 0.14612 0.17666 0.25963
 H520 H 0.11818 0.18814 0.29055
 H521 H 0.10656 0.25431 0.25544
 H522 H 0.13449 0.24283 0.22452
 C523 C 0.67001 0.69543 0.70566
 C524 C 0.65754 0.70097 0.72183
 C525 C 0.64231 0.70738 0.74089
 C526 C 0.63226 0.72984 0.74159
 C527 C 0.61670 0.73574 0.75960
 C528 C 0.61111 0.71921 0.77698
 C529 C 0.62134 0.69683 0.77641
 C530 C 0.63691 0.69093 0.75841
 C531 C 0.59432 0.72497 0.79490
 C532 C 0.57992 0.72980 0.80960
 H533 H 0.63626 0.74266 0.72810
 H534 H 0.60882 0.75307 0.75982
 H535 H 0.61708 0.68389 0.78972
 H536 H 0.64453 0.67349 0.75799
 C537 C 0.33309 0.81459 0.70458
 C538 C 0.34557 0.80821 0.72059
 C539 C 0.36078 0.80098 0.73960
 C540 C 0.36241 0.81462 0.76013
 C541 C 0.37793 0.80816 0.77821
 C542 C 0.39186 0.78803 0.77583
 C543 C 0.39004 0.77425 0.75540
 C544 C 0.37452 0.78071 0.73732
 C545 C 0.40859 0.78197 0.79395
 C546 C 0.42296 0.77707 0.80887
 H547 H 0.35191 0.83037 0.76205
 H548 H 0.37926 0.81899 0.79390
 H549 H 0.40079 0.75869 0.75334
 H550 H 0.37345 0.77008 0.72148
 C551 C -0.20806 0.27379 0.23933
 C552 C -0.18950 0.27356 0.24983
 C553 C -0.16753 0.27293 0.26261
 C554 C -0.16333 0.28871 0.28118
 C555 C -0.14234 0.28749 0.29418
 C556 C -0.12548 0.27047 0.28866
 C557 C -0.12959 0.25483 0.26996
 C558 C -0.15057 0.25605 0.25696
 C559 C -0.10426 0.26867 0.30256
 C560 C -0.08664 0.26696 0.31440
 H561 H -0.17636 0.30179 0.28575
 H562 H -0.13937 0.29964 0.30865
 H563 H -0.11669 0.24156 0.26558
 H564 H -0.15367 0.24371 0.24268
 C565 C -0.17097 0.69741 0.30574
 C566 C -0.15844 0.70339 0.28976
 C567 C -0.14315 0.71019 0.27084
 C568 C -0.12608 0.72778 0.27441
 C569 C -0.11053 0.73366 0.25634
 C570 C -0.11200 0.72197 0.23463
 C571 C -0.12924 0.70456 0.23098
 C572 C -0.14478 0.69869 0.24904
 C573 C -0.09531 0.72719 0.21641
 C574 C -0.08112 0.73111 0.20121
 H575 H -0.12461 0.73673 0.29123
 H576 H -0.09721 0.74708 0.25939
 H577 H -0.13047 0.69535 0.21428
 H578 H -0.15786 0.68500 0.24611
 C579 C 0.32972 0.19932 0.80568
 C580 C 0.34229 0.20498 0.78961
 C581 C 0.35762 0.21145 0.77061
 C582 C 0.35668 0.19895 0.74933
 C583 C 0.37224 0.20460 0.73121
 C584 C 0.38879 0.22276 0.73428
 C585 C 0.38956 0.23542 0.75547
 C586 C 0.37400 0.22978 0.77360
 C587 C 0.40547 0.22783 0.71601
 C588 C 0.41965 0.23167 0.70079
 H589 H 0.34413 0.18470 0.74686
 H590 H 0.37155 0.19464 0.71492
 H591 H 0.40234 0.24944 0.75807
 H592 H 0.37492 0.23951 0.79002
 C593 C 0.71357 0.26684 0.74768
 C594 C 0.69424 0.26690 0.73873
 C595 C 0.67130 0.26672 0.72778
 C596 C 0.66644 0.28190 0.70898
 C597 C 0.64442 0.28111 0.69776
 C598 C 0.62718 0.26515 0.70531
 C599 C 0.63196 0.25013 0.72427
 C600 C 0.65397 0.25092 0.73548
 C601 C 0.60490 0.26360 0.69314
 C602 C 0.58638 0.26190 0.68275
 H603 H 0.67973 0.29415 0.70285
 H604 H 0.64094 0.29274 0.68307
 H605 H 0.61878 0.23767 0.73019
 H606 H 0.65757 0.23907 0.74997
 C607 C 0.21309 0.76780 0.24800
 C608 C 0.19370 0.76750 0.23915
 C609 C 0.17072 0.76693 0.22829
 C610 C 0.16519 0.78278 0.21024
 C611 C 0.14316 0.78167 0.19908
 C612 C 0.12657 0.76471 0.20593
 C613 C 0.13203 0.74901 0.22413
 C614 C 0.15406 0.75012 0.23529
 C615 C 0.10428 0.76293 0.19380
 C616 C 0.08576 0.76112 0.18341
 H617 H 0.17797 0.79581 0.20465
 H618 H 0.13915 0.79384 0.18497
 H619 H 0.11936 0.73579 0.22951
 H620 H 0.15818 0.73775 0.24919
 C621 C 0.20277 0.17431 0.19363
 C622 C 0.21866 0.16141 0.19918
 C623 C 0.23751 0.14570 0.20535
 C624 C 0.25794 0.14507 0.19167
 C625 C 0.27584 0.12908 0.19702
 C626 C 0.27339 0.11366 0.21606
 C627 C 0.25308 0.11446 0.22988
 C628 C 0.23517 0.13044 0.22454
 C629 C 0.29135 0.09653 0.22096
 C630 C 0.30615 0.08189 0.22492
 H631 H 0.25989 0.15673 0.17675
 H632 H 0.29144 0.12857 0.18617
 H633 H 0.25097 0.10256 0.24460
 H634 H 0.21942 0.13072 0.23518
 C635 C 0.70218 0.67388 0.69344
 C636 C 0.71780 0.66062 0.69893
 C637 C 0.73626 0.64451 0.70520
 C638 C 0.73282 0.62821 0.72335
 C639 C 0.75042 0.61195 0.72884
 C640 C 0.77152 0.61192 0.71621
 C641 C 0.77504 0.62836 0.69822
 C642 C 0.75744 0.64462 0.69272
 C643 C 0.78926 0.59460 0.72121
 C644 C 0.80402 0.57991 0.72507
 H645 H 0.71647 0.62793 0.73306
 H646 H 0.74749 0.59926 0.74274
 H647 H 0.79126 0.62844 0.68830
 H648 H 0.76025 0.65710 0.67862
 C649 C 0.74696 0.28843 0.75722
 C650 C 0.75674 0.30732 0.75663
 C651 C 0.76863 0.32973 0.75578
 C652 C 0.78442 0.33621 0.77376
 C653 C 0.79650 0.35770 0.77261
 C654 C 0.79282 0.37279 0.75348
 C655 C 0.77690 0.36638 0.73558
 C656 C 0.76482 0.34489 0.73673
 C657 C 0.80577 0.39456 0.75196
 C658 C 0.81687 0.41265 0.75061
 H659 H 0.78753 0.32460 0.78855
 H660 H 0.80881 0.36247 0.78652
 H661 H 0.77396 0.37789 0.72068
 H662 H 0.75268 0.34002 0.72271
 C663 C 0.24614 -0.20999 0.25730
 C664 C 0.25559 -0.19094 0.25671
 C665 C 0.26717 -0.16837 0.25596
 C666 C 0.26566 -0.15449 0.23565
 C667 C 0.27755 -0.13290 0.23466
 C668 C 0.29100 -0.12510 0.25397
 C669 C 0.29235 -0.13888 0.27435
 C670 C 0.28045 -0.16047 0.27534
 C671 C 0.30396 -0.10331 0.25266
 C672 C 0.31516 -0.08527 0.25153
 H673 H 0.25547 -0.16046 0.22055
 H674 H 0.27646 -0.12240 0.21879
 H675 H 0.30275 -0.13305 0.28935
 H676 H 0.28178 -0.17109 0.29110
 C677 C 0.30041 -0.16387 0.69347
 C678 C 0.28447 -0.15149 0.69982
 C679 C 0.26574 -0.13631 0.70732
 C680 C 0.24630 -0.13240 0.69252
 C681 C 0.22861 -0.11685 0.69938
 C682 C 0.23028 -0.10515 0.72108
 C683 C 0.24959 -0.10925 0.73599
 C684 C 0.26729 -0.12480 0.72912
 C685 C 0.21261 -0.08835 0.72765
 C686 C 0.19799 -0.07399 0.73286
 H687 H 0.24497 -0.14116 0.67559
 H688 H 0.21379 -0.11375 0.68768
 H689 H 0.25110 -0.10023 0.75276
 H690 H 0.28228 -0.12764 0.74067
 C691 C 0.75933 0.29540 0.22784
 C692 C 0.74937 0.31409 0.22838
 C693 C 0.73713 0.33618 0.22939
 C694 C 0.74398 0.35334 0.24586
 C695 C 0.73139 0.37436 0.24761
 C696 C 0.71189 0.37830 0.23289
 C697 C 0.70519 0.36125 0.21624
 C698 C 0.71779 0.34023 0.21449
 C699 C 0.69827 0.39942 0.23549
 C700 C 0.68668 0.41695 0.23809
 H701 H 0.75885 0.35035 0.25753
 H702 H 0.73666 0.38738 0.26061
 H703 H 0.69009 0.36408 0.20483
 H704 H 0.71229 0.32704 0.20175
 C705 C 0.79666 0.67541 0.31728
 C706 C 0.78096 0.66222 0.31136
 C707 C 0.76245 0.64614 0.30450
 C708 C 0.76375 0.63399 0.28306
 C709 C 0.74621 0.61770 0.27679
 C710 C 0.72730 0.61348 0.29194
 C711 C 0.72589 0.62578 0.31329
 C712 C 0.74343 0.64207 0.31956
 C713 C 0.70971 0.59610 0.28587
 C714 C 0.69518 0.58131 0.28089
 H715 H 0.77841 0.63695 0.27132
 H716 H 0.74751 0.60824 0.26027
 H717 H 0.71138 0.62261 0.32516
 H718 H 0.74228 0.65132 0.33621
 C719 C 0.29700 0.17801 0.81748
 C720 C 0.28107 0.16504 0.81168
 C721 C 0.26234 0.14918 0.80491
 C722 C 0.24489 0.14306 0.82114
 C723 C 0.22726 0.12685 0.81488
 C724 C 0.22701 0.11671 0.79237
 C725 C 0.24431 0.12302 0.77607
 C726 C 0.26194 0.13921 0.78233
 C727 C 0.20950 0.09926 0.78625
 C728 C 0.19514 0.08433 0.78117
 H729 H 0.24507 0.15059 0.83867
 H730 H 0.21401 0.12204 0.82765
 H731 H 0.24433 0.11522 0.75865
 H732 H 0.27539 0.14376 0.76967
 C733 C 0.19172 0.20759 0.17300
 C734 C 0.19789 0.22374 0.16073
 C735 C 0.20499 0.24286 0.14576
 C736 C 0.19164 0.26352 0.14494
 C737 C 0.19796 0.28172 0.12967
 C738 C 0.21765 0.27934 0.11516
 C739 C 0.23115 0.25879 0.11617
 C740 C 0.22483 0.24059 0.13145
 C741 C 0.22347 0.29758 0.09864
 C742 C 0.22802 0.31266 0.08447
 H743 H 0.17623 0.26543 0.15589
 H744 H 0.18735 0.29750 0.12896
 H745 H 0.24636 0.25673 0.10496
 H746 H 0.23523 0.22466 0.13190
 C747 C 0.69167 0.70781 0.67356
 C748 C 0.69811 0.72415 0.66166
 C749 C 0.70553 0.74342 0.64703
 C750 C 0.72610 0.74155 0.63370
 C751 C 0.73268 0.75980 0.61858
 C752 C 0.71872 0.77998 0.61673
 C753 C 0.69832 0.78198 0.63029
 C754 C 0.69173 0.76374 0.64541
 C755 C 0.72477 0.79816 0.60021
 C756 C 0.72949 0.81313 0.58597
 H757 H 0.73684 0.72589 0.63475
 H758 H 0.74843 0.75802 0.60810
 H759 H 0.68734 0.79746 0.62892
 H760 H 0.67575 0.76533 0.65558
 C761 C 0.80747 0.70886 0.33821
 C762 C 0.80121 0.72488 0.35061
 C763 C 0.79403 0.74380 0.36579
 C764 C 0.77354 0.74157 0.37921
 C765 C 0.76714 0.75952 0.39476
 C766 C 0.78120 0.77977 0.39694
 C767 C 0.80155 0.78212 0.38333
 C768 C 0.80795 0.76417 0.36778
 C769 C 0.77522 0.79773 0.41374
 C770 C 0.77047 0.81254 0.42814
 H771 H 0.76270 0.72586 0.37786
 H772 H 0.75142 0.75748 0.40526
 H773 H 0.81259 0.79767 0.38494
 H774 H 0.82387 0.76605 0.35754
 C775 C 0.30851 0.21144 -0.16188
 C776 C 0.30261 0.22769 -0.14961
 C777 C 0.29583 0.24688 -0.13459
 C778 C 0.27345 0.24701 -0.12436
 C779 C 0.26724 0.26513 -0.10894
 C780 C 0.28337 0.28319 -0.10368
 C781 C 0.30565 0.28320 -0.11412
 C782 C 0.31186 0.26508 -0.12955
 C783 C 0.27736 0.30117 -0.08693
 C784 C 0.27234 0.31588 -0.07251
 H785 H 0.26095 0.23298 -0.12808
 H786 H 0.25000 0.26490 -0.10089
 H787 H 0.31828 0.29703 -0.11011
 H788 H 0.32924 0.26511 -0.13731
 C789 C 0.73633 0.25643 -0.22008
 C790 C 0.73687 0.24742 -0.20088
 C791 C 0.73776 0.23641 -0.17811
 C792 C 0.75596 0.24209 -0.16225
 C793 C 0.75733 0.23077 -0.14045
 C794 C 0.74050 0.21373 -0.13443
 C795 C 0.72217 0.20821 -0.15020
 C796 C 0.72081 0.21953 -0.17200
 C797 C 0.74246 0.20139 -0.11242
 C798 C 0.74434 0.19074 -0.09418
 H799 H 0.76920 0.25507 -0.16683
 H800 H 0.77161 0.23512 -0.12842
 H801 H 0.70911 0.19501 -0.14575
 H802 H 0.70670 0.21497 -0.18416
 C803 C 0.23627 0.75789 0.28012
 C804 C 0.23714 0.74899 0.29936
 C805 C 0.23843 0.73817 0.32220
 C806 C 0.25802 0.74228 0.33683
 C807 C 0.25965 0.73117 0.35873
 C808 C 0.24169 0.71592 0.36607
 C809 C 0.22201 0.71197 0.35152
 C810 C 0.22038 0.72307 0.32963
 C811 C 0.24374 0.70380 0.38819
 C812 C 0.24549 0.69327 0.40651
 H813 H 0.27211 0.75388 0.33123
 H814 H 0.27498 0.73430 0.36981
 H815 H 0.20805 0.70016 0.35701
 H816 H 0.20518 0.71974 0.31843
 C817 C 0.31207 0.80423 0.67095
 C818 C 0.30627 0.78874 0.65751
 C819 C 0.29964 0.77047 0.64110
 C820 C 0.31376 0.75047 0.63869
 C821 C 0.30785 0.73316 0.62207
 C822 C 0.28780 0.73579 0.60779
 C823 C 0.27356 0.75568 0.61036
 C824 C 0.27947 0.77299 0.62698
 C825 C 0.28221 0.71841 0.59010
 C826 C 0.27771 0.70403 0.57506
 H827 H 0.32943 0.74838 0.64947
 H828 H 0.31902 0.71788 0.62019
 H829 H 0.25805 0.75792 0.59937
 H830 H 0.26847 0.78842 0.62864
 C831 C 0.77170 0.26394 0.20513
 C832 C 0.77258 0.25511 0.18583
 C833 C 0.77333 0.24410 0.16301
 C834 C 0.75598 0.24912 0.14612
 C835 C 0.75595 0.23744 0.12442
 C836 C 0.77328 0.22070 0.11952
 C837 C 0.79084 0.21592 0.13629
 C838 C 0.79087 0.22761 0.15799
 C839 C 0.77237 0.20762 0.09780
 C840 C 0.77117 0.19625 0.07989
 H841 H 0.74229 0.26177 0.14986
 H842 H 0.74222 0.24117 0.11162
 H843 H 0.80425 0.20293 0.13273
 H844 H 0.80432 0.22353 0.17096
 C845 C 0.44045 0.42101 0.45676
 C846 C 0.44601 0.40782 0.47243
 C847 C 0.45236 0.39173 0.49091
 C848 C 0.47340 0.37903 0.48959
 C849 C 0.47911 0.36270 0.50709
 C850 C 0.46381 0.35900 0.52597
 C851 C 0.44288 0.37186 0.52741
 C852 C 0.43716 0.38819 0.50991
 C853 C 0.46926 0.34155 0.54347
 C854 C 0.47373 0.32668 0.55791
 H855 H 0.48524 0.38158 0.47494
 H856 H 0.49531 0.35280 0.50577
 H857 H 0.43089 0.36909 0.54189
 H858 H 0.42082 0.39786 0.51107
 C859 C -0.05696 0.92040 -0.04364
 C860 C -0.05178 0.90725 -0.02780
 C861 C -0.04588 0.89121 -0.00913
 C862 C -0.02472 0.87865 -0.00982
 C863 C -0.01943 0.86235 0.00783
 C864 C -0.03527 0.85854 0.02625
 C865 C -0.05632 0.87126 0.02706
 C866 C -0.06161 0.88757 0.00941
 C867 C -0.03021 0.84111 0.04389
 C868 C -0.02601 0.82623 0.05840
 H869 H -0.01247 0.88128 -0.02411
 H870 H -0.00313 0.85256 0.00699
 H871 H -0.06872 0.86841 0.04118
 H872 H -0.07805 0.89713 0.01008
 C873 C 0.01060 0.53830 -0.00900
 C874 C 0.00988 0.55686 0.00132
 C875 C 0.00889 0.57883 0.01391
 C876 C -0.01105 0.59313 0.01192
 C877 C -0.01231 0.61414 0.02473
 C878 C 0.00637 0.62093 0.03957
 C879 C 0.02638 0.60671 0.04141
 C880 C 0.02764 0.58571 0.02861
 C881 C 0.00479 0.64216 0.05330
 C882 C 0.00343 0.65978 0.06506
 H883 H -0.02568 0.58795 0.00064
 H884 H -0.02789 0.62498 0.02321
 H885 H 0.04091 0.61177 0.05287
 H886 H 0.04312 0.57475 0.03031
 C887 C 0.51241 0.03790 0.49224
 C888 C 0.51163 0.05653 0.50243
 C889 C 0.51052 0.07860 0.51482
 C890 C 0.52886 0.08533 0.53011
 C891 C 0.52746 0.10647 0.54268
 C892 C 0.50773 0.12095 0.54001
 C893 C 0.48948 0.11431 0.52460
 C894 C 0.49087 0.09317 0.51202
 C895 C 0.50600 0.14233 0.55350
 C896 C 0.50452 0.16007 0.56506
 H897 H 0.54411 0.07417 0.53244
 H898 H 0.54165 0.11141 0.55460
 H899 H 0.47412 0.12536 0.52245
 H900 H 0.47658 0.08811 0.50028
 C901 C -0.01981 0.05053 0.51614
 C902 C -0.01943 0.06935 0.50636
 C903 C -0.01859 0.09158 0.49430
 C904 C 0.00071 0.10675 0.49764
 C905 C 0.00212 0.12782 0.48503
 C906 C -0.01576 0.13380 0.46903
 C907 C -0.03520 0.11877 0.46590
 C908 C -0.03661 0.09770 0.47851
 C909 C -0.01374 0.15486 0.45515
 C910 C -0.01191 0.17222 0.44312
 H911 H 0.01478 0.10214 0.50974
 H912 H 0.01727 0.13927 0.48751
 H913 H -0.04908 0.12318 0.45350
 H914 H -0.05156 0.08605 0.47573
 C915 C 0.44283 0.58750 1.05330
 C916 C 0.44872 0.59982 1.03708
 C917 C 0.45546 0.61486 1.01791
 C918 C 0.47695 0.62710 1.01880
 C919 C 0.48307 0.64246 1.00062
 C920 C 0.46772 0.64565 0.98147
 C921 C 0.44633 0.63324 0.98046
 C922 C 0.44022 0.61787 0.99864
 C923 C 0.47357 0.66222 0.96328
 C924 C 0.47838 0.67644 0.94832
 H925 H 0.48884 0.62496 1.03365
 H926 H 0.49961 0.65204 1.00161
 H927 H 0.43430 0.63563 0.96577
 H928 H 0.42353 0.60855 0.99781
 C929 C 0.56398 0.92970 1.04511
 C930 C 0.55787 0.91633 1.02967
 C931 C 0.55082 0.90007 1.01144
 C932 C 0.56579 0.89574 0.99244
 C933 C 0.55935 0.87928 0.97518
 C934 C 0.53791 0.86708 0.97684
 C935 C 0.52284 0.87157 0.99573
 C936 C 0.52928 0.88803 1.01299
 C937 C 0.53169 0.84948 0.95959
 C938 C 0.52659 0.83447 0.94537
 H939 H 0.58252 0.90491 0.99111
 H940 H 0.57117 0.87589 0.96069
 H941 H 0.50625 0.86218 0.99722
 H942 H 0.51761 0.89120 1.02764
 C943 C 0.02341 0.47013 0.50179
 C944 C 0.02356 0.45102 0.49247
 C945 C 0.02328 0.42835 0.48112
 C946 C 0.03665 0.42457 0.46084
 C947 C 0.03553 0.40285 0.44921
 C948 C 0.02104 0.38483 0.45780
 C949 C 0.00787 0.38852 0.47823
 C950 C 0.00899 0.41023 0.48986
 C951 C 0.01900 0.36288 0.44523
 C952 C 0.01689 0.34465 0.43448
 H953 H 0.04770 0.43848 0.45389
 H954 H 0.04572 0.40022 0.43339
 H955 H -0.00346 0.37473 0.48497
 H956 H -0.00149 0.41299 0.50547
 C957 C 0.42007 0.45456 0.44602
 C958 C 0.40791 0.47073 0.45224
 C959 C 0.39309 0.48994 0.45924
 C960 C 0.39572 0.51205 0.44868
 C961 C 0.38060 0.53044 0.45465
 C962 C 0.36279 0.52679 0.47121
 C963 C 0.36035 0.50476 0.48199
 C964 C 0.37547 0.48637 0.47601
 C965 C 0.34647 0.54534 0.47640
 C966 C 0.33252 0.56076 0.48028
 H967 H 0.40923 0.51498 0.43563
 H968 H 0.38258 0.54737 0.44614
 H969 H 0.34658 0.50172 0.49474
 H970 H 0.37324 0.46932 0.48422
 C971 C 0.92333 -0.04581 -0.05488
 C972 C 0.91137 -0.02938 -0.04892
 C973 C 0.89676 -0.00991 -0.04220
 C974 C 0.88127 -0.01217 -0.02325
 C975 C 0.86625 0.00636 -0.01744
 C976 C 0.86666 0.02721 -0.03055
 C977 C 0.88236 0.02957 -0.04932
 C978 C 0.89738 0.01105 -0.05513
 C979 C 0.85032 0.04576 -0.02540
 C980 C 0.83625 0.06106 -0.02144
 H981 H 0.88059 -0.02833 -0.01318
 H982 H 0.85411 0.00431 -0.00295
 H983 H 0.88275 0.04558 -0.05964
 H984 H 0.90922 0.01295 -0.06987
 C985 C 0.58549 -0.03698 0.05513
 C986 C 0.59816 -0.02130 0.04844
 C987 C 0.61366 -0.00280 0.04071
 C988 C 0.61548 0.01819 0.05362
 C989 C 0.63136 0.03572 0.04673
 C990 C 0.64550 0.03233 0.02692
 C991 C 0.64348 0.01146 0.01385
 C992 C 0.62759 -0.00607 0.02073
 C993 C 0.66270 0.04984 0.02057
 C994 C 0.67746 0.06430 0.01561
 H995 H 0.60485 0.02086 0.06914
 H996 H 0.63286 0.05175 0.05702
 H997 H 0.65439 0.00862 -0.00145
 H998 H 0.62638 -0.02227 0.01067
 C999 C 0.04470 0.50333 0.51285
 C1000 C 0.06351 0.51330 0.51321
 C1001 C 0.08576 0.52556 0.51343
 C1002 C 0.08926 0.54495 0.52837
 C1003 C 0.11054 0.55746 0.52791
 C1004 C 0.12841 0.55062 0.51251
 C1005 C 0.12501 0.53108 0.49774
 C1006 C 0.10372 0.51857 0.49820
 C1007 C 0.14991 0.56407 0.51125
 C1008 C 0.16782 0.57545 0.50971
 H1009 H 0.07545 0.55054 0.54016
 H1010 H 0.11296 0.57259 0.53934
 H1011 H 0.13868 0.52569 0.48571
 H1012 H 0.10118 0.50365 0.48653
 C1013 C 0.03352 0.50677 -0.02032
 C1014 C 0.05275 0.49786 -0.01983
 C1015 C 0.07555 0.48696 -0.01889
 C1016 C 0.09235 0.49457 -0.00230
 C1017 C 0.11415 0.48333 -0.00069
 C1018 C 0.11926 0.46444 -0.01567
 C1019 C 0.10256 0.45700 -0.03244
 C1020 C 0.08075 0.46824 -0.03405
 C1021 C 0.14124 0.45216 -0.01324
 C1022 C 0.15945 0.44160 -0.01083
 H1023 H 0.08848 0.50899 0.00956
 H1024 H 0.12690 0.48917 0.01240
 H1025 H 0.10629 0.44235 -0.04405
 H1026 H 0.06786 0.46217 -0.04689
 C1027 C 0.53542 1.00648 0.48080
 C1028 C 0.55471 0.99768 0.48116
 C1029 C 0.57758 0.98691 0.48201
 C1030 C 0.58301 0.96858 0.46646
 C1031 C 0.60485 0.95738 0.46801
 C1032 C 0.62135 0.96448 0.48512
 C1033 C 0.61603 0.98299 0.50049
 C1034 C 0.59419 0.99418 0.49893
 C1035 C 0.64333 0.95218 0.48750
 C1036 C 0.66152 0.94154 0.48981
 H1037 H 0.57027 0.96276 0.45335
 H1038 H 0.60875 0.94303 0.45610
 H1039 H 0.62862 0.98855 0.51384
 H1040 H 0.59015 1.00829 0.51110
 C1041 C 0.95798 1.01815 0.52747
 C1042 C 0.93893 1.00862 0.52758
 C1043 C 0.91643 0.99680 0.52733
 C1044 C 0.91145 0.97951 0.54415
 C1045 C 0.89010 0.96712 0.54315
 C1046 C 0.87364 0.97196 0.52533
 C1047 C 0.87849 0.98947 0.50870
 C1048 C 0.89984 1.00186 0.50969
 C1049 C 0.85224 0.95833 0.52352
 C1050 C 0.83456 0.94659 0.52165
 H1051 H 0.92420 0.97539 0.55780
 H1052 H 0.88658 0.95355 0.55604
 H1053 H 0.86593 0.99329 0.49478
 H1054 H 0.90354 1.01512 0.49654
 C1055 C 0.42077 0.55541 0.06537
 C1056 C 0.40743 0.53977 0.05966
 C1057 C 0.39119 0.52134 0.05298
 C1058 C 0.38730 0.50229 0.06810
 C1059 C 0.37088 0.48481 0.06198
 C1060 C 0.35829 0.48632 0.04073
 C1061 C 0.36233 0.50528 0.02552
 C1062 C 0.37874 0.52275 0.03164
 C1063 C 0.34085 0.46876 0.03480
 C1064 C 0.32602 0.45421 0.02998
 H1065 H 0.39677 0.50106 0.08468
 H1066 H 0.36786 0.47026 0.07390
 H1067 H 0.35266 0.50665 0.00907
 H1068 H 0.38157 0.53744 0.01985
 C1069 C 0.45252 0.44293 0.42464
 C1070 C 0.46860 0.44898 0.41223
 C1071 C 0.48748 0.45608 0.39702
 C1072 C 0.50634 0.44085 0.39290
 C1073 C 0.52417 0.44735 0.37732
 C1074 C 0.52323 0.46911 0.36580
 C1075 C 0.50450 0.48445 0.37012
 C1076 C 0.48667 0.47795 0.38570
 C1077 C 0.54102 0.47533 0.34898
 C1078 C 0.55572 0.48029 0.33458
 H1079 H 0.50710 0.42387 0.40150
 H1080 H 0.53853 0.43532 0.37405
 H1081 H 0.50356 0.50128 0.36125
 H1082 H 0.47213 0.48983 0.38870
 C1083 C -0.04425 -0.05822 0.92412
 C1084 C -0.02800 -0.05255 0.91177
 C1085 C -0.00895 -0.04582 0.89660
 C1086 C -0.00735 -0.02267 0.88828
 C1087 C 0.01056 -0.01635 0.87271
 C1088 C 0.02694 -0.03315 0.86539
 C1089 C 0.02549 -0.05624 0.87390
 C1090 C 0.00758 -0.06256 0.88947
 C1091 C 0.04472 -0.02689 0.84857
 C1092 C 0.05932 -0.02169 0.83416
 H1093 H -0.02008 -0.00960 0.89361
 H1094 H 0.01147 0.00153 0.86618
 H1095 H 0.03802 -0.06939 0.86829
 H1096 H 0.00646 -0.08053 0.89573
 C1097 C -0.00867 0.02888 0.54885
 C1098 C 0.00141 0.02879 0.56762
 C1099 C 0.01383 0.02832 0.58979
 C1100 C 0.00716 0.01228 0.60723
 C1101 C 0.01997 0.01100 0.62831
 C1102 C 0.03951 0.02576 0.63204
 C1103 C 0.04601 0.04201 0.61472
 C1104 C 0.03320 0.04329 0.59364
 C1105 C 0.05341 0.02355 0.65320
 C1106 C 0.06526 0.02124 0.67074
 H1107 H -0.00773 0.00056 0.60440
 H1108 H 0.01485 -0.00170 0.64154
 H1109 H 0.06115 0.05344 0.61738
 H1110 H 0.03857 0.05570 0.58023
 C1111 C 0.45447 0.56621 0.08608
 C1112 C 0.47054 0.55995 0.09856
 C1113 C 0.48946 0.55270 0.11386
 C1114 C 0.50841 0.56799 0.11847
 C1115 C 0.52627 0.56137 0.13418
 C1116 C 0.52526 0.53942 0.14534
 C1117 C 0.50645 0.52402 0.14052
 C1118 C 0.48859 0.53064 0.12482
 C1119 C 0.54303 0.53304 0.16234
 C1120 C 0.55761 0.52780 0.17692
 H1121 H 0.50922 0.58512 0.11016
 H1122 H 0.54068 0.57345 0.13784
 H1123 H 0.50545 0.50705 0.14912
 H1124 H 0.47399 0.51871 0.12144
 C1125 C 0.55280 -0.04752 0.07693
 C1126 C 0.53691 -0.04106 0.08929
 C1127 C 0.51809 -0.03372 0.10440
 C1128 C 0.49571 -0.04404 0.10210
 C1129 C 0.47773 -0.03777 0.11755
 C1130 C 0.48204 -0.02115 0.13535
 C1131 C 0.50433 -0.01060 0.13747
 C1132 C 0.52232 -0.01687 0.12202
 C1133 C 0.46391 -0.01574 0.15205
 C1134 C 0.44881 -0.01176 0.16629
 H1135 H 0.49227 -0.05714 0.08860
 H1136 H 0.46059 -0.04611 0.11582
 H1137 H 0.50789 0.00218 0.15124
 H1138 H 0.53958 -0.00885 0.12401
 C1139 C 1.01193 0.49206 0.53404
 C1140 C 1.00220 0.49211 0.55284
 C1141 C 0.99029 0.49235 0.57509
 C1142 C 0.99167 0.51229 0.58962
 C1143 C 0.97938 0.51286 0.61084
 C1144 C 0.96566 0.49349 0.61763
 C1145 C 0.96447 0.47346 0.60322
 C1146 C 0.97677 0.47289 0.58199
 C1147 C 0.95219 0.49444 0.63895
 C1148 C 0.94051 0.49529 0.65655
 H1149 H 1.00204 0.52745 0.58441
 H1150 H 0.98035 0.52847 0.62182
 H1151 H 0.95385 0.45842 0.60826
 H1152 H 0.97553 0.45740 0.57087
 C1153 C 1.00131 0.51761 0.95702
 C1154 C 0.99239 0.51811 0.93769
 C1155 C 0.98141 0.51843 0.91479
 C1156 C 0.96353 0.53462 0.90985
 C1157 C 0.95212 0.53425 0.88793
 C1158 C 0.95856 0.51769 0.87088
 C1159 C 0.97663 0.50167 0.87572
 C1160 C 0.98804 0.50204 0.89764
 C1161 C 0.94604 0.51652 0.84879
 C1162 C 0.93524 0.51517 0.83048
 H1163 H 0.95822 0.54732 0.92301
 H1164 H 0.93811 0.54665 0.88440
 H1165 H 0.98169 0.48873 0.86269
 H1166 H 1.00179 0.48940 0.90130
 C1167 C 0.50284 0.01702 0.45848
 C1168 C 0.49360 0.01748 0.43930
 C1169 C 0.48218 0.01785 0.41660
 C1170 C 0.46449 0.03432 0.41191
 C1171 C 0.45269 0.03407 0.39020
 C1172 C 0.45855 0.01733 0.37310
 C1173 C 0.47642 0.00102 0.37770
 C1174 C 0.48821 0.00127 0.39940
 C1175 C 0.44571 0.01636 0.35118
 C1176 C 0.43474 0.01513 0.33296
 H1177 H 0.45964 0.04717 0.42512
 H1178 H 0.43885 0.04671 0.38686
 H1179 H 0.48103 -0.01205 0.36462
 H1180 H 0.50182 -0.01159 0.40287
   
