data_POSCAR
  _audit_creation_date              2014-09-24
  _audit_creation_method            'ToBaCCo'
  _symmetry_space_group_name_H-M    'P1'
  _symmetry_Int_Tables_number       1
  _symmetry_cell_setting            triclinic
  loop_
  _symmetry_equiv_pos_as_xyz
 x,y,z
_cell_length_a 22.3881
_cell_length_b 22.1534
_cell_length_c 41.3168
_cell_angle_alpha 89.918300
_cell_angle_beta 90.041100
_cell_angle_gamma 119.712900
loop_
  _atom_site_label
  _atom_site_type_symbol
  _atom_site_fract_x
  _atom_site_fract_y
  _atom_site_fract_z
Zn1 Zn 0.95675 0.04637 1.01525
 Zn2 Zn 1.09069 0.04737 1.01297
 Zn3 Zn 0.95845 -0.08849 1.01539
 Zn4 Zn 0.99625 -0.00163 0.95610
 O5 O 1.00055 0.00090 1.00002
 O6 O 1.01163 0.12094 1.03912
 O7 O 1.11318 -0.00578 1.03726
 O8 O 0.88641 -0.10744 1.04085
 O9 O 1.11078 0.12193 1.03738
 O10 O 0.88528 -0.00810 1.04071
 O11 O 1.01509 -0.10535 1.03935
 O12 O 0.95223 -0.08735 0.94042
 O13 O 1.14987 0.07825 0.97955
 O14 O 0.92574 -0.15363 0.98402
 O15 O 1.07913 0.03942 0.93758
 O16 O 0.95117 0.03897 0.93996
 O17 O 0.92308 0.07700 0.98367
 C18 C 1.07449 0.14785 1.04703
 C19 C 1.07796 -0.06814 1.04709
 C20 C 0.86023 -0.07080 1.04988
 C21 C 0.92502 -0.14680 0.95354
 C22 C 1.13949 0.07124 0.94921
 C23 C 0.92283 0.06992 0.95320
 Zn24 Zn 0.04397 0.95336 0.51469
 Zn25 Zn -0.08834 0.95681 0.51476
 Zn26 Zn 0.04647 1.09015 0.51460
 Zn27 Zn 0.00038 1.00001 0.45634
 O28 O 0.00063 1.00008 0.50023
 O29 O -0.01072 0.88024 0.53950
 O30 O -0.10579 1.01270 0.53930
 O31 O 0.11938 1.10774 0.53890
 O32 O -0.10843 0.88249 0.53953
 O33 O 0.11791 1.00715 0.53907
 O34 O -0.00649 1.11116 0.53943
 O35 O 0.03975 1.08497 0.43944
 O36 O -0.15112 0.92609 0.48265
 O37 O 0.07832 1.15328 0.48237
 O38 O -0.08378 0.95508 0.43959
 O39 O 0.04521 0.96002 0.43953
 O40 O 0.07438 0.92071 0.48249
 C41 C -0.07277 0.85527 0.54852
 C42 C -0.06882 1.07535 0.54833
 C43 C 0.14477 1.07029 0.54776
 C44 C 0.07133 1.14505 0.45193
 C45 C -0.14316 0.92706 0.45220
 C46 C 0.07338 0.92810 0.45205
 O47 O 0.23396 0.54843 0.27614
 O48 O 0.23841 0.66671 0.28813
 C49 C 0.26937 0.73171 0.29314
 O50 O 0.32170 0.77442 0.27694
 O51 O 0.43420 0.76912 0.28868
 C52 C 0.46742 0.73727 0.29344
 O53 O 0.45732 0.68457 0.27699
 O54 O 0.34018 0.57100 0.28805
 C55 C 0.27570 0.53763 0.29262
 O56 O 0.23817 0.57413 0.21245
 O57 O 0.23624 0.68912 0.22395
 C58 C 0.27923 0.74130 0.20753
 O59 O 0.34338 0.77224 0.21310
 O60 O 0.45880 0.77311 0.22447
 C61 C 0.46799 0.72989 0.20799
 O62 O 0.43436 0.66489 0.21310
 O63 O 0.32031 0.54822 0.22362
 C64 C 0.26889 0.54004 0.20703
 Cr65 Cr 0.24032 0.62145 0.25022
 Cr66 Cr 0.38772 0.76855 0.25082
 Cr67 Cr 0.38620 0.61899 0.25048
 O68 O 0.33811 0.66967 0.25044
 O69 O 0.75993 0.42686 0.79042
 O70 O 0.76359 0.31298 0.78060
 C71 C 0.71917 0.25792 0.79480
 O72 O 0.65606 0.22538 0.78710
 O73 O 0.54099 0.22523 0.77474
 C74 C 0.53053 0.26760 0.79123
 O75 O 0.56439 0.33289 0.78706
 O76 O 0.67765 0.45121 0.77769
 C77 C 0.72860 0.46052 0.79482
 O78 O 0.76842 0.45194 0.72579
 O79 O 0.76790 0.33506 0.71605
 C80 C 0.73585 0.27091 0.70904
 O81 O 0.68119 0.22733 0.72349
 O82 O 0.56965 0.23240 0.71111
 C83 C 0.53661 0.26407 0.70574
 O84 O 0.54507 0.31575 0.72254
 O85 O 0.66229 0.43007 0.71366
 C86 C 0.72680 0.46265 0.70896
 Cr87 Cr 0.76123 0.37984 0.75311
 Cr88 Cr 0.61390 0.23145 0.74921
 Cr89 Cr 0.61420 0.38050 0.75028
 O90 O 0.66329 0.33056 0.75086
 C91 C 0.16168 0.32240 0.11142
 C92 C 0.09588 0.29934 0.09848
 C93 C 0.06803 0.24296 0.07698
 C94 C 0.10556 0.20971 0.06838
 C95 C 0.17206 0.23447 0.08119
 C96 C 0.20018 0.29052 0.10285
 C97 C 0.19027 0.38014 0.13488
 C98 C 0.25531 0.40195 0.14844
 C99 C 0.28128 0.45523 0.17154
 C100 C 0.24273 0.48676 0.18115
 C101 C 0.17810 0.46512 0.16676
 C102 C 0.15145 0.41149 0.14376
 C103 C 0.26559 0.31460 0.11655
 C104 C 0.29264 0.36930 0.13899
 C105 C 0.05888 0.33252 0.10768
 C106 C 0.08623 0.38771 0.12989
 H107 H 0.29584 0.29049 0.11011
 H108 H 0.34298 0.38581 0.14922
 H109 H 0.00811 0.31533 0.09781
 H110 H 0.05576 0.41147 0.13651
 H111 H 0.01693 0.22459 0.06724
 H112 H 0.20140 0.20929 0.07485
 H113 H 0.33120 0.47159 0.18227
 H114 H 0.14784 0.48877 0.17398
 C115 C 0.68760 0.84171 0.11444
 C116 C 0.71133 0.79886 0.10151
 C117 C 0.76751 0.82754 0.08019
 C118 C 0.79981 0.89855 0.07176
 C119 C 0.77467 0.94048 0.08474
 C120 C 0.71880 0.91240 0.10618
 C121 C 0.62958 0.81225 0.13744
 C122 C 0.60686 0.85550 0.15086
 C123 C 0.55307 0.82782 0.17342
 C124 C 0.52190 0.75733 0.18264
 C125 C 0.54453 0.71434 0.16843
 C126 C 0.59868 0.74169 0.14595
 C127 C 0.69398 0.95381 0.11979
 C128 C 0.63900 0.92585 0.14179
 C129 C 0.67873 0.72835 0.11038
 C130 C 0.62332 0.70023 0.13219
 H131 H 0.71759 1.00841 0.11359
 H132 H 0.62182 0.95971 0.15195
 H133 H 0.69645 0.69469 0.10052
 H134 H 0.59994 0.64572 0.13853
 H135 H 0.78619 0.79467 0.07032
 H136 H 0.79905 0.99515 0.07851
 H137 H 0.53597 0.86140 0.18402
 H138 H 0.52118 0.66012 0.17537
 C139 C 0.16781 0.84736 0.11171
 C140 C 0.09843 0.80700 0.10282
 C141 C 0.06992 0.83446 0.08113
 C142 C 0.11001 0.90210 0.06852
 C143 C 0.17988 0.94157 0.07741
 C144 C 0.20902 0.91440 0.09904
 C145 C 0.19746 0.81934 0.13524
 C146 C 0.26660 0.85993 0.14454
 C147 C 0.29397 0.83366 0.16762
 C148 C 0.25228 0.76766 0.18162
 C149 C 0.18328 0.72743 0.17157
 C150 C 0.15565 0.75298 0.14844
 C151 C 0.27822 0.95321 0.10864
 C152 C 0.30654 0.92641 0.13096
 C153 C 0.05857 0.74036 0.11617
 C154 C 0.08668 0.71382 0.13863
 H155 H 0.31066 1.00496 0.09900
 H156 H 0.35997 0.95829 0.13788
 H157 H 0.00499 0.70869 0.10945
 H158 H 0.05399 0.66245 0.14860
 H159 H 0.01615 0.80351 0.07455
 H160 H 0.21132 0.99362 0.06787
 H161 H 0.34704 0.86517 0.17519
 H162 H 0.15075 0.67640 0.18195
 C163 C 0.83963 0.68197 0.61387
 C164 C 0.90971 0.71333 0.60595
 C165 C 0.93775 0.76910 0.58406
 C166 C 0.89640 0.79407 0.57036
 C167 C 0.82598 0.76147 0.57841
 C168 C 0.79735 0.70535 0.60012
 C169 C 0.81022 0.62425 0.63741
 C170 C 0.74028 0.59325 0.64554
 C171 C 0.71289 0.53938 0.66844
 C172 C 0.75513 0.51697 0.68348
 C173 C 0.82511 0.54832 0.67472
 C174 C 0.85287 0.60192 0.65169
 C175 C 0.72744 0.67263 0.60867
 C176 C 0.69937 0.61746 0.63094
 C177 C 0.95054 0.68891 0.62042
 C178 C 0.92263 0.63421 0.64293
 H179 H 0.69421 0.69006 0.59819
 H180 H 0.64531 0.59396 0.63700
 H181 H 1.00469 0.71265 0.61449
 H182 H 0.95606 0.61737 0.65373
 H183 H 0.99199 0.79377 0.57817
 H184 H 0.79358 0.78002 0.56800
 H185 H 0.65906 0.51592 0.67498
 H186 H 0.85812 0.53144 0.68597
 C187 C 0.31915 0.15699 0.61121
 C188 C 0.29516 0.09014 0.59848
 C189 C 0.23860 0.06221 0.57738
 C190 C 0.20618 0.10074 0.56899
 C191 C 0.23177 0.16819 0.58166
 C192 C 0.28796 0.19640 0.60289
 C193 C 0.37717 0.18577 0.63420
 C194 C 0.39989 0.25186 0.64757
 C195 C 0.45330 0.27792 0.67033
 C196 C 0.48399 0.23839 0.67981
 C197 C 0.46159 0.17281 0.66555
 C198 C 0.40782 0.14606 0.64289
 C199 C 0.31294 0.26283 0.61634
 C200 C 0.36791 0.29006 0.63834
 C201 C 0.32768 0.05228 0.60745
 C202 C 0.38312 0.07980 0.62924
 H203 H 0.28935 0.29377 0.61006
 H204 H 0.38511 0.34120 0.64843
 H205 H 0.30980 0.00072 0.59774
 H206 H 0.40635 0.04864 0.63573
 H207 H 0.21956 0.01037 0.56774
 H208 H 0.20730 0.19837 0.57546
 H209 H 0.47025 0.32855 0.68099
 H210 H 0.48458 0.14178 0.67271
 C211 C 0.84550 0.16261 0.61361
 C212 C 0.91274 0.20453 0.60204
 C213 C 0.94036 0.17623 0.58025
 C214 C 0.90115 0.10648 0.57010
 C215 C 0.83339 0.06566 0.58168
 C216 C 0.80545 0.09334 0.60350
 C217 C 0.81683 0.19140 0.63719
 C218 C 0.75013 0.14891 0.64922
 C219 C 0.72375 0.17575 0.67228
 C220 C 0.76349 0.24465 0.68344
 C221 C 0.82998 0.28700 0.67067
 C222 C 0.85704 0.26044 0.64765
 C223 C 0.73855 0.05276 0.61575
 C224 C 0.71137 0.08007 0.63825
 C225 C 0.95121 0.27360 0.61281
 C226 C 0.92381 0.30110 0.63519
 H227 H 0.70713 -0.00074 0.60810
 H228 H 0.65975 0.04684 0.64732
 H229 H 1.00312 0.30657 0.60403
 H230 H 0.95540 0.35445 0.64302
 H231 H 0.99250 0.20822 0.57152
 H232 H 0.80264 0.01197 0.57412
 H233 H 0.67240 0.14267 0.68171
 H234 H 0.86113 0.34001 0.67908
 C235 C 0.30845 0.15435 0.88305
 C236 C 0.24821 0.09212 0.87557
 C237 C 0.19306 0.06560 0.89735
 C238 C 0.19846 0.09985 0.92678
 C239 C 0.25968 0.16145 0.93428
 C240 C 0.31460 0.18957 0.91219
 C241 C 0.36596 0.18335 0.85979
 C242 C 0.42534 0.24689 0.86663
 C243 C 0.47926 0.27495 0.84401
 C244 C 0.47448 0.23876 0.81525
 C245 C 0.41504 0.17464 0.80907
 C246 C 0.36022 0.14716 0.83103
 C247 C 0.37523 0.25248 0.91843
 C248 C 0.42946 0.28089 0.89594
 C249 C 0.24426 0.05769 0.84645
 C250 C 0.29953 0.08452 0.82465
 H251 H 0.38059 0.28029 0.94077
 H252 H 0.47505 0.32978 0.90159
 H253 H 0.19812 0.00952 0.84050
 H254 H 0.29449 0.05628 0.80249
 H255 H 0.14621 0.01784 0.89163
 H256 H 0.26378 0.18819 0.95683
 H257 H 0.52515 0.32419 0.84889
 H258 H 0.41087 0.14699 0.78679
 C259 C 0.83316 0.68006 0.88913
 C260 C 0.86778 0.67595 0.91671
 C261 C 0.89578 0.73169 0.93871
 C262 C 0.89106 0.79168 0.93246
 C263 C 0.85594 0.79461 0.90480
 C264 C 0.82630 0.73875 0.88322
 C265 C 0.80473 0.62250 0.86560
 C266 C 0.76973 0.62670 0.83824
 C267 C 0.74355 0.57246 0.81573
 C268 C 0.75368 0.51509 0.81990
 C269 C 0.78909 0.51160 0.84742
 C270 C 0.81415 0.56502 0.87059
 C271 C 0.79077 0.74091 0.85563
 C272 C 0.76256 0.68559 0.83360
 C273 C 0.87487 0.61690 0.92126
 C274 C 0.84889 0.56260 0.89850
 H275 H 0.78496 0.78588 0.85094
 H276 H 0.73572 0.68937 0.81254
 H277 H 0.90154 0.61304 0.94236
 H278 H 0.85626 0.51845 0.90274
 H279 H 0.92329 0.72961 0.95990
 H280 H 0.85179 0.84058 0.90009
 H281 H 0.71699 0.57586 0.79445
 H282 H 0.79674 0.46736 0.85082
 C283 C 0.82652 0.14801 0.88986
 C284 C 0.81009 0.07821 0.88757
 C285 C 0.84176 0.05308 0.90865
 C286 C 0.88783 0.09662 0.93244
 C287 C 0.90217 0.16578 0.93525
 C288 C 0.87261 0.19226 0.91348
 C289 C 0.79624 0.17569 0.86655
 C290 C 0.81589 0.24653 0.86750
 C291 C 0.78981 0.27333 0.84410
 C292 C 0.74301 0.22923 0.82061
 C293 C 0.72200 0.15800 0.82066
 C294 C 0.74957 0.13115 0.84320
 C295 C 0.88938 0.26235 0.91429
 C296 C 0.86197 0.28917 0.89151
 C297 C 0.76307 0.03522 0.86396
 C298 C 0.73285 0.06112 0.84232
 H299 H 0.92494 0.29706 0.93232
 H300 H 0.87720 0.34380 0.89261
 H301 H 0.74975 -0.01881 0.86211
 H302 H 0.69706 0.02634 0.82438
 H303 H 0.83059 -0.00034 0.90668
 H304 H 0.93822 0.19937 0.95345
 H305 H 0.80577 0.32823 0.84406
 H306 H 0.68659 0.12429 0.80229
 C307 C 0.68666 0.84064 0.38680
 C308 C 0.68189 0.87225 0.41540
 C309 C 0.73676 0.89847 0.43757
 C310 C 0.79656 0.89500 0.43059
 C311 C 0.80027 0.86309 0.40184
 C312 C 0.74525 0.83516 0.38003
 C313 C 0.62971 0.81361 0.36324
 C314 C 0.63437 0.78113 0.33497
 C315 C 0.58034 0.75550 0.31265
 C316 C 0.52260 0.76361 0.31795
 C317 C 0.51885 0.79701 0.34624
 C318 C 0.57212 0.82139 0.36925
 C319 C 0.74801 0.80248 0.35143
 C320 C 0.69327 0.77550 0.32936
 C321 C 0.62294 0.87803 0.42086
 C322 C 0.56920 0.85343 0.39810
 H323 H 0.79289 0.79779 0.34604
 H324 H 0.69739 0.75064 0.30757
 H325 H 0.61861 0.90244 0.44276
 H326 H 0.52500 0.85954 0.40313
 H327 H 0.73405 0.92357 0.45959
 H328 H 0.84607 0.85992 0.39651
 H329 H 0.58387 0.73053 0.29075
 H330 H 0.47432 0.80305 0.35047
 C331 C 0.15729 0.31636 0.38611
 C332 C 0.09365 0.25748 0.37916
 C333 C 0.06573 0.20212 0.40113
 C334 C 0.10014 0.20582 0.43019
 C335 C 0.16300 0.26594 0.43733
 C336 C 0.19243 0.32113 0.41502
 C337 C 0.18805 0.37364 0.36241
 C338 C 0.25293 0.43155 0.36864
 C339 C 0.28249 0.48523 0.34557
 C340 C 0.24651 0.48159 0.31699
 C341 C 0.18124 0.42348 0.31142
 C342 C 0.15214 0.36902 0.33381
 C343 C 0.25674 0.38038 0.42068
 C344 C 0.28665 0.43444 0.39781
 C345 C 0.05947 0.25474 0.35023
 C346 C 0.08804 0.30981 0.32801
 H347 H 0.28453 0.38469 0.44282
 H348 H 0.33656 0.47888 0.40301
 H349 H 0.01025 0.20963 0.34470
 H350 H 0.06001 0.30573 0.30598
 H351 H 0.01711 0.15606 0.39567
 H352 H 0.18990 0.26862 0.45958
 H353 H 0.33261 0.53010 0.35001
 H354 H 0.15363 0.42008 0.28930
 C355 C 0.16221 0.84559 0.38656
 C356 C 0.16678 0.90996 0.38003
 C357 C 0.13789 0.93653 0.40183
 C358 C 0.10593 0.90008 0.43035
 C359 C 0.10330 0.83647 0.43710
 C360 C 0.13050 0.80835 0.41491
 C361 C 0.19036 0.81628 0.36301
 C362 C 0.18350 0.75060 0.36876
 C363 C 0.20889 0.72228 0.34573
 C364 C 0.24235 0.76025 0.31769
 C365 C 0.24960 0.82640 0.31266
 C366 C 0.22295 0.85427 0.33499
 C367 C 0.12567 0.74334 0.42013
 C368 C 0.15132 0.71477 0.39736
 C369 C 0.19961 0.94628 0.35168
 C370 C 0.22764 0.91909 0.32963
 H371 H 0.10120 0.71394 0.44183
 H372 H 0.14592 0.66422 0.40219
 H373 H 0.20361 0.99611 0.34649
 H374 H 0.25258 0.94873 0.30804
 H375 H 0.14044 0.98578 0.39670
 H376 H 0.07821 0.80806 0.45895
 H377 H 0.20351 0.67145 0.34976
 H378 H 0.27463 0.85552 0.29094
   
