data_POSCAR
  _audit_creation_date              2014-09-24
  _audit_creation_method            'ToBaCCo'
  _symmetry_space_group_name_H-M    'P1'
  _symmetry_Int_Tables_number       1
  _symmetry_cell_setting            triclinic
  loop_
  _symmetry_equiv_pos_as_xyz
 x,y,z
_cell_length_a 51.2333
_cell_length_b 45.6352
_cell_length_c 48.3475
_cell_angle_alpha 88.581600
_cell_angle_beta 90.707500
_cell_angle_gamma 87.792400
loop_
  _atom_site_label
  _atom_site_type_symbol
  _atom_site_fract_x
  _atom_site_fract_y
  _atom_site_fract_z
C1 C 0.21211 1.22603 0.18365
 C2 C 0.23349 1.20594 0.18521
 C3 C 0.23614 1.18621 0.20734
 C4 C 0.21714 1.18610 0.22800
 C5 C 0.19608 1.20585 0.22638
 C6 C 0.19354 1.22599 0.20399
 C7 C 0.20410 1.24673 0.16394
 N8 N 0.18085 1.25959 0.17158
 C9 C 0.17441 1.24669 0.19626
 C10 C 0.18001 1.19944 0.24808
 N11 N 0.19055 1.17596 0.26302
 C12 C 0.21348 1.16793 0.25062
 C13 C 0.25788 1.16840 0.20259
 N14 N 0.26823 1.17676 0.17802
 C15 C 0.25343 1.19969 0.16727
 H16 H 0.21437 1.25095 0.14496
 H17 H 0.15720 1.25169 0.20821
 H18 H 0.16131 1.21043 0.25145
 H19 H 0.22676 1.15002 0.25703
 H20 H 0.26501 1.14997 0.21544
 H21 H 0.25667 1.21066 0.14756
 C22 C 0.79619 0.78769 0.19631
 C23 C 0.77507 0.80811 0.19760
 C24 C 0.77436 0.82849 0.21825
 C25 C 0.79483 0.82894 0.23774
 C26 C 0.81554 0.80888 0.23647
 C27 C 0.81617 0.78800 0.21564
 C28 C 0.80253 0.76603 0.17801
 N29 N 0.82602 0.75285 0.18565
 C30 C 0.83432 0.76651 0.20882
 C31 C 0.83315 0.81559 0.25682
 N32 N 0.82388 0.83959 0.27054
 C33 C 0.80019 0.84761 0.25877
 C34 C 0.75240 0.84630 0.21370
 N35 N 0.73972 0.83748 0.19061
 C36 C 0.75361 0.81402 0.18071
 H37 H 0.79040 0.76046 0.16063
 H38 H 0.85260 0.76216 0.21982
 H39 H 0.85190 0.80431 0.26009
 H40 H 0.78749 0.86582 0.26452
 H41 H 0.74638 0.86452 0.22634
 H42 H 0.74915 0.80263 0.16198
 C43 C 0.78496 1.21711 -0.18991
 C44 C 0.76605 1.19579 -0.19177
 C45 C 0.76667 1.17647 -0.21331
 C46 C 0.78631 1.17803 -0.23318
 C47 C 0.80497 1.19885 -0.23123
 C48 C 0.80426 1.21860 -0.20944
 C49 C 0.78966 1.23810 -0.17076
 N50 N 0.81153 1.25257 -0.17798
 C51 C 0.82044 1.24042 -0.20182
 C52 C 0.82242 1.19404 -0.25217
 N53 N 0.81503 1.17054 -0.26700
 C54 C 0.79269 1.16089 -0.25526
 C55 C 0.74675 1.15753 -0.20927
 N56 N 0.73404 1.16470 -0.18566
 C57 C 0.74585 1.18818 -0.17490
 H58 H 0.77813 1.24156 -0.15248
 H59 H 0.83733 1.24676 -0.21335
 H60 H 0.83937 1.20691 -0.25570
 H61 H 0.78210 1.14197 -0.26118
 H62 H 0.74206 1.13976 -0.22263
 H63 H 0.74085 1.19848 -0.15566
 C64 C 0.21517 0.76200 -0.17621
 C65 C 0.23601 0.78103 -0.17637
 C66 C 0.23687 0.80324 -0.19622
 C67 C 0.21698 0.80654 -0.21642
 C68 C 0.19660 0.78769 -0.21632
 C69 C 0.19565 0.76528 -0.19600
 C70 C 0.20823 0.74008 -0.15806
 N71 N 0.18472 0.72973 -0.16613
 C72 C 0.17715 0.74521 -0.18963
 C73 C 0.17968 0.79681 -0.23733
 N74 N 0.18912 0.82094 -0.25058
 C75 C 0.21212 0.82682 -0.23754
 C76 C 0.25813 0.81954 -0.19004
 N77 N 0.27032 0.80775 -0.16692
 C78 C 0.25682 0.78404 -0.15860
 H79 H 0.21973 0.73285 -0.14012
 H80 H 0.15893 0.74350 -0.20085
 H81 H 0.16159 0.78644 -0.24185
 H82 H 0.22468 0.84463 -0.24244
 H83 H 0.26351 0.83930 -0.20103
 H84 H 0.26142 0.77003 -0.14070
 C85 C 0.51874 1.05004 -0.02959
 H86 H 0.50268 1.06118 -0.01950
 C87 C 0.53648 1.06648 -0.04449
 H88 H 0.53330 1.09004 -0.04624
 C89 C 0.54248 1.00604 -0.03936
 H90 H 0.54486 0.98245 -0.03687
 C91 C 0.56088 1.02164 -0.05413
 H92 H 0.57748 1.00979 -0.06269
 N93 N 0.52190 1.02034 -0.02748
 C94 C 0.47352 1.01912 0.04140
 H95 H 0.48698 1.00452 0.05295
 C96 C 0.45388 1.03468 0.05529
 H97 H 0.45247 1.03161 0.07748
 C98 C 0.45783 1.03878 -0.00173
 H99 H 0.45914 1.03966 -0.02405
 C100 C 0.43827 1.05519 0.01134
 H101 H 0.42515 1.06930 -0.00119
 Zn102 Zn 0.49926 0.99742 -0.00593
 N103 N 0.47507 1.02137 0.01338
 C104 C 0.53890 0.98870 0.03355
 N105 N 0.52042 0.97452 0.01927
 C106 C 0.51850 0.94494 0.02171
 C107 C 0.53578 0.92840 0.03902
 C108 C 0.55680 0.97301 0.05074
 C109 C 0.48418 0.97053 -0.05608
 C110 C 0.46804 0.95380 -0.07245
 C111 C 0.44246 0.94314 -0.03203
 C112 C 0.45923 0.95974 -0.01643
 N113 N 0.47953 0.97312 -0.02860
 H114 H 0.54018 1.01221 0.03092
 H115 H 0.50380 0.93406 0.01000
 H116 H 0.53377 0.90491 0.04082
 H117 H 0.57198 0.98474 0.06096
 H118 H 0.50020 0.98164 -0.06545
 H119 H 0.47223 0.95178 -0.09422
 H120 H 0.42594 0.93358 -0.02198
 H121 H 0.45574 0.96258 0.00538
 C122 C 0.43577 1.05297 0.04025
 C123 C 0.55806 1.05235 -0.05686
 C124 C 0.44667 0.94001 -0.06051
 C125 C 0.55555 0.94235 0.05356
 C126 C -0.02746 0.54590 1.02965
 H127 H -0.00635 0.54594 1.03035
 C128 C -0.04207 0.56632 1.04463
 H129 H -0.03201 0.58218 1.05670
 C130 C -0.06609 0.52584 1.01203
 H131 H -0.07535 0.51028 0.99902
 C132 C -0.08148 0.54591 1.02670
 H133 H -0.10255 0.54520 1.02519
 N134 N -0.03958 0.52608 1.01392
 C135 C 0.01711 0.45334 1.00556
 H136 H 0.01746 0.45200 0.98326
 C137 C 0.03221 0.43342 1.02194
 H138 H 0.04405 0.41664 1.01205
 C139 C 0.00054 0.47639 1.04544
 H140 H -0.01203 0.49296 1.05453
 C141 C 0.01529 0.45684 1.06263
 H142 H 0.01426 0.45894 1.08485
 Zn143 Zn -0.01798 0.50027 0.99345
 N144 N 0.00196 0.47452 1.01746
 C145 C 0.03070 0.52011 0.97420
 N146 N 0.00427 0.52364 0.97193
 C147 C -0.00706 0.54487 0.95503
 C148 C 0.00833 0.56331 0.93919
 C149 C 0.04683 0.53802 0.95869
 C150 C -0.05350 0.45676 0.98286
 C151 C -0.06725 0.43717 0.96704
 C152 C -0.04917 0.45895 0.92582
 C153 C -0.03574 0.47809 0.94243
 N154 N -0.03812 0.47668 0.97042
 H155 H 0.03940 0.50356 0.98814
 H156 H -0.02812 0.54755 0.95400
 H157 H -0.00108 0.58032 0.92615
 H158 H 0.06781 0.53455 0.96050
 H159 H -0.05463 0.45573 1.00520
 H160 H -0.07885 0.42100 0.97741
 H161 H -0.04704 0.46045 0.90358
 H162 H -0.02303 0.49364 0.93292
 C163 C 0.03152 0.43511 1.05088
 C164 C -0.06948 0.56651 1.04328
 C165 C -0.06500 0.43794 0.93810
 C166 C 0.03568 0.56001 0.94091
 C167 C 1.04684 -0.00537 0.54629
 H168 H 1.04644 0.01830 0.54735
 C169 C 1.06136 -0.02246 0.56576
 H170 H 1.07200 -0.01172 0.58187
 C171 C 1.03219 -0.04799 0.52485
 H172 H 1.02039 -0.05789 0.50924
 C173 C 1.04647 -0.06592 0.54387
 H174 H 1.04591 -0.08951 0.54226
 N175 N 1.03264 -0.01829 0.52637
 C176 C 1.01939 0.04751 0.46026
 H177 H 0.99830 0.04757 0.45875
 C178 C 1.03339 0.06481 0.44194
 H179 H 1.02289 0.07801 0.42622
 C180 C 1.05863 0.02914 0.48193
 H181 H 1.06839 0.01490 0.49729
 C182 C 1.07342 0.04611 0.46401
 H183 H 1.09450 0.04514 0.46614
 Zn184 Zn 1.01143 0.00643 0.50263
 N185 N 1.03210 0.03026 0.47983
 C186 C 0.99007 0.05962 0.52416
 N187 N 0.98987 0.02981 0.52551
 C188 C 0.97514 0.01560 0.54439
 C189 C 0.95943 0.03142 0.56258
 C190 C 0.97469 0.07632 0.54204
 C191 C 1.00353 -0.03253 0.45985
 C192 C 0.98947 -0.04908 0.44134
 C193 C 0.94952 -0.03122 0.46223
 C194 C 0.96435 -0.01498 0.48031
 N195 N 0.99088 -0.01612 0.47899
 H196 H 1.00232 0.07052 0.50943
 H197 H 0.97577 -0.00813 0.54538
 H198 H 0.94809 0.01967 0.57767
 H199 H 0.97491 0.10002 0.54053
 H200 H 1.02462 -0.03261 0.45892
 H201 H 0.99991 -0.06170 0.42605
 H202 H 0.92845 -0.03034 0.46389
 H203 H 0.95459 -0.00136 0.49524
 C204 C 1.06080 0.06422 0.44363
 C205 C 1.06114 -0.05320 0.56484
 C206 C 0.96207 -0.04857 0.44238
 C207 C 0.95909 0.06221 0.56156
 C208 C 0.16220 0.31605 1.11780
 C209 C 0.13630 0.32423 1.12494
 C210 C 0.12593 0.31059 1.14879
 C211 C 0.14084 0.28940 1.16437
 C212 C 0.16648 0.28091 1.15678
 C213 C 0.17683 0.29496 1.13331
 C214 C 0.10058 0.31796 1.15700
 C215 C 0.08509 0.33845 1.14199
 C216 C 0.09431 0.35250 1.11787
 C217 C 0.12039 0.34530 1.10921
 C218 C 0.12959 0.35920 1.08499
 C219 C 0.11397 0.37924 1.06965
 C220 C 0.08855 0.38638 1.07769
 C221 C 0.07830 0.37334 1.10197
 C222 C 0.05236 0.38172 1.10913
 C223 C 0.03740 0.40179 1.09272
 C224 C 0.04762 0.41425 1.06863
 C225 C 0.07331 0.40651 1.06137
 H226 H 0.17197 0.32551 1.10035
 H227 H 0.13184 0.27921 1.18205
 H228 H 0.19656 0.29027 1.12670
 H229 H 0.09251 0.30767 1.17528
 H230 H 0.06579 0.34263 1.14988
 H231 H 0.14885 0.35500 1.07704
 H232 H 0.12190 0.38919 1.05114
 H233 H 0.04290 0.37315 1.12719
 H234 H 0.01752 0.40721 1.09869
 H235 H 0.08158 0.41641 1.04301
 C236 C -0.12507 0.69352 1.17084
 C237 C -0.13316 0.68428 1.14449
 C238 C -0.15566 0.69860 1.13238
 C239 C -0.16925 0.72113 1.14619
 C240 C -0.16091 0.73042 1.17235
 C241 C -0.13859 0.71599 1.18434
 C242 C -0.16451 0.69058 1.10636
 C243 C -0.15141 0.66884 1.09182
 C244 C -0.12873 0.65400 1.10276
 C245 C -0.11964 0.66158 1.12971
 C246 C -0.09732 0.64627 1.14094
 C247 C -0.08404 0.62474 1.12631
 C248 C -0.09229 0.61754 1.09986
 C249 C -0.11478 0.63189 1.08765
 C250 C -0.12214 0.62361 1.06066
 C251 C -0.10764 0.60230 1.04657
 C252 C -0.08535 0.58844 1.05873
 C253 C -0.07794 0.59607 1.08551
 H254 H -0.10824 0.68399 1.18174
 H255 H -0.18600 0.73171 1.13582
 H256 H -0.13138 0.72145 1.20457
 H257 H -0.18178 0.70137 1.09700
 H258 H -0.15970 0.66419 1.07192
 H259 H -0.08945 0.65032 1.16116
 H260 H -0.06693 0.61372 1.13579
 H261 H -0.13879 0.63334 1.04960
 H262 H -0.11364 0.59713 1.02575
 H263 H -0.06094 0.58517 1.09532
 C264 C -0.17873 0.31016 0.87352
 C265 C -0.15385 0.32036 0.86666
 C266 C -0.14096 0.30726 0.84408
 C267 C -0.15259 0.28500 0.82924
 C268 C -0.17731 0.27475 0.83632
 C269 C -0.19010 0.28795 0.85873
 C270 C -0.11633 0.31625 0.83640
 C271 C -0.10393 0.33776 0.85079
 C272 C -0.11572 0.35139 0.87364
 C273 C -0.14126 0.34283 0.88150
 C274 C -0.15332 0.35698 0.90394
 C275 C -0.14082 0.37833 0.91849
 C276 C -0.11578 0.38647 0.91149
 C277 C -0.10281 0.37324 0.88895
 C278 C -0.07731 0.38232 0.88293
 C279 C -0.06536 0.40337 0.89868
 C280 C -0.07826 0.41624 0.92095
 C281 C -0.10357 0.40773 0.92712
 H282 H -0.19006 0.31874 0.89030
 H283 H -0.14170 0.27540 0.81253
 H284 H -0.20929 0.28169 0.86501
 H285 H -0.10639 0.30641 0.81905
 H286 H -0.08499 0.34323 0.84329
 H287 H -0.17259 0.35214 0.91090
 H288 H -0.15087 0.38846 0.93562
 H289 H -0.06580 0.37340 0.86645
 H290 H -0.04562 0.40913 0.89370
 H291 H -0.11388 0.41778 0.94412
 C292 C 0.16359 0.67789 0.88865
 C293 C 0.14015 0.66757 0.87742
 C294 C 0.13272 0.67766 0.85044
 C295 C 0.14778 0.69788 0.83590
 C296 C 0.17068 0.70885 0.84760
 C297 C 0.17842 0.69798 0.87410
 C298 C 0.11014 0.66771 0.83799
 C299 C 0.09449 0.64815 0.85181
 C300 C 0.10067 0.63778 0.87896
 C301 C 0.12387 0.64772 0.89202
 C302 C 0.12979 0.63784 0.91938
 C303 C 0.11374 0.61901 0.93354
 C304 C 0.09118 0.60906 0.92112
 C305 C 0.08431 0.61806 0.89361
 C306 C 0.06123 0.60696 0.88207
 C307 C 0.04568 0.58818 0.89735
 C308 C 0.05248 0.57969 0.92460
 C309 C 0.07535 0.59021 0.93628
 H310 H 0.17115 0.67104 0.90874
 H311 H 0.14142 0.70468 0.81527
 H312 H 0.19571 0.70526 0.88441
 H313 H 0.10438 0.67524 0.81728
 H314 H 0.07741 0.64186 0.84060
 H315 H 0.14664 0.64450 0.93077
 H316 H 0.11906 0.61219 0.95457
 H317 H 0.05459 0.61217 0.86126
 H318 H 0.02836 0.58000 0.88761
 H319 H 0.08067 0.58411 0.95749
 C320 C 1.17745 0.11994 0.31740
 C321 C 1.15457 0.13164 0.32976
 C322 C 1.14489 0.15953 0.32001
 C323 C 1.15720 0.17438 0.29827
 C324 C 1.17943 0.16210 0.28534
 C325 C 1.18953 0.13482 0.29579
 C326 C 1.12276 0.17253 0.33179
 C327 C 1.10957 0.15825 0.35272
 C328 C 1.11792 0.13007 0.36277
 C329 C 1.14089 0.11659 0.35121
 C330 C 1.14915 0.08832 0.36113
 C331 C 1.13534 0.07351 0.38125
 C332 C 1.11281 0.08615 0.39247
 C333 C 1.10384 0.11472 0.38370
 C334 C 1.08093 0.12649 0.39607
 C335 C 1.06735 0.11027 0.41565
 C336 C 1.07604 0.08185 0.42375
 C337 C 1.09900 0.07008 0.41224
 H338 H 1.18654 0.09916 0.32371
 H339 H 1.14923 0.19575 0.29179
 H340 H 1.20648 0.12404 0.28698
 H341 H 1.11535 0.19398 0.32456
 H342 H 1.09261 0.16993 0.36035
 H343 H 1.16615 0.07667 0.35354
 H344 H 1.14233 0.05172 0.38795
 H345 H 1.07282 0.14811 0.39112
 H346 H 1.04994 0.12014 0.42459
 H347 H 1.10580 0.04799 0.41813
 C348 C 1.17668 -0.12187 0.69440
 C349 C 1.15277 -0.13017 0.68257
 C350 C 1.14149 -0.15564 0.69370
 C351 C 1.15373 -0.17188 0.71562
 C352 C 1.17746 -0.16337 0.72753
 C353 C 1.18866 -0.13806 0.71627
 C354 C 1.11788 -0.16490 0.68302
 C355 C 1.10486 -0.14920 0.66178
 C356 C 1.11501 -0.12341 0.65013
 C357 C 1.13961 -0.11400 0.66035
 C358 C 1.15018 -0.08879 0.64802
 C359 C 1.13707 -0.07296 0.62689
 C360 C 1.11282 -0.08137 0.61720
 C361 C 1.10138 -0.10671 0.62858
 C362 C 1.07658 -0.11400 0.61808
 C363 C 1.06386 -0.09683 0.59736
 C364 C 1.07527 -0.07183 0.58625
 C365 C 1.09988 -0.06435 0.59624
 H366 H 1.18667 -0.10275 0.68750
 H367 H 1.14429 -0.19119 0.72314
 H368 H 1.20676 -0.13010 0.72419
 H369 H 1.10921 -0.18450 0.69131
 H370 H 1.08682 -0.15808 0.65490
 H371 H 1.16875 -0.08059 0.65413
 H372 H 1.14597 -0.05370 0.61816
 H373 H 1.06615 -0.13253 0.62563
 H374 H 1.04466 -0.10286 0.59044
 H375 H 1.10905 -0.04523 0.58760
 C376 C 0.84048 -0.10371 0.32076
 C377 C 0.86418 -0.11520 0.33266
 C378 C 0.87341 -0.14309 0.32397
 C379 C 0.85976 -0.15819 0.30371
 C380 C 0.83656 -0.14619 0.29130
 C381 C 0.82706 -0.11883 0.30064
 C382 C 0.89636 -0.15586 0.33539
 C383 C 0.91067 -0.14146 0.35507
 C384 C 0.90267 -0.11338 0.36413
 C385 C 0.87903 -0.10000 0.35272
 C386 C 0.87123 -0.07172 0.36145
 C387 C 0.88592 -0.05693 0.38051
 C388 C 0.90893 -0.06962 0.39181
 C389 C 0.91765 -0.09808 0.38401
 C390 C 0.94111 -0.10986 0.39641
 C391 C 0.95528 -0.09388 0.41529
 C392 C 0.94667 -0.06566 0.42262
 C393 C 0.92337 -0.05376 0.41081
 H394 H 0.83165 -0.08295 0.32636
 H395 H 0.86746 -0.17953 0.29802
 H396 H 0.80946 -0.10822 0.29215
 H397 H 0.90349 -0.17727 0.32893
 H398 H 0.92817 -0.15299 0.36255
 H399 H 0.85389 -0.06005 0.35375
 H400 H 0.87918 -0.03518 0.38641
 H401 H 0.94913 -0.13139 0.39211
 H402 H 0.97298 -0.10384 0.42444
 H403 H 0.91666 -0.03179 0.41604
 C404 C 0.83124 0.12147 0.67518
 C405 C 0.85657 0.12991 0.66789
 C406 C 0.86710 0.15349 0.68226
 C407 C 0.85308 0.16725 0.70345
 C408 C 0.82819 0.15805 0.71128
 C409 C 0.81748 0.13518 0.69631
 C410 C 0.89182 0.16313 0.67570
 C411 C 0.90662 0.14964 0.65547
 C412 C 0.89736 0.12561 0.64090
 C413 C 0.87183 0.11566 0.64710
 C414 C 0.86260 0.09154 0.63262
 C415 C 0.87777 0.07734 0.61311
 C416 C 0.90273 0.08649 0.60708
 C417 C 0.91288 0.11092 0.62060
 C418 C 0.93830 0.11934 0.61335
 C419 C 0.95298 0.10380 0.59403
 C420 C 0.94297 0.07938 0.58121
 C421 C 0.91769 0.07106 0.58768
 H422 H 0.82133 0.10427 0.66503
 H423 H 0.86227 0.18470 0.71412
 H424 H 0.79820 0.12758 0.70046
 H425 H 0.89996 0.18129 0.68651
 H426 H 0.92548 0.15852 0.65198
 H427 H 0.84370 0.08272 0.63604
 H428 H 0.86989 0.05875 0.60276
 H429 H 0.94762 0.13766 0.62230
 H430 H 0.97255 0.11058 0.58957
 H431 H 0.90958 0.05248 0.57752
 C432 C 0.33345 1.13932 0.16674
 C433 C 0.33295 1.13470 0.13785
 C434 C 0.30989 1.14359 0.12288
 C435 C 0.28896 1.15780 0.13617
 C436 C 0.28996 1.16251 0.16463
 C437 C 0.31217 1.15283 0.17984
 C438 C 0.30771 1.13816 0.09473
 C439 C 0.32769 1.12339 0.08106
 C440 C 0.35109 1.11412 0.09492
 C441 C 0.35427 1.12113 0.12343
 C442 C 0.37881 1.11496 0.13633
 C443 C 0.39932 1.10172 0.12213
 C444 C 0.39601 1.09317 0.09485
 C445 C 0.37169 1.09866 0.08103
 C446 C 0.36883 1.08788 0.05402
 C447 C 0.38948 1.07312 0.04112
 C448 C 0.41388 1.06878 0.05437
 C449 C 0.41691 1.07896 0.08136
 H450 H 0.34970 1.13214 0.17989
 H451 H 0.27150 1.16464 0.12446
 H452 H 0.31317 1.15607 0.20194
 H453 H 0.29020 1.14510 0.08316
 H454 H 0.32449 1.12037 0.05927
 H455 H 0.38305 1.12095 0.15728
 H456 H 0.41790 1.09773 0.13280
 H457 H 0.35062 1.08961 0.04261
 H458 H 0.38602 1.06455 0.02078
 H459 H 0.43559 1.07595 0.09198
 C460 C 0.68765 1.10522 -0.16847
 C461 C 0.67106 1.11862 -0.14886
 C462 C 0.67609 1.14777 -0.14155
 C463 C 0.69631 1.16295 -0.15414
 C464 C 0.71261 1.14936 -0.17355
 C465 C 0.70802 1.12031 -0.18043
 C466 C 0.66107 1.16164 -0.12150
 C467 C 0.64164 1.14693 -0.10780
 C468 C 0.63599 1.11779 -0.11410
 C469 C 0.65010 1.10390 -0.13587
 C470 C 0.64256 1.07597 -0.14416
 C471 C 0.62261 1.06160 -0.13100
 C472 C 0.60978 1.07405 -0.10864
 C473 C 0.61642 1.10217 -0.09962
 C474 C 0.60357 1.11317 -0.07606
 C475 C 0.58476 1.09708 -0.06245
 C476 C 0.57784 1.06957 -0.07182
 C477 C 0.59043 1.05832 -0.09511
 H478 H 0.68596 1.08278 -0.17443
 H479 H 0.69929 1.18544 -0.14868
 H480 H 0.72054 1.10876 -0.19470
 H481 H 0.66465 1.18404 -0.11600
 H482 H 0.63094 1.15935 -0.09271
 H483 H 0.65134 1.06481 -0.16128
 H484 H 0.61746 1.04022 -0.13816
 H485 H 0.60815 1.13373 -0.06706
 H486 H 0.57602 1.10604 -0.04405
 H487 H 0.58519 1.03721 -0.10281
 C488 C 0.31883 0.82357 -0.11075
 C489 C 0.33541 0.84344 -0.12404
 C490 C 0.32977 0.85136 -0.15207
 C491 C 0.30892 0.83898 -0.16622
 C492 C 0.29256 0.81936 -0.15272
 C493 C 0.29782 0.81194 -0.12481
 C494 C 0.34475 0.87191 -0.16578
 C495 C 0.36460 0.88573 -0.15200
 C496 C 0.37076 0.87893 -0.12396
 C497 C 0.35684 0.85633 -0.11023
 C498 C 0.36494 0.84719 -0.08326
 C499 C 0.38496 0.86072 -0.06955
 C500 C 0.39736 0.88426 -0.08185
 C501 C 0.39047 0.89384 -0.10919
 C502 C 0.40307 0.91852 -0.12023
 C503 C 0.42149 0.93303 -0.10465
 C504 C 0.42826 0.92339 -0.07766
 C505 C 0.41636 0.89859 -0.06666
 H506 H 0.32094 0.81730 -0.08919
 H507 H 0.30542 0.84489 -0.18780
 H508 H 0.28534 0.79760 -0.11336
 H509 H 0.34074 0.87785 -0.18731
 H510 H 0.37515 0.90134 -0.16412
 H511 H 0.35647 0.82916 -0.07226
 H512 H 0.39041 0.85302 -0.04881
 H513 H 0.39846 0.92790 -0.14044
 H514 H 0.42985 0.95248 -0.11357
 H515 H 0.42164 0.89055 -0.04598
 C516 C 0.68684 0.89425 0.17190
 C517 C 0.67155 0.87976 0.15231
 C518 C 0.67955 0.85075 0.14558
 C519 C 0.70141 0.83676 0.15874
 C520 C 0.71649 0.85146 0.17807
 C521 C 0.70888 0.88039 0.18436
 C522 C 0.66589 0.83593 0.12547
 C523 C 0.64505 0.84963 0.11101
 C524 C 0.63654 0.87865 0.11663
 C525 C 0.64911 0.89334 0.13863
 C526 C 0.63869 0.92098 0.14639
 C527 C 0.61759 0.93451 0.13226
 C528 C 0.60641 0.92146 0.10944
 C529 C 0.61575 0.89343 0.10115
 C530 C 0.60438 0.88179 0.07715
 C531 C 0.58473 0.89743 0.06215
 C532 C 0.57542 0.92505 0.07058
 C533 C 0.58616 0.93664 0.09460
 H534 H 0.68288 0.91671 0.17738
 H535 H 0.70669 0.81435 0.15369
 H536 H 0.72027 0.89284 0.19852
 H537 H 0.67172 0.81362 0.12043
 H538 H 0.63563 0.83660 0.09583
 H539 H 0.64611 0.93257 0.16378
 H540 H 0.61031 0.95577 0.13894
 H541 H 0.61090 0.86117 0.06876
 H542 H 0.57739 0.88813 0.04333
 H543 H 0.57899 0.95778 0.10167
   
