data_POSCAR
  _audit_creation_date              2014-09-24
  _audit_creation_method            'ToBaCCo'
  _symmetry_space_group_name_H-M    'P1'
  _symmetry_Int_Tables_number       1
  _symmetry_cell_setting            triclinic
  loop_
  _symmetry_equiv_pos_as_xyz
 x,y,z
_cell_length_a 24.7021
_cell_length_b 24.6692
_cell_length_c 31.9238
_cell_angle_alpha 90.439300
_cell_angle_beta 89.704800
_cell_angle_gamma 120.001600
loop_
  _atom_site_label
  _atom_site_type_symbol
  _atom_site_fract_x
  _atom_site_fract_y
  _atom_site_fract_z
C1 C 0.05408 0.54442 1.33761
 C2 C -0.00281 0.51697 1.35968
 C3 C -0.06044 0.48899 1.33865
 C4 C -0.06150 0.47957 1.29455
 C5 C -0.00454 0.50105 1.27229
 C6 C 0.05340 0.53409 1.29372
 C7 C 0.10893 0.55164 1.27117
 C8 C 0.10800 0.54045 1.22842
 C9 C 0.05142 0.50980 1.20641
 C10 C -0.00549 0.48889 1.22846
 C11 C -0.11803 0.44550 1.27242
 C12 C -0.11885 0.43536 1.22958
 C13 C -0.06326 0.45521 1.20684
 C14 C -0.06349 0.44524 1.16283
 C15 C -0.00632 0.47095 1.14137
 C16 C 0.05042 0.49984 1.16280
 H17 H 0.15393 0.57238 1.28636
 H18 H 0.15231 0.55602 1.21277
 H19 H -0.16293 0.42451 1.28780
 H20 H -0.16413 0.41226 1.21476
 H21 H -0.00210 0.52522 1.39315
 H22 H -0.00569 0.46291 1.10795
 C23 C 0.56090 0.50549 1.16341
 C24 C 0.53541 0.53814 1.14405
 C25 C 0.49987 0.55805 1.16659
 C26 C 0.48678 0.54255 1.20945
 C27 C 0.51131 0.50816 1.22938
 C28 C 0.54935 0.49047 1.20638
 C29 C 0.57530 0.45881 1.22696
 C30 C 0.56358 0.44398 1.26925
 C31 C 0.52381 0.45849 1.29265
 C32 C 0.49868 0.49240 1.27252
 C33 C 0.44953 0.56005 1.23275
 C34 C 0.43679 0.54435 1.27490
 C35 C 0.46128 0.51103 1.29541
 C36 C 0.45000 0.49664 1.33839
 C37 C 0.47696 0.46572 1.35835
 C38 C 0.51177 0.44405 1.33613
 H39 H 0.60567 0.44581 1.21060
 H40 H 0.58801 0.42274 1.28331
 H41 H 0.42969 0.58588 1.21848
 H42 H 0.40809 0.55928 1.29148
 H43 H 0.54569 0.55063 1.11128
 H44 H 0.46627 0.45425 1.39120
 C45 C 0.48988 0.94516 1.33622
 C46 C 0.52115 1.00210 1.35841
 C47 C 0.55153 1.05986 1.33759
 C48 C 0.54220 1.06127 1.29373
 C49 C 0.50516 1.00448 1.27141
 C50 C 0.47960 0.94626 1.29251
 C51 C 0.44034 0.89101 1.26990
 C52 C 0.42931 0.89240 1.22741
 C53 C 0.45564 0.94921 1.20574
 C54 C 0.49293 1.00592 1.22789
 C55 C 0.56515 1.11809 1.27201
 C56 C 0.55462 1.11934 1.22948
 C57 C 0.51732 1.06401 1.20671
 C58 C 0.50627 1.06474 1.16300
 C59 C 0.47331 1.00766 1.14137
 C60 C 0.44560 0.95065 1.16240
 H61 H 0.41566 0.84591 1.28489
 H62 H 0.39946 0.84829 1.21170
 H63 H 0.59033 1.16294 1.28751
 H64 H 0.57713 1.16476 1.21491
 H65 H 0.52924 1.00111 1.39169
 H66 H 0.46380 1.00735 1.10819
 C67 C 1.06281 0.50204 0.83716
 C68 C 1.00515 0.47075 0.85814
 C69 C 0.94854 0.44584 0.83644
 C70 C 0.94861 0.45817 0.79327
 C71 C 1.00624 0.49315 0.77183
 C72 C 1.06350 0.51431 0.79355
 C73 C 1.11971 0.55034 0.77147
 C74 C 1.11997 0.56270 0.72913
 C75 C 1.06406 0.54312 0.70700
 C76 C 1.00653 0.50715 0.72856
 C77 C 0.89244 0.43804 0.77130
 C78 C 0.89274 0.45128 0.72900
 C79 C 0.94921 0.48542 0.70701
 C80 C 0.94975 0.49760 0.66385
 C81 C 1.00647 0.52953 0.64237
 C82 C 1.06384 0.55545 0.66349
 H83 H 1.16477 0.57094 0.78645
 H84 H 1.16515 0.58702 0.71419
 H85 H 0.84753 0.41256 0.78672
 H86 H 0.84813 0.43413 0.71357
 H87 H 1.00395 0.46015 0.89118
 H88 H 1.00549 0.53931 0.60939
 C89 C 0.49642 0.44605 0.66248
 C90 C 0.46287 0.46985 0.64224
 C91 C 0.44229 0.50576 0.66375
 C92 C 0.45722 0.52008 0.70669
 C93 C 0.49266 0.49746 0.72740
 C94 C 0.51216 0.46009 0.70522
 C95 C 0.54646 0.43743 0.72638
 C96 C 0.56166 0.45142 0.76853
 C97 C 0.54314 0.48865 0.79116
 C98 C 0.50790 0.51151 0.77049
 C99 C 0.43840 0.55698 0.72933
 C100 C 0.45288 0.57031 0.77162
 C101 C 0.48776 0.54825 0.79284
 C102 C 0.50187 0.56072 0.83602
 C103 C 0.53516 0.53640 0.85618
 C104 C 0.55747 0.50227 0.83418
 H105 H 0.56186 0.40858 0.71046
 H106 H 0.58728 0.43184 0.78334
 H107 H 0.41235 0.57614 0.71459
 H108 H 0.43581 0.59768 0.78755
 H109 H 0.45022 0.45787 0.60959
 H110 H 0.54685 0.54713 0.88906
 C111 C 0.44053 -0.06444 0.83719
 C112 C 0.46463 -0.00717 0.85882
 C113 C 0.49511 0.05004 0.83779
 C114 C 0.50797 0.05132 0.79453
 C115 C 0.48747 -0.00570 0.77241
 C116 C 0.45305 -0.06384 0.79349
 C117 C 0.43618 -0.11931 0.77077
 C118 C 0.44965 -0.11806 0.72835
 C119 C 0.48285 -0.06120 0.70692
 C120 C 0.50219 -0.00445 0.72914
 C121 C 0.54278 0.10832 0.77315
 C122 C 0.55715 0.10944 0.73087
 C123 C 0.53736 0.05361 0.70831
 C124 C 0.55170 0.05426 0.66537
 C125 C 0.53010 -0.00199 0.64350
 C126 C 0.49721 -0.05947 0.66380
 H127 H 0.41410 -0.16463 0.78545
 H128 H 0.43408 -0.16243 0.71265
 H129 H 0.56043 0.15284 0.78909
 H130 H 0.58403 0.15458 0.71597
 H131 H 0.45463 -0.00687 0.89192
 H132 H 0.54213 -0.00089 0.61065
 O133 O 0.43530 0.70388 0.95471
 O134 O 0.39738 0.78399 0.96736
 C135 C 0.35040 0.77267 0.94494
 O136 O 0.29552 0.72900 0.95292
 O137 O 0.21454 0.61175 0.96711
 C138 C 0.22546 0.57511 0.94514
 O139 O 0.26945 0.56461 0.95321
 O140 O 0.38637 0.60144 0.96715
 C141 C 0.42388 0.64905 0.94588
 O142 O 0.44392 0.69257 1.03902
 O143 O 0.40129 0.76857 1.05052
 C144 C 0.35677 0.77873 1.05783
 O145 O 0.30640 0.75362 1.03664
 O146 O 0.23048 0.63486 1.04975
 C147 C 0.22082 0.58053 1.05780
 O148 O 0.24573 0.55424 1.03709
 O149 O 0.36396 0.59628 1.05028
 C150 C 0.41730 0.64170 1.05963
 Cr151 Cr 0.41642 0.73455 1.00287
 Cr152 Cr 0.26441 0.68193 1.00165
 Cr153 Cr 0.31682 0.58220 1.00197
 O154 O 0.33260 0.66621 1.00263
 O155 O 0.60023 0.38469 0.96076
 O156 O 0.56194 0.26600 0.95084
 C157 C 0.57501 0.22376 0.94176
 O158 O 0.61591 0.21699 0.96118
 O159 O 0.73340 0.29765 0.94912
 C160 C 0.77603 0.35273 0.94051
 O161 O 0.78411 0.40038 0.96104
 O162 O 0.70298 0.43637 0.94847
 C163 C 0.64772 0.42314 0.93970
 O164 O 0.59731 0.36958 1.04464
 O165 O 0.55560 0.25105 1.03542
 C166 C 0.58165 0.22534 1.05469
 O167 O 0.63399 0.23169 1.04425
 O168 O 0.75208 0.30894 1.03355
 C169 C 0.77694 0.36051 1.05359
 O170 O 0.76973 0.40618 1.04391
 O171 O 0.69352 0.44827 1.03238
 C172 C 0.64284 0.42324 1.05312
 Cr173 Cr 0.58213 0.31839 0.99781
 Cr174 Cr 0.68334 0.26666 0.99697
 Cr175 Cr 0.73474 0.41942 0.99644
 O176 O 0.66664 0.33471 0.99726
 O177 O 0.63598 0.40241 0.55100
 O178 O 0.75448 0.44325 0.53916
 C179 C 0.77860 0.41647 0.55961
 O180 O 0.76823 0.36188 0.55111
 O181 O 0.68950 0.24393 0.53813
 C182 C 0.63888 0.22145 0.55917
 O183 O 0.59472 0.23161 0.55039
 O184 O 0.55442 0.30915 0.53519
 C185 C 0.58056 0.35874 0.55743
 O186 O 0.61631 0.39795 0.46756
 O187 O 0.73389 0.43353 0.45511
 C188 C 0.77679 0.42112 0.44691
 O189 O 0.78574 0.38312 0.46837
 O190 O 0.70348 0.26621 0.45400
 C191 C 0.64857 0.22255 0.44611
 O192 O 0.60182 0.21286 0.46824
 O193 O 0.56932 0.29620 0.45188
 C194 C 0.58169 0.35154 0.44404
 Cr195 Cr 0.68471 0.41630 0.50320
 Cr196 Cr 0.73415 0.31418 0.50290
 Cr197 Cr 0.58305 0.26503 0.50148
 O198 O 0.66748 0.33194 0.50305
 O199 O 0.29712 0.56779 0.54676
 O200 O 0.21460 0.60156 0.53261
 C201 C 0.22496 0.64862 0.55482
 O202 O 0.26788 0.70352 0.54656
 O203 O 0.38392 0.78506 0.53310
 C204 C 0.42254 0.77600 0.55370
 O205 O 0.43559 0.73398 0.54421
 O206 O 0.39915 0.61659 0.53243
 C207 C 0.35234 0.58059 0.55504
 O208 O 0.30838 0.55393 0.46321
 O209 O 0.23073 0.59492 0.45024
 C210 C 0.22059 0.63919 0.44195
 O211 O 0.24494 0.69071 0.46231
 O212 O 0.36315 0.76966 0.45018
 C213 C 0.41680 0.77867 0.44062
 O214 O 0.44352 0.75347 0.45992
 O215 O 0.40260 0.63474 0.44882
 C216 C 0.35882 0.57947 0.44199
 Cr217 Cr 0.26543 0.58269 0.49811
 Cr218 Cr 0.31536 0.73455 0.49795
 Cr219 Cr 0.41709 0.68426 0.49633
 O220 O 0.33273 0.66732 0.49680
 N221 N 0.32171 0.49012 0.39441
 N222 N 0.34427 0.46723 0.36593
 C223 C 0.40604 0.50829 0.36289
 C224 C 0.42095 0.55681 0.39058
 N225 N 0.36699 0.54381 0.40952
 H226 H 0.46669 0.59636 0.39737
 N227 N 0.46133 0.79815 0.37084
 N228 N 0.47806 0.84083 0.34112
 C229 C 0.47427 0.88941 0.35769
 C230 C 0.45569 0.87533 0.39902
 N231 N 0.44789 0.81810 0.40577
 H232 H 0.44547 0.90233 0.42131
 N233 N 0.19944 0.66506 0.37325
 N234 N 0.15672 0.63881 0.34347
 C235 C 0.10930 0.58540 0.35939
 C236 C 0.12403 0.58053 0.40037
 N237 N 0.18054 0.63079 0.40756
 H238 H 0.09810 0.54251 0.42204
 N239 N 0.54847 0.33132 0.37129
 N240 N 0.53212 0.35666 0.34096
 C241 C 0.53018 0.40610 0.35774
 C242 C 0.54508 0.40942 0.39985
 N243 N 0.55661 0.36244 0.40680
 H244 H 0.54938 0.44388 0.42282
 N245 N 0.67439 0.20200 0.37649
 N246 N 0.64836 0.16023 0.34596
 C247 C 0.59344 0.11361 0.36070
 C248 C 0.58753 0.12773 0.40191
 N249 N 0.63845 0.18352 0.41023
 H250 H 0.54849 0.10189 0.42295
 N251 N 0.79703 0.46765 0.37787
 N252 N 0.83881 0.48408 0.34742
 C253 C 0.88553 0.47581 0.36175
 C254 C 0.87144 0.45503 0.40266
 N255 N 0.81558 0.44975 0.41115
 H256 H 0.89753 0.44197 0.42340
 N257 N 0.68501 0.50525 1.10646
 N258 N 0.66499 0.52721 1.13722
 C259 C 0.60219 0.49131 1.13798
 C260 C 0.58409 0.44719 1.10648
 N261 N 0.63715 0.45735 1.08766
 H262 H 0.53706 0.41258 1.09730
 N263 N 0.79186 0.33016 1.12262
 N264 N 0.83265 0.35345 1.15374
 C265 C 0.88169 0.40736 1.13987
 C266 C 0.86996 0.41572 1.09884
 N267 N 0.81358 0.36691 1.08953
 H268 H 0.89823 0.45470 1.07836
 N269 N 0.53846 0.21105 1.12471
 N270 N 0.52097 0.16997 1.15554
 C271 C 0.52368 0.12001 1.14056
 C272 C 0.54243 0.13156 1.09914
 N273 N 0.55138 0.18868 1.09070
 H274 H 0.55153 0.10267 1.07781
 N275 N 0.49096 0.68251 1.11782
 N276 N 0.51189 0.66145 1.14818
 C277 C 0.48135 0.59852 1.14455
 C278 C 0.44177 0.58162 1.11064
 N279 N 0.44901 0.63527 1.09495
 H280 H 0.41279 0.53527 1.09752
 N281 N 0.17961 0.50077 1.11204
 N282 N 0.13564 0.47922 1.14134
 C283 C 0.10701 0.51349 1.13902
 C284 C 0.13418 0.55629 1.10731
 N285 N 0.17938 0.54697 1.09141
 H286 H 0.12135 0.58969 1.09618
 N287 N 0.31762 0.82431 1.10939
 N288 N 0.33969 0.86883 1.13850
 C289 C 0.40236 0.89423 1.13845
 C290 C 0.41826 0.86458 1.10827
 N291 N 0.36410 0.82114 1.09098
 H292 H 0.46461 0.87482 1.09891
 N293 N 0.49175 0.31976 0.60505
 N294 N 0.46870 0.34113 0.63421
 C295 C 0.50966 0.40282 0.63849
 C296 C 0.55815 0.41899 0.61070
 N297 N 0.54529 0.36578 0.59056
 H298 H 0.59717 0.46519 0.60433
 N299 N 0.67811 0.18498 0.61573
 N300 N 0.65630 0.14228 0.64566
 C301 C 0.59344 0.11224 0.64284
 C302 C 0.57721 0.13711 0.61004
 N303 N 0.63134 0.18245 0.59409
 H304 H 0.53096 0.12197 0.59782
 N305 N 0.82018 0.49633 0.61443
 N306 N 0.86428 0.51793 0.64354
 C307 C 0.89254 0.48330 0.64083
 C308 C 0.86497 0.44018 0.60900
 N309 N 0.81993 0.44971 0.59346
 H310 H 0.87769 0.40670 0.59738
 N311 N 0.32062 0.52730 0.62209
 N312 N 0.34361 0.50841 0.65244
 C313 C 0.40210 0.52382 0.64075
 C314 C 0.41404 0.55199 0.60202
 N315 N 0.36214 0.55345 0.59160
 H316 H 0.45596 0.56913 0.58318
 N317 N 0.48321 0.80180 0.61796
 N318 N 0.50245 0.84376 0.64866
 C319 C 0.48219 0.88385 0.63933
 C320 C 0.45075 0.86586 0.60173
 N321 N 0.45222 0.81436 0.58956
 H322 H 0.42896 0.88792 0.58498
 N323 N 0.20862 0.67370 0.62567
 N324 N 0.16725 0.64850 0.65634
 C325 C 0.11843 0.59553 0.64093
 C326 C 0.13084 0.58989 0.59933
 N327 N 0.18769 0.63903 0.59134
 H328 H 0.10283 0.55225 0.57765
 N329 N 0.48420 0.68391 0.88129
 N330 N 0.50436 0.66165 0.85082
 C331 C 0.48593 0.60181 0.86066
 C332 C 0.45448 0.58823 0.89842
 N333 N 0.45421 0.64061 0.91011
 H334 H 0.43367 0.54463 0.91551
 N335 N 0.20794 0.53026 0.87524
 N336 N 0.16607 0.51237 0.84485
 C337 C 0.11734 0.51701 0.85992
 C338 C 0.13035 0.53715 0.90113
 N339 N 0.18754 0.54569 0.90913
 H340 H 0.10258 0.54776 0.92242
 N341 N 0.32625 0.78800 0.87397
 N342 N 0.35058 0.82988 0.84366
 C343 C 0.40203 0.88005 0.85943
 C344 C 0.40764 0.86775 0.90095
 N345 N 0.36000 0.80973 0.90847
 H346 H 0.44417 0.89683 0.92293
 N347 N 0.68046 0.48151 0.87443
 N348 N 0.65747 0.50195 0.84504
 C349 C 0.59853 0.48488 0.85673
 C350 C 0.58624 0.45396 0.89440
 N351 N 0.63840 0.45262 0.90424
 H352 H 0.54375 0.43458 0.91283
 N353 N 0.80607 0.31966 0.87658
 N354 N 0.85053 0.34342 0.84764
 C355 C 0.89054 0.40311 0.85920
 C356 C 0.86973 0.41509 0.89630
 N357 N 0.81682 0.36200 0.90596
 H358 H 0.89069 0.45822 0.91429
 N359 N 0.50831 0.19076 0.87994
 N360 N 0.48702 0.14576 0.85119
 C361 C 0.50893 0.10727 0.86137
 C362 C 0.54385 0.12962 0.89739
 N363 N 0.54256 0.18190 0.90783
 H364 H 0.56834 0.11026 0.91403
   
