data_POSCAR
  _audit_creation_date              2014-09-24
  _audit_creation_method            'ToBaCCo'
  _symmetry_space_group_name_H-M    'P1'
  _symmetry_Int_Tables_number       1
  _symmetry_cell_setting            triclinic
  loop_
  _symmetry_equiv_pos_as_xyz
 x,y,z
_cell_length_a 50.5662
_cell_length_b 37.6939
_cell_length_c 44.1013
_cell_angle_alpha 90.038700
_cell_angle_beta 89.951200
_cell_angle_gamma 90.167900
loop_
  _atom_site_label
  _atom_site_type_symbol
  _atom_site_fract_x
  _atom_site_fract_y
  _atom_site_fract_z
C1 C 0.24550 0.26082 0.24898
 C2 C 0.24463 0.22460 0.24955
 C3 C 0.22414 0.20440 0.23243
 C4 C 0.26413 0.20364 0.26734
 C5 C 0.26257 0.28126 0.27017
 C6 C 0.22918 0.28158 0.22738
 C7 C 0.19736 0.21341 0.23466
 C8 C 0.17838 0.19577 0.21729
 C9 C 0.18538 0.16752 0.19761
 C10 C 0.21243 0.15755 0.19696
 C11 C 0.23140 0.17586 0.21393
 C12 C 0.25541 0.17682 0.28707
 C13 C 0.27355 0.15772 0.30445
 C14 C 0.30074 0.16519 0.30248
 C15 C 0.30949 0.19145 0.28221
 C16 C 0.29139 0.21018 0.26454
 C17 C 0.28062 0.30630 0.25888
 C18 C 0.29771 0.32423 0.27855
 C19 C 0.29690 0.31765 0.30993
 C20 C 0.27815 0.29340 0.32124
 C21 C 0.26108 0.27550 0.30157
 C22 C 0.23017 0.27455 0.19613
 C23 C 0.21339 0.29240 0.17620
 C24 C 0.19542 0.31783 0.18710
 C25 C 0.19518 0.32569 0.21829
 C26 C 0.21200 0.30785 0.23820
 H27 H 0.19109 0.23433 0.24987
 H28 H 0.15806 0.20357 0.22079
 H29 H 0.21973 0.13719 0.18190
 H30 H 0.25199 0.16831 0.21196
 H31 H 0.23450 0.17115 0.28942
 H32 H 0.26631 0.13767 0.31998
 H33 H 0.29865 0.23001 0.24882
 H34 H 0.28198 0.31121 0.23473
 H35 H 0.31207 0.34251 0.26909
 H36 H 0.27665 0.28830 0.34534
 H37 H 0.24688 0.25683 0.31078
 H38 H 0.24366 0.25483 0.18728
 H39 H 0.21444 0.28627 0.15224
 H40 H 0.18143 0.34487 0.22745
 H41 H 0.21099 0.31368 0.26223
 H42 H 0.33038 0.19727 0.27988
 C43 C 0.75186 0.24150 0.24869
 C44 C 0.74915 0.27712 0.24494
 C45 C 0.76522 0.29738 0.22275
 C46 C 0.72931 0.29691 0.26280
 C47 C 0.73411 0.22198 0.26952
 C48 C 0.77235 0.22060 0.23251
 C49 C 0.78145 0.32531 0.23258
 C50 C 0.79826 0.34262 0.21220
 C51 C 0.79896 0.33254 0.18149
 C52 C 0.78190 0.30540 0.17151
 C53 C 0.76515 0.28805 0.19193
 C54 C 0.73561 0.30970 0.29177
 C55 C 0.71620 0.32580 0.30962
 C56 C 0.69012 0.32862 0.29895
 C57 C 0.68394 0.31599 0.26983
 C58 C 0.70348 0.30055 0.25176
 C59 C 0.70863 0.21224 0.26015
 C60 C 0.69152 0.19498 0.28019
 C61 C 0.69959 0.18738 0.30998
 C62 C 0.72522 0.19711 0.31921
 C63 C 0.74240 0.21415 0.29905
 C64 C 0.76505 0.19024 0.21605
 C65 C 0.78395 0.17115 0.19975
 C66 C 0.81054 0.18209 0.19959
 C67 C 0.81796 0.21194 0.21672
 C68 C 0.79909 0.23080 0.23329
 H69 H 0.78185 0.33289 0.25626
 H70 H 0.81134 0.36310 0.22072
 H71 H 0.78156 0.29747 0.14791
 H72 H 0.75244 0.26689 0.18384
 H73 H 0.75541 0.30657 0.30072
 H74 H 0.72132 0.33509 0.33211
 H75 H 0.69834 0.29050 0.22951
 H76 H 0.70198 0.21831 0.23740
 H77 H 0.67179 0.18815 0.27259
 H78 H 0.73202 0.19129 0.34195
 H79 H 0.76203 0.22166 0.30655
 H80 H 0.74459 0.18176 0.21520
 H81 H 0.77767 0.14839 0.18658
 H82 H 0.83840 0.22058 0.21738
 H83 H 0.80530 0.25355 0.24651
 H84 H 0.66398 0.31804 0.26113
 C85 C 0.75053 0.76281 0.74290
 C86 C 0.75317 0.72702 0.74035
 C87 C 0.73535 0.70677 0.72012
 C88 C 0.77355 0.70669 0.75722
 C89 C 0.76611 0.78415 0.76487
 C90 C 0.73115 0.78187 0.72385
 C91 C 0.70993 0.69735 0.72998
 C92 C 0.69247 0.68018 0.71031
 C93 C 0.70010 0.67244 0.68037
 C94 C 0.72570 0.68173 0.67067
 C95 C 0.74324 0.69864 0.69048
 C96 C 0.76624 0.67647 0.77386
 C97 C 0.78505 0.65784 0.79063
 C98 C 0.81155 0.66909 0.79112
 C99 C 0.81901 0.69881 0.77388
 C100 C 0.80024 0.71719 0.75680
 C101 C 0.78099 0.81324 0.75485
 C102 C 0.79672 0.83246 0.77508
 C103 C 0.79799 0.82322 0.80614
 C104 C 0.78215 0.79445 0.81606
 C105 C 0.76637 0.77540 0.79573
 C106 C 0.73819 0.79332 0.69470
 C107 C 0.71944 0.80955 0.67608
 C108 C 0.69328 0.81382 0.68615
 C109 C 0.68630 0.80222 0.71535
 C110 C 0.70519 0.78665 0.73419
 H111 H 0.70355 0.70380 0.75278
 H112 H 0.67277 0.67373 0.71825
 H113 H 0.73212 0.67583 0.64779
 H114 H 0.76279 0.70601 0.68258
 H115 H 0.74584 0.66772 0.77446
 H116 H 0.77874 0.63515 0.80388
 H117 H 0.80651 0.73981 0.74346
 H118 H 0.78117 0.82045 0.73110
 H119 H 0.80889 0.85333 0.76564
 H120 H 0.78110 0.78699 0.83969
 H121 H 0.75442 0.75361 0.80410
 H122 H 0.75809 0.78931 0.68631
 H123 H 0.72518 0.81805 0.65355
 H124 H 0.66626 0.80541 0.72359
 H125 H 0.69949 0.77763 0.75658
 H126 H 0.83939 0.70768 0.77348
 C127 C 0.25939 0.74252 0.75910
 C128 C 0.25726 0.77859 0.75836
 C129 C 0.27603 0.80043 0.74039
 C130 C 0.23652 0.79782 0.77578
 C131 C 0.24401 0.72083 0.78106
 C132 C 0.27674 0.72331 0.73743
 C133 C 0.30331 0.79862 0.74599
 C134 C 0.32098 0.81885 0.72881
 C135 C 0.31167 0.84106 0.70561
 C136 C 0.28432 0.84311 0.70026
 C137 C 0.26662 0.82321 0.71773
 C138 C 0.24335 0.82713 0.79372
 C139 C 0.22421 0.84456 0.81103
 C140 C 0.19761 0.83290 0.81112
 C141 C 0.19087 0.80396 0.79224
 C142 C 0.20996 0.78709 0.77452
 C143 C 0.22777 0.69324 0.77072
 C144 C 0.21135 0.67489 0.79086
 C145 C 0.21076 0.68359 0.82209
 C146 C 0.22834 0.71028 0.83234
 C147 C 0.24476 0.72846 0.81214
 C148 C 0.27420 0.72877 0.70609
 C149 C 0.29093 0.71139 0.68577
 C150 C 0.31040 0.68792 0.69636
 C151 C 0.31245 0.68179 0.72773
 C152 C 0.29569 0.69925 0.74807
 H153 H 0.31087 0.78144 0.76363
 H154 H 0.34198 0.81665 0.73324
 H155 H 0.27667 0.86028 0.68267
 H156 H 0.24561 0.82506 0.71325
 H157 H 0.26372 0.83600 0.79497
 H158 H 0.23083 0.86594 0.82554
 H159 H 0.20399 0.76542 0.75989
 H160 H 0.22695 0.68692 0.74678
 H161 H 0.19803 0.65548 0.78120
 H162 H 0.23005 0.71695 0.85610
 H163 H 0.25778 0.74902 0.82070
 H164 H 0.25924 0.74654 0.69736
 H165 H 0.28846 0.71609 0.66172
 H166 H 0.32737 0.66408 0.73660
 H167 H 0.29785 0.69455 0.77217
 H168 H 0.17064 0.79487 0.79013
 O169 O 1.01859 -0.06813 0.00182
 O170 O 0.96948 -0.02507 0.05140
 O171 O 0.96728 -0.06682 0.00429
 O172 O 1.02100 -0.02706 0.04928
 O173 O 1.02027 0.02042 0.02004
 O174 O 0.96757 -0.02031 -0.02603
 O175 O 0.96922 0.02151 0.02115
 O176 O 1.01921 -0.02066 -0.02742
 Cu177 Cu 0.99407 -0.05147 0.02970
 Cu178 Cu 0.99403 0.00487 -0.00615
 C179 C 1.02741 -0.05162 -0.02120
 C180 C 0.96104 0.00570 0.04479
 C181 C 0.95836 -0.05053 -0.01872
 C182 C 1.02963 0.00363 0.04255
 O183 O 0.52020 0.45668 0.48414
 O184 O 0.47027 0.49514 0.53540
 O185 O 0.46883 0.45735 0.48587
 O186 O 0.52164 0.49410 0.53391
 O187 O 0.52159 0.54331 0.50685
 O188 O 0.46890 0.50626 0.45846
 O189 O 0.47021 0.54415 0.50810
 O190 O 0.52055 0.50618 0.45743
 Cu191 Cu 0.49521 0.47089 0.51253
 Cu192 Cu 0.49522 0.52987 0.47994
 C193 C 0.52903 0.47498 0.46214
 C194 C 0.46180 0.52635 0.53060
 C195 C 0.45989 0.47538 0.46386
 C196 C 0.53064 0.52500 0.52866
 O197 O -0.01986 0.55590 -0.01076
 O198 O 0.02797 0.51201 0.03945
 O199 O 0.03133 0.55164 -0.00856
 O200 O -0.02352 0.51554 0.03715
 O201 O -0.02436 0.46777 0.00827
 O202 O 0.03000 0.50419 -0.03782
 O203 O 0.02704 0.46447 0.01029
 O204 O -0.02138 0.50815 -0.03965
 Cu205 Cu 0.00404 0.53851 0.01728
 Cu206 Cu 0.00267 0.48137 -0.01763
 C207 C -0.02873 0.53965 -0.03387
 C208 C 0.03585 0.48084 0.03340
 C209 C 0.04002 0.53412 -0.03107
 C210 C -0.03326 0.48538 0.03061
 O211 O 0.47768 1.04986 0.49006
 O212 O 0.52923 1.00615 0.53520
 O213 O 0.52897 1.04736 0.48818
 O214 O 0.47769 1.00759 0.53710
 O215 O 0.47520 0.96158 0.50626
 O216 O 0.52713 1.00051 0.45825
 O217 O 0.52663 0.95891 0.50574
 O218 O 0.47574 1.00342 0.45965
 Cu219 Cu 0.50353 1.03238 0.51571
 Cu220 Cu 0.50104 0.97641 0.47946
 C221 C 0.46802 1.03430 0.46701
 C222 C 0.53672 0.97506 0.52827
 C223 C 0.53681 1.03069 0.46481
 C224 C 0.46759 0.97782 0.52992
 C225 C 1.14281 0.16784 0.17190
 C226 C 1.12418 0.15116 0.15335
 C227 C 1.12843 0.11686 0.14265
 C228 C 1.15185 0.09930 0.15036
 C229 C 1.17087 0.11607 0.16842
 C230 C 1.16684 0.15085 0.17988
 N231 N 1.10880 0.10070 0.12374
 N232 N 1.10882 0.06769 0.11768
 C233 C 1.08926 0.05208 0.09831
 C234 C 1.08616 0.01518 0.09806
 C235 C 1.06674 -0.00069 0.07996
 C236 C 1.05049 0.02018 0.06130
 C237 C 1.05403 0.05717 0.06111
 C238 C 1.07310 0.07303 0.07964
 H239 H 1.13865 0.19495 0.17825
 H240 H 1.10628 0.16515 0.14721
 H241 H 1.15552 0.07260 0.14237
 H242 H 1.18799 0.10052 0.17443
 H243 H 1.09855 -0.00124 0.11227
 H244 H 1.06452 -0.02927 0.08044
 H245 H 1.04174 0.07390 0.04703
 H246 H 1.07527 0.10161 0.07929
 C247 C 0.67822 0.66820 0.62951
 C248 C 0.65968 0.65289 0.60994
 C249 C 0.64399 0.62442 0.61960
 C250 C 0.64709 0.61123 0.64919
 C251 C 0.66547 0.62669 0.66886
 C252 C 0.68117 0.65539 0.65924
 N253 N 0.62476 0.60987 0.59923
 N254 N 0.61113 0.58254 0.60592
 C255 C 0.59145 0.56837 0.58594
 C256 C 0.57883 0.53658 0.59371
 C257 C 0.55922 0.52228 0.57498
 C258 C 0.55173 0.53981 0.54821
 C259 C 0.56446 0.57177 0.54045
 C260 C 0.58422 0.58589 0.55909
 H261 H 0.68985 0.69054 0.62163
 H262 H 0.65741 0.66336 0.58723
 H263 H 0.63517 0.58926 0.65721
 H264 H 0.66751 0.61613 0.69156
 H265 H 0.58419 0.52289 0.61438
 H266 H 0.54976 0.49768 0.58164
 H267 H 0.55918 0.58587 0.51995
 H268 H 0.59364 0.61058 0.55265
 C269 C -0.16868 0.32889 0.13835
 C270 C -0.14992 0.34438 0.11917
 C271 C -0.14388 0.38051 0.12157
 C272 C -0.15722 0.40129 0.14314
 C273 C -0.17610 0.38587 0.16226
 C274 C -0.18192 0.34941 0.16025
 N275 N -0.12386 0.39516 0.10224
 N276 N -0.11599 0.42715 0.10460
 C277 C -0.09572 0.44146 0.08540
 C278 C -0.08674 0.47609 0.09051
 C279 C -0.06651 0.49051 0.07267
 C280 C -0.05500 0.47046 0.04923
 C281 C -0.06428 0.43579 0.04395
 C282 C -0.08441 0.42137 0.06190
 H283 H -0.17234 0.30065 0.13651
 H284 H -0.13971 0.32807 0.10269
 H285 H -0.15299 0.42934 0.14531
 H286 H -0.18620 0.40252 0.17856
 H287 H -0.09530 0.49184 0.10854
 H288 H -0.05986 0.51730 0.07728
 H289 H -0.05585 0.41964 0.02610
 H290 H -0.09103 0.39453 0.05746
 C291 C 0.35124 0.88074 0.70015
 C292 C 0.36940 0.89923 0.68215
 C293 C 0.36741 0.89829 0.65052
 C294 C 0.34659 0.87923 0.63698
 C295 C 0.32821 0.86115 0.65495
 C296 C 0.33051 0.86146 0.68669
 N297 N 0.38694 0.91631 0.63266
 N298 N 0.38861 0.91175 0.60413
 C299 C 0.40807 0.92938 0.58595
 C300 C 0.41155 0.91843 0.55592
 C301 C 0.43088 0.93421 0.53772
 C302 C 0.44684 0.96172 0.54917
 C303 C 0.44298 0.97319 0.57919
 C304 C 0.42386 0.95698 0.59754
 H305 H 0.35329 0.88160 0.72458
 H306 H 0.38532 0.91388 0.69285
 H307 H 0.34458 0.87820 0.61256
 H308 H 0.31252 0.84626 0.64404
 H309 H 0.39945 0.89724 0.54674
 H310 H 0.43327 0.92493 0.51463
 H311 H 0.45502 0.99429 0.58862
 H312 H 0.42143 0.96599 0.62068
 C313 C -0.16799 0.61301 -0.18941
 C314 C -0.14995 0.59535 -0.17079
 C315 C -0.13271 0.61452 -0.15213
 C316 C -0.13334 0.65181 -0.15267
 C317 C -0.15117 0.66951 -0.17150
 C318 C -0.16881 0.65028 -0.18989
 N319 N -0.11496 0.59561 -0.13271
 N320 N -0.10092 0.61136 -0.11288
 C321 C -0.08308 0.59272 -0.09340
 C322 C -0.07023 0.61146 -0.07031
 C323 C -0.05274 0.59417 -0.05081
 C324 C -0.04761 0.55774 -0.05427
 C325 C -0.06048 0.53897 -0.07758
 C326 C -0.07815 0.55627 -0.09693
 H327 H -0.18121 0.59757 -0.20356
 H328 H -0.14959 0.56662 -0.17066
 H329 H -0.12015 0.66724 -0.13849
 H330 H -0.15158 0.69823 -0.17122
 H331 H -0.07385 0.63956 -0.06739
 H332 H -0.04308 0.60943 -0.03317
 H333 H -0.05696 0.51090 -0.08082
 H334 H -0.08783 0.54123 -0.11467
 C335 C 0.31855 1.10894 0.32479
 C336 C 0.33681 1.09097 0.34291
 C337 C 0.35642 1.10972 0.35862
 C338 C 0.35775 1.14683 0.35580
 C339 C 0.33973 1.16477 0.33740
 C340 C 0.31992 1.14602 0.32177
 N341 N 0.37482 1.09057 0.37703
 N342 N 0.39090 1.10634 0.39472
 C343 C 0.40972 1.08755 0.41281
 C344 C 0.42434 1.10630 0.43447
 C345 C 0.44307 1.08894 0.45234
 C346 C 0.44775 1.05246 0.44852
 C347 C 0.43310 1.03367 0.42665
 C348 C 0.41413 1.05102 0.40903
 H349 H 0.30360 1.09387 0.31279
 H350 H 0.33563 1.06237 0.34483
 H351 H 0.37278 1.16192 0.36765
 H352 H 0.34104 1.19339 0.33567
 H353 H 0.42115 1.13448 0.43753
 H354 H 0.45411 1.10419 0.46889
 H355 H 0.43623 1.00554 0.42321
 H356 H 0.40314 1.03599 0.39232
 C357 C 1.18076 -0.11450 -0.16167
 C358 C 1.16186 -0.09844 -0.14307
 C359 C 1.14041 -0.11791 -0.13198
 C360 C 1.13769 -0.15369 -0.14016
 C361 C 1.15626 -0.16972 -0.15919
 C362 C 1.17835 -0.15054 -0.17019
 N363 N 1.12163 -0.10074 -0.11262
 N364 N 1.10439 -0.11809 -0.09766
 C365 C 1.08533 -0.10090 -0.07868
 C366 C 1.07018 -0.12141 -0.05870
 C367 C 1.05150 -0.10541 -0.03977
 C368 C 1.04737 -0.06857 -0.04094
 C369 C 1.06243 -0.04806 -0.06125
 C370 C 1.08139 -0.06403 -0.07982
 H371 H 1.19663 -0.09801 -0.17019
 H372 H 1.16401 -0.07069 -0.13716
 H373 H 1.12123 -0.16932 -0.13182
 H374 H 1.15373 -0.19767 -0.16399
 H375 H 1.07299 -0.14985 -0.05768
 H376 H 1.04009 -0.12191 -0.02447
 H377 H 1.05973 -0.01961 -0.06260
 H378 H 1.09279 -0.04765 -0.09521
 C379 C 0.64561 0.32504 0.32346
 C380 C 0.62606 0.33901 0.34241
 C381 C 0.62958 0.37217 0.35613
 C382 C 0.65316 0.39113 0.35105
 C383 C 0.67295 0.37687 0.33257
 C384 C 0.66925 0.34381 0.31849
 N385 N 0.60914 0.38579 0.37533
 N386 N 0.60854 0.41818 0.38347
 C387 C 0.58844 0.43171 0.40318
 C388 C 0.58522 0.46844 0.40566
 C389 C 0.56570 0.48252 0.42458
 C390 C 0.54943 0.45999 0.44188
 C391 C 0.55292 0.42309 0.43968
 C392 C 0.57212 0.40902 0.42028
 H393 H 0.64248 0.29933 0.31306
 H394 H 0.60804 0.32409 0.34626
 H395 H 0.65639 0.41672 0.36159
 H396 H 0.69102 0.39178 0.32898
 H397 H 0.59774 0.48617 0.39269
 H398 H 0.56357 0.51106 0.42598
 H399 H 0.54062 0.40513 0.45271
 H400 H 0.57438 0.38052 0.41887
 C401 C 0.82319 -0.12297 -0.17940
 C402 C 0.84069 -0.10537 -0.15999
 C403 C 0.85050 -0.12222 -0.13420
 C404 C 0.84227 -0.15694 -0.12765
 C405 C 0.82474 -0.17468 -0.14694
 C406 C 0.81497 -0.15824 -0.17351
 N407 N 0.86922 -0.10385 -0.11549
 N408 N 0.87902 -0.11784 -0.09179
 C409 C 0.89820 -0.09992 -0.07339
 C410 C 0.90803 -0.11710 -0.04769
 C411 C 0.92737 -0.10093 -0.02974
 C412 C 0.93727 -0.06714 -0.03726
 C413 C 0.92715 -0.04975 -0.06295
 C414 C 0.90777 -0.06599 -0.08087
 H415 H 0.81565 -0.10817 -0.19849
 H416 H 0.84670 -0.07844 -0.16514
 H417 H 0.84973 -0.17068 -0.10789
 H418 H 0.82010 -0.20195 -0.14151
 H419 H 0.90082 -0.14326 -0.04172
 H420 H 0.93472 -0.11505 -0.01012
 H421 H 0.93434 -0.02373 -0.06935
 H422 H 0.90048 -0.05217 -0.10067
 C423 C 0.32759 0.31615 0.35458
 C424 C 0.34593 0.33240 0.37380
 C425 C 0.35308 0.36791 0.36953
 C426 C 0.34149 0.38727 0.34581
 C427 C 0.32308 0.37107 0.32657
 C428 C 0.31597 0.33527 0.33070
 N429 N 0.37232 0.38338 0.38938
 N430 N 0.38049 0.41516 0.38643
 C431 C 0.39995 0.43003 0.40638
 C432 C 0.40890 0.46471 0.40138
 C433 C 0.42827 0.47965 0.42012
 C434 C 0.43899 0.46005 0.44428
 C435 C 0.42977 0.42532 0.44938
 C436 C 0.41047 0.41043 0.43061
 H437 H 0.32288 0.28841 0.35807
 H438 H 0.35481 0.31718 0.39192
 H439 H 0.34665 0.41482 0.34213
 H440 H 0.31425 0.38661 0.30862
 H441 H 0.40095 0.48009 0.38279
 H442 H 0.43493 0.50646 0.41561
 H443 H 0.43759 0.40950 0.46777
 H444 H 0.40387 0.38357 0.43498
 C445 C 0.18395 0.68411 -0.13100
 C446 C 0.16516 0.66846 -0.11197
 C447 C 0.15447 0.63526 -0.11887
 C448 C 0.16312 0.61738 -0.14493
 C449 C 0.18191 0.63291 -0.16408
 C450 C 0.19260 0.66686 -0.15774
 N451 N 0.13445 0.62077 -0.09945
 N452 N 0.12345 0.59100 -0.10472
 C453 C 0.10305 0.57696 -0.08558
 C454 C 0.09180 0.54407 -0.09276
 C455 C 0.07142 0.53000 -0.07498
 C456 C 0.06190 0.54872 -0.04964
 C457 C 0.07337 0.58169 -0.04237
 C458 C 0.09376 0.59570 -0.06017
 H459 H 0.19046 0.71060 -0.12523
 H460 H 0.15848 0.68263 -0.09202
 H461 H 0.15533 0.59143 -0.15058
 H462 H 0.18842 0.61750 -0.18336
 H463 H 0.09877 0.52941 -0.11230
 H464 H 0.06304 0.50455 -0.08119
 H465 H 0.06652 0.59677 -0.02300
 H466 H 0.10212 0.62122 -0.05416
 C467 C 0.67873 1.18176 0.36137
 C468 C 0.66096 1.16544 0.38131
 C469 C 0.64561 1.13660 0.37173
 C470 C 0.64820 1.12415 0.34183
 C471 C 0.66580 1.14061 0.32181
 C472 C 0.68123 1.16960 0.33137
 N473 N 0.62729 1.12082 0.39257
 N474 N 0.61396 1.09324 0.38582
 C475 C 0.59523 1.07773 0.40629
 C476 C 0.58257 1.04615 0.39798
 C477 C 0.56380 1.03062 0.41712
 C478 C 0.55721 1.04666 0.44492
 C479 C 0.57004 1.07835 0.45327
 C480 C 0.58894 1.09372 0.43416
 H481 H 0.69015 1.20430 0.36923
 H482 H 0.65907 1.17535 0.40426
 H483 H 0.63652 1.10191 0.33387
 H484 H 0.66752 1.13049 0.29891
 H485 H 0.58723 1.03362 0.37653
 H486 H 0.55424 1.00627 0.40998
 H487 H 0.56544 1.09132 0.47454
 H488 H 0.59843 1.11821 0.44106
 C489 C 0.16416 0.31593 0.14291
 C490 C 0.14585 0.33216 0.12371
 C491 C 0.13947 0.36797 0.12743
 C492 C 0.15188 0.38766 0.15049
 C493 C 0.17026 0.37150 0.16965
 C494 C 0.17653 0.33539 0.16617
 N495 N 0.12026 0.38358 0.10770
 N496 N 0.11261 0.41551 0.11082
 C497 C 0.09336 0.43116 0.09117
 C498 C 0.08532 0.46605 0.09665
 C499 C 0.06655 0.48216 0.07798
 C500 C 0.05553 0.46359 0.05335
 C501 C 0.06367 0.42850 0.04788
 C502 C 0.08240 0.41239 0.06664
 H503 H 0.16822 0.28795 0.13991
 H504 H 0.13637 0.31669 0.10608
 H505 H 0.14738 0.41546 0.15372
 H506 H 0.17970 0.38733 0.18707
 H507 H 0.09362 0.48077 0.11548
 H508 H 0.06075 0.50922 0.08280
 H509 H 0.05557 0.41347 0.02911
 H510 H 0.08831 0.38537 0.06194
 C511 C 0.64898 0.81297 0.66095
 C512 C 0.63010 0.82832 0.64193
 C513 C 0.63496 0.86126 0.62837
 C514 C 0.65925 0.87848 0.63354
 C515 C 0.67834 0.86283 0.65208
 C516 C 0.67327 0.83009 0.66614
 N517 N 0.61499 0.87673 0.60958
 N518 N 0.61573 0.90929 0.60203
 C519 C 0.59603 0.92500 0.58305
 C520 C 0.59433 0.96199 0.58173
 C521 C 0.57496 0.97825 0.56400
 C522 C 0.55732 0.95768 0.54670
 C523 C 0.55940 0.92052 0.54752
 C524 C 0.57845 0.90425 0.56579
 H525 H 0.64477 0.78755 0.67136
 H526 H 0.61150 0.81475 0.63804
 H527 H 0.66351 0.90387 0.62314
 H528 H 0.69692 0.87650 0.65584
 H529 H 0.60782 0.97823 0.59484
 H530 H 0.57392 1.00694 0.56364
 H531 H 0.54601 0.90405 0.53446
 H532 H 0.57955 0.87558 0.56632
 C533 C 0.84837 0.18180 0.16292
 C534 C 0.86635 0.16377 0.14447
 C535 C 0.86677 0.12667 0.14396
 C536 C 0.84895 0.10760 0.16226
 C537 C 0.83079 0.12561 0.18053
 C538 C 0.83029 0.16290 0.18099
 N539 N 0.88510 0.10914 0.12428
 N540 N 0.88812 0.07563 0.12429
 C541 C 0.90622 0.05849 0.10405
 C542 C 0.91130 0.02226 0.10763
 C543 C 0.92909 0.00493 0.08838
 C544 C 0.94184 0.02361 0.06494
 C545 C 0.93643 0.05991 0.06118
 C546 C 0.91888 0.07724 0.08062
 H547 H 0.84820 0.21053 0.16255
 H548 H 0.87993 0.17874 0.13038
 H549 H 0.84889 0.07888 0.16222
 H550 H 0.81720 0.11041 0.19442
 H551 H 0.90160 0.00750 0.12555
 H552 H 0.93280 -0.02306 0.09180
 H553 H 0.94598 0.07508 0.04341
 H554 H 0.91519 0.10524 0.07728
 C555 C 0.33906 0.68912 0.64989
 C556 C 0.35617 0.67260 0.62943
 C557 C 0.36322 0.63706 0.63332
 C558 C 0.35293 0.61801 0.65807
 C559 C 0.33579 0.63450 0.67859
 C560 C 0.32864 0.67025 0.67470
 N561 N 0.38090 0.62115 0.61190
 N562 N 0.38846 0.58907 0.61405
 C563 C 0.40630 0.57361 0.59253
 C564 C 0.41457 0.53856 0.59668
 C565 C 0.43241 0.52299 0.57643
 C566 C 0.44226 0.54232 0.55157
 C567 C 0.43368 0.57742 0.54729
 C568 C 0.41589 0.59295 0.56758
 H569 H 0.33427 0.71681 0.64652
 H570 H 0.36406 0.68759 0.61052
 H571 H 0.35807 0.59045 0.66152
 H572 H 0.32786 0.61916 0.69727
 H573 H 0.40731 0.52337 0.61580
 H574 H 0.43861 0.49591 0.58038
 H575 H 0.44088 0.59305 0.52840
 H576 H 0.40978 0.62009 0.56383
   
