data_POSCAR
  _audit_creation_date              2014-09-24
  _audit_creation_method            'ToBaCCo'
  _symmetry_space_group_name_H-M    'P1'
  _symmetry_Int_Tables_number       1
  _symmetry_cell_setting            triclinic
  loop_
  _symmetry_equiv_pos_as_xyz
 x,y,z
_cell_length_a 58.4079
_cell_length_b 33.5418
_cell_length_c 20.0519
_cell_angle_alpha 90.144300
_cell_angle_beta 89.985500
_cell_angle_gamma 90.037700
loop_
  _atom_site_label
  _atom_site_type_symbol
  _atom_site_fract_x
  _atom_site_fract_y
  _atom_site_fract_z
C1 C 0.73170 0.26641 0.53726
 C2 C 0.73123 0.26439 0.46650
 C3 C 0.74874 0.24433 0.43235
 C4 C 0.76750 0.22709 0.46568
 C5 C 0.76798 0.22866 0.53690
 C6 C 0.75021 0.24857 0.57083
 H7 H 0.75068 0.24965 0.62489
 H8 H 0.74800 0.24356 0.37830
 C9 C 0.23104 0.76221 0.53675
 C10 C 0.23212 0.76860 0.46724
 C11 C 0.25094 0.75385 0.43164
 C12 C 0.26856 0.73287 0.46331
 C13 C 0.26764 0.72601 0.53349
 C14 C 0.24843 0.74068 0.56866
 H15 H 0.24712 0.73666 0.62215
 H16 H 0.25170 0.75795 0.37803
 C17 C 0.26773 0.26751 -0.53302
 C18 C 0.26535 0.27333 -0.46334
 C19 C 0.24525 0.26112 -0.43127
 C20 C 0.22804 0.23976 -0.46512
 C21 C 0.23033 0.23338 -0.53536
 C22 C 0.25047 0.24666 -0.56733
 H23 H 0.25208 0.24311 -0.62084
 H24 H 0.24406 0.26517 -0.37767
 C25 C -0.23225 0.76745 -0.53337
 C26 C -0.23468 0.77335 -0.46373
 C27 C -0.25473 0.76091 -0.43162
 C28 C -0.27183 0.73928 -0.46543
 C29 C -0.26953 0.73294 -0.53566
 C30 C -0.24944 0.74639 -0.56764
 H31 H -0.24782 0.74281 -0.62114
 H32 H -0.25593 0.76499 -0.37803
 O33 O -0.03162 0.93316 0.12589
 O34 O -0.05712 0.96595 0.05831
 C35 C -0.05225 0.94206 0.10701
 O36 O 0.03172 1.07457 0.11345
 O37 O 0.05718 1.03618 0.05433
 C38 C 0.05234 1.06421 0.09673
 O39 O -0.03215 1.06994 0.11998
 O40 O -0.05740 1.03332 0.05691
 C41 C -0.05271 1.05936 0.10289
 O42 O 0.03233 0.92927 0.11872
 O43 O 0.05751 0.96629 0.05640
 C44 C 0.05288 0.93961 0.10117
 Zr45 Zr 0.00027 0.95049 0.08487
 O46 O 0.00249 0.95053 0.19018
 O47 O -0.00222 0.88749 0.08379
 Zr48 Zr -0.00010 1.05086 0.08241
 O49 O 0.00055 1.04732 0.18761
 O50 O 0.00062 1.11404 0.08502
 O51 O -0.02040 1.00062 0.09652
 O52 O 0.02012 1.00113 0.09569
 O53 O 0.03249 0.92574 -0.11371
 O54 O 0.05765 0.96576 -0.05627
 C55 C 0.05304 0.93725 -0.09796
 O56 O -0.03224 1.06845 -0.12352
 O57 O -0.05726 1.03119 -0.06110
 C58 C -0.05272 1.05698 -0.10723
 O59 O 0.03178 1.07319 -0.11623
 O60 O 0.05720 1.03423 -0.05822
 C61 C 0.05239 1.06216 -0.10050
 O62 O -0.03171 0.92870 -0.12100
 O63 O -0.05709 0.96500 -0.05799
 C64 C -0.05232 0.93905 -0.10389
 Zr65 Zr 0.00025 0.94852 -0.08320
 O66 O 0.00289 0.94743 -0.18849
 O67 O -0.00218 0.88555 -0.08110
 Zr68 Zr -0.00018 1.04934 -0.08569
 O69 O 0.00242 1.04747 -0.19099
 O70 O -0.00247 1.11228 -0.08711
 Zr71 Zr -0.03423 0.99933 -0.00057
 Zr72 Zr 0.03430 1.00017 -0.00073
 O73 O 0.01992 0.99908 -0.09696
 O74 O -0.02037 0.99852 -0.09768
 O75 O 0.02080 0.94186 0.00102
 O76 O -0.02024 1.05709 -0.00180
 O77 O -0.01972 0.94193 0.00114
 O78 O 0.02027 1.05804 -0.00190
 H79 H 0.03039 1.00180 0.13500
 H80 H -0.03089 1.08001 -0.00276
 H81 H 0.03023 0.99889 -0.13619
 H82 H -0.03002 0.91846 0.00200
 H83 H -0.01220 1.12423 0.05781
 H84 H 0.00723 1.12237 -0.05029
 H85 H -0.01084 1.03215 -0.20798
 H86 H -0.00969 0.96395 -0.20638
 H87 H 0.01047 0.87559 -0.05290
 H88 H 0.01162 0.87697 0.06145
 H89 H -0.00704 0.97290 0.20643
 H90 H 0.00082 1.07519 0.20413
 O91 O 0.46858 0.43321 0.12716
 O92 O 0.44314 0.46539 0.05860
 C93 C 0.44796 0.44190 0.10787
 O94 O 0.53212 0.57408 0.11216
 O95 O 0.55766 0.53545 0.05364
 C96 C 0.55277 0.56363 0.09570
 O97 O 0.46810 0.57021 0.11815
 O98 O 0.44296 0.53253 0.05649
 C99 C 0.44757 0.55921 0.10147
 O100 O 0.53241 0.42850 0.11935
 O101 O 0.55768 0.46566 0.05753
 C102 C 0.55298 0.43875 0.10192
 Zr103 Zr 0.50051 0.45026 0.08587
 O104 O 0.50244 0.45036 0.19122
 O105 O 0.49939 0.38733 0.08171
 Zr106 Zr 0.50010 0.55068 0.08118
 O107 O 0.50107 0.54902 0.18650
 O108 O 0.49762 0.61365 0.08008
 O109 O 0.47984 0.50048 0.09630
 O110 O 0.52030 0.50100 0.09585
 O111 O 0.53299 0.42371 -0.11154
 O112 O 0.55790 0.46496 -0.05562
 C113 C 0.55346 0.43610 -0.09671
 O114 O 0.46810 0.56454 -0.12735
 O115 O 0.44294 0.53051 -0.06047
 C116 C 0.44756 0.55460 -0.10906
 O117 O 0.53216 0.57084 -0.11861
 O118 O 0.55754 0.53304 -0.05847
 C119 C 0.55276 0.56031 -0.10193
 O120 O 0.46878 0.42647 -0.11930
 O121 O 0.44335 0.46363 -0.05790
 C122 C 0.44816 0.43716 -0.10293
 Zr123 Zr 0.50071 0.44679 -0.08185
 O124 O 0.50342 0.44466 -0.18709
 O125 O 0.49880 0.38383 -0.07738
 Zr126 Zr 0.50017 0.54761 -0.08699
 O127 O 0.50317 0.54595 -0.19217
 O128 O 0.49688 0.61045 -0.08946
 Zr129 Zr 0.46608 0.49837 -0.00074
 Zr130 Zr 0.53457 0.49949 -0.00038
 O131 O 0.52029 0.49733 -0.09672
 O132 O 0.48005 0.49660 -0.09776
 O133 O 0.52118 0.44120 0.00261
 O134 O 0.48012 0.55614 -0.00337
 O135 O 0.48055 0.44097 0.00237
 O136 O 0.52056 0.55737 -0.00319
 H137 H 0.53057 0.50177 0.13517
 H138 H 0.46968 0.57940 -0.00463
 H139 H 0.53058 0.49684 -0.13601
 H140 H 0.47025 0.41749 0.00371
 H141 H 0.50996 0.62375 0.05086
 H142 H 0.50950 0.62180 -0.06258
 H143 H 0.49100 0.52813 -0.20922
 H144 H 0.49061 0.46039 -0.20560
 H145 H 0.50988 0.37500 -0.04315
 H146 H 0.49916 0.37811 0.12861
 H147 H 0.49395 0.47413 0.20685
 H148 H 0.50105 0.57717 0.20165
 C149 C 0.32107 0.31952 0.35538
 N150 N 0.30797 0.29014 0.32861
 N151 N 0.29126 0.27338 0.36420
 C152 C 0.28691 0.28545 0.42779
 N153 N 0.29974 0.31560 0.45345
 N154 N 0.31663 0.33197 0.41839
 C155 C 0.33990 0.33749 0.31749
 N156 N 0.35746 0.35555 0.35000
 N157 N 0.37466 0.37190 0.31613
 C158 C 0.37477 0.37131 0.24848
 N159 N 0.35713 0.35348 0.21585
 N160 N 0.34006 0.33661 0.24979
 C161 C 0.39373 0.38955 0.21157
 N162 N 0.39089 0.40191 0.14769
 N163 N 0.40812 0.41895 0.11473
 C164 C 0.42887 0.42371 0.14423
 N165 N 0.43174 0.41110 0.20793
 N166 N 0.41443 0.39460 0.24117
 C167 C -0.17899 0.81955 0.35483
 N168 N -0.19208 0.79013 0.32814
 N169 N -0.20876 0.77335 0.36380
 C170 C -0.21311 0.78544 0.42738
 N171 N -0.20029 0.81562 0.45297
 N172 N -0.18342 0.83202 0.41785
 C173 C -0.16020 0.83752 0.31687
 N174 N -0.14259 0.85552 0.34929
 N175 N -0.12540 0.87184 0.31534
 C176 C -0.12536 0.87129 0.24768
 N177 N -0.14304 0.85354 0.21514
 N178 N -0.16009 0.83669 0.24916
 C179 C -0.10641 0.88952 0.21070
 N180 N -0.10930 0.90202 0.14691
 N181 N -0.09209 0.91908 0.11393
 C182 C -0.07130 0.92373 0.14330
 N183 N -0.06839 0.91097 0.20689
 N184 N -0.08568 0.89444 0.24016
 C185 C 0.67829 0.68930 0.34510
 N186 N 0.67356 0.70643 0.40484
 N187 N 0.69035 0.72036 0.44327
 C188 C 0.71261 0.71755 0.42398
 N189 N 0.71718 0.70133 0.36310
 N190 N 0.70040 0.68719 0.32470
 C191 C 0.65975 0.67270 0.30413
 N192 N 0.66440 0.65076 0.24873
 N193 N 0.64749 0.63460 0.21312
 C194 C 0.62532 0.63998 0.23148
 N195 N 0.62069 0.66214 0.28657
 N196 N 0.63758 0.67812 0.32231
 C197 C 0.60659 0.62124 0.19393
 N198 N 0.58450 0.62907 0.21032
 N199 N 0.56740 0.61114 0.17819
 C200 C 0.57174 0.58457 0.12862
 N201 N 0.59384 0.57682 0.11196
 N202 N 0.61097 0.59490 0.14397
 C203 C 0.17807 1.18987 0.34550
 N204 N 0.17337 1.20713 0.40515
 N205 N 0.19018 1.22105 0.44352
 C206 C 0.21244 1.21810 0.42427
 N207 N 0.21698 1.20177 0.36345
 N208 N 0.20018 1.18764 0.32510
 C209 C 0.15950 1.17323 0.30464
 N210 N 0.16412 1.15122 0.24929
 N211 N 0.14718 1.13503 0.21382
 C212 C 0.12502 1.14041 0.23228
 N213 N 0.12043 1.16264 0.28733
 N214 N 0.13735 1.17866 0.32292
 C215 C 0.10626 1.12166 0.19485
 N216 N 0.08419 1.12946 0.21144
 N217 N 0.06706 1.11155 0.17938
 C218 C 0.07135 1.08506 0.12967
 N219 N 0.09344 1.07733 0.11282
 N220 N 0.11059 1.09538 0.14476
 C221 C 0.68079 0.31936 -0.34985
 N222 N 0.68505 0.33217 -0.41276
 N223 N 0.70146 0.31524 -0.44933
 C224 C 0.71445 0.28515 -0.42432
 N225 N 0.71049 0.27332 -0.36048
 N226 N 0.69384 0.28970 -0.32429
 C227 C 0.66211 0.33663 -0.31049
 N228 N 0.65028 0.31381 -0.26649
 N229 N 0.63300 0.32921 -0.23150
 C230 C 0.62722 0.36816 -0.23842
 N231 N 0.63919 0.39107 -0.28196
 N232 N 0.65619 0.37549 -0.31785
 C233 C 0.60830 0.38526 -0.19983
 N234 N 0.60888 0.42408 -0.18078
 N235 N 0.59157 0.43989 -0.14652
 C236 C 0.57291 0.41763 -0.13099
 N237 N 0.57224 0.37884 -0.15039
 N238 N 0.58975 0.36282 -0.18364
 C239 C 0.17915 0.81242 -0.34623
 N240 N 0.19366 0.83598 -0.38144
 N241 N 0.21011 0.81995 -0.41886
 C242 C 0.21277 0.77979 -0.42192
 N243 N 0.19844 0.75620 -0.38620
 N244 N 0.18181 0.77223 -0.34935
 C245 C 0.16078 0.83019 -0.30601
 N246 N 0.14258 0.80796 -0.28618
 N247 N 0.12565 0.82441 -0.25107
 C248 C 0.12644 0.86357 -0.23385
 N249 N 0.14473 0.88570 -0.25319
 N250 N 0.16153 0.86936 -0.28893
 C251 C 0.10758 0.88198 -0.19643
 N252 N 0.11053 0.91768 -0.16553
 N253 N 0.09325 0.93492 -0.13306
 C254 C 0.07233 0.91729 -0.13092
 N255 N 0.06938 0.88160 -0.16186
 N256 N 0.08673 0.86414 -0.19369
 C257 C 0.31932 0.67008 -0.36020
 N258 N 0.32183 0.67765 -0.42612
 N259 N 0.30511 0.69503 -0.46040
 C260 C 0.28517 0.70596 -0.43061
 N261 N 0.28275 0.69806 -0.36436
 N262 N 0.29941 0.68040 -0.32991
 C263 C 0.33815 0.65203 -0.32236
 N264 N 0.33495 0.63893 -0.25901
 N265 N 0.35224 0.62304 -0.22481
 C266 C 0.37339 0.62000 -0.25256
 N267 N 0.37658 0.63317 -0.31581
 N268 N 0.35926 0.64877 -0.35014
 C269 C 0.39260 0.60305 -0.21491
 N270 N 0.41434 0.60651 -0.23822
 N271 N 0.43185 0.59128 -0.20425
 C272 C 0.42826 0.57180 -0.14594
 N273 N 0.40651 0.56821 -0.12270
 N274 N 0.38900 0.58371 -0.15644
 C275 C -0.18244 1.17375 -0.34904
 N276 N -0.19055 1.15577 -0.40494
 N277 N -0.20663 1.17331 -0.44174
 C278 C -0.21530 1.20945 -0.42397
 N279 N -0.20781 1.22647 -0.36634
 N280 N -0.19147 1.20926 -0.33012
 C281 C -0.16359 1.15598 -0.31114
 N282 N -0.14883 1.17957 -0.27671
 N283 N -0.13114 1.16376 -0.24426
 C284 C -0.12778 1.12373 -0.24427
 N285 N -0.14268 1.10008 -0.27812
 N286 N -0.16016 1.11596 -0.31151
 C287 C -0.10826 1.10639 -0.20872
 N288 N -0.10944 1.06880 -0.18409
 N289 N -0.09176 1.05320 -0.15132
 C290 C -0.07214 1.07437 -0.14306
 N291 N -0.07088 1.11183 -0.16822
 N292 N -0.08870 1.12768 -0.20002
 C293 C 0.67839 0.68612 -0.34946
 N294 N 0.68680 0.66719 -0.40404
 N295 N 0.70270 0.68450 -0.44184
 C296 C 0.71090 0.72135 -0.42648
 N297 N 0.70295 0.73959 -0.37039
 N298 N 0.68678 0.72258 -0.33316
 C299 C 0.66028 0.66766 -0.30939
 N300 N 0.64519 0.69057 -0.27488
 N301 N 0.62825 0.67381 -0.24032
 C302 C 0.62603 0.63355 -0.23817
 N303 N 0.64127 0.61064 -0.27208
 N304 N 0.65798 0.62741 -0.30752
 C305 C 0.60721 0.61503 -0.20106
 N306 N 0.60934 0.57747 -0.17685
 N307 N 0.59209 0.56033 -0.14422
 C308 C 0.57197 0.57990 -0.13559
 N309 N 0.56978 0.61739 -0.16010
 N310 N 0.58717 0.63478 -0.19180
 C311 C 0.17801 1.18734 -0.34908
 N312 N 0.18637 1.16825 -0.40358
 N313 N 0.20234 1.18531 -0.44141
 C314 C 0.21068 1.22209 -0.42617
 N315 N 0.20278 1.24050 -0.37017
 N316 N 0.18654 1.22373 -0.33290
 C317 C 0.15986 1.16909 -0.30887
 N318 N 0.14490 1.19213 -0.27415
 N319 N 0.12796 1.17554 -0.23937
 C320 C 0.12561 1.13529 -0.23723
 N321 N 0.14072 1.11225 -0.27138
 N322 N 0.15743 1.12886 -0.30701
 C323 C 0.10681 1.11690 -0.19981
 N324 N 0.10888 1.07923 -0.17606
 N325 N 0.09165 1.06212 -0.14330
 C326 C 0.07161 1.08185 -0.13403
 N327 N 0.06949 1.11948 -0.15803
 N328 N 0.08686 1.13682 -0.18988
 C329 C 0.31907 0.31709 -0.34548
 N330 N 0.29755 0.33180 -0.33833
 N331 N 0.28040 0.31774 -0.37542
 C332 C 0.28421 0.28864 -0.42130
 N333 N 0.30563 0.27331 -0.42729
 N334 N 0.32276 0.28740 -0.39031
 C335 C 0.33820 0.33364 -0.30677
 N336 N 0.35989 0.32049 -0.31719
 N337 N 0.37738 0.33626 -0.28360
 C338 C 0.37381 0.36575 -0.23830
 N339 N 0.35211 0.37879 -0.22765
 N340 N 0.33462 0.36306 -0.26133
 C341 C 0.39315 0.38376 -0.20234
 N342 N 0.38950 0.41265 -0.15604
 N343 N 0.40705 0.42946 -0.12416
 C344 C 0.42888 0.41807 -0.13750
 N345 N 0.43253 0.38914 -0.18377
 N346 N 0.41498 0.37227 -0.21558
 C347 C -0.18118 0.81802 -0.34604
 N348 N -0.20275 0.83258 -0.33917
 N349 N -0.21983 0.81821 -0.37620
 C350 C -0.21591 0.78897 -0.42173
 N351 N -0.19445 0.77379 -0.42741
 N352 N -0.17738 0.78818 -0.39049
 C353 C -0.16211 0.83489 -0.30748
 N354 N -0.14038 0.82197 -0.31794
 N355 N -0.12294 0.83800 -0.28450
 C356 C -0.12659 0.86751 -0.23931
 N357 N -0.14834 0.88032 -0.22861
 N358 N -0.16579 0.86434 -0.26216
 C359 C -0.10730 0.88570 -0.20347
 N360 N -0.11098 0.91438 -0.15682
 N361 N -0.09345 0.93123 -0.12493
 C362 C -0.07160 0.92009 -0.13862
 N363 N -0.06792 0.89140 -0.18526
 N364 N -0.08545 0.87449 -0.21706
 C365 C 0.32050 0.68580 0.34322
 N366 N 0.32370 0.72071 0.37642
 N367 N 0.30705 0.73609 0.41394
 C368 C 0.28670 0.71687 0.41996
 N369 N 0.28337 0.68227 0.38615
 N370 N 0.29998 0.66701 0.34841
 C371 C 0.33914 0.66802 0.30409
 N372 N 0.33548 0.63470 0.26697
 N373 N 0.35257 0.61788 0.23308
 C374 C 0.37397 0.63365 0.23539
 N375 N 0.37761 0.66700 0.27241
 N376 N 0.36050 0.68392 0.30604
 C377 C 0.39299 0.61455 0.19969
 N378 N 0.41478 0.62753 0.20876
 N379 N 0.43214 0.60985 0.17741
 C380 C 0.42834 0.57864 0.13563
 N381 N 0.40653 0.56573 0.12632
 N382 N 0.38917 0.58330 0.15794
 C383 C -0.17923 1.18389 0.35022
 N384 N -0.17523 1.19832 0.41236
 N385 N -0.19235 1.21230 0.44946
 C386 C -0.21423 1.21224 0.42638
 N387 N -0.21800 1.19900 0.36308
 N388 N -0.20091 1.18478 0.32599
 C389 C -0.16045 1.16677 0.31083
 N390 N -0.16469 1.14703 0.25290
 N391 N -0.14764 1.13032 0.21861
 C392 C -0.12573 1.13289 0.24093
 N393 N -0.12151 1.15283 0.29861
 N394 N -0.13855 1.16935 0.33302
 C395 C -0.10688 1.11403 0.20414
 N396 N -0.08489 1.12006 0.22358
 N397 N -0.06769 1.10271 0.19105
 C398 C -0.07182 1.07849 0.13808
 N399 N -0.09382 1.07237 0.11860
 N400 N -0.11105 1.08990 0.15099
 C401 C 0.67843 0.31200 0.34984
 N402 N 0.70056 0.32242 0.33874
 N403 N 0.71730 0.30715 0.37582
 C404 C 0.71251 0.28114 0.42571
 N405 N 0.69042 0.27016 0.43608
 N406 N 0.67367 0.28544 0.39897
 C407 C 0.65991 0.32970 0.31016
 N408 N 0.63776 0.31967 0.32188
 N409 N 0.62092 0.33636 0.28697
 C410 C 0.62559 0.36373 0.23906
 N411 N 0.64775 0.37369 0.22715
 N412 N 0.66460 0.35697 0.26208
 C413 C 0.60688 0.38272 0.20191
 N414 N 0.61125 0.41077 0.15480
 N415 N 0.59414 0.42850 0.12238
 C416 C 0.57204 0.41879 0.13597
 N417 N 0.56772 0.39067 0.18288
 N418 N 0.58481 0.37297 0.21522
 C419 C 0.17914 0.82170 0.35737
 N420 N 0.20131 0.82651 0.33879
 N421 N 0.21813 0.81007 0.37419
 C422 C 0.21344 0.78845 0.42978
 N423 N 0.19122 0.78363 0.44813
 N424 N 0.17441 0.79998 0.41269
 C425 C 0.16051 0.83907 0.31780
 N426 N 0.13836 0.83178 0.33414
 N427 N 0.12139 0.84718 0.29813
 C428 C 0.12594 0.87049 0.24449
 N429 N 0.14810 0.87785 0.22814
 N430 N 0.16509 0.86235 0.26408
 C431 C 0.10711 0.88771 0.20558
 N432 N 0.11131 0.91337 0.15470
 N433 N 0.09407 0.92960 0.12070
 C434 C 0.07203 0.92062 0.13624
 N435 N 0.06787 0.89479 0.18682
 N436 N 0.08508 0.87866 0.22086
   
