data_POSCAR
  _audit_creation_date              2014-09-24
  _audit_creation_method            'ToBaCCo'
  _symmetry_space_group_name_H-M    'P1'
  _symmetry_Int_Tables_number       1
  _symmetry_cell_setting            triclinic
  loop_
  _symmetry_equiv_pos_as_xyz
 x,y,z
_cell_length_a 53.9446
_cell_length_b 51.3874
_cell_length_c 44.7527
_cell_angle_alpha 89.082800
_cell_angle_beta 90.092200
_cell_angle_gamma 89.780900
loop_
  _atom_site_label
  _atom_site_type_symbol
  _atom_site_fract_x
  _atom_site_fract_y
  _atom_site_fract_z
C1 C 0.28417 0.28464 0.23363
 H2 H 0.28334 0.28687 0.25761
 C3 C 0.30040 0.29991 0.21666
 H4 H 0.31172 0.31417 0.22778
 C5 C 0.26996 0.26357 0.19017
 H6 H 0.25845 0.24902 0.17998
 C7 C 0.28600 0.27836 0.17234
 H8 H 0.28657 0.27503 0.14852
 N9 N 0.26904 0.26725 0.22019
 C10 C 0.21114 0.25929 0.28769
 H11 H 0.21149 0.23847 0.29167
 C12 C 0.19537 0.27502 0.30439
 H13 H 0.18357 0.26621 0.32125
 C14 C 0.22585 0.29605 0.26052
 H15 H 0.23751 0.30416 0.24316
 C16 C 0.21011 0.31244 0.27639
 H17 H 0.21018 0.33315 0.27149
 Zn18 Zn 0.24764 0.24765 0.24530
 N19 N 0.22637 0.27005 0.26673
 C20 C 0.26801 0.23158 0.30170
 N21 N 0.26814 0.22793 0.27165
 C22 C 0.28371 0.21039 0.25903
 C23 C 0.29920 0.19485 0.27688
 C24 C 0.28338 0.21658 0.32039
 C25 C 0.21269 0.23632 0.20095
 C26 C 0.19785 0.22074 0.18300
 C27 C 0.21227 0.18302 0.21095
 C28 C 0.22701 0.19930 0.22816
 N29 N 0.22733 0.22538 0.22252
 H30 H 0.25611 0.24618 0.31127
 H31 H 0.28386 0.20830 0.23501
 H32 H 0.31135 0.18087 0.26642
 H33 H 0.28274 0.21940 0.34431
 H34 H 0.21295 0.25718 0.19730
 H35 H 0.18705 0.22980 0.16526
 H36 H 0.21218 0.16235 0.21599
 H37 H 0.23802 0.19104 0.24613
 C38 C 0.19483 0.30197 0.29886
 C39 C 0.30138 0.29699 0.18552
 C40 C 0.19767 0.19363 0.18770
 C41 C 0.29903 0.19772 0.30801
 C42 C 0.78186 0.78915 0.24118
 H43 H 0.78074 0.79150 0.26512
 C44 C 0.79751 0.80509 0.22427
 H45 H 0.80867 0.81909 0.23599
 C46 C 0.76945 0.76667 0.19798
 H47 H 0.75862 0.75153 0.18785
 C48 C 0.78520 0.78189 0.18019
 H49 H 0.78522 0.77856 0.15640
 N50 N 0.76777 0.77084 0.22782
 C51 C 0.71056 0.76175 0.29601
 H52 H 0.71153 0.74101 0.30037
 C53 C 0.69456 0.77724 0.31270
 H54 H 0.68321 0.76832 0.32994
 C55 C 0.72382 0.79855 0.26782
 H56 H 0.73493 0.80675 0.24999
 C57 C 0.70786 0.81468 0.28367
 H58 H 0.70729 0.83531 0.27835
 Zn59 Zn 0.74681 0.75074 0.25294
 N60 N 0.72521 0.77267 0.27454
 C61 C 0.76783 0.73433 0.30906
 N62 N 0.76779 0.73124 0.27892
 C63 C 0.78341 0.71411 0.26570
 C64 C 0.79905 0.69829 0.28299
 C65 C 0.78337 0.71902 0.32724
 C66 C 0.71229 0.73848 0.20831
 C67 C 0.69749 0.72245 0.19083
 C68 C 0.71185 0.68541 0.22001
 C69 C 0.72653 0.70211 0.23673
 N70 N 0.72684 0.72806 0.23031
 H71 H 0.75586 0.74862 0.31911
 H72 H 0.78338 0.71246 0.24163
 H73 H 0.81118 0.68457 0.27206
 H74 H 0.78283 0.72130 0.35124
 H75 H 0.71251 0.75926 0.20405
 H76 H 0.68670 0.73107 0.17280
 H77 H 0.71174 0.66487 0.22573
 H78 H 0.73744 0.69429 0.25504
 C79 C 0.69318 0.80409 0.30665
 C80 C 0.79939 0.80188 0.19307
 C81 C 0.69728 0.69545 0.19643
 C82 C 0.79897 0.70046 0.31421
 C83 C 0.78848 0.28806 0.73798
 H84 H 0.78820 0.29037 0.76196
 C85 C 0.80446 0.30313 0.72043
 H86 H 0.81616 0.31731 0.73112
 C87 C 0.77311 0.26702 0.69507
 H88 H 0.76123 0.25258 0.68531
 C89 C 0.78888 0.28161 0.67667
 H90 H 0.78888 0.27823 0.65286
 N91 N 0.77290 0.27078 0.72509
 C92 C 0.71517 0.26375 0.79304
 H93 H 0.71521 0.24294 0.79714
 C94 C 0.69957 0.27979 0.80958
 H95 H 0.68803 0.27112 0.82678
 C96 C 0.73061 0.30016 0.76594
 H97 H 0.74236 0.30801 0.74851
 C98 C 0.71512 0.31687 0.78168
 H99 H 0.71520 0.33743 0.77605
 Zn100 Zn 0.75180 0.25149 0.75092
 N101 N 0.73071 0.27418 0.77220
 C102 C 0.77162 0.23456 0.80737
 N103 N 0.77257 0.23207 0.77725
 C104 C 0.78909 0.21574 0.76444
 C105 C 0.80493 0.20038 0.78201
 C106 C 0.78701 0.21948 0.82593
 C107 C 0.71604 0.23928 0.70778
 C108 C 0.70089 0.22328 0.69070
 C109 C 0.71654 0.18608 0.71860
 C110 C 0.73157 0.20276 0.73491
 N111 N 0.73136 0.22879 0.72894
 H112 H 0.75909 0.24845 0.81718
 H113 H 0.78958 0.21427 0.74035
 H114 H 0.81649 0.18673 0.77029
 H115 H 0.78595 0.22310 0.84959
 H116 H 0.71593 0.26011 0.70384
 H117 H 0.68949 0.23200 0.67329
 H118 H 0.71684 0.16547 0.72399
 H119 H 0.74323 0.19486 0.75250
 C120 C 0.69952 0.30682 0.80416
 C121 C 0.80472 0.30012 0.68928
 C122 C 0.70111 0.19622 0.69587
 C123 C 0.80416 0.20158 0.81365
 C124 C 0.28771 0.78498 0.73873
 H125 H 0.28760 0.78545 0.76289
 C126 C 0.30378 0.80110 0.72261
 H127 H 0.31609 0.81393 0.73451
 C128 C 0.27205 0.76732 0.69394
 H129 H 0.25988 0.75393 0.68282
 C130 C 0.28801 0.78293 0.67693
 H131 H 0.28756 0.78179 0.65280
 N132 N 0.27178 0.76903 0.72425
 C133 C 0.20995 0.75854 0.78609
 H134 H 0.20829 0.73757 0.78591
 C135 C 0.19328 0.77334 0.80265
 H136 H 0.17864 0.76351 0.81483
 C137 C 0.23054 0.79667 0.76934
 H138 H 0.24480 0.80581 0.75602
 C139 C 0.21454 0.81218 0.78593
 H140 H 0.21732 0.83302 0.78569
 Zn141 Zn 0.24992 0.74873 0.74811
 N142 N 0.22825 0.77032 0.77007
 C143 C 0.26780 0.73004 0.80451
 N144 N 0.26977 0.72827 0.77430
 C145 C 0.28656 0.71207 0.76160
 C146 C 0.30165 0.69609 0.77943
 C147 C 0.28274 0.71458 0.82322
 C148 C 0.21508 0.73802 0.70301
 C149 C 0.20038 0.72251 0.68479
 C150 C 0.21572 0.68453 0.71151
 C151 C 0.23029 0.70073 0.72898
 N152 N 0.23008 0.72692 0.72414
 H153 H 0.25466 0.74341 0.81415
 H154 H 0.28800 0.71139 0.73752
 H155 H 0.31482 0.68319 0.76892
 H156 H 0.28074 0.71589 0.84722
 H157 H 0.21484 0.75895 0.70004
 H158 H 0.18921 0.73171 0.66747
 H159 H 0.21602 0.66378 0.71604
 H160 H 0.24155 0.69230 0.74662
 C161 C 0.19553 0.80060 0.80293
 C162 C 0.30387 0.80038 0.69127
 C163 C 0.20070 0.69531 0.68877
 C164 C 0.29974 0.69713 0.81066
 C165 C -0.02657 -0.02157 0.01612
 C166 C -0.01341 -0.00184 0.00120
 C167 C -0.02626 0.01881 -0.01261
 C168 C -0.05225 0.01986 -0.01183
 C169 C -0.06523 0.00038 0.00395
 C170 C -0.05258 -0.02047 0.01805
 C171 C 0.01386 -0.00276 -0.00023
 C172 C 0.02583 -0.02273 -0.01562
 C173 C 0.05179 -0.02300 -0.01842
 C174 C 0.06558 -0.00323 -0.00480
 C175 C 0.05388 0.01636 0.01172
 C176 C 0.02788 0.01662 0.01345
 H177 H -0.01644 -0.03768 0.02624
 H178 H -0.01594 0.03393 -0.02422
 H179 H 0.01477 -0.03788 -0.02555
 H180 H 0.01843 0.03146 0.02609
 H181 H -0.08525 0.00142 0.00504
 H182 H 0.08550 -0.00271 -0.00757
 C183 C -0.02291 0.47976 0.51301
 C184 C -0.01021 0.50007 0.49858
 C185 C -0.02350 0.52053 0.48502
 C186 C -0.04955 0.52066 0.48526
 C187 C -0.06208 0.50033 0.50019
 C188 C -0.04894 0.47989 0.51435
 C189 C 0.01706 0.49986 0.49748
 C190 C 0.02949 0.48150 0.48016
 C191 C 0.05551 0.48138 0.47852
 C192 C 0.06888 0.49976 0.49499
 C193 C 0.05663 0.51821 0.51263
 C194 C 0.03059 0.51819 0.51353
 H195 H -0.01244 0.46392 0.52323
 H196 H -0.01346 0.53624 0.47413
 H197 H 0.01876 0.46782 0.46734
 H198 H 0.02075 0.53199 0.52724
 H199 H -0.08214 0.50038 0.50077
 H200 H 0.08893 0.49973 0.49402
 C201 C 0.47531 -0.01619 0.51876
 C202 C 0.48819 0.00375 0.50390
 C203 C 0.47508 0.02383 0.48935
 C204 C 0.44903 0.02394 0.48910
 C205 C 0.43631 0.00403 0.50456
 C206 C 0.44928 -0.01606 0.51963
 C207 C 0.51546 0.00335 0.50316
 C208 C 0.52787 -0.01503 0.48585
 C209 C 0.55389 -0.01557 0.48479
 C210 C 0.56730 0.00241 0.50176
 C211 C 0.55507 0.02085 0.51945
 C212 C 0.52901 0.02126 0.51979
 H213 H 0.48568 -0.03180 0.52958
 H214 H 0.48527 0.03920 0.47804
 H215 H 0.51713 -0.02846 0.47268
 H216 H 0.51917 0.03504 0.53353
 H217 H 0.41625 0.00409 0.50474
 H218 H 0.58735 0.00205 0.50119
 C219 C 0.47593 0.47902 0.01587
 C220 C 0.48869 0.49952 0.00191
 C221 C 0.47547 0.51980 -0.01210
 C222 C 0.44942 0.51954 -0.01282
 C223 C 0.43682 0.49899 0.00162
 C224 C 0.44989 0.47874 0.01625
 C225 C 0.51597 0.49961 0.00166
 C226 C 0.52891 0.48173 -0.01580
 C227 C 0.55495 0.48185 -0.01662
 C228 C 0.56782 0.49991 0.00082
 C229 C 0.55506 0.51786 0.01862
 C230 C 0.52901 0.51767 0.01867
 H231 H 0.48636 0.46332 0.02643
 H232 H 0.48557 0.53566 -0.02261
 H233 H 0.51858 0.46825 -0.02935
 H234 H 0.51878 0.53112 0.03244
 H235 H 0.41676 0.49871 0.00143
 H236 H 0.58788 0.50004 0.00050
 C237 C 0.14711 -0.15143 -0.14394
 C238 C 0.15620 -0.14235 -0.17163
 C239 C 0.17142 -0.15806 -0.18905
 C240 C 0.17837 -0.18314 -0.17907
 C241 C 0.16914 -0.19231 -0.15148
 C242 C 0.15358 -0.17674 -0.13426
 C243 C 0.13148 -0.13431 -0.12500
 C244 C 0.13349 -0.13535 -0.09366
 C245 C 0.11955 -0.11861 -0.07595
 C246 C 0.10349 -0.10005 -0.08908
 C247 C 0.10126 -0.09922 -0.12041
 C248 C 0.11490 -0.11625 -0.13809
 C249 C 0.08972 -0.08116 -0.07031
 C250 C 0.06599 -0.07222 -0.07872
 C251 C 0.05365 -0.05353 -0.06186
 C252 C 0.06453 -0.04356 -0.03587
 C253 C 0.08797 -0.05301 -0.02705
 C254 C 0.10048 -0.07136 -0.04416
 H255 H 0.15197 -0.12287 -0.17970
 H256 H 0.17772 -0.15046 -0.21040
 H257 H 0.17428 -0.21136 -0.14282
 H258 H 0.14663 -0.18461 -0.11333
 H259 H 0.14626 -0.14872 -0.08271
 H260 H 0.12145 -0.12021 -0.05191
 H261 H 0.08937 -0.08502 -0.13143
 H262 H 0.11246 -0.11516 -0.16209
 H263 H 0.05689 -0.07960 -0.09839
 H264 H 0.03577 -0.04654 -0.06960
 H265 H 0.09676 -0.04619 -0.00690
 H266 H 0.11884 -0.07743 -0.03713
 C267 C 0.14922 0.35317 0.35087
 C268 C 0.14961 0.35534 0.31948
 C269 C 0.16431 0.33863 0.30260
 C270 C 0.17867 0.31917 0.31666
 C271 C 0.17796 0.31659 0.34792
 C272 C 0.16352 0.33350 0.36485
 C273 C 0.13443 0.37169 0.36896
 C274 C 0.12277 0.36342 0.39553
 C275 C 0.10961 0.38105 0.41299
 C276 C 0.10756 0.40737 0.40419
 C277 C 0.11886 0.41553 0.37736
 C278 C 0.13223 0.39798 0.36008
 C279 C 0.09404 0.42631 0.42310
 C280 C 0.10262 0.45199 0.42570
 C281 C 0.09004 0.46981 0.44344
 C282 C 0.06872 0.46238 0.45940
 C283 C 0.06015 0.43669 0.45689
 C284 C 0.07259 0.41892 0.43887
 H285 H 0.13846 0.36987 0.30789
 H286 H 0.16430 0.34079 0.27848
 H287 H 0.18910 0.30192 0.35932
 H288 H 0.16406 0.33152 0.38896
 H289 H 0.12374 0.34326 0.40287
 H290 H 0.10141 0.37409 0.43367
 H291 H 0.11734 0.43553 0.36960
 H292 H 0.14122 0.40517 0.34000
 H293 H 0.11927 0.45831 0.41428
 H294 H 0.09696 0.48953 0.44442
 H295 H 0.04395 0.43020 0.46910
 H296 H 0.06525 0.39943 0.43711
 C297 C 0.64722 -0.14488 0.35841
 C298 C 0.64732 -0.14308 0.32700
 C299 C 0.66204 -0.15980 0.31020
 C300 C 0.67678 -0.17890 0.32438
 C301 C 0.67630 -0.18116 0.35568
 C302 C 0.66178 -0.16426 0.37252
 C303 C 0.63252 -0.12621 0.37636
 C304 C 0.62091 -0.13427 0.40304
 C305 C 0.60780 -0.11648 0.42035
 C306 C 0.60581 -0.09022 0.41130
 C307 C 0.61710 -0.08226 0.38439
 C308 C 0.63038 -0.09998 0.36723
 C309 C 0.59236 -0.07111 0.43001
 C310 C 0.60116 -0.04552 0.43264
 C311 C 0.58862 -0.02754 0.45020
 C312 C 0.56707 -0.03472 0.46587
 C313 C 0.55827 -0.06031 0.46331
 C314 C 0.57071 -0.07826 0.44552
 H315 H 0.63595 -0.12877 0.31534
 H316 H 0.66182 -0.15790 0.28606
 H317 H 0.68772 -0.19554 0.36717
 H318 H 0.66250 -0.16595 0.39665
 H319 H 0.62188 -0.15437 0.41056
 H320 H 0.59958 -0.12324 0.44110
 H321 H 0.61564 -0.06230 0.37647
 H322 H 0.63934 -0.09298 0.34705
 H323 H 0.61795 -0.03941 0.42137
 H324 H 0.59572 -0.00790 0.45128
 H325 H 0.54190 -0.06660 0.47533
 H326 H 0.56322 -0.09769 0.44373
 C327 C 0.65339 0.35810 -0.14426
 C328 C 0.64500 0.33318 -0.15161
 C329 C 0.65984 0.31658 -0.16849
 C330 C 0.68352 0.32446 -0.17809
 C331 C 0.69191 0.34938 -0.17045
 C332 C 0.67696 0.36605 -0.15389
 C333 C 0.63774 0.37581 -0.12646
 C334 C 0.63509 0.40207 -0.13502
 C335 C 0.62095 0.41901 -0.11781
 C336 C 0.60936 0.41015 -0.09143
 C337 C 0.61184 0.38375 -0.08307
 C338 C 0.62577 0.36674 -0.10050
 C339 C 0.59520 0.42850 -0.07245
 C340 C 0.57359 0.42046 -0.05743
 C341 C 0.56056 0.43769 -0.03930
 C342 C 0.56872 0.46344 -0.03591
 C343 C 0.59021 0.47151 -0.05113
 C344 C 0.60334 0.45424 -0.06901
 H345 H 0.62678 0.32670 -0.14468
 H346 H 0.65258 0.29773 -0.17436
 H347 H 0.71023 0.35592 -0.17685
 H348 H 0.68402 0.38503 -0.14813
 H349 H 0.64384 0.40946 -0.15519
 H350 H 0.61900 0.43905 -0.12531
 H351 H 0.60352 0.37632 -0.06268
 H352 H 0.62774 0.34662 -0.09326
 H353 H 0.56660 0.40089 -0.05984
 H354 H 0.54424 0.43073 -0.02767
 H355 H 0.59682 0.49130 -0.04945
 H356 H 0.62009 0.46103 -0.07985
 C357 C -0.15104 0.15196 -0.13243
 C358 C -0.17199 0.16416 -0.12048
 C359 C -0.18663 0.18090 -0.13809
 C360 C -0.18095 0.18601 -0.16859
 C361 C -0.15932 0.17391 -0.17999
 C362 C -0.14474 0.15729 -0.16224
 C363 C -0.13606 0.13331 -0.11411
 C364 C -0.12668 0.11049 -0.12687
 C365 C -0.11268 0.09282 -0.10981
 C366 C -0.10775 0.09749 -0.07954
 C367 C -0.11720 0.12024 -0.06667
 C368 C -0.13118 0.13798 -0.08379
 C369 C -0.09294 0.07852 -0.06154
 C370 C -0.10006 0.07164 -0.03227
 C371 C -0.08668 0.05287 -0.01591
 C372 C -0.06584 0.04071 -0.02843
 C373 C -0.05847 0.04799 -0.05747
 C374 C -0.07187 0.06665 -0.07384
 H375 H -0.17762 0.16008 -0.09767
 H376 H -0.20322 0.18828 -0.12770
 H377 H -0.15255 0.17787 -0.20229
 H378 H -0.12823 0.14883 -0.17188
 H379 H -0.13052 0.10604 -0.14999
 H380 H -0.10605 0.07523 -0.12021
 H381 H -0.11347 0.12449 -0.04348
 H382 H -0.13788 0.15554 -0.07339
 H383 H -0.11631 0.08032 -0.02228
 H384 H -0.09266 0.04784 0.00653
 H385 H -0.04265 0.03878 -0.06784
 H386 H -0.06576 0.07178 -0.09620
 C387 C -0.15429 0.64987 0.36768
 C388 C -0.16819 0.64007 0.34379
 C389 C -0.18335 0.65650 0.32656
 C390 C -0.18514 0.68311 0.33293
 C391 C -0.17160 0.69293 0.35707
 C392 C -0.15626 0.67649 0.37422
 C393 C -0.13777 0.63233 0.38551
 C394 C -0.13554 0.63498 0.41662
 C395 C -0.12042 0.61801 0.43333
 C396 C -0.10724 0.59794 0.41933
 C397 C -0.10933 0.59546 0.38820
 C398 C -0.12431 0.61249 0.37150
 C399 C -0.09178 0.57926 0.43706
 C400 C -0.06932 0.56979 0.42554
 C401 C -0.05549 0.55111 0.44136
 C402 C -0.06367 0.54155 0.46924
 C403 C -0.08581 0.55151 0.48114
 C404 C -0.09973 0.57008 0.46520
 H405 H -0.16758 0.61958 0.33855
 H406 H -0.19394 0.64832 0.30843
 H407 H -0.17247 0.71341 0.36229
 H408 H -0.14557 0.68474 0.39222
 H409 H -0.14582 0.64990 0.42816
 H410 H -0.11900 0.62066 0.45722
 H411 H -0.09972 0.58004 0.37671
 H412 H -0.12528 0.61013 0.34753
 H413 H -0.06243 0.57673 0.40415
 H414 H -0.03867 0.54369 0.43138
 H415 H -0.09245 0.54487 0.50275
 H416 H -0.11705 0.57676 0.47464
 C417 C 0.34559 0.14882 0.36377
 C418 C 0.33204 0.13830 0.34000
 C419 C 0.31698 0.15419 0.32196
 C420 C 0.31496 0.18095 0.32737
 C421 C 0.32825 0.19150 0.35130
 C422 C 0.34347 0.17562 0.36925
 C423 C 0.36185 0.13185 0.38266
 C424 C 0.36362 0.13552 0.41366
 C425 C 0.37855 0.11916 0.43140
 C426 C 0.39199 0.09868 0.41858
 C427 C 0.39034 0.09515 0.38755
 C428 C 0.37555 0.11157 0.36982
 C429 C 0.40726 0.08067 0.43744
 C430 C 0.42993 0.07092 0.42682
 C431 C 0.44362 0.05288 0.44378
 C432 C 0.43510 0.04426 0.47190
 C433 C 0.41275 0.05453 0.48287
 C434 C 0.39897 0.07245 0.46581
 H435 H 0.33280 0.11767 0.33553
 H436 H 0.30662 0.14546 0.30398
 H437 H 0.32724 0.21212 0.35578
 H438 H 0.35392 0.18443 0.38710
 H439 H 0.35314 0.15078 0.42433
 H440 H 0.37962 0.12262 0.45517
 H441 H 0.40015 0.07937 0.37696
 H442 H 0.37492 0.10841 0.34597
 H443 H 0.43708 0.07713 0.40528
 H444 H 0.46061 0.04519 0.43449
 H445 H 0.40583 0.04861 0.50462
 H446 H 0.38149 0.07937 0.47457
 C447 C 0.34567 0.64701 -0.13432
 C448 C 0.33321 0.63727 -0.15938
 C449 C 0.31831 0.65356 -0.17714
 C450 C 0.31530 0.67991 -0.17011
 C451 C 0.32739 0.68963 -0.14484
 C452 C 0.34251 0.67339 -0.12720
 C453 C 0.36194 0.62967 -0.11586
 C454 C 0.36290 0.63198 -0.08461
 C455 C 0.37788 0.61529 -0.06735
 C456 C 0.39215 0.59580 -0.08090
 C457 C 0.39130 0.59365 -0.11216
 C458 C 0.37649 0.61043 -0.12941
 C459 C 0.40746 0.57739 -0.06260
 C460 C 0.43049 0.56853 -0.07313
 C461 C 0.44422 0.55009 -0.05679
 C462 C 0.43539 0.54021 -0.02934
 C463 C 0.41269 0.54961 -0.01840
 C464 C 0.39885 0.56789 -0.03487
 H465 H 0.33474 0.61695 -0.16514
 H466 H 0.30887 0.64546 -0.19621
 H467 H 0.32557 0.70995 -0.13911
 H468 H 0.35209 0.68162 -0.10831
 H469 H 0.35176 0.64640 -0.07340
 H470 H 0.37832 0.61772 -0.04337
 H471 H 0.40175 0.57866 -0.12335
 H472 H 0.37653 0.60835 -0.15345
 H473 H 0.43790 0.57574 -0.09413
 H474 H 0.46149 0.54311 -0.06607
 H475 H 0.40552 0.54275 0.00287
 H476 H 0.38110 0.57408 -0.02619
 C477 C -0.15418 -0.14872 0.14009
 C478 C -0.15948 -0.17414 0.13102
 C479 C -0.17482 -0.19033 0.14822
 C480 C -0.18510 -0.18175 0.17538
 C481 C -0.17954 -0.15619 0.18434
 C482 C -0.16453 -0.13995 0.16689
 C483 C -0.13812 -0.13128 0.12165
 C484 C -0.12216 -0.11344 0.13532
 C485 C -0.10777 -0.09638 0.11810
 C486 C -0.10866 -0.09691 0.08671
 C487 C -0.12424 -0.11511 0.07302
 C488 C -0.13888 -0.13197 0.09025
 C489 C -0.09383 -0.07817 0.06844
 C490 C -0.10340 -0.06754 0.04164
 C491 C -0.08986 -0.04926 0.02503
 C492 C -0.06652 -0.04086 0.03496
 C493 C -0.05682 -0.05171 0.06158
 C494 C -0.07022 -0.07023 0.07799
 H495 H -0.15140 -0.18179 0.11084
 H496 H -0.17759 -0.20998 0.14062
 H497 H -0.18766 -0.14799 0.20419
 H498 H -0.16149 -0.12023 0.17419
 H499 H -0.12073 -0.11263 0.15941
 H500 H -0.09629 -0.08243 0.12949
 H501 H -0.12515 -0.11638 0.04892
 H502 H -0.15113 -0.14522 0.07891
 H503 H -0.12162 -0.07290 0.03373
 H504 H -0.09774 -0.04171 0.00438
 H505 H -0.03904 -0.04553 0.07012
 H506 H -0.06204 -0.07830 0.09822
 C507 C -0.14818 0.34897 0.63463
 C508 C -0.17196 0.34211 0.62469
 C509 C -0.18712 0.32606 0.64226
 C510 C -0.17881 0.31642 0.67012
 C511 C -0.15484 0.32294 0.67979
 C512 C -0.13973 0.33908 0.66229
 C513 C -0.13251 0.36692 0.61658
 C514 C -0.11938 0.38700 0.63040
 C515 C -0.10518 0.40442 0.61341
 C516 C -0.10367 0.40209 0.58220
 C517 C -0.11661 0.38181 0.56842
 C518 C -0.13092 0.36446 0.58542
 C519 C -0.08907 0.42111 0.56413
 C520 C -0.09796 0.43031 0.53634
 C521 C -0.08475 0.44900 0.51994
 C522 C -0.06238 0.45903 0.53098
 C523 C -0.05328 0.44951 0.55852
 C524 C -0.06644 0.43075 0.57486
 H525 H -0.17909 0.34972 0.60366
 H526 H -0.20561 0.32175 0.63434
 H527 H -0.14768 0.31545 0.70086
 H528 H -0.12135 0.34373 0.67030
 H529 H -0.12057 0.38963 0.65431
 H530 H -0.09584 0.42009 0.62468
 H531 H -0.11552 0.37922 0.54450
 H532 H -0.14059 0.34896 0.57422
 H533 H -0.11544 0.42350 0.52754
 H534 H -0.09210 0.45565 0.49861
 H535 H -0.03624 0.45699 0.56780
 H536 H -0.05889 0.42382 0.59597
 C537 C 0.35024 -0.14763 0.63979
 C538 C 0.34835 -0.17402 0.63224
 C539 C 0.33333 -0.19094 0.64894
 C540 C 0.32005 -0.18188 0.67368
 C541 C 0.32203 -0.15558 0.68135
 C542 C 0.33685 -0.13863 0.66454
 C543 C 0.36587 -0.12945 0.62184
 C544 C 0.37929 -0.10962 0.63579
 C545 C 0.39334 -0.09200 0.61890
 C546 C 0.39451 -0.09386 0.58762
 C547 C 0.38139 -0.11392 0.57369
 C548 C 0.36719 -0.13145 0.59058
 C549 C 0.40899 -0.07464 0.56965
 C550 C 0.40009 -0.06542 0.54188
 C551 C 0.41330 -0.04675 0.52545
 C552 C 0.43566 -0.03669 0.53648
 C553 C 0.44470 -0.04612 0.56409
 C554 C 0.43159 -0.06492 0.58041
 H555 H 0.35870 -0.18170 0.61363
 H556 H 0.33235 -0.21119 0.64274
 H557 H 0.31167 -0.14798 0.70002
 H558 H 0.33745 -0.11834 0.67064
 H559 H 0.37901 -0.10772 0.65984
 H560 H 0.40294 -0.07661 0.63037
 H561 H 0.38213 -0.11615 0.54970
 H562 H 0.35688 -0.14630 0.57905
 H563 H 0.38263 -0.07225 0.53305
 H564 H 0.40599 -0.04023 0.50406
 H565 H 0.46172 -0.03861 0.57341
 H566 H 0.43919 -0.07186 0.60149
 C567 C 0.34931 0.34637 0.13263
 C568 C 0.32585 0.33931 0.12185
 C569 C 0.31042 0.32309 0.13885
 C570 C 0.31815 0.31347 0.16697
 C571 C 0.34182 0.32019 0.17747
 C572 C 0.35720 0.33651 0.16053
 C573 C 0.36523 0.36452 0.11519
 C574 C 0.37778 0.38473 0.12950
 C575 C 0.39220 0.40234 0.11306
 C576 C 0.39452 0.40007 0.08192
 C577 C 0.38217 0.37965 0.06765
 C578 C 0.36764 0.36211 0.08409
 C579 C 0.40932 0.41930 0.06441
 C580 C 0.40103 0.42841 0.03632
 C581 C 0.41439 0.44731 0.02045
 C582 C 0.43632 0.45765 0.03233
 C583 C 0.44485 0.44823 0.06017
 C584 C 0.43154 0.42925 0.07599
 H585 H 0.31915 0.34690 0.10061
 H586 H 0.29216 0.31863 0.13030
 H587 H 0.34855 0.31272 0.19875
 H588 H 0.37534 0.34131 0.16919
 H589 H 0.37596 0.38731 0.15337
 H590 H 0.40106 0.41811 0.12469
 H591 H 0.38389 0.37710 0.04377
 H592 H 0.35843 0.34651 0.07253
 H593 H 0.38388 0.42136 0.02687
 H594 H 0.40751 0.45387 -0.00114
 H595 H 0.46154 0.45595 0.07009
 H596 H 0.43864 0.42240 0.09736
 C597 C 0.15423 0.14374 0.13130
 C598 C 0.17757 0.13568 0.14208
 C599 C 0.19161 0.15187 0.16023
 C600 C 0.18260 0.17647 0.16835
 C601 C 0.15922 0.18452 0.15767
 C602 C 0.14524 0.16839 0.13930
 C603 C 0.13933 0.12637 0.11202
 C604 C 0.11340 0.12507 0.11500
 C605 C 0.09954 0.10809 0.09754
 C606 C 0.11133 0.09188 0.07693
 C607 C 0.13716 0.09338 0.07363
 C608 C 0.15099 0.11052 0.09085
 C609 C 0.09684 0.07287 0.05957
 C610 C 0.10523 0.04711 0.05711
 C611 C 0.09136 0.02889 0.04150
 C612 C 0.06886 0.03607 0.02767
 C613 C 0.06061 0.06199 0.02987
 C614 C 0.07440 0.08015 0.04579
 H615 H 0.18493 0.11669 0.13677
 H616 H 0.20967 0.14516 0.16766
 H617 H 0.15157 0.20321 0.16374
 H618 H 0.12748 0.17536 0.13114
 H619 H 0.10384 0.13668 0.13138
 H620 H 0.07967 0.10709 0.10076
 H621 H 0.14665 0.08135 0.05758
 H622 H 0.17083 0.11141 0.08748
 H623 H 0.12229 0.04088 0.06790
 H624 H 0.09802 0.00901 0.04083
 H625 H 0.04359 0.06831 0.01911
 H626 H 0.06765 0.09998 0.04709
 C627 C 0.15691 0.64518 0.63306
 C628 C 0.18061 0.63748 0.64298
 C629 C 0.19481 0.65382 0.66075
 C630 C 0.18562 0.67821 0.66938
 C631 C 0.16192 0.68596 0.65945
 C632 C 0.14778 0.66967 0.64144
 C633 C 0.14178 0.62755 0.61435
 C634 C 0.11594 0.62590 0.61820
 C635 C 0.10190 0.60871 0.60123
 C636 C 0.11342 0.59262 0.58027
 C637 C 0.13915 0.59442 0.57616
 C638 C 0.15315 0.61178 0.59287
 C639 C 0.09875 0.57365 0.56309
 C640 C 0.10722 0.54795 0.56018
 C641 C 0.09347 0.52997 0.54406
 C642 C 0.07105 0.53734 0.53016
 C643 C 0.06260 0.56311 0.53312
 C644 C 0.07624 0.58103 0.54956
 H645 H 0.18812 0.61862 0.63737
 H646 H 0.21312 0.64736 0.66756
 H647 H 0.15413 0.70447 0.66592
 H648 H 0.12973 0.67638 0.63391
 H649 H 0.10662 0.63743 0.63484
 H650 H 0.08211 0.60750 0.60502
 H651 H 0.14841 0.58251 0.55981
 H652 H 0.17289 0.61294 0.58882
 H653 H 0.12432 0.54167 0.57080
 H654 H 0.10027 0.51017 0.54282
 H655 H 0.04564 0.56957 0.52234
 H656 H 0.06944 0.60081 0.55125
 C657 C 0.65633 0.14519 0.64238
 C658 C 0.67997 0.13740 0.65241
 C659 C 0.69445 0.15394 0.66962
 C660 C 0.68558 0.17865 0.67756
 C661 C 0.66186 0.18641 0.66770
 C662 C 0.64746 0.16993 0.65024
 C663 C 0.64107 0.12756 0.62382
 C664 C 0.61518 0.12637 0.62741
 C665 C 0.60097 0.10946 0.61026
 C666 C 0.61236 0.09320 0.58939
 C667 C 0.63816 0.09446 0.58563
 C668 C 0.65233 0.11153 0.60252
 C669 C 0.59747 0.07471 0.57178
 C670 C 0.60548 0.04888 0.56863
 C671 C 0.59161 0.03140 0.55193
 C672 C 0.56954 0.03942 0.53769
 C673 C 0.56151 0.06531 0.54095
 C674 C 0.57527 0.08273 0.55796
 H675 H 0.68727 0.11835 0.64720
 H676 H 0.71274 0.14744 0.67642
 H677 H 0.65429 0.20515 0.67368
 H678 H 0.62947 0.17671 0.64263
 H679 H 0.60593 0.13811 0.64391
 H680 H 0.58113 0.10867 0.61379
 H681 H 0.64734 0.08240 0.56935
 H682 H 0.67212 0.11233 0.59866
 H683 H 0.62233 0.04211 0.57946
 H684 H 0.59806 0.01149 0.55049
 H685 H 0.54482 0.07225 0.52995
 H686 H 0.56883 0.10262 0.55982
 C687 C 0.65360 0.64408 0.14214
 C688 C 0.67699 0.63632 0.15301
 C689 C 0.69112 0.65299 0.17045
 C690 C 0.68215 0.67782 0.17774
 C691 C 0.65871 0.68558 0.16698
 C692 C 0.64463 0.66894 0.14933
 C693 C 0.63868 0.62625 0.12346
 C694 C 0.61275 0.62497 0.12654
 C695 C 0.59887 0.60777 0.10939
 C696 C 0.61063 0.59132 0.08899
 C697 C 0.63647 0.59273 0.08570
 C698 C 0.65032 0.61006 0.10262
 C699 C 0.59610 0.57251 0.07140
 C700 C 0.60450 0.54678 0.06847
 C701 C 0.59105 0.52903 0.05166
 C702 C 0.56899 0.53666 0.03712
 C703 C 0.56053 0.56241 0.04023
 C704 C 0.57389 0.58011 0.05730
 H705 H 0.68434 0.61718 0.14830
 H706 H 0.70923 0.64649 0.17797
 H707 H 0.65108 0.70443 0.17244
 H708 H 0.62682 0.67567 0.14107
 H709 H 0.60322 0.63685 0.14268
 H710 H 0.57899 0.60688 0.11256
 H711 H 0.64595 0.58056 0.06978
 H712 H 0.67016 0.61093 0.09917
 H713 H 0.62135 0.54030 0.07952
 H714 H 0.59782 0.50923 0.05032
 H715 H 0.54382 0.56904 0.02899
 H716 H 0.56714 0.59991 0.05897
   
