data_POSCAR
  _audit_creation_date              2014-09-24
  _audit_creation_method            'ToBaCCo'
  _symmetry_space_group_name_H-M    'P1'
  _symmetry_Int_Tables_number       1
  _symmetry_cell_setting            triclinic
  loop_
  _symmetry_equiv_pos_as_xyz
 x,y,z
_cell_length_a 27.4901
_cell_length_b 26.9779
_cell_length_c 27.6342
_cell_angle_alpha 89.891300
_cell_angle_beta 89.644500
_cell_angle_gamma 88.971400
loop_
  _atom_site_label
  _atom_site_type_symbol
  _atom_site_fract_x
  _atom_site_fract_y
  _atom_site_fract_z
C1 C 0.29359 0.25071 0.21638
 C2 C 0.29217 0.21324 0.25169
 C3 C 0.25495 0.21222 0.28668
 C4 C 0.21909 0.24992 0.28679
 C5 C 0.21975 0.28818 0.25231
 C6 C 0.25714 0.28806 0.21723
 H7 H 0.31966 0.18435 0.25216
 H8 H 0.19052 0.24882 0.31354
 H9 H 0.25752 0.31707 0.19014
 C10 C 0.69719 -0.25657 0.22299
 C11 C 0.69897 -0.21933 0.25865
 C12 C 0.73655 -0.21818 0.29262
 C13 C 0.77304 -0.25508 0.29129
 C14 C 0.77371 -0.29229 0.25549
 C15 C 0.73512 -0.29271 0.22185
 H16 H 0.67051 -0.19118 0.26081
 H17 H 0.80203 -0.25345 0.31747
 H18 H 0.73479 -0.32113 0.19451
 C19 C 0.72423 0.24415 0.79259
 C20 C 0.72071 0.21343 0.75198
 C21 C 0.75500 0.21566 0.71435
 C22 C 0.79284 0.24991 0.71722
 C23 C 0.79818 0.28095 0.75802
 C24 C 0.76352 0.27648 0.79582
 H25 H 0.69097 0.18780 0.74965
 H26 H 0.81681 0.25264 0.68635
 H27 H 0.76769 0.29687 0.82886
 C28 C 0.27354 -0.23885 0.80014
 C29 C 0.23422 -0.27126 0.80347
 C30 C 0.19884 -0.27397 0.76667
 C31 C 0.20387 -0.24165 0.72666
 C32 C 0.24187 -0.20753 0.72371
 C33 C 0.27665 -0.20658 0.76056
 H34 H 0.23114 -0.29348 0.83582
 H35 H 0.17963 -0.24351 0.69623
 H36 H 0.30656 -0.18117 0.75818
 C37 C 0.70583 -0.24798 0.80024
 C38 C 0.74153 -0.28577 0.79966
 C39 C 0.77612 -0.28976 0.76196
 C40 C 0.77514 -0.25332 0.72527
 C41 C 0.74075 -0.21407 0.72584
 C42 C 0.70601 -0.21214 0.76327
 H43 H 0.74145 -0.31316 0.82792
 H44 H 0.80169 -0.25456 0.69630
 H45 H 0.67871 -0.18301 0.76372
 C46 C 0.29129 0.25089 0.79431
 C47 C 0.25491 0.28798 0.79581
 C48 C 0.21824 0.29040 0.76076
 C49 C 0.21806 0.25462 0.72397
 C50 C 0.25388 0.21680 0.72170
 C51 C 0.29037 0.21548 0.75707
 H52 H 0.25489 0.31537 0.82409
 H53 H 0.19014 0.25607 0.69686
 H54 H 0.31840 0.18713 0.75587
 C55 C 0.27560 -0.24598 0.21933
 C56 C 0.23834 -0.28156 0.21981
 C57 C 0.20259 -0.28196 0.25631
 C58 C 0.20542 -0.24823 0.29456
 C59 C 0.24256 -0.21351 0.29618
 C60 C 0.27656 -0.21187 0.25817
 H61 H 0.23699 -0.31029 0.19285
 H62 H 0.17841 -0.24889 0.32325
 H63 H 0.30260 -0.18244 0.25855
 C64 C 0.71636 0.24539 0.21579
 C65 C 0.71489 0.20980 0.25285
 C66 C 0.74875 0.21015 0.29075
 C67 C 0.78437 0.24683 0.29096
 C68 C 0.78645 0.28302 0.25433
 C69 C 0.75194 0.28202 0.21717
 H70 H 0.68761 0.18137 0.25193
 H71 H 0.81090 0.24723 0.31941
 H72 H 0.75260 0.30937 0.18881
 O73 O 0.21064 0.05058 0.45720
 O74 O 0.20973 -0.04215 0.55486
 O75 O 0.21053 0.05449 0.55189
 O76 O 0.20970 -0.04536 0.46168
 O77 O 0.29001 -0.04798 0.46125
 O78 O 0.29077 0.05278 0.55093
 O79 O 0.29002 -0.04425 0.55489
 O80 O 0.29092 0.04793 0.45642
 Cu81 Cu 0.20209 0.00496 0.50662
 Cu82 Cu 0.29853 0.00220 0.50604
 C83 C 0.25093 0.06441 0.43947
 C84 C 0.24964 -0.05977 0.57094
 C85 C 0.25078 0.07070 0.56692
 C86 C 0.24962 -0.06401 0.44629
 O87 O 0.78519 0.04523 0.55031
 O88 O 0.78236 -0.05427 0.45962
 O89 O 0.78372 0.04100 0.45663
 O90 O 0.78320 -0.05190 0.55421
 O91 O 0.70296 -0.04979 0.55487
 O92 O 0.70346 0.04492 0.45868
 O93 O 0.70208 -0.05072 0.46029
 O94 O 0.70495 0.04769 0.55255
 Cu95 Cu 0.79167 -0.00545 0.50550
 Cu96 Cu 0.69528 -0.00185 0.50720
 C97 C 0.74562 0.06411 0.56630
 C98 C 0.74180 -0.06852 0.44344
 C99 C 0.74372 0.05862 0.44074
 C100 C 0.74299 -0.06724 0.57082
 O101 O 0.45837 0.20665 0.04914
 O102 O 0.55463 0.20305 -0.04445
 O103 O 0.55365 0.20307 0.04979
 O104 O 0.46021 0.20429 -0.04484
 O105 O 0.46074 0.28607 -0.04581
 O106 O 0.55451 0.28483 0.04847
 O107 O 0.55466 0.28484 -0.04543
 O108 O 0.45935 0.28839 0.04860
 Cu109 Cu 0.50666 0.19605 0.00277
 Cu110 Cu 0.50729 0.29424 0.00163
 C111 C 0.44217 0.24814 0.06462
 C112 C 0.57077 0.24350 -0.06125
 C113 C 0.57054 0.24369 0.06484
 C114 C 0.44479 0.24538 -0.06181
 O115 O 0.53571 0.79063 0.05934
 O116 O 0.44246 0.79621 -0.03651
 O117 O 0.44199 0.79680 0.05768
 O118 O 0.53754 0.79603 -0.03552
 O119 O 0.53621 0.71434 -0.03777
 O120 O 0.43892 0.71504 0.05455
 O121 O 0.44214 0.71441 -0.03838
 O122 O 0.53423 0.70894 0.05707
 Cu123 Cu 0.48982 0.80311 0.01130
 Cu124 Cu 0.48818 0.70496 0.00887
 C125 C 0.55032 0.74862 0.07503
 C126 C 0.42612 0.75598 -0.05347
 C127 C 0.42379 0.75630 0.07153
 C128 C 0.55292 0.75519 -0.05298
 O129 O 0.04762 0.45405 0.21150
 O130 O -0.05467 0.54394 0.21154
 O131 O 0.03969 0.55025 0.21243
 O132 O -0.04674 0.44749 0.21406
 O133 O -0.04739 0.44900 0.29387
 O134 O 0.04009 0.55004 0.29231
 O135 O -0.05362 0.54576 0.29136
 O136 O 0.04771 0.45430 0.29133
 Cu137 Cu -0.00363 0.49875 0.20437
 Cu138 Cu -0.00346 0.49954 0.30024
 C139 C 0.06540 0.43903 0.25131
 C140 C -0.07112 0.56086 0.25137
 C141 C 0.05466 0.56766 0.25227
 C142 C -0.06205 0.43090 0.25432
 O143 O 0.04030 0.55425 0.80844
 O144 O -0.04576 0.45194 0.80506
 O145 O 0.04858 0.45810 0.80593
 O146 O -0.05452 0.54740 0.80366
 O147 O -0.05314 0.54590 0.72383
 O148 O 0.05346 0.46239 0.72632
 O149 O -0.04012 0.44970 0.72531
 O150 O 0.03999 0.55838 0.72860
 Cu151 Cu -0.00303 0.50296 0.81380
 Cu152 Cu 0.00037 0.50416 0.71799
 C153 C 0.05428 0.57426 0.76930
 C154 C -0.05719 0.43292 0.76485
 C155 C 0.06883 0.44527 0.76630
 C156 C -0.07185 0.56134 0.76321
 C157 C 0.34603 0.20622 0.15375
 C158 C 0.33145 0.25022 0.17734
 C159 C 0.35006 0.29492 0.15854
 C160 C 0.38505 0.29461 0.12098
 C161 C 0.40239 0.24957 0.10093
 C162 C 0.37995 0.20613 0.11629
 C163 C 0.40167 0.15742 0.13067
 C164 C 0.36555 0.15762 0.17242
 H165 H 0.33922 0.33022 0.17415
 H166 H 0.39983 0.32954 0.10908
 H167 H 0.44015 0.16023 0.14241
 H168 H 0.39473 0.12809 0.10351
 H169 H 0.38412 0.16069 0.20788
 H170 H 0.33848 0.12762 0.16994
 C171 C 0.63030 0.78597 0.17942
 C172 C 0.65815 0.74286 0.18941
 C173 C 0.64417 0.69918 0.16492
 C174 C 0.60813 0.70065 0.12880
 C175 C 0.58535 0.74579 0.11539
 C176 C 0.59538 0.78741 0.14333
 C177 C 0.60803 0.83864 0.12812
 C178 C 0.64636 0.83733 0.16745
 H179 H 0.66062 0.66352 0.17323
 H180 H 0.59963 0.66667 0.11009
 H181 H 0.57793 0.86569 0.13547
 H182 H 0.62367 0.84009 0.09094
 H183 H 0.63831 0.86400 0.19717
 H184 H 0.68424 0.83808 0.15314
 C185 C 0.66269 0.28740 -0.15356
 C186 C 0.68548 0.24342 -0.16960
 C187 C 0.66517 0.19837 -0.15378
 C188 C 0.62709 0.19802 -0.11929
 C189 C 0.60792 0.24278 -0.10018
 C190 C 0.62468 0.28696 -0.12033
 C191 C 0.64023 0.33351 -0.09656
 C192 C 0.68254 0.33374 -0.13215
 H193 H 0.67986 0.16330 -0.16673
 H194 H 0.61389 0.16273 -0.10653
 H195 H 0.65159 0.32764 -0.05839
 H196 H 0.61374 0.36454 -0.10237
 H197 H 0.71791 0.32781 -0.11362
 H198 H 0.68103 0.36549 -0.15783
 C199 C 0.33452 0.80201 -0.14539
 C200 C 0.31234 0.75954 -0.16281
 C201 C 0.32990 0.71396 -0.14344
 C202 C 0.36719 0.71266 -0.10817
 C203 C 0.38802 0.75691 -0.09089
 C204 C 0.36995 0.80074 -0.11115
 C205 C 0.37317 0.85566 -0.10867
 C206 C 0.33299 0.85723 -0.14732
 H207 H 0.31526 0.67924 -0.15579
 H208 H 0.37937 0.67698 -0.09439
 H209 H 0.40883 0.86911 -0.12195
 H210 H 0.36107 0.87047 -0.07298
 H211 H 0.34556 0.87196 -0.18273
 H212 H 0.29780 0.87290 -0.13381
 C213 C 0.16640 0.35277 0.29449
 C214 C 0.18165 0.32822 0.25206
 C215 C 0.16246 0.34641 0.20797
 C216 C 0.12581 0.38365 0.20741
 C217 C 0.10745 0.40405 0.25096
 C218 C 0.13095 0.39004 0.29373
 C219 C 0.11096 0.37624 0.34198
 C220 C 0.14897 0.33465 0.34277
 H221 H 0.17396 0.33020 0.17387
 H222 H 0.11041 0.39471 0.17299
 H223 H 0.07299 0.36284 0.34007
 H224 H 0.11730 0.40528 0.36959
 H225 H 0.13176 0.29775 0.34142
 H226 H 0.17660 0.33918 0.37155
 C227 C 0.15941 0.65383 0.80531
 C228 C 0.15980 0.69182 0.77007
 C229 C 0.11865 0.69400 0.73898
 C230 C 0.08367 0.65641 0.73922
 C231 C 0.08752 0.61633 0.77151
 C232 C 0.12399 0.61766 0.80627
 C233 C 0.15912 0.57765 0.82048
 C234 C 0.19815 0.61666 0.81917
 H235 H 0.11282 0.72390 0.71360
 H236 H 0.05420 0.65819 0.71340
 H237 H 0.16390 0.54874 0.79212
 H238 H 0.15165 0.56334 0.85748
 H239 H 0.22561 0.61054 0.78997
 H240 H 0.21350 0.62386 0.85555
 C241 C -0.15725 0.66319 0.29341
 C242 C -0.18681 0.67294 0.25295
 C243 C -0.17323 0.64816 0.20948
 C244 C -0.13509 0.61247 0.20858
 C245 C -0.10976 0.59968 0.25112
 C246 C -0.12026 0.62749 0.29257
 C247 C -0.13080 0.61079 0.34294
 C248 C -0.17136 0.64974 0.34409
 H249 H -0.19123 0.65631 0.17566
 H250 H -0.12654 0.59387 0.17482
 H251 H -0.10055 0.61900 0.36803
 H252 H -0.14419 0.57217 0.34455
 H253 H -0.16442 0.68010 0.37015
 H254 H -0.20832 0.63376 0.34643
 C255 C -0.16234 0.35165 0.79832
 C256 C -0.16305 0.31545 0.76149
 C257 C -0.12246 0.31528 0.72912
 C258 C -0.08746 0.35290 0.73037
 C259 C -0.09086 0.39108 0.76475
 C260 C -0.12706 0.38783 0.80008
 C261 C -0.16207 0.42702 0.81675
 C262 C -0.20098 0.38799 0.81469
 H263 H -0.11702 0.28693 0.70208
 H264 H -0.05827 0.35256 0.70386
 H265 H -0.16725 0.45725 0.78974
 H266 H -0.15421 0.43957 0.85414
 H267 H -0.22889 0.39544 0.78650
 H268 H -0.21571 0.37907 0.85113
 C269 C 0.29605 0.14929 0.34050
 C270 C 0.25323 0.17101 0.32238
 C271 C 0.20874 0.15131 0.33864
 C272 C 0.20780 0.11568 0.37599
 C273 C 0.25132 0.09890 0.39791
 C274 C 0.29514 0.11429 0.37728
 C275 C 0.33939 0.13465 0.40053
 C276 C 0.34041 0.17297 0.36012
 H277 H 0.17456 0.16437 0.32362
 H278 H 0.17294 0.10279 0.38883
 H279 H 0.37070 0.10804 0.39914
 H280 H 0.33160 0.15091 0.43677
 H281 H 0.37226 0.16834 0.33547
 H282 H 0.33323 0.21151 0.37287
 C283 C 0.79363 0.16303 0.64928
 C284 C 0.75161 0.18218 0.67183
 C285 C 0.70641 0.16730 0.65314
 C286 C 0.70420 0.12985 0.61769
 C287 C 0.74710 0.10640 0.60018
 C288 C 0.79146 0.12617 0.61452
 C289 C 0.83655 0.10094 0.63275
 C290 C 0.83894 0.14144 0.67082
 H291 H 0.67271 0.18309 0.66713
 H292 H 0.66889 0.11784 0.60572
 H293 H 0.86684 0.10228 0.60598
 H294 H 0.82947 0.06363 0.64818
 H295 H 0.87055 0.16610 0.66589
 H296 H 0.83327 0.12767 0.70836
 C297 C 0.20285 -0.15496 0.65931
 C298 C 0.24508 -0.17346 0.68150
 C299 C 0.29011 -0.15867 0.66177
 C300 C 0.29193 -0.12229 0.62507
 C301 C 0.24878 -0.09986 0.60738
 C302 C 0.20462 -0.11920 0.62334
 C303 C 0.15975 -0.09340 0.64182
 C304 C 0.15779 -0.13273 0.68124
 H305 H 0.32396 -0.17404 0.67548
 H306 H 0.32709 -0.11058 0.61192
 H307 H 0.12915 -0.09552 0.61584
 H308 H 0.16701 -0.05565 0.65585
 H309 H 0.12613 -0.15752 0.67787
 H310 H 0.16389 -0.11786 0.71817
 C311 C 0.69561 -0.15638 0.34825
 C312 C 0.73831 -0.17731 0.32857
 C313 C 0.78281 -0.15675 0.34305
 C314 C 0.78408 -0.12091 0.38003
 C315 C 0.74088 -0.10462 0.40334
 C316 C 0.69684 -0.12104 0.38461
 C317 C 0.65382 -0.14226 0.40994
 C318 C 0.65246 -0.18094 0.37002
 H319 H 0.81680 -0.16908 0.32673
 H320 H 0.81901 -0.10713 0.39121
 H321 H 0.62190 -0.11639 0.40960
 H322 H 0.66307 -0.15805 0.44600
 H323 H 0.61979 -0.17724 0.34670
 H324 H 0.66089 -0.21921 0.38287
 C325 C 0.64186 0.71000 -0.14879
 C326 C 0.66671 0.75305 -0.16220
 C327 C 0.64879 0.79845 -0.14310
 C328 C 0.61096 0.79953 -0.10842
 C329 C 0.58975 0.75525 -0.09211
 C330 C 0.60408 0.71133 -0.11529
 C331 C 0.61697 0.66178 -0.09484
 C332 C 0.65914 0.66037 -0.13057
 H333 H 0.66527 0.83307 -0.15342
 H334 H 0.59970 0.83488 -0.09315
 H335 H 0.58885 0.63386 -0.10265
 H336 H 0.62864 0.66364 -0.05643
 H337 H 0.65591 0.63083 -0.15829
 H338 H 0.69470 0.66147 -0.11173
 C339 C 0.35658 0.29202 -0.15666
 C340 C 0.33126 0.24933 -0.16963
 C341 C 0.34907 0.20360 -0.15122
 C342 C 0.38709 0.20189 -0.11727
 C343 C 0.40857 0.24587 -0.10101
 C344 C 0.39452 0.29010 -0.12384
 C345 C 0.38233 0.33980 -0.10333
 C346 C 0.34003 0.34186 -0.13841
 H347 H 0.33220 0.16921 -0.16135
 H348 H 0.39810 0.16634 -0.10228
 H349 H 0.41080 0.36735 -0.11164
 H350 H 0.37075 0.33806 -0.06473
 H351 H 0.34360 0.37133 -0.16630
 H352 H 0.30454 0.34131 -0.11899
 C353 C 0.35109 0.78757 0.18351
 C354 C 0.31037 0.75651 0.18082
 C355 C 0.30546 0.72972 0.13679
 C356 C 0.34219 0.72974 0.10109
 C357 C 0.38422 0.75765 0.10726
 C358 C 0.38649 0.78861 0.14741
 C359 C 0.42701 0.79368 0.18246
 C360 C 0.38879 0.79213 0.22221
 H361 H 0.27386 0.70814 0.12892
 H362 H 0.33795 0.70746 0.06886
 H363 H 0.44485 0.83021 0.17926
 H364 H 0.45228 0.76102 0.18254
 H365 H 0.38561 0.82773 0.24226
 H366 H 0.39168 0.75847 0.24538
 C367 C 0.66563 0.28766 0.15220
 C368 C 0.68187 0.24390 0.17468
 C369 C 0.66570 0.19871 0.15530
 C370 C 0.63020 0.19835 0.11872
 C371 C 0.61008 0.24316 0.10071
 C372 C 0.63068 0.28733 0.11631
 C373 C 0.60700 0.33395 0.13455
 C374 C 0.64544 0.33434 0.17388
 H375 H 0.67947 0.16364 0.16911
 H376 H 0.61736 0.16304 0.10590
 H377 H 0.56959 0.32802 0.14871
 H378 H 0.61044 0.36504 0.10837
 H379 H 0.63039 0.32865 0.21088
 H380 H 0.67102 0.36560 0.17025
 C381 C -0.17762 0.64341 0.80310
 C382 C -0.18988 0.66997 0.76086
 C383 C -0.16741 0.65330 0.71733
 C384 C -0.13050 0.61644 0.71779
 C385 C -0.11442 0.59540 0.76169
 C386 C -0.14074 0.60760 0.80353
 C387 C -0.12341 0.62262 0.85226
 C388 C -0.16365 0.66192 0.85204
 H389 H -0.17775 0.66845 0.68257
 H390 H -0.11309 0.60622 0.68390
 H391 H -0.08628 0.63833 0.85124
 H392 H -0.12906 0.59320 0.87983
 H393 H -0.14992 0.70044 0.85098
 H394 H -0.19220 0.65512 0.87981
 C395 C -0.14865 0.33288 0.21200
 C396 C -0.17399 0.32010 0.25444
 C397 C -0.15649 0.33956 0.29840
 C398 C -0.11864 0.37406 0.29876
 C399 C -0.09710 0.39008 0.25516
 C400 C -0.11095 0.36641 0.21258
 C401 C -0.12347 0.38737 0.16429
 C402 C -0.16551 0.35168 0.16371
 H403 H -0.17349 0.33001 0.33251
 H404 H -0.10802 0.38991 0.33299
 H405 H -0.09507 0.37862 0.13665
 H406 H -0.13532 0.42697 0.16605
 H407 H -0.16193 0.32307 0.13496
 H408 H -0.20116 0.37172 0.16526
 C409 C 0.16978 0.35992 0.72162
 C410 C 0.18135 0.33134 0.76258
 C411 C 0.16075 0.34692 0.80718
 C412 C 0.12564 0.38563 0.80907
 C413 C 0.11053 0.41003 0.76643
 C414 C 0.13582 0.39844 0.72372
 C415 C 0.11816 0.38940 0.67372
 C416 C 0.15466 0.34651 0.67139
 H417 H 0.16993 0.32760 0.84036
 H418 H 0.10865 0.39456 0.84350
 H419 H 0.12713 0.42027 0.64870
 H420 H 0.07967 0.37742 0.67290
 H421 H 0.18415 0.35225 0.64436
 H422 H 0.13612 0.31036 0.66910
 C423 C 0.14116 0.66415 0.29708
 C424 C 0.16171 0.68285 0.25449
 C425 C 0.14065 0.66846 0.21028
 C426 C 0.10458 0.63198 0.20926
 C427 C 0.08876 0.60923 0.25244
 C428 C 0.10579 0.62829 0.29610
 C429 C 0.12639 0.60218 0.33925
 C430 C 0.16519 0.64161 0.34033
 H431 H 0.15293 0.68421 0.17638
 H432 H 0.09064 0.62028 0.17463
 H433 H 0.14107 0.56454 0.33051
 H434 H 0.10127 0.60396 0.37089
 H435 H 0.20240 0.62691 0.33222
 H436 H 0.16232 0.66608 0.37257
 C437 C 0.69841 -0.16101 0.66251
 C438 C 0.74114 -0.17642 0.68626
 C439 C 0.78560 -0.15932 0.66702
 C440 C 0.78645 -0.12484 0.62869
 C441 C 0.74283 -0.10641 0.60832
 C442 C 0.69942 -0.12743 0.62433
 C443 C 0.65238 -0.10335 0.63865
 C444 C 0.65141 -0.13918 0.68108
 H445 H 0.81987 -0.17110 0.68279
 H446 H 0.82124 -0.11128 0.61635
 H447 H 0.62329 -0.11003 0.61181
 H448 H 0.65648 -0.06402 0.64966
 H449 H 0.62111 -0.16583 0.67922
 H450 H 0.65507 -0.11966 0.71621
 C451 C 0.20308 -0.16096 0.36068
 C452 C 0.24536 -0.17881 0.33766
 C453 C 0.29037 -0.16361 0.35645
 C454 C 0.29208 -0.12728 0.39299
 C455 C 0.24883 -0.10532 0.41141
 C456 C 0.20474 -0.12513 0.39641
 C457 C 0.15948 -0.09982 0.37870
 C458 C 0.15764 -0.13922 0.33953
 H459 H 0.32424 -0.17856 0.34198
 H460 H 0.32721 -0.11500 0.40521
 H461 H 0.16624 -0.06201 0.36432
 H462 H 0.12911 -0.10222 0.40529
 H463 H 0.16331 -0.12434 0.30240
 H464 H 0.12625 -0.16432 0.34365
 C465 C 0.78950 0.14506 0.34339
 C466 C 0.74734 0.17095 0.32868
 C467 C 0.70247 0.15415 0.34718
 C468 C 0.70089 0.11663 0.38270
 C469 C 0.74416 0.09461 0.40042
 C470 C 0.78774 0.10756 0.37772
 C471 C 0.83569 0.12019 0.39869
 C472 C 0.83753 0.16204 0.36193
 H473 H 0.66858 0.17143 0.33576
 H474 H 0.66593 0.10638 0.39755
 H475 H 0.86363 0.09064 0.39210
 H476 H 0.83273 0.13330 0.43675
 H477 H 0.86723 0.15716 0.33479
 H478 H 0.83559 0.19888 0.37981
 C479 C 0.29564 0.16566 0.65614
 C480 C 0.25318 0.18011 0.68140
 C481 C 0.20860 0.16275 0.66328
 C482 C 0.20751 0.12867 0.62477
 C483 C 0.25099 0.11093 0.60312
 C484 C 0.29436 0.13250 0.61780
 C485 C 0.34218 0.10922 0.63017
 C486 C 0.34348 0.14453 0.67283
 H487 H 0.17447 0.17367 0.68023
 H488 H 0.17271 0.11455 0.61360
 H489 H 0.37044 0.11684 0.60233
 H490 H 0.33916 0.06966 0.64102
 H491 H 0.37321 0.17180 0.67012
 H492 H 0.34107 0.12440 0.70786
   
