data_POSCAR
  _audit_creation_date              2014-09-24
  _audit_creation_method            'ToBaCCo'
  _symmetry_space_group_name_H-M    'P1'
  _symmetry_Int_Tables_number       1
  _symmetry_cell_setting            triclinic
  loop_
  _symmetry_equiv_pos_as_xyz
 x,y,z
_cell_length_a 56.5263
_cell_length_b 56.5570
_cell_length_c 57.7207
_cell_angle_alpha 90.007500
_cell_angle_beta 89.978900
_cell_angle_gamma 90.224500
loop_
  _atom_site_label
  _atom_site_type_symbol
  _atom_site_fract_x
  _atom_site_fract_y
  _atom_site_fract_z
C1 C 0.04987 0.29749 0.02491
 C2 C 0.06310 0.29672 0.00448
 C3 C 0.05235 0.29538 -0.01745
 C4 C 0.02719 0.29365 -0.01861
 C5 C 0.01350 0.29554 0.00195
 C6 C 0.02491 0.29764 0.02375
 C7 C 0.01108 0.29961 0.04388
 C8 C -0.01345 0.29842 0.04282
 C9 C -0.02518 0.29561 0.02153
 C10 C -0.01167 0.29434 0.00085
 C11 C 0.01544 0.28781 -0.03933
 C12 C -0.00908 0.28640 -0.04039
 C13 C -0.02319 0.29085 -0.02080
 C14 C -0.04839 0.28957 -0.02178
 C15 C -0.06115 0.29012 -0.00088
 C16 C -0.05002 0.29319 0.02050
 H17 H 0.01909 0.30194 0.06075
 H18 H -0.02308 0.29938 0.05898
 H19 H 0.02505 0.28324 -0.05487
 H20 H -0.01674 0.28082 -0.05665
 H21 H 0.08222 0.29768 0.00585
 H22 H -0.08032 0.28925 -0.00114
 C23 C 0.45305 0.80225 0.51870
 C24 C 0.44174 0.80202 0.49716
 C25 C 0.45458 0.80183 0.47645
 C26 C 0.47961 0.80217 0.47714
 C27 C 0.49138 0.80229 0.49885
 C28 C 0.47808 0.80234 0.51971
 C29 C 0.49014 0.80201 0.54100
 C30 C 0.51473 0.80172 0.54183
 C31 C 0.52828 0.80132 0.52140
 C32 C 0.51652 0.80198 0.49970
 C33 C 0.49317 0.80247 0.45672
 C34 C 0.51777 0.80215 0.45754
 C35 C 0.52983 0.80194 0.47883
 C36 C 0.55484 0.80123 0.47985
 C37 C 0.56614 0.80048 0.50138
 C38 C 0.55329 0.80036 0.52209
 H39 H 0.48070 0.80183 0.55730
 H40 H 0.52300 0.80181 0.55873
 H41 H 0.48491 0.80295 0.43983
 H42 H 0.52720 0.80191 0.44124
 H43 H 0.42256 0.80155 0.49653
 H44 H 0.58530 0.79955 0.50202
 C45 C 0.95250 0.69113 -0.02120
 C46 C 0.94124 0.69210 0.00052
 C47 C 0.95397 0.69487 0.02110
 C48 C 0.97893 0.69606 0.02043
 C49 C 0.99086 0.69417 -0.00111
 C50 C 0.97772 0.69109 -0.02187
 C51 C 0.99021 0.68615 -0.04239
 C52 C 1.01477 0.68718 -0.04314
 C53 C 1.02809 0.69308 -0.02337
 C54 C 1.01605 0.69501 -0.00184
 C55 C 0.99230 0.69854 0.04081
 C56 C 1.01686 0.69946 0.04009
 C57 C 1.02910 0.69747 0.01899
 C58 C 1.05408 0.69795 0.01820
 C59 C 1.06568 0.69692 -0.00315
 C60 C 1.05323 0.69521 -0.02419
 H61 H 0.98115 0.68082 -0.05805
 H62 H 1.02322 0.68263 -0.05934
 H63 H 0.98393 0.69960 0.05764
 H64 H 1.02612 0.70171 0.05634
 H65 H 0.92208 0.69254 0.00150
 H66 H 1.08479 0.69866 -0.00324
 C67 C 0.55083 0.19823 0.52074
 C68 C 0.56192 0.19895 0.49909
 C69 C 0.54886 0.19898 0.47852
 C70 C 0.52386 0.19793 0.47947
 C71 C 0.51231 0.19736 0.50129
 C72 C 0.52582 0.19752 0.52202
 C73 C 0.51396 0.19746 0.54343
 C74 C 0.48938 0.19718 0.54450
 C75 C 0.47563 0.19735 0.52422
 C76 C 0.48718 0.19704 0.50239
 C77 C 0.51011 0.19735 0.45918
 C78 C 0.48553 0.19701 0.46026
 C79 C 0.47368 0.19683 0.48167
 C80 C 0.44867 0.19693 0.48293
 C81 C 0.43756 0.19739 0.50457
 C82 C 0.45061 0.19777 0.52515
 H83 H 0.52355 0.19780 0.55964
 H84 H 0.48127 0.19683 0.56148
 H85 H 0.51821 0.19716 0.44220
 H86 H 0.47594 0.19706 0.44405
 H87 H 0.58108 0.19992 0.49825
 H88 H 0.41839 0.19793 0.50539
 C89 C 0.69901 -0.05035 0.02189
 C90 C 0.70039 -0.06290 0.00094
 C91 C 0.69965 -0.05171 -0.02076
 C92 C 0.69833 -0.02657 -0.02155
 C93 C 0.69647 -0.01347 -0.00061
 C94 C 0.69596 -0.02542 0.02105
 C95 C 0.69089 -0.01223 0.04113
 C96 C 0.68912 0.01222 0.04042
 C97 C 0.69202 0.02462 0.01955
 C98 C 0.69516 0.01172 -0.00128
 C99 C 0.69990 -0.01402 -0.04255
 C100 C 0.69832 0.01046 -0.04319
 C101 C 0.69686 0.02392 -0.02275
 C102 C 0.69578 0.04913 -0.02321
 C103 C 0.69217 0.06131 -0.00229
 C104 C 0.69102 0.04958 0.01897
 H105 H 0.68769 -0.02069 0.05763
 H106 H 0.68511 0.02131 0.05644
 H107 H 0.70271 -0.02282 -0.05890
 H108 H 0.69798 0.01857 -0.06012
 H109 H 0.70226 -0.08196 0.00152
 H110 H 0.69216 0.08050 -0.00221
 C111 C 0.19520 0.55375 0.51898
 C112 C 0.19525 0.56511 0.49746
 C113 C 0.19542 0.55231 0.47672
 C114 C 0.19492 0.52728 0.47740
 C115 C 0.19487 0.51548 0.49910
 C116 C 0.19480 0.52874 0.51996
 C117 C 0.19381 0.51666 0.54123
 C118 C 0.19391 0.49208 0.54205
 C119 C 0.19494 0.47856 0.52164
 C120 C 0.19489 0.49036 0.49994
 C121 C 0.19394 0.51375 0.45699
 C122 C 0.19388 0.48917 0.45781
 C123 C 0.19485 0.47709 0.47908
 C124 C 0.19526 0.45208 0.48007
 C125 C 0.19532 0.44074 0.50160
 C126 C 0.19548 0.45354 0.52234
 H127 H 0.19273 0.52608 0.55750
 H128 H 0.19290 0.48378 0.55891
 H129 H 0.19294 0.52204 0.44013
 H130 H 0.19284 0.47973 0.44154
 H131 H 0.19604 0.58427 0.49685
 H132 H 0.19613 0.42158 0.50222
 C133 C 0.30321 0.95299 -0.02398
 C134 C 0.30483 0.94038 -0.00307
 C135 C 0.30170 0.95134 0.01838
 C136 C 0.29755 0.97596 0.01938
 C137 C 0.29765 0.98950 -0.00130
 C138 C 0.30052 0.97804 -0.02302
 C139 C 0.30137 0.99205 -0.04311
 C140 C 0.29733 1.01622 -0.04223
 C141 C 0.29421 1.02808 -0.02101
 C142 C 0.29427 1.01449 -0.00026
 C143 C 0.29228 0.98717 0.04042
 C144 C 0.28815 1.01132 0.04134
 C145 C 0.29008 1.02562 0.02145
 C146 C 0.28592 1.05040 0.02241
 C147 C 0.28457 1.06310 0.00156
 C148 C 0.28940 1.05276 -0.02003
 H149 H 0.30510 0.98452 -0.05992
 H150 H 0.29618 1.02524 -0.05866
 H151 H 0.29063 0.97729 0.05638
 H152 H 0.28276 1.01847 0.05787
 H153 H 0.30678 0.92130 -0.00337
 H154 H 0.28204 1.08209 0.00232
 C155 C 0.79620 0.55048 0.47926
 C156 C 0.79578 0.56191 0.50073
 C157 C 0.79595 0.54920 0.52150
 C158 C 0.79649 0.52418 0.52094
 C159 C 0.79675 0.51230 0.49927
 C160 C 0.79646 0.52548 0.47835
 C161 C 0.79552 0.51331 0.45712
 C162 C 0.79513 0.48872 0.45640
 C163 C 0.79575 0.47528 0.47686
 C164 C 0.79651 0.48716 0.49852
 C165 C 0.79587 0.51074 0.54141
 C166 C 0.79579 0.48616 0.54068
 C167 C 0.79624 0.47399 0.51944
 C168 C 0.79549 0.44898 0.51854
 C169 C 0.79459 0.43757 0.49708
 C170 C 0.79473 0.45027 0.47631
 H171 H 0.79460 0.52266 0.44081
 H172 H 0.79396 0.48040 0.43956
 H173 H 0.79506 0.51907 0.55825
 H174 H 0.79491 0.47681 0.55700
 H175 H 0.79533 0.58108 0.50129
 H176 H 0.79378 0.41841 0.49652
 O177 O 0.24167 0.20987 0.24358
 O178 O 0.22449 0.25653 0.28468
 O179 O 0.21023 0.24318 0.24371
 O180 O 0.25606 0.22324 0.28456
 O181 O 0.28174 0.24759 0.26835
 O182 O 0.23593 0.26755 0.22756
 O183 O 0.25020 0.28089 0.26851
 O184 O 0.26735 0.23424 0.22739
 Cu185 Cu 0.23055 0.23076 0.26577
 Cu186 Cu 0.26139 0.26000 0.24635
 C187 C 0.25727 0.21414 0.22828
 C188 C 0.23449 0.27666 0.28372
 C189 C 0.21529 0.25864 0.22850
 C190 C 0.27671 0.23214 0.28357
 O191 O 0.76710 0.73233 0.22286
 O192 O 0.72148 0.75138 0.26431
 O193 O 0.73531 0.76530 0.22341
 O194 O 0.75333 0.71843 0.26383
 O195 O 0.77892 0.74288 0.28004
 O196 O 0.76093 0.78978 0.23952
 O197 O 0.74705 0.77586 0.28050
 O198 O 0.79273 0.75678 0.23901
 Cu199 Cu 0.74175 0.73941 0.24199
 Cu200 Cu 0.77248 0.76877 0.26140
 C201 C 0.78767 0.74144 0.22368
 C202 C 0.72649 0.76675 0.27962
 C203 C 0.74517 0.78550 0.22439
 C204 C 0.76905 0.72268 0.27900
 O205 O 0.74043 0.28882 0.25775
 O206 O 0.72072 0.24309 0.21656
 O207 O 0.70747 0.25671 0.25782
 O208 O 0.75394 0.27503 0.21670
 O209 O 0.77854 0.24965 0.23271
 O210 O 0.73212 0.23122 0.27358
 O211 O 0.74540 0.21767 0.23238
 O212 O 0.76499 0.26337 0.27370
 Cu213 Cu 0.72816 0.26845 0.23560
 Cu214 Cu 0.75772 0.23792 0.25466
 C215 C 0.75594 0.28389 0.27290
 C216 C 0.72981 0.22259 0.21729
 C217 C 0.71193 0.24097 0.27289
 C218 C 0.77418 0.26538 0.21761
 O219 O 0.27732 0.75996 0.21839
 O220 O 0.25767 0.71416 0.25961
 O221 O 0.24437 0.72782 0.21842
 O222 O 0.29071 0.74620 0.25951
 O223 O 0.26601 0.77157 0.27540
 O224 O 0.21968 0.75324 0.23425
 O225 O 0.23295 0.73956 0.27542
 O226 O 0.25265 0.78534 0.23431
 Cu227 Cu 0.26999 0.73449 0.23739
 Cu228 Cu 0.24035 0.76497 0.25644
 C229 C 0.26822 0.78046 0.21919
 C230 C 0.24206 0.71908 0.27470
 C231 C 0.22415 0.73752 0.21916
 C232 C 0.28625 0.76190 0.27462
 O233 O 0.71982 0.24849 0.73467
 O234 O 0.76669 0.26757 0.77492
 O235 O 0.75221 0.28117 0.73418
 O236 O 0.73420 0.23507 0.77557
 O237 O 0.75903 0.21009 0.75928
 O238 O 0.77696 0.25624 0.71770
 O239 O 0.79149 0.24265 0.75849
 O240 O 0.74458 0.22349 0.71832
 Cu241 Cu 0.74073 0.26056 0.75647
 Cu242 Cu 0.77049 0.23061 0.73679
 C243 C 0.72422 0.23286 0.71947
 C244 C 0.78706 0.25823 0.77373
 C245 C 0.76754 0.27657 0.71874
 C246 C 0.74371 0.21478 0.77471
 O247 O 0.28528 0.75252 0.73357
 O248 O 0.23910 0.73358 0.77463
 O249 O 0.25244 0.72029 0.73337
 O250 O 0.27191 0.76584 0.77481
 O251 O 0.24708 0.79122 0.75917
 O252 O 0.22756 0.74564 0.71776
 O253 O 0.21423 0.75897 0.75907
 O254 O 0.26043 0.77787 0.71790
 Cu255 Cu 0.26467 0.74052 0.75566
 Cu256 Cu 0.23483 0.77097 0.73691
 C257 C 0.28072 0.76830 0.71857
 C258 C 0.21882 0.74315 0.77402
 C259 C 0.23680 0.72521 0.71835
 C260 C 0.26270 0.78628 0.77421
 O261 O 0.25548 0.29219 0.74026
 O262 O 0.27375 0.24646 0.78203
 O263 O 0.28777 0.25959 0.74087
 O264 O 0.24158 0.27911 0.78151
 O265 O 0.21641 0.25395 0.76572
 O266 O 0.26257 0.23448 0.72506
 O267 O 0.24858 0.22135 0.76616
 O268 O 0.23029 0.26703 0.72452
 Cu269 Cu 0.26717 0.27187 0.76274
 Cu270 Cu 0.23694 0.24170 0.74377
 C271 C 0.23987 0.28738 0.72513
 C272 C 0.26414 0.22611 0.78135
 C273 C 0.28304 0.24380 0.72590
 C274 C 0.22115 0.26970 0.78073
 O275 O 0.73886 0.76713 0.72519
 O276 O 0.78450 0.74859 0.76678
 O277 O 0.77128 0.73478 0.72560
 O278 O 0.75197 0.78097 0.76635
 O279 O 0.72671 0.75589 0.78212
 O280 O 0.74603 0.70969 0.74138
 O281 O 0.75925 0.72351 0.78258
 O282 O 0.71359 0.74204 0.74094
 Cu283 Cu 0.76419 0.76038 0.74442
 Cu284 Cu 0.73388 0.73027 0.76335
 C285 C 0.71847 0.75762 0.72580
 C286 C 0.77966 0.73298 0.78190
 C287 C 0.76179 0.71439 0.72635
 C288 C 0.73611 0.77631 0.78129
 C289 C 0.26580 0.09464 0.06621
 C290 C 0.28192 0.09081 0.08417
 C291 C 0.29927 0.07342 0.08183
 C292 C 0.30047 0.05985 0.06161
 C293 C 0.28412 0.06327 0.04344
 C294 C 0.26696 0.08115 0.04599
 C295 C 0.28083 0.10517 0.10471
 C296 C 0.27952 0.11762 0.12161
 C297 C 0.27751 0.13268 0.14099
 C298 C 0.27534 0.14595 0.15718
 C299 C 0.27217 0.16227 0.17604
 C300 C 0.28434 0.18386 0.17609
 C301 C 0.27995 0.20053 0.19344
 C302 C 0.26327 0.19581 0.21096
 C303 C 0.25154 0.17381 0.21107
 C304 C 0.25596 0.15717 0.19369
 H305 H 0.25234 0.10813 0.06781
 H306 H 0.31207 0.07056 0.09550
 H307 H 0.31470 0.04719 0.05990
 H308 H 0.25404 0.08437 0.03250
 H309 H 0.29686 0.18802 0.16246
 H310 H 0.28927 0.21728 0.19285
 H311 H 0.23859 0.16963 0.22429
 H312 H 0.24638 0.14054 0.19376
 C313 C 0.77308 0.58986 0.56831
 C314 C 0.79215 0.59038 0.58377
 C315 C 0.81245 0.57708 0.57906
 C316 C 0.81369 0.56339 0.55888
 C317 C 0.79457 0.56284 0.54336
 C318 C 0.77430 0.57622 0.54818
 C319 C 0.79085 0.60501 0.60415
 C320 C 0.78915 0.61767 0.62087
 C321 C 0.78646 0.63294 0.64004
 C322 C 0.78359 0.64632 0.65605
 C323 C 0.77948 0.66270 0.67470
 C324 C 0.79085 0.68472 0.67480
 C325 C 0.78554 0.70135 0.69194
 C326 C 0.76870 0.69618 0.70921
 C327 C 0.75776 0.67378 0.70926
 C328 C 0.76310 0.65718 0.69209
 H329 H 0.75732 0.60015 0.57173
 H330 H 0.82736 0.57745 0.59085
 H331 H 0.82956 0.55338 0.55526
 H332 H 0.75947 0.57611 0.53629
 H333 H 0.80348 0.68922 0.66137
 H334 H 0.79427 0.71842 0.69140
 H335 H 0.74472 0.66923 0.72228
 H336 H 0.75413 0.64022 0.69214
 C337 C 0.69367 0.90152 0.06597
 C338 C 0.70871 0.90984 0.08338
 C339 C 0.72032 0.93154 0.08064
 C340 C 0.71692 0.94488 0.06052
 C341 C 0.70162 0.93682 0.04285
 C342 C 0.69025 0.91476 0.04584
 C343 C 0.71277 0.89563 0.10365
 C344 C 0.71617 0.88320 0.12026
 C345 C 0.72019 0.86805 0.13925
 C346 C 0.72372 0.85459 0.15505
 C347 C 0.72810 0.83793 0.17336
 C348 C 0.74499 0.84289 0.19042
 C349 C 0.75020 0.82604 0.20738
 C350 C 0.73861 0.80396 0.20742
 C351 C 0.72134 0.79934 0.19044
 C352 C 0.71616 0.81622 0.17353
 H353 H 0.68466 0.88468 0.06787
 H354 H 0.73232 0.93798 0.09388
 H355 H 0.72691 0.96112 0.05846
 H356 H 0.67825 0.90793 0.03281
 H357 H 0.75438 0.85963 0.19040
 H358 H 0.76360 0.83013 0.22019
 H359 H 0.71210 0.78254 0.18997
 H360 H 0.70309 0.81218 0.16036
 C361 C 0.18287 0.40947 0.57023
 C362 C 0.20296 0.41218 0.58419
 C363 C 0.22026 0.42893 0.57827
 C364 C 0.21759 0.44273 0.55836
 C365 C 0.19751 0.44004 0.54426
 C366 C 0.18019 0.42329 0.55031
 C367 C 0.20633 0.39714 0.60402
 C368 C 0.20947 0.38424 0.62036
 C369 C 0.21349 0.36879 0.63915
 C370 C 0.21720 0.35528 0.65488
 C371 C 0.22197 0.33878 0.67328
 C372 C 0.23862 0.34432 0.69040
 C373 C 0.24415 0.32777 0.70756
 C374 C 0.23311 0.30542 0.70776
 C375 C 0.21612 0.30018 0.69068
 C376 C 0.21062 0.31675 0.67356
 H377 H 0.16946 0.39646 0.57455
 H378 H 0.23596 0.43104 0.58884
 H379 H 0.23134 0.45527 0.55373
 H380 H 0.16472 0.42080 0.53949
 H381 H 0.24757 0.36129 0.69031
 H382 H 0.25732 0.33235 0.72043
 H383 H 0.20730 0.28315 0.69033
 H384 H 0.19774 0.31226 0.66036
 C385 C 0.90787 0.27217 0.06698
 C386 C 0.90440 0.29288 0.07981
 C387 C 0.91618 0.31374 0.07347
 C388 C 0.93132 0.31388 0.05427
 C389 C 0.93484 0.29311 0.04141
 C390 C 0.92297 0.27230 0.04784
 C391 C 0.88835 0.29258 0.09916
 C392 C 0.87463 0.29154 0.11511
 C393 C 0.85830 0.28941 0.13348
 C394 C 0.84418 0.28681 0.14892
 C395 C 0.82716 0.28278 0.16704
 C396 C 0.83223 0.26676 0.18480
 C397 C 0.81516 0.26146 0.20154
 C398 C 0.79272 0.27211 0.20070
 C399 C 0.78794 0.28857 0.18305
 C400 C 0.80506 0.29383 0.16630
 H401 H 0.89878 0.25597 0.07169
 H402 H 0.91353 0.32988 0.08322
 H403 H 0.94016 0.33014 0.04933
 H404 H 0.92535 0.25620 0.03795
 H405 H 0.84925 0.25804 0.18548
 H406 H 0.81942 0.24873 0.21490
 H407 H 0.77084 0.29707 0.18191
 H408 H 0.80092 0.30619 0.15256
 C409 C 0.40948 0.77983 0.56331
 C410 C 0.40817 0.79905 0.57853
 C411 C 0.42176 0.81938 0.57431
 C412 C 0.43659 0.82046 0.55490
 C413 C 0.43799 0.80115 0.53966
 C414 C 0.42427 0.78089 0.54394
 C415 C 0.39260 0.79781 0.59825
 C416 C 0.37928 0.79610 0.61449
 C417 C 0.36338 0.79334 0.63318
 C418 C 0.34959 0.79037 0.64886
 C419 C 0.33288 0.78607 0.66723
 C420 C 0.33820 0.76979 0.68470
 C421 C 0.32141 0.76437 0.70171
 C422 C 0.29902 0.77516 0.70144
 C423 C 0.29401 0.79187 0.68406
 C424 C 0.31084 0.79725 0.66707
 H425 H 0.39900 0.76405 0.56636
 H426 H 0.42081 0.83439 0.58593
 H427 H 0.44688 0.83631 0.55168
 H428 H 0.42503 0.76592 0.53226
 H429 H 0.35518 0.76096 0.68495
 H430 H 0.32584 0.75144 0.71482
 H431 H 0.27695 0.80048 0.68335
 H432 H 0.30650 0.80982 0.65357
 C433 C 0.09693 0.72313 0.06211
 C434 C 0.09794 0.70485 0.07843
 C435 C 0.08440 0.68432 0.07517
 C436 C 0.06994 0.68207 0.05562
 C437 C 0.06883 0.70042 0.03927
 C438 C 0.08249 0.72091 0.04259
 C439 C 0.11319 0.70715 0.09827
 C440 C 0.12625 0.70949 0.11462
 C441 C 0.14188 0.71272 0.13343
 C442 C 0.15550 0.71589 0.14919
 C443 C 0.17212 0.72020 0.16762
 C444 C 0.16690 0.73670 0.18493
 C445 C 0.18363 0.74199 0.20202
 C446 C 0.20586 0.73085 0.20197
 C447 C 0.21075 0.71395 0.18474
 C448 C 0.19399 0.70869 0.16768
 H449 H 0.10739 0.73905 0.06442
 H450 H 0.08514 0.67002 0.08764
 H451 H 0.05968 0.66605 0.05316
 H452 H 0.08194 0.73515 0.03005
 H453 H 0.15005 0.74576 0.18501
 H454 H 0.17931 0.75508 0.21502
 H455 H 0.22768 0.70507 0.18420
 H456 H 0.19824 0.69594 0.15431
 C457 C 0.59422 0.22113 0.56527
 C458 C 0.59597 0.20182 0.58034
 C459 C 0.58279 0.18125 0.57600
 C460 C 0.56792 0.18003 0.55664
 C461 C 0.56606 0.19944 0.54157
 C462 C 0.57939 0.21993 0.54596
 C463 C 0.61155 0.20322 0.60003
 C464 C 0.62487 0.20502 0.61624
 C465 C 0.64079 0.20783 0.63489
 C466 C 0.65464 0.21082 0.65051
 C467 C 0.67148 0.21507 0.66876
 C468 C 0.66632 0.23129 0.68634
 C469 C 0.68328 0.23669 0.70318
 C470 C 0.70569 0.22595 0.70261
 C471 C 0.71054 0.20929 0.68514
 C472 C 0.69354 0.20392 0.66832
 H473 H 0.60438 0.23709 0.56842
 H474 H 0.58408 0.16617 0.58749
 H475 H 0.55793 0.16400 0.55334
 H476 H 0.57826 0.23498 0.53441
 H477 H 0.64933 0.24009 0.68679
 H478 H 0.67898 0.24959 0.71637
 H479 H 0.72760 0.20072 0.68420
 H480 H 0.69776 0.19140 0.65474
 C481 C 0.68884 0.09640 0.93215
 C482 C 0.70765 0.09138 0.91722
 C483 C 0.72262 0.07238 0.92201
 C484 C 0.71869 0.05830 0.94156
 C485 C 0.69945 0.06278 0.95649
 C486 C 0.68488 0.08238 0.95171
 C487 C 0.71185 0.10611 0.89731
 C488 C 0.71530 0.11874 0.88082
 C489 C 0.71934 0.13388 0.86179
 C490 C 0.72284 0.14718 0.84583
 C491 C 0.72714 0.16353 0.82719
 C492 C 0.74349 0.15808 0.80980
 C493 C 0.74854 0.17454 0.79238
 C494 C 0.73730 0.19670 0.79220
 C495 C 0.72056 0.20182 0.80953
 C496 C 0.71555 0.18533 0.82690
 H497 H 0.67724 0.11119 0.92870
 H498 H 0.73751 0.06861 0.91080
 H499 H 0.73114 0.04431 0.94534
 H500 H 0.67001 0.08655 0.96281
 H501 H 0.75260 0.14125 0.80989
 H502 H 0.76152 0.17007 0.77931
 H503 H 0.71160 0.21870 0.80990
 H504 H 0.70288 0.18974 0.84030
 C505 C 0.22029 0.57718 0.42084
 C506 C 0.20303 0.59382 0.41494
 C507 C 0.18292 0.59636 0.42888
 C508 C 0.18018 0.58248 0.44876
 C509 C 0.19748 0.56583 0.45480
 C510 C 0.21758 0.56331 0.44071
 C511 C 0.20649 0.60897 0.39516
 C512 C 0.20973 0.62194 0.37888
 C513 C 0.21392 0.63747 0.36016
 C514 C 0.21784 0.65102 0.34449
 C515 C 0.22292 0.66756 0.32617
 C516 C 0.21205 0.68975 0.32602
 C517 C 0.21792 0.70636 0.30901
 C518 C 0.23482 0.70100 0.29190
 C519 C 0.24535 0.67848 0.29195
 C520 C 0.23944 0.66190 0.30899
 H521 H 0.23602 0.57520 0.41029
 H522 H 0.16953 0.60929 0.42457
 H523 H 0.16470 0.58484 0.45957
 H524 H 0.23131 0.55086 0.44534
 H525 H 0.19928 0.69434 0.33927
 H526 H 0.20950 0.72351 0.30948
 H527 H 0.25843 0.67380 0.27904
 H528 H 0.24801 0.64480 0.30898
 C529 C 0.31606 0.90654 0.93173
 C530 C 0.29860 0.91119 0.91522
 C531 C 0.28302 0.93003 0.91855
 C532 C 0.28481 0.94413 0.93836
 C533 C 0.30245 0.93982 0.95512
 C534 C 0.31789 0.92059 0.95158
 C535 C 0.29592 0.89598 0.89541
 C536 C 0.29325 0.88299 0.87906
 C537 C 0.28964 0.86749 0.86023
 C538 C 0.28612 0.85400 0.84444
 C539 C 0.28138 0.83758 0.82596
 C540 C 0.26500 0.84329 0.80869
 C541 C 0.25927 0.82679 0.79154
 C542 C 0.26984 0.80429 0.79148
 C543 C 0.28662 0.79889 0.80867
 C544 C 0.29232 0.81543 0.82580
 H545 H 0.32811 0.89188 0.92940
 H546 H 0.26914 0.93351 0.90609
 H547 H 0.27172 0.95781 0.94100
 H548 H 0.33165 0.91661 0.96402
 H549 H 0.25637 0.86037 0.80870
 H550 H 0.24628 0.83150 0.77857
 H551 H 0.29507 0.78175 0.80912
 H552 H 0.30497 0.81080 0.83913
 C553 C 0.81004 0.42195 0.41869
 C554 C 0.78945 0.40881 0.41431
 C555 C 0.77055 0.40966 0.42997
 C556 C 0.77224 0.42344 0.44998
 C557 C 0.79281 0.43663 0.45448
 C558 C 0.81174 0.43579 0.43875
 C559 C 0.78771 0.39395 0.39413
 C560 C 0.78563 0.38109 0.37759
 C561 C 0.78248 0.36561 0.35864
 C562 C 0.77922 0.35207 0.34282
 C563 C 0.77465 0.33556 0.32435
 C564 C 0.78537 0.31330 0.32450
 C565 C 0.77969 0.29663 0.30747
 C566 C 0.76312 0.30202 0.29007
 C567 C 0.75279 0.32462 0.28981
 C568 C 0.75851 0.34125 0.30686
 H569 H 0.82481 0.42133 0.40675
 H570 H 0.75459 0.39950 0.42681
 H571 H 0.75755 0.42377 0.46204
 H572 H 0.82784 0.44564 0.44213
 H573 H 0.79782 0.30867 0.33801
 H574 H 0.78795 0.27941 0.30817
 H575 H 0.73997 0.32933 0.27668
 H576 H 0.75003 0.35840 0.30663
 C577 C 0.07616 0.31034 0.92374
 C578 C 0.09690 0.29694 0.92341
 C579 C 0.10308 0.28344 0.94274
 C580 C 0.08847 0.28303 0.96224
 C581 C 0.06711 0.29589 0.96266
 C582 C 0.06147 0.30997 0.94325
 C583 C 0.11177 0.29658 0.90318
 C584 C 0.12454 0.29554 0.88649
 C585 C 0.13985 0.29348 0.86729
 C586 C 0.15322 0.29101 0.85121
 C587 C 0.16952 0.28720 0.83244
 C588 C 0.19161 0.29845 0.83247
 C589 C 0.20822 0.29325 0.81527
 C590 C 0.20295 0.27664 0.79785
 C591 C 0.18046 0.26586 0.79765
 C592 C 0.16389 0.27110 0.81486
 H593 H 0.07136 0.32109 0.90896
 H594 H 0.11911 0.27300 0.94266
 H595 H 0.09350 0.27187 0.97666
 H596 H 0.04588 0.32105 0.94330
 H597 H 0.19618 0.31087 0.84606
 H598 H 0.22535 0.30185 0.81593
 H599 H 0.17585 0.25300 0.78450
 H600 H 0.14688 0.26221 0.81474
 C601 C 0.59781 0.77846 0.43500
 C602 C 0.59969 0.79784 0.42001
 C603 C 0.58667 0.81838 0.42446
 C604 C 0.57185 0.81952 0.44387
 C605 C 0.56988 0.80007 0.45887
 C606 C 0.58303 0.77959 0.45436
 C607 C 0.61526 0.79653 0.40030
 C608 C 0.62857 0.79478 0.38406
 C609 C 0.64442 0.79198 0.36536
 C610 C 0.65816 0.78897 0.34966
 C611 C 0.67478 0.78465 0.33124
 C612 C 0.69715 0.79533 0.33165
 C613 C 0.71384 0.78991 0.31457
 C614 C 0.70837 0.77366 0.29688
 C615 C 0.68566 0.76337 0.29637
 C616 C 0.66901 0.76883 0.31346
 H617 H 0.60785 0.76251 0.43177
 H618 H 0.58807 0.83351 0.41303
 H619 H 0.56201 0.83555 0.44728
 H620 H 0.58183 0.76449 0.46586
 H621 H 0.70184 0.80754 0.34538
 H622 H 0.73115 0.79813 0.31547
 H623 H 0.68087 0.75080 0.28301
 H624 H 0.65177 0.76039 0.31302
 C625 C 0.90174 0.68131 0.93829
 C626 C 0.90783 0.69633 0.91999
 C627 C 0.92900 0.70916 0.92086
 C628 C 0.94397 0.70712 0.94001
 C629 C 0.93817 0.69197 0.95863
 C630 C 0.91665 0.67924 0.95749
 C631 C 0.89189 0.69935 0.90079
 C632 C 0.87833 0.70227 0.88493
 C633 C 0.86225 0.70613 0.86664
 C634 C 0.84835 0.70982 0.85124
 C635 C 0.83154 0.71471 0.83315
 C636 C 0.83706 0.73114 0.81583
 C637 C 0.82032 0.73680 0.79891
 C638 C 0.79780 0.72611 0.79912
 C639 C 0.79255 0.70934 0.81641
 C640 C 0.80932 0.70371 0.83331
 H641 H 0.88533 0.67135 0.93784
 H642 H 0.93370 0.72116 0.90695
 H643 H 0.95962 0.71822 0.94064
 H644 H 0.91150 0.66731 0.97129
 H645 H 0.85419 0.73980 0.81558
 H646 H 0.82493 0.74978 0.78586
 H647 H 0.77539 0.70079 0.81707
 H648 H 0.80485 0.69100 0.84668
 C649 C 0.41685 0.17953 0.42764
 C650 C 0.40353 0.19990 0.42334
 C651 C 0.40513 0.21921 0.43845
 C652 C 0.41995 0.21820 0.45776
 C653 C 0.43344 0.19791 0.46211
 C654 C 0.43172 0.17850 0.44701
 C655 C 0.38800 0.20115 0.40363
 C656 C 0.37472 0.20291 0.38738
 C657 C 0.35890 0.20576 0.36869
 C658 C 0.34518 0.20887 0.35301
 C659 C 0.32856 0.21337 0.33466
 C660 C 0.30610 0.20286 0.33512
 C661 C 0.28937 0.20854 0.31819
 C662 C 0.29488 0.22489 0.30059
 C663 C 0.31768 0.23497 0.30001
 C664 C 0.33437 0.22926 0.31695
 H665 H 0.41568 0.16446 0.41611
 H666 H 0.39485 0.23503 0.43533
 H667 H 0.42097 0.23326 0.46933
 H668 H 0.44184 0.16262 0.45028
 H669 H 0.30138 0.19061 0.34881
 H670 H 0.27199 0.20047 0.31914
 H671 H 0.32250 0.24761 0.28671
 H672 H 0.35167 0.23756 0.31648
 C673 C 0.71821 0.90057 0.93849
 C674 C 0.70231 0.90370 0.92022
 C675 C 0.68530 0.92157 0.92149
 C676 C 0.68435 0.93640 0.94090
 C677 C 0.70066 0.93378 0.95922
 C678 C 0.71730 0.91530 0.95787
 C679 C 0.70370 0.88843 0.90031
 C680 C 0.70567 0.87525 0.88402
 C681 C 0.70884 0.85941 0.86537
 C682 C 0.71221 0.84559 0.84983
 C683 C 0.71700 0.82877 0.83170
 C684 C 0.73361 0.83413 0.81448
 C685 C 0.73951 0.81723 0.79779
 C686 C 0.72888 0.79468 0.79814
 C687 C 0.71187 0.78962 0.81527
 C688 C 0.70600 0.80656 0.83195
 H689 H 0.73141 0.88675 0.93773
 H690 H 0.67268 0.92394 0.90757
 H691 H 0.67053 0.94959 0.94180
 H692 H 0.73016 0.91266 0.97153
 H693 H 0.74231 0.85123 0.81419
 H694 H 0.75266 0.82169 0.78486
 H695 H 0.70336 0.77245 0.81603
 H696 H 0.69320 0.80219 0.84526
 C697 C 0.21896 0.42346 0.42556
 C698 C 0.20119 0.40685 0.42075
 C699 C 0.18122 0.40542 0.43506
 C700 C 0.17909 0.42043 0.45419
 C701 C 0.19686 0.43711 0.45908
 C702 C 0.21686 0.43847 0.44468
 C703 C 0.20390 0.39075 0.40165
 C704 C 0.20651 0.37705 0.38587
 C705 C 0.20998 0.36077 0.36767
 C706 C 0.21330 0.34666 0.35237
 C707 C 0.21770 0.32957 0.33443
 C708 C 0.20606 0.30769 0.33481
 C709 C 0.21121 0.29060 0.31807
 C710 C 0.22814 0.29517 0.30074
 C711 C 0.23948 0.31737 0.30030
 C712 C 0.23429 0.33443 0.31706
 H713 H 0.23457 0.42459 0.41472
 H714 H 0.16744 0.39252 0.43158
 H715 H 0.16368 0.41898 0.46526
 H716 H 0.23092 0.45095 0.44845
 H717 H 0.19323 0.30372 0.34822
 H718 H 0.20217 0.27370 0.31890
 H719 H 0.25259 0.32145 0.28720
 H720 H 0.24345 0.35129 0.31665
 C721 C 0.27162 0.09974 0.93811
 C722 C 0.29029 0.09914 0.92225
 C723 C 0.30892 0.08327 0.92556
 C724 C 0.30873 0.06787 0.94454
 C725 C 0.28965 0.06782 0.96033
 C726 C 0.27138 0.08442 0.95707
 C727 C 0.29010 0.11489 0.90265
 C728 C 0.28915 0.12828 0.88643
 C729 C 0.28713 0.14418 0.86769
 C730 C 0.28467 0.15791 0.85190
 C731 C 0.28086 0.17446 0.83333
 C732 C 0.29199 0.19660 0.83363
 C733 C 0.28699 0.21327 0.81643
 C734 C 0.27069 0.20799 0.79871
 C735 C 0.25996 0.18549 0.79831
 C736 C 0.26501 0.16887 0.81551
 H737 H 0.25716 0.11204 0.93579
 H738 H 0.32367 0.08291 0.91357
 H739 H 0.32376 0.05636 0.94716
 H740 H 0.25649 0.08510 0.96888
 H741 H 0.30423 0.20115 0.84739
 H742 H 0.29553 0.23041 0.81725
 H743 H 0.24735 0.18086 0.78492
 H744 H 0.25622 0.15182 0.81515
 C745 C 0.81445 0.58075 0.42343
 C746 C 0.79469 0.59496 0.41915
 C747 C 0.77542 0.59441 0.43440
 C748 C 0.77590 0.57976 0.45386
 C749 C 0.79561 0.56541 0.45820
 C750 C 0.81495 0.56607 0.44293
 C751 C 0.79410 0.61039 0.39934
 C752 C 0.79301 0.62362 0.38302
 C753 C 0.79104 0.63944 0.36423
 C754 C 0.78872 0.65323 0.34849
 C755 C 0.78519 0.66998 0.33007
 C756 C 0.76909 0.66494 0.31232
 C757 C 0.76426 0.68188 0.29535
 C758 C 0.77546 0.70414 0.29596
 C759 C 0.79202 0.70884 0.31359
 C760 C 0.79681 0.69187 0.33054
 H761 H 0.82949 0.58112 0.41179
 H762 H 0.76008 0.60538 0.43129
 H763 H 0.76092 0.57958 0.46557
 H764 H 0.83040 0.55531 0.44621
 H765 H 0.75993 0.64808 0.31184
 H766 H 0.75143 0.67769 0.28203
 H767 H 0.80093 0.72580 0.31456
 H768 H 0.80924 0.69598 0.34426
 C769 C 0.07207 0.71476 0.91660
 C770 C 0.09397 0.70354 0.91456
 C771 C 0.10207 0.68907 0.93249
 C772 C 0.08845 0.68596 0.95248
 C773 C 0.06625 0.69708 0.95484
 C774 C 0.05837 0.71166 0.93656
 C775 C 0.10866 0.70761 0.89455
 C776 C 0.12138 0.71120 0.87814
 C777 C 0.13676 0.71562 0.85934
 C778 C 0.15029 0.71960 0.84365
 C779 C 0.16692 0.72460 0.82537
 C780 C 0.18885 0.71320 0.82502
 C781 C 0.20557 0.71891 0.80805
 C782 C 0.20059 0.73617 0.79119
 C783 C 0.17833 0.74724 0.79145
 C784 C 0.16163 0.74150 0.80846
 H785 H 0.06579 0.72631 0.90297
 H786 H 0.11905 0.68035 0.93113
 H787 H 0.09518 0.67447 0.96594
 H788 H 0.04206 0.72153 0.93807
 H789 H 0.19315 0.70014 0.83806
 H790 H 0.22252 0.71006 0.80835
 H791 H 0.17395 0.76060 0.77874
 H792 H 0.14474 0.75048 0.80860
 C793 C 0.59138 0.18605 0.42952
 C794 C 0.58889 0.20633 0.41582
 C795 C 0.57294 0.22398 0.42240
 C796 C 0.55963 0.22144 0.44267
 C797 C 0.56206 0.20114 0.45646
 C798 C 0.57808 0.18349 0.44979
 C799 C 0.60334 0.20945 0.39552
 C800 C 0.61579 0.21231 0.37880
 C801 C 0.63080 0.21597 0.35959
 C802 C 0.64402 0.21934 0.34353
 C803 C 0.66034 0.22368 0.32486
 C804 C 0.65512 0.24053 0.30788
 C805 C 0.67168 0.24580 0.29060
 C806 C 0.69371 0.23430 0.29016
 C807 C 0.69857 0.21705 0.30705
 C808 C 0.68200 0.21181 0.32428
 H809 H 0.60380 0.17236 0.42467
 H810 H 0.57101 0.23982 0.41203
 H811 H 0.54762 0.23539 0.44777
 H812 H 0.58033 0.16784 0.46037
 H813 H 0.63843 0.24988 0.30822
 H814 H 0.66740 0.25918 0.27787
 H815 H 0.71535 0.20787 0.30721
 H816 H 0.68624 0.19878 0.33738
 C817 C 0.90537 0.27224 0.93515
 C818 C 0.91128 0.28662 0.91632
 C819 C 0.93069 0.30195 0.91785
 C820 C 0.94420 0.30285 0.93816
 C821 C 0.93864 0.28820 0.95722
 C822 C 0.91877 0.27311 0.95544
 C823 C 0.89710 0.28563 0.89564
 C824 C 0.88466 0.28422 0.87873
 C825 C 0.86950 0.28188 0.85945
 C826 C 0.85609 0.27930 0.84341
 C827 C 0.83955 0.27550 0.82481
 C828 C 0.84477 0.25936 0.80718
 C829 C 0.82792 0.25418 0.79017
 C830 C 0.80557 0.26506 0.79064
 C831 C 0.80071 0.28170 0.80812
 C832 C 0.81759 0.28685 0.82510
 H833 H 0.89035 0.26032 0.93417
 H834 H 0.93524 0.31340 0.90346
 H835 H 0.95855 0.31555 0.93918
 H836 H 0.91390 0.26143 0.96955
 H837 H 0.86167 0.25039 0.80686
 H838 H 0.83221 0.24129 0.77697
 H839 H 0.78369 0.29038 0.80897
 H840 H 0.81333 0.29930 0.83873
 C841 C 0.42873 0.77791 0.42065
 C842 C 0.41297 0.79594 0.41463
 C843 C 0.41135 0.81621 0.42848
 C844 C 0.42528 0.81834 0.44839
 C845 C 0.44104 0.80028 0.45454
 C846 C 0.44265 0.78003 0.44055
 C847 C 0.39773 0.79317 0.39485
 C848 C 0.38463 0.79054 0.37857
 C849 C 0.36892 0.78707 0.35988
 C850 C 0.35520 0.78376 0.34422
 C851 C 0.33847 0.77934 0.32592
 C852 C 0.31656 0.79077 0.32599
 C853 C 0.29972 0.78546 0.30902
 C854 C 0.30458 0.76859 0.29176
 C855 C 0.32684 0.75751 0.29159
 C856 C 0.34364 0.76286 0.30859
 H857 H 0.42998 0.76208 0.41016
 H858 H 0.39910 0.83018 0.42407
 H859 H 0.42364 0.83396 0.45913
 H860 H 0.45443 0.76576 0.44528
 H861 H 0.31234 0.80351 0.33938
 H862 H 0.28276 0.79429 0.30964
 H863 H 0.33114 0.74444 0.27856
 H864 H 0.36053 0.75386 0.30842
 C865 C 0.28254 0.90414 0.06087
 C866 C 0.29964 0.90643 0.07827
 C867 C 0.31757 0.92347 0.07611
 C868 C 0.31833 0.93820 0.05662
 C869 C 0.30108 0.93604 0.03923
 C870 C 0.28327 0.91882 0.04144
 C871 C 0.29855 0.89120 0.09823
 C872 C 0.29690 0.87810 0.11464
 C873 C 0.29414 0.86242 0.13349
 C874 C 0.29112 0.84878 0.14928
 C875 C 0.28671 0.83223 0.16775
 C876 C 0.29742 0.80996 0.16748
 C877 C 0.29183 0.79326 0.18452
 C878 C 0.27537 0.79862 0.20203
 C879 C 0.26507 0.82124 0.20242
 C880 C 0.27070 0.83789 0.18537
 H881 H 0.26861 0.89100 0.06234
 H882 H 0.33092 0.92536 0.08945
 H883 H 0.33230 0.95127 0.05506
 H884 H 0.26989 0.91686 0.02814
 H885 H 0.30977 0.80534 0.15386
 H886 H 0.30006 0.77602 0.18371
 H887 H 0.25234 0.82594 0.21564
 H888 H 0.26223 0.85504 0.18569
 C889 C 0.77448 0.40513 0.56351
 C890 C 0.79394 0.40428 0.57849
 C891 C 0.81390 0.41833 0.57403
 C892 C 0.81440 0.43312 0.55460
 C893 C 0.79487 0.43404 0.53959
 C894 C 0.77496 0.41988 0.54412
 C895 C 0.79335 0.38871 0.59818
 C896 C 0.79223 0.37536 0.61441
 C897 C 0.79016 0.35942 0.63311
 C898 C 0.78774 0.34559 0.64882
 C899 C 0.78403 0.32885 0.66724
 C900 C 0.76843 0.33422 0.68529
 C901 C 0.76346 0.31738 0.70235
 C902 C 0.77402 0.29490 0.70154
 C903 C 0.79007 0.28985 0.68359
 C904 C 0.79501 0.30673 0.66653
 H905 H 0.75899 0.39428 0.56676
 H906 H 0.82908 0.41773 0.58546
 H907 H 0.83000 0.44374 0.55116
 H908 H 0.75984 0.42027 0.53261
 H909 H 0.75977 0.35126 0.68596
 H910 H 0.75103 0.32184 0.71593
 H911 H 0.79849 0.27272 0.68246
 H912 H 0.80705 0.30237 0.65257
 C913 C 0.67467 0.09609 0.06350
 C914 C 0.69367 0.09435 0.07899
 C915 C 0.71129 0.07746 0.07524
 C916 C 0.71011 0.06255 0.05597
 C917 C 0.69116 0.06423 0.04032
 C918 C 0.67345 0.08114 0.04421
 C919 C 0.69577 0.11051 0.09817
 C920 C 0.69822 0.12416 0.11405
 C921 C 0.70183 0.14025 0.13243
 C922 C 0.70550 0.15412 0.14790
 C923 C 0.71053 0.17083 0.16609
 C924 C 0.72686 0.16517 0.18343
 C925 C 0.73282 0.18185 0.20036
 C926 C 0.72254 0.20447 0.20014
 C927 C 0.70583 0.20985 0.18286
 C928 C 0.69991 0.19314 0.16595
 H929 H 0.66102 0.10921 0.06615
 H930 H 0.72617 0.07610 0.08698
 H931 H 0.72419 0.04996 0.05302
 H932 H 0.65887 0.08288 0.03217
 H933 H 0.73525 0.14798 0.18367
 H934 H 0.74574 0.17714 0.21340
 H935 H 0.69760 0.22709 0.18219
 H936 H 0.68730 0.19774 0.15257
 C937 C 0.18114 0.60001 0.56432
 C938 C 0.20111 0.59860 0.57862
 C939 C 0.21892 0.58224 0.57362
 C940 C 0.21686 0.56742 0.55435
 C941 C 0.19685 0.56870 0.53999
 C942 C 0.17905 0.58517 0.54504
 C943 C 0.20373 0.61440 0.59799
 C944 C 0.20635 0.62778 0.61405
 C945 C 0.20993 0.64361 0.63262
 C946 C 0.21344 0.65729 0.64827
 C947 C 0.21821 0.67382 0.66665
 C948 C 0.23450 0.66812 0.68400
 C949 C 0.24021 0.68467 0.70112
 C950 C 0.22970 0.70718 0.70107
 C951 C 0.21300 0.71258 0.68379
 C952 C 0.20733 0.69600 0.66669
 H953 H 0.16733 0.61271 0.56795
 H954 H 0.23452 0.58113 0.58446
 H955 H 0.23093 0.55509 0.55048
 H956 H 0.16363 0.58655 0.53400
 H957 H 0.24307 0.65102 0.68409
 H958 H 0.25313 0.67995 0.71415
 H959 H 0.20460 0.72975 0.68326
 H960 H 0.19474 0.70061 0.65330
 C961 C 0.91185 0.68242 0.07068
 C962 C 0.91220 0.70406 0.08248
 C963 C 0.92663 0.72252 0.07449
 C964 C 0.94054 0.71942 0.05470
 C965 C 0.94027 0.69775 0.04281
 C966 C 0.92577 0.67930 0.05088
 C967 C 0.89714 0.70762 0.10230
 C968 C 0.88425 0.71083 0.11863
 C969 C 0.86882 0.71486 0.13746
 C970 C 0.85535 0.71856 0.15324
 C971 C 0.83890 0.72331 0.17170
 C972 C 0.84473 0.73954 0.18911
 C973 C 0.82824 0.74511 0.20633
 C974 C 0.80566 0.73452 0.20632
 C975 C 0.80014 0.71791 0.18896
 C976 C 0.81666 0.71238 0.17178
 H977 H 0.90063 0.66808 0.07662
 H978 H 0.92690 0.73939 0.08338
 H979 H 0.95133 0.73396 0.04847
 H980 H 0.92515 0.66257 0.04175
 H981 H 0.86188 0.74815 0.18919
 H982 H 0.83305 0.75797 0.21942
 H983 H 0.78293 0.70945 0.18843
 H984 H 0.81194 0.69982 0.15835
 C985 C 0.40748 0.18463 0.57366
 C986 C 0.40958 0.20510 0.58717
 C987 C 0.42568 0.22282 0.58079
 C988 C 0.43943 0.22022 0.56083
 C989 C 0.43731 0.19978 0.54717
 C990 C 0.42124 0.18200 0.55370
 C991 C 0.39444 0.20845 0.60693
 C992 C 0.38140 0.21159 0.62315
 C993 C 0.36573 0.21569 0.64173
 C994 C 0.35202 0.21954 0.65725
 C995 C 0.33526 0.22458 0.67534
 C996 C 0.34069 0.24130 0.69241
 C997 C 0.32386 0.24724 0.70917
 C998 C 0.30134 0.23655 0.70901
 C999 C 0.29621 0.21944 0.69201
 C1000 C 0.31307 0.21353 0.67528
 H1001 H 0.39495 0.17090 0.57835
 H1002 H 0.42730 0.23882 0.59101
 H1003 H 0.45145 0.23427 0.55581
 H1004 H 0.41920 0.16625 0.54320
 H1005 H 0.35779 0.25002 0.69256
 H1006 H 0.32837 0.26048 0.72201
 H1007 H 0.27906 0.21088 0.69140
 H1008 H 0.30866 0.20061 0.66209
 C1009 C 0.09284 0.31347 0.07283
 C1010 C 0.09040 0.29397 0.08761
 C1011 C 0.07408 0.27609 0.08229
 C1012 C 0.06048 0.27753 0.06213
 C1013 C 0.06296 0.29696 0.04716
 C1014 C 0.07922 0.31494 0.05266
 C1015 C 0.10544 0.29165 0.10760
 C1016 C 0.11834 0.28918 0.12404
 C1017 C 0.13379 0.28571 0.14292
 C1018 C 0.14729 0.28226 0.15872
 C1019 C 0.16375 0.27755 0.17715
 C1020 C 0.15791 0.26136 0.19459
 C1021 C 0.17449 0.25558 0.21164
 C1022 C 0.19718 0.26590 0.21141
 C1023 C 0.20272 0.28252 0.19406
 C1024 C 0.18611 0.28827 0.17705
 H1025 H 0.10554 0.32732 0.07670
 H1026 H 0.07219 0.26083 0.09349
 H1027 H 0.04832 0.26331 0.05795
 H1028 H 0.08153 0.32992 0.04118
 H1029 H 0.14068 0.25290 0.19479
 H1030 H 0.16967 0.24272 0.22473
 H1031 H 0.22002 0.29078 0.19338
 H1032 H 0.19085 0.30077 0.16358
 C1033 C 0.59663 0.81343 0.57042
 C1034 C 0.59435 0.79309 0.58410
 C1035 C 0.57819 0.77540 0.57779
 C1036 C 0.56449 0.77794 0.55779
 C1037 C 0.56674 0.79828 0.54400
 C1038 C 0.58294 0.81599 0.55042
 C1039 C 0.60924 0.78994 0.60406
 C1040 C 0.62203 0.78704 0.62051
 C1041 C 0.63737 0.78332 0.63943
 C1042 C 0.65079 0.77984 0.65528
 C1043 C 0.66720 0.77529 0.67379
 C1044 C 0.66157 0.75882 0.69104
 C1045 C 0.67806 0.75340 0.70827
 C1046 C 0.70045 0.76437 0.70842
 C1047 C 0.70577 0.78123 0.69124
 C1048 C 0.68925 0.78662 0.67404
 H1049 H 0.60920 0.82715 0.57506
 H1050 H 0.57641 0.75952 0.58815
 H1051 H 0.55236 0.76395 0.55287
 H1052 H 0.58506 0.83167 0.53983
 H1053 H 0.64457 0.74990 0.69098
 H1054 H 0.67342 0.74034 0.72124
 H1055 H 0.72284 0.78999 0.69085
 H1056 H 0.69381 0.79935 0.66073
   
