data_POSCAR
  _audit_creation_date              2014-09-24
  _audit_creation_method            'ToBaCCo'
  _symmetry_space_group_name_H-M    'P1'
  _symmetry_Int_Tables_number       1
  _symmetry_cell_setting            triclinic
  loop_
  _symmetry_equiv_pos_as_xyz
 x,y,z
_cell_length_a 36.0258
_cell_length_b 35.9692
_cell_length_c 25.6367
_cell_angle_alpha 89.687600
_cell_angle_beta 90.115500
_cell_angle_gamma 89.774000
loop_
  _atom_site_label
  _atom_site_type_symbol
  _atom_site_fract_x
  _atom_site_fract_y
  _atom_site_fract_z
O1 O 0.03539 0.28185 -0.06134
 O2 O -0.04223 0.28340 0.03327
 O3 O 0.03101 0.28647 0.03974
 O4 O -0.03822 0.27955 -0.06674
 O5 O -0.03609 0.21835 -0.05984
 O6 O 0.03352 0.22517 0.04405
 O7 O -0.03739 0.22251 0.04128
 O8 O 0.03593 0.22053 -0.05694
 Cu9 Cu -0.00360 0.28906 -0.01447
 Cu10 Cu -0.00074 0.21558 -0.00754
 C11 C 0.04887 0.25067 -0.07504
 C12 C -0.05306 0.25292 0.05343
 C13 C 0.04412 0.25678 0.05981
 C14 C -0.04961 0.24763 -0.08037
 O15 O 0.53773 0.78974 0.46424
 O16 O 0.46556 0.78539 0.56699
 O17 O 0.53881 0.78458 0.56493
 O18 O 0.46386 0.79072 0.46631
 O19 O 0.46436 0.72948 0.46024
 O20 O 0.53727 0.72334 0.55928
 O21 O 0.46584 0.72414 0.56104
 O22 O 0.53629 0.72852 0.45853
 Cu23 Cu 0.50154 0.79387 0.51602
 Cu24 Cu 0.50086 0.72032 0.50903
 C25 C 0.54970 0.75959 0.44462
 C26 C 0.45336 0.75379 0.58120
 C27 C 0.55083 0.75271 0.57859
 C28 C 0.45103 0.76087 0.44717
 O29 O 1.03502 0.72095 0.07345
 O30 O 0.96693 0.70789 -0.03390
 O31 O 1.04236 0.71195 -0.02965
 O32 O 0.96417 0.71576 0.06422
 O33 O 0.96705 0.77689 0.05822
 O34 O 1.03317 0.77088 -0.05008
 O35 O 0.96517 0.76880 -0.04512
 O36 O 1.04245 0.77823 0.04460
 Cu37 Cu 1.00319 0.70770 0.01868
 Cu38 Cu 1.00066 0.77993 0.00337
 C39 C 1.05249 0.75158 0.07408
 C40 C 0.95349 0.73663 -0.05627
 C41 C 1.05102 0.74073 -0.05623
 C42 C 0.95267 0.74771 0.07758
 O43 O 0.53433 0.21264 0.53322
 O44 O 0.46075 0.21846 0.43210
 O45 O 0.53393 0.21760 0.43255
 O46 O 0.46066 0.21374 0.53349
 O47 O 0.46227 0.27496 0.53880
 O48 O 0.53355 0.27889 0.43774
 O49 O 0.46213 0.27967 0.43758
 O50 O 0.53405 0.27391 0.53844
 Cu51 Cu 0.49726 0.20935 0.48243
 Cu52 Cu 0.49797 0.28291 0.48878
 C53 C 0.54707 0.24255 0.55236
 C54 C 0.44900 0.25028 0.41767
 C55 C 0.54632 0.24911 0.41835
 C56 C 0.44890 0.24397 0.55305
 O57 O 0.71386 0.02983 -0.05957
 O58 O 0.71529 -0.03845 0.04902
 O59 O 0.71152 0.03515 0.04126
 O60 O 0.71621 -0.04354 -0.05115
 O61 O 0.77742 -0.04143 -0.04754
 O62 O 0.77279 0.03764 0.04154
 O63 O 0.77616 -0.03294 0.05316
 O64 O 0.77516 0.03012 -0.05874
 Cu65 Cu 0.70795 -0.00442 -0.00531
 Cu66 Cu 0.78144 -0.00146 -0.00289
 C67 C 0.74457 0.04162 -0.07739
 C68 C 0.74628 -0.04738 0.06958
 C69 C 0.74158 0.04996 0.05663
 C70 C 0.74779 -0.05628 -0.06418
 O71 O 0.21512 0.46508 0.55128
 O72 O 0.21574 0.54160 0.45358
 O73 O 0.21405 0.46808 0.45051
 O74 O 0.21623 0.53868 0.55503
 O75 O 0.27749 0.53632 0.55439
 O76 O 0.27537 0.46788 0.44941
 O77 O 0.27699 0.53958 0.45316
 O78 O 0.27642 0.46460 0.55032
 Cu79 Cu 0.20905 0.50359 0.50270
 Cu80 Cu 0.28262 0.50202 0.50175
 C81 C 0.24592 0.45157 0.56683
 C82 C 0.24672 0.55371 0.43702
 C83 C 0.24457 0.45577 0.43264
 C84 C 0.24744 0.54956 0.57229
 O85 O 0.28046 1.03932 0.05868
 O86 O 0.28666 0.96209 -0.03675
 O87 O 0.28504 1.03807 -0.04547
 O88 O 0.28293 0.96855 0.06179
 O89 O 0.22191 0.97374 0.06048
 O90 O 0.22544 1.02927 -0.06013
 O91 O 0.22548 0.96189 -0.04204
 O92 O 0.22260 1.04741 0.03294
 Cu93 Cu 0.29024 1.00274 0.00868
 Cu94 Cu 0.21767 1.00229 -0.00012
 C95 C 0.25061 1.05829 0.05870
 C96 C 0.25669 0.94795 -0.05389
 C97 C 0.25562 1.04555 -0.07132
 C98 C 0.25138 0.95993 0.08006
 O99 O 0.78581 0.53179 0.54891
 O100 O 0.78571 0.46291 0.44194
 O101 O 0.78563 0.53649 0.44810
 O102 O 0.78590 0.45849 0.54271
 O103 O 0.72458 0.45959 0.54279
 O104 O 0.72432 0.53582 0.44804
 O105 O 0.72440 0.46413 0.44192
 O106 O 0.72451 0.53109 0.54884
 Cu107 Cu 0.79203 0.49741 0.49533
 Cu108 Cu 0.71838 0.49767 0.49533
 C109 C 0.75495 0.54331 0.56673
 C110 C 0.75480 0.45152 0.42426
 C111 C 0.75471 0.54967 0.43256
 C112 C 0.75505 0.44566 0.55845
 C113 C 0.22611 0.19413 0.16711
 C114 C 0.18900 0.20516 0.16068
 C115 C 0.17533 0.23878 0.17969
 C116 C 0.19844 0.26114 0.21085
 C117 C 0.23546 0.24947 0.22135
 C118 C 0.24985 0.21652 0.19809
 C119 C 0.28762 0.20785 0.20543
 C120 C 0.30968 0.22848 0.23921
 C121 C 0.29535 0.25968 0.26507
 C122 C 0.25840 0.27131 0.25421
 C123 C 0.18540 0.29462 0.23211
 C124 C 0.20815 0.31637 0.26333
 C125 C 0.24442 0.30489 0.27584
 C126 C 0.26748 0.32632 0.30863
 C127 C 0.30312 0.31342 0.32074
 C128 C 0.31736 0.28044 0.30007
 H129 H 0.30083 0.18525 0.18504
 H130 H 0.33841 0.22021 0.24402
 H131 H 0.15732 0.30423 0.22503
 H132 H 0.19685 0.34224 0.27772
 H133 H 0.17048 0.18792 0.13790
 H134 H 0.31989 0.32911 0.34802
 C135 C 0.77179 0.82534 0.19387
 C136 C 0.80573 0.81101 0.17649
 C137 C 0.81933 0.77650 0.19296
 C138 C 0.79777 0.75467 0.22747
 C139 C 0.76302 0.76851 0.24540
 C140 C 0.75014 0.80413 0.22904
 C141 C 0.71634 0.81764 0.24880
 C142 C 0.69456 0.79597 0.28173
 C143 C 0.70637 0.76047 0.29786
 C144 C 0.74113 0.74669 0.27993
 C145 C 0.81008 0.71966 0.24493
 C146 C 0.78822 0.69792 0.27759
 C147 C 0.75381 0.71093 0.29584
 C148 C 0.73137 0.68896 0.32895
 C149 C 0.69715 0.70283 0.34569
 C150 C 0.68423 0.73803 0.33084
 H151 H 0.70628 0.84517 0.23908
 H152 H 0.66827 0.80739 0.29431
 H153 H 0.83673 0.70854 0.23338
 H154 H 0.79865 0.67068 0.28822
 H155 H 0.82176 0.82686 0.14838
 H156 H 0.68032 0.68596 0.37162
 C157 C 0.81158 0.23428 0.16182
 C158 C 0.79647 0.20083 0.14423
 C159 C 0.76193 0.18809 0.16092
 C160 C 0.74063 0.21015 0.19515
 C161 C 0.75522 0.24444 0.21326
 C162 C 0.79090 0.25652 0.19680
 C163 C 0.80509 0.28995 0.21663
 C164 C 0.78427 0.31183 0.25038
 C165 C 0.74904 0.30044 0.26736
 C166 C 0.73438 0.26632 0.24879
 C167 C 0.70555 0.19860 0.21239
 C168 C 0.68484 0.22039 0.24632
 C169 C 0.69892 0.25401 0.26566
 C170 C 0.67834 0.27595 0.30097
 C171 C 0.69300 0.30965 0.31818
 C172 C 0.72780 0.32230 0.30209
 H173 H 0.83252 0.29959 0.20647
 H174 H 0.79622 0.33778 0.26316
 H175 H 0.69365 0.17260 0.19972
 H176 H 0.65759 0.21054 0.25714
 H177 H 0.81218 0.18398 0.11701
 H178 H 0.67730 0.32604 0.34596
 C179 C 0.18055 0.78254 0.19735
 C180 C 0.19058 0.81995 0.19142
 C181 C 0.22406 0.83394 0.21027
 C182 C 0.24671 0.81097 0.24202
 C183 C 0.23590 0.77365 0.25219
 C184 C 0.20331 0.75892 0.22859
 C185 C 0.19547 0.72092 0.23555
 C186 C 0.21685 0.69875 0.26876
 C187 C 0.24807 0.71316 0.29433
 C188 C 0.25862 0.75055 0.28430
 C189 C 0.27983 0.82435 0.26382
 C190 C 0.30250 0.80143 0.29407
 C191 C 0.29225 0.76463 0.30539
 C192 C 0.31504 0.74112 0.33624
 C193 C 0.30318 0.70507 0.34779
 C194 C 0.27005 0.69076 0.32792
 H195 H 0.17300 0.70755 0.21524
 H196 H 0.20925 0.66982 0.27309
 H197 H 0.28852 0.85281 0.25773
 H198 H 0.32814 0.81302 0.30858
 H199 H 0.17317 0.83807 0.16779
 H200 H 0.32008 0.68785 0.37345
 C201 C 0.81896 0.21841 0.80000
 C202 C 0.80522 0.18386 0.81586
 C203 C 0.77065 0.17077 0.79938
 C204 C 0.74873 0.19282 0.76536
 C205 C 0.76216 0.22795 0.74853
 C206 C 0.79740 0.24080 0.76576
 C207 C 0.81022 0.27541 0.74785
 C208 C 0.78842 0.29767 0.71541
 C209 C 0.75350 0.28563 0.69798
 C210 C 0.74022 0.25034 0.71448
 C211 C 0.71401 0.18055 0.74735
 C212 C 0.69226 0.20276 0.71473
 C213 C 0.70485 0.23763 0.69759
 C214 C 0.68284 0.26055 0.66473
 C215 C 0.69640 0.29521 0.64919
 C216 C 0.73112 0.30812 0.66515
 H217 H 0.83729 0.28573 0.75869
 H218 H 0.79932 0.32453 0.70428
 H219 H 0.70323 0.15361 0.75831
 H220 H 0.66538 0.19228 0.70325
 H221 H 0.82132 0.16720 0.84320
 H222 H 0.67966 0.31244 0.62332
 C223 C 0.32285 0.72475 0.70094
 C224 C 0.30884 0.69113 0.68241
 C225 C 0.27449 0.67725 0.69840
 C226 C 0.25304 0.69767 0.73455
 C227 C 0.26686 0.73184 0.75418
 C228 C 0.30186 0.74548 0.73728
 C229 C 0.31504 0.77915 0.75759
 C230 C 0.29389 0.79972 0.79254
 C231 C 0.25920 0.78689 0.80975
 C232 C 0.24557 0.75247 0.79068
 C233 C 0.21844 0.68475 0.75196
 C234 C 0.19723 0.70535 0.78681
 C235 C 0.21031 0.73909 0.80702
 C236 C 0.18883 0.76040 0.84215
 C237 C 0.20286 0.79412 0.86050
 C238 C 0.23729 0.80788 0.84462
 H239 H 0.34188 0.79002 0.74663
 H240 H 0.30508 0.82585 0.80590
 H241 H 0.20730 0.65857 0.73871
 H242 H 0.17036 0.69449 0.79757
 H243 H 0.32472 0.67574 0.65371
 H244 H 0.18631 0.81040 0.88743
 C245 C 0.23254 0.17710 0.81198
 C246 C 0.19854 0.19096 0.82990
 C247 C 0.18454 0.22551 0.81400
 C248 C 0.20551 0.24772 0.77929
 C249 C 0.24022 0.23434 0.76070
 C250 C 0.25376 0.19887 0.77692
 C251 C 0.28771 0.18598 0.75691
 C252 C 0.30861 0.20781 0.72303
 C253 C 0.29586 0.24292 0.70651
 C254 C 0.26126 0.25634 0.72535
 C255 C 0.19251 0.28257 0.76200
 C256 C 0.21353 0.30448 0.72843
 C257 C 0.24780 0.29186 0.70928
 C258 C 0.26934 0.31393 0.67505
 C259 C 0.30335 0.30023 0.65722
 C260 C 0.31694 0.26532 0.67220
 H261 H 0.29851 0.15881 0.76711
 H262 H 0.33496 0.19681 0.70996
 H263 H 0.16590 0.29338 0.77427
 H264 H 0.20255 0.33148 0.71766
 H265 H 0.18262 0.17452 0.85747
 H266 H 0.31948 0.31702 0.63030
 C267 C 0.73077 0.67184 0.69213
 C268 C 0.69661 0.68643 0.67587
 C269 C 0.68365 0.72095 0.69292
 C270 C 0.70557 0.74200 0.72764
 C271 C 0.74024 0.72756 0.74502
 C272 C 0.75288 0.69231 0.72734
 C273 C 0.78694 0.67833 0.74588
 C274 C 0.80875 0.69893 0.77991
 C275 C 0.79698 0.73395 0.79752
 C276 C 0.76233 0.74841 0.78018
 C277 C 0.69365 0.77683 0.74585
 C278 C 0.71573 0.79769 0.77915
 C279 C 0.74996 0.78391 0.79733
 C280 C 0.77258 0.80485 0.83143
 C281 C 0.80667 0.79014 0.84772
 C282 C 0.81919 0.75529 0.83137
 H283 H 0.79706 0.65125 0.73437
 H284 H 0.83503 0.68710 0.79223
 H285 H 0.66711 0.78846 0.73443
 H286 H 0.70560 0.82482 0.79033
 H287 H 0.68008 0.67094 0.64807
 H288 H 0.82384 0.80609 0.87422
 C289 C 0.22813 0.12131 0.06182
 C290 C 0.24834 0.09214 0.08487
 C291 C 0.26486 0.09766 0.13395
 C292 C 0.25792 0.13063 0.16153
 C293 C 0.23789 0.16006 0.13804
 C294 C 0.22459 0.15526 0.08689
 H295 H 0.21592 0.11828 0.02339
 H296 H 0.28034 0.07543 0.15275
 H297 H 0.26721 0.13256 0.20159
 H298 H 0.20976 0.17742 0.06695
 C299 C 0.77957 0.60160 0.60652
 C300 C 0.75367 0.57251 0.60682
 C301 C 0.72339 0.57419 0.64111
 C302 C 0.71783 0.60537 0.67226
 C303 C 0.74212 0.63572 0.66919
 C304 C 0.77358 0.63324 0.63704
 H305 H 0.80288 0.60108 0.57991
 H306 H 0.70310 0.55206 0.64210
 H307 H 0.69330 0.60681 0.69656
 H308 H 0.79224 0.65663 0.63327
 C309 C 0.78084 0.92183 0.13892
 C310 C 0.74838 0.92533 0.10867
 C311 C 0.72037 0.89842 0.11429
 C312 C 0.72686 0.86641 0.14440
 C313 C 0.76036 0.86205 0.17205
 C314 C 0.78634 0.89100 0.17105
 H315 H 0.80268 0.94240 0.13659
 H316 H 0.69505 0.90020 0.09153
 H317 H 0.70671 0.84416 0.14354
 H318 H 0.81225 0.88845 0.19234
 C319 C 0.27725 0.41482 0.63673
 C320 C 0.24705 0.41928 0.60257
 C321 C 0.22111 0.39040 0.59795
 C322 C 0.22692 0.35653 0.62413
 C323 C 0.25822 0.35153 0.65627
 C324 C 0.28261 0.38140 0.66359
 H325 H 0.29760 0.43670 0.64097
 H326 H 0.19788 0.39305 0.57129
 H327 H 0.20819 0.33362 0.61708
 H328 H 0.30705 0.37806 0.68790
 C329 C 0.90999 0.21994 0.11778
 C330 C 0.91658 0.25199 0.08754
 C331 C 0.89033 0.28111 0.08863
 C332 C 0.85651 0.27640 0.11477
 C333 C 0.84942 0.24351 0.14280
 C334 C 0.87720 0.21613 0.14581
 H335 H 0.92983 0.19722 0.11888
 H336 H 0.89444 0.30616 0.06574
 H337 H 0.83522 0.29759 0.11092
 H338 H 0.87250 0.19062 0.16743
 C339 C 0.42122 0.71927 0.65210
 C340 C 0.42325 0.75084 0.61984
 C341 C 0.39391 0.77669 0.62010
 C342 C 0.36181 0.76952 0.64920
 C343 C 0.35911 0.73693 0.67944
 C344 C 0.38960 0.71255 0.68191
 H345 H 0.44354 0.69899 0.65258
 H346 H 0.39471 0.80099 0.59500
 H347 H 0.33834 0.78829 0.64584
 H348 H 0.38801 0.68714 0.70469
 C349 C 0.08764 0.74048 0.15495
 C350 C 0.08417 0.75613 0.10477
 C351 C 0.11345 0.77738 0.08469
 C352 C 0.14558 0.78261 0.11356
 C353 C 0.14823 0.76988 0.16539
 C354 C 0.11859 0.74904 0.18610
 H355 H 0.06528 0.72419 0.17147
 H356 H 0.11211 0.78895 0.04558
 H357 H 0.16805 0.79806 0.09579
 H358 H 0.11891 0.74011 0.22648
 C359 C 0.58246 0.27034 0.62577
 C360 C 0.57859 0.24172 0.58921
 C361 C 0.60754 0.21578 0.58331
 C362 C 0.64099 0.22027 0.61058
 C363 C 0.64550 0.25020 0.64500
 C364 C 0.61547 0.27437 0.65365
 H365 H 0.56052 0.29065 0.63106
 H366 H 0.60535 0.19376 0.55484
 H367 H 0.66403 0.20175 0.60255
 H368 H 0.61844 0.29776 0.67975
 C369 C 0.77541 0.07182 0.84707
 C370 C 0.74554 0.07068 0.88207
 C371 C 0.72051 0.10066 0.88372
 C372 C 0.72719 0.13269 0.85399
 C373 C 0.75839 0.13463 0.82131
 C374 C 0.78162 0.10343 0.81667
 H375 H 0.79508 0.04900 0.84527
 H376 H 0.69763 0.10055 0.91105
 H377 H 0.70938 0.15673 0.85894
 H378 H 0.80594 0.10447 0.79192
 C379 C 0.22100 0.61353 0.40100
 C380 C 0.24836 0.58557 0.40042
 C381 C 0.27992 0.59048 0.36909
 C382 C 0.28529 0.62364 0.34172
 C383 C 0.25944 0.65280 0.34553
 C384 C 0.22667 0.64708 0.37411
 H385 H 0.19653 0.61052 0.42511
 H386 H 0.30132 0.56927 0.36762
 H387 H 0.31077 0.62744 0.31999
 H388 H 0.20663 0.66938 0.37828
 C389 C 0.28224 0.88521 0.92248
 C390 C 0.25703 0.91443 0.91317
 C391 C 0.22849 0.90952 0.87652
 C392 C 0.22391 0.87547 0.85170
 C393 C 0.24752 0.84546 0.86336
 C394 C 0.27725 0.85072 0.89810
 H395 H 0.30417 0.88825 0.95108
 H396 H 0.20875 0.93164 0.86859
 H397 H 0.20073 0.87192 0.82522
 H398 H 0.29542 0.82771 0.90818
 C399 C 0.72375 0.42114 0.34915
 C400 C 0.75337 0.42196 0.38474
 C401 C 0.77802 0.39164 0.38726
 C402 C 0.77129 0.35973 0.35762
 C403 C 0.74041 0.35822 0.32413
 C404 C 0.71752 0.38969 0.31884
 H405 H 0.70439 0.44420 0.34657
 H406 H 0.80074 0.39149 0.41499
 H407 H 0.78882 0.33549 0.36315
 H408 H 0.69341 0.38900 0.29354
 C409 C 0.08453 0.21830 0.85574
 C410 C 0.08090 0.24872 0.88940
 C411 C 0.11024 0.27415 0.89359
 C412 C 0.14365 0.26778 0.86709
 C413 C 0.14768 0.23650 0.83494
 C414 C 0.11746 0.21243 0.82847
 H415 H 0.06229 0.19830 0.85198
 H416 H 0.10822 0.29749 0.91997
 H417 H 0.16686 0.28625 0.87354
 H418 H 0.12006 0.18802 0.80415
 C419 C 0.61058 0.78460 0.41356
 C420 C 0.58092 0.75972 0.40743
 C421 C 0.58387 0.73122 0.37048
 C422 C 0.61663 0.72627 0.34239
 C423 C 0.64730 0.74937 0.35119
 C424 C 0.64376 0.77917 0.38608
 H425 H 0.60912 0.80646 0.44237
 H426 H 0.56140 0.71168 0.36507
 H427 H 0.61885 0.70298 0.31593
 H428 H 0.66731 0.79685 0.39425
 C429 C 0.89292 0.70981 0.91519
 C430 C 0.92282 0.73389 0.90600
 C431 C 0.92014 0.76046 0.86586
 C432 C 0.88711 0.76501 0.83821
 C433 C 0.85612 0.74325 0.85047
 C434 C 0.85953 0.71470 0.88779
 H435 H 0.89428 0.68946 0.94645
 H436 H 0.94288 0.77931 0.85811
 H437 H 0.88487 0.78727 0.80972
 H438 H 0.83568 0.69801 0.89818
 C439 C 0.41580 0.28643 0.34876
 C440 C 0.41883 0.25384 0.37888
 C441 C 0.39056 0.22712 0.37595
 C442 C 0.35835 0.23443 0.34682
 C443 C 0.35438 0.26819 0.31943
 C444 C 0.38403 0.29340 0.31905
 H445 H 0.43736 0.30732 0.35001
 H446 H 0.39217 0.20188 0.39908
 H447 H 0.33560 0.21487 0.34844
 H448 H 0.38156 0.31962 0.29831
 C449 C 0.78172 0.90544 0.87063
 C450 C 0.75063 0.91039 0.90278
 C451 C 0.72459 0.88157 0.90723
 C452 C 0.73075 0.84754 0.88232
 C453 C 0.76245 0.84228 0.85132
 C454 C 0.78740 0.87184 0.84483
 H455 H 0.80218 0.92725 0.86660
 H456 H 0.70067 0.88459 0.93242
 H457 H 0.71161 0.82485 0.88889
 H458 H 0.81215 0.86832 0.82142
 C459 C 0.27322 0.42495 0.35615
 C460 C 0.24502 0.42584 0.39376
 C461 C 0.22088 0.39546 0.39849
 C462 C 0.22668 0.36348 0.36861
 C463 C 0.25599 0.36202 0.33259
 C464 C 0.27843 0.39346 0.32552
 H465 H 0.29218 0.44807 0.35196
 H466 H 0.19933 0.39540 0.42789
 H467 H 0.20962 0.33924 0.37555
 H468 H 0.30136 0.39279 0.29825
 C469 C 0.28255 0.10156 0.88929
 C470 C 0.25499 0.07384 0.89062
 C471 C 0.22371 0.07806 0.85804
 C472 C 0.21853 0.11033 0.82856
 C473 C 0.24392 0.13970 0.83173
 C474 C 0.27657 0.13464 0.86111
 H475 H 0.30698 0.09937 0.91382
 H476 H 0.20220 0.05711 0.85705
 H477 H 0.19326 0.11346 0.80594
 H478 H 0.29631 0.15710 0.86485
 C479 C 0.72323 0.58756 0.36415
 C480 C 0.75335 0.58262 0.39832
 C481 C 0.77899 0.61158 0.40462
 C482 C 0.77304 0.64589 0.37991
 C483 C 0.74196 0.65126 0.34750
 C484 C 0.71775 0.62148 0.33870
 H485 H 0.70310 0.56561 0.35875
 H486 H 0.80211 0.60853 0.43140
 H487 H 0.79161 0.66876 0.38804
 H488 H 0.69351 0.62515 0.31410
 C489 C 0.08810 0.77150 0.87720
 C490 C 0.08191 0.74076 0.91031
 C491 C 0.10960 0.71304 0.91386
 C492 C 0.14409 0.71817 0.88947
 C493 C 0.15078 0.75020 0.85934
 C494 C 0.12192 0.77593 0.85178
 H495 H 0.06734 0.79314 0.87252
 H496 H 0.10591 0.68900 0.93893
 H497 H 0.16613 0.69817 0.89636
 H498 H 0.12640 0.80075 0.82851
 C499 C 0.60610 0.22572 0.38163
 C500 C 0.57699 0.25178 0.38072
 C501 C 0.57971 0.28323 0.34834
 C502 C 0.61177 0.28952 0.31931
 C503 C 0.64191 0.26479 0.32275
 C504 C 0.63860 0.23246 0.35337
 H505 H 0.60475 0.20154 0.40691
 H506 H 0.55756 0.30367 0.34704
 H507 H 0.61386 0.31472 0.29618
 H508 H 0.66183 0.21345 0.35745
 C509 C 0.91763 0.21255 0.84980
 C510 C 0.91976 0.24405 0.88170
 C511 C 0.89010 0.26952 0.88183
 C512 C 0.85780 0.26226 0.85320
 C513 C 0.85517 0.23004 0.82264
 C514 C 0.88580 0.20581 0.82019
 H515 H 0.94012 0.19248 0.84915
 H516 H 0.89088 0.29370 0.90680
 H517 H 0.83424 0.28084 0.85688
 H518 H 0.88433 0.18065 0.79726
 C519 C 0.41619 0.73491 0.37221
 C520 C 0.41900 0.76175 0.41147
 C521 C 0.38865 0.78531 0.42131
 C522 C 0.35502 0.78017 0.39482
 C523 C 0.35179 0.75212 0.35718
 C524 C 0.38299 0.73036 0.34502
 H525 H 0.43922 0.71637 0.36415
 H526 H 0.39008 0.80577 0.45209
 H527 H 0.33106 0.79669 0.40556
 H528 H 0.38096 0.70840 0.31640
 C529 C 0.21719 0.93102 0.15467
 C530 C 0.24856 0.93200 0.12231
 C531 C 0.27505 0.90336 0.12634
 C532 C 0.26859 0.87262 0.15864
 C533 C 0.23604 0.87047 0.18863
 C534 C 0.21120 0.90073 0.18795
 H535 H 0.19646 0.95287 0.15249
 H536 H 0.29933 0.90330 0.10149
 H537 H 0.28770 0.84933 0.15729
 H538 H 0.18579 0.89964 0.21042
 C539 C 0.72429 0.40935 0.62858
 C540 C 0.75382 0.41314 0.59341
 C541 C 0.77890 0.38353 0.58702
 C542 C 0.77284 0.34963 0.61264
 C543 C 0.74225 0.34538 0.64599
 C544 C 0.71873 0.37586 0.65494
 H545 H 0.70462 0.43185 0.63407
 H546 H 0.80156 0.38574 0.55948
 H547 H 0.79085 0.32621 0.60442
 H548 H 0.69485 0.37304 0.68027
 C549 C 0.76958 0.08673 0.12798
 C550 C 0.74115 0.08258 0.09106
 C551 C 0.71595 0.11194 0.08265
 C552 C 0.72102 0.14602 0.10796
 C553 C 0.75077 0.15066 0.14281
 C554 C 0.77416 0.12034 0.15390
 H555 H 0.78929 0.06444 0.13509
 H556 H 0.69411 0.10941 0.05380
 H557 H 0.70311 0.16930 0.09820
 H558 H 0.79740 0.12347 0.18039
 C559 C 0.22439 0.60889 0.61147
 C560 C 0.24959 0.57898 0.61198
 C561 C 0.27988 0.57970 0.64646
 C562 C 0.28609 0.61063 0.67778
 C563 C 0.26246 0.64169 0.67471
 C564 C 0.23107 0.64029 0.64216
 H565 H 0.20108 0.60909 0.58473
 H566 H 0.29963 0.55692 0.64761
 H567 H 0.31059 0.61125 0.70235
 H568 H 0.21294 0.66425 0.63836
 C569 C 0.89168 0.72595 0.11235
 C570 C 0.92121 0.75134 0.11396
 C571 C 0.91850 0.78249 0.14643
 C572 C 0.88629 0.78892 0.17525
 C573 C 0.85584 0.76478 0.17136
 C574 C 0.85899 0.73294 0.14017
 H575 H 0.89296 0.70200 0.08696
 H576 H 0.94089 0.80245 0.14828
 H577 H 0.88437 0.81384 0.19866
 H578 H 0.83557 0.71447 0.13540
 C579 C 0.41611 0.27262 0.62800
 C580 C 0.41832 0.24400 0.59113
 C581 C 0.38874 0.21887 0.58658
 C582 C 0.35624 0.22418 0.61559
 C583 C 0.35338 0.25412 0.65035
 C584 C 0.38405 0.27747 0.65756
 H585 H 0.43861 0.29227 0.63230
 H586 H 0.38970 0.19685 0.55796
 H587 H 0.33263 0.20630 0.60876
 H588 H 0.38230 0.30084 0.68394
 C589 C 0.07618 0.22928 0.13692
 C590 C 0.07328 0.25822 0.10016
 C591 C 0.10143 0.28505 0.09756
 C592 C 0.13372 0.28077 0.12756
 C593 C 0.13782 0.25009 0.16131
 C594 C 0.10803 0.22543 0.16753
 H595 H 0.05470 0.20838 0.13983
 H596 H 0.09989 0.30743 0.06919
 H597 H 0.15663 0.29970 0.12138
 H598 H 0.11071 0.20146 0.19306
 C599 C 0.61215 0.77365 0.61283
 C600 C 0.58200 0.74910 0.61542
 C601 C 0.58401 0.71802 0.64862
 C602 C 0.61630 0.71057 0.67690
 C603 C 0.64738 0.73370 0.67183
 C604 C 0.64488 0.76569 0.64029
 H605 H 0.61134 0.79747 0.58683
 H606 H 0.56106 0.69872 0.65114
 H607 H 0.61777 0.68563 0.70071
 H608 H 0.66882 0.78342 0.63492
   
