data_POSCAR
  _audit_creation_date              2014-09-24
  _audit_creation_method            'ToBaCCo'
  _symmetry_space_group_name_H-M    'P1'
  _symmetry_Int_Tables_number       1
  _symmetry_cell_setting            triclinic
  loop_
  _symmetry_equiv_pos_as_xyz
 x,y,z
_cell_length_a 27.5812
_cell_length_b 28.4654
_cell_length_c 28.5150
_cell_angle_alpha 91.085000
_cell_angle_beta 90.049800
_cell_angle_gamma 89.974900
loop_
  _atom_site_label
  _atom_site_type_symbol
  _atom_site_fract_x
  _atom_site_fract_y
  _atom_site_fract_z
C1 C 0.19046 1.25164 0.19667
 N2 N 0.23165 1.23297 0.17772
 C3 C 0.25045 1.19198 0.19342
 N4 N 0.22640 1.16843 0.22733
 C5 C 0.18378 1.18502 0.24492
 N6 N 0.16674 1.22669 0.22958
 C7 C 0.79968 0.74132 0.19389
 N8 N 0.82600 0.76774 0.22491
 C9 C 0.81419 0.81325 0.23469
 N10 N 0.77395 0.83172 0.21466
 C11 C 0.74635 0.80561 0.18457
 N12 N 0.76039 0.76113 0.17317
 C13 C 0.81189 1.24257 -0.19117
 N14 N 0.77143 1.22433 -0.17147
 C15 C 0.74666 1.18911 -0.19360
 N16 N 0.76366 1.17144 -0.23499
 C17 C 0.80289 1.19065 -0.25618
 N18 N 0.82685 1.22620 -0.23376
 C19 C 0.16845 0.76344 -0.17072
 N20 N 0.21592 0.77423 -0.16427
 C21 C 0.23886 0.80376 -0.19374
 N22 N 0.21417 0.82131 -0.23082
 C23 C 0.16680 0.80996 -0.23885
 N24 N 0.14449 0.78182 -0.20770
 C25 C 0.58623 1.02119 -0.04142
 H26 H 0.60041 0.99308 -0.02061
 C27 C 0.61812 1.04810 -0.06761
 H28 H 0.65653 1.04013 -0.06711
 C29 C 0.51946 1.06639 -0.06725
 H30 H 0.48088 1.07323 -0.06674
 C31 C 0.55028 1.09475 -0.09337
 H32 H 0.53544 1.12376 -0.11280
 N33 N 0.53777 1.03014 -0.04232
 C34 C 0.40464 1.03165 0.02086
 H35 H 0.38945 1.00781 -0.00511
 C36 C 0.37379 1.06078 0.04705
 H37 H 0.33501 1.05878 0.04134
 C38 C 0.47333 1.06421 0.05939
 H39 H 0.51228 1.06561 0.06362
 C40 C 0.44367 1.09340 0.08702
 H41 H 0.45984 1.11659 0.11320
 Zn42 Zn 0.49453 0.99258 -0.00768
 N43 N 0.45341 1.03322 0.02795
 C44 C 0.53243 0.95934 0.07895
 N45 N 0.53039 0.95224 0.03164
 C46 C 0.55575 0.91682 0.01028
 C47 C 0.58694 0.88875 0.03626
 C48 C 0.56347 0.93231 0.10619
 C49 C 0.45975 0.95855 -0.09615
 C50 C 0.43096 0.93035 -0.12561
 C51 C 0.39853 0.89277 -0.05712
 C52 C 0.42785 0.92163 -0.02901
 N53 N 0.45713 0.95418 -0.04876
 H54 H 0.51115 0.98668 0.09560
 H55 H 0.55306 0.91159 -0.02731
 H56 H 0.60838 0.86180 0.01875
 H57 H 0.56634 0.93933 0.14356
 H58 H 0.48371 0.98423 -0.11117
 H59 H 0.43253 0.93471 -0.16323
 H60 H 0.37427 0.86799 -0.04087
 H61 H 0.42674 0.91873 0.00874
 C62 C 0.39321 1.09198 0.08076
 C63 C 0.60014 1.08496 -0.09446
 C64 C 0.39990 0.89702 -0.10603
 C65 C 0.59158 0.89718 0.08456
 C66 C -0.02548 0.56766 1.07291
 H67 H 0.01274 0.57502 1.06924
 C68 C -0.05382 0.59660 1.10177
 H69 H -0.03714 0.62587 1.12046
 C70 C -0.09449 0.52332 1.05003
 H71 H -0.11073 0.49591 1.02869
 C72 C -0.12419 0.55128 1.07885
 H73 H -0.16282 0.54457 1.07999
 N74 N -0.04583 0.53136 1.04821
 C75 C 0.04883 0.41464 1.02842
 H76 H 0.03447 0.40291 0.99494
 C77 C 0.07586 0.38349 1.05508
 H78 H 0.08166 0.34788 1.04221
 C79 C 0.05864 0.47477 1.08624
 H80 H 0.05160 0.51013 1.09862
 C81 C 0.08645 0.44483 1.11380
 H82 H 0.10083 0.45746 1.14707
 Zn83 Zn -0.00311 0.49649 1.00839
 N84 N 0.03969 0.45906 1.04469
 C85 C 0.07709 0.55474 0.98807
 N86 N 0.03184 0.54164 0.97402
 C87 C 0.00834 0.56481 0.93948
 C88 C 0.03087 0.60175 0.91662
 C89 C 0.09981 0.59338 0.96799
 C90 C -0.06702 0.42230 0.98912
 C91 C -0.09189 0.38862 0.96235
 C92 C -0.05623 0.42072 0.89256
 C93 C -0.03207 0.45394 0.92068
 N94 N -0.03836 0.45463 0.96808
 H95 H 0.09469 0.53665 1.01638
 H96 H -0.02831 0.55500 0.93004
 H97 H 0.01215 0.61862 0.88809
 H98 H 0.13492 0.60453 0.98103
 H99 H -0.06974 0.42212 1.02696
 H100 H -0.11426 0.36284 0.97952
 H101 H -0.05062 0.42004 0.85497
 H102 H -0.00711 0.47793 0.90459
 C103 C 0.09396 0.39818 1.09881
 C104 C -0.10370 0.58814 1.10546
 C105 C -0.08627 0.38757 0.91361
 C106 C 0.07626 0.61803 0.93228
 C107 C 1.06881 -0.01965 0.56565
 H108 H 1.07856 0.01667 0.56063
 C109 C 1.09004 -0.04459 0.60207
 H110 H 1.11592 -0.02715 0.62505
 C111 C 1.02146 -0.08582 0.54343
 H112 H 0.99286 -0.10118 0.52233
 C113 C 1.04322 -0.11257 0.57818
 H114 H 1.03270 -0.14895 0.58194
 N115 N 1.03446 -0.04016 0.53780
 C116 C 1.03571 0.08453 0.45979
 H117 H 1.00925 0.10218 0.48170
 C118 C 1.06129 0.11037 0.42679
 H119 H 1.05533 0.14788 0.42461
 C120 C 1.07365 0.01419 0.43332
 H121 H 1.07770 -0.02346 0.43557
 C122 C 1.09876 0.03845 0.39887
 H123 H 1.12204 0.01927 0.37466
 Zn124 Zn 0.99906 -0.00094 0.49698
 N125 N 1.04159 0.03712 0.46187
 C126 C 0.97916 0.06971 0.56428
 N127 N 0.95772 0.03637 0.53642
 C128 C 0.90933 0.02758 0.53997
 C129 C 0.88005 0.05561 0.56903
 C130 C 0.95151 0.09753 0.59490
 C131 C 0.98493 -0.07557 0.43150
 C132 C 0.96290 -0.09963 0.39405
 C133 C 0.89773 -0.04308 0.39665
 C134 C 0.92190 -0.01915 0.43286
 N135 N 0.96377 -0.03660 0.45095
 H136 H 1.01791 0.07485 0.56275
 H137 H 0.89327 -0.00177 0.52121
 H138 H 0.84146 0.04882 0.57051
 H139 H 0.96935 0.12348 0.61717
 H140 H 1.01970 -0.08740 0.44417
 H141 H 0.98059 -0.13021 0.37870
 H142 H 0.86367 -0.02944 0.38377
 H143 H 0.90773 0.01411 0.44544
 C144 C 1.09119 0.08684 0.39421
 C145 C 1.07631 -0.09134 0.60945
 C146 C 0.91885 -0.08324 0.37598
 C147 C 0.90104 0.09170 0.59639
 C148 C 0.13013 0.31806 1.20009
 C149 C 0.17006 0.29351 1.17870
 C150 C 0.18700 0.30935 1.13514
 C151 C 0.16256 0.34394 1.11073
 C152 C 0.12015 0.36428 1.12856
 C153 C 0.10344 0.35145 1.17354
 C154 C 0.11665 0.31179 1.24751
 C155 C 0.07493 0.33264 1.26599
 C156 C 0.04624 0.36104 1.23826
 C157 C 0.06038 0.37077 1.19261
 H158 H 0.13882 0.29252 1.27167
 H159 H 0.06493 0.32682 1.30212
 H160 H 0.01348 0.37657 1.25256
 H161 H 0.03721 0.39358 1.17263
 H162 H 0.21809 0.29326 1.11808
 H163 H 0.17614 0.35396 1.07669
 C164 C -0.14994 0.66903 1.20472
 C165 C -0.18369 0.69645 1.17880
 C166 C -0.19729 0.68018 1.13371
 C167 C -0.17274 0.64332 1.11159
 C168 C -0.13449 0.62053 1.13395
 C169 C -0.12461 0.63140 1.18172
 C170 C -0.14250 0.67628 1.25344
 C171 C -0.10885 0.64959 1.27789
 C172 C -0.08290 0.61421 1.25490
 C173 C -0.09104 0.60465 1.20746
 H174 H -0.16398 0.70097 1.27374
 H175 H -0.10357 0.65580 1.31511
 H176 H -0.05724 0.59323 1.27421
 H177 H -0.07177 0.57534 1.19155
 H178 H -0.22415 0.69859 1.11327
 H179 H -0.18165 0.63461 1.07544
 C180 C -0.10856 0.27513 0.84115
 C181 C -0.15958 0.27866 0.83464
 C182 C -0.18462 0.31702 0.85437
 C183 C -0.16016 0.35217 0.87933
 C184 C -0.10987 0.35016 0.88520
 C185 C -0.08351 0.31154 0.86621
 C186 C -0.08201 0.23543 0.82522
 C187 C -0.03205 0.23262 0.83212
 C188 C -0.00758 0.26864 0.85570
 C189 C -0.03294 0.30758 0.87300
 H190 H -0.09929 0.20564 0.80826
 H191 H -0.01228 0.20203 0.81954
 H192 H 0.03116 0.26608 0.86122
 H193 H -0.01259 0.33418 0.89214
 H194 H -0.22356 0.31992 0.85020
 H195 H -0.18065 0.38129 0.89425
 C196 C 0.09583 0.73771 0.87408
 C197 C 0.14502 0.73225 0.85954
 C198 C 0.17129 0.69321 0.87498
 C199 C 0.14859 0.65719 0.89882
 C200 C 0.09937 0.65991 0.91077
 C201 C 0.07343 0.70189 0.90106
 C202 C 0.06960 0.77960 0.86600
 C203 C 0.02254 0.78553 0.88275
 C204 C 0.00117 0.75101 0.90956
 C205 C 0.02650 0.71005 0.91944
 H206 H 0.08545 0.80913 0.84848
 H207 H 0.00310 0.81778 0.87611
 H208 H -0.03484 0.75647 0.92373
 H209 H 0.00937 0.68572 0.94284
 H210 H 0.20902 0.68850 0.86532
 H211 H 0.16951 0.62606 0.90653
 C212 C 1.10618 0.16027 0.28309
 C213 C 1.15791 0.15928 0.27867
 C214 C 1.18469 0.13154 0.30974
 C215 C 1.16250 0.10895 0.34682
 C216 C 1.11243 0.11194 0.35383
 C217 C 1.08353 0.13644 0.32101
 C218 C 1.07587 0.18062 0.24872
 C219 C 1.02560 0.18035 0.25315
 C220 C 1.00391 0.15809 0.29052
 C221 C 1.03229 0.13555 0.32359
 H222 H 1.08974 0.19498 0.21675
 H223 H 1.00327 0.19636 0.22660
 H224 H 0.96477 0.15704 0.29315
 H225 H 1.01332 0.11638 0.35023
 H226 H 1.22380 0.12908 0.30696
 H227 H 1.18490 0.08941 0.37086
 C228 C 1.08992 -0.17402 0.71432
 C229 C 1.14142 -0.17033 0.72245
 C230 C 1.16855 -0.14248 0.69150
 C231 C 1.14693 -0.11795 0.65546
 C232 C 1.09674 -0.11785 0.64953
 C233 C 1.06761 -0.14419 0.68054
 C234 C 1.05920 -0.20583 0.73805
 C235 C 1.00892 -0.20336 0.73408
 C236 C 0.98761 -0.17001 0.70589
 C237 C 1.01648 -0.14088 0.67910
 H238 H 1.07229 -0.23458 0.75827
 H239 H 0.98632 -0.22752 0.75317
 H240 H 0.94850 -0.16748 0.70384
 H241 H 0.99822 -0.11548 0.65761
 H242 H 1.20757 -0.13941 0.69462
 H243 H 1.16992 -0.09838 0.63201
 C244 C 0.85228 -0.11065 0.25984
 C245 C 0.84319 -0.15961 0.26563
 C246 C 0.86406 -0.18218 0.30412
 C247 C 0.88850 -0.15689 0.33894
 C248 C 0.89494 -0.10827 0.33592
 C249 C 0.87876 -0.08504 0.29509
 C250 C 0.83971 -0.08732 0.21809
 C251 C 0.85053 -0.04000 0.21223
 C252 C 0.87577 -0.01515 0.24674
 C253 C 0.89057 -0.03747 0.28734
 H254 H 0.82356 -0.10545 0.18847
 H255 H 0.84048 -0.02287 0.18006
 H256 H 0.88513 0.02130 0.24146
 H257 H 0.91264 -0.01730 0.31169
 H258 H 0.85886 -0.21948 0.30911
 H259 H 0.90143 -0.17545 0.36934
 C260 C 0.84981 0.19565 0.66894
 C261 C 0.82144 0.17041 0.70193
 C262 C 0.81403 0.12203 0.69396
 C263 C 0.83901 0.09768 0.65892
 C264 C 0.87097 0.12082 0.62909
 C265 C 0.87451 0.17056 0.63221
 C266 C 0.85155 0.24539 0.66935
 C267 C 0.87852 0.26944 0.63621
 C268 C 0.90302 0.24488 0.60099
 C269 C 0.90053 0.19605 0.59842
 H270 H 0.83052 0.26655 0.69367
 H271 H 0.87942 0.30747 0.63719
 H272 H 0.92309 0.26383 0.57478
 H273 H 0.91801 0.17875 0.56890
 H274 H 0.79177 0.10168 0.71739
 H275 H 0.83497 0.05985 0.65660
 C276 C 0.32947 1.19459 0.14581
 C277 C 0.29225 1.16922 0.16889
 C278 C 0.29182 1.12002 0.16474
 C279 C 0.32523 1.09615 0.13676
 C280 C 0.36020 1.12037 0.11119
 C281 C 0.36251 1.17012 0.11539
 C282 C 0.33520 1.24358 0.15255
 C283 C 0.36989 1.26828 0.12744
 C284 C 0.39970 1.24485 0.09539
 C285 C 0.39623 1.19627 0.08933
 H286 H 0.31395 1.26323 0.17794
 H287 H 0.37356 1.30586 0.13279
 H288 H 0.42605 1.26436 0.07548
 H289 H 0.42002 1.17966 0.06389
 H290 H 0.26419 1.09957 0.18199
 H291 H 0.32319 1.05816 0.13437
 C292 C 0.66465 1.14719 -0.19533
 C293 C 0.70471 1.16673 -0.17027
 C294 C 0.70703 1.16168 -0.12152
 C295 C 0.67228 1.13597 -0.09785
 C296 C 0.63415 1.11386 -0.12201
 C297 C 0.63013 1.11910 -0.17128
 C298 C 0.65759 1.15530 -0.24360
 C299 C 0.61985 1.13354 -0.26822
 C300 C 0.58830 1.10353 -0.24540
 C301 C 0.59321 1.09628 -0.19743
 H302 H 0.68031 1.17918 -0.26270
 H303 H 0.61517 1.13987 -0.30526
 H304 H 0.55953 1.08614 -0.26487
 H305 H 0.56796 1.07248 -0.18133
 H306 H 0.73698 1.17644 -0.10155
 H307 H 0.67573 1.13252 -0.06021
 C308 C 0.32302 0.79651 -0.15757
 C309 C 0.28689 0.82329 -0.18042
 C310 C 0.29358 0.87186 -0.18472
 C311 C 0.33225 0.89464 -0.16277
 C312 C 0.36561 0.86965 -0.13588
 C313 C 0.36257 0.81994 -0.13491
 C314 C 0.32108 0.74696 -0.15715
 C315 C 0.35662 0.72120 -0.13416
 C316 C 0.39498 0.74410 -0.11173
 C317 C 0.39825 0.79297 -0.11225
 H318 H 0.29289 0.72763 -0.17548
 H319 H 0.35467 0.68322 -0.13418
 H320 H 0.42267 0.72387 -0.09431
 H321 H 0.42933 0.80932 -0.09549
 H322 H 0.26673 0.89305 -0.20229
 H323 H 0.33432 0.93260 -0.16430
 C324 C 0.65985 0.80248 0.15184
 C325 C 0.70377 0.82715 0.16147
 C326 C 0.70806 0.87402 0.14775
 C327 C 0.67102 0.89602 0.12350
 C328 C 0.62851 0.87187 0.11175
 C329 C 0.62233 0.82490 0.12596
 C330 C 0.65143 0.75675 0.16850
 C331 C 0.60838 0.73306 0.15804
 C332 C 0.57256 0.75451 0.13153
 C333 C 0.57915 0.80013 0.11585
 H334 H 0.67715 0.73912 0.19065
 H335 H 0.60261 0.69799 0.17094
 H336 H 0.53920 0.73595 0.12368
 H337 H 0.55000 0.81596 0.09622
 H338 H 0.74092 0.89369 0.15491
 H339 H 0.67594 0.93209 0.11296
   
