data_POSCAR
  _audit_creation_date              2014-09-24
  _audit_creation_method            'ToBaCCo'
  _symmetry_space_group_name_H-M    'P1'
  _symmetry_Int_Tables_number       1
  _symmetry_cell_setting            triclinic
  loop_
  _symmetry_equiv_pos_as_xyz
 x,y,z
_cell_length_a 33.3360
_cell_length_b 35.5088
_cell_length_c 34.1403
_cell_angle_alpha 89.064600
_cell_angle_beta 89.459800
_cell_angle_gamma 91.387300
loop_
  _atom_site_label
  _atom_site_type_symbol
  _atom_site_fract_x
  _atom_site_fract_y
  _atom_site_fract_z
C1 C 0.15223 0.16179 0.20131
 C2 C 0.18836 0.15000 0.18358
 C3 C 0.20468 0.16799 0.14920
 C4 C 0.18356 0.19891 0.13342
 C5 C 0.14799 0.21113 0.15085
 C6 C 0.13282 0.19254 0.18423
 H7 H 0.20379 0.12687 0.19694
 H8 H 0.19335 0.21309 0.10664
 H9 H 0.10701 0.20443 0.19845
 C10 C -0.16649 0.83303 0.22239
 C11 C -0.20229 0.84412 0.20388
 C12 C -0.21775 0.82532 0.17103
 C13 C -0.19796 0.79324 0.15774
 C14 C -0.16308 0.78038 0.17610
 C15 C -0.14718 0.80110 0.20744
 H16 H -0.21972 0.86641 0.21601
 H17 H -0.20988 0.77803 0.13312
 H18 H -0.11857 0.79279 0.21883
 C19 C -0.15317 0.17339 -0.22273
 C20 C -0.13735 0.20777 -0.20845
 C21 C -0.15359 0.22485 -0.17549
 C22 C -0.18727 0.20821 -0.15713
 C23 C -0.20720 0.17643 -0.17247
 C24 C -0.18904 0.15854 -0.20485
 H25 H -0.11309 0.22252 -0.22385
 H26 H -0.19716 0.21971 -0.12966
 H27 H -0.20281 0.13325 -0.21607
 C28 C 0.15084 0.84039 -0.19853
 C29 C 0.18561 0.85405 -0.18000
 C30 C 0.20550 0.83200 -0.15169
 C31 C 0.18944 0.79580 -0.14272
 C32 C 0.15394 0.78229 -0.15995
 C33 C 0.13473 0.80501 -0.18748
 H34 H 0.19622 0.88235 -0.18725
 H35 H 0.20593 0.77691 -0.12409
 H36 H 0.10769 0.79467 -0.20132
 C37 C 0.16714 1.18445 0.78416
 C38 C 0.20074 1.16691 0.80053
 C39 C 0.21929 1.18132 0.83405
 C40 C 0.20272 1.21243 0.85227
 C41 C 0.17053 1.23141 0.83577
 C42 C 0.15275 1.21722 0.80169
 H43 H 0.21274 1.14220 0.78705
 H44 H 0.21518 1.22214 0.87959
 H45 H 0.12847 1.23228 0.78826
 C46 C 0.82403 0.81856 0.77158
 C47 C 0.78757 0.83103 0.78739
 C48 C 0.76887 0.81279 0.81932
 C49 C 0.78515 0.78002 0.83448
 C50 C 0.81942 0.76411 0.81779
 C51 C 0.83944 0.78429 0.78675
 H52 H 0.77251 0.85463 0.77423
 H53 H 0.77190 0.76799 0.86104
 H54 H 0.86675 0.77340 0.77464
 C55 C 0.16670 0.82098 1.22380
 C56 C 0.19812 0.83955 1.20289
 C57 C 0.21306 0.82570 1.16759
 C58 C 0.19809 0.79102 1.15381
 C59 C 0.16734 0.77123 1.17461
 C60 C 0.15108 0.78716 1.20845
 H61 H 0.21311 0.86406 1.21481
 H62 H 0.21053 0.77942 1.12734
 H63 H 0.12513 0.77326 1.22193
 C64 C 0.82297 1.17279 1.23516
 C65 C 0.84077 1.20682 1.22028
 C66 C 0.82324 1.22785 1.18919
 C67 C 0.78690 1.21340 1.17336
 C68 C 0.76939 1.17930 1.18711
 C69 C 0.78819 1.15910 1.21680
 H70 H 0.86820 1.21693 1.23319
 H71 H 0.77063 1.22918 1.15164
 H72 H 0.77593 1.13145 1.22446
 N73 N 0.46193 0.93192 0.95360
 N74 N 0.43091 0.90841 0.94905
 N75 N 0.54600 0.96305 0.92680
 N76 N 0.57657 0.95989 0.90246
 N77 N 0.54641 0.93670 0.95414
 N78 N 0.57694 0.91438 0.94887
 N79 N 0.46231 0.95807 0.92602
 N80 N 0.43229 0.95308 0.90189
 C81 C 0.41294 0.92206 0.91634
 C82 C 0.59551 0.92948 0.91670
 N83 N 0.54209 1.06975 0.94993
 N84 N 0.57428 1.09215 0.94527
 N85 N 0.45837 1.03821 0.92398
 N86 N 0.42740 1.03999 0.90030
 N87 N 0.45736 1.06512 0.94980
 N88 N 0.42595 1.08631 0.94417
 N89 N 0.54258 1.04284 0.92408
 N90 N 0.57470 1.04583 0.90153
 Mn91 Mn 0.50228 1.00057 0.92493
 C92 C 0.59419 1.07671 0.91470
 C93 C 0.40758 1.07023 0.91323
 N94 N 0.54560 0.93719 1.03883
 N95 N 0.57656 0.91541 1.04536
 N96 N 0.45906 0.95815 1.06416
 N97 N 0.42870 0.95013 1.08844
 N98 N 0.46186 0.93182 1.03777
 N99 N 0.43437 0.90509 1.04355
 N100 N 0.54416 0.96398 1.06492
 N101 N 0.57445 0.96145 1.08943
 Mn102 Mn 0.50400 0.93396 0.99610
 C103 C 0.59438 0.93096 1.07700
 C104 C 0.41379 0.91682 1.07504
 N105 N 0.45510 1.06606 1.03450
 N106 N 0.42283 1.08680 1.03847
 N107 N 0.54011 1.04559 1.06288
 N108 N 0.57001 1.05312 1.08697
 N109 N 0.53969 1.07081 1.03431
 N110 N 0.56931 1.09571 1.03775
 N111 N 0.45550 1.03964 1.06193
 N112 N 0.42358 1.04152 1.08491
 Mn113 Mn 0.49856 1.06848 0.99216
 Mn114 Mn 0.49967 1.00186 1.06408
 Cl115 Cl 0.50113 1.00124 0.99449
 C116 C 0.40344 1.07114 1.07015
 C117 C 0.58792 1.08448 1.07072
 N118 N 0.03031 0.45745 0.07462
 N119 N 0.03436 0.42879 0.09960
 N120 N 0.06534 0.53584 0.04661
 N121 N 0.08977 0.56552 0.04818
 N122 N 0.03725 0.53728 0.07380
 N123 N 0.04233 0.56786 0.09498
 N124 N 0.05886 0.45717 0.04785
 N125 N 0.08324 0.42924 0.05398
 C126 C 0.06769 0.41162 0.08605
 C127 C 0.07539 0.58499 0.07869
 N128 N 0.04233 0.53697 -0.06504
 N129 N 0.04943 0.56704 -0.08751
 N130 N 0.06128 0.45633 -0.03621
 N131 N 0.08237 0.42553 -0.03998
 N132 N 0.03396 0.45810 -0.06352
 N133 N 0.03512 0.42855 -0.08622
 N134 N 0.06870 0.53516 -0.03694
 N135 N 0.09440 0.56381 -0.03927
 Mn136 Mn 0.06390 0.49608 0.00540
 C137 C 0.08225 0.58326 -0.07110
 C138 C 0.06549 0.40856 -0.07133
 N139 N -0.04966 0.54253 0.07171
 N140 N -0.05232 0.57275 0.09384
 N141 N -0.08314 0.46440 0.04459
 N142 N -0.10878 0.43546 0.04765
 N143 N -0.05653 0.46286 0.07273
 N144 N -0.06361 0.43309 0.09572
 N145 N -0.07575 0.54406 0.04311
 N146 N -0.09633 0.57523 0.04475
 Mn147 Mn -0.00972 0.49999 0.07391
 C148 C -0.08174 0.59286 0.07660
 C149 C -0.09645 0.41628 0.07990
 N150 N -0.05101 0.46365 -0.06607
 N151 N -0.05664 0.43485 -0.08936
 N152 N -0.07242 0.54432 -0.04168
 N153 N -0.09417 0.57423 -0.04920
 N154 N -0.04288 0.54247 -0.06722
 N155 N -0.04321 0.57103 -0.09228
 N156 N -0.08013 0.46517 -0.04008
 N157 N -0.10676 0.43760 -0.04529
 Mn158 Mn -0.00441 0.50032 -0.06582
 Mn159 Mn -0.07845 0.50452 0.00159
 Cl160 Cl -0.00727 0.50022 0.00389
 C161 C -0.09157 0.41898 -0.07620
 C162 C -0.07527 0.59064 -0.08079
 N163 N 0.94910 -0.04498 0.45754
 N164 N 0.92488 -0.05230 0.42796
 N165 N 0.97482 -0.07117 0.54089
 N166 N 0.96898 -0.09749 0.56802
 N167 N 0.94541 -0.04724 0.54067
 N168 N 0.91883 -0.05656 0.56851
 N169 N 0.97787 -0.06960 0.45909
 N170 N 0.97382 -0.09438 0.43093
 C171 C 0.94080 -0.08322 0.41153
 C172 C 0.93418 -0.08808 0.58525
 N173 N 1.08814 -0.03800 0.54392
 N174 N 1.11119 -0.04029 0.57492
 N175 N 1.06386 -0.06432 0.46206
 N176 N 1.06945 -0.08628 0.43196
 N177 N 1.09037 -0.03642 0.46182
 N178 N 1.11462 -0.03841 0.43116
 N179 N 1.06072 -0.06515 0.54438
 N180 N 1.06403 -0.08646 0.57621
 Mn181 Mn 1.01939 -0.06790 0.50168
 C182 C 1.09591 -0.07065 0.59470
 C183 C 1.10123 -0.06989 0.41306
 N184 N 0.94196 0.03432 0.54086
 N185 N 0.91503 0.03736 0.56918
 N186 N 0.97325 0.06412 0.46012
 N187 N 0.97012 0.08796 0.43045
 N188 N 0.94588 0.03697 0.45833
 N189 N 0.92289 0.04211 0.42735
 N190 N 0.96927 0.06156 0.54262
 N191 N 0.96175 0.08365 0.57245
 Mn192 Mn 0.94493 -0.00524 0.49926
 C193 C 0.92777 0.06823 0.58875
 C194 C 0.93865 0.07408 0.41024
 N195 N 1.08798 0.04414 0.46273
 N196 N 1.11251 0.04894 0.43251
 N197 N 1.05599 0.06653 0.54487
 N198 N 1.06071 0.09059 0.57368
 N199 N 1.08530 0.04253 0.54448
 N200 N 1.11099 0.04978 0.57266
 N201 N 1.05913 0.06861 0.46173
 N202 N 1.06295 0.09043 0.43004
 Mn203 Mn 1.08833 0.00305 0.50318
 Mn204 Mn 1.01434 0.06569 0.50247
 Cl205 Cl 1.01658 -0.00105 0.50167
 C206 C 1.09672 0.07797 0.41241
 C207 C 1.09513 0.07964 0.59082
 C208 C 1.09451 0.14642 0.24500
 C209 C 1.13613 0.14495 0.23644
 C210 C 1.16095 0.12808 0.26478
 C211 C 1.14509 0.11541 0.30112
 C212 C 1.10382 0.11926 0.30960
 C213 C 1.07874 0.13413 0.28107
 C214 C 1.08822 0.10799 0.34642
 C215 C 1.11324 0.09199 0.37458
 C216 C 1.15408 0.08750 0.36571
 C217 C 1.16997 0.09946 0.32946
 H218 H 1.19302 0.12672 0.26004
 H219 H 1.04682 0.13634 0.28664
 H220 H 1.05655 0.11090 0.35284
 H221 H 1.20167 0.09609 0.32357
 H222 H 1.07345 0.15660 0.22361
 H223 H 1.17383 0.07495 0.38700
 C224 C 0.83907 -0.10890 0.26206
 C225 C 0.84944 -0.14673 0.25507
 C226 C 0.87628 -0.16361 0.28174
 C227 C 0.89215 -0.14363 0.31355
 C228 C 0.88072 -0.10624 0.32010
 C229 C 0.85420 -0.08921 0.29413
 C230 C 0.89622 -0.08650 0.35235
 C231 C 0.92372 -0.10358 0.37768
 C232 C 0.93524 -0.14067 0.37049
 C233 C 0.91937 -0.16060 0.33902
 H234 H 0.88416 -0.19282 0.27914
 H235 H 0.84550 -0.06032 0.29827
 H236 H 0.88732 -0.05781 0.35742
 H237 H 0.92863 -0.18926 0.33447
 H238 H 0.82035 -0.09339 0.24216
 H239 H 0.95631 -0.15452 0.38953
 C240 C 0.90824 0.16233 0.73833
 C241 C 0.86675 0.15524 0.74563
 C242 C 0.84650 0.12989 0.72043
 C243 C 0.86661 0.11376 0.68849
 C244 C 0.90747 0.12292 0.68115
 C245 C 0.92803 0.14681 0.70651
 C246 C 0.92726 0.10803 0.64856
 C247 C 0.90692 0.08342 0.62337
 C248 C 0.86653 0.07362 0.63135
 C249 C 0.84645 0.08888 0.66341
 H250 H 0.81476 0.12374 0.72406
 H251 H 0.95966 0.15338 0.70191
 H252 H 0.95856 0.11544 0.64294
 H253 H 0.81514 0.08128 0.66853
 H254 H 0.92644 0.17913 0.75779
 H255 H 0.85023 0.05462 0.61238
 C256 C 1.09157 -0.13997 0.76169
 C257 C 1.13328 -0.13896 0.76786
 C258 C 1.15866 -0.12189 0.73932
 C259 C 1.14295 -0.10794 0.70424
 C260 C 1.10124 -0.11121 0.69734
 C261 C 1.07571 -0.12645 0.72662
 C262 C 1.08592 -0.09958 0.66112
 C263 C 1.11171 -0.08375 0.63232
 C264 C 1.15282 -0.07929 0.63993
 C265 C 1.16844 -0.09170 0.67547
 H266 H 1.19088 -0.12118 0.74343
 H267 H 1.04361 -0.12857 0.72213
 H268 H 1.05403 -0.10237 0.65551
 H269 H 1.20042 -0.08876 0.68037
 H270 H 1.07123 -0.15218 0.78358
 H271 H 1.17301 -0.06683 0.61802
 C272 C 0.26475 1.18006 1.10647
 C273 C 0.24117 1.15566 1.13123
 C274 C 0.25541 1.11871 1.13750
 C275 C 0.29155 1.10698 1.12036
 C276 C 0.31413 1.13185 1.09563
 C277 C 0.30032 1.16826 1.08886
 C278 C 0.35031 1.12001 1.07847
 C279 C 0.36462 1.08375 1.08654
 C280 C 0.34184 1.05931 1.11132
 C281 C 0.30558 1.07064 1.12775
 H282 H 0.23812 1.09809 1.15459
 H283 H 0.31745 1.18798 1.07037
 H284 H 0.36766 1.13921 1.05957
 H285 H 0.28872 1.05105 1.14662
 H286 H 0.25710 1.20912 1.10152
 H287 H 0.35199 1.03117 1.11789
 C288 C 0.25251 0.83145 0.90387
 C289 C 0.24142 0.84493 0.86633
 C290 C 0.26760 0.87103 0.84694
 C291 C 0.30368 0.88283 0.86407
 C292 C 0.31437 0.86876 0.90140
 C293 C 0.28845 0.84320 0.92108
 C294 C 0.35064 0.88076 0.91843
 C295 C 0.37596 0.90693 0.89852
 C296 C 0.36503 0.92048 0.86128
 C297 C 0.32935 0.90847 0.84416
 H298 H 0.26127 0.88109 0.81759
 H299 H 0.29581 0.83242 0.94995
 H300 H 0.35873 0.87036 0.94725
 H301 H 0.32171 0.91949 0.81547
 H302 H 0.23292 0.81266 0.92094
 H303 H 0.38406 0.94065 0.84527
 C304 C 0.71822 0.81388 1.13281
 C305 C 0.74520 0.83913 1.15104
 C306 C 0.73647 0.87788 1.15004
 C307 C 0.70156 0.89092 1.13191
 C308 C 0.67539 0.86528 1.11306
 C309 C 0.68407 0.82683 1.11369
 C310 C 0.64079 0.87850 1.09436
 C311 C 0.63131 0.91689 1.09553
 C312 C 0.65717 0.94197 1.11505
 C313 C 0.69221 0.92923 1.13259
 H314 H 0.75690 0.89814 1.16309
 H315 H 0.66412 0.80664 1.09984
 H316 H 0.62080 0.85886 1.07973
 H317 H 0.71180 0.94932 1.14706
 H318 H 0.72302 0.78387 1.13368
 H319 H 0.65052 0.97164 1.11627
 C320 C 0.73114 1.18894 0.86544
 C321 C 0.75571 1.16357 0.84498
 C322 C 0.74206 1.12568 0.84288
 C323 C 0.70600 1.11358 0.86142
 C324 C 0.68287 1.13932 0.88266
 C325 C 0.69568 1.17693 0.88424
 C326 C 0.64691 1.12719 0.90135
 C327 C 0.63329 1.08975 0.89810
 C328 C 0.65646 1.06438 0.87682
 C329 C 0.69261 1.07603 0.85901
 H330 H 0.75986 1.10492 0.82833
 H331 H 0.67796 1.19731 0.89960
 H332 H 0.62905 1.14702 0.91735
 H333 H 0.70977 1.05577 0.84291
 H334 H 0.73824 1.21880 0.86612
 H335 H 0.64653 1.03534 0.87385
 C336 C 0.08500 0.24412 0.13272
 C337 C 0.12705 0.24492 0.13629
 C338 C 0.14833 0.27911 0.13034
 C339 C 0.12784 0.31232 0.12192
 C340 C 0.08545 0.31140 0.11903
 C341 C 0.06439 0.27702 0.12412
 C342 C 0.06505 0.34472 0.11030
 C343 C 0.08679 0.37851 0.10339
 C344 C 0.12876 0.37913 0.10670
 C345 C 0.14909 0.34647 0.11632
 H346 H 0.18066 0.28008 0.13361
 H347 H 0.03200 0.27561 0.12179
 H348 H 0.03275 0.34400 0.10679
 H349 H 0.18151 0.34775 0.11843
 H350 H 0.06802 0.21800 0.13727
 H351 H 0.14596 0.40494 0.10088
 C352 C -0.09395 0.26742 -0.16184
 C353 C -0.13566 0.26035 -0.15997
 C354 C -0.16029 0.28709 -0.14231
 C355 C -0.14359 0.31961 -0.12578
 C356 C -0.10176 0.32658 -0.12843
 C357 C -0.07722 0.30044 -0.14663
 C358 C -0.08516 0.35943 -0.11251
 C359 C -0.10961 0.38474 -0.09281
 C360 C -0.15098 0.37722 -0.08940
 C361 C -0.16798 0.34509 -0.10626
 H362 H -0.19257 0.28271 -0.14130
 H363 H -0.04502 0.30523 -0.14851
 H364 H -0.05312 0.36500 -0.11489
 H365 H -0.20009 0.34000 -0.10375
 H366 H -0.07405 0.24716 -0.17447
 H367 H -0.17022 0.39653 -0.07432
 C368 C 0.11707 0.72222 -0.17777
 C369 C 0.13768 0.74399 -0.14987
 C370 C 0.14312 0.72878 -0.11210
 C371 C 0.12916 0.69240 -0.10257
 C372 C 0.10729 0.67136 -0.13033
 C373 C 0.10138 0.68652 -0.16785
 C374 C 0.09190 0.63548 -0.12006
 C375 C 0.09961 0.62001 -0.08296
 C376 C 0.12310 0.64036 -0.05634
 C377 C 0.13709 0.67662 -0.06573
 H378 H 0.15809 0.74521 -0.08985
 H379 H 0.08523 0.67055 -0.18969
 H380 H 0.07427 0.61957 -0.14090
 H381 H 0.15435 0.69216 -0.04433
 H382 H 0.11337 0.73243 -0.20751
 H383 H 0.13004 0.62849 -0.02790
 C384 C -0.12526 0.72091 0.19070
 C385 C -0.14346 0.74494 0.16314
 C386 C -0.14368 0.73420 0.12355
 C387 C -0.12708 0.69997 0.11198
 C388 C -0.10882 0.67630 0.13997
 C389 C -0.10786 0.68726 0.17922
 C390 C -0.09265 0.64179 0.12834
 C391 C -0.09573 0.63020 0.08923
 C392 C -0.11398 0.65407 0.06177
 C393 C -0.12908 0.68871 0.07288
 H394 H -0.15680 0.75236 0.10160
 H395 H -0.09432 0.66943 0.20123
 H396 H -0.07892 0.62349 0.14983
 H397 H -0.14298 0.70641 0.05098
 H398 H -0.12515 0.72766 0.22149
 H399 H -0.11658 0.64591 0.03144
 C400 C 1.10569 0.17067 0.74375
 C401 C 1.14752 0.16875 0.74866
 C402 C 1.17036 0.15072 0.71992
 C403 C 1.15180 0.13378 0.68780
 C404 C 1.10984 0.13607 0.68312
 C405 C 1.08711 0.15484 0.71113
 C406 C 1.09136 0.11903 0.65085
 C407 C 1.11425 0.09872 0.62405
 C408 C 1.15582 0.09624 0.62930
 C409 C 1.17453 0.11401 0.66060
 H410 H 1.20268 0.14968 0.72242
 H411 H 1.05487 0.15664 0.70822
 H412 H 1.05919 0.12074 0.64713
 H413 H 1.20670 0.11185 0.66384
 H414 H 1.08707 0.18373 0.76556
 H415 H 1.17399 0.08082 0.60887
 C416 C 0.83697 -0.12037 0.73767
 C417 C 0.84342 -0.15964 0.74111
 C418 C 0.86860 -0.17599 0.71288
 C419 C 0.88467 -0.15428 0.68131
 C420 C 0.87590 -0.11561 0.67763
 C421 C 0.85254 -0.09892 0.70630
 C422 C 0.89101 -0.09411 0.64560
 C423 C 0.91575 -0.11063 0.61766
 C424 C 0.92483 -0.14897 0.62178
 C425 C 0.90915 -0.17068 0.65306
 H426 H 0.87426 -0.20586 0.71391
 H427 H 0.84640 -0.06910 0.70463
 H428 H 0.88440 -0.06443 0.64294
 H429 H 0.91639 -0.20022 0.65527
 H430 H 0.82052 -0.10544 0.75975
 H431 H 0.94401 -0.16228 0.60058
 C432 C 1.13242 -0.18830 0.28780
 C433 C 1.15199 -0.16448 0.25960
 C434 C 1.15722 -0.12587 0.26858
 C435 C 1.14447 -0.11192 0.30457
 C436 C 1.12460 -0.13627 0.33183
 C437 C 1.11861 -0.17427 0.32317
 C438 C 1.11097 -0.12222 0.36738
 C439 C 1.11763 -0.08424 0.37642
 C440 C 1.13826 -0.06023 0.34973
 C441 C 1.15127 -0.07391 0.31377
 H442 H 1.17008 -0.10592 0.24744
 H443 H 1.10383 -0.19338 0.34410
 H444 H 1.09525 -0.14091 0.38811
 H445 H 1.16663 -0.05483 0.29323
 H446 H 1.12896 -0.21832 0.28382
 H447 H 1.14341 -0.03076 0.35625
 C448 C 0.81322 0.12878 0.29145
 C449 C 0.83878 0.15239 0.26774
 C450 C 0.87985 0.15471 0.27773
 C451 C 0.89470 0.13375 0.30960
 C452 C 0.86857 0.10975 0.33196
 C453 C 0.82795 0.10760 0.32264
 C454 C 0.88326 0.08892 0.36388
 C455 C 0.92364 0.09269 0.37447
 C456 C 0.94951 0.11656 0.35207
 C457 C 0.93531 0.13657 0.31968
 H458 H 0.90093 0.17156 0.26021
 H459 H 0.80728 0.08998 0.33995
 H460 H 0.86304 0.07090 0.38128
 H461 H 0.95595 0.15474 0.30297
 H462 H 0.78112 0.12739 0.28721
 H463 H 0.98082 0.11988 0.35976
 C464 C 0.18488 0.29169 -0.12930
 C465 C 0.15675 0.26651 -0.14588
 C466 C 0.11576 0.27470 -0.14385
 C467 C 0.10308 0.30726 -0.12510
 C468 C 0.13164 0.33162 -0.10748
 C469 C 0.17244 0.32366 -0.10992
 C470 C 0.11902 0.36395 -0.08836
 C471 C 0.07839 0.37297 -0.08800
 C472 C 0.05021 0.34896 -0.10588
 C473 C 0.06236 0.31605 -0.12384
 H474 H 0.09371 0.25554 -0.15630
 H475 H 0.19476 0.34230 -0.09714
 H476 H 0.14087 0.38278 -0.07508
 H477 H 0.04003 0.29784 -0.13725
 H478 H 0.21674 0.28674 -0.13135
 H479 H 0.01871 0.35567 -0.10585
 C480 C -0.13196 0.28420 0.19783
 C481 C -0.15890 0.26269 0.17476
 C482 C -0.16755 0.27723 0.13681
 C483 C -0.15034 0.31159 0.12285
 C484 C -0.12323 0.33196 0.14639
 C485 C -0.11430 0.31799 0.18376
 C486 C -0.10561 0.36606 0.13225
 C487 C -0.11526 0.38045 0.09493
 C488 C -0.14264 0.36011 0.07187
 C489 C -0.15978 0.32591 0.08554
 H490 H -0.18654 0.26155 0.11707
 H491 H -0.09398 0.33353 0.20251
 H492 H -0.08464 0.38150 0.15042
 H493 H -0.18056 0.31073 0.06696
 H494 H -0.12523 0.27628 0.22767
 H495 H -0.15048 0.37043 0.04298
 C496 C -0.19482 0.70360 -0.14834
 C497 C -0.16697 0.72946 -0.16626
 C498 C -0.12593 0.72042 -0.16566
 C499 C -0.11316 0.68824 -0.14498
 C500 C -0.14159 0.66444 -0.12514
 C501 C -0.18231 0.67194 -0.12779
 C502 C -0.12899 0.63328 -0.10314
 C503 C -0.08828 0.62482 -0.10160
 C504 C -0.06009 0.64800 -0.12200
 C505 C -0.07235 0.67970 -0.14316
 H506 H -0.10353 0.73929 -0.17892
 H507 H -0.20461 0.65338 -0.11380
 H508 H -0.15091 0.61509 -0.08803
 H509 H -0.04998 0.69739 -0.15819
 H510 H -0.22685 0.70746 -0.15030
 H511 H -0.02846 0.64172 -0.12132
 C512 C 0.14161 0.70583 0.19059
 C513 C 0.15173 0.73370 0.16209
 C514 C 0.14517 0.72589 0.12239
 C515 C 0.12772 0.69118 0.11151
 C516 C 0.11639 0.66406 0.14067
 C517 C 0.12386 0.67156 0.18005
 C518 C 0.09810 0.62975 0.12996
 C519 C 0.09219 0.62175 0.09038
 C520 C 0.10381 0.64857 0.06157
 C521 C 0.12112 0.68316 0.07199
 H522 H 0.15266 0.74705 0.10010
 H523 H 0.11593 0.65094 0.20274
 H524 H 0.08947 0.60889 0.15222
 H525 H 0.12948 0.70351 0.04918
 H526 H 0.14723 0.71063 0.22131
 H527 H 0.09882 0.64290 0.03096
 C528 C 0.28627 1.18976 0.86560
 C529 C 0.25696 1.16545 0.84953
 C530 C 0.26418 1.12658 0.84839
 C531 C 0.29983 1.11229 0.86363
 C532 C 0.32805 1.13704 0.88108
 C533 C 0.32112 1.17566 0.88169
 C534 C 0.36294 1.12287 0.89751
 C535 C 0.37078 1.08441 0.89569
 C536 C 0.34341 1.05995 0.87733
 C537 C 0.30785 1.07374 0.86181
 H538 H 0.24201 1.10738 0.83626
 H539 H 0.34281 1.19504 0.89434
 H540 H 0.38433 1.14188 0.91122
 H541 H 0.28675 1.05433 0.84834
 H542 H 0.28243 1.21994 0.86564
 H543 H 0.34915 1.03011 0.87572
 C544 C 0.24422 0.88720 1.14502
 C545 C 0.24568 0.84759 1.14704
 C546 C 0.27997 0.82980 1.13301
 C547 C 0.31304 0.85137 1.11884
 C548 C 0.31191 0.89123 1.11875
 C549 C 0.27706 0.90880 1.13127
 C550 C 0.34557 0.91281 1.10598
 C551 C 0.37975 0.89493 1.09208
 C552 C 0.38035 0.85539 1.09152
 C553 C 0.34749 0.83377 1.10524
 H554 H 0.28156 0.79936 1.13458
 H555 H 0.27536 0.93925 1.13087
 H556 H 0.34475 0.94332 1.10569
 H557 H 0.34892 0.80332 1.10491
 H558 H 0.21783 0.90156 1.15507
 H559 H 0.40646 0.84118 1.08055
 C560 C 0.70269 1.14627 1.19663
 C561 C 0.73117 1.16378 1.17111
 C562 C 0.72425 1.16351 1.13057
 C563 C 0.69031 1.14450 1.11571
 C564 C 0.66308 1.12541 1.14168
 C565 C 0.66921 1.12705 1.18209
 C566 C 0.63017 1.10498 1.12685
 C567 C 0.62340 1.10437 1.08642
 C568 C 0.64994 1.12417 1.06084
 C569 C 0.68338 1.14372 1.07531
 H570 H 0.74593 1.17682 1.11058
 H571 H 0.64834 1.11314 1.20245
 H572 H 0.60940 1.09023 1.14672
 H573 H 0.70374 1.15827 1.05493
 H574 H 0.70680 1.14680 1.22805
 H575 H 0.64506 1.12412 1.02952
 C576 C 0.70237 0.80511 0.85390
 C577 C 0.73304 0.82883 0.83807
 C578 C 0.73004 0.86805 0.84137
 C579 C 0.69699 0.88340 0.86015
 C580 C 0.66699 0.85923 0.87702
 C581 C 0.66983 0.82017 0.87360
 C582 C 0.63441 0.87458 0.89662
 C583 C 0.63076 0.91370 0.89814
 C584 C 0.66007 0.93760 0.88068
 C585 C 0.69338 0.92254 0.86225
 H586 H 0.75370 0.88670 0.82987
 H587 H 0.64680 0.80132 0.88591
 H588 H 0.61132 0.85620 0.90967
 H589 H 0.71601 0.94144 0.84930
 H590 H 0.70351 0.77483 0.85108
 H591 H 0.65740 0.96788 0.88174
   
