data_POSCAR
  _audit_creation_date              2014-09-24
  _audit_creation_method            'ToBaCCo'
  _symmetry_space_group_name_H-M    'P1'
  _symmetry_Int_Tables_number       1
  _symmetry_cell_setting            triclinic
  loop_
  _symmetry_equiv_pos_as_xyz
 x,y,z
_cell_length_a 56.7316
_cell_length_b 57.1908
_cell_length_c 57.1732
_cell_angle_alpha 89.902500
_cell_angle_beta 90.087300
_cell_angle_gamma 89.705900
loop_
  _atom_site_label
  _atom_site_type_symbol
  _atom_site_fract_x
  _atom_site_fract_y
  _atom_site_fract_z
N1 N 0.29072 0.24228 0.22626
 N2 N 0.28156 0.26143 0.21728
 C3 C 0.29364 0.26721 0.19787
 C4 C 0.31140 0.25081 0.19447
 C5 C 0.30896 0.23526 0.21293
 H6 H 0.28972 0.28221 0.18701
 H7 H 0.31936 0.21972 0.21625
 Cu8 Cu 0.25435 0.27675 0.23137
 Cu9 Cu 0.27796 0.22755 0.25417
 Cu10 Cu 0.22844 0.25309 0.27886
 N11 N 0.22599 0.29022 0.24506
 N12 N 0.21598 0.28098 0.26357
 C13 C 0.19659 0.29347 0.26901
 C14 C 0.19419 0.31156 0.25299
 C15 C 0.21323 0.30889 0.23805
 H16 H 0.18489 0.28936 0.28332
 H17 H 0.21748 0.31967 0.22312
 N18 N 0.24365 0.22483 0.29179
 N19 N 0.26256 0.21518 0.28241
 C20 C 0.26858 0.19611 0.29494
 C21 C 0.25269 0.19353 0.31312
 C22 C 0.23713 0.21211 0.31054
 H23 H 0.28322 0.18469 0.29084
 H24 H 0.22215 0.21611 0.32150
 H25 H 0.24376 0.23941 0.24903
 H26 H 0.26301 0.25733 0.26850
 N27 N 0.70781 -0.24094 0.22560
 N28 N 0.71677 -0.26012 0.21659
 C29 C 0.70452 -0.26576 0.19724
 C30 C 0.68679 -0.24920 0.19381
 C31 C 0.68955 -0.23373 0.21234
 H32 H 0.70847 -0.28070 0.18639
 H33 H 0.67927 -0.21820 0.21594
 Cu34 Cu 0.74401 -0.27568 0.23051
 Cu35 Cu 0.72080 -0.22642 0.25351
 Cu36 Cu 0.77034 -0.25240 0.27789
 N37 N 0.77249 -0.28931 0.24400
 N38 N 0.78264 -0.28018 0.26248
 C39 C 0.80208 -0.29267 0.26780
 C40 C 0.80446 -0.31073 0.25171
 C41 C 0.78520 -0.30793 0.23688
 H42 H 0.81367 -0.28858 0.28220
 H43 H 0.78079 -0.31842 0.22182
 N44 N 0.75536 -0.22420 0.29102
 N45 N 0.73648 -0.21432 0.28174
 C46 C 0.73076 -0.19524 0.29435
 C47 C 0.74683 -0.19293 0.31246
 C48 C 0.76215 -0.21167 0.30976
 H49 H 0.71622 -0.18364 0.29034
 H50 H 0.77720 -0.21588 0.32060
 H51 H 0.75480 -0.23842 0.24812
 H52 H 0.73560 -0.25634 0.26765
 N53 N 0.70936 0.24490 0.77402
 N54 N 0.71892 0.26371 0.78307
 C55 C 0.70679 0.26989 0.80234
 C56 C 0.68864 0.25406 0.80562
 C57 C 0.69089 0.23845 0.78723
 H58 H 0.71113 0.28454 0.81341
 H59 H 0.67996 0.22345 0.78367
 Cu60 Cu 0.74667 0.27784 0.76904
 Cu61 Cu 0.72189 0.22978 0.74614
 Cu62 Cu 0.77099 0.25512 0.72057
 N63 N 0.77408 0.29208 0.75444
 N64 N 0.78341 0.28310 0.73545
 C65 C 0.80226 0.29582 0.72919
 C66 C 0.80511 0.31388 0.74517
 C67 C 0.78672 0.31086 0.76094
 H68 H 0.81316 0.29186 0.71423
 H69 H 0.78289 0.32132 0.77619
 N70 N 0.75585 0.22677 0.70815
 N71 N 0.73718 0.21713 0.71787
 C72 C 0.73142 0.19781 0.70575
 C73 C 0.74723 0.19506 0.68750
 C74 C 0.76245 0.21381 0.68961
 H75 H 0.71708 0.18629 0.71022
 H76 H 0.77733 0.21770 0.67853
 H77 H 0.75629 0.24071 0.75032
 H78 H 0.73668 0.25949 0.73188
 N79 N 0.29632 -0.25192 0.76790
 N80 N 0.28637 -0.27041 0.77717
 C81 C 0.29696 -0.27538 0.79768
 C82 C 0.31464 -0.25914 0.80148
 C83 C 0.31368 -0.24453 0.78209
 H84 H 0.29195 -0.28967 0.80900
 H85 H 0.32475 -0.22966 0.77841
 Cu86 Cu 0.26068 -0.28638 0.76147
 Cu87 Cu 0.28617 -0.23914 0.73796
 Cu88 Cu 0.23068 -0.25698 0.71989
 N89 N 0.22980 -0.29644 0.75107
 N90 N 0.21797 -0.28470 0.73512
 C91 C 0.19713 -0.29521 0.73146
 C92 C 0.19567 -0.31471 0.74597
 C93 C 0.21689 -0.31480 0.75818
 H94 H 0.18415 -0.28899 0.71906
 H95 H 0.22264 -0.32710 0.77140
 N96 N 0.24690 -0.22959 0.70654
 N97 N 0.26819 -0.22316 0.71313
 C98 C 0.27452 -0.20408 0.70090
 C99 C 0.25637 -0.19816 0.68572
 C100 C 0.23915 -0.21480 0.68982
 H101 H 0.29111 -0.19515 0.70305
 H102 H 0.22212 -0.21593 0.68144
 H103 H 0.25234 -0.24709 0.74743
 H104 H 0.26528 -0.26572 0.72397
 N105 N 0.70542 -0.24501 0.77352
 N106 N 0.71454 -0.26427 0.78233
 C107 C 0.70230 -0.27031 0.80155
 C108 C 0.68452 -0.25397 0.80503
 C109 C 0.68709 -0.23817 0.78680
 H110 H 0.70643 -0.28519 0.81250
 H111 H 0.67657 -0.22272 0.78348
 Cu112 Cu 0.74209 -0.27929 0.76862
 Cu113 Cu 0.71844 -0.22980 0.74604
 Cu114 Cu 0.76893 -0.25419 0.72239
 N115 N 0.77133 -0.29168 0.75572
 N116 N 0.78167 -0.28184 0.73773
 C117 C 0.80166 -0.29356 0.73282
 C118 C 0.80420 -0.31186 0.74867
 C119 C 0.78445 -0.31002 0.76294
 H120 H 0.81351 -0.28878 0.71886
 H121 H 0.77998 -0.32095 0.77769
 N122 N 0.75346 -0.22624 0.70924
 N123 N 0.73420 -0.21694 0.71824
 C124 C 0.72830 -0.19776 0.70580
 C125 C 0.74465 -0.19479 0.68808
 C126 C 0.76032 -0.21324 0.69084
 H127 H 0.71347 -0.18651 0.70971
 H128 H 0.77569 -0.21691 0.68031
 H129 H 0.73409 -0.25914 0.73173
 H130 H 0.75251 -0.24137 0.75216
 N131 N 0.29159 0.24438 0.77381
 N132 N 0.28157 0.26286 0.78319
 C133 C 0.29374 0.26903 0.80244
 C134 C 0.31242 0.25355 0.80532
 C135 C 0.31044 0.23815 0.78674
 H136 H 0.28903 0.28339 0.81380
 H137 H 0.32173 0.22338 0.78292
 Cu138 Cu 0.25314 0.27646 0.76969
 Cu139 Cu 0.27905 0.22922 0.74600
 Cu140 Cu 0.22855 0.25350 0.72148
 N141 N 0.22500 0.29015 0.75569
 N142 N 0.21552 0.28108 0.73681
 C143 C 0.19618 0.29349 0.73098
 C144 C 0.19326 0.31136 0.74709
 C145 C 0.21196 0.30865 0.76252
 H146 H 0.18486 0.28948 0.71633
 H147 H 0.21578 0.31932 0.77762
 N148 N 0.24443 0.22561 0.70859
 N149 N 0.26367 0.21645 0.71790
 C150 C 0.26995 0.19741 0.70553
 C151 C 0.25388 0.19434 0.68754
 C152 C 0.23795 0.21260 0.69006
 H153 H 0.28482 0.18628 0.70966
 H154 H 0.22270 0.21613 0.67926
 H155 H 0.26286 0.25865 0.73222
 H156 H 0.24431 0.23928 0.75087
 N157 N 0.28747 -0.24233 0.22552
 N158 N 0.28016 -0.26290 0.21846
 C159 C 0.29339 -0.26985 0.20020
 C160 C 0.30993 -0.25269 0.19551
 C161 C 0.30559 -0.23549 0.21203
 H162 H 0.29093 -0.28606 0.19087
 H163 H 0.31451 -0.21894 0.21384
 Cu164 Cu 0.25331 -0.27812 0.23299
 Cu165 Cu 0.27219 -0.22545 0.25084
 Cu166 Cu 0.22758 -0.25408 0.28042
 N167 N 0.22522 -0.29147 0.24700
 N168 N 0.21548 -0.28227 0.26570
 C169 C 0.19617 -0.29462 0.27133
 C170 C 0.19357 -0.31256 0.25526
 C171 C 0.21241 -0.30996 0.24008
 H172 H 0.18452 -0.29035 0.28565
 H173 H 0.21640 -0.32056 0.22496
 N174 N 0.24212 -0.22510 0.29196
 N175 N 0.25882 -0.21401 0.28045
 C176 C 0.26470 -0.19461 0.29235
 C177 C 0.25094 -0.19326 0.31230
 C178 C 0.23682 -0.21295 0.31143
 H179 H 0.27784 -0.18223 0.28669
 H180 H 0.22359 -0.21804 0.32399
 H181 H 0.26195 -0.25556 0.26786
 H182 H 0.23893 -0.24127 0.24908
 N183 N 0.70764 0.24513 0.22869
 N184 N 0.71726 0.26378 0.21934
 C185 C 0.70498 0.26990 0.20009
 C186 C 0.68663 0.25425 0.19718
 C187 C 0.68892 0.23877 0.21574
 H188 H 0.70942 0.28433 0.18874
 H189 H 0.67791 0.22388 0.21951
 Cu190 Cu 0.74536 0.27759 0.23294
 Cu191 Cu 0.72060 0.22992 0.25644
 Cu192 Cu 0.77079 0.25458 0.28075
 N193 N 0.77343 0.29142 0.24657
 N194 N 0.78324 0.28232 0.26534
 C195 C 0.80256 0.29469 0.27089
 C196 C 0.80511 0.31256 0.25469
 C197 C 0.78623 0.30990 0.23952
 H198 H 0.81396 0.29079 0.28556
 H199 H 0.78237 0.32029 0.22418
 N200 N 0.75551 0.22650 0.29369
 N201 N 0.73641 0.21716 0.28448
 C202 C 0.73068 0.19795 0.29683
 C203 C 0.74696 0.19495 0.31468
 C204 C 0.76243 0.21345 0.31211
 H205 H 0.71603 0.18667 0.29276
 H206 H 0.77770 0.21708 0.32278
 H207 H 0.73621 0.25931 0.27036
 H208 H 0.75504 0.24036 0.25147
 C209 C 0.24971 0.02088 0.45183
 C210 C 0.24999 -0.00041 0.43985
 C211 C 0.24979 -0.02178 0.45175
 C212 C 0.24958 -0.02205 0.47650
 C213 C 0.24932 -0.00060 0.48895
 C214 C 0.24946 0.02095 0.47659
 C215 C 0.25018 0.04194 0.48931
 C216 C 0.25037 0.04184 0.51364
 C217 C 0.24984 0.02074 0.52627
 C218 C 0.24952 -0.00071 0.51383
 C219 C 0.25046 -0.04316 0.48912
 C220 C 0.25068 -0.04326 0.51346
 C221 C 0.25001 -0.02226 0.52619
 C222 C 0.25065 -0.02218 0.55094
 C223 C 0.25100 -0.00089 0.56292
 C224 C 0.25045 0.02048 0.55102
 H225 H 0.25100 0.05872 0.48059
 H226 H 0.25133 0.05855 0.52242
 H227 H 0.25138 -0.05986 0.48032
 H228 H 0.25178 -0.06003 0.52216
 H229 H 0.25014 -0.00033 0.42087
 H230 H 0.25146 -0.00096 0.58189
 C231 C 0.75757 0.02136 0.55082
 C232 C 0.75753 0.00004 0.56284
 C233 C 0.75729 -0.02131 0.55097
 C234 C 0.75755 -0.02153 0.52621
 C235 C 0.75763 -0.00007 0.51373
 C236 C 0.75779 0.02146 0.52605
 C237 C 0.75884 0.04246 0.51331
 C238 C 0.75899 0.04240 0.48898
 C239 C 0.75813 0.02133 0.47638
 C240 C 0.75782 -0.00013 0.48886
 C241 C 0.75841 -0.04262 0.51363
 C242 C 0.75862 -0.04268 0.48929
 C243 C 0.75798 -0.02166 0.47653
 C244 C 0.75816 -0.02155 0.45177
 C245 C 0.75847 -0.00024 0.43975
 C246 C 0.75821 0.02112 0.45163
 H247 H 0.75987 0.05921 0.52202
 H248 H 0.76012 0.05911 0.48016
 H249 H 0.75924 -0.05934 0.52246
 H250 H 0.75961 -0.05944 0.48060
 H251 H 0.75710 0.00008 0.58181
 H252 H 0.75830 -0.00026 0.42077
 C253 C 0.55049 0.24746 -0.02078
 C254 C 0.56253 0.24737 0.00057
 C255 C 0.55052 0.24614 0.02187
 C256 C 0.52562 0.24476 0.02197
 C257 C 0.51310 0.24523 0.00047
 C258 C 0.52556 0.24655 -0.02099
 C259 C 0.51275 0.24718 -0.04206
 C260 C 0.48826 0.24612 -0.04209
 C261 C 0.47553 0.24491 -0.02105
 C262 C 0.48806 0.24435 0.00045
 C263 C 0.51295 0.24244 0.04296
 C264 C 0.48845 0.24147 0.04292
 C265 C 0.47562 0.24282 0.02191
 C266 C 0.45067 0.24212 0.02173
 C267 C 0.43862 0.24230 0.00038
 C268 C 0.45061 0.24388 -0.02091
 H269 H 0.52153 0.24853 -0.05878
 H270 H 0.47943 0.24618 -0.05887
 H271 H 0.52184 0.24111 0.05965
 H272 H 0.47970 0.23938 0.05958
 H273 H 0.58163 0.24833 0.00062
 H274 H 0.41950 0.24191 0.00035
 C275 C 0.44782 0.75299 -0.02083
 C276 C 0.43575 0.75321 0.00047
 C277 C 0.44773 0.75468 0.02181
 C278 C 0.47263 0.75616 0.02201
 C279 C 0.48518 0.75558 0.00057
 C280 C 0.47275 0.75403 -0.02094
 C281 C 0.48559 0.75330 -0.04193
 C282 C 0.51008 0.75447 -0.04188
 C283 C 0.52277 0.75590 -0.02080
 C284 C 0.51021 0.75657 0.00064
 C285 C 0.48526 0.75868 0.04302
 C286 C 0.50976 0.75973 0.04308
 C287 C 0.52263 0.75829 0.02214
 C288 C 0.54757 0.75907 0.02206
 C289 C 0.55965 0.75879 0.00075
 C290 C 0.54769 0.75702 -0.02057
 H291 H 0.47685 0.75177 -0.05868
 H292 H 0.51893 0.75432 -0.05862
 H293 H 0.47634 0.76009 0.05967
 H294 H 0.51848 0.76195 0.05976
 H295 H 0.41666 0.75217 0.00044
 H296 H 0.57876 0.75925 0.00079
 C297 C 0.01979 0.55031 0.24024
 C298 C -0.00182 0.56217 0.23975
 C299 C -0.02322 0.55014 0.23964
 C300 C -0.02314 0.52538 0.23962
 C301 C -0.00135 0.51307 0.23998
 C302 C 0.02019 0.52556 0.24010
 C303 C 0.04155 0.51299 0.23943
 C304 C 0.04179 0.48866 0.23938
 C305 C 0.02069 0.47590 0.24002
 C306 C -0.00110 0.48821 0.23998
 C307 C -0.04423 0.51262 0.23860
 C308 C -0.04399 0.48830 0.23866
 C309 C -0.02265 0.47572 0.23970
 C310 C -0.02225 0.45097 0.23984
 C311 C -0.00064 0.43912 0.23976
 C312 C 0.02076 0.45115 0.24004
 H313 H 0.05833 0.52184 0.23862
 H314 H 0.05875 0.47998 0.23855
 H315 H -0.06117 0.52131 0.23746
 H316 H -0.06076 0.47946 0.23754
 H317 H -0.00200 0.58114 0.24009
 H318 H -0.00046 0.42015 0.24012
 C319 C -0.02153 0.55115 0.75775
 C320 C 0.00016 0.56260 0.75879
 C321 C 0.02146 0.55019 0.75867
 C322 C 0.02119 0.52545 0.75791
 C323 C -0.00069 0.51356 0.75678
 C324 C -0.02213 0.52645 0.75653
 C325 C -0.04353 0.51434 0.75437
 C326 C -0.04394 0.49006 0.75302
 C327 C -0.02297 0.47689 0.75379
 C328 C -0.00111 0.48874 0.75550
 C329 C 0.04218 0.51229 0.75830
 C330 C 0.04178 0.48802 0.75687
 C331 C 0.02034 0.47587 0.75549
 C332 C 0.01977 0.45122 0.75357
 C333 C -0.00189 0.43982 0.75180
 C334 C -0.02320 0.45219 0.75216
 H335 H -0.06021 0.52352 0.75339
 H336 H -0.06091 0.48177 0.75103
 H337 H 0.05920 0.52063 0.75968
 H338 H 0.05853 0.47890 0.75669
 H339 H 0.00047 0.58156 0.75929
 H340 H -0.00218 0.42090 0.75046
 C341 C 0.36135 0.24735 0.13794
 C342 C 0.36398 0.23271 0.15740
 C343 C 0.34784 0.23390 0.17584
 C344 C 0.32878 0.24977 0.17506
 C345 C 0.32641 0.26450 0.15542
 C346 C 0.34257 0.26327 0.13702
 C347 C 0.37771 0.24590 0.11878
 C348 C 0.39118 0.24478 0.10252
 C349 C 0.40695 0.24360 0.08285
 C350 C 0.40620 0.22440 0.06769
 C351 C 0.42081 0.22369 0.04803
 C352 C 0.43640 0.24212 0.04342
 C353 C 0.43713 0.26130 0.05872
 C354 C 0.42252 0.26199 0.07838
 H355 H 0.37847 0.22033 0.15831
 H356 H 0.35042 0.22241 0.19067
 H357 H 0.31197 0.27684 0.15404
 H358 H 0.34034 0.27466 0.12201
 H359 H 0.39413 0.21014 0.07091
 H360 H 0.41985 0.20889 0.03627
 H361 H 0.44877 0.27584 0.05521
 H362 H 0.42313 0.27699 0.08991
 C363 C 0.63710 0.75437 0.13842
 C364 C 0.65345 0.73604 0.13939
 C365 C 0.66978 0.73475 0.15770
 C366 C 0.67009 0.75188 0.17547
 C367 C 0.65331 0.77020 0.17428
 C368 C 0.63703 0.77140 0.15592
 C369 C 0.62065 0.75582 0.11927
 C370 C 0.60712 0.75689 0.10301
 C371 C 0.59130 0.75799 0.08332
 C372 C 0.57573 0.73956 0.07899
 C373 C 0.56111 0.74013 0.05928
 C374 C 0.56183 0.75921 0.04380
 C375 C 0.57741 0.77768 0.04828
 C376 C 0.59203 0.77709 0.06798
 H377 H 0.65367 0.72275 0.12591
 H378 H 0.68210 0.72029 0.15765
 H379 H 0.65263 0.78379 0.18737
 H380 H 0.62443 0.78569 0.15534
 H381 H 0.57515 0.72462 0.09064
 H382 H 0.54949 0.72555 0.05587
 H383 H 0.57837 0.79240 0.03638
 H384 H 0.60410 0.79137 0.07109
 C385 C 0.63868 0.25220 -0.13785
 C386 C 0.64069 0.23319 -0.15308
 C387 C 0.65678 0.23384 -0.17157
 C388 C 0.67116 0.25354 -0.17507
 C389 C 0.66882 0.27265 -0.15973
 C390 C 0.65270 0.27195 -0.14127
 C391 C 0.62255 0.25133 -0.11846
 C392 C 0.60930 0.25071 -0.10200
 C393 C 0.59383 0.25013 -0.08208
 C394 C 0.58000 0.23039 -0.07769
 C395 C 0.56556 0.22961 -0.05789
 C396 C 0.56475 0.24864 -0.04242
 C397 C 0.57863 0.26838 -0.04692
 C398 C 0.59305 0.26915 -0.06670
 H399 H 0.62994 0.21779 -0.15057
 H400 H 0.65810 0.21875 -0.18287
 H401 H 0.67934 0.28821 -0.16193
 H402 H 0.65126 0.28680 -0.12959
 H403 H 0.58057 0.21553 -0.08940
 H404 H 0.55520 0.21412 -0.05447
 H405 H 0.57837 0.28311 -0.03504
 H406 H 0.60376 0.28446 -0.06988
 C407 C 0.36167 0.74526 -0.13954
 C408 C 0.34746 0.72557 -0.14251
 C409 C 0.33220 0.72410 -0.16168
 C410 C 0.33093 0.74235 -0.17820
 C411 C 0.34538 0.76206 -0.17506
 C412 C 0.36061 0.76348 -0.15586
 C413 C 0.37716 0.74680 -0.11964
 C414 C 0.38997 0.74793 -0.10284
 C415 C 0.40502 0.74907 -0.08257
 C416 C 0.40580 0.73030 -0.06682
 C417 C 0.41997 0.73151 -0.04685
 C418 C 0.43362 0.75145 -0.04252
 C419 C 0.43276 0.77026 -0.05833
 C420 C 0.41857 0.76903 -0.07832
 H421 H 0.34816 0.71134 -0.12999
 H422 H 0.32157 0.70858 -0.16353
 H423 H 0.34486 0.77652 -0.18726
 H424 H 0.37151 0.77884 -0.15372
 H425 H 0.39533 0.71481 -0.06989
 H426 H 0.42029 0.71694 -0.03472
 H427 H 0.44295 0.78588 -0.05507
 H428 H 0.41802 0.78369 -0.09034
 C429 C 0.13817 0.36246 0.24888
 C430 C 0.15421 0.36018 0.23046
 C431 C 0.17254 0.34379 0.23185
 C432 C 0.17506 0.32937 0.25171
 C433 C 0.15891 0.33197 0.27021
 C434 C 0.14061 0.34839 0.26878
 C435 C 0.11888 0.37882 0.24715
 C436 C 0.10249 0.39224 0.24565
 C437 C 0.08261 0.40788 0.24382
 C438 C 0.07740 0.42341 0.26204
 C439 C 0.05749 0.43788 0.26064
 C440 C 0.04272 0.43703 0.24092
 C441 C 0.04807 0.42149 0.22269
 C442 C 0.06797 0.40703 0.22411
 H443 H 0.15244 0.37093 0.21493
 H444 H 0.18446 0.34226 0.21719
 H445 H 0.16032 0.32140 0.28585
 H446 H 0.12828 0.35000 0.28315
 H447 H 0.08852 0.42408 0.27744
 H448 H 0.05339 0.44949 0.27503
 H449 H 0.03672 0.42044 0.20748
 H450 H 0.07176 0.39500 0.20997
 C451 C 0.13922 0.63731 0.75158
 C452 C 0.15940 0.63439 0.76535
 C453 C 0.17807 0.65018 0.76353
 C454 C 0.17688 0.66927 0.74785
 C455 C 0.15635 0.67190 0.73407
 C456 C 0.13775 0.65607 0.73595
 C457 C 0.11990 0.62121 0.75352
 C458 C 0.10348 0.60798 0.75495
 C459 C 0.08358 0.59254 0.75643
 C460 C 0.06885 0.59318 0.77606
 C461 C 0.04888 0.57899 0.77702
 C462 C 0.04354 0.56392 0.75841
 C463 C 0.05840 0.56329 0.73880
 C464 C 0.07837 0.57748 0.73786
 H465 H 0.16071 0.61991 0.77753
 H466 H 0.19331 0.64723 0.77452
 H467 H 0.15437 0.68612 0.72175
 H468 H 0.12219 0.65851 0.72520
 H469 H 0.07262 0.60488 0.79046
 H470 H 0.03743 0.57990 0.79214
 H471 H 0.05429 0.55208 0.72410
 H472 H 0.08954 0.57697 0.72251
 C473 C -0.14052 0.63900 0.24745
 C474 C -0.14053 0.65563 0.26532
 C475 C -0.15874 0.67210 0.26686
 C476 C -0.17738 0.67231 0.25045
 C477 C -0.17720 0.65521 0.23264
 C478 C -0.15892 0.63877 0.23118
 C479 C -0.12135 0.62252 0.24560
 C480 C -0.10501 0.60903 0.24414
 C481 C -0.08517 0.59334 0.24250
 C482 C -0.07023 0.59435 0.22305
 C483 C -0.05030 0.57992 0.22192
 C484 C -0.04520 0.56424 0.24017
 C485 C -0.06029 0.56320 0.25960
 C486 C -0.08023 0.57764 0.26071
 H487 H -0.12634 0.65598 0.27802
 H488 H -0.15790 0.68466 0.28093
 H489 H -0.19100 0.65442 0.21962
 H490 H -0.15909 0.62595 0.21724
 H491 H -0.07381 0.60652 0.20892
 H492 H -0.03872 0.58110 0.20692
 H493 H -0.05641 0.55147 0.27401
 H494 H -0.09158 0.57682 0.27591
 C495 C -0.14061 0.36454 0.74690
 C496 C -0.15813 0.36459 0.76406
 C497 C -0.17619 0.34804 0.76343
 C498 C -0.17702 0.33101 0.74557
 C499 C -0.15931 0.33143 0.72824
 C500 C -0.14132 0.34801 0.72896
 C501 C -0.12157 0.38105 0.74790
 C502 C -0.10526 0.39448 0.74855
 C503 C -0.08536 0.40997 0.74910
 C504 C -0.08102 0.42381 0.76882
 C505 C -0.06100 0.43799 0.76968
 C506 C -0.04525 0.43851 0.75075
 C507 C -0.04977 0.42469 0.73100
 C508 C -0.06976 0.41055 0.73015
 H509 H -0.15775 0.37734 0.77806
 H510 H -0.18927 0.34867 0.77713
 H511 H -0.15903 0.31896 0.71407
 H512 H -0.12783 0.34782 0.71556
 H513 H -0.09288 0.42338 0.78364
 H514 H -0.05757 0.44827 0.78520
 H515 H -0.03768 0.42472 0.71635
 H516 H -0.07288 0.39982 0.71487
 C517 C 0.25090 0.13798 0.36394
 C518 C 0.23156 0.15307 0.36148
 C519 C 0.23219 0.17129 0.34514
 C520 C 0.25218 0.17462 0.33096
 C521 C 0.27160 0.15945 0.33377
 C522 C 0.27093 0.14128 0.35012
 C523 C 0.25014 0.11878 0.38023
 C524 C 0.24987 0.10238 0.39350
 C525 C 0.25000 0.08242 0.40887
 C526 C 0.23060 0.07777 0.42326
 C527 C 0.23059 0.05790 0.43758
 C528 C 0.25004 0.04260 0.43769
 C529 C 0.26942 0.04738 0.42326
 C530 C 0.26943 0.06722 0.40898
 H531 H 0.21593 0.15063 0.37205
 H532 H 0.21685 0.18247 0.34342
 H533 H 0.28739 0.16154 0.32342
 H534 H 0.28602 0.12971 0.35189
 H535 H 0.21543 0.08935 0.42321
 H536 H 0.21536 0.05429 0.44838
 H537 H 0.28448 0.03566 0.42300
 H538 H 0.28447 0.07060 0.39784
 C539 C 0.75031 0.13867 0.63783
 C540 C 0.73038 0.14165 0.65189
 C541 C 0.72928 0.16008 0.66790
 C542 C 0.74815 0.17582 0.67009
 C543 C 0.76803 0.17277 0.65566
 C544 C 0.76908 0.15432 0.63968
 C545 C 0.75170 0.11925 0.62191
 C546 C 0.75292 0.10277 0.60884
 C547 C 0.75443 0.08283 0.59358
 C548 C 0.73604 0.07791 0.57801
 C549 C 0.73720 0.05808 0.56378
 C550 C 0.75685 0.04307 0.56490
 C551 C 0.77523 0.04810 0.58054
 C552 C 0.77406 0.06793 0.59476
 H553 H 0.71572 0.12965 0.65059
 H554 H 0.71359 0.16192 0.67847
 H555 H 0.78297 0.18437 0.65687
 H556 H 0.78463 0.15214 0.62890
 H557 H 0.72071 0.08926 0.57706
 H558 H 0.72269 0.05425 0.55208
 H559 H 0.79041 0.03658 0.58179
 H560 H 0.78833 0.07151 0.60682
 C561 C 0.25362 -0.14022 0.63761
 C562 C 0.23645 -0.15766 0.63663
 C563 C 0.23734 -0.17653 0.65221
 C564 C 0.25545 -0.17822 0.66903
 C565 C 0.27265 -0.16058 0.66977
 C566 C 0.27172 -0.14174 0.65419
 C567 C 0.25266 -0.12063 0.62180
 C568 C 0.25214 -0.10400 0.60882
 C569 C 0.25190 -0.08387 0.59369
 C570 C 0.23229 -0.07909 0.57950
 C571 C 0.23194 -0.05914 0.56530
 C572 C 0.25128 -0.04391 0.56508
 C573 C 0.27086 -0.04878 0.57934
 C574 C 0.27119 -0.06870 0.59352
 H575 H 0.22238 -0.15667 0.62383
 H576 H 0.22389 -0.18979 0.65092
 H577 H 0.28677 -0.16109 0.68248
 H578 H 0.28509 -0.12831 0.65512
 H579 H 0.21722 -0.09065 0.57959
 H580 H 0.21657 -0.05545 0.55464
 H581 H 0.28583 -0.03710 0.57953
 H582 H 0.28640 -0.07218 0.60450
 C583 C 0.75026 -0.13768 0.36335
 C584 C 0.76914 -0.15330 0.36088
 C585 C 0.76796 -0.17140 0.34451
 C586 C 0.74786 -0.17410 0.33030
 C587 C 0.72888 -0.15839 0.33311
 C588 C 0.73010 -0.14032 0.34950
 C589 C 0.75179 -0.11860 0.37965
 C590 C 0.75315 -0.10237 0.39302
 C591 C 0.75482 -0.08270 0.40859
 C592 C 0.77464 -0.06823 0.40781
 C593 C 0.77591 -0.04855 0.42221
 C594 C 0.75743 -0.04324 0.43765
 C595 C 0.73762 -0.05786 0.43845
 C596 C 0.73637 -0.07755 0.42402
 H597 H 0.78487 -0.15137 0.37146
 H598 H 0.78298 -0.18298 0.34282
 H599 H 0.71304 -0.15998 0.32271
 H600 H 0.71538 -0.12832 0.35126
 H601 H 0.78897 -0.07199 0.39586
 H602 H 0.79122 -0.03734 0.42123
 H603 H 0.72306 -0.05382 0.45000
 H604 H 0.72090 -0.08856 0.42468
 C605 C 0.63518 0.74905 -0.13797
 C606 C 0.64874 0.72889 -0.14157
 C607 C 0.66463 0.72781 -0.16021
 C608 C 0.66721 0.74693 -0.17553
 C609 C 0.65329 0.76705 -0.17184
 C610 C 0.63742 0.76808 -0.15318
 C611 C 0.61934 0.75038 -0.11838
 C612 C 0.60631 0.75157 -0.10180
 C613 C 0.59103 0.75311 -0.08179
 C614 C 0.57708 0.73401 -0.07537
 C615 C 0.56269 0.73536 -0.05558
 C616 C 0.56204 0.75588 -0.04214
 C617 C 0.57609 0.77494 -0.04862
 C618 C 0.59047 0.77358 -0.06840
 H619 H 0.64713 0.71404 -0.12990
 H620 H 0.67482 0.71195 -0.16255
 H621 H 0.65481 0.78217 -0.18310
 H622 H 0.62704 0.78381 -0.15051
 H623 H 0.57749 0.71804 -0.08553
 H624 H 0.55220 0.72038 -0.05060
 H625 H 0.57595 0.79081 -0.03829
 H626 H 0.60128 0.78840 -0.07315
 C627 C 0.36255 0.25140 -0.13817
 C628 C 0.36102 0.23268 -0.15379
 C629 C 0.34491 0.23346 -0.17230
 C630 C 0.33003 0.25301 -0.17543
 C631 C 0.33191 0.27186 -0.15973
 C632 C 0.34805 0.27103 -0.14124
 C633 C 0.37858 0.25022 -0.11868
 C634 C 0.39176 0.24909 -0.10217
 C635 C 0.40718 0.24757 -0.08222
 C636 C 0.40765 0.22720 -0.06860
 C637 C 0.42208 0.22589 -0.04881
 C638 C 0.43628 0.24491 -0.04255
 C639 C 0.43575 0.26532 -0.05624
 C640 C 0.42131 0.26661 -0.07604
 H641 H 0.37213 0.21737 -0.15154
 H642 H 0.34394 0.21857 -0.18387
 H643 H 0.32098 0.28729 -0.16165
 H644 H 0.34911 0.28563 -0.12924
 H645 H 0.39670 0.21241 -0.07317
 H646 H 0.42213 0.21012 -0.03830
 H647 H 0.44635 0.28026 -0.05143
 H648 H 0.42098 0.28249 -0.08639
 C649 C 0.36020 0.74915 0.13926
 C650 C 0.36120 0.76581 0.15711
 C651 C 0.34503 0.76509 0.17553
 C652 C 0.32758 0.74768 0.17634
 C653 C 0.32694 0.73086 0.15839
 C654 C 0.34312 0.73163 0.14000
 C655 C 0.37628 0.75033 0.11987
 C656 C 0.38944 0.75135 0.10337
 C657 C 0.40475 0.75257 0.08337
 C658 C 0.40269 0.77128 0.06766
 C659 C 0.41694 0.77211 0.04777
 C660 C 0.43349 0.75430 0.04349
 C661 C 0.43550 0.73557 0.05929
 C662 C 0.42123 0.73475 0.07919
 H663 H 0.37438 0.77945 0.15671
 H664 H 0.34628 0.77822 0.18906
 H665 H 0.31378 0.71726 0.15825
 H666 H 0.34216 0.71866 0.12624
 H667 H 0.38992 0.78510 0.07067
 H668 H 0.41504 0.78657 0.03564
 H669 H 0.44795 0.72152 0.05605
 H670 H 0.42286 0.72013 0.09116
 C671 C 0.63693 0.25200 0.14037
 C672 C 0.63903 0.23300 0.15567
 C673 C 0.65499 0.23380 0.17431
 C674 C 0.66911 0.25365 0.17788
 C675 C 0.66659 0.27280 0.16255
 C676 C 0.65061 0.27195 0.14394
 C677 C 0.62118 0.25083 0.12067
 C678 C 0.60827 0.24981 0.10395
 C679 C 0.59321 0.24856 0.08373
 C680 C 0.59529 0.22972 0.06825
 C681 C 0.58116 0.22880 0.04824
 C682 C 0.56472 0.24665 0.04361
 C683 C 0.56271 0.26552 0.05917
 C684 C 0.57686 0.26643 0.07919
 H685 H 0.62854 0.21744 0.15303
 H686 H 0.65647 0.21868 0.18561
 H687 H 0.67690 0.28848 0.16484
 H688 H 0.64908 0.28679 0.13222
 H689 H 0.60796 0.21585 0.07155
 H690 H 0.58305 0.21422 0.03630
 H691 H 0.55034 0.27959 0.05568
 H692 H 0.57520 0.28114 0.09100
 C693 C -0.13942 0.63944 0.75339
 C694 C -0.13949 0.65654 0.73592
 C695 C -0.15811 0.67253 0.73428
 C696 C -0.17713 0.67175 0.75016
 C697 C -0.17684 0.65425 0.76764
 C698 C -0.15814 0.63828 0.76921
 C699 C -0.11998 0.62327 0.75502
 C700 C -0.10335 0.61009 0.75590
 C701 C -0.08313 0.59482 0.75635
 C702 C -0.06703 0.59536 0.73783
 C703 C -0.04708 0.58097 0.73825
 C704 C -0.04310 0.56579 0.75717
 C705 C -0.05923 0.56531 0.77577
 C706 C -0.07922 0.57975 0.77533
 H707 H -0.12507 0.65758 0.72356
 H708 H -0.15732 0.68544 0.72049
 H709 H -0.19091 0.65274 0.78026
 H710 H -0.15825 0.62507 0.78281
 H711 H -0.06984 0.60702 0.72311
 H712 H -0.03471 0.58164 0.72386
 H713 H -0.05624 0.55387 0.79062
 H714 H -0.09151 0.57928 0.78981
 C715 C -0.13880 0.36267 0.25002
 C716 C -0.15906 0.36541 0.23630
 C717 C -0.17739 0.34925 0.23793
 C718 C -0.17570 0.33007 0.25334
 C719 C -0.15533 0.32767 0.26726
 C720 C -0.13704 0.34385 0.26559
 C721 C -0.11962 0.37887 0.24788
 C722 C -0.10331 0.39216 0.24611
 C723 C -0.08355 0.40767 0.24407
 C724 C -0.07854 0.42351 0.26203
 C725 C -0.05878 0.43793 0.26048
 C726 C -0.04396 0.43674 0.24086
 C727 C -0.04909 0.42086 0.22288
 C728 C -0.06884 0.40643 0.22445
 H729 H -0.16062 0.37996 0.22422
 H730 H -0.19283 0.35187 0.22711
 H731 H -0.15326 0.31315 0.27923
 H732 H -0.12141 0.34155 0.27628
 H733 H -0.08972 0.42448 0.27734
 H734 H -0.05485 0.44981 0.27467
 H735 H -0.03769 0.41955 0.20775
 H736 H -0.07248 0.39414 0.21052
 C737 C 0.13682 0.36181 0.74993
 C738 C 0.15224 0.35932 0.76889
 C739 C 0.17072 0.34306 0.76793
 C740 C 0.17398 0.32901 0.74798
 C741 C 0.15844 0.33183 0.72895
 C742 C 0.14001 0.34809 0.72995
 C743 C 0.11746 0.37812 0.75104
 C744 C 0.10101 0.39152 0.75170
 C745 C 0.08106 0.40715 0.75210
 C746 C 0.07558 0.41975 0.77239
 C747 C 0.05576 0.43440 0.77284
 C748 C 0.04136 0.43662 0.75295
 C749 C 0.04694 0.42396 0.73269
 C750 C 0.06673 0.40934 0.73225
 H751 H 0.14991 0.36983 0.78447
 H752 H 0.18218 0.34136 0.78298
 H753 H 0.16046 0.32156 0.71321
 H754 H 0.12818 0.34991 0.71515
 H755 H 0.08648 0.41810 0.78788
 H756 H 0.05150 0.44385 0.78870
 H757 H 0.03589 0.42535 0.71727
 H758 H 0.07075 0.39960 0.71650
 C759 C 0.13700 0.63781 0.25093
 C760 C 0.13969 0.65155 0.27097
 C761 C 0.15819 0.66754 0.27249
 C762 C 0.17428 0.67003 0.25393
 C763 C 0.17152 0.65593 0.23395
 C764 C 0.15300 0.63997 0.23248
 C765 C 0.11754 0.62190 0.24908
 C766 C 0.10105 0.60880 0.24739
 C767 C 0.08115 0.59347 0.24527
 C768 C 0.06670 0.59471 0.22542
 C769 C 0.04691 0.58036 0.22362
 C770 C 0.04148 0.56455 0.24160
 C771 C 0.05603 0.56336 0.26147
 C772 C 0.07583 0.57772 0.26325
 H773 H 0.12740 0.65000 0.28537
 H774 H 0.15981 0.67787 0.28822
 H775 H 0.18338 0.65737 0.21925
 H776 H 0.15104 0.62946 0.21686
 H777 H 0.07061 0.60690 0.21145
 H778 H 0.03575 0.58165 0.20828
 H779 H 0.05188 0.55151 0.27566
 H780 H 0.08682 0.57671 0.27874
 C781 C 0.74817 -0.13836 0.63837
 C782 C 0.76720 -0.15380 0.64090
 C783 C 0.76599 -0.17228 0.65687
 C784 C 0.74569 -0.17556 0.67062
 C785 C 0.72656 -0.16004 0.66775
 C786 C 0.72782 -0.14158 0.65175
 C787 C 0.74977 -0.11892 0.62247
 C788 C 0.75125 -0.10245 0.60938
 C789 C 0.75310 -0.08256 0.59407
 C790 C 0.77293 -0.06813 0.59525
 C791 C 0.77445 -0.04836 0.58093
 C792 C 0.75620 -0.04294 0.56519
 C793 C 0.73635 -0.05748 0.56405
 C794 C 0.73486 -0.07725 0.57838
 H795 H 0.78308 -0.15143 0.63067
 H796 H 0.78114 -0.18369 0.65863
 H797 H 0.71057 -0.16207 0.67780
 H798 H 0.71296 -0.12972 0.64991
 H799 H 0.78710 -0.07202 0.60740
 H800 H 0.78977 -0.03721 0.58218
 H801 H 0.72196 -0.05334 0.55226
 H802 H 0.71939 -0.08824 0.57742
 C803 C 0.25042 -0.13819 0.36344
 C804 C 0.26892 -0.13995 0.34740
 C805 C 0.26920 -0.15796 0.33092
 C806 C 0.25093 -0.17451 0.33023
 C807 C 0.23252 -0.17272 0.34664
 C808 C 0.23227 -0.15465 0.36311
 C809 C 0.24993 -0.11915 0.37985
 C810 C 0.24981 -0.10287 0.39320
 C811 C 0.25002 -0.08304 0.40865
 C812 C 0.26941 -0.06800 0.40868
 C813 C 0.26944 -0.04824 0.42300
 C814 C 0.25010 -0.04339 0.43753
 C815 C 0.23068 -0.05852 0.43747
 C816 C 0.23068 -0.07831 0.42312
 H817 H 0.28308 -0.12731 0.34753
 H818 H 0.28380 -0.15886 0.31880
 H819 H 0.21809 -0.18499 0.34660
 H820 H 0.21783 -0.15342 0.37543
 H821 H 0.28441 -0.07143 0.39746
 H822 H 0.28446 -0.03663 0.42270
 H823 H 0.21550 -0.05484 0.44835
 H824 H 0.21552 -0.08976 0.42311
 C825 C 0.75061 0.13844 0.36432
 C826 C 0.76967 0.15364 0.36178
 C827 C 0.76844 0.17214 0.34580
 C828 C 0.74810 0.17567 0.33208
 C829 C 0.72896 0.16035 0.33493
 C830 C 0.73024 0.14188 0.35093
 C831 C 0.75212 0.11900 0.38027
 C832 C 0.75339 0.10251 0.39337
 C833 C 0.75493 0.08255 0.40865
 C834 C 0.77467 0.06778 0.40769
 C835 C 0.77588 0.04794 0.42195
 C836 C 0.75742 0.04278 0.43741
 C837 C 0.73765 0.05763 0.43830
 C838 C 0.73645 0.07748 0.42403
 H839 H 0.78558 0.15106 0.37200
 H840 H 0.78360 0.18338 0.34402
 H841 H 0.71294 0.16257 0.32488
 H842 H 0.71538 0.13019 0.35274
 H843 H 0.78900 0.07148 0.39576
 H844 H 0.79114 0.03653 0.42089
 H845 H 0.72309 0.05369 0.44988
 H846 H 0.72103 0.08870 0.42480
 C847 C 0.25228 0.13811 0.63771
 C848 C 0.23270 0.15285 0.64021
 C849 C 0.23326 0.17129 0.65623
 C850 C 0.25344 0.17520 0.67003
 C851 C 0.27311 0.16037 0.66718
 C852 C 0.27250 0.14197 0.65115
 C853 C 0.25154 0.11868 0.62180
 C854 C 0.25119 0.10212 0.60880
 C855 C 0.25113 0.08203 0.59370
 C856 C 0.23151 0.07725 0.57961
 C857 C 0.23133 0.05732 0.56546
 C858 C 0.25084 0.04210 0.56521
 C859 C 0.27042 0.04697 0.57939
 C860 C 0.27058 0.06687 0.59351
 H861 H 0.21692 0.14996 0.62993
 H862 H 0.21773 0.18219 0.65800
 H863 H 0.28903 0.16292 0.67725
 H864 H 0.28778 0.13067 0.64934
 H865 H 0.21631 0.08879 0.57974
 H866 H 0.21596 0.05363 0.55485
 H867 H 0.28552 0.03530 0.57953
 H868 H 0.28579 0.07035 0.60443
   
