data_POSCAR
  _audit_creation_date              2014-09-24
  _audit_creation_method            'ToBaCCo'
  _symmetry_space_group_name_H-M    'P1'
  _symmetry_Int_Tables_number       1
  _symmetry_cell_setting            triclinic
  loop_
  _symmetry_equiv_pos_as_xyz
 x,y,z
_cell_length_a 45.3076
_cell_length_b 44.9378
_cell_length_c 46.3838
_cell_angle_alpha 88.070700
_cell_angle_beta 89.839000
_cell_angle_gamma 90.195700
loop_
  _atom_site_label
  _atom_site_type_symbol
  _atom_site_fract_x
  _atom_site_fract_y
  _atom_site_fract_z
N1 N 0.59035 0.67419 0.60868
 N2 N 0.57970 0.66250 0.63292
 C3 C 0.55662 0.67890 0.64142
 C4 C 0.55238 0.70180 0.62123
 C5 C 0.57409 0.69808 0.60066
 H6 H 0.54363 0.67441 0.66068
 H7 H 0.57816 0.71214 0.58168
 Cu8 Cu 0.59692 0.62689 0.65082
 Cu9 Cu 0.62531 0.65840 0.59011
 Cu10 Cu 0.65739 0.59591 0.62268
 N11 N 0.61452 0.59127 0.66834
 N12 N 0.63913 0.58031 0.65818
 C13 C 0.64762 0.55709 0.67523
 C14 C 0.62685 0.55277 0.69708
 C15 C 0.60607 0.57493 0.69180
 H16 H 0.66699 0.54380 0.67137
 H17 H 0.58675 0.57950 0.70459
 N18 N 0.67249 0.61489 0.58661
 N19 N 0.66078 0.63916 0.57466
 C20 C 0.67648 0.64717 0.55092
 C21 C 0.69880 0.62669 0.54754
 C22 C 0.69557 0.60648 0.57046
 H23 H 0.67176 0.66616 0.53676
 H24 H 0.70933 0.58733 0.57517
 H25 H 0.61976 0.61485 0.60508
 H26 H 0.64360 0.63932 0.62703
 N27 N 0.90974 0.33123 0.11495
 N28 N 0.91976 0.34144 0.13926
 C29 C 0.94334 0.32522 0.14775
 C30 C 0.94883 0.30402 0.12728
 C31 C 0.92695 0.30872 0.10673
 H32 H 0.95607 0.32921 0.16691
 H33 H 0.92313 0.29616 0.08762
 Cu34 Cu 0.90168 0.37596 0.15628
 Cu35 Cu 0.87428 0.34682 0.09634
 Cu36 Cu 0.84069 0.40715 0.12752
 N37 N 0.88311 0.41014 0.17338
 N38 N 0.85875 0.42166 0.16249
 C39 C 0.85029 0.44460 0.17849
 C40 C 0.87064 0.44788 0.20031
 C41 C 0.89121 0.42570 0.19640
 H42 H 0.83120 0.45841 0.17414
 H43 H 0.91050 0.42120 0.20948
 N44 N 0.82589 0.38913 0.09210
 N45 N 0.83822 0.36562 0.08079
 C46 C 0.82245 0.35777 0.05767
 C47 C 0.79938 0.37752 0.05400
 C48 C 0.80228 0.39721 0.07609
 H49 H 0.82753 0.33930 0.04418
 H50 H 0.78786 0.41566 0.08043
 H51 H 0.87872 0.38983 0.11032
 H52 H 0.85531 0.36386 0.13287
 N53 N 0.41007 0.16749 -0.11116
 N54 N 0.42104 0.15691 -0.13498
 C55 C 0.44499 0.17307 -0.14292
 C56 C 0.44941 0.19465 -0.12279
 C57 C 0.42690 0.19040 -0.10288
 H58 H 0.45844 0.16931 -0.16174
 H59 H 0.42269 0.20348 -0.08417
 Cu60 Cu 0.40315 0.12275 -0.15292
 Cu61 Cu 0.37403 0.15178 -0.09342
 Cu62 Cu 0.34182 0.09074 -0.12476
 N63 N 0.38546 0.08781 -0.16965
 N64 N 0.36098 0.07599 -0.15907
 C65 C 0.35285 0.05307 -0.17526
 C66 C 0.37356 0.05011 -0.19691
 C67 C 0.39401 0.07244 -0.19266
 H68 H 0.33354 0.03929 -0.17135
 H69 H 0.41331 0.07742 -0.20573
 N70 N 0.32577 0.10893 -0.08999
 N71 N 0.33754 0.13276 -0.07865
 C72 C 0.32086 0.14073 -0.05613
 C73 C 0.29775 0.12076 -0.05291
 C74 C 0.30159 0.10080 -0.07462
 H75 H 0.32531 0.15947 -0.04277
 H76 H 0.28740 0.08217 -0.07920
 H77 H 0.37940 0.10883 -0.10721
 H78 H 0.35613 0.13427 -0.13019
 N79 N 0.09912 0.81948 0.38447
 N80 N 0.09288 0.82817 0.35789
 C81 C 0.06987 0.81215 0.34851
 C82 C 0.06082 0.79255 0.37068
 C83 C 0.08009 0.79797 0.39318
 H84 H 0.05994 0.81543 0.32748
 H85 H 0.08091 0.78672 0.41414
 Cu86 Cu 0.11424 0.86087 0.33870
 Cu87 Cu 0.13276 0.83543 0.40477
 Cu88 Cu 0.15212 0.90679 0.38181
 N89 N 0.12500 0.90110 0.32629
 N90 N 0.13771 0.91960 0.34383
 C91 C 0.14076 0.94637 0.33020
 C92 C 0.12968 0.94437 0.30257
 C93 C 0.11992 0.91531 0.30079
 H94 H 0.15112 0.96559 0.33934
 H95 H 0.10935 0.90543 0.28254
 N96 N 0.16594 0.88827 0.41857
 N97 N 0.15941 0.86058 0.42661
 C98 C 0.17497 0.85288 0.45033
 C99 C 0.19221 0.87690 0.45766
 C100 C 0.18580 0.89903 0.43717
 H101 H 0.17439 0.83113 0.46102
 H102 H 0.19631 0.92062 0.43492
 H103 H 0.11881 0.87581 0.38834
 H104 H 0.15469 0.86257 0.37345
 C105 C 0.10503 0.14834 0.12629
 N106 N 0.10621 0.12732 0.14800
 C107 C 0.12532 0.10417 0.14649
 N108 N 0.14361 0.10243 0.12334
 C109 C 0.14316 0.12380 0.10194
 N110 N 0.12363 0.14655 0.10342
 C111 C 0.39635 0.85937 0.62563
 N112 N 0.39614 0.87988 0.64647
 C113 C 0.37430 0.90046 0.64745
 N114 N 0.35248 0.90037 0.62741
 C115 C 0.35245 0.87995 0.60645
 N116 N 0.37446 0.85954 0.60569
 C117 C 0.89553 0.64545 0.37036
 N118 N 0.87430 0.64554 0.39107
 C119 C 0.85228 0.62494 0.39141
 N120 N 0.85168 0.60404 0.37091
 C121 C 0.87285 0.60374 0.35010
 N122 N 0.89470 0.62453 0.34993
 C123 C 0.60485 0.35411 -0.12297
 N124 N 0.62571 0.35435 -0.10199
 C125 C 0.64678 0.37596 -0.10213
 N126 N 0.64696 0.39737 -0.12353
 C127 C 0.62615 0.39734 -0.14453
 N128 N 0.60513 0.37573 -0.14415
 C129 C 0.01598 0.23909 0.12699
 C130 C 0.00046 0.24594 0.10151
 C131 C -0.02203 0.26725 0.10185
 C132 C -0.02858 0.28251 0.12723
 C133 C -0.01216 0.27569 0.15247
 C134 C 0.00971 0.25362 0.15257
 C135 C 0.03914 0.21610 0.12687
 C136 C 0.05386 0.20829 0.15264
 C137 C 0.07535 0.18584 0.15252
 C138 C 0.08269 0.17207 0.12666
 C139 C 0.06813 0.18058 0.10095
 C140 C 0.04598 0.20224 0.10102
 C141 C 0.02524 0.24556 0.17784
 C142 C 0.04675 0.22310 0.17793
 C143 C 0.00776 0.23139 0.07613
 C144 C 0.03030 0.21007 0.07583
 H145 H 0.02053 0.25650 0.19779
 H146 H 0.05799 0.21738 0.19794
 H147 H -0.00399 0.23659 0.05628
 H148 H 0.03530 0.19944 0.05578
 H149 H -0.03374 0.27237 0.08201
 H150 H -0.01693 0.28668 0.17236
 H151 H 0.08665 0.17938 0.17232
 H152 H 0.07352 0.16975 0.08108
 C153 C 0.48659 0.76975 0.62297
 C154 C 0.49573 0.75888 0.59635
 C155 C 0.51765 0.73692 0.59587
 C156 C 0.52977 0.72535 0.62179
 C157 C 0.52015 0.73628 0.64829
 C158 C 0.49880 0.75877 0.64899
 C159 C 0.46371 0.79298 0.62361
 C160 C 0.45507 0.80434 0.65017
 C161 C 0.43340 0.82654 0.65064
 C162 C 0.41988 0.83675 0.62488
 C163 C 0.42864 0.82495 0.59846
 C164 C 0.45083 0.80329 0.59766
 C165 C 0.48944 0.77053 0.67516
 C166 C 0.46808 0.79307 0.67572
 C167 C 0.48259 0.77003 0.57081
 C168 C 0.46039 0.79172 0.57147
 H169 H 0.49878 0.76232 0.69537
 H170 H 0.46155 0.80159 0.69635
 H171 H 0.48939 0.76177 0.55015
 H172 H 0.45069 0.79957 0.55130
 H173 H 0.52482 0.72838 0.57543
 H174 H 0.52964 0.72765 0.66829
 H175 H 0.42658 0.83536 0.67108
 H176 H 0.41846 0.83289 0.57854
 C177 C 0.99038 0.73074 0.37043
 C178 C 1.00051 0.74352 0.34421
 C179 C 1.02358 0.76444 0.34440
 C180 C 1.03727 0.77194 0.37054
 C181 C 1.02688 0.75841 0.39662
 C182 C 1.00321 0.73823 0.39670
 C183 C 0.96587 0.70905 0.37040
 C184 C 0.95511 0.69701 0.39673
 C185 C 0.93162 0.67661 0.39660
 C186 C 0.91960 0.66759 0.37034
 C187 C 0.93086 0.67957 0.34410
 C188 C 0.95373 0.70070 0.34403
 C189 C 0.99201 0.72552 0.42261
 C190 C 0.96822 0.70543 0.42264
 C191 C 0.98751 0.73494 0.31827
 C192 C 0.96468 0.71372 0.31817
 H193 H 1.00163 0.73125 0.44306
 H194 H 0.96017 0.69625 0.44309
 H195 H 0.99518 0.74455 0.29785
 H196 H 0.95541 0.70757 0.29769
 H197 H 1.03128 0.77407 0.32404
 H198 H 1.03648 0.76406 0.41706
 H199 H 0.92314 0.66722 0.41682
 H200 H 0.92148 0.67281 0.32386
 C201 C 0.51624 0.26211 -0.12285
 C202 C 0.50516 0.25247 -0.14922
 C203 C 0.48363 0.22996 -0.14908
 C204 C 0.47270 0.21772 -0.12282
 C205 C 0.48385 0.22782 -0.09658
 C206 C 0.50590 0.24979 -0.09647
 C207 C 0.53902 0.28563 -0.12286
 C208 C 0.55061 0.29477 -0.09652
 C209 C 0.57247 0.31696 -0.09668
 C210 C 0.58215 0.33045 -0.12289
 C211 C 0.57005 0.32123 -0.14908
 C212 C 0.54872 0.29856 -0.14921
 C213 C 0.51785 0.25969 -0.07055
 C214 C 0.53996 0.28167 -0.07058
 C215 C 0.51566 0.26572 -0.17515
 C216 C 0.53694 0.28849 -0.17514
 H217 H 0.51012 0.25030 -0.05006
 H218 H 0.54865 0.28859 -0.05012
 H219 H 0.50722 0.25854 -0.19563
 H220 H 0.54432 0.29824 -0.19561
 H221 H 0.47490 0.22247 -0.16933
 H222 H 0.47569 0.21826 -0.07631
 H223 H 0.58156 0.32411 -0.07645
 H224 H 0.57760 0.33136 -0.16934
 C225 C 0.12776 0.01264 0.23613
 C226 C 0.12327 0.02024 0.26494
 C227 C 0.12431 -0.00218 0.28672
 C228 C 0.12897 -0.03203 0.27968
 C229 C 0.13302 -0.03931 0.25067
 C230 C 0.13284 -0.01698 0.22882
 C231 C 0.12714 0.03616 0.21319
 C232 C 0.13251 0.02867 0.18450
 C233 C 0.13228 0.05116 0.16281
 C234 C 0.12596 0.08077 0.16957
 C235 C 0.12021 0.08786 0.19838
 C236 C 0.12120 0.06566 0.22037
 C237 C 0.13780 -0.02364 0.19983
 C238 C 0.13784 -0.00117 0.17807
 C239 C 0.11772 0.05005 0.27133
 C240 C 0.11650 0.07235 0.24941
 H241 H 0.14185 -0.04640 0.19393
 H242 H 0.14193 -0.00723 0.15600
 H243 H 0.11413 0.05619 0.29346
 H244 H 0.11201 0.09503 0.25525
 H245 H 0.12094 0.00346 0.30902
 H246 H 0.13690 -0.06224 0.24520
 H247 H 0.13647 0.04556 0.14061
 H248 H 0.11555 0.11068 0.20370
 C249 C 0.62670 0.48716 -0.23557
 C250 C 0.65284 0.49312 -0.25100
 C251 C 0.65267 0.51453 -0.27372
 C252 C 0.62682 0.53086 -0.28044
 C253 C 0.60092 0.52482 -0.26418
 C254 C 0.60062 0.50265 -0.24215
 C255 C 0.62661 0.46421 -0.21208
 C256 C 0.60014 0.45738 -0.19743
 C257 C 0.60005 0.43509 -0.17554
 C258 C 0.62638 0.42053 -0.16766
 C259 C 0.65285 0.42800 -0.18211
 C260 C 0.65299 0.44950 -0.20476
 C261 C 0.57466 0.49552 -0.22672
 C262 C 0.57436 0.47307 -0.20492
 C263 C 0.67873 0.47767 -0.24328
 C264 C 0.67886 0.45642 -0.22038
 H265 H 0.55433 0.50722 -0.23168
 H266 H 0.55382 0.46811 -0.19371
 H267 H 0.69911 0.48217 -0.25492
 H268 H 0.69932 0.44515 -0.21502
 H269 H 0.67299 0.51901 -0.28544
 H270 H 0.58063 0.53653 -0.26912
 H271 H 0.57970 0.42942 -0.16425
 H272 H 0.67308 0.41655 -0.17616
 C273 C 0.37388 0.98636 0.73667
 C274 C 0.40081 0.99623 0.74791
 C275 C 0.40059 1.01739 0.76946
 C276 C 0.37368 1.02806 0.78020
 C277 C 0.34688 1.01764 0.76897
 C278 C 0.34686 0.99704 0.74692
 C279 C 0.37399 0.96441 0.71374
 C280 C 0.34709 0.95511 0.70199
 C281 C 0.34734 0.93447 0.67997
 C282 C 0.37418 0.92264 0.67024
 C283 C 0.40093 0.93197 0.68249
 C284 C 0.40098 0.95314 0.70403
 C285 C 0.32038 0.98700 0.73481
 C286 C 0.32051 0.96653 0.71260
 C287 C 0.42739 0.98465 0.73744
 C288 C 0.42747 0.96333 0.71599
 H289 H 0.29939 0.99515 0.74248
 H290 H 0.29961 0.95947 0.70377
 H291 H 0.44831 0.99201 0.74599
 H292 H 0.44844 0.95487 0.70862
 H293 H 0.42128 1.02513 0.77823
 H294 H 0.32611 1.02601 0.77698
 H295 H 0.32666 0.92721 0.67079
 H296 H 0.42169 0.92312 0.67494
 C297 C 0.87144 0.51421 0.26431
 C298 C 0.84432 0.50302 0.25477
 C299 C 0.84415 0.48150 0.23355
 C300 C 0.87088 0.47070 0.22249
 C301 C 0.89787 0.48187 0.23256
 C302 C 0.89828 0.50393 0.25323
 C303 C 0.87175 0.53716 0.28631
 C304 C 0.89885 0.54892 0.29526
 C305 C 0.89902 0.57102 0.31589
 C306 C 0.87239 0.58079 0.32806
 C307 C 0.84543 0.56847 0.31913
 C308 C 0.84496 0.54689 0.29796
 C309 C 0.92495 0.51603 0.26294
 C310 C 0.92523 0.53828 0.28347
 C311 C 0.81795 0.51351 0.26674
 C312 C 0.81828 0.53493 0.28810
 H313 H 0.94580 0.50834 0.25449
 H314 H 0.94627 0.54712 0.29027
 H315 H 0.79689 0.50498 0.25963
 H316 H 0.79745 0.54230 0.29685
 H317 H 0.82332 0.47278 0.22602
 H318 H 0.91848 0.47385 0.22387
 H319 H 0.91985 0.58023 0.32285
 H320 H 0.82485 0.57606 0.32828
 C321 C 0.22984 0.12170 0.01123
 C322 C 0.24041 0.09429 0.00189
 C323 C 0.26224 0.09406 -0.01963
 C324 C 0.27400 0.12099 -0.03109
 C325 C 0.26327 0.14825 -0.02138
 C326 C 0.24093 0.14874 -0.00044
 C327 C 0.20697 0.12211 0.03389
 C328 C 0.19610 0.14952 0.04288
 C329 C 0.17454 0.14982 0.06458
 C330 C 0.16448 0.12301 0.07785
 C331 C 0.17565 0.09569 0.06864
 C332 C 0.19670 0.09511 0.04641
 C333 C 0.22952 0.17572 0.00913
 C334 C 0.20735 0.17610 0.03031
 C335 C 0.22920 0.06772 0.01454
 C336 C 0.20786 0.06812 0.03655
 H337 H 0.23781 0.19673 0.00020
 H338 H 0.19918 0.19739 0.03711
 H339 H 0.23722 0.04643 0.00758
 H340 H 0.20004 0.04713 0.04594
 H341 H 0.27063 0.07303 -0.02690
 H342 H 0.27205 0.16904 -0.03037
 H343 H 0.16626 0.17094 0.07177
 H344 H 0.16787 0.07497 0.07868
 C345 C 0.76384 0.62592 0.48058
 C346 C 0.75432 0.65325 0.49106
 C347 C 0.73267 0.65338 0.51273
 C348 C 0.72122 0.62641 0.52440
 C349 C 0.73127 0.59920 0.51394
 C350 C 0.75232 0.59884 0.49172
 C351 C 0.78634 0.62566 0.45756
 C352 C 0.79529 0.59838 0.44654
 C353 C 0.81652 0.59830 0.42446
 C354 C 0.82933 0.62517 0.41406
 C355 C 0.82033 0.65229 0.42556
 C356 C 0.79854 0.65270 0.44707
 C357 C 0.76202 0.57197 0.48033
 C358 C 0.78300 0.57176 0.45799
 C359 C 0.76679 0.67986 0.47978
 C360 C 0.78867 0.67958 0.45829
 H361 H 0.75324 0.55093 0.48867
 H362 H 0.78979 0.55057 0.44975
 H363 H 0.75971 0.70108 0.48775
 H364 H 0.79785 0.70058 0.45032
 H365 H 0.72518 0.67436 0.52093
 H366 H 0.72230 0.57840 0.52270
 H367 H 0.82355 0.57734 0.41583
 H368 H 0.82997 0.67305 0.41746
 C369 C 0.73390 0.37694 -0.01220
 C370 C 0.74431 0.40428 -0.00239
 C371 C 0.76536 0.40437 0.01973
 C372 C 0.77656 0.37738 0.03136
 C373 C 0.76612 0.35018 0.02109
 C374 C 0.74448 0.34982 -0.00046
 C375 C 0.71157 0.37669 -0.03526
 C376 C 0.70060 0.34936 -0.04452
 C377 C 0.67910 0.34927 -0.06621
 C378 C 0.66921 0.37622 -0.07912
 C379 C 0.68074 0.40341 -0.06986
 C380 C 0.70166 0.40379 -0.04764
 C381 C 0.73318 0.32292 -0.01047
 C382 C 0.71146 0.32270 -0.03200
 C383 C 0.73361 0.43094 -0.01508
 C384 C 0.71279 0.43069 -0.03745
 H385 H 0.74110 0.30186 -0.00152
 H386 H 0.70323 0.30147 -0.03902
 H387 H 0.74153 0.45217 -0.00778
 H388 H 0.70525 0.45175 -0.04675
 H389 H 0.77356 0.42535 0.02741
 H390 H 0.77449 0.32935 0.03019
 H391 H 0.67044 0.32827 -0.07342
 H392 H 0.67301 0.42423 -0.07957
 C393 C 0.25968 0.87833 0.52199
 C394 C 0.24483 0.90481 0.51435
 C395 C 0.22272 0.90431 0.49321
 C396 C 0.21513 0.87745 0.48026
 C397 C 0.23001 0.85106 0.48849
 C398 C 0.25250 0.85143 0.50912
 C399 C 0.28334 0.87879 0.54375
 C400 C 0.29869 0.85245 0.55078
 C401 C 0.32144 0.85307 0.57115
 C402 C 0.32852 0.87965 0.58486
 C403 C 0.31266 0.90581 0.57781
 C404 C 0.29023 0.90557 0.55700
 C405 C 0.26815 0.82547 0.51695
 C406 C 0.29095 0.82600 0.53733
 C407 C 0.25245 0.93122 0.52798
 C408 C 0.27466 0.93156 0.54904
 H409 H 0.26284 0.80460 0.50712
 H410 H 0.30259 0.80553 0.54263
 H411 H 0.24111 0.95178 0.52236
 H412 H 0.27981 0.95238 0.55905
 H413 H 0.21123 0.92466 0.48707
 H414 H 0.22462 0.83038 0.47832
 H415 H 0.33336 0.83279 0.57663
 H416 H 0.31811 0.92640 0.58813
   
