data_POSCAR
  _audit_creation_date              2014-09-24
  _audit_creation_method            'ToBaCCo'
  _symmetry_space_group_name_H-M    'P1'
  _symmetry_Int_Tables_number       1
  _symmetry_cell_setting            triclinic
  loop_
  _symmetry_equiv_pos_as_xyz
 x,y,z
_cell_length_a 45.7855
_cell_length_b 45.8042
_cell_length_c 45.7232
_cell_angle_alpha 89.999000
_cell_angle_beta 89.989300
_cell_angle_gamma 89.930400
loop_
  _atom_site_label
  _atom_site_type_symbol
  _atom_site_fract_x
  _atom_site_fract_y
  _atom_site_fract_z
C1 C 0.16518 0.16399 0.20169
 N2 N 0.18950 0.15210 0.18941
 C3 C 0.20183 0.16400 0.16511
 N4 N 0.18945 0.18820 0.15311
 C5 C 0.16516 0.20041 0.16503
 N6 N 0.15320 0.18818 0.18929
 C7 C -0.16493 0.83578 0.20176
 N8 N -0.18920 0.84771 0.18942
 C9 C -0.20154 0.83579 0.16515
 N10 N -0.18921 0.81154 0.15321
 C11 C -0.16496 0.79928 0.16517
 N12 N -0.15300 0.81153 0.18942
 C13 C -0.16577 0.16467 -0.20199
 N14 N -0.15385 0.18889 -0.18963
 C15 C -0.16582 0.20115 -0.16537
 N16 N -0.19006 0.18893 -0.15341
 C17 C -0.20238 0.16471 -0.16537
 N18 N -0.19004 0.15278 -0.18965
 C19 C 0.16567 0.83541 -0.20059
 N20 N 0.18994 0.84730 -0.18835
 C21 C 0.20232 0.83530 -0.16412
 N22 N 0.19001 0.81105 -0.15219
 C23 C 0.16573 0.79887 -0.16414
 N24 N 0.15373 0.81119 -0.18834
 C25 C 0.16418 1.16503 0.79824
 N26 N 0.18842 1.15308 0.81059
 C27 C 0.20067 1.16502 0.83485
 N28 N 0.18842 1.18927 0.84681
 C29 C 0.16419 1.20163 0.83485
 N30 N 0.15226 1.18930 0.81057
 C31 C 0.83591 0.83461 0.79802
 N32 N 0.84783 0.81031 0.81031
 C33 C 0.83591 0.79798 0.83460
 N34 N 0.81170 0.81035 0.84660
 C35 C 0.79946 0.83462 0.83468
 N36 N 0.81170 0.84657 0.81043
 C37 C 0.16449 0.83534 1.20172
 N38 N 0.18874 0.84724 1.18937
 C39 C 0.20102 0.83526 1.16512
 N40 N 0.18881 0.81103 1.15316
 C41 C 0.16458 0.79880 1.16513
 N42 N 0.15259 0.81108 1.18939
 C43 C 0.83552 1.16566 1.20180
 N44 N 0.81132 1.15371 1.18943
 C45 C 0.79907 1.16566 1.16516
 N46 N 0.81127 1.18989 1.15321
 C47 C 0.83547 1.20225 1.16517
 N48 N 0.84740 1.18993 1.18948
 N49 N 0.46963 0.96865 1.05195
 N50 N 0.44689 0.96555 1.06943
 N51 N 0.53117 0.94846 1.03161
 N52 N 0.55393 0.93103 1.03475
 N53 N 0.53112 0.96875 1.05188
 N54 N 0.55386 0.96568 1.06937
 N55 N 0.46967 0.94836 1.03168
 N56 N 0.44697 0.93091 1.03481
 C57 C 0.43299 0.94184 1.05852
 C58 C 0.56786 0.94199 1.05846
 N59 N 0.53101 0.96861 0.94833
 N60 N 0.55373 0.96549 0.93082
 N61 N 0.46959 0.94828 0.96874
 N62 N 0.44691 0.93078 0.96567
 N63 N 0.46951 0.96851 0.94841
 N64 N 0.44677 0.96534 0.93096
 N65 N 0.53109 0.94838 0.96866
 N66 N 0.55384 0.93094 0.96554
 Mn67 Mn 0.50038 0.94800 1.00017
 C68 C 0.56774 0.94183 0.94178
 C69 C 0.43290 0.94164 0.94195
 N70 N 0.53094 1.03159 1.05180
 N71 N 0.55367 1.03477 1.06925
 N72 N 0.46935 1.05172 1.03156
 N73 N 0.44657 1.06913 1.03470
 N74 N 0.46945 1.03148 1.05188
 N75 N 0.44674 1.03457 1.06940
 N76 N 0.53086 1.05183 1.03147
 N77 N 0.55353 1.06932 1.03455
 Mn78 Mn 0.50029 1.00012 1.05225
 C79 C 0.56754 1.05846 1.05827
 C80 C 0.43269 1.05821 1.05846
 N81 N 0.46933 1.03136 0.94832
 N82 N 0.44659 1.03443 0.93086
 N83 N 0.53080 1.05175 0.96852
 N84 N 0.55347 1.06924 0.96533
 N85 N 0.53083 1.03145 0.94825
 N86 N 0.55352 1.03460 0.93072
 N87 N 0.46930 1.05165 0.96860
 N88 N 0.44654 1.06907 0.96548
 Mn89 Mn 0.50017 0.99998 0.94795
 Mn90 Mn 0.50008 1.05211 1.00004
 Cl91 Cl 0.50023 1.00005 1.00010
 C92 C 0.43259 1.05812 0.94178
 C93 C 0.56741 1.05832 0.94159
 N94 N 0.03120 0.46888 0.05166
 N95 N 0.03428 0.44614 0.06913
 N96 N 0.05162 0.53030 0.03141
 N97 N 0.06909 0.55298 0.03453
 N98 N 0.03132 0.53035 0.05169
 N99 N 0.03444 0.55307 0.06917
 N100 N 0.05148 0.46883 0.03137
 N101 N 0.06891 0.44607 0.03448
 C102 C 0.05796 0.43214 0.05819
 C103 C 0.05816 0.56696 0.05825
 N104 N 0.03142 0.53042 -0.05185
 N105 N 0.03460 0.55317 -0.06927
 N106 N 0.05153 0.46885 -0.03158
 N107 N 0.06895 0.44609 -0.03472
 N108 N 0.03127 0.46894 -0.05189
 N109 N 0.03436 0.44624 -0.06940
 N110 N 0.05167 0.53031 -0.03153
 N111 N 0.06917 0.55298 -0.03457
 Mn112 Mn 0.05194 0.49957 -0.00008
 C113 C 0.05832 0.56702 -0.05827
 C114 C 0.05802 0.43220 -0.05847
 N115 N -0.03153 0.53057 0.05166
 N116 N -0.03462 0.55329 0.06915
 N117 N -0.05192 0.46916 0.03134
 N118 N -0.06942 0.44650 0.03447
 N119 N -0.03165 0.46911 0.05164
 N120 N -0.03481 0.44641 0.06913
 N121 N -0.05179 0.53065 0.03135
 N122 N -0.06921 0.55342 0.03448
 Mn123 Mn -0.00017 0.49973 0.05204
 C124 C -0.05828 0.56732 0.05822
 C125 C -0.05853 0.43253 0.05821
 N126 N -0.03160 0.46915 -0.05192
 N127 N -0.03476 0.44645 -0.06941
 N128 N -0.05175 0.53069 -0.03161
 N129 N -0.06917 0.55346 -0.03477
 N130 N -0.03145 0.53062 -0.05189
 N131 N -0.03452 0.55333 -0.06940
 N132 N -0.05188 0.46922 -0.03163
 N133 N -0.06939 0.44657 -0.03476
 Mn134 Mn -0.00009 0.49978 -0.05226
 Mn135 Mn -0.05221 0.49993 -0.00014
 Cl136 Cl -0.00013 0.49975 -0.00011
 C137 C -0.05850 0.43259 -0.05849
 C138 C -0.05820 0.56736 -0.05850
 N139 N 1.05159 -0.03118 0.53075
 N140 N 1.06905 -0.03428 0.55350
 N141 N 1.03137 -0.05142 0.46916
 N142 N 1.03452 -0.06887 0.44641
 N143 N 1.05163 -0.03116 0.46917
 N144 N 1.06910 -0.03428 0.44642
 N145 N 1.03135 -0.05145 0.53074
 N146 N 1.03450 -0.06890 0.55350
 C147 C 1.05817 -0.05797 0.56747
 C148 C 1.05821 -0.05796 0.43245
 N149 N 0.94822 -0.03115 0.46913
 N150 N 0.93075 -0.03427 0.44639
 N151 N 0.96849 -0.05146 0.53069
 N152 N 0.96540 -0.06896 0.55341
 N153 N 0.94818 -0.03121 0.53072
 N154 N 0.93072 -0.03439 0.55347
 N155 N 0.96851 -0.05142 0.46912
 N156 N 0.96540 -0.06887 0.44636
 Mn157 Mn 0.99993 -0.05181 0.49993
 C158 C 0.94169 -0.05795 0.43241
 C159 C 0.94168 -0.05810 0.56740
 N160 N 1.05156 0.03167 0.46923
 N161 N 1.06905 0.03476 0.44650
 N162 N 1.03121 0.05192 0.53079
 N163 N 1.03430 0.06938 0.55354
 N164 N 1.05151 0.03165 0.53080
 N165 N 1.06896 0.03478 0.55356
 N166 N 1.03127 0.05194 0.46920
 N167 N 1.03442 0.06938 0.44644
 Mn168 Mn 1.05194 0.00025 0.49999
 C169 C 1.05814 0.05844 0.43250
 C170 C 1.05800 0.05847 0.56752
 N171 N 0.94810 0.03164 0.53074
 N172 N 0.93059 0.03475 0.55346
 N173 N 0.96840 0.05195 0.46919
 N174 N 0.96528 0.06945 0.44647
 N175 N 0.94815 0.03170 0.46915
 N176 N 0.93069 0.03487 0.44639
 N177 N 0.96834 0.05191 0.53077
 N178 N 0.96514 0.06937 0.55352
 Mn179 Mn 0.94779 0.00024 0.49994
 Mn180 Mn 0.99981 0.05230 0.49999
 Cl181 Cl 0.99986 0.00025 0.49996
 C182 C 0.94143 0.05844 0.56745
 C183 C 0.94160 0.05858 0.43247
 C184 C 1.12815 0.12732 0.27810
 C185 C 1.11550 0.15197 0.26525
 C186 C 1.12762 0.16405 0.23994
 C187 C 1.15274 0.15163 0.22701
 C188 C 1.16516 0.12666 0.24017
 C189 C 1.15295 0.11467 0.26549
 C190 C 1.11585 0.11520 0.30438
 C191 C 1.10561 0.10516 0.32649
 C192 C 1.09350 0.09328 0.35297
 C193 C 1.06900 0.10631 0.36587
 C194 C 1.05743 0.09495 0.39178
 C195 C 1.07028 0.07043 0.40509
 C196 C 1.09481 0.05741 0.39195
 C197 C 1.10635 0.06880 0.36604
 H198 H 1.09629 0.16195 0.27486
 H199 H 1.11726 0.18320 0.23066
 H200 H 1.18441 0.11632 0.23107
 H201 H 1.16292 0.09556 0.27529
 H202 H 1.05889 0.12526 0.35592
 H203 H 1.03847 0.10537 0.40139
 H204 H 1.10510 0.03846 0.40168
 H205 H 1.12531 0.05855 0.35624
 C206 C 0.87202 -0.12736 0.27810
 C207 C 0.84727 -0.11471 0.26540
 C208 C 0.83509 -0.12676 0.24011
 C209 C 0.84750 -0.15181 0.22705
 C210 C 0.87256 -0.16423 0.24007
 C211 C 0.88465 -0.15208 0.26536
 C212 C 0.88428 -0.11514 0.30436
 C213 C 0.89446 -0.10501 0.32645
 C214 C 0.90650 -0.09303 0.35292
 C215 C 0.89358 -0.06855 0.36592
 C216 C 0.90506 -0.05708 0.39181
 C217 C 0.92961 -0.07001 0.40501
 C218 C 0.94253 -0.09452 0.39175
 C219 C 0.93102 -0.10596 0.36585
 H220 H 0.83731 -0.09555 0.27512
 H221 H 0.81588 -0.11642 0.23094
 H222 H 0.88290 -0.18343 0.23087
 H223 H 0.90382 -0.16205 0.27504
 H224 H 0.87460 -0.05837 0.35608
 H225 H 0.89471 -0.03813 0.40151
 H226 H 0.96150 -0.10487 0.40139
 H227 H 0.94119 -0.12491 0.35596
 C228 C 0.87128 0.12780 0.72167
 C229 C 0.84653 0.11518 0.73434
 C230 C 0.83431 0.12724 0.75963
 C231 C 0.84669 0.15226 0.77271
 C232 C 0.87175 0.16464 0.75972
 C233 C 0.88388 0.15249 0.73443
 C234 C 0.88360 0.11558 0.69542
 C235 C 0.89385 0.10546 0.67334
 C236 C 0.90597 0.09349 0.64688
 C237 C 0.89316 0.06900 0.63386
 C238 C 0.90473 0.05754 0.60798
 C239 C 0.92926 0.07049 0.59483
 C240 C 0.94208 0.09501 0.60811
 C241 C 0.93047 0.10644 0.63399
 H242 H 0.83660 0.09604 0.72461
 H243 H 0.81510 0.11693 0.76878
 H244 H 0.88207 0.18382 0.76893
 H245 H 0.90306 0.16243 0.72478
 H246 H 0.87419 0.05880 0.64366
 H247 H 0.89446 0.03859 0.59827
 H248 H 0.96104 0.10538 0.59850
 H249 H 0.94057 0.12540 0.64390
 C250 C 1.12803 -0.12712 0.72185
 C251 C 1.11539 -0.15180 0.73465
 C252 C 1.12753 -0.16393 0.75995
 C253 C 1.15255 -0.15150 0.77280
 C254 C 1.16500 -0.12658 0.75980
 C255 C 1.15281 -0.11451 0.73450
 C256 C 1.11574 -0.11494 0.69558
 C257 C 1.10552 -0.10485 0.67349
 C258 C 1.09345 -0.09292 0.64700
 C259 C 1.06899 -0.10590 0.63407
 C260 C 1.05744 -0.09451 0.60816
 C261 C 1.07028 -0.06999 0.59488
 C262 C 1.09477 -0.05701 0.60808
 C263 C 1.10628 -0.06843 0.63399
 H264 H 1.09621 -0.16175 0.72502
 H265 H 1.11735 -0.18308 0.76933
 H266 H 1.18423 -0.11643 0.76908
 H267 H 1.16277 -0.09539 0.72475
 H268 H 1.05889 -0.12486 0.64398
 H269 H 1.03852 -0.10490 0.59851
 H270 H 1.10505 -0.03806 0.59837
 H271 H 1.12521 -0.05821 0.64382
 C272 C 0.27828 1.12726 1.12826
 C273 C 0.26549 1.15192 1.11557
 C274 C 0.24017 1.16403 1.12763
 C275 C 0.22717 1.15163 1.15272
 C276 C 0.24028 1.12665 1.16519
 C277 C 0.26561 1.11463 1.15303
 C278 C 0.30457 1.11509 1.11602
 C279 C 0.32668 1.10501 1.10583
 C280 C 0.35317 1.09310 1.09377
 C281 C 0.36605 1.10606 1.06923
 C282 C 0.39195 1.09468 1.05767
 C283 C 0.40529 1.07021 1.07059
 C284 C 0.39216 1.05725 1.09517
 C285 C 0.36625 1.06866 1.10668
 H286 H 0.27515 1.16188 1.09638
 H287 H 0.23093 1.18318 1.11725
 H288 H 0.23113 1.11632 1.18442
 H289 H 0.27536 1.09551 1.16304
 H290 H 0.35610 1.12498 1.05906
 H291 H 0.40154 1.10505 1.03868
 H292 H 0.40191 1.03833 1.10551
 H293 H 0.35647 1.05846 1.12568
 C294 C 0.27869 0.87203 0.87271
 C295 C 0.26593 0.88471 0.84800
 C296 C 0.24063 0.87270 0.83587
 C297 C 0.22763 0.84765 0.84827
 C298 C 0.24072 0.83519 0.87330
 C299 C 0.26602 0.84730 0.88535
 C300 C 0.30495 0.88422 0.88491
 C301 C 0.32704 0.89437 0.89503
 C302 C 0.35349 0.90640 0.90698
 C303 C 0.36638 0.93087 0.89397
 C304 C 0.39225 0.94239 0.90538
 C305 C 0.40553 0.92953 0.92993
 C306 C 0.39239 0.90503 0.94293
 C307 C 0.36652 0.89353 0.93150
 H308 H 0.27559 0.90388 0.83804
 H309 H 0.23141 0.88308 0.81668
 H310 H 0.23157 0.81599 0.88363
 H311 H 0.27575 0.83730 0.90449
 H312 H 0.35647 0.94100 0.87499
 H313 H 0.40185 0.96133 0.89497
 H314 H 0.40210 0.89472 0.96191
 H315 H 0.35672 0.87459 0.94173
 C316 C 0.72213 0.87268 1.12822
 C317 C 0.73486 0.84796 1.11557
 C318 C 0.76014 0.83580 1.12766
 C319 C 0.77317 0.84821 1.15273
 C320 C 0.76012 0.87326 1.16514
 C321 C 0.73483 0.88532 1.15297
 C322 C 0.69588 0.88491 1.11597
 C323 C 0.67379 0.89503 1.10578
 C324 C 0.64733 0.90700 1.09372
 C325 C 0.63441 0.89403 1.06921
 C326 C 0.60853 0.90545 1.05768
 C327 C 0.59526 0.92997 1.07057
 C328 C 0.60843 0.94294 1.09511
 C329 C 0.63432 0.93149 1.10661
 H330 H 0.72518 0.83800 1.09640
 H331 H 0.76933 0.81660 1.11731
 H332 H 0.76929 0.88359 1.18436
 H333 H 0.72513 0.90448 1.16293
 H334 H 0.64431 0.87507 1.05907
 H335 H 0.59890 0.89507 1.03871
 H336 H 0.59873 0.96189 1.10544
 H337 H 0.64414 0.94170 1.12558
 C338 C 0.72135 1.12788 0.87161
 C339 C 0.73405 1.15259 0.88425
 C340 C 0.75931 1.16473 0.87215
 C341 C 0.77234 1.15232 0.84706
 C342 C 0.75931 1.12730 0.83464
 C343 C 0.73405 1.11525 0.84684
 C344 C 0.69514 1.11566 0.88390
 C345 C 0.67309 1.10551 0.89411
 C346 C 0.64668 1.09350 0.90619
 C347 C 0.63373 1.10644 0.93072
 C348 C 0.60791 1.09497 0.94230
 C349 C 0.59473 1.07042 0.92943
 C350 C 0.60794 1.05748 0.90487
 C351 C 0.63376 1.06898 0.89332
 H352 H 0.72437 1.16255 0.90345
 H353 H 0.76848 1.18391 0.88250
 H354 H 0.76849 1.11697 0.81541
 H355 H 0.72438 1.09610 0.83687
 H356 H 0.64355 1.12542 0.94086
 H357 H 0.59825 1.10533 0.96128
 H358 H 0.59832 1.03850 0.89456
 H359 H 0.64361 1.05880 0.87434
 C360 C 0.12753 0.27787 0.12751
 C361 C 0.15232 0.26521 0.11486
 C362 C 0.16450 0.23995 0.12694
 C363 C 0.15203 0.22699 0.15192
 C364 C 0.12700 0.23985 0.16438
 C365 C 0.11487 0.26511 0.15224
 C366 C 0.11526 0.30411 0.11531
 C367 C 0.10508 0.32619 0.10519
 C368 C 0.09306 0.35265 0.09322
 C369 C 0.10596 0.36561 0.06870
 C370 C 0.09451 0.39151 0.05725
 C371 C 0.07000 0.40474 0.07023
 C372 C 0.05709 0.39152 0.09478
 C373 C 0.06858 0.36563 0.10621
 H374 H 0.16230 0.27493 0.09571
 H375 H 0.18375 0.23066 0.11677
 H376 H 0.11681 0.23049 0.18358
 H377 H 0.09568 0.27475 0.16222
 H378 H 0.12491 0.35575 0.05849
 H379 H 0.10484 0.40117 0.03827
 H380 H 0.03816 0.40120 0.10517
 H381 H 0.05843 0.35577 0.12519
 C382 C -0.12831 0.27861 -0.12791
 C383 C -0.15307 0.26597 -0.11524
 C384 C -0.16522 0.24071 -0.12732
 C385 C -0.15275 0.22774 -0.15230
 C386 C -0.12776 0.24059 -0.16479
 C387 C -0.11566 0.26585 -0.15266
 C388 C -0.11606 0.30483 -0.11569
 C389 C -0.10587 0.32688 -0.10557
 C390 C -0.09381 0.35330 -0.09359
 C391 C -0.10670 0.36632 -0.06908
 C392 C -0.09518 0.39215 -0.05760
 C393 C -0.07063 0.40526 -0.07056
 C394 C -0.05774 0.39199 -0.09510
 C395 C -0.06929 0.36615 -0.10655
 H396 H -0.16305 0.27569 -0.09608
 H397 H -0.18444 0.23144 -0.11712
 H398 H -0.11756 0.23123 -0.18399
 H399 H -0.09649 0.27548 -0.16265
 H400 H -0.12568 0.35654 -0.05887
 H401 H -0.10550 0.40186 -0.03863
 H402 H -0.03877 0.40157 -0.10548
 H403 H -0.05914 0.35625 -0.12552
 C404 C 0.12823 0.72128 -0.12692
 C405 C 0.11555 0.73417 -0.15158
 C406 C 0.12764 0.75947 -0.16362
 C407 C 0.15267 0.77225 -0.15113
 C408 C 0.16518 0.75916 -0.12623
 C409 C 0.15303 0.73385 -0.11424
 C410 C 0.11597 0.69502 -0.11482
 C411 C 0.10576 0.67292 -0.10481
 C412 C 0.09368 0.64646 -0.09297
 C413 C 0.06921 0.63364 -0.10606
 C414 C 0.05764 0.60775 -0.09475
 C415 C 0.07046 0.59439 -0.07022
 C416 C 0.09496 0.60747 -0.05714
 C417 C 0.10649 0.63335 -0.06848
 H418 H 0.09635 0.72461 -0.16157
 H419 H 0.11742 0.76892 -0.18276
 H420 H 0.18442 0.76837 -0.11604
 H421 H 0.16303 0.72403 -0.09514
 H422 H 0.05912 0.64361 -0.12502
 H423 H 0.03871 0.59819 -0.10521
 H424 H 0.10523 0.59769 -0.03818
 H425 H 0.12543 0.64310 -0.05818
 C426 C -0.12753 0.72168 0.12772
 C427 C -0.15227 0.73441 0.11505
 C428 C -0.16439 0.75972 0.12712
 C429 C -0.15190 0.77265 0.15210
 C430 C -0.12693 0.75971 0.16458
 C431 C -0.11486 0.73441 0.15246
 C432 C -0.11533 0.69541 0.11550
 C433 C -0.10521 0.67331 0.10536
 C434 C -0.09325 0.64683 0.09336
 C435 C -0.10619 0.63391 0.06884
 C436 C -0.09478 0.60801 0.05734
 C437 C -0.07029 0.59472 0.07029
 C438 C -0.05735 0.60789 0.09485
 C439 C -0.06880 0.63380 0.10631
 H440 H -0.16226 0.72472 0.09589
 H441 H -0.18359 0.76906 0.11692
 H442 H -0.11673 0.76905 0.18379
 H443 H -0.09571 0.72471 0.16245
 H444 H -0.12512 0.64382 0.05864
 H445 H -0.10514 0.59838 0.03837
 H446 H -0.03843 0.59818 0.10522
 H447 H -0.05861 0.64362 0.12529
 C448 C 1.12732 0.12813 0.72187
 C449 C 1.15203 0.11547 0.73462
 C450 C 1.16418 0.12755 0.75992
 C451 C 1.15177 0.15262 0.77294
 C452 C 1.12674 0.16504 0.75986
 C453 C 1.11468 0.15288 0.73456
 C454 C 1.11511 0.11588 0.69560
 C455 C 1.10499 0.10571 0.67351
 C456 C 1.09303 0.09367 0.64703
 C457 C 1.10599 0.06918 0.63409
 C458 C 1.09457 0.05766 0.60819
 C459 C 1.07004 0.07056 0.59493
 C460 C 1.05707 0.09508 0.60813
 C461 C 1.06853 0.10656 0.63403
 H462 H 1.16199 0.09630 0.72495
 H463 H 1.18337 0.11720 0.76913
 H464 H 1.11640 0.18426 0.76903
 H465 H 1.09553 0.16285 0.72484
 H466 H 1.12496 0.05903 0.64398
 H467 H 1.10495 0.03871 0.59854
 H468 H 1.03811 0.10541 0.59844
 H469 H 1.05832 0.12552 0.64387
 C470 C 0.87264 -0.12832 0.72166
 C471 C 0.84796 -0.11570 0.73449
 C472 C 0.83586 -0.12783 0.75979
 C473 C 0.84829 -0.15294 0.77272
 C474 C 0.87329 -0.16534 0.75956
 C475 C 0.88530 -0.15310 0.73426
 C476 C 0.88480 -0.11599 0.69540
 C477 C 0.89486 -0.10572 0.67331
 C478 C 0.90677 -0.09358 0.64685
 C479 C 0.89372 -0.06909 0.63397
 C480 C 0.90510 -0.05747 0.60809
 C481 C 0.92967 -0.07027 0.59478
 C482 C 0.94270 -0.09479 0.60792
 C483 C 0.93129 -0.10637 0.63380
 H484 H 0.83798 -0.09649 0.72489
 H485 H 0.81669 -0.11750 0.76906
 H486 H 0.88364 -0.18458 0.76866
 H487 H 0.90443 -0.16305 0.72447
 H488 H 0.87473 -0.05902 0.64390
 H489 H 0.89467 -0.03853 0.59849
 H490 H 0.96169 -0.10505 0.59819
 H491 H 0.94156 -0.12532 0.64358
 C492 C 1.12760 -0.12766 0.27807
 C493 C 1.15231 -0.11506 0.26531
 C494 C 1.16447 -0.12717 0.24002
 C495 C 1.15206 -0.15221 0.22701
 C496 C 1.12703 -0.16458 0.24009
 C497 C 1.11497 -0.15238 0.26539
 C498 C 1.11539 -0.11538 0.30434
 C499 C 1.10527 -0.10519 0.32644
 C500 C 1.09329 -0.09315 0.35292
 C501 C 1.10622 -0.06867 0.36587
 C502 C 1.09478 -0.05716 0.39178
 C503 C 1.07027 -0.07004 0.40503
 C504 C 1.05734 -0.09454 0.39183
 C505 C 1.06881 -0.10603 0.36592
 H506 H 1.16227 -0.09591 0.27498
 H507 H 1.18365 -0.11686 0.23080
 H508 H 1.11670 -0.18377 0.23093
 H509 H 1.09582 -0.16231 0.27511
 H510 H 1.12517 -0.05854 0.35597
 H511 H 1.10513 -0.03822 0.40143
 H512 H 1.03840 -0.10486 0.40152
 H513 H 1.05863 -0.12497 0.35607
 C514 C 0.87235 0.12867 0.27819
 C515 C 0.84768 0.11605 0.26540
 C516 C 0.83554 0.12816 0.24010
 C517 C 0.84793 0.15323 0.22712
 C518 C 0.87292 0.16562 0.24023
 C519 C 0.88497 0.15342 0.26554
 C520 C 0.88455 0.11636 0.30446
 C521 C 0.89465 0.10612 0.32654
 C522 C 0.90660 0.09401 0.35301
 C523 C 0.89364 0.06951 0.36589
 C524 C 0.90505 0.05791 0.39178
 C525 C 0.92956 0.07074 0.40508
 C526 C 0.94252 0.09527 0.39194
 C527 C 0.93108 0.10683 0.36606
 H528 H 0.83774 0.09687 0.27504
 H529 H 0.81638 0.11783 0.23086
 H530 H 0.88323 0.18484 0.23109
 H531 H 0.90409 0.16337 0.27529
 H532 H 0.87468 0.05941 0.35597
 H533 H 0.89468 0.03896 0.40139
 H534 H 0.96147 0.10554 0.40166
 H535 H 0.94128 0.12579 0.35626
 C536 C 0.12733 0.27796 -0.12823
 C537 C 0.11469 0.26528 -0.15299
 C538 C 0.12674 0.23999 -0.16516
 C539 C 0.15178 0.22692 -0.15273
 C540 C 0.16419 0.23993 -0.12765
 C541 C 0.15204 0.26522 -0.11557
 C542 C 0.11511 0.30422 -0.11598
 C543 C 0.10499 0.32630 -0.10580
 C544 C 0.09302 0.35275 -0.09374
 C545 C 0.06857 0.36581 -0.10667
 C546 C 0.05712 0.39168 -0.09517
 C547 C 0.07005 0.40482 -0.07059
 C548 C 0.09453 0.39151 -0.05765
 C549 C 0.10595 0.36563 -0.06919
 H550 H 0.09554 0.27499 -0.16296
 H551 H 0.11641 0.23083 -0.18438
 H552 H 0.18338 0.23073 -0.11730
 H553 H 0.16200 0.27488 -0.09639
 H554 H 0.05839 0.35602 -0.12568
 H555 H 0.03819 0.40142 -0.10553
 H556 H 0.10489 0.40111 -0.03866
 H557 H 0.12488 0.35570 -0.05901
 C558 C -0.12783 0.27853 0.12815
 C559 C -0.11517 0.26588 0.15294
 C560 C -0.12718 0.24061 0.16515
 C561 C -0.15217 0.22753 0.15273
 C562 C -0.16461 0.24050 0.12763
 C563 C -0.15251 0.26576 0.11551
 C564 C -0.11567 0.30475 0.11585
 C565 C -0.10558 0.32680 0.10562
 C566 C -0.09362 0.35322 0.09353
 C567 C -0.06911 0.36616 0.10641
 C568 C -0.05764 0.39200 0.09488
 C569 C -0.07061 0.40519 0.07033
 C570 C -0.09515 0.39200 0.05745
 C571 C -0.10659 0.36616 0.06902
 H572 H -0.09605 0.27561 0.16290
 H573 H -0.11683 0.23148 0.18439
 H574 H -0.18377 0.23128 0.11728
 H575 H -0.16249 0.27540 0.09631
 H576 H -0.05890 0.35632 0.12538
 H577 H -0.03868 0.40164 0.10520
 H578 H -0.10552 0.40165 0.03848
 H579 H -0.12556 0.35632 0.05888
 C580 C -0.12730 0.72160 -0.12849
 C581 C -0.11465 0.73426 -0.15327
 C582 C -0.12669 0.75956 -0.16544
 C583 C -0.15170 0.77266 -0.15299
 C584 C -0.16411 0.75967 -0.12790
 C585 C -0.15199 0.73438 -0.11582
 C586 C -0.11511 0.69534 -0.11622
 C587 C -0.10502 0.67325 -0.10601
 C588 C -0.09310 0.64680 -0.09390
 C589 C -0.06861 0.63374 -0.10676
 C590 C -0.05720 0.60786 -0.09521
 C591 C -0.07020 0.59474 -0.07065
 C592 C -0.09472 0.60805 -0.05779
 C593 C -0.10610 0.63393 -0.06938
 H594 H -0.09552 0.72452 -0.16326
 H595 H -0.11636 0.76871 -0.18468
 H596 H -0.18328 0.76890 -0.11753
 H597 H -0.16195 0.72473 -0.09663
 H598 H -0.05837 0.64352 -0.12574
 H599 H -0.03824 0.59813 -0.10551
 H600 H -0.10513 0.59846 -0.03882
 H601 H -0.12506 0.64386 -0.05925
 C602 C 0.12731 0.72121 0.12771
 C603 C 0.11461 0.73394 0.15245
 C604 C 0.12662 0.75925 0.16458
 C605 C 0.15157 0.77218 0.15208
 C606 C 0.16408 0.75924 0.12710
 C607 C 0.15202 0.73394 0.11503
 C608 C 0.11516 0.69495 0.11549
 C609 C 0.10508 0.67285 0.10535
 C610 C 0.09315 0.64639 0.09335
 C611 C 0.06866 0.63345 0.10628
 C612 C 0.05722 0.60757 0.09484
 C613 C 0.07020 0.59433 0.07031
 C614 C 0.09472 0.60752 0.05738
 C615 C 0.10612 0.63340 0.06887
 H616 H 0.09548 0.72425 0.16245
 H617 H 0.11640 0.76858 0.18378
 H618 H 0.18326 0.76857 0.11689
 H619 H 0.16203 0.72424 0.09587
 H620 H 0.05845 0.64333 0.12524
 H621 H 0.03827 0.59793 0.10519
 H622 H 0.10510 0.59784 0.03843
 H623 H 0.12508 0.64325 0.05869
 C624 C 0.27824 1.12751 0.87231
 C625 C 0.26550 1.11486 0.84757
 C626 C 0.24020 1.12696 0.83544
 C627 C 0.22729 1.15194 0.84792
 C628 C 0.24023 1.16440 0.87291
 C629 C 0.26553 1.15226 0.88498
 C630 C 0.30451 1.11528 0.88453
 C631 C 0.32660 1.10514 0.89466
 C632 C 0.35308 1.09315 0.90666
 C633 C 0.36607 1.06867 0.89373
 C634 C 0.39197 1.05720 0.90518
 C635 C 0.40518 1.07015 0.92971
 C636 C 0.39194 1.09466 0.94265
 C637 C 0.36604 1.10609 0.93116
 H638 H 0.27518 1.09571 0.83758
 H639 H 0.23087 1.11677 0.81623
 H640 H 0.23091 1.18361 0.88310
 H641 H 0.27523 1.16223 0.90414
 H642 H 0.35621 1.05848 0.87476
 H643 H 0.40166 1.03826 0.89482
 H644 H 0.40160 1.10502 0.96160
 H645 H 0.35616 1.12504 0.94134
 C646 C 0.27863 0.87260 1.12775
 C647 C 0.26585 0.88529 1.15248
 C648 C 0.24054 0.87325 1.16457
 C649 C 0.22765 0.84829 1.15207
 C650 C 0.24064 0.83579 1.12711
 C651 C 0.26596 0.84788 1.11507
 C652 C 0.30491 0.88478 1.11558
 C653 C 0.32702 0.89489 1.10548
 C654 C 0.35350 0.90684 1.09353
 C655 C 0.36642 0.93132 1.10649
 C656 C 0.39232 0.94276 1.09508
 C657 C 0.40560 0.92981 1.07056
 C658 C 0.39243 0.90530 1.05761
 C659 C 0.36653 0.89389 1.06905
 H660 H 0.27550 0.90443 1.16247
 H661 H 0.23116 0.88345 1.18376
 H662 H 0.23135 0.81660 1.11691
 H663 H 0.27569 0.83789 1.09592
 H664 H 0.35651 0.94151 1.12544
 H665 H 0.40196 0.96170 1.10544
 H666 H 0.40214 0.89494 1.03866
 H667 H 0.35670 0.87495 1.05886
 C668 C 0.72162 1.12815 1.12763
 C669 C 0.73428 1.15289 1.11497
 C670 C 0.75954 1.16504 1.12707
 C671 C 0.77249 1.15257 1.15207
 C672 C 0.75962 1.12760 1.16455
 C673 C 0.73436 1.11551 1.15239
 C674 C 0.69540 1.11592 1.11540
 C675 C 0.67334 1.10575 1.10527
 C676 C 0.64691 1.09371 1.09329
 C677 C 0.63389 1.10659 1.06878
 C678 C 0.60803 1.09509 1.05732
 C679 C 0.59489 1.07058 1.07030
 C680 C 0.60817 1.05770 1.09485
 C681 C 0.63403 1.06923 1.10627
 H682 H 0.72458 1.16286 1.09580
 H683 H 0.76883 1.18424 1.11688
 H684 H 0.76896 1.11742 1.18376
 H685 H 0.72471 1.09635 1.16238
 H686 H 0.64368 1.12554 1.05856
 H687 H 0.59832 1.10540 1.03835
 H688 H 0.59857 1.03875 1.10525
 H689 H 0.64393 1.05909 1.12525
 C690 C 0.72197 0.87220 0.87225
 C691 C 0.73471 0.88486 0.84750
 C692 C 0.75999 0.87274 0.83535
 C693 C 0.77287 0.84772 0.84780
 C694 C 0.75992 0.83525 0.87278
 C695 C 0.73465 0.84742 0.88488
 C696 C 0.69572 0.88446 0.88448
 C697 C 0.67365 0.89464 0.89462
 C698 C 0.64719 0.90667 0.90663
 C699 C 0.63419 0.93112 0.89364
 C700 C 0.60831 0.94263 0.90510
 C701 C 0.59513 0.92976 0.92970
 C702 C 0.60839 0.90529 0.94269
 C703 C 0.63427 0.89382 0.93119
 H704 H 0.72506 0.90404 0.83754
 H705 H 0.76934 0.88293 0.81614
 H706 H 0.76922 0.81602 0.88295
 H707 H 0.72494 0.83745 0.90404
 H708 H 0.64402 0.94124 0.87462
 H709 H 0.59861 0.96154 0.89470
 H710 H 0.59876 0.89499 0.96170
 H711 H 0.64416 0.87489 0.94142
   
