data_POSCAR
  _audit_creation_date              2014-09-24
  _audit_creation_method            'ToBaCCo'
  _symmetry_space_group_name_H-M    'P1'
  _symmetry_Int_Tables_number       1
  _symmetry_cell_setting            triclinic
  loop_
  _symmetry_equiv_pos_as_xyz
 x,y,z
_cell_length_a 36.8356
_cell_length_b 36.6913
_cell_length_c 25.2604
_cell_angle_alpha 90.442900
_cell_angle_beta 90.108000
_cell_angle_gamma 119.886400
loop_
  _atom_site_label
  _atom_site_type_symbol
  _atom_site_fract_x
  _atom_site_fract_y
  _atom_site_fract_z
C1 C 0.11937 0.58312 0.07254
 C2 C 0.12061 0.54689 0.07120
 C3 C 0.08352 0.51657 0.04811
 N4 N 0.05984 0.53392 0.03407
 C5 C 0.08122 0.57469 0.05090
 C6 C 0.07229 0.47357 0.04152
 C7 C 0.03905 0.44669 0.00815
 C8 C 0.04103 0.42056 -0.02982
 C9 C 0.00264 0.40084 -0.05493
 C10 C -0.02243 0.41409 -0.02969
 N11 N 0.00093 0.44341 0.00753
 C12 C -0.06551 0.40047 -0.03944
 C13 C -0.07804 0.43099 -0.03007
 C14 C -0.11824 0.42408 -0.02084
 C15 C -0.11634 0.46221 -0.02449
 C16 C -0.07542 0.49120 -0.03663
 N17 N -0.05198 0.47236 -0.03934
 C18 C -0.06150 0.53248 -0.05459
 C19 C -0.02390 0.56570 -0.03239
 C20 C -0.00799 0.60861 -0.03850
 C21 C 0.02824 0.62877 -0.00865
 C22 C 0.03298 0.59784 0.01609
 N23 N 0.00104 0.55978 0.00175
 C24 C 0.06679 0.60454 0.04917
 H25 H 0.14446 0.61215 0.08858
 H26 H 0.14657 0.54412 0.08618
 H27 H -0.00511 0.53125 0.01778
 H28 H 0.06807 0.41777 -0.04010
 H29 H -0.00435 0.38105 -0.08963
 H30 H -0.14665 0.39547 -0.01226
 H31 H -0.14247 0.46778 -0.02103
 H32 H 0.04934 0.66236 -0.00731
 H33 H -0.00938 0.45836 0.03388
 H34 H -0.02108 0.62442 -0.06067
 C35 C 0.55318 0.41481 -0.04388
 C36 C 0.59031 0.45153 -0.04242
 C37 C 0.58184 0.48298 -0.02768
 N38 N 0.54034 0.46587 -0.01824
 C39 C 0.52235 0.42408 -0.02897
 C40 C 0.61120 0.52694 -0.03082
 C41 C 0.60775 0.55635 0.00250
 C42 C 0.64103 0.59362 0.02155
 C43 C 0.62471 0.61069 0.05652
 C44 C 0.58187 0.58340 0.05806
 N45 N 0.57203 0.55036 0.02530
 C46 C 0.55369 0.58701 0.09297
 C47 C 0.51694 0.55046 0.11109
 C48 C 0.49649 0.54830 0.15800
 C49 C 0.45889 0.51192 0.15637
 C50 C 0.45728 0.49186 0.10888
 N51 N 0.49323 0.51533 0.08180
 C52 C 0.42100 0.45722 0.08589
 C53 C 0.42595 0.43861 0.03955
 C54 C 0.39989 0.42509 -0.00448
 C55 C 0.41623 0.40788 -0.03912
 C56 C 0.45167 0.41133 -0.01497
 N57 N 0.45825 0.43166 0.03189
 C58 C 0.47813 0.39697 -0.03497
 H59 H 0.55036 0.38575 -0.05801
 H60 H 0.61979 0.45433 -0.05393
 H61 H 0.48202 0.43768 0.05918
 H62 H 0.67402 0.60566 0.01468
 H63 H 0.64298 0.63813 0.08122
 H64 H 0.50625 0.57135 0.18957
 H65 H 0.43525 0.50351 0.18620
 H66 H 0.40444 0.39616 -0.07852
 H67 H 0.54208 0.52651 0.01584
 H68 H 0.37328 0.42920 -0.01234
 C69 C 0.42581 0.88665 0.07012
 C70 C 0.46229 0.88598 0.06999
 C71 C 0.49338 0.92484 0.05215
 N72 N 0.47606 0.94937 0.04212
 C73 C 0.43466 0.92623 0.05404
 C74 C 0.53751 0.93901 0.05207
 C75 C 0.56576 0.97791 0.02820
 C76 C 0.60756 1.00421 0.04083
 C77 C 0.62377 1.03565 0.00371
 C78 C 0.59079 1.02970 -0.02874
 N79 N 0.55578 0.99416 -0.01346
 C80 C 0.59171 1.05424 -0.07270
 C81 C 0.55289 1.04505 -0.09511
 C82 C 0.54485 1.04736 -0.14823
 C83 C 0.50701 1.04608 -0.15057
 C84 C 0.49294 1.04216 -0.09886
 N85 N 0.52097 1.04135 -0.06528
 C86 C 0.45887 1.04689 -0.08188
 C87 C 0.43181 1.01947 -0.04257
 C88 C 0.38929 1.00508 -0.03916
 C89 C 0.37378 0.97434 -0.00108
 C90 C 0.40733 0.97105 0.01839
 N91 N 0.44230 0.99853 -0.00743
 C92 C 0.40474 0.94052 0.05473
 H93 H 0.39631 0.86049 0.08241
 H94 H 0.46435 0.85951 0.08423
 H95 H 0.47226 1.00423 0.00057
 H96 H 0.62486 1.00276 0.07447
 H97 H 0.65632 1.05915 0.00221
 H98 H 0.56515 1.05181 -0.18141
 H99 H 0.49238 1.04921 -0.18605
 H100 H 0.34090 0.95430 0.00720
 H101 H 0.52706 0.97945 -0.03340
 H102 H 0.37062 1.01300 -0.06462
 C103 C 0.87504 0.45399 0.52865
 C104 C 0.87582 0.41707 0.52938
 C105 C 0.91758 0.42769 0.52825
 N106 N 0.94227 0.46999 0.52751
 C107 C 0.91635 0.48620 0.52731
 C108 C 0.93258 0.39913 0.53598
 C109 C 0.96659 0.40293 0.50507
 C110 C 0.97871 0.37299 0.49783
 C111 C 1.01108 0.38910 0.46167
 C112 C 1.01814 0.42861 0.44756
 N113 N 0.98981 0.43558 0.47284
 C114 C 1.04683 0.45629 0.40914
 C115 C 1.04228 0.49049 0.39130
 C116 C 1.04605 0.50359 0.33920
 C117 C 1.04662 0.54126 0.34022
 C118 C 1.04305 0.54989 0.39287
 N119 N 1.04079 0.51904 0.42403
 C120 C 1.04766 0.58836 0.41252
 C121 C 1.01768 0.58673 0.44944
 C122 C 1.00971 0.61884 0.46276
 C123 C 0.97598 0.60204 0.49682
 C124 C 0.96429 0.56013 0.50407
 N125 N 0.98894 0.55122 0.47343
 C126 C 0.92979 0.52965 0.53387
 H127 H 0.84714 0.45667 0.53031
 H128 H 0.84862 0.38605 0.53169
 H129 H 0.98505 0.52167 0.46700
 H130 H 0.96384 0.34134 0.51281
 H131 H 1.02500 0.37176 0.44498
 H132 H 1.04933 0.48824 0.30430
 H133 H 1.05030 0.56061 0.30631
 H134 H 0.96021 0.61846 0.51044
 H135 H 0.98501 0.46059 0.46614
 H136 H 1.02409 0.65017 0.44673
 C137 C 0.45330 0.58246 0.44176
 C138 C 0.41664 0.54539 0.44148
 C139 C 0.42538 0.51468 0.45794
 N140 N 0.46681 0.53280 0.47020
 C141 C 0.48435 0.57457 0.46001
 C142 C 0.39565 0.47048 0.45621
 C143 C 0.39833 0.44232 0.49207
 C144 C 0.36495 0.40512 0.51045
 C145 C 0.38071 0.38961 0.54815
 C146 C 0.42316 0.41795 0.55230
 N147 N 0.43337 0.44978 0.51816
 C148 C 0.45042 0.41720 0.59127
 C149 C 0.48543 0.45534 0.60845
 C150 C 0.50117 0.46440 0.65973
 C151 C 0.53919 0.50079 0.65734
 C152 C 0.54578 0.51197 0.60446
 N153 N 0.51270 0.48453 0.57502
 C154 C 0.58416 0.54131 0.58134
 C155 C 0.58250 0.56526 0.53818
 C156 C 0.61478 0.59157 0.50494
 C157 C 0.59809 0.60702 0.46862
 C158 C 0.55684 0.59265 0.48264
 N159 N 0.54753 0.56667 0.52434
 C160 C 0.52860 0.60393 0.45952
 H161 H 0.45544 0.61087 0.42702
 H162 H 0.38716 0.54194 0.42843
 H163 H 0.51937 0.55325 0.54507
 H164 H 0.33206 0.39214 0.50148
 H165 H 0.36226 0.36267 0.57287
 H166 H 0.48743 0.44611 0.69491
 H167 H 0.56061 0.51590 0.69016
 H168 H 0.61471 0.62519 0.43457
 H169 H 0.46323 0.47422 0.51073
 H170 H 0.64718 0.59999 0.50535
 C171 C 0.42650 -0.11402 0.49048
 C172 C 0.46434 -0.11302 0.48923
 C173 C 0.49291 -0.07429 0.46867
 N174 N 0.47433 -0.05163 0.45729
 C175 C 0.43376 -0.07600 0.47011
 C176 C 0.53401 -0.06179 0.45273
 C177 C 0.56629 -0.02206 0.47135
 C178 C 0.60906 -0.00450 0.46374
 C179 C 0.62811 0.03375 0.49014
 C180 C 0.59658 0.03821 0.51376
 N181 N 0.55933 0.00413 0.50236
 C182 C 0.60202 0.07348 0.54338
 C183 C 0.57159 0.08699 0.54161
 C184 C 0.57975 0.12683 0.55652
 C185 C 0.54267 0.12637 0.55602
 C186 C 0.51198 0.08623 0.54087
 N187 N 0.53011 0.06254 0.53007
 C188 C 0.46790 0.07173 0.54199
 C189 C 0.43884 0.03568 0.51317
 C190 C 0.40245 0.02998 0.48929
 C191 C 0.38382 -0.00891 0.46462
 C192 C 0.40984 -0.02559 0.47333
 N193 N 0.44294 0.00177 0.50341
 C194 C 0.40321 -0.06543 0.45606
 H195 H 0.39673 -0.14019 0.50241
 H196 H 0.47005 -0.13824 0.49998
 H197 H 0.46559 -0.00377 0.52001
 H198 H 0.62521 -0.01772 0.44226
 H199 H 0.66131 0.05624 0.49031
 H200 H 0.60911 0.15384 0.56812
 H201 H 0.53938 0.15300 0.56724
 H202 H 0.35439 -0.02301 0.44326
 H203 H 0.53078 -0.00232 0.51840
 H204 H 0.39105 0.05203 0.48821
 O205 O 0.23586 0.39982 0.29444
 O206 O 0.16794 0.39930 0.18400
 O207 O 0.24058 0.39921 0.19216
 O208 O 0.16403 0.40136 0.28721
 O209 O 0.19951 0.47057 0.28416
 O210 O 0.27495 0.46856 0.19440
 O211 O 0.20529 0.46865 0.18402
 O212 O 0.26816 0.46920 0.29471
 Cu213 Cu 0.19838 0.39269 0.23940
 Cu214 Cu 0.24038 0.47593 0.23914
 C215 C 0.26440 0.43521 0.31217
 C216 C 0.17486 0.43462 0.16652
 C217 C 0.27180 0.43421 0.17879
 C218 C 0.16845 0.43695 0.30045
 O219 O 0.59660 0.83940 0.30340
 O220 O 0.60393 0.76523 0.20710
 O221 O 0.60302 0.83803 0.19978
 O222 O 0.59925 0.76885 0.30949
 O223 O 0.53028 0.73385 0.30194
 O224 O 0.53399 0.80125 0.19514
 O225 O 0.53505 0.73132 0.20134
 O226 O 0.52790 0.80228 0.29563
 Cu227 Cu 0.60787 0.80678 0.25514
 Cu228 Cu 0.52517 0.76374 0.24754
 C229 C 0.56036 0.83310 0.31556
 C230 C 0.56989 0.73443 0.18954
 C231 C 0.56852 0.83183 0.18019
 C232 C 0.56367 0.73897 0.32343
 O233 O 0.24024 0.84304 0.20607
 O234 O 0.16718 0.76426 0.30313
 O235 O 0.24119 0.83626 0.30904
 O236 O 0.16645 0.77144 0.20112
 O237 O 0.20161 0.73736 0.19429
 O238 O 0.27266 0.79891 0.29973
 O239 O 0.20158 0.72974 0.29386
 O240 O 0.27198 0.80560 0.19945
 Cu241 Cu 0.20048 0.80765 0.25592
 Cu242 Cu 0.24026 0.76455 0.24623
 C243 C 0.26916 0.83749 0.18712
 C244 C 0.17122 0.73244 0.31292
 C245 C 0.27054 0.82901 0.32139
 C246 C 0.17118 0.74224 0.18075
 O247 O 0.76481 0.59228 0.80161
 O248 O 0.83274 0.59131 0.69358
 O249 O 0.75885 0.58968 0.69891
 O250 O 0.83480 0.58854 0.79643
 O251 O 0.80006 0.51932 0.79074
 O252 O 0.72409 0.52042 0.70087
 O253 O 0.79475 0.52209 0.69019
 O254 O 0.73257 0.52290 0.80158
 Cu255 Cu 0.80148 0.59764 0.74733
 Cu256 Cu 0.75946 0.51450 0.74549
 C257 C 0.73677 0.55722 0.81958
 C258 C 0.82584 0.55617 0.67480
 C259 C 0.72714 0.55459 0.68560
 C260 C 0.83048 0.55299 0.80890
 O261 O 0.40109 0.24189 0.70610
 O262 O 0.40385 0.16423 0.79832
 O263 O 0.40343 0.23640 0.80832
 O264 O 0.40007 0.16813 0.69608
 O265 O 0.46906 0.20568 0.69247
 O266 O 0.47251 0.26841 0.80572
 O267 O 0.47271 0.19899 0.79244
 O268 O 0.47012 0.27598 0.70602
 Cu269 Cu 0.39489 0.19907 0.75224
 Cu270 Cu 0.47776 0.24059 0.74874
 C271 C 0.43579 0.27331 0.69230
 C272 C 0.43934 0.16818 0.80975
 C273 C 0.43915 0.26471 0.82512
 C274 C 0.43470 0.17482 0.67672
 O275 O 0.76554 0.17157 0.69739
 O276 O 0.83490 0.24236 0.80440
 O277 O 0.76191 0.17138 0.79997
 O278 O 0.83791 0.24405 0.70061
 O279 O 0.80260 0.27808 0.69924
 O280 O 0.72954 0.20823 0.79698
 O281 O 0.80077 0.27758 0.80141
 O282 O 0.73311 0.20852 0.69622
 Cu283 Cu 0.80375 0.20387 0.75085
 Cu284 Cu 0.76344 0.24680 0.74844
 C285 C 0.73661 0.17764 0.67986
 C286 C 0.82969 0.27235 0.82053
 C287 C 0.73174 0.17692 0.81373
 C288 C 0.83290 0.27382 0.68346
 C289 C 0.09751 0.45722 0.07188
 C290 C 0.08233 0.40945 0.07443
 C291 C 0.10761 0.40000 0.10481
 C292 C 0.14526 0.43910 0.12975
 C293 C 0.16774 0.46763 0.08271
 C294 C 0.14285 0.47662 0.05235
 C295 C 0.10013 0.46942 0.13079
 C296 C 0.12537 0.46083 0.16029
 H297 H 0.05377 0.38510 0.05608
 H298 H 0.10086 0.36803 0.11131
 H299 H 0.20019 0.47841 0.07281
 H300 H 0.15409 0.49507 0.01655
 H301 H 0.08204 0.48234 0.14845
 H302 H 0.12890 0.46683 0.20271
 C303 C 0.56231 0.63009 0.11506
 C304 C 0.57831 0.63755 0.17253
 C305 C 0.58143 0.67247 0.19580
 C306 C 0.56898 0.69798 0.15983
 C307 C 0.59663 0.70719 0.11051
 C308 C 0.59283 0.67159 0.08655
 C309 C 0.52154 0.63214 0.11561
 C310 C 0.52471 0.66657 0.13952
 H311 H 0.58756 0.61743 0.19279
 H312 H 0.59348 0.68210 0.23579
 H313 H 0.61531 0.73834 0.09405
 H314 H 0.60753 0.67306 0.04889
 H315 H 0.49287 0.60946 0.09555
 H316 H 0.49852 0.67234 0.13949
 C317 C 0.36598 0.91655 0.09057
 C318 C 0.37843 0.90741 0.14514
 C319 C 0.34583 0.88196 0.17609
 C320 C 0.30283 0.86851 0.15151
 C321 C 0.30497 0.91044 0.13816
 C322 C 0.33855 0.93605 0.10679
 C323 C 0.33468 0.87371 0.06603
 C324 C 0.30230 0.84869 0.09777
 H325 H 0.41048 0.92197 0.15961
 H326 H 0.35035 0.87470 0.21635
 H327 H 0.28417 0.92042 0.15482
 H328 H 0.34659 0.96819 0.09878
 H329 H 0.33748 0.86422 0.02612
 H330 H 0.27751 0.81792 0.08491
 C331 C 0.90435 0.54106 0.57231
 C332 C 0.92565 0.58494 0.59946
 C333 C 0.89983 0.59142 0.63241
 C334 C 0.85558 0.55297 0.63685
 C335 C 0.83900 0.54239 0.57993
 C336 C 0.86452 0.53660 0.54631
 C337 C 0.88911 0.51155 0.62052
 C338 C 0.86360 0.51743 0.65343
 H339 H 0.95901 0.60700 0.59862
 H340 H 0.91115 0.61950 0.65685
 H341 H 0.81008 0.54065 0.56684
 H342 H 0.85731 0.52994 0.50445
 H343 H 0.89997 0.48978 0.63027
 H344 H 0.85262 0.50025 0.69021
 C345 C 0.44355 0.37615 0.61627
 C346 C 0.48566 0.37751 0.62497
 C347 C 0.48265 0.34366 0.64967
 C348 C 0.43753 0.30990 0.66305
 C349 C 0.42002 0.33322 0.69546
 C350 C 0.42296 0.36753 0.67103
 C351 C 0.41772 0.33445 0.58485
 C352 C 0.41424 0.29979 0.60972
 H353 H 0.51547 0.40213 0.61021
 H354 H 0.51008 0.34044 0.65589
 H355 H 0.40593 0.32320 0.73419
 H356 H 0.41111 0.38656 0.68875
 H357 H 0.40560 0.33238 0.54512
 H358 H 0.39843 0.26866 0.59176
 C359 C 0.64111 0.09885 0.57891
 C360 C 0.62800 0.10703 0.63371
 C361 C 0.66014 0.13262 0.66589
 C362 C 0.70345 0.14749 0.64206
 C363 C 0.70267 0.10637 0.62672
 C364 C 0.66969 0.08055 0.59410
 C365 C 0.67158 0.14232 0.55617
 C366 C 0.70356 0.16774 0.58922
 H367 H 0.59581 0.09194 0.64727
 H368 H 0.65510 0.13939 0.70630
 H369 H 0.72419 0.09710 0.64270
 H370 H 0.66304 0.04898 0.58446
 H371 H 0.66859 0.15192 0.51661
 H372 H 0.72778 0.19899 0.57789
 C373 C 0.45156 0.07804 0.89209
 C374 C 0.42811 0.06277 0.83892
 C375 C 0.42383 0.09257 0.81234
 C376 C 0.44288 0.13522 0.84114
 C377 C 0.42244 0.12533 0.89603
 C378 C 0.42736 0.09583 0.92307
 C379 C 0.49312 0.11835 0.87924
 C380 C 0.48866 0.14749 0.85228
 H381 H 0.41545 0.03093 0.82375
 H382 H 0.40777 0.08617 0.77441
 H383 H 0.40750 0.14167 0.91327
 H384 H 0.41729 0.08822 0.96380
 H385 H 0.52372 0.12475 0.89299
 H386 H 0.51559 0.17777 0.84313
 C387 C 0.64766 0.54064 0.92969
 C388 C 0.63119 0.51723 0.87630
 C389 C 0.66121 0.52374 0.84097
 C390 C 0.70578 0.55416 0.86043
 C391 C 0.70442 0.59418 0.87599
 C392 C 0.67354 0.58705 0.91179
 C393 C 0.68084 0.52997 0.94914
 C394 C 0.71060 0.53638 0.91295
 H395 H 0.59820 0.49884 0.86590
 H396 H 0.65361 0.51059 0.80113
 H397 H 0.72379 0.62458 0.85794
 H398 H 0.66633 0.61144 0.92217
 H399 H 0.68127 0.51904 0.98883
 H400 H 0.73633 0.53088 0.92171
 C401 C 0.90763 0.36370 0.92731
 C402 C 0.91897 0.32853 0.91937
 C403 C 0.89402 0.29800 0.88345
 C404 C 0.85871 0.30412 0.86054
 C405 C 0.83596 0.30728 0.90966
 C406 C 0.86161 0.33741 0.94510
 C407 C 0.90604 0.37873 0.87108
 C408 C 0.88083 0.34806 0.83679
 H409 H 0.93975 0.32384 0.94530
 H410 H 0.89598 0.26971 0.87744
 H411 H 0.80412 0.28371 0.91954
 H412 H 0.85167 0.33633 0.98570
 H413 H 0.92413 0.41131 0.85883
 H414 H 0.87755 0.35453 0.79571
 C415 C 0.54155 0.91141 0.41654
 C416 C 0.57014 0.93419 0.36895
 C417 C 0.57730 0.90864 0.33616
 C418 C 0.55457 0.86230 0.35277
 C419 C 0.56854 0.86273 0.41016
 C420 C 0.56177 0.88827 0.44336
 C421 C 0.50171 0.87635 0.38883
 C422 C 0.50841 0.85079 0.35671
 H423 H 0.58211 0.96713 0.36019
 H424 H 0.59577 0.92002 0.30040
 H425 H 0.58259 0.84450 0.42357
 H426 H 0.57009 0.89173 0.48507
 H427 H 0.47127 0.87418 0.38889
 H428 H 0.48320 0.82701 0.33253
 C429 C 0.35799 0.45547 0.41781
 C430 C 0.37220 0.47734 0.36382
 C431 C 0.34067 0.46968 0.33012
 C432 C 0.29692 0.43937 0.35154
 C433 C 0.29941 0.40006 0.36660
 C434 C 0.33186 0.40855 0.40074
 C435 C 0.32532 0.46630 0.43892
 C436 C 0.29397 0.45844 0.40433
 H437 H 0.40471 0.49566 0.35187
 H438 H 0.34661 0.48217 0.29026
 H439 H 0.27974 0.36919 0.34907
 H440 H 0.34014 0.38482 0.41015
 H441 H 0.32650 0.47856 0.47853
 H442 H 0.26846 0.46397 0.41439
 C443 C 0.08013 0.62756 0.38960
 C444 C 0.11888 0.62489 0.37171
 C445 C 0.14837 0.65939 0.34687
 C446 C 0.13814 0.69515 0.34286
 C447 C 0.09505 0.67511 0.31567
 C448 C 0.06494 0.64018 0.33999
 C449 C 0.10038 0.66758 0.42525
 C450 C 0.13019 0.70300 0.40040
 H451 H 0.12443 0.59925 0.38124
 H452 H 0.17780 0.66181 0.33502
 H453 H 0.08864 0.68769 0.28035
 H454 H 0.03291 0.62310 0.32538
 H455 H 0.09438 0.66766 0.46726
 H456 H 0.14829 0.73294 0.42085
 C457 C 0.91208 0.53951 0.90835
 C458 C 0.93440 0.57320 0.86523
 C459 C 0.90778 0.57880 0.83278
 C460 C 0.86121 0.54939 0.84501
 C461 C 0.85628 0.50524 0.84244
 C462 C 0.88299 0.50036 0.87424
 C463 C 0.88282 0.55202 0.93650
 C464 C 0.85639 0.55709 0.90360
 H465 H 0.96779 0.58873 0.85775
 H466 H 0.91876 0.59983 0.79921
 H467 H 0.83666 0.48101 0.81393
 H468 H 0.88600 0.47246 0.87068
 H469 H 0.88304 0.55668 0.97903
 H470 H 0.83414 0.56602 0.91801
 C471 C 0.46259 0.35967 0.93102
 C472 C 0.47730 0.32904 0.94917
 C473 C 0.46890 0.29742 0.91426
 C474 C 0.44440 0.29739 0.86515
 C475 C 0.40539 0.29691 0.88769
 C476 C 0.41478 0.32919 0.92294
 C477 C 0.47930 0.37309 0.87463
 C478 C 0.47011 0.34103 0.84085
 H479 H 0.49127 0.33085 0.98771
 H480 H 0.47615 0.27278 0.92281
 H481 H 0.37363 0.27150 0.88085
 H482 H 0.39047 0.32899 0.94722
 H483 H 0.49607 0.40557 0.86175
 H484 H 0.47909 0.34633 0.79945
 C485 C 0.63194 0.08900 0.90093
 C486 C 0.67155 0.11670 0.93478
 C487 C 0.70535 0.14517 0.90620
 C488 C 0.69611 0.14490 0.84680
 C489 C 0.67962 0.09946 0.82824
 C490 C 0.64659 0.07052 0.85651
 C491 C 0.62505 0.12282 0.87405
 C492 C 0.65771 0.15100 0.84515
 H493 H 0.67128 0.12031 0.97733
 H494 H 0.73370 0.16952 0.92509
 H495 H 0.69293 0.09069 0.79559
 H496 H 0.63189 0.03709 0.84794
 H497 H 0.59812 0.12679 0.88086
 H498 H 0.65700 0.17717 0.82643
 C499 C 0.07874 0.44949 0.38394
 C500 C 0.06264 0.42271 0.33306
 C501 C 0.09221 0.41826 0.30623
 C502 C 0.13566 0.44052 0.33242
 C503 C 0.14630 0.48649 0.33963
 C504 C 0.11747 0.49116 0.36701
 C505 C 0.09937 0.42887 0.41652
 C506 C 0.12853 0.42352 0.38915
 H507 H 0.03038 0.40815 0.31942
 H508 H 0.08514 0.40007 0.26975
 H509 H 0.17559 0.51369 0.32805
 H510 H 0.12353 0.52220 0.37900
 H511 H 0.09482 0.42279 0.45863
 H512 H 0.14713 0.41157 0.40753
 C513 C 0.54398 0.64453 0.42651
 C514 C 0.53085 0.63146 0.36855
 C515 C 0.53828 0.66324 0.33590
 C516 C 0.55920 0.70649 0.36268
 C517 C 0.53101 0.70261 0.40944
 C518 C 0.52413 0.67122 0.44340
 C519 C 0.59093 0.67901 0.42346
 C520 C 0.59891 0.71092 0.38904
 H521 H 0.51707 0.59929 0.35408
 H522 H 0.53044 0.65797 0.29403
 H523 H 0.52015 0.72470 0.41742
 H524 H 0.50781 0.66704 0.48057
 H525 H 0.61445 0.68339 0.45252
 H526 H 0.62931 0.73925 0.38707
 C527 C 0.36844 0.90684 0.42111
 C528 C 0.36333 0.92877 0.37195
 C529 C 0.33025 0.90319 0.34003
 C530 C 0.30544 0.85751 0.35891
 C531 C 0.33877 0.84417 0.36468
 C532 C 0.37154 0.86987 0.39593
 C533 C 0.32531 0.88600 0.44824
 C534 C 0.29251 0.86036 0.41579
 H535 H 0.38493 0.96123 0.36178
 H536 H 0.32352 0.91407 0.30343
 H537 H 0.33900 0.81893 0.34224
 H538 H 0.39909 0.86646 0.39620
 H539 H 0.32099 0.89101 0.48962
 H540 H 0.26037 0.84360 0.42944
 C541 C 0.55259 0.91253 0.08318
 C542 C 0.59930 0.92393 0.08672
 C543 C 0.60630 0.89804 0.11913
 C544 C 0.56597 0.86226 0.14304
 C545 C 0.54583 0.88440 0.17182
 C546 C 0.53941 0.91059 0.14126
 C547 C 0.53197 0.86668 0.06297
 C548 C 0.53795 0.84038 0.09473
 H549 H 0.62328 0.94385 0.05904
 H550 H 0.63631 0.89923 0.12097
 H551 H 0.53863 0.88102 0.21381
 H552 H 0.52682 0.92948 0.15751
 H553 H 0.51554 0.85624 0.02530
 H554 H 0.52637 0.80764 0.08426
 C555 C 0.37755 0.44604 0.10739
 C556 C 0.37169 0.48450 0.10302
 C557 C 0.33637 0.47976 0.12525
 C558 C 0.30871 0.43654 0.15020
 C559 C 0.30059 0.40489 0.10517
 C560 C 0.33666 0.40938 0.08307
 C561 C 0.37257 0.43438 0.16636
 C562 C 0.33732 0.43034 0.18881
 H563 H 0.39316 0.51294 0.08214
 H564 H 0.32797 0.50417 0.12279
 H565 H 0.26975 0.37908 0.09489
 H566 H 0.33545 0.38563 0.05625
 H567 H 0.39397 0.42755 0.18796
 H568 H 0.32897 0.42030 0.22945
 C569 C 0.09090 0.64504 0.08308
 C570 C 0.09669 0.63350 0.13976
 C571 C 0.12273 0.66643 0.17053
 C572 C 0.13990 0.70921 0.14385
 C573 C 0.16043 0.70637 0.09256
 C574 C 0.13494 0.67354 0.06082
 C575 C 0.07408 0.67577 0.09404
 C576 C 0.10021 0.70981 0.12563
 H577 H 0.07986 0.60182 0.15533
 H578 H 0.12827 0.66249 0.21181
 H579 H 0.19202 0.72948 0.08102
 H580 H 0.14486 0.66868 0.02224
 H581 H 0.04312 0.66974 0.08301
 H582 H 0.09194 0.73285 0.13915
 C583 C 0.45300 0.09656 0.57670
 C584 C 0.47395 0.10505 0.63172
 C585 C 0.46669 0.13041 0.66336
 C586 C 0.43786 0.14479 0.63887
 C587 C 0.45790 0.16504 0.58612
 C588 C 0.46518 0.13981 0.55355
 C589 C 0.40607 0.07773 0.59135
 C590 C 0.39816 0.10338 0.62349
 H591 H 0.49131 0.09024 0.64587
 H592 H 0.47818 0.13724 0.70394
 H593 H 0.46425 0.19608 0.57445
 H594 H 0.47775 0.14937 0.51405
 H595 H 0.38171 0.04596 0.58194
 H596 H 0.36731 0.09379 0.63917
 C597 C 0.62496 0.54564 0.60525
 C598 C 0.61800 0.50472 0.63137
 C599 C 0.65145 0.50839 0.65809
 C600 C 0.69070 0.55230 0.65499
 C601 C 0.69737 0.56056 0.59530
 C602 C 0.66271 0.55602 0.56902
 C603 C 0.64252 0.57918 0.64952
 C604 C 0.67641 0.58248 0.67549
 H605 H 0.59039 0.47410 0.62524
 H606 H 0.65060 0.48114 0.67586
 H607 H 0.72446 0.56348 0.57455
 H608 H 0.66036 0.55166 0.52644
 H609 H 0.62913 0.59881 0.65965
 H610 H 0.69177 0.60479 0.70770
 C611 C 0.90886 0.36373 0.57639
 C612 C 0.93134 0.34274 0.60395
 C613 C 0.90667 0.31178 0.63893
 C614 C 0.86235 0.30564 0.64449
 C615 C 0.87016 0.34967 0.65900
 C616 C 0.89448 0.37971 0.62424
 C617 C 0.86874 0.32692 0.55268
 C618 C 0.84442 0.29702 0.58810
 H619 H 0.96464 0.35404 0.60127
 H620 H 0.91877 0.29610 0.66358
 H621 H 0.85983 0.35727 0.69558
 H622 H 0.90496 0.41262 0.63224
 H623 H 0.86055 0.32429 0.51097
 H624 H 0.81548 0.26899 0.57663
   
