data_POSCAR
  _audit_creation_date              2014-09-24
  _audit_creation_method            'ToBaCCo'
  _symmetry_space_group_name_H-M    'P1'
  _symmetry_Int_Tables_number       1
  _symmetry_cell_setting            triclinic
  loop_
  _symmetry_equiv_pos_as_xyz
 x,y,z
_cell_length_a 49.1617
_cell_length_b 49.7130
_cell_length_c 47.1112
_cell_angle_alpha 90.397800
_cell_angle_beta 90.370100
_cell_angle_gamma 91.490400
loop_
  _atom_site_label
  _atom_site_type_symbol
  _atom_site_fract_x
  _atom_site_fract_y
  _atom_site_fract_z
N1 N 0.18064 0.19996 0.25130
 N2 N 0.19463 0.17796 0.24821
 C3 C 0.19232 0.16297 0.27174
 C4 C 0.17569 0.17607 0.29055
 C5 C 0.16867 0.19959 0.27699
 H6 H 0.20131 0.14353 0.27457
 H7 H 0.15535 0.21488 0.28490
 Cu8 Cu 0.21286 0.16958 0.21313
 Cu9 Cu 0.17840 0.22657 0.22103
 Cu10 Cu 0.21908 0.21603 0.16216
 N11 N 0.23895 0.16606 0.18288
 N12 N 0.24144 0.18419 0.16283
 C13 C 0.26080 0.17656 0.14454
 C14 C 0.27090 0.15237 0.15382
 C15 C 0.25660 0.14633 0.17821
 H16 H 0.26704 0.18771 0.12595
 H17 H 0.25889 0.12891 0.19156
 N18 N 0.19489 0.24689 0.16567
 N19 N 0.17933 0.25093 0.18799
 C20 C 0.16437 0.27285 0.18338
 C21 C 0.17087 0.28299 0.15695
 C22 C 0.19026 0.26610 0.14635
 H23 H 0.14933 0.28049 0.19779
 H24 H 0.19968 0.26734 0.12571
 H25 H 0.18680 0.20221 0.18665
 H26 H 0.21656 0.21784 0.20604
 N27 N -0.14831 0.80474 0.22963
 N28 N -0.16544 0.82462 0.22958
 C29 C -0.15775 0.84276 0.24957
 C30 C -0.13458 0.83386 0.26282
 C31 C -0.12909 0.80962 0.24972
 H32 H -0.16791 0.86136 0.25393
 H33 H -0.11219 0.79677 0.25415
 Cu34 Cu -0.19542 0.82569 0.20260
 Cu35 Cu -0.15199 0.77462 0.20290
 Cu36 Cu -0.20554 0.77640 0.15439
 N37 N -0.22531 0.82652 0.17552
 N38 N -0.22918 0.80726 0.15653
 C39 C -0.25072 0.81314 0.14006
 C40 C -0.26078 0.83742 0.14926
 C41 C -0.24422 0.84531 0.17180
 H42 H -0.25830 0.80084 0.12255
 H43 H -0.24571 0.86355 0.18428
 N44 N -0.17948 0.74690 0.15563
 N45 N -0.15921 0.74614 0.17414
 C46 C -0.14476 0.72395 0.16908
 C47 C -0.15647 0.71019 0.14633
 C48 C -0.17841 0.72525 0.13833
 H49 H -0.12669 0.71844 0.18064
 H50 H -0.19220 0.72095 0.12082
 H51 H -0.17108 0.79564 0.17109
 H52 H -0.19344 0.77705 0.19653
 N53 N -0.20379 0.20782 -0.27620
 N54 N -0.22235 0.18829 -0.27638
 C55 C -0.21722 0.17117 -0.29787
 C56 C -0.19431 0.18055 -0.31188
 C57 C -0.18631 0.20385 -0.29762
 H58 H -0.22867 0.15276 -0.30243
 H59 H -0.16849 0.21636 -0.30186
 Cu60 Cu -0.25035 0.18578 -0.24748
 Cu61 Cu -0.20239 0.23557 -0.24682
 Cu62 Cu -0.25055 0.23085 -0.19367
 N63 N -0.27643 0.18302 -0.21670
 N64 N -0.27659 0.20075 -0.19588
 C65 C -0.29590 0.19347 -0.17710
 C66 C -0.30836 0.16979 -0.18661
 C67 C -0.29557 0.16375 -0.21183
 H68 H -0.30003 0.20414 -0.15757
 H69 H -0.29947 0.14627 -0.22518
 N70 N -0.22258 0.25989 -0.19500
 N71 N -0.20424 0.26172 -0.21528
 C72 C -0.18718 0.28274 -0.20952
 C73 C -0.19515 0.29460 -0.18442
 C74 C -0.21766 0.27968 -0.17580
 H75 H -0.16970 0.28853 -0.22212
 H76 H -0.22904 0.28259 -0.15651
 H77 H -0.22010 0.21172 -0.21574
 H78 H -0.24313 0.23353 -0.23667
 N79 N 0.16297 0.80156 -0.24605
 N80 N 0.17835 0.82324 -0.24171
 C81 C 0.17017 0.84291 -0.25897
 C82 C 0.14841 0.83311 -0.27493
 C83 C 0.14432 0.80677 -0.26627
 H84 H 0.17923 0.86295 -0.25973
 H85 H 0.12881 0.79262 -0.27388
 Cu86 Cu 0.20721 0.82441 -0.21356
 Cu87 Cu 0.16810 0.76875 -0.22430
 Cu88 Cu 0.22517 0.76783 -0.18061
 N89 N 0.24165 0.82210 -0.19371
 N90 N 0.24872 0.80003 -0.18069
 C91 C 0.27298 0.80443 -0.16778
 C92 C 0.28142 0.83070 -0.17307
 C93 C 0.26112 0.84128 -0.18969
 H94 H 0.28341 0.78984 -0.15505
 H95 H 0.26031 0.86157 -0.19775
 N96 N 0.19871 0.73742 -0.18361
 N97 N 0.17706 0.73771 -0.20035
 C98 C 0.16220 0.71490 -0.19643
 C99 C 0.17508 0.69964 -0.17622
 C100 C 0.19816 0.71445 -0.16859
 H101 H 0.14286 0.71018 -0.20660
 H102 H 0.21286 0.70930 -0.15247
 H103 H 0.18815 0.78518 -0.18928
 H104 H 0.20954 0.77611 -0.22043
 N105 N 0.21947 1.17807 0.74249
 N106 N 0.19810 1.19337 0.74386
 C107 C 0.18368 1.19078 0.71962
 C108 C 0.19647 1.17268 0.70221
 C109 C 0.21917 1.16495 0.71732
 H110 H 0.16457 1.20033 0.71542
 H111 H 0.23378 1.15024 0.71090
 Cu112 Cu 0.18903 1.21298 0.77807
 Cu113 Cu 0.24493 1.17544 0.77424
 Cu114 Cu 0.23321 1.21608 0.83287
 N115 N 0.18450 1.23773 0.80956
 N116 N 0.20171 1.23897 0.83102
 C117 C 0.19304 1.25707 0.85014
 C118 C 0.16915 1.26763 0.84000
 C119 C 0.16435 1.25499 0.81422
 H120 H 0.20310 1.26190 0.87009
 H121 H 0.14726 1.25793 0.80011
 N122 N 0.26390 1.19146 0.83072
 N123 N 0.26832 1.17586 0.80849
 C124 C 0.28985 1.16047 0.81410
 C125 C 0.29933 1.16669 0.84109
 C126 C 0.28248 1.18640 0.85100
 H127 H 0.29763 1.14530 0.79997
 H128 H 0.28326 1.19573 0.87180
 H129 H 0.21881 1.18522 0.80666
 H130 H 0.23744 1.21375 0.78912
 N131 N 0.81701 0.83838 0.77220
 N132 N 0.83548 0.81977 0.77095
 C133 C 0.85448 0.82699 0.75185
 C134 C 0.84751 0.85139 0.74047
 C135 C 0.82362 0.85810 0.75381
 H136 H 0.87211 0.81542 0.74663
 H137 H 0.81201 0.87601 0.75044
 Cu138 Cu 0.83323 0.78771 0.79408
 Cu139 Cu 0.78615 0.83559 0.79790
 Cu140 Cu 0.78530 0.78187 0.84446
 N141 N 0.83440 0.75994 0.82271
 N142 N 0.81558 0.75752 0.84228
 C143 C 0.82149 0.73672 0.85923
 C144 C 0.84529 0.72565 0.84970
 C145 C 0.85295 0.74085 0.82653
 H146 H 0.80953 0.73025 0.87724
 H147 H 0.87080 0.73830 0.81360
 N148 N 0.75651 0.80866 0.84334
 N149 N 0.75678 0.82911 0.82558
 C150 C 0.73497 0.84424 0.83067
 C151 C 0.72041 0.83277 0.85267
 C152 C 0.73457 0.81026 0.86018
 H153 H 0.73033 0.86263 0.81972
 H154 H 0.72954 0.79648 0.87712
 H155 H 0.80742 0.81404 0.82767
 H156 H 0.78492 0.79430 0.80255
 N157 N 0.18595 0.82247 1.24601
 N158 N 0.16608 0.80425 1.24555
 C159 C 0.14632 0.81200 1.26325
 C160 C 0.15421 0.83635 1.27536
 C161 C 0.17947 0.84245 1.26400
 H162 H 0.12749 0.80090 1.26699
 H163 H 0.19203 0.86022 1.26832
 Cu164 Cu 0.16749 0.77217 1.22189
 Cu165 Cu 0.21817 0.81919 1.22253
 Cu166 Cu 0.22266 0.76126 1.18169
 N167 N 0.17122 0.73928 1.19993
 N168 N 0.19283 0.73495 1.18441
 C169 C 0.18951 0.71119 1.17075
 C170 C 0.16451 0.70012 1.17817
 C171 C 0.15347 0.71838 1.19673
 H172 H 0.20380 0.70296 1.15588
 H173 H 0.13364 0.71685 1.20649
 N174 N 0.25081 0.79019 1.18172
 N175 N 0.24913 0.81224 1.19733
 C176 C 0.27072 0.82858 1.19181
 C177 C 0.28664 0.81624 1.17175
 C178 C 0.27349 0.79195 1.16585
 H179 H 0.27427 0.84834 1.20104
 H180 H 0.27967 0.77703 1.15055
 H181 H 0.20057 0.79496 1.19130
 H182 H 0.21691 0.77754 1.22176
 N183 N 0.78271 1.19171 1.28045
 N184 N 0.80275 1.20975 1.28012
 C185 C 0.81898 1.20607 1.30280
 C186 C 0.80868 1.18449 1.31798
 C187 C 0.78561 1.17585 1.30328
 H188 H 0.83771 1.21727 1.30720
 H189 H 0.77271 1.15854 1.30805
 Cu190 Cu 0.80740 1.23450 1.24864
 Cu191 Cu 0.75641 1.18840 1.24945
 Cu192 Cu 0.75980 1.23700 1.19711
 N193 N 0.81047 1.25999 1.21768
 N194 N 0.79158 1.26120 1.19787
 C195 C 0.79894 1.28010 1.17889
 C196 C 0.82376 1.29127 1.18729
 C197 C 0.83049 1.27810 1.21197
 H198 H 0.78745 1.28495 1.16004
 H199 H 0.84883 1.28124 1.22448
 N200 N 0.72951 1.21042 1.19996
 N201 N 0.72830 1.19173 1.21972
 C202 C 0.70632 1.17558 1.21478
 C203 C 0.69326 1.18446 1.19068
 C204 C 0.70841 1.20659 1.18187
 H205 H 0.70074 1.15805 1.22712
 H206 H 0.70491 1.21828 1.16299
 H207 H 0.77896 1.20630 1.21704
 H208 H 0.75878 1.22878 1.24028
 O209 O 0.51756 0.95801 0.96827
 O210 O 0.47615 0.96444 1.06333
 O211 O 0.55736 0.98921 1.03570
 O212 O 0.46807 0.95609 0.97390
 O213 O 0.52766 0.96684 1.06171
 O214 O 0.48124 0.97808 0.93690
 O215 O 0.46664 0.94609 1.02308
 O216 O 0.55330 0.98001 0.98484
 C217 C 0.54270 0.95916 0.97316
 C218 C 0.46646 0.94504 1.04930
 C219 C 0.55158 0.97076 1.05326
 C220 C 0.46426 0.96082 0.94784
 O221 O 0.48374 1.02203 0.96472
 O222 O 0.52612 1.01851 1.06601
 O223 O 0.53246 1.03136 0.97885
 O224 O 0.44509 0.99469 1.03506
 O225 O 0.47510 1.01671 1.06159
 O226 O 0.52749 1.00335 0.94619
 O227 O 0.44804 1.00588 0.98474
 O228 O 0.53544 1.03855 1.02724
 Co229 Co 0.49976 0.98977 0.96819
 Co230 Co 0.50123 0.99174 1.05815
 Co231 Co 0.54136 1.00839 1.00679
 Co232 Co 0.46071 0.97723 1.00468
 O233 O 0.50175 0.99277 1.01134
 C234 C 0.45925 1.02394 0.97026
 C235 C 0.53491 1.03879 1.05342
 C236 C 0.53727 1.02536 0.95388
 C237 C 0.45113 1.01303 1.05295
 O238 O 0.03009 0.47148 0.03603
 O239 O 0.02713 0.51380 -0.06483
 O240 O 0.00300 0.43348 -0.03561
 O241 O 0.03976 0.51955 0.02264
 O242 O 0.02533 0.46333 -0.06120
 O243 O 0.01127 0.51490 0.05467
 O244 O 0.04729 0.52251 -0.02555
 O245 O 0.01373 0.43627 0.01511
 C246 C 0.03189 0.44722 0.03023
 C247 C 0.04745 0.52278 -0.05171
 C248 C 0.02158 0.43957 -0.05312
 C249 C 0.03350 0.52461 0.04745
 O250 O -0.03452 0.50529 0.03155
 O251 O -0.02745 0.46427 -0.06402
 O252 O -0.03669 0.45601 0.02520
 O253 O -0.00249 0.54447 -0.03458
 O254 O -0.02512 0.51516 -0.06139
 O255 O -0.01454 0.46940 0.06275
 O256 O -0.01196 0.54048 0.01594
 O257 O -0.04637 0.45475 -0.02435
 Co258 Co -0.00244 0.48753 0.03203
 Co259 Co 0.00008 0.48909 -0.05784
 Co260 Co -0.01500 0.44887 -0.00532
 Co261 Co 0.01676 0.52853 -0.00560
 O262 O 0.00084 0.48946 -0.01100
 C263 C -0.03319 0.53016 0.02704
 C264 C -0.04735 0.45502 -0.05059
 C265 C -0.03214 0.45270 0.05143
 C266 C -0.02116 0.53878 -0.05247
 O267 O 1.05995 0.02528 0.47215
 O268 O 0.94801 0.02708 0.52303
 O269 O 0.97958 0.05249 0.46356
 O270 O 1.03186 0.05294 0.53649
 O271 O 0.94840 0.02298 0.47057
 O272 O 1.06230 0.02485 0.52335
 O273 O 0.98015 0.05113 0.54500
 O274 O 1.02824 0.05328 0.46640
 C275 C 1.05281 0.04861 0.46624
 C276 C 0.95564 0.04694 0.53838
 C277 C 0.95508 0.04657 0.46449
 C278 C 1.05619 0.04769 0.53273
 O279 O 1.04006 -0.02572 0.52360
 O280 O 0.96756 -0.02633 0.47382
 O281 O 1.02919 0.00413 0.44073
 O282 O 0.98339 0.00084 0.55968
 O283 O 0.96116 -0.02366 0.52782
 O284 O 1.03537 -0.02489 0.47288
 O285 O 1.03347 0.00283 0.55681
 O286 O 0.98019 0.00157 0.44085
 Co287 Co 1.04570 0.00104 0.49799
 Co288 Co 0.96100 0.00116 0.49864
 Co289 Co 1.00432 0.02664 0.45672
 Co290 Co 1.00728 0.02584 0.54462
 O291 O 1.00437 0.01353 0.49976
 C292 C 1.03889 -0.02059 0.54930
 C293 C 0.97205 -0.02162 0.44827
 C294 C 1.03500 -0.01930 0.44739
 C295 C 0.96785 -0.01885 0.55306
 N296 N 1.13796 0.16914 0.35585
 C297 C 1.14602 0.14471 0.36485
 N298 N 1.16458 0.13131 0.34949
 N299 N 1.17467 0.14189 0.32579
 C300 C 1.16645 0.16618 0.31647
 N301 N 1.14810 0.17977 0.33212
 C302 C 1.13272 0.13157 0.38817
 C303 C 1.12067 0.11918 0.40628
 C304 C 1.10507 0.10312 0.42579
 N305 N 1.11429 0.07904 0.43454
 N306 N 1.09808 0.06211 0.44887
 C307 C 1.07207 0.06868 0.45477
 N308 N 1.06309 0.09301 0.44641
 N309 N 1.07929 0.10991 0.43214
 N310 N 0.91826 -0.14848 0.31632
 C311 C 0.90960 -0.12440 0.32598
 N312 N 0.88649 -0.11430 0.31503
 N313 N 0.87247 -0.12775 0.29501
 C314 C 0.88103 -0.15181 0.28523
 N315 N 0.90419 -0.16198 0.29624
 C316 C 0.92446 -0.10944 0.34744
 C317 C 0.93573 -0.09567 0.36536
 C318 C 0.94767 -0.07807 0.38656
 N319 N 0.94485 -0.08374 0.41452
 N320 N 0.95337 -0.06606 0.43424
 C321 C 0.96487 -0.04204 0.42666
 N322 N 0.96793 -0.03654 0.39866
 N323 N 0.95942 -0.05424 0.37894
 N324 N 0.85734 0.16507 0.63459
 C325 C 0.84842 0.14067 0.62480
 N326 N 0.82509 0.12968 0.63530
 N327 N 0.81112 0.14268 0.65504
 C328 C 0.82011 0.16704 0.66504
 N329 N 0.84339 0.17807 0.65434
 C330 C 0.86489 0.12559 0.60568
 C331 C 0.87975 0.11270 0.59089
 C332 C 0.89874 0.09724 0.57505
 N333 N 0.89026 0.07594 0.55880
 N334 N 0.90833 0.06026 0.54629
 C335 C 0.93545 0.06534 0.54974
 N336 N 0.94379 0.08682 0.56580
 N337 N 0.92577 0.10248 0.57823
 N338 N 1.12582 -0.11165 0.67992
 C339 C 1.10442 -0.12316 0.66577
 N340 N 1.09741 -0.14925 0.67095
 N341 N 1.11141 -0.16334 0.68982
 C342 C 1.13288 -0.15178 0.70404
 N343 N 1.13979 -0.12570 0.69874
 C344 C 1.08970 -0.10771 0.64546
 C345 C 1.07833 -0.09373 0.62855
 C346 C 1.06601 -0.07605 0.60855
 N347 N 1.06513 -0.08247 0.58054
 N348 N 1.05582 -0.06502 0.56169
 C349 C 1.04719 -0.04054 0.57022
 N350 N 1.04789 -0.03426 0.59831
 N351 N 1.05718 -0.05171 0.61715
 N352 N 0.31789 1.09898 1.14188
 C353 C 0.33041 1.10723 1.11782
 N354 N 0.32303 1.13063 1.10569
 N355 N 0.30368 1.14534 1.11732
 C356 C 0.29109 1.13713 1.14147
 N357 N 0.29856 1.11366 1.15350
 C358 C 0.35135 1.09139 1.10558
 C359 C 0.36897 1.07779 1.09580
 C360 C 0.38999 1.06138 1.08463
 N361 N 0.41604 1.06493 1.09376
 N362 N 0.43554 1.04944 1.08372
 C363 C 0.42960 1.02985 1.06426
 N364 N 0.40348 1.02634 1.05515
 N365 N 0.38398 1.04184 1.06520
 N366 N 0.33094 0.88393 0.84169
 C367 C 0.34853 0.87142 0.85914
 N368 N 0.34397 0.84511 0.86542
 N369 N 0.32241 0.83172 0.85462
 C370 C 0.30462 0.84424 0.83728
 N371 N 0.30940 0.87055 0.83090
 C372 C 0.37054 0.88635 0.87240
 C373 C 0.38837 0.89909 0.88446
 C374 C 0.40876 0.91424 0.90007
 N375 N 0.41216 0.90978 0.92818
 N376 N 0.43014 0.92451 0.94322
 C377 C 0.44532 0.94421 0.93069
 N378 N 0.44197 0.94864 0.90248
 N379 N 0.42393 0.93389 0.88740
 N380 N 0.68984 0.88897 1.13891
 C381 C 0.67547 0.87911 1.11633
 N382 N 0.68235 0.85520 1.10475
 N383 N 0.70299 0.84156 1.11545
 C384 C 0.71746 0.85141 1.13809
 N385 N 0.71046 0.87536 1.14960
 C386 C 0.65349 0.89408 1.10473
 C387 C 0.63524 0.90713 1.09527
 C388 C 0.61374 0.92311 1.08426
 N389 N 0.58780 0.91913 1.09322
 N390 N 0.56794 0.93432 1.08335
 C391 C 0.57340 0.95405 1.06425
 N392 N 0.59940 0.95795 1.05530
 N393 N 0.61924 0.94276 1.06517
 N394 N 0.64310 1.14764 0.86606
 C395 C 0.63391 1.12394 0.85474
 N396 N 0.64370 1.11577 0.82935
 N397 N 0.66218 1.13082 0.81574
 C398 C 0.67158 1.15452 0.82710
 N399 N 0.66159 1.16269 0.85247
 C400 C 0.61514 1.10710 0.87020
 C401 C 0.59998 1.09294 0.88390
 C402 C 0.58270 1.07615 0.90113
 N403 N 0.57282 1.05213 0.89118
 N404 N 0.55793 1.03602 0.90783
 C405 C 0.55249 1.04342 0.93497
 N406 N 0.56231 1.06753 0.94480
 N407 N 0.57717 1.08361 0.92817
 N408 N 0.12608 0.33923 0.14066
 C409 C 0.13374 0.34563 0.11388
 N410 N 0.15393 0.33178 0.10148
 N411 N 0.16606 0.31212 0.11542
 C412 C 0.15835 0.30556 0.14218
 N413 N 0.13821 0.31956 0.15460
 C414 C 0.11929 0.36544 0.09815
 C415 C 0.10623 0.38128 0.08479
 C416 C 0.08936 0.39900 0.06890
 N417 N 0.08851 0.42558 0.07548
 N418 N 0.07096 0.44136 0.06230
 C419 C 0.05370 0.43105 0.04212
 N420 N 0.05486 0.40450 0.03541
 N421 N 0.07240 0.38877 0.04853
 N422 N -0.14513 0.34820 -0.16519
 C423 C -0.15434 0.35650 -0.13960
 N424 N -0.17726 0.34477 -0.12892
 N425 N -0.19051 0.32530 -0.14339
 C426 C -0.18125 0.31687 -0.16898
 N427 N -0.15836 0.32874 -0.17965
 C428 C -0.13909 0.37641 -0.12345
 C429 C -0.12529 0.39257 -0.11017
 C430 C -0.10749 0.41098 -0.09487
 N431 N -0.10788 0.41213 -0.06609
 N432 N -0.08943 0.42716 -0.05188
 C433 C -0.06997 0.44153 -0.06599
 N434 N -0.06988 0.44057 -0.09480
 N435 N -0.08832 0.42557 -0.10899
 N436 N 0.16822 0.64115 -0.12890
 C437 C 0.14417 0.62991 -0.13772
 N438 N 0.13066 0.64122 -0.15960
 N439 N 0.14080 0.66313 -0.17223
 C440 C 0.16479 0.67454 -0.16337
 N441 N 0.17839 0.66307 -0.14157
 C442 C 0.13195 0.60765 -0.12280
 C443 C 0.12028 0.58974 -0.11028
 C444 C 0.10455 0.56957 -0.09556
 N445 N 0.08544 0.55461 -0.10982
 N446 N 0.06813 0.53855 -0.09585
 C447 C 0.06933 0.53689 -0.06711
 N448 N 0.08880 0.55156 -0.05288
 N449 N 0.10611 0.56766 -0.06688
 N450 N -0.11438 0.65216 0.12908
 C451 C -0.12689 0.64210 0.10541
 N452 N -0.14944 0.65413 0.09545
 N453 N -0.15916 0.67557 0.10877
 C454 C -0.14657 0.68577 0.13240
 N455 N -0.12407 0.67359 0.14238
 C456 C -0.11502 0.62035 0.08998
 C457 C -0.10365 0.60293 0.07703
 C458 C -0.08818 0.58350 0.06177
 N459 N -0.09037 0.55685 0.06779
 N460 N -0.07372 0.53942 0.05569
 C461 C -0.05432 0.54812 0.03723
 N462 N -0.05249 0.57473 0.03102
 N463 N -0.06913 0.59208 0.04304
 N464 N 1.15123 0.16037 0.64088
 C465 C 1.16245 0.13872 0.62841
 N466 N 1.18561 0.12877 0.63955
 N467 N 1.19711 0.14011 0.66256
 C468 C 1.18568 0.16163 0.67528
 N469 N 1.16267 0.17165 0.66387
 C470 C 1.14787 0.12465 0.60613
 C471 C 1.13384 0.11263 0.58895
 C472 C 1.11523 0.09799 0.57063
 N473 N 1.12234 0.07437 0.55854
 N474 N 1.10375 0.05889 0.54508
 C475 C 1.07743 0.06647 0.54342
 N476 N 1.07052 0.09032 0.55515
 N477 N 1.08909 0.10580 0.56853
 N478 N 0.89973 -0.12930 0.68831
 C479 C 0.89054 -0.10554 0.67873
 N480 N 0.86716 -0.09585 0.68944
 N481 N 0.85340 -0.10952 0.70917
 C482 C 0.86257 -0.13334 0.71881
 N483 N 0.88598 -0.14296 0.70802
 C484 C 0.90524 -0.09105 0.65725
 C485 C 0.91748 -0.07901 0.63903
 C486 C 0.93162 -0.06462 0.61710
 N487 N 0.94971 -0.04446 0.62372
 N488 N 0.96188 -0.03030 0.60327
 C489 C 0.95639 -0.03589 0.57553
 N490 N 0.93842 -0.05624 0.56899
 N491 N 0.92627 -0.07039 0.58943
 N492 N 1.09930 -0.14156 0.32219
 C493 C 1.10949 -0.11769 0.33213
 N494 N 1.13446 -0.10896 0.32354
 N495 N 1.14878 -0.12363 0.30550
 C496 C 1.13862 -0.14753 0.29547
 N497 N 1.11362 -0.15623 0.30415
 C498 C 1.09412 -0.10185 0.35156
 C499 C 1.08162 -0.08827 0.36799
 C500 C 1.06752 -0.07166 0.38778
 N501 N 1.05808 -0.04750 0.37963
 N502 N 1.04685 -0.03114 0.39849
 C503 C 1.04466 -0.03843 0.42613
 N504 N 1.05384 -0.06277 0.43416
 N505 N 1.06508 -0.07912 0.41529
 N506 N 0.85935 0.16811 0.37249
 C507 C 0.84919 0.14453 0.38272
 N508 N 0.82511 0.13456 0.37245
 N509 N 0.81168 0.14773 0.35242
 C510 C 0.82198 0.17121 0.34191
 N511 N 0.84595 0.18125 0.35247
 C512 C 0.86528 0.12893 0.40166
 C513 C 0.87985 0.11549 0.41616
 C514 C 0.89831 0.09910 0.43162
 N515 N 0.89024 0.07441 0.44088
 N516 N 0.90820 0.05795 0.45229
 C517 C 0.93485 0.06561 0.45469
 N518 N 0.94279 0.09047 0.44570
 N519 N 0.92483 0.10691 0.43431
 N520 N 0.14273 0.31588 -0.10793
 C521 C 0.11947 0.32358 -0.12083
 N522 N 0.11264 0.31297 -0.14655
 N523 N 0.12853 0.29515 -0.15899
 C524 C 0.15182 0.28738 -0.14616
 N525 N 0.15864 0.29804 -0.12038
 C526 C 0.10250 0.34311 -0.10781
 C527 C 0.08815 0.35979 -0.09746
 C528 C 0.07115 0.38007 -0.08586
 N529 N 0.05142 0.37358 -0.06692
 N530 N 0.03549 0.39252 -0.05648
 C531 C 0.03875 0.41853 -0.06473
 N532 N 0.05853 0.42491 -0.08369
 N533 N 0.07443 0.40600 -0.09410
 N534 N -0.15363 0.34070 0.13403
 C535 C -0.12898 0.34879 0.14451
 N536 N -0.11997 0.33818 0.16916
 N537 N -0.13516 0.31999 0.18292
 C538 C -0.15983 0.31179 0.17246
 N539 N -0.16882 0.32250 0.14779
 C540 C -0.11229 0.36774 0.12923
 C541 C -0.09824 0.38335 0.11602
 C542 C -0.08156 0.40151 0.09974
 N543 N -0.06160 0.41674 0.11242
 N544 N -0.04585 0.43323 0.09706
 C545 C -0.04957 0.43497 0.06856
 N546 N -0.06957 0.41970 0.05596
 N547 N -0.08530 0.40324 0.07130
 N548 N -0.10322 0.67435 -0.13924
 C549 C -0.11285 0.66133 -0.11607
 N550 N -0.13636 0.66934 -0.10414
 N551 N -0.14982 0.68981 -0.11508
 C552 C -0.14018 0.70292 -0.13829
 N553 N -0.11667 0.69480 -0.15017
 C554 C -0.09804 0.63959 -0.10420
 C555 C -0.08509 0.62152 -0.09455
 C556 C -0.06916 0.60025 -0.08339
 N557 N -0.07318 0.57461 -0.09280
 N558 N -0.05789 0.55496 -0.08292
 C559 C -0.03803 0.56034 -0.06337
 N560 N -0.03409 0.58604 -0.05396
 N561 N -0.04938 0.60567 -0.06384
 N562 N 0.15087 0.63908 0.13517
 C563 C 0.12523 0.63206 0.14321
 N564 N 0.11281 0.64699 0.16326
 N565 N 0.12560 0.66835 0.17484
 C566 C 0.15119 0.67556 0.16670
 N567 N 0.16367 0.66045 0.14677
 C568 C 0.11058 0.61057 0.12897
 C569 C 0.09787 0.59334 0.11611
 C570 C 0.08242 0.57391 0.09967
 N571 N 0.05835 0.56376 0.10932
 N572 N 0.04297 0.54742 0.09296
 C573 C 0.05117 0.54079 0.06640
 N574 N 0.07534 0.55084 0.05690
 N575 N 0.09070 0.56714 0.07325
 N576 N 0.35410 1.12064 0.85956
 C577 C 0.35980 1.12788 0.88681
 N578 N 0.34599 1.14822 0.89885
 N579 N 0.32702 1.16089 0.88411
 C580 C 0.32116 1.15358 0.85687
 N581 N 0.33513 1.13329 0.84483
 C582 C 0.37892 1.11299 0.90319
 C583 C 0.39429 1.09954 0.91679
 C584 C 0.41166 1.08225 0.93261
 N585 N 0.40074 1.06490 0.95173
 N586 N 0.41623 1.04701 0.96457
 C587 C 0.44319 1.04588 0.95878
 N588 N 0.45418 1.06350 0.93986
 N589 N 0.43866 1.08140 0.92698
 N590 N 0.34568 0.82435 1.12438
 C591 C 0.35544 0.84918 1.13190
 N592 N 0.34283 0.86296 1.15274
 N593 N 0.32112 0.85230 1.16566
 C594 C 0.31123 0.82749 1.15815
 N595 N 0.32395 0.81367 1.13733
 C596 C 0.37797 0.86148 1.11715
 C597 C 0.39627 0.87309 1.10497
 C598 C 0.41711 0.88862 1.09085
 N599 N 0.43285 0.90649 1.10586
 N600 N 0.44973 0.92353 1.09259
 C601 C 0.45150 0.92327 1.06383
 N602 N 0.43604 0.90503 1.04885
 N603 N 0.41912 0.88800 1.06215
 N604 N 0.64124 1.16826 1.13616
 C605 C 0.62968 1.14529 1.14643
 N606 N 0.63854 1.13559 1.17158
 N607 N 0.65842 1.14840 1.18600
 C608 C 0.67016 1.17132 1.17570
 N609 N 0.66112 1.18108 1.15059
 C610 C 0.60982 1.13023 1.12996
 C611 C 0.59396 1.11651 1.11621
 C612 C 0.57617 1.09875 1.10015
 N613 N 0.56208 1.07879 1.11345
 N614 N 0.54797 1.06033 1.09848
 C615 C 0.54745 1.06118 1.06968
 N616 N 0.56129 1.08141 1.05639
 N617 N 0.57545 1.09988 1.07139
 N618 N 0.66406 0.84110 0.90290
 C619 C 0.65314 0.86431 0.89381
 N620 N 0.66401 0.87685 0.87090
 N621 N 0.68516 0.86655 0.85749
 C622 C 0.69623 0.84339 0.86660
 N623 N 0.68522 0.83078 0.88947
 C624 C 0.63175 0.87666 0.90941
 C625 C 0.61464 0.88834 0.92251
 C626 C 0.59551 0.90405 0.93791
 N627 N 0.60477 0.92312 0.95650
 N628 N 0.58761 0.93988 0.96868
 C629 C 0.56057 0.93814 0.96275
 N630 N 0.55123 0.91874 0.94442
 N631 N 0.56844 0.90198 0.93217
   
