data_POSCAR
  _audit_creation_date              2014-09-24
  _audit_creation_method            'ToBaCCo'
  _symmetry_space_group_name_H-M    'P1'
  _symmetry_Int_Tables_number       1
  _symmetry_cell_setting            triclinic
  loop_
  _symmetry_equiv_pos_as_xyz
 x,y,z
_cell_length_a 35.8404
_cell_length_b 35.5016
_cell_length_c 46.9274
_cell_angle_alpha 89.885300
_cell_angle_beta 89.980700
_cell_angle_gamma 89.907100
loop_
  _atom_site_label
  _atom_site_type_symbol
  _atom_site_fract_x
  _atom_site_fract_y
  _atom_site_fract_z
C1 C -0.00143 0.53686 1.01518
 C2 C 0.00627 0.53685 0.98528
 C3 C 0.01159 0.50202 0.97150
 C4 C 0.00773 0.46757 0.98582
 C5 C -0.00030 0.46724 1.01545
 C6 C -0.00570 0.50199 1.02930
 H7 H -0.00926 0.50194 1.05223
 H8 H 0.01546 0.50132 0.94859
 C9 C 0.46582 -0.00652 0.51512
 C10 C 0.46547 -0.00422 0.48508
 C11 C 0.49938 -0.00406 0.47014
 C12 C 0.53407 -0.00609 0.48429
 C13 C 0.53409 -0.00702 0.51466
 C14 C 0.50006 -0.00759 0.52947
 H15 H 0.50022 -0.00833 0.55257
 H16 H 0.49838 -0.00359 0.44706
 C17 C 0.07591 0.00731 0.26337
 H18 H 0.07735 0.00872 0.24036
 C19 C 0.10859 0.00884 0.27949
 H20 H 0.13514 0.01172 0.26870
 C21 C 0.03931 0.00275 0.30529
 H22 H 0.01225 0.00072 0.31529
 C23 C 0.07130 0.00424 0.32224
 H24 H 0.06848 0.00257 0.34518
 N25 N 0.04221 0.00370 0.27639
 C26 C -0.02912 -0.05005 0.21316
 H27 H -0.05213 -0.03031 0.21249
 C28 C -0.02996 -0.08241 0.19630
 H29 H -0.05357 -0.08711 0.18237
 C30 C 0.02972 -0.06758 0.23205
 H31 H 0.05262 -0.06211 0.24639
 C32 C 0.03003 -0.10025 0.21555
 H33 H 0.05330 -0.11959 0.21741
 Zn34 Zn -0.00049 0.00130 0.25271
 N35 N 0.00064 -0.04300 0.23030
 C36 C -0.00022 0.04183 0.20028
 N37 N -0.00013 0.04471 0.22919
 C38 C 0.00132 0.07885 0.24223
 C39 C 0.00158 0.11193 0.22610
 C40 C 0.00007 0.07421 0.18333
 C41 C -0.05025 -0.03076 0.29189
 C42 C -0.08262 -0.03368 0.30832
 C43 C -0.10342 0.02580 0.28886
 C44 C -0.07064 0.02760 0.27284
 N45 N -0.04466 -0.00025 0.27486
 H46 H -0.00052 0.01449 0.19027
 H47 H 0.00209 0.08030 0.26525
 H48 H 0.00285 0.13882 0.23690
 H49 H -0.00077 0.07134 0.16038
 H50 H -0.02948 -0.05288 0.29265
 H51 H -0.08666 -0.05830 0.32161
 H52 H -0.12346 0.04856 0.28730
 H53 H -0.06618 0.05121 0.25872
 C54 C -0.00001 -0.10794 0.19727
 C55 C 0.10657 0.00702 0.30935
 C56 C -0.10972 -0.00510 0.30696
 C57 C 0.00077 0.10988 0.19622
 C58 C -0.00235 0.07977 0.75780
 H59 H -0.00324 0.08124 0.73477
 C60 C -0.00242 0.11285 0.77383
 H61 H -0.00367 0.13976 0.76296
 C62 C -0.00062 0.04273 0.79983
 H63 H -0.00030 0.01538 0.80992
 C64 C -0.00072 0.07510 0.81670
 H65 H 0.00029 0.07221 0.83966
 N66 N -0.00088 0.04562 0.77092
 C67 C 0.04909 -0.02983 0.70827
 H68 H 0.02832 -0.05190 0.70759
 C69 C 0.08136 -0.03276 0.69172
 H70 H 0.08534 -0.05735 0.67844
 C71 C 0.06953 0.02842 0.72718
 H72 H 0.06512 0.05199 0.74128
 C73 C 0.10221 0.02660 0.71105
 H74 H 0.12223 0.04932 0.71250
 Zn75 Zn -0.00056 0.00226 0.74748
 N76 N 0.04356 0.00064 0.72528
 C77 C -0.04025 0.00417 0.69492
 N78 N -0.04327 0.00484 0.72381
 C79 C -0.07704 0.00831 0.73676
 C80 C -0.10967 0.01002 0.72057
 C81 C -0.07218 0.00580 0.67790
 C82 C 0.02822 -0.04926 0.78705
 C83 C 0.02924 -0.08174 0.80387
 C84 C -0.03072 -0.09950 0.78467
 C85 C -0.03058 -0.06670 0.76821
 N86 N -0.00159 -0.04212 0.76995
 H87 H -0.01314 0.00248 0.68497
 H88 H -0.07859 0.00928 0.75978
 H89 H -0.13633 0.01181 0.73134
 H90 H -0.06921 0.00533 0.65494
 H91 H 0.05116 -0.02951 0.78771
 H92 H 0.05291 -0.08653 0.81775
 H93 H -0.05390 -0.11886 0.78281
 H94 H -0.05352 -0.06116 0.75390
 C95 C 0.10842 -0.00424 0.69295
 C96 C -0.00138 0.11078 0.80371
 C97 C -0.00059 -0.10732 0.80289
 C98 C -0.10751 0.00850 0.69071
 C99 C 0.02573 -0.36861 0.04381
 C100 C -0.00005 -0.36427 0.06593
 C101 C -0.02596 -0.39274 0.07147
 C102 C -0.02634 -0.42534 0.05484
 C103 C -0.00101 -0.42992 0.03203
 C104 C 0.02544 -0.40117 0.02712
 C105 C 0.00011 -0.33063 0.08299
 C106 C 0.00011 -0.30248 0.09731
 C107 C 0.00004 -0.26955 0.11411
 C108 C -0.00004 -0.24144 0.12847
 C109 C -0.00009 -0.20790 0.14565
 C110 C -0.03303 -0.19582 0.15883
 C111 C -0.03307 -0.16329 0.17558
 C112 C -0.00009 -0.14243 0.17940
 C113 C 0.03286 -0.15482 0.16603
 C114 C 0.03283 -0.18733 0.14927
 H115 H 0.04623 -0.34692 0.03956
 H116 H -0.04605 -0.38965 0.08856
 H117 H -0.04742 -0.44638 0.05926
 H118 H 0.04658 -0.40416 0.01078
 H119 H -0.05865 -0.21160 0.15623
 H120 H -0.05876 -0.15477 0.18588
 H121 H 0.05857 -0.13911 0.16824
 H122 H 0.05845 -0.19638 0.13910
 C123 C -0.02691 0.39622 0.07094
 C124 C -0.00146 0.36729 0.06533
 C125 C 0.02442 0.37138 0.04327
 C126 C 0.02483 0.40419 0.02679
 C127 C -0.00098 0.43355 0.03185
 C128 C -0.02659 0.42910 0.05450
 C129 C -0.00152 0.33362 0.08246
 C130 C -0.00138 0.30542 0.09681
 C131 C -0.00106 0.27241 0.11361
 C132 C -0.00071 0.24422 0.12797
 C133 C -0.00025 0.21057 0.14512
 C134 C 0.02113 0.17950 0.13670
 C135 C 0.02155 0.14677 0.15331
 C136 C 0.00056 0.14470 0.17862
 C137 C -0.02079 0.17613 0.18692
 C138 C -0.02118 0.20881 0.17026
 H139 H -0.04709 0.39334 0.08800
 H140 H 0.04464 0.34937 0.03902
 H141 H 0.04643 0.40702 0.01082
 H142 H -0.04728 0.45054 0.05904
 H143 H 0.03754 0.18060 0.11732
 H144 H 0.03864 0.12325 0.14655
 H145 H -0.03763 0.17524 0.20607
 H146 H -0.03791 0.23267 0.17694
 C147 C 0.37121 -0.03711 0.54298
 C148 C 0.36485 -0.01027 0.56427
 C149 C 0.39161 0.01751 0.56962
 C150 C 0.42454 0.01858 0.55369
 C151 C 0.43096 -0.00804 0.53212
 C152 C 0.40416 -0.03609 0.52704
 C153 C 0.33092 -0.01113 0.58067
 C154 C 0.30263 -0.01146 0.59456
 C155 C 0.26964 -0.01140 0.61100
 C156 C 0.24160 -0.01096 0.62518
 C157 C 0.20827 -0.00998 0.64228
 C158 C 0.20992 0.00282 0.67043
 C159 C 0.17751 0.00449 0.68696
 C160 C 0.14296 -0.00663 0.67553
 C161 C 0.14163 -0.01969 0.64725
 C162 C 0.17409 -0.02131 0.63074
 H163 H 0.35074 -0.05880 0.53873
 H164 H 0.38699 0.03839 0.58606
 H165 H 0.44485 0.04042 0.55793
 H166 H 0.40881 -0.05717 0.51076
 H167 H 0.23625 0.01158 0.67960
 H168 H 0.17955 0.01416 0.70877
 H169 H 0.11540 -0.02801 0.63774
 H170 H 0.17247 -0.03114 0.60894
 C171 C -0.39042 -0.02751 0.56907
 C172 C -0.36564 0.00226 0.56421
 C173 C -0.37386 0.02936 0.54341
 C174 C -0.40662 0.02655 0.52739
 C175 C -0.43133 -0.00360 0.53187
 C176 C -0.42316 -0.03038 0.55307
 C177 C -0.33168 0.00477 0.58046
 C178 C -0.30324 0.00646 0.59409
 C179 C -0.26995 0.00798 0.61010
 C180 C -0.24154 0.00888 0.62381
 C181 C -0.20765 0.00947 0.64025
 C182 C -0.20462 0.03299 0.66403
 C183 C -0.17198 0.03291 0.68035
 C184 C -0.14190 0.00927 0.67307
 C185 C -0.14515 -0.01407 0.64900
 C186 C -0.17782 -0.01397 0.63273
 H187 H -0.38434 -0.04860 0.58514
 H188 H -0.35493 0.05258 0.53954
 H189 H -0.41267 0.04776 0.51142
 H190 H -0.44189 -0.05376 0.55689
 H191 H -0.22753 0.05129 0.67001
 H192 H -0.17017 0.05155 0.69853
 H193 H -0.12272 -0.03296 0.64306
 H194 H -0.17992 -0.03240 0.61443
 C195 C 0.02890 -0.39264 0.92845
 C196 C 0.00239 -0.36464 0.93389
 C197 C -0.02327 -0.36942 0.95604
 C198 C -0.02221 -0.40190 0.97290
 C199 C 0.00492 -0.43011 0.96815
 C200 C 0.03006 -0.42516 0.94526
 C201 C 0.00160 -0.33098 0.91675
 C202 C 0.00114 -0.30278 0.90241
 C203 C 0.00075 -0.26974 0.88563
 C204 C 0.00051 -0.24153 0.87130
 C205 C 0.00026 -0.20784 0.85419
 C206 C -0.03280 -0.18733 0.85069
 C207 C -0.03309 -0.15464 0.83403
 C208 C -0.00025 -0.14200 0.82064
 C209 C 0.03286 -0.16281 0.82433
 C210 C 0.03307 -0.19552 0.84098
 H211 H 0.04891 -0.38922 0.91133
 H212 H -0.04423 -0.34812 0.96021
 H213 H -0.04324 -0.40523 0.98928
 H214 H 0.05162 -0.44578 0.94093
 H215 H -0.05834 -0.19655 0.86089
 H216 H -0.05890 -0.13898 0.83192
 H217 H 0.05846 -0.15411 0.81401
 H218 H 0.05880 -0.21125 0.84348
 C219 C 0.03613 0.39189 0.93309
 C220 C 0.00543 0.36759 0.93440
 C221 C -0.02457 0.37603 0.95241
 C222 C -0.02386 0.40857 0.96911
 C223 C 0.00703 0.43289 0.96814
 C224 C 0.03689 0.42444 0.94980
 C225 C 0.00460 0.33408 0.91720
 C226 C 0.00380 0.30599 0.90283
 C227 C 0.00277 0.27309 0.88603
 C228 C 0.00189 0.24498 0.87168
 C229 C 0.00087 0.21140 0.85456
 C230 C -0.02065 0.18055 0.86318
 C231 C -0.02150 0.14785 0.84664
 C232 C -0.00080 0.14559 0.82120
 C233 C 0.02067 0.17681 0.81270
 C234 C 0.02149 0.20947 0.82928
 H235 H 0.05945 0.38566 0.91918
 H236 H -0.04853 0.35752 0.95350
 H237 H -0.04742 0.41486 0.98276
 H238 H 0.06089 0.44288 0.94867
 H239 H -0.03681 0.18179 0.88268
 H240 H -0.03867 0.12450 0.85358
 H241 H 0.03730 0.17578 0.79344
 H242 H 0.03833 0.23314 0.82245
 C243 C -0.37016 -0.03312 0.45948
 C244 C -0.36673 -0.01101 0.43495
 C245 C -0.39629 0.01215 0.42648
 C246 C -0.42904 0.01356 0.44261
 C247 C -0.43272 -0.00790 0.46783
 C248 C -0.40287 -0.03179 0.47568
 C249 C -0.33287 -0.01192 0.41847
 C250 C -0.30457 -0.01229 0.40458
 C251 C -0.27154 -0.01226 0.38820
 C252 C -0.24342 -0.01184 0.37411
 C253 C -0.20996 -0.01087 0.35715
 C254 C -0.21141 0.00204 0.32898
 C255 C -0.17887 0.00372 0.31261
 C256 C -0.14439 -0.00750 0.32421
 C257 C -0.14327 -0.02068 0.35250
 C258 C -0.17586 -0.02231 0.36886
 H259 H -0.34763 -0.05159 0.46602
 H260 H -0.39392 0.02942 0.40750
 H261 H -0.45087 0.03270 0.43583
 H262 H -0.40510 -0.05046 0.49385
 H263 H -0.23767 0.01088 0.31969
 H264 H -0.18075 0.01349 0.29078
 H265 H -0.11710 -0.02909 0.36215
 H266 H -0.17441 -0.03223 0.39068
 C267 C 0.38925 -0.02598 0.43177
 C268 C 0.36348 0.00274 0.43740
 C269 C 0.37113 0.02940 0.45856
 C270 C 0.40439 0.02729 0.47406
 C271 C 0.43022 -0.00166 0.46864
 C272 C 0.42248 -0.02813 0.44725
 C273 C 0.32933 0.00481 0.42135
 C274 C 0.30089 0.00615 0.40769
 C275 C 0.26778 0.00725 0.39143
 C276 C 0.23967 0.00780 0.37733
 C277 C 0.20633 0.00798 0.36025
 C278 C 0.17478 0.02803 0.36918
 C279 C 0.14233 0.02785 0.35262
 C280 C 0.14106 0.00761 0.32688
 C281 C 0.17298 -0.01238 0.31809
 C282 C 0.20535 -0.01218 0.33467
 H283 H 0.38363 -0.04672 0.41542
 H284 H 0.35144 0.05181 0.46303
 H285 H 0.41006 0.04826 0.49021
 H286 H 0.44202 -0.05066 0.44277
 H287 H 0.17527 0.04380 0.38892
 H288 H 0.11839 0.04388 0.35980
 H289 H 0.17273 -0.02867 0.29861
 H290 H 0.22957 -0.02791 0.32761
   
