data_POSCAR
  _audit_creation_date              2014-09-24
  _audit_creation_method            'ToBaCCo'
  _symmetry_space_group_name_H-M    'P1'
  _symmetry_Int_Tables_number       1
  _symmetry_cell_setting            triclinic
  loop_
  _symmetry_equiv_pos_as_xyz
 x,y,z
_cell_length_a 46.3636
_cell_length_b 46.3636
_cell_length_c 46.3636
_cell_angle_alpha 90.000000
_cell_angle_beta 90.000000
_cell_angle_gamma 90.000000
loop_
  _atom_site_label
  _atom_site_type_symbol
  _atom_site_fract_x
  _atom_site_fract_y
  _atom_site_fract_z
C1 C 0.17497 1.19597 0.15098
 C2 C 0.19607 1.17250 0.15321
 C3 C 0.19364 1.15243 0.17567
 C4 C 0.17025 1.15475 0.19687
 C5 C 0.15030 1.17732 0.19448
 C6 C 0.15250 1.19844 0.17100
 C7 C 0.17121 1.21940 0.13151
 N8 N 0.14747 1.23678 0.13790
 C9 C 0.13615 1.22348 0.16230
 C10 C 0.13096 1.17365 0.21805
 N11 N 0.13742 1.14992 0.23541
 C12 C 0.16166 1.13846 0.22196
 C13 C 0.21709 1.13295 0.17176
 N14 N 0.23440 1.13955 0.14809
 C15 C 0.22110 1.16393 0.13686
 H16 H 0.18560 1.22278 0.11353
 H17 H 0.11724 1.23126 0.17354
 H18 H 0.11307 1.18811 0.22155
 H19 H 0.17290 1.11954 0.22971
 H20 H 0.22072 1.11483 0.18594
 H21 H 0.22896 1.17526 0.11804
 C22 C 0.82856 0.80265 0.15322
 C23 C 0.80621 0.82553 0.15384
 C24 C 0.80700 0.84658 0.17592
 C25 C 0.82952 0.84621 0.19815
 C26 C 0.85015 0.82456 0.19720
 C27 C 0.84967 0.80276 0.17474
 C28 C 0.83589 0.77779 0.13544
 N29 N 0.86024 0.76295 0.14540
 C30 C 0.86798 0.77908 0.16941
 C31 C 0.86881 0.82933 0.22088
 N32 N 0.86139 0.85323 0.23741
 C33 C 0.83707 0.86357 0.22304
 C34 C 0.78328 0.86520 0.17069
 N35 N 0.76722 0.85771 0.14652
 C36 C 0.78144 0.83320 0.13642
 H37 H 0.82377 0.77122 0.11662
 H38 H 0.88631 0.77485 0.18306
 H39 H 0.88704 0.81547 0.22491
 H40 H 0.82513 0.88239 0.22995
 H41 H 0.77832 0.88326 0.18454
 H42 H 0.77479 0.82157 0.11732
 C43 C 0.82394 1.19637 -0.15225
 C44 C 0.80160 1.17439 -0.15158
 C45 C 0.80103 1.15265 -0.17218
 C46 C 0.82310 1.15241 -0.19473
 C47 C 0.84511 1.17340 -0.19567
 C48 C 0.84557 1.19637 -0.17337
 C49 C 0.82906 1.22040 -0.13431
 N50 N 0.85297 1.23656 -0.14230
 C51 C 0.86319 1.22139 -0.16631
 C52 C 0.86222 1.16576 -0.22075
 N53 N 0.85158 1.14158 -0.23527
 C54 C 0.82780 1.13400 -0.21861
 C55 C 0.77620 1.13521 -0.16517
 N56 N 0.76141 1.14551 -0.14121
 C57 C 0.77740 1.16952 -0.13336
 H58 H 0.81555 1.22478 -0.11588
 H59 H 0.88193 1.22800 -0.17854
 H60 H 0.88093 1.17772 -0.22790
 H61 H 0.81404 1.11567 -0.22264
 H62 H 0.76920 1.11671 -0.17754
 H63 H 0.77194 1.18326 -0.11530
 C64 C 0.17127 0.80420 -0.15541
 C65 C 0.19452 0.82598 -0.15402
 C66 C 0.19546 0.84769 -0.17504
 C67 C 0.17391 0.84915 -0.19777
 C68 C 0.15179 0.82898 -0.19937
 C69 C 0.15062 0.80596 -0.17767
 C70 C 0.16314 0.77907 -0.13875
 N71 N 0.13871 0.76529 -0.14960
 C72 C 0.13165 0.78234 -0.17334
 C73 C 0.13491 0.83728 -0.22430
 N74 N 0.14582 0.86169 -0.23806
 C75 C 0.16974 0.86833 -0.22118
 C76 C 0.22011 0.86475 -0.16902
 N77 N 0.23519 0.85546 -0.14504
 C78 C 0.21934 0.83159 -0.13589
 H79 H 0.17477 0.77158 -0.11995
 H80 H 0.11356 0.77859 -0.18747
 H81 H 0.11593 0.82586 -0.23161
 H82 H 0.18410 0.88625 -0.22489
 H83 H 0.22673 0.88294 -0.18207
 H84 H 0.22567 0.81824 -0.11783
 C85 C 0.53554 1.05124 -0.01829
 H86 H 0.52153 1.06235 -0.00328
 C87 C 0.55944 1.06713 -0.03078
 H88 H 0.56136 1.08934 -0.02420
 C89 C 0.55043 1.00963 -0.04186
 H90 H 0.54834 0.98679 -0.04616
 C91 C 0.57466 1.02494 -0.05496
 H92 H 0.58899 1.01296 -0.06895
 N93 N 0.53058 1.02243 -0.02350
 C94 C 0.46314 1.01921 0.05655
 H95 H 0.47822 1.00626 0.06871
 C96 C 0.43889 1.03182 0.07188
 H97 H 0.43824 1.02835 0.09490
 C98 C 0.44612 1.03812 0.01342
 H99 H 0.44751 1.04052 -0.00975
 C100 C 0.42136 1.05103 0.02809
 H101 H 0.40576 1.06268 0.01524
 Zn102 Zn 0.49932 0.99671 0.00189
 N103 N 0.46720 1.02194 0.02721
 C104 C 0.54041 0.97997 0.05426
 N105 N 0.53177 0.97165 0.02703
 C106 C 0.54911 0.95060 0.01464
 C107 C 0.57443 0.93808 0.02874
 C108 C 0.56545 0.96812 0.06888
 C109 C 0.46318 0.97525 -0.05249
 C110 C 0.43916 0.96259 -0.06809
 C111 C 0.42258 0.94119 -0.02491
 C112 C 0.44698 0.95435 -0.00994
 N113 N 0.46759 0.97139 -0.02336
 H114 H 0.52867 0.99707 0.06489
 H115 H 0.54423 0.94372 -0.00711
 H116 H 0.58694 0.92226 0.01700
 H117 H 0.57010 0.97638 0.09018
 H118 H 0.47779 0.98922 -0.06415
 H119 H 0.43764 0.96796 -0.09068
 H120 H 0.40767 0.92826 -0.01246
 H121 H 0.44861 0.95124 0.01313
 C122 C 0.41618 1.04802 0.05832
 C123 C 0.58052 1.05478 -0.04994
 C124 C 0.41737 0.94471 -0.05507
 C125 C 0.58425 0.94678 0.05664
 C126 C -0.02231 0.53602 1.05157
 H127 H -0.00953 0.52080 1.06377
 C128 C -0.03504 0.56023 1.06687
 H129 H -0.03178 0.56088 1.08993
 C130 C -0.04085 0.55323 1.00833
 H131 H -0.04302 0.55194 0.98514
 C132 C -0.05392 0.57790 1.02297
 H133 H -0.06545 0.59358 1.01009
 N134 N -0.02474 0.53214 1.02219
 C135 C 0.04546 0.45115 1.00565
 H136 H 0.04882 0.45632 0.98314
 C137 C 0.06011 0.42611 1.01731
 H138 H 0.07372 0.41427 1.00258
 C139 C 0.02241 0.45882 1.04943
 H140 H 0.00696 0.47023 1.06265
 C141 C 0.03686 0.43363 1.06199
 H142 H 0.03222 0.42815 1.08419
 Zn143 Zn 0.00069 0.50031 0.99682
 N144 N 0.02665 0.46808 1.02126
 C145 C 0.04212 0.55343 0.98524
 N146 N 0.02568 0.53254 0.97148
 C147 C 0.02244 0.53691 0.94223
 C148 C 0.03470 0.56142 0.92700
 C149 C 0.05479 0.57834 0.97065
 C150 C -0.04565 0.45277 0.98684
 C151 C -0.06029 0.42781 0.97504
 C152 C -0.03324 0.43251 0.93212
 C153 C -0.01887 0.45766 0.94479
 N154 N -0.02506 0.46833 0.97209
 H155 H 0.04490 0.55176 1.00835
 H156 H 0.00933 0.52187 0.93015
 H157 H 0.03076 0.56252 0.90406
 H158 H 0.06666 0.59381 0.98348
 H159 H -0.05054 0.45900 1.00879
 H160 H -0.07549 0.41709 0.98907
 H161 H -0.02706 0.42589 0.91062
 H162 H -0.00193 0.46793 0.93248
 C163 C 0.05670 0.41588 1.04632
 C164 C -0.05114 0.58297 1.05323
 C165 C -0.05497 0.41623 0.94684
 C166 C 0.05117 0.58392 0.94057
 C167 C 1.05349 -0.01783 0.53637
 H168 H 1.06531 -0.00389 0.52188
 C169 C 1.06884 -0.03041 0.56060
 H170 H 1.09165 -0.02587 0.56201
 C171 C 1.01095 -0.03939 0.55177
 H172 H 0.98799 -0.04296 0.54969
 C173 C 1.02564 -0.05234 0.57643
 H174 H 1.01305 -0.06512 0.59135
 N175 N 1.02441 -0.02181 0.53163
 C176 C 1.00718 0.04873 0.45133
 H177 H 0.98478 0.05227 0.45685
 C178 C 1.01861 0.06338 0.42620
 H179 H 1.00383 0.07720 0.41465
 C180 C 1.05082 0.02514 0.45817
 H181 H 1.06400 0.00943 0.46927
 C182 C 1.06314 0.03959 0.43288
 H183 H 1.08519 0.03472 0.42700
 Zn184 Zn 0.99877 0.00336 0.50001
 N185 N 1.02285 0.02966 0.46790
 C186 C 0.97934 0.05440 0.54359
 N187 N 0.97254 0.02760 0.53206
 C188 C 0.95110 0.01318 0.54674
 C189 C 0.93639 0.02474 0.57178
 C190 C 0.96487 0.06686 0.56879
 C191 C 0.99096 -0.04032 0.45025
 C192 C 0.97941 -0.05507 0.42529
 C193 C 0.93374 -0.03438 0.43452
 C194 C 0.94619 -0.01984 0.45967
 N195 N 0.97481 -0.02273 0.46794
 H196 H 0.99684 0.06644 0.53395
 H197 H 0.94552 -0.00837 0.53974
 H198 H 0.92061 0.01085 0.58178
 H199 H 0.97163 0.08796 0.57611
 H200 H 1.01374 -0.04259 0.45478
 H201 H 0.99442 -0.06775 0.41275
 H202 H 0.91115 -0.03095 0.42977
 H203 H 0.93252 -0.00547 0.47196
 C204 C 1.04741 0.05970 0.41548
 C205 C 1.05551 -0.04795 0.58243
 C206 C 0.95002 -0.05297 0.41599
 C207 C 0.94239 0.05244 0.58430
 C208 C 0.10476 0.30550 1.11065
 C209 C 0.12231 0.31354 1.08823
 C210 C 0.14717 0.29763 1.08176
 C211 C 0.15468 0.27277 1.09833
 C212 C 0.13810 0.26224 1.12233
 C213 C 0.11216 0.27987 1.12828
 O214 O 0.08190 0.32414 1.11266
 C215 C 0.08529 0.34413 1.09114
 C216 C 0.10987 0.33832 1.07577
 C217 C 0.11806 0.35604 1.05267
 C218 C 0.10082 0.38030 1.04459
 C219 C 0.07444 0.38824 1.05865
 C220 C 0.06708 0.36913 1.08310
 H221 H 0.16082 0.30423 1.06402
 H222 H 0.17422 0.26198 1.09188
 H223 H 0.09807 0.27390 1.14588
 H224 H 0.13769 0.35141 1.04092
 H225 H 0.10890 0.39331 1.02705
 H226 H 0.04764 0.37331 1.09530
 C227 C -0.11354 0.69452 1.10112
 C228 C -0.09136 0.68582 1.11867
 C229 C -0.08490 0.70096 1.14388
 C230 C -0.10117 0.72578 1.15181
 C231 C -0.12485 0.73729 1.13530
 C232 C -0.13091 0.72032 1.10892
 O233 O -0.11553 0.67626 1.07793
 C234 C -0.09425 0.65593 1.08121
 C235 C -0.07906 0.66115 1.10600
 C236 C -0.05605 0.64326 1.11407
 C237 C -0.04810 0.61912 1.09668
 C238 C -0.06249 0.61125 1.07050
 C239 C -0.08631 0.63105 1.06281
 H240 H -0.06743 0.69373 1.15757
 H241 H -0.09463 0.73555 1.17181
 H242 H -0.14829 0.72692 1.09484
 H243 H -0.04410 0.64786 1.13359
 H244 H -0.02975 0.60673 1.10391
 H245 H -0.09849 0.62711 1.04331
 C246 C -0.10274 0.30490 0.88394
 C247 C -0.12168 0.31520 0.90420
 C248 C -0.14785 0.30120 0.90929
 C249 C -0.15531 0.27584 0.89365
 C250 C -0.13736 0.26269 0.87199
 C251 C -0.11008 0.27860 0.86715
 O252 O -0.07877 0.32222 0.88308
 C253 C -0.08297 0.34361 0.90310
 C254 C -0.10910 0.33996 0.91640
 C255 C -0.11845 0.35931 0.93765
 C256 C -0.10078 0.38308 0.94607
 C257 C -0.07284 0.38888 0.93420
 C258 C -0.06426 0.36810 0.91155
 H259 H -0.16265 0.30974 0.92521
 H260 H -0.17621 0.26708 0.89871
 H261 H -0.09491 0.27070 0.85128
 H262 H -0.13931 0.35631 0.94769
 H263 H -0.10973 0.39746 0.96206
 H264 H -0.04357 0.37065 0.90108
 C265 C 0.11266 0.69613 0.89327
 C266 C 0.08986 0.68816 0.87617
 C267 C 0.08279 0.70421 0.85162
 C268 C 0.09913 0.72915 0.84392
 C269 C 0.12348 0.73969 0.86002
 C270 C 0.13005 0.72190 0.88570
 O271 O 0.11523 0.67727 0.91589
 C272 C 0.09370 0.65724 0.91278
 C273 C 0.07775 0.66321 0.88862
 C274 C 0.05438 0.64561 0.88090
 C275 C 0.04688 0.62106 0.89798
 C276 C 0.06205 0.61251 0.92351
 C277 C 0.08622 0.63200 0.93085
 H278 H 0.06477 0.69765 0.83831
 H279 H 0.09211 0.73997 0.82461
 H280 H 0.14795 0.72782 0.89943
 H281 H 0.04183 0.65072 0.86189
 H282 H 0.02826 0.60887 0.89106
 H283 H 0.09901 0.62753 0.94983
 C284 C 1.11069 0.10739 0.30441
 C285 C 1.08847 0.12507 0.31270
 C286 C 1.08195 0.14996 0.29686
 C287 C 1.09828 0.15736 0.27181
 C288 C 1.12206 0.14065 0.26103
 C289 C 1.12807 0.11469 0.27860
 O290 O 1.11278 0.08452 0.32302
 C291 C 1.09152 0.08803 0.34325
 C292 C 1.07622 0.11270 0.33762
 C293 C 1.05339 0.12103 0.35561
 C294 C 1.04551 0.10385 0.37996
 C295 C 1.05949 0.07737 0.38772
 C296 C 1.08367 0.06987 0.36832
 H297 H 1.06436 0.16371 0.30366
 H298 H 1.09182 0.17694 0.26108
 H299 H 1.14553 0.10050 0.27244
 H300 H 1.04171 0.14075 0.35113
 H301 H 1.02818 0.11205 0.39319
 H302 H 1.09579 0.05036 0.37236
 C303 C 1.10289 -0.11128 0.69333
 C304 C 1.11983 -0.08820 0.68587
 C305 C 1.14429 -0.08124 0.70207
 C306 C 1.15207 -0.09801 0.72665
 C307 C 1.13613 -0.12268 0.73666
 C308 C 1.11051 -0.12910 0.71876
 O309 O 1.08036 -0.11367 0.67437
 C310 C 1.08338 -0.09173 0.65480
 C311 C 1.10737 -0.07569 0.66119
 C312 C 1.11495 -0.05186 0.64418
 C313 C 1.09789 -0.04397 0.61977
 C314 C 1.07258 -0.05924 0.61079
 C315 C 1.06537 -0.08389 0.62967
 H316 H 1.15745 -0.06297 0.69591
 H317 H 1.17128 -0.09100 0.73766
 H318 H 1.09691 -0.14721 0.72432
 H319 H 1.13382 -0.03924 0.64966
 H320 H 1.10466 -0.02499 0.60809
 H321 H 1.04652 -0.09676 0.62484
 C322 C 0.88706 -0.10268 0.30586
 C323 C 0.90946 -0.11997 0.31449
 C324 C 0.91634 -0.14501 0.29919
 C325 C 0.90022 -0.15302 0.27428
 C326 C 0.87631 -0.13676 0.26301
 C327 C 0.86987 -0.11058 0.28007
 O328 O 0.88469 -0.07957 0.32413
 C329 C 0.90596 -0.08259 0.34444
 C330 C 0.92154 -0.10715 0.33918
 C331 C 0.94450 -0.11502 0.35719
 C332 C 0.95226 -0.09742 0.38123
 C333 C 0.93793 -0.07106 0.38863
 C334 C 0.91362 -0.06404 0.36926
 H335 H 0.93405 -0.15845 0.30633
 H336 H 0.90702 -0.17278 0.26415
 H337 H 0.85228 -0.09671 0.27355
 H338 H 0.95640 -0.13464 0.35292
 H339 H 0.96977 -0.10512 0.39454
 H340 H 0.90131 -0.04460 0.37308
 C341 C 0.89517 0.11517 0.69605
 C342 C 0.87638 0.09455 0.68621
 C343 C 0.85052 0.08914 0.70074
 C344 C 0.84323 0.10488 0.72613
 C345 C 0.86102 0.12700 0.73868
 C346 C 0.88797 0.13207 0.72230
 O347 O 0.91886 0.11626 0.67838
 C348 C 0.91467 0.09603 0.65720
 C349 C 0.88879 0.08238 0.66132
 C350 C 0.87947 0.06093 0.64217
 C351 C 0.89691 0.05269 0.61815
 C352 C 0.92464 0.06486 0.61190
 C353 C 0.93318 0.08770 0.63251
 H354 H 0.83586 0.07288 0.69262
 H355 H 0.82265 0.09949 0.73546
 H356 H 0.90300 0.14826 0.72977
 H357 H 0.85878 0.05064 0.64549
 H358 H 0.88786 0.03660 0.60397
 H359 H 0.95368 0.09846 0.62965
 C360 C 0.30427 1.11061 0.10472
 C361 C 0.31338 1.08958 0.12345
 C362 C 0.29835 1.08443 0.14919
 C363 C 0.27329 1.10092 0.15631
 C364 C 0.26169 1.12330 0.13839
 C365 C 0.27837 1.12797 0.11164
 O366 O 0.32223 1.11168 0.08129
 C367 C 0.34289 1.09098 0.08547
 C368 C 0.33817 1.07700 0.11110
 C369 C 0.35659 1.05470 0.11999
 C370 C 0.38065 1.04631 0.10261
 C371 C 0.38797 1.05957 0.07563
 C372 C 0.36766 1.08263 0.06715
 H373 H 0.30582 1.06786 0.16383
 H374 H 0.26307 1.09589 0.17659
 H375 H 0.27145 1.14442 0.09662
 H376 H 0.35247 1.04363 0.14012
 H377 H 0.39340 1.02853 0.11056
 H378 H 0.37111 1.09394 0.04704
 C379 C 0.69385 1.10059 -0.11009
 C380 C 0.67800 1.12290 -0.09878
 C381 C 0.68783 1.15144 -0.10102
 C382 C 0.71458 1.15771 -0.11497
 C383 C 0.73277 1.13619 -0.12757
 C384 C 0.72141 1.10661 -0.12495
 O385 O 0.68021 1.07491 -0.10500
 C386 C 0.65539 1.08128 -0.09034
 C387 C 0.65327 1.11048 -0.08622
 C388 C 0.62938 1.12222 -0.07190
 C389 C 0.60696 1.10396 -0.06121
 C390 C 0.60706 1.07310 -0.06372
 C391 C 0.63256 1.06197 -0.07926
 H392 H 0.67512 1.16883 -0.09203
 H393 H 0.72102 1.18009 -0.11617
 H394 H 0.73376 1.08885 -0.13368
 H395 H 0.62779 1.14534 -0.06908
 H396 H 0.58907 1.11481 -0.05110
 H397 H 0.63475 1.03898 -0.08252
 C398 C 0.30278 0.88641 -0.10004
 C399 C 0.32041 0.89409 -0.12257
 C400 C 0.31182 0.88922 -0.15118
 C401 C 0.28448 0.87637 -0.15731
 C402 C 0.26449 0.86747 -0.13558
 C403 C 0.27455 0.87274 -0.10589
 O404 O 0.31547 0.89360 -0.07438
 C405 C 0.34148 0.90591 -0.08096
 C406 C 0.34529 0.90652 -0.11028
 C407 C 0.37059 0.91803 -0.12219
 C408 C 0.39272 0.92946 -0.10401
 C409 C 0.39094 0.93047 -0.07313
 C410 C 0.36402 0.91776 -0.06177
 H411 H 0.32589 0.89542 -0.16874
 H412 H 0.27888 0.87321 -0.17975
 H413 H 0.26073 0.86702 -0.08799
 H414 H 0.37348 0.91811 -0.14536
 H415 H 0.41180 0.93724 -0.11481
 H416 H 0.36054 0.91728 -0.03871
 C417 C 0.69496 0.88337 0.10481
 C418 C 0.69224 0.91059 0.11614
 C419 C 0.71258 0.92108 0.13588
 C420 C 0.73635 0.90357 0.14469
 C421 C 0.74123 0.87470 0.13470
 C422 C 0.71942 0.86477 0.11369
 O423 O 0.67278 0.87808 0.08602
 C424 C 0.65594 0.90237 0.08566
 C425 C 0.66719 0.92275 0.10391
 C426 C 0.65355 0.94956 0.10725
 C427 C 0.62764 0.95604 0.09182
 C428 C 0.61380 0.93645 0.07233
 C429 C 0.62925 0.90872 0.06933
 H430 H 0.71033 0.94267 0.14445
 H431 H 0.75136 0.91334 0.15955
 H432 H 0.72118 0.84330 0.10475
 H433 H 0.66275 0.96552 0.12158
 H434 H 0.61861 0.97729 0.09502
 H435 H 0.62062 0.89244 0.05503
   
