data_POSCAR
  _audit_creation_date              2014-09-24
  _audit_creation_method            'ToBaCCo'
  _symmetry_space_group_name_H-M    'P1'
  _symmetry_Int_Tables_number       1
  _symmetry_cell_setting            triclinic
  loop_
  _symmetry_equiv_pos_as_xyz
 x,y,z
_cell_length_a 51.1174
_cell_length_b 51.0942
_cell_length_c 42.2791
_cell_angle_alpha 89.963500
_cell_angle_beta 89.969700
_cell_angle_gamma 90.030700
loop_
  _atom_site_label
  _atom_site_type_symbol
  _atom_site_fract_x
  _atom_site_fract_y
  _atom_site_fract_z
O1 O -0.02525 0.30788 0.03029
 O2 O 0.02601 0.30776 -0.03118
 O3 O -0.02509 0.30774 -0.03132
 O4 O 0.02585 0.30795 0.03043
 O5 O 0.02578 0.26466 0.03054
 O6 O -0.02500 0.26445 -0.03102
 O7 O 0.02594 0.26448 -0.03088
 O8 O -0.02515 0.26459 0.03039
 Cu9 Cu 0.00038 0.31221 -0.00047
 Cu10 Cu 0.00040 0.26019 -0.00023
 C11 C -0.03390 0.28621 0.04062
 C12 C 0.03468 0.28605 -0.04131
 C13 C -0.03370 0.28602 -0.04149
 C14 C 0.03447 0.28630 0.04081
 O15 O 0.47458 0.80769 0.53114
 O16 O 0.52561 0.80757 0.46943
 O17 O 0.47449 0.80773 0.46954
 O18 O 0.52569 0.80742 0.53104
 O19 O 0.52540 0.76414 0.53088
 O20 O 0.47438 0.76445 0.46957
 O21 O 0.52533 0.76429 0.46945
 O22 O 0.47445 0.76440 0.53099
 Cu23 Cu 0.50011 0.81198 0.50029
 Cu24 Cu 0.49987 0.75997 0.50021
 C25 C 0.46583 0.78603 0.54137
 C26 C 0.53415 0.78587 0.45914
 C27 C 0.46573 0.78610 0.45929
 C28 C 0.53424 0.78568 0.54123
 O29 O 0.97445 0.69309 -0.03196
 O30 O 1.02557 0.69270 0.02963
 O31 O 0.97446 0.69282 0.02966
 O32 O 1.02556 0.69289 -0.03197
 O33 O 1.02564 0.73616 -0.03169
 O34 O 0.97469 0.73611 0.02976
 O35 O 1.02564 0.73599 0.02973
 O36 O 0.97469 0.73636 -0.03167
 Cu37 Cu 0.99999 0.68850 -0.00118
 Cu38 Cu 1.00018 0.74051 -0.00095
 C39 C 0.96588 0.71483 -0.04211
 C40 C 1.03430 0.71432 0.03997
 C41 C 0.96589 0.71449 0.04000
 C42 C 1.03429 0.71457 -0.04213
 O43 O 0.47437 0.19152 0.46947
 O44 O 0.52528 0.19166 0.53126
 O45 O 0.47418 0.19158 0.53109
 O46 O 0.52547 0.19169 0.46965
 O47 O 0.52530 0.23497 0.46970
 O48 O 0.47419 0.23486 0.53095
 O49 O 0.52512 0.23494 0.53112
 O50 O 0.47438 0.23481 0.46952
 Cu51 Cu 0.49983 0.18723 0.50038
 Cu52 Cu 0.49974 0.23925 0.50032
 C53 C 0.46573 0.21318 0.45916
 C54 C 0.53386 0.21336 0.54151
 C55 C 0.46548 0.21325 0.54129
 C56 C 0.53409 0.21339 0.45940
 O57 O 0.69145 -0.02521 0.03021
 O58 O 0.69147 0.02599 -0.03138
 O59 O 0.69148 -0.02515 -0.03140
 O60 O 0.69136 0.02592 0.03021
 O61 O 0.73462 0.02591 0.03017
 O62 O 0.73475 -0.02500 -0.03127
 O63 O 0.73473 0.02597 -0.03124
 O64 O 0.73471 -0.02505 0.03016
 Cu65 Cu 0.68706 0.00038 -0.00060
 Cu66 Cu 0.73905 0.00046 -0.00055
 C67 C 0.71312 -0.03382 0.04048
 C68 C 0.71315 0.03470 -0.04159
 C69 C 0.71318 -0.03376 -0.04162
 C70 C 0.71301 0.03459 0.04049
 O71 O 0.19186 0.47442 0.53107
 O72 O 0.19200 0.52539 0.46925
 O73 O 0.19200 0.47426 0.46948
 O74 O 0.19193 0.52556 0.53088
 O75 O 0.23520 0.52546 0.53086
 O76 O 0.23527 0.47434 0.46965
 O77 O 0.23527 0.52530 0.46942
 O78 O 0.23512 0.47449 0.53106
 Cu79 Cu 0.18757 0.49991 0.50016
 Cu80 Cu 0.23956 0.49990 0.50026
 C81 C 0.21350 0.46578 0.54138
 C82 C 0.21370 0.53400 0.45899
 C83 C 0.21369 0.46557 0.45932
 C84 C 0.21360 0.53421 0.54114
 O85 O 0.30755 1.02647 0.03084
 O86 O 0.30737 0.97524 -0.03064
 O87 O 0.30749 1.02638 -0.03076
 O88 O 0.30748 0.97534 0.03099
 O89 O 0.26422 0.97548 0.03101
 O90 O 0.26423 1.02636 -0.03055
 O91 O 0.26411 0.97539 -0.03043
 O92 O 0.26429 1.02645 0.03086
 Cu93 Cu 0.31185 1.00085 0.00010
 Cu94 Cu 0.25986 1.00092 0.00023
 C95 C 0.28591 1.03518 0.04112
 C96 C 0.28566 0.96662 -0.04081
 C97 C 0.28582 1.03505 -0.04097
 C98 C 0.28581 0.96674 0.04132
 O99 O 0.80915 0.52553 0.53085
 O100 O 0.80894 0.47450 0.46919
 O101 O 0.80899 0.52562 0.46923
 O102 O 0.80899 0.47439 0.53078
 O103 O 0.76573 0.47454 0.53082
 O104 O 0.76572 0.52559 0.46947
 O105 O 0.76567 0.47464 0.46942
 O106 O 0.76589 0.52552 0.53090
 Cu107 Cu 0.81340 0.50001 0.50000
 Cu108 Cu 0.76140 0.50009 0.50017
 C109 C 0.78752 0.53420 0.54117
 C110 C 0.78723 0.46589 0.45901
 C111 C 0.78731 0.53430 0.45906
 C112 C 0.78731 0.46574 0.54106
 C113 C 0.27492 0.29294 0.33064
 C114 C 0.29451 0.27466 0.32965
 C115 C 0.28929 0.25856 0.30400
 N116 N 0.26719 0.26652 0.28935
 C117 C 0.25833 0.28753 0.30552
 C118 C 0.30451 0.23656 0.29541
 C119 C 0.29885 0.21943 0.26997
 C120 C 0.31169 0.19592 0.26463
 C121 C 0.30043 0.18479 0.23840
 C122 C 0.28095 0.20173 0.22827
 N123 N 0.28045 0.22302 0.24734
 C124 C 0.26441 0.19691 0.20202
 C125 C 0.24209 0.21190 0.19411
 C126 C 0.22548 0.20648 0.16901
 C127 C 0.20589 0.22475 0.17001
 C128 C 0.21112 0.24087 0.19564
 N129 N 0.23323 0.23292 0.21027
 C130 C 0.19591 0.26287 0.20422
 C131 C 0.20158 0.28001 0.22964
 C132 C 0.18876 0.30354 0.23496
 C133 C 0.20002 0.31467 0.26119
 C134 C 0.21949 0.29772 0.27134
 N135 N 0.21998 0.27642 0.25228
 C136 C 0.23601 0.30253 0.29760
 H137 H 0.27322 0.30853 0.34783
 H138 H 0.31066 0.27333 0.34611
 H139 H 0.23085 0.25960 0.25587
 H140 H 0.32736 0.18743 0.27846
 H141 H 0.30579 0.16611 0.22822
 H142 H 0.22717 0.19088 0.15183
 H143 H 0.18973 0.22608 0.15356
 H144 H 0.19467 0.33336 0.27135
 H145 H 0.26955 0.23982 0.24377
 H146 H 0.17310 0.31203 0.22112
 C147 C 0.70672 0.72536 0.33042
 C148 C 0.72506 0.70582 0.32957
 C149 C 0.74123 0.71107 0.30396
 N150 N 0.73325 0.73313 0.28921
 C151 C 0.71216 0.74195 0.30526
 C152 C 0.76330 0.69591 0.29550
 C153 C 0.78047 0.70161 0.27009
 C154 C 0.80403 0.68885 0.26486
 C155 C 0.81519 0.70013 0.23861
 C156 C 0.79820 0.71954 0.22837
 N157 N 0.77687 0.71998 0.24739
 C158 C 0.80301 0.73606 0.20208
 C159 C 0.78798 0.75833 0.19404
 C160 C 0.79342 0.77492 0.16888
 C161 C 0.77510 0.79447 0.16976
 C162 C 0.75894 0.78924 0.19537
 N163 N 0.76690 0.76716 0.21010
 C164 C 0.73688 0.80441 0.20385
 C165 C 0.71970 0.79870 0.22924
 C166 C 0.69614 0.81146 0.23447
 C167 C 0.68497 0.80016 0.26069
 C168 C 0.70194 0.78074 0.27093
 N169 N 0.72328 0.78031 0.25192
 C170 C 0.69712 0.76421 0.29720
 H171 H 0.69107 0.72703 0.34754
 H172 H 0.72639 0.68969 0.34608
 H173 H 0.74011 0.76948 0.25559
 H174 H 0.81255 0.67323 0.27876
 H175 H 0.83391 0.69483 0.22850
 H176 H 0.80907 0.77325 0.15175
 H177 H 0.77378 0.81061 0.15325
 H178 H 0.66624 0.80546 0.27079
 H179 H 0.76004 0.73081 0.24373
 H180 H 0.68764 0.82709 0.22058
 C181 C 0.70602 0.27539 0.32992
 C182 C 0.72568 0.29362 0.33070
 C183 C 0.74217 0.28809 0.30550
 N184 N 0.73317 0.26705 0.28949
 C185 C 0.71109 0.25920 0.30431
 C186 C 0.76451 0.30301 0.29737
 C187 C 0.78095 0.29809 0.27105
 C188 C 0.80046 0.31497 0.26075
 C189 C 0.81162 0.30374 0.23451
 C190 C 0.79869 0.28024 0.22933
 N191 N 0.78032 0.27676 0.25206
 C192 C 0.80422 0.26304 0.20393
 C193 C 0.78887 0.24108 0.19549
 C194 C 0.79393 0.22490 0.16987
 C195 C 0.77425 0.20670 0.16906
 C196 C 0.75776 0.21223 0.19426
 N197 N 0.76678 0.23325 0.21029
 C198 C 0.73541 0.19733 0.20237
 C199 C 0.71899 0.20222 0.22872
 C200 C 0.69949 0.18533 0.23903
 C201 C 0.68836 0.19653 0.26530
 C202 C 0.70128 0.22003 0.27048
 N203 N 0.71962 0.22354 0.24773
 C204 C 0.69576 0.23722 0.29590
 H205 H 0.68991 0.27415 0.34648
 H206 H 0.72749 0.30926 0.34781
 H207 H 0.73055 0.24032 0.24401
 H208 H 0.80591 0.33366 0.27083
 H209 H 0.82728 0.31216 0.22057
 H210 H 0.81004 0.22614 0.15332
 H211 H 0.77242 0.19107 0.15193
 H212 H 0.67272 0.18810 0.27926
 H213 H 0.76938 0.25999 0.25577
 H214 H 0.69405 0.16664 0.22894
 C215 C 0.20640 0.77499 0.16927
 C216 C 0.22460 0.79467 0.17029
 C217 C 0.24077 0.78943 0.19586
 N218 N 0.23293 0.76722 0.21044
 C219 C 0.21192 0.75832 0.19430
 C220 C 0.26273 0.80472 0.20444
 C221 C 0.27994 0.79902 0.22979
 C222 C 0.30342 0.81194 0.23509
 C223 C 0.31465 0.80061 0.26124
 C224 C 0.29778 0.78102 0.27136
 N225 N 0.27646 0.78051 0.25236
 C226 C 0.30271 0.76441 0.29753
 C227 C 0.28779 0.74200 0.30543
 C228 C 0.29330 0.72534 0.33047
 C229 C 0.27508 0.70568 0.32948
 C230 C 0.25891 0.71092 0.30390
 N231 N 0.26678 0.73310 0.28930
 C232 C 0.23694 0.69563 0.29533
 C233 C 0.21976 0.70131 0.26995
 C234 C 0.19629 0.68838 0.26463
 C235 C 0.18508 0.69969 0.23846
 C236 C 0.20194 0.71928 0.22835
 N237 N 0.22325 0.71981 0.24738
 C238 C 0.19703 0.73589 0.20217
 H239 H 0.19078 0.77329 0.15212
 H240 H 0.22584 0.81090 0.15390
 H241 H 0.24000 0.73079 0.24380
 H242 H 0.31183 0.82769 0.22129
 H243 H 0.33333 0.80600 0.27137
 H244 H 0.30892 0.72704 0.34762
 H245 H 0.27383 0.68946 0.34589
 H246 H 0.16640 0.69428 0.22831
 H247 H 0.25969 0.76955 0.25595
 H248 H 0.18787 0.67263 0.27843
 C249 C 0.77465 0.20597 0.83076
 C250 C 0.79434 0.22416 0.82976
 C251 C 0.78916 0.24037 0.80419
 N252 N 0.76698 0.23256 0.78959
 C253 C 0.75803 0.21154 0.80572
 C254 C 0.80447 0.26233 0.79562
 C255 C 0.79884 0.27956 0.77026
 C256 C 0.81178 0.30305 0.76497
 C257 C 0.80053 0.31431 0.73880
 C258 C 0.78096 0.29746 0.72865
 N259 N 0.78039 0.27611 0.74766
 C260 C 0.76442 0.30242 0.70245
 C261 C 0.74201 0.28754 0.69454
 C262 C 0.72541 0.29309 0.66947
 C263 C 0.70571 0.27490 0.67047
 C264 C 0.71088 0.25871 0.69607
 N265 N 0.73305 0.26653 0.71068
 C266 C 0.69556 0.23675 0.70464
 C267 C 0.70117 0.21953 0.73002
 C268 C 0.68821 0.19606 0.73534
 C269 C 0.69946 0.18481 0.76151
 C270 C 0.71905 0.20164 0.77163
 N271 N 0.71964 0.22298 0.75261
 C272 C 0.73561 0.19667 0.79782
 H273 H 0.77290 0.19033 0.84791
 H274 H 0.81054 0.22536 0.84617
 H275 H 0.73063 0.23973 0.75620
 H276 H 0.82750 0.31144 0.77880
 H277 H 0.80595 0.33300 0.72868
 H278 H 0.72717 0.30873 0.65232
 H279 H 0.68953 0.27369 0.65405
 H280 H 0.69402 0.16612 0.77165
 H281 H 0.76943 0.25935 0.74404
 H282 H 0.67248 0.18768 0.72153
 C283 C 0.27497 0.70609 0.67059
 C284 C 0.29326 0.72570 0.66980
 C285 C 0.28766 0.74229 0.69488
 N286 N 0.26652 0.73341 0.71081
 C287 C 0.25867 0.71130 0.69607
 C288 C 0.30261 0.76462 0.70297
 C289 C 0.29762 0.78116 0.72916
 C290 C 0.31451 0.80065 0.73946
 C291 C 0.30319 0.81193 0.76557
 C292 C 0.27963 0.79909 0.77068
 N293 N 0.27620 0.78067 0.74803
 C294 C 0.26233 0.80477 0.79595
 C295 C 0.24026 0.78952 0.80431
 C296 C 0.22396 0.79473 0.82979
 C297 C 0.20569 0.77511 0.83059
 C298 C 0.21129 0.75852 0.80552
 N299 N 0.23242 0.76741 0.78958
 C300 C 0.19635 0.73618 0.79745
 C301 C 0.20133 0.71964 0.77124
 C302 C 0.18445 0.70015 0.76096
 C303 C 0.19575 0.68888 0.73483
 C304 C 0.21931 0.70172 0.72971
 N305 N 0.22274 0.72014 0.75237
 C306 C 0.23661 0.69606 0.70443
 H307 H 0.27376 0.68994 0.65411
 H308 H 0.30899 0.72741 0.65278
 H309 H 0.23952 0.73104 0.75611
 H310 H 0.33327 0.80600 0.72946
 H311 H 0.31159 0.82760 0.77948
 H312 H 0.22517 0.81089 0.84626
 H313 H 0.18996 0.77340 0.84762
 H314 H 0.18735 0.67320 0.72093
 H315 H 0.25942 0.76977 0.74428
 H316 H 0.16570 0.69479 0.77096
 C317 C 0.27413 0.29327 0.66992
 C318 C 0.29372 0.27499 0.67073
 C319 C 0.28856 0.25877 0.69632
 N320 N 0.26649 0.26667 0.71111
 C321 C 0.25759 0.28775 0.69509
 C322 C 0.30380 0.23674 0.70474
 C323 C 0.29819 0.21953 0.73014
 C324 C 0.31103 0.19600 0.73534
 C325 C 0.29983 0.18478 0.76158
 C326 C 0.28037 0.20169 0.77186
 N327 N 0.27983 0.22304 0.75286
 C328 C 0.26390 0.19680 0.79817
 C329 C 0.24159 0.21175 0.80625
 C330 C 0.22505 0.20622 0.83142
 C331 C 0.20543 0.22448 0.83058
 C332 C 0.21059 0.24069 0.80499
 N333 N 0.23267 0.23282 0.79022
 C334 C 0.19533 0.26271 0.79655
 C335 C 0.20096 0.27994 0.77117
 C336 C 0.18812 0.30347 0.76598
 C337 C 0.19935 0.31471 0.73976
 C338 C 0.21881 0.29780 0.72948
 N339 N 0.21933 0.27644 0.74846
 C340 C 0.23530 0.30271 0.70319
 H341 H 0.27239 0.30894 0.65281
 H342 H 0.30984 0.27373 0.65419
 H343 H 0.23021 0.25964 0.74476
 H344 H 0.32666 0.18755 0.72141
 H345 H 0.30520 0.16606 0.77167
 H346 H 0.22679 0.19056 0.84854
 H347 H 0.18931 0.22573 0.84711
 H348 H 0.19398 0.33344 0.72969
 H349 H 0.26895 0.23984 0.75656
 H350 H 0.17248 0.31191 0.77991
 C351 C 0.77505 0.79405 0.83041
 C352 C 0.79480 0.77593 0.82963
 C353 C 0.78974 0.75961 0.80413
 N354 N 0.76759 0.76729 0.78937
 C355 C 0.75853 0.78833 0.80531
 C356 C 0.80516 0.73769 0.79578
 C357 C 0.79964 0.72036 0.77049
 C358 C 0.81266 0.69692 0.76537
 C359 C 0.80148 0.68554 0.73924
 C360 C 0.78187 0.70227 0.72894
 N361 N 0.78121 0.72367 0.74782
 C362 C 0.76538 0.69716 0.70273
 C363 C 0.74295 0.71192 0.69464
 C364 C 0.72641 0.70619 0.66956
 C365 C 0.70666 0.72430 0.67035
 C366 C 0.71173 0.74063 0.69582
 N367 N 0.73390 0.73297 0.71056
 C368 C 0.69633 0.76256 0.70417
 C369 C 0.70186 0.77990 0.72944
 C370 C 0.68886 0.80336 0.73454
 C371 C 0.70004 0.81474 0.76066
 C372 C 0.71963 0.79800 0.77098
 N373 N 0.72029 0.77659 0.75211
 C374 C 0.73611 0.80310 0.79720
 H375 H 0.77320 0.80974 0.84744
 H376 H 0.81094 0.77484 0.84613
 H377 H 0.73129 0.75989 0.75588
 H378 H 0.82838 0.68864 0.77928
 H379 H 0.80699 0.66684 0.72923
 H380 H 0.72824 0.69048 0.65254
 H381 H 0.69050 0.72538 0.65386
 H382 H 0.69455 0.83345 0.77065
 H383 H 0.77018 0.74036 0.74408
 H384 H 0.67315 0.81165 0.72062
 C385 C 0.28349 0.09294 0.10477
 N386 N 0.29522 0.11621 0.09858
 N387 N 0.29259 0.13622 0.11852
 C388 C 0.27816 0.13358 0.14527
 N389 N 0.26648 0.11030 0.15149
 N390 N 0.26911 0.09028 0.13155
 C391 C 0.28505 0.07189 0.08239
 C392 C 0.28575 0.05447 0.06317
 C393 C 0.27406 0.15557 0.16577
 C394 C 0.27000 0.17424 0.18250
 C395 C 0.78504 0.59295 0.60615
 N396 N 0.79711 0.61608 0.60021
 N397 N 0.79441 0.63613 0.62009
 C398 C 0.77957 0.63364 0.64652
 N399 N 0.76755 0.61049 0.65250
 N400 N 0.77024 0.59045 0.63262
 C401 C 0.78664 0.57191 0.58378
 C402 C 0.78737 0.55452 0.56455
 C403 C 0.77535 0.65569 0.66687
 C404 C 0.77116 0.67442 0.68343
 C405 C 0.71607 0.90753 0.10569
 N406 N 0.70547 0.88381 0.09915
 N407 N 0.70839 0.86392 0.11924
 C408 C 0.72200 0.86715 0.14649
 N409 N 0.73254 0.89089 0.15308
 N410 N 0.72962 0.91078 0.13298
 C411 C 0.71425 0.92849 0.08319
 C412 C 0.71338 0.94585 0.06389
 C413 C 0.72647 0.84535 0.16719
 C414 C 0.73087 0.82685 0.18409
 C415 C 0.21604 0.40699 0.60641
 N416 N 0.20375 0.38395 0.60064
 N417 N 0.20642 0.36389 0.62054
 C418 C 0.22145 0.36626 0.64680
 N419 N 0.23369 0.38932 0.65261
 N420 N 0.23102 0.40938 0.63271
 C421 C 0.21443 0.42805 0.58403
 C422 C 0.21368 0.44545 0.56479
 C423 C 0.22558 0.34421 0.66719
 C424 C 0.22967 0.32547 0.68381
 C425 C 0.90739 0.28341 0.10571
 N426 N 0.91059 0.26993 0.13308
 N427 N 0.89069 0.26708 0.15317
 C428 C 0.86698 0.27761 0.14649
 N429 N 0.86379 0.29114 0.11915
 N430 N 0.88369 0.29400 0.09907
 C431 C 0.92836 0.28516 0.08324
 C432 C 0.94574 0.28599 0.06398
 C433 C 0.84517 0.27323 0.16720
 C434 C 0.82666 0.26893 0.18412
 C435 C 0.40704 0.78358 0.60637
 N436 N 0.40926 0.76836 0.63252
 N437 N 0.38919 0.76577 0.65241
 C438 C 0.36629 0.77832 0.64675
 N439 N 0.36409 0.79358 0.62063
 N440 N 0.38416 0.79617 0.60074
 C441 C 0.42810 0.78513 0.58400
 C442 C 0.44550 0.78585 0.56476
 C443 C 0.34420 0.77426 0.66710
 C444 C 0.32542 0.77021 0.68366
 C445 C 0.09309 0.71670 0.10494
 N446 N 0.11633 0.70496 0.09879
 N447 N 0.13634 0.70760 0.11874
 C448 C 0.13371 0.72206 0.14545
 N449 N 0.11045 0.73375 0.15163
 N450 N 0.09044 0.73111 0.13168
 C451 C 0.07205 0.71513 0.08255
 C452 C 0.05465 0.71443 0.06332
 C453 C 0.15569 0.72617 0.16595
 C454 C 0.17435 0.73026 0.18267
 C455 C 0.59231 0.21634 0.60682
 N456 N 0.61572 0.20490 0.60078
 N457 N 0.63561 0.20778 0.62085
 C458 C 0.63268 0.22217 0.64756
 N459 N 0.60925 0.23356 0.65363
 N460 N 0.58936 0.23068 0.63356
 C461 C 0.57140 0.21454 0.58431
 C462 C 0.55410 0.21366 0.56498
 C463 C 0.65452 0.22656 0.66817
 C464 C 0.67306 0.23087 0.68499
 C465 C 0.71588 0.09253 0.89479
 N466 N 0.73042 0.08992 0.86814
 N467 N 0.73319 0.10998 0.84825
 C468 C 0.72150 0.13325 0.85441
 N469 N 0.70691 0.13584 0.88103
 N470 N 0.70414 0.11578 0.90092
 C471 C 0.71418 0.07144 0.91714
 C472 C 0.71339 0.05400 0.93635
 C473 C 0.72574 0.15528 0.83398
 C474 C 0.72992 0.17398 0.81731
 C475 C 0.21660 0.59241 0.39348
 N476 N 0.23095 0.58945 0.36673
 N477 N 0.23377 0.60932 0.34657
 C478 C 0.22234 0.63274 0.35256
 N479 N 0.20794 0.63569 0.37928
 N480 N 0.20512 0.61582 0.39943
 C481 C 0.21485 0.57152 0.41608
 C482 C 0.21399 0.55424 0.43547
 C483 C 0.22670 0.65457 0.33187
 C484 C 0.23101 0.67312 0.31500
 C485 C 0.28265 0.90796 0.89406
 N486 N 0.29363 0.88437 0.90041
 N487 N 0.29078 0.86448 0.88033
 C488 C 0.27685 0.86757 0.85329
 N489 N 0.26592 0.89116 0.84690
 N490 N 0.26877 0.91106 0.86698
 C491 C 0.28445 0.92892 0.91654
 C492 C 0.28534 0.94628 0.93581
 C493 C 0.27250 0.84575 0.83260
 C494 C 0.26820 0.82723 0.81570
 C495 C 0.78432 0.40713 0.39408
 N496 N 0.76936 0.40961 0.36777
 N497 N 0.76658 0.38957 0.34789
 C498 C 0.77868 0.36644 0.35373
 N499 N 0.79368 0.36398 0.38001
 N500 N 0.79646 0.38402 0.39988
 C501 C 0.78606 0.42817 0.41643
 C502 C 0.78691 0.44557 0.43564
 C503 C 0.77442 0.34442 0.33336
 C504 C 0.77023 0.32571 0.31675
 C505 C 0.09225 0.28318 0.89478
 N506 N 0.08903 0.26960 0.86750
 N507 N 0.10891 0.26673 0.84740
 C508 C 0.13261 0.27736 0.85396
 N509 N 0.13581 0.29099 0.88121
 N510 N 0.11593 0.29386 0.90131
 C511 C 0.07129 0.28494 0.91728
 C512 C 0.05394 0.28577 0.93658
 C513 C 0.15441 0.27296 0.83325
 C514 C 0.17290 0.26863 0.81634
 C515 C 0.59292 0.78318 0.39413
 N516 N 0.59061 0.76798 0.36799
 N517 N 0.61066 0.76535 0.34808
 C518 C 0.63361 0.77783 0.35370
 N519 N 0.63590 0.79307 0.37980
 N520 N 0.61585 0.79571 0.39972
 C521 C 0.57187 0.78481 0.41651
 C522 C 0.55448 0.78560 0.43575
 C523 C 0.65565 0.77377 0.33328
 C524 C 0.67438 0.76974 0.31663
 C525 C 0.90837 0.71785 0.89396
 N526 N 0.88495 0.70640 0.90005
 N527 N 0.86507 0.70920 0.87995
 C528 C 0.86799 0.72353 0.85317
 N529 N 0.89142 0.73493 0.84705
 N530 N 0.91131 0.73213 0.86714
 C531 C 0.92931 0.71608 0.91646
 C532 C 0.94665 0.71520 0.93576
 C533 C 0.84617 0.72778 0.83247
 C534 C 0.82764 0.73197 0.81556
 C535 C 0.40742 0.21591 0.39365
 N536 N 0.38383 0.20490 0.39991
 N537 N 0.36401 0.20776 0.37974
 C538 C 0.36718 0.22171 0.35271
 N539 N 0.39079 0.23267 0.34641
 N540 N 0.41061 0.22981 0.36658
 C541 C 0.42827 0.21419 0.41626
 C542 C 0.44553 0.21338 0.43565
 C543 C 0.34542 0.22615 0.33200
 C544 C 0.32694 0.23054 0.31511
 C545 C 0.71606 0.90739 0.89356
 N546 N 0.73102 0.90986 0.86722
 N547 N 0.73383 0.88978 0.84740
 C548 C 0.72178 0.86664 0.85333
 N549 N 0.70677 0.86419 0.87963
 N550 N 0.70396 0.88427 0.89945
 C551 C 0.71432 0.92847 0.91586
 C552 C 0.71346 0.94589 0.93504
 C553 C 0.72608 0.84458 0.83303
 C554 C 0.73032 0.82584 0.81649
 C555 C 0.21654 0.40659 0.39461
 N556 N 0.20483 0.38331 0.40080
 N557 N 0.20758 0.36326 0.38092
 C558 C 0.22212 0.36588 0.35427
 N559 N 0.23378 0.38918 0.34805
 N560 N 0.23103 0.40923 0.36792
 C561 C 0.21481 0.42769 0.41690
 C562 C 0.21397 0.44515 0.43605
 C563 C 0.22630 0.34388 0.33382
 C564 C 0.23041 0.32520 0.31712
 C565 C 0.28327 0.09270 0.89519
 N566 N 0.29542 0.11580 0.90100
 N567 N 0.29274 0.13583 0.88105
 C568 C 0.27783 0.13335 0.85470
 N569 N 0.26573 0.11023 0.84885
 N570 N 0.26841 0.09020 0.86880
 C571 C 0.28488 0.07167 0.91761
 C572 C 0.28561 0.05429 0.93689
 C573 C 0.27367 0.15537 0.83426
 C574 C 0.26955 0.17408 0.81760
 C575 C 0.78430 0.59292 0.39381
 N576 N 0.79476 0.61670 0.40038
 N577 N 0.79180 0.63657 0.38026
 C578 C 0.77829 0.63326 0.35296
 N579 N 0.76787 0.60946 0.34635
 N580 N 0.77083 0.58959 0.36647
 C581 C 0.78614 0.57198 0.41633
 C582 C 0.78703 0.55463 0.43564
 C583 C 0.77378 0.65503 0.33223
 C584 C 0.76935 0.67350 0.31530
 C585 C 0.09199 0.71710 0.89413
 N586 N 0.11491 0.70458 0.89978
 N587 N 0.13497 0.70720 0.87988
 C588 C 0.13272 0.72241 0.85373
 N589 N 0.10978 0.73488 0.84804
 N590 N 0.08972 0.73226 0.86794
 C591 C 0.07094 0.71553 0.91652
 C592 C 0.05355 0.71480 0.93577
 C593 C 0.15479 0.72650 0.83335
 C594 C 0.17356 0.73057 0.81677
 C595 C 0.59277 0.21648 0.39428
 N596 N 0.61653 0.20602 0.40092
 N597 N 0.63640 0.20897 0.38081
 C598 C 0.63312 0.22246 0.35346
 N599 N 0.60935 0.23287 0.34680
 N600 N 0.58948 0.22992 0.36690
 C601 C 0.57181 0.21462 0.41677
 C602 C 0.55445 0.21370 0.43604
 C603 C 0.65489 0.22692 0.33272
 C604 C 0.67336 0.23129 0.31576
 C605 C 0.90779 0.28292 0.89330
 N606 N 0.91072 0.26854 0.86658
 N607 N 0.89081 0.26561 0.84655
 C608 C 0.86737 0.27697 0.85264
 N609 N 0.86446 0.29141 0.87932
 N610 N 0.88437 0.29433 0.89935
 C611 C 0.92872 0.28477 0.91577
 C612 C 0.94604 0.28568 0.93507
 C613 C 0.84552 0.27255 0.83207
 C614 C 0.82697 0.26821 0.81527
 C615 C 0.40682 0.78364 0.39449
 N616 N 0.40940 0.76917 0.36777
 N617 N 0.38935 0.76651 0.34789
 C618 C 0.36611 0.77823 0.35411
 N619 N 0.36355 0.79274 0.38078
 N620 N 0.38359 0.79540 0.40067
 C621 C 0.42790 0.78524 0.41680
 C622 C 0.44534 0.78597 0.43598
 C623 C 0.34410 0.77410 0.33367
 C624 C 0.32540 0.77002 0.31700
 C625 C 0.28300 0.90818 0.10663
 N626 N 0.26871 0.91108 0.13344
 N627 N 0.26589 0.89116 0.15352
 C628 C 0.27728 0.86773 0.14739
 N629 N 0.29162 0.86485 0.12062
 N630 N 0.29444 0.88477 0.10055
 C631 C 0.28473 0.92912 0.08411
 C632 C 0.28556 0.94646 0.06478
 C633 C 0.27293 0.84585 0.16801
 C634 C 0.26863 0.82727 0.18482
 C635 C 0.78439 0.40669 0.60574
 N636 N 0.76986 0.40928 0.63241
 N637 N 0.76701 0.38918 0.65222
 C638 C 0.77861 0.36588 0.64597
 N639 N 0.79319 0.36331 0.61934
 N640 N 0.79604 0.38341 0.59953
 C641 C 0.78618 0.42783 0.58348
 C642 C 0.78705 0.44531 0.56435
 C643 C 0.77431 0.34383 0.66634
 C644 C 0.77011 0.32512 0.68298
 C645 C 0.71564 0.09333 0.10546
 N646 N 0.73022 0.09070 0.13206
 N647 N 0.73296 0.11072 0.15198
 C648 C 0.72121 0.13397 0.14589
 N649 N 0.70657 0.13658 0.11933
 N650 N 0.70383 0.11656 0.09942
 C651 C 0.71398 0.07230 0.08309
 C652 C 0.71320 0.05492 0.06386
 C653 C 0.72546 0.15596 0.16631
 C654 C 0.72966 0.17465 0.18296
 C655 C 0.21639 0.59290 0.60624
 N656 N 0.22997 0.58971 0.63353
 N657 N 0.23278 0.60960 0.65363
 C658 C 0.22210 0.63328 0.64705
 N659 N 0.20847 0.63645 0.61980
 N660 N 0.20566 0.61656 0.59970
 C661 C 0.21466 0.57194 0.58376
 C662 C 0.21383 0.55457 0.56450
 C663 C 0.22644 0.65509 0.66776
 C664 C 0.23072 0.67360 0.68467
 C665 C 0.90711 0.71705 0.10501
 N666 N 0.88406 0.70479 0.09923
 N667 N 0.86403 0.70742 0.11917
 C668 C 0.86645 0.72239 0.14549
 N669 N 0.88952 0.73460 0.15131
 N670 N 0.90954 0.73197 0.13137
 C671 C 0.92815 0.71545 0.08262
 C672 C 0.94554 0.71470 0.06338
 C673 C 0.84444 0.72646 0.16595
 C674 C 0.82573 0.73050 0.18262
 C675 C 0.40681 0.21611 0.60643
 N676 N 0.38304 0.20569 0.59976
 N677 N 0.36316 0.20859 0.61987
 C678 C 0.36645 0.22200 0.64725
 N679 N 0.39024 0.23237 0.65396
 N680 N 0.41012 0.22947 0.63385
 C681 C 0.42776 0.21432 0.58394
 C682 C 0.44513 0.21348 0.56466
 C683 C 0.34468 0.22643 0.66798
 C684 C 0.32621 0.23079 0.68492
 C685 C 0.09287 0.28358 0.10618
 N686 N 0.08969 0.26976 0.13331
 N687 N 0.10955 0.26689 0.15343
 C688 C 0.13318 0.27774 0.14702
 N689 N 0.13634 0.29161 0.11992
 N690 N 0.11649 0.29449 0.09981
 C691 C 0.07199 0.28532 0.08363
 C692 C 0.05470 0.28612 0.06428
 C693 C 0.15497 0.27329 0.16768
 C694 C 0.17347 0.26889 0.18454
 C695 C 0.59298 0.78254 0.60623
 N696 N 0.59005 0.76832 0.63310
 N697 N 0.60997 0.76547 0.65312
 C698 C 0.63344 0.77676 0.64688
 N699 N 0.63635 0.79103 0.62005
 N700 N 0.61643 0.79388 0.60003
 C701 C 0.57198 0.78437 0.58381
 C702 C 0.55460 0.78530 0.56458
 C703 C 0.65529 0.77248 0.66753
 C704 C 0.67383 0.76828 0.68441
   
