data_POSCAR
  _audit_creation_date              2014-09-24
  _audit_creation_method            'ToBaCCo'
  _symmetry_space_group_name_H-M    'P1'
  _symmetry_Int_Tables_number       1
  _symmetry_cell_setting            triclinic
  loop_
  _symmetry_equiv_pos_as_xyz
 x,y,z
_cell_length_a 17.4146
_cell_length_b 17.3199
_cell_length_c 17.4810
_cell_angle_alpha 90.221400
_cell_angle_beta 90.321100
_cell_angle_gamma 89.782800
loop_
  _atom_site_label
  _atom_site_type_symbol
  _atom_site_fract_x
  _atom_site_fract_y
  _atom_site_fract_z
O1 O -0.20573 0.08423 -0.01455
 O2 O 0.18675 0.11969 0.00622
 O3 O -0.02195 0.20068 0.08985
 O4 O -0.00504 0.18785 -0.11913
 O5 O 0.01008 0.08899 -0.20669
 O6 O -0.01819 0.11199 0.18873
 O7 O 0.08555 0.20481 -0.00756
 O8 O -0.12056 0.18585 -0.01057
 Zr9 Zr -0.01104 0.13245 -0.00935
 O10 O 0.06860 0.07017 -0.07010
 O11 O -0.07897 0.06294 0.05804
 C12 C -0.18935 0.15694 -0.01028
 C13 C 0.15790 0.18857 -0.00157
 C14 C -0.02137 0.18275 0.16174
 C15 C 0.00410 0.16087 -0.18876
 H16 H 0.08695 0.10996 0.10188
 O17 O 0.05772 0.07431 0.06853
 H18 H -0.10208 0.08951 -0.11508
 O19 O -0.06932 0.05878 -0.08020
 O20 O 0.20738 -0.08621 0.01519
 O21 O -0.18658 -0.12352 -0.01709
 O22 O 0.08751 0.00468 0.20347
 O23 O 0.11908 0.00079 -0.19081
 O24 O -0.08810 -0.01663 -0.20843
 O25 O -0.11883 -0.00162 0.18575
 O26 O 0.01535 -0.20124 0.09642
 O27 O 0.02339 -0.20510 -0.09598
 O28 O -0.00257 -0.11027 0.19143
 O29 O 0.01557 -0.11694 -0.19378
 O30 O 0.18770 0.00942 0.11751
 O31 O -0.20413 -0.01337 0.08460
 O32 O -0.18857 -0.01740 -0.12295
 O33 O 0.20440 0.01517 -0.09011
 O34 O 0.12219 -0.18750 0.00967
 O35 O -0.08480 -0.20818 -0.00714
 Zr36 Zr 0.13441 0.00970 0.00759
 Zr37 Zr -0.13408 -0.01374 -0.01388
 Zr38 Zr -0.00989 0.00074 0.13246
 Zr39 Zr 0.01013 -0.00826 -0.13779
 Zr40 Zr 0.01226 -0.13564 -0.00023
 O41 O -0.05909 -0.08085 -0.07666
 O42 O 0.07030 -0.06387 0.07365
 C43 C 0.19095 -0.15877 0.01375
 C44 C -0.15747 -0.19265 -0.01282
 C45 C 0.15973 0.00544 0.18642
 C46 C 0.18769 0.01047 -0.16232
 C47 C -0.16063 -0.01666 -0.19202
 C48 C -0.18772 -0.00707 0.15693
 C49 C 0.00791 -0.18172 0.16639
 C50 C 0.01956 -0.18670 -0.16677
 H51 H -0.09975 -0.11015 0.09330
 O52 O -0.06769 -0.07521 0.06245
 H53 H 0.11801 -0.09890 -0.09517
 O54 O 0.08103 -0.06765 -0.06541
 O55 O 0.29599 0.58911 -0.01431
 O56 O 0.69039 0.61756 0.00336
 O57 O 0.48392 0.70706 0.08854
 O58 O 0.49676 0.68903 -0.11805
 O59 O 0.51100 0.58764 -0.20295
 O60 O 0.48500 0.62087 0.18866
 O61 O 0.59067 0.70445 -0.01193
 O62 O 0.38278 0.68960 -0.01231
 Zr63 Zr 0.49181 0.63531 -0.00911
 O64 O 0.56970 0.56865 -0.06827
 O65 O 0.42144 0.57066 0.05978
 C66 C 0.31360 0.66149 -0.01241
 C67 C 0.66282 0.68676 -0.00687
 C68 C 0.48453 0.69043 0.16085
 C69 C 0.50546 0.66029 -0.18647
 H70 H 0.59133 0.61534 0.10123
 O71 O 0.56098 0.57932 0.06927
 H72 H 0.39936 0.58981 -0.11323
 O73 O 0.43166 0.55995 -0.07723
 O74 O 0.70483 0.40995 0.02020
 O75 O 0.31203 0.38105 -0.00823
 O76 O 0.58913 0.51479 0.20523
 O77 O 0.61749 0.49332 -0.18718
 O78 O 0.41048 0.48144 -0.20310
 O79 O 0.38147 0.51380 0.18862
 O80 O 0.51032 0.31286 0.12103
 O81 O 0.51240 0.29391 -0.08666
 O82 O 0.49405 0.41407 0.20581
 O83 O 0.51059 0.38034 -0.18673
 O84 O 0.68936 0.51087 0.11968
 O85 O 0.29550 0.49640 0.08915
 O86 O 0.31044 0.48379 -0.11732
 O87 O 0.70411 0.50837 -0.08781
 O88 O 0.61797 0.30964 0.01975
 O89 O 0.41172 0.29450 0.00887
 Zr90 Zr 0.63499 0.50886 0.01048
 Zr91 Zr 0.36578 0.49061 -0.00872
 Zr92 Zr 0.49068 0.51141 0.13483
 Zr93 Zr 0.50909 0.48966 -0.13276
 Zr94 Zr 0.50952 0.36510 0.01161
 O95 O 0.44001 0.42005 -0.06755
 O96 O 0.56919 0.44070 0.08031
 C97 C 0.68731 0.33738 0.02098
 C98 C 0.33987 0.31170 -0.00021
 C99 C 0.66151 0.51098 0.18876
 C100 C 0.68652 0.50189 -0.15962
 C101 C 0.33796 0.48255 -0.18653
 C102 C 0.31229 0.50671 0.16085
 C103 C 0.50317 0.34175 0.18950
 C104 C 0.50968 0.31097 -0.15881
 H105 H 0.39833 0.39962 0.10312
 O106 O 0.43118 0.43181 0.07022
 H107 H 0.61370 0.39670 -0.08744
 O108 O 0.57824 0.43003 -0.05806
 O109 O -0.20878 0.58600 0.48938
 O110 O 0.18594 0.62261 0.51257
 O111 O -0.02823 0.70364 0.59802
 O112 O -0.01283 0.70365 0.40652
 O113 O 0.00879 0.61406 0.31086
 O114 O -0.02372 0.61425 0.69481
 O115 O 0.08411 0.70748 0.50330
 O116 O -0.12404 0.68696 0.50160
 Zr117 Zr -0.01342 0.63565 0.50165
 O118 O 0.06721 0.57660 0.43808
 O119 O -0.08323 0.56678 0.56477
 C120 C -0.19295 0.65842 0.49778
 C121 C 0.15672 0.69138 0.50646
 C122 C -0.02870 0.68422 0.66861
 C123 C -0.00089 0.68523 0.33692
 H124 H 0.08603 0.61492 0.61103
 O125 O 0.05770 0.57928 0.57679
 H126 H -0.10391 0.59628 0.39267
 O127 O -0.07086 0.56485 0.42667
 O128 O 0.20555 0.41578 0.51862
 O129 O -0.18563 0.37874 0.48530
 O130 O 0.08610 0.50870 0.70808
 O131 O 0.11812 0.50806 0.31343
 O132 O -0.08718 0.49501 0.29470
 O133 O -0.12230 0.50415 0.68802
 O134 O 0.01137 0.31222 0.61836
 O135 O 0.01751 0.30048 0.40824
 O136 O -0.00895 0.41012 0.70598
 O137 O 0.01144 0.39006 0.31022
 O138 O 0.18714 0.51133 0.62320
 O139 O -0.20695 0.48864 0.58694
 O140 O -0.18787 0.48578 0.37968
 O141 O 0.20311 0.51857 0.41498
 O142 O 0.12060 0.31406 0.51457
 O143 O -0.08422 0.29413 0.50120
 Zr144 Zr 0.13328 0.51334 0.51365
 Zr145 Zr -0.13533 0.48970 0.49019
 Zr146 Zr -0.01223 0.50714 0.63705
 Zr147 Zr 0.00941 0.50138 0.36703
 Zr148 Zr 0.01121 0.36763 0.50830
 O149 O -0.05739 0.42565 0.42961
 O150 O 0.06875 0.44082 0.58044
 C151 C 0.18942 0.34291 0.51663
 C152 C -0.15630 0.30987 0.49171
 C153 C 0.15868 0.50739 0.69188
 C154 C 0.18685 0.51507 0.34240
 C155 C -0.15951 0.49021 0.31088
 C156 C -0.19090 0.49647 0.65905
 C157 C 0.00211 0.33893 0.68802
 C158 C 0.01349 0.31902 0.33663
 H159 H -0.10169 0.39475 0.59894
 O160 O -0.06943 0.42937 0.56797
 H161 H 0.11431 0.40681 0.41063
 O162 O 0.07786 0.43811 0.44094
 O163 O 0.29614 0.08994 0.48308
 O164 O 0.68979 0.11739 0.50265
 O165 O 0.48335 0.20632 0.58727
 O166 O 0.49740 0.18864 0.38072
 O167 O 0.51261 0.08747 0.29567
 O168 O 0.48309 0.11979 0.68721
 O169 O 0.59013 0.20440 0.48756
 O170 O 0.38284 0.19034 0.48624
 Zr171 Zr 0.49167 0.13503 0.48928
 O172 O 0.57011 0.06852 0.43020
 O173 O 0.42114 0.07039 0.55764
 C174 C 0.31354 0.16249 0.48594
 C175 C 0.66215 0.18663 0.49302
 C176 C 0.48256 0.18924 0.65945
 C177 C 0.50677 0.16004 0.31240
 H178 H 0.59060 0.11477 0.60020
 O179 O 0.56061 0.07887 0.56777
 H180 H 0.39980 0.08956 0.38417
 O181 O 0.43217 0.05984 0.42027
 O182 O 0.70456 -0.09016 0.51943
 O183 O 0.31174 -0.11825 0.48981
 O184 O 0.58838 0.01295 0.70339
 O185 O 0.61892 -0.00798 0.31097
 O186 O 0.41268 -0.01951 0.29432
 O187 O 0.38042 0.01297 0.68521
 O188 O 0.50928 -0.18763 0.61989
 O189 O 0.51168 -0.20670 0.41224
 O190 O 0.49256 -0.08620 0.70425
 O191 O 0.51111 -0.12060 0.31186
 O192 O 0.68905 0.01046 0.61814
 O193 O 0.29490 -0.00369 0.58522
 O194 O 0.31204 -0.01809 0.37957
 O195 O 0.70485 0.00756 0.41075
 O196 O 0.61772 -0.19053 0.51942
 O197 O 0.41103 -0.20526 0.50719
 Zr198 Zr 0.63493 0.00854 0.50895
 Zr199 Zr 0.36599 -0.00918 0.48848
 Zr200 Zr 0.49006 0.01085 0.63281
 Zr201 Zr 0.51027 -0.01080 0.36541
 Zr202 Zr 0.50930 -0.13528 0.51016
 O203 O 0.44064 -0.07998 0.43052
 O204 O 0.56881 -0.05961 0.57865
 C205 C 0.68701 -0.16266 0.52090
 C206 C 0.33923 -0.18760 0.49841
 C207 C 0.66073 0.00943 0.68693
 C208 C 0.68791 0.00051 0.33873
 C209 C 0.34029 -0.01985 0.31076
 C210 C 0.31146 0.00605 0.65689
 C211 C 0.50172 -0.15860 0.68834
 C212 C 0.50914 -0.18990 0.34006
 H213 H 0.39782 -0.10043 0.60078
 O214 O 0.43075 -0.06833 0.56791
 H215 H 0.61416 -0.10413 0.41139
 O216 O 0.57863 -0.07064 0.44053
 C217 C 0.21054 0.25472 -0.00326
 C218 C 0.28672 0.24602 0.00019
 H219 H 0.18566 0.31201 -0.00753
 H220 H 0.31149 0.18868 0.00461
 C221 C 0.20947 -0.24282 0.50293
 C222 C 0.28556 -0.25256 0.50043
 H223 H 0.18493 -0.18522 0.50184
 H224 H 0.30996 -0.31021 0.50192
 C225 C 0.79272 0.74420 -0.01169
 C226 C 0.71615 0.75227 -0.01237
 H227 H 0.81758 0.68685 -0.00777
 H228 H 0.69062 0.80932 -0.01641
 C229 C 0.79156 0.24333 0.49087
 C230 C 0.71539 0.25198 0.48907
 H231 H 0.81661 0.18607 0.49459
 H232 H 0.69050 0.30933 0.48549
 C233 C 0.74476 0.20994 -0.00395
 C234 C 0.75255 0.28330 0.01879
 H235 H 0.68819 0.18727 -0.01680
 H236 H 0.80918 0.30599 0.03139
 C237 C 0.74447 -0.29154 0.50382
 C238 C 0.75240 -0.21634 0.51981
 H239 H 0.68741 -0.31535 0.49618
 H240 H 0.80908 -0.19180 0.52801
 C241 C 0.25550 0.28971 0.51297
 C242 C 0.24806 0.21622 0.49043
 H243 H 0.31197 0.31264 0.52581
 H244 H 0.19153 0.19343 0.47759
 C245 C 0.25644 0.78816 0.01270
 C246 C 0.24854 0.71484 -0.00927
 H247 H 0.31276 0.81092 0.02653
 H248 H 0.19217 0.69215 -0.02303
 C249 C -0.02145 0.25098 0.21440
 C250 C 0.01143 0.25097 0.28382
 H251 H -0.04413 0.30492 0.19242
 H252 H 0.03426 0.19695 0.30548
 C253 C 0.50412 0.24551 0.78743
 C254 C 0.48532 0.25464 0.71351
 H255 H 0.51412 0.18811 0.80995
 H256 H 0.47547 0.31204 0.69093
 C257 C 0.01761 0.74832 0.78118
 C258 C -0.02951 0.74842 0.72165
 H259 H 0.05048 0.69699 0.79559
 H260 H -0.06213 0.79982 0.70700
 C261 C 0.48894 -0.24713 0.21164
 C262 C 0.50198 -0.25582 0.28692
 H263 H 0.48550 -0.18942 0.18798
 H264 H 0.50649 -0.31314 0.31130
 C265 C 0.01064 0.75345 0.21402
 C266 C -0.00054 0.75492 0.28824
 H267 H 0.02055 0.69745 0.18755
 H268 H -0.01103 0.81022 0.31580
 C269 C 0.50812 -0.28723 0.74759
 C270 C 0.50184 -0.21076 0.75462
 H271 H 0.51448 -0.31287 0.69130
 H272 H 0.49532 -0.18510 0.81089
 C273 C 0.50362 0.28923 0.25517
 C274 C 0.50974 0.21288 0.24709
 H275 H 0.49725 0.31438 0.31168
 H276 H 0.51602 0.18774 0.19058
 C277 C 0.00710 0.21065 0.74859
 C278 C 0.00203 0.28690 0.75455
 H279 H 0.01338 0.18525 0.69210
 H280 H -0.00432 0.31319 0.81061
 C281 C 0.21298 0.00086 0.25207
 C282 C 0.28708 -0.01815 0.24484
 H283 H 0.18953 0.01139 0.30848
 H284 H 0.31055 -0.02887 0.18847
 C285 C 0.28718 0.48666 0.75096
 C286 C 0.21152 0.49984 0.75815
 H287 H 0.31140 0.48294 0.69404
 H288 H 0.18648 0.50432 0.81465
 C289 C 0.78889 -0.01167 0.74554
 C290 C 0.71347 0.00203 0.75299
 H291 H 0.81317 -0.01498 0.68861
 H292 H 0.68852 0.00678 0.80952
 C293 C -0.28816 0.50554 0.25142
 C294 C -0.21238 0.49370 0.24448
 H295 H -0.31260 0.50929 0.30825
 H296 H -0.18705 0.48966 0.18807
 C297 C 0.25336 0.01444 0.78507
 C298 C 0.24550 0.00729 0.70928
 H299 H 0.31006 0.02142 0.80997
 H300 H 0.18879 0.00011 0.68443
 C301 C 0.24611 0.50889 0.21375
 C302 C 0.25326 0.51738 0.28974
 H303 H 0.18945 0.50167 0.18885
 H304 H 0.30990 0.52414 0.31481
 C305 C 0.74606 -0.00703 0.20965
 C306 C 0.75371 0.00110 0.28558
 H307 H 0.68931 -0.01380 0.18483
 H308 H 0.81048 0.00810 0.31031
 C309 C -0.24837 0.50342 0.78716
 C310 C -0.25677 0.49564 0.71147
 H311 H -0.19152 0.51079 0.81162
 H312 H -0.31356 0.48826 0.68688
   
