data_POSCAR
  _audit_creation_date              2014-09-24
  _audit_creation_method            'ToBaCCo'
  _symmetry_space_group_name_H-M    'P1'
  _symmetry_Int_Tables_number       1
  _symmetry_cell_setting            triclinic
  loop_
  _symmetry_equiv_pos_as_xyz
 x,y,z
_cell_length_a 32.1442
_cell_length_b 32.2330
_cell_length_c 32.1968
_cell_angle_alpha 82.345900
_cell_angle_beta 98.030800
_cell_angle_gamma 96.219500
loop_
  _atom_site_label
  _atom_site_type_symbol
  _atom_site_fract_x
  _atom_site_fract_y
  _atom_site_fract_z
C1 C 0.59106 0.54167 -0.00297
 C2 C 0.58191 0.58265 -0.00069
 C3 C 0.54084 0.59166 0.00187
 C4 C 0.50767 0.55895 0.00214
 C5 C 0.51656 0.51718 -0.00017
 C6 C 0.55842 0.50844 -0.00272
 C7 C 0.56645 0.46676 -0.00492
 C8 C 0.53409 0.43437 -0.00467
 C9 C 0.49241 0.44233 -0.00222
 C10 C 0.48352 0.48408 0.00008
 C11 C 0.46593 0.56683 0.00464
 C12 C 0.43358 0.53441 0.00488
 C13 C 0.44164 0.49277 0.00263
 C14 C 0.40903 0.45950 0.00285
 C15 C 0.41826 0.41854 0.00050
 C16 C 0.45933 0.40965 -0.00202
 H17 H 0.59795 0.45883 -0.00687
 H18 H 0.54207 0.40291 -0.00642
 H19 H 0.45790 0.59825 0.00645
 H20 H 0.40207 0.54231 0.00684
 H21 H 0.60717 0.60796 -0.00088
 H22 H 0.39313 0.39313 0.00062
 C23 C -0.00226 0.59144 0.45713
 C24 C 0.00010 0.58264 0.41626
 C25 C 0.00235 0.54154 0.40789
 C26 C 0.00218 0.50805 0.44116
 C27 C -0.00017 0.51669 0.48282
 C28 C -0.00235 0.55856 0.49087
 C29 C -0.00456 0.56644 0.53240
 C30 C -0.00471 0.53382 0.56542
 C31 C -0.00264 0.49207 0.55815
 C32 C -0.00032 0.48342 0.51650
 C33 C 0.00426 0.46622 0.43398
 C34 C 0.00409 0.43361 0.46701
 C35 C 0.00184 0.44153 0.50851
 C36 C 0.00167 0.40869 0.54229
 C37 C -0.00067 0.41758 0.58314
 C38 C -0.00282 0.45869 0.59140
 H39 H -0.00620 0.59799 0.53976
 H40 H -0.00646 0.54163 0.59677
 H41 H 0.00604 0.45835 0.40265
 H42 H 0.00573 0.40205 0.45969
 H43 H 0.00018 0.60823 0.39063
 H44 H -0.00081 0.39214 0.60887
 C45 C 0.54224 0.00231 0.59235
 C46 C 0.58351 0.00023 0.58423
 C47 C 0.59241 -0.00207 0.54338
 C48 C 0.55934 -0.00229 0.50938
 C49 C 0.51729 -0.00019 0.51723
 C50 C 0.50864 0.00210 0.55887
 C51 C 0.46666 0.00411 0.56583
 C52 C 0.43390 0.00392 0.53263
 C53 C 0.44180 0.00172 0.49115
 C54 C 0.48384 -0.00038 0.48335
 C55 C 0.56711 -0.00452 0.46780
 C56 C 0.53431 -0.00469 0.43464
 C57 C 0.49245 -0.00267 0.44172
 C58 C 0.45889 -0.00287 0.40829
 C59 C 0.41766 -0.00075 0.41637
 C60 C 0.40879 0.00154 0.45720
 H61 H 0.45878 0.00586 0.59713
 H62 H 0.40224 0.00553 0.53979
 H63 H 0.59874 -0.00616 0.46054
 H64 H 0.54210 -0.00642 0.40330
 H65 H 0.60913 0.00040 0.61013
 H66 H 0.39208 -0.00090 0.39050
 O67 O 0.46976 -0.00125 -0.06458
 O68 O 0.46160 -0.00999 0.04929
 O69 O 0.46195 0.05145 -0.01181
 O70 O 0.46939 -0.06270 -0.00344
 O71 O 0.53883 -0.05220 0.01005
 O72 O 0.53140 0.06194 0.00167
 O73 O 0.53105 0.00051 0.06277
 O74 O 0.53921 0.00924 -0.05109
 Cu75 Cu 0.45867 -0.00667 -0.00900
 Cu76 Cu 0.54213 0.00592 0.00719
 C77 C 0.50590 0.00526 -0.07703
 C78 C 0.49491 -0.00599 0.07523
 C79 C 0.49537 0.07594 -0.00625
 C80 C 0.50540 -0.07670 0.00453
 O81 O -0.05171 0.53882 0.99000
 O82 O 0.06275 0.53087 0.99889
 O83 O 0.00100 0.53087 0.93745
 O84 O 0.01004 0.53880 1.05148
 O85 O -0.00081 0.46962 1.06432
 O86 O -0.00985 0.46169 0.95028
 O87 O 0.05192 0.46169 1.01173
 O88 O -0.06255 0.46964 1.00284
 Cu89 Cu 0.00661 0.54182 0.99318
 Cu90 Cu -0.00640 0.45868 1.00859
 C91 C -0.07643 0.50561 0.99510
 C92 C 0.07663 0.49490 1.00658
 C93 C -0.00574 0.49491 0.92464
 C94 C 0.00592 0.50559 1.07712
 O95 O -0.01179 -0.04993 0.46060
 O96 O -0.00400 0.06337 0.46987
 O97 O 0.04879 0.01042 0.46026
 O98 O -0.06459 0.00300 0.47022
 O99 O -0.05014 -0.01049 0.53961
 O100 O 0.06323 -0.00308 0.52966
 O101 O 0.01045 0.04987 0.53926
 O102 O 0.00265 -0.06343 0.53000
 Cu103 Cu -0.00935 0.00808 0.45823
 Cu104 Cu 0.00800 -0.00814 0.54164
 C105 C -0.00569 -0.07578 0.49371
 C106 C 0.00437 0.07572 0.50616
 C107 C 0.07513 0.00473 0.49326
 C108 C -0.07648 -0.00482 0.50662
 C109 C -0.36797 0.53525 0.99482
 C110 C -0.33163 0.53028 0.99307
 C111 C -0.28803 0.52512 0.99132
 C112 C -0.26112 0.55942 0.97659
 C113 C -0.21841 0.55492 0.97613
 C114 C -0.20239 0.51610 0.99040
 C115 C -0.22937 0.48167 1.00480
 C116 C -0.27211 0.48617 1.00525
 C117 C -0.15811 0.51198 0.99137
 C118 C -0.12087 0.50890 0.99273
 H119 H -0.27308 0.58969 0.96583
 H120 H -0.19782 0.58178 0.96504
 H121 H -0.21729 0.45154 1.01602
 H122 H -0.29263 0.45947 1.01678
 C123 C 0.36806 0.46582 1.00518
 C124 C 0.33173 0.47069 1.00708
 C125 C 0.28813 0.47573 1.00905
 C126 C 0.27220 0.51476 0.99573
 C127 C 0.22947 0.51916 0.99646
 C128 C 0.20254 0.48455 1.01053
 C129 C 0.21858 0.44563 1.02417
 C130 C 0.26126 0.44123 1.02343
 C131 C 0.15828 0.48860 1.00989
 C132 C 0.12106 0.49162 1.00875
 H133 H 0.29268 0.54162 0.98448
 H134 H 0.21738 0.54938 0.98572
 H135 H 0.19802 0.41863 1.03498
 H136 H 0.27324 0.41089 1.03372
 C137 C -0.00443 -0.36530 0.46327
 C138 C -0.00608 -0.32908 0.46802
 C139 C -0.00776 -0.28571 0.47332
 C140 C -0.02928 -0.25911 0.44145
 C141 C -0.02994 -0.21666 0.44605
 C142 C -0.00909 -0.20066 0.48254
 C143 C 0.01217 -0.22733 0.51455
 C144 C 0.01282 -0.26979 0.50995
 C145 C -0.00860 -0.15671 0.48668
 C146 C -0.00762 -0.11979 0.48997
 H147 H -0.04525 -0.27110 0.41297
 H148 H -0.04639 -0.19629 0.42107
 H149 H 0.02849 -0.21525 0.54284
 H150 H 0.02960 -0.29009 0.53475
 C151 C 0.00375 0.36539 0.53626
 C152 C 0.00532 0.32910 0.53173
 C153 C 0.00691 0.28563 0.52681
 C154 C 0.01735 0.25671 0.56227
 C155 C 0.01793 0.21424 0.55775
 C156 C 0.00809 0.20053 0.51773
 C157 C -0.00207 0.22951 0.48221
 C158 C -0.00265 0.27200 0.48675
 C159 C 0.00745 0.15663 0.51334
 C160 C 0.00637 0.11973 0.50993
 H161 H 0.02473 0.26693 0.59341
 H162 H 0.02571 0.19209 0.58543
 H163 H -0.00984 0.21921 0.45115
 H164 H -0.01081 0.29411 0.45914
 C165 C 0.53593 0.00441 -0.36688
 C166 C 0.53100 0.00614 -0.33073
 C167 C 0.52584 0.00794 -0.28736
 C168 C 0.48640 -0.00352 -0.27327
 C169 C 0.48182 -0.00284 -0.23079
 C170 C 0.51666 0.00931 -0.20226
 C171 C 0.55600 0.02107 -0.21645
 C172 C 0.56058 0.02039 -0.25889
 C173 C 0.51242 0.00862 -0.15826
 C174 C 0.50927 0.00746 -0.12124
 H175 H 0.45936 -0.01327 -0.29502
 H176 H 0.45129 -0.01211 -0.22013
 H177 H 0.58317 0.03040 -0.19464
 H178 H 0.59122 0.02923 -0.26944
 C179 C 0.46551 -0.00513 0.36521
 C180 C 0.47034 -0.00687 0.32904
 C181 C 0.47540 -0.00866 0.28564
 C182 C 0.44072 -0.02158 0.25735
 C183 C 0.44518 -0.02222 0.21487
 C184 C 0.48435 -0.00997 0.20048
 C185 C 0.51914 0.00266 0.22883
 C186 C 0.51467 0.00330 0.27135
 C187 C 0.48848 -0.00929 0.15646
 C188 C 0.49157 -0.00815 0.11943
 H189 H 0.41019 -0.03081 0.26806
 H190 H 0.41805 -0.03191 0.19319
 H191 H 0.54954 0.01232 0.21801
 H192 H 0.54168 0.01340 0.29296
 C193 C 0.53432 -0.36747 0.00396
 C194 C 0.52933 -0.33122 0.00568
 C195 C 0.52421 -0.28772 0.00747
 C196 C 0.48549 -0.27155 -0.00773
 C197 C 0.48108 -0.22892 -0.00715
 C198 C 0.51538 -0.20231 0.00865
 C199 C 0.55399 -0.21858 0.02417
 C200 C 0.55839 -0.26118 0.02358
 C201 C 0.51141 -0.15815 0.00788
 C202 C 0.50849 -0.12102 0.00669
 H203 H 0.45888 -0.29178 -0.02034
 H204 H 0.45112 -0.21664 -0.01934
 H205 H 0.58075 -0.19829 0.03635
 H206 H 0.58850 -0.27333 0.03533
 C207 C 0.46624 0.36648 -0.00431
 C208 C 0.47124 0.33025 -0.00610
 C209 C 0.47639 0.28677 -0.00803
 C210 C 0.51492 0.27045 0.00775
 C211 C 0.51937 0.22786 0.00692
 C212 C 0.48532 0.20146 -0.00970
 C213 C 0.44691 0.21789 -0.02576
 C214 C 0.44246 0.26044 -0.02492
 C215 C 0.48932 0.15734 -0.00921
 C216 C 0.49227 0.12024 -0.00823
 H217 H 0.54134 0.29051 0.02097
 H218 H 0.54918 0.21547 0.01955
 H219 H 0.42033 0.19775 -0.03855
 H220 H 0.41249 0.27271 -0.03711
 C221 C -0.36648 -0.00389 0.53777
 C222 C -0.33010 -0.00536 0.53323
 C223 C -0.28655 -0.00686 0.52822
 C224 C -0.27364 0.00028 0.48788
 C225 C -0.23111 -0.00035 0.48320
 C226 C -0.20136 -0.00816 0.51885
 C227 C -0.21433 -0.01553 0.55916
 C228 C -0.25684 -0.01489 0.56384
 C229 C -0.15743 -0.00764 0.51423
 C230 C -0.12051 -0.00668 0.51064
 H231 H -0.29637 0.00658 0.46014
 H232 H -0.22139 0.00550 0.45189
 H233 H -0.19157 -0.02148 0.58694
 H234 H -0.26649 -0.02038 0.59518
 C235 C 0.36534 0.00353 0.46304
 C236 C 0.32894 0.00505 0.46746
 C237 C 0.28535 0.00661 0.47229
 C238 C 0.25584 0.01517 0.43662
 C239 C 0.21329 0.01582 0.44111
 C240 C 0.20007 0.00793 0.48130
 C241 C 0.22961 -0.00039 0.51702
 C242 C 0.27219 -0.00104 0.51252
 C243 C 0.15610 0.00746 0.48575
 C244 C 0.11917 0.00654 0.48926
 H245 H 0.26569 0.02107 0.40536
 H246 H 0.19069 0.02218 0.41328
 H247 H 0.21970 -0.00664 0.54823
 H248 H 0.29475 -0.00774 0.54030
 C249 C 0.00458 0.53527 1.36711
 C250 C 0.00642 0.53038 1.33095
 C251 C 0.00836 0.52527 1.28758
 C252 C -0.00323 0.48602 1.27308
 C253 C -0.00245 0.48149 1.23059
 C254 C 0.00995 0.51619 1.20245
 C255 C 0.02183 0.55534 1.21704
 C256 C 0.02104 0.55986 1.25951
 C257 C 0.00931 0.51200 1.15842
 C258 C 0.00815 0.50889 1.12137
 H259 H -0.01317 0.45909 1.29452
 H260 H -0.01183 0.45111 1.21960
 H261 H 0.03133 0.58240 1.19554
 H262 H 0.02998 0.59037 1.27037
 C263 C -0.00506 0.46535 0.63451
 C264 C -0.00678 0.47023 0.67068
 C265 C -0.00857 0.47535 0.71409
 C266 C -0.02200 0.44095 0.74200
 C267 C -0.02269 0.44547 0.78449
 C268 C -0.00996 0.48441 0.79926
 C269 C 0.00318 0.51891 0.77128
 C270 C 0.00387 0.51440 0.72876
 C271 C -0.00924 0.48855 0.84331
 C272 C -0.00803 0.49163 0.88038
 H273 H -0.03159 0.41060 0.73101
 H274 H -0.03278 0.41855 0.80587
 H275 H 0.01322 0.54914 0.78240
 H276 H 0.01439 0.54117 0.70745
   
