data_POSCAR
  _audit_creation_date              2014-09-24
  _audit_creation_method            'ToBaCCo'
  _symmetry_space_group_name_H-M    'P1'
  _symmetry_Int_Tables_number       1
  _symmetry_cell_setting            triclinic
  loop_
  _symmetry_equiv_pos_as_xyz
 x,y,z
_cell_length_a 29.0951
_cell_length_b 17.8060
_cell_length_c 17.7410
_cell_angle_alpha 89.764500
_cell_angle_beta 90.140000
_cell_angle_gamma 89.876100
loop_
  _atom_site_label
  _atom_site_type_symbol
  _atom_site_fract_x
  _atom_site_fract_y
  _atom_site_fract_z
O1 O 0.06477 0.12780 0.14102
 O2 O 0.11536 0.06162 0.06737
 C3 C 0.10591 0.10876 0.12052
 O4 O -0.06335 -0.14018 0.13076
 O5 O -0.11421 -0.06690 0.06377
 C6 C -0.10457 -0.11994 0.11137
 O7 O 0.06512 -0.13265 0.13877
 O8 O 0.11554 -0.06478 0.06634
 C9 C 0.10630 -0.11327 0.11872
 O10 O -0.06367 0.13572 0.13352
 O11 O -0.11439 0.06470 0.06478
 C12 C -0.10489 0.11632 0.11357
 Zr13 Zr 0.00061 0.09317 0.09679
 O14 O -0.00355 0.09131 0.21587
 O15 O 0.00578 0.21178 0.09640
 Zr16 Zr 0.00081 -0.09602 0.09573
 O17 O -0.00137 -0.08899 0.21456
 O18 O 0.00559 -0.21463 0.09863
 O19 O 0.04189 -0.00173 0.11065
 O20 O -0.03952 -0.00161 0.10994
 O21 O -0.06401 0.13860 -0.12939
 O22 O -0.11454 0.06584 -0.06198
 C23 C -0.10512 0.11854 -0.10992
 O24 O 0.06514 -0.12941 -0.13744
 O25 O 0.11595 -0.06247 -0.06461
 C26 C 0.10636 -0.11004 -0.11732
 O27 O -0.06381 -0.13698 -0.13116
 O28 O -0.11446 -0.06548 -0.06284
 C29 C -0.10500 -0.11727 -0.11145
 O30 O 0.06445 0.13145 -0.13678
 O31 O 0.11526 0.06308 -0.06474
 C32 C 0.10569 0.11167 -0.11697
 Zr33 Zr 0.00032 0.09521 -0.09348
 O34 O -0.00514 0.09635 -0.21251
 O35 O 0.00554 0.21378 -0.09160
 Zr36 Zr 0.00051 -0.09440 -0.09470
 O37 O -0.00487 -0.09277 -0.21375
 O38 O 0.00592 -0.21301 -0.09506
 Zr39 Zr 0.06925 -0.00073 0.00082
 Zr40 Zr -0.06828 -0.00048 0.00100
 O41 O -0.03965 0.00058 -0.10787
 O42 O 0.04141 0.00048 -0.10905
 O43 O -0.04066 0.10898 0.00176
 O44 O 0.04063 -0.10914 0.00042
 O45 O 0.04053 0.10784 0.00173
 O46 O -0.04036 -0.10993 0.00042
 H47 H -0.06023 -0.00212 0.15420
 H48 H 0.06132 -0.15341 0.00028
 H49 H -0.06041 0.00105 -0.15222
 H50 H 0.06130 0.15186 0.00206
 H51 H -0.01731 -0.23422 0.06250
 H52 H -0.02002 -0.23311 -0.06531
 H53 H 0.02113 -0.06291 -0.23340
 H54 H 0.02014 0.06508 -0.23250
 H55 H -0.02047 0.23317 -0.06157
 H56 H -0.02047 0.23178 0.06697
 H57 H 0.01791 0.05198 0.23401
 H58 H -0.00133 -0.14144 0.23345
 O59 O 0.56410 0.63314 0.63585
 O60 O 0.61477 0.56506 0.56407
 C61 C 0.60530 0.61351 0.61606
 O62 O 0.43593 0.36328 0.63030
 O63 O 0.38498 0.43608 0.56300
 C64 C 0.39465 0.38340 0.61104
 O65 O 0.56424 0.37105 0.63837
 O66 O 0.61484 0.43867 0.56579
 C67 C 0.60538 0.39059 0.61841
 O68 O 0.43560 0.64066 0.62819
 O69 O 0.38484 0.56811 0.56113
 C70 C 0.39442 0.62075 0.60872
 Zr71 Zr 0.49982 0.59719 0.59267
 O72 O 0.49540 0.59770 0.71175
 O73 O 0.50496 0.71578 0.59013
 Zr74 Zr 0.49996 0.40839 0.59608
 O75 O 0.49835 0.42241 0.71426
 O76 O 0.50115 0.29024 0.60878
 O77 O 0.54117 0.50276 0.60886
 O78 O 0.45951 0.50284 0.60801
 O79 O 0.43524 0.63800 0.36563
 O80 O 0.38470 0.56663 0.43447
 C81 C 0.39408 0.61844 0.38549
 O82 O 0.56402 0.36846 0.36314
 O83 O 0.61473 0.43713 0.43420
 C84 C 0.60523 0.38824 0.38267
 O85 O 0.43554 0.36217 0.37006
 O86 O 0.38482 0.43512 0.43670
 C87 C 0.39437 0.38225 0.38936
 O88 O 0.56386 0.63037 0.35887
 O89 O 0.61468 0.56336 0.43230
 C90 C 0.60507 0.61095 0.37919
 Zr91 Zr 0.49960 0.59501 0.40238
 O92 O 0.49417 0.59274 0.28337
 O93 O 0.50481 0.71359 0.40080
 Zr94 Zr 0.49978 0.40554 0.40548
 O95 O 0.49451 0.40511 0.28641
 O96 O 0.50435 0.28685 0.40780
 Zr97 Zr 0.56859 0.50123 0.49898
 Zr98 Zr 0.43094 0.50151 0.49897
 O99 O 0.45958 0.50016 0.39014
 O100 O 0.54078 0.50001 0.38909
 O101 O 0.45861 0.61093 0.49725
 O102 O 0.53987 0.39293 0.50098
 O103 O 0.53976 0.60976 0.49735
 O104 O 0.45902 0.39213 0.50094
 H105 H 0.43862 0.50313 0.65205
 H106 H 0.56068 0.34883 0.50146
 H107 H 0.43879 0.49970 0.34582
 H108 H 0.56046 0.65386 0.49676
 H109 H 0.50952 0.26894 0.55939
 H110 H 0.47913 0.26813 0.44011
 H111 H 0.52058 0.43448 0.26627
 H112 H 0.52015 0.56255 0.26412
 H113 H 0.47928 0.73374 0.43142
 H114 H 0.47897 0.73518 0.55969
 H115 H 0.51872 0.56194 0.73112
 H116 H 0.49747 0.37115 0.73611
 C117 C 0.24831 0.31590 0.24466
 C118 C 0.25170 0.25396 0.18390
 C119 C 0.21498 0.20873 0.22634
 C120 C 0.21099 0.27012 0.28655
 C121 C 0.28543 0.27483 0.29084
 C122 C 0.24872 0.22961 0.33333
 C123 C 0.28941 0.21344 0.23063
 C124 C 0.25207 0.16760 0.27251
 C125 C 0.17584 0.17251 0.18966
 C126 C 0.14378 0.14320 0.15858
 C127 C 0.32454 0.31231 0.32627
 C128 C 0.35657 0.34388 0.35514
 H129 H 0.24724 0.37729 0.23361
 H130 H 0.25245 0.26355 0.12205
 H131 H 0.17830 0.29298 0.30912
 H132 H 0.24800 0.22006 0.39519
 H133 H 0.32211 0.19059 0.20806
 H134 H 0.25312 0.10621 0.28352
 C135 C 0.75134 0.66771 0.22795
 C136 C 0.74874 0.73013 0.16693
 C137 C 0.78591 0.77401 0.20970
 C138 C 0.78915 0.71219 0.27012
 C139 C 0.71465 0.70968 0.27361
 C140 C 0.75183 0.75356 0.31632
 C141 C 0.71141 0.77149 0.21318
 C142 C 0.74920 0.81592 0.25536
 C143 C 0.82541 0.81065 0.17451
 C144 C 0.85762 0.84177 0.14571
 C145 C 0.67514 0.67429 0.31003
 C146 C 0.64291 0.64536 0.34102
 H147 H 0.75172 0.60635 0.21711
 H148 H 0.74797 0.72092 0.10509
 H149 H 0.82156 0.68824 0.29310
 H150 H 0.75263 0.76281 0.37815
 H151 H 0.67900 0.79545 0.19020
 H152 H 0.74880 0.87727 0.26624
 C153 C 0.75125 0.24403 0.68299
 C154 C 0.78917 0.28516 0.72811
 C155 C 0.78551 0.22494 0.79002
 C156 C 0.74819 0.18325 0.74545
 C157 C 0.71472 0.29026 0.72469
 C158 C 0.71105 0.23004 0.78660
 C159 C 0.75203 0.33199 0.76925
 C160 C 0.74900 0.27116 0.83177
 C161 C 0.82481 0.18791 0.82598
 C162 C 0.85696 0.15667 0.85531
 C163 C 0.67542 0.32623 0.68767
 C164 C 0.64328 0.35564 0.65646
 H165 H 0.75169 0.23329 0.62140
 H166 H 0.82174 0.30739 0.70450
 H167 H 0.74709 0.12168 0.73608
 H168 H 0.67848 0.20781 0.81020
 H169 H 0.75310 0.39357 0.77859
 H170 H 0.74857 0.28188 0.89336
 C171 C 0.24584 0.68399 0.74668
 C172 C 0.24911 0.73771 0.81490
 C173 C 0.21521 0.79119 0.77533
 C174 C 0.21134 0.73802 0.70766
 C175 C 0.28557 0.72661 0.70910
 C176 C 0.25169 0.78008 0.66947
 C177 C 0.28943 0.77978 0.77676
 C178 C 0.25492 0.83386 0.73775
 C179 C 0.17615 0.82668 0.81285
 C180 C 0.14415 0.85562 0.84439
 C181 C 0.32463 0.68988 0.67278
 C182 C 0.35663 0.65880 0.64334
 H183 H 0.24258 0.62196 0.74993
 H184 H 0.24758 0.72070 0.87511
 H185 H 0.17878 0.72128 0.67972
 H186 H 0.25324 0.79705 0.60925
 H187 H 0.32199 0.79651 0.80472
 H188 H 0.25817 0.89590 0.73454
 C189 C 0.28930 0.22049 0.77679
 C190 C 0.24983 0.26218 0.81762
 C191 C 0.21490 0.21196 0.77684
 C192 C 0.25378 0.16968 0.73656
 C193 C 0.28554 0.27704 0.71141
 C194 C 0.25063 0.22683 0.67059
 C195 C 0.24665 0.31928 0.75170
 C196 C 0.21114 0.26851 0.71146
 C197 C 0.17565 0.17605 0.81392
 C198 C 0.14355 0.14668 0.84508
 C199 C 0.32478 0.31401 0.67535
 C200 C 0.35684 0.34521 0.64593
 H201 H 0.32186 0.20112 0.80328
 H202 H 0.24907 0.27636 0.87849
 H203 H 0.25627 0.10775 0.73073
 H204 H 0.25140 0.21268 0.60971
 H205 H 0.24413 0.38120 0.75756
 H206 H 0.17857 0.28789 0.68498
 C207 C 0.75230 0.75728 0.68006
 C208 C 0.74918 0.81974 0.74036
 C209 C 0.78554 0.77795 0.78756
 C210 C 0.78925 0.71603 0.72780
 C211 C 0.71475 0.71340 0.72203
 C212 C 0.75110 0.67157 0.76923
 C213 C 0.71104 0.77532 0.78179
 C214 C 0.74801 0.73407 0.82957
 C215 C 0.82488 0.81451 0.82374
 C216 C 0.85705 0.84525 0.85333
 C217 C 0.67541 0.67770 0.68496
 C218 C 0.64325 0.64844 0.65386
 H219 H 0.75363 0.76647 0.61818
 H220 H 0.74881 0.88107 0.72887
 H221 H 0.82183 0.69203 0.70600
 H222 H 0.75145 0.61024 0.78070
 H223 H 0.67846 0.79932 0.80359
 H224 H 0.74669 0.72491 0.89146
 C225 C 0.24786 0.77066 0.32705
 C226 C 0.25047 0.83104 0.26403
 C227 C 0.21279 0.78909 0.22044
 C228 C 0.20957 0.72930 0.28289
 C229 C 0.28410 0.72404 0.28503
 C230 C 0.24641 0.68214 0.24144
 C231 C 0.28732 0.78384 0.22258
 C232 C 0.24904 0.74247 0.17846
 C233 C 0.17318 0.82509 0.18383
 C234 C 0.14087 0.85466 0.15293
 C235 C 0.32371 0.68720 0.32079
 C236 C 0.35603 0.65623 0.35021
 H237 H 0.24783 0.78188 0.38856
 H238 H 0.25169 0.89268 0.27294
 H239 H 0.17718 0.70725 0.30731
 H240 H 0.24517 0.62051 0.23250
 H241 H 0.31971 0.80589 0.19815
 H242 H 0.24909 0.73123 0.11695
 C243 C 0.71347 0.25015 0.20006
 C244 C 0.75943 0.28937 0.18042
 C245 C 0.78562 0.22187 0.21366
 C246 C 0.74027 0.18209 0.23273
 C247 C 0.71473 0.28709 0.27815
 C248 C 0.74094 0.21959 0.31136
 C249 C 0.76007 0.32690 0.25908
 C250 C 0.78687 0.25882 0.29175
 C251 C 0.82501 0.18497 0.17795
 C252 C 0.85718 0.15400 0.14863
 C253 C 0.67534 0.32320 0.31464
 C254 C 0.64316 0.35284 0.34530
 H255 H 0.68286 0.24697 0.16273
 H256 H 0.76748 0.31769 0.12618
 H257 H 0.73255 0.12213 0.22152
 H258 H 0.73291 0.19125 0.36558
 H259 H 0.76778 0.38687 0.27030
 H260 H 0.81747 0.26201 0.32909
   
