data_POSCAR
  _audit_creation_date              2014-09-24
  _audit_creation_method            'ToBaCCo'
  _symmetry_space_group_name_H-M    'P1'
  _symmetry_Int_Tables_number       1
  _symmetry_cell_setting            triclinic
  loop_
  _symmetry_equiv_pos_as_xyz
 x,y,z
_cell_length_a 38.1405
_cell_length_b 36.7611
_cell_length_c 36.1908
_cell_angle_alpha 89.646300
_cell_angle_beta 90.120000
_cell_angle_gamma 90.096800
loop_
  _atom_site_label
  _atom_site_type_symbol
  _atom_site_fract_x
  _atom_site_fract_y
  _atom_site_fract_z
C1 C 0.30437 0.29923 0.23541
 H2 H 0.30602 0.29951 0.26526
 C3 C 0.32697 0.32094 0.21442
 H4 H 0.34604 0.33813 0.22807
 C5 C 0.27770 0.27630 0.18103
 H6 H 0.25883 0.25852 0.16809
 C7 C 0.29982 0.29757 0.15901
 H8 H 0.29766 0.29640 0.12919
 N9 N 0.28003 0.27787 0.21854
 C10 C 0.19715 0.26287 0.30017
 H11 H 0.19542 0.23350 0.30086
 C12 C 0.17473 0.28365 0.32199
 H13 H 0.15571 0.27031 0.33969
 C14 C 0.22374 0.31630 0.27598
 H15 H 0.24247 0.32897 0.25763
 C16 C 0.20182 0.33808 0.29734
 H17 H 0.20398 0.36744 0.29566
 Zn18 Zn 0.25048 0.24927 0.24910
 N19 N 0.22135 0.27939 0.27812
 C20 C 0.27777 0.22213 0.31716
 N21 N 0.27979 0.22035 0.27966
 C22 C 0.30376 0.19867 0.26281
 C23 C 0.32630 0.17690 0.28384
 C24 C 0.29984 0.20081 0.33922
 C25 C 0.19663 0.23639 0.19814
 C26 C 0.17379 0.21593 0.17631
 C27 C 0.20029 0.16114 0.20076
 C28 C 0.22265 0.18261 0.22212
 N29 N 0.22075 0.21955 0.22009
 H30 H 0.25923 0.24016 0.33009
 H31 H 0.30520 0.19824 0.23296
 H32 H 0.34510 0.15951 0.27021
 H33 H 0.29795 0.20221 0.36904
 H34 H 0.19531 0.26579 0.19752
 H35 H 0.15485 0.22953 0.15869
 H36 H 0.20208 0.13176 0.20235
 H37 H 0.24132 0.16969 0.24039
 C38 C 0.17721 0.32158 0.32064
 C39 C 0.32454 0.32020 0.17588
 C40 C 0.17576 0.17797 0.17756
 C41 C 0.32420 0.17791 0.32238
 C42 C 0.80616 0.80097 0.23570
 H43 H 0.80770 0.80177 0.26554
 C44 C 0.82867 0.82250 0.21442
 H45 H 0.84754 0.84008 0.22792
 C46 C 0.77986 0.77688 0.18165
 H47 H 0.76117 0.75871 0.16896
 C48 C 0.80190 0.79793 0.15932
 H49 H 0.79978 0.79614 0.12951
 N50 N 0.78202 0.77914 0.21912
 C51 C 0.69925 0.76455 0.30101
 H52 H 0.69769 0.73517 0.30196
 C53 C 0.67672 0.78536 0.32267
 H54 H 0.65779 0.77205 0.34049
 C55 C 0.72552 0.81793 0.27635
 H56 H 0.74417 0.83056 0.25787
 C57 C 0.70348 0.83976 0.29754
 H58 H 0.70547 0.86911 0.29560
 Zn59 Zn 0.75260 0.75077 0.25005
 N60 N 0.72335 0.78102 0.27880
 C61 C 0.77995 0.72415 0.31832
 N62 N 0.78201 0.72222 0.28082
 C63 C 0.80596 0.70046 0.26408
 C64 C 0.82838 0.67866 0.28521
 C65 C 0.80189 0.70280 0.34047
 C66 C 0.69891 0.73705 0.19912
 C67 C 0.67618 0.71621 0.17754
 C68 C 0.70265 0.66184 0.20297
 C69 C 0.72491 0.68368 0.22406
 N70 N 0.72298 0.72058 0.22142
 H71 H 0.76140 0.74224 0.33115
 H72 H 0.80741 0.69990 0.23424
 H73 H 0.84712 0.66113 0.27167
 H74 H 0.79992 0.70424 0.37029
 H75 H 0.69755 0.76643 0.19802
 H76 H 0.65729 0.72951 0.15962
 H77 H 0.70446 0.63248 0.20505
 H78 H 0.74352 0.67106 0.24261
 C79 C 0.67897 0.82330 0.32099
 C80 C 0.82640 0.82108 0.17586
 C81 C 0.67819 0.67827 0.17941
 C82 C 0.82618 0.67973 0.32374
 C83 C 0.80203 0.29997 0.73712
 H84 H 0.80364 0.30057 0.76696
 C85 C 0.82463 0.32149 0.71592
 H86 H 0.84369 0.33883 0.72941
 C87 C 0.77552 0.27635 0.68295
 H88 H 0.75675 0.25835 0.67018
 C89 C 0.79763 0.29744 0.66073
 H90 H 0.79556 0.29590 0.63092
 N91 N 0.77780 0.27833 0.72044
 C92 C 0.69555 0.26361 0.80286
 H93 H 0.69423 0.23423 0.80419
 C94 C 0.67304 0.28451 0.82446
 H95 H 0.65437 0.27126 0.84264
 C96 C 0.72118 0.31691 0.77727
 H97 H 0.73956 0.32947 0.75845
 C98 C 0.69912 0.33881 0.79835
 H99 H 0.70084 0.36815 0.79598
 Zn100 Zn 0.74854 0.24981 0.75139
 N101 N 0.71932 0.28001 0.78021
 C102 C 0.77673 0.22375 0.81954
 N103 N 0.77825 0.22145 0.78204
 C104 C 0.80208 0.19968 0.76513
 C105 C 0.82502 0.17831 0.78607
 C106 C 0.79922 0.20287 0.84157
 C107 C 0.69484 0.23593 0.70050
 C108 C 0.67217 0.21505 0.67889
 C109 C 0.69866 0.16073 0.70440
 C110 C 0.72088 0.18262 0.72551
 N111 N 0.71892 0.21952 0.72283
 H112 H 0.75827 0.24187 0.83247
 H113 H 0.80310 0.19887 0.73527
 H114 H 0.84366 0.16084 0.77222
 H115 H 0.79763 0.20479 0.87141
 H116 H 0.69345 0.26531 0.69937
 H117 H 0.65331 0.22832 0.66092
 H118 H 0.70051 0.13138 0.70650
 H119 H 0.73950 0.17004 0.74408
 C120 C 0.67494 0.32244 0.82223
 C121 C 0.82230 0.32029 0.67740
 C122 C 0.67422 0.17711 0.68078
 C123 C 0.82350 0.17982 0.82468
 C124 C 0.30201 0.80065 0.73632
 H125 H 0.30360 0.80111 0.76616
 C126 C 0.32470 0.82220 0.71524
 H127 H 0.34378 0.83944 0.72883
 C128 C 0.27552 0.77732 0.68202
 H129 H 0.25673 0.75942 0.66913
 C130 C 0.29771 0.79844 0.65991
 H131 H 0.29567 0.79702 0.63009
 N132 N 0.27775 0.77914 0.71952
 C133 C 0.19477 0.76392 0.80109
 H134 H 0.19324 0.73454 0.80196
 C135 C 0.17212 0.78467 0.82269
 H136 H 0.15313 0.77130 0.84040
 C137 C 0.22108 0.81739 0.77666
 H138 H 0.23979 0.83009 0.75831
 C139 C 0.19893 0.83914 0.79779
 H140 H 0.20091 0.86850 0.79594
 Zn141 Zn 0.24838 0.75046 0.75023
 N142 N 0.21893 0.78048 0.77901
 C143 C 0.27570 0.72364 0.81846
 N144 N 0.27793 0.72201 0.78096
 C145 C 0.30223 0.70072 0.76415
 C146 C 0.32495 0.67919 0.78521
 C147 C 0.29793 0.70252 0.84055
 C148 C 0.19485 0.73644 0.69913
 C149 C 0.17228 0.71543 0.67752
 C150 C 0.19909 0.66126 0.70300
 C151 C 0.22119 0.68326 0.72409
 N152 N 0.21901 0.72015 0.72145
 H153 H 0.25684 0.74135 0.83135
 H154 H 0.30378 0.70038 0.73431
 H155 H 0.34404 0.66211 0.77161
 H156 H 0.29587 0.70376 0.87037
 H157 H 0.19328 0.76581 0.69804
 H158 H 0.15332 0.72859 0.65959
 H159 H 0.20108 0.63192 0.70510
 H160 H 0.23988 0.67079 0.74266
 C161 C 0.17434 0.82261 0.82109
 C162 C 0.32241 0.82115 0.67670
 C163 C 0.17453 0.67751 0.67942
 C164 C 0.32265 0.68002 0.82374
 Si165 Si -0.00089 0.00135 -0.00168
 Si166 Si 0.00137 0.49749 0.50015
 Si167 Si 0.50150 -0.00152 0.49954
 Si168 Si 0.50127 0.50166 0.00044
 C169 C 0.06665 -0.06889 -0.07215
 C170 C 0.06005 -0.10675 -0.07402
 C171 C 0.08187 -0.12924 -0.09598
 C172 C 0.11014 -0.11372 -0.11594
 C173 C 0.11666 -0.07583 -0.11414
 C174 C 0.09485 -0.05336 -0.09217
 C175 C 0.10190 -0.01557 -0.09075
 C176 C 0.12971 -0.00041 -0.11050
 C177 C 0.15103 -0.02239 -0.13199
 C178 C 0.14471 -0.05967 -0.13390
 C179 C 0.07479 -0.16702 -0.09740
 C180 C 0.04693 -0.18214 -0.07772
 C181 C 0.02558 -0.16014 -0.05626
 C182 C 0.03195 -0.12287 -0.05430
 C183 C 0.13261 -0.13666 -0.13822
 C184 C 0.15150 -0.15540 -0.15675
 C185 C 0.04458 -0.04597 -0.04948
 C186 C 0.02636 -0.02698 -0.03053
 H187 H 0.08605 0.00265 -0.07443
 H188 H 0.13473 0.02854 -0.10910
 H189 H 0.17259 -0.01048 -0.14728
 H190 H 0.16203 -0.07562 -0.15101
 H191 H 0.09066 -0.18523 -0.11372
 H192 H 0.04186 -0.21108 -0.07914
 H193 H 0.00393 -0.17201 -0.04109
 H194 H 0.01462 -0.10689 -0.03724
 C195 C 0.06957 0.42840 0.42916
 C196 C 0.06577 0.39008 0.42993
 C197 C 0.08766 0.36808 0.40755
 C198 C 0.11322 0.38455 0.38453
 C199 C 0.11695 0.42288 0.38370
 C200 C 0.09505 0.44487 0.40608
 C201 C 0.09928 0.48313 0.40481
 C202 C 0.12442 0.49920 0.38206
 C203 C 0.14583 0.47770 0.36017
 C204 C 0.14225 0.43997 0.36086
 C205 C 0.08340 0.32984 0.40880
 C206 C 0.05822 0.31378 0.43152
 C207 C 0.03681 0.33529 0.45341
 C208 C 0.04042 0.37301 0.45274
 C209 C 0.13575 0.36209 0.36184
 C210 C 0.15458 0.34355 0.34304
 C211 C 0.04735 0.45085 0.45217
 C212 C 0.02896 0.46949 0.47131
 H213 H 0.08324 0.50100 0.42133
 H214 H 0.12729 0.52850 0.38142
 H215 H 0.16531 0.49031 0.34254
 H216 H 0.15952 0.42440 0.34333
 H217 H 0.09943 0.31196 0.39227
 H218 H 0.05531 0.28449 0.43214
 H219 H 0.01729 0.32268 0.47101
 H220 H 0.02315 0.38859 0.47026
 C221 C 0.57041 -0.07024 0.42890
 C222 C 0.56650 -0.10854 0.42929
 C223 C 0.58861 -0.13042 0.40701
 C224 C 0.61449 -0.11386 0.38449
 C225 C 0.61834 -0.07553 0.38404
 C226 C 0.59623 -0.05366 0.40631
 C227 C 0.60058 -0.01541 0.40543
 C228 C 0.62605 0.00077 0.38317
 C229 C 0.64766 -0.02062 0.36138
 C230 C 0.64397 -0.05834 0.36170
 C231 C 0.58422 -0.16866 0.40788
 C232 C 0.55872 -0.18483 0.43011
 C233 C 0.53710 -0.16344 0.45189
 C234 C 0.54082 -0.12572 0.45160
 C235 C 0.63724 -0.13621 0.36191
 C236 C 0.65621 -0.15471 0.34322
 C237 C 0.54796 -0.04791 0.45179
 C238 C 0.52937 -0.02937 0.47083
 H239 H 0.58439 0.00238 0.42188
 H240 H 0.62902 0.03006 0.38282
 H241 H 0.66741 -0.00792 0.34413
 H242 H 0.66141 -0.07381 0.34427
 H243 H 0.60041 -0.18645 0.39143
 H244 H 0.55572 -0.21412 0.43044
 H245 H 0.51733 -0.17612 0.46911
 H246 H 0.52338 -0.11024 0.46901
 C247 C 0.56755 0.43095 -0.07074
 C248 C 0.57565 0.39519 -0.05878
 C249 C 0.59727 0.37266 -0.08092
 C250 C 0.61062 0.38604 -0.11488
 C251 C 0.60218 0.42168 -0.12701
 C252 C 0.58054 0.44419 -0.10488
 C253 C 0.57239 0.47969 -0.11759
 C254 C 0.58528 0.49260 -0.15121
 C255 C 0.60650 0.47062 -0.17282
 C256 C 0.61495 0.43555 -0.16100
 C257 C 0.60505 0.33703 -0.06837
 C258 C 0.59181 0.32401 -0.03494
 C259 C 0.57064 0.34603 -0.01331
 C260 C 0.56258 0.38124 -0.02494
 C261 C 0.63323 0.36329 -0.13718
 C262 C 0.65216 0.34456 -0.15569
 C263 C 0.54604 0.45415 -0.04781
 C264 C 0.52821 0.47330 -0.02864
 H265 H 0.55596 0.49780 -0.10177
 H266 H 0.57875 0.51980 -0.16053
 H267 H 0.61646 0.48077 -0.19891
 H268 H 0.63151 0.41948 -0.17880
 H269 H 0.62136 0.31886 -0.08425
 H270 H 0.59800 0.29667 -0.02578
 H271 H 0.56040 0.33578 0.01262
 H272 H 0.54599 0.39731 -0.00717
 C273 C -0.06884 0.07289 -0.07154
 C274 C -0.08418 0.05924 -0.10431
 C275 C -0.10638 0.08188 -0.12604
 C276 C -0.11313 0.11805 -0.11486
 C277 C -0.09758 0.13178 -0.08222
 C278 C -0.07534 0.10914 -0.06050
 C279 C -0.06008 0.12346 -0.02798
 C280 C -0.06664 0.15913 -0.01720
 C281 C -0.08841 0.18126 -0.03842
 C282 C -0.10377 0.16789 -0.07058
 C283 C -0.12144 0.06761 -0.15868
 C284 C -0.11475 0.03199 -0.16954
 C285 C -0.09304 0.00985 -0.14828
 C286 C -0.07786 0.02316 -0.11601
 C287 C -0.13621 0.14097 -0.13683
 C288 C -0.15550 0.15973 -0.15523
 C289 C -0.04663 0.04958 -0.04905
 C290 C -0.02831 0.03024 -0.03025
 H291 H -0.04295 0.10731 -0.01058
 H292 H -0.05480 0.16963 0.00776
 H293 H -0.09342 0.20894 -0.02992
 H294 H -0.12050 0.18615 -0.08617
 H295 H -0.13849 0.08378 -0.17616
 H296 H -0.12647 0.02152 -0.19458
 H297 H -0.08792 -0.01780 -0.15683
 H298 H -0.06114 0.00490 -0.10042
 C299 C -0.06680 0.56906 0.43075
 C300 C -0.10055 0.55689 0.42009
 C301 C -0.12242 0.57974 0.39820
 C302 C -0.11041 0.61463 0.38717
 C303 C -0.07673 0.62687 0.39805
 C304 C -0.05486 0.60401 0.41994
 C305 C -0.02134 0.61686 0.43061
 C306 C -0.00974 0.65130 0.41993
 C307 C -0.03110 0.67363 0.39847
 C308 C -0.06423 0.66170 0.38757
 C309 C -0.15605 0.56697 0.38786
 C310 C -0.16776 0.53266 0.39890
 C311 C -0.14639 0.51035 0.42036
 C312 C -0.11313 0.52217 0.43090
 C313 C -0.13273 0.63790 0.36471
 C314 C -0.15139 0.65707 0.34603
 C315 C -0.04445 0.54569 0.45297
 C316 C -0.02602 0.52633 0.47159
 H317 H -0.00378 0.60049 0.44732
 H318 H 0.01596 0.66071 0.42835
 H319 H -0.02196 0.70037 0.39023
 H320 H -0.07989 0.68006 0.37091
 H321 H -0.17366 0.58334 0.37122
 H322 H -0.19357 0.52335 0.39077
 H323 H -0.15561 0.48373 0.42889
 H324 H -0.09749 0.50383 0.44761
 C325 C 0.43273 0.06901 0.42965
 C326 C 0.39919 0.05627 0.41896
 C327 C 0.37702 0.07867 0.39693
 C328 C 0.38852 0.11371 0.38578
 C329 C 0.42201 0.12651 0.39667
 C330 C 0.44417 0.10410 0.41870
 C331 C 0.47749 0.11751 0.42937
 C332 C 0.48860 0.15209 0.41856
 C333 C 0.46696 0.17399 0.39696
 C334 C 0.43403 0.16149 0.38605
 C335 C 0.34360 0.06533 0.38657
 C336 C 0.33238 0.03088 0.39773
 C337 C 0.35404 0.00900 0.41932
 C338 C 0.38709 0.02139 0.42988
 C339 C 0.36586 0.13658 0.36326
 C340 C 0.34693 0.15548 0.34460
 C341 C 0.45535 0.04610 0.45206
 C342 C 0.47397 0.02705 0.47082
 H343 H 0.49525 0.10149 0.44619
 H344 H 0.51414 0.16193 0.42700
 H345 H 0.47572 0.20083 0.38862
 H346 H 0.41813 0.17954 0.36928
 H347 H 0.32579 0.08135 0.36982
 H348 H 0.30672 0.02112 0.38958
 H349 H 0.34519 -0.01773 0.42794
 H350 H 0.40297 0.00337 0.44671
 C351 C 0.43214 0.57198 -0.06925
 C352 C 0.39829 0.58103 -0.05627
 C353 C 0.37593 0.60334 -0.07819
 C354 C 0.38755 0.61639 -0.11298
 C355 C 0.42138 0.60722 -0.12599
 C356 C 0.44374 0.58493 -0.10406
 C357 C 0.47741 0.57604 -0.11766
 C358 C 0.48868 0.58882 -0.15197
 C359 C 0.46684 0.61065 -0.17341
 C360 C 0.43355 0.61984 -0.16072
 C361 C 0.34221 0.61205 -0.06463
 C362 C 0.33087 0.59903 -0.03042
 C363 C 0.35271 0.57717 -0.00902
 C364 C 0.38606 0.56819 -0.02164
 C365 C 0.36465 0.63906 -0.13543
 C366 C 0.34555 0.65780 -0.15405
 C367 C 0.45494 0.54928 -0.04682
 C368 C 0.47366 0.53035 -0.02806
 H369 H 0.49535 0.55913 -0.10199
 H370 H 0.51450 0.58174 -0.16196
 H371 H 0.47571 0.62052 -0.20004
 H372 H 0.41751 0.63687 -0.17840
 H373 H 0.32426 0.62896 -0.08027
 H374 H 0.30499 0.60594 -0.02049
 H375 H 0.34378 0.56711 0.01752
 H376 H 0.40208 0.55109 -0.00399
 C377 C -0.06833 -0.07002 0.06884
 C378 C -0.09446 -0.05446 0.09151
 C379 C -0.11606 -0.07724 0.11375
 C380 C -0.11141 -0.11545 0.11318
 C381 C -0.08523 -0.13100 0.09055
 C382 C -0.06361 -0.10821 0.06832
 C383 C -0.03759 -0.12436 0.04593
 C384 C -0.03305 -0.16196 0.04555
 C385 C -0.05420 -0.18424 0.06726
 C386 C -0.08004 -0.16909 0.08955
 C387 C -0.14201 -0.06105 0.13619
 C388 C -0.14649 -0.02344 0.13662
 C389 C -0.12538 -0.00118 0.11485
 C390 C -0.09962 -0.01635 0.09250
 C391 C -0.13364 -0.13868 0.13578
 C392 C -0.15231 -0.15771 0.15459
 C393 C -0.04639 -0.04676 0.04603
 C394 C -0.02821 -0.02747 0.02704
 H395 H -0.02050 -0.10816 0.02856
 H396 H -0.01298 -0.17385 0.02834
 H397 H -0.05057 -0.21343 0.06686
 H398 H -0.09584 -0.18754 0.10597
 H399 H -0.15908 -0.07723 0.15361
 H400 H -0.16646 -0.01152 0.15394
 H401 H -0.12896 0.02802 0.11528
 H402 H -0.08384 0.00210 0.07607
 C403 C -0.06806 0.42757 0.56987
 C404 C -0.05696 0.41593 0.60536
 C405 C -0.07938 0.39383 0.62739
 C406 C -0.11278 0.38354 0.61380
 C407 C -0.12392 0.39530 0.57833
 C408 C -0.10150 0.41743 0.55632
 C409 C -0.11325 0.42900 0.52101
 C410 C -0.14619 0.41896 0.50783
 C411 C -0.16810 0.39726 0.52933
 C412 C -0.15723 0.38549 0.56419
 C413 C -0.06771 0.38253 0.66280
 C414 C -0.03485 0.39283 0.67606
 C415 C -0.01294 0.41448 0.65452
 C416 C -0.02372 0.42597 0.61955
 C417 C -0.13573 0.36102 0.63633
 C418 C -0.15484 0.34240 0.65505
 C419 C -0.04519 0.45009 0.54735
 C420 C -0.02639 0.46889 0.52856
 H421 H -0.09716 0.44592 0.50326
 H422 H -0.15477 0.42807 0.48078
 H423 H -0.19367 0.38952 0.51895
 H424 H -0.17521 0.36867 0.57988
 H425 H -0.08383 0.36569 0.68059
 H426 H -0.02636 0.38397 0.70322
 H427 H 0.01254 0.42244 0.66496
 H428 H -0.00576 0.44280 0.60383
 C429 C 0.43218 -0.07163 0.56921
 C430 C 0.44294 -0.08249 0.60507
 C431 C 0.42051 -0.10457 0.62714
 C432 C 0.38746 -0.11561 0.61320
 C433 C 0.37668 -0.10463 0.57736
 C434 C 0.39910 -0.08254 0.55532
 C435 C 0.38770 -0.07176 0.51963
 C436 C 0.35509 -0.08253 0.50611
 C437 C 0.33320 -0.10420 0.52764
 C438 C 0.34372 -0.11521 0.56287
 C439 C 0.43182 -0.11506 0.66292
 C440 C 0.46433 -0.10402 0.67652
 C441 C 0.48624 -0.08239 0.65495
 C442 C 0.47581 -0.07168 0.61960
 C443 C 0.36450 -0.13810 0.63576
 C444 C 0.34535 -0.15672 0.65445
 C445 C 0.45504 -0.04910 0.54667
 C446 C 0.47381 -0.03026 0.52789
 H447 H 0.40380 -0.05489 0.50184
 H448 H 0.34679 -0.07403 0.47878
 H449 H 0.30789 -0.11252 0.51701
 H450 H 0.32576 -0.13204 0.57857
 H451 H 0.41569 -0.13185 0.68075
 H452 H 0.47255 -0.11227 0.70396
 H453 H 0.51145 -0.07385 0.66564
 H454 H 0.49376 -0.05484 0.60388
 C455 C 0.43257 0.43028 0.06944
 C456 C 0.39903 0.44274 0.08017
 C457 C 0.37696 0.42001 0.10194
 C458 C 0.38856 0.38495 0.11280
 C459 C 0.42204 0.37242 0.10186
 C460 C 0.44411 0.39516 0.08008
 C461 C 0.47743 0.38203 0.06935
 C462 C 0.48863 0.34742 0.07987
 C463 C 0.46708 0.32520 0.10122
 C464 C 0.43414 0.33742 0.11217
 C465 C 0.34352 0.43306 0.11235
 C466 C 0.33221 0.46755 0.10149
 C467 C 0.35378 0.48974 0.08015
 C468 C 0.38684 0.47764 0.06954
 C469 C 0.36603 0.36180 0.13516
 C470 C 0.34719 0.34274 0.15373
 C471 C 0.45513 0.45354 0.04734
 C472 C 0.47371 0.47283 0.02882
 H473 H 0.49513 0.39829 0.05272
 H474 H 0.51418 0.33780 0.07140
 H475 H 0.47591 0.29834 0.10933
 H476 H 0.41831 0.31914 0.12874
 H477 H 0.32578 0.41680 0.12891
 H478 H 0.30655 0.47708 0.10967
 H479 H 0.34487 0.51650 0.07177
 H480 H 0.40265 0.49590 0.05292
 C481 C 0.06730 0.07098 0.06925
 C482 C 0.09438 0.05491 0.09057
 C483 C 0.11633 0.07708 0.11288
 C484 C 0.11107 0.11519 0.11373
 C485 C 0.08393 0.13125 0.09246
 C486 C 0.06197 0.10907 0.07015
 C487 C 0.03504 0.12573 0.04907
 C488 C 0.02995 0.16324 0.05002
 C489 C 0.05141 0.18492 0.07185
 C490 C 0.07813 0.16927 0.09289
 C491 C 0.14325 0.06039 0.13394
 C492 C 0.14834 0.02288 0.13296
 C493 C 0.12689 0.00121 0.11113
 C494 C 0.10018 0.01688 0.09012
 C495 C 0.13371 0.13780 0.13633
 C496 C 0.15275 0.15628 0.15512
 C497 C 0.04505 0.04835 0.04631
 C498 C 0.02666 0.02954 0.02721
 H499 H 0.01767 0.11000 0.03167
 H500 H 0.00927 0.17554 0.03371
 H501 H 0.04734 0.21405 0.07250
 H502 H 0.09414 0.18726 0.10944
 H503 H 0.16063 0.07609 0.15135
 H504 H 0.16906 0.01057 0.14924
 H505 H 0.13095 -0.02792 0.11046
 H506 H 0.08417 -0.00112 0.07357
 C507 C 0.06748 0.56848 0.57172
 C508 C 0.07921 0.55587 0.60664
 C509 C 0.10074 0.57849 0.62893
 C510 C 0.11033 0.61362 0.61618
 C511 C 0.09822 0.62640 0.58143
 C512 C 0.07671 0.60375 0.55914
 C513 C 0.06488 0.61710 0.52451
 C514 C 0.07405 0.65183 0.51227
 C515 C 0.09512 0.67397 0.53405
 C516 C 0.10715 0.66154 0.56825
 C517 C 0.11223 0.56525 0.66371
 C518 C 0.10264 0.53069 0.67614
 C519 C 0.08152 0.50860 0.65436
 C520 C 0.06988 0.52089 0.61998
 C521 C 0.13287 0.63647 0.63864
 C522 C 0.15177 0.65528 0.65725
 C523 C 0.04608 0.54515 0.54865
 C524 C 0.02830 0.52591 0.52937
 H525 H 0.04842 0.60091 0.50658
 H526 H 0.06475 0.66162 0.48573
 H527 H 0.10217 0.70093 0.52442
 H528 H 0.12343 0.67978 0.58422
 H529 H 0.12866 0.58144 0.68166
 H530 H 0.11163 0.52101 0.70283
 H531 H 0.07411 0.48179 0.66416
 H532 H 0.05348 0.50271 0.60406
 C533 C 0.56712 0.06927 0.57185
 C534 C 0.57807 0.05661 0.60704
 C535 C 0.59958 0.07897 0.62964
 C536 C 0.60993 0.11388 0.61693
 C537 C 0.59855 0.12673 0.58193
 C538 C 0.57707 0.10435 0.55933
 C539 C 0.56599 0.11776 0.52445
 C540 C 0.57586 0.15230 0.51226
 C541 C 0.59691 0.17418 0.53434
 C542 C 0.60821 0.16168 0.56879
 C543 C 0.61029 0.06568 0.66467
 C544 C 0.59996 0.03133 0.67706
 C545 C 0.57886 0.00951 0.65499
 C546 C 0.56799 0.02184 0.62034
 C547 C 0.63250 0.13643 0.63968
 C548 C 0.65142 0.15504 0.65848
 C549 C 0.54582 0.04615 0.54845
 C550 C 0.52818 0.02700 0.52894
 H551 H 0.54957 0.10177 0.50629
 H552 H 0.56712 0.16215 0.48554
 H553 H 0.60451 0.20099 0.52474
 H554 H 0.62450 0.17971 0.58498
 H555 H 0.62667 0.08167 0.68286
 H556 H 0.60835 0.02162 0.70395
 H557 H 0.57087 -0.01714 0.66475
 H558 H 0.55157 0.00388 0.60420
 C559 C 0.56953 0.57100 0.07163
 C560 C 0.59140 0.55472 0.09871
 C561 C 0.61343 0.57684 0.12100
 C562 C 0.61344 0.61508 0.11609
 C563 C 0.59145 0.63136 0.08912
 C564 C 0.56943 0.60925 0.06682
 C565 C 0.54770 0.62613 0.04002
 C566 C 0.54772 0.66379 0.03538
 C567 C 0.56925 0.68541 0.05718
 C568 C 0.59092 0.66954 0.08379
 C569 C 0.63509 0.55995 0.14786
 C570 C 0.63499 0.52229 0.15256
 C571 C 0.61345 0.50068 0.13076
 C572 C 0.59185 0.51655 0.10410
 C573 C 0.63622 0.63762 0.13860
 C574 C 0.65528 0.65623 0.15723
 C575 C 0.54729 0.54840 0.04863
 C576 C 0.52889 0.52967 0.02945
 H577 H 0.53048 0.61046 0.02240
 H578 H 0.53093 0.67625 0.01475
 H579 H 0.56917 0.71465 0.05347
 H580 H 0.60719 0.68750 0.10009
 H581 H 0.65230 0.57561 0.16550
 H582 H 0.65172 0.50983 0.17323
 H583 H 0.61346 0.47144 0.13452
 H584 H 0.57555 0.49860 0.08782
   
