data_POSCAR
  _audit_creation_date              2014-09-24
  _audit_creation_method            'ToBaCCo'
  _symmetry_space_group_name_H-M    'P1'
  _symmetry_Int_Tables_number       1
  _symmetry_cell_setting            triclinic
  loop_
  _symmetry_equiv_pos_as_xyz
 x,y,z
_cell_length_a 54.0070
_cell_length_b 52.0287
_cell_length_c 26.5838
_cell_angle_alpha 90.323900
_cell_angle_beta 89.953600
_cell_angle_gamma 89.984100
loop_
  _atom_site_label
  _atom_site_type_symbol
  _atom_site_fract_x
  _atom_site_fract_y
  _atom_site_fract_z
O1 O 0.23712 0.27331 0.18415
 O2 O 0.28053 0.22443 0.23135
 O3 O 0.23761 0.22311 0.18731
 O4 O 0.28033 0.27433 0.22821
 O5 O 0.26237 0.27502 0.30290
 O6 O 0.21812 0.22576 0.26022
 O7 O 0.26140 0.22497 0.30484
 O8 O 0.21945 0.27547 0.25904
 Cu9 Cu 0.26072 0.24868 0.20026
 Cu10 Cu 0.23851 0.25036 0.28924
 C11 C 0.22099 0.28281 0.21369
 C12 C 0.27831 0.21635 0.27609
 C13 C 0.22033 0.21597 0.21655
 C14 C 0.27876 0.28320 0.27271
 O15 O 0.78117 0.27501 0.26536
 O16 O 0.73736 0.22647 0.31234
 O17 O 0.78045 0.22500 0.26813
 O18 O 0.73828 0.27671 0.30948
 O19 O 0.71868 0.27430 0.23666
 O20 O 0.76267 0.22490 0.19331
 O21 O 0.71962 0.22467 0.23758
 O22 O 0.76200 0.27486 0.19197
 Cu23 Cu 0.76116 0.25088 0.29631
 Cu24 Cu 0.73892 0.24963 0.20739
 C25 C 0.77898 0.28325 0.22072
 C26 C 0.72106 0.21722 0.28291
 C27 C 0.77891 0.21640 0.22344
 C28 C 0.72107 0.28396 0.28034
 O29 O 0.73564 0.77431 0.69260
 O30 O 0.77865 0.72484 0.73847
 O31 O 0.73549 0.72417 0.69605
 O32 O 0.77916 0.77476 0.73591
 O33 O 0.76150 0.77593 0.81084
 O34 O 0.71675 0.72681 0.76982
 O35 O 0.76041 0.72598 0.81286
 O36 O 0.71834 0.77664 0.76783
 Cu37 Cu 0.75901 0.74943 0.70821
 Cu38 Cu 0.73745 0.75144 0.79785
 C39 C 0.71971 0.78394 0.72242
 C40 C 0.77683 0.71696 0.78341
 C41 C 0.71856 0.71706 0.72608
 C42 C 0.77794 0.78376 0.78039
 O43 O 0.28031 0.77677 0.76437
 O44 O 0.23603 0.72810 0.80886
 O45 O 0.27951 0.72662 0.76630
 O46 O 0.23685 0.77809 0.80652
 O47 O 0.21900 0.77710 0.73182
 O48 O 0.26211 0.72629 0.69110
 O49 O 0.21860 0.72708 0.73372
 O50 O 0.26261 0.77611 0.68947
 Cu51 Cu 0.25996 0.75245 0.79403
 Cu52 Cu 0.23878 0.75157 0.70403
 C53 C 0.27900 0.78471 0.71937
 C54 C 0.21977 0.71933 0.77888
 C55 C 0.27815 0.71783 0.72171
 C56 C 0.22057 0.78629 0.77608
 C57 C 1.01336 -0.07323 -0.06178
 C58 C 0.98799 -0.07414 -0.06041
 C59 C 0.97996 -0.04938 -0.04987
 N60 N 0.99953 -0.03338 -0.04487
 C61 C 1.01997 -0.04794 -0.05213
 C62 C 0.95494 -0.04159 -0.04748
 C63 C 0.94753 -0.01738 -0.02830
 C64 C 0.92426 -0.00665 -0.03459
 C65 C 0.92395 0.01588 -0.00732
 C66 C 0.94714 0.01845 0.01460
 N67 N 0.96135 -0.00200 0.00177
 C68 C 0.95396 0.03800 0.04912
 C69 C 0.97869 0.04233 0.06414
 C70 C 0.98601 0.05825 0.10335
 C71 C 1.01139 0.05884 0.10247
 C72 C 1.01880 0.04378 0.06194
 N73 N 0.99875 0.03362 0.03879
 C74 C 1.04340 0.04116 0.04414
 C75 C 1.04999 0.02227 0.00791
 C76 C 1.07151 0.02238 -0.02070
 C77 C 1.07188 -0.00023 -0.04770
 C78 C 1.05043 -0.01339 -0.03544
 N79 N 1.03712 0.00046 -0.00174
 C80 C 1.04437 -0.03826 -0.05298
 H81 H 1.02550 -0.08939 -0.06890
 H82 H 0.97679 -0.09113 -0.06622
 H83 H 1.02167 -0.00602 0.01788
 H84 H 0.90893 -0.01436 -0.05608
 H85 H 0.90817 0.02853 -0.00343
 H86 H 0.97442 0.06853 0.12984
 H87 H 1.02291 0.06929 0.12880
 H88 H 1.08626 -0.00626 -0.07357
 H89 H 0.97839 -0.00671 0.01739
 H90 H 1.08556 0.03717 -0.02226
 C91 C 0.51203 0.42712 0.43533
 C92 C 0.48669 0.42707 0.43455
 C93 C 0.47916 0.45141 0.44932
 N94 N 0.49912 0.46631 0.45932
 C95 C 0.51931 0.45141 0.45141
 C96 C 0.45427 0.45980 0.45104
 C97 C 0.44693 0.48375 0.47153
 C98 C 0.42383 0.49483 0.46474
 C99 C 0.42341 0.51694 0.49324
 C100 C 0.44635 0.51893 0.51641
 N101 N 0.46051 0.49850 0.50317
 C102 C 0.45295 0.53802 0.55207
 C103 C 0.47753 0.54187 0.56859
 C104 C 0.48452 0.55773 0.60815
 C105 C 0.50989 0.55785 0.60883
 C106 C 0.51764 0.54252 0.56897
 N107 N 0.49780 0.53270 0.54460
 C108 C 0.54248 0.53941 0.55306
 C109 C 0.54967 0.52036 0.51756
 C110 C 0.57225 0.51970 0.49273
 C111 C 0.57294 0.49719 0.46557
 C112 C 0.55048 0.48485 0.47328
 N113 N 0.53644 0.49913 0.50518
 C114 C 0.54413 0.46013 0.45457
 H115 H 0.52352 0.41108 0.42414
 H116 H 0.47520 0.41091 0.42386
 H117 H 0.52011 0.49317 0.52231
 H118 H 0.40870 0.48763 0.44203
 H119 H 0.40771 0.52971 0.49700
 H120 H 0.47273 0.56834 0.63375
 H121 H 0.52122 0.56824 0.63561
 H122 H 0.58844 0.49098 0.44293
 H123 H 0.47727 0.49334 0.51939
 H124 H 0.58692 0.53382 0.49402
 C125 C -0.01474 0.57168 -0.07516
 C126 C 0.01058 0.57271 -0.07374
 C127 C 0.01858 0.54986 -0.05258
 N128 N -0.00114 0.53506 -0.04076
 C129 C -0.02156 0.54829 -0.05456
 C130 C 0.04374 0.54323 -0.04492
 C131 C 0.05196 0.52021 -0.02185
 C132 C 0.07651 0.51237 -0.02035
 C133 C 0.07706 0.48925 0.00417
 C134 C 0.05280 0.48320 0.01663
 N135 N 0.03768 0.50247 0.00146
 C136 C 0.04557 0.46023 0.04122
 C137 C 0.02076 0.45215 0.04823
 C138 C 0.01395 0.42844 0.06742
 C139 C -0.01137 0.42741 0.06595
 C140 C -0.01937 0.45057 0.04618
 N141 N 0.00032 0.46558 0.03524
 C142 C -0.04453 0.45742 0.03938
 C143 C -0.05270 0.48068 0.01721
 C144 C -0.07711 0.48898 0.01740
 C145 C -0.07767 0.51209 -0.00708
 C146 C -0.05353 0.51770 -0.02118
 N147 N -0.03849 0.49816 -0.00704
 C148 C -0.04636 0.54044 -0.04663
 H149 H -0.02671 0.58681 -0.08869
 H150 H 0.02172 0.58873 -0.08626
 H151 H -0.02005 0.49592 -0.01676
 H152 H 0.09248 0.52206 -0.03588
 H153 H 0.09358 0.47812 0.01132
 H154 H 0.02594 0.41313 0.08011
 H155 H -0.02251 0.41121 0.07759
 H156 H -0.09413 0.52349 -0.01317
 H157 H 0.01903 0.50425 0.00954
 H158 H -0.09298 0.47957 0.03397
 C159 C 0.51297 0.93690 0.59371
 C160 C 0.48760 0.93681 0.59359
 C161 C 0.48018 0.95653 0.56210
 N162 N 0.50025 0.96845 0.54268
 C163 C 0.52034 0.95668 0.56231
 C164 C 0.45536 0.96168 0.54844
 C165 C 0.44818 0.98241 0.51735
 C166 C 0.42491 0.98527 0.49595
 C167 C 0.42495 1.00833 0.47105
 C168 C 0.44811 1.01918 0.47831
 N169 N 0.46212 1.00332 0.50674
 C170 C 0.45523 1.04376 0.46093
 C171 C 0.48004 1.05240 0.46019
 C172 C 0.48729 1.07745 0.45058
 C173 C 0.51267 1.07758 0.45086
 C174 C 0.52012 1.05261 0.46064
 N175 N 0.50013 1.03722 0.46623
 C176 C 0.54500 1.04423 0.46196
 C177 C 0.55226 1.01970 0.47933
 C178 C 0.57557 1.00909 0.47249
 C179 C 0.57568 0.98598 0.49720
 C180 C 0.55232 0.98286 0.51810
 N181 N 0.53824 1.00366 0.50735
 C182 C 0.54517 0.96202 0.54893
 H183 H 0.52456 0.92341 0.61365
 H184 H 0.47605 0.92322 0.61339
 H185 H 0.52112 1.00802 0.52296
 H186 H 0.40931 0.97231 0.49823
 H187 H 0.40952 1.01623 0.45027
 H188 H 0.47556 1.09399 0.44433
 H189 H 0.52427 1.09424 0.44485
 H190 H 0.59138 0.97315 0.49970
 H191 H 0.47911 1.00788 0.52267
 H192 H 0.59104 1.01720 0.45211
 C193 C 1.16983 0.16239 0.16791
 N194 N 1.16633 0.17520 0.21194
 N195 N 1.18294 0.19226 0.22812
 C196 C 1.20346 0.19748 0.20041
 N197 N 1.20690 0.18470 0.15623
 N198 N 1.19048 0.16731 0.14048
 C199 C 1.15127 0.14400 0.14976
 N200 N 1.15790 0.12396 0.11971
 N201 N 1.14093 0.10736 0.10315
 C202 C 1.11669 0.11050 0.11534
 N203 N 1.11006 0.13064 0.14507
 N204 N 1.12708 0.14698 0.16232
 C205 C 1.09789 0.09257 0.09650
 N206 N 1.07431 0.10065 0.08896
 N207 N 1.05715 0.08443 0.07188
 C208 C 1.06275 0.05939 0.06257
 N209 N 1.08639 0.05136 0.07034
 N210 N 1.10368 0.06768 0.08661
 C211 C 0.66717 0.66210 0.67857
 N212 N 0.69001 0.66313 0.65733
 N213 N 0.70642 0.68067 0.67244
 C214 C 0.70068 0.69753 0.70983
 N215 N 0.67793 0.69632 0.73140
 N216 N 0.66140 0.67904 0.71578
 C217 C 0.64879 0.64338 0.66090
 N218 N 0.62425 0.64812 0.66675
 N219 N 0.60747 0.63145 0.64975
 C220 C 0.61464 0.60926 0.62696
 N221 N 0.63920 0.60438 0.62152
 N222 N 0.65598 0.62124 0.63786
 C223 C 0.59608 0.59109 0.60794
 N224 N 0.60158 0.56578 0.60219
 N225 N 0.58455 0.54935 0.58521
 C226 C 0.56152 0.55765 0.57263
 N227 N 0.55620 0.58304 0.57801
 N228 N 0.57307 0.59940 0.59570
 C229 C -0.17024 0.33724 0.16717
 N230 N -0.16926 0.32912 0.21557
 N231 N -0.18556 0.31206 0.23269
 C232 C -0.20347 0.30252 0.20206
 N233 N -0.20453 0.31069 0.15369
 N234 N -0.18819 0.32774 0.13655
 C235 C -0.15192 0.35566 0.14817
 N236 N -0.15208 0.36291 0.09918
 N237 N -0.13520 0.37931 0.08187
 C238 C -0.11756 0.38908 0.11292
 N239 N -0.11745 0.38188 0.16192
 N240 N -0.13431 0.36545 0.17921
 C241 C -0.09875 0.40694 0.09383
 N242 N -0.08151 0.41711 0.12530
 N243 N -0.06432 0.43315 0.10801
 C244 C -0.06367 0.43953 0.05858
 N245 N -0.08095 0.42942 0.02711
 N246 N -0.09818 0.41340 0.04443
 C247 C 0.33010 0.83905 0.66850
 N248 N 0.32906 0.83270 0.71793
 N249 N 0.31274 0.81541 0.73415
 C250 C 0.29678 0.80395 0.70158
 N251 N 0.29775 0.81039 0.65220
 N252 N 0.31415 0.82757 0.63593
 C253 C 0.34834 0.85780 0.65052
 N254 N 0.35153 0.86179 0.60050
 N255 N 0.36832 0.87855 0.58417
 C256 C 0.38246 0.89203 0.61728
 N257 N 0.37920 0.88812 0.66730
 N258 N 0.36249 0.87127 0.68362
 C259 C 0.40112 0.91033 0.59930
 N260 N 0.41339 0.92577 0.63222
 N261 N 0.43046 0.94224 0.61597
 C262 C 0.43595 0.94379 0.56624
 N263 N 0.42376 0.92828 0.53333
 N264 N 0.40659 0.91191 0.54956
 C265 C -0.17293 0.66190 -0.16529
 N266 N -0.17317 0.66899 -0.21434
 N267 N -0.18930 0.68642 -0.23065
 C268 C -0.20584 0.69734 -0.19855
 N269 N -0.20570 0.69017 -0.14951
 N270 N -0.18950 0.67279 -0.13316
 C271 C -0.15473 0.64309 -0.14734
 N272 N -0.15286 0.63755 -0.09764
 N273 N -0.13596 0.62086 -0.08144
 C274 C -0.12038 0.60906 -0.11438
 N275 N -0.12233 0.61453 -0.16408
 N276 N -0.13917 0.63127 -0.18025
 C277 C -0.10150 0.59095 -0.09665
 N278 N -0.08688 0.57819 -0.13002
 N279 N -0.06953 0.56197 -0.11408
 C280 C -0.06616 0.55794 -0.06415
 N281 N -0.08068 0.57079 -0.03072
 N282 N -0.09809 0.58695 -0.04670
 C283 C 0.32885 1.16224 0.33006
 N284 N 0.31000 1.17071 0.35967
 N285 N 0.29376 1.18781 0.34240
 C286 C 0.29575 1.19701 0.29487
 N287 N 0.31454 1.18846 0.26523
 N288 N 0.33079 1.17140 0.28251
 C289 C 0.34715 1.14387 0.34931
 N290 N 0.36662 1.13649 0.32030
 N291 N 0.38352 1.12022 0.33792
 C292 C 0.38156 1.11068 0.38518
 N293 N 0.36204 1.11799 0.41417
 N294 N 0.34515 1.13431 0.39656
 C295 C 0.40045 1.09306 0.40473
 N296 N 0.39833 1.08296 0.45152
 N297 N 0.41567 1.06722 0.46934
 C298 C 0.43579 1.06107 0.44105
 N299 N 0.43787 1.07114 0.39423
 N300 N 0.42053 1.08684 0.37640
 C301 C 1.17161 -0.15793 -0.17788
 N302 N 1.18973 -0.16623 -0.14657
 N303 N 1.20570 -0.18424 -0.16158
 C304 C 1.20416 -0.19458 -0.20851
 N305 N 1.18610 -0.18615 -0.23990
 N306 N 1.17009 -0.16820 -0.22483
 C307 C 1.15356 -0.13863 -0.16082
 N308 N 1.13408 -0.13211 -0.19036
 N309 N 1.11729 -0.11519 -0.17428
 C310 C 1.11942 -0.10409 -0.12814
 N311 N 1.13899 -0.11048 -0.09873
 N312 N 1.15574 -0.12747 -0.11475
 C313 C 1.10043 -0.08616 -0.10967
 N314 N 1.10303 -0.07431 -0.06435
 N315 N 1.08538 -0.05880 -0.04673
 C316 C 1.06441 -0.05467 -0.07368
 N317 N 1.06191 -0.06634 -0.11921
 N318 N 1.07961 -0.08180 -0.13689
 C319 C 0.67010 0.33855 0.33125
 N320 N 0.66282 0.31891 0.30092
 N321 N 0.67920 0.30178 0.28399
 C322 C 0.70336 0.30340 0.29762
 N323 N 0.71064 0.32294 0.32828
 N324 N 0.69433 0.34037 0.34442
 C325 C 0.65193 0.35709 0.35032
 N326 N 0.65783 0.38233 0.35555
 N327 N 0.64108 0.39913 0.37240
 C328 C 0.61804 0.39115 0.38554
 N329 N 0.61225 0.36589 0.38077
 N330 N 0.62882 0.34919 0.36300
 C331 C 0.59957 0.40943 0.40442
 N332 N 0.58340 0.40232 0.44082
 N333 N 0.56621 0.41866 0.45735
 C334 C 0.56419 0.44255 0.43742
 N335 N 0.58033 0.44957 0.40076
 N336 N 0.59786 0.43341 0.38489
 C337 C 0.82855 -0.16252 -0.17183
 N338 N 0.81026 -0.17065 -0.14071
 N339 N 0.79377 -0.18796 -0.15636
 C340 C 0.79492 -0.19777 -0.20377
 N341 N 0.81316 -0.18953 -0.23499
 N342 N 0.82968 -0.17224 -0.21929
 C343 C 0.84702 -0.14385 -0.15405
 N344 N 0.86618 -0.13676 -0.18400
 N345 N 0.88316 -0.12018 -0.16741
 C346 C 0.88157 -0.11007 -0.12031
 N347 N 0.86235 -0.11710 -0.09046
 N348 N 0.84541 -0.13371 -0.10700
 C349 C 0.90045 -0.09209 -0.10170
 N350 N 0.89844 -0.08145 -0.05513
 N351 N 0.91570 -0.06535 -0.03798
 C352 C 0.93565 -0.05936 -0.06674
 N353 N 0.93764 -0.06997 -0.11336
 N354 N 0.92035 -0.08604 -0.13053
 C355 C 0.32899 0.33900 0.32208
 N356 N 0.31069 0.33056 0.35287
 N357 N 0.29461 0.31289 0.33700
 C358 C 0.29623 0.30302 0.28973
 N359 N 0.31448 0.31151 0.25885
 N360 N 0.33058 0.32918 0.27475
 C361 C 0.34702 0.35806 0.34011
 N362 N 0.36593 0.36585 0.31017
 N363 N 0.38258 0.38272 0.32704
 C364 C 0.38090 0.39242 0.37445
 N365 N 0.36193 0.38470 0.40430
 N366 N 0.34531 0.36783 0.38745
 C367 C 0.39958 0.41047 0.39364
 N368 N 0.39788 0.41997 0.44118
 N369 N 0.41515 0.43580 0.45918
 C370 C 0.43478 0.44269 0.43033
 N371 N 0.43640 0.43334 0.38263
 N372 N 0.41911 0.41750 0.36463
 C373 C 0.16867 0.66514 -0.16957
 N374 N 0.16842 0.67282 -0.21830
 N375 N 0.18477 0.69001 -0.23480
 C376 C 0.20198 0.70011 -0.20318
 N377 N 0.20227 0.69238 -0.15450
 N378 N 0.18591 0.67522 -0.13798
 C379 C 0.15043 0.64647 -0.15119
 N380 N 0.15001 0.63964 -0.10197
 N381 N 0.13326 0.62296 -0.08516
 C382 C 0.11635 0.61246 -0.11696
 N383 N 0.11681 0.61925 -0.16620
 N384 N 0.13354 0.63596 -0.18300
 C385 C 0.09770 0.59430 -0.09834
 N386 N 0.08117 0.58336 -0.13040
 N387 N 0.06409 0.56708 -0.11348
 C388 C 0.06287 0.56122 -0.06383
 N389 N 0.07944 0.57209 -0.03177
 N390 N 0.09655 0.58834 -0.04873
 C391 C 0.67126 1.16397 0.33500
 N392 N 0.67022 1.17228 0.28674
 N393 N 0.68650 1.18939 0.26979
 C394 C 0.70442 1.19891 0.30049
 N395 N 0.70551 1.19053 0.34876
 N396 N 0.68924 1.17336 0.36568
 C397 C 0.65295 1.14548 0.35376
 N398 N 0.65432 1.13642 0.40148
 N399 N 0.63744 1.11994 0.41859
 C400 C 0.61855 1.11199 0.38863
 N401 N 0.61721 1.12104 0.34091
 N402 N 0.63411 1.13745 0.32378
 C403 C 0.59967 1.09418 0.40758
 N404 N 0.58001 1.08758 0.37847
 N405 N 0.56268 1.07169 0.39573
 C406 C 0.56440 1.06178 0.44273
 N407 N 0.58411 1.06830 0.47181
 N408 N 0.60142 1.08424 0.45456
 C409 C 0.17106 0.33799 0.16155
 N410 N 0.18753 0.32683 0.12956
 N411 N 0.20359 0.30936 0.14617
 C412 C 0.20371 0.30240 0.19532
 N413 N 0.18726 0.31359 0.22727
 N414 N 0.17126 0.33109 0.21071
 C415 C 0.15305 0.35694 0.14336
 N416 N 0.13738 0.36878 0.17602
 N417 N 0.12074 0.38567 0.15963
 C418 C 0.11912 0.39130 0.10995
 N419 N 0.13482 0.37949 0.07725
 N420 N 0.15151 0.36263 0.09367
 C421 C 0.10042 0.40957 0.09197
 N422 N 0.09755 0.41401 0.04202
 N423 N 0.08026 0.43026 0.02582
 C424 C 0.06533 0.44275 0.05902
 N425 N 0.06818 0.43829 0.10893
 N426 N 0.08541 0.42200 0.12511
 C427 C 0.66993 0.83927 0.67034
 N428 N 0.68548 0.82705 0.63792
 N429 N 0.70151 0.80958 0.65455
 C430 C 0.70249 0.80361 0.70416
 N431 N 0.68695 0.81583 0.73657
 N432 N 0.67101 0.83338 0.71998
 C433 C 0.65197 0.85823 0.65202
 N434 N 0.63803 0.87208 0.68493
 N435 N 0.62147 0.88901 0.66837
 C436 C 0.61814 0.89262 0.61830
 N437 N 0.63208 0.87877 0.58537
 N438 N 0.64873 0.86192 0.60193
 C439 C 0.59953 0.91094 0.60012
 N440 N 0.59410 0.91241 0.55036
 N441 N 0.57690 0.92871 0.53402
 C442 C 0.56464 0.94425 0.56683
 N443 N 0.57010 0.94281 0.61657
 N444 N 0.58721 0.92642 0.63292
 C445 C 0.82897 0.16055 0.17329
 N446 N 0.81330 0.17216 0.14061
 N447 N 0.79720 0.18977 0.15673
 C448 C 0.79628 0.19654 0.20608
 N449 N 0.81195 0.18495 0.23880
 N450 N 0.82797 0.16721 0.22271
 C451 C 0.84700 0.14150 0.15517
 N452 N 0.86073 0.12760 0.18805
 N453 N 0.87732 0.11059 0.17139
 C454 C 0.88088 0.10699 0.12127
 N455 N 0.86716 0.12090 0.08844
 N456 N 0.85047 0.13778 0.10509
 C457 C 0.89955 0.08874 0.10269
 N458 N 0.90567 0.08813 0.05317
 N459 N 0.92291 0.07194 0.03624
 C460 C 0.93454 0.05564 0.06814
 N461 N 0.92835 0.05614 0.11765
 N462 N 0.91121 0.07246 0.13465
 C463 C 0.32814 0.66155 0.67317
 N464 N 0.32686 0.66826 0.72254
 N465 N 0.31087 0.68614 0.73814
 C466 C 0.29549 0.69781 0.70496
 N467 N 0.29668 0.69098 0.65567
 N468 N 0.31276 0.67324 0.64004
 C469 C 0.34615 0.64236 0.65554
 N470 N 0.35002 0.63874 0.60554
 N471 N 0.36667 0.62173 0.58932
 C472 C 0.37997 0.60758 0.62247
 N473 N 0.37601 0.61108 0.67250
 N474 N 0.35944 0.62822 0.68875
 C475 C 0.39860 0.58918 0.60434
 N476 N 0.40966 0.57251 0.63642
 N477 N 0.42676 0.55605 0.61981
 C478 C 0.43353 0.55579 0.57060
 N479 N 0.42250 0.57249 0.53859
 N480 N 0.40529 0.58881 0.55512
   
