data_POSCAR
  _audit_creation_date              2014-09-24
  _audit_creation_method            'ToBaCCo'
  _symmetry_space_group_name_H-M    'P1'
  _symmetry_Int_Tables_number       1
  _symmetry_cell_setting            triclinic
  loop_
  _symmetry_equiv_pos_as_xyz
 x,y,z
_cell_length_a 33.6640
_cell_length_b 35.6665
_cell_length_c 33.6600
_cell_angle_alpha 90.000000
_cell_angle_beta 89.990600
_cell_angle_gamma 90.000000
loop_
  _atom_site_label
  _atom_site_type_symbol
  _atom_site_fract_x
  _atom_site_fract_y
  _atom_site_fract_z
Si1 Si 0.25001 0.25012 0.25000
 Si2 Si 0.75001 0.74998 0.25000
 Si3 Si 0.75001 0.24984 0.75000
 Si4 Si 0.25001 0.74998 0.75000
 C5 C 0.05609 0.05610 0.01417
 H6 H 0.05714 0.05762 -0.01792
 C7 C 0.07928 0.08041 0.03695
 H8 H 0.09824 0.10048 0.02204
 C9 C 0.02953 0.02827 0.07229
 H10 H 0.00965 0.00835 0.08599
 C11 C 0.05218 0.05205 0.09623
 H12 H 0.04966 0.04975 0.12821
 N13 N 0.03223 0.03038 0.03203
 C14 C 0.01634 -0.05805 -0.05616
 H15 H -0.01575 -0.05954 -0.05711
 C16 C 0.03903 -0.08224 -0.07959
 H17 H 0.02403 -0.10220 -0.09863
 C18 C 0.07456 -0.03037 -0.02967
 H19 H 0.08834 -0.01053 -0.00975
 C20 C 0.09841 -0.05403 -0.05257
 H21 H 0.13039 -0.05174 -0.05019
 Zn22 Zn 0.00127 -0.00103 -0.00112
 N23 N 0.03430 -0.03245 -0.03223
 C24 C -0.02731 0.02858 -0.07429
 N25 N -0.02972 0.03058 -0.03401
 C26 C -0.05346 0.05625 -0.01589
 C27 C -0.07688 0.08056 -0.03843
 C28 C -0.05019 0.05238 -0.09800
 C29 C -0.01396 -0.05825 0.05368
 C30 C -0.03674 -0.08238 0.07709
 C31 C -0.09601 -0.05397 0.05007
 C32 C -0.07208 -0.03037 0.02720
 N33 N -0.03183 -0.03255 0.02980
 H34 H -0.00753 0.00869 -0.08820
 H35 H -0.05430 0.05766 0.01620
 H36 H -0.09578 0.10055 -0.02331
 H37 H -0.04794 0.05014 -0.12999
 H38 H 0.01813 -0.05981 0.05466
 H39 H -0.02183 -0.10238 0.09613
 H40 H -0.12798 -0.05156 0.04769
 H41 H -0.08579 -0.01047 0.00731
 C42 C 0.08069 -0.08033 -0.07811
 C43 C 0.07761 0.07850 0.07862
 C44 C -0.07840 -0.08031 0.07562
 C45 C -0.07557 0.07873 -0.08011
 C46 C 0.05616 0.55809 0.51632
 H47 H 0.05712 0.55957 0.48423
 C48 C 0.07960 0.58227 0.53902
 H49 H 0.09863 0.60222 0.52402
 C50 C 0.02967 0.53041 0.57456
 H51 H 0.00975 0.51057 0.58834
 C52 C 0.05256 0.55406 0.59841
 H53 H 0.05018 0.55177 0.63039
 N54 N 0.03223 0.53248 0.53429
 C55 C 0.01591 0.44379 0.44653
 H56 H -0.01619 0.44238 0.44569
 C57 C 0.03845 0.41947 0.42311
 H58 H 0.02333 0.39947 0.40422
 C59 C 0.07430 0.47145 0.47267
 H60 H 0.08820 0.49134 0.49245
 C61 C 0.09800 0.44764 0.44979
 H62 H 0.12999 0.44988 0.45204
 Zn63 Zn 0.00113 0.50107 0.50126
 N64 N 0.03402 0.46946 0.47026
 C65 C -0.02718 0.53040 0.42791
 N66 N -0.02978 0.53259 0.46817
 C67 C -0.05367 0.55828 0.48604
 C68 C -0.07708 0.58240 0.46326
 C69 C -0.05005 0.55400 0.40397
 C70 C -0.01416 0.44393 0.55609
 C71 C -0.03695 0.41962 0.57928
 C72 C -0.09622 0.44798 0.55218
 C73 C -0.07228 0.47177 0.52954
 N74 N -0.03202 0.46966 0.53223
 H75 H -0.00728 0.51050 0.41420
 H76 H -0.05465 0.55985 0.51813
 H77 H -0.09612 0.60241 0.47817
 H78 H -0.04766 0.55159 0.37200
 H79 H 0.01792 0.44242 0.55713
 H80 H -0.02204 0.39955 0.59824
 H81 H -0.12819 0.45028 0.54967
 H82 H -0.08598 0.49169 0.50966
 C83 C 0.08012 0.42130 0.42442
 C84 C 0.07811 0.58036 0.58069
 C85 C -0.07861 0.42153 0.57762
 C86 C -0.07561 0.58033 0.42160
 C87 C 0.55348 0.05624 0.51589
 H88 H 0.55431 0.05765 0.48379
 C89 C 0.57689 0.08056 0.53843
 H90 H 0.59579 0.10055 0.52331
 C91 C 0.52732 0.02858 0.57429
 H92 H 0.50755 0.00869 0.58820
 C93 C 0.55020 0.05238 0.59799
 H94 H 0.54796 0.05014 0.62999
 N95 N 0.52974 0.03058 0.53401
 C96 C 0.51397 -0.05825 0.44632
 H97 H 0.48189 -0.05981 0.44534
 C98 C 0.53676 -0.08238 0.42290
 H99 H 0.52184 -0.10238 0.40387
 C100 C 0.57209 -0.03037 0.47280
 H101 H 0.58580 -0.01047 0.49269
 C102 C 0.59603 -0.05397 0.44993
 H103 H 0.62800 -0.05157 0.45231
 Zn104 Zn 0.49875 -0.00103 0.50112
 N105 N 0.53184 -0.03255 0.47020
 C106 C 0.47049 0.02827 0.42771
 N107 N 0.46778 0.03037 0.46797
 C108 C 0.44393 0.05610 0.48583
 C109 C 0.42074 0.08041 0.46305
 C110 C 0.44784 0.05205 0.40377
 C111 C 0.48368 -0.05805 0.55616
 C112 C 0.46099 -0.08224 0.57959
 C113 C 0.40161 -0.05404 0.55257
 C114 C 0.42546 -0.03037 0.52967
 N115 N 0.46572 -0.03245 0.53223
 H116 H 0.49036 0.00835 0.41401
 H117 H 0.44288 0.05762 0.51792
 H118 H 0.40177 0.10048 0.47796
 H119 H 0.45035 0.04974 0.37179
 H120 H 0.51577 -0.05954 0.55711
 H121 H 0.47598 -0.10220 0.59863
 H122 H 0.36963 -0.05174 0.55019
 H123 H 0.41168 -0.01054 0.50975
 C124 C 0.57841 -0.08031 0.42438
 C125 C 0.57558 0.07872 0.58011
 C126 C 0.41932 -0.08033 0.57811
 C127 C 0.42240 0.07849 0.42138
 C128 C 0.55368 0.55828 0.01396
 H129 H 0.55467 0.55985 -0.01813
 C130 C 0.57710 0.58240 0.03674
 H131 H 0.59614 0.60241 0.02182
 C132 C 0.52720 0.53040 0.07209
 H133 H 0.50730 0.51050 0.08580
 C134 C 0.55006 0.55399 0.09602
 H135 H 0.54768 0.55159 0.12800
 N136 N 0.52980 0.53258 0.03183
 C137 C 0.51418 0.44393 -0.05609
 H138 H 0.48209 0.44242 -0.05714
 C139 C 0.53697 0.41962 -0.07928
 H140 H 0.52205 0.39955 -0.09824
 C141 C 0.57229 0.47176 -0.02954
 H142 H 0.58599 0.49169 -0.00966
 C143 C 0.59623 0.44798 -0.05218
 H144 H 0.62820 0.45028 -0.04968
 Zn145 Zn 0.49889 0.50107 -0.00126
 N146 N 0.53204 0.46966 -0.03223
 C147 C 0.47035 0.53040 -0.07456
 N148 N 0.46779 0.53248 -0.03429
 C149 C 0.44385 0.55809 -0.01632
 C150 C 0.42042 0.58227 -0.03902
 C151 C 0.44745 0.55406 -0.09841
 C152 C 0.48411 0.44379 0.05347
 C153 C 0.46157 0.41946 0.07689
 C154 C 0.40202 0.44764 0.05021
 C155 C 0.42572 0.47145 0.02733
 N156 N 0.46599 0.46945 0.02974
 H157 H 0.49027 0.51057 -0.08834
 H158 H 0.44290 0.55957 0.01577
 H159 H 0.40138 0.60222 -0.02402
 H160 H 0.44983 0.55176 -0.13039
 H161 H 0.51620 0.44238 0.05430
 H162 H 0.47669 0.39947 0.09578
 H163 H 0.37002 0.44988 0.04796
 H164 H 0.41182 0.49134 0.00755
 C165 C 0.57862 0.42153 -0.07762
 C166 C 0.57562 0.58033 0.07840
 C167 C 0.41990 0.42130 0.07558
 C168 C 0.42190 0.58035 -0.08068
 C169 C 0.17532 -0.17604 -0.17368
 N170 N 0.15814 -0.20106 -0.19877
 N171 N 0.18041 -0.22327 -0.22151
 C172 C 0.22061 -0.22127 -0.21993
 N173 N 0.23783 -0.19627 -0.19492
 N174 N 0.21558 -0.17405 -0.17218
 C175 C 0.15080 -0.15140 -0.14876
 N176 N 0.16798 -0.12622 -0.12390
 N177 N 0.14574 -0.10373 -0.10145
 C178 C 0.10544 -0.10553 -0.10294
 N179 N 0.08834 -0.13081 -0.12785
 N180 N 0.11056 -0.15330 -0.15031
 C181 C 0.17414 0.32539 0.32851
 N182 N 0.15683 0.30048 0.30338
 N183 N 0.17899 0.27833 0.28046
 C184 C 0.21919 0.28032 0.28192
 N185 N 0.23654 0.30517 0.30698
 N186 N 0.21440 0.32732 0.32989
 C187 C 0.14976 0.35003 0.35356
 N188 N 0.16710 0.37515 0.37838
 N189 N 0.14500 0.39769 0.40091
 C190 C 0.10469 0.39600 0.39955
 N191 N 0.08743 0.37077 0.37470
 N192 N 0.10952 0.34823 0.35215
 C193 C 0.67347 -0.17518 0.32833
 N194 N 0.65641 -0.20009 0.30303
 N195 N 0.67878 -0.22207 0.28014
 C196 C 0.71896 -0.21990 0.28179
 N197 N 0.73608 -0.19506 0.30701
 N198 N 0.71372 -0.17307 0.32990
 C199 C 0.64883 -0.15080 0.35341
 N200 N 0.66590 -0.12569 0.37842
 N201 N 0.64355 -0.10341 0.40100
 C202 C 0.60326 -0.10534 0.39947
 N203 N 0.58628 -0.13055 0.37441
 N204 N 0.60861 -0.15284 0.35183
 C205 C 0.67363 0.32521 -0.17209
 N206 N 0.65653 0.30019 -0.19723
 N207 N 0.67886 0.27799 -0.21991
 C208 C 0.71905 0.28001 -0.21819
 N209 N 0.73621 0.30495 -0.19310
 N210 N 0.71388 0.32717 -0.17042
 C211 C 0.64902 0.34995 -0.14738
 N212 N 0.66610 0.37524 -0.12257
 N213 N 0.64376 0.39788 -0.10040
 C214 C 0.60347 0.39615 -0.10213
 N215 N 0.58647 0.37076 -0.12698
 N216 N 0.60879 0.34812 -0.14917
 C217 C -0.17150 0.17459 -0.17413
 N218 N -0.19663 0.19950 -0.15682
 N219 N -0.21955 0.22164 -0.17898
 C220 C -0.21808 0.21964 -0.21918
 N221 N -0.19302 0.19480 -0.23654
 N222 N -0.17011 0.17265 -0.21440
 C223 C -0.14643 0.14997 -0.14975
 N224 N -0.12162 0.12484 -0.16710
 N225 N -0.09908 0.10232 -0.14500
 C226 C -0.10044 0.10401 -0.10469
 N227 N -0.12529 0.12924 -0.08742
 N228 N -0.14785 0.15177 -0.10950
 C229 C -0.17167 0.67516 0.32654
 N230 N -0.19697 0.70006 0.34360
 N231 N -0.21986 0.72203 0.32123
 C232 C -0.21821 0.71987 0.28104
 N233 N -0.19299 0.69502 0.26392
 N234 N -0.17010 0.67304 0.28628
 C235 C -0.14659 0.65079 0.35118
 N236 N -0.12156 0.62568 0.33410
 N237 N -0.09899 0.60341 0.35645
 C238 C -0.10051 0.60535 0.39675
 N239 N -0.12558 0.63056 0.41374
 N240 N -0.14817 0.65284 0.39140
 C241 C 0.32791 0.17477 0.32638
 N242 N 0.30277 0.19978 0.34348
 N243 N 0.28009 0.22198 0.32115
 C244 C 0.28182 0.21995 0.28096
 N245 N 0.30691 0.19502 0.26380
 N246 N 0.32959 0.17281 0.28612
 C247 C 0.35262 0.15004 0.35099
 N248 N 0.37744 0.12475 0.33390
 N249 N 0.39962 0.10212 0.35624
 C250 C 0.39789 0.10386 0.39654
 N251 N 0.37303 0.12924 0.41354
 N252 N 0.35084 0.15188 0.39122
 C253 C 0.32632 0.67602 -0.17531
 N254 N 0.30123 0.70104 -0.15813
 N255 N 0.27849 0.72325 -0.18039
 C256 C 0.28007 0.72124 -0.22060
 N257 N 0.30508 0.69624 -0.23782
 N258 N 0.32782 0.67403 -0.21557
 C259 C 0.35124 0.65139 -0.15079
 N260 N 0.37611 0.62621 -0.16798
 N261 N 0.39856 0.60374 -0.14573
 C262 C 0.39707 0.60554 -0.10543
 N263 N 0.37216 0.63082 -0.08833
 N264 N 0.34969 0.65330 -0.11055
 C265 C -0.17346 -0.17518 0.17167
 N266 N -0.21370 -0.17307 0.17010
 N267 N -0.23606 -0.19506 0.19299
 C268 C -0.21895 -0.21990 0.21821
 N269 N -0.17877 -0.22207 0.21985
 N270 N -0.15639 -0.20009 0.19696
 C271 C -0.14881 -0.15080 0.14659
 N272 N -0.10859 -0.15284 0.14817
 N273 N -0.08626 -0.13055 0.12558
 C274 C -0.10325 -0.10534 0.10052
 N275 N -0.14354 -0.10341 0.09900
 N276 N -0.16588 -0.12569 0.12157
 C277 C -0.17361 0.32521 0.67209
 N278 N -0.21387 0.32717 0.67042
 N279 N -0.23619 0.30495 0.69309
 C280 C -0.21903 0.28001 0.71818
 N281 N -0.17885 0.27799 0.71990
 N282 N -0.15651 0.30019 0.69723
 C283 C -0.14900 0.34996 0.64738
 N284 N -0.10878 0.34812 0.64917
 N285 N -0.08646 0.37076 0.62697
 C286 C -0.10345 0.39615 0.60213
 N287 N -0.14375 0.39788 0.60039
 N288 N -0.16608 0.37524 0.62257
 C289 C 0.32469 -0.17604 0.67368
 N290 N 0.28444 -0.17405 0.67218
 N291 N 0.26219 -0.19627 0.69492
 C292 C 0.27940 -0.22127 0.71993
 N293 N 0.31961 -0.22327 0.72151
 N294 N 0.34187 -0.20106 0.69877
 C295 C 0.34922 -0.15140 0.64876
 N296 N 0.38945 -0.15330 0.65031
 N297 N 0.41168 -0.13081 0.62785
 C298 C 0.39458 -0.10553 0.60294
 N299 N 0.35428 -0.10374 0.60145
 N300 N 0.33204 -0.12622 0.62390
 C301 C 0.32588 0.32539 0.17150
 N302 N 0.28562 0.32732 0.17011
 N303 N 0.26348 0.30517 0.19302
 C304 C 0.28083 0.28032 0.21808
 N305 N 0.32102 0.27833 0.21954
 N306 N 0.34318 0.30048 0.19663
 C307 C 0.35026 0.35002 0.14644
 N308 N 0.39050 0.34823 0.14785
 N309 N 0.41258 0.37077 0.12530
 C310 C 0.39532 0.39600 0.10045
 N311 N 0.35501 0.39769 0.09909
 N312 N 0.33292 0.37515 0.12163
 C313 C 0.17210 0.17477 0.17363
 N314 N 0.19725 0.19978 0.15652
 N315 N 0.21992 0.22198 0.17885
 C316 C 0.21820 0.21995 0.21904
 N317 N 0.19311 0.19502 0.23621
 N318 N 0.17043 0.17281 0.21388
 C319 C 0.14739 0.15004 0.14901
 N320 N 0.12258 0.12476 0.16610
 N321 N 0.10039 0.10212 0.14376
 C322 C 0.10213 0.10386 0.10346
 N323 N 0.12698 0.12925 0.08646
 N324 N 0.14918 0.15188 0.10878
 C325 C 0.17370 0.67602 0.67532
 N326 N 0.19879 0.70104 0.65813
 N327 N 0.22153 0.72325 0.68040
 C328 C 0.21994 0.72124 0.72061
 N329 N 0.19494 0.69624 0.73782
 N330 N 0.17219 0.67403 0.71557
 C331 C 0.14877 0.65139 0.65079
 N332 N 0.12391 0.62622 0.66798
 N333 N 0.10145 0.60374 0.64573
 C334 C 0.10294 0.60554 0.60543
 N335 N 0.12786 0.63082 0.58833
 N336 N 0.15033 0.65330 0.61055
 C337 C 0.67151 0.17459 0.67413
 N338 N 0.69664 0.19950 0.65682
 N339 N 0.71956 0.22164 0.67898
 C340 C 0.71810 0.21964 0.71918
 N341 N 0.69304 0.19480 0.73653
 N342 N 0.67012 0.17265 0.71439
 C343 C 0.64645 0.14996 0.64975
 N344 N 0.62163 0.12484 0.66709
 N345 N 0.59909 0.10232 0.64500
 C346 C 0.60045 0.10401 0.60469
 N347 N 0.62531 0.12924 0.58742
 N348 N 0.64787 0.15177 0.60950
 C349 C 0.67168 0.67516 0.17346
 N350 N 0.67011 0.67304 0.21371
 N351 N 0.69300 0.69502 0.23607
 C352 C 0.71822 0.71987 0.21895
 N353 N 0.71987 0.72203 0.17877
 N354 N 0.69698 0.70006 0.15640
 C355 C 0.64660 0.65078 0.14882
 N356 N 0.64819 0.65283 0.10859
 N357 N 0.62559 0.63056 0.08626
 C358 C 0.60053 0.60535 0.10325
 N359 N 0.59900 0.60341 0.14355
 N360 N 0.62158 0.62568 0.16589
   
