data_POSCAR
  _audit_creation_date              2014-09-24
  _audit_creation_method            'ToBaCCo'
  _symmetry_space_group_name_H-M    'P1'
  _symmetry_Int_Tables_number       1
  _symmetry_cell_setting            triclinic
  loop_
  _symmetry_equiv_pos_as_xyz
 x,y,z
_cell_length_a 27.1629
_cell_length_b 27.5595
_cell_length_c 68.6322
_cell_angle_alpha 90.466100
_cell_angle_beta 89.772800
_cell_angle_gamma 120.520300
loop_
  _atom_site_label
  _atom_site_type_symbol
  _atom_site_fract_x
  _atom_site_fract_y
  _atom_site_fract_z
C1 C 0.03317 0.08759 0.52689
 H2 H 0.07263 0.08688 0.52663
 C3 C 0.02939 0.12792 0.53804
 H4 H 0.06623 0.15781 0.54644
 C5 C -0.06227 0.04922 0.51597
 H6 H -0.09745 0.01890 0.50709
 C7 C -0.06817 0.08875 0.52717
 H8 H -0.10825 0.08830 0.52691
 N9 N -0.01212 0.04931 0.51616
 C10 C 0.02237 -0.08845 0.51050
 H11 H 0.03002 -0.08905 0.49504
 C12 C 0.02098 -0.12988 0.52255
 H13 H 0.02837 -0.16180 0.51628
 C14 C -0.00014 -0.04825 0.53723
 H15 H -0.01008 -0.01755 0.54288
 C16 C -0.00249 -0.08900 0.54970
 H17 H -0.01310 -0.08818 0.56488
 Zn18 Zn 0.00336 0.00070 0.50115
 N19 N 0.01168 -0.04883 0.51798
 C20 C 0.11667 0.04146 0.48525
 N21 N 0.07074 0.04852 0.48700
 C22 C 0.07029 0.09279 0.47861
 C23 C 0.11729 0.13255 0.46812
 C24 C 0.16434 0.07973 0.47435
 C25 C -0.10865 -0.08285 0.49018
 C26 C -0.14995 -0.12257 0.47750
 C27 C -0.08192 -0.08197 0.45116
 C28 C -0.04244 -0.04285 0.46428
 N29 N -0.05592 -0.04451 0.48344
 H30 H 0.11636 0.00623 0.49216
 H31 H 0.03316 0.09727 0.48018
 H32 H 0.11584 0.16742 0.46156
 H33 H 0.20053 0.07360 0.47287
 H34 H -0.11791 -0.08395 0.50557
 H35 H -0.19109 -0.15331 0.48345
 H36 H -0.06879 -0.08001 0.43612
 H37 H -0.00004 -0.01274 0.45922
 C38 C 0.00731 -0.13105 0.54238
 C39 C -0.02170 0.12900 0.53831
 C40 C -0.13644 -0.12380 0.45768
 C41 C 0.16497 0.12617 0.46578
 C42 C 1.03703 -0.00236 0.13005
 H43 H 1.00627 0.00843 0.12496
 C44 C 1.07751 -0.00032 0.11705
 H45 H 1.07636 0.01090 0.10204
 C46 C 1.07786 -0.02660 0.15590
 H47 H 1.07878 -0.03490 0.17124
 C48 C 1.11916 -0.02540 0.14330
 H49 H 1.15136 -0.03350 0.14904
 N50 N 1.03823 -0.01464 0.14913
 C51 C 0.94368 0.06245 0.15205
 H52 H 0.97610 0.09764 0.16035
 C53 C 0.90423 0.06890 0.14091
 H54 H 0.90672 0.10937 0.14064
 C55 C 0.90048 -0.03329 0.14230
 H56 H 0.89950 -0.07299 0.14288
 C57 C 0.86011 -0.02897 0.13128
 H58 H 0.82839 -0.06571 0.12335
 Zn59 Zn 0.99023 -0.00450 0.16669
 N60 N 0.94123 0.01189 0.15236
 C61 C 1.07793 0.10527 0.17752
 N62 N 1.03822 0.05364 0.18428
 C63 C 1.03696 0.04013 0.20336
 C64 C 1.07745 0.07856 0.21637
 C65 C 1.11924 0.14535 0.19014
 C66 C 0.94352 -0.11809 0.18130
 C67 C 0.90406 -0.16401 0.19246
 C68 C 0.86012 -0.11017 0.20211
 C69 C 0.90048 -0.06547 0.19108
 N70 N 0.94115 -0.06995 0.18101
 H71 H 1.07890 0.11452 0.16219
 H72 H 1.00614 -0.00144 0.20844
 H73 H 1.07625 0.06616 0.23138
 H74 H 1.15150 0.18567 0.18442
 H75 H 0.97587 -0.12089 0.17299
 H76 H 0.90649 -0.20202 0.19271
 H77 H 0.82847 -0.10511 0.21006
 H78 H 0.89956 -0.02672 0.19051
 C79 C 0.86163 0.02260 0.13039
 C80 C 1.12001 -0.01082 0.12367
 C81 C 0.86157 -0.16026 0.20300
 C82 C 1.12002 0.13158 0.20977
 C83 C 0.07033 0.97686 0.85452
 H84 H 0.03335 0.93513 0.85287
 C85 C 0.11732 0.98422 0.86505
 H86 H 0.11602 0.94789 0.87154
 C87 C 0.11632 1.07471 0.84809
 H88 H 0.11585 1.10964 0.84126
 C89 C 0.16396 1.08423 0.85903
 H90 H 0.19997 1.12664 0.86061
 N91 N 0.07060 1.02159 0.84622
 C92 C -0.10866 0.97368 0.84289
 H93 H -0.11773 0.96591 0.82748
 C94 C -0.14999 0.97205 0.85556
 H95 H -0.19101 0.96213 0.84966
 C96 C -0.04282 0.99909 0.86890
 H97 H -0.00054 1.01111 0.87400
 C98 C -0.08239 0.99860 0.88199
 H99 H -0.06972 1.00941 0.89708
 Zn100 Zn 0.00327 1.00194 0.83202
 N101 N -0.05609 0.98772 0.84970
 C102 C -0.06239 0.88781 0.81713
 N103 N -0.01217 0.93785 0.81700
 C104 C 0.03317 0.94483 0.80633
 C105 C 0.02936 0.90071 0.79517
 C106 C -0.06833 0.84237 0.80592
 C107 C 0.02208 1.11007 0.82270
 C108 C 0.02080 1.15016 0.81064
 C109 C -0.00204 1.08605 0.78345
 C110 C 0.00018 1.04759 0.79593
 N111 N 0.01164 1.05986 0.81520
 H112 H -0.09762 0.88297 0.82597
 H113 H 0.07270 0.98498 0.80663
 H114 H 0.06625 0.90764 0.78682
 H115 H -0.10847 0.80276 0.80612
 H116 H 0.02943 1.11821 0.83817
 H117 H 0.02798 1.18940 0.81693
 H118 H -0.01234 1.07474 0.76824
 H119 H -0.00956 1.00702 0.79026
 C120 C -0.13659 0.98622 0.87538
 C121 C 0.16478 1.03840 0.86751
 C122 C 0.00751 1.13780 0.79078
 C123 C -0.02181 0.84857 0.79484
 C124 C 0.35519 0.01923 0.00438
 C125 C 0.36070 0.02295 -0.01550
 C126 C 0.41733 0.04071 -0.01959
 N127 N 0.44683 0.04885 -0.00288
 C128 C 0.40890 0.03579 0.01183
 C129 C 0.44119 0.05093 -0.03846
 C130 C 0.49437 0.05562 -0.04272
 C131 C 0.52344 0.07465 -0.06021
 C132 C 0.57064 0.06862 -0.05911
 C133 C 0.56906 0.04600 -0.04097
 N134 N 0.52242 0.03822 -0.03108
 C135 C 0.60859 0.03076 -0.03431
 C136 C 0.61460 0.02231 -0.01435
 C137 C 0.64712 0.00076 -0.00704
 C138 C 0.64547 0.00409 0.01287
 C139 C 0.61101 0.02640 0.01712
 N140 N 0.59253 0.03789 0.00048
 C141 C 0.60014 0.03917 0.03603
 C142 C 0.55669 0.05140 0.04026
 C143 C 0.54949 0.07116 0.05807
 C144 C 0.49894 0.07122 0.05697
 C145 C 0.47666 0.05141 0.03854
 N146 N 0.51217 0.03955 0.02846
 C147 C 0.42301 0.04112 0.03187
 H148 H 0.31582 0.00540 0.01230
 H149 H 0.32664 0.01278 -0.02579
 H150 H 0.50270 0.01769 0.01530
 H151 H 0.51166 0.09081 -0.07255
 H152 H 0.60247 0.07977 -0.07039
 H153 H 0.66980 -0.01572 -0.01510
 H154 H 0.66706 -0.00870 0.02303
 H155 H 0.48047 0.08387 0.06851
 H156 H 0.50711 0.01632 -0.01811
 H157 H 0.57704 0.08302 0.07070
 C158 C -0.00610 0.34789 0.67369
 C159 C -0.00778 0.34894 0.65375
 C160 C -0.02655 0.38566 0.64901
 N161 N -0.03742 0.40621 0.66539
 C162 C -0.02489 0.38323 0.68053
 C163 C -0.03691 0.39673 0.62987
 C164 C -0.04712 0.44065 0.62522
 C165 C -0.06644 0.44723 0.60732
 C166 C -0.06521 0.49776 0.60809
 C167 C -0.04479 0.52084 0.62640
 N168 N -0.03392 0.48572 0.63673
 C169 C -0.03347 0.57453 0.63274
 C170 C -0.02532 0.59104 0.65261
 C171 C -0.00665 0.64516 0.65945
 C172 C -0.00828 0.64244 0.67939
 C173 C -0.02690 0.58698 0.68413
 N174 N -0.03773 0.55554 0.66775
 C175 C -0.03712 0.56557 0.70327
 C176 C -0.04715 0.51149 0.70792
 C177 C -0.06640 0.48556 0.72582
 C178 C -0.06501 0.43635 0.72505
 C179 C -0.04455 0.43378 0.70674
 N180 N -0.03383 0.47973 0.69642
 C181 C -0.03309 0.39151 0.70040
 H182 H 0.00756 0.32379 0.68210
 H183 H 0.00357 0.32531 0.64391
 H184 H -0.01192 0.49219 0.68327
 H185 H -0.07921 0.41905 0.59488
 H186 H -0.07749 0.51561 0.59641
 H187 H 0.00690 0.68291 0.65104
 H188 H 0.00304 0.67744 0.68923
 H189 H -0.07720 0.40623 0.73673
 H190 H -0.01200 0.49526 0.64988
 H191 H -0.07924 0.50090 0.73826
 C192 C 0.35537 0.33666 0.32916
 C193 C 0.36095 0.33846 0.34904
 C194 C 0.41761 0.37733 0.35311
 N195 N 0.44707 0.39869 0.33640
 C196 C 0.40908 0.37382 0.32170
 C197 C 0.44154 0.39093 0.37198
 C198 C 0.49476 0.43942 0.37623
 C199 C 0.52389 0.44944 0.39371
 C200 C 0.57116 0.50266 0.39261
 C201 C 0.56956 0.52376 0.37449
 N202 N 0.52283 0.48491 0.36460
 C203 C 0.60915 0.57855 0.36783
 C204 C 0.61507 0.59303 0.34786
 C205 C 0.64761 0.64714 0.34056
 C206 C 0.64589 0.64217 0.32065
 C207 C 0.61135 0.58537 0.31640
 N208 N 0.59290 0.55538 0.33303
 C209 C 0.60039 0.56172 0.29748
 C210 C 0.55690 0.50601 0.29325
 C211 C 0.54963 0.47901 0.27545
 C212 C 0.49905 0.42839 0.27655
 C213 C 0.47681 0.42595 0.29498
 N214 N 0.51238 0.47334 0.30506
 C215 C 0.42313 0.38259 0.30165
 H216 H 0.31597 0.31115 0.32124
 H217 H 0.32692 0.31457 0.35934
 H218 H 0.50296 0.48577 0.31822
 H219 H 0.51210 0.42146 0.40605
 H220 H 0.60305 0.52330 0.40388
 H221 H 0.67035 0.68631 0.34863
 H222 H 0.66749 0.67657 0.31050
 H223 H 0.48052 0.39724 0.26501
 H224 H 0.50750 0.49154 0.35164
 H225 H 0.57716 0.49468 0.26281
 C226 C -0.03096 0.24950 0.57345
 N227 N -0.07937 0.20530 0.56594
 N228 N -0.07667 0.16734 0.55449
 C229 C -0.02549 0.17202 0.55024
 N230 N 0.02273 0.21655 0.55767
 N231 N 0.02008 0.25451 0.56902
 C232 C -0.03322 0.28989 0.58698
 N233 N 0.01599 0.33382 0.59410
 N234 N 0.01469 0.36871 0.60734
 C235 C -0.03591 0.36092 0.61395
 N236 N -0.08524 0.31733 0.60673
 N237 N -0.08392 0.28244 0.59344
 C238 C 0.74358 0.71085 0.23928
 N239 N 0.78987 0.70956 0.23238
 N240 N 0.82693 0.74975 0.22049
 C241 C 0.81917 0.79282 0.21517
 N242 N 0.77249 0.79350 0.22196
 N243 N 0.73545 0.75336 0.23374
 C244 C 0.70439 0.66920 0.25337
 N245 N 0.65875 0.67192 0.26007
 N246 N 0.62491 0.63681 0.27378
 C247 C 0.63555 0.59771 0.28131
 N248 N 0.68086 0.59451 0.27453
 N249 N 0.71471 0.62965 0.26077
 C250 C 0.29745 0.05532 -0.09682
 N251 N 0.28637 0.09803 -0.09816
 N252 N 0.24544 0.09364 -0.11000
 C253 C 0.21372 0.04610 -0.12075
 N254 N 0.22532 0.00375 -0.11951
 N255 N 0.26652 0.00835 -0.10785
 C256 C 0.33898 0.05762 -0.08267
 N257 N 0.35514 0.01839 -0.08322
 N258 N 0.38912 0.01737 -0.06950
 C259 C 0.40780 0.05530 -0.05462
 N260 N 0.39200 0.09481 -0.05411
 N261 N 0.35837 0.09609 -0.06794
 C262 C -0.01415 0.73842 0.57906
 N263 N 0.01373 0.74727 0.56180
 N264 N 0.02067 0.78868 0.55008
 C265 C 0.00047 0.82309 0.55528
 N266 N -0.02730 0.81406 0.57256
 N267 N -0.03453 0.77256 0.58419
 C268 C -0.02132 0.69367 0.59230
 N269 N -0.05431 0.68197 0.60846
 N270 N -0.05918 0.64327 0.62104
 C271 C -0.03093 0.61498 0.61802
 N272 N 0.00152 0.62615 0.60171
 N273 N 0.00616 0.66472 0.58905
 C274 C 0.25255 0.23960 0.24760
 N275 N 0.24421 0.25939 0.23061
 N276 N 0.20205 0.22533 0.21856
 C277 C 0.16633 0.17035 0.22314
 N278 N 0.17479 0.15087 0.24018
 N279 N 0.21705 0.18474 0.25214
 C280 C 0.29847 0.27667 0.26109
 N281 N 0.30999 0.25483 0.27690
 N282 N 0.35023 0.28827 0.28958
 C283 C 0.38024 0.34491 0.28702
 N284 N 0.36914 0.36669 0.27106
 N285 N 0.32907 0.33319 0.25831
 C286 C 0.75370 0.00408 -0.08743
 N287 N 0.73683 -0.01616 -0.10580
 N288 N 0.77195 -0.02251 -0.11780
 C289 C 0.82509 -0.00941 -0.11185
 N290 N 0.84132 0.01020 -0.09336
 N291 N 0.80649 0.01696 -0.08143
 C292 C 0.71602 0.01231 -0.07413
 N293 N 0.73721 0.04170 -0.05728
 N294 N 0.70333 0.04842 -0.04487
 C295 C 0.64678 0.02556 -0.04871
 N296 N 0.62567 -0.00339 -0.06569
 N297 N 0.65971 -0.00974 -0.07820
 C298 C 0.25253 0.01366 0.08590
 N299 N 0.21708 0.03302 0.08133
 N300 N 0.17482 0.02465 0.09328
 C301 C 0.16631 -0.00330 0.11032
 N302 N 0.20197 -0.02257 0.11492
 N303 N 0.24415 -0.01447 0.10289
 C304 C 0.29846 0.02250 0.07243
 N305 N 0.32897 -0.00347 0.07521
 N306 N 0.36902 0.00307 0.06247
 C307 C 0.38018 0.03598 0.04651
 N308 N 0.35027 0.06268 0.04394
 N309 N 0.31005 0.05590 0.05662
 C310 C 0.75480 0.75031 0.42092
 N311 N 0.73833 0.75329 0.43938
 N312 N 0.77360 0.79470 0.45138
 C313 C 0.82658 0.83514 0.44538
 N314 N 0.84229 0.83213 0.42676
 N315 N 0.80732 0.79059 0.41483
 C316 C 0.71700 0.70442 0.40762
 N317 N 0.73799 0.69632 0.39072
 N318 N 0.70399 0.65572 0.37831
 C319 C 0.64749 0.62193 0.38221
 N320 N 0.62657 0.62966 0.39925
 N321 N 0.66074 0.67004 0.41176
 C322 C -0.01381 0.24691 0.75408
 N323 N -0.03402 0.19242 0.74891
 N324 N -0.02680 0.15815 0.76055
 C325 C 0.00076 0.17685 0.77787
 N326 N 0.02079 0.23144 0.78310
 N327 N 0.01388 0.26591 0.77137
 C328 C -0.02098 0.28449 0.74083
 N329 N 0.00640 0.34093 0.74411
 N330 N 0.00179 0.37487 0.73146
 C331 C -0.03054 0.35359 0.71511
 N332 N -0.05869 0.29704 0.71206
 N333 N -0.05385 0.26319 0.72464
 C334 C 0.74352 0.03345 0.09418
 N335 N 0.73525 -0.01721 0.09978
 N336 N 0.77234 -0.02028 0.11154
 C337 C 0.81920 0.02711 0.11824
 N338 N 0.82710 0.07796 0.11286
 N339 N 0.79000 0.08107 0.10100
 C340 C 0.70429 0.03588 0.08011
 N341 N 0.71480 0.08572 0.07262
 N342 N 0.68091 0.08696 0.05887
 C343 C 0.63535 0.03842 0.05220
 N344 N 0.62451 -0.01129 0.05981
 N345 N 0.65840 -0.01252 0.07351
 C346 C 0.29781 0.24240 0.43026
 N347 N 0.26661 0.25822 0.44121
 N348 N 0.22534 0.22148 0.45283
 C349 C 0.21395 0.16759 0.45410
 N350 N 0.24595 0.15199 0.44342
 N351 N 0.28693 0.18867 0.43163
 C352 C 0.33939 0.28177 0.41614
 N353 N 0.35902 0.26283 0.40145
 N354 N 0.39264 0.29784 0.38764
 C355 C 0.40820 0.35310 0.38813
 N356 N 0.38930 0.37222 0.40297
 N357 N 0.35532 0.33712 0.41668
 C358 C -0.03117 0.71876 0.75969
 N359 N -0.07958 0.71463 0.76713
 N360 N -0.07685 0.75531 0.77858
 C361 C -0.02564 0.80174 0.78289
 N362 N 0.02258 0.80536 0.77552
 N363 N 0.01990 0.76474 0.76418
 C364 C -0.03344 0.67609 0.74616
 N365 N 0.01577 0.68129 0.73910
 N366 N 0.01446 0.64510 0.72586
 C367 C -0.03614 0.60235 0.71920
 N368 N -0.08547 0.59669 0.72635
 N369 N -0.08414 0.63291 0.73964
   
