data_POSCAR
  _audit_creation_date              2014-09-24
  _audit_creation_method            'ToBaCCo'
  _symmetry_space_group_name_H-M    'P1'
  _symmetry_Int_Tables_number       1
  _symmetry_cell_setting            triclinic
  loop_
  _symmetry_equiv_pos_as_xyz
 x,y,z
_cell_length_a 16.5051
_cell_length_b 15.4773
_cell_length_c 15.6218
_cell_angle_alpha 90.801000
_cell_angle_beta 90.117500
_cell_angle_gamma 90.067700
loop_
  _atom_site_label
  _atom_site_type_symbol
  _atom_site_fract_x
  _atom_site_fract_y
  _atom_site_fract_z
C1 C 0.42785 0.99849 -0.54847
 C2 C 0.42755 1.00514 -0.45717
 C3 C 0.50295 1.00433 -0.41442
 C4 C 0.57920 0.99873 -0.45539
 C5 C 0.57974 1.00174 -0.54705
 C6 C 0.50400 1.00000 -0.58968
 H7 H 0.50464 1.00044 -0.65884
 H8 H 0.50181 1.00813 -0.34538
 C9 C -0.57656 1.45988 0.00238
 C10 C -0.57259 1.55151 -0.00030
 C11 C -0.49534 1.59004 0.00488
 C12 C -0.42229 1.54319 0.00302
 C13 C -0.42649 1.45176 -0.00458
 C14 C -0.50356 1.41331 -0.00163
 H15 H -0.50772 1.34392 -0.00053
 H16 H -0.49134 1.65966 0.01022
 C17 C 0.02511 0.53095 0.57795
 C18 C -0.02812 0.46007 0.58025
 C19 C -0.07002 0.43577 0.50594
 C20 C -0.04688 0.46818 0.42686
 C21 C 0.00707 0.53794 0.42502
 C22 C 0.04900 0.56215 0.49868
 H23 H 0.08903 0.61774 0.49621
 H24 H -0.10900 0.37934 0.50743
 O25 O -0.20531 0.99746 -0.12226
 O26 O 0.21162 1.00132 -0.11750
 O27 O -0.00244 1.11777 -0.21678
 O28 O 0.01265 0.88089 -0.21917
 O29 O 0.00867 0.77824 -0.11378
 O30 O -0.00334 1.22085 -0.10886
 O31 O 0.11162 1.00233 -0.22156
 O32 O -0.10383 0.99773 -0.22428
 Zr33 Zr 0.00343 0.99958 -0.15084
 O34 O 0.07807 0.92363 -0.07774
 O35 O -0.07228 1.07591 -0.07751
 C36 C -0.17921 0.99780 -0.20126
 C37 C 0.18657 1.00185 -0.19702
 C38 C -0.00534 1.19667 -0.18789
 C39 C 0.01397 0.80208 -0.19192
 H40 H 0.10925 1.11667 -0.11097
 O41 O 0.07566 1.07823 -0.07554
 H42 H -0.10320 0.88259 -0.11665
 O43 O -0.07025 0.92116 -0.07946
 O44 O 0.21003 1.00457 0.12121
 O45 O -0.20734 0.99548 0.11705
 O46 O 0.10658 1.22384 0.00840
 O47 O 0.11230 0.77975 -0.00466
 O48 O -0.10286 0.77638 0.00050
 O49 O -0.10744 1.22032 -0.00151
 O50 O -0.00221 1.11765 0.22080
 O51 O -0.00224 0.88193 0.21673
 O52 O -0.00115 1.22072 0.11574
 O53 O 0.00143 0.77881 0.10905
 O54 O 0.20926 1.12269 0.00595
 O55 O -0.20748 1.11587 -0.00663
 O56 O -0.20533 0.87773 -0.00058
 O57 O 0.21231 0.88426 -0.00289
 O58 O 0.10885 1.00252 0.22357
 O59 O -0.10736 0.99795 0.22126
 Zr60 Zr 0.14694 1.00245 0.00144
 Zr61 Zr -0.14263 0.99740 -0.00203
 Zr62 Zr 0.00046 1.14905 0.00226
 Zr63 Zr 0.00388 0.85079 -0.00169
 Zr64 Zr 0.00100 1.00009 0.15076
 O65 O -0.07201 0.92138 0.07606
 O66 O 0.07537 1.07905 0.08020
 C67 C 0.18418 1.00398 0.20026
 C68 C -0.18229 0.99636 0.19667
 C69 C 0.18199 1.20160 0.00879
 C70 C 0.18713 0.80449 -0.00514
 C71 C -0.17829 0.79886 0.00121
 C72 C -0.18212 1.19561 -0.00590
 C73 C -0.00409 1.19649 0.19409
 C74 C -0.00151 0.80298 0.18794
 H75 H -0.10904 1.11230 0.11253
 O76 O -0.07339 1.07539 0.07688
 H77 H 0.11063 0.88711 0.11318
 O78 O 0.07644 0.92428 0.07702
 C79 C 0.23867 1.04624 0.36003
 C80 C 0.26959 0.96252 0.40367
 C81 C 0.35753 0.99553 0.39513
 C82 C 0.32732 1.07851 0.35170
 C83 C 0.36327 0.94999 0.30575
 C84 C 0.27519 0.91835 0.31411
 C85 C 0.24610 1.00179 0.27145
 C86 C 0.33369 1.03352 0.26277
 H87 H 0.18678 1.08643 0.38179
 H88 H 0.24190 0.92875 0.45844
 H89 H 0.34801 1.14519 0.36726
 H90 H 0.41235 0.90732 0.28131
 H91 H 0.25386 0.85211 0.29766
 H92 H 0.36063 1.06250 0.20477
 C93 C -0.33443 0.97867 0.25880
 C94 C -0.33033 0.92366 0.34078
 C95 C -0.35023 1.00425 0.39645
 C96 C -0.35365 1.05971 0.31409
 C97 C -0.25901 1.02521 0.40544
 C98 C -0.23873 0.94401 0.34969
 C99 C -0.24385 0.99850 0.26799
 C100 C -0.26244 1.07949 0.32277
 H101 H -0.36596 0.95973 0.19856
 H102 H -0.35747 0.85852 0.34811
 H103 H -0.39959 1.10949 0.29851
 H104 H -0.22472 1.04953 0.46168
 H105 H -0.19107 0.89582 0.36412
 H106 H -0.23446 1.14412 0.31443
 C107 C -0.32638 1.03372 -0.26545
 C108 C -0.31665 1.07589 -0.35421
 C109 C -0.35099 0.99378 -0.39828
 C110 C -0.36010 0.95095 -0.30899
 C111 C -0.26498 0.95510 -0.40571
 C112 C -0.22991 1.03795 -0.36146
 C113 C -0.24069 0.99633 -0.27305
 C114 C -0.27390 0.91370 -0.31631
 H115 H -0.35225 1.06577 -0.20768
 H116 H -0.33324 1.14335 -0.36986
 H117 H -0.41162 0.91193 -0.28508
 H118 H -0.23855 0.91897 -0.46067
 H119 H -0.17558 1.07415 -0.38259
 H120 H -0.25646 0.84670 -0.29981
 C121 C 0.33837 0.98227 -0.26031
 C122 C 0.33269 0.92846 -0.34440
 C123 C 0.35394 1.00924 -0.39705
 C124 C 0.35904 1.06347 -0.31255
 C125 C 0.26311 1.03214 -0.40448
 C126 C 0.24153 0.95074 -0.35191
 C127 C 0.24816 1.00418 -0.26817
 C128 C 0.26819 1.08536 -0.31981
 H129 H 0.36981 0.96193 -0.20104
 H130 H 0.35853 0.86295 -0.35462
 H131 H 0.40605 1.11212 -0.29538
 H132 H 0.22936 1.05751 -0.45996
 H133 H 0.19288 0.90353 -0.36777
 H134 H 0.24178 1.15048 -0.30868
 C135 C 0.23640 1.35336 -0.04818
 C136 C 0.25713 1.41346 0.02936
 C137 C 0.34818 1.40308 0.00893
 C138 C 0.32765 1.34315 -0.06801
 C139 C 0.35167 1.32323 0.06800
 C140 C 0.26063 1.33313 0.08750
 C141 C 0.24171 1.27422 0.01011
 C142 C 0.33201 1.26369 -0.00941
 H143 H 0.18838 1.36508 -0.09652
 H144 H 0.22291 1.47150 0.04956
 H145 H 0.35467 1.34739 -0.13285
 H146 H 0.39838 1.31042 0.11749
 H147 H 0.23308 1.32777 0.15195
 H148 H 0.36319 1.20198 -0.02512
 C149 C 0.23736 0.64469 0.03403
 C150 C 0.27479 0.60126 -0.04719
 C151 C 0.35936 0.60969 -0.00571
 C152 C 0.32280 0.65272 0.07481
 C153 C 0.36961 0.69992 -0.04709
 C154 C 0.28459 0.69176 -0.08727
 C155 C 0.24900 0.73404 -0.00628
 C156 C 0.33333 0.74264 0.03407
 H157 H 0.18185 0.62342 0.06786
 H158 H 0.25019 0.54514 -0.08373
 H159 H 0.33786 0.63620 0.14191
 H160 H 0.42237 0.72468 -0.08336
 H161 H 0.26874 0.70901 -0.15399
 H162 H 0.35762 0.80118 0.06708
 C163 C -0.33031 0.73900 -0.00564
 C164 C -0.33292 0.66171 -0.06924
 C165 C -0.34644 0.59930 0.00585
 C166 C -0.34307 0.67690 0.06969
 C167 C -0.25398 0.58732 0.01521
 C168 C -0.24031 0.64995 -0.06019
 C169 C -0.23861 0.72682 0.00319
 C170 C -0.25060 0.66538 0.07851
 H171 H -0.36205 0.80149 -0.01417
 H172 H -0.36645 0.66016 -0.13093
 H173 H -0.38465 0.68822 0.12449
 H174 H -0.21787 0.52904 0.02750
 H175 H -0.19759 0.63938 -0.11410
 H176 H -0.21625 0.66786 0.13970
 C177 C -0.22915 1.36030 0.02047
 C178 C -0.27466 1.39217 -0.06048
 C179 C -0.35487 1.38959 -0.01005
 C180 C -0.31017 1.35823 0.07040
 C181 C -0.36767 1.29406 -0.03988
 C182 C -0.28712 1.29676 -0.08926
 C183 C -0.24364 1.26607 -0.00840
 C184 C -0.32341 1.26327 0.04118
 H185 H -0.17065 1.38569 0.04547
 H186 H -0.25439 1.44439 -0.10346
 H187 H -0.31888 1.38413 0.13635
 H188 H -0.42164 1.26213 -0.06872
 H189 H -0.27743 1.27034 -0.15489
 H190 H -0.34366 1.20977 0.08267
 C191 C -0.03358 1.26031 0.35222
 C192 C 0.02762 1.33436 0.36806
 C193 C -0.04141 1.40098 0.35775
 C194 C -0.10256 1.32711 0.34231
 C195 C -0.02366 1.40679 0.26149
 C196 C 0.04505 1.33993 0.27141
 C197 C -0.01610 1.26689 0.25648
 C198 C -0.08500 1.33253 0.24540
 H199 H -0.03679 1.19947 0.38885
 H200 H 0.07456 1.33610 0.41912
 H201 H -0.16418 1.32265 0.37025
 H202 H -0.01957 1.46370 0.21996
 H203 H 0.10623 1.34368 0.24240
 H204 H -0.13157 1.33001 0.19405
 C205 C -0.07644 1.27526 -0.31825
 C206 C -0.08769 1.37155 -0.29257
 C207 C -0.02111 1.39623 -0.35597
 C208 C -0.00958 1.30015 -0.38241
 C209 C 0.04506 1.38761 -0.28716
 C210 C -0.02174 1.36244 -0.22257
 C211 C -0.01083 1.26719 -0.24953
 C212 C 0.05591 1.29136 -0.31265
 H213 H -0.12570 1.22776 -0.33050
 H214 H -0.14633 1.40567 -0.28422
 H215 H -0.00390 1.27363 -0.44851
 H216 H 0.09541 1.43359 -0.27416
 H217 H -0.02669 1.38697 -0.15564
 H218 H 0.11445 1.25693 -0.32037
 C219 C 0.07377 0.65084 -0.23871
 C220 C 0.00066 0.59149 -0.26073
 C221 C 0.02575 0.59397 -0.35533
 C222 C 0.09859 0.65284 -0.33412
 C223 C -0.02835 0.67425 -0.36912
 C224 C -0.05269 0.67211 -0.27420
 C225 C 0.02007 0.73034 -0.25371
 C226 C 0.04457 0.73337 -0.34779
 H227 H 0.11606 0.64278 -0.18402
 H228 H -0.01892 0.53644 -0.22157
 H229 H 0.16133 0.64370 -0.35804
 H230 H -0.07212 0.68293 -0.42235
 H231 H -0.11512 0.68198 -0.24964
 H232 H 0.06190 0.79239 -0.38295
 C233 C 0.00398 0.63656 0.22337
 C234 C 0.06971 0.62407 0.29291
 C235 C 0.00239 0.60423 0.35709
 C236 C -0.06362 0.61627 0.28877
 C237 C -0.00367 0.70104 0.38263
 C238 C 0.06396 0.72098 0.31784
 C239 C -0.00150 0.73254 0.24958
 C240 C -0.06906 0.71329 0.31336
 H241 H 0.00700 0.61121 0.15660
 H242 H 0.12625 0.58612 0.28463
 H243 H -0.11630 0.57299 0.27717
 H244 H -0.00695 0.72900 0.44827
 H245 H 0.11571 0.76555 0.32942
 H246 H -0.12566 0.75124 0.32100
   
