data_POSCAR
  _audit_creation_date              2014-09-24
  _audit_creation_method            'ToBaCCo'
  _symmetry_space_group_name_H-M    'P1'
  _symmetry_Int_Tables_number       1
  _symmetry_cell_setting            triclinic
  loop_
  _symmetry_equiv_pos_as_xyz
 x,y,z
_cell_length_a 45.1523
_cell_length_b 36.1410
_cell_length_c 23.2404
_cell_angle_alpha 89.953400
_cell_angle_beta 89.962600
_cell_angle_gamma 90.047000
loop_
  _atom_site_label
  _atom_site_type_symbol
  _atom_site_fract_x
  _atom_site_fract_y
  _atom_site_fract_z
C1 C 0.69990 0.29633 0.55334
 C2 C 0.68775 0.30745 0.50085
 C3 C 0.70006 0.29621 0.44864
 C4 C 0.72527 0.27314 0.44818
 C5 C 0.73789 0.26158 0.50117
 C6 C 0.72517 0.27320 0.55409
 C7 C 0.73805 0.26140 0.60605
 C8 C 0.76291 0.23863 0.60612
 C9 C 0.77587 0.22678 0.55423
 C10 C 0.76325 0.23837 0.50123
 C11 C 0.73817 0.26136 0.39629
 C12 C 0.76304 0.23861 0.39631
 C13 C 0.77594 0.22677 0.44827
 C14 C 0.80120 0.20365 0.44891
 C15 C 0.81338 0.19245 0.50132
 C16 C 0.80112 0.20365 0.55368
 H17 H 0.72896 0.26971 0.64719
 H18 H 0.77194 0.23035 0.64732
 H19 H 0.72912 0.26967 0.35514
 H20 H 0.77211 0.23033 0.35515
 H21 H 0.66834 0.32522 0.50051
 H22 H 0.83279 0.17465 0.50138
 C23 C 0.19997 0.79614 0.55366
 C24 C 0.18772 0.80733 0.50135
 C25 C 0.19991 0.79613 0.44899
 C26 C 0.22511 0.77302 0.44835
 C27 C 0.23779 0.76142 0.50127
 C28 C 0.22518 0.77303 0.55423
 C29 C 0.23806 0.76124 0.60614
 C30 C 0.26292 0.73843 0.60612
 C31 C 0.27581 0.72658 0.55416
 C32 C 0.26312 0.73820 0.50123
 C33 C 0.23795 0.76123 0.39639
 C34 C 0.26281 0.73844 0.39633
 C35 C 0.27571 0.72662 0.44823
 C36 C 0.30090 0.70351 0.44869
 C37 C 0.31319 0.69225 0.50092
 C38 C 0.30105 0.70341 0.55342
 H39 H 0.22900 0.76958 0.64727
 H40 H 0.27199 0.73014 0.64727
 H41 H 0.22884 0.76956 0.35529
 H42 H 0.27185 0.73013 0.35517
 H43 H 0.16834 0.82511 0.50140
 H44 H 0.33258 0.67445 0.50059
 C45 C 0.19936 0.20389 -0.44955
 C46 C 0.18704 0.19263 -0.50174
 C47 C 0.19924 0.20369 -0.55427
 C48 C 0.22456 0.22677 -0.55514
 C49 C 0.23728 0.23841 -0.50228
 C50 C 0.22463 0.22692 -0.44922
 C51 C 0.23756 0.23874 -0.39738
 C52 C 0.26249 0.26145 -0.39755
 C53 C 0.27538 0.27316 -0.44956
 C54 C 0.26269 0.26157 -0.50245
 C55 C 0.23748 0.23852 -0.60716
 C56 C 0.26241 0.26125 -0.60732
 C57 C 0.27538 0.27310 -0.55547
 C58 C 0.30070 0.29619 -0.55494
 C59 C 0.31293 0.30736 -0.50254
 C60 C 0.30065 0.29619 -0.45022
 H61 H 0.22848 0.23049 -0.35619
 H62 H 0.27161 0.26978 -0.35647
 H63 H 0.22838 0.23020 -0.64826
 H64 H 0.27147 0.26948 -0.64854
 H65 H 0.16760 0.17489 -0.50134
 H66 H 0.33237 0.32510 -0.50236
 C67 C -0.20011 0.79665 -0.55302
 C68 C -0.18800 0.80776 -0.50051
 C69 C -0.20030 0.79638 -0.44832
 C70 C -0.22548 0.77319 -0.44797
 C71 C -0.23805 0.76165 -0.50101
 C72 C -0.22533 0.77341 -0.55387
 C73 C -0.23815 0.76162 -0.60589
 C74 C -0.26298 0.73874 -0.60606
 C75 C -0.27595 0.72675 -0.55422
 C76 C -0.26337 0.73832 -0.50117
 C77 C -0.23839 0.76126 -0.39613
 C78 C -0.26322 0.73839 -0.39626
 C79 C -0.27607 0.72659 -0.44826
 C80 C -0.30128 0.70335 -0.44900
 C81 C -0.31343 0.69218 -0.50144
 C82 C -0.30117 0.70350 -0.55376
 H83 H -0.22905 0.77003 -0.64699
 H84 H -0.27196 0.73048 -0.64729
 H85 H -0.22937 0.76955 -0.35495
 H86 H -0.27230 0.73000 -0.35512
 H87 H -0.16862 0.82561 -0.50012
 H88 H -0.33282 0.67430 -0.50153
 N89 N 0.03062 1.06616 -0.06137
 N90 N 0.05081 1.09154 -0.07340
 N91 N -0.03167 1.04016 -0.10064
 N92 N -0.05182 1.04702 -0.14027
 N93 N -0.03167 1.06618 -0.06120
 N94 N -0.05185 1.09154 -0.07307
 N95 N 0.03056 1.04013 -0.10079
 N96 N 0.05067 1.04699 -0.14056
 C97 C 0.06335 1.07876 -0.12241
 C98 C -0.06444 1.07877 -0.12199
 N99 N -0.03180 0.93452 -0.06100
 N100 N -0.05199 0.90913 -0.07285
 N101 N 0.03048 0.96050 -0.10061
 N102 N 0.05071 0.95368 -0.14015
 N103 N 0.03050 0.93450 -0.06106
 N104 N 0.05075 0.90921 -0.07275
 N105 N -0.03175 0.96053 -0.10051
 N106 N -0.05188 0.95364 -0.14018
 Mn107 Mn -0.00059 1.00033 -0.10110
 C108 C -0.06454 0.92188 -0.12186
 C109 C 0.06338 0.92199 -0.12171
 N110 N -0.03164 1.06622 0.06312
 N111 N -0.05176 1.09164 0.07510
 N112 N 0.03061 1.04017 0.10247
 N113 N 0.05083 1.04699 0.14199
 N114 N 0.03065 1.06617 0.06293
 N115 N 0.05093 1.09147 0.07460
 N116 N -0.03162 1.04021 0.10264
 N117 N -0.05170 1.04713 0.14242
 Mn118 Mn -0.00051 1.06660 0.00087
 C119 C -0.06431 1.07891 0.12417
 C120 C 0.06354 1.07869 0.12353
 N121 N 0.03052 0.93451 0.06321
 N122 N 0.05071 0.90915 0.07506
 N123 N -0.03171 0.96057 0.10275
 N124 N -0.05190 0.95376 0.14239
 N125 N -0.03178 0.93456 0.06330
 N126 N -0.05204 0.90926 0.07514
 N127 N 0.03053 0.96053 0.10264
 N128 N 0.05069 0.95367 0.14226
 Mn129 Mn -0.00064 0.93411 0.00111
 Mn130 Mn -0.00055 1.00037 0.10309
 Cl131 Cl -0.00057 1.00035 0.00100
 C132 C 0.06332 0.92192 0.12398
 C133 C -0.06462 0.92205 0.12409
 N134 N 0.46925 0.45989 0.10073
 N135 N 0.44907 0.45300 0.14038
 N136 N 0.53153 0.43394 0.06126
 N137 N 0.55174 0.40862 0.07309
 N138 N 0.53148 0.45994 0.10073
 N139 N 0.55164 0.45310 0.14035
 N140 N 0.46923 0.43390 0.06126
 N141 N 0.44901 0.40853 0.07311
 C142 C 0.43641 0.42126 0.12209
 C143 C 0.56431 0.42139 0.12204
 N144 N 0.53157 0.46001 -0.10253
 N145 N 0.55173 0.45316 -0.14220
 N146 N 0.46928 0.43396 -0.06303
 N147 N 0.44906 0.40862 -0.07486
 N148 N 0.46934 0.45999 -0.10251
 N149 N 0.44918 0.45316 -0.14214
 N150 N 0.53158 0.43398 -0.06304
 N151 N 0.55177 0.40863 -0.07490
 Mn152 Mn 0.50040 0.43353 -0.00089
 C153 C 0.56437 0.42141 -0.12390
 C154 C 0.43650 0.42142 -0.12382
 N155 N 0.53152 0.53957 0.10074
 N156 N 0.55161 0.54647 0.14048
 N157 N 0.46929 0.56556 0.06122
 N158 N 0.44909 0.59090 0.07305
 N159 N 0.46929 0.53953 0.10070
 N160 N 0.44912 0.54636 0.14033
 N161 N 0.53158 0.56560 0.06125
 N162 N 0.55174 0.59101 0.07320
 Mn163 Mn 0.50039 0.49973 0.10119
 C164 C 0.56427 0.57826 0.12223
 C165 C 0.43648 0.57810 0.12201
 N166 N 0.46936 0.53963 -0.10255
 N167 N 0.44922 0.54650 -0.14221
 N168 N 0.53162 0.56564 -0.06307
 N169 N 0.55180 0.59104 -0.07500
 N170 N 0.53159 0.53964 -0.10253
 N171 N 0.55172 0.54655 -0.14224
 N172 N 0.46933 0.56562 -0.06308
 N173 N 0.44914 0.59097 -0.07495
 Mn174 Mn 0.50047 0.49982 -0.10300
 Mn175 Mn 0.50046 0.56602 -0.00092
 Cl176 Cl 0.50043 0.49978 -0.00090
 C177 C 0.43657 0.57823 -0.12392
 C178 C 0.56437 0.57831 -0.12399
 C179 C 0.38946 0.34066 0.27464
 C180 C 0.37110 0.36203 0.31984
 C181 C 0.34464 0.33646 0.30758
 C182 C 0.36276 0.31481 0.26291
 C183 C 0.37806 0.36720 0.22797
 C184 C 0.35163 0.34165 0.21541
 C185 C 0.35992 0.38877 0.27271
 C186 C 0.33317 0.36299 0.26097
 C187 C 0.32723 0.32048 0.35466
 C188 C 0.31417 0.30852 0.39593
 C189 C 0.39775 0.38536 0.18650
 C190 C 0.41493 0.40127 0.15542
 H191 H 0.41280 0.33165 0.27988
 H192 H 0.37896 0.37028 0.36324
 H193 H 0.36370 0.28420 0.25940
 H194 H 0.34386 0.33348 0.17193
 H195 H 0.35895 0.41937 0.27635
 H196 H 0.30981 0.37197 0.25588
 C197 C -0.11168 0.84036 0.27520
 C198 C -0.12907 0.86164 0.32192
 C199 C -0.15623 0.83724 0.30970
 C200 C -0.13908 0.81567 0.26352
 C201 C -0.12292 0.86804 0.23002
 C202 C -0.15006 0.84366 0.21751
 C203 C -0.14009 0.88952 0.27627
 C204 C -0.16754 0.86492 0.26459
 C205 C -0.17357 0.82120 0.35677
 C206 C -0.18661 0.80914 0.39799
 C207 C -0.10327 0.88621 0.18852
 C208 C -0.08611 0.90211 0.15743
 H209 H -0.08850 0.83044 0.27916
 H210 H -0.12060 0.86889 0.36530
 H211 H -0.13889 0.78511 0.25882
 H212 H -0.15844 0.83649 0.17404
 H213 H -0.14031 0.92007 0.28111
 H214 H -0.19073 0.87480 0.26077
 C215 C 0.63933 0.61091 0.27488
 C216 C 0.66676 0.63560 0.26337
 C217 C 0.65532 0.66318 0.30847
 C218 C 0.62817 0.63869 0.32051
 C219 C 0.62220 0.63241 0.22857
 C220 C 0.61083 0.66000 0.27373
 C221 C 0.64933 0.65688 0.21623
 C222 C 0.63822 0.68477 0.26222
 C223 C 0.67256 0.67918 0.35568
 C224 C 0.68549 0.69116 0.39704
 C225 C 0.60267 0.61423 0.18692
 C226 C 0.58562 0.59829 0.15571
 H227 H 0.63959 0.58035 0.27970
 H228 H 0.68996 0.62577 0.25964
 H229 H 0.61962 0.63135 0.36384
 H230 H 0.58764 0.66985 0.27760
 H231 H 0.65779 0.66414 0.17281
 H232 H 0.63799 0.71534 0.25755
 C233 C 0.11061 1.15965 0.27508
 C234 C 0.12855 1.13827 0.32092
 C235 C 0.15532 1.16333 0.30856
 C236 C 0.13762 1.18499 0.26325
 C237 C 0.12194 1.13263 0.22905
 C238 C 0.14869 1.15767 0.21640
 C239 C 0.13966 1.11106 0.27443
 C240 C 0.16672 1.13632 0.26261
 C241 C 0.17269 1.17931 0.35557
 C242 C 0.18574 1.19130 0.39675
 C243 C 0.10226 1.11450 0.18767
 C244 C 0.08506 1.09862 0.15670
 H245 H 0.08734 1.16906 0.27981
 H246 H 0.12042 1.13044 0.36435
 H247 H 0.13701 1.21559 0.25919
 H248 H 0.15673 1.16543 0.17288
 H249 H 0.14030 1.08047 0.27863
 H250 H 0.19000 1.12694 0.25802
 C251 C 0.63872 0.38880 -0.27767
 C252 C 0.66694 0.36565 -0.26597
 C253 C 0.65597 0.33669 -0.30939
 C254 C 0.62803 0.35964 -0.32161
 C255 C 0.62260 0.36741 -0.22981
 C256 C 0.61169 0.33845 -0.27329
 C257 C 0.65052 0.34449 -0.21729
 C258 C 0.63988 0.31521 -0.26160
 C259 C 0.67335 0.32071 -0.35642
 C260 C 0.68641 0.30871 -0.39763
 C261 C 0.60295 0.38555 -0.18834
 C262 C 0.58580 0.40145 -0.15725
 H263 H 0.63805 0.41924 -0.28389
 H264 H 0.68987 0.37664 -0.26348
 H265 H 0.61893 0.36574 -0.36496
 H266 H 0.58877 0.32743 -0.27590
 H267 H 0.65953 0.33847 -0.17386
 H268 H 0.64058 0.28475 -0.25552
 C269 C 0.14863 0.84319 -0.21435
 C270 C 0.13763 0.81565 -0.26096
 C271 C 0.15527 0.83727 -0.30648
 C272 C 0.16661 0.86449 -0.26077
 C273 C 0.12182 0.86804 -0.22712
 C274 C 0.13949 0.88956 -0.27271
 C275 C 0.11056 0.84081 -0.27290
 C276 C 0.12844 0.86214 -0.31896
 C277 C 0.17269 0.82124 -0.35340
 C278 C 0.18578 0.80920 -0.39449
 C279 C 0.10211 0.88619 -0.18581
 C280 C 0.08490 0.90207 -0.15488
 H281 H 0.15669 0.83562 -0.17079
 H282 H 0.13708 0.78507 -0.25666
 H283 H 0.18987 0.87401 -0.25631
 H284 H 0.14006 0.92014 -0.27714
 H285 H 0.08730 0.83126 -0.27750
 H286 H 0.12029 0.86979 -0.36243
 C287 C 0.36264 0.61096 -0.27818
 C288 C 0.33413 0.63354 -0.26650
 C289 C 0.34497 0.66300 -0.30933
 C290 C 0.37320 0.64062 -0.32154
 C291 C 0.37834 0.63226 -0.22979
 C292 C 0.38911 0.66173 -0.27268
 C293 C 0.35012 0.65462 -0.21729
 C294 C 0.36063 0.68440 -0.26101
 C295 C 0.32759 0.67901 -0.35635
 C296 C 0.31454 0.69102 -0.39755
 C297 C 0.39799 0.61410 -0.18834
 C298 C 0.41513 0.59820 -0.15727
 H299 H 0.36367 0.58058 -0.28487
 H300 H 0.31132 0.62215 -0.26448
 H301 H 0.38254 0.63500 -0.36486
 H302 H 0.41192 0.67314 -0.27482
 H303 H 0.34087 0.66016 -0.17388
 H304 H 0.35957 0.71479 -0.25447
 C305 C -0.13535 1.11209 -0.28024
 C306 C -0.16547 1.13136 -0.26964
 C307 C -0.15541 1.16343 -0.30846
 C308 C -0.12556 1.14434 -0.31958
 C309 C -0.12237 1.13281 -0.22834
 C310 C -0.11236 1.16488 -0.26721
 C311 C -0.15221 1.15186 -0.21692
 C312 C -0.14248 1.18427 -0.25663
 C313 C -0.17260 1.17936 -0.35577
 C314 C -0.18552 1.19130 -0.39716
 C315 C -0.10287 1.11469 -0.18662
 C316 C -0.08581 1.09878 -0.15540
 H317 H -0.13222 1.08222 -0.28956
 H318 H -0.18751 1.11777 -0.27118
 H319 H -0.11476 1.14139 -0.36226
 H320 H -0.09032 1.17849 -0.26578
 H321 H -0.16293 1.15474 -0.17417
 H322 H -0.14565 1.21415 -0.24748
 C323 C 0.64968 0.65629 -0.21882
 C324 C 0.66657 0.63496 -0.26663
 C325 C 0.65517 0.66300 -0.31112
 C326 C 0.63862 0.68465 -0.26421
 C327 C 0.62220 0.63240 -0.23074
 C328 C 0.61088 0.66044 -0.27529
 C329 C 0.63878 0.61084 -0.27772
 C330 C 0.62768 0.63908 -0.32275
 C331 C 0.67235 0.67893 -0.35852
 C332 C 0.68528 0.69091 -0.39991
 C333 C 0.60274 0.61428 -0.18886
 C334 C 0.58571 0.59836 -0.15751
 H335 H 0.65849 0.66315 -0.17554
 H336 H 0.68968 0.62469 -0.26362
 H337 H 0.63878 0.71519 -0.25921
 H338 H 0.58778 0.67073 -0.27844
 H339 H 0.63866 0.58031 -0.28286
 H340 H 0.61878 0.63214 -0.36594
 C341 C 0.14837 1.15745 -0.21678
 C342 C 0.16614 1.13601 -0.26324
 C343 C 0.15473 1.16314 -0.30905
 C344 C 0.13729 1.18490 -0.26348
 C345 C 0.12145 1.13263 -0.22900
 C346 C 0.11011 1.15978 -0.27487
 C347 C 0.13891 1.11096 -0.27464
 C348 C 0.12779 1.13831 -0.32098
 C349 C 0.17208 1.17903 -0.35628
 C350 C 0.18515 1.19096 -0.39755
 C351 C 0.10186 1.11459 -0.18726
 C352 C 0.08475 1.09873 -0.15596
 H353 H 0.15660 1.16511 -0.17339
 H354 H 0.18939 1.12643 -0.25899
 H355 H 0.13685 1.21550 -0.25942
 H356 H 0.08687 1.16938 -0.27926
 H357 H 0.13939 1.08037 -0.27883
 H358 H 0.11947 1.13056 -0.36428
 C359 C 0.38954 0.33926 -0.27434
 C360 C 0.36163 0.31538 -0.26294
 C361 C 0.34522 0.33705 -0.31003
 C362 C 0.37288 0.36064 -0.32197
 C363 C 0.37841 0.36756 -0.23005
 C364 C 0.36197 0.38914 -0.27720
 C365 C 0.35077 0.34400 -0.21781
 C366 C 0.33402 0.36535 -0.26579
 C367 C 0.32792 0.32116 -0.35719
 C368 C 0.31487 0.30920 -0.39838
 C369 C 0.39797 0.38561 -0.18838
 C370 C 0.41508 0.40147 -0.15719
 H371 H 0.41257 0.32871 -0.27745
 H372 H 0.36127 0.28486 -0.25762
 H373 H 0.38182 0.36735 -0.36526
 H374 H 0.36230 0.41966 -0.28266
 H375 H 0.34192 0.33737 -0.17443
 H376 H 0.31099 0.37587 -0.26281
 C377 C -0.11147 0.83961 -0.27243
 C378 C -0.13932 0.81564 -0.26093
 C379 C -0.15582 0.83726 -0.30796
 C380 C -0.12822 0.86094 -0.31999
 C381 C -0.12261 0.86787 -0.22808
 C382 C -0.13914 0.88940 -0.27517
 C383 C -0.15019 0.84422 -0.21575
 C384 C -0.16703 0.86553 -0.26367
 C385 C -0.17314 0.82133 -0.35511
 C386 C -0.18617 0.80935 -0.39634
 C387 C -0.10303 0.88598 -0.18645
 C388 C -0.08594 0.90188 -0.15526
 H389 H -0.08842 0.82912 -0.27564
 H390 H -0.13962 0.78512 -0.25562
 H391 H -0.11933 0.86768 -0.36331
 H392 H -0.13887 0.91992 -0.28063
 H393 H -0.15899 0.83756 -0.17235
 H394 H -0.19008 0.87598 -0.26059
 C395 C 0.35135 0.65649 0.21603
 C396 C 0.33386 0.63510 0.26306
 C397 C 0.34530 0.66259 0.30829
 C398 C 0.36245 0.68429 0.26216
 C399 C 0.37844 0.63201 0.22827
 C400 C 0.38980 0.65951 0.27356
 C401 C 0.36126 0.61040 0.27447
 C402 C 0.37241 0.63810 0.32023
 C403 C 0.32804 0.67852 0.35550
 C404 C 0.31504 0.69049 0.39675
 C405 C 0.39798 0.61393 0.18660
 C406 C 0.41507 0.59806 0.15540
 H407 H 0.34292 0.66383 0.17264
 H408 H 0.31065 0.62527 0.25929
 H409 H 0.36271 0.71487 0.25764
 H410 H 0.41301 0.66937 0.27748
 H411 H 0.36097 0.57983 0.27913
 H412 H 0.38092 0.63068 0.36354
 C413 C -0.11854 1.12608 0.29574
 C414 C -0.12141 1.16813 0.30636
 C415 C -0.15515 1.16348 0.31113
 C416 C -0.15248 1.12161 0.30104
 C417 C -0.12212 1.13296 0.23085
 C418 C -0.15587 1.12824 0.23550
 C419 C -0.12475 1.17485 0.24086
 C420 C -0.15885 1.17048 0.24631
 C421 C -0.17239 1.17938 0.35844
 C422 C -0.18536 1.19131 0.39979
 C423 C -0.10264 1.11486 0.18905
 C424 C -0.08561 1.09895 0.15772
 H425 H -0.10178 1.10766 0.31573
 H426 H -0.10741 1.18469 0.33599
 H427 H -0.16405 1.09987 0.32627
 H428 H -0.16982 1.11164 0.20585
 H429 H -0.11314 1.19654 0.21561
 H430 H -0.17566 1.18894 0.22658
 C431 C 0.64969 0.34339 0.21598
 C432 C 0.66693 0.36479 0.26324
 C433 C 0.65559 0.33701 0.30823
 C434 C 0.63869 0.31530 0.26187
 C435 C 0.62241 0.36753 0.22824
 C436 C 0.61114 0.33975 0.27329
 C437 C 0.63934 0.38915 0.27466
 C438 C 0.62829 0.36117 0.32019
 C439 C 0.67288 0.32112 0.35544
 C440 C 0.68590 0.30918 0.39669
 C441 C 0.60284 0.38559 0.18658
 C442 C 0.58573 0.40144 0.15540
 H443 H 0.65825 0.33630 0.17259
 H444 H 0.69009 0.37488 0.25965
 H445 H 0.63864 0.28474 0.25716
 H446 H 0.58800 0.32963 0.27702
 H447 H 0.63942 0.41971 0.27952
 H448 H 0.61965 0.36834 0.36350
 C449 C 0.14889 0.84387 0.21705
 C450 C 0.16625 0.86515 0.26427
 C451 C 0.15506 0.83722 0.30920
 C452 C 0.13804 0.81563 0.26287
 C453 C 0.12162 0.86794 0.22975
 C454 C 0.11050 0.84001 0.27474
 C455 C 0.13867 0.88944 0.27615
 C456 C 0.12777 0.86132 0.32160
 C457 C 0.17251 0.82122 0.35612
 C458 C 0.18564 0.80918 0.39718
 C459 C 0.10194 0.88607 0.18834
 C460 C 0.08477 0.90196 0.15729
 H461 H 0.15734 0.83690 0.17352
 H462 H 0.18938 0.87528 0.26049
 H463 H 0.13800 0.78508 0.25793
 H464 H 0.08738 0.82984 0.27865
 H465 H 0.13873 0.91999 0.28122
 H466 H 0.11924 0.86836 0.36505
   
