data_POSCAR
  _audit_creation_date              2014-09-24
  _audit_creation_method            'ToBaCCo'
  _symmetry_space_group_name_H-M    'P1'
  _symmetry_Int_Tables_number       1
  _symmetry_cell_setting            triclinic
  loop_
  _symmetry_equiv_pos_as_xyz
 x,y,z
_cell_length_a 24.5946
_cell_length_b 24.5954
_cell_length_c 24.7494
_cell_angle_alpha 90.121600
_cell_angle_beta 89.970300
_cell_angle_gamma 89.995600
loop_
  _atom_site_label
  _atom_site_type_symbol
  _atom_site_fract_x
  _atom_site_fract_y
  _atom_site_fract_z
N1 N 0.15732 0.15658 0.15871
 N2 N -0.15519 0.84407 0.15613
 N3 N -0.15299 0.15378 -0.15466
 N4 N 0.15650 0.84419 -0.15850
 N5 N 0.15564 1.15445 0.84331
 N6 N 0.83613 0.83409 0.83306
 N7 N 0.15589 0.84583 1.15589
 N8 N 0.83301 1.16788 1.16851
 N9 N 0.55789 1.05821 1.09452
 N10 N 0.60207 1.06173 1.12451
 N11 N 0.44313 1.09587 1.05728
 N12 N 0.39786 1.12461 1.05979
 N13 N 0.44332 1.05796 1.09461
 N14 N 0.39809 1.05977 1.12325
 N15 N 0.55753 1.09637 1.05751
 N16 N 0.60138 1.12704 1.06147
 C17 C 0.62836 1.10511 1.10368
 C18 C 0.37061 1.10188 1.10145
 N19 N 0.44357 1.05816 0.90336
 N20 N 0.39788 1.05931 0.87543
 N21 N 0.55836 1.09612 0.94153
 N22 N 0.60433 1.12385 0.94056
 N23 N 0.55834 1.05857 0.90369
 N24 N 0.60408 1.06012 0.87581
 N25 N 0.44337 1.09603 0.94088
 N26 N 0.39760 1.12406 0.93918
 Mn27 Mn 0.50056 1.09685 0.99923
 C28 C 0.37008 1.10100 0.89780
 C29 C 0.63195 1.10139 0.89892
 N30 N 0.44364 0.94132 1.09472
 N31 N 0.39881 0.93928 1.12396
 N32 N 0.55773 0.90328 1.05682
 N33 N 0.60280 0.87417 1.05904
 N34 N 0.55818 0.94142 1.09407
 N35 N 0.60360 0.93940 1.12236
 N36 N 0.44282 0.90400 1.05669
 N37 N 0.39714 0.87587 1.05889
 Mn38 Mn 0.50083 0.99972 1.09516
 C39 C 0.37062 0.89792 1.10151
 C40 C 0.63054 0.89683 1.10051
 N41 N 0.55842 0.94170 0.90347
 N42 N 0.60364 0.93940 0.87483
 N43 N 0.44306 0.90411 0.94041
 N44 N 0.39758 0.87570 0.93789
 N45 N 0.44385 0.94150 0.90261
 N46 N 0.39914 0.93924 0.87321
 N47 N 0.55795 0.90356 0.94055
 N48 N 0.60285 0.87421 0.93794
 Mn49 Mn 0.50109 1.00002 0.90259
 Mn50 Mn 0.50033 0.90296 0.99861
 Cl51 Cl 0.50069 0.99986 0.99891
 C52 C 0.63055 0.89685 0.89650
 C53 C 0.37110 0.89765 0.89534
 N54 N 0.06042 0.44341 0.09597
 N55 N 0.06271 0.39881 0.12544
 N56 N 0.09811 0.55767 0.05782
 N57 N 0.12624 0.60339 0.05942
 N58 N 0.06011 0.55791 0.09516
 N59 N 0.06128 0.60378 0.12287
 N60 N 0.09791 0.44265 0.05816
 N61 N 0.12644 0.39723 0.06076
 C62 C 0.10444 0.37083 0.10339
 C63 C 0.10309 0.63130 0.10056
 N64 N 0.06009 0.55704 -0.09589
 N65 N 0.06142 0.60256 -0.12398
 N66 N 0.09796 0.44206 -0.05814
 N67 N 0.12619 0.39641 -0.06020
 N68 N 0.06058 0.44252 -0.09602
 N69 N 0.06271 0.39751 -0.12505
 N70 N 0.09815 0.55710 -0.05862
 N71 N 0.12647 0.60269 -0.06068
 Mn72 Mn 0.09885 0.49983 -0.00020
 C73 C 0.10339 0.63020 -0.10200
 C74 C 0.10416 0.36956 -0.10261
 N75 N -0.05654 0.55746 0.09553
 N76 N -0.05915 0.60223 0.12486
 N77 N -0.09390 0.44289 0.05803
 N78 N -0.12337 0.39817 0.06112
 N79 N -0.05636 0.44331 0.09577
 N80 N -0.05947 0.39908 0.12569
 N81 N -0.09397 0.55769 0.05771
 N82 N -0.12276 0.60293 0.06008
 Mn83 Mn 0.00195 0.50051 0.09625
 C84 C -0.10097 0.62975 0.10260
 C85 C -0.10167 0.37170 0.10377
 N86 N -0.05610 0.44193 -0.09558
 N87 N -0.05737 0.39601 -0.12326
 N88 N -0.09409 0.55711 -0.05839
 N89 N -0.12338 0.60200 -0.06131
 N90 N -0.05663 0.55658 -0.09621
 N91 N -0.05969 0.60087 -0.12608
 N92 N -0.09406 0.44220 -0.05820
 N93 N -0.12226 0.39652 -0.05974
 Mn94 Mn 0.00200 0.49953 -0.09659
 Mn95 Mn -0.09478 0.49999 -0.00022
 Cl96 Cl 0.00201 0.49996 -0.00019
 C97 C -0.09923 0.36855 -0.10089
 C98 C -0.10176 0.62843 -0.10406
 N99 N 0.90351 -0.05817 0.44257
 N100 N 0.87482 -0.05980 0.39751
 N101 N 0.94176 -0.09669 0.55613
 N102 N 0.93958 -0.12591 0.60076
 N103 N 0.90377 -0.05916 0.55641
 N104 N 0.87457 -0.06209 0.60106
 N105 N 0.94152 -0.09573 0.44199
 N106 N 0.93976 -0.12365 0.39642
 C107 C 0.89758 -0.10121 0.36956
 C108 C 0.89715 -0.10416 0.62794
 N109 N 1.09604 -0.05889 0.55632
 N110 N 1.12435 -0.06089 0.60155
 N111 N 1.05844 -0.09604 0.44204
 N112 N 1.06047 -0.12448 0.39680
 N113 N 1.09604 -0.05810 0.44220
 N114 N 1.12434 -0.05955 0.39689
 N115 N 1.05852 -0.09689 0.55584
 N116 N 1.06055 -0.12587 0.60065
 Mn117 Mn 1.00003 -0.09707 0.49898
 C118 C 1.10218 -0.10326 0.62831
 C119 C 1.10210 -0.10157 0.36947
 N120 N 0.90402 0.05767 0.55790
 N121 N 0.87647 0.05869 0.60371
 N122 N 0.94139 0.09618 0.44358
 N123 N 0.93831 0.12593 0.39935
 N124 N 0.90328 0.05878 0.44379
 N125 N 0.87310 0.06231 0.39982
 N126 N 0.94147 0.09576 0.55768
 N127 N 0.94008 0.12382 0.60321
 Mn128 Mn 0.90292 -0.00021 0.50017
 C129 C 0.89899 0.10058 0.63112
 C130 C 0.89519 0.10465 0.37289
 N131 N 1.09647 0.05864 0.44351
 N132 N 1.12612 0.06145 0.39916
 N133 N 1.05833 0.09557 0.55747
 N134 N 1.06010 0.12368 0.60293
 N135 N 1.09625 0.05795 0.55710
 N136 N 1.12496 0.05973 0.60210
 N137 N 1.05836 0.09605 0.44329
 N138 N 1.06090 0.12504 0.39852
 Mn139 Mn 1.09689 -0.00014 0.49980
 Mn140 Mn 0.99989 0.09664 0.50045
 Cl141 Cl 0.99993 -0.00017 0.49983
 C142 C 1.10382 0.10341 0.37193
 C143 C 1.10225 0.10127 0.62986
 C144 C 1.17043 0.09880 0.28565
 C145 C 1.13466 0.08612 0.23562
 C146 C 1.14387 0.14456 0.21569
 C147 C 1.17986 0.15752 0.26483
 C148 C 1.09254 0.16409 0.24574
 C149 C 1.08371 0.10560 0.26667
 C150 C 1.11950 0.11860 0.31585
 C151 C 1.12842 0.17692 0.29574
 H152 H 1.20216 0.07161 0.30253
 H153 H 1.13643 0.04877 0.21041
 H154 H 1.21951 0.17900 0.26427
 H155 H 1.05897 0.19045 0.23161
 H156 H 1.04477 0.08308 0.26819
 H157 H 1.12562 0.21415 0.32101
 C158 C 0.87170 -0.17443 0.29380
 C159 C 0.82136 -0.15383 0.26209
 C160 C 0.85829 -0.14322 0.21308
 C161 C 0.90856 -0.16397 0.24401
 C162 C 0.86948 -0.08475 0.23218
 C163 C 0.83270 -0.09508 0.28206
 C164 C 0.88252 -0.11609 0.31314
 C165 C 0.91943 -0.10545 0.26414
 H166 H 0.87285 -0.21123 0.31965
 H167 H 0.78106 -0.17404 0.26196
 H168 H 0.94138 -0.19180 0.23077
 H169 H 0.86909 -0.04799 0.20626
 H170 H 0.80180 -0.06639 0.29812
 H171 H 0.95982 -0.08534 0.26567
 C172 C 0.82656 0.12580 0.70808
 C173 C 0.83796 0.08926 0.75787
 C174 C 0.85903 0.13978 0.78832
 C175 C 0.84749 0.17636 0.73934
 C176 C 0.91724 0.12864 0.76841
 C177 C 0.89621 0.07845 0.73685
 C178 C 0.88462 0.11508 0.68791
 C179 C 0.90594 0.16511 0.71859
 H180 H 0.78933 0.12437 0.68278
 H181 H 0.81049 0.05661 0.77212
 H182 H 0.82719 0.21662 0.73976
 H183 H 0.95449 0.12939 0.79371
 H184 H 0.91642 0.03811 0.73515
 H185 H 0.93426 0.19604 0.70207
 C186 C 1.17546 -0.12889 0.70396
 C187 C 1.16465 -0.09204 0.75377
 C188 C 1.14398 -0.14238 0.78460
 C189 C 1.15495 -0.17929 0.73559
 C190 C 1.08552 -0.13144 0.76546
 C191 C 1.10615 -0.08143 0.73360
 C192 C 1.11715 -0.11831 0.68459
 C193 C 1.09622 -0.16819 0.71556
 H194 H 1.21235 -0.12760 0.67813
 H195 H 1.19232 -0.05912 0.76704
 H196 H 1.17530 -0.21953 0.73603
 H197 H 1.04861 -0.13210 0.79129
 H198 H 1.08586 -0.04113 0.73208
 H199 H 1.06773 -0.19920 0.69937
 C200 C 0.26462 1.08026 1.10810
 C201 C 0.24547 1.09205 1.16647
 C202 C 0.21431 1.14225 1.14577
 C203 C 0.23238 1.13010 1.08750
 C204 C 0.26403 1.17898 1.15508
 C205 C 0.29601 1.12873 1.17558
 C206 C 0.31428 1.11705 1.11739
 C207 C 0.28291 1.16674 1.09651
 H208 H 0.26561 1.03962 1.08850
 H209 H 0.23237 1.05980 1.19478
 H210 H 0.20551 1.13011 1.05152
 H211 H 0.26460 1.21951 1.17478
 H212 H 0.32274 1.12792 1.21169
 H213 H 0.29869 1.19715 1.06736
 C214 C 0.28463 0.90183 0.82855
 C215 C 0.26345 0.84302 0.81995
 C216 C 0.21373 0.85675 0.85513
 C217 C 0.23401 0.91530 0.86351
 C218 C 0.24342 0.83809 0.90666
 C219 C 0.29398 0.82444 0.87160
 C220 C 0.31451 0.88284 0.87967
 C221 C 0.26477 0.89665 0.91466
 H222 H 0.30200 0.92838 0.79670
 H223 H 0.26326 0.82082 0.78090
 H224 H 0.20889 0.95272 0.86116
 H225 H 0.22832 0.81250 0.94024
 H226 H 0.31916 0.78717 0.87515
 H227 H 0.26605 0.91992 0.95292
 C228 C 0.70668 0.87317 1.17413
 C229 C 0.73800 0.82164 1.15556
 C230 C 0.78764 0.85759 1.14323
 C231 C 0.75716 0.90901 1.16192
 C232 C 0.76828 0.86637 1.08482
 C233 C 0.71780 0.83058 1.09686
 C234 C 0.68710 0.88156 1.11582
 C235 C 0.73672 0.91740 1.10347
 H236 H 0.68080 0.87618 1.21076
 H237 H 0.73786 0.78223 1.17723
 H238 H 0.77167 0.94255 1.18816
 H239 H 0.79412 0.86470 1.04808
 H240 H 0.70126 0.79860 1.06976
 H241 H 0.73547 0.95607 1.08071
 C242 C 0.73844 1.10423 0.92053
 C243 C 0.76988 1.08342 0.87036
 C244 C 0.78976 1.14167 0.85954
 C245 C 0.75945 1.16253 0.91005
 C246 C 0.74021 1.15335 0.82353
 C247 C 0.71950 1.09485 0.83445
 C248 C 0.68894 1.11595 0.88446
 C249 C 0.70908 1.17406 0.87407
 H250 H 0.73701 1.08386 0.96050
 H251 H 0.79538 1.04619 0.86927
 H252 H 0.77393 1.18984 0.94263
 H253 H 0.74030 1.17382 0.78365
 H254 H 0.70267 1.06667 0.80361
 H255 H 0.68359 1.21126 0.87587
 C256 C 0.17763 0.29380 0.12769
 C257 C 0.15875 0.26377 0.17953
 C258 C 0.14507 0.21376 0.14470
 C259 C 0.16404 0.24295 0.09298
 C260 C 0.08662 0.23410 0.13604
 C261 C 0.10002 0.28499 0.17066
 C262 C 0.11932 0.31437 0.11934
 C263 C 0.10557 0.26435 0.08471
 H264 H 0.21497 0.31886 0.12402
 H265 H 0.18078 0.26406 0.21862
 H266 H 0.18973 0.22753 0.05953
 H267 H 0.04916 0.20906 0.13838
 H268 H 0.07336 0.30267 0.20235
 H269 H 0.08251 0.26530 0.04638
 C270 C -0.12465 0.29195 -0.17364
 C271 C -0.08819 0.24159 -0.16293
 C272 C -0.13875 0.21097 -0.14224
 C273 C -0.17525 0.26052 -0.15311
 C274 C -0.12752 0.23041 -0.08420
 C275 C -0.07730 0.26215 -0.10483
 C276 C -0.11388 0.31164 -0.11572
 C277 C -0.16393 0.28078 -0.09481
 H278 H -0.12322 0.31777 -0.21034
 H279 H -0.05565 0.22731 -0.19047
 H280 H -0.21551 0.26050 -0.17327
 H281 H -0.12821 0.20461 -0.04745
 H282 H -0.03696 0.26357 -0.08474
 H283 H -0.19481 0.29728 -0.06646
 C284 C 0.16784 0.71841 -0.09687
 C285 C 0.17942 0.73753 -0.15544
 C286 C 0.14258 0.78710 -0.14556
 C287 C 0.13108 0.76878 -0.08730
 C288 C 0.09231 0.75580 -0.16601
 C289 C 0.12910 0.70541 -0.17570
 C290 C 0.11808 0.68686 -0.11752
 C291 C 0.08116 0.73637 -0.10766
 H292 H 0.19862 0.70270 -0.06806
 H293 H 0.21975 0.73713 -0.17546
 H294 H 0.13131 0.79558 -0.05120
 H295 H 0.05987 0.76933 -0.19395
 H296 H 0.12805 0.67883 -0.21198
 H297 H 0.04069 0.73521 -0.08778
 C298 C -0.09679 0.71645 0.16901
 C299 C -0.08393 0.76692 0.13377
 C300 C -0.14253 0.78687 0.14251
 C301 C -0.15566 0.73731 0.17796
 C302 C -0.16148 0.75672 0.09121
 C303 C -0.10285 0.73573 0.08285
 C304 C -0.11607 0.68619 0.11813
 C305 C -0.17450 0.70635 0.12656
 H306 H -0.06984 0.69940 0.20070
 H307 H -0.04667 0.79231 0.13589
 H308 H -0.17750 0.73760 0.21718
 H309 H -0.18747 0.77082 0.05753
 H310 H -0.08005 0.73428 0.04429
 H311 H -0.21163 0.68089 0.12337
 C312 C 1.12805 0.17415 0.70603
 C313 C 1.09138 0.16322 0.75587
 C314 C 1.14179 0.14221 0.78640
 C315 C 1.17851 0.15330 0.73735
 C316 C 1.13056 0.08390 0.76686
 C317 C 1.08048 0.10485 0.73528
 C318 C 1.11719 0.11598 0.68627
 C319 C 1.16713 0.09472 0.71695
 H320 H 1.12676 0.21116 0.68049
 H321 H 1.05860 0.19092 0.76945
 H322 H 1.21883 0.17348 0.73771
 H323 H 1.13119 0.04685 0.79240
 H324 H 1.04011 0.08469 0.73367
 H325 H 1.19798 0.06620 0.70048
 C326 C 0.86818 -0.17989 0.69968
 C327 C 0.90356 -0.17219 0.75102
 C328 C 0.85257 -0.15151 0.78121
 C329 C 0.81721 -0.15956 0.73061
 C330 C 0.86561 -0.09257 0.76513
 C331 C 0.91620 -0.11309 0.73381
 C332 C 0.88076 -0.12108 0.68329
 C333 C 0.83036 -0.10029 0.71364
 H334 H 0.86951 -0.21562 0.67225
 H335 H 0.93587 -0.20105 0.76305
 H336 H 0.77651 -0.17897 0.72918
 H337 H 0.86519 -0.05669 0.79244
 H338 H 0.95700 -0.09377 0.73435
 H339 H 0.80061 -0.07042 0.69769
 C340 C 1.17536 -0.12694 0.29343
 C341 C 1.15469 -0.17735 0.26174
 C342 C 1.14363 -0.14051 0.21286
 C343 C 1.16448 -0.09015 0.24373
 C344 C 1.08525 -0.12943 0.23225
 C345 C 1.09604 -0.16613 0.28199
 C346 C 1.11712 -0.11624 0.31303
 C347 C 1.10604 -0.07941 0.26418
 H348 H 1.21232 -0.12566 0.31912
 H349 H 1.17497 -0.21762 0.26122
 H350 H 1.19219 -0.05733 0.23040
 H351 H 1.04826 -0.13009 0.20656
 H352 H 1.06755 -0.19709 0.29817
 H353 H 1.08581 -0.03907 0.26590
 C354 C 0.91236 0.11326 0.26694
 C355 C 0.86099 0.09404 0.23634
 C356 C 0.84938 0.15327 0.22027
 C357 C 0.90118 0.17263 0.24977
 C358 C 0.81475 0.16231 0.27126
 C359 C 0.82653 0.10272 0.28823
 C360 C 0.87782 0.12220 0.31793
 C361 C 0.86662 0.18134 0.30157
 H362 H 0.95214 0.09227 0.26575
 H363 H 0.85968 0.05820 0.20903
 H364 H 0.93397 0.20056 0.23682
 H365 H 0.77458 0.18279 0.27299
 H366 H 0.79616 0.07367 0.30454
 H367 H 0.86917 0.21707 0.32892
 C368 C 0.09912 0.28305 -0.16910
 C369 C 0.15769 0.26136 -0.17790
 C370 C 0.14365 0.21178 -0.14281
 C371 C 0.08533 0.23259 -0.13421
 C372 C 0.16282 0.24132 -0.09126
 C373 C 0.17678 0.29173 -0.12625
 C374 C 0.11862 0.31279 -0.11797
 C375 C 0.10448 0.26321 -0.08305
 H376 H 0.07259 0.30063 -0.20085
 H377 H 0.17966 0.26104 -0.21705
 H378 H 0.04768 0.20781 -0.13650
 H379 H 0.18841 0.22599 -0.05777
 H380 H 0.21429 0.31657 -0.12274
 H381 H 0.08135 0.26473 -0.04474
 C382 C -0.09900 0.28697 0.17215
 C383 C -0.15859 0.27119 0.18558
 C384 C -0.15153 0.21943 0.15137
 C385 C -0.09229 0.23428 0.13809
 C386 C -0.17162 0.24907 0.10014
 C387 C -0.17834 0.30154 0.13435
 C388 C -0.11925 0.31673 0.12148
 C389 C -0.11223 0.26504 0.08725
 H390 H -0.06880 0.30316 0.20137
 H391 H -0.17797 0.27375 0.22600
 H392 H -0.05709 0.20607 0.13898
 H393 H -0.20061 0.23691 0.06815
 H394 H -0.21354 0.32972 0.13252
 H395 H -0.09296 0.26328 0.04669
 C396 C -0.17780 0.70083 -0.13213
 C397 C -0.16834 0.75319 -0.09831
 C398 C -0.14919 0.78214 -0.15025
 C399 C -0.15895 0.73055 -0.18410
 C400 C -0.08998 0.76549 -0.13909
 C401 C -0.10902 0.73539 -0.08759
 C402 C -0.11874 0.68385 -0.12138
 C403 C -0.09941 0.71298 -0.17277
 H404 H -0.21375 0.67374 -0.12902
 H405 H -0.19580 0.76669 -0.06548
 H406 H -0.17973 0.72856 -0.22384
 H407 H -0.05382 0.79245 -0.14094
 H408 H -0.08767 0.73676 -0.04826
 H409 H -0.07078 0.69591 -0.20306
 C410 C 0.12852 0.70725 0.17370
 C411 C 0.17880 0.73920 0.15323
 C412 C 0.14192 0.78865 0.14314
 C413 C 0.09167 0.75749 0.16378
 C414 C 0.13045 0.76979 0.08498
 C415 C 0.16727 0.71955 0.09477
 C416 C 0.11756 0.68815 0.11563
 C417 C 0.08057 0.73750 0.10554
 H418 H 0.12749 0.68099 0.21010
 H419 H 0.21912 0.73888 0.17322
 H420 H 0.05919 0.77126 0.19165
 H421 H 0.13059 0.79625 0.04875
 H422 H 0.19807 0.70361 0.06602
 H423 H 0.04013 0.73605 0.08566
 C424 C 0.28211 1.16535 0.90372
 C425 C 0.26237 1.17685 0.84537
 C426 C 0.21279 1.14023 0.85575
 C427 C 0.23175 1.12879 0.91382
 C428 C 0.24367 1.08979 0.83496
 C429 C 0.29406 1.12639 0.82476
 C430 C 0.31326 1.11545 0.88273
 C431 C 0.26377 1.07871 0.89311
 H432 H 0.29826 1.19615 0.93237
 H433 H 0.26281 1.21714 0.82538
 H434 H 0.20545 1.12917 0.95024
 H435 H 0.22969 1.05733 0.80717
 H436 H 0.32022 1.12515 0.78822
 H437 H 0.26509 1.03830 0.91299
 C438 C 0.26421 0.89758 1.08238
 C439 C 0.24252 0.83918 1.09032
 C440 C 0.21312 0.85812 1.14204
 C441 C 0.23373 0.91652 1.13371
 C442 C 0.26287 0.84412 1.17696
 C443 C 0.29309 0.82525 1.12514
 C444 C 0.31396 0.88348 1.11711
 C445 C 0.28438 0.90277 1.16842
 H446 H 0.26550 0.92080 1.04418
 H447 H 0.22719 0.81365 1.05671
 H448 H 0.20885 0.95410 1.13629
 H449 H 0.26270 0.82206 1.21600
 H450 H 0.31802 0.78781 1.12138
 H451 H 0.30203 0.92927 1.20026
 C452 C 0.71354 1.17365 1.10189
 C453 C 0.72985 1.18642 1.16118
 C454 C 0.78110 1.15142 1.15350
 C455 C 0.76571 1.13884 1.09458
 C456 C 0.75091 1.10010 1.17312
 C457 C 0.69887 1.13502 1.18043
 C458 C 0.68324 1.12285 1.12161
 C459 C 0.73445 1.08796 1.11404
 H460 H 0.69756 1.20351 1.07232
 H461 H 0.72806 1.22695 1.18090
 H462 H 0.79361 1.13945 1.05930
 H463 H 0.76299 1.06763 1.20158
 H464 H 0.67081 1.13321 1.21551
 H465 H 0.73567 1.04781 1.09387
 C466 C 0.71657 0.82951 0.89987
 C467 C 0.73297 0.81602 0.84078
 C468 C 0.78424 0.85105 0.84805
 C469 C 0.76872 0.86447 0.90680
 C470 C 0.75406 0.90216 0.82779
 C471 C 0.70205 0.86712 0.82085
 C472 C 0.68617 0.88001 0.87948
 C473 C 0.73734 0.91517 0.88669
 H474 H 0.70066 0.79998 0.92982
 H475 H 0.73091 0.77527 0.82157
 H476 H 0.79664 0.86422 0.94202
 H477 H 0.76651 0.93421 0.79899
 H478 H 0.67413 0.86845 0.78565
 H479 H 0.73836 0.95604 0.90581
   
