data_POSCAR
  _audit_creation_date              2014-09-24
  _audit_creation_method            'ToBaCCo'
  _symmetry_space_group_name_H-M    'P1'
  _symmetry_Int_Tables_number       1
  _symmetry_cell_setting            triclinic
  loop_
  _symmetry_equiv_pos_as_xyz
 x,y,z
_cell_length_a 40.4730
_cell_length_b 40.9775
_cell_length_c 14.6401
_cell_angle_alpha 90.568300
_cell_angle_beta 89.609000
_cell_angle_gamma 119.637000
loop_
  _atom_site_label
  _atom_site_type_symbol
  _atom_site_fract_x
  _atom_site_fract_y
  _atom_site_fract_z
C1 C 0.16848 0.47296 0.48791
 C2 C 0.19003 0.48754 0.40826
 C3 C 0.22951 0.51205 0.41744
 C4 C 0.24787 0.51836 0.50326
 C5 C 0.22488 0.50100 0.58059
 C6 C 0.18510 0.47978 0.57463
 C7 C 0.29065 0.54186 0.51205
 C8 C 0.30831 0.55378 0.59863
 C9 C 0.34775 0.57061 0.60783
 C10 C 0.37051 0.58194 0.52977
 C11 C 0.35455 0.56830 0.44337
 C12 C 0.31462 0.54876 0.43522
 H13 H 0.13816 0.46036 0.48329
 H14 H 0.24585 0.52518 0.35697
 H15 H 0.23734 0.50288 0.64648
 H16 H 0.29216 0.54742 0.66113
 H17 H 0.40100 0.59618 0.53906
 H18 H 0.30264 0.53631 0.36990
 C19 C 0.56730 -0.29550 0.48996
 C20 C 0.55885 -0.28293 0.40914
 C21 C 0.54474 -0.25772 0.41602
 C22 C 0.54316 -0.24172 0.50115
 C23 C 0.55059 -0.25631 0.58076
 C24 C 0.56146 -0.28399 0.57642
 C25 C 0.53683 -0.20827 0.50660
 C26 C 0.53091 -0.19484 0.59151
 C27 C 0.53125 -0.16052 0.59788
 C28 C 0.53395 -0.14074 0.51852
 C29 C 0.53830 -0.15386 0.43341
 C30 C 0.54017 -0.18705 0.42773
 H31 H 0.57460 -0.31753 0.48507
 H32 H 0.53697 -0.24948 0.35369
 H33 H 0.54995 -0.24529 0.64737
 H34 H 0.52698 -0.20985 0.65430
 H35 H 0.53247 -0.11509 0.52288
 H36 H 0.54595 -0.19466 0.36127
 C37 C 1.35492 0.81152 0.55502
 C38 C 1.34519 0.79984 0.46364
 C39 C 1.31530 0.76293 0.44789
 C40 C 1.29095 0.74080 0.51982
 C41 C 1.29950 0.75595 0.60938
 C42 C 1.33192 0.79029 0.62703
 C43 C 1.25526 0.70386 0.50096
 C44 C 1.23429 0.67897 0.57288
 C45 C 1.19841 0.64690 0.55759
 C46 C 1.18650 0.63710 0.46647
 C47 C 1.20702 0.66042 0.39437
 C48 C 1.24030 0.69408 0.41158
 H49 H 1.37978 0.83811 0.57158
 H50 H 1.30981 0.75265 0.37897
 H51 H 1.28090 0.74235 0.66650
 H52 H 1.24489 0.68537 0.64147
 H53 H 1.16062 0.61132 0.45039
 H54 H 1.25334 0.71237 0.35418
 C55 C 0.83870 0.49419 0.54891
 C56 C 0.82411 0.48884 0.46059
 C57 C 0.78583 0.47852 0.44859
 C58 C 0.76296 0.47770 0.52308
 C59 C 0.77930 0.48534 0.61149
 C60 C 0.81681 0.49296 0.62424
 C61 C 0.72331 0.47102 0.50712
 C62 C 0.69633 0.46028 0.57896
 C63 C 0.66062 0.45818 0.56634
 C64 C 0.65076 0.46220 0.47647
 C65 C 0.67620 0.47116 0.40408
 C66 C 0.71268 0.47720 0.42005
 H67 H 0.86728 0.49907 0.55918
 H68 H 0.77462 0.47202 0.38011
 H69 H 0.76370 0.48622 0.67076
 H70 H 0.70323 0.45361 0.64451
 H71 H 0.62422 0.46136 0.46194
 H72 H 0.73258 0.48776 0.36389
 C73 C 0.46261 0.32666 0.53518
 C74 C 0.46558 0.31362 0.44906
 C75 C 0.46728 0.28034 0.44245
 C76 C 0.46288 0.25827 0.52063
 C77 C 0.45975 0.27255 0.60729
 C78 C 0.45883 0.30631 0.61442
 C79 C 0.45854 0.21955 0.51041
 C80 C 0.46104 0.19978 0.58680
 C81 C 0.45285 0.16218 0.57861
 C82 C 0.44738 0.14634 0.49086
 C83 C 0.44455 0.16474 0.41433
 C84 C 0.44940 0.20081 0.42446
 H85 H 0.46457 0.35383 0.54144
 H86 H 0.47120 0.27175 0.37535
 H87 H 0.45490 0.25657 0.66892
 H88 H 0.46763 0.21265 0.65362
 H89 H 0.44707 0.12001 0.48143
 H90 H 0.44515 0.21324 0.36430
 C91 C 0.63144 0.19378 0.47578
 C92 C 0.65363 0.21285 0.40084
 C93 C 0.69024 0.24239 0.41430
 C94 C 0.70692 0.25097 0.50193
 C95 C 0.68445 0.23053 0.57764
 C96 C 0.64648 0.20168 0.56470
 C97 C 0.74814 0.27976 0.51021
 C98 C 0.76357 0.30198 0.58977
 C99 C 0.80078 0.33326 0.58870
 C100 C 0.82172 0.34185 0.50672
 C101 C 0.80859 0.31760 0.43192
 C102 C 0.77233 0.28646 0.43435
 H103 H 0.60299 0.17075 0.46348
 H104 H 0.70599 0.25744 0.35441
 H105 H 0.69688 0.23541 0.64505
 H106 H 0.74621 0.29652 0.65039
 H107 H 0.84944 0.36651 0.50160
 H108 H 0.76311 0.26786 0.37557
 O109 O 0.95227 0.40275 0.17485
 O110 O 0.91020 0.41627 0.10356
 C111 C 0.91825 0.39709 0.16058
 O112 O 1.06953 0.56992 0.15703
 O113 O 1.10521 0.55334 0.06589
 C114 C 1.10179 0.57463 0.12720
 O115 O 0.96506 0.52234 0.19547
 O116 O 0.91671 0.47458 0.11484
 C117 C 0.92931 0.49947 0.18002
 O118 O 1.05671 0.44468 0.14594
 O119 O 1.09911 0.49444 0.05970
 C120 C 1.09099 0.46837 0.11957
 Zr121 Zr 1.00423 0.44115 0.11362
 O122 O 1.00787 0.43654 0.25667
 O123 O 0.99795 0.38736 0.09113
 Zr124 Zr 1.01352 0.52786 0.12637
 O125 O 1.02330 0.52937 0.26859
 O126 O 1.01441 0.57989 0.13542
 O127 O 0.97611 0.47076 0.14655
 O128 O 1.04225 0.49806 0.12951
 O129 O 1.04453 0.44335 -0.17179
 O130 O 1.09277 0.49250 -0.09413
 C131 C 1.08032 0.46572 -0.15448
 O132 O 0.95220 0.52292 -0.13760
 O133 O 0.91031 0.47477 -0.04643
 C134 C 0.91811 0.49986 -0.10872
 O135 O 1.05739 0.56531 -0.16508
 O136 O 1.09923 0.55185 -0.09247
 C137 C 1.09104 0.56942 -0.15356
 O138 O 0.93925 0.41061 -0.16644
 O139 O 0.90354 0.41947 -0.05686
 C140 C 0.90709 0.40553 -0.13345
 Zr141 Zr 0.99537 0.44096 -0.11268
 O142 O 0.99357 0.43601 -0.25663
 O143 O 0.98359 0.38456 -0.10826
 Zr144 Zr 1.00512 0.52806 -0.10113
 O145 O 1.00129 0.53119 -0.24449
 O146 O 1.00913 0.58130 -0.08420
 Zr147 Zr 0.94810 0.46149 0.02033
 Zr148 Zr 1.06126 0.50788 -0.00678
 O149 O 1.03204 0.49746 -0.13176
 O150 O 0.96665 0.47134 -0.11686
 O151 O 1.03331 0.44858 -0.00837
 O152 O 0.97679 0.52057 0.02150
 O153 O 0.96557 0.42111 0.00708
 O154 O 1.04413 0.54870 0.00517
 H155 H 1.06131 0.50571 0.17889
 H156 H 0.96183 0.53361 0.02893
 H157 H 1.04599 0.50302 -0.19054
 H158 H 0.94561 0.39429 0.00609
 H159 H 1.03272 0.59671 0.08928
 H160 H 1.03600 0.59979 -0.07097
 H161 H 0.98078 0.50648 -0.26594
 H162 H 0.99263 0.45805 -0.28019
 H163 H 1.00687 0.38495 -0.08636
 H164 H 0.99887 0.37765 0.15222
 H165 H 1.02623 0.46163 0.28093
 H166 H 1.00400 0.50485 0.29346
 O167 O 0.59529 0.53007 0.15311
 O168 O 0.56902 0.47251 0.08177
 C169 C 0.59397 0.49842 0.13562
 O170 O 0.43908 0.51265 0.18452
 O171 O 0.45814 0.56326 0.08960
 C172 C 0.43953 0.54307 0.15966
 O173 O 0.46551 0.43843 0.19120
 O174 O 0.50512 0.42720 0.09979
 C175 C 0.48172 0.41906 0.16811
 O176 O 0.57021 0.60541 0.14161
 O177 O 0.52172 0.60817 0.06832
 C178 C 0.55080 0.62200 0.12287
 Zr179 Zr 0.56151 0.55179 0.10385
 O180 O 0.57033 0.56232 0.24591
 O181 O 0.61869 0.59098 0.07289
 Zr182 Zr 0.46928 0.48703 0.13335
 O183 O 0.47559 0.49590 0.27648
 O184 O 0.41204 0.44417 0.14977
 O185 O 0.52462 0.49590 0.13925
 O186 O 0.50815 0.54368 0.13375
 O187 O 0.55772 0.59157 -0.17410
 O188 O 0.51720 0.60260 -0.08553
 C189 C 0.54233 0.61159 -0.15071
 O190 O 0.45171 0.42462 -0.13603
 O191 O 0.49859 0.42036 -0.05895
 C192 C 0.47023 0.40730 -0.11562
 O193 O 0.42354 0.49864 -0.13587
 O194 O 0.45133 0.55723 -0.06972
 C195 C 0.42604 0.53112 -0.12223
 O196 O 0.57387 0.51015 -0.18326
 O197 O 0.55885 0.46271 -0.08081
 C198 C 0.57443 0.48045 -0.15579
 Zr199 Zr 0.55046 0.54093 -0.12202
 O200 O 0.54579 0.54048 -0.26589
 O201 O 0.60983 0.57742 -0.13410
 Zr202 Zr 0.45833 0.47686 -0.09337
 O203 O 0.44970 0.47237 -0.23654
 O204 O 0.40150 0.43377 -0.07270
 Zr205 Zr 0.52381 0.47305 0.00918
 Zr206 Zr 0.49574 0.55515 0.00226
 O207 O 0.49570 0.53201 -0.12681
 O208 O 0.51155 0.48377 -0.12369
 O209 O 0.55467 0.57585 -0.01310
 O210 O 0.46515 0.45342 0.02374
 O211 O 0.57090 0.52695 -0.00953
 O212 O 0.44805 0.50139 0.02050
 H213 H 0.50690 0.55784 0.18763
 H214 H 0.44745 0.42616 0.03080
 H215 H 0.48965 0.54197 -0.18176
 H216 H 0.59637 0.52936 -0.01705
 H217 H 0.39582 0.45191 0.11677
 H218 H 0.38812 0.44481 -0.03878
 H219 H 0.46809 0.46587 -0.26419
 H220 H 0.52646 0.51475 -0.28401
 H221 H 0.61612 0.60075 -0.10004
 H222 H 0.63136 0.60140 0.13222
 H223 H 0.55709 0.53776 0.27683
 H224 H 0.49591 0.49081 0.29646
 O225 O 0.43962 0.04106 0.17140
 O226 O 0.48354 0.08768 0.08002
 C227 C 0.45713 0.07532 0.14271
 O228 O 0.54398 -0.02699 0.17585
 O229 O 0.49676 -0.07883 0.10296
 C230 C 0.52492 -0.06290 0.16006
 O231 O 0.57090 0.07376 0.16332
 O232 O 0.54704 0.10370 0.07650
 C233 C 0.57059 0.10369 0.13654
 O234 O 0.41282 -0.05881 0.19071
 O235 O 0.43338 -0.09435 0.11265
 C236 C 0.41356 -0.08974 0.17648
 Zr237 Zr 0.44470 -0.00555 0.13068
 O238 O 0.44543 -0.00264 0.27518
 O239 O 0.38676 -0.02045 0.12382
 Zr240 Zr 0.53706 0.01716 0.12359
 O241 O 0.53904 0.01885 0.26816
 O242 O 0.59576 0.03459 0.11650
 O243 O 0.50043 0.03907 0.14018
 O244 O 0.48246 -0.02500 0.14983
 O245 O 0.40338 -0.07036 -0.12789
 O246 O 0.42921 -0.09972 -0.04628
 C247 C 0.40445 -0.10009 -0.10300
 O248 O 0.55958 0.06071 -0.17277
 O249 O 0.54329 0.09790 -0.08710
 C250 C 0.56078 0.09236 -0.15522
 O251 O 0.53667 -0.03841 -0.14353
 O252 O 0.49194 -0.08480 -0.05315
 C253 C 0.51779 -0.07297 -0.11673
 O254 O 0.43739 0.03198 -0.15832
 O255 O 0.48298 0.08335 -0.08105
 C256 C 0.45691 0.06795 -0.14310
 Zr257 Zr 0.44027 -0.01320 -0.09708
 O258 O 0.43598 -0.02263 -0.24014
 O259 O 0.38375 -0.02310 -0.09283
 Zr260 Zr 0.53254 0.00913 -0.10366
 O261 O 0.53416 0.00190 -0.24635
 O262 O 0.59166 0.02825 -0.09831
 Zr263 Zr 0.50423 0.05680 0.00411
 Zr264 Zr 0.47304 -0.05290 0.02305
 O265 O 0.47699 -0.03418 -0.11216
 O266 O 0.49519 0.02957 -0.12417
 O267 O 0.42599 -0.04403 0.02350
 O268 O 0.55057 0.04695 0.00330
 O269 O 0.44498 0.02102 0.01143
 O270 O 0.53258 -0.01808 0.01516
 H271 H 0.47966 -0.03862 0.20743
 H272 H 0.57652 0.06878 -0.00268
 H273 H 0.47105 -0.05206 -0.16373
 H274 H 0.42780 0.03176 0.00850
 H275 H 0.59844 0.01508 0.08236
 H276 H 0.59507 0.00742 -0.07577
 H277 H 0.51202 0.00262 -0.27188
 H278 H 0.45554 0.00062 -0.26970
 H279 H 0.37033 -0.04151 -0.04382
 H280 H 0.37814 -0.02144 0.18776
 H281 H 0.46761 0.02160 0.29322
 H282 H 0.53007 0.03617 0.28902
 C283 C 1.13788 0.44509 0.30469
 C284 C 1.17135 0.47924 0.32252
 C285 C 1.18322 0.50586 0.25058
 C286 C 1.15884 0.50039 0.17548
 C287 C 1.12245 0.46803 0.16942
 C288 C 1.11560 0.43937 0.22996
 C289 C 1.08323 0.40405 0.26586
 C290 C 1.10832 0.40953 0.34877
 H291 H 1.20892 0.53277 0.25640
 H292 H 1.16710 0.52287 0.12714
 H293 H 1.07747 0.37916 0.22341
 H294 H 1.05795 0.40679 0.28339
 H295 H 1.11752 0.38814 0.35333
 H296 H 1.09511 0.41320 0.41173
 C297 C 0.53952 0.69693 0.24903
 C298 C 0.56397 0.70376 0.32344
 C299 C 0.59266 0.69391 0.31069
 C300 C 0.59149 0.67141 0.23643
 C301 C 0.56109 0.65726 0.17383
 C302 C 0.53769 0.67364 0.17661
 C303 C 0.49558 0.65643 0.16909
 C304 C 0.49748 0.68170 0.24778
 H305 H 0.61477 0.70151 0.36116
 H306 H 0.61203 0.66176 0.23456
 H307 H 0.48040 0.62632 0.18730
 H308 H 0.48682 0.66329 0.10351
 H309 H 0.48319 0.66599 0.31084
 H310 H 0.48991 0.70324 0.22745
 C311 C 0.36242 -0.18352 0.29884
 C312 C 0.36235 -0.17389 0.39149
 C313 C 0.37851 -0.13459 0.40830
 C314 C 0.39385 -0.10806 0.33756
 C315 C 0.39433 -0.11902 0.24609
 C316 C 0.37823 -0.15746 0.23067
 C317 C 0.37045 -0.18572 0.15769
 C318 C 0.35295 -0.21528 0.23358
 H319 H 0.37807 -0.12358 0.47536
 H320 H 0.40592 -0.07864 0.35541
 H321 H 0.34931 -0.18711 0.10747
 H322 H 0.39678 -0.18336 0.12764
 H323 H 0.36949 -0.22971 0.24765
 H324 H 0.32185 -0.23405 0.22493
 C325 C 0.83693 0.47365 0.30194
 C326 C 0.84951 0.49587 0.38096
 C327 C 0.88757 0.52540 0.38231
 C328 C 0.91322 0.52837 0.31324
 C329 C 0.90135 0.50186 0.24126
 C330 C 0.86233 0.47643 0.23400
 C331 C 0.84240 0.43499 0.22008
 C332 C 0.81428 0.43197 0.29312
 H333 H 0.89810 0.54498 0.43920
 H334 H 0.94276 0.54984 0.31989
 H335 H 0.86054 0.42327 0.24195
 H336 H 0.82969 0.42645 0.15088
 H337 H 0.81525 0.41722 0.35556
 H338 H 0.78532 0.42244 0.26584
 C339 C 0.44333 0.35216 0.36393
 C340 C 0.46544 0.33466 0.36704
 C341 C 0.48868 0.34003 0.28921
 C342 C 0.49169 0.36502 0.21839
 C343 C 0.47275 0.38620 0.22561
 C344 C 0.44674 0.37629 0.29691
 C345 C 0.42129 0.38792 0.34305
 C346 C 0.41690 0.36039 0.41871
 H347 H 0.50595 0.32665 0.28495
 H348 H 0.51019 0.36910 0.16088
 H349 H 0.39477 0.37927 0.30383
 H350 H 0.43671 0.41776 0.36585
 H351 H 0.38785 0.33565 0.42315
 H352 H 0.42887 0.37515 0.48441
 C353 C 0.61462 0.19742 0.25764
 C354 C 0.64227 0.19545 0.30992
 C355 C 0.65375 0.16958 0.28232
 C356 C 0.63258 0.14173 0.21697
 C357 C 0.59974 0.13951 0.17774
 C358 C 0.59425 0.17041 0.19136
 C359 C 0.55925 0.17243 0.21136
 C360 C 0.58137 0.20160 0.28452
 H361 H 0.67598 0.16791 0.31923
 H362 H 0.63958 0.11974 0.20473
 H363 H 0.53600 0.14568 0.23914
 H364 H 0.55208 0.18464 0.15259
 H365 H 0.57099 0.19165 0.35481
 H366 H 0.58572 0.22990 0.26833
 C367 C 0.46758 0.15491 -0.26115
 C368 C 0.44871 0.13982 -0.34422
 C369 C 0.42439 0.10035 -0.34719
 C370 C 0.42455 0.07721 -0.27742
 C371 C 0.44936 0.09258 -0.20258
 C372 C 0.46840 0.13184 -0.19286
 C373 C 0.50871 0.15890 -0.16932
 C374 C 0.50796 0.18412 -0.24370
 H375 H 0.40584 0.08686 -0.40481
 H376 H 0.40731 0.04709 -0.28615
 H377 H 0.52801 0.14765 -0.18534
 H378 H 0.51158 0.17084 -0.09943
 H379 H 0.52702 0.18757 -0.30234
 H380 H 0.51042 0.21066 -0.21651
 C381 C 0.60127 0.45361 -0.37602
 C382 C 0.63675 0.45625 -0.35907
 C383 C 0.64957 0.46389 -0.26684
 C384 C 0.62779 0.46871 -0.19766
 C385 C 0.59260 0.46588 -0.21812
 C386 C 0.58041 0.45924 -0.30855
 C387 C 0.54347 0.42917 -0.34591
 C388 C 0.56619 0.42234 -0.41871
 H389 H 0.67719 0.46842 -0.24723
 H390 H 0.63933 0.47648 -0.12931
 H391 H 0.52588 0.44073 -0.37354
 H392 H 0.52809 0.40516 -0.29910
 H393 H 0.56068 0.42907 -0.48837
 H394 H 0.56474 0.39462 -0.41262
 C395 C 0.81326 0.33826 -0.24558
 C396 C 0.81831 0.35482 -0.33219
 C397 C 0.84730 0.39282 -0.33939
 C398 C 0.87523 0.40949 -0.27189
 C399 C 0.87414 0.38918 -0.19432
 C400 C 0.84085 0.35528 -0.17767
 C401 C 0.83617 0.31878 -0.14615
 C402 C 0.80623 0.30006 -0.22012
 H403 H 0.85040 0.40880 -0.40047
 H404 H 0.89895 0.43746 -0.28301
 H405 H 0.82426 0.31189 -0.07586
 H406 H 0.86201 0.31631 -0.15810
 H407 H 0.77713 0.28220 -0.19232
 H408 H 0.81470 0.28664 -0.27492
 C409 C 0.56252 -0.11086 -0.28147
 C410 C 0.53093 -0.14396 -0.31226
 C411 C 0.49792 -0.15884 -0.25748
 C412 C 0.49508 -0.13731 -0.18468
 C413 C 0.52486 -0.10044 -0.16699
 C414 C 0.55947 -0.08957 -0.21173
 C415 C 0.58941 -0.05363 -0.25242
 C416 C 0.59311 -0.07720 -0.32867
 H417 H 0.47324 -0.18527 -0.27608
 H418 H 0.46830 -0.14787 -0.14932
 H419 H 0.61509 -0.03934 -0.20856
 H420 H 0.57826 -0.03541 -0.27733
 H421 H 0.62076 -0.07681 -0.32787
 H422 H 0.58468 -0.07171 -0.39625
 C423 C 0.37640 0.57903 -0.23322
 C424 C 0.36271 0.55918 -0.31475
 C425 C 0.36612 0.52672 -0.32539
 C426 C 0.38465 0.51675 -0.25942
 C427 C 0.40058 0.53881 -0.17951
 C428 C 0.39393 0.56907 -0.16810
 C429 C 0.40064 0.60130 -0.10778
 C430 C 0.38218 0.61304 -0.18282
 H431 H 0.35581 0.50982 -0.38700
 H432 H 0.38805 0.49262 -0.27410
 H433 H 0.43095 0.62145 -0.09576
 H434 H 0.38311 0.59193 -0.04512
 H435 H 0.40260 0.63932 -0.21817
 H436 H 0.35486 0.61114 -0.16174
 C437 C 1.13430 0.60362 -0.38490
 C438 C 1.17362 0.62591 -0.36958
 C439 C 1.18588 0.62682 -0.27820
 C440 C 1.15939 0.60913 -0.20650
 C441 C 1.11999 0.59085 -0.22351
 C442 C 1.10855 0.58685 -0.31446
 C443 C 1.07926 0.59353 -0.35794
 C444 C 1.10739 0.61222 -0.43509
 H445 H 1.21570 0.64084 -0.26087
 H446 H 1.16971 0.61038 -0.13777
 H447 H 1.07328 0.61328 -0.31807
 H448 H 1.05381 0.56691 -0.37930
 H449 H 1.11787 0.64288 -0.43955
 H450 H 1.09759 0.59645 -0.50066
 C451 C 0.86503 0.53271 -0.25783
 C452 C 0.83361 0.49847 -0.28405
 C453 C 0.82458 0.46699 -0.22938
 C454 C 0.85048 0.46861 -0.16285
 C455 C 0.88611 0.50147 -0.15199
 C456 C 0.89080 0.53401 -0.19434
 C457 C 0.92360 0.56614 -0.24056
 C458 C 0.89521 0.56517 -0.30975
 H459 H 0.80005 0.44009 -0.24560
 H460 H 0.84461 0.44293 -0.12886
 H461 H 0.94405 0.55850 -0.27139
 H462 H 0.93648 0.59197 -0.19747
 H463 H 0.90037 0.55810 -0.37976
 H464 H 0.89154 0.59029 -0.30537
 C465 C 0.47241 0.32339 -0.22213
 C466 C 0.45180 0.31933 -0.30239
 C467 C 0.42724 0.33459 -0.30097
 C468 C 0.42992 0.35965 -0.23203
 C469 C 0.45809 0.37114 -0.16395
 C470 C 0.47602 0.34940 -0.15490
 C471 C 0.51611 0.35980 -0.13455
 C472 C 0.51245 0.33183 -0.20861
 H473 H 0.40834 0.32991 -0.35782
 H474 H 0.41294 0.37322 -0.23919
 H475 H 0.51907 0.35100 -0.06492
 H476 H 0.53692 0.38936 -0.15135
 H477 H 0.51380 0.30729 -0.18137
 H478 H 0.53079 0.34522 -0.26920
 C479 C 0.59768 0.13845 -0.38142
 C480 C 0.62314 0.17607 -0.36056
 C481 C 0.62410 0.18757 -0.26860
 C482 C 0.60279 0.16086 -0.20018
 C483 C 0.58097 0.12230 -0.22275
 C484 C 0.57754 0.11249 -0.31513
 C485 C 0.58068 0.08205 -0.36474
 C486 C 0.60284 0.11076 -0.43798
 H487 H 0.64183 0.21675 -0.24932
 H488 H 0.60487 0.17001 -0.12978
 H489 H 0.55261 0.05933 -0.38892
 H490 H 0.59821 0.07245 -0.32780
 H491 H 0.58745 0.10446 -0.50410
 H492 H 0.63310 0.11786 -0.44304
 C493 C 1.17395 0.48781 -0.26288
 C494 C 1.16191 0.46786 -0.34598
 C495 C 1.12370 0.43810 -0.34873
 C496 C 1.09740 0.43491 -0.28120
 C497 C 1.10869 0.46113 -0.20888
 C498 C 1.14786 0.48473 -0.19651
 C499 C 1.16997 0.52538 -0.17205
 C500 C 1.19855 0.52898 -0.24444
 H501 H 1.11320 0.41877 -0.40607
 H502 H 1.06776 0.41416 -0.29065
 H503 H 1.18142 0.53001 -0.10142
 H504 H 1.15466 0.54063 -0.18950
 H505 H 1.22656 0.53580 -0.21537
 H506 H 1.19991 0.54665 -0.30313
 C507 C 0.54326 0.69496 -0.26430
 C508 C 0.56514 0.69909 -0.34310
 C509 C 0.58831 0.68222 -0.34034
 C510 C 0.58336 0.65641 -0.27189
 C511 C 0.55491 0.64636 -0.20435
 C512 C 0.53805 0.66895 -0.19712
 C513 C 0.49773 0.65855 -0.18205
 C514 C 0.50303 0.68674 -0.25521
 H515 H 0.60892 0.68718 -0.39358
 H516 H 0.59971 0.64206 -0.27712
 H517 H 0.49345 0.66714 -0.11272
 H518 H 0.47778 0.62901 -0.20253
 H519 H 0.50119 0.71121 -0.22801
 H520 H 0.48592 0.67353 -0.31768
 C521 C 0.32613 -0.16793 -0.25785
 C522 C 0.33927 -0.19267 -0.28114
 C523 C 0.36641 -0.19375 -0.22335
 C524 C 0.38432 -0.16613 -0.15455
 C525 C 0.37674 -0.13609 -0.14636
 C526 C 0.34485 -0.13988 -0.19326
 C527 C 0.33796 -0.11261 -0.24564
 C528 C 0.31711 -0.14361 -0.31583
 H529 H 0.37656 -0.21329 -0.23740
 H530 H 0.40700 -0.16593 -0.11567
 H531 H 0.36436 -0.08879 -0.27381
 H532 H 0.31901 -0.10461 -0.20826
 H533 H 0.33148 -0.13729 -0.38349
 H534 H 0.28608 -0.15372 -0.31808
 C535 C 0.51812 -0.14823 0.27554
 C536 C 0.54214 -0.13195 0.35060
 C537 C 0.56761 -0.09302 0.34832
 C538 C 0.56451 -0.07070 0.28020
 C539 C 0.53540 -0.08683 0.21392
 C540 C 0.51462 -0.12615 0.20902
 C541 C 0.47287 -0.15212 0.20051
 C542 C 0.47674 -0.17633 0.27292
 H543 H 0.58787 -0.07948 0.40309
 H544 H 0.58266 -0.04055 0.28490
 H545 H 0.46511 -0.16589 0.13220
 H546 H 0.45603 -0.13892 0.22401
 H547 H 0.47137 -0.20402 0.24629
 H548 H 0.46184 -0.17736 0.33788
 C549 C 0.36602 0.56029 0.27641
 C550 C 0.37883 0.56717 0.36726
 C551 C 0.41246 0.56600 0.38591
 C552 C 0.43335 0.56128 0.31571
 C553 C 0.42121 0.55666 0.22445
 C554 C 0.38628 0.55442 0.20663
 C555 C 0.37742 0.57654 0.14087
 C556 C 0.35563 0.58306 0.21689
 H557 H 0.42249 0.56737 0.45479
 H558 H 0.45869 0.56005 0.33323
 H559 H 0.35859 0.55830 0.08533
 H560 H 0.40320 0.60260 0.11833
 H561 H 0.32452 0.56907 0.20417
 H562 H 0.36892 0.61291 0.23939
 C563 C 1.16389 0.65919 0.27260
 C564 C 1.19125 0.65025 0.30166
 C565 C 1.19583 0.62356 0.24996
 C566 C 1.16896 0.60183 0.18244
 C567 C 1.13643 0.60542 0.16910
 C568 C 1.13660 0.63676 0.20927
 C569 C 1.10648 0.64176 0.25647
 C570 C 1.13662 0.66670 0.32521
 H571 H 1.21743 0.61657 0.26863
 H572 H 1.17121 0.57934 0.14957
 H573 H 1.08377 0.61558 0.28785
 H574 H 1.09627 0.65729 0.21389
 H575 H 1.13102 0.65487 0.39505
 H576 H 1.14403 0.69664 0.32152
 C577 C 0.40923 0.10957 0.30725
 C578 C 0.43846 0.14644 0.32343
 C579 C 0.46591 0.16300 0.25328
 C580 C 0.46848 0.14034 0.18278
 C581 C 0.44553 0.10100 0.18586
 C582 C 0.41312 0.08745 0.24149
 C583 C 0.38831 0.05198 0.29166
 C584 C 0.38308 0.07624 0.36350
 H585 H 0.48772 0.19223 0.25813
 H586 H 0.49063 0.15290 0.13217
 H587 H 0.40403 0.03827 0.31844
 H588 H 0.36179 0.03323 0.25369
 H589 H 0.39401 0.07427 0.43100
 H590 H 0.35369 0.07183 0.36493
 C591 C 0.63978 0.45014 0.25730
 C592 C 0.66572 0.47903 0.31414
 C593 C 0.67534 0.51600 0.29223
 C594 C 0.65431 0.52274 0.22623
 C595 C 0.62321 0.49251 0.18122
 C596 C 0.61919 0.45683 0.19168
 C597 C 0.58451 0.42012 0.20909
 C598 C 0.60708 0.41249 0.27974
 H599 H 0.69597 0.53925 0.33323
 H600 H 0.66002 0.55130 0.21775
 H601 H 0.57664 0.40115 0.14866
 H602 H 0.56147 0.42395 0.23974
 H603 H 0.61252 0.38936 0.25941
 H604 H 0.59606 0.41056 0.35034
 C605 C 0.86809 0.32899 0.35031
 C606 C 0.83222 0.32624 0.34913
 C607 C 0.82136 0.33667 0.26795
 C608 C 0.84864 0.35640 0.19947
 C609 C 0.88712 0.36678 0.21320
 C610 C 0.89477 0.34875 0.28400
 C611 C 0.92714 0.36111 0.34899
 C612 C 0.89779 0.33863 0.42188
 H613 H 0.79316 0.33323 0.26173
 H614 H 0.84042 0.36695 0.14146
 H615 H 0.94201 0.39188 0.36239
 H616 H 0.94588 0.34933 0.33091
 H617 H 0.89745 0.35662 0.47840
 H618 H 0.89927 0.31353 0.44414
   
