data_POSCAR
  _audit_creation_date              2014-09-24
  _audit_creation_method            'ToBaCCo'
  _symmetry_space_group_name_H-M    'P1'
  _symmetry_Int_Tables_number       1
  _symmetry_cell_setting            triclinic
  loop_
  _symmetry_equiv_pos_as_xyz
 x,y,z
_cell_length_a 38.6335
_cell_length_b 35.2854
_cell_length_c 36.2892
_cell_angle_alpha 93.747400
_cell_angle_beta 88.046600
_cell_angle_gamma 89.605100
loop_
  _atom_site_label
  _atom_site_type_symbol
  _atom_site_fract_x
  _atom_site_fract_y
  _atom_site_fract_z
N1 N 0.15079 1.23369 0.15509
 N2 N 0.12174 1.22665 0.17307
 C3 C 0.09817 1.25352 0.16728
 C4 C 0.11287 1.27906 0.14388
 C5 C 0.14655 1.26537 0.13677
 H6 H 0.07207 1.25362 0.17892
 H7 H 0.16647 1.27704 0.11933
 Cu8 Cu 0.11602 1.18222 0.20118
 Cu9 Cu 0.19075 1.19946 0.15602
 Cu10 Cu 0.18737 1.13831 0.22742
 N11 N 0.11446 1.14916 0.24162
 N12 N 0.14252 1.13281 0.25266
 C13 C 0.13393 1.11122 0.28077
 C14 C 0.09833 1.11417 0.28783
 C15 C 0.08704 1.13878 0.26225
 H16 H 0.15229 1.09410 0.29432
 H17 H 0.06090 1.14846 0.25845
 N18 N 0.22987 1.14711 0.19767
 N19 N 0.23113 1.16936 0.16979
 C20 C 0.26222 1.16477 0.15191
 C21 C 0.28127 1.13800 0.16914
 C22 C 0.25994 1.12782 0.19821
 H23 H 0.26950 1.17791 0.12673
 H24 H 0.26512 1.10625 0.21713
 H25 H 0.16960 1.15070 0.17682
 H26 H 0.17736 1.19220 0.20988
 N27 N 0.81349 0.75130 0.12944
 N28 N 0.83477 0.75136 0.15689
 C29 C 0.86291 0.73006 0.14615
 C30 C 0.85895 0.71615 0.10986
 C31 C 0.82710 0.73007 0.10041
 H32 H 0.88489 0.72581 0.16314
 H33 H 0.81464 0.72536 0.07429
 Cu34 Cu 0.82364 0.78045 0.20339
 Cu35 Cu 0.77003 0.77930 0.13284
 Cu36 Cu 0.76689 0.85338 0.20025
 N37 N 0.82007 0.82089 0.24240
 N38 N 0.79909 0.85003 0.24011
 C39 C 0.80388 0.87524 0.26884
 C40 C 0.82928 0.86125 0.29068
 C41 C 0.83873 0.82637 0.27293
 H42 H 0.78978 0.90177 0.27325
 H43 H 0.85883 0.80716 0.28042
 N44 N 0.73619 0.85052 0.15777
 N45 N 0.73697 0.82164 0.13278
 C46 C 0.71411 0.82802 0.10674
 C47 C 0.69796 0.86268 0.11566
 C48 C 0.71247 0.87605 0.14837
 H49 H 0.71019 0.80915 0.08259
 H50 H 0.70698 0.90295 0.16350
 H51 H 0.79656 0.82128 0.16121
 H52 H 0.76352 0.79646 0.18931
 N53 N 0.84054 1.25579 -0.16185
 N54 N 0.86172 1.24454 -0.18956
 C55 C 0.89151 1.26389 -0.18679
 C56 C 0.88883 1.28890 -0.15572
 C57 C 0.85596 1.28300 -0.14066
 H58 H 0.91330 1.26022 -0.20622
 H59 H 0.84425 1.29686 -0.11581
 Cu60 Cu 0.84815 1.20642 -0.22724
 Cu61 Cu 0.79470 1.23388 -0.15566
 Cu62 Cu 0.78785 1.14478 -0.20108
 N63 N 0.83962 1.15971 -0.25662
 N64 N 0.81633 1.13538 -0.24611
 C65 C 0.81778 1.10427 -0.26962
 C66 C 0.84361 1.10916 -0.29653
 C67 C 0.85666 1.14508 -0.28728
 H68 H 0.80174 1.07965 -0.26648
 H69 H 0.87796 1.15910 -0.30061
 N70 N 0.75481 1.16438 -0.16164
 N71 N 0.75741 1.19828 -0.14435
 C72 C 0.73169 1.20289 -0.11840
 C73 C 0.71167 1.17048 -0.11978
 C74 C 0.72704 1.14676 -0.14759
 H75 H 0.72795 1.22789 -0.09978
 H76 H 0.71907 1.11835 -0.15631
 H77 H 0.81847 1.18446 -0.17245
 H78 H 0.78751 1.20198 -0.20600
 N79 N 0.22113 0.75333 -0.16015
 N80 N 0.19427 0.74949 -0.18131
 C81 C 0.17563 0.71947 -0.17138
 C82 C 0.19155 0.70375 -0.14217
 C83 C 0.22059 0.72587 -0.13614
 H84 H 0.15106 0.71145 -0.18286
 H85 H 0.23901 0.72364 -0.11459
 Cu86 Cu 0.18377 0.78715 -0.21644
 Cu87 Cu 0.25144 0.79736 -0.16154
 Cu88 Cu 0.20341 0.87507 -0.18361
 N89 N 0.16601 0.83167 -0.23871
 N90 N 0.17142 0.86581 -0.22343
 C91 C 0.15298 0.89132 -0.24063
 C92 C 0.13582 0.87241 -0.26924
 C93 C 0.14500 0.83442 -0.26733
 H94 H 0.15334 0.92158 -0.23366
 H95 H 0.13575 0.81041 -0.28415
 N96 N 0.24724 0.87929 -0.15716
 N97 N 0.26633 0.84967 -0.15006
 C98 C 0.29557 0.86183 -0.13419
 C99 C 0.29503 0.90122 -0.13132
 C100 C 0.26392 0.91119 -0.14620
 H101 H 0.31582 0.84324 -0.12586
 H102 H 0.25419 0.93955 -0.14933
 H103 H 0.20475 0.82276 -0.16170
 H104 H 0.23204 0.82960 -0.20415
 Si105 Si 0.50175 1.03555 0.01146
 Si106 Si 0.03197 0.50495 0.98875
 Si107 Si 0.99677 -0.04893 0.50067
 C108 C 0.11378 0.33329 1.10428
 C109 C 0.09651 0.36349 1.08897
 C110 C 0.06148 0.37145 1.09930
 C111 C 0.04449 0.34975 1.12507
 C112 C 0.06165 0.31983 1.14004
 C113 C 0.09641 0.31064 1.12965
 C114 C 0.04371 0.40065 1.08340
 C115 C 0.06041 0.42199 1.05704
 C116 C 0.09561 0.41465 1.04695
 C117 C 0.11350 0.38550 1.06308
 C118 C 0.11202 0.43618 1.02035
 C119 C 0.09353 0.46418 1.00348
 C120 C 0.05853 0.47119 1.01324
 C121 C 0.04216 0.45012 1.04006
 H122 H 0.14049 0.32733 1.09580
 H123 H 0.01769 0.35566 1.13343
 H124 H 0.04709 0.30394 1.15964
 H125 H 0.01672 0.40639 1.09117
 H126 H 0.14041 0.37959 1.05509
 H127 H 0.13894 0.43093 1.01213
 H128 H 0.10643 0.47962 0.98229
 H129 H 0.01495 0.45516 1.04720
 C130 C -0.09142 0.66951 1.10048
 C131 C -0.06989 0.64545 1.07708
 C132 C -0.07341 0.64486 1.03836
 C133 C -0.09790 0.66849 1.02367
 C134 C -0.11940 0.69188 1.04703
 C135 C -0.11673 0.69239 1.08561
 C136 C -0.05294 0.62012 1.01488
 C137 C -0.02943 0.59529 1.02955
 C138 C -0.02547 0.59598 1.06819
 C139 C -0.04551 0.62133 1.09173
 C140 C -0.00204 0.57065 1.08256
 C141 C 0.01624 0.54399 1.05899
 C142 C 0.01138 0.54244 1.02081
 C143 C -0.01060 0.56890 1.00616
 H144 H -0.08916 0.66952 1.13015
 H145 H -0.10078 0.66850 0.99406
 H146 H -0.13813 0.70966 1.03470
 H147 H -0.05595 0.61951 0.98523
 H148 H -0.04273 0.62166 1.12139
 H149 H 0.00161 0.57094 1.11205
 H150 H 0.03369 0.52435 1.07075
 H151 H -0.01410 0.56790 0.97659
 C152 C -0.09394 0.34607 0.88403
 C153 C -0.06883 0.37134 0.89775
 C154 C -0.03378 0.36627 0.88586
 C155 C -0.02453 0.33620 0.86020
 C156 C -0.04970 0.31125 0.84658
 C157 C -0.08461 0.31578 0.85843
 C158 C -0.00855 0.39118 0.89993
 C159 C -0.01794 0.42105 0.92584
 C160 C -0.05307 0.42627 0.93748
 C161 C -0.07827 0.40145 0.92332
 C162 C -0.06238 0.45595 0.96354
 C163 C -0.03712 0.48002 0.97828
 C164 C -0.00223 0.47509 0.96691
 C165 C 0.00727 0.44553 0.94073
 H166 H -0.12075 0.35026 0.89317
 H167 H 0.00221 0.33184 0.85080
 H168 H -0.04161 0.28808 0.82713
 H169 H 0.01837 0.38716 0.89093
 H170 H -0.10517 0.40539 0.93245
 H171 H -0.08913 0.46021 0.97294
 H172 H -0.04504 0.50190 0.99914
 H173 H 0.03431 0.44133 0.93237
 C174 C 0.15122 0.64969 0.86880
 C175 C 0.13585 0.62403 0.89233
 C176 C 0.14689 0.62288 0.92900
 C177 C 0.17375 0.64649 0.94114
 C178 C 0.18889 0.67188 0.91761
 C179 C 0.17746 0.67427 0.88143
 C180 C 0.13048 0.59874 0.95321
 C181 C 0.10306 0.57577 0.94128
 C182 C 0.09261 0.57603 0.90431
 C183 C 0.10913 0.60010 0.88004
 C184 C 0.06524 0.55282 0.89253
 C185 C 0.04782 0.53033 0.91736
 C186 C 0.05763 0.53060 0.95421
 C187 C 0.08536 0.55316 0.96600
 H188 H 0.14241 0.65083 0.84087
 H189 H 0.18262 0.64586 0.96911
 H190 H 0.20885 0.69044 0.92834
 H191 H 0.13863 0.59836 0.98150
 H192 H 0.10075 0.60075 0.85186
 H193 H 0.05686 0.55265 0.86433
 H194 H 0.02610 0.51362 0.90789
 H195 H 0.09264 0.55371 0.99462
 C196 C 1.09316 0.07099 0.33830
 C197 C 1.07271 0.05235 0.36417
 C198 C 1.03648 0.05837 0.36614
 C199 C 1.02134 0.08292 0.34248
 C200 C 1.04175 0.10137 0.31691
 C201 C 1.07797 0.09571 0.31421
 C202 C 1.01588 0.03986 0.39175
 C203 C 1.03103 0.01545 0.41563
 C204 C 1.06726 0.00939 0.41396
 C205 C 1.08790 0.02781 0.38813
 C206 C 1.08215 -0.01477 0.43840
 C207 C 1.06131 -0.03256 0.46432
 C208 C 1.02533 -0.02671 0.46591
 C209 C 1.01041 -0.00273 0.44145
 H210 H 1.12084 0.06597 0.33722
 H211 H 0.99360 0.08788 0.34372
 H212 H 1.02867 0.11996 0.29930
 H213 H 0.98807 0.04455 0.39317
 H214 H 1.11572 0.02318 0.38678
 H215 H 1.10988 -0.01967 0.43765
 H216 H 1.07347 -0.05061 0.48316
 H217 H 0.98279 0.00261 0.44299
 C218 C 1.10732 -0.13028 0.67124
 C219 C 1.08678 -0.11292 0.64573
 C220 C 1.07061 -0.07752 0.65586
 C221 C 1.07653 -0.05921 0.69039
 C222 C 1.09855 -0.07552 0.71468
 C223 C 1.11390 -0.11143 0.70576
 C224 C 1.04932 -0.06051 0.63108
 C225 C 1.04551 -0.07729 0.59542
 C226 C 1.06321 -0.11154 0.58434
 C227 C 1.08301 -0.12972 0.60989
 C228 C 1.06148 -0.12634 0.54760
 C229 C 1.04225 -0.10745 0.52228
 C230 C 1.02295 -0.07469 0.53373
 C231 C 1.02500 -0.05963 0.57034
 H232 H 1.11951 -0.15749 0.66336
 H233 H 1.06456 -0.03191 0.69843
 H234 H 1.10250 -0.06031 0.74105
 H235 H 1.03644 -0.03368 0.63922
 H236 H 1.09618 -0.15632 0.60161
 H237 H 1.07568 -0.15196 0.53823
 H238 H 1.04293 -0.11821 0.49367
 H239 H 1.01149 -0.03353 0.57936
 C240 C 0.86715 -0.13981 0.34373
 C241 C 0.88321 -0.12083 0.37373
 C242 C 0.87612 -0.08188 0.38243
 C243 C 0.85193 -0.06304 0.36221
 C244 C 0.83572 -0.08215 0.33274
 C245 C 0.84369 -0.12053 0.32234
 C246 C 0.89389 -0.06212 0.41064
 C247 C 0.91878 -0.08083 0.43021
 C248 C 0.92469 -0.12021 0.42282
 C249 C 0.90682 -0.14001 0.39466
 C250 C 0.94910 -0.13884 0.44312
 C251 C 0.96902 -0.11822 0.46876
 C252 C 0.96509 -0.07869 0.47420
 C253 C 0.93882 -0.06047 0.45607
 H254 H 0.87323 -0.16952 0.33718
 H255 H 0.84595 -0.03326 0.36875
 H256 H 0.81785 -0.06604 0.31750
 H257 H 0.88904 -0.03199 0.41663
 H258 H 0.91196 -0.17005 0.38842
 H259 H 0.95348 -0.16916 0.43842
 H260 H 0.98798 -0.13333 0.48335
 H261 H 0.93470 -0.03016 0.46110
 C262 C 0.88290 0.09190 0.65029
 C263 C 0.89680 0.06474 0.62379
 C264 C 0.88326 0.02763 0.62134
 C265 C 0.85539 0.01865 0.64476
 C266 C 0.84173 0.04578 0.67120
 C267 C 0.85570 0.08263 0.67498
 C268 C 0.89820 -0.00007 0.59602
 C269 C 0.92678 0.00886 0.57340
 C270 C 0.93983 0.04628 0.57533
 C271 C 0.92463 0.07400 0.60032
 C272 C 0.96853 0.05511 0.55292
 C273 C 0.98478 0.02693 0.52956
 C274 C 0.97236 -0.01037 0.52793
 C275 C 0.94316 -0.01924 0.54961
 H276 H 0.89398 0.12000 0.65178
 H277 H 0.84449 -0.00960 0.64309
 H278 H 0.82063 0.03723 0.68903
 H279 H 0.88807 -0.02871 0.59448
 H280 H 0.93498 0.10254 0.60210
 H281 H 0.97893 0.08359 0.55414
 H282 H 1.00770 0.03420 0.51368
 H283 H 0.93386 -0.04819 0.54870
 C284 C 0.33676 1.13613 0.13043
 C285 C 0.36660 1.11665 0.11585
 C286 C 0.37387 1.07975 0.12680
 C287 C 0.35204 1.06347 0.15280
 C288 C 0.32260 1.08296 0.16714
 C289 C 0.31426 1.11919 0.15579
 C290 C 0.40236 1.05921 0.11098
 C291 C 0.42371 1.07490 0.08414
 C292 C 0.41736 1.11223 0.07390
 C293 C 0.38885 1.13297 0.08993
 C294 C 0.43910 1.12761 0.04696
 C295 C 0.46597 1.10564 0.02943
 C296 C 0.47147 1.06823 0.03881
 C297 C 0.45062 1.05321 0.06647
 H298 H 0.33088 1.16417 0.12169
 H299 H 0.35733 1.03528 0.16151
 H300 H 0.30586 1.06886 0.18631
 H301 H 0.40745 1.03064 0.11894
 H302 H 0.38353 1.16135 0.08162
 H303 H 0.43472 1.15617 0.03874
 H304 H 0.48151 1.11742 0.00766
 H305 H 0.45458 1.02406 0.07330
 C306 C 0.65648 1.13591 -0.10820
 C307 C 0.62910 1.12561 -0.08461
 C308 C 0.62688 1.14116 -0.04768
 C309 C 0.65141 1.16782 -0.03544
 C310 C 0.67844 1.17819 -0.05924
 C311 C 0.68159 1.16180 -0.09554
 C312 C 0.60067 1.12923 -0.02344
 C313 C 0.57675 1.10182 -0.03566
 C314 C 0.57828 1.08729 -0.07297
 C315 C 0.60435 1.09937 -0.09721
 C316 C 0.55435 1.05994 -0.08513
 C317 C 0.53004 1.04591 -0.06026
 C318 C 0.52911 1.05927 -0.02301
 C319 C 0.55206 1.08769 -0.01092
 H320 H 0.65837 1.12355 -0.13634
 H321 H 0.65005 1.18017 -0.00729
 H322 H 0.69750 1.19814 -0.04883
 H323 H 0.59937 1.14060 0.00508
 H324 H 0.60589 1.08767 -0.12562
 H325 H 0.55513 1.04856 -0.11361
 H326 H 0.51294 1.02359 -0.07003
 H327 H 0.55156 1.09768 0.01800
 C328 C 0.34833 0.91355 -0.09469
 C329 C 0.37355 0.93824 -0.08015
 C330 C 0.37259 0.97708 -0.08755
 C331 C 0.34658 0.99051 -0.10940
 C332 C 0.32152 0.96583 -0.12361
 C333 C 0.32200 0.92715 -0.11637
 C334 C 0.39744 1.00195 -0.07275
 C335 C 0.42308 0.98858 -0.05033
 C336 C 0.42415 0.94974 -0.04294
 C337 C 0.39947 0.92477 -0.05804
 C338 C 0.44959 0.93668 -0.02003
 C339 C 0.47344 0.96196 -0.00423
 C340 C 0.47249 1.00046 -0.01154
 C341 C 0.44734 1.01361 -0.03465
 H342 H 0.34899 0.88394 -0.08856
 H343 H 0.34552 1.02016 -0.11543
 H344 H 0.30193 0.97719 -0.14051
 H345 H 0.39658 1.03177 -0.07834
 H346 H 0.40022 0.89500 -0.05227
 H347 H 0.45068 0.90708 -0.01386
 H348 H 0.49209 0.95136 0.01420
 H349 H 0.44631 1.04350 -0.03989
 C350 C 0.65082 0.91112 0.11000
 C351 C 0.62686 0.92958 0.08886
 C352 C 0.62484 0.91915 0.05069
 C353 C 0.64651 0.89034 0.03441
 C354 C 0.67003 0.87195 0.05565
 C355 C 0.67253 0.88214 0.09357
 C356 C 0.60119 0.93759 0.02937
 C357 C 0.57921 0.96610 0.04575
 C358 C 0.58088 0.97639 0.08397
 C359 C 0.60482 0.95818 0.10527
 C360 C 0.55855 1.00477 0.10017
 C361 C 0.53464 1.02256 0.07876
 C362 C 0.53273 1.01215 0.04094
 C363 C 0.55540 0.98437 0.02448
 H364 H 0.65223 0.91904 0.13926
 H365 H 0.64531 0.88203 0.00520
 H366 H 0.68664 0.85011 0.04209
 H367 H 0.59977 0.92962 0.00008
 H368 H 0.60621 0.96614 0.13456
 H369 H 0.55957 1.01320 0.12936
 H370 H 0.51793 1.04460 0.09179
 H371 H 0.55425 0.97673 -0.00489
   
