data_POSCAR
  _audit_creation_date              2014-09-24
  _audit_creation_method            'ToBaCCo'
  _symmetry_space_group_name_H-M    'P1'
  _symmetry_Int_Tables_number       1
  _symmetry_cell_setting            triclinic
  loop_
  _symmetry_equiv_pos_as_xyz
 x,y,z
_cell_length_a 24.8452
_cell_length_b 25.3199
_cell_length_c 24.2129
_cell_angle_alpha 89.717500
_cell_angle_beta 90.622000
_cell_angle_gamma 87.312000
loop_
  _atom_site_label
  _atom_site_type_symbol
  _atom_site_fract_x
  _atom_site_fract_y
  _atom_site_fract_z
C1 C 0.50768 0.97678 -0.65071
 C2 C 0.45944 0.97107 -0.62275
 C3 C 0.45849 0.97777 -0.56523
 C4 C 0.50512 0.99182 -0.53610
 C5 C 0.55190 1.00191 -0.56628
 C6 C 0.55321 0.99542 -0.62373
 C7 C 0.50518 0.99633 -0.47459
 C8 C 0.55319 0.98699 -0.44408
 C9 C 0.55519 0.99488 -0.38687
 C10 C 0.50686 1.00732 -0.35883
 C11 C 0.45760 1.01307 -0.38811
 C12 C 0.45763 1.00988 -0.44586
 H13 H 0.50882 0.96789 -0.69438
 H14 H 0.42236 0.96944 -0.54309
 H15 H 0.58699 1.01651 -0.54549
 H16 H 0.58982 0.97416 -0.46490
 H17 H 0.50731 1.01293 -0.31473
 H18 H 0.42005 1.01769 -0.46804
 C19 C -0.64680 1.48716 0.01189
 C20 C -0.61402 1.43533 0.01695
 C21 C -0.55393 1.44355 0.01758
 C22 C -0.53210 1.49287 0.00663
 C23 C -0.56747 1.53769 -0.00142
 C24 C -0.62373 1.53583 0.00357
 C25 C -0.47191 1.49730 0.00157
 C26 C -0.44813 1.54616 0.01035
 C27 C -0.38946 1.55429 0.00055
 C28 C -0.35867 1.50427 -0.01476
 C29 C -0.38272 1.45591 -0.01946
 C30 C -0.43848 1.45299 -0.01324
 H31 H -0.69017 1.48609 0.01478
 H32 H -0.52795 1.40886 0.02526
 H33 H -0.55084 1.57455 -0.01307
 H34 H -0.47197 1.58019 0.02421
 H35 H -0.31585 1.50562 -0.02213
 H36 H -0.45581 1.41561 -0.02209
 C37 C -0.02043 0.35912 0.50098
 C38 C -0.00540 0.38465 0.45167
 C39 C 0.00198 0.43945 0.45312
 C40 C -0.00814 0.46921 0.50117
 C41 C -0.02445 0.44288 0.54888
 C42 C -0.02874 0.38803 0.55002
 C43 C -0.00229 0.52770 0.50176
 C44 C 0.01217 0.55356 0.55087
 C45 C 0.01338 0.60895 0.55335
 C46 C 0.00653 0.63801 0.50378
 C47 C -0.00597 0.61285 0.45419
 C48 C -0.01258 0.55833 0.45380
 H49 H -0.02706 0.31746 0.50155
 H50 H 0.01565 0.45904 0.41631
 H51 H -0.03393 0.46500 0.58592
 H52 H 0.02127 0.53072 0.58800
 H53 H 0.01078 0.68023 0.50260
 H54 H -0.02518 0.54007 0.41576
 O55 O -0.05701 0.99678 -0.14731
 O56 O -0.07719 0.98642 0.13528
 O57 O -0.12266 0.91496 -0.01403
 O58 O -0.14314 1.05678 -0.00839
 O59 O -0.08839 1.12729 0.00162
 O60 O -0.04530 0.85573 -0.01233
 O61 O -0.13770 0.98512 0.06260
 O62 O -0.12544 0.98427 -0.08543
 Zr63 Zr -0.08867 0.98977 -0.00774
 O64 O -0.05460 1.03941 0.04813
 O65 O -0.03239 0.94914 -0.05545
 C66 C -0.10655 0.98753 -0.13474
 C67 C -0.12534 0.98507 0.11480
 C68 C -0.09981 0.86440 -0.01510
 C69 C -0.13515 1.10690 -0.00357
 H70 H -0.06061 0.91798 0.06410
 O71 O -0.03960 0.94366 0.04353
 H72 H -0.07131 1.06545 -0.07659
 O73 O -0.04698 1.04435 -0.05149
 O74 O 0.06461 0.99556 0.14983
 O75 O 0.08828 1.01567 -0.13246
 O76 O 0.02391 0.85988 0.06923
 O77 O -0.02216 1.13021 0.08192
 O78 O -0.00907 1.13867 -0.06883
 O79 O 0.02802 0.86747 -0.08054
 O80 O 0.15292 0.94133 0.01275
 O81 O 0.13086 1.08415 0.01542
 O82 O 0.09776 0.87118 0.00199
 O83 O 0.05561 1.14127 0.01134
 O84 O 0.00576 0.92004 0.13862
 O85 O 0.02577 0.93617 -0.14359
 O86 O 0.00853 1.07679 -0.13683
 O87 O -0.01910 1.06107 0.14465
 O88 O 0.13515 1.00741 0.09062
 O89 O 0.14651 1.02065 -0.05783
 Zr90 Zr -0.00259 0.99336 0.09690
 Zr91 Zr 0.01222 1.00402 -0.09545
 Zr92 Zr 0.01926 0.90636 -0.00346
 Zr93 Zr -0.00985 1.09187 0.00475
 Zr94 Zr 0.09834 1.00835 0.01110
 O95 O 0.04912 1.05382 -0.04142
 O96 O 0.05680 0.95294 0.05354
 C97 C 0.11491 1.00121 0.13942
 C98 C 0.13540 1.02240 -0.11013
 C99 C 0.01698 0.87269 0.12052
 C100 C -0.02477 1.11066 0.13162
 C101 C 0.00016 1.12470 -0.11972
 C102 C 0.02956 0.88657 -0.13040
 C103 C 0.14458 0.89123 0.00825
 C104 C 0.10716 1.13103 0.01427
 H105 H 0.09198 0.94056 -0.06822
 O106 O 0.06412 0.95914 -0.04572
 H107 H 0.05899 1.07189 0.08408
 O108 O 0.04141 1.04866 0.05736
 C109 C 0.41370 0.96204 0.34518
 C110 C 0.36143 0.97882 0.35946
 C111 C 0.32029 0.99052 0.31597
 C112 C 0.26550 0.98872 0.32837
 C113 C 0.22637 0.99914 0.28726
 C114 C 0.24165 1.01154 0.23291
 C115 C 0.29631 1.01649 0.22167
 C116 C 0.33518 1.00634 0.26263
 C117 C 0.20264 1.01853 0.18652
 C118 C 0.15097 0.99976 0.18781
 H119 H 0.35142 0.98891 0.40160
 H120 H 0.25304 0.97868 0.36971
 H121 H 0.18455 0.99758 0.29859
 H122 H 0.30916 1.02754 0.18076
 H123 H 0.37685 1.01156 0.25226
 H124 H 0.21640 1.03583 0.14846
 H125 H 0.42015 0.94974 0.30286
 H126 H 0.13594 0.98239 0.22512
 C127 C -0.40017 1.00657 0.34698
 C128 C -0.40103 1.01560 0.28983
 C129 C -0.35334 1.01244 0.25405
 C130 C -0.30117 0.99980 0.27439
 C131 C -0.25837 0.99225 0.23809
 C132 C -0.26674 0.99743 0.18059
 C133 C -0.31872 1.01094 0.16058
 C134 C -0.36150 1.01842 0.19688
 C135 C -0.22284 0.98976 0.14018
 C136 C -0.16862 0.98435 0.15517
 H137 H -0.43936 1.02366 0.26909
 H138 H -0.29289 0.99471 0.31801
 H139 H -0.21939 0.98167 0.25597
 H140 H -0.32638 1.01556 0.11664
 H141 H -0.40138 1.02798 0.18005
 H142 H -0.23352 0.99123 0.09665
 H143 H -0.36293 1.00971 0.36998
 H144 H -0.15624 0.98363 0.19800
 C145 C -0.39098 0.99103 -0.35936
 C146 C -0.38002 1.00909 -0.30622
 C147 C -0.32435 1.01085 -0.28413
 C148 C -0.31499 1.00196 -0.22763
 C149 C -0.26295 1.00367 -0.20550
 C150 C -0.21931 1.01545 -0.23930
 C151 C -0.22887 1.02642 -0.29541
 C152 C -0.28088 1.02350 -0.31789
 C153 C -0.16427 1.01695 -0.21554
 C154 C -0.14608 0.97799 -0.17830
 H155 H -0.41246 1.02168 -0.27928
 H156 H -0.34794 0.99305 -0.20069
 H157 H -0.25691 0.99638 -0.16169
 H158 H -0.19598 1.03634 -0.32194
 H159 H -0.28718 1.03208 -0.36137
 H160 H -0.14002 1.05043 -0.22407
 H161 H -0.35733 0.97577 -0.38358
 H162 H -0.17146 0.94499 -0.17131
 C163 C 0.40519 1.02247 -0.36020
 C164 C 0.39563 1.00497 -0.30661
 C165 C 0.34210 1.00954 -0.28035
 C166 C 0.33984 1.01251 -0.22271
 C167 C 0.29038 1.01459 -0.19584
 C168 C 0.24165 1.01353 -0.22615
 C169 C 0.24395 1.00959 -0.28388
 C170 C 0.29364 1.00790 -0.31087
 C171 C 0.18860 1.01346 -0.19830
 C172 C 0.18162 1.03301 -0.14507
 H173 H 0.42852 0.98703 -0.28239
 H174 H 0.37662 1.01301 -0.19829
 H175 H 0.29098 1.01550 -0.15121
 H176 H 0.20720 1.00756 -0.30810
 H177 H 0.29396 1.00375 -0.35531
 H178 H 0.15509 0.99601 -0.21926
 H179 H 0.37208 1.04051 -0.38411
 H180 H 0.21410 1.05294 -0.12519
 C181 C 0.36045 1.37862 0.02057
 C182 C 0.30581 1.37295 0.00983
 C183 C 0.27976 1.32164 0.00946
 C184 C 0.22635 1.32077 -0.00962
 C185 C 0.19954 1.27372 -0.01081
 C186 C 0.22508 1.22629 0.00845
 C187 C 0.27911 1.22666 0.02610
 C188 C 0.30629 1.27403 0.02686
 C189 C 0.19574 1.17662 0.01033
 C190 C 0.13993 1.17767 0.01681
 H191 H 0.28085 1.40733 -0.00230
 H192 H 0.20520 1.35672 -0.02400
 H193 H 0.15891 1.27474 -0.02740
 H194 H 0.29992 1.19045 0.04020
 H195 H 0.34764 1.27345 0.04147
 H196 H 0.21830 1.13905 0.00796
 H197 H 0.37343 1.40752 0.01874
 H198 H 0.11815 1.21515 0.02288
 C199 C 0.34062 0.58079 -0.00060
 C200 C 0.35475 0.63357 -0.00549
 C201 C 0.31298 0.67747 -0.00779
 C202 C 0.32447 0.72720 0.01360
 C203 C 0.28453 0.76820 0.01484
 C204 C 0.23240 0.76016 -0.00595
 C205 C 0.22170 0.71096 -0.02896
 C206 C 0.26147 0.67029 -0.03036
 C207 C 0.18735 0.80060 -0.00348
 C208 C 0.19229 0.85411 0.00883
 H209 H 0.39637 0.64400 -0.00321
 H210 H 0.36403 0.73388 0.03067
 H211 H 0.29449 0.80536 0.03316
 H212 H 0.18217 0.70379 -0.04590
 H213 H 0.25157 0.63334 -0.04936
 H214 H 0.14759 0.78734 -0.01356
 H215 H 0.29802 0.57412 0.00261
 H216 H 0.23141 0.86968 0.01661
 C217 C -0.36135 0.61339 0.00523
 C218 C -0.30567 0.61703 0.00376
 C219 C -0.27829 0.66761 0.00112
 C220 C -0.22268 0.66581 -0.00842
 C221 C -0.19483 0.71221 -0.01247
 C222 C -0.22198 0.76187 -0.00672
 C223 C -0.27770 0.76381 0.00320
 C224 C -0.30576 0.71710 0.00694
 C225 C -0.19263 0.81154 -0.00955
 C226 C -0.13731 0.81059 -0.01805
 H227 H -0.28054 0.58106 0.00227
 H228 H -0.20060 0.62821 -0.01315
 H229 H -0.15193 0.70896 -0.01991
 H230 H -0.29952 0.80149 0.00820
 H231 H -0.34866 0.71974 0.01456
 H232 H -0.21428 0.84903 -0.00236
 H233 H -0.37570 0.58368 0.00292
 H234 H -0.12118 0.83880 -0.01666
 C235 C -0.34720 1.40902 -0.03210
 C236 C -0.35361 1.35889 -0.00938
 C237 C -0.30929 1.31742 -0.00887
 C238 C -0.32126 1.26388 -0.00542
 C239 C -0.27982 1.22431 -0.00259
 C240 C -0.22540 1.23774 -0.00259
 C241 C -0.21370 1.29138 -0.00502
 C242 C -0.25493 1.33070 -0.00811
 C243 C -0.17944 1.19806 0.00107
 C244 C -0.18331 1.14345 -0.00520
 H245 H -0.39082 1.35047 0.01109
 H246 H -0.36279 1.25266 -0.00490
 H247 H -0.29088 1.18366 0.00049
 H248 H -0.17231 1.30309 -0.00414
 H249 H -0.24387 1.37151 -0.00828
 H250 H -0.13977 1.21315 0.00759
 H251 H -0.31066 1.41602 -0.05436
 H252 H -0.22193 1.12677 -0.01275
 C253 C 0.00131 1.35844 0.40050
 C254 C -0.00449 1.30429 0.39178
 C255 C -0.00342 1.27884 0.33652
 C256 C 0.00337 1.22359 0.33430
 C257 C 0.00048 1.19707 0.28405
 C258 C -0.00997 1.22515 0.23448
 C259 C -0.01481 1.28051 0.23613
 C260 C -0.01206 1.30722 0.28666
 C261 C -0.01474 1.19716 0.18105
 C262 C -0.03329 1.14612 0.17876
 H263 H -0.00969 1.27820 0.42647
 H264 H 0.01064 1.20066 0.37176
 H265 H 0.00684 1.15450 0.28428
 H266 H -0.02221 1.30302 0.19842
 H267 H -0.01834 1.34973 0.28629
 H268 H -0.00214 1.21627 0.14353
 H269 H 0.01145 1.38221 0.36517
 H270 H -0.04849 1.12847 0.21596
 C271 C -0.04200 1.36321 -0.39630
 C272 C -0.03020 1.31016 -0.38319
 C273 C -0.03619 1.28747 -0.32704
 C274 C -0.04088 1.23275 -0.32210
 C275 C -0.04099 1.20855 -0.27025
 C276 C -0.03557 1.23838 -0.22181
 C277 C -0.03361 1.29351 -0.22626
 C278 C -0.03343 1.31793 -0.27850
 C279 C -0.02946 1.21119 -0.16749
 C280 C 0.00223 1.16443 -0.16389
 H281 H -0.01469 1.28372 -0.41477
 H282 H -0.04361 1.20842 -0.35861
 H283 H -0.04440 1.16612 -0.26806
 H284 H -0.02975 1.31735 -0.18953
 H285 H -0.02873 1.36013 -0.28055
 H286 H -0.05065 1.22665 -0.13176
 H287 H -0.05834 1.38893 -0.36445
 H288 H 0.02479 1.15210 -0.20008
 C289 C 0.02009 0.63298 -0.39469
 C290 C 0.01032 0.68713 -0.38505
 C291 C 0.01317 0.71317 -0.33034
 C292 C -0.00059 0.76748 -0.32826
 C293 C 0.00145 0.79486 -0.27863
 C294 C 0.01785 0.76871 -0.22951
 C295 C 0.03017 0.71413 -0.23083
 C296 C 0.02839 0.68652 -0.28087
 C297 C 0.02148 0.79822 -0.17707
 C298 C 0.03641 0.85056 -0.17725
 H299 H -0.00341 0.71259 -0.41871
 H300 H -0.01307 0.78907 -0.36534
 H301 H -0.01044 0.83653 -0.27881
 H302 H 0.04221 0.69306 -0.19332
 H303 H 0.03925 0.64475 -0.28011
 H304 H 0.01123 0.77918 -0.13869
 H305 H 0.02952 0.60732 -0.35981
 H306 H 0.04937 0.86788 -0.21558
 C307 C -0.01355 0.64389 0.40285
 C308 C 0.02243 0.68214 0.38862
 C309 C 0.01402 0.71729 0.34040
 C310 C 0.05881 0.73346 0.31114
 C311 C 0.05217 0.76950 0.26748
 C312 C 0.00065 0.79092 0.25343
 C313 C -0.04410 0.77525 0.28309
 C314 C -0.03762 0.73812 0.32583
 C315 C -0.00659 0.83193 0.21035
 C316 C 0.02227 0.82984 0.16139
 H317 H 0.05895 0.68549 0.41299
 H318 H 0.09901 0.71837 0.32233
 H319 H 0.08744 0.78201 0.24601
 H320 H -0.08404 0.79189 0.27326
 H321 H -0.07264 0.72720 0.34873
 H322 H -0.03709 0.86337 0.21626
 H323 H -0.04607 0.63488 0.37478
 H324 H 0.04754 0.79511 0.15193
   
