data_POSCAR
  _audit_creation_date              2014-09-24
  _audit_creation_method            'ToBaCCo'
  _symmetry_space_group_name_H-M    'P1'
  _symmetry_Int_Tables_number       1
  _symmetry_cell_setting            triclinic
  loop_
  _symmetry_equiv_pos_as_xyz
 x,y,z
_cell_length_a 47.7335
_cell_length_b 46.0586
_cell_length_c 45.3910
_cell_angle_alpha 92.011600
_cell_angle_beta 90.033300
_cell_angle_gamma 93.098400
loop_
  _atom_site_label
  _atom_site_type_symbol
  _atom_site_fract_x
  _atom_site_fract_y
  _atom_site_fract_z
N1 N 0.58084 0.67438 0.62639
 N2 N 0.56849 0.66119 0.64850
 C3 C 0.54566 0.67547 0.65649
 C4 C 0.54352 0.69867 0.63835
 C5 C 0.56619 0.69738 0.61945
 H6 H 0.53179 0.66979 0.67447
 H7 H 0.57212 0.71251 0.60258
 Cu8 Cu 0.58378 0.62715 0.66530
 Cu9 Cu 0.61604 0.66196 0.60971
 Cu10 Cu 0.64544 0.60333 0.64159
 N11 N 0.60030 0.59398 0.68253
 N12 N 0.62460 0.58499 0.67343
 C13 C 0.63110 0.56178 0.68878
 C14 C 0.60960 0.55591 0.70857
 C15 C 0.59046 0.57675 0.70400
 H16 H 0.64984 0.54995 0.68539
 H17 H 0.57078 0.57902 0.71543
 N18 N 0.66325 0.62456 0.60900
 N19 N 0.65164 0.64625 0.59619
 C20 C 0.66841 0.65547 0.57413
 C21 C 0.69167 0.63883 0.57321
 C22 C 0.68779 0.61959 0.59563
 H23 H 0.66422 0.67322 0.56010
 H24 H 0.70178 0.60301 0.60148
 H25 H 0.61110 0.61881 0.62068
 H26 H 0.62989 0.64422 0.64792
 N27 N 0.92779 0.34023 0.09957
 N28 N 0.93879 0.35393 0.12307
 C29 C 0.95979 0.33869 0.13331
 C30 C 0.96188 0.31402 0.11538
 C31 C 0.94123 0.31567 0.09411
 H32 H 0.97259 0.34505 0.15238
 H33 H 0.93663 0.30068 0.07565
 Cu34 Cu 0.92494 0.39063 0.13776
 Cu35 Cu 0.89811 0.35657 0.07701
 Cu36 Cu 0.85813 0.40207 0.12005
 N37 N 0.90536 0.42266 0.15556
 N38 N 0.87906 0.42678 0.14903
 C39 C 0.87031 0.44939 0.16552
 C40 C 0.89245 0.46007 0.18321
 C41 C 0.91433 0.44264 0.17628
 H42 H 0.84943 0.45732 0.16460
 H43 H 0.93507 0.44412 0.18600
 N44 N 0.84496 0.38389 0.08216
 N45 N 0.86072 0.36761 0.06521
 C46 C 0.84708 0.36076 0.03976
 C47 C 0.82146 0.37327 0.04077
 C48 C 0.82074 0.38779 0.06796
 H49 H 0.85533 0.34798 0.02163
 H50 H 0.80444 0.40127 0.07627
 H51 H 0.89402 0.39855 0.09627
 H52 H 0.88252 0.36575 0.11710
 N53 N 0.41499 0.15479 -0.08298
 N54 N 0.42113 0.15040 -0.11096
 C55 C 0.44254 0.16900 -0.11822
 C56 C 0.45021 0.18585 -0.09334
 C57 C 0.43242 0.17612 -0.07138
 H58 H 0.45182 0.17002 -0.13990
 H59 H 0.43200 0.18413 -0.04870
 Cu60 Cu 0.40093 0.12026 -0.13483
 Cu61 Cu 0.38479 0.13239 -0.06390
 Cu62 Cu 0.33620 0.09950 -0.11310
 N63 N 0.37875 0.08991 -0.15646
 N64 N 0.35314 0.08216 -0.14810
 C65 C 0.34207 0.06170 -0.16725
 C66 C 0.36192 0.05611 -0.18854
 C67 C 0.38498 0.07444 -0.18108
 H68 H 0.32119 0.05152 -0.16568
 H69 H 0.40468 0.07662 -0.19273
 N70 N 0.32771 0.10799 -0.07135
 N71 N 0.34661 0.11918 -0.05233
 C72 C 0.33476 0.12135 -0.02549
 C73 C 0.30708 0.11117 -0.02780
 C74 C 0.30331 0.10277 -0.05717
 H75 H 0.34530 0.13028 -0.00584
 H76 H 0.28439 0.09325 -0.06748
 H77 H 0.37451 0.09821 -0.09452
 H78 H 0.36354 0.13552 -0.10203
 N79 N 0.09051 0.81802 0.37577
 N80 N 0.08152 0.83047 0.35218
 C81 C 0.05737 0.81660 0.34298
 C82 C 0.05077 0.79445 0.36189
 C83 C 0.07226 0.79591 0.38253
 H84 H 0.04534 0.82218 0.32399
 H85 H 0.07472 0.78186 0.40084
 Cu86 Cu 0.10205 0.86387 0.33611
 Cu87 Cu 0.12558 0.83106 0.39547
 Cu88 Cu 0.16267 0.89038 0.36643
 N89 N 0.12280 0.89711 0.32000
 N90 N 0.14658 0.90737 0.33193
 C91 C 0.15648 0.93033 0.31677
 C92 C 0.13787 0.93478 0.29427
 C93 C 0.11672 0.91327 0.29691
 H94 H 0.17569 0.94306 0.32183
 H95 H 0.09833 0.90962 0.28311
 N96 N 0.17545 0.87019 0.40118
 N97 N 0.16147 0.84750 0.41211
 C98 C 0.17581 0.83835 0.43530
 C99 C 0.19978 0.85620 0.43924
 C100 C 0.19894 0.87614 0.41723
 H101 H 0.16941 0.82000 0.44841
 H102 H 0.21445 0.89343 0.41293
 H103 H 0.12523 0.87387 0.38349
 H104 H 0.14487 0.84878 0.35896
 C105 C 0.08450 0.13595 0.12114
 N106 N 0.10646 0.13813 0.10220
 C107 C 0.12702 0.11895 0.10283
 N108 N 0.12564 0.09752 0.12269
 C109 C 0.10371 0.09517 0.14171
 N110 N 0.08307 0.11428 0.14067
 C111 C 0.40076 0.86096 0.61219
 N112 N 0.40363 0.88059 0.63520
 C113 C 0.38572 0.90238 0.63840
 N114 N 0.36485 0.90455 0.61836
 C115 C 0.36175 0.88500 0.59535
 N116 N 0.37980 0.86326 0.59231
 C117 C 0.87548 0.65387 0.38289
 N118 N 0.85334 0.65550 0.40148
 C119 C 0.82935 0.63870 0.39705
 N120 N 0.82709 0.61957 0.37368
 C121 C 0.84965 0.61629 0.35342
 N122 N 0.87411 0.63483 0.35939
 C123 C 0.60580 0.35303 -0.12285
 N124 N 0.62470 0.35186 -0.10057
 C125 C 0.64720 0.37114 -0.09872
 N126 N 0.65071 0.39180 -0.11923
 C127 C 0.63183 0.39331 -0.14142
 N128 N 0.60941 0.37382 -0.14318
 C129 C -0.01847 0.29297 0.11827
 C130 C -0.01910 0.26719 0.10111
 C131 C 0.00272 0.24589 0.10356
 C132 C -0.00473 0.21607 0.10041
 C133 C 0.01569 0.19555 0.10231
 C134 C 0.04401 0.20465 0.10670
 C135 C 0.05154 0.23449 0.10907
 C136 C 0.03105 0.25497 0.10786
 C137 C 0.06617 0.18356 0.10763
 C138 C 0.06206 0.15656 0.12036
 H139 H -0.03678 0.26154 0.08668
 H140 H -0.02641 0.20866 0.09667
 H141 H 0.00941 0.17267 0.09966
 H142 H 0.07330 0.24195 0.11206
 H143 H 0.03746 0.27788 0.10959
 H144 H 0.08686 0.19027 0.09974
 H145 H -0.00242 0.29667 0.13509
 H146 H 0.04243 0.15095 0.13125
 C147 C 0.52234 0.72069 0.64070
 C148 C 0.51942 0.74159 0.61957
 C149 C 0.49880 0.76438 0.62243
 C150 C 0.48829 0.77626 0.59690
 C151 C 0.46894 0.79799 0.59891
 C152 C 0.46000 0.80849 0.62663
 C153 C 0.47108 0.79713 0.65215
 C154 C 0.49019 0.77520 0.65014
 C155 C 0.44011 0.83196 0.62979
 C156 C 0.42024 0.83740 0.60838
 H157 H 0.53175 0.74049 0.59959
 H158 H 0.49499 0.76861 0.57532
 H159 H 0.46155 0.80690 0.57877
 H160 H 0.46488 0.80520 0.67375
 H161 H 0.49859 0.76727 0.67030
 H162 H 0.44028 0.84455 0.65041
 H163 H 0.50827 0.71985 0.65937
 H164 H 0.41821 0.82359 0.58863
 C165 C 1.02727 0.77512 0.35952
 C166 C 1.02049 0.75414 0.38023
 C167 C 0.99553 0.73379 0.37692
 C168 C 0.98183 0.72354 0.40216
 C169 C 0.95795 0.70460 0.39960
 C170 C 0.94757 0.69531 0.37162
 C171 C 0.96186 0.70481 0.34644
 C172 C 0.98552 0.72393 0.34900
 C173 C 0.92252 0.67518 0.36779
 C174 C 0.90080 0.67303 0.38833
 H175 H 1.03271 0.75361 0.40028
 H176 H 0.98946 0.73046 0.42391
 H177 H 0.94799 0.69697 0.41950
 H178 H 0.95456 0.69757 0.32465
 H179 H 0.99616 0.73059 0.32909
 H180 H 0.92023 0.66297 0.34701
 H181 H 1.01336 0.77724 0.34096
 H182 H 0.90162 0.68666 0.40825
 C183 C 0.47240 0.20919 -0.09001
 C184 C 0.48810 0.21933 -0.11383
 C185 C 0.51052 0.24280 -0.11107
 C186 C 0.51874 0.25781 -0.13629
 C187 C 0.54007 0.27983 -0.13476
 C188 C 0.55372 0.28726 -0.10785
 C189 C 0.54585 0.27188 -0.08275
 C190 C 0.52448 0.24991 -0.08427
 C191 C 0.57695 0.30988 -0.10528
 C192 C 0.58172 0.33173 -0.12553
 H193 H 0.48306 0.21055 -0.13575
 H194 H 0.50862 0.25244 -0.15731
 H195 H 0.54610 0.29042 -0.15485
 H196 H 0.55634 0.27683 -0.06186
 H197 H 0.51949 0.23822 -0.06454
 H198 H 0.59055 0.30962 -0.08618
 H199 H 0.47567 0.21908 -0.06823
 H200 H 0.56751 0.33362 -0.14384
 C201 C 0.14053 -0.04214 0.27263
 C202 C 0.11915 -0.03732 0.25267
 C203 C 0.12082 -0.01391 0.23109
 C204 C 0.09581 -0.00439 0.21946
 C205 C 0.09636 0.01753 0.19893
 C206 C 0.12206 0.03034 0.18947
 C207 C 0.14711 0.02030 0.20051
 C208 C 0.14656 -0.00153 0.22119
 C209 C 0.12351 0.05348 0.16760
 C210 C 0.10183 0.07207 0.16332
 H211 H 0.09963 -0.05031 0.25379
 H212 H 0.07572 -0.01390 0.22636
 H213 H 0.07662 0.02393 0.19018
 H214 H 0.16719 0.02949 0.19321
 H215 H 0.16631 -0.00893 0.22887
 H216 H 0.14288 0.05688 0.15546
 H217 H 0.15940 -0.02806 0.27339
 H218 H 0.08318 0.07047 0.17683
 C219 C 0.60671 0.53371 -0.27131
 C220 C 0.62714 0.51359 -0.26725
 C221 C 0.62387 0.48985 -0.24616
 C222 C 0.64797 0.47825 -0.23463
 C223 C 0.64571 0.45590 -0.21457
 C224 C 0.61918 0.44455 -0.20580
 C225 C 0.59510 0.45550 -0.21807
 C226 C 0.59735 0.47798 -0.23797
 C227 C 0.61588 0.42097 -0.18452
 C228 C 0.63596 0.41612 -0.16313
 H229 H 0.64692 0.51598 -0.27880
 H230 H 0.66863 0.48665 -0.24102
 H231 H 0.66477 0.44733 -0.20640
 H232 H 0.57444 0.44676 -0.21207
 H233 H 0.57831 0.48560 -0.24722
 H234 H 0.59619 0.40810 -0.18460
 H235 H 0.58786 0.53266 -0.25807
 H236 H 0.65483 0.43017 -0.16127
 C237 C 0.35836 1.03509 0.78635
 C238 C 0.38041 1.02852 0.76751
 C239 C 0.37742 1.00714 0.74242
 C240 C 0.40140 0.99405 0.73164
 C241 C 0.39949 0.97375 0.70800
 C242 C 0.37343 0.96626 0.69449
 C243 C 0.34958 0.97996 0.70474
 C244 C 0.35147 1.00014 0.72849
 C245 C 0.37048 0.94505 0.66924
 C246 C 0.38930 0.92338 0.66351
 H247 H 0.40114 1.03829 0.77216
 H248 H 0.42172 0.99945 0.74166
 H249 H 0.41853 0.96447 0.70011
 H250 H 0.32935 0.97494 0.69439
 H251 H 0.33267 1.01052 0.73545
 H252 H 0.35204 0.94574 0.65539
 H253 H 0.33801 1.02386 0.78348
 H254 H 0.40679 0.92097 0.67823
 C255 C 0.89332 0.48426 0.20532
 C256 C 0.86954 0.49886 0.21357
 C257 C 0.86999 0.52224 0.23684
 C258 C 0.84517 0.52752 0.25219
 C259 C 0.84496 0.54889 0.27483
 C260 C 0.86961 0.56565 0.28233
 C261 C 0.89423 0.56092 0.26642
 C262 C 0.89447 0.53947 0.24387
 C263 C 0.87042 0.58784 0.30671
 C264 C 0.84754 0.59207 0.32495
 H265 H 0.84944 0.49167 0.20406
 H266 H 0.82597 0.51474 0.24698
 H267 H 0.82554 0.55212 0.28650
 H268 H 0.91342 0.57375 0.27155
 H269 H 0.91377 0.53673 0.23188
 H270 H 0.88986 0.60056 0.31109
 H271 H 0.91317 0.48967 0.21622
 H272 H 0.84878 0.60435 0.33926
 C273 C 0.28646 0.11010 -0.00370
 C274 C 0.25785 0.10461 -0.00898
 C275 C 0.23653 0.10450 0.01466
 C276 C 0.20899 0.11090 0.00759
 C277 C 0.18819 0.11090 0.02921
 C278 C 0.19451 0.10422 0.05838
 C279 C 0.22186 0.09702 0.06531
 C280 C 0.24278 0.09732 0.04373
 C281 C 0.17274 0.10352 0.08156
 C282 C 0.14981 0.12104 0.08111
 H283 H 0.25045 0.10212 -0.03152
 H284 H 0.20357 0.11604 -0.01475
 H285 H 0.16710 0.11556 0.02284
 H286 H 0.22709 0.09129 0.08753
 H287 H 0.26359 0.09139 0.04975
 H288 H 0.17532 0.08949 0.09993
 H289 H 0.29398 0.11523 0.01846
 H290 H 0.14840 0.13698 0.06429
 C291 C 0.71592 0.64070 0.55324
 C292 C 0.71560 0.65573 0.52713
 C293 C 0.73946 0.65630 0.50639
 C294 C 0.73419 0.65752 0.47607
 C295 C 0.75628 0.65718 0.45587
 C296 C 0.78412 0.65608 0.46573
 C297 C 0.78948 0.65612 0.49612
 C298 C 0.76736 0.65598 0.51629
 C299 C 0.80787 0.65518 0.44488
 C300 C 0.80543 0.64100 0.41727
 H301 H 0.69648 0.66535 0.52048
 H302 H 0.71289 0.65823 0.46798
 H303 H 0.75154 0.65808 0.43260
 H304 H 0.81081 0.65574 0.50422
 H305 H 0.77214 0.65594 0.53960
 H306 H 0.82829 0.66387 0.45238
 H307 H 0.73388 0.62847 0.55853
 H308 H 0.78573 0.62982 0.41079
 C309 C 0.80083 0.37277 0.01666
 C310 C 0.77377 0.38210 0.02073
 C311 C 0.75334 0.38259 -0.00370
 C312 C 0.72460 0.37866 0.00236
 C313 C 0.70479 0.37918 -0.02029
 C314 C 0.71343 0.38409 -0.04940
 C315 C 0.74212 0.38885 -0.05529
 C316 C 0.76194 0.38792 -0.03272
 C317 C 0.69304 0.38538 -0.07378
 C318 C 0.66728 0.36957 -0.07431
 H319 H 0.76680 0.38786 0.04277
 H320 H 0.71748 0.37500 0.02465
 H321 H 0.68277 0.37634 -0.01484
 H322 H 0.74922 0.39314 -0.07746
 H323 H 0.78389 0.39197 -0.03795
 H324 H 0.69919 0.39798 -0.09266
 H325 H 0.80705 0.36415 -0.00470
 H326 H 0.66197 0.35480 -0.05688
 C327 C 0.22159 0.85340 0.46178
 C328 C 0.24324 0.87460 0.46675
 C329 C 0.26559 0.87206 0.48899
 C330 C 0.27949 0.89749 0.50073
 C331 C 0.30095 0.89596 0.52151
 C332 C 0.30911 0.86884 0.53075
 C333 C 0.29571 0.84338 0.51845
 C334 C 0.27406 0.84492 0.49788
 C335 C 0.33205 0.86636 0.55233
 C336 C 0.33899 0.88785 0.57394
 H337 H 0.24317 0.89456 0.45484
 H338 H 0.27368 0.91865 0.49386
 H339 H 0.31143 0.91602 0.52977
 H340 H 0.30195 0.82223 0.52486
 H341 H 0.26447 0.82483 0.48858
 H342 H 0.34287 0.84627 0.55212
 H343 H 0.21991 0.83451 0.47531
 H344 H 0.32679 0.90694 0.57607
   
