data_POSCAR
  _audit_creation_date              2014-09-24
  _audit_creation_method            'ToBaCCo'
  _symmetry_space_group_name_H-M    'P1'
  _symmetry_Int_Tables_number       1
  _symmetry_cell_setting            triclinic
  loop_
  _symmetry_equiv_pos_as_xyz
 x,y,z
_cell_length_a 29.7882
_cell_length_b 29.8195
_cell_length_c 29.8424
_cell_angle_alpha 89.931400
_cell_angle_beta 90.021600
_cell_angle_gamma 89.986600
loop_
  _atom_site_label
  _atom_site_type_symbol
  _atom_site_fract_x
  _atom_site_fract_y
  _atom_site_fract_z
C1 C 0.28294 0.25014 0.21656
 C2 C 0.24975 0.28345 0.21663
 C3 C 0.21657 0.28358 0.24991
 C4 C 0.21662 0.25034 0.28315
 C5 C 0.24979 0.21700 0.28313
 C6 C 0.28293 0.21693 0.24982
 H7 H 0.24974 0.30917 0.19090
 H8 H 0.19095 0.25042 0.30892
 H9 H 0.30861 0.19114 0.24978
 C10 C 0.71630 -0.25047 0.21626
 C11 C 0.74973 -0.28361 0.21616
 C12 C 0.78310 -0.28368 0.24934
 C13 C 0.78297 -0.25054 0.28265
 C14 C 0.74960 -0.21741 0.28280
 C15 C 0.71630 -0.21739 0.24962
 H16 H 0.74978 -0.30925 0.19036
 H17 H 0.80871 -0.25046 0.30838
 H18 H 0.69051 -0.19168 0.24983
 C19 C 0.71805 0.25092 0.78249
 C20 C 0.75113 0.28433 0.78234
 C21 C 0.78444 0.28447 0.74913
 C22 C 0.78457 0.25108 0.71605
 C23 C 0.75149 0.21766 0.71619
 C24 C 0.71826 0.21762 0.74941
 H25 H 0.75089 0.31009 0.80800
 H26 H 0.81026 0.25104 0.69029
 H27 H 0.69266 0.19176 0.74953
 C28 C 0.28234 -0.25127 0.78420
 C29 C 0.24894 -0.28437 0.78422
 C30 C 0.21568 -0.28434 0.75092
 C31 C 0.21593 -0.25112 0.71762
 C32 C 0.24932 -0.21802 0.71758
 C33 C 0.28250 -0.21812 0.75087
 H34 H 0.24889 -0.31000 0.81006
 H35 H 0.19027 -0.25096 0.69179
 H36 H 0.30834 -0.19251 0.75085
 C37 C 0.71708 -0.25087 0.78395
 C38 C 0.75034 -0.28408 0.78392
 C39 C 0.78360 -0.28406 0.75069
 C40 C 0.78351 -0.25075 0.71750
 C41 C 0.75025 -0.21754 0.71754
 C42 C 0.71704 -0.21761 0.75076
 H43 H 0.75028 -0.30981 0.80967
 H44 H 0.80919 -0.25060 0.69172
 H45 H 0.69129 -0.19189 0.75079
 C46 C 0.28279 0.25021 0.78256
 C47 C 0.24959 0.28348 0.78246
 C48 C 0.21623 0.28342 0.74937
 C49 C 0.21608 0.25006 0.71636
 C50 C 0.24927 0.21678 0.71644
 C51 C 0.28262 0.21686 0.74954
 H52 H 0.24971 0.30930 0.80803
 H53 H 0.19026 0.25001 0.69072
 H54 H 0.30832 0.19109 0.74961
 C55 C 0.28463 -0.24986 0.21615
 C56 C 0.25111 -0.28285 0.21596
 C57 C 0.21774 -0.28272 0.24903
 C58 C 0.21787 -0.24963 0.28228
 C59 C 0.25133 -0.21665 0.28252
 C60 C 0.28471 -0.21675 0.24947
 H61 H 0.25092 -0.30854 0.19024
 H62 H 0.19203 -0.24955 0.30788
 H63 H 0.31059 -0.19115 0.24974
 C64 C 0.71698 0.24978 0.21681
 C65 C 0.75001 0.28320 0.21695
 C66 C 0.78320 0.28333 0.25021
 C67 C 0.78334 0.25002 0.28335
 C68 C 0.75032 0.21658 0.28322
 C69 C 0.71714 0.21647 0.24995
 H70 H 0.74989 0.30899 0.19129
 H71 H 0.80904 0.25011 0.30911
 H72 H 0.69156 0.19060 0.24985
 O73 O 0.21287 0.04299 0.45641
 O74 O 0.21285 -0.04456 0.54366
 O75 O 0.21256 0.04280 0.54366
 O76 O 0.21330 -0.04433 0.45635
 O77 O 0.28755 -0.04405 0.45670
 O78 O 0.28681 0.04306 0.54399
 O79 O 0.28708 -0.04430 0.54401
 O80 O 0.28711 0.04328 0.45674
 Cu81 Cu 0.20540 -0.00082 0.49999
 Cu82 Cu 0.29463 -0.00049 0.50040
 C83 C 0.24998 0.05792 0.44185
 C84 C 0.24995 -0.05920 0.55857
 C85 C 0.24957 0.05766 0.55853
 C86 C 0.25055 -0.05886 0.44176
 O87 O 0.78800 0.04300 0.54366
 O88 O 0.78733 -0.04451 0.45657
 O89 O 0.78769 0.04282 0.45642
 O90 O 0.78753 -0.04437 0.54388
 O91 O 0.71329 -0.04401 0.54406
 O92 O 0.71344 0.04317 0.45661
 O93 O 0.71309 -0.04416 0.45675
 O94 O 0.71376 0.04336 0.54385
 Cu95 Cu 0.79513 -0.00082 0.50012
 Cu96 Cu 0.70591 -0.00039 0.50034
 C97 C 0.75100 0.05798 0.55843
 C98 C 0.75010 -0.05908 0.44192
 C99 C 0.75059 0.05771 0.44177
 C100 C 0.75038 -0.05890 0.55873
 O101 O 0.45649 0.21296 0.04286
 O102 O 0.54408 0.21318 -0.04434
 O103 O 0.54390 0.21288 0.04294
 O104 O 0.45663 0.21311 -0.04441
 O105 O 0.45661 0.28728 -0.04432
 O106 O 0.54389 0.28705 0.04305
 O107 O 0.54405 0.28734 -0.04423
 O108 O 0.45649 0.28712 0.04295
 Cu109 Cu 0.50028 0.20555 -0.00076
 Cu110 Cu 0.50026 0.29468 -0.00064
 C111 C 0.44172 0.25001 0.05763
 C112 C 0.55886 0.25031 -0.05900
 C113 C 0.55861 0.24992 0.05775
 C114 C 0.44188 0.25023 -0.05909
 O115 O 0.54400 0.78649 0.04464
 O116 O 0.45632 0.78618 -0.04256
 O117 O 0.45655 0.78654 0.04472
 O118 O 0.54377 0.78628 -0.04266
 O119 O 0.54381 0.71212 -0.04234
 O120 O 0.45658 0.71237 0.04504
 O121 O 0.45636 0.71202 -0.04223
 O122 O 0.54403 0.71233 0.04495
 Cu123 Cu 0.50016 0.79385 0.00100
 Cu124 Cu 0.50020 0.70473 0.00139
 C125 C 0.55881 0.74945 0.05951
 C126 C 0.44154 0.74905 -0.05711
 C127 C 0.44184 0.74950 0.05962
 C128 C 0.55851 0.74916 -0.05725
 O129 O 0.04309 0.45751 0.21261
 O130 O -0.04442 0.54490 0.21236
 O131 O 0.04306 0.54484 0.21221
 O132 O -0.04430 0.45755 0.21275
 O133 O -0.04416 0.45778 0.28686
 O134 O 0.04320 0.54507 0.28633
 O135 O -0.04428 0.54513 0.28646
 O136 O 0.04323 0.45775 0.28672
 Cu137 Cu -0.00067 0.50120 0.20500
 Cu138 Cu -0.00050 0.50148 0.29407
 C139 C 0.05791 0.44286 0.24971
 C140 C -0.05914 0.55975 0.24937
 C141 C 0.05791 0.55965 0.24918
 C142 C -0.05894 0.44290 0.24989
 O143 O 0.04301 0.54425 0.78724
 O144 O -0.04446 0.45686 0.78662
 O145 O 0.04294 0.45692 0.78673
 O146 O -0.04446 0.54423 0.78713
 O147 O -0.04441 0.54474 0.71303
 O148 O 0.04300 0.45743 0.71262
 O149 O -0.04441 0.45737 0.71252
 O150 O 0.04307 0.54476 0.71314
 Cu151 Cu -0.00076 0.50053 0.79441
 Cu152 Cu -0.00069 0.50114 0.70535
 C153 C 0.05784 0.55923 0.75029
 C154 C -0.05917 0.44233 0.74947
 C155 C 0.05770 0.44243 0.74961
 C156 C -0.05919 0.55920 0.75015
 C157 C 0.31704 0.25005 0.18235
 C158 C 0.34560 0.24999 0.15373
 C159 C 0.37906 0.24995 0.12022
 C160 C 0.40765 0.24995 0.09163
 C161 C 0.68388 0.74957 0.18400
 C162 C 0.65520 0.74959 0.15545
 C163 C 0.62162 0.74959 0.12202
 C164 C 0.59295 0.74955 0.09348
 C165 C 0.68386 0.25081 -0.18340
 C166 C 0.65521 0.25068 -0.15486
 C167 C 0.62165 0.25052 -0.12145
 C168 C 0.59298 0.25041 -0.09294
 C169 C 0.31650 0.74870 -0.18162
 C170 C 0.34514 0.74873 -0.15304
 C171 C 0.37870 0.74882 -0.11960
 C172 C 0.40738 0.74892 -0.09106
 C173 C 0.18247 0.31783 0.24994
 C174 C 0.15392 0.34651 0.24992
 C175 C 0.12049 0.38010 0.24987
 C176 C 0.09193 0.40876 0.24981
 C177 C 0.18318 0.68346 0.75091
 C178 C 0.15442 0.65499 0.75084
 C179 C 0.12075 0.62165 0.75069
 C180 C 0.09201 0.59317 0.75052
 C181 C -0.18442 0.68409 0.24925
 C182 C -0.15568 0.65559 0.24922
 C183 C -0.12203 0.62222 0.24923
 C184 C -0.09330 0.59372 0.24928
 C185 C -0.18338 0.31698 0.74903
 C186 C -0.15492 0.34575 0.74903
 C187 C -0.12159 0.37943 0.74912
 C188 C -0.09312 0.40817 0.74925
 C189 C 0.24981 0.18284 0.31729
 C190 C 0.24986 0.15422 0.34587
 C191 C 0.24992 0.12068 0.37932
 C192 C 0.24997 0.09203 0.40787
 C193 C 0.75160 0.18337 0.68223
 C194 C 0.75157 0.15462 0.65384
 C195 C 0.75143 0.12094 0.62062
 C196 C 0.75125 0.09218 0.59224
 C197 C 0.24952 -0.18391 0.68336
 C198 C 0.24968 -0.15533 0.65473
 C199 C 0.24983 -0.12186 0.62120
 C200 C 0.24991 -0.09326 0.59260
 C201 C 0.74957 -0.18339 0.31703
 C202 C 0.74961 -0.15492 0.34570
 C203 C 0.74972 -0.12156 0.37926
 C204 C 0.74987 -0.09306 0.40789
 C205 C 0.68297 0.74909 -0.18194
 C206 C 0.65441 0.74907 -0.15335
 C207 C 0.62100 0.74907 -0.11988
 C208 C 0.59246 0.74909 -0.09128
 C209 C 0.31702 0.25027 -0.18344
 C210 C 0.34568 0.25030 -0.15495
 C211 C 0.37922 0.25032 -0.12158
 C212 C 0.40784 0.25030 -0.09306
 C213 C 0.31706 0.75002 0.18399
 C214 C 0.34572 0.74990 0.15551
 C215 C 0.37924 0.74974 0.12213
 C216 C 0.40784 0.74962 0.09360
 C217 C 0.68291 0.24970 0.18264
 C218 C 0.65440 0.24970 0.15400
 C219 C 0.62104 0.24975 0.12046
 C220 C 0.59254 0.24982 0.09182
 C221 C -0.18406 0.68366 0.75064
 C222 C -0.15542 0.65511 0.75056
 C223 C -0.12190 0.62170 0.75043
 C224 C -0.09326 0.59317 0.75030
 C225 C -0.18289 0.31765 0.25030
 C226 C -0.15449 0.34640 0.25029
 C227 C -0.12125 0.38006 0.25021
 C228 C -0.09282 0.40878 0.25008
 C229 C 0.18215 0.31760 0.74931
 C230 C 0.15362 0.34623 0.74931
 C231 C 0.12022 0.37976 0.74937
 C232 C 0.09168 0.40839 0.74946
 C233 C 0.18336 0.68342 0.24888
 C234 C 0.15455 0.65507 0.24884
 C235 C 0.12084 0.62187 0.24889
 C236 C 0.09207 0.59349 0.24900
 C237 C 0.75020 -0.18339 0.68346
 C238 C 0.75021 -0.15481 0.65488
 C239 C 0.75026 -0.12138 0.62140
 C240 C 0.75031 -0.09284 0.59279
 C241 C 0.25136 -0.18269 0.31671
 C242 C 0.25127 -0.15429 0.34539
 C243 C 0.25107 -0.12106 0.37898
 C244 C 0.25084 -0.09267 0.40767
 C245 C 0.75045 0.18240 0.31727
 C246 C 0.75054 0.15378 0.34579
 C247 C 0.75061 0.12029 0.37920
 C248 C 0.75062 0.09170 0.40776
 C249 C 0.24916 0.18255 0.68252
 C250 C 0.24914 0.15387 0.65412
 C251 C 0.24920 0.12032 0.62085
 C252 C 0.24933 0.09168 0.59241
   
