data_POSCAR
  _audit_creation_date              2014-09-24
  _audit_creation_method            'ToBaCCo'
  _symmetry_space_group_name_H-M    'P1'
  _symmetry_Int_Tables_number       1
  _symmetry_cell_setting            triclinic
  loop_
  _symmetry_equiv_pos_as_xyz
 x,y,z
_cell_length_a 41.8991
_cell_length_b 46.6753
_cell_length_c 42.5079
_cell_angle_alpha 90.022500
_cell_angle_beta 90.346800
_cell_angle_gamma 84.313800
loop_
  _atom_site_label
  _atom_site_type_symbol
  _atom_site_fract_x
  _atom_site_fract_y
  _atom_site_fract_z
C1 C 1.23528 0.22229 0.20700
 C2 C 1.25057 0.24471 0.18737
 C3 C 1.26683 0.26332 0.20446
 C4 C 1.26614 0.25785 0.24018
 C5 C 1.26294 0.20763 0.22695
 C6 C 1.27911 0.22611 0.24423
 C7 C 1.21445 0.23988 0.23115
 C8 C 1.23035 0.25859 0.24842
 H9 H 1.24972 0.24482 0.16190
 H10 H 1.27930 0.27283 0.25442
 H11 H 1.26698 0.18463 0.23057
 H12 H 1.18919 0.23762 0.23423
 C13 C 0.73431 -0.27529 0.20385
 C14 C 0.75045 -0.25195 0.18611
 C15 C 0.76646 -0.23454 0.20508
 C16 C 0.76518 -0.24226 0.24025
 C17 C 0.76181 -0.29138 0.22272
 C18 C 0.77771 -0.27433 0.24211
 C19 C 0.71337 -0.25870 0.22849
 C20 C 0.72929 -0.24156 0.24761
 H21 H 0.75133 -0.25031 0.16081
 H22 H 0.77825 -0.22827 0.25583
 H23 H 0.76676 -0.31459 0.22224
 H24 H 0.68774 -0.25994 0.22993
 C25 C 0.72116 0.23602 -0.30678
 C26 C 0.73952 0.25640 -0.32298
 C27 C 0.76014 0.27123 -0.30270
 C28 C 0.75747 0.26278 -0.26940
 C29 C 0.74467 0.21703 -0.28963
 C30 C 0.76465 0.23132 -0.26850
 C31 C 0.70355 0.25357 -0.28305
 C32 C 0.72320 0.26810 -0.26182
 H33 H 0.73770 0.25999 -0.34803
 H34 H 0.77288 0.27397 -0.25352
 H35 H 0.74405 0.19387 -0.28989
 H36 H 0.67789 0.25920 -0.28472
 C37 C 1.22426 -0.26466 -0.28829
 C38 C 1.24288 -0.24437 -0.30786
 C39 C 1.26248 -0.22867 -0.29068
 C40 C 1.26144 -0.23449 -0.25506
 C41 C 1.24986 -0.28276 -0.26913
 C42 C 1.26924 -0.26721 -0.25160
 C43 C 1.20637 -0.24453 -0.26416
 C44 C 1.22575 -0.22892 -0.24662
 H45 H 1.24057 -0.24256 -0.33318
 H46 H 1.27728 -0.22175 -0.24088
 H47 H 1.25106 -0.30603 -0.26808
 H48 H 1.18054 -0.24083 -0.26283
 C49 C 0.23878 0.21998 0.79613
 C50 C 0.25782 0.23883 0.81388
 C51 C 0.27397 0.25845 0.79504
 C52 C 0.26839 0.25466 0.76120
 C53 C 0.21639 0.24009 0.77548
 C54 C 0.23167 0.25815 0.75699
 C55 C 0.26266 0.20455 0.77310
 C56 C 0.27776 0.22250 0.75431
 H57 H 0.26402 0.23504 0.83829
 H58 H 0.28024 0.26893 0.74523
 H59 H 0.19056 0.23991 0.77566
 H60 H 0.26659 0.18132 0.77126
 C61 C 0.73268 0.72274 0.79643
 C62 C 0.75124 0.74224 0.81374
 C63 C 0.76858 0.76049 0.79437
 C64 C 0.76394 0.75514 0.76058
 C65 C 0.71230 0.74081 0.77495
 C66 C 0.72902 0.75936 0.75531
 C67 C 0.75545 0.70662 0.77569
 C68 C 0.77322 0.72414 0.75587
 H69 H 0.74942 0.74451 0.83904
 H70 H 0.77802 0.76854 0.74600
 H71 H 0.68748 0.73723 0.77093
 H72 H 0.75416 0.68406 0.77060
 C73 C 0.72468 0.23227 0.30576
 C74 C 0.74349 0.25434 0.32280
 C75 C 0.76133 0.26954 0.30331
 C76 C 0.75882 0.26123 0.26836
 C77 C 0.70509 0.24990 0.28069
 C78 C 0.72273 0.26482 0.26093
 C79 C 0.75030 0.21362 0.28736
 C80 C 0.76790 0.22851 0.26750
 H81 H 0.74421 0.25707 0.34798
 H82 H 0.77331 0.27349 0.25238
 H83 H 0.67919 0.25075 0.27914
 H84 H 0.75252 0.19031 0.28829
 C85 C 0.22323 0.73206 0.28798
 C86 C 0.24196 0.75237 0.30765
 C87 C 0.26129 0.76824 0.29060
 C88 C 0.25998 0.76246 0.25494
 C89 C 0.20504 0.75219 0.26381
 C90 C 0.22418 0.76795 0.24638
 C91 C 0.24872 0.71410 0.26883
 C92 C 0.26787 0.72974 0.25138
 H93 H 0.23990 0.75402 0.33297
 H94 H 0.27565 0.77528 0.24085
 H95 H 0.17920 0.75587 0.26239
 H96 H 0.24993 0.69083 0.26765
 N97 N 1.01972 0.03459 0.05365
 N98 N 1.04230 0.04027 0.07393
 N99 N 0.94970 0.05339 0.03237
 N100 N 0.92882 0.07501 0.04083
 N101 N 0.95280 0.03366 0.05456
 N102 N 0.93405 0.04149 0.07855
 N103 N 1.01652 0.05426 0.03151
 N104 N 1.03680 0.07373 0.03597
 C105 C 1.05288 0.06471 0.06240
 C106 C 0.91877 0.06708 0.06942
 N107 N 0.95127 0.03345 -0.05786
 N108 N 0.93237 0.04153 -0.08191
 N109 N 1.01564 0.05402 -0.03577
 N110 N 1.03647 0.07296 -0.04018
 N111 N 1.01824 0.03421 -0.05776
 N112 N 1.04096 0.03923 -0.07788
 N113 N 0.94879 0.05326 -0.03575
 N114 N 0.92816 0.07512 -0.04431
 Mn115 Mn 0.98255 0.05387 -0.00191
 C116 C 0.91760 0.06732 -0.07288
 C117 C 1.05220 0.06348 -0.06645
 N118 N 0.96078 -0.02871 0.05473
 N119 N 0.94084 -0.03536 0.07695
 N120 N 1.02994 -0.04751 0.03215
 N121 N 1.05365 -0.06745 0.03857
 N122 N 1.02772 -0.02759 0.05405
 N123 N 1.04984 -0.03353 0.07599
 N124 N 0.96300 -0.04853 0.03269
 N125 N 0.94463 -0.06907 0.03928
 Mn126 Mn 0.99025 0.00298 0.05454
 C127 C 0.93065 -0.06046 0.06678
 C128 C 1.06615 -0.05828 0.06580
 N129 N 1.02620 -0.02788 -0.05760
 N130 N 1.04854 -0.03331 -0.07916
 N131 N 0.96210 -0.04873 -0.03519
 N132 N 0.94382 -0.06948 -0.04141
 N133 N 0.95926 -0.02909 -0.05745
 N134 N 0.93901 -0.03614 -0.07946
 N135 N 1.02904 -0.04763 -0.03553
 N136 N 1.05339 -0.06698 -0.04143
 Mn137 Mn 0.98871 0.00265 -0.05798
 Mn138 Mn 0.99602 -0.04832 -0.00148
 Cl139 Cl 0.98922 0.00279 -0.00171
 C140 C 1.06556 -0.05763 -0.06857
 C141 C 0.92924 -0.06124 -0.06889
 N142 N 1.06109 0.52093 0.53594
 N143 N 1.08227 0.53967 0.54041
 N144 N 1.03652 0.46388 0.55844
 N145 N 1.04319 0.44522 0.58145
 N146 N 1.05894 0.46101 0.53687
 N147 N 1.08138 0.44032 0.54469
 N148 N 1.03878 0.52382 0.55756
 N149 N 1.04416 0.54463 0.57734
 C150 C 1.07135 0.55437 0.56629
 C151 C 1.07101 0.43038 0.57235
 N152 N 0.94490 0.47499 0.53572
 N153 N 0.92237 0.45786 0.54151
 N154 N 0.96991 0.53228 0.55695
 N155 N 0.96515 0.55307 0.57792
 N156 N 0.94763 0.53500 0.53501
 N157 N 0.92698 0.55768 0.54063
 N158 N 0.96716 0.47230 0.55770
 N159 N 0.96030 0.45332 0.57906
 Mn160 Mn 1.00308 0.49803 0.55796
 C161 C 0.93238 0.44431 0.56853
 C162 C 0.93844 0.56893 0.56736
 N163 N 1.05930 0.46020 0.46888
 N164 N 1.08184 0.43940 0.46189
 N165 N 1.03931 0.52253 0.44622
 N166 N 1.04494 0.54272 0.42584
 N167 N 1.06145 0.52018 0.46828
 N168 N 1.08280 0.53868 0.46350
 N169 N 1.03701 0.46257 0.44690
 N170 N 1.04386 0.44344 0.42445
 Mn171 Mn 1.06049 0.49052 0.50250
 C172 C 1.07165 0.42883 0.43431
 C173 C 1.07212 0.55268 0.43697
 N174 N 0.94797 0.53421 0.46693
 N175 N 0.92755 0.55689 0.46040
 N176 N 0.96772 0.47106 0.44631
 N177 N 0.96102 0.45169 0.42526
 N178 N 0.94526 0.47424 0.46780
 N179 N 0.92273 0.45707 0.46197
 N180 N 0.97050 0.53097 0.44552
 N181 N 0.96614 0.55135 0.42403
 Mn182 Mn 0.94608 0.50468 0.50136
 Mn183 Mn 1.00361 0.49673 0.44595
 Cl184 Cl 1.00330 0.49740 0.50195
 C185 C 0.93941 0.56753 0.43368
 C186 C 0.93299 0.44297 0.43548
 N187 N 0.55776 0.01652 0.53260
 N188 N 0.57854 0.03582 0.53518
 N189 N 0.53206 -0.03952 0.55595
 N190 N 0.53891 -0.05796 0.57916
 N191 N 0.55391 -0.04311 0.53391
 N192 N 0.57611 -0.06401 0.54153
 N193 N 0.53577 0.02031 0.55443
 N194 N 0.54099 0.04239 0.57254
 C195 C 0.56785 0.05179 0.56022
 C196 C 0.56622 -0.07340 0.56959
 N197 N 0.44044 -0.02699 0.53394
 N198 N 0.41789 -0.04403 0.53996
 N199 N 0.46694 0.02996 0.55448
 N200 N 0.46354 0.05147 0.57468
 N201 N 0.44437 0.03285 0.53283
 N202 N 0.42494 0.05646 0.53781
 N203 N 0.46290 -0.02975 0.55574
 N204 N 0.45625 -0.04872 0.57711
 Mn205 Mn 0.49939 -0.00477 0.55549
 C206 C 0.42819 -0.05761 0.56688
 C207 C 0.43737 0.06797 0.56392
 N208 N 0.55341 -0.04407 0.46624
 N209 N 0.57528 -0.06544 0.45951
 N210 N 0.53499 0.01872 0.44356
 N211 N 0.53956 0.04066 0.42508
 N212 N 0.55727 0.01557 0.46544
 N213 N 0.57757 0.03520 0.46253
 N214 N 0.53131 -0.04111 0.44413
 N215 N 0.53765 -0.06044 0.42176
 Mn216 Mn 0.55583 -0.01388 0.49954
 C217 C 0.56492 -0.07574 0.43193
 C218 C 0.56632 0.05065 0.43721
 N219 N 0.44392 0.03190 0.46491
 N220 N 0.42465 0.05555 0.45938
 N221 N 0.46221 -0.03135 0.44408
 N222 N 0.45518 -0.05065 0.42314
 N223 N 0.43995 -0.02797 0.46577
 N224 N 0.41713 -0.04493 0.46007
 N225 N 0.46623 0.02838 0.44332
 N226 N 0.46286 0.04952 0.42264
 Mn227 Mn 0.44174 0.00248 0.49937
 Mn228 Mn 0.49866 -0.00637 0.44344
 Cl229 Cl 0.49885 -0.00575 0.49947
 C230 C 0.43693 0.06641 0.43299
 C231 C 0.42710 -0.05913 0.43349
 N232 N 0.55439 0.51892 0.03447
 N233 N 0.57586 0.53726 0.03928
 N234 N 0.52950 0.46176 0.05524
 N235 N 0.53626 0.44278 0.07793
 N236 N 0.55181 0.45914 0.03356
 N237 N 0.57426 0.43837 0.04096
 N238 N 0.53208 0.52173 0.05606
 N239 N 0.53787 0.54210 0.07633
 C240 C 0.56528 0.55164 0.06540
 C241 C 0.56402 0.42803 0.06845
 N242 N 0.43824 0.47323 0.03179
 N243 N 0.41575 0.45590 0.03702
 N244 N 0.46301 0.53022 0.05491
 N245 N 0.45813 0.55059 0.07634
 N246 N 0.44076 0.53329 0.03294
 N247 N 0.42007 0.55585 0.03897
 N248 N 0.46030 0.47030 0.05397
 N249 N 0.45341 0.45090 0.07480
 Mn250 Mn 0.49618 0.49600 0.05536
 C251 C 0.42566 0.44192 0.06384
 C252 C 0.43142 0.56659 0.06604
 N253 N 0.55287 0.46013 -0.03421
 N254 N 0.57600 0.44014 -0.04186
 N255 N 0.53357 0.52336 -0.05500
 N256 N 0.53980 0.54433 -0.07421
 N257 N 0.55533 0.51994 -0.03266
 N258 N 0.57686 0.53844 -0.03589
 N259 N 0.53118 0.46338 -0.05671
 N260 N 0.53910 0.44561 -0.08021
 Mn261 Mn 0.55379 0.48943 0.00030
 C262 C 0.56687 0.43091 -0.07038
 C263 C 0.56689 0.55359 -0.06184
 N264 N 0.44173 0.53420 -0.03512
 N265 N 0.42127 0.55699 -0.04102
 N266 N 0.46190 0.47183 -0.05777
 N267 N 0.45615 0.45233 -0.07902
 N268 N 0.43927 0.47415 -0.03639
 N269 N 0.41751 0.45627 -0.04260
 N270 N 0.46452 0.53176 -0.05631
 N271 N 0.46024 0.55279 -0.07707
 Mn272 Mn 0.43960 0.50375 -0.00172
 Mn273 Mn 0.49774 0.49759 -0.05677
 Cl274 Cl 0.49678 0.49660 -0.00071
 C275 C 0.43331 0.56853 -0.06714
 C276 C 0.42844 0.44268 -0.06921
 C277 C 1.17936 0.16628 0.15220
 C278 C 1.16794 0.19505 0.15736
 C279 C 1.18651 0.21310 0.17425
 C280 C 1.21656 0.20252 0.18690
 C281 C 1.22851 0.17389 0.17990
 C282 C 1.20989 0.15589 0.16300
 C283 C 1.15955 0.14737 0.13619
 C284 C 1.14248 0.13179 0.12300
 C285 C 1.12144 0.11384 0.10720
 C286 C 1.10852 0.12218 0.07782
 C287 C 1.08668 0.10580 0.06304
 C288 C 1.07742 0.08083 0.07750
 C289 C 1.09097 0.07223 0.10674
 C290 C 1.11284 0.08872 0.12155
 H291 H 1.14453 0.20347 0.14863
 H292 H 1.17709 0.23529 0.17794
 H293 H 1.25221 0.16511 0.18715
 H294 H 1.21925 0.13380 0.15851
 H295 H 1.11496 0.14159 0.06654
 H296 H 1.07671 0.11291 0.04048
 H297 H 1.08425 0.05311 0.11838
 H298 H 1.12268 0.08212 0.14434
 C299 C 1.16908 0.67823 0.65782
 C300 C 1.15649 0.69061 0.68559
 C301 C 1.17385 0.70930 0.70290
 C302 C 1.20396 0.71639 0.69236
 C303 C 1.21666 0.70312 0.66472
 C304 C 1.19923 0.68444 0.64746
 C305 C 1.15165 0.65816 0.64078
 C306 C 1.13711 0.64100 0.62694
 C307 C 1.11992 0.62012 0.61094
 C308 C 1.09117 0.61231 0.62336
 C309 C 1.07509 0.59113 0.60859
 C310 C 1.08767 0.57749 0.58123
 C311 C 1.11634 0.58574 0.56865
 C312 C 1.13239 0.60693 0.58347
 H313 H 1.13346 0.68541 0.69418
 H314 H 1.16384 0.71737 0.72491
 H315 H 1.24034 0.70688 0.65665
 H316 H 1.20948 0.67450 0.62629
 H317 H 1.08136 0.62237 0.64465
 H318 H 1.05302 0.58522 0.61875
 H319 H 1.12653 0.57561 0.54758
 H320 H 1.15466 0.61280 0.57371
 C321 C 0.66515 0.18199 0.63883
 C322 C 0.69230 0.19222 0.62561
 C323 C 0.71034 0.21046 0.64292
 C324 C 0.70104 0.21948 0.67364
 C325 C 0.67402 0.20794 0.68674
 C326 C 0.65612 0.18987 0.66936
 C327 C 0.64771 0.16164 0.62232
 C328 C 0.63292 0.14390 0.60985
 C329 C 0.61544 0.12199 0.59625
 C330 C 0.62695 0.10738 0.56927
 C331 C 0.61114 0.08474 0.55730
 C332 C 0.58368 0.07642 0.57230
 C333 C 0.57192 0.09153 0.59907
 C334 C 0.58779 0.11419 0.61101
 H335 H 0.70004 0.18547 0.60225
 H336 H 0.73212 0.21659 0.63244
 H337 H 0.66703 0.21212 0.71091
 H338 H 0.63568 0.18134 0.68015
 H339 H 0.64839 0.11320 0.55776
 H340 H 0.62063 0.07353 0.53655
 H341 H 0.55078 0.08560 0.61101
 H342 H 0.57880 0.12532 0.63202
 C343 C 0.67453 0.66868 0.15399
 C344 C 0.68632 0.69146 0.13783
 C345 C 0.70615 0.70947 0.15323
 C346 C 0.71475 0.70471 0.18509
 C347 C 0.70250 0.68168 0.20098
 C348 C 0.68273 0.66378 0.18554
 C349 C 0.65399 0.65024 0.13833
 C350 C 0.63714 0.63436 0.12537
 C351 C 0.61786 0.61481 0.10978
 C352 C 0.62781 0.60294 0.08084
 C353 C 0.61028 0.58274 0.06624
 C354 C 0.58255 0.57412 0.08042
 C355 C 0.57230 0.58651 0.10922
 C356 C 0.58996 0.60675 0.12387
 H357 H 0.67990 0.69551 0.11339
 H358 H 0.71381 0.72729 0.14009
 H359 H 0.70792 0.67780 0.22565
 H360 H 0.67362 0.64626 0.19833
 H361 H 0.64938 0.60901 0.06977
 H362 H 0.61869 0.57363 0.04399
 H363 H 0.55102 0.58024 0.12062
 H364 H 0.58212 0.61580 0.14633
 C365 C 0.81867 -0.16819 0.16631
 C366 C 0.83041 -0.18341 0.19304
 C367 C 0.81312 -0.20462 0.20615
 C368 C 0.78400 -0.21098 0.19249
 C369 C 0.77209 -0.19511 0.16606
 C370 C 0.78932 -0.17392 0.15308
 C371 C 0.83736 -0.14789 0.15120
 C372 C 0.85294 -0.13155 0.13737
 C373 C 0.87164 -0.11299 0.11961
 C374 C 0.87952 -0.08681 0.13213
 C375 C 0.89830 -0.06932 0.11476
 C376 C 0.90941 -0.07791 0.08471
 C377 C 0.90100 -0.10405 0.07222
 C378 C 0.88227 -0.12143 0.08955
 H379 H 0.85322 -0.17929 0.20337
 H380 H 0.82308 -0.21666 0.22629
 H381 H 0.74946 -0.19914 0.15533
 H382 H 0.77998 -0.16232 0.13239
 H383 H 0.87139 -0.08003 0.15536
 H384 H 0.90444 -0.04932 0.12498
 H385 H 0.90917 -0.11123 0.04914
 H386 H 0.87627 -0.14160 0.07958
 C387 C 0.82151 0.33058 0.66091
 C388 C 0.79445 0.32418 0.64406
 C389 C 0.77414 0.30503 0.65624
 C390 C 0.78036 0.29160 0.68579
 C391 C 0.80759 0.29878 0.70284
 C392 C 0.82796 0.31800 0.69042
 C393 C 0.84254 0.34983 0.64728
 C394 C 0.85922 0.36596 0.63451
 C395 C 0.87808 0.38531 0.61798
 C396 C 0.86699 0.39711 0.58918
 C397 C 0.88483 0.41608 0.57297
 C398 C 0.91406 0.42355 0.58535
 C399 C 0.92521 0.41146 0.61419
 C400 C 0.90730 0.39246 0.63040
 H401 H 0.78896 0.33404 0.62133
 H402 H 0.75308 0.30168 0.64249
 H403 H 0.81445 0.28875 0.72508
 H404 H 0.84899 0.32269 0.70366
 H405 H 0.84445 0.39172 0.57928
 H406 H 0.87563 0.42502 0.55082
 H407 H 0.94764 0.41683 0.62430
 H408 H 0.91617 0.38345 0.65264
 C409 C 0.32067 -0.16961 0.66532
 C410 C 0.28987 -0.17268 0.65378
 C411 C 0.27077 -0.19155 0.66840
 C412 C 0.28224 -0.20768 0.69479
 C413 C 0.31298 -0.20408 0.70665
 C414 C 0.33213 -0.18518 0.69191
 C415 C 0.34046 -0.15083 0.64931
 C416 C 0.35643 -0.13506 0.63518
 C417 C 0.37488 -0.11612 0.61774
 C418 C 0.36301 -0.10435 0.58920
 C419 C 0.38053 -0.08553 0.57241
 C420 C 0.41016 -0.07826 0.58402
 C421 C 0.42207 -0.09040 0.61255
 C422 C 0.40450 -0.10922 0.62931
 H423 H 0.28069 -0.16063 0.63332
 H424 H 0.24697 -0.19341 0.65907
 H425 H 0.32256 -0.21641 0.72673
 H426 H 0.35597 -0.18297 0.70102
 H427 H 0.34011 -0.10958 0.58002
 H428 H 0.37078 -0.07651 0.55050
 H429 H 0.44483 -0.08519 0.62204
 H430 H 0.41392 -0.11824 0.65136
 C431 C 0.32003 0.32593 0.15944
 C432 C 0.29073 0.31938 0.14677
 C433 C 0.27316 0.29942 0.16169
 C434 C 0.28466 0.28565 0.18957
 C435 C 0.31387 0.29272 0.20246
 C436 C 0.33145 0.31270 0.18745
 C437 C 0.33856 0.34577 0.14329
 C438 C 0.35393 0.36226 0.12941
 C439 C 0.37219 0.38192 0.11264
 C440 C 0.36057 0.39417 0.08422
 C441 C 0.37811 0.41349 0.06810
 C442 C 0.40751 0.42081 0.08026
 C443 C 0.41913 0.40823 0.10869
 C444 C 0.40157 0.38893 0.12476
 H445 H 0.28156 0.32955 0.12519
 H446 H 0.25053 0.29480 0.15141
 H447 H 0.32361 0.28223 0.22362
 H448 H 0.35415 0.31754 0.19746
 H449 H 0.33789 0.38888 0.07457
 H450 H 0.36856 0.42283 0.04627
 H451 H 0.44170 0.41345 0.11863
 H452 H 0.41084 0.37957 0.14670
 C453 C 0.82094 0.18175 -0.20096
 C454 C 0.81110 0.21073 -0.19482
 C455 C 0.79370 0.22770 -0.21752
 C456 C 0.78545 0.21574 -0.24668
 C457 C 0.79693 0.18679 -0.25282
 C458 C 0.81435 0.17006 -0.23022
 C459 C 0.83674 0.16337 -0.17719
 C460 C 0.84964 0.14694 -0.15804
 C461 C 0.86508 0.12651 -0.13600
 C462 C 0.87063 0.13466 -0.10491
 C463 C 0.88678 0.11503 -0.08400
 C464 C 0.89763 0.08702 -0.09398
 C465 C 0.89123 0.07879 -0.12501
 C466 C 0.87506 0.09843 -0.14587
 H467 H 0.81609 0.22002 -0.17217
 H468 H 0.78517 0.24949 -0.21102
 H469 H 0.79280 0.17679 -0.27524
 H470 H 0.82226 0.14776 -0.23544
 H471 H 0.86292 0.15629 -0.09698
 H472 H 0.89141 0.12200 -0.06025
 H473 H 0.89933 0.05739 -0.13337
 H474 H 0.87080 0.09186 -0.16986
 C475 C 0.84159 0.68575 0.31199
 C476 C 0.84262 0.67546 0.28105
 C477 C 0.82282 0.68921 0.25795
 C478 C 0.80167 0.71349 0.26549
 C479 C 0.80170 0.72445 0.29632
 C480 C 0.82149 0.71056 0.31948
 C481 C 0.85961 0.66951 0.33610
 C482 C 0.87442 0.65451 0.35538
 C483 C 0.89197 0.63509 0.37708
 C484 C 0.92262 0.62272 0.36909
 C485 C 0.93844 0.60136 0.38812
 C486 C 0.92376 0.59203 0.41543
 C487 C 0.89341 0.60523 0.42393
 C488 C 0.87756 0.62659 0.40477
 H489 H 0.85810 0.65630 0.27496
 H490 H 0.82356 0.68050 0.23432
 H491 H 0.78535 0.74287 0.30290
 H492 H 0.82038 0.71863 0.34339
 H493 H 0.93393 0.62899 0.34764
 H494 H 0.96184 0.59166 0.38103
 H495 H 0.88155 0.59845 0.44483
 H496 H 0.85374 0.63589 0.41107
 C497 C 0.34390 0.18947 0.31490
 C498 C 0.34546 0.17871 0.28417
 C499 C 0.32544 0.19161 0.26079
 C500 C 0.30356 0.21550 0.26780
 C501 C 0.30321 0.22718 0.29831
 C502 C 0.32320 0.21408 0.32184
 C503 C 0.36157 0.17343 0.33935
 C504 C 0.37602 0.15810 0.35856
 C505 C 0.39298 0.13784 0.37976
 C506 C 0.42311 0.12461 0.37124
 C507 C 0.43787 0.10198 0.38925
 C508 C 0.42262 0.09221 0.41601
 C509 C 0.39292 0.10632 0.42516
 C510 C 0.37812 0.12895 0.40701
 H511 H 0.36135 0.15968 0.27854
 H512 H 0.32635 0.18238 0.23738
 H513 H 0.28632 0.24539 0.30437
 H514 H 0.32167 0.22249 0.34559
 H515 H 0.43471 0.13113 0.35006
 H516 H 0.46082 0.09160 0.38171
 H517 H 0.38067 0.09924 0.44567
 H518 H 0.35465 0.13886 0.41366
 C519 C 0.33387 0.68948 -0.18448
 C520 C 0.33073 0.67796 -0.21460
 C521 C 0.31058 0.69259 -0.23682
 C522 C 0.29323 0.71899 -0.22921
 C523 C 0.29738 0.73099 -0.19928
 C524 C 0.31752 0.71622 -0.17697
 C525 C 0.35245 0.67278 -0.16110
 C526 C 0.36763 0.65739 -0.14243
 C527 C 0.38547 0.63750 -0.12143
 C528 C 0.41604 0.62534 -0.12999
 C529 C 0.43203 0.60351 -0.11169
 C530 C 0.41758 0.59349 -0.08459
 C531 C 0.38733 0.60647 -0.07551
 C532 C 0.37132 0.62831 -0.09392
 H533 H 0.34330 0.65731 -0.22069
 H534 H 0.30817 0.68303 -0.25982
 H535 H 0.28403 0.75111 -0.19266
 H536 H 0.31968 0.72527 -0.15368
 H537 H 0.42714 0.63215 -0.15132
 H538 H 0.45536 0.59398 -0.11921
 H539 H 0.37565 0.59917 -0.05475
 H540 H 0.34755 0.63743 -0.08719
 C541 C 1.18608 -0.16637 -0.17997
 C542 C 1.21290 -0.16083 -0.19764
 C543 C 1.22639 -0.18146 -0.21892
 C544 C 1.21298 -0.20770 -0.22284
 C545 C 1.18649 -0.21324 -0.20447
 C546 C 1.17316 -0.19272 -0.18322
 C547 C 1.17056 -0.14484 -0.15947
 C548 C 1.15588 -0.12763 -0.14250
 C549 C 1.13647 -0.10818 -0.12250
 C550 C 1.12243 -0.08189 -0.13435
 C551 C 1.10020 -0.06476 -0.11629
 C552 C 1.09165 -0.07390 -0.08625
 C553 C 1.10677 -0.09981 -0.07408
 C554 C 1.12900 -0.11686 -0.09214
 H555 H 1.22299 -0.14043 -0.19540
 H556 H 1.24658 -0.17650 -0.23299
 H557 H 1.17598 -0.23344 -0.20662
 H558 H 1.15244 -0.19724 -0.16964
 H559 H 1.12787 -0.07507 -0.15792
 H560 H 1.08893 -0.04489 -0.12623
 H561 H 1.10070 -0.10735 -0.05099
 H562 H 1.13955 -0.13727 -0.08283
 C563 C 1.18199 0.31376 0.31777
 C564 C 1.20685 0.32350 0.30005
 C565 C 1.22309 0.30535 0.27788
 C566 C 1.21449 0.27732 0.27309
 C567 C 1.18994 0.26756 0.29151
 C568 C 1.17381 0.28567 0.31364
 C569 C 1.16388 0.33283 0.33923
 C570 C 1.14798 0.34874 0.35672
 C571 C 1.12836 0.36786 0.37696
 C572 C 1.13976 0.37550 0.40652
 C573 C 1.12098 0.39486 0.42560
 C574 C 1.09059 0.40682 0.41527
 C575 C 1.07910 0.39861 0.38580
 C576 C 1.09789 0.37927 0.36679
 H577 H 1.21330 0.34526 0.30296
 H578 H 1.24166 0.31356 0.26386
 H579 H 1.18316 0.24590 0.28881
 H580 H 1.15467 0.27788 0.32726
 H581 H 1.16329 0.36678 0.41466
 H582 H 1.13046 0.40081 0.44817
 H583 H 1.05580 0.40746 0.37723
 H584 H 1.08879 0.37347 0.34398
 C585 C 0.67863 -0.18904 0.31734
 C586 C 0.70418 -0.17868 0.30123
 C587 C 0.72139 -0.19607 0.27907
 C588 C 0.71298 -0.22390 0.27273
 C589 C 0.68785 -0.23438 0.28970
 C590 C 0.67078 -0.21703 0.31182
 C591 C 0.65936 -0.17065 0.33841
 C592 C 0.64256 -0.15526 0.35556
 C593 C 0.62218 -0.13666 0.37550
 C594 C 0.63239 -0.13011 0.40581
 C595 C 0.61323 -0.11090 0.42459
 C596 C 0.58366 -0.09799 0.41319
 C597 C 0.57320 -0.10525 0.38302
 C598 C 0.59241 -0.12448 0.36427
 H599 H 0.71035 -0.15698 0.30529
 H600 H 0.74043 -0.18739 0.26614
 H601 H 0.68124 -0.25593 0.28570
 H602 H 0.65110 -0.22526 0.32424
 H603 H 0.65537 -0.13948 0.41472
 H604 H 0.62187 -0.10570 0.44776
 H605 H 0.55054 -0.09562 0.37366
 H606 H 0.58429 -0.12948 0.34083
 C607 C 0.68036 0.32170 -0.18986
 C608 C 0.71149 0.32544 -0.19974
 C609 C 0.72626 0.30746 -0.22300
 C610 C 0.70982 0.28566 -0.23705
 C611 C 0.67876 0.28188 -0.22595
 C612 C 0.66431 0.29968 -0.20275
 C613 C 0.66374 0.34091 -0.16759
 C614 C 0.64794 0.35650 -0.14975
 C615 C 0.62752 0.37475 -0.12942
 C616 C 0.63733 0.38065 -0.09877
 C617 C 0.61725 0.39846 -0.07925
 C618 C 0.58713 0.41056 -0.09021
 C619 C 0.57729 0.40417 -0.12086
 C620 C 0.59738 0.38637 -0.14032
 H621 H 0.72408 0.34259 -0.18996
 H622 H 0.74976 0.31189 -0.23080
 H623 H 0.66548 0.26474 -0.23456
 H624 H 0.64031 0.29641 -0.19507
 H625 H 0.66052 0.37164 -0.09004
 H626 H 0.62546 0.40305 -0.05575
 H627 H 0.55426 0.41320 -0.12993
 H628 H 0.58948 0.38179 -0.16395
 C629 C 1.18231 0.16121 -0.15439
 C630 C 1.18718 0.15875 -0.18678
 C631 C 1.20558 0.17768 -0.20220
 C632 C 1.21992 0.19923 -0.18549
 C633 C 1.21428 0.20177 -0.15284
 C634 C 1.19580 0.18276 -0.13747
 C635 C 1.16215 0.14250 -0.13886
 C636 C 1.14462 0.12732 -0.12596
 C637 C 1.12292 0.11007 -0.11040
 C638 C 1.11338 0.08527 -0.12481
 C639 C 1.09076 0.06961 -0.11028
 C640 C 1.07741 0.07873 -0.08127
 C641 C 1.08761 0.10334 -0.06675
 C642 C 1.11020 0.11890 -0.08124
 H643 H 1.17639 0.14245 -0.20021
 H644 H 1.20838 0.17568 -0.22744
 H645 H 1.22319 0.21871 -0.13902
 H646 H 1.19158 0.18518 -0.11244
 H647 H 1.12305 0.07832 -0.14745
 H648 H 1.08331 0.05072 -0.12195
 H649 H 1.07782 0.11083 -0.04435
 H650 H 1.11738 0.13808 -0.06993
 C651 C 1.16946 0.67479 0.34272
 C652 C 1.15551 0.68821 0.31589
 C653 C 1.17237 0.70693 0.29826
 C654 C 1.20342 0.71296 0.30750
 C655 C 1.21739 0.69875 0.33424
 C656 C 1.20046 0.68004 0.35181
 C657 C 1.15239 0.65481 0.36014
 C658 C 1.13808 0.63780 0.37433
 C659 C 1.12099 0.61716 0.39073
 C660 C 1.09221 0.60906 0.37831
 C661 C 1.07608 0.58828 0.39357
 C662 C 1.08862 0.57532 0.42145
 C663 C 1.11735 0.58381 0.43399
 C664 C 1.13345 0.60461 0.41868
 H665 H 1.13175 0.68383 0.30829
 H666 H 1.16113 0.71582 0.27703
 H667 H 1.24165 0.70188 0.34136
 H668 H 1.21172 0.66939 0.37226
 H669 H 1.08237 0.61862 0.35667
 H670 H 1.05398 0.58219 0.38340
 H671 H 1.12752 0.57421 0.45546
 H672 H 1.15573 0.61070 0.42848
 C673 C 0.66404 0.17875 0.35711
 C674 C 0.66729 0.17639 0.32455
 C675 C 0.68682 0.19388 0.30858
 C676 C 0.70361 0.21409 0.32485
 C677 C 0.69984 0.21649 0.35774
 C678 C 0.68021 0.19883 0.37371
 C679 C 0.64505 0.15958 0.37329
 C680 C 0.62964 0.14251 0.38590
 C681 C 0.61214 0.12106 0.40006
 C682 C 0.58478 0.11245 0.38515
 C683 C 0.56939 0.08977 0.39751
 C684 C 0.58140 0.07545 0.42480
 C685 C 0.60848 0.08465 0.43998
 C686 C 0.62378 0.10732 0.42762
 H687 H 0.65493 0.16083 0.31150
 H688 H 0.68902 0.19157 0.28331
 H689 H 0.71178 0.23167 0.37150
 H690 H 0.67785 0.20070 0.39902
 H691 H 0.57574 0.12288 0.36367
 H692 H 0.54850 0.08312 0.38544
 H693 H 0.61814 0.07408 0.46114
 H694 H 0.64505 0.11375 0.43921
 C695 C 0.67729 0.67163 -0.14553
 C696 C 0.70747 0.66024 -0.15595
 C697 C 0.72632 0.67706 -0.17386
 C698 C 0.71482 0.70550 -0.18268
 C699 C 0.68546 0.71734 -0.16945
 C700 C 0.66669 0.70041 -0.15158
 C701 C 0.65685 0.65343 -0.12960
 C702 C 0.63990 0.63758 -0.11694
 C703 C 0.62026 0.61791 -0.10227
 C704 C 0.62990 0.60509 -0.07359
 C705 C 0.61210 0.58453 -0.06020
 C706 C 0.58444 0.57650 -0.07540
 C707 C 0.57450 0.58989 -0.10390
 C708 C 0.59240 0.61047 -0.11729
 H709 H 0.71628 0.63815 -0.15059
 H710 H 0.74974 0.66745 -0.18088
 H711 H 0.67651 0.73958 -0.17366
 H712 H 0.64365 0.70966 -0.14295
 H713 H 0.65146 0.61064 -0.06182
 H714 H 0.62027 0.57464 -0.03817
 H715 H 0.55328 0.58410 -0.11606
 H716 H 0.58481 0.62023 -0.13958
 C717 C 0.82102 -0.17460 -0.16593
 C718 C 0.81446 -0.19841 -0.14811
 C719 C 0.79750 -0.21978 -0.16130
 C720 C 0.78659 -0.21794 -0.19285
 C721 C 0.79374 -0.19378 -0.21067
 C722 C 0.81073 -0.17237 -0.19727
 C723 C 0.83833 -0.15272 -0.15162
 C724 C 0.85302 -0.13530 -0.13825
 C725 C 0.87095 -0.11573 -0.12076
 C726 C 0.88142 -0.12314 -0.09026
 C727 C 0.89981 -0.10507 -0.07324
 C728 C 0.90805 -0.07922 -0.08650
 C729 C 0.89698 -0.07158 -0.11696
 C730 C 0.87856 -0.08979 -0.13403
 H731 H 0.82258 -0.20055 -0.12390
 H732 H 0.79397 -0.23812 -0.14667
 H733 H 0.78518 -0.19034 -0.23451
 H734 H 0.81551 -0.15390 -0.21128
 H735 H 0.87567 -0.14312 -0.07971
 H736 H 0.90793 -0.11153 -0.04983
 H737 H 0.90301 -0.05183 -0.12777
 H738 H 0.87057 -0.08381 -0.15762
 C739 C 0.82205 0.33022 0.34098
 C740 C 0.79170 0.32809 0.35376
 C741 C 0.77170 0.30882 0.34103
 C742 C 0.78179 0.29132 0.31530
 C743 C 0.81199 0.29408 0.30203
 C744 C 0.83207 0.31339 0.31489
 C745 C 0.84294 0.34913 0.35550
 C746 C 0.85964 0.36500 0.36878
 C747 C 0.87861 0.38408 0.38566
 C748 C 0.86733 0.39619 0.41412
 C749 C 0.88524 0.41509 0.43053
 C750 C 0.91470 0.42213 0.41865
 C751 C 0.92606 0.40966 0.39021
 C752 C 0.90808 0.39074 0.37380
 H753 H 0.78364 0.34109 0.37385
 H754 H 0.74835 0.30755 0.35142
 H755 H 0.82051 0.28070 0.28242
 H756 H 0.85556 0.31484 0.30484
 H757 H 0.84458 0.39114 0.42355
 H758 H 0.87591 0.42434 0.45238
 H759 H 0.94868 0.41472 0.38051
 H760 H 0.91705 0.38146 0.35182
 C761 C 0.31890 -0.17206 0.33533
 C762 C 0.28829 -0.17561 0.34667
 C763 C 0.26939 -0.19466 0.33181
 C764 C 0.28086 -0.21054 0.30534
 C765 C 0.31141 -0.20645 0.29367
 C766 C 0.33036 -0.18736 0.30866
 C767 C 0.33852 -0.15306 0.35158
 C768 C 0.35444 -0.13713 0.36581
 C769 C 0.37302 -0.11803 0.38318
 C770 C 0.36119 -0.10558 0.41131
 C771 C 0.37893 -0.08664 0.42796
 C772 C 0.40874 -0.07991 0.41662
 C773 C 0.42059 -0.09272 0.38851
 C774 C 0.40282 -0.11165 0.37191
 H775 H 0.27908 -0.16378 0.36717
 H776 H 0.24572 -0.19686 0.34101
 H777 H 0.32100 -0.21855 0.27354
 H778 H 0.35405 -0.18479 0.29968
 H779 H 0.33816 -0.11039 0.42028
 H780 H 0.36922 -0.07711 0.44953
 H781 H 0.44348 -0.08795 0.37921
 H782 H 0.41224 -0.12116 0.35020
 C783 C 0.32940 0.32053 -0.16370
 C784 C 0.30756 0.30699 -0.14572
 C785 C 0.28951 0.28662 -0.15933
 C786 C 0.29282 0.27912 -0.19151
 C787 C 0.31500 0.29319 -0.20941
 C788 C 0.33309 0.31361 -0.19558
 C789 C 0.34764 0.34161 -0.14910
 C790 C 0.36226 0.35916 -0.13583
 C791 C 0.37907 0.38004 -0.11912
 C792 C 0.36637 0.39219 -0.09119
 C793 C 0.38251 0.41246 -0.07481
 C794 C 0.41161 0.42085 -0.08619
 C795 C 0.42430 0.40846 -0.11419
 C796 C 0.40811 0.38819 -0.13054
 H797 H 0.30423 0.31236 -0.12107
 H798 H 0.27218 0.27769 -0.14444
 H799 H 0.31949 0.28811 -0.23385
 H800 H 0.35008 0.32391 -0.20975
 H801 H 0.34395 0.38602 -0.08207
 H802 H 0.37217 0.42162 -0.05332
 H803 H 0.44667 0.41451 -0.12352
 H804 H 0.41821 0.37891 -0.15209
 C805 C 1.18376 -0.16923 0.17977
 C806 C 1.17073 -0.19551 0.18308
 C807 C 1.18426 -0.21610 0.20433
 C808 C 1.21108 -0.21071 0.22266
 C809 C 1.22453 -0.18451 0.21872
 C810 C 1.21085 -0.16383 0.19744
 C811 C 1.16825 -0.14768 0.15906
 C812 C 1.15376 -0.13036 0.14184
 C813 C 1.13481 -0.11065 0.12149
 C814 C 1.12713 -0.11926 0.09105
 C815 C 1.10565 -0.10168 0.07246
 C816 C 1.09147 -0.07527 0.08414
 C817 C 1.10018 -0.06627 0.11429
 C818 C 1.12167 -0.08392 0.13289
 H819 H 1.14981 -0.19996 0.16950
 H820 H 1.17369 -0.23625 0.20648
 H821 H 1.24495 -0.17963 0.23274
 H822 H 1.22106 -0.14350 0.19515
 H823 H 1.13700 -0.13997 0.08204
 H824 H 1.09944 -0.10915 0.04930
 H825 H 1.08964 -0.04604 0.12389
 H826 H 1.12728 -0.07711 0.15649
 C827 C 1.18068 0.31571 0.69098
 C828 C 1.17048 0.28858 0.69670
 C829 C 1.18720 0.26982 0.71800
 C830 C 1.21440 0.27798 0.73397
 C831 C 1.22478 0.30514 0.72781
 C832 C 1.20793 0.32394 0.70646
 C833 C 1.16258 0.33516 0.66972
 C834 C 1.14676 0.35120 0.65216
 C835 C 1.12734 0.37029 0.63156
 C836 C 1.13871 0.37721 0.60190
 C837 C 1.12005 0.39631 0.58226
 C838 C 1.08980 0.40872 0.59212
 C839 C 1.07834 0.40127 0.62173
 C840 C 1.09702 0.38217 0.64131
 H841 H 1.14949 0.28194 0.68478
 H842 H 1.17897 0.24883 0.72174
 H843 H 1.24545 0.31209 0.73996
 H844 H 1.21598 0.34495 0.70227
 H845 H 1.16210 0.36807 0.59408
 H846 H 1.12949 0.40167 0.55958
 H847 H 1.05515 0.41050 0.62995
 H848 H 1.08795 0.37690 0.66419
 C849 C 0.67872 -0.18404 0.68950
 C850 C 0.66251 -0.19587 0.71406
 C851 C 0.67919 -0.21406 0.73582
 C852 C 0.71274 -0.22118 0.73347
 C853 C 0.72889 -0.20829 0.70888
 C854 C 0.71196 -0.19005 0.68705
 C855 C 0.66079 -0.16572 0.66712
 C856 C 0.64457 -0.15048 0.64914
 C857 C 0.62433 -0.13219 0.62851
 C858 C 0.59447 -0.11992 0.63909
 C859 C 0.57507 -0.10134 0.61959
 C860 C 0.58540 -0.09481 0.58927
 C861 C 0.61512 -0.10772 0.57857
 C862 C 0.63449 -0.12629 0.59812
 H863 H 0.63681 -0.19096 0.71651
 H864 H 0.66539 -0.22172 0.75488
 H865 H 0.75435 -0.21262 0.70540
 H866 H 0.72478 -0.18082 0.66811
 H867 H 0.58636 -0.12443 0.66256
 H868 H 0.55231 -0.09170 0.62843
 H869 H 0.62367 -0.10306 0.55531
 H870 H 0.65752 -0.13575 0.58969
 C871 C 0.67657 0.31672 0.18753
 C872 C 0.66636 0.28986 0.19455
 C873 C 0.68197 0.27267 0.21788
 C874 C 0.70800 0.28219 0.23460
 C875 C 0.71888 0.30876 0.22672
 C876 C 0.70310 0.32603 0.20335
 C877 C 0.65847 0.33519 0.16543
 C878 C 0.64223 0.35050 0.14755
 C879 C 0.62204 0.36884 0.12695
 C880 C 0.59166 0.38020 0.13707
 C881 C 0.57231 0.39889 0.11765
 C882 C 0.58320 0.40644 0.08788
 C883 C 0.61346 0.39443 0.07758
 C884 C 0.63278 0.37574 0.09706
 H885 H 0.64590 0.28243 0.18241
 H886 H 0.67348 0.25202 0.22303
 H887 H 0.73874 0.31665 0.23937
 H888 H 0.71111 0.34688 0.19814
 H889 H 0.58310 0.37491 0.16015
 H890 H 0.54913 0.40783 0.12617
 H891 H 0.62245 0.39989 0.05475
 H892 H 0.65622 0.36699 0.08898
 C893 C 0.82427 0.18065 0.19811
 C894 C 0.80692 0.20681 0.18994
 C895 C 0.78986 0.22333 0.21295
 C896 C 0.78986 0.21367 0.24426
 C897 C 0.80848 0.18800 0.25244
 C898 C 0.82555 0.17161 0.22949
 C899 C 0.83928 0.16211 0.17430
 C900 C 0.85162 0.14571 0.15501
 C901 C 0.86653 0.12545 0.13275
 C902 C 0.87165 0.13389 0.10175
 C903 C 0.88764 0.11449 0.08070
 C904 C 0.89876 0.08646 0.09049
 C905 C 0.89269 0.07793 0.12140
 C906 C 0.87669 0.09733 0.14240
 H907 H 0.80574 0.21398 0.16569
 H908 H 0.77540 0.24282 0.20593
 H909 H 0.80915 0.18023 0.27646
 H910 H 0.83899 0.15145 0.23608
 H911 H 0.86380 0.15558 0.09403
 H912 H 0.89201 0.12167 0.05703
 H913 H 0.90099 0.05650 0.12960
 H914 H 0.87276 0.09057 0.16633
 C915 C 0.83562 0.68478 0.68632
 C916 C 0.82806 0.66955 0.71303
 C917 C 0.80823 0.68281 0.73610
 C918 C 0.79515 0.71180 0.73305
 C919 C 0.80410 0.72727 0.70641
 C920 C 0.82395 0.71377 0.68320
 C921 C 0.85470 0.66989 0.66216
 C922 C 0.87041 0.65561 0.64307
 C923 C 0.88896 0.63666 0.62179
 C924 C 0.91966 0.62483 0.63076
 C925 C 0.93620 0.60348 0.61239
 C926 C 0.92221 0.59359 0.58479
 C927 C 0.89187 0.60633 0.57526
 C928 C 0.87529 0.62768 0.59375
 H929 H 0.83732 0.64718 0.71596
 H930 H 0.80378 0.67012 0.75660
 H931 H 0.79483 0.74932 0.70227
 H932 H 0.82970 0.72582 0.66256
 H933 H 0.93039 0.63142 0.65251
 H934 H 0.95957 0.59414 0.62028
 H935 H 0.88053 0.59913 0.55412
 H936 H 0.85143 0.63650 0.58671
 C937 C 0.33658 0.18767 0.67854
 C938 C 0.30761 0.17661 0.68536
 C939 C 0.28830 0.18844 0.70957
 C940 C 0.29768 0.21156 0.72745
 C941 C 0.32621 0.22338 0.71981
 C942 C 0.34576 0.21131 0.69554
 C943 C 0.35733 0.17297 0.65559
 C944 C 0.37356 0.15849 0.63707
 C945 C 0.39171 0.13897 0.61613
 C946 C 0.37769 0.13015 0.58821
 C947 C 0.39314 0.10775 0.57039
 C948 C 0.42269 0.09379 0.58047
 C949 C 0.43722 0.10359 0.60783
 C950 C 0.42177 0.12600 0.62557
 H951 H 0.30024 0.15836 0.67238
 H952 H 0.26607 0.17933 0.71445
 H953 H 0.33389 0.24119 0.73325
 H954 H 0.36824 0.21995 0.69054
 H955 H 0.35426 0.13983 0.58086
 H956 H 0.38143 0.10066 0.54940
 H957 H 0.46004 0.09332 0.61610
 H958 H 0.43271 0.13243 0.64729
 C959 C 0.33142 0.68629 0.18401
 C960 C 0.32871 0.67481 0.21416
 C961 C 0.30897 0.68950 0.23646
 C962 C 0.29158 0.71596 0.22892
 C963 C 0.29531 0.72794 0.19897
 C964 C 0.31505 0.71310 0.17657
 C965 C 0.34973 0.66957 0.16060
 C966 C 0.36482 0.65421 0.14197
 C967 C 0.38273 0.63442 0.12104
 C968 C 0.41309 0.62191 0.13017
 C969 C 0.42929 0.60042 0.11172
 C970 C 0.41530 0.59108 0.08386
 C971 C 0.38522 0.60436 0.07429
 C972 C 0.36898 0.62586 0.09285
 H973 H 0.34132 0.65414 0.22024
 H974 H 0.30690 0.67994 0.25947
 H975 H 0.28193 0.74810 0.19239
 H976 H 0.31689 0.72216 0.15327
 H977 H 0.42390 0.62822 0.15200
 H978 H 0.45247 0.59066 0.11966
 H979 H 0.37387 0.59759 0.05295
 H980 H 0.34539 0.63526 0.08565
   
