data_POSCAR
  _audit_creation_date              2014-09-24
  _audit_creation_method            'ToBaCCo'
  _symmetry_space_group_name_H-M    'P1'
  _symmetry_Int_Tables_number       1
  _symmetry_cell_setting            triclinic
  loop_
  _symmetry_equiv_pos_as_xyz
 x,y,z
_cell_length_a 56.2189
_cell_length_b 56.2955
_cell_length_c 21.6832
_cell_angle_alpha 90.058900
_cell_angle_beta 89.943200
_cell_angle_gamma 119.988200
loop_
  _atom_site_label
  _atom_site_type_symbol
  _atom_site_fract_x
  _atom_site_fract_y
  _atom_site_fract_z
C1 C 0.19925 0.50001 0.44457
 C2 C 0.18700 0.49996 0.50068
 C3 C 0.19912 0.49992 0.55687
 C4 C 0.22429 0.49997 0.55768
 C5 C 0.23698 0.50003 0.50099
 C6 C 0.22442 0.50003 0.44411
 C7 C 0.23735 0.49999 0.38855
 C8 C 0.26211 0.49999 0.38876
 C9 C 0.27489 0.50004 0.44449
 C10 C 0.26225 0.50006 0.50118
 C11 C 0.23707 0.49991 0.61343
 C12 C 0.26186 0.49997 0.61359
 C13 C 0.27483 0.50005 0.55801
 C14 C 0.30001 0.50008 0.55741
 C15 C 0.31219 0.50009 0.50122
 C16 C 0.29998 0.50004 0.44518
 H17 H 0.22837 0.49995 0.34436
 H18 H 0.27120 0.49996 0.34473
 H19 H 0.22796 0.49984 0.65751
 H20 H 0.27082 0.49992 0.65774
 H21 H 0.16762 0.49988 0.50062
 H22 H 0.33150 0.50006 0.50095
 C23 C 0.50005 -0.30037 0.55513
 C24 C 0.49995 -0.31260 0.49903
 C25 C 0.49998 -0.30044 0.44288
 C26 C 0.50006 -0.27526 0.44239
 C27 C 0.50009 -0.26267 0.49928
 C28 C 0.50011 -0.27528 0.55592
 C29 C 0.50022 -0.26246 0.61170
 C30 C 0.50027 -0.23771 0.61198
 C31 C 0.50020 -0.22484 0.55644
 C32 C 0.50015 -0.23743 0.49955
 C33 C 0.50013 -0.26233 0.38685
 C34 C 0.50019 -0.23756 0.38712
 C35 C 0.50018 -0.22481 0.44291
 C36 C 0.50023 -0.19971 0.44370
 C37 C 0.50023 -0.18754 0.49980
 C38 C 0.50023 -0.19969 0.55596
 H39 H 0.50028 -0.27151 0.65571
 H40 H 0.50035 -0.22869 0.65618
 H41 H 0.50014 -0.27129 0.34266
 H42 H 0.50025 -0.22845 0.34312
 H43 H 0.49992 -0.33192 0.49921
 H44 H 0.50032 -0.16819 0.49963
 C45 C 1.20036 0.70018 0.55752
 C46 C 1.18818 0.68799 0.50139
 C47 C 1.20029 0.70015 0.44527
 C48 C 1.22536 0.72525 0.44443
 C49 C 1.23803 0.73791 0.50104
 C50 C 1.22549 0.72536 0.55796
 C51 C 1.23840 0.73834 0.61345
 C52 C 1.26312 0.76312 0.61314
 C53 C 1.27590 0.77588 0.55733
 C54 C 1.26325 0.76317 0.50071
 C55 C 1.23803 0.73799 0.38862
 C56 C 1.26275 0.76276 0.38827
 C57 C 1.27573 0.77571 0.44374
 C58 C 1.30086 0.80088 0.44405
 C59 C 1.31308 0.81313 0.50010
 C60 C 1.30098 0.80106 0.55638
 H61 H 1.22944 0.72940 0.65765
 H62 H 1.27217 0.77223 0.65717
 H63 H 1.22889 0.72890 0.34464
 H64 H 1.27164 0.77171 0.34402
 H65 H 1.16885 0.66869 0.50124
 H66 H 1.33235 0.83252 0.49990
 C67 C 0.69863 0.49805 0.55832
 C68 C 0.68649 0.49794 0.50210
 C69 C 0.69871 0.49793 0.44612
 C70 C 0.72386 0.49801 0.44561
 C71 C 0.73642 0.49803 0.50246
 C72 C 0.72379 0.49808 0.55919
 C73 C 0.73666 0.49819 0.61490
 C74 C 0.76144 0.49818 0.61497
 C75 C 0.77428 0.49807 0.55934
 C76 C 0.76167 0.49804 0.50254
 C77 C 0.73676 0.49809 0.39000
 C78 C 0.76155 0.49813 0.39008
 C79 C 0.77430 0.49806 0.44577
 C80 C 0.79939 0.49805 0.44641
 C81 C 0.81155 0.49801 0.50241
 C82 C 0.79942 0.49803 0.55862
 H83 H 0.72763 0.49827 0.65897
 H84 H 0.77049 0.49827 0.65909
 H85 H 0.72776 0.49815 0.34590
 H86 H 0.77067 0.49820 0.34603
 H87 H 0.66715 0.49793 0.50177
 H88 H 0.83090 0.49804 0.50210
 C89 C 0.50174 0.20098 0.55670
 C90 C 0.50180 0.18885 0.50061
 C91 C 0.50183 0.20099 0.44455
 C92 C 0.50182 0.22607 0.44393
 C93 C 0.50183 0.23868 0.50073
 C94 C 0.50177 0.22607 0.55745
 C95 C 0.50168 0.23882 0.61315
 C96 C 0.50171 0.26358 0.61326
 C97 C 0.50184 0.27649 0.55763
 C98 C 0.50187 0.26389 0.50081
 C99 C 0.50177 0.23883 0.38830
 C100 C 0.50181 0.26360 0.38835
 C101 C 0.50189 0.27646 0.44404
 C102 C 0.50196 0.30156 0.44469
 C103 C 0.50198 0.31377 0.50071
 C104 C 0.50189 0.30164 0.55692
 H105 H 0.50160 0.22972 0.65718
 H106 H 0.50164 0.27257 0.65739
 H107 H 0.50169 0.22974 0.34422
 H108 H 0.50179 0.27262 0.34430
 H109 H 0.50174 0.16952 0.50059
 H110 H 0.50199 0.33309 0.50042
 C111 C 0.79916 0.30090 0.44510
 C112 C 0.81125 0.31307 0.50121
 C113 C 0.79909 0.30089 0.55727
 C114 C 0.77403 0.27578 0.55794
 C115 C 0.76145 0.26319 0.50118
 C116 C 0.77408 0.27578 0.44441
 C117 C 0.76134 0.26294 0.38874
 C118 C 0.73657 0.23819 0.38871
 C119 C 0.72370 0.22541 0.44435
 C120 C 0.73624 0.23797 0.50117
 C121 C 0.76126 0.26294 0.61361
 C122 C 0.73651 0.23816 0.61362
 C123 C 0.72363 0.22534 0.55794
 C124 C 0.69849 0.20021 0.55714
 C125 C 0.68638 0.18814 0.50089
 C126 C 0.69860 0.20034 0.44492
 H127 H 0.77043 0.27198 0.34470
 H128 H 0.72756 0.22912 0.34462
 H129 H 0.77034 0.27197 0.65767
 H130 H 0.72750 0.22909 0.65771
 H131 H 0.83057 0.33236 0.50124
 H132 H 0.66708 0.16881 0.50053
 O133 O 0.96308 0.52148 -0.11645
 O134 O 0.93244 0.48601 -0.05528
 C135 C 0.93838 0.50325 -0.10021
 O136 O 1.03956 0.47668 -0.10775
 O137 O 1.07010 0.51454 -0.05224
 C138 C 1.06421 0.49549 -0.09288
 O139 O 0.96294 0.44041 -0.11256
 O140 O 0.93241 0.44664 -0.05404
 C141 C 0.93830 0.43454 -0.09732
 O142 O 1.03957 0.56225 -0.11031
 O143 O 1.07010 0.55542 -0.05337
 C144 C 1.06424 0.56821 -0.09502
 Zr145 Zr 1.00124 0.53070 -0.07754
 O146 O 1.00233 0.53484 -0.17452
 O147 O 1.00015 0.56745 -0.06697
 Zr148 Zr 1.00121 0.47044 -0.07629
 O149 O 1.00376 0.47005 -0.17369
 O150 O 0.99820 0.43145 -0.07104
 O151 O 0.97695 0.48840 -0.08922
 O152 O 1.02492 0.51232 -0.08864
 O153 O 1.03988 0.56320 0.10790
 O154 O 1.07033 0.55585 0.05185
 C155 C 1.06452 0.56898 0.09275
 O156 O 0.96296 0.44136 0.11532
 O157 O 0.93240 0.44704 0.05584
 C158 C 0.93831 0.43532 0.09988
 O159 O 1.03961 0.47761 0.11030
 O160 O 1.07014 0.51479 0.05304
 C161 C 1.06428 0.49619 0.09477
 O162 O 0.96327 0.52240 0.11544
 O163 O 0.93254 0.48645 0.05542
 C164 C 0.93857 0.50402 0.09973
 Zr165 Zr 1.00133 0.53146 0.07632
 O166 O 1.00357 0.53668 0.17305
 O167 O 0.99843 0.56742 0.06748
 Zr168 Zr 1.00125 0.47113 0.07837
 O169 O 1.00408 0.47171 0.17579
 O170 O 0.99818 0.43209 0.07527
 Zr171 Zr 0.95998 0.48032 0.00039
 Zr172 Zr 1.04242 0.52134 0.00011
 O173 O 1.02495 0.51312 0.08901
 O174 O 0.97703 0.48924 0.08989
 O175 O 1.02623 0.54803 -0.00088
 O176 O 0.97701 0.45445 0.00121
 O177 O 0.97682 0.52314 -0.00067
 O178 O 1.02603 0.47848 0.00109
 H179 H 1.03692 0.51812 -0.12554
 H180 H 0.96437 0.43434 0.00156
 H181 H 1.03690 0.51921 0.12596
 H182 H 0.96398 0.53040 -0.00096
 H183 H 1.01518 0.43394 -0.05148
 H184 H 1.01511 0.43439 0.05571
 H185 H 0.98971 0.47521 0.19233
 H186 H 0.99959 0.51895 0.19099
 H187 H 1.01576 0.58177 0.04873
 H188 H 0.99956 0.57377 -0.10925
 H189 H 1.00370 0.51931 -0.19164
 H190 H 0.98990 0.47424 -0.19044
 O191 O 0.55822 0.52098 0.11651
 O192 O 0.55324 0.48545 0.05531
 C193 C 0.56458 0.50268 0.10028
 O194 O 0.43686 0.47613 0.10756
 O195 O 0.44414 0.51384 0.05166
 C196 C 0.43101 0.49490 0.09247
 O197 O 0.47718 0.43994 0.11271
 O198 O 0.51385 0.44606 0.05402
 C199 C 0.49593 0.43406 0.09747
 O200 O 0.52246 0.56173 0.10996
 O201 O 0.48510 0.55489 0.05283
 C202 C 0.50375 0.56769 0.09457
 Zr203 Zr 0.52935 0.53019 0.07749
 O204 O 0.53251 0.53440 0.17450
 O205 O 0.56724 0.56692 0.06682
 Zr206 Zr 0.46897 0.46990 0.07616
 O207 O 0.46605 0.46957 0.17354
 O208 O 0.43300 0.43090 0.07078
 O209 O 0.51122 0.48788 0.08911
 O210 O 0.48725 0.51180 0.08857
 O211 O 0.52334 0.56263 -0.10794
 O212 O 0.48548 0.55522 -0.05208
 C213 C 0.50446 0.56838 -0.09287
 O214 O 0.47858 0.44076 -0.11479
 O215 O 0.51489 0.44652 -0.05511
 C216 C 0.49722 0.43473 -0.09914
 O217 O 0.43774 0.47697 -0.11047
 O218 O 0.44469 0.51438 -0.05362
 C219 C 0.43181 0.49568 -0.09514
 O220 O 0.55918 0.52197 -0.11514
 O221 O 0.55365 0.48588 -0.05542
 C222 C 0.56537 0.50352 -0.09947
 Zr223 Zr 0.52992 0.53078 -0.07658
 O224 O 0.53202 0.53546 -0.17346
 O225 O 0.56884 0.56676 -0.06864
 Zr226 Zr 0.46963 0.47046 -0.07862
 O227 O 0.46729 0.47096 -0.17603
 O228 O 0.43362 0.43139 -0.07604
 Zr229 Zr 0.52000 0.47973 -0.00051
 Zr230 Zr 0.47878 0.52074 -0.00021
 O231 O 0.48797 0.51245 -0.08916
 O232 O 0.51195 0.48855 -0.09012
 O233 O 0.52169 0.54743 0.00070
 O234 O 0.47710 0.45383 -0.00135
 O235 O 0.54611 0.52253 0.00055
 O236 O 0.45223 0.47789 -0.00131
 H237 H 0.48101 0.51761 0.12538
 H238 H 0.46968 0.43373 -0.00176
 H239 H 0.48213 0.51856 -0.12610
 H240 H 0.56621 0.52979 0.00086
 H241 H 0.41855 0.43340 0.05104
 H242 H 0.41901 0.43361 -0.05611
 H243 H 0.48505 0.47417 -0.19264
 H244 H 0.52122 0.51686 -0.19109
 H245 H 0.56603 0.58098 -0.04855
 H246 H 0.57410 0.57334 0.10911
 H247 H 0.51512 0.51957 0.19165
 H248 H 0.48427 0.47425 0.19019
 O249 O 0.55828 0.03702 -0.11741
 O250 O 0.55329 0.06762 -0.05633
 C251 C 0.56467 0.06168 -0.10122
 O252 O 0.43690 -0.03943 -0.10837
 O253 O 0.44416 -0.06994 -0.05257
 C254 C 0.43104 -0.06407 -0.09331
 O255 O 0.47724 0.03717 -0.11369
 O256 O 0.51388 0.06765 -0.05496
 C257 C 0.49596 0.06178 -0.09835
 O258 O 0.52250 -0.03944 -0.11122
 O259 O 0.48520 -0.06993 -0.05395
 C260 C 0.50385 -0.06409 -0.09575
 Zr261 Zr 0.52929 -0.00108 -0.07863
 O262 O 0.53253 -0.00184 -0.17567
 O263 O 0.56716 -0.00005 -0.06829
 Zr264 Zr 0.46900 -0.00104 -0.07727
 O265 O 0.46624 -0.00358 -0.17466
 O266 O 0.43298 0.00199 -0.07237
 O267 O 0.51124 0.02320 -0.09019
 O268 O 0.48722 -0.02474 -0.08969
 O269 O 0.52331 -0.03951 0.10689
 O270 O 0.48549 -0.06990 0.05102
 C271 C 0.50446 -0.06410 0.09180
 O272 O 0.47800 0.03715 0.11446
 O273 O 0.51425 0.06766 0.05486
 C274 C 0.49660 0.06177 0.09895
 O275 O 0.43767 -0.03943 0.10934
 O276 O 0.44448 -0.06986 0.05203
 C277 C 0.43167 -0.06405 0.09381
 O278 O 0.55884 0.03691 0.11438
 O279 O 0.55358 0.06757 0.05432
 C280 C 0.56511 0.06158 0.09866
 Zr281 Zr 0.52989 -0.00112 0.07534
 O282 O 0.53263 -0.00344 0.17208
 O283 O 0.56882 0.00181 0.06663
 Zr284 Zr 0.46955 -0.00109 0.07747
 O285 O 0.46717 -0.00400 0.17489
 O286 O 0.43353 0.00197 0.07427
 Zr287 Zr 0.52003 0.04013 -0.00059
 Zr288 Zr 0.47876 -0.04215 -0.00091
 O289 O 0.48793 -0.02472 0.08800
 O290 O 0.51189 0.02312 0.08895
 O291 O 0.52166 -0.02598 -0.00192
 O292 O 0.47711 0.02312 0.00028
 O293 O 0.54609 0.02332 -0.00172
 O294 O 0.45222 -0.02579 0.00015
 H295 H 0.48096 -0.03685 -0.12638
 H296 H 0.46963 0.03576 0.00064
 H297 H 0.48206 -0.03665 0.12496
 H298 H 0.56619 0.03613 -0.00200
 H299 H 0.41854 -0.01487 -0.05235
 H300 H 0.41891 -0.01494 0.05473
 H301 H 0.48500 0.01036 0.19156
 H302 H 0.51952 0.00147 0.18999
 H303 H 0.56595 -0.01542 0.04760
 H304 H 0.57407 0.00050 -0.11061
 H305 H 0.51473 -0.00557 -0.19283
 H306 H 0.48449 0.00993 -0.19122
 C307 C 1.15505 0.49934 0.29738
 C308 C 1.16245 0.49368 0.23285
 C309 C 1.14535 0.49321 0.18746
 C310 C 1.12262 0.49845 0.21128
 C311 C 1.13778 0.52590 0.24578
 C312 C 1.15480 0.52637 0.29100
 C313 C 1.12489 0.47733 0.30688
 C314 C 1.10789 0.47686 0.26173
 C315 C 1.17273 0.49974 0.34765
 C316 C 1.18584 0.49992 0.39184
 C317 C 1.10351 0.49784 0.16437
 C318 C 1.08632 0.49715 0.13002
 H319 H 1.17956 0.49038 0.22365
 H320 H 1.14782 0.48951 0.13937
 H321 H 1.13540 0.54347 0.23545
 H322 H 1.16701 0.54434 0.31939
 H323 H 1.11751 0.46327 0.34568
 H324 H 1.08596 0.46239 0.26191
 C325 C 0.50067 0.65578 0.29617
 C326 C 0.47394 0.62809 0.29164
 C327 C 0.47435 0.61137 0.24673
 C328 C 0.50145 0.62393 0.21065
 C329 C 0.52376 0.63178 0.25987
 C330 C 0.52335 0.64848 0.30470
 C331 C 0.50528 0.66817 0.23114
 C332 C 0.50569 0.65137 0.18605
 C333 C 0.50030 0.67320 0.34614
 C334 C 0.50010 0.68621 0.39020
 C335 C 0.50204 0.60529 0.16404
 C336 C 0.50273 0.58874 0.12986
 H337 H 0.45620 0.62218 0.32101
 H338 H 0.45694 0.59114 0.23766
 H339 H 0.53867 0.62488 0.25942
 H340 H 0.53791 0.65587 0.34261
 H341 H 0.50797 0.68828 0.22140
 H342 H 0.50871 0.65709 0.13768
 C343 C 0.34422 -0.15488 0.29668
 C344 C 0.32863 -0.14873 0.24690
 C345 C 0.34521 -0.13159 0.20161
 C346 C 0.37572 -0.12237 0.21060
 C347 C 0.37674 -0.14904 0.21605
 C348 C 0.36016 -0.16615 0.26132
 C349 C 0.36625 -0.12669 0.32041
 C350 C 0.38274 -0.10965 0.27531
 C351 C 0.32698 -0.17259 0.34697
 C352 C 0.31410 -0.18571 0.39123
 C353 C 0.39417 -0.10326 0.16361
 C354 C 0.41063 -0.08609 0.12915
 H355 H 0.30654 -0.15709 0.24715
 H356 H 0.33734 -0.12531 0.16304
 H357 H 0.38932 -0.15407 0.18690
 H358 H 0.35852 -0.18583 0.27091
 H359 H 0.36869 -0.12060 0.36858
 H360 H 0.39931 -0.08901 0.28491
 C361 C 0.84573 0.49933 0.29889
 C362 C 0.87576 0.52112 0.31097
 C363 C 0.89346 0.52184 0.26727
 C364 C 0.87947 0.50071 0.21560
 C365 C 0.85728 0.50633 0.18996
 C366 C 0.83948 0.50560 0.23389
 C367 C 0.84588 0.47225 0.29242
 C368 C 0.86361 0.47299 0.24865
 C369 C 0.82735 0.49866 0.34765
 C370 C 0.81377 0.49830 0.39102
 C371 C 0.89917 0.50158 0.17006
 C372 C 0.91658 0.50254 0.13603
 H373 H 0.88253 0.53487 0.35039
 H374 H 0.91539 0.53620 0.26926
 H375 H 0.85569 0.51050 0.14173
 H376 H 0.82264 0.50914 0.22335
 H377 H 0.83310 0.45407 0.31968
 H378 H 0.86604 0.45544 0.23841
 C379 C 0.50075 0.34638 0.29689
 C380 C 0.51874 0.34983 0.24045
 C381 C 0.51799 0.36675 0.19632
 C382 C 0.49934 0.37847 0.21320
 C383 C 0.50989 0.39248 0.27589
 C384 C 0.51063 0.37564 0.31978
 C385 C 0.47192 0.33646 0.27080
 C386 C 0.47117 0.35334 0.22680
 C387 C 0.50142 0.32880 0.34584
 C388 C 0.50176 0.31565 0.38928
 C389 C 0.49839 0.39713 0.16747
 C390 C 0.49738 0.41350 0.13344
 H391 H 0.53090 0.33985 0.23554
 H392 H 0.52950 0.37125 0.15354
 H393 H 0.51623 0.41381 0.28504
 H394 H 0.51763 0.38257 0.36648
 H395 H 0.45371 0.31780 0.28548
 H396 H 0.45232 0.34913 0.20376
 C397 C 0.65335 0.15426 0.29749
 C398 C 0.63079 0.12690 0.32377
 C399 C 0.61376 0.10927 0.28018
 C400 C 0.62084 0.12064 0.21436
 C401 C 0.65106 0.12868 0.20534
 C402 C 0.66818 0.14639 0.24912
 C403 C 0.63798 0.16562 0.26036
 C404 C 0.62086 0.14791 0.21658
 C405 C 0.67116 0.17257 0.34616
 C406 C 0.68445 0.18607 0.38949
 C407 C 0.60199 0.10098 0.16890
 C408 C 0.58557 0.08357 0.13494
 H409 H 0.62840 0.12178 0.37251
 H410 H 0.59677 0.08909 0.29161
 H411 H 0.65835 0.12119 0.16784
 H412 H 0.69015 0.15407 0.24916
 H413 H 0.64040 0.18579 0.26769
 H414 H 0.60855 0.15289 0.18644
 C415 C 0.50047 0.15471 -0.29599
 C416 C 0.49373 0.16065 -0.23107
 C417 C 0.49302 0.14287 -0.18726
 C418 C 0.49913 0.12101 -0.21292
 C419 C 0.52703 0.13722 -0.24532
 C420 C 0.52774 0.15493 -0.28897
 C421 C 0.47898 0.12467 -0.30867
 C422 C 0.47829 0.10699 -0.26509
 C423 C 0.50112 0.17306 -0.34466
 C424 C 0.50147 0.18662 -0.38798
 C425 C 0.49827 0.10130 -0.16760
 C426 C 0.49733 0.08384 -0.13396
 H427 H 0.48990 0.17729 -0.22048
 H428 H 0.48859 0.14428 -0.13909
 H429 H 0.54472 0.13507 -0.23467
 H430 H 0.54604 0.16794 -0.31576
 H431 H 0.46541 0.11785 -0.34840
 H432 H 0.46413 0.08505 -0.26750
 C433 C 0.65415 0.49924 -0.29737
 C434 C 0.62623 0.47272 -0.29400
 C435 C 0.60910 0.47335 -0.25045
 C436 C 0.62154 0.50043 -0.21448
 C437 C 0.63016 0.52274 -0.26388
 C438 C 0.64728 0.52212 -0.30738
 C439 C 0.66581 0.50373 -0.23165
 C440 C 0.64861 0.50436 -0.18793
 C441 C 0.67198 0.49865 -0.34596
 C442 C 0.68521 0.49831 -0.38935
 C443 C 0.60256 0.50121 -0.16922
 C444 C 0.58601 0.50211 -0.13545
 H445 H 0.62045 0.45496 -0.32316
 H446 H 0.58867 0.45614 -0.24226
 H447 H 0.62347 0.53780 -0.26453
 H448 H 0.65525 0.53666 -0.34528
 H449 H 0.68575 0.50620 -0.22049
 H450 H 0.65378 0.50735 -0.13925
 C451 C 0.84537 0.34606 -0.29537
 C452 C 0.87559 0.35565 -0.30945
 C453 C 0.89328 0.37265 -0.26583
 C454 C 0.87909 0.37844 -0.21219
 C455 C 0.85800 0.35005 -0.18719
 C456 C 0.84022 0.33296 -0.23105
 C457 C 0.84424 0.37253 -0.28632
 C458 C 0.86197 0.38954 -0.24260
 C459 C 0.82699 0.32832 -0.34407
 C460 C 0.81342 0.31506 -0.38737
 C461 C 0.89878 0.39730 -0.16674
 C462 C 0.91623 0.41382 -0.13298
 H463 H 0.88249 0.34957 -0.35017
 H464 H 0.91533 0.38109 -0.26920
 H465 H 0.85713 0.34391 -0.13942
 H466 H 0.82408 0.31220 -0.22086
 H467 H 0.83065 0.37744 -0.31184
 H468 H 0.86358 0.40902 -0.23069
 C469 C 0.50085 -0.15524 -0.29735
 C470 C 0.52264 -0.12509 -0.30762
 C471 C 0.52308 -0.10796 -0.26279
 C472 C 0.50167 -0.12257 -0.21185
 C473 C 0.50727 -0.14497 -0.18768
 C474 C 0.50683 -0.16219 -0.23275
 C475 C 0.47367 -0.15524 -0.29071
 C476 C 0.47409 -0.13809 -0.24581
 C477 C 0.50048 -0.17304 -0.34730
 C478 C 0.50032 -0.18623 -0.39136
 C479 C 0.50223 -0.10337 -0.16521
 C480 C 0.50289 -0.08613 -0.13103
 H481 H 0.53660 -0.11783 -0.34668
 H482 H 0.53742 -0.08603 -0.26354
 H483 H 0.51118 -0.14713 -0.13959
 H484 H 0.51038 -0.17909 -0.22326
 H485 H 0.45562 -0.16772 -0.31869
 H486 H 0.45639 -0.13589 -0.23537
 C487 C 0.34376 0.49912 -0.29619
 C488 C 0.35217 0.47738 -0.30683
 C489 C 0.36883 0.47683 -0.26212
 C490 C 0.37554 0.49808 -0.21089
 C491 C 0.34750 0.49244 -0.18664
 C492 C 0.33075 0.49299 -0.23161
 C493 C 0.37092 0.52625 -0.28927
 C494 C 0.38761 0.52571 -0.24448
 C495 C 0.32636 0.49963 -0.34603
 C496 C 0.31335 0.49989 -0.38999
 C497 C 0.39415 0.49739 -0.16441
 C498 C 0.41071 0.49665 -0.13030
 H499 H 0.34556 0.46354 -0.34609
 H500 H 0.37647 0.46252 -0.26311
 H501 H 0.34137 0.48844 -0.13857
 H502 H 0.31026 0.48943 -0.22207
 H503 H 0.37653 0.54435 -0.31701
 H504 H 0.40750 0.54335 -0.23384
 C505 C 1.15576 0.65637 -0.29598
 C506 C 1.15568 0.62917 -0.28961
 C507 C 1.13844 0.61242 -0.24488
 C508 C 1.12293 0.62448 -0.21080
 C509 C 1.10839 0.63137 -0.26165
 C510 C 1.12560 0.64809 -0.30630
 C511 C 1.16269 0.66921 -0.23124
 C512 C 1.14539 0.65240 -0.18634
 C513 C 1.17366 0.67382 -0.34579
 C514 C 1.18690 0.68685 -0.38979
 C515 C 1.10362 0.60582 -0.16435
 C516 C 1.08632 0.58926 -0.13026
 H517 H 1.16816 0.62359 -0.31763
 H518 H 1.13616 0.59252 -0.23461
 H519 H 1.08644 0.62383 -0.26242
 H520 H 1.11838 0.65485 -0.34527
 H521 H 1.17965 0.68962 -0.22155
 H522 H 1.14751 0.65840 -0.13819
 C523 C 0.84503 0.49892 -0.29732
 C524 C 0.87530 0.51866 -0.31284
 C525 C 0.89308 0.51922 -0.26965
 C526 C 0.87894 0.49999 -0.21494
 C527 C 0.86092 0.47158 -0.24384
 C528 C 0.84310 0.47102 -0.28713
 C529 C 0.84076 0.50783 -0.23321
 C530 C 0.85864 0.50839 -0.18977
 C531 C 0.82657 0.49842 -0.34569
 C532 C 0.81301 0.49818 -0.38900
 C533 C 0.89877 0.50073 -0.16995
 C534 C 0.91629 0.50170 -0.13631
 H535 H 0.88218 0.53122 -0.35416
 H536 H 0.91518 0.53225 -0.27402
 H537 H 0.86193 0.45347 -0.23114
 H538 H 0.82887 0.45243 -0.31154
 H539 H 0.82511 0.51316 -0.22286
 H540 H 0.85830 0.51420 -0.14216
 C541 C 0.50104 0.34605 -0.29812
 C542 C 0.52723 0.37428 -0.29640
 C543 C 0.52677 0.39137 -0.25255
 C544 C 0.50018 0.37861 -0.21461
 C545 C 0.49729 0.35196 -0.18820
 C546 C 0.49774 0.33479 -0.23224
 C547 C 0.47752 0.35218 -0.30615
 C548 C 0.47707 0.36926 -0.26235
 C549 C 0.50147 0.32826 -0.34707
 C550 C 0.50171 0.31505 -0.39063
 C551 C 0.49955 0.39757 -0.16902
 C552 C 0.49869 0.41412 -0.13512
 H553 H 0.54468 0.38028 -0.32680
 H554 H 0.54381 0.41199 -0.24541
 H555 H 0.49512 0.34704 -0.13940
 H556 H 0.49592 0.31515 -0.22120
 H557 H 0.46243 0.34372 -0.34293
 H558 H 0.46161 0.37544 -0.26167
 C559 C 0.65372 0.15467 -0.29871
 C560 C 0.64571 0.12471 -0.31044
 C561 C 0.62849 0.10701 -0.26711
 C562 C 0.62089 0.12093 -0.21611
 C563 C 0.60909 0.13665 -0.25010
 C564 C 0.62634 0.15438 -0.29349
 C565 C 0.66580 0.16099 -0.23327
 C566 C 0.64849 0.14319 -0.18972
 C567 C 0.67168 0.17306 -0.34718
 C568 C 0.68502 0.18660 -0.39050
 C569 C 0.60180 0.10119 -0.17100
 C570 C 0.58522 0.08373 -0.13732
 H571 H 0.65303 0.11797 -0.34932
 H572 H 0.62106 0.08512 -0.26894
 H573 H 0.58901 0.13417 -0.24072
 H574 H 0.62102 0.16708 -0.32126
 H575 H 0.68608 0.17788 -0.22216
 H576 H 0.65392 0.14484 -0.14125
 C577 C 1.15483 0.49881 -0.29583
 C578 C 1.12470 0.47671 -0.30523
 C579 C 1.10772 0.47611 -0.25983
 C580 C 1.12245 0.49767 -0.20930
 C581 C 1.13745 0.52517 -0.24359
 C582 C 1.15446 0.52577 -0.28906
 C583 C 1.16237 0.49315 -0.23153
 C584 C 1.14529 0.49256 -0.18588
 C585 C 1.17246 0.49938 -0.34628
 C586 C 1.18559 0.49969 -0.39054
 C587 C 1.10338 0.49696 -0.16221
 C588 C 1.08620 0.49630 -0.12788
 H589 H 1.11735 0.46267 -0.34413
 H590 H 1.08581 0.46154 -0.25985
 H591 H 1.13500 0.54267 -0.23294
 H592 H 1.16658 0.54379 -0.31735
 H593 H 1.17955 0.48994 -0.22267
 H594 H 1.14781 0.48881 -0.13790
 C595 C 0.50107 0.65562 -0.29506
 C596 C 0.50632 0.66859 -0.23051
 C597 C 0.50686 0.65207 -0.18503
 C598 C 0.50209 0.62432 -0.20883
 C599 C 0.52396 0.63148 -0.25887
 C600 C 0.52342 0.64791 -0.30411
 C601 C 0.47418 0.62816 -0.28909
 C602 C 0.47471 0.61171 -0.24378
 C603 C 0.50056 0.67274 -0.34530
 C604 C 0.50027 0.68561 -0.38936
 C605 C 0.50279 0.60595 -0.16192
 C606 C 0.50352 0.58948 -0.12774
 H607 H 0.50933 0.68887 -0.22137
 H608 H 0.51029 0.65817 -0.13689
 H609 H 0.53868 0.62434 -0.25868
 H610 H 0.53769 0.65484 -0.34261
 H611 H 0.45625 0.62221 -0.31778
 H612 H 0.45722 0.59167 -0.23364
 C613 C 0.34407 -0.15463 -0.29638
 C614 C 0.37137 -0.15436 -0.28929
 C615 C 0.38771 -0.13736 -0.24379
 C616 C 0.37516 -0.12229 -0.20978
 C617 C 0.34713 -0.14501 -0.18648
 C618 C 0.33073 -0.16208 -0.23215
 C619 C 0.35217 -0.12453 -0.30596
 C620 C 0.36847 -0.10756 -0.26052
 C621 C 0.32707 -0.17225 -0.34685
 C622 C 0.31427 -0.18539 -0.39110
 C623 C 0.39344 -0.10323 -0.16266
 C624 C 0.40990 -0.08606 -0.12831
 H625 H 0.37729 -0.16653 -0.31741
 H626 H 0.40764 -0.13499 -0.23291
 H627 H 0.34077 -0.14750 -0.13852
 H628 H 0.31027 -0.17918 -0.22335
 H629 H 0.34558 -0.11716 -0.34496
 H630 H 0.37587 -0.08567 -0.26066
 C631 C 0.50114 -0.15472 0.29392
 C632 C 0.50867 -0.16103 0.23019
 C633 C 0.50924 -0.14396 0.18473
 C634 C 0.50220 -0.12238 0.20769
 C635 C 0.52251 -0.10742 0.26031
 C636 C 0.52194 -0.12438 0.30556
 C637 C 0.47356 -0.15581 0.28457
 C638 C 0.47410 -0.13882 0.23924
 C639 C 0.50065 -0.17235 0.34414
 C640 C 0.50041 -0.18550 0.38818
 C641 C 0.50287 -0.10333 0.16078
 C642 C 0.50356 -0.08613 0.12664
 H643 H 0.51313 -0.17741 0.22156
 H644 H 0.51414 -0.14571 0.13712
 H645 H 0.53620 -0.08536 0.26188
 H646 H 0.53517 -0.11686 0.34581
 H647 H 0.45518 -0.16888 0.31109
 H648 H 0.45617 -0.13733 0.22695
 C649 C 0.34385 0.49865 0.29511
 C650 C 0.35061 0.47559 0.30294
 C651 C 0.36697 0.47490 0.25761
 C652 C 0.37504 0.49733 0.20872
 C653 C 0.38820 0.52436 0.24505
 C654 C 0.37180 0.52505 0.29043
 C655 C 0.33124 0.49438 0.23036
 C656 C 0.34769 0.49368 0.18478
 C657 C 0.32680 0.49931 0.34547
 C658 C 0.31398 0.49971 0.38961
 C659 C 0.39336 0.49651 0.16173
 C660 C 0.40984 0.49577 0.12743
 H661 H 0.34310 0.46097 0.34071
 H662 H 0.37349 0.45971 0.25656
 H663 H 0.40857 0.54152 0.23577
 H664 H 0.37814 0.54277 0.32005
 H665 H 0.31122 0.49210 0.22119
 H666 H 0.34180 0.49083 0.13651
 C667 C 1.15521 0.65610 0.29532
 C668 C 1.16251 0.66938 0.23108
 C669 C 1.14544 0.65289 0.18551
 C670 C 1.12284 0.62485 0.20897
 C671 C 1.10804 0.63143 0.25989
 C672 C 1.12502 0.64782 0.30519
 C673 C 1.15514 0.62894 0.28812
 C674 C 1.13812 0.61252 0.24275
 C675 C 1.17285 0.67319 0.34567
 C676 C 1.18601 0.68607 0.38977
 C677 C 1.10377 0.60652 0.16200
 C678 C 1.08657 0.59006 0.12773
 H679 H 1.17955 0.68984 0.22220
 H680 H 1.14784 0.65921 0.13756
 H681 H 1.08610 0.62392 0.26021
 H682 H 1.11762 0.65435 0.34430
 H683 H 1.16745 0.62316 0.31604
 H684 H 1.13589 0.59268 0.23177
 C685 C 0.50098 0.15471 0.29725
 C686 C 0.47980 0.12461 0.31029
 C687 C 0.47922 0.10693 0.26674
 C688 C 0.49988 0.12101 0.21422
 C689 C 0.52783 0.13755 0.24620
 C690 C 0.52841 0.15527 0.28981
 C691 C 0.49396 0.16035 0.23242
 C692 C 0.49336 0.14258 0.18865
 C693 C 0.50149 0.17308 0.34589
 C694 C 0.50170 0.18664 0.38917
 C695 C 0.49909 0.10130 0.16884
 C696 C 0.49811 0.08384 0.13499
 H697 H 0.46632 0.11774 0.35020
 H698 H 0.46526 0.08496 0.26938
 H699 H 0.54566 0.13562 0.23534
 H700 H 0.54672 0.16849 0.31634
 H701 H 0.48982 0.17679 0.22186
 H702 H 0.48875 0.14380 0.14055
 C703 C 0.65321 0.49854 0.29880
 C704 C 0.64495 0.52033 0.31051
 C705 C 0.62778 0.52077 0.26699
 C706 C 0.62048 0.49939 0.21581
 C707 C 0.60876 0.47184 0.24958
 C708 C 0.62596 0.47139 0.29317
 C709 C 0.66549 0.50450 0.23351
 C710 C 0.64823 0.50495 0.18976
 C711 C 0.67114 0.49816 0.34741
 C712 C 0.68451 0.49800 0.39068
 C713 C 0.60148 0.50006 0.17044
 C714 C 0.58501 0.50104 0.13653
 H715 H 0.65206 0.53430 0.34955
 H716 H 0.62019 0.53511 0.26878
 H717 H 0.58875 0.45418 0.23993
 H718 H 0.62068 0.45336 0.32087
 H719 H 0.68587 0.50805 0.22265
 H720 H 0.65381 0.50885 0.14138
 C721 C 0.84548 0.34638 0.29789
 C722 C 0.83962 0.33390 0.23282
 C723 C 0.85735 0.35114 0.18908
 C724 C 0.87911 0.37910 0.21493
 C725 C 0.89326 0.37231 0.26686
 C726 C 0.87563 0.35516 0.31036
 C727 C 0.84505 0.37331 0.29129
 C728 C 0.86272 0.39050 0.24771
 C729 C 0.82713 0.32846 0.34650
 C730 C 0.81355 0.31511 0.38975
 C731 C 0.89880 0.39813 0.16964
 C732 C 0.91623 0.41471 0.13587
 H733 H 0.82306 0.31340 0.22210
 H734 H 0.85597 0.34543 0.14083
 H735 H 0.91526 0.38024 0.26915
 H736 H 0.88253 0.34839 0.34988
 H737 H 0.83193 0.37839 0.31829
 H738 H 0.86470 0.41026 0.23735
   
