data_POSCAR
  _audit_creation_date              2014-09-24
  _audit_creation_method            'ToBaCCo'
  _symmetry_space_group_name_H-M    'P1'
  _symmetry_Int_Tables_number       1
  _symmetry_cell_setting            triclinic
  loop_
  _symmetry_equiv_pos_as_xyz
 x,y,z
_cell_length_a 62.9114
_cell_length_b 62.8323
_cell_length_c 36.8383
_cell_angle_alpha 89.997700
_cell_angle_beta 89.989400
_cell_angle_gamma 92.073000
loop_
  _atom_site_label
  _atom_site_type_symbol
  _atom_site_fract_x
  _atom_site_fract_y
  _atom_site_fract_z
C1 C -0.01853 0.26917 0.01808
 C2 C -0.01883 0.26568 -0.02029
 C3 C 0.00073 0.26395 -0.03866
 C4 C 0.02051 0.26639 -0.02092
 C5 C 0.02056 0.27010 0.01713
 C6 C 0.00126 0.27207 0.03560
 H7 H 0.00180 0.27369 0.06490
 H8 H 0.00060 0.26270 -0.06799
 C9 C 0.48050 0.77032 0.51902
 C10 C 0.48069 0.77002 0.48059
 C11 C 0.50027 0.76985 0.46233
 C12 C 0.51957 0.76979 0.48138
 C13 C 0.51937 0.77057 0.51981
 C14 C 0.49981 0.77092 0.53806
 H15 H 0.49959 0.77124 0.56749
 H16 H 0.50048 0.76939 0.43290
 C17 C 1.01858 0.73278 0.01873
 C18 C 1.01822 0.73003 -0.01962
 C19 C 0.99871 0.72912 -0.03812
 C20 C 0.97927 0.73199 -0.02015
 C21 C 0.97956 0.73445 0.01824
 C22 C 0.99905 0.73497 0.03679
 H23 H 0.99873 0.73584 0.06617
 H24 H 0.99900 0.72810 -0.06750
 C25 C 0.51944 0.23026 0.51705
 C26 C 0.51931 0.23029 0.47860
 C27 C 0.49975 0.23031 0.46024
 C28 C 0.48041 0.23045 0.47920
 C29 C 0.48055 0.22997 0.51764
 C30 C 0.50009 0.22981 0.53599
 H31 H 0.50026 0.22969 0.56542
 H32 H 0.49958 0.23053 0.43081
 C33 C 0.73068 -0.02146 0.01961
 C34 C 0.72835 -0.02099 -0.01890
 C35 C 0.72682 -0.00138 -0.03685
 C36 C 0.72832 0.01793 -0.01790
 C37 C 0.73093 0.01763 0.02013
 C38 C 0.73225 -0.00186 0.03829
 H39 H 0.73337 -0.00157 0.06764
 H40 H 0.72564 -0.00110 -0.06622
 C41 C 0.23089 0.47900 0.51857
 C42 C 0.22957 0.47935 0.48017
 C43 C 0.22798 0.49891 0.46215
 C44 C 0.22847 0.51818 0.48141
 C45 C 0.23010 0.51782 0.51967
 C46 C 0.23128 0.49830 0.53777
 H47 H 0.23214 0.49816 0.56717
 H48 H 0.22730 0.49921 0.43274
 C49 C 0.26971 1.01948 0.02005
 C50 C 0.26723 1.01948 -0.01862
 C51 C 0.26608 0.99975 -0.03694
 C52 C 0.26774 0.98035 -0.01864
 C53 C 0.27050 0.98041 0.01939
 C54 C 0.27207 0.99985 0.03798
 H55 H 0.27318 0.99944 0.06735
 H56 H 0.26514 0.99936 -0.06631
 C57 C 0.77542 0.51943 0.52035
 C58 C 0.77530 0.51947 0.48191
 C59 C 0.77570 0.50002 0.46328
 C60 C 0.77596 0.48055 0.48191
 C61 C 0.77602 0.48056 0.52037
 C62 C 0.77620 0.50003 0.53904
 H63 H 0.77581 0.50002 0.56848
 H64 H 0.77590 0.50004 0.43384
 O65 O 0.24329 0.21431 0.25093
 O66 O 0.23731 0.26571 0.29719
 O67 O 0.21501 0.24343 0.25026
 O68 O 0.26580 0.23668 0.29788
 O69 O 0.28289 0.25311 0.25309
 O70 O 0.23214 0.25986 0.20550
 O71 O 0.25449 0.28212 0.25247
 O72 O 0.26057 0.23070 0.20629
 Cu73 Cu 0.23866 0.23837 0.27856
 Cu74 Cu 0.25923 0.25807 0.22483
 C75 C 0.25289 0.21370 0.22062
 C76 C 0.24490 0.28272 0.28279
 C77 C 0.21488 0.25279 0.21969
 C78 C 0.28304 0.24383 0.28372
 O79 O 0.75467 0.78361 0.24988
 O80 O 0.76284 0.73321 0.29809
 O81 O 0.78392 0.75560 0.24968
 O82 O 0.73339 0.76134 0.29840
 O83 O 0.71633 0.74404 0.25451
 O84 O 0.76701 0.73752 0.20648
 O85 O 0.74535 0.71568 0.25491
 O86 O 0.73785 0.76598 0.20608
 Cu87 Cu 0.76039 0.76020 0.27842
 Cu88 Cu 0.73994 0.73904 0.22610
 C89 C 0.74500 0.78342 0.21959
 C90 C 0.75540 0.71582 0.28483
 C91 C 0.78412 0.74558 0.21974
 C92 C 0.71620 0.75369 0.28480
 O93 O 0.78629 0.24325 0.25254
 O94 O 0.73440 0.23664 0.29835
 O95 O 0.75540 0.21458 0.25172
 O96 O 0.76522 0.26556 0.29932
 O97 O 0.74939 0.28236 0.25484
 O98 O 0.74099 0.23169 0.20610
 O99 O 0.71916 0.25325 0.25304
 O100 O 0.77121 0.26089 0.20825
 Cu101 Cu 0.76187 0.23833 0.28001
 Cu102 Cu 0.74365 0.25873 0.22605
 C103 C 0.78763 0.25319 0.22253
 C104 C 0.71789 0.24380 0.28351
 C105 C 0.74673 0.21447 0.22058
 C106 C 0.75876 0.28266 0.28538
 O107 O 0.25139 0.71572 0.25339
 O108 O 0.26152 0.76643 0.20528
 O109 O 0.28216 0.74443 0.25300
 O110 O 0.23082 0.73754 0.20572
 O111 O 0.21515 0.75479 0.24986
 O112 O 0.26654 0.76181 0.29703
 O113 O 0.24584 0.78357 0.24952
 O114 O 0.23581 0.73287 0.29771
 Cu115 Cu 0.25806 0.73933 0.22491
 Cu116 Cu 0.23925 0.75995 0.27798
 C117 C 0.24194 0.71561 0.28387
 C118 C 0.25534 0.78368 0.21908
 C119 C 0.28314 0.75426 0.28312
 C120 C 0.21420 0.74506 0.21962
 O121 O 0.75248 0.21517 0.75248
 O122 O 0.76266 0.26604 0.70466
 O123 O 0.78335 0.24381 0.75196
 O124 O 0.73196 0.23720 0.70489
 O125 O 0.71634 0.25428 0.74925
 O126 O 0.76786 0.26109 0.79624
 O127 O 0.74703 0.28307 0.74908
 O128 O 0.73702 0.23227 0.79699
 Cu129 Cu 0.75918 0.23885 0.72406
 Cu130 Cu 0.74049 0.25936 0.77736
 C131 C 0.74309 0.21502 0.78302
 C132 C 0.75648 0.28326 0.71860
 C133 C 0.78442 0.25354 0.78217
 C134 C 0.71537 0.24469 0.71889
 O135 O 0.28178 0.74523 0.74604
 O136 O 0.23007 0.73787 0.79187
 O137 O 0.25139 0.71599 0.74541
 O138 O 0.26035 0.76721 0.79267
 O139 O 0.24405 0.78361 0.74825
 O140 O 0.23683 0.73273 0.69953
 O141 O 0.21445 0.75383 0.74626
 O142 O 0.26642 0.76254 0.70167
 Cu143 Cu 0.25748 0.73993 0.77351
 Cu144 Cu 0.23888 0.75984 0.71940
 C145 C 0.28297 0.75514 0.71600
 C146 C 0.21339 0.74457 0.77691
 C147 C 0.24281 0.71565 0.71419
 C148 C 0.25345 0.78413 0.77878
 O149 O 0.25487 0.28182 0.74516
 O150 O 0.26194 0.23129 0.79340
 O151 O 0.28360 0.25329 0.74518
 O152 O 0.23287 0.25986 0.79311
 O153 O 0.21589 0.24236 0.74935
 O154 O 0.26660 0.23582 0.70140
 O155 O 0.24481 0.21397 0.74960
 O156 O 0.23764 0.26454 0.70140
 Cu157 Cu 0.26000 0.25829 0.77365
 Cu158 Cu 0.23954 0.23745 0.72100
 C159 C 0.24512 0.28183 0.71497
 C160 C 0.25455 0.21397 0.77980
 C161 C 0.28378 0.24348 0.71504
 C162 C 0.21569 0.25216 0.77950
 O163 O 0.73893 0.76776 0.79171
 O164 O 0.74582 0.71680 0.74470
 O165 O 0.76774 0.73907 0.79217
 O166 O 0.71710 0.74544 0.74413
 O167 O 0.73410 0.76266 0.70005
 O168 O 0.78485 0.75594 0.74786
 O169 O 0.76284 0.73371 0.70033
 O170 O 0.75619 0.78468 0.74761
 Cu171 Cu 0.74069 0.74058 0.77262
 Cu172 Cu 0.76120 0.76092 0.71948
 C173 C 0.74644 0.78494 0.77780
 C174 C 0.75546 0.71652 0.71442
 C175 C 0.78497 0.74644 0.77830
 C176 C 0.71691 0.75515 0.71389
 C177 C 0.26385 0.07513 0.08444
 C178 C 0.24989 0.07097 0.05537
 C179 C 0.25168 0.05261 0.03436
 C180 C 0.26757 0.03794 0.04175
 C181 C 0.28098 0.04182 0.07188
 C182 C 0.27930 0.06030 0.09264
 C183 C 0.26245 0.09504 0.10580
 C184 C 0.28094 0.10719 0.11448
 C185 C 0.27961 0.12629 0.13368
 C186 C 0.25978 0.13351 0.14491
 C187 C 0.24132 0.12122 0.13663
 C188 C 0.24263 0.10223 0.11711
 C189 C 0.25833 0.15394 0.16476
 C190 C 0.24505 0.15547 0.19524
 C191 C 0.24348 0.17480 0.21365
 C192 C 0.25500 0.19309 0.20173
 C193 C 0.26831 0.19153 0.17126
 C194 C 0.27003 0.17214 0.15309
 H195 H 0.23778 0.08210 0.04851
 H196 H 0.24039 0.04979 0.01256
 H197 H 0.29342 0.03100 0.07856
 H198 H 0.29010 0.06301 0.11521
 H199 H 0.29641 0.10210 0.10584
 H200 H 0.29411 0.13537 0.13994
 H201 H 0.22581 0.12650 0.14470
 H202 H 0.22814 0.09309 0.11100
 H203 H 0.23600 0.14163 0.20500
 H204 H 0.23307 0.17548 0.23700
 H205 H 0.27740 0.20532 0.16141
 H206 H 0.28024 0.17146 0.12946
 C207 C 0.76966 0.57736 0.58108
 C208 C 0.78724 0.56450 0.58631
 C209 C 0.78897 0.54553 0.56690
 C210 C 0.77329 0.53922 0.54166
 C211 C 0.75559 0.55188 0.53672
 C212 C 0.75381 0.57079 0.55620
 C213 C 0.76788 0.59762 0.60136
 C214 C 0.74829 0.60328 0.61618
 C215 C 0.74653 0.62246 0.63492
 C216 C 0.76430 0.63645 0.63909
 C217 C 0.78389 0.63079 0.62429
 C218 C 0.78568 0.61154 0.60572
 C219 C 0.76233 0.65693 0.65865
 C220 C 0.77207 0.67576 0.64502
 C221 C 0.76988 0.69511 0.66313
 C222 C 0.75800 0.69601 0.69538
 C223 C 0.74841 0.67714 0.70915
 C224 C 0.75051 0.65783 0.69094
 H225 H 0.79955 0.56905 0.60564
 H226 H 0.80268 0.53589 0.57117
 H227 H 0.74323 0.54715 0.51759
 H228 H 0.74018 0.58046 0.55139
 H229 H 0.73435 0.59277 0.61351
 H230 H 0.73119 0.62649 0.64573
 H231 H 0.79789 0.64118 0.62736
 H232 H 0.80093 0.60768 0.59429
 H233 H 0.78108 0.67558 0.61998
 H234 H 0.77746 0.70936 0.65180
 H235 H 0.73918 0.67728 0.73396
 H236 H 0.74304 0.64353 0.70231
 C237 C 0.73203 0.92089 0.08030
 C238 C 0.74469 0.93873 0.09053
 C239 C 0.74417 0.95765 0.07070
 C240 C 0.73101 0.95928 0.03984
 C241 C 0.71791 0.94142 0.03041
 C242 C 0.71858 0.92246 0.05012
 C243 C 0.73295 0.90069 0.10098
 C244 C 0.73375 0.88111 0.08273
 C245 C 0.73519 0.86211 0.10219
 C246 C 0.73573 0.86226 0.14037
 C247 C 0.73465 0.88187 0.15858
 C248 C 0.73335 0.90086 0.13910
 C249 C 0.73773 0.84210 0.16107
 C250 C 0.75037 0.84156 0.19252
 C251 C 0.75254 0.82257 0.21170
 C252 C 0.74223 0.80363 0.19977
 C253 C 0.72952 0.80415 0.16844
 C254 C 0.72724 0.82317 0.14937
 H255 H 0.75540 0.93789 0.11346
 H256 H 0.75481 0.97071 0.07881
 H257 H 0.70652 0.94222 0.00850
 H258 H 0.70824 0.90911 0.04218
 H259 H 0.73374 0.88053 0.05335
 H260 H 0.73635 0.84735 0.08728
 H261 H 0.73462 0.88253 0.18794
 H262 H 0.73244 0.91570 0.15388
 H263 H 0.75895 0.85574 0.20197
 H264 H 0.76255 0.82269 0.23561
 H265 H 0.72127 0.78985 0.15865
 H266 H 0.71712 0.82309 0.12561
 C267 C 0.23292 0.42028 0.57853
 C268 C 0.24780 0.43700 0.58544
 C269 C 0.24710 0.45604 0.56596
 C270 C 0.23145 0.45877 0.53937
 C271 C 0.21630 0.44221 0.53299
 C272 C 0.21716 0.42306 0.55211
 C273 C 0.23390 0.39998 0.59876
 C274 C 0.23223 0.38042 0.58038
 C275 C 0.23367 0.36127 0.59938
 C276 C 0.23658 0.36126 0.63725
 C277 C 0.23794 0.38090 0.65562
 C278 C 0.23674 0.40004 0.63655
 C279 C 0.23851 0.34091 0.65744
 C280 C 0.25259 0.33960 0.68694
 C281 C 0.25455 0.32048 0.70580
 C282 C 0.24265 0.30215 0.69539
 C283 C 0.22859 0.30338 0.66591
 C284 C 0.22646 0.32257 0.64726
 H285 H 0.26020 0.43518 0.60546
 H286 H 0.25897 0.46857 0.57132
 H287 H 0.20378 0.44412 0.51321
 H288 H 0.20534 0.41052 0.54665
 H289 H 0.23028 0.37997 0.55118
 H290 H 0.23293 0.34649 0.58426
 H291 H 0.23975 0.38151 0.68483
 H292 H 0.23778 0.41491 0.65141
 H293 H 0.26242 0.35326 0.69512
 H294 H 0.26565 0.32000 0.72823
 H295 H 0.21910 0.28955 0.65739
 H296 H 0.21520 0.32307 0.62509
 C297 C 0.92592 0.26414 0.08381
 C298 C 0.92891 0.24975 0.05529
 C299 C 0.94718 0.25130 0.03379
 C300 C 0.96297 0.26739 0.04011
 C301 C 0.96019 0.28133 0.06960
 C302 C 0.94180 0.27987 0.09088
 C303 C 0.90619 0.26289 0.10586
 C304 C 0.89538 0.28143 0.11432
 C305 C 0.87643 0.28021 0.13414
 C306 C 0.86800 0.26044 0.14620
 C307 C 0.87896 0.24192 0.13817
 C308 C 0.89781 0.24312 0.11806
 C309 C 0.84762 0.25906 0.16647
 C310 C 0.84533 0.24590 0.19716
 C311 C 0.82595 0.24425 0.21573
 C312 C 0.80840 0.25557 0.20378
 C313 C 0.81075 0.26884 0.17320
 C314 C 0.83018 0.27063 0.15485
 H315 H 0.91694 0.23743 0.04927
 H316 H 0.94908 0.23963 0.01251
 H317 H 0.97186 0.29397 0.07543
 H318 H 0.94000 0.29102 0.11299
 H319 H 0.90139 0.29685 0.10500
 H320 H 0.86839 0.29474 0.14019
 H321 H 0.87273 0.22646 0.14686
 H322 H 0.90590 0.22860 0.11216
 H323 H 0.85858 0.23696 0.20691
 H324 H 0.82465 0.23389 0.23918
 H325 H 0.79754 0.27778 0.16331
 H326 H 0.83144 0.28073 0.13107
 C327 C 0.42221 0.76660 0.58003
 C328 C 0.42705 0.75048 0.55521
 C329 C 0.44601 0.75166 0.53546
 C330 C 0.46045 0.76899 0.54010
 C331 C 0.45580 0.78498 0.56514
 C332 C 0.43679 0.78386 0.58480
 C333 C 0.40203 0.76539 0.60088
 C334 C 0.38993 0.78356 0.60550
 C335 C 0.37079 0.78234 0.62478
 C336 C 0.36342 0.76295 0.64004
 C337 C 0.37560 0.74481 0.63562
 C338 C 0.39466 0.74601 0.61616
 C339 C 0.34298 0.76154 0.66014
 C340 C 0.34119 0.74979 0.69253
 C341 C 0.32179 0.74799 0.71095
 C342 C 0.30373 0.75780 0.69729
 C343 C 0.30558 0.76972 0.66508
 C344 C 0.32501 0.77162 0.64676
 H345 H 0.41603 0.73710 0.55074
 H346 H 0.44943 0.73906 0.51650
 H347 H 0.46681 0.79843 0.56917
 H348 H 0.43360 0.79637 0.60406
 H349 H 0.39513 0.79867 0.59374
 H350 H 0.36183 0.79661 0.62801
 H351 H 0.37021 0.72961 0.64676
 H352 H 0.40375 0.73179 0.61333
 H353 H 0.35484 0.74207 0.70370
 H354 H 0.32091 0.73871 0.73571
 H355 H 0.29196 0.77746 0.65382
 H356 H 0.32587 0.78059 0.62167
 C357 C 0.07585 0.73424 0.08067
 C358 C 0.05898 0.74722 0.08998
 C359 C 0.04018 0.74659 0.06981
 C360 C 0.03765 0.73302 0.03947
 C361 C 0.05442 0.71953 0.03102
 C362 C 0.07328 0.72028 0.05110
 C363 C 0.09606 0.73540 0.10164
 C364 C 0.10728 0.71691 0.10894
 C365 C 0.12633 0.71811 0.12849
 C366 C 0.13451 0.73779 0.14140
 C367 C 0.12330 0.75625 0.13421
 C368 C 0.10435 0.75509 0.11445
 C369 C 0.15475 0.73915 0.16203
 C370 C 0.15663 0.75191 0.19325
 C371 C 0.17584 0.75359 0.21225
 C372 C 0.19364 0.74267 0.20025
 C373 C 0.19171 0.72978 0.16914
 C374 C 0.17243 0.72797 0.15033
 H375 H 0.06026 0.75789 0.11301
 H376 H 0.02793 0.75744 0.07733
 H377 H 0.05285 0.70790 0.00946
 H378 H 0.08593 0.71001 0.04319
 H379 H 0.10118 0.70146 0.09999
 H380 H 0.13453 0.70360 0.13401
 H381 H 0.12941 0.77167 0.14333
 H382 H 0.09636 0.76969 0.10872
 H383 H 0.14318 0.76052 0.20309
 H384 H 0.17681 0.76365 0.23611
 H385 H 0.20512 0.72115 0.15922
 H386 H 0.17148 0.71816 0.12616
 C387 C 0.57744 0.23411 0.57886
 C388 C 0.57285 0.25006 0.55356
 C389 C 0.55401 0.24883 0.53347
 C390 C 0.53944 0.23162 0.53828
 C391 C 0.54385 0.21579 0.56377
 C392 C 0.56273 0.21696 0.58375
 C393 C 0.59747 0.23536 0.60012
 C394 C 0.60939 0.21714 0.60544
 C395 C 0.62835 0.21835 0.62524
 C396 C 0.63571 0.23779 0.64033
 C397 C 0.62372 0.25599 0.63520
 C398 C 0.60484 0.25480 0.61521
 C399 C 0.65597 0.23915 0.66098
 C400 C 0.65756 0.25100 0.69328
 C401 C 0.67676 0.25258 0.71236
 C402 C 0.69482 0.24244 0.69942
 C403 C 0.69317 0.23048 0.66723
 C404 C 0.67395 0.22880 0.64828
 H405 H 0.58397 0.26335 0.54901
 H406 H 0.55078 0.26130 0.51416
 H407 H 0.53274 0.20245 0.56794
 H408 H 0.56573 0.20459 0.60337
 H409 H 0.60420 0.20198 0.59386
 H410 H 0.63717 0.20403 0.62900
 H411 H 0.62912 0.27122 0.64621
 H412 H 0.59588 0.26906 0.61184
 H413 H 0.64389 0.25893 0.70393
 H414 H 0.67749 0.26190 0.73708
 H415 H 0.70679 0.22249 0.65650
 H416 H 0.67326 0.21975 0.62327
 C417 C 0.72913 0.07680 0.92215
 C418 C 0.71223 0.06173 0.91792
 C419 C 0.71196 0.04258 0.93734
 C420 C 0.72856 0.03818 0.96134
 C421 C 0.74562 0.05305 0.96508
 C422 C 0.74584 0.07220 0.94588
 C423 C 0.72954 0.09717 0.90171
 C424 C 0.73612 0.11630 0.91878
 C425 C 0.73725 0.13539 0.89933
 C426 C 0.73188 0.13579 0.86231
 C427 C 0.72505 0.11671 0.84532
 C428 C 0.72383 0.09761 0.86484
 C429 C 0.73392 0.15597 0.84139
 C430 C 0.74271 0.15621 0.80631
 C431 C 0.74547 0.17534 0.78721
 C432 C 0.73944 0.19465 0.80271
 C433 C 0.73033 0.19436 0.83756
 C434 C 0.72763 0.17524 0.85670
 H435 H 0.69907 0.06489 0.90000
 H436 H 0.69869 0.03129 0.93398
 H437 H 0.75887 0.04975 0.98273
 H438 H 0.75929 0.08329 0.94914
 H439 H 0.74040 0.11649 0.94726
 H440 H 0.74276 0.14978 0.91309
 H441 H 0.72062 0.11656 0.81692
 H442 H 0.71886 0.08310 0.85090
 H443 H 0.74793 0.14166 0.79396
 H444 H 0.75255 0.17500 0.76043
 H445 H 0.72545 0.20895 0.85025
 H446 H 0.72057 0.17553 0.88350
 C447 C 0.22854 0.57724 0.42230
 C448 C 0.24523 0.57285 0.44622
 C449 C 0.24526 0.55361 0.46514
 C450 C 0.22850 0.53847 0.46089
 C451 C 0.21193 0.54266 0.43673
 C452 C 0.21193 0.56190 0.41761
 C453 C 0.22870 0.59767 0.40208
 C454 C 0.22314 0.59813 0.36515
 C455 C 0.22420 0.61727 0.34578
 C456 C 0.23074 0.63638 0.36298
 C457 C 0.23592 0.63597 0.40007
 C458 C 0.23494 0.61683 0.41939
 C459 C 0.23276 0.65657 0.34214
 C460 C 0.22628 0.67580 0.35736
 C461 C 0.22899 0.69493 0.33826
 C462 C 0.23830 0.69526 0.30356
 C463 C 0.24452 0.67599 0.28817
 C464 C 0.24176 0.65686 0.30722
 H465 H 0.25846 0.58416 0.44983
 H466 H 0.25847 0.55047 0.48296
 H467 H 0.19889 0.53114 0.43302
 H468 H 0.19880 0.56490 0.39954
 H469 H 0.21843 0.58360 0.35103
 H470 H 0.21990 0.61713 0.31732
 H471 H 0.24121 0.65038 0.41399
 H472 H 0.23909 0.61700 0.44792
 H473 H 0.21907 0.67603 0.38404
 H474 H 0.22397 0.70949 0.35085
 H475 H 0.25176 0.67569 0.26150
 H476 H 0.24714 0.64235 0.29496
 C477 C 0.26519 0.92204 0.91934
 C478 C 0.24985 0.93753 0.91436
 C479 C 0.25075 0.95641 0.93442
 C480 C 0.26709 0.96033 0.95974
 C481 C 0.28274 0.94516 0.96414
 C482 C 0.28169 0.92613 0.94445
 C483 C 0.26389 0.90170 0.89853
 C484 C 0.28244 0.89190 0.88676
 C485 C 0.28114 0.87280 0.86726
 C486 C 0.26126 0.86324 0.85867
 C487 C 0.24272 0.87298 0.87031
 C488 C 0.24401 0.89190 0.89022
 C489 C 0.25978 0.84316 0.83761
 C490 C 0.24563 0.84105 0.80825
 C491 C 0.24389 0.82200 0.78874
 C492 C 0.25603 0.80456 0.79853
 C493 C 0.27026 0.80671 0.82784
 C494 C 0.27223 0.82589 0.84702
 H495 H 0.23718 0.93518 0.89473
 H496 H 0.23855 0.96790 0.93040
 H497 H 0.29573 0.94797 0.98302
 H498 H 0.29365 0.91451 0.94933
 H499 H 0.29800 0.89914 0.89209
 H500 H 0.29565 0.86569 0.85827
 H501 H 0.22721 0.86575 0.86447
 H502 H 0.22940 0.89869 0.89949
 H503 H 0.23600 0.85421 0.80028
 H504 H 0.23275 0.82082 0.76635
 H505 H 0.27985 0.79356 0.83597
 H506 H 0.28315 0.82710 0.86971
 C507 C 0.77378 0.42174 0.42160
 C508 C 0.75946 0.43785 0.41404
 C509 C 0.76040 0.45697 0.43334
 C510 C 0.77577 0.46052 0.46046
 C511 C 0.79058 0.44480 0.46726
 C512 C 0.78948 0.42553 0.44827
 C513 C 0.77209 0.40104 0.40202
 C514 C 0.79041 0.39014 0.39233
 C515 C 0.78868 0.37077 0.37365
 C516 C 0.76862 0.36204 0.36394
 C517 C 0.75034 0.37281 0.37375
 C518 C 0.75204 0.39201 0.39276
 C519 C 0.76667 0.34183 0.34333
 C520 C 0.75302 0.34013 0.31325
 C521 C 0.75073 0.32100 0.29414
 C522 C 0.76187 0.30307 0.30497
 C523 C 0.77562 0.30480 0.33499
 C524 C 0.77811 0.32406 0.35384
 H525 H 0.74748 0.43571 0.39313
 H526 H 0.74887 0.46890 0.42750
 H527 H 0.80280 0.44732 0.48766
 H528 H 0.80066 0.41344 0.45502
 H529 H 0.80611 0.39676 0.39857
 H530 H 0.80302 0.36284 0.36610
 H531 H 0.73467 0.36622 0.36708
 H532 H 0.73758 0.39966 0.40053
 H533 H 0.74418 0.35367 0.30440
 H534 H 0.74000 0.32017 0.27116
 H535 H 0.78444 0.29128 0.34392
 H536 H 0.78864 0.32496 0.37709
 C537 C 0.07764 0.26389 0.91713
 C538 C 0.05985 0.25072 0.90846
 C539 C 0.04107 0.25167 0.92859
 C540 C 0.03953 0.26575 0.95825
 C541 C 0.05725 0.27940 0.96600
 C542 C 0.07605 0.27834 0.94600
 C543 C 0.09781 0.26247 0.89628
 C544 C 0.11038 0.28087 0.88841
 C545 C 0.12946 0.27944 0.86925
 C546 C 0.13633 0.25961 0.85727
 C547 C 0.12375 0.24123 0.86493
 C548 C 0.10476 0.24263 0.88432
 C549 C 0.15658 0.25805 0.83698
 C550 C 0.15769 0.24496 0.80617
 C551 C 0.17682 0.24324 0.78730
 C552 C 0.19532 0.25443 0.79902
 C553 C 0.19420 0.26757 0.82979
 C554 C 0.17500 0.26944 0.84848
 H555 H 0.06038 0.23966 0.88598
 H556 H 0.02804 0.24069 0.92162
 H557 H 0.05652 0.29140 0.98696
 H558 H 0.08943 0.28875 0.95346
 H559 H 0.10534 0.29644 0.89664
 H560 H 0.13871 0.29390 0.86331
 H561 H 0.12882 0.22571 0.85648
 H562 H 0.09571 0.22810 0.89049
 H563 H 0.14368 0.23618 0.79650
 H564 H 0.17715 0.23299 0.76370
 H565 H 0.20816 0.27641 0.83950
 H566 H 0.17464 0.27949 0.87233
 C567 C 0.57786 0.76511 0.42133
 C568 C 0.56398 0.78166 0.41423
 C569 C 0.54497 0.78306 0.43357
 C570 C 0.53953 0.76799 0.46042
 C571 C 0.55315 0.75123 0.46711
 C572 C 0.57220 0.74987 0.44790
 C573 C 0.59819 0.76377 0.40117
 C574 C 0.61692 0.75847 0.41931
 C575 C 0.63606 0.75717 0.40034
 C576 C 0.63688 0.76108 0.36279
 C577 C 0.61815 0.76640 0.34466
 C578 C 0.59902 0.76777 0.36365
 C579 C 0.65718 0.75947 0.34259
 C580 C 0.65752 0.74971 0.30829
 C581 C 0.67666 0.74792 0.28947
 C582 C 0.69588 0.75590 0.30450
 C583 C 0.69551 0.76579 0.33871
 C584 C 0.67637 0.76753 0.35756
 H585 H 0.56801 0.79374 0.39418
 H586 H 0.53465 0.79610 0.42802
 H587 H 0.54905 0.73923 0.48727
 H588 H 0.58239 0.73674 0.45352
 H589 H 0.61681 0.75552 0.44827
 H590 H 0.65018 0.75283 0.41499
 H591 H 0.61833 0.76970 0.31581
 H592 H 0.58481 0.77170 0.34889
 H593 H 0.64303 0.74312 0.29625
 H594 H 0.67640 0.74018 0.26320
 H595 H 0.71003 0.77214 0.35102
 H596 H 0.67656 0.77537 0.38374
 C597 C 0.92259 0.73604 0.91756
 C598 C 0.92651 0.74983 0.94698
 C599 C 0.94519 0.74866 0.96721
 C600 C 0.96044 0.73348 0.95892
 C601 C 0.95672 0.72017 0.92857
 C602 C 0.93799 0.72133 0.90837
 C603 C 0.90244 0.73701 0.89667
 C604 C 0.90237 0.73486 0.85869
 C605 C 0.88339 0.73594 0.83913
 C606 C 0.86406 0.73917 0.85712
 C607 C 0.86415 0.74124 0.89511
 C608 C 0.88310 0.74016 0.91465
 C609 C 0.84389 0.74056 0.83641
 C610 C 0.82488 0.73119 0.84997
 C611 C 0.80580 0.73296 0.83098
 C612 C 0.80530 0.74411 0.79794
 C613 C 0.82434 0.75329 0.78416
 C614 C 0.84342 0.75155 0.80319
 H615 H 0.91527 0.76180 0.95404
 H616 H 0.94792 0.76015 0.98874
 H617 H 0.96787 0.70814 0.92127
 H618 H 0.93535 0.71035 0.88604
 H619 H 0.91703 0.73263 0.84401
 H620 H 0.88383 0.73406 0.80993
 H621 H 0.84957 0.74399 0.90975
 H622 H 0.88258 0.74161 0.94392
 H623 H 0.82477 0.72234 0.87519
 H624 H 0.79143 0.72561 0.84226
 H625 H 0.82449 0.76205 0.75883
 H626 H 0.85774 0.75918 0.79224
 C627 C 0.42196 0.23398 0.41921
 C628 C 0.42753 0.24955 0.44528
 C629 C 0.44664 0.24858 0.46441
 C630 C 0.46044 0.23191 0.45813
 C631 C 0.45510 0.21654 0.43172
 C632 C 0.43602 0.21754 0.41248
 C633 C 0.40152 0.23488 0.39919
 C634 C 0.40058 0.23039 0.36184
 C635 C 0.38136 0.23138 0.34298
 C636 C 0.36265 0.23683 0.36108
 C637 C 0.36358 0.24120 0.39847
 C638 C 0.38280 0.24026 0.41731
 C639 C 0.34229 0.23819 0.34096
 C640 C 0.32310 0.23042 0.35640
 C641 C 0.30389 0.23206 0.33771
 C642 C 0.30344 0.24155 0.30317
 C643 C 0.32265 0.24918 0.28763
 C644 C 0.34185 0.24750 0.30630
 H645 H 0.41721 0.26261 0.45060
 H646 H 0.45065 0.26080 0.48424
 H647 H 0.46554 0.20356 0.42650
 H648 H 0.43207 0.20521 0.39282
 H649 H 0.41477 0.22638 0.34708
 H650 H 0.38111 0.22773 0.31426
 H651 H 0.34948 0.24565 0.41310
 H652 H 0.38298 0.24357 0.44615
 H653 H 0.32296 0.22292 0.38287
 H654 H 0.28938 0.22598 0.35041
 H655 H 0.32286 0.25663 0.26111
 H656 H 0.35633 0.25387 0.29387
 C657 C 0.73356 0.92271 0.91568
 C658 C 0.71578 0.93551 0.91236
 C659 C 0.71422 0.95395 0.93327
 C660 C 0.73028 0.95978 0.95815
 C661 C 0.74823 0.94725 0.96103
 C662 C 0.74983 0.92886 0.94007
 C663 C 0.73504 0.90287 0.89414
 C664 C 0.75440 0.89750 0.87811
 C665 C 0.75591 0.87859 0.85848
 C666 C 0.73812 0.86460 0.85459
 C667 C 0.71873 0.87002 0.87045
 C668 C 0.71720 0.88899 0.88995
 C669 C 0.73988 0.84427 0.83449
 C670 C 0.73029 0.82536 0.84807
 C671 C 0.73234 0.80612 0.82959
 C672 C 0.74395 0.80538 0.79704
 C673 C 0.75337 0.82435 0.78329
 C674 C 0.75139 0.84357 0.80185
 H675 H 0.70315 0.93131 0.89344
 H676 H 0.70032 0.96350 0.93051
 H677 H 0.76090 0.95163 0.97979
 H678 H 0.76363 0.91923 0.94343
 H679 H 0.76836 0.90799 0.88061
 H680 H 0.77110 0.87474 0.84685
 H681 H 0.70471 0.85964 0.86762
 H682 H 0.70213 0.89261 0.90229
 H683 H 0.72153 0.82536 0.87338
 H684 H 0.72490 0.79179 0.84094
 H685 H 0.76239 0.82434 0.75824
 H686 H 0.75874 0.85794 0.79052
 C687 C 0.23374 0.42194 0.41730
 C688 C 0.21626 0.43508 0.41323
 C689 C 0.21504 0.45388 0.43333
 C690 C 0.23113 0.45973 0.45812
 C691 C 0.24871 0.44679 0.46190
 C692 C 0.24999 0.42806 0.44174
 C693 C 0.23497 0.40184 0.39637
 C694 C 0.25429 0.39599 0.38076
 C695 C 0.25557 0.37687 0.36163
 C696 C 0.23758 0.36314 0.35783
 C697 C 0.21823 0.36903 0.37330
 C698 C 0.21693 0.38821 0.39228
 C699 C 0.23908 0.34262 0.33818
 C700 C 0.22917 0.32394 0.35205
 C701 C 0.23098 0.30452 0.33401
 C702 C 0.24267 0.30336 0.30159
 C703 C 0.25242 0.32209 0.28753
 C704 C 0.25068 0.34149 0.30568
 H705 H 0.20364 0.43090 0.39428
 H706 H 0.20139 0.46371 0.42994
 H707 H 0.26140 0.45116 0.48064
 H708 H 0.26355 0.41817 0.44570
 H709 H 0.26841 0.40627 0.38319
 H710 H 0.27073 0.37267 0.35030
 H711 H 0.20406 0.35886 0.37053
 H712 H 0.20188 0.39221 0.40429
 H713 H 0.22032 0.32427 0.37726
 H714 H 0.22329 0.29038 0.34558
 H715 H 0.26151 0.32176 0.26259
 H716 H 0.25829 0.35566 0.29412
 C717 C 0.26659 0.07640 0.91868
 C718 C 0.25368 0.05857 0.90919
 C719 C 0.25410 0.03985 0.92952
 C720 C 0.26740 0.03839 0.96017
 C721 C 0.28098 0.05605 0.96864
 C722 C 0.28043 0.07484 0.94841
 C723 C 0.26532 0.09662 0.89793
 C724 C 0.28369 0.10935 0.89076
 C725 C 0.28235 0.12838 0.87135
 C726 C 0.26263 0.13500 0.85850
 C727 C 0.24428 0.12231 0.86566
 C728 C 0.24559 0.10339 0.88526
 C729 C 0.26109 0.15512 0.83780
 C730 C 0.24835 0.15588 0.80657
 C731 C 0.24644 0.17492 0.78749
 C732 C 0.25712 0.19367 0.79942
 C733 C 0.27000 0.19288 0.83054
 C734 C 0.27204 0.17377 0.84945
 H735 H 0.24313 0.05908 0.88600
 H736 H 0.24325 0.02682 0.92197
 H737 H 0.29225 0.05535 0.99077
 H738 H 0.29062 0.08827 0.95646
 H739 H 0.29917 0.10445 0.89968
 H740 H 0.29677 0.13776 0.86587
 H741 H 0.22883 0.12722 0.85660
 H742 H 0.23107 0.09423 0.89097
 H743 H 0.23992 0.14168 0.79677
 H744 H 0.23642 0.17500 0.76360
 H745 H 0.27845 0.20705 0.84039
 H746 H 0.28183 0.17366 0.87362
 C747 C 0.77151 0.57789 0.42127
 C748 C 0.78730 0.57570 0.44794
 C749 C 0.78886 0.55662 0.46714
 C750 C 0.77446 0.53946 0.46051
 C751 C 0.75894 0.54148 0.43349
 C752 C 0.75751 0.56044 0.41403
 C753 C 0.76947 0.59831 0.40131
 C754 C 0.74929 0.60558 0.39208
 C755 C 0.74729 0.62460 0.37298
 C756 C 0.76540 0.63693 0.36297
 C757 C 0.78558 0.62986 0.37248
 C758 C 0.78761 0.61071 0.39129
 C759 C 0.76318 0.65707 0.34261
 C760 C 0.77489 0.67558 0.35276
 C761 C 0.77238 0.69468 0.33402
 C762 C 0.75829 0.69558 0.30448
 C763 C 0.74680 0.67697 0.29407
 C764 C 0.74914 0.65796 0.31306
 H765 H 0.79823 0.58884 0.45447
 H766 H 0.80119 0.55533 0.48744
 H767 H 0.74771 0.52843 0.42780
 H768 H 0.74546 0.56139 0.39318
 H769 H 0.73496 0.59671 0.40003
 H770 H 0.73153 0.62986 0.36648
 H771 H 0.79981 0.63897 0.36475
 H772 H 0.80340 0.60545 0.39745
 H773 H 0.78570 0.67536 0.37562
 H774 H 0.78148 0.70874 0.34265
 H775 H 0.73582 0.67714 0.27145
 H776 H 0.74008 0.64386 0.30446
 C777 C 0.07501 0.73331 0.91523
 C778 C 0.06072 0.71564 0.91272
 C779 C 0.04220 0.71464 0.93369
 C780 C 0.03778 0.73116 0.95787
 C781 C 0.05188 0.74895 0.96009
 C782 C 0.07034 0.74999 0.93904
 C783 C 0.09480 0.73432 0.89330
 C784 C 0.10158 0.75340 0.87632
 C785 C 0.12046 0.75449 0.85631
 C786 C 0.13300 0.73654 0.85299
 C787 C 0.12614 0.71741 0.86976
 C788 C 0.10721 0.71629 0.88962
 C789 C 0.15340 0.73793 0.83276
 C790 C 0.17160 0.72859 0.84684
 C791 C 0.19102 0.73055 0.82850
 C792 C 0.19264 0.74182 0.79560
 C793 C 0.17435 0.75088 0.78123
 C794 C 0.15495 0.74900 0.79967
 H795 H 0.06378 0.70269 0.89426
 H796 H 0.03142 0.70088 0.93143
 H797 H 0.04860 0.76197 0.97829
 H798 H 0.08114 0.76371 0.94178
 H799 H 0.09223 0.76749 0.87840
 H800 H 0.12544 0.76950 0.84399
 H801 H 0.13540 0.70327 0.86740
 H802 H 0.10246 0.70142 0.90266
 H803 H 0.17095 0.72016 0.87248
 H804 H 0.20481 0.72339 0.84031
 H805 H 0.17505 0.75964 0.75592
 H806 H 0.14112 0.75616 0.78798
 C807 C 0.57767 0.23212 0.41703
 C808 C 0.56165 0.24659 0.40983
 C809 C 0.54270 0.24584 0.42964
 C810 C 0.53925 0.23053 0.45695
 C811 C 0.55494 0.21566 0.46353
 C812 C 0.57402 0.21656 0.44403
 C813 C 0.59815 0.23343 0.39674
 C814 C 0.60874 0.21487 0.38726
 C815 C 0.62808 0.21621 0.36852
 C816 C 0.63715 0.23610 0.35850
 C817 C 0.62658 0.25463 0.36776
 C818 C 0.60738 0.25333 0.38683
 C819 C 0.65766 0.23759 0.33867
 C820 C 0.66023 0.25125 0.30868
 C821 C 0.67969 0.25301 0.29042
 C822 C 0.69707 0.24133 0.30205
 C823 C 0.69446 0.22759 0.33197
 C824 C 0.67491 0.22564 0.34995
 H825 H 0.56369 0.25850 0.38876
 H826 H 0.53080 0.25742 0.42395
 H827 H 0.55251 0.20346 0.48403
 H828 H 0.58605 0.20528 0.45058
 H829 H 0.60195 0.19928 0.39388
 H830 H 0.63581 0.20166 0.36136
 H831 H 0.63339 0.27018 0.36083
 H832 H 0.59995 0.26796 0.39432
 H833 H 0.64712 0.26049 0.29925
 H834 H 0.68120 0.26374 0.26750
 H835 H 0.70754 0.21835 0.34153
 H836 H 0.67339 0.21512 0.37317
 C837 C 0.92401 0.26476 0.91754
 C838 C 0.92690 0.27906 0.94656
 C839 C 0.94578 0.27968 0.96658
 C840 C 0.96221 0.26568 0.95866
 C841 C 0.95944 0.25185 0.92873
 C842 C 0.94063 0.25137 0.90858
 C843 C 0.90364 0.26354 0.89699
 C844 C 0.89506 0.24377 0.88508
 C845 C 0.87590 0.24253 0.86593
 C846 C 0.86475 0.26099 0.85850
 C847 C 0.87320 0.28076 0.87050
 C848 C 0.89248 0.28204 0.88941
 C849 C 0.84431 0.25955 0.83846
 C850 C 0.82677 0.27090 0.85033
 C851 C 0.80733 0.26902 0.83201
 C852 C 0.80509 0.25590 0.80122
 C853 C 0.82274 0.24480 0.78908
 C854 C 0.84210 0.24653 0.80759
 H855 H 0.91444 0.28962 0.95425
 H856 H 0.94755 0.29135 0.98808
 H857 H 0.97148 0.24068 0.92162
 H858 H 0.93911 0.24044 0.88594
 H859 H 0.90297 0.22917 0.89108
 H860 H 0.86957 0.22705 0.85749
 H861 H 0.86505 0.29527 0.86476
 H862 H 0.89878 0.29755 0.89767
 H863 H 0.82798 0.28090 0.87423
 H864 H 0.79403 0.27779 0.84202
 H865 H 0.82154 0.23457 0.76545
 H866 H 0.85543 0.23779 0.79763
 C867 C 0.42245 0.76740 0.41887
 C868 C 0.42601 0.78326 0.44538
 C869 C 0.44506 0.78442 0.46493
 C870 C 0.46080 0.76953 0.45885
 C871 C 0.45744 0.75392 0.43201
 C872 C 0.43851 0.75290 0.41218
 C873 C 0.40201 0.76582 0.39854
 C874 C 0.39282 0.74579 0.38935
 C875 C 0.37370 0.74422 0.37012
 C876 C 0.36318 0.76262 0.35997
 C877 C 0.37219 0.78265 0.36934
 C878 C 0.39145 0.78424 0.38825
 C879 C 0.34281 0.76086 0.33981
 C880 C 0.32550 0.77297 0.35023
 C881 C 0.30611 0.77085 0.33181
 C882 C 0.30374 0.75678 0.30230
 C883 C 0.32118 0.74490 0.29158
 C884 C 0.34047 0.74683 0.31028
 H885 H 0.41394 0.79457 0.45152
 H886 H 0.44744 0.79682 0.48508
 H887 H 0.46937 0.74231 0.42674
 H888 H 0.43652 0.74077 0.39147
 H889 H 0.40024 0.73126 0.39749
 H890 H 0.36692 0.72858 0.36370
 H891 H 0.36449 0.79709 0.36149
 H892 H 0.39821 0.79992 0.39433
 H893 H 0.32684 0.78377 0.37309
 H894 H 0.29298 0.78025 0.34067
 H895 H 0.31985 0.73391 0.26898
 H896 H 0.35364 0.73746 0.30150
 C897 C 0.26908 0.92196 0.08043
 C898 C 0.28607 0.93693 0.08455
 C899 C 0.28648 0.95600 0.06493
 C900 C 0.26994 0.96040 0.04082
 C901 C 0.25274 0.94568 0.03730
 C902 C 0.25237 0.92660 0.05672
 C903 C 0.26865 0.90158 0.10079
 C904 C 0.26206 0.88248 0.08365
 C905 C 0.26101 0.86336 0.10300
 C906 C 0.26645 0.86292 0.13998
 C907 C 0.27328 0.88197 0.15704
 C908 C 0.27443 0.90110 0.13762
 C909 C 0.26445 0.84272 0.16081
 C910 C 0.25565 0.84246 0.19587
 C911 C 0.25290 0.82333 0.21493
 C912 C 0.25897 0.80404 0.19939
 C913 C 0.26810 0.80435 0.16456
 C914 C 0.27077 0.82348 0.14546
 H915 H 0.29922 0.93372 0.10246
 H916 H 0.29986 0.96718 0.06809
 H917 H 0.23959 0.94897 0.01942
 H918 H 0.23887 0.91558 0.05353
 H919 H 0.25775 0.88233 0.05519
 H920 H 0.25549 0.84898 0.08920
 H921 H 0.27777 0.88208 0.18542
 H922 H 0.27942 0.91559 0.15161
 H923 H 0.25040 0.85700 0.20824
 H924 H 0.24581 0.82365 0.24170
 H925 H 0.27300 0.78977 0.15186
 H926 H 0.27784 0.82323 0.11866
 C927 C 0.77203 0.42206 0.58117
 C928 C 0.78870 0.43713 0.58748
 C929 C 0.78988 0.45623 0.56797
 C930 C 0.77446 0.46056 0.54173
 C931 C 0.75756 0.44576 0.53593
 C932 C 0.75641 0.42665 0.55531
 C933 C 0.77086 0.40163 0.60147
 C934 C 0.76495 0.38253 0.58369
 C935 C 0.76346 0.36334 0.60285
 C936 C 0.76780 0.36282 0.64026
 C937 C 0.77388 0.38189 0.65798
 C938 C 0.77543 0.40108 0.63879
 C939 C 0.76556 0.34251 0.66079
 C940 C 0.75612 0.34203 0.69537
 C941 C 0.75338 0.32284 0.71426
 C942 C 0.76005 0.30368 0.69903
 C943 C 0.76973 0.30419 0.66464
 C944 C 0.77244 0.32339 0.64572
 H945 H 0.80105 0.43397 0.60701
 H946 H 0.80302 0.46748 0.57286
 H947 H 0.74528 0.44900 0.51629
 H948 H 0.74316 0.41556 0.55035
 H949 H 0.76158 0.38240 0.55486
 H950 H 0.75853 0.34896 0.58849
 H951 H 0.77754 0.38196 0.68671
 H952 H 0.77986 0.41556 0.65330
 H953 H 0.75041 0.35644 0.70752
 H954 H 0.74582 0.32300 0.74067
 H955 H 0.77510 0.28973 0.65219
 H956 H 0.78002 0.32329 0.61933
 C957 C 0.73340 0.07564 0.08213
 C958 C 0.71492 0.06943 0.06269
 C959 C 0.71412 0.05058 0.04254
 C960 C 0.73164 0.03744 0.04181
 C961 C 0.74996 0.04331 0.06154
 C962 C 0.75093 0.06232 0.08120
 C963 C 0.73446 0.09593 0.10309
 C964 C 0.74605 0.09752 0.13568
 C965 C 0.74750 0.11669 0.15486
 C966 C 0.73710 0.13472 0.14236
 C967 C 0.72521 0.13303 0.11008
 C968 C 0.72406 0.11396 0.09056
 C969 C 0.73891 0.15525 0.16260
 C970 C 0.73948 0.17481 0.14394
 C971 C 0.74158 0.19404 0.16286
 C972 C 0.74357 0.19417 0.20080
 C973 C 0.74297 0.17472 0.21956
 C974 C 0.74046 0.15548 0.20073
 H975 H 0.70096 0.07900 0.06331
 H976 H 0.69978 0.04616 0.02765
 H977 H 0.76367 0.03337 0.06103
 H978 H 0.76557 0.06673 0.09515
 H979 H 0.75397 0.08392 0.14657
 H980 H 0.75708 0.11740 0.17926
 H981 H 0.71669 0.14643 0.09985
 H982 H 0.71523 0.11349 0.06534
 H983 H 0.73878 0.17532 0.11460
 H984 H 0.74219 0.20882 0.14768
 H985 H 0.74427 0.17437 0.24888
 H986 H 0.73961 0.14082 0.21614
 C987 C 0.23166 0.57622 0.58003
 C988 C 0.24952 0.56347 0.57913
 C989 C 0.24878 0.54416 0.56028
 C990 C 0.23035 0.53762 0.54135
 C991 C 0.21245 0.55029 0.54230
 C992 C 0.21303 0.56938 0.56182
 C993 C 0.23260 0.59677 0.59950
 C994 C 0.21747 0.60120 0.62621
 C995 C 0.21868 0.62052 0.64508
 C996 C 0.23474 0.63587 0.63689
 C997 C 0.24967 0.63156 0.60979
 C998 C 0.24875 0.61206 0.59150
 C999 C 0.23610 0.65630 0.65675
 C1000 C 0.23707 0.67566 0.63771
 C1001 C 0.23878 0.69498 0.65646
 C1002 C 0.24003 0.69525 0.69454
 C1003 C 0.23907 0.67586 0.71356
 C1004 C 0.23688 0.65655 0.69483
 H1005 H 0.26400 0.56844 0.59316
 H1006 H 0.26274 0.53456 0.55970
 H1007 H 0.19812 0.54542 0.52779
 H1008 H 0.19913 0.57906 0.56208
 H1009 H 0.20494 0.58957 0.63281
 H1010 H 0.20698 0.62360 0.66582
 H1011 H 0.26224 0.64315 0.60320
 H1012 H 0.26050 0.60897 0.57085
 H1013 H 0.23642 0.67580 0.60833
 H1014 H 0.23958 0.70970 0.64113
 H1015 H 0.23994 0.67563 0.74292
 H1016 H 0.23626 0.64177 0.70999
 C1017 C 0.92189 0.73562 0.08136
 C1018 C 0.92487 0.71933 0.05584
 C1019 C 0.94373 0.71867 0.03590
 C1020 C 0.95983 0.73451 0.04051
 C1021 C 0.95709 0.75052 0.06646
 C1022 C 0.93836 0.75105 0.08673
 C1023 C 0.90162 0.73671 0.10198
 C1024 C 0.89302 0.75652 0.11006
 C1025 C 0.87406 0.75763 0.12957
 C1026 C 0.86312 0.73897 0.14108
 C1027 C 0.87152 0.71915 0.13278
 C1028 C 0.89063 0.71803 0.11362
 C1029 C 0.84300 0.74026 0.16169
 C1030 C 0.82516 0.72734 0.15228
 C1031 C 0.80601 0.72904 0.17114
 C1032 C 0.80443 0.74348 0.20007
 C1033 C 0.82240 0.75616 0.20978
 C1034 C 0.84145 0.75465 0.19064
 H1035 H 0.91248 0.70731 0.05073
 H1036 H 0.94564 0.70598 0.01641
 H1037 H 0.96936 0.76282 0.07066
 H1038 H 0.93682 0.76354 0.10670
 H1039 H 0.90077 0.77121 0.10086
 H1040 H 0.86774 0.77310 0.13517
 H1041 H 0.86348 0.70454 0.14170
 H1042 H 0.89695 0.70252 0.10840
 H1043 H 0.82593 0.71623 0.12989
 H1044 H 0.79244 0.71904 0.16308
 H1045 H 0.82168 0.76745 0.23191
 H1046 H 0.85504 0.76464 0.19861
 C1047 C 0.42226 0.23155 0.57896
 C1048 C 0.42485 0.21601 0.55197
 C1049 C 0.44392 0.21513 0.53260
 C1050 C 0.46065 0.23000 0.53937
 C1051 C 0.45827 0.24524 0.56676
 C1052 C 0.43932 0.24598 0.58640
 C1053 C 0.40180 0.23293 0.59899
 C1054 C 0.39402 0.25287 0.60862
 C1055 C 0.37495 0.25426 0.62773
 C1056 C 0.36307 0.23577 0.63733
 C1057 C 0.37065 0.21583 0.62744
 C1058 C 0.38986 0.21442 0.60863
 C1059 C 0.34285 0.23736 0.65764
 C1060 C 0.32465 0.22529 0.64713
 C1061 C 0.30545 0.22725 0.66576
 C1062 C 0.30414 0.24113 0.69556
 C1063 C 0.32245 0.25296 0.70635
 C1064 C 0.34156 0.25118 0.68747
 H1065 H 0.41201 0.20476 0.54528
 H1066 H 0.44551 0.20301 0.51198
 H1067 H 0.47099 0.25682 0.57257
 H1068 H 0.43808 0.25786 0.60750
 H1069 H 0.40252 0.26747 0.60096
 H1070 H 0.36929 0.26984 0.63453
 H1071 H 0.36190 0.20132 0.63485
 H1072 H 0.39552 0.19880 0.60216
 H1073 H 0.32518 0.21465 0.62405
 H1074 H 0.29162 0.21790 0.65684
 H1075 H 0.32196 0.26379 0.72917
 H1076 H 0.35542 0.26050 0.69635
 C1077 C 0.07731 0.26578 0.08161
 C1078 C 0.06485 0.28387 0.08385
 C1079 C 0.04631 0.28521 0.06317
 C1080 C 0.04006 0.26861 0.03956
 C1081 C 0.05231 0.25041 0.03767
 C1082 C 0.07079 0.24903 0.05840
 C1083 C 0.09713 0.26438 0.10317
 C1084 C 0.10216 0.24523 0.12034
 C1085 C 0.12105 0.24375 0.13997
 C1086 C 0.13537 0.26136 0.14275
 C1087 C 0.13029 0.28055 0.12578
 C1088 C 0.11135 0.28206 0.10627
 C1089 C 0.15567 0.25958 0.16289
 C1090 C 0.17471 0.26857 0.14877
 C1091 C 0.19391 0.26645 0.16727
 C1092 C 0.19449 0.25536 0.20038
 C1093 C 0.17540 0.24655 0.21467
 C1094 C 0.15622 0.24861 0.19609
 H1095 H 0.06934 0.29689 0.10185
 H1096 H 0.03697 0.29931 0.06517
 H1097 H 0.04761 0.23731 0.01994
 H1098 H 0.08015 0.23498 0.05585
 H1099 H 0.09142 0.23141 0.11872
 H1100 H 0.12462 0.22869 0.15246
 H1101 H 0.14093 0.29444 0.12775
 H1102 H 0.10799 0.29697 0.09307
 H1103 H 0.17482 0.27690 0.12303
 H1104 H 0.20833 0.27341 0.15551
 H1105 H 0.17529 0.23795 0.24015
 H1106 H 0.14176 0.24173 0.20785
 C1107 C 0.57776 0.76870 0.58067
 C1108 C 0.57523 0.78420 0.55359
 C1109 C 0.55610 0.78522 0.53446
 C1110 C 0.53924 0.77055 0.54157
 C1111 C 0.54154 0.75541 0.56915
 C1112 C 0.56055 0.75452 0.58855
 C1113 C 0.59832 0.76705 0.60026
 C1114 C 0.60588 0.74699 0.60974
 C1115 C 0.62508 0.74534 0.62834
 C1116 C 0.63731 0.76368 0.63758
 C1117 C 0.62994 0.78372 0.62784
 C1118 C 0.61061 0.78540 0.60952
 C1119 C 0.65765 0.76181 0.65742
 C1120 C 0.67593 0.77361 0.64646
 C1121 C 0.69521 0.77143 0.66474
 C1122 C 0.69652 0.75761 0.69461
 C1123 C 0.67814 0.74602 0.70579
 C1124 C 0.65894 0.74802 0.68727
 H1125 H 0.58818 0.79525 0.54658
 H1126 H 0.55458 0.79726 0.51367
 H1127 H 0.52873 0.74398 0.57521
 H1128 H 0.56176 0.74270 0.60975
 H1129 H 0.59710 0.73250 0.60233
 H1130 H 0.63056 0.72968 0.63504
 H1131 H 0.63897 0.79812 0.63499
 H1132 H 0.60513 0.80110 0.60314
 H1133 H 0.67538 0.78423 0.62335
 H1134 H 0.70908 0.78061 0.65552
 H1135 H 0.67863 0.73524 0.72868
 H1136 H 0.64503 0.73890 0.69648
   
