data_POSCAR
  _audit_creation_date              2014-09-24
  _audit_creation_method            'ToBaCCo'
  _symmetry_space_group_name_H-M    'P1'
  _symmetry_Int_Tables_number       1
  _symmetry_cell_setting            triclinic
  loop_
  _symmetry_equiv_pos_as_xyz
 x,y,z
_cell_length_a 41.7515
_cell_length_b 43.3247
_cell_length_c 42.5200
_cell_angle_alpha 89.976200
_cell_angle_beta 89.535300
_cell_angle_gamma 89.807000
loop_
  _atom_site_label
  _atom_site_type_symbol
  _atom_site_fract_x
  _atom_site_fract_y
  _atom_site_fract_z
C1 C 0.20242 0.52087 1.03297
 H2 H 0.20192 0.53803 1.01449
 C3 C 0.17838 0.52052 1.05588
 H4 H 0.16010 0.53831 1.05543
 C5 C 0.22764 0.47754 1.05619
 H6 H 0.24675 0.46064 1.05594
 C7 C 0.20403 0.47636 1.07968
 H8 H 0.20520 0.45817 1.09712
 N9 N 0.22596 0.49917 1.03309
 C10 C 0.29963 0.53962 0.97281
 H11 H 0.29933 0.52398 0.95298
 C12 C 0.32142 0.56394 0.97323
 H13 H 0.33763 0.56729 0.95352
 C14 C 0.27988 0.55362 1.02329
 H15 H 0.26409 0.54912 1.04301
 C16 C 0.30145 0.57817 1.02474
 H17 H 0.30209 0.59262 1.04551
 Zn18 Zn 0.25356 0.49880 0.99774
 N19 N 0.27966 0.53467 0.99775
 C20 C 0.22689 0.52184 0.94038
 N21 N 0.22640 0.49858 0.96197
 C22 C 0.20394 0.47593 0.96062
 C23 C 0.18112 0.47587 0.93688
 C24 C 0.20423 0.52282 0.91636
 C25 C 0.31289 0.46698 0.99944
 C26 C 0.33351 0.44159 0.99875
 C27 C 0.28749 0.40809 0.99730
 C28 C 0.26770 0.43416 0.99787
 N29 N 0.28056 0.46303 0.99832
 H30 H 0.24396 0.54035 0.94232
 H31 H 0.20266 0.45864 0.97880
 H32 H 0.16316 0.45789 0.93637
 H33 H 0.20437 0.54179 0.89976
 H34 H 0.32295 0.48982 1.00098
 H35 H 0.35917 0.44514 0.99926
 H36 H 0.27699 0.38527 0.99688
 H37 H 0.24211 0.43114 0.99831
 C38 C 0.32298 0.58299 0.99979
 C39 C 0.17804 0.49721 1.07897
 C40 C 0.32081 0.41179 0.99711
 C41 C 0.18068 0.49993 0.91491
 C42 C 0.79756 0.52591 -0.03381
 H43 H 0.79773 0.54278 -0.01519
 C44 C 0.82086 0.52739 -0.05745
 H45 H 0.83810 0.54601 -0.05745
 C46 C 0.77670 0.47987 -0.05546
 H47 H 0.76026 0.46077 -0.05417
 C48 C 0.79985 0.48030 -0.07937
 H49 H 0.80067 0.46183 -0.09652
 N50 N 0.77579 0.50258 -0.03331
 C51 C 0.68665 0.53032 0.00477
 H52 H 0.67759 0.50707 0.00562
 C53 C 0.66501 0.55481 0.00660
 H54 H 0.63956 0.55016 0.00813
 C55 C 0.73034 0.56501 0.00271
 H56 H 0.75576 0.56907 0.00193
 C57 C 0.70944 0.59025 0.00469
 H58 H 0.71895 0.61348 0.00495
 Zn59 Zn 0.74685 0.50064 0.00149
 N60 N 0.71875 0.53563 0.00269
 C61 C 0.76856 0.52078 0.06140
 N62 N 0.77206 0.49943 0.03816
 C63 C 0.79495 0.47709 0.03963
 C64 C 0.81561 0.47564 0.06521
 C65 C 0.78897 0.52037 0.08728
 C66 C 0.70288 0.46017 -0.02660
 C67 C 0.68095 0.43599 -0.02762
 C68 C 0.69767 0.42056 0.02436
 C69 C 0.71951 0.44493 0.02432
 N70 N 0.72137 0.46443 -0.00074
 H71 H 0.75028 0.53839 0.05972
 H72 H 0.79733 0.46059 0.02065
 H73 H 0.83392 0.45790 0.06598
 H74 H 0.78657 0.53794 0.10527
 H75 H 0.70432 0.47633 -0.04595
 H76 H 0.66585 0.43324 -0.04802
 H77 H 0.69560 0.40577 0.04481
 H78 H 0.73397 0.44896 0.04486
 C79 C 0.67641 0.58515 0.00703
 C80 C 0.82253 0.50404 -0.08018
 C81 C 0.67757 0.41648 -0.00153
 C82 C 0.81272 0.49748 0.08940
 C83 C -0.02814 0.29636 0.45763
 H84 H -0.04761 0.29712 0.47456
 C85 C -0.02915 0.31498 0.43089
 H86 H -0.04928 0.33051 0.42789
 C87 C 0.02268 0.27669 0.44254
 H88 H 0.04304 0.26206 0.44745
 C89 C 0.02292 0.29532 0.41570
 H90 H 0.04334 0.29417 0.39986
 N91 N -0.00281 0.27728 0.46264
 C92 C -0.04390 0.20908 0.52655
 H93 H -0.02714 0.21057 0.54576
 C94 C -0.06896 0.18787 0.52791
 H95 H -0.07164 0.17314 0.54834
 C96 C -0.06001 0.22553 0.47587
 H97 H -0.05586 0.23949 0.45521
 C98 C -0.08527 0.20448 0.47618
 H99 H -0.10056 0.20252 0.45582
 Zn100 Zn -0.00353 0.25334 0.49984
 N101 N -0.04003 0.22755 0.50092
 C102 C -0.02905 0.28284 0.55446
 N103 N -0.00386 0.28128 0.53399
 C104 C 0.02113 0.30123 0.53597
 C105 C 0.02148 0.32389 0.55928
 C106 C -0.02967 0.30518 0.57814
 C107 C 0.03500 0.20541 0.47824
 C108 C 0.05872 0.18273 0.47939
 C109 C 0.07682 0.20436 0.52851
 C110 C 0.05278 0.22679 0.52636
 N111 N 0.03235 0.22674 0.50158
 H112 H -0.04904 0.26729 0.55205
 H113 H 0.04059 0.29975 0.51907
 H114 H 0.04131 0.33989 0.56045
 H115 H -0.04993 0.30651 0.59415
 H116 H 0.01811 0.20565 0.45907
 H117 H 0.06034 0.16560 0.46089
 H118 H 0.09253 0.20406 0.54866
 H119 H 0.04981 0.24351 0.54501
 C120 C -0.09002 0.18550 0.50253
 C121 C -0.00362 0.31434 0.40904
 C122 C 0.07943 0.18166 0.50514
 C123 C -0.00436 0.32622 0.58036
 C124 C 0.98000 0.70300 0.53298
 H125 H 0.96116 0.70450 0.51572
 C126 C 0.97840 0.68078 0.55668
 H127 H 0.95814 0.66526 0.55790
 C128 C 1.03018 0.72043 0.55165
 H129 H 1.05077 0.73526 0.54900
 C130 C 1.02957 0.69846 0.57570
 H131 H 1.04952 0.69669 0.59173
 N132 N 1.00570 0.72210 0.53077
 C133 C 0.97100 0.79435 0.46821
 H134 H 0.98806 0.79195 0.44907
 C135 C 0.94776 0.81753 0.46723
 H136 H 0.94662 0.83277 0.44707
 C137 C 0.95226 0.77800 0.51830
 H138 H 0.95465 0.76304 0.53849
 C139 C 0.92886 0.80114 0.51844
 H140 H 0.91305 0.80368 0.53860
 Zn141 Zn 1.00799 0.74763 0.49482
 N142 N 0.97289 0.77523 0.49350
 C143 C 0.98379 0.71994 0.43904
 N144 N 1.00827 0.72061 0.45998
 C145 C 1.03239 0.69946 0.45884
 C146 C 1.03235 0.67617 0.43622
 C147 C 0.98278 0.69693 0.41604
 C148 C 1.04777 0.79230 0.51986
 C149 C 1.07347 0.81269 0.52128
 C150 C 1.09339 0.79177 0.47215
 C151 C 1.06735 0.77157 0.47176
 N152 N 1.04527 0.77217 0.49549
 H153 H 0.96442 0.73644 0.44086
 H154 H 1.05121 0.70022 0.47617
 H155 H 1.05137 0.65910 0.43586
 H156 H 0.96283 0.69603 0.39995
 H157 H 1.02947 0.79274 0.53801
 H158 H 1.07499 0.82891 0.54058
 H159 H 1.11064 0.79152 0.45299
 H160 H 1.06440 0.75600 0.45216
 C161 C 0.92696 0.82161 0.49297
 C162 C 1.00377 0.67796 0.57786
 C163 C 1.09661 0.81249 0.49724
 C164 C 1.00693 0.67439 0.41502
 C165 C 0.45693 -0.02121 0.29860
 H166 H 0.47485 -0.03923 0.30012
 C167 C 0.43204 -0.02003 0.32068
 H168 H 0.43070 -0.03732 0.33905
 C169 C 0.43792 0.02442 0.27413
 H170 H 0.44067 0.04216 0.25649
 C171 C 0.41236 0.02616 0.29543
 H172 H 0.39535 0.04502 0.29381
 N173 N 0.45992 0.00127 0.27638
 C174 C 0.51946 -0.03204 0.19903
 H175 H 0.53380 -0.01164 0.19519
 C176 C 0.52174 -0.05658 0.17793
 H177 H 0.53868 -0.05502 0.15857
 C178 C 0.47952 -0.05812 0.22845
 H179 H 0.46242 -0.05835 0.24760
 C180 C 0.48121 -0.08337 0.20804
 H181 H 0.46486 -0.10244 0.21159
 Zn182 Zn 0.49730 0.00184 0.25050
 N183 N 0.49890 -0.03331 0.22394
 C184 C 0.56392 -0.00087 0.26336
 N185 N 0.53427 0.00264 0.27649
 C186 C 0.53058 0.00647 0.30810
 C187 C 0.55702 0.00517 0.32789
 C188 C 0.59111 -0.00183 0.28231
 C189 C 0.47482 0.03790 0.20083
 C190 C 0.47386 0.06291 0.18018
 C191 C 0.51813 0.08568 0.20810
 C192 C 0.51818 0.06026 0.22833
 N193 N 0.49670 0.03707 0.22435
 H194 H 0.56656 -0.00308 0.23820
 H195 H 0.50715 0.01054 0.31816
 H196 H 0.55359 0.00762 0.35305
 H197 H 0.61456 -0.00467 0.27162
 H198 H 0.45825 0.01897 0.19806
 H199 H 0.45653 0.06327 0.16137
 H200 H 0.53539 0.10400 0.21128
 H201 H 0.53542 0.05902 0.24712
 C202 C 0.50296 -0.08316 0.18256
 C203 C 0.40999 0.00439 0.31973
 C204 C 0.49563 0.08716 0.18386
 C205 C 0.58763 0.00032 0.31507
 C206 C 0.54131 -0.02662 0.70423
 H207 H 0.52181 -0.04298 0.70340
 C208 C 0.56644 -0.02871 0.68249
 H209 H 0.56623 -0.04667 0.66478
 C210 C 0.56457 0.01768 0.72734
 H211 H 0.56340 0.03613 0.74437
 C212 C 0.59027 0.01633 0.70613
 H213 H 0.60892 0.03361 0.70713
 N214 N 0.54087 -0.00377 0.72615
 C215 C 0.47929 -0.03700 0.80209
 H216 H 0.46209 -0.01829 0.80325
 C217 C 0.47704 -0.06158 0.82318
 H218 H 0.45797 -0.06188 0.84060
 C219 C 0.52558 -0.05911 0.77839
 H220 H 0.54477 -0.05777 0.76126
 C221 C 0.52429 -0.08409 0.79916
 H222 H 0.54246 -0.10195 0.79790
 Zn223 Zn 0.50467 -0.00162 0.75313
 N224 N 0.50306 -0.03636 0.78004
 C225 C 0.44436 -0.02161 0.72997
 N226 N 0.46799 -0.00018 0.72727
 C227 C 0.46687 0.02224 0.70488
 C228 C 0.44099 0.02402 0.68438
 C229 C 0.41798 -0.02060 0.71001
 C230 C 0.53039 0.03539 0.80048
 C231 C 0.53218 0.06038 0.82110
 C232 C 0.48435 0.08150 0.79762
 C233 C 0.48348 0.05612 0.77741
 N234 N 0.50646 0.03384 0.77902
 H235 H 0.44605 -0.03976 0.74727
 H236 H 0.48627 0.03864 0.70290
 H237 H 0.44037 0.04188 0.66656
 H238 H 0.39938 -0.03786 0.71214
 H239 H 0.54794 0.01701 0.80170
 H240 H 0.55116 0.06128 0.83828
 H241 H 0.46587 0.09905 0.79628
 H242 H 0.46416 0.05409 0.76081
 C243 C 0.49958 -0.08558 0.82163
 C244 C 0.59143 -0.00719 0.68351
 C245 C 0.50905 0.08384 0.81959
 C246 C 0.41612 0.00255 0.68706
 C247 C 0.30727 0.00859 0.47677
 H248 H 0.31653 0.01070 0.50031
 C249 C 0.32828 0.01007 0.45120
 H250 H 0.35367 0.01303 0.45522
 C251 C 0.26318 0.00164 0.44271
 H252 H 0.23774 -0.00186 0.43974
 C253 C 0.28339 0.00329 0.41637
 H254 H 0.27349 0.00118 0.39301
 N255 N 0.27534 0.00472 0.47214
 C256 C 0.20238 0.04283 0.53524
 H257 H 0.20457 0.02719 0.55495
 C258 C 0.17988 0.06669 0.53631
 H259 H 0.16476 0.06953 0.55694
 C260 C 0.21891 0.05790 0.48403
 H261 H 0.23408 0.05439 0.46365
 C262 C 0.19656 0.08197 0.48405
 H263 H 0.19448 0.09674 0.46361
 Zn264 Zn 0.24782 0.00300 0.50764
 N265 N 0.22076 0.03835 0.50903
 C266 C 0.27853 0.02851 0.56053
 N267 N 0.27327 0.00182 0.54450
 C268 C 0.28816 -0.02492 0.55283
 C269 C 0.30939 -0.02547 0.57800
 C270 C 0.29953 0.02895 0.58593
 C271 C 0.19009 -0.03140 0.50913
 C272 C 0.17125 -0.05783 0.50735
 C273 C 0.21878 -0.08754 0.49506
 C274 C 0.23678 -0.06046 0.49702
 N275 N 0.22237 -0.03318 0.50463
 H276 H 0.26726 0.04972 0.55300
 H277 H 0.28425 -0.04573 0.53955
 H278 H 0.32155 -0.04676 0.58406
 H279 H 0.30413 0.05044 0.59808
 H280 H 0.17875 -0.00955 0.51416
 H281 H 0.14564 -0.05618 0.51137
 H282 H 0.23045 -0.10919 0.48929
 H283 H 0.26224 -0.06118 0.49221
 C284 C 0.17618 0.08592 0.51007
 C285 C 0.31629 0.00805 0.42057
 C286 C 0.18570 -0.08630 0.50072
 C287 C 0.31526 0.00171 0.59475
 C288 C 0.69456 -0.00043 0.52656
 H289 H 0.68534 0.00381 0.50332
 C290 C 0.67321 -0.00196 0.55192
 H291 H 0.64775 0.00053 0.54790
 C292 C 0.73864 -0.00763 0.56053
 H293 H 0.76411 -0.00937 0.56399
 C294 C 0.71810 -0.00907 0.58661
 H295 H 0.72793 -0.01200 0.60992
 N296 N 0.72664 -0.00383 0.53107
 C297 C 0.80324 0.03692 0.47470
 H298 H 0.80704 0.01891 0.45744
 C299 C 0.82306 0.06278 0.47484
 H300 H 0.84215 0.06474 0.45757
 C301 C 0.77404 0.05606 0.51867
 H302 H 0.75499 0.05320 0.53578
 C303 C 0.79347 0.08223 0.51979
 H304 H 0.78951 0.09937 0.53795
 Zn305 Zn 0.75461 -0.00235 0.49531
 N306 N 0.77926 0.03409 0.49634
 C307 C 0.73088 0.02052 0.43711
 N308 N 0.72960 -0.00317 0.45812
 C309 C 0.70927 -0.02729 0.45397
 C310 C 0.68885 -0.02799 0.42818
 C311 C 0.71114 0.02053 0.41073
 C312 C 0.80713 -0.03619 0.51769
 C313 C 0.83067 -0.05911 0.51775
 C314 C 0.80672 -0.08119 0.47146
 C315 C 0.78339 -0.05799 0.47245
 N316 N 0.78390 -0.03609 0.49542
 H317 H 0.74673 0.03976 0.44103
 H318 H 0.70829 -0.04558 0.47127
 H319 H 0.67202 -0.04679 0.42580
 H320 H 0.71211 0.03968 0.39437
 H321 H 0.80814 -0.01783 0.53480
 H322 H 0.84904 -0.05886 0.53559
 H323 H 0.80633 -0.09823 0.45283
 H324 H 0.76547 -0.05717 0.45434
 C325 C 0.81815 0.08583 0.49751
 C326 C 0.68494 -0.00679 0.58228
 C327 C 0.83096 -0.08158 0.49405
 C328 C 0.68981 -0.00396 0.40607
 C329 C 0.47718 0.19890 1.03771
 H330 H 0.45996 0.19726 1.01891
 C331 C 0.47533 0.17875 1.06325
 H332 H 0.45668 0.16145 1.06412
 C333 C 0.52319 0.22278 1.05902
 H334 H 0.54216 0.23956 1.05698
 C335 C 0.52218 0.20311 1.08504
 H336 H 0.54021 0.20502 1.10311
 N337 N 0.50062 0.22058 1.03621
 C338 C 0.46310 0.29253 0.97521
 H339 H 0.48228 0.29361 0.95799
 C340 C 0.43758 0.31331 0.97359
 H341 H 0.43714 0.33049 0.95508
 C342 C 0.44113 0.26984 1.02131
 H343 H 0.44302 0.25340 1.04030
 C344 C 0.41511 0.29020 1.02054
 H345 H 0.39689 0.28914 1.03878
 Zn346 Zn 0.50149 0.24622 1.00023
 N347 N 0.46436 0.27128 0.99872
 C348 C 0.48073 0.22071 0.94231
 N349 N 0.50394 0.22021 0.96459
 C350 C 0.52876 0.19984 0.96295
 C351 C 0.53115 0.17909 0.93793
 C352 C 0.48224 0.20039 0.91685
 C353 C 0.53718 0.29452 1.02490
 C354 C 0.56040 0.31758 1.02528
 C355 C 0.58229 0.29704 0.97680
 C356 C 0.55876 0.27418 0.97744
 N357 N 0.53668 0.27351 1.00116
 H358 H 0.46077 0.23650 0.94444
 H359 H 0.54653 0.19956 0.98133
 H360 H 0.55079 0.16271 0.93704
 H361 H 0.46357 0.20083 0.89931
 H362 H 0.51899 0.29377 1.04314
 H363 H 0.56034 0.33444 1.04409
 H364 H 0.59929 0.29791 0.95744
 H365 H 0.55752 0.25771 0.95844
 C366 C 0.41316 0.31213 0.99637
 C367 C 0.49781 0.18103 1.08744
 C368 C 0.58273 0.31942 1.00057
 C369 C 0.50778 0.17943 0.91444
 C370 C 0.47313 0.79952 -0.03485
 H371 H 0.45481 0.80041 -0.01673
 C372 C 0.47215 0.82017 -0.06000
 H373 H 0.45292 0.83695 -0.06139
 C374 C 0.52121 0.77724 -0.05459
 H375 H 0.54065 0.76095 -0.05197
 C376 C 0.52113 0.79748 -0.08020
 H377 H 0.54045 0.79663 -0.09734
 N378 N 0.49737 0.77862 -0.03262
 C379 C 0.45990 0.70762 0.02998
 H380 H 0.47711 0.70905 0.04881
 C381 C 0.43659 0.68464 0.03049
 H382 H 0.43557 0.66852 0.04994
 C383 C 0.44121 0.72591 -0.01919
 H384 H 0.44374 0.74144 -0.03893
 C385 C 0.41762 0.70310 -0.01971
 H386 H 0.40184 0.70136 -0.03972
 Zn387 Zn 0.49797 0.75376 0.00386
 N388 N 0.46199 0.72747 0.00526
 C389 C 0.47442 0.78112 0.06059
 N390 N 0.49844 0.78076 0.03875
 C391 C 0.52324 0.80096 0.04025
 C392 C 0.52518 0.82193 0.06500
 C393 C 0.47524 0.80201 0.08561
 C394 C 0.53574 0.70527 -0.01842
 C395 C 0.55989 0.68293 -0.01780
 C396 C 0.58122 0.70732 0.02861
 C397 C 0.55651 0.72907 0.02727
 N398 N 0.53433 0.72760 0.00404
 H399 H 0.45441 0.76554 0.05843
 H400 H 0.54160 0.80063 0.02215
 H401 H 0.54521 0.83771 0.06607
 H402 H 0.45589 0.80239 0.10272
 H403 H 0.51750 0.70436 -0.03632
 H404 H 0.56035 0.66482 -0.03536
 H405 H 0.59853 0.70840 0.04742
 H406 H 0.55462 0.74647 0.04536
 C407 C 0.41577 0.68172 0.00497
 C408 C 0.49635 0.81920 -0.08300
 C409 C 0.58253 0.68352 0.00632
 C410 C 0.50113 0.82239 0.08819
 C411 C 1.03427 0.47310 0.19949
 H412 H 1.01555 0.45589 0.19965
 C413 C 1.05768 0.47266 0.17592
 H414 H 1.05719 0.45490 0.15801
 C415 C 1.05721 0.51784 0.22209
 H416 H 1.05651 0.53577 0.23972
 C417 C 1.08108 0.51830 0.19883
 H418 H 1.09886 0.53644 0.19878
 N419 N 1.03440 0.49546 0.22193
 C420 C 0.97697 0.45817 0.29895
 H421 H 0.96014 0.47699 0.30204
 C422 C 0.97564 0.43265 0.31892
 H423 H 0.95782 0.43188 0.33756
 C424 C 1.02144 0.43672 0.27157
 H425 H 1.03962 0.43865 0.25348
 C426 C 1.02077 0.41060 0.29085
 H427 H 1.03825 0.39238 0.28728
 Zn428 Zn 0.99949 0.49568 0.25054
 N429 N 0.99944 0.45965 0.27568
 C430 C 0.94028 0.47407 0.22653
 N431 N 0.96194 0.49747 0.22600
 C432 C 0.95872 0.52176 0.20600
 C433 C 0.93263 0.52344 0.18576
 C434 C 0.91400 0.47467 0.20642
 C435 C 1.02662 0.53120 0.29832
 C436 C 1.02815 0.55454 0.32088
 C437 C 0.97795 0.57476 0.30165
 C438 C 0.97736 0.55103 0.27945
 N439 N 1.00150 0.52985 0.27818
 H440 H 0.94380 0.45451 0.24190
 H441 H 0.97672 0.53967 0.20555
 H442 H 0.93044 0.54282 0.16981
 H443 H 0.89736 0.45554 0.20642
 H444 H 1.04521 0.51377 0.29713
 H445 H 1.04808 0.55529 0.33700
 H446 H 0.95843 0.59125 0.30279
 H447 H 0.95720 0.54916 0.26385
 C448 C 0.99742 0.40826 0.31463
 C449 C 1.08104 0.49580 0.17516
 C450 C 1.00333 0.57634 0.32291
 C451 C 0.90988 0.49971 0.18588
 C452 C -0.03702 0.47932 0.79441
 H453 H -0.01997 0.46052 0.79274
 C454 C -0.06039 0.47915 0.81799
 H455 H -0.06164 0.45995 0.83427
 C456 C -0.05554 0.52776 0.77580
 H457 H -0.05299 0.54699 0.75979
 C458 C -0.07915 0.52867 0.79931
 H459 H -0.09498 0.54846 0.80112
 N460 N -0.03495 0.50340 0.77399
 C461 C 0.02475 0.46471 0.69920
 H462 H 0.04431 0.48103 0.69937
 C463 C 0.02430 0.44114 0.67684
 H464 H 0.04364 0.43916 0.65982
 C465 C -0.02514 0.44822 0.72021
 H466 H -0.04480 0.45161 0.73651
 C467 C -0.02655 0.42432 0.69823
 H468 H -0.04706 0.40909 0.69799
 Zn469 Zn 0.00069 0.50311 0.74640
 N470 N 0.00021 0.46789 0.72019
 C471 C 0.05742 0.47879 0.77411
 N472 N 0.03706 0.50332 0.77246
 C473 C 0.03985 0.52784 0.79220
 C474 C 0.06365 0.52822 0.81498
 C475 C 0.08142 0.47809 0.79685
 C476 C -0.02477 0.54043 0.69944
 C477 C -0.02500 0.56349 0.67652
 C478 C 0.02641 0.58085 0.69525
 C479 C 0.02566 0.55745 0.71786
 N480 N 0.00038 0.53775 0.71941
 H481 H 0.05430 0.45924 0.75868
 H482 H 0.02296 0.54676 0.79072
 H483 H 0.06540 0.54771 0.83082
 H484 H 0.09697 0.45812 0.79863
 H485 H -0.04428 0.52411 0.70088
 H486 H -0.04486 0.56514 0.66038
 H487 H 0.04693 0.59601 0.69368
 H488 H 0.04579 0.55444 0.73337
 C489 C -0.00188 0.42105 0.67593
 C490 C -0.08118 0.50445 0.82112
 C491 C 0.00114 0.58356 0.67394
 C492 C 0.08412 0.50272 0.81804
 C493 C 0.09366 0.12493 0.51046
 C494 C 0.10308 0.15629 0.50794
 C495 C 0.13569 0.16367 0.50683
 C496 C 0.15897 0.14058 0.50752
 C497 C 0.15035 0.10941 0.50938
 C498 C 0.11745 0.10127 0.51052
 C499 C 0.06108 0.11656 0.51319
 C500 C 0.05209 0.08563 0.51452
 C501 C 0.07523 0.06249 0.51318
 C502 C 0.10760 0.07010 0.51116
 H503 H 0.04227 0.13375 0.51453
 H504 H 0.02701 0.07958 0.51644
 H505 H 0.06808 0.03850 0.51384
 H506 H 0.12468 0.05132 0.50990
 H507 H 0.14317 0.18752 0.50494
 H508 H 0.18401 0.14706 0.50657
 C509 C 0.63201 0.61459 0.03525
 C510 C 0.65360 0.61133 0.00951
 C511 C 0.65212 0.63222 -0.01557
 C512 C 0.62913 0.65555 -0.01600
 C513 C 0.60688 0.65871 0.00862
 C514 C 0.60800 0.63802 0.03449
 C515 C 0.63386 0.59512 0.06185
 C516 C 0.61168 0.59774 0.08639
 C517 C 0.58733 0.61967 0.08498
 C518 C 0.58536 0.63963 0.05933
 H519 H 0.65252 0.57790 0.06405
 H520 H 0.61330 0.58254 0.10654
 H521 H 0.56993 0.62132 0.10392
 H522 H 0.56585 0.65608 0.05916
 H523 H 0.66845 0.62997 -0.03539
 H524 H 0.62847 0.67117 -0.03590
 C525 C 0.91327 -0.12116 0.49138
 C526 C 0.90364 -0.15251 0.49346
 C527 C 0.87098 -0.15959 0.49547
 C528 C 0.84788 -0.13634 0.49520
 C529 C 0.85667 -0.10525 0.49277
 C530 C 0.88958 -0.09742 0.49015
 C531 C 0.94596 -0.11279 0.49096
 C532 C 0.95506 -0.08203 0.48763
 C533 C 0.93194 -0.05905 0.48471
 C534 C 0.89951 -0.06654 0.48591
 H535 H 0.96478 -0.12979 0.49345
 H536 H 0.98020 -0.07601 0.48713
 H537 H 0.93916 -0.03525 0.48167
 H538 H 0.88243 -0.04794 0.48324
 H539 H 0.86330 -0.18340 0.49712
 H540 H 0.82286 -0.14265 0.49719
 C541 C 0.34414 0.36439 0.96991
 C542 C 0.34253 0.38472 0.99605
 C543 C 0.36266 0.37976 1.02175
 C544 C 0.38453 0.35548 1.02181
 C545 C 0.38703 0.33535 0.99614
 C546 C 0.36622 0.33920 0.97020
 C547 C 0.32483 0.36888 0.94316
 C548 C 0.32628 0.34835 0.91794
 C549 C 0.34695 0.32311 0.91877
 C550 C 0.36677 0.31847 0.94459
 H551 H 0.30861 0.38828 0.94135
 H552 H 0.31121 0.35200 0.89767
 H553 H 0.34773 0.30709 0.89924
 H554 H 0.38230 0.29844 0.94436
 H555 H 0.36167 0.39511 1.04185
 H556 H 0.40031 0.35287 1.04175
 C557 C 0.85184 0.16824 0.49826
 C558 C 0.88481 0.16141 0.50244
 C559 C 0.89463 0.13061 0.50530
 C560 C 0.87265 0.10666 0.50358
 C561 C 0.84006 0.11264 0.49887
 C562 C 0.82936 0.14363 0.49587
 C563 C 0.84063 0.19898 0.49675
 C564 C 0.80834 0.20533 0.49162
 C565 C 0.78664 0.18132 0.48794
 C566 C 0.79693 0.15074 0.48998
 H567 H 0.85659 0.21835 0.49974
 H568 H 0.80012 0.22902 0.49036
 H569 H 0.76166 0.18642 0.48359
 H570 H 0.77928 0.13285 0.48671
 H571 H 0.91972 0.12500 0.50841
 H572 H 0.88118 0.08313 0.50597
 C573 C 0.38101 0.60006 0.00175
 C574 C 0.34781 0.60722 0.00184
 C575 C 0.33793 0.63812 0.00314
 C576 C 0.36027 0.66191 0.00390
 C577 C 0.39317 0.65551 0.00342
 C578 C 0.40386 0.62441 0.00186
 C579 C 0.39204 0.56919 0.00191
 C580 C 0.42471 0.56249 0.00075
 C581 C 0.44698 0.58627 -0.00055
 C582 C 0.43680 0.61694 -0.00004
 H583 H 0.37564 0.54995 0.00314
 H584 H 0.43278 0.53872 0.00072
 H585 H 0.47231 0.58093 -0.00183
 H586 H 0.45498 0.63462 -0.00138
 H587 H 0.31265 0.64386 0.00327
 H588 H 0.35183 0.68556 0.00502
 C589 C 0.14554 -0.16296 0.52182
 C590 C 0.12266 -0.16444 0.49741
 C591 C 0.12265 -0.14180 0.47390
 C592 C 0.14386 -0.11713 0.47500
 C593 C 0.16587 -0.11446 0.49949
 C594 C 0.16717 -0.13761 0.52304
 C595 C 0.14736 -0.18613 0.54510
 C596 C 0.16942 -0.18397 0.56944
 C597 C 0.18999 -0.15882 0.57108
 C598 C 0.18894 -0.13577 0.54820
 H599 H 0.13195 -0.20615 0.54456
 H600 H 0.17051 -0.20188 0.58716
 H601 H 0.20691 -0.15718 0.59017
 H602 H 0.20526 -0.11659 0.55048
 H603 H 0.10523 -0.14261 0.45517
 H604 H 0.14262 -0.09953 0.45692
 C605 C 0.61917 0.40044 0.99781
 C606 C 0.65220 0.39269 0.99920
 C607 C 0.66141 0.36163 1.00084
 C608 C 0.63861 0.33825 1.00085
 C609 C 0.60589 0.34522 0.99919
 C610 C 0.59589 0.37650 0.99704
 C611 C 0.60871 0.43150 0.99760
 C612 C 0.57627 0.43875 0.99512
 C613 C 0.55367 0.41536 0.99285
 C614 C 0.56325 0.38452 0.99377
 H615 H 0.62535 0.45046 0.99958
 H616 H 0.56865 0.46266 0.99481
 H617 H 0.52856 0.42114 0.99053
 H618 H 0.54485 0.36716 0.99165
 H619 H 0.68654 0.35545 1.00198
 H620 H 0.64653 0.31447 1.00245
 C621 C 0.46932 0.13383 1.15859
 C622 C 0.49568 0.11332 1.16149
 C623 C 0.52249 0.11698 1.14189
 C624 C 0.52301 0.13959 1.11865
 C625 C 0.49676 0.15930 1.11433
 C626 C 0.46990 0.15709 1.13488
 C627 C 0.44267 0.13211 1.17916
 C628 C 0.41711 0.15269 1.17631
 C629 C 0.41773 0.17550 1.15326
 C630 C 0.44389 0.17789 1.13281
 H631 H 0.44151 0.11519 1.19785
 H632 H 0.39684 0.15111 1.19226
 H633 H 0.39796 0.19160 1.15138
 H634 H 0.44369 0.19641 1.11576
 H635 H 0.54285 0.10156 1.14399
 H636 H 0.54375 0.14113 1.10325
 C637 C 0.00606 0.62126 0.59256
 C638 C 0.00394 0.65280 0.60138
 C639 C 0.00216 0.66070 0.63327
 C640 C 0.00150 0.63796 0.65641
 C641 C 0.00259 0.60664 0.64833
 C642 C 0.00536 0.59799 0.61624
 C643 C 0.00972 0.61236 0.56075
 C644 C 0.01216 0.58131 0.55247
 C645 C 0.01144 0.55859 0.57559
 C646 C 0.00830 0.56672 0.60719
 H647 H 0.01116 0.62922 0.54204
 H648 H 0.01493 0.57486 0.52801
 H649 H 0.01364 0.53453 0.56903
 H650 H 0.00861 0.54831 0.62437
 H651 H 0.00086 0.68472 0.64027
 H652 H -0.00028 0.64482 0.68086
 C653 C 0.49396 0.85750 -0.16435
 C654 C 0.49816 0.88877 -0.15535
 C655 C 0.50088 0.89618 -0.12344
 C656 C 0.50011 0.87330 -0.10052
 C657 C 0.49666 0.84221 -0.10873
 C658 C 0.49330 0.83401 -0.14082
 C659 C 0.48944 0.84913 -0.19609
 C660 C 0.48495 0.81835 -0.20451
 C661 C 0.48445 0.79543 -0.18157
 C662 C 0.48837 0.80308 -0.14999
 H663 H 0.48890 0.86621 -0.21462
 H664 H 0.48156 0.81228 -0.22894
 H665 H 0.48070 0.77162 -0.18825
 H666 H 0.48711 0.78462 -0.13290
 H667 H 0.50396 0.91996 -0.11621
 H668 H 0.50256 0.87988 -0.07608
 C669 C 0.96881 0.33879 0.36329
 C670 C 0.99635 0.33403 0.38242
 C671 C 1.02426 0.35094 0.37552
 C672 C 1.02428 0.37416 0.35294
 C673 C 0.99665 0.38112 0.33593
 C674 C 0.96896 0.36264 0.34010
 C675 C 0.94194 0.31900 0.36509
 C676 C 0.91537 0.32369 0.34602
 C677 C 0.91524 0.34751 0.32412
 C678 C 0.94184 0.36659 0.32082
 H679 H 0.94152 0.29914 0.38047
 H680 H 0.89499 0.30840 0.34787
 H681 H 0.89470 0.35078 0.30910
 H682 H 0.94120 0.38386 0.30248
 H683 H 1.04576 0.34787 0.38929
 H684 H 1.04578 0.38777 0.34967
 C685 C 0.50489 0.86036 0.16983
 C686 C 0.50442 0.89213 0.16077
 C687 C 0.50485 0.89938 0.12851
 C688 C 0.50372 0.87649 0.10572
 C689 C 0.50246 0.84532 0.11403
 C690 C 0.50359 0.83688 0.14624
 C691 C 0.50930 0.85123 0.20148
 C692 C 0.51024 0.82015 0.20987
 C693 C 0.50787 0.79742 0.18698
 C694 C 0.50504 0.80557 0.15543
 H695 H 0.51316 0.86783 0.22000
 H696 H 0.51342 0.81366 0.23424
 H697 H 0.50903 0.77332 0.19361
 H698 H 0.50475 0.78707 0.13840
 H699 H 0.50443 0.92316 0.12061
 H700 H 0.50320 0.88327 0.08119
 C701 C -0.02758 0.37569 0.60309
 C702 C -0.00511 0.35108 0.60420
 C703 C 0.01778 0.35038 0.62806
 C704 C 0.01839 0.37320 0.65108
 C705 C -0.00389 0.39741 0.65093
 C706 C -0.02696 0.39907 0.62666
 C707 C -0.05005 0.37809 0.57855
 C708 C -0.07161 0.40271 0.57746
 C709 C -0.07100 0.42553 0.60045
 C710 C -0.04882 0.42394 0.62474
 H711 H -0.05097 0.36127 0.55980
 H712 H -0.08870 0.40423 0.55851
 H713 H -0.08761 0.44473 0.59931
 H714 H -0.04879 0.44254 0.64169
 H715 H 0.03526 0.33185 0.62895
 H716 H 0.03631 0.37190 0.66933
 C717 C 0.53509 0.13140 0.84324
 C718 C 0.50960 0.10986 0.84214
 C719 C 0.48393 0.11271 0.86334
 C720 C 0.48362 0.13571 0.88613
 C721 C 0.50895 0.15667 0.88846
 C722 C 0.53474 0.15504 0.86658
 C723 C 0.56053 0.13043 0.82117
 C724 C 0.58519 0.15202 0.82226
 C725 C 0.58481 0.17513 0.84498
 C726 C 0.55980 0.17684 0.86685
 H727 H 0.56141 0.11331 0.80268
 H728 H 0.60453 0.15099 0.80519
 H729 H 0.60387 0.19200 0.84549
 H730 H 0.56010 0.19562 0.88359
 H731 H 0.46423 0.09650 0.86265
 H732 H 0.46370 0.13677 0.90259
 C733 C 1.00095 0.61740 0.40270
 C734 C 1.00502 0.64837 0.39258
 C735 C 1.00729 0.65488 0.36039
 C736 C 1.00653 0.63125 0.33823
 C737 C 1.00351 0.60040 0.34760
 C738 C 1.00025 0.59320 0.38002
 C739 C 0.99670 0.61000 0.43484
 C740 C 0.99237 0.57951 0.44440
 C741 C 0.99175 0.55589 0.42226
 C742 C 0.99542 0.56256 0.39036
 H743 H 0.99624 0.62764 0.45282
 H744 H 0.98917 0.57421 0.46911
 H745 H 0.98809 0.53229 0.42982
 H746 H 0.99404 0.54355 0.37396
 H747 H 1.01011 0.67847 0.35238
 H748 H 1.00871 0.63703 0.31351
 C749 C 1.11980 0.49937 0.09323
 C750 C 1.15273 0.49531 0.10132
 C751 C 1.16045 0.49032 0.13310
 C752 C 1.13703 0.49112 0.15656
 C753 C 1.10495 0.49668 0.14927
 C754 C 1.09607 0.50122 0.11751
 C755 C 1.10945 0.49954 0.06158
 C756 C 1.07744 0.50475 0.05415
 C757 C 1.05487 0.50926 0.07792
 C758 C 1.06393 0.50733 0.10932
 H759 H 1.12570 0.49489 0.04224
 H760 H 1.07009 0.50520 0.02979
 H761 H 1.03009 0.51363 0.07202
 H762 H 1.04548 0.51054 0.12703
 H763 H 1.18509 0.48713 0.14022
 H764 H 1.14403 0.48738 0.18075
 C765 C 0.63733 -0.03420 0.65469
 C766 C 0.61742 -0.00798 0.65953
 C767 C 0.62097 0.01777 0.63991
 C768 C 0.64311 0.01768 0.61530
 C769 C 0.66244 -0.00818 0.60940
 C770 C 0.65959 -0.03455 0.62905
 C771 C 0.63581 -0.06001 0.67494
 C772 C 0.65468 -0.08606 0.66926
 C773 C 0.67536 -0.08693 0.64345
 C774 C 0.67784 -0.06153 0.62345
 H775 H 0.62028 -0.06024 0.69541
 H776 H 0.65314 -0.10573 0.68489
 H777 H 0.68965 -0.10738 0.63896
 H778 H 0.69401 -0.06338 0.60355
 H779 H 0.60591 0.03795 0.64325
 H780 H 0.64503 0.03798 0.60052
 C781 C -0.11873 0.50282 0.90366
 C782 C -0.15166 0.50405 0.89568
 C783 C -0.16041 0.50587 0.86400
 C784 C -0.13726 0.50659 0.84027
 C785 C -0.10460 0.50563 0.84747
 C786 C -0.09502 0.50446 0.87942
 C787 C -0.10877 0.49946 0.93517
 C788 C -0.07636 0.49946 0.94274
 C789 C -0.05327 0.50270 0.91923
 C790 C -0.06236 0.50520 0.88786
 H791 H -0.12581 0.49656 0.95421
 H792 H -0.06912 0.49708 0.96702
 H793 H -0.02817 0.50310 0.92532
 H794 H -0.04358 0.50795 0.87044
 H795 H -0.18547 0.50681 0.85760
 H796 H -0.14489 0.50750 0.81599
 C797 C 0.38363 0.03378 0.36487
 C798 C 0.38532 0.00760 0.34480
 C799 C 0.36347 -0.01654 0.34904
 C800 C 0.34050 -0.01544 0.37293
 C801 C 0.33850 0.00994 0.39325
 C802 C 0.35941 0.03533 0.38864
 C803 C 0.40596 0.05814 0.36247
 C804 C 0.40325 0.08415 0.38161
 C805 C 0.37848 0.08641 0.40356
 C806 C 0.35674 0.06230 0.40715
 H807 H 0.42585 0.05733 0.34608
 H808 H 0.42039 0.10272 0.37929
 H809 H 0.37625 0.10684 0.41806
 H810 H 0.33775 0.06513 0.42437
 H811 H 0.36452 -0.03667 0.33394
 H812 H 0.32471 -0.03500 0.37617
 C813 C 0.12208 0.50376 0.89982
 C814 C 0.15493 0.50162 0.89119
 C815 C 0.16354 0.49994 0.85933
 C816 C 0.14027 0.49994 0.83606
 C817 C 0.10766 0.50153 0.84391
 C818 C 0.09824 0.50286 0.87605
 C819 C 0.11237 0.50715 0.93156
 C820 C 0.08001 0.50794 0.93981
 C821 C 0.05673 0.50544 0.91675
 C822 C 0.06561 0.50289 0.88518
 H823 H 0.12958 0.50946 0.95027
 H824 H 0.07295 0.51034 0.96424
 H825 H 0.03165 0.50564 0.92334
 H826 H 0.04666 0.50071 0.86815
 H827 H 0.18853 0.49831 0.85245
 H828 H 0.14777 0.49890 0.81162
 C829 C 0.63620 -0.02782 0.33736
 C830 C 0.61574 -0.00159 0.33613
 C831 C 0.62142 0.02341 0.35616
 C832 C 0.64625 0.02260 0.37774
 C833 C 0.66651 -0.00313 0.37987
 C834 C 0.66233 -0.02819 0.35881
 C835 C 0.63090 -0.05406 0.31842
 C836 C 0.65184 -0.07918 0.31919
 C837 C 0.67831 -0.07878 0.33885
 C838 C 0.68359 -0.05360 0.35851
 H839 H 0.61051 -0.05563 0.30302
 H840 H 0.64759 -0.09901 0.30435
 H841 H 0.69471 -0.09818 0.33903
 H842 H 0.70459 -0.05415 0.37323
 H843 H 0.60606 0.04361 0.35549
 H844 H 0.64904 0.04193 0.39363
 C845 C 0.82684 0.49582 0.14769
 C846 C 0.83607 0.49760 0.11553
 C847 C 0.86857 0.50028 0.10764
 C848 C 0.89184 0.50131 0.13079
 C849 C 0.88348 0.49989 0.16272
 C850 C 0.85068 0.49767 0.17149
 C851 C 0.79452 0.49176 0.15678
 C852 C 0.78570 0.49108 0.18846
 C853 C 0.80877 0.49436 0.21165
 C854 C 0.84096 0.49766 0.20338
 H855 H 0.77583 0.48883 0.13959
 H856 H 0.76081 0.48813 0.19507
 H857 H 0.80170 0.49421 0.23620
 H858 H 0.85800 0.50042 0.22216
 H859 H 0.87603 0.50174 0.08322
 H860 H 0.91676 0.50292 0.12366
 C861 C 0.35709 0.00926 0.67434
 C862 C 0.38913 0.00325 0.66474
 C863 C 0.39588 -0.00294 0.63307
 C864 C 0.37154 -0.00362 0.61096
 C865 C 0.33968 0.00208 0.61977
 C866 C 0.33211 0.00843 0.65169
 C867 C 0.34937 0.01644 0.70589
 C868 C 0.31770 0.02183 0.71506
 C869 C 0.29321 0.02022 0.69310
 C870 C 0.30022 0.01357 0.66169
 H871 H 0.36767 0.01812 0.72367
 H872 H 0.31211 0.02722 0.73935
 H873 H 0.26866 0.02421 0.70042
 H874 H 0.28046 0.01236 0.64545
 H875 H 0.42025 -0.00760 0.62545
 H876 H 0.37764 -0.00842 0.58663
   
