data_POSCAR
  _audit_creation_date              2014-09-24
  _audit_creation_method            'ToBaCCo'
  _symmetry_space_group_name_H-M    'P1'
  _symmetry_Int_Tables_number       1
  _symmetry_cell_setting            triclinic
  loop_
  _symmetry_equiv_pos_as_xyz
 x,y,z
_cell_length_a 17.4597
_cell_length_b 17.3717
_cell_length_c 33.3974
_cell_angle_alpha 88.460300
_cell_angle_beta 86.809000
_cell_angle_gamma 90.457100
loop_
  _atom_site_label
  _atom_site_type_symbol
  _atom_site_fract_x
  _atom_site_fract_y
  _atom_site_fract_z
O1 O -0.07745 0.55809 0.96780
 O2 O -0.02520 0.40774 1.04066
 O3 O -0.06665 0.55126 1.04489
 O4 O -0.03589 0.41519 0.96325
 O5 O 0.08408 0.45611 0.95360
 O6 O 0.05518 0.58633 1.03838
 O7 O 0.09640 0.44209 1.03168
 O8 O 0.04327 0.59717 0.96128
 Cu9 Cu -0.06331 0.47912 1.00506
 Cu10 Cu 0.08216 0.52370 0.99573
 C11 C -0.02612 0.60353 0.95212
 C12 C 0.04454 0.39861 1.04858
 C13 C -0.01126 0.59243 1.05550
 C14 C 0.02863 0.41417 0.94382
 O15 O 0.58769 -0.04563 0.54101
 O16 O 0.45487 -0.08799 0.46225
 O17 O 0.59897 -0.04748 0.46335
 O18 O 0.44386 -0.08959 0.54038
 O19 O 0.40922 0.03231 0.53775
 O20 O 0.56663 0.07500 0.46242
 O21 O 0.42237 0.03437 0.45951
 O22 O 0.54967 0.07508 0.54054
 Cu23 Cu 0.52468 -0.07994 0.50192
 Cu24 Cu 0.48357 0.06641 0.49958
 C25 C 0.59066 0.02191 0.55470
 C26 C 0.41596 -0.03390 0.44733
 C27 C 0.60995 0.02112 0.45005
 C28 C 0.40027 -0.03565 0.55233
 C29 C 0.03077 -0.00747 0.24992
 C30 C -0.02306 0.01445 0.75031
 C31 C 0.02118 -0.25428 0.13124
 C32 C -0.05287 -0.24220 0.14573
 C33 C -0.11525 -0.28283 0.13268
 C34 C -0.10073 -0.33805 0.10337
 C35 C -0.02486 -0.35128 0.08756
 C36 C 0.03694 -0.30863 0.10195
 O37 O 0.07207 -0.20924 0.14753
 C38 C 0.02911 -0.16790 0.17283
 C39 C -0.04762 -0.18567 0.17278
 C40 C -0.10290 -0.14759 0.19599
 C41 C -0.07807 -0.08976 0.22089
 C42 C 0.00165 -0.07249 0.22354
 C43 C 0.05519 -0.11097 0.19750
 H44 H -0.17305 -0.27224 0.14453
 H45 H -0.14883 -0.36978 0.09270
 H46 H 0.09546 -0.31703 0.09056
 H47 H -0.16331 -0.16090 0.19442
 H48 H -0.12191 -0.05781 0.23714
 H49 H 0.11584 -0.09714 0.19683
 C50 C 0.02617 0.23744 0.12376
 C51 C 0.10160 0.22721 0.13224
 C52 C 0.16096 0.27136 0.11372
 C53 C 0.14166 0.32854 0.08551
 C54 C 0.06391 0.34053 0.07627
 C55 C 0.00567 0.29342 0.09583
 O56 O -0.02177 0.19052 0.14493
 C57 C 0.02434 0.14984 0.16738
 C58 C 0.10033 0.16975 0.16083
 C59 C 0.15800 0.13376 0.18120
 C60 C 0.13632 0.07595 0.20998
 C61 C 0.05745 0.05648 0.21893
 C62 C 0.00153 0.09281 0.19566
 H63 H 0.21997 0.26251 0.12094
 H64 H 0.18744 0.36350 0.07110
 H65 H -0.05430 0.30037 0.08994
 H66 H 0.21774 0.14914 0.17493
 H67 H 0.18165 0.04612 0.22451
 H68 H -0.05872 0.07788 0.20014
 C69 C 0.25065 -0.00622 0.63594
 C70 C 0.21840 -0.07863 0.64031
 C71 C 0.24454 -0.14026 0.61766
 C72 C 0.30594 -0.12629 0.58922
 C73 C 0.33857 -0.05140 0.58356
 C74 C 0.31059 0.00917 0.60756
 O75 O 0.21701 0.04470 0.65977
 C76 C 0.16166 0.00388 0.67934
 C77 C 0.15968 -0.07161 0.66854
 C78 C 0.10420 -0.12302 0.68436
 C79 C 0.04749 -0.09479 0.71148
 C80 C 0.04581 -0.01562 0.72282
 C81 C 0.10739 0.03261 0.70700
 H82 H 0.21825 -0.19680 0.62149
 H83 H 0.32674 -0.17316 0.57098
 H84 H 0.33443 0.06687 0.60409
 H85 H 0.10338 -0.18246 0.67546
 H86 H 0.00350 -0.13510 0.72291
 H87 H 0.11546 0.09134 0.71472
 C88 C -0.25719 0.00323 0.62754
 C89 C -0.26817 0.06987 0.64827
 C90 C -0.32349 0.12349 0.63895
 C91 C -0.36942 0.10775 0.60693
 C92 C -0.36117 0.03794 0.58575
 C93 C -0.30402 -0.01511 0.59661
 O94 O -0.19945 -0.03845 0.64016
 C95 C -0.17383 0.00264 0.66966
 C96 C -0.21457 0.06864 0.67622
 C97 C -0.20020 0.11744 0.70711
 C98 C -0.14014 0.09838 0.73163
 C99 C -0.09149 0.03380 0.72368
 C100 C -0.11218 -0.01603 0.69270
 H101 H -0.33044 0.17602 0.65543
 H102 H -0.41254 0.14935 0.59935
 H103 H -0.29496 -0.06838 0.58097
 H104 H -0.23531 0.16745 0.71286
 H105 H -0.13291 0.13433 0.75706
 H106 H -0.08275 -0.06876 0.68638
 C107 C -0.01093 -0.23426 0.87447
 C108 C -0.08675 -0.22466 0.86656
 C109 C -0.14549 -0.26868 0.88572
 C110 C -0.12512 -0.32505 0.91406
 C111 C -0.04713 -0.33611 0.92272
 C112 C 0.01058 -0.28958 0.90255
 O113 O 0.03608 -0.18696 0.85291
 C114 C -0.01110 -0.14666 0.83088
 C115 C -0.08678 -0.16727 0.83806
 C116 C -0.14557 -0.13182 0.81838
 C117 C -0.12561 -0.07292 0.78999
 C118 C -0.04732 -0.05071 0.78126
 C119 C 0.01019 -0.08862 0.80287
 H120 H -0.20481 -0.26018 0.87899
 H121 H -0.17011 -0.36002 0.92915
 H122 H 0.07062 -0.29650 0.90825
 H123 H -0.20491 -0.14861 0.82480
 H124 H -0.17190 -0.04485 0.77537
 H125 H 0.07015 -0.07266 0.79807
 C126 C 0.02240 0.24468 0.87649
 C127 C 0.04019 0.28021 0.83979
 C128 C 0.05909 0.35810 0.83557
 C129 C 0.05888 0.40112 0.87060
 C130 C 0.03781 0.36615 0.90847
 C131 C 0.01966 0.28681 0.91151
 O132 O 0.00518 0.17056 0.87391
 C133 C 0.01157 0.15918 0.83473
 C134 C 0.03173 0.22449 0.81252
 C135 C 0.03382 0.22699 0.77096
 C136 C 0.01551 0.15913 0.75160
 C137 C -0.00031 0.08805 0.77330
 C138 C -0.00386 0.09041 0.81613
 H139 H 0.07272 0.38490 0.80639
 H140 H 0.07202 0.46217 0.86815
 H141 H 0.00276 0.25919 0.94014
 H142 H 0.04594 0.28011 0.75403
 H143 H 0.01166 0.16238 0.71934
 H144 H -0.02118 0.04183 0.83539
 C145 C -0.22053 -0.00373 0.37631
 C146 C -0.20667 0.07129 0.36363
 C147 C -0.25022 0.13240 0.37796
 C148 C -0.31060 0.11543 0.40648
 C149 C -0.32618 0.03836 0.42005
 C150 C -0.27998 -0.02190 0.40466
 O151 O -0.17354 -0.05345 0.35841
 C152 C -0.12921 -0.00885 0.33380
 C153 C -0.14695 0.06784 0.33585
 C154 C -0.10774 0.12429 0.31252
 C155 C -0.04928 0.10058 0.28515
 C156 C -0.03241 0.02086 0.28037
 C157 C -0.07114 -0.03369 0.30703
 H158 H -0.23847 0.19098 0.36740
 H159 H -0.34515 0.16233 0.41790
 H160 H -0.29026 -0.08134 0.41417
 H161 H -0.12147 0.18461 0.31536
 H162 H -0.01723 0.14511 0.26819
 H163 H -0.05798 -0.09442 0.30590
 C164 C 0.27077 -0.00817 0.36828
 C165 C 0.25896 -0.08331 0.35808
 C166 C 0.29706 -0.14463 0.37543
 C167 C 0.34939 -0.12777 0.40451
 C168 C 0.36228 -0.05065 0.41581
 C169 C 0.32223 0.00990 0.39717
 O170 O 0.22810 0.04146 0.34867
 C171 C 0.18850 -0.00337 0.32559
 C172 C 0.20508 -0.08008 0.33023
 C173 C 0.16796 -0.13705 0.31008
 C174 C 0.11203 -0.11404 0.28374
 C175 C 0.09546 -0.03451 0.27677
 C176 C 0.13361 0.02090 0.29940
 H177 H 0.28667 -0.20337 0.36701
 H178 H 0.37922 -0.17492 0.41845
 H179 H 0.33039 0.06934 0.40506
 H180 H 0.18032 -0.19737 0.31517
 H181 H 0.08062 -0.15911 0.26997
 H182 H 0.12039 0.08155 0.29672
   
