data_POSCAR
  _audit_creation_date              2014-09-24
  _audit_creation_method            'ToBaCCo'
  _symmetry_space_group_name_H-M    'P1'
  _symmetry_Int_Tables_number       1
  _symmetry_cell_setting            triclinic
  loop_
  _symmetry_equiv_pos_as_xyz
 x,y,z
_cell_length_a 39.3108
_cell_length_b 39.2705
_cell_length_c 37.8176
_cell_angle_alpha 89.859300
_cell_angle_beta 90.029300
_cell_angle_gamma 90.012500
loop_
  _atom_site_label
  _atom_site_type_symbol
  _atom_site_fract_x
  _atom_site_fract_y
  _atom_site_fract_z
C1 C 1.27648 0.21388 0.26878
 C2 C 1.25119 0.23175 0.25032
 C3 C 1.22589 0.21380 0.23205
 C4 C 1.22603 0.17815 0.23190
 C5 C 1.25113 0.16030 0.25067
 C6 C 1.27629 0.17819 0.26930
 C7 C 1.25119 0.26920 0.25012
 C8 C 1.27646 0.28708 0.23166
 C9 C 1.27626 0.32277 0.23110
 C10 C 1.25111 0.34065 0.24970
 C11 C 1.22603 0.32280 0.26849
 C12 C 1.22590 0.28714 0.26837
 H13 H 1.29589 0.22783 0.28312
 H14 H 1.20648 0.22762 0.21754
 H15 H 1.29586 0.27313 0.21733
 H16 H 1.20650 0.27332 0.28287
 H17 H 1.25103 0.13268 0.25075
 H18 H 1.25099 0.36828 0.24959
 C19 C 0.77533 -0.28743 0.26857
 C20 C 0.74987 -0.26950 0.25045
 C21 C 0.72444 -0.28738 0.23232
 C22 C 0.72465 -0.32303 0.23195
 C23 C 0.74993 -0.34094 0.25040
 C24 C 0.77520 -0.32311 0.26890
 C25 C 0.74986 -0.23205 0.25044
 C26 C 0.77532 -0.21410 0.23236
 C27 C 0.77515 -0.17844 0.23203
 C28 C 0.74988 -0.16062 0.25045
 C29 C 0.72459 -0.17853 0.26887
 C30 C 0.72440 -0.21418 0.26853
 H31 H 0.79484 -0.27352 0.28282
 H32 H 0.70490 -0.27352 0.21805
 H33 H 0.79486 -0.22790 0.21812
 H34 H 0.70485 -0.22805 0.28277
 H35 H 0.74988 -0.36857 0.25031
 H36 H 0.74989 -0.13301 0.25046
 C37 C 0.77598 0.21436 -0.23235
 C38 C 0.75051 0.23223 -0.25052
 C39 C 0.72505 0.21428 -0.26854
 C40 C 0.72523 0.17862 -0.26872
 C41 C 0.75053 0.16080 -0.25021
 C42 C 0.77581 0.17871 -0.23186
 C43 C 0.75051 0.26968 -0.25069
 C44 C 0.77595 0.28757 -0.26888
 C45 C 0.77577 0.32325 -0.26940
 C46 C 0.75047 0.34113 -0.25102
 C47 C 0.72521 0.32327 -0.23250
 C48 C 0.72506 0.28761 -0.23268
 H49 H 0.79554 0.22823 -0.21816
 H50 H 0.70549 0.22808 -0.28286
 H51 H 0.79547 0.27363 -0.28305
 H52 H 0.70553 0.27379 -0.21837
 H53 H 0.75053 0.13319 -0.25009
 H54 H 0.75038 0.36876 -0.25108
 C55 C 1.27558 -0.28742 -0.23163
 C56 C 1.24992 -0.26946 -0.24941
 C57 C 1.22427 -0.28730 -0.26722
 C58 C 1.22444 -0.32294 -0.26761
 C59 C 1.24990 -0.34089 -0.24950
 C60 C 1.27540 -0.32309 -0.23131
 C61 C 1.24995 -0.23202 -0.24941
 C62 C 1.27561 -0.21409 -0.26720
 C63 C 1.27545 -0.17844 -0.26755
 C64 C 1.25001 -0.16060 -0.24944
 C65 C 1.22453 -0.17849 -0.23131
 C66 C 1.22431 -0.21413 -0.23164
 H67 H 1.29526 -0.27354 -0.21761
 H68 H 1.20458 -0.27342 -0.28125
 H69 H 1.29529 -0.22790 -0.28123
 H70 H 1.20461 -0.22798 -0.21760
 H71 H 1.24982 -0.36852 -0.24960
 H72 H 1.25003 -0.13299 -0.24945
 C73 C 0.21358 0.27515 0.73276
 C74 C 0.23151 0.24981 0.75110
 C75 C 0.21367 0.22438 0.76939
 C76 C 0.17802 0.22446 0.76969
 C77 C 0.16014 0.24965 0.75100
 C78 C 0.17796 0.27490 0.73238
 C79 C 0.26892 0.24990 0.75112
 C80 C 0.28676 0.27531 0.76934
 C81 C 0.32241 0.27524 0.76966
 C82 C 0.34029 0.25008 0.75106
 C83 C 0.32247 0.22486 0.73252
 C84 C 0.28686 0.22460 0.73288
 H85 H 0.22737 0.29467 0.71837
 H86 H 0.22761 0.20494 0.78379
 H87 H 0.27282 0.29472 0.78366
 H88 H 0.27307 0.20510 0.71854
 H89 H 0.13254 0.24966 0.75090
 H90 H 0.36789 0.25009 0.75098
 C91 C 0.71272 0.77564 0.73181
 C92 C 0.73060 0.75027 0.75017
 C93 C 0.71271 0.72495 0.76856
 C94 C 0.67707 0.72514 0.76895
 C95 C 0.65922 0.75035 0.75025
 C96 C 0.67707 0.77552 0.73150
 C97 C 0.76801 0.75023 0.75011
 C98 C 0.78598 0.77550 0.76840
 C99 C 0.82160 0.77530 0.76866
 C100 C 0.83937 0.75016 0.74997
 C101 C 0.82146 0.72507 0.73135
 C102 C 0.78584 0.72493 0.73175
 H103 H 0.72664 0.79506 0.71737
 H104 H 0.72663 0.70549 0.78297
 H105 H 0.77221 0.79494 0.78284
 H106 H 0.77196 0.70552 0.71736
 H107 H 0.63160 0.75037 0.75027
 H108 H 0.86696 0.75014 0.74991
 C109 C 0.71376 0.27542 0.23168
 C110 C 0.73162 0.24978 0.24963
 C111 C 0.71371 0.22412 0.26749
 C112 C 0.67809 0.22429 0.26773
 C113 C 0.66027 0.24974 0.24944
 C114 C 0.67814 0.27521 0.23125
 C115 C 0.76902 0.24981 0.24974
 C116 C 0.78685 0.27547 0.26758
 C117 C 0.82246 0.27532 0.26801
 C118 C 0.84037 0.24989 0.24993
 C119 C 0.82258 0.22442 0.23175
 C120 C 0.78697 0.22420 0.23199
 H121 H 0.72759 0.29512 0.21759
 H122 H 0.72750 0.20444 0.28165
 H123 H 0.77299 0.29514 0.28157
 H124 H 0.77320 0.20450 0.21792
 H125 H 0.63269 0.24972 0.24938
 H126 H 0.86795 0.24993 0.25000
 C127 C 0.21282 0.77533 0.23183
 C128 C 0.23070 0.74993 0.25012
 C129 C 0.21282 0.72456 0.26846
 C130 C 0.17718 0.72476 0.26886
 C131 C 0.15932 0.75000 0.25022
 C132 C 0.17718 0.77521 0.23153
 C133 C 0.26811 0.74990 0.25007
 C134 C 0.28606 0.77523 0.26827
 C135 C 0.32168 0.77505 0.26852
 C136 C 0.33947 0.74988 0.24991
 C137 C 0.32156 0.72472 0.23137
 C138 C 0.28594 0.72455 0.23178
 H139 H 0.22673 0.79478 0.21743
 H140 H 0.22674 0.70508 0.28282
 H141 H 0.27228 0.79470 0.28266
 H142 H 0.27208 0.70510 0.21744
 H143 H 0.13171 0.75003 0.25026
 H144 H 0.36705 0.74988 0.24984
 O145 O 1.05885 0.01751 0.04426
 O146 O 0.94236 -0.01778 0.04418
 O147 O 0.98303 0.05812 0.04414
 O148 O 1.01822 -0.05844 0.04429
 O149 O 0.93590 0.03946 0.02470
 O150 O 1.06536 -0.03971 0.02493
 O151 O 0.96104 -0.06494 0.02488
 O152 O 1.04020 0.06471 0.02479
 C153 C 1.05563 0.04842 0.04815
 C154 C 0.94564 -0.04869 0.04819
 C155 C 0.95216 0.05475 0.04810
 C156 C 1.04910 -0.05519 0.04826
 O157 O 1.05877 -0.01792 -0.04348
 O158 O 0.94251 0.01788 -0.04365
 O159 O 1.01855 0.05817 -0.04362
 O160 O 0.98269 -0.05825 -0.04351
 O161 O 0.93565 -0.03936 -0.02418
 O162 O 1.06559 0.03925 -0.02416
 O163 O 1.03983 -0.06502 -0.02406
 O164 O 0.96141 0.06495 -0.02428
 Co165 Co 1.05610 -0.00021 0.00038
 Co166 Co 0.94515 0.00004 0.00027
 Co167 Co 1.00077 0.05544 0.00026
 Co168 Co 1.00046 -0.05562 0.00039
 O169 O 1.00062 -0.00009 0.00033
 C170 C 1.05522 -0.04878 -0.04746
 C171 C 0.94593 0.04878 -0.04763
 C172 C 1.04942 0.05481 -0.04752
 C173 C 0.95182 -0.05486 -0.04748
 O174 O 1.05809 0.51798 0.54369
 O175 O 0.94176 0.48243 0.54357
 O176 O 0.98198 0.55845 0.54346
 O177 O 1.01784 0.44203 0.54369
 O178 O 0.93497 0.53965 0.52393
 O179 O 1.06490 0.46083 0.52425
 O180 O 0.96069 0.43532 0.52436
 O181 O 1.03917 0.56514 0.52432
 C182 C 1.05455 0.54884 0.54772
 C183 C 0.94517 0.45154 0.54762
 C184 C 0.95110 0.55513 0.54729
 C185 C 1.04871 0.44534 0.54762
 O186 O 1.05824 0.48270 0.45590
 O187 O 0.94178 0.51793 0.45568
 O188 O 1.01777 0.55860 0.45580
 O189 O 0.98230 0.44208 0.45590
 O190 O 0.93519 0.46071 0.47529
 O191 O 1.06484 0.53990 0.47539
 O192 O 1.03945 0.43548 0.47524
 O193 O 0.96055 0.56511 0.47492
 Co194 Co 1.05546 0.50035 0.49979
 Co195 Co 0.94448 0.50019 0.49963
 Co196 Co 0.99988 0.55579 0.49963
 Co197 Co 1.00006 0.44477 0.49979
 O198 O 0.99997 0.50028 0.49971
 C199 C 1.05497 0.45180 0.45195
 C200 C 0.94509 0.54883 0.45163
 C201 C 1.04866 0.55536 0.45198
 C202 C 0.95144 0.44541 0.45192
 O203 O 0.55811 0.01766 0.54417
 O204 O 0.44172 -0.01781 0.54422
 O205 O 0.48230 0.05818 0.54412
 O206 O 0.51756 -0.05840 0.54435
 O207 O 0.43515 0.03942 0.52484
 O208 O 0.56468 -0.03959 0.52500
 O209 O 0.46039 -0.06494 0.52487
 O210 O 0.53944 0.06480 0.52459
 C211 C 0.55485 0.04857 0.54800
 C212 C 0.44510 -0.04870 0.54825
 C213 C 0.45144 0.05486 0.54813
 C214 C 0.54843 -0.05510 0.54833
 O215 O 0.55803 -0.01797 0.45650
 O216 O 0.44172 0.01787 0.45641
 O217 O 0.51763 0.05815 0.45629
 O218 O 0.48207 -0.05829 0.45654
 O219 O 0.43500 -0.03937 0.47582
 O220 O 0.56472 0.03923 0.47566
 O221 O 0.53922 -0.06507 0.47604
 O222 O 0.46052 0.06495 0.47578
 Co223 Co 0.55535 -0.00016 0.50033
 Co224 Co 0.44443 0.00002 0.50032
 Co225 Co 0.49997 0.05546 0.50021
 Co226 Co 0.49982 -0.05562 0.50044
 O227 O 0.49989 -0.00008 0.50032
 C228 C 0.55466 -0.04887 0.45264
 C229 C 0.44502 0.04879 0.45246
 C230 C 0.54847 0.05463 0.45225
 C231 C 0.45120 -0.05487 0.45253
 O232 O 0.55781 0.51780 0.04320
 O233 O 0.44145 0.48225 0.04329
 O234 O 0.48160 0.55822 0.04313
 O235 O 0.51761 0.44188 0.04313
 O236 O 0.43458 0.53946 0.02360
 O237 O 0.56459 0.46069 0.02353
 O238 O 0.46042 0.43514 0.02407
 O239 O 0.53878 0.56499 0.02402
 C240 C 0.55432 0.54866 0.04729
 C241 C 0.44490 0.45135 0.04735
 C242 C 0.45073 0.55489 0.04698
 C243 C 0.54847 0.44528 0.04700
 O244 O 0.55777 0.48272 -0.04468
 O245 O 0.44130 0.51769 -0.04461
 O246 O 0.51735 0.55851 -0.04455
 O247 O 0.48176 0.44196 -0.04452
 O248 O 0.43469 0.46046 -0.02493
 O249 O 0.56444 0.53989 -0.02501
 O250 O 0.53898 0.43545 -0.02544
 O251 O 0.46015 0.56488 -0.02543
 Co252 Co 0.55509 0.50026 -0.00074
 Co253 Co 0.44408 0.49998 -0.00066
 Co254 Co 0.49948 0.55563 -0.00071
 Co255 Co 0.49968 0.44463 -0.00069
 O256 O 0.49958 0.50013 -0.00070
 C257 C 0.55442 0.45184 -0.04873
 C258 C 0.44475 0.54857 -0.04873
 C259 C 0.54825 0.55538 -0.04838
 C260 C 0.45086 0.44509 -0.04832
 C261 C 1.20091 0.16008 0.21156
 C262 C 1.18009 0.14549 0.19372
 C263 C 1.15568 0.12856 0.17148
 C264 C 1.13233 0.14773 0.15173
 C265 C 1.11007 0.13152 0.12832
 C266 C 1.11106 0.09605 0.12456
 C267 C 1.13400 0.07682 0.14477
 C268 C 1.15627 0.09304 0.16818
 C269 C 1.09012 0.07957 0.09847
 C270 C 1.07368 0.06553 0.07587
 H271 H 1.13177 0.17523 0.15396
 H272 H 1.09259 0.14666 0.11266
 H273 H 1.13514 0.04940 0.14190
 H274 H 1.17432 0.07797 0.18318
 C275 C 1.19905 0.65914 0.71232
 C276 C 1.17805 0.64472 0.69460
 C277 C 1.15349 0.62806 0.67237
 C278 C 1.15361 0.59253 0.66923
 C279 C 1.13140 0.57656 0.64561
 C280 C 1.10899 0.59606 0.62504
 C281 C 1.10841 0.63154 0.62868
 C282 C 1.13062 0.64751 0.65231
 C283 C 1.08833 0.57981 0.59860
 C284 C 1.07219 0.56591 0.57571
 H285 H 1.17131 0.57727 0.68447
 H286 H 1.13221 0.54912 0.64281
 H287 H 1.09135 0.64687 0.61273
 H288 H 1.13045 0.67502 0.65441
 C289 C 0.70000 0.16053 0.71113
 C290 C 0.67911 0.14591 0.69343
 C291 C 0.65465 0.12894 0.67130
 C292 C 0.65519 0.09341 0.66813
 C293 C 0.63294 0.07715 0.64475
 C294 C 0.61005 0.09634 0.62445
 C295 C 0.60908 0.13182 0.62809
 C296 C 0.63133 0.14808 0.65148
 C297 C 0.58919 0.07982 0.59834
 C298 C 0.57282 0.06574 0.57573
 H299 H 0.67323 0.07837 0.68320
 H300 H 0.63406 0.04972 0.64197
 H301 H 0.59165 0.14693 0.61236
 H302 H 0.63081 0.17559 0.65359
 C303 C 0.69944 0.65900 0.21164
 C304 C 0.67854 0.64456 0.19378
 C305 C 0.65405 0.62788 0.17144
 C306 C 0.65434 0.59236 0.16810
 C307 C 0.63206 0.57639 0.14453
 C308 C 0.60941 0.59586 0.12421
 C309 C 0.60870 0.63132 0.12803
 C310 C 0.63097 0.64730 0.15161
 C311 C 0.58854 0.57961 0.09791
 C312 C 0.57220 0.56571 0.07515
 H313 H 0.67219 0.57711 0.18317
 H314 H 0.63298 0.54896 0.14161
 H315 H 0.59146 0.64664 0.11229
 H316 H 0.63065 0.67479 0.15386
 C317 C 0.80040 -0.16036 0.21183
 C318 C 0.82130 -0.14576 0.19407
 C319 C 0.84579 -0.12884 0.17188
 C320 C 0.86911 -0.14804 0.15223
 C321 C 0.89138 -0.13183 0.12876
 C322 C 0.89044 -0.09636 0.12488
 C323 C 0.86755 -0.07711 0.14502
 C324 C 0.84528 -0.09332 0.16848
 C325 C 0.91131 -0.07989 0.09869
 C326 C 0.92768 -0.06584 0.07600
 H327 H 0.86960 -0.17554 0.15453
 H328 H 0.90880 -0.14698 0.11316
 H329 H 0.86646 -0.04968 0.14205
 H330 H 0.82725 -0.07825 0.18341
 C331 C 0.79963 0.34032 0.71137
 C332 C 0.82056 0.35486 0.69358
 C333 C 0.84509 0.37168 0.67135
 C334 C 0.86833 0.35239 0.65169
 C335 C 0.89065 0.36850 0.62821
 C336 C 0.88986 0.40397 0.62431
 C337 C 0.86705 0.42332 0.64444
 C338 C 0.84471 0.40721 0.66792
 C339 C 0.91080 0.42036 0.59811
 C340 C 0.92721 0.43437 0.57542
 H341 H 0.86872 0.32489 0.65402
 H342 H 0.90802 0.35327 0.61261
 H343 H 0.86606 0.45075 0.64146
 H344 H 0.82675 0.42236 0.68285
 C345 C 0.30083 -0.16038 0.71245
 C346 C 0.32180 -0.14579 0.69480
 C347 C 0.34630 -0.12887 0.67266
 C348 C 0.36945 -0.14807 0.65281
 C349 C 0.39160 -0.13185 0.62924
 C350 C 0.39068 -0.09637 0.62547
 C351 C 0.36800 -0.07711 0.64583
 C352 C 0.34585 -0.09333 0.66939
 C353 C 0.41130 -0.07990 0.59908
 C354 C 0.42742 -0.06585 0.57623
 H355 H 0.36988 -0.17558 0.65500
 H356 H 0.40887 -0.14699 0.61345
 H357 H 0.36693 -0.04968 0.64293
 H358 H 0.32792 -0.07827 0.68447
 C359 C 0.29997 0.33983 0.21164
 C360 C 0.32075 0.35440 0.19367
 C361 C 0.34513 0.37126 0.17127
 C362 C 0.36828 0.35201 0.15146
 C363 C 0.39050 0.36816 0.12790
 C364 C 0.38970 0.40365 0.12408
 C365 C 0.36696 0.42295 0.14435
 C366 C 0.34473 0.40679 0.16790
 C367 C 0.41058 0.42010 0.09785
 C368 C 0.42696 0.43415 0.07516
 H369 H 0.36869 0.32450 0.15373
 H370 H 0.40781 0.35297 0.11219
 H371 H 0.36597 0.45038 0.14144
 H372 H 0.32685 0.42191 0.18296
 C373 C 0.80105 0.16070 -0.21156
 C374 C 0.82194 0.14614 -0.19373
 C375 C 0.84639 0.12922 -0.17147
 C376 C 0.84615 0.09366 -0.16843
 C377 C 0.86838 0.07743 -0.14493
 C378 C 0.89095 0.09668 -0.12439
 C379 C 0.89163 0.13219 -0.12790
 C380 C 0.86940 0.14843 -0.15140
 C381 C 0.91176 0.08014 -0.09816
 C382 C 0.92806 0.06602 -0.07546
 H383 H 0.82836 0.07858 -0.18368
 H384 H 0.86748 0.04997 -0.14225
 H385 H 0.90881 0.14734 -0.11198
 H386 H 0.86969 0.17595 -0.15342
 C387 C 0.79911 0.65979 0.28805
 C388 C 0.82009 0.64523 0.30578
 C389 C 0.84469 0.62842 0.32795
 C390 C 0.84412 0.59292 0.33165
 C391 C 0.86653 0.57685 0.35509
 C392 C 0.88960 0.59621 0.37492
 C393 C 0.89059 0.63165 0.37074
 C394 C 0.86819 0.64772 0.34729
 C395 C 0.91062 0.57989 0.40111
 C396 C 0.92708 0.56594 0.42381
 H397 H 0.82596 0.57777 0.31696
 H398 H 0.86540 0.54945 0.35829
 H399 H 0.90816 0.64689 0.38611
 H400 H 0.86873 0.67520 0.34476
 C401 C 0.30002 0.16110 0.28872
 C402 C 0.32080 0.14646 0.30663
 C403 C 0.34516 0.12945 0.32895
 C404 C 0.34460 0.09392 0.33223
 C405 C 0.36682 0.07761 0.35570
 C406 C 0.38970 0.09677 0.37597
 C407 C 0.39066 0.13226 0.37224
 C408 C 0.36845 0.14856 0.34877
 C409 C 0.41059 0.08017 0.40210
 C410 C 0.42700 0.06604 0.42473
 H411 H 0.32660 0.07890 0.31717
 H412 H 0.36570 0.05017 0.35854
 H413 H 0.40809 0.14734 0.38794
 H414 H 0.36899 0.17607 0.34655
 C415 C 0.29944 0.65977 -0.21241
 C416 C 0.32049 0.64516 -0.19486
 C417 C 0.34513 0.62828 -0.17283
 C418 C 0.34444 0.59279 -0.16913
 C419 C 0.36677 0.57666 -0.14567
 C420 C 0.38987 0.59596 -0.12582
 C421 C 0.39101 0.63139 -0.13004
 C422 C 0.36869 0.64752 -0.15351
 C423 C 0.41068 0.57962 -0.09950
 C424 C 0.42695 0.56566 -0.07668
 H425 H 0.32621 0.57770 -0.18380
 H426 H 0.36552 0.54927 -0.14243
 H427 H 0.40861 0.64657 -0.11464
 H428 H 0.36931 0.67500 -0.15604
 C429 C 1.19918 -0.16047 -0.21133
 C430 C 1.17824 -0.14590 -0.19371
 C431 C 1.15378 -0.12897 -0.17162
 C432 C 1.13069 -0.14817 -0.15158
 C433 C 1.10858 -0.13194 -0.12807
 C434 C 1.10948 -0.09646 -0.12454
 C435 C 1.13210 -0.07721 -0.14509
 C436 C 1.15421 -0.09343 -0.16859
 C437 C 1.08891 -0.07997 -0.09821
 C438 C 1.07283 -0.06592 -0.07539
 H439 H 1.13028 -0.17568 -0.15360
 H440 H 1.09136 -0.14708 -0.11213
 H441 H 1.13315 -0.04977 -0.14237
 H442 H 1.17208 -0.07837 -0.18382
 C443 C 1.20088 0.34085 0.28879
 C444 C 1.18001 0.35537 0.30660
 C445 C 1.15552 0.37217 0.32882
 C446 C 1.15605 0.40767 0.33229
 C447 C 1.13368 0.42375 0.35567
 C448 C 1.11067 0.40441 0.37566
 C449 C 1.10974 0.36896 0.37173
 C450 C 1.13210 0.35288 0.34835
 C451 C 1.08962 0.42075 0.40172
 C452 C 1.07309 0.43471 0.42428
 H453 H 1.17415 0.42283 0.31746
 H454 H 1.13479 0.45116 0.35867
 H455 H 1.09221 0.35372 0.38722
 H456 H 1.13157 0.32539 0.34599
 C457 C 0.69938 -0.16053 0.28909
 C458 C 0.67852 -0.14598 0.30687
 C459 C 0.65410 -0.12909 0.32907
 C460 C 0.65443 -0.09355 0.33208
 C461 C 0.63224 -0.07735 0.35553
 C462 C 0.60961 -0.09662 0.37606
 C463 C 0.60885 -0.13212 0.37258
 C464 C 0.63104 -0.14832 0.34913
 C465 C 0.58883 -0.08013 0.40223
 C466 C 0.57253 -0.06606 0.42489
 H467 H 0.67227 -0.07845 0.31684
 H468 H 0.63320 -0.04990 0.35819
 H469 H 0.59162 -0.14728 0.38849
 H470 H 0.63069 -0.17584 0.34713
 C471 C 0.69996 0.34129 -0.21234
 C472 C 0.67903 0.35579 -0.19460
 C473 C 0.65449 0.37255 -0.17242
 C474 C 0.65506 0.40804 -0.16884
 C475 C 0.63273 0.42407 -0.14540
 C476 C 0.60972 0.40467 -0.12545
 C477 C 0.60873 0.36924 -0.12951
 C478 C 0.63106 0.35321 -0.15296
 C479 C 0.58878 0.42094 -0.09925
 C480 C 0.57238 0.43484 -0.07656
 H481 H 0.67318 0.42322 -0.18362
 H482 H 0.63387 0.45146 -0.14229
 H483 H 0.59121 0.35398 -0.11405
 H484 H 0.63051 0.32574 -0.15540
 C485 C 1.16097 0.20059 -0.21102
 C486 C 1.14641 0.17966 -0.19321
 C487 C 1.12954 0.15513 -0.17097
 C488 C 1.14875 0.13189 -0.15110
 C489 C 1.13258 0.10954 -0.12766
 C490 C 1.09713 0.11031 -0.12402
 C491 C 1.07787 0.13313 -0.14436
 C492 C 1.09404 0.15549 -0.16779
 C493 C 1.08067 0.08932 -0.09788
 C494 C 1.06662 0.07285 -0.07525
 H495 H 1.17623 0.13151 -0.15322
 H496 H 1.14774 0.09216 -0.11189
 H497 H 1.05046 0.13411 -0.14158
 H498 H 1.07895 0.17346 -0.18290
 C499 C 1.16012 0.70094 0.28820
 C500 C 1.14556 0.68006 0.30607
 C501 C 1.12869 0.65558 0.32837
 C502 C 1.14790 0.63228 0.34816
 C503 C 1.13175 0.60996 0.37165
 C504 C 1.09631 0.61085 0.37543
 C505 C 1.07705 0.63375 0.35518
 C506 C 1.09320 0.65606 0.33169
 C507 C 1.07988 0.58989 0.40160
 C508 C 1.06584 0.57343 0.42425
 H509 H 1.17537 0.63180 0.34592
 H510 H 1.14691 0.59253 0.38735
 H511 H 1.04965 0.63480 0.35806
 H512 H 1.07812 0.67408 0.31665
 C513 C 0.66005 0.19892 0.28780
 C514 C 0.64546 0.17795 0.30550
 C515 C 0.62854 0.15345 0.32770
 C516 C 0.64770 0.13022 0.34762
 C517 C 0.63149 0.10807 0.37122
 C518 C 0.59606 0.10905 0.37495
 C519 C 0.57684 0.13182 0.35451
 C520 C 0.59305 0.15398 0.33092
 C521 C 0.57960 0.08843 0.40136
 C522 C 0.56558 0.07230 0.42424
 H523 H 0.67518 0.12973 0.34546
 H524 H 0.64661 0.09073 0.38707
 H525 H 0.54944 0.13295 0.35738
 H526 H 0.57801 0.17196 0.31578
 C527 C 0.65999 0.70134 -0.21169
 C528 C 0.64539 0.68048 -0.19383
 C529 C 0.62846 0.65600 -0.17157
 C530 C 0.64760 0.63253 -0.15191
 C531 C 0.63138 0.61018 -0.12849
 C532 C 0.59595 0.61119 -0.12466
 C533 C 0.57676 0.63425 -0.14478
 C534 C 0.59298 0.65661 -0.16819
 C535 C 0.57947 0.59013 -0.09860
 C536 C 0.56541 0.57358 -0.07604
 H537 H 0.67506 0.63195 -0.15420
 H538 H 0.64649 0.59262 -0.11291
 H539 H 0.54937 0.63540 -0.14186
 H540 H 0.57794 0.67475 -0.18313
 C541 C 0.83971 -0.19963 -0.21099
 C542 C 0.85434 -0.17885 -0.19314
 C543 C 0.87133 -0.15451 -0.17088
 C544 C 0.85225 -0.13115 -0.15115
 C545 C 0.86852 -0.10897 -0.12772
 C546 C 0.90396 -0.11002 -0.12393
 C547 C 0.92310 -0.13296 -0.14411
 C548 C 0.90682 -0.15515 -0.16754
 C549 C 0.92051 -0.08917 -0.09781
 C550 C 0.93461 -0.07281 -0.07520
 H551 H 0.82478 -0.13055 -0.15340
 H552 H 0.85346 -0.09150 -0.11208
 H553 H 0.95050 -0.13415 -0.14122
 H554 H 0.92182 -0.17321 -0.18253
 C555 C 0.84042 0.30071 0.28804
 C556 C 0.85491 0.32170 0.30570
 C557 C 0.87172 0.34624 0.32783
 C558 C 0.85245 0.36934 0.34767
 C559 C 0.86856 0.39155 0.37118
 C560 C 0.90400 0.39075 0.37492
 C561 C 0.92332 0.36811 0.35457
 C562 C 0.90721 0.34590 0.33106
 C563 C 0.92037 0.41146 0.40123
 C564 C 0.93435 0.42766 0.42402
 H565 H 0.82497 0.36968 0.34550
 H566 H 0.85336 0.40879 0.38697
 H567 H 0.95073 0.36714 0.35744
 H568 H 0.92234 0.32802 0.31598
 C569 C 0.33975 -0.19981 0.28882
 C570 C 0.35432 -0.17897 0.30664
 C571 C 0.37119 -0.15455 0.32889
 C572 C 0.35200 -0.13126 0.34857
 C573 C 0.36815 -0.10903 0.37205
 C574 C 0.40358 -0.10999 0.37592
 C575 C 0.42283 -0.13286 0.35577
 C576 C 0.40668 -0.15509 0.33230
 C577 C 0.42001 -0.08913 0.40210
 C578 C 0.43404 -0.07278 0.42476
 H579 H 0.32453 -0.13074 0.34626
 H580 H 0.35300 -0.09161 0.38766
 H581 H 0.45023 -0.13397 0.35873
 H582 H 0.42175 -0.17311 0.31735
 C583 C 0.33945 0.29910 -0.21114
 C584 C 0.35400 0.32003 -0.19340
 C585 C 0.37085 0.34456 -0.17126
 C586 C 0.35162 0.36788 -0.15164
 C587 C 0.36776 0.39026 -0.12830
 C588 C 0.40321 0.38943 -0.12450
 C589 C 0.42248 0.36652 -0.14459
 C590 C 0.40634 0.34414 -0.16792
 C591 C 0.41963 0.41046 -0.09847
 C592 C 0.43367 0.42697 -0.07594
 H593 H 0.32415 0.36832 -0.15390
 H594 H 0.35259 0.40771 -0.11274
 H595 H 0.44988 0.36550 -0.14168
 H596 H 0.42144 0.32611 -0.18283
 C597 C 1.16012 -0.20094 0.21223
 C598 C 1.14557 -0.18003 0.19438
 C599 C 1.12874 -0.15551 0.17209
 C600 C 1.09328 -0.15612 0.16849
 C601 C 1.07719 -0.13377 0.14498
 C602 C 1.09649 -0.11071 0.12498
 C603 C 1.13189 -0.10969 0.12905
 C604 C 1.14799 -0.13203 0.15256
 C605 C 1.08014 -0.08972 0.09876
 C606 C 1.06618 -0.07325 0.07607
 H607 H 1.07817 -0.17427 0.18333
 H608 H 1.04981 -0.13494 0.14187
 H609 H 1.14708 -0.09212 0.11355
 H610 H 1.17544 -0.13145 0.15502
 C611 C 1.15993 0.30004 0.71193
 C612 C 1.14540 0.32088 0.69398
 C613 C 1.12858 0.34533 0.67159
 C614 C 1.09309 0.34489 0.66823
 C615 C 1.07698 0.36717 0.64466
 C616 C 1.09628 0.38997 0.62436
 C617 C 1.13172 0.39082 0.62817
 C618 C 1.14783 0.36855 0.65174
 C619 C 1.07988 0.41090 0.59812
 C620 C 1.06587 0.42732 0.57542
 H621 H 1.07797 0.32694 0.68331
 H622 H 1.04958 0.36614 0.64176
 H623 H 1.14691 0.40819 0.61244
 H624 H 1.17530 0.36899 0.65401
 C625 C 0.66000 -0.20067 0.71215
 C626 C 0.64541 -0.17980 0.69428
 C627 C 0.62849 -0.15533 0.67199
 C628 C 0.59302 -0.15596 0.66853
 C629 C 0.57683 -0.13365 0.64505
 C630 C 0.59604 -0.11060 0.62495
 C631 C 0.63146 -0.10956 0.62887
 C632 C 0.64765 -0.13187 0.65235
 C633 C 0.57959 -0.08963 0.59877
 C634 C 0.56556 -0.07316 0.57611
 H635 H 0.57797 -0.17410 0.68345
 H636 H 0.54944 -0.13483 0.64205
 H637 H 0.64659 -0.09201 0.61330
 H638 H 0.67512 -0.13127 0.65470
 C639 C 0.66015 0.30058 0.21112
 C640 C 0.64562 0.32156 0.19338
 C641 C 0.62874 0.34608 0.17117
 C642 C 0.59322 0.34587 0.16824
 C643 C 0.57702 0.36808 0.14469
 C644 C 0.59628 0.39059 0.12399
 C645 C 0.63176 0.39125 0.12741
 C646 C 0.64796 0.36904 0.15097
 C647 C 0.57979 0.41129 0.09766
 C648 C 0.56570 0.42750 0.07487
 H649 H 0.57814 0.32811 0.18360
 H650 H 0.54959 0.36721 0.14207
 H651 H 0.64690 0.40838 0.11135
 H652 H 0.67545 0.36928 0.15291
 C653 C 0.84065 0.19909 0.21180
 C654 C 0.85525 0.17814 0.19419
 C655 C 0.87217 0.15366 0.17212
 C656 C 0.85301 0.13034 0.15241
 C657 C 0.86921 0.10818 0.12893
 C658 C 0.90463 0.10926 0.12509
 C659 C 0.92385 0.13213 0.14530
 C660 C 0.90765 0.15428 0.16878
 C661 C 0.92107 0.08862 0.09879
 C662 C 0.93507 0.07246 0.07601
 H663 H 0.82554 0.12977 0.15466
 H664 H 0.85410 0.09077 0.11325
 H665 H 0.95124 0.13332 0.14235
 H666 H 0.92269 0.17234 0.18375
 C667 C 0.83942 0.69996 0.71091
 C668 C 0.85393 0.67918 0.69300
 C669 C 0.87078 0.65482 0.67067
 C670 C 0.85155 0.63200 0.65039
 C671 C 0.86774 0.60981 0.62692
 C672 C 0.90323 0.61031 0.62365
 C673 C 0.92250 0.63271 0.64439
 C674 C 0.90631 0.65491 0.66785
 C675 C 0.91975 0.58946 0.59755
 C676 C 0.93385 0.57309 0.57496
 H677 H 0.82405 0.63182 0.65225
 H678 H 0.85258 0.59276 0.61087
 H679 H 0.94995 0.63347 0.64190
 H680 H 0.92142 0.67255 0.68327
 C681 C 0.34051 0.19976 0.71216
 C682 C 0.35502 0.17896 0.69427
 C683 C 0.37183 0.15457 0.67195
 C684 C 0.35256 0.13130 0.65227
 C685 C 0.36864 0.10909 0.62875
 C686 C 0.40407 0.11004 0.62481
 C687 C 0.42338 0.13289 0.64495
 C688 C 0.40730 0.15511 0.66847
 C689 C 0.42041 0.08917 0.59860
 C690 C 0.43437 0.07281 0.57592
 H691 H 0.32510 0.13078 0.65463
 H692 H 0.35344 0.09168 0.61314
 H693 H 0.45077 0.13399 0.64195
 H694 H 0.42243 0.17310 0.68342
 C695 C 0.33952 0.69960 0.21097
 C696 C 0.35399 0.67879 0.19306
 C697 C 0.37077 0.65441 0.17070
 C698 C 0.35147 0.63160 0.15050
 C699 C 0.36757 0.60941 0.12696
 C700 C 0.40305 0.60992 0.12356
 C701 C 0.42240 0.63231 0.14423
 C702 C 0.40629 0.65450 0.16776
 C703 C 0.41948 0.58911 0.09737
 C704 C 0.43352 0.57279 0.07471
 H705 H 0.32397 0.63142 0.15245
 H706 H 0.35235 0.59237 0.11095
 H707 H 0.44983 0.63307 0.14164
 H708 H 0.42145 0.67213 0.18313
   
