data_POSCAR
  _audit_creation_date              2014-09-24
  _audit_creation_method            'ToBaCCo'
  _symmetry_space_group_name_H-M    'P1'
  _symmetry_Int_Tables_number       1
  _symmetry_cell_setting            triclinic
  loop_
  _symmetry_equiv_pos_as_xyz
 x,y,z
_cell_length_a 33.2904
_cell_length_b 33.3331
_cell_length_c 33.2065
_cell_angle_alpha 90.000000
_cell_angle_beta 90.000000
_cell_angle_gamma 89.899400
loop_
  _atom_site_label
  _atom_site_type_symbol
  _atom_site_fract_x
  _atom_site_fract_y
  _atom_site_fract_z
C1 C 0.15864 0.18679 0.21806
 C2 C 0.15863 0.21653 0.18819
 C3 C 0.18806 0.21652 0.15877
 C4 C 0.21790 0.18677 0.15882
 C5 C 0.21793 0.15742 0.18829
 C6 C 0.18807 0.15743 0.21814
 C7 C 0.13397 0.17968 0.25054
 N8 N 0.14772 0.14670 0.27036
 C9 C 0.18083 0.13290 0.25070
 C10 C 0.25047 0.13287 0.18109
 N11 N 0.27016 0.14665 0.14799
 C12 C 0.25038 0.17962 0.13419
 C13 C 0.18086 0.24893 0.13410
 N14 N 0.14781 0.26854 0.14788
 C15 C 0.13400 0.24895 0.18094
 H16 H 0.10802 0.19734 0.25915
 H17 H 0.19847 0.10701 0.25948
 H18 H 0.25921 0.10699 0.19878
 H19 H 0.25903 0.19727 0.10822
 H20 H 0.19845 0.25770 0.10815
 H21 H 0.10805 0.25774 0.19853
 C22 C -0.15862 0.81319 0.21806
 C23 C -0.15862 0.78345 0.18819
 C24 C -0.18804 0.78347 0.15877
 C25 C -0.21789 0.81322 0.15882
 C26 C -0.21792 0.84257 0.18829
 C27 C -0.18806 0.84255 0.21814
 C28 C -0.13396 0.82031 0.25054
 N29 N -0.14771 0.85328 0.27036
 C30 C -0.18081 0.86709 0.25070
 C31 C -0.25045 0.86712 0.18109
 N32 N -0.27014 0.85334 0.14799
 C33 C -0.25037 0.82036 0.13419
 C34 C -0.18084 0.75106 0.13410
 N35 N -0.14780 0.73144 0.14788
 C36 C -0.13399 0.75103 0.18094
 H37 H -0.10801 0.80264 0.25915
 H38 H -0.19846 0.89297 0.25948
 H39 H -0.25919 0.89300 0.19878
 H40 H -0.25901 0.80271 0.10822
 H41 H -0.19844 0.74228 0.10815
 H42 H -0.10804 0.74224 0.19853
 C43 C -0.15947 0.18725 -0.21792
 C44 C -0.15955 0.21707 -0.18814
 C45 C -0.18896 0.21719 -0.15870
 C46 C -0.21873 0.18743 -0.15866
 C47 C -0.21865 0.15800 -0.18806
 C48 C -0.18881 0.15791 -0.21791
 C49 C -0.13477 0.18003 -0.25036
 N50 N -0.14841 0.14700 -0.27008
 C51 C -0.18147 0.13327 -0.25039
 C52 C -0.25107 0.13344 -0.18082
 N53 N -0.27083 0.14725 -0.14774
 C54 C -0.25120 0.18029 -0.13400
 C55 C -0.18175 0.24969 -0.13414
 N56 N -0.14874 0.26918 -0.14803
 C57 C -0.13495 0.24944 -0.18103
 H58 H -0.10887 0.19766 -0.25902
 H59 H -0.19904 0.10736 -0.25909
 H60 H -0.25967 0.10751 -0.19845
 H61 H -0.25993 0.19796 -0.10806
 H62 H -0.19932 0.25859 -0.10818
 H63 H -0.10902 0.25810 -0.19867
 C64 C 0.15949 0.81273 -0.21792
 C65 C 0.15956 0.78292 -0.18814
 C66 C 0.18898 0.78280 -0.15870
 C67 C 0.21875 0.81255 -0.15866
 C68 C 0.21867 0.84198 -0.18806
 C69 C 0.18882 0.84207 -0.21791
 C70 C 0.13479 0.81995 -0.25036
 N71 N 0.14843 0.85298 -0.27008
 C72 C 0.18149 0.86671 -0.25039
 C73 C 0.25108 0.86655 -0.18082
 N74 N 0.27085 0.85273 -0.14774
 C75 C 0.25122 0.81970 -0.13400
 C76 C 0.18177 0.75030 -0.13414
 N77 N 0.14875 0.73080 -0.14803
 C78 C 0.13497 0.75054 -0.18103
 H79 H 0.10889 0.80233 -0.25902
 H80 H 0.19905 0.89262 -0.25909
 H81 H 0.25969 0.89248 -0.19845
 H82 H 0.25995 0.80202 -0.10806
 H83 H 0.19933 0.74140 -0.10818
 H84 H 0.10904 0.74188 -0.19867
 C85 C 0.18621 1.15837 0.78258
 C86 C 0.21599 1.15837 0.81241
 C87 C 0.21603 1.18779 0.84179
 C88 C 0.18628 1.21761 0.84172
 C89 C 0.15687 1.21762 0.81227
 C90 C 0.15684 1.18778 0.78248
 C91 C 0.17913 1.13375 0.75011
 N92 N 0.14615 1.14752 0.73028
 C93 C 0.13231 1.18057 0.74991
 C94 C 0.13237 1.25017 0.81935
 N95 N 0.14623 1.26990 0.85238
 C96 C 0.17921 1.25013 0.86625
 C97 C 0.24855 1.18063 0.86637
 N98 N 0.26814 1.14763 0.85254
 C99 C 0.24845 1.13380 0.81956
 H100 H 0.19683 1.10784 0.74150
 H101 H 0.10643 1.19823 0.74108
 H102 H 0.10649 1.25891 0.80162
 H103 H 0.19692 1.25884 0.89217
 H104 H 0.25743 1.19825 0.89227
 H105 H 0.25723 1.10789 0.80195
 C106 C 0.81380 0.84162 0.78258
 C107 C 0.78403 0.84161 0.81241
 C108 C 0.78398 0.81219 0.84179
 C109 C 0.81374 0.78237 0.84172
 C110 C 0.84314 0.78237 0.81227
 C111 C 0.84317 0.81221 0.78248
 C112 C 0.82089 0.86623 0.75011
 N113 N 0.85386 0.85247 0.73028
 C114 C 0.86771 0.81941 0.74991
 C115 C 0.86765 0.74982 0.81935
 N116 N 0.85378 0.73009 0.85238
 C117 C 0.82081 0.74985 0.86625
 C118 C 0.75147 0.81935 0.86637
 N119 N 0.73187 0.85236 0.85254
 C120 C 0.75157 0.86619 0.81956
 H121 H 0.80319 0.89214 0.74150
 H122 H 0.89359 0.80175 0.74108
 H123 H 0.89353 0.74108 0.80162
 H124 H 0.80309 0.74115 0.89217
 H125 H 0.74258 0.80174 0.89227
 H126 H 0.74279 0.89210 0.80195
 C127 C 0.18668 0.84230 1.21764
 C128 C 0.21644 0.84229 1.18779
 C129 C 0.21650 0.81294 1.15835
 C130 C 0.18679 0.78320 1.15836
 C131 C 0.15740 0.78319 1.18782
 C132 C 0.15734 0.81296 1.21767
 C133 C 0.17958 0.86684 1.25018
 N134 N 0.14663 0.85308 1.27000
 C135 C 0.13282 0.82011 1.25027
 C136 C 0.13296 0.75070 1.18065
 N137 N 0.14689 0.73110 1.14761
 C138 C 0.17979 0.75076 1.13376
 C139 C 0.24899 0.82003 1.13377
 N140 N 0.26857 0.85294 1.14764
 C141 C 0.24890 0.86678 1.18066
 H142 H 0.19724 0.89268 1.25887
 H143 H 0.10698 0.80247 1.25906
 H144 H 0.10710 0.74185 1.19828
 H145 H 0.19744 0.74197 1.10782
 H146 H 0.25786 0.80242 1.10783
 H147 H 0.25769 0.89263 1.19832
 C148 C 0.81334 1.15768 1.21764
 C149 C 0.78357 1.15769 1.18779
 C150 C 0.78351 1.18704 1.15835
 C151 C 0.81322 1.21678 1.15836
 C152 C 0.84262 1.21679 1.18782
 C153 C 0.84267 1.18703 1.21767
 C154 C 0.82044 1.13315 1.25018
 N155 N 0.85339 1.14691 1.27000
 C156 C 0.86719 1.17987 1.25027
 C157 C 0.86705 1.24928 1.18065
 N158 N 0.85313 1.26888 1.14761
 C159 C 0.82023 1.24923 1.13376
 C160 C 0.75103 1.17996 1.13377
 N161 N 0.73145 1.14705 1.14764
 C162 C 0.75112 1.13320 1.18066
 H163 H 0.80277 1.10730 1.25887
 H164 H 0.89304 1.19751 1.25906
 H165 H 0.89292 1.25814 1.19828
 H166 H 0.80258 1.25802 1.10782
 H167 H 0.74216 1.19756 1.10783
 H168 H 0.74233 1.10736 1.19832
 N169 N 0.45784 0.92890 0.95667
 N170 N 0.42727 0.90420 0.95169
 N171 N 0.54235 0.95678 0.92872
 N172 N 0.57306 0.95190 0.90405
 N173 N 0.54238 0.92894 0.95670
 N174 N 0.57310 0.90433 0.95185
 N175 N 0.45777 0.95676 0.92870
 N176 N 0.42716 0.95180 0.90393
 C177 C 0.40847 0.91888 0.91867
 C178 C 0.59187 0.91904 0.91888
 N179 N 0.54218 1.07109 0.95667
 N180 N 0.57275 1.09578 0.95169
 N181 N 0.45767 1.04320 0.92872
 N182 N 0.42695 1.04809 0.90405
 N183 N 0.45763 1.07104 0.95670
 N184 N 0.42692 1.09565 0.95185
 N185 N 0.54224 1.04322 0.92870
 N186 N 0.57286 1.04819 0.90393
 Mn187 Mn 0.50001 0.99999 0.92822
 C188 C 0.59155 1.08110 0.91867
 C189 C 0.40814 1.08095 0.91888
 N190 N 0.54250 0.92896 1.04343
 N191 N 0.57321 0.90433 1.04843
 N192 N 0.45789 0.95678 1.07136
 N193 N 0.42719 0.95194 1.09603
 N194 N 0.45794 0.92893 1.04340
 N195 N 0.42729 0.90434 1.04825
 N196 N 0.54241 0.95684 1.07138
 N197 N 0.57304 0.95195 1.09616
 Mn198 Mn 0.50017 0.92844 1.00005
 C199 C 0.59191 0.91907 1.08145
 C200 C 0.40848 0.91910 1.08122
 N201 N 0.45752 1.07102 1.04343
 N202 N 0.42681 1.09565 1.04843
 N203 N 0.54213 1.04320 1.07136
 N204 N 0.57282 1.04804 1.09603
 N205 N 0.54207 1.07106 1.04340
 N206 N 0.57273 1.09564 1.04825
 N207 N 0.45760 1.04315 1.07138
 N208 N 0.42697 1.04803 1.09616
 Mn209 Mn 0.49985 1.07154 1.00005
 Mn210 Mn 0.50001 0.99999 1.07185
 Cl211 Cl 0.50001 0.99999 1.00003
 C212 C 0.40811 1.08091 1.08145
 C213 C 0.59153 1.08089 1.08122
 N214 N -0.04339 0.45790 -0.07184
 N215 N -0.04841 0.42725 -0.09652
 N216 N -0.07105 0.54248 -0.04389
 N217 N -0.09562 0.57322 -0.04879
 N218 N -0.04315 0.54237 -0.07185
 N219 N -0.04796 0.57303 -0.09655
 N220 N -0.07126 0.45804 -0.04385
 N221 N -0.09601 0.42753 -0.04870
 C222 C -0.08138 0.40867 -0.08168
 C223 C -0.08082 0.59191 -0.08177
 N224 N -0.04316 0.54240 0.07081
 N225 N -0.04805 0.57301 0.09558
 N226 N -0.07121 0.45806 0.04288
 N227 N -0.09584 0.42744 0.04778
 N228 N -0.04330 0.45799 0.07082
 N229 N -0.04813 0.42736 0.09550
 N230 N -0.07105 0.54251 0.04285
 N231 N -0.09569 0.57319 0.04780
 Mn232 Mn -0.07163 0.50028 -0.00050
 C233 C -0.08095 0.59187 0.08082
 C234 C -0.08103 0.40867 0.08075
 N235 N 0.04340 0.54209 -0.07184
 N236 N 0.04843 0.57273 -0.09652
 N237 N 0.07107 0.45751 -0.04389
 N238 N 0.09564 0.42676 -0.04879
 N239 N 0.04317 0.45762 -0.07185
 N240 N 0.04797 0.42695 -0.09655
 N241 N 0.07127 0.54194 -0.04385
 N242 N 0.09603 0.57245 -0.04870
 Mn243 Mn 0.00001 0.49999 -0.07234
 C244 C 0.08139 0.59132 -0.08168
 C245 C 0.08083 0.40807 -0.08177
 N246 N 0.04318 0.45758 0.07081
 N247 N 0.04806 0.42697 0.09558
 N248 N 0.07123 0.54192 0.04288
 N249 N 0.09585 0.57254 0.04778
 N250 N 0.04331 0.54199 0.07082
 N251 N 0.04814 0.57263 0.09550
 N252 N 0.07106 0.45747 0.04285
 N253 N 0.09571 0.42680 0.04780
 Mn254 Mn 0.00001 0.49999 0.07130
 Mn255 Mn 0.07165 0.49971 -0.00050
 Cl256 Cl 0.00001 0.49999 -0.00052
 C257 C 0.08096 0.40812 0.08082
 C258 C 0.08105 0.59132 0.08075
 N259 N 1.07108 0.04321 0.45788
 N260 N 1.09582 0.04812 0.42722
 N261 N 1.04306 0.07110 0.54260
 N262 N 1.04785 0.09579 0.57329
 N263 N 1.07103 0.04328 0.54265
 N264 N 1.09566 0.04827 0.57340
 N265 N 1.04314 0.07107 0.45783
 N266 N 1.04810 0.09572 0.42711
 C267 C 1.08110 0.08100 0.40837
 C268 C 1.08079 0.08116 0.59214
 N269 N 0.92875 0.04312 0.54268
 N270 N 0.90397 0.04804 0.57333
 N271 N 0.95661 0.07101 0.45793
 N272 N 0.95172 0.09564 0.42720
 N273 N 0.92876 0.04317 0.45792
 N274 N 0.90413 0.04807 0.42715
 N275 N 0.95655 0.07102 0.54269
 N276 N 0.95145 0.09571 0.57337
 Mn277 Mn 0.99984 0.07154 0.50026
 C278 C 0.91853 0.08097 0.59213
 C279 C 0.91885 0.08094 0.40836
 N280 N 1.07127 -0.04313 0.54268
 N281 N 1.09604 -0.04805 0.57333
 N282 N 1.04340 -0.07103 0.45793
 N283 N 1.04830 -0.09566 0.42720
 N284 N 1.07126 -0.04318 0.45792
 N285 N 1.09589 -0.04809 0.42715
 N286 N 1.04347 -0.07104 0.54269
 N287 N 1.04856 -0.09573 0.57337
 Mn288 Mn 1.07165 0.00005 0.50029
 C289 C 1.08149 -0.08098 0.59213
 C290 C 1.08116 -0.08096 0.40836
 N291 N 0.92894 -0.04323 0.45788
 N292 N 0.90419 -0.04814 0.42722
 N293 N 0.95696 -0.07112 0.54260
 N294 N 0.95216 -0.09581 0.57329
 N295 N 0.92898 -0.04330 0.54265
 N296 N 0.90436 -0.04828 0.57340
 N297 N 0.95688 -0.07109 0.45783
 N298 N 0.95192 -0.09574 0.42711
 Mn299 Mn 0.92837 -0.00006 0.50029
 Mn300 Mn 1.00018 -0.07156 0.50026
 Cl301 Cl 1.00001 -0.00001 0.50028
 C302 C 0.91891 -0.08102 0.40837
 C303 C 0.91923 -0.08117 0.59214
 N304 N 1.14778 0.09743 0.32160
 C305 C 1.13130 0.13050 0.30417
 N306 N 1.09811 0.14711 0.32133
 N307 N 1.08211 0.13134 0.35451
 C308 C 1.09867 0.09837 0.37182
 N309 N 1.13176 0.08167 0.35478
 N310 N 0.90190 -0.14713 0.32133
 C311 C 0.86871 -0.13052 0.30417
 N312 N 0.85224 -0.09745 0.32160
 N313 N 0.86826 -0.08169 0.35478
 C314 C 0.90135 -0.09838 0.37182
 N315 N 0.91791 -0.13136 0.35451
 N316 N 0.90121 0.14728 0.67898
 C317 C 0.86808 0.13071 0.69616
 N318 N 0.85174 0.09758 0.67882
 N319 N 0.86783 0.08174 0.64569
 C320 C 0.90087 0.09840 0.62862
 N321 N 0.91729 0.13142 0.64585
 N322 N 1.14828 -0.09760 0.67882
 C323 C 1.13193 -0.13072 0.69616
 N324 N 1.09880 -0.14729 0.67898
 N325 N 1.08272 -0.13144 0.64585
 C326 C 1.09915 -0.09841 0.62862
 N327 N 1.13218 -0.08175 0.64569
 N328 N 0.32135 1.09736 1.14812
 C329 C 0.30396 1.13043 1.13160
 N330 N 0.32114 1.14703 1.09840
 N331 N 0.35430 1.13124 1.08242
 C332 C 0.37158 1.09827 1.09902
 N333 N 0.35452 1.08159 1.13213
 N334 N 0.32174 0.90215 0.85210
 C335 C 0.30457 0.86903 0.86863
 N336 N 0.32189 0.85248 0.90181
 N337 N 0.35497 0.86837 0.91775
 C338 C 0.37203 0.90140 0.90114
 N339 N 0.35482 0.91803 0.86805
 N340 N 0.67866 0.90262 1.14812
 C341 C 0.69605 0.86955 1.13160
 N342 N 0.67888 0.85296 1.09840
 N343 N 0.64571 0.86874 1.08242
 C344 C 0.62843 0.90171 1.09902
 N345 N 0.64549 0.91839 1.13213
 N346 N 0.67813 1.14750 0.90181
 C347 C 0.69544 1.13096 0.86863
 N348 N 0.67828 1.09783 0.85210
 N349 N 0.64520 1.08196 0.86805
 C350 C 0.62799 1.09858 0.90114
 N351 N 0.64504 1.13161 0.91775
 N352 N 0.09756 0.32139 0.14729
 C353 C 0.13064 0.30414 0.13066
 N354 N 0.14724 0.32130 0.09751
 N355 N 0.13139 0.35444 0.08162
 C356 C 0.09837 0.37164 0.09830
 N357 N 0.08171 0.35453 0.13139
 N358 N -0.14796 0.32218 -0.09788
 C359 C -0.13147 0.30478 -0.13099
 N360 N -0.09838 0.32176 -0.14776
 N361 N -0.08241 0.35487 -0.13205
 C362 C -0.09894 0.37223 -0.09900
 N363 N -0.13198 0.35530 -0.08218
 N364 N 0.09840 0.67823 -0.14776
 C365 C 0.13149 0.69521 -0.13099
 N366 N 0.14797 0.67780 -0.09788
 N367 N 0.13199 0.64469 -0.08218
 C368 C 0.09896 0.62776 -0.09900
 N369 N 0.08243 0.64511 -0.13205
 N370 N -0.14722 0.67868 0.09751
 C371 C -0.13062 0.69584 0.13066
 N372 N -0.09754 0.67860 0.14729
 N373 N -0.08170 0.64546 0.13139
 C374 C -0.09835 0.62835 0.09830
 N375 N -0.13137 0.64555 0.08162
 N376 N 1.14672 0.09805 0.67929
 C377 C 1.13002 0.13116 0.69643
 N378 N 1.09694 0.14763 0.67896
 N379 N 1.08126 0.13167 0.64573
 C380 C 1.09805 0.09866 0.62870
 N381 N 1.13103 0.08211 0.64606
 N382 N 0.85330 -0.09807 0.67929
 C383 C 0.87000 -0.13117 0.69643
 N384 N 0.90308 -0.14764 0.67896
 N385 N 0.91876 -0.13168 0.64573
 C386 C 0.90197 -0.09867 0.62870
 N387 N 0.86899 -0.08212 0.64606
 N388 N 1.14711 -0.09762 0.32114
 C389 C 1.13048 -0.13066 0.30390
 N390 N 1.09746 -0.14715 0.32133
 N391 N 1.08175 -0.13129 0.35462
 C392 C 1.09846 -0.09835 0.37175
 N393 N 1.13139 -0.08177 0.35443
 N394 N 0.85291 0.09761 0.32114
 C395 C 0.86954 0.13064 0.30390
 N396 N 0.90256 0.14714 0.32133
 N397 N 0.91827 0.13127 0.35462
 C398 C 0.90156 0.09834 0.37175
 N399 N 0.86863 0.08176 0.35443
 N400 N 0.14676 0.32100 -0.09828
 C401 C 0.13009 0.30376 -0.13140
 N402 N 0.09704 0.32114 -0.14802
 N403 N 0.08134 0.35438 -0.13220
 C404 C 0.09809 0.37151 -0.09917
 N405 N 0.13105 0.35424 -0.08247
 N406 N -0.09698 0.32184 0.14705
 C407 C -0.12997 0.30455 0.13045
 N408 N -0.14677 0.32172 0.09737
 N409 N -0.13117 0.35493 0.08151
 C410 C -0.09823 0.37217 0.09817
 N411 N -0.08139 0.35505 0.13119
 N412 N -0.09703 0.67885 -0.14802
 C413 C -0.13008 0.69623 -0.13140
 N414 N -0.14674 0.67898 -0.09828
 N415 N -0.13103 0.64575 -0.08247
 C416 C -0.09808 0.62848 -0.09917
 N417 N -0.08133 0.64561 -0.13220
 N418 N 0.14678 0.67826 0.09737
 C419 C 0.12999 0.69544 0.13045
 N420 N 0.09700 0.67815 0.14705
 N421 N 0.08141 0.64494 0.13119
 C422 C 0.09825 0.62781 0.09817
 N423 N 0.13118 0.64505 0.08151
 N424 N 0.32116 1.14708 0.90266
 C425 C 0.30385 1.13050 0.86959
 N426 N 0.32105 1.09749 0.85285
 N427 N 0.35431 1.08168 0.86857
 C428 C 0.37158 1.09831 0.90158
 N429 N 0.35443 1.13126 0.91837
 N430 N 0.32146 0.90288 1.14729
 C431 C 0.30425 0.86993 1.13058
 N432 N 0.32155 0.85326 1.09751
 N433 N 0.35480 0.86895 1.08176
 C434 C 0.37195 0.90185 1.09853
 N435 N 0.35471 0.91857 1.13154
 N436 N 0.67856 1.09710 1.14729
 C437 C 0.69576 1.13006 1.13058
 N438 N 0.67847 1.14672 1.09751
 N439 N 0.64522 1.13103 1.08176
 C440 C 0.62806 1.09814 1.09853
 N441 N 0.64531 1.08142 1.13154
 N442 N 0.67885 0.85290 0.90266
 C443 C 0.69617 0.86948 0.86959
 N444 N 0.67897 0.90249 0.85285
 N445 N 0.64571 0.91831 0.86857
 C446 C 0.62844 0.90167 0.90158
 N447 N 0.64559 0.86872 0.91837
   
