data_POSCAR
  _audit_creation_date              2014-09-24
  _audit_creation_method            'ToBaCCo'
  _symmetry_space_group_name_H-M    'P1'
  _symmetry_Int_Tables_number       1
  _symmetry_cell_setting            triclinic
  loop_
  _symmetry_equiv_pos_as_xyz
 x,y,z
_cell_length_a 18.4287
_cell_length_b 18.4356
_cell_length_c 20.9162
_cell_angle_alpha 88.461700
_cell_angle_beta 88.266600
_cell_angle_gamma 89.975300
loop_
  _atom_site_label
  _atom_site_type_symbol
  _atom_site_fract_x
  _atom_site_fract_y
  _atom_site_fract_z
O1 O -0.07618 0.57130 0.94473
 O2 O -0.07008 0.43265 1.06703
 O3 O -0.04246 0.57369 1.06542
 O4 O -0.04904 0.42943 0.94319
 O5 O 0.07048 0.43622 0.93471
 O6 O 0.07701 0.56760 1.05688
 O7 O 0.04932 0.42554 1.05836
 O8 O 0.04332 0.57719 0.93599
 Cu9 Cu -0.06963 0.50192 1.00566
 Cu10 Cu 0.07025 0.50184 0.99599
 C11 C -0.01953 0.60026 0.92044
 C12 C -0.01153 0.40233 1.08229
 C13 C 0.02047 0.59556 1.08095
 C14 C 0.01175 0.40746 0.91934
 O15 O 0.43314 -0.07717 0.44349
 O16 O 0.56393 -0.07292 0.56597
 O17 O 0.42272 -0.04534 0.56468
 O18 O 0.57507 -0.04994 0.44231
 O19 O 0.56869 0.06960 0.43585
 O20 O 0.42927 0.07415 0.55802
 O21 O 0.57115 0.04652 0.55931
 O22 O 0.42760 0.04236 0.43667
 Cu23 Cu 0.49859 -0.07154 0.50455
 Cu24 Cu 0.49903 0.06835 0.49709
 C25 C 0.40562 -0.02018 0.42013
 C26 C 0.59293 -0.01462 0.58234
 C27 C 0.39971 0.01729 0.58112
 C28 C 0.59847 0.01120 0.41942
 C29 C -0.08688 0.00653 0.27608
 C30 C -0.01848 0.02180 0.24875
 C31 C -0.00339 0.09024 0.22162
 C32 C -0.05575 0.14539 0.22290
 C33 C -0.12572 0.12861 0.24908
 C34 C -0.14225 0.05863 0.27511
 C35 C 0.03776 -0.03432 0.24869
 C36 C 0.02417 -0.10129 0.22222
 C37 C 0.07612 -0.15681 0.22370
 C38 C 0.14458 -0.14188 0.24957
 C39 C 0.15966 -0.07312 0.27492
 C40 C 0.10448 -0.02076 0.27553
 H41 H -0.09571 -0.04590 0.29952
 H42 H 0.04905 0.09919 0.19810
 H43 H -0.02707 -0.10941 0.19937
 H44 H 0.11246 0.03061 0.29825
 H45 H -0.16723 0.17003 0.24924
 H46 H 0.18582 -0.18339 0.25000
 C47 C -0.02402 -0.08931 0.77655
 C48 C -0.03805 -0.02108 0.74947
 C49 C -0.10491 -0.00650 0.72251
 C50 C -0.15966 -0.05937 0.72352
 C51 C -0.14390 -0.12935 0.74926
 C52 C -0.07546 -0.14513 0.77538
 C53 C 0.01810 0.03512 0.74897
 C54 C 0.08665 0.02097 0.72226
 C55 C 0.14256 0.07226 0.72405
 C56 C 0.12653 0.14068 0.75029
 C57 C 0.05627 0.15653 0.77567
 C58 C 0.00329 0.10193 0.77609
 H59 H 0.02722 -0.09824 0.79957
 H60 H -0.11284 0.04587 0.69918
 H61 H 0.09576 -0.03026 0.69915
 H62 H -0.04930 0.10983 0.79924
 H63 H -0.18500 -0.17103 0.74908
 H64 H 0.16826 0.18171 0.75088
 C65 C 0.03131 -0.34064 0.12289
 C66 C 0.05886 -0.27495 0.08260
 C67 C 0.07377 -0.21594 0.11712
 C68 C 0.05994 -0.22672 0.18942
 C69 C -0.01978 -0.25354 0.19638
 C70 C -0.03479 -0.31265 0.16101
 C71 C 0.08948 -0.35370 0.17332
 C72 C 0.10448 -0.29433 0.20811
 H73 H 0.06565 -0.27473 0.03082
 H74 H 0.09357 -0.16560 0.09478
 H75 H -0.06020 -0.23014 0.22852
 H76 H -0.08767 -0.33860 0.16244
 H77 H 0.11424 -0.40617 0.18291
 H78 H 0.14096 -0.29739 0.24779
 C79 C -0.01765 0.33792 0.12133
 C80 C -0.06710 0.34677 0.18140
 C81 C -0.07873 0.28407 0.21614
 C82 C -0.04004 0.21761 0.18795
 C83 C -0.06465 0.21492 0.11876
 C84 C -0.05294 0.27713 0.08412
 C85 C 0.05233 0.30430 0.14684
 C86 C 0.04069 0.24175 0.18224
 H87 H -0.08868 0.39851 0.19675
 H88 H -0.10947 0.28301 0.26123
 H89 H -0.08880 0.16740 0.09836
 H90 H -0.06697 0.28232 0.03411
 H91 H 0.10553 0.32927 0.14103
 H92 H 0.08444 0.21529 0.20739
 C93 C 0.33302 0.02760 0.62304
 C94 C 0.30159 -0.03910 0.65937
 C95 C 0.24009 -0.02433 0.69480
 C96 C 0.21463 0.05581 0.68967
 C97 C 0.28140 0.09887 0.70983
 C98 C 0.34309 0.08411 0.67499
 C99 C 0.27047 0.05703 0.58307
 C100 C 0.20915 0.07173 0.61765
 H101 H 0.32693 -0.09225 0.65967
 H102 H 0.21406 -0.06526 0.72591
 H103 H 0.28196 0.13419 0.75044
 H104 H 0.39514 0.10791 0.68546
 H105 H 0.27400 0.06518 0.53144
 H106 H 0.16059 0.09269 0.59554
 C107 C -0.34540 -0.02116 0.62163
 C108 C -0.31461 0.04839 0.64903
 C109 C -0.25451 0.03654 0.68458
 C110 C -0.22966 -0.04392 0.68852
 C111 C -0.29763 -0.08412 0.71537
 C112 C -0.35796 -0.07228 0.68048
 C113 C -0.28143 -0.05470 0.58396
 C114 C -0.22157 -0.06659 0.61873
 H115 H -0.33986 0.10140 0.64430
 H116 H -0.23041 0.07984 0.71090
 H117 H -0.29952 -0.11592 0.75980
 H118 H -0.41054 -0.09480 0.69503
 H119 H -0.28280 -0.06746 0.53359
 H120 H -0.17224 -0.08964 0.59809
 C121 C -0.03025 -0.33379 0.87796
 C122 C 0.03604 -0.30341 0.84020
 C123 C 0.02099 -0.24257 0.80425
 C124 C -0.05899 -0.21665 0.81034
 C125 C -0.10279 -0.28360 0.79174
 C126 C -0.08774 -0.34465 0.82710
 C127 C -0.05869 -0.27034 0.91756
 C128 C -0.07367 -0.20965 0.88247
 H129 H 0.08912 -0.32894 0.83942
 H130 H 0.06156 -0.21725 0.77227
 H131 H -0.13880 -0.28485 0.75175
 H132 H -0.11200 -0.39680 0.81768
 H133 H -0.06600 -0.27281 0.96930
 H134 H -0.09405 -0.16057 0.90427
 C135 C 0.01823 0.34238 0.87785
 C136 C 0.06868 0.35492 0.81853
 C137 C 0.08036 0.29452 0.78350
 C138 C 0.04072 0.22652 0.81085
 C139 C 0.06426 0.21891 0.88035
 C140 C 0.05253 0.27892 0.91515
 C141 C -0.05150 0.31123 0.85144
 C142 C -0.03987 0.25104 0.81578
 H143 H 0.09097 0.40751 0.80395
 H144 H 0.11190 0.29626 0.73884
 H145 H 0.08782 0.16983 0.90076
 H146 H 0.06590 0.28082 0.96531
 H147 H -0.10449 0.33640 0.85693
 H148 H -0.08345 0.22678 0.78996
 C149 C -0.33399 0.01847 0.37771
 C150 C -0.30073 -0.05072 0.35033
 C151 C -0.23849 -0.03829 0.31451
 C152 C -0.21430 0.04244 0.31039
 C153 C -0.28103 0.08190 0.28380
 C154 C -0.34342 0.06944 0.31900
 C155 C -0.27294 0.05273 0.41511
 C156 C -0.21095 0.06524 0.38015
 H157 H -0.32574 -0.10392 0.35546
 H158 H -0.21213 -0.08140 0.28823
 H159 H -0.28047 0.11375 0.23940
 H160 H -0.39537 0.09144 0.30487
 H161 H -0.27789 0.06551 0.46546
 H162 H -0.16324 0.08889 0.40060
 C163 C 0.34224 -0.03012 0.37766
 C164 C 0.35585 -0.08733 0.32628
 C165 C 0.29687 -0.10158 0.29088
 C166 C 0.22907 -0.05736 0.30995
 C167 C 0.21744 -0.07245 0.38199
 C168 C 0.27607 -0.05826 0.41713
 C169 C 0.31473 0.03664 0.34049
 C170 C 0.25602 0.02238 0.30449
 H171 H 0.40841 -0.11200 0.31660
 H172 H 0.30026 -0.13738 0.25060
 H173 H 0.16680 -0.09252 0.40370
 H174 H 0.27525 -0.06595 0.46882
 H175 H 0.34083 0.08942 0.34001
 H176 H 0.23321 0.06332 0.27272
   
