data_POSCAR
  _audit_creation_date              2014-09-24
  _audit_creation_method            'ToBaCCo'
  _symmetry_space_group_name_H-M    'P1'
  _symmetry_Int_Tables_number       1
  _symmetry_cell_setting            triclinic
  loop_
  _symmetry_equiv_pos_as_xyz
 x,y,z
_cell_length_a 22.9901
_cell_length_b 23.0611
_cell_length_c 38.7556
_cell_angle_alpha 94.018600
_cell_angle_beta 92.697900
_cell_angle_gamma 89.723300
loop_
  _atom_site_label
  _atom_site_type_symbol
  _atom_site_fract_x
  _atom_site_fract_y
  _atom_site_fract_z
O1 O 0.00485 0.57347 1.03348
 O2 O 0.00945 0.45366 0.96637
 O3 O -0.00571 0.56569 0.96617
 O4 O 0.01335 0.46092 1.03379
 O5 O -0.08201 0.45126 1.03402
 O6 O -0.10087 0.55665 0.96781
 O7 O -0.08595 0.44436 0.96656
 O8 O -0.09036 0.56401 1.03513
 Cu9 Cu 0.01498 0.51434 0.99984
 Cu10 Cu -0.09930 0.50311 1.00095
 C11 C -0.04322 0.58933 1.04592
 C12 C -0.03715 0.42846 0.95485
 C13 C -0.05685 0.57941 0.95552
 C14 C -0.03137 0.43809 1.04541
 O15 O 0.58400 -0.07693 0.53372
 O16 O 0.46491 -0.09622 0.46771
 O17 O 0.57701 -0.08120 0.46633
 O18 O 0.47116 -0.08534 0.53506
 O19 O 0.46039 0.00968 0.53458
 O20 O 0.56684 0.01402 0.46733
 O21 O 0.45454 -0.00116 0.46725
 O22 O 0.57323 0.01815 0.53480
 Cu23 Cu 0.52536 -0.09440 0.50067
 Cu24 Cu 0.51276 0.01966 0.50099
 C25 C 0.59910 -0.02637 0.54582
 C26 C 0.43925 -0.05231 0.45610
 C27 C 0.59010 -0.03256 0.45517
 C28 C 0.44747 -0.03827 0.54644
 C29 C -0.07968 0.05688 0.27546
 C30 C -0.03979 0.05806 0.24936
 C31 C -0.04732 0.09755 0.22372
 C32 C -0.09419 0.13685 0.22420
 C33 C -0.13460 0.13470 0.25028
 C34 C -0.12794 0.09446 0.27589
 C35 C 0.00991 0.01772 0.24880
 C36 C 0.01163 -0.02795 0.22315
 C37 C 0.05847 -0.06728 0.22259
 C38 C 0.10458 -0.05907 0.24765
 C39 C 0.10370 -0.01270 0.27326
 C40 C 0.05556 0.02503 0.27387
 H41 H -0.07301 0.02644 0.29536
 H42 H -0.01647 0.09752 0.20342
 H43 H -0.02370 -0.03269 0.20364
 H44 H 0.05346 0.06028 0.29379
 H45 H -0.17128 0.16433 0.25063
 H46 H 0.14121 -0.08876 0.24720
 C47 C 0.02345 -0.07414 0.77501
 C48 C 0.01703 -0.03426 0.74952
 C49 C -0.02733 -0.04175 0.72365
 C50 C -0.06633 -0.08852 0.72333
 C51 C -0.05891 -0.12891 0.74881
 C52 C -0.01373 -0.12237 0.77460
 C53 C 0.05720 0.01518 0.74973
 C54 C 0.09767 0.01701 0.72399
 C55 C 0.13700 0.06345 0.72422
 C56 C 0.13397 0.10912 0.75015
 C57 C 0.09286 0.10813 0.77590
 C58 C 0.05515 0.06035 0.77571
 H59 H 0.05773 -0.06758 0.79506
 H60 H -0.03127 -0.01097 0.70378
 H61 H 0.09845 -0.01799 0.70383
 H62 H 0.02404 0.05810 0.79573
 H63 H -0.08822 -0.16555 0.74853
 H64 H 0.16367 0.14544 0.75029
 C65 C 0.00784 -0.33208 0.08341
 C66 C 0.00791 -0.28614 0.10912
 C67 C -0.04443 -0.27010 0.12501
 C68 C -0.09595 -0.30026 0.11481
 C69 C -0.09567 -0.34588 0.08907
 C70 C -0.04385 -0.36230 0.07315
 C71 C -0.04443 -0.22416 0.15075
 C72 C 0.00720 -0.19387 0.16062
 C73 C 0.05949 -0.20988 0.14464
 C74 C 0.05954 -0.25597 0.11905
 C75 C 0.11090 -0.17936 0.15447
 C76 C 0.11059 -0.13321 0.17981
 C77 C 0.05891 -0.11679 0.19590
 C78 C 0.00734 -0.14766 0.18619
 H79 H 0.04815 -0.34411 0.07134
 H80 H -0.13647 -0.28852 0.12670
 H81 H -0.13606 -0.36840 0.08170
 H82 H -0.08459 -0.21185 0.16297
 H83 H 0.09969 -0.26824 0.10681
 H84 H 0.15131 -0.19094 0.14240
 H85 H 0.15070 -0.10974 0.18644
 H86 H -0.03264 -0.13605 0.19875
 C87 C -0.07420 0.36832 0.08387
 C88 C -0.06866 0.32842 0.10954
 C89 C -0.01295 0.31586 0.12420
 C90 C 0.03623 0.34332 0.11281
 C91 C 0.03034 0.38291 0.08714
 C92 C -0.02485 0.39588 0.07245
 C93 C -0.00733 0.27605 0.14992
 C94 C -0.05670 0.24841 0.16102
 C95 C -0.11237 0.26088 0.14628
 C96 C -0.11802 0.30088 0.12068
 C97 C -0.16153 0.23298 0.15733
 C98 C -0.15565 0.19287 0.18267
 C99 C -0.10054 0.18002 0.19753
 C100 C -0.05123 0.20832 0.18660
 H101 H -0.11707 0.37776 0.07276
 H102 H 0.07927 0.33418 0.12375
 H103 H 0.06905 0.40350 0.07887
 H104 H 0.03542 0.26644 0.16119
 H105 H -0.16077 0.31046 0.10940
 H106 H -0.20450 0.24189 0.14622
 H107 H -0.19422 0.17118 0.19025
 H108 H -0.00857 0.19953 0.19821
 C109 C 0.37573 0.01279 0.58465
 C110 C 0.33461 0.01286 0.61026
 C111 C 0.32189 -0.03943 0.62531
 C112 C 0.35049 -0.09089 0.61438
 C113 C 0.39128 -0.09061 0.58875
 C114 C 0.40435 -0.03885 0.57364
 C115 C 0.28074 -0.03944 0.65092
 C116 C 0.25197 0.01215 0.66154
 C117 C 0.26468 0.06440 0.64643
 C118 C 0.30598 0.06444 0.62093
 C119 C 0.23573 0.11578 0.65702
 C120 C 0.19439 0.11548 0.68230
 C121 C 0.18129 0.06384 0.69752
 C122 C 0.21056 0.01229 0.68701
 H123 H 0.38523 0.05306 0.57321
 H124 H 0.34124 -0.13137 0.62562
 H125 H 0.41267 -0.13097 0.58079
 H126 H 0.27096 -0.07956 0.66248
 H127 H 0.31571 0.10456 0.60935
 H128 H 0.24482 0.15616 0.64563
 H129 H 0.17199 0.15558 0.68957
 H130 H 0.20152 -0.02766 0.69891
 C131 C -0.32584 -0.06931 0.58296
 C132 C -0.28065 -0.06353 0.60856
 C133 C -0.26480 -0.00774 0.62329
 C134 C -0.29419 0.04134 0.61194
 C135 C -0.33894 0.03533 0.58625
 C136 C -0.35555 -0.02003 0.57147
 C137 C -0.21982 -0.00194 0.64905
 C138 C -0.19017 -0.05124 0.66003
 C139 C -0.20578 -0.10699 0.64509
 C140 C -0.25103 -0.11281 0.61954
 C141 C -0.17573 -0.15607 0.65590
 C142 C -0.13050 -0.15006 0.68124
 C143 C -0.11463 -0.09490 0.69644
 C144 C -0.14500 -0.04564 0.68568
 H145 H -0.33758 -0.11244 0.57197
 H146 H -0.28252 0.08446 0.62291
 H147 H -0.36067 0.07422 0.57813
 H148 H -0.20774 0.04089 0.66042
 H149 H -0.26306 -0.15564 0.60815
 H150 H -0.18696 -0.19910 0.64459
 H151 H -0.10736 -0.18864 0.68858
 H152 H -0.13390 -0.00290 0.69752
 C153 C -0.01715 -0.35485 0.91551
 C154 C -0.02571 -0.31410 0.89043
 C155 C -0.08289 -0.29789 0.87995
 C156 C -0.13049 -0.32299 0.89445
 C157 C -0.12175 -0.36366 0.91921
 C158 C -0.06506 -0.38007 0.93023
 C159 C -0.09164 -0.25686 0.85514
 C160 C -0.04392 -0.23200 0.84048
 C161 C 0.01328 -0.24851 0.85074
 C162 C 0.02204 -0.28934 0.87569
 C163 C 0.06083 -0.22389 0.83585
 C164 C 0.05189 -0.18318 0.81109
 C165 C -0.00476 -0.16601 0.80083
 C166 C -0.05254 -0.19080 0.81572
 H167 H 0.02689 -0.36682 0.92345
 H168 H -0.17461 -0.31114 0.88666
 H169 H -0.15975 -0.38200 0.92983
 H170 H -0.13556 -0.24436 0.84723
 H171 H 0.06596 -0.30182 0.88360
 H172 H 0.10497 -0.23625 0.84325
 H173 H 0.08947 -0.16559 0.79964
 H174 H -0.09642 -0.17748 0.80840
 C175 C 0.02037 0.36022 0.91656
 C176 C 0.02403 0.31458 0.89087
 C177 C -0.02747 0.28848 0.87581
 C178 C -0.08174 0.30843 0.88685
 C179 C -0.08499 0.35383 0.91258
 C180 C -0.03406 0.38023 0.92765
 C181 C -0.02387 0.24288 0.85004
 C182 C 0.03063 0.22291 0.83928
 C183 C 0.08210 0.24895 0.85446
 C184 C 0.07847 0.29466 0.88010
 C185 C 0.13643 0.22876 0.84377
 C186 C 0.13988 0.18311 0.81829
 C187 C 0.08908 0.15684 0.80293
 C188 C 0.03448 0.17721 0.81359
 H189 H 0.06008 0.38001 0.92799
 H190 H -0.12167 0.28890 0.87561
 H191 H -0.12744 0.36837 0.92061
 H192 H -0.06338 0.22287 0.83844
 H193 H 0.11800 0.31465 0.89171
 H194 H 0.17630 0.24810 0.85523
 H195 H 0.18244 0.16778 0.81094
 H196 H -0.00506 0.15793 0.80162
 C197 C -0.35041 0.02443 0.41697
 C198 C -0.31015 0.02774 0.39109
 C199 C -0.28639 -0.02386 0.37562
 C200 C -0.30322 -0.07783 0.38643
 C201 C -0.34324 -0.08074 0.41233
 C202 C -0.36729 -0.02973 0.42782
 C203 C -0.24618 -0.02065 0.34969
 C204 C -0.22922 0.03354 0.33916
 C205 C -0.25291 0.08512 0.35471
 C206 C -0.29329 0.08189 0.38052
 C207 C -0.23569 0.13916 0.34421
 C208 C -0.19523 0.14218 0.31861
 C209 C -0.17132 0.09124 0.30294
 C210 C -0.18882 0.03697 0.31335
 H211 H -0.36847 0.06418 0.42870
 H212 H -0.28541 -0.11782 0.37488
 H213 H -0.35547 -0.12299 0.42015
 H214 H -0.22796 -0.06024 0.33780
 H215 H -0.31147 0.12149 0.39242
 H216 H -0.25327 0.17912 0.35594
 H217 H -0.18198 0.18451 0.31143
 H218 H -0.17142 -0.00269 0.30112
 C219 C 0.36426 -0.01377 0.41428
 C220 C 0.31840 -0.02267 0.38922
 C221 C 0.29891 -0.07980 0.37937
 C222 C 0.32576 -0.12699 0.39455
 C223 C 0.37141 -0.11782 0.41932
 C224 C 0.39109 -0.06126 0.42953
 C225 C 0.25291 -0.08891 0.35455
 C226 C 0.22615 -0.04164 0.33930
 C227 C 0.24578 0.01548 0.34899
 C228 C 0.29172 0.02462 0.37389
 C229 C 0.21902 0.06257 0.33360
 C230 C 0.17312 0.05326 0.30896
 C231 C 0.15294 -0.00331 0.29925
 C232 C 0.17989 -0.05063 0.31457
 H233 H 0.37904 0.03005 0.42183
 H234 H 0.31142 -0.17105 0.38728
 H235 H 0.39116 -0.15523 0.43062
 H236 H 0.23795 -0.13276 0.34710
 H237 H 0.30665 0.06847 0.38135
 H238 H 0.23364 0.10662 0.34058
 H239 H 0.15375 0.09041 0.29718
 H240 H 0.16431 -0.09438 0.30766
   
