data_POSCAR
  _audit_creation_date              2014-09-24
  _audit_creation_method            'ToBaCCo'
  _symmetry_space_group_name_H-M    'P1'
  _symmetry_Int_Tables_number       1
  _symmetry_cell_setting            triclinic
  loop_
  _symmetry_equiv_pos_as_xyz
 x,y,z
_cell_length_a 54.1423
_cell_length_b 41.1879
_cell_length_c 38.5711
_cell_angle_alpha 90.122000
_cell_angle_beta 90.023700
_cell_angle_gamma 90.089800
loop_
  _atom_site_label
  _atom_site_type_symbol
  _atom_site_fract_x
  _atom_site_fract_y
  _atom_site_fract_z
C1 C 0.24968 0.26737 0.24942
 C2 C 0.24966 0.23425 0.24934
 C3 C 0.22996 0.21526 0.23166
 C4 C 0.26932 0.21529 0.26694
 C5 C 0.26781 0.28629 0.27021
 C6 C 0.23158 0.28627 0.22873
 C7 C 0.20498 0.22021 0.23958
 C8 C 0.18661 0.20246 0.22248
 C9 C 0.19281 0.17899 0.19715
 C10 C 0.21810 0.17381 0.18996
 C11 C 0.23637 0.19165 0.20709
 C12 C 0.26287 0.19164 0.29143
 C13 C 0.28114 0.17387 0.30847
 C14 C 0.30627 0.17924 0.30118
 C15 C 0.31265 0.20258 0.27613
 C16 C 0.29434 0.22032 0.25906
 C17 C 0.28259 0.30978 0.25403
 C18 C 0.30021 0.32708 0.27305
 C19 C 0.30329 0.32140 0.30875
 C20 C 0.28802 0.29836 0.32505
 C21 C 0.27037 0.28110 0.30599
 C22 C 0.22900 0.28108 0.19292
 C23 C 0.21140 0.29835 0.17395
 C24 C 0.19618 0.32139 0.19036
 C25 C 0.19928 0.32707 0.22608
 C26 C 0.21686 0.30976 0.24502
 H27 H 0.19969 0.23790 0.25901
 H28 H 0.16756 0.20733 0.22926
 H29 H 0.22400 0.15605 0.17095
 H30 H 0.25558 0.18732 0.20082
 H31 H 0.24365 0.18726 0.29768
 H32 H 0.27553 0.15603 0.32749
 H33 H 0.29968 0.23801 0.23972
 H34 H 0.28077 0.31429 0.22649
 H35 H 0.31155 0.34473 0.25967
 H36 H 0.28975 0.29351 0.35252
 H37 H 0.25879 0.26353 0.31911
 H38 H 0.24054 0.26351 0.17973
 H39 H 0.20966 0.29351 0.14646
 H40 H 0.18799 0.34472 0.23955
 H41 H 0.21869 0.31427 0.27258
 H42 H 0.33180 0.20721 0.26970
 C43 C 0.75002 0.23541 0.24981
 C44 C 0.74999 0.26852 0.24979
 C45 C 0.76808 0.28745 0.22905
 C46 C 0.73186 0.28741 0.27052
 C47 C 0.73035 0.21640 0.26741
 C48 C 0.76973 0.21647 0.23223
 C49 C 0.78283 0.31102 0.24527
 C50 C 0.80043 0.32830 0.22630
 C51 C 0.80354 0.32250 0.19060
 C52 C 0.78829 0.29939 0.17425
 C53 C 0.77065 0.28216 0.19326
 C54 C 0.72931 0.28227 0.30631
 C55 C 0.71166 0.29948 0.32532
 C56 C 0.69638 0.32242 0.30896
 C57 C 0.69945 0.32807 0.27326
 C58 C 0.71708 0.31081 0.25429
 C59 C 0.70533 0.22130 0.25946
 C60 C 0.68701 0.20351 0.27651
 C61 C 0.69338 0.18022 0.30160
 C62 C 0.71851 0.17498 0.30896
 C63 C 0.73679 0.19281 0.29194
 C64 C 0.76334 0.19272 0.20770
 C65 C 0.78165 0.17494 0.19070
 C66 C 0.80677 0.18040 0.19807
 C67 C 0.81309 0.20385 0.22315
 C68 C 0.79474 0.22159 0.24018
 H69 H 0.78100 0.31561 0.27281
 H70 H 0.81175 0.34600 0.23972
 H71 H 0.79003 0.29445 0.14678
 H72 H 0.75910 0.26452 0.18012
 H73 H 0.74089 0.26477 0.31947
 H74 H 0.70994 0.29467 0.35280
 H75 H 0.71889 0.31528 0.22674
 H76 H 0.70000 0.23895 0.24008
 H77 H 0.66787 0.20804 0.27002
 H78 H 0.72412 0.15718 0.32802
 H79 H 0.75601 0.18852 0.29825
 H80 H 0.74413 0.18826 0.20139
 H81 H 0.77609 0.15702 0.17166
 H82 H 0.83222 0.20855 0.22964
 H83 H 0.80003 0.23936 0.25955
 H84 H 0.68811 0.34564 0.25983
 C85 C 0.75033 0.76951 0.75039
 C86 C 0.75029 0.73640 0.75038
 C87 C 0.73057 0.71740 0.73275
 C88 C 0.76994 0.71744 0.76798
 C89 C 0.76850 0.78844 0.77112
 C90 C 0.73223 0.78840 0.72967
 C91 C 0.70556 0.72241 0.74068
 C92 C 0.68721 0.70460 0.72363
 C93 C 0.69353 0.68119 0.69855
 C94 C 0.71865 0.67584 0.69119
 C95 C 0.73696 0.69370 0.70822
 C96 C 0.76349 0.69383 0.79251
 C97 C 0.78176 0.67602 0.80952
 C98 C 0.80689 0.68131 0.80215
 C99 C 0.81327 0.70462 0.77707
 C100 C 0.79497 0.72240 0.76004
 C101 C 0.78330 0.81184 0.75488
 C102 C 0.80101 0.82909 0.77381
 C103 C 0.80422 0.82348 0.80959
 C104 C 0.78879 0.80048 0.82589
 C105 C 0.77107 0.78331 0.80688
 C106 C 0.72964 0.78313 0.69388
 C107 C 0.71198 0.80029 0.67489
 C108 C 0.69674 0.82331 0.69127
 C109 C 0.69987 0.82910 0.72697
 C110 C 0.71750 0.81189 0.74592
 H111 H 0.70027 0.74015 0.76006
 H112 H 0.66808 0.70921 0.73010
 H113 H 0.72422 0.65795 0.67215
 H114 H 0.75617 0.68932 0.70192
 H115 H 0.74427 0.68950 0.79882
 H116 H 0.77614 0.65820 0.82855
 H117 H 0.80031 0.74006 0.74067
 H118 H 0.78146 0.81631 0.72734
 H119 H 0.81229 0.84662 0.76015
 H120 H 0.79040 0.79551 0.85336
 H121 H 0.75946 0.76581 0.82003
 H122 H 0.74118 0.76555 0.68071
 H123 H 0.71022 0.79537 0.64742
 H124 H 0.68855 0.84674 0.74041
 H125 H 0.71935 0.81646 0.77346
 H126 H 0.83241 0.70920 0.77058
 C127 C 0.24956 0.73540 0.75060
 C128 C 0.24954 0.76852 0.75055
 C129 C 0.26765 0.78741 0.72980
 C130 C 0.23141 0.78744 0.77126
 C131 C 0.22990 0.71642 0.76826
 C132 C 0.26924 0.71643 0.73300
 C133 C 0.28241 0.81096 0.74601
 C134 C 0.30003 0.82821 0.72703
 C135 C 0.30313 0.82240 0.69134
 C136 C 0.28786 0.79931 0.67500
 C137 C 0.27021 0.78211 0.69402
 C138 C 0.22886 0.78236 0.80703
 C139 C 0.21121 0.79958 0.82603
 C140 C 0.19583 0.82256 0.80970
 C141 C 0.19901 0.82809 0.77390
 C142 C 0.21664 0.81080 0.75499
 C143 C 0.20489 0.72129 0.76034
 C144 C 0.18657 0.70351 0.77740
 C145 C 0.19289 0.68017 0.80261
 C146 C 0.21811 0.67503 0.80988
 C147 C 0.23636 0.69288 0.79281
 C148 C 0.26280 0.69269 0.70849
 C149 C 0.28109 0.67488 0.69146
 C150 C 0.30621 0.68030 0.69878
 C151 C 0.31258 0.70374 0.72384
 C152 C 0.29426 0.72152 0.74090
 H153 H 0.28059 0.81556 0.77356
 H154 H 0.31137 0.84590 0.74045
 H155 H 0.28959 0.79436 0.64753
 H156 H 0.25864 0.76448 0.68088
 H157 H 0.24045 0.76489 0.82021
 H158 H 0.20963 0.79467 0.85351
 H159 H 0.21847 0.81523 0.72744
 H160 H 0.19956 0.73891 0.74093
 H161 H 0.16747 0.70817 0.77075
 H162 H 0.22391 0.65730 0.82890
 H163 H 0.25558 0.68862 0.79909
 H164 H 0.24359 0.68825 0.70221
 H165 H 0.27549 0.65696 0.67243
 H166 H 0.33172 0.70842 0.73029
 H167 H 0.29958 0.73928 0.76026
 H168 H 0.18775 0.84561 0.76023
 O169 O 0.97641 -0.00510 -0.03964
 O170 O 1.02457 0.03902 0.00876
 O171 O 1.02459 -0.00517 -0.03959
 O172 O 0.97658 0.03908 0.00872
 O173 O 0.97648 0.00073 0.04869
 O174 O 1.02452 -0.04354 0.00035
 O175 O 1.02450 0.00068 0.04874
 O176 O 0.97631 -0.04347 0.00030
 Cu177 Cu 1.00055 0.02077 -0.01949
 Cu178 Cu 1.00045 -0.02530 0.02849
 C179 C 0.96810 -0.03172 -0.02785
 C180 C 1.03268 0.02741 0.03703
 C181 C 1.03279 -0.03182 -0.02779
 C182 C 0.96841 0.02748 0.03697
 O183 O 0.52391 0.45654 0.50067
 O184 O 0.47579 0.50065 0.54904
 O185 O 0.47569 0.45640 0.50068
 O186 O 0.52381 0.50078 0.54902
 O187 O 0.52376 0.53910 0.50901
 O188 O 0.47568 0.49473 0.46071
 O189 O 0.47577 0.53896 0.50903
 O190 O 0.52386 0.49487 0.46070
 Cu191 Cu 0.49980 0.47470 0.52883
 Cu192 Cu 0.49976 0.52072 0.48080
 C193 C 0.53212 0.46827 0.47251
 C194 C 0.46765 0.52736 0.53730
 C195 C 0.46744 0.46808 0.47252
 C196 C 0.53191 0.52754 0.53728
 O197 O -0.02366 0.53934 -0.00885
 O198 O 0.02435 0.49499 0.03920
 O199 O 0.02433 0.53924 -0.00889
 O200 O -0.02382 0.49511 0.03925
 O201 O -0.02397 0.45678 -0.00091
 O202 O 0.02422 0.50095 -0.04910
 O203 O 0.02424 0.45667 -0.00097
 O204 O -0.02380 0.50104 -0.04905
 Cu205 Cu 0.00031 0.52098 0.01925
 Cu206 Cu 0.00016 0.47497 -0.02900
 C207 C -0.03185 0.52779 -0.03717
 C208 C 0.03252 0.46834 0.02724
 C209 C 0.03241 0.52767 -0.03723
 C210 C -0.03215 0.46850 0.02731
 O211 O 0.47582 1.03877 0.49124
 O212 O 0.52392 0.99493 0.53965
 O213 O 0.52381 1.03891 0.49127
 O214 O 0.47574 0.99480 0.53962
 O215 O 0.47574 0.95626 0.49970
 O216 O 0.52384 1.00039 0.45132
 O217 O 0.52395 0.95639 0.49973
 O218 O 0.47582 1.00025 0.45128
 Cu219 Cu 0.49982 1.02068 0.51950
 Cu220 Cu 0.49984 0.97441 0.47154
 C221 C 0.46769 1.02703 0.46298
 C222 C 0.53219 0.96827 0.52787
 C223 C 0.53195 1.02720 0.46303
 C224 C 0.46750 0.96809 0.52784
 N225 N 1.16370 0.12293 0.13880
 C226 C 1.13951 0.12819 0.14569
 N227 N 1.13325 0.15048 0.17000
 N228 N 1.15067 0.16703 0.18690
 C229 C 1.17507 0.16199 0.18017
 N230 N 1.18111 0.13948 0.15570
 C231 C 1.12078 0.11057 0.12720
 C232 C 1.10514 0.09580 0.11144
 C233 C 1.08660 0.07830 0.09247
 N234 N 1.07776 0.09017 0.06215
 N235 N 1.06059 0.07391 0.04445
 C236 C 1.05169 0.04521 0.05647
 N237 N 1.06058 0.03338 0.08684
 N238 N 1.07776 0.04965 0.10454
 N239 N 0.66285 0.62336 0.63892
 C240 C 0.63864 0.62873 0.64569
 N241 N 0.63237 0.65118 0.66985
 N242 N 0.64979 0.66778 0.68672
 C243 C 0.67411 0.66253 0.68004
 N244 N 0.68026 0.63995 0.65579
 C245 C 0.61993 0.61106 0.62724
 C246 C 0.60429 0.59624 0.61152
 C247 C 0.58577 0.57866 0.59259
 N248 N 0.57688 0.59048 0.56228
 N249 N 0.55972 0.57415 0.54462
 C250 C 0.55090 0.54543 0.55667
 N251 N 0.55984 0.53365 0.58704
 N252 N 0.57700 0.54999 0.60470
 N253 N -0.15644 0.34993 0.11857
 C254 C -0.14169 0.37196 0.13457
 N255 N -0.14496 0.37796 0.16882
 N256 N -0.16243 0.36237 0.18654
 C257 C -0.17728 0.34020 0.17069
 N258 N -0.17391 0.33433 0.13632
 C259 C -0.12273 0.38859 0.11559
 C260 C -0.10673 0.40261 0.09984
 C261 C -0.08763 0.41940 0.08129
 N262 N -0.07837 0.44774 0.09367
 N263 N -0.06064 0.46336 0.07648
 C264 C -0.05156 0.45114 0.04635
 N265 N -0.06087 0.42273 0.03402
 N266 N -0.07861 0.40712 0.05122
 N267 N 0.35469 0.87776 0.66954
 C268 C 0.35796 0.87174 0.63529
 N269 N 0.34318 0.84973 0.61930
 N270 N 0.32570 0.83417 0.63705
 C271 C 0.32234 0.84005 0.67143
 N272 N 0.33721 0.86220 0.68727
 C273 C 0.37693 0.88833 0.61631
 C274 C 0.39294 0.90232 0.60054
 C275 C 0.41204 0.91907 0.58196
 N276 N 0.42123 0.94752 0.59419
 N277 N 0.43896 0.96311 0.57696
 C278 C 0.44810 0.95076 0.54693
 N279 N 0.43887 0.92225 0.53476
 N280 N 0.42114 0.90666 0.55199
 N281 N -0.13203 0.65130 -0.16926
 C282 C -0.13836 0.62894 -0.14511
 N283 N -0.16258 0.62363 -0.13831
 N284 N -0.17994 0.64020 -0.15514
 C285 C -0.17374 0.66269 -0.17938
 N286 N -0.14940 0.66787 -0.18609
 C287 C -0.11969 0.61128 -0.12672
 C288 C -0.10410 0.59647 -0.11106
 C289 C -0.08561 0.57890 -0.09221
 N290 N -0.07690 0.55024 -0.10446
 N291 N -0.05977 0.53390 -0.08689
 C292 C -0.05080 0.54567 -0.05647
 N293 N -0.05957 0.57438 -0.04427
 N294 N -0.07669 0.59071 -0.06185
 N295 N 0.33683 1.12174 0.36090
 C296 C 0.36105 1.12717 0.35421
 N297 N 0.36737 1.14954 0.33006
 N298 N 0.34999 1.16600 0.31313
 C299 C 0.32565 1.16071 0.31973
 N300 N 0.31946 1.13821 0.34397
 C301 C 0.37973 1.10965 0.37274
 C302 C 0.39534 1.09497 0.38852
 C303 C 0.41385 1.07758 0.40751
 N304 N 0.42264 1.04889 0.39546
 N305 N 0.43979 1.03273 0.41317
 C306 C 0.44870 1.04471 0.44354
 N307 N 0.43985 1.07345 0.45554
 N308 N 0.42270 1.08960 0.43782
 N309 N 1.14523 -0.12299 -0.16953
 C310 C 1.14206 -0.12868 -0.13524
 N311 N 1.15689 -0.15046 -0.11919
 N312 N 1.17432 -0.16611 -0.13694
 C313 C 1.17762 -0.16061 -0.17141
 N314 N 1.16266 -0.13864 -0.18725
 C315 C 1.12314 -0.11199 -0.11625
 C316 C 1.10717 -0.09791 -0.10048
 C317 C 1.08812 -0.08107 -0.08189
 N318 N 1.07900 -0.09335 -0.05192
 N319 N 1.06131 -0.07769 -0.03468
 C320 C 1.05214 -0.04923 -0.04687
 N321 N 1.06131 -0.03702 -0.07692
 N322 N 1.07900 -0.05269 -0.09414
 N323 N 0.65637 0.34997 0.38101
 C324 C 0.64159 0.37183 0.36501
 N325 N 0.64483 0.37769 0.33076
 N326 N 0.66230 0.36210 0.31302
 C327 C 0.67718 0.34010 0.32887
 N328 N 0.67384 0.33438 0.36327
 C329 C 0.62263 0.38845 0.38400
 C330 C 0.60663 0.40246 0.39978
 C331 C 0.58755 0.41923 0.41837
 N332 N 0.57835 0.44756 0.40612
 N333 N 0.56063 0.46316 0.42335
 C334 C 0.55151 0.45093 0.45341
 N335 N 0.56076 0.42252 0.46562
 N336 N 0.57848 0.40693 0.44837
 N337 N 0.85506 -0.12224 -0.16961
 C338 C 0.85827 -0.12803 -0.13535
 N339 N 0.84339 -0.14980 -0.11932
 N340 N 0.82586 -0.16536 -0.13707
 C341 C 0.82252 -0.15977 -0.17152
 N342 N 0.83754 -0.13780 -0.18734
 C343 C 0.87730 -0.11144 -0.11636
 C344 C 0.89335 -0.09745 -0.10059
 C345 C 0.91251 -0.08072 -0.08200
 N346 N 0.92158 -0.09304 -0.05203
 N347 N 0.93936 -0.07747 -0.03478
 C348 C 0.94866 -0.04905 -0.04696
 N349 N 0.93954 -0.03679 -0.07701
 N350 N 0.92177 -0.05237 -0.09424
 N351 N 0.34328 0.34906 0.38089
 C352 C 0.35804 0.37103 0.36494
 N353 N 0.35480 0.37691 0.33069
 N354 N 0.33734 0.36125 0.31291
 C355 C 0.32248 0.33915 0.32871
 N356 N 0.32582 0.33340 0.36310
 C357 C 0.37699 0.38774 0.38397
 C358 C 0.39297 0.40184 0.39977
 C359 C 0.41204 0.41871 0.41838
 N360 N 0.42120 0.44711 0.40613
 N361 N 0.43891 0.46281 0.42337
 C362 C 0.44806 0.45063 0.45343
 N363 N 0.43885 0.42217 0.46563
 N364 N 0.42114 0.40647 0.44838
 N365 N 0.13273 0.65087 -0.16972
 C366 C 0.13905 0.62864 -0.14546
 N367 N 0.16326 0.62348 -0.13857
 N368 N 0.18063 0.64006 -0.15542
 C369 C 0.17449 0.66248 -0.17981
 N370 N 0.15012 0.66746 -0.18657
 C371 C 0.12037 0.61098 -0.12703
 C372 C 0.10477 0.59617 -0.11133
 C373 C 0.08626 0.57863 -0.09242
 N374 N 0.07742 0.54999 -0.10466
 N375 N 0.06026 0.53369 -0.08703
 C376 C 0.05140 0.54549 -0.05657
 N377 N 0.06031 0.57416 -0.04440
 N378 N 0.07746 0.59046 -0.06202
 N379 N 0.66280 1.12260 0.36127
 C380 C 0.63859 1.12789 0.35450
 N381 N 0.63227 1.15022 0.33032
 N382 N 0.64966 1.16677 0.31343
 C383 C 0.67400 1.16160 0.32011
 N384 N 0.68018 1.13915 0.34439
 C385 C 0.61990 1.11029 0.37297
 C386 C 0.60429 1.09553 0.38871
 C387 C 0.58578 1.07804 0.40766
 N388 N 0.57701 1.04931 0.39559
 N389 N 0.55986 1.03305 0.41327
 C390 C 0.55092 1.04499 0.44362
 N391 N 0.55976 1.07377 0.45563
 N392 N 0.57691 1.09002 0.43796
 N393 N 0.15630 0.34914 0.11833
 C394 C 0.14161 0.37113 0.13439
 N395 N 0.14486 0.37699 0.16867
 N396 N 0.16226 0.36129 0.18638
 C397 C 0.17706 0.33917 0.17047
 N398 N 0.17371 0.33345 0.13606
 C399 C 0.12273 0.38788 0.11542
 C400 C 0.10680 0.40200 0.09968
 C401 C 0.08779 0.41891 0.08115
 N402 N 0.07870 0.44731 0.09354
 N403 N 0.06104 0.46304 0.07638
 C404 C 0.05186 0.45088 0.04625
 N405 N 0.06100 0.42242 0.03391
 N406 N 0.07866 0.40669 0.05108
 N407 N 0.65661 0.85054 0.61929
 C408 C 0.64185 0.87248 0.63532
 N409 N 0.64516 0.87849 0.66956
 N410 N 0.66266 0.86298 0.68726
 C411 C 0.67751 0.84092 0.67139
 N412 N 0.67412 0.83505 0.63701
 C413 C 0.62285 0.88900 0.61636
 C414 C 0.60682 0.90291 0.60061
 C415 C 0.58769 0.91955 0.58202
 N416 N 0.57849 0.94794 0.59426
 N417 N 0.56074 0.96344 0.57702
 C418 C 0.55159 0.95104 0.54698
 N419 N 0.56085 0.92258 0.53481
 N420 N 0.57860 0.90709 0.55205
 N421 N 0.86795 0.15070 0.16942
 C422 C 0.86167 0.12821 0.14525
 N423 N 0.83747 0.12272 0.13847
 N424 N 0.82006 0.13923 0.15533
 C425 C 0.82619 0.16184 0.17958
 N426 N 0.85052 0.16720 0.18628
 C427 C 0.88040 0.11064 0.12682
 C428 C 0.89604 0.09589 0.11112
 C429 C 0.91457 0.07840 0.09222
 N430 N 0.92331 0.04974 0.10432
 N431 N 0.94047 0.03347 0.08668
 C432 C 0.94944 0.04531 0.05635
 N433 N 0.94064 0.07401 0.04430
 N434 N 0.92348 0.09027 0.06195
 N435 N 0.33680 0.62257 0.63912
 C436 C 0.36102 0.62803 0.64585
 N437 N 0.36733 0.65051 0.67000
 N438 N 0.34994 0.66704 0.68690
 C439 C 0.32560 0.66171 0.68026
 N440 N 0.31942 0.63910 0.65601
 C441 C 0.37971 0.61044 0.62736
 C442 C 0.39532 0.59569 0.61162
 C443 C 0.41383 0.57820 0.59266
 N444 N 0.42262 0.54957 0.60476
 N445 N 0.43977 0.53332 0.58709
 C446 C 0.44867 0.54514 0.55671
 N447 N 0.43982 0.57381 0.54466
 N448 N 0.42267 0.59006 0.56234
   
