data_POSCAR
  _audit_creation_date              2014-09-24
  _audit_creation_method            'ToBaCCo'
  _symmetry_space_group_name_H-M    'P1'
  _symmetry_Int_Tables_number       1
  _symmetry_cell_setting            triclinic
  loop_
  _symmetry_equiv_pos_as_xyz
 x,y,z
_cell_length_a 28.0307
_cell_length_b 28.4880
_cell_length_c 45.1862
_cell_angle_alpha 89.910800
_cell_angle_beta 89.856500
_cell_angle_gamma 89.970300
loop_
  _atom_site_label
  _atom_site_type_symbol
  _atom_site_fract_x
  _atom_site_fract_y
  _atom_site_fract_z
O1 O -0.04054 0.54553 0.97236
 O2 O -0.03828 0.45361 1.02976
 O3 O -0.03865 0.54535 1.02975
 O4 O -0.04099 0.45381 0.97243
 O5 O 0.03789 0.45365 0.97107
 O6 O 0.04023 0.54538 1.02841
 O7 O 0.04060 0.45363 1.02841
 O8 O 0.03834 0.54536 0.97102
 Cu9 Cu -0.04758 0.49960 1.00122
 Cu10 Cu 0.04723 0.49951 0.99960
 C11 C -0.00144 0.56124 0.96221
 C12 C 0.00157 0.43776 1.03854
 C13 C 0.00115 0.56115 1.03855
 C14 C -0.00197 0.43793 0.96230
 O15 O 0.54736 -0.03769 0.52913
 O16 O 0.45429 -0.03765 0.47170
 O17 O 0.54729 -0.03809 0.47160
 O18 O 0.45433 -0.03814 0.52923
 O19 O 0.45418 0.03950 0.52922
 O20 O 0.54734 0.03954 0.47150
 O21 O 0.45431 0.03999 0.47166
 O22 O 0.54725 0.03994 0.52907
 Cu23 Cu 0.50082 -0.04572 0.50043
 Cu24 Cu 0.50077 0.04758 0.50036
 C25 C 0.56314 0.00115 0.53871
 C26 C 0.43848 0.00120 0.46207
 C27 C 0.56314 0.00068 0.46189
 C28 C 0.43842 0.00062 0.53887
 C29 C 0.09952 0.00526 0.25878
 H30 H 0.10250 0.00597 0.23491
 C31 C 0.14062 0.00625 0.27621
 H32 H 0.17543 0.00761 0.26578
 C33 C 0.05057 0.00277 0.30166
 H34 H 0.01550 0.00204 0.31155
 C35 C 0.09072 0.00375 0.31987
 H36 H 0.08640 0.00324 0.34370
 N37 N 0.05565 0.00275 0.27168
 C38 C -0.03593 -0.06314 0.20573
 H39 H -0.06484 -0.03800 0.20490
 C40 C -0.03730 -0.10321 0.18799
 H41 H -0.06726 -0.10897 0.17334
 C42 C 0.03851 -0.08651 0.22582
 H43 H 0.06771 -0.08024 0.24082
 C44 C 0.03851 -0.12705 0.20847
 H45 H 0.06796 -0.15158 0.20994
 Zn46 Zn 0.00155 0.00057 0.24665
 N47 N 0.00200 -0.05513 0.22378
 C48 C 0.00445 0.04944 0.19174
 N49 N 0.00380 0.05409 0.22173
 C50 C 0.00592 0.09712 0.23472
 C51 C 0.00719 0.13776 0.21739
 C52 C 0.00574 0.08915 0.17361
 C53 C -0.06334 -0.03735 0.28728
 C54 C -0.10402 -0.03915 0.30515
 C55 C -0.12835 0.03592 0.28526
 C56 C -0.08719 0.03635 0.26776
 N57 N -0.05525 0.00041 0.26947
 H58 H 0.00405 0.01503 0.18178
 H59 H 0.00619 0.09978 0.25861
 H60 H 0.00828 0.17190 0.22788
 H61 H 0.00582 0.08518 0.14977
 H62 H -0.03774 -0.06576 0.28786
 H63 H -0.10980 -0.06896 0.31964
 H64 H -0.15328 0.06493 0.28411
 H65 H -0.08084 0.06546 0.25296
 C66 C 0.00043 -0.13526 0.18924
 C67 C 0.13611 0.00517 0.30703
 C68 C -0.13659 -0.00200 0.30428
 C69 C 0.00681 0.13367 0.18656
 C70 C -0.00621 0.09660 0.76472
 H71 H -0.00639 0.09940 0.74084
 C72 C -0.00756 0.13715 0.78207
 H73 H -0.00863 0.17135 0.77157
 C74 C -0.00485 0.04870 0.80770
 H75 H -0.00447 0.01424 0.81765
 C76 C -0.00623 0.08831 0.82583
 H77 H -0.00639 0.08421 0.84968
 N78 N -0.00409 0.05351 0.77772
 C79 C 0.06340 -0.03761 0.71226
 H80 H 0.03782 -0.06602 0.71162
 C81 C 0.10420 -0.03936 0.69450
 H82 H 0.11010 -0.06911 0.68003
 C83 C 0.08709 0.03597 0.73183
 H84 H 0.08064 0.06501 0.74663
 C85 C 0.12837 0.03560 0.71444
 H86 H 0.15329 0.06458 0.71567
 Zn87 Zn -0.00169 0.00009 0.75281
 N88 N 0.05518 0.00006 0.73005
 C89 C -0.05065 0.00240 0.69777
 N90 N -0.05575 0.00231 0.72774
 C91 C -0.09963 0.00479 0.74062
 C92 C -0.14072 0.00582 0.72319
 C93 C -0.09079 0.00341 0.67954
 C94 C 0.03585 -0.06369 0.79379
 C95 C 0.03723 -0.10375 0.81163
 C96 C -0.03856 -0.12757 0.79117
 C97 C -0.03857 -0.08704 0.77373
 N98 N -0.00208 -0.05567 0.77572
 H99 H -0.01556 0.00169 0.68789
 H100 H -0.10263 0.00545 0.76450
 H101 H -0.17554 0.00715 0.73360
 H102 H -0.08645 0.00295 0.65571
 H103 H 0.06473 -0.03856 0.79458
 H104 H 0.06717 -0.10951 0.82630
 H105 H -0.06800 -0.15207 0.78976
 H106 H -0.06777 -0.08075 0.75872
 C107 C 0.13677 -0.00224 0.69546
 C108 C -0.00728 0.13290 0.81290
 C109 C -0.00050 -0.13578 0.81044
 C110 C -0.13619 0.00480 0.69237
 C111 C 0.00145 -0.25019 0.13489
 C112 C -0.00641 -0.29580 0.14642
 C113 C -0.00593 -0.33523 0.12717
 C114 C 0.00242 -0.32881 0.09652
 C115 C 0.01049 -0.28322 0.08500
 C116 C 0.00998 -0.24380 0.10424
 C117 C 0.01808 -0.19858 0.09220
 C118 C 0.02654 -0.19248 0.06204
 C119 C 0.02712 -0.23103 0.04323
 C120 C 0.01914 -0.27594 0.05444
 C121 C -0.01391 -0.38046 0.13919
 C122 C -0.02213 -0.38658 0.16938
 C123 C -0.02260 -0.34804 0.18820
 C124 C -0.01485 -0.30308 0.17698
 C125 C 0.00222 -0.36887 0.07670
 C126 C 0.00187 -0.40138 0.05966
 C127 C 0.00084 -0.20983 0.15449
 C128 C 0.00050 -0.17601 0.17049
 H129 H 0.01802 -0.16749 0.10593
 H130 H 0.03273 -0.15765 0.05322
 H131 H 0.03385 -0.22612 0.01983
 H132 H 0.01993 -0.30479 0.03890
 H133 H -0.01386 -0.41151 0.12542
 H134 H -0.02816 -0.42143 0.17820
 H135 H -0.02900 -0.35298 0.21163
 H136 H -0.01555 -0.27419 0.19249
 C137 C 0.00686 0.24981 0.13303
 C138 C 0.01444 0.24404 0.10225
 C139 C 0.01350 0.28375 0.08318
 C140 C 0.00494 0.32901 0.09500
 C141 C -0.00240 0.33482 0.12579
 C142 C -0.00142 0.29510 0.14487
 C143 C -0.00889 0.30177 0.17556
 C144 C -0.01708 0.34641 0.18709
 C145 C -0.01804 0.38524 0.16843
 C146 C -0.01080 0.37972 0.13811
 C147 C 0.02120 0.27708 0.05248
 C148 C 0.02967 0.23249 0.04098
 C149 C 0.03050 0.19366 0.05962
 C150 C 0.02299 0.19915 0.08991
 C151 C 0.00352 0.36938 0.07537
 C152 C 0.00249 0.40208 0.05842
 C153 C 0.00716 0.20909 0.15240
 C154 C 0.00717 0.17491 0.16816
 H155 H -0.00846 0.27263 0.19096
 H156 H -0.02272 0.35089 0.21062
 H157 H -0.02441 0.41984 0.17749
 H158 H -0.01185 0.41098 0.12448
 H159 H 0.02085 0.30617 0.03706
 H160 H 0.03568 0.22807 0.01747
 H161 H 0.03706 0.15909 0.05057
 H162 H 0.02403 0.16786 0.10351
 C163 C 0.25321 -0.00279 0.64054
 C164 C 0.28486 0.03593 0.64006
 C165 C 0.32380 0.03655 0.61983
 C166 C 0.33085 -0.00155 0.60022
 C167 C 0.29960 -0.04059 0.60101
 C168 C 0.26067 -0.04121 0.62123
 C169 C 0.22981 -0.08053 0.62153
 C170 C 0.23721 -0.11819 0.60241
 C171 C 0.27526 -0.11759 0.58264
 C172 C 0.30620 -0.07933 0.58184
 C173 C 0.35485 0.07572 0.61968
 C174 C 0.34765 0.11320 0.63896
 C175 C 0.30959 0.11260 0.65873
 C176 C 0.27843 0.07451 0.65937
 C177 C 0.36964 -0.00032 0.57886
 C178 C 0.40135 0.00037 0.56079
 C179 C 0.21243 -0.00270 0.66042
 C180 C 0.17815 -0.00256 0.67659
 H181 H 0.19974 -0.08266 0.63653
 H182 H 0.21328 -0.14799 0.60295
 H183 H 0.28086 -0.14692 0.56783
 H184 H 0.33531 -0.08053 0.56609
 H185 H 0.38498 0.07777 0.60471
 H186 H 0.37176 0.14287 0.63856
 H187 H 0.30416 0.14180 0.67367
 H188 H 0.24936 0.07563 0.67516
 C189 C -0.25355 0.00311 0.63856
 C190 C -0.27940 0.04484 0.63285
 C191 C -0.31852 0.04416 0.61288
 C192 C -0.33154 0.00174 0.59874
 C193 C -0.30619 -0.04016 0.60484
 C194 C -0.26709 -0.03948 0.62481
 C195 C -0.24217 -0.08178 0.63045
 C196 C -0.25551 -0.12356 0.61678
 C197 C -0.29375 -0.12422 0.59726
 C198 C -0.31892 -0.08311 0.59127
 C199 C -0.34369 0.08637 0.60742
 C200 C -0.33061 0.12806 0.62130
 C201 C -0.29238 0.12872 0.64082
 C202 C -0.26693 0.08770 0.64661
 C203 C -0.37021 0.00143 0.57741
 C204 C -0.40183 0.00123 0.55936
 C205 C -0.21243 0.00411 0.65804
 C206 C -0.17788 0.00465 0.67388
 H207 H -0.21221 -0.08306 0.64549
 H208 H -0.23608 -0.15559 0.62136
 H209 H -0.30398 -0.15676 0.58670
 H210 H -0.34843 -0.08541 0.57596
 H211 H -0.37372 0.08761 0.59244
 H212 H -0.35027 0.16002 0.61689
 H213 H -0.28237 0.16119 0.65155
 H214 H -0.23749 0.08996 0.66198
 C215 C -0.00159 -0.25046 0.86521
 C216 C 0.00587 -0.29617 0.85383
 C217 C 0.00537 -0.33551 0.87324
 C218 C -0.00260 -0.32888 0.90390
 C219 C -0.01027 -0.28318 0.91527
 C220 C -0.00974 -0.24386 0.89587
 C221 C -0.01743 -0.19852 0.90777
 C222 C -0.02552 -0.19222 0.93794
 C223 C -0.02612 -0.23066 0.95690
 C224 C -0.01853 -0.27568 0.94584
 C225 C 0.01295 -0.38085 0.86137
 C226 C 0.02080 -0.38718 0.83117
 C227 C 0.02129 -0.34873 0.81219
 C228 C 0.01394 -0.30367 0.82327
 C229 C -0.00245 -0.36885 0.92387
 C230 C -0.00213 -0.40130 0.94101
 C231 C -0.00095 -0.21021 0.84546
 C232 C -0.00060 -0.17646 0.82932
 H233 H -0.01733 -0.16750 0.89391
 H234 H -0.03139 -0.15731 0.94665
 H235 H -0.03256 -0.22560 0.98031
 H236 H -0.01932 -0.30445 0.96149
 H237 H 0.01286 -0.41183 0.87526
 H238 H 0.02653 -0.42211 0.82246
 H239 H 0.02740 -0.35384 0.78875
 H240 H 0.01464 -0.27486 0.80764
 C241 C -0.00745 0.24867 0.86650
 C242 C -0.01512 0.24268 0.89727
 C243 C -0.01416 0.28224 0.91639
 C244 C -0.00550 0.32757 0.90462
 C245 C 0.00190 0.33360 0.87385
 C246 C 0.00092 0.29403 0.85473
 C247 C 0.00846 0.30092 0.82404
 C248 C 0.01673 0.34563 0.81258
 C249 C 0.01770 0.38431 0.83128
 C250 C 0.01039 0.37858 0.86159
 C251 C -0.02194 0.27535 0.94707
 C252 C -0.03050 0.23069 0.95852
 C253 C -0.03135 0.19201 0.93983
 C254 C -0.02376 0.19771 0.90955
 C255 C -0.00406 0.36779 0.92430
 C256 C -0.00299 0.40039 0.94125
 C257 C -0.00772 0.20810 0.84710
 C258 C -0.00770 0.17402 0.83131
 H259 H 0.00802 0.27190 0.80861
 H260 H 0.02242 0.35027 0.78905
 H261 H 0.02413 0.41897 0.82226
 H262 H 0.01145 0.40972 0.87525
 H263 H -0.02158 0.30431 0.96253
 H264 H -0.03657 0.22609 0.98201
 H265 H -0.03798 0.15738 0.94884
 H266 H -0.02482 0.16653 0.89592
 C267 C -0.25246 -0.00259 0.35966
 C268 C -0.28426 0.03604 0.36012
 C269 C -0.32299 0.03664 0.38050
 C270 C -0.32967 -0.00138 0.40030
 C271 C -0.29825 -0.04032 0.39954
 C272 C -0.25954 -0.04093 0.37916
 C273 C -0.22851 -0.08015 0.37890
 C274 C -0.23554 -0.11772 0.39821
 C275 C -0.27338 -0.11713 0.41813
 C276 C -0.30448 -0.07898 0.41890
 C277 C -0.35420 0.07571 0.38063
 C278 C -0.34737 0.11312 0.36117
 C279 C -0.30952 0.11253 0.34124
 C280 C -0.27820 0.07453 0.34063
 C281 C -0.36829 -0.00019 0.42177
 C282 C -0.39988 0.00046 0.43992
 C283 C -0.21190 -0.00249 0.33961
 C284 C -0.17779 -0.00234 0.32330
 H285 H -0.19859 -0.08226 0.36378
 H286 H -0.21148 -0.14745 0.39769
 H287 H -0.27869 -0.14641 0.43308
 H288 H -0.33342 -0.08018 0.43477
 H289 H -0.38418 0.07775 0.39571
 H290 H -0.37160 0.14271 0.36155
 H291 H -0.30437 0.14167 0.32617
 H292 H -0.24931 0.07566 0.32472
 C293 C 0.25341 0.00335 0.36088
 C294 C 0.26681 -0.03921 0.37481
 C295 C 0.30586 -0.03993 0.39482
 C296 C 0.33130 0.00191 0.40078
 C297 C 0.31843 0.04430 0.38646
 C298 C 0.27937 0.04502 0.36645
 C299 C 0.26704 0.08785 0.35251
 C300 C 0.29259 0.12881 0.35815
 C301 C 0.33077 0.12811 0.37771
 C302 C 0.34370 0.08645 0.39177
 C303 C 0.31844 -0.08286 0.40857
 C304 C 0.29318 -0.12391 0.40272
 C305 C 0.25499 -0.12321 0.38316
 C306 C 0.24179 -0.08145 0.36931
 C307 C 0.36993 0.00156 0.42214
 C308 C 0.40152 0.00133 0.44020
 C309 C 0.21234 0.00441 0.34137
 C310 C 0.17781 0.00498 0.32551
 H311 H 0.23765 0.09013 0.33709
 H312 H 0.28269 0.16126 0.34728
 H313 H 0.35050 0.16002 0.38201
 H314 H 0.37370 0.08766 0.40678
 H315 H 0.34791 -0.08519 0.42392
 H316 H 0.30330 -0.15643 0.41341
 H317 H 0.23549 -0.15519 0.37868
 H318 H 0.21187 -0.08271 0.35425
   
