data_POSCAR
  _audit_creation_date              2014-09-24
  _audit_creation_method            'ToBaCCo'
  _symmetry_space_group_name_H-M    'P1'
  _symmetry_Int_Tables_number       1
  _symmetry_cell_setting            triclinic
  loop_
  _symmetry_equiv_pos_as_xyz
 x,y,z
_cell_length_a 27.1338
_cell_length_b 30.8779
_cell_length_c 21.3105
_cell_angle_alpha 90.125100
_cell_angle_beta 90.000500
_cell_angle_gamma 90.095200
loop_
  _atom_site_label
  _atom_site_type_symbol
  _atom_site_fract_x
  _atom_site_fract_y
  _atom_site_fract_z
O1 O 0.21458 0.29124 0.18209
 O2 O 0.30751 0.20752 0.21519
 O3 O 0.21490 0.20699 0.18171
 O4 O 0.30720 0.29143 0.21553
 O5 O 0.28477 0.29140 0.31516
 O6 O 0.19232 0.20708 0.28122
 O7 O 0.28497 0.20719 0.31477
 O8 O 0.19218 0.29099 0.28172
 Cu9 Cu 0.26323 0.24930 0.18861
 Cu10 Cu 0.23636 0.24913 0.30823
 C11 C 0.18727 0.30510 0.22619
 C12 C 0.31240 0.19341 0.27073
 C13 C 0.18745 0.19294 0.22557
 C14 C 0.31204 0.30549 0.27120
 O15 O 0.80724 0.29154 0.28360
 O16 O 0.71494 0.20720 0.31741
 O17 O 0.80755 0.20764 0.28392
 O18 O 0.71463 0.29144 0.31705
 O19 O 0.69222 0.29091 0.21742
 O20 O 0.78501 0.20701 0.18435
 O21 O 0.69236 0.20700 0.21790
 O22 O 0.78482 0.29122 0.18398
 Cu23 Cu 0.76328 0.24950 0.31052
 Cu24 Cu 0.73641 0.24898 0.19089
 C25 C 0.81208 0.30544 0.22794
 C26 C 0.68749 0.19302 0.27355
 C27 C 0.81244 0.19336 0.22839
 C28 C 0.68731 0.30518 0.27295
 O29 O 0.80743 0.70870 0.71766
 O30 O 0.71525 0.79302 0.68458
 O31 O 0.80791 0.79260 0.71814
 O32 O 0.71483 0.70879 0.68421
 O33 O 0.69241 0.70888 0.78384
 O34 O 0.78532 0.79279 0.81765
 O35 O 0.69271 0.79280 0.78416
 O36 O 0.78501 0.70857 0.81729
 Cu37 Cu 0.76354 0.75079 0.69113
 Cu38 Cu 0.73667 0.75077 0.81075
 C39 C 0.81225 0.69457 0.77319
 C40 C 0.68793 0.80696 0.72864
 C41 C 0.81288 0.80669 0.77380
 C42 C 0.68748 0.69484 0.72818
 O43 O 0.30731 0.79275 0.78361
 O44 O 0.21453 0.70869 0.81689
 O45 O 0.30713 0.70884 0.78343
 O46 O 0.21472 0.79293 0.81710
 O47 O 0.19209 0.79266 0.71761
 O48 O 0.28470 0.70870 0.68380
 O49 O 0.19211 0.70876 0.71726
 O50 O 0.28476 0.79292 0.68403
 Cu51 Cu 0.26311 0.75081 0.81027
 Cu52 Cu 0.23622 0.75077 0.69066
 C53 C 0.31216 0.80685 0.72805
 C54 C 0.18722 0.69468 0.77282
 C55 C 0.31199 0.69475 0.72779
 C56 C 0.18722 0.80682 0.77324
 C57 C 1.04558 0.07684 0.07195
 C58 C 1.00049 0.09501 0.09011
 C59 C 0.95537 0.07641 0.07270
 C60 C 0.95513 0.03801 0.03631
 C61 C 1.00045 0.01884 0.01800
 C62 C 1.04578 0.03841 0.03562
 C63 C 1.09015 0.01871 0.01709
 C64 C 1.09013 -0.01910 -0.01851
 C65 C 1.04574 -0.03915 -0.03645
 C66 C 1.00043 -0.01993 -0.01824
 C67 C 0.91074 0.01794 0.01838
 C68 C 0.91073 -0.01981 -0.01734
 C69 C 0.95510 -0.03949 -0.03590
 C70 C 0.95530 -0.07789 -0.07229
 C71 C 1.00039 -0.09611 -0.09035
 C72 C 1.04550 -0.07760 -0.07273
 H73 H 1.12554 0.03211 0.03023
 H74 H 1.12550 -0.03221 -0.03212
 H75 H 0.87537 0.03101 0.03205
 H76 H 0.87534 -0.03320 -0.03049
 H77 H 1.00050 0.12548 0.11546
 H78 H 1.00037 -0.12659 -0.11570
 C79 C 0.45442 0.42302 0.42735
 C80 C 0.49952 0.40459 0.40981
 C81 C 0.54463 0.42298 0.42766
 C82 C 0.54488 0.46142 0.46395
 C83 C 0.49956 0.48082 0.48177
 C84 C 0.45421 0.46144 0.46369
 C85 C 0.40985 0.48133 0.48180
 C86 C 0.40987 0.51911 0.51747
 C87 C 0.45425 0.53899 0.53580
 C88 C 0.49958 0.51961 0.51795
 C89 C 0.58927 0.48131 0.48227
 C90 C 0.58929 0.51911 0.51790
 C91 C 0.54492 0.53899 0.53600
 C92 C 0.54471 0.57742 0.57232
 C93 C 0.49962 0.59582 0.58994
 C94 C 0.45450 0.57740 0.57215
 H95 H 0.37446 0.46809 0.46833
 H96 H 0.37449 0.53235 0.53076
 H97 H 0.62464 0.46807 0.46898
 H98 H 0.62467 0.53235 0.53136
 H99 H 0.49949 0.37409 0.38451
 H100 H 0.49964 0.62631 0.61527
 C101 C 0.04473 0.57700 -0.07213
 C102 C -0.00037 0.59539 -0.08964
 C103 C -0.04549 0.57698 -0.07198
 C104 C -0.04573 0.53857 -0.03584
 C105 C -0.00041 0.51920 -0.01810
 C106 C 0.04493 0.53858 -0.03604
 C107 C 0.08930 0.51870 -0.01805
 C108 C 0.08928 0.48092 0.01737
 C109 C 0.04489 0.46104 0.03558
 C110 C -0.00043 0.48042 0.01787
 C111 C -0.09012 0.51869 -0.01763
 C112 C -0.09014 0.48093 0.01783
 C113 C -0.04578 0.46106 0.03584
 C114 C -0.04557 0.42266 0.07199
 C115 C -0.00047 0.40424 0.08944
 C116 C 0.04464 0.42262 0.07169
 H117 H 0.12468 0.53194 -0.03143
 H118 H 0.12465 0.46768 0.03059
 H119 H -0.12550 0.53193 -0.03086
 H120 H -0.12553 0.46769 0.03123
 H121 H -0.00035 0.62588 -0.11478
 H122 H -0.00050 0.37376 0.11460
 C123 C 0.54559 1.07753 0.42735
 C124 C 0.50050 1.09558 0.40907
 C125 C 0.45539 1.07709 0.42659
 C126 C 0.45515 1.03889 0.46320
 C127 C 0.50047 1.01983 0.48162
 C128 C 0.54580 1.03931 0.46390
 C129 C 0.59017 1.01975 0.48258
 C130 C 0.59016 0.98217 0.51845
 C131 C 0.54578 0.96220 0.53648
 C132 C 0.50045 0.98128 0.51810
 C133 C 0.41076 1.01894 0.48126
 C134 C 0.41075 0.98141 0.51723
 C135 C 0.45512 0.96184 0.53591
 C136 C 0.45532 0.92366 0.57256
 C137 C 0.50042 0.90553 0.59065
 C138 C 0.54554 0.92398 0.57304
 H139 H 0.62556 1.03308 0.46939
 H140 H 0.62553 0.96917 0.53218
 H141 H 0.37539 1.03193 0.46752
 H142 H 0.37535 0.96812 0.53049
 H143 H 0.50051 1.12592 0.38355
 H144 H 0.50041 0.87520 0.61617
 C145 C 1.15055 0.16256 0.21317
 C146 C 1.14245 0.14606 0.15592
 C147 C 1.09941 0.11815 0.14387
 C148 C 1.09159 0.10071 0.08725
 H149 H 1.16636 0.15450 0.11701
 H150 H 1.07291 0.11288 0.18118
 H151 H 1.12658 0.15310 0.25154
 H152 H 1.11893 0.10495 0.05071
 C153 C 0.64833 0.66305 0.71500
 C154 C 0.64125 0.64601 0.65799
 C155 C 0.59807 0.61848 0.64509
 C156 C 0.59078 0.60099 0.58839
 H157 H 0.66623 0.65384 0.61994
 H158 H 0.57103 0.61352 0.68186
 H159 H 0.62337 0.65475 0.75286
 H160 H 0.61862 0.60496 0.55239
 C161 C -0.14896 0.33736 0.21475
 C162 C -0.14197 0.35425 0.15774
 C163 C -0.09886 0.38182 0.14480
 C164 C -0.09163 0.39916 0.08810
 H165 H -0.16693 0.34623 0.11970
 H166 H -0.07179 0.38690 0.18153
 H167 H -0.12402 0.34586 0.25260
 H168 H -0.11949 0.39508 0.05212
 C169 C 0.35129 0.83865 0.71504
 C170 C 0.35856 0.85543 0.65801
 C171 C 0.40175 0.88294 0.64524
 C172 C 0.40928 0.90006 0.58847
 H173 H 0.33374 0.84739 0.61984
 H174 H 0.42861 0.88820 0.68219
 H175 H 0.37612 0.84712 0.75301
 H176 H 0.38163 0.89576 0.55228
 C177 C -0.14886 0.66264 -0.21392
 C178 C -0.14185 0.64557 -0.15704
 C179 C -0.09882 0.61797 -0.14439
 C180 C -0.09151 0.60051 -0.08780
 H181 H -0.16673 0.65345 -0.11888
 H182 H -0.07186 0.61296 -0.18126
 H183 H -0.12399 0.65430 -0.25187
 H184 H -0.11925 0.60452 -0.05169
 C185 C 0.35160 1.16179 0.28373
 C186 C 0.35876 1.14492 0.34071
 C187 C 0.40202 1.11765 0.35362
 C188 C 0.40932 1.10040 0.41035
 H189 H 0.33378 1.15273 0.37878
 H190 H 0.42909 1.11269 0.31687
 H191 H 0.37656 1.15354 0.24583
 H192 H 0.38145 1.10441 0.44631
 C193 C 1.15026 -0.16296 -0.21436
 C194 C 1.14224 -0.14643 -0.15712
 C195 C 1.09914 -0.11875 -0.14494
 C196 C 1.09153 -0.10120 -0.08836
 H197 H 1.16626 -0.15469 -0.11828
 H198 H 1.07244 -0.11374 -0.18207
 H199 H 1.12620 -0.15367 -0.25268
 H200 H 1.11909 -0.10518 -0.05202
 C201 C 0.64824 0.33698 0.28582
 C202 C 0.64114 0.35421 0.34269
 C203 C 0.59803 0.38177 0.35529
 C204 C 0.59066 0.39939 0.41187
 H205 H 0.66603 0.34652 0.38086
 H206 H 0.57110 0.38665 0.31837
 H207 H 0.62334 0.34512 0.24785
 H208 H 0.61838 0.39548 0.44801
 C209 C 0.85001 -0.16317 -0.21376
 C210 C 0.85823 -0.14677 -0.15647
 C211 C 0.90142 -0.11907 -0.14433
 C212 C 0.90928 -0.10171 -0.08767
 H213 H 0.83427 -0.15514 -0.11758
 H214 H 0.92795 -0.11382 -0.18162
 H215 H 0.87404 -0.15380 -0.25211
 H216 H 0.88191 -0.10594 -0.05115
 C217 C 0.35100 0.33744 0.28441
 C218 C 0.35800 0.35446 0.34145
 C219 C 0.40111 0.38206 0.35443
 C220 C 0.40836 0.39949 0.41118
 H221 H 0.33305 0.34652 0.37948
 H222 H 0.42818 0.38707 0.31770
 H223 H 0.37594 0.34584 0.24657
 H224 H 0.38051 0.39546 0.44715
 C225 C 0.14818 0.66279 -0.21423
 C226 C 0.14117 0.64570 -0.15735
 C227 C 0.09805 0.61809 -0.14464
 C228 C 0.09079 0.60057 -0.08806
 H229 H 0.16614 0.65355 -0.11925
 H230 H 0.07101 0.61312 -0.18144
 H231 H 0.12323 0.65447 -0.25214
 H232 H 0.11862 0.60455 -0.05204
 C233 C 0.65059 1.16270 0.28596
 C234 C 0.64248 1.14639 0.34323
 C235 C 0.59944 1.11853 0.35532
 C236 C 0.59160 1.10134 0.41198
 H237 H 0.66638 1.15497 0.38213
 H238 H 0.57296 1.11309 0.31800
 H239 H 0.62662 1.15311 0.24760
 H240 H 0.61892 1.10577 0.44853
 C241 C 0.14820 0.33687 0.21334
 C242 C 0.14112 0.35398 0.15650
 C243 C 0.09802 0.38152 0.14395
 C244 C 0.09067 0.39906 0.08742
 H245 H 0.16602 0.34621 0.11833
 H246 H 0.07108 0.38646 0.18086
 H247 H 0.12330 0.34511 0.25132
 H248 H 0.11840 0.39510 0.05128
 C249 C 0.64898 0.83882 0.71567
 C250 C 0.64197 0.85582 0.65874
 C251 C 0.59885 0.88328 0.64590
 C252 C 0.59159 0.90061 0.58921
 H253 H 0.66691 0.84795 0.62066
 H254 H 0.57180 0.88827 0.68267
 H255 H 0.62404 0.84714 0.75357
 H256 H 0.61944 0.89659 0.55323
 C257 C 0.85163 0.16169 0.21539
 C258 C 0.85878 0.14461 0.15844
 C259 C 0.90203 0.11730 0.14556
 C260 C 0.90931 0.09980 0.08887
 H261 H 0.83379 0.15228 0.12036
 H262 H 0.92912 0.11250 0.18230
 H263 H 0.87661 0.15358 0.25329
 H264 H 0.88142 0.10363 0.05292
 C265 C 0.35098 0.66292 0.71467
 C266 C 0.35805 0.64590 0.65766
 C267 C 0.40114 0.61837 0.64483
 C268 C 0.40848 0.60093 0.58812
 H269 H 0.33316 0.65376 0.61956
 H270 H 0.42810 0.61337 0.68167
 H271 H 0.37586 0.65460 0.75257
 H272 H 0.38073 0.60493 0.55203
   
