data_POSCAR
  _audit_creation_date              2014-09-24
  _audit_creation_method            'ToBaCCo'
  _symmetry_space_group_name_H-M    'P1'
  _symmetry_Int_Tables_number       1
  _symmetry_cell_setting            triclinic
  loop_
  _symmetry_equiv_pos_as_xyz
 x,y,z
_cell_length_a 34.2586
_cell_length_b 34.0454
_cell_length_c 40.5778
_cell_angle_alpha 89.163700
_cell_angle_beta 90.424600
_cell_angle_gamma 89.885900
loop_
  _atom_site_label
  _atom_site_type_symbol
  _atom_site_fract_x
  _atom_site_fract_y
  _atom_site_fract_z
C1 C 1.24807 0.24864 0.25054
 C2 C 0.74242 -0.25701 0.24738
 C3 C 0.74097 0.25941 -0.24713
 C4 C 1.24199 -0.23869 -0.25373
 C5 C 0.25512 0.24163 0.75074
 C6 C 0.75862 0.74534 0.75220
 C7 C 0.75368 0.25020 0.24843
 C8 C 0.25274 0.75127 0.25162
 O9 O 1.07260 0.04627 0.02103
 O10 O 0.92083 -0.04522 0.02186
 O11 O 0.95398 0.07439 0.02547
 O12 O 1.03982 -0.07375 0.02703
 O13 O 0.93041 0.01987 0.04255
 O14 O 1.06419 -0.01944 0.04281
 O15 O 0.97385 -0.06598 0.04247
 O16 O 1.01986 0.06730 0.04068
 C17 C 1.05535 0.06311 0.04367
 C18 C 0.93817 -0.06287 0.04465
 C19 C 0.93690 0.05500 0.04742
 C20 C 1.05861 -0.05482 0.04805
 O21 O 1.07110 -0.04696 -0.01885
 O22 O 0.92139 0.04826 -0.01943
 O23 O 1.04082 0.07380 -0.02481
 O24 O 0.95195 -0.07212 -0.02293
 O25 O 0.92921 -0.01717 -0.04030
 O26 O 1.06367 0.01886 -0.04056
 O27 O 1.01751 -0.06662 -0.03833
 O28 O 0.97438 0.06785 -0.04003
 Co29 Co 1.06081 -0.00022 0.00112
 Co30 Co 0.93267 0.00135 0.00115
 Co31 Co 0.99721 0.06425 0.00038
 Co32 Co 0.99589 -0.06303 0.00201
 O33 O 0.99668 0.00059 0.00117
 C34 C 1.05295 -0.06304 -0.04155
 C35 C 0.93861 0.06557 -0.04221
 C36 C 1.05839 0.05427 -0.04601
 C37 C 0.93498 -0.05249 -0.04504
 O38 O 1.07672 0.54420 0.52048
 O39 O 0.92666 0.45188 0.52187
 O40 O 0.95740 0.57206 0.52235
 O41 O 1.04570 0.42387 0.52695
 O42 O 0.93530 0.51768 0.54079
 O43 O 1.06936 0.47859 0.54232
 O44 O 0.97969 0.43184 0.54286
 O45 O 1.02311 0.56569 0.53860
 C46 C 1.05863 0.56218 0.54209
 C47 C 0.94411 0.43566 0.54532
 C48 C 0.94023 0.55323 0.54459
 C49 C 1.06429 0.44318 0.54782
 O50 O 1.07660 0.45062 0.48056
 O51 O 0.92659 0.54361 0.47781
 O52 O 1.04559 0.57111 0.47388
 O53 O 0.95729 0.42328 0.47763
 O54 O 0.93510 0.47779 0.45900
 O55 O 1.06916 0.51636 0.45859
 O56 O 1.02294 0.42920 0.46200
 O57 O 0.97959 0.56332 0.45737
 Co58 Co 1.06586 0.49745 0.50045
 Co59 Co 0.93797 0.49773 0.49990
 Co60 Co 1.00139 0.56131 0.49819
 Co61 Co 1.00138 0.43377 0.50222
 O62 O 1.00171 0.49756 0.50019
 C63 C 1.05842 0.43275 0.45875
 C64 C 0.94400 0.55976 0.45456
 C65 C 1.06419 0.55184 0.45317
 C66 C 0.94004 0.44222 0.45524
 O67 O 0.57985 0.04421 0.52331
 O68 O 0.43208 -0.04754 0.52141
 O69 O 0.45995 0.07278 0.52226
 O70 O 0.55137 -0.07615 0.52290
 O71 O 0.43883 0.01801 0.54017
 O72 O 0.57296 -0.02243 0.54149
 O73 O 0.48558 -0.06915 0.54088
 O74 O 0.52559 0.06553 0.54080
 C75 C 0.56108 0.06166 0.54494
 C76 C 0.45023 -0.06406 0.54439
 C77 C 0.44296 0.05358 0.54427
 C78 C 0.56833 -0.05813 0.54534
 O79 O 0.58069 -0.04592 0.47761
 O80 O 0.43129 0.04402 0.47668
 O81 O 0.55028 0.07406 0.47749
 O82 O 0.46141 -0.07605 0.47660
 O83 O 0.43960 -0.02162 0.45800
 O84 O 0.57291 0.02057 0.45939
 O85 O 0.52687 -0.06778 0.45922
 O86 O 0.48471 0.06644 0.45849
 Co87 Co 0.56970 -0.00093 0.50039
 Co88 Co 0.44226 -0.00172 0.49913
 Co89 Co 0.50516 0.06280 0.49972
 Co90 Co 0.50622 -0.06537 0.49995
 O91 O 0.50585 -0.00129 0.49980
 C92 C 0.56226 -0.06328 0.45555
 C93 C 0.44939 0.06146 0.45440
 C94 C 0.56744 0.05613 0.45528
 C95 C 0.44403 -0.05726 0.45430
 O96 O 0.55051 0.51699 0.04303
 O97 O 0.41834 0.45852 0.02404
 O98 O 0.45648 0.58091 0.01847
 O99 O 0.54006 0.44633 0.03526
 O100 O 0.42035 0.53117 0.03573
 O101 O 0.59167 0.47005 0.01132
 O102 O 0.47288 0.44370 0.04624
 O103 O 0.52790 0.57357 0.02602
 C104 C 0.54499 0.55280 0.04789
 C105 C 0.43699 0.44509 0.04803
 C106 C 0.43142 0.56619 0.03820
 C107 C 0.57649 0.44339 0.03049
 O108 O 0.55340 0.48534 -0.04205
 O109 O 0.41433 0.54591 -0.02599
 O110 O 0.53276 0.55876 -0.04111
 O111 O 0.45647 0.42504 -0.01864
 O112 O 0.42199 0.47426 -0.03861
 O113 O 0.57950 0.54271 -0.01068
 O114 O 0.52591 0.43091 -0.02973
 O115 O 0.46717 0.56569 -0.04758
 Co116 Co 0.54939 0.49985 0.00059
 Co117 Co 0.42564 0.50242 -0.00132
 Co118 Co 0.49588 0.56471 -0.01012
 Co119 Co 0.49809 0.44217 0.00726
 O120 O 0.49001 0.50416 -0.00195
 C121 C 0.54581 0.45098 -0.04935
 C122 C 0.43143 0.56282 -0.04887
 C123 C 0.56789 0.56213 -0.03486
 C124 C 0.43318 0.43936 -0.04017
 N125 N 1.20750 0.20296 0.17425
 C126 C 1.18033 0.17808 0.18657
 N127 N 1.17511 0.17584 0.21963
 N128 N 1.19640 0.19801 0.23973
 C129 C 1.22353 0.22338 0.22751
 N130 N 1.22873 0.22508 0.19430
 C131 C 1.15724 0.15498 0.16455
 C132 C 1.13849 0.13655 0.14489
 C133 C 1.11691 0.11578 0.12028
 N134 N 1.07749 0.11894 0.11845
 N135 N 1.05774 0.10165 0.09425
 C136 C 1.07681 0.08079 0.07104
 N137 N 1.11626 0.07752 0.07306
 N138 N 1.13598 0.09479 0.09725
 N139 N 1.20484 0.71549 0.66884
 C140 C 1.17650 0.69141 0.68039
 N141 N 1.16888 0.69044 0.71310
 N142 N 1.18914 0.71287 0.73368
 C143 C 1.21763 0.73723 0.72230
 N144 N 1.22507 0.73790 0.68941
 C145 C 1.15522 0.66701 0.65818
 C146 C 1.13777 0.64684 0.63895
 C147 C 1.11741 0.62351 0.61536
 N148 N 1.07792 0.62483 0.61330
 N149 N 1.05911 0.60465 0.59025
 C150 C 1.07919 0.58256 0.56851
 N151 N 1.11872 0.58110 0.57076
 N152 N 1.13752 0.60128 0.59382
 N153 N 0.65803 0.21177 0.70782
 C154 C 0.67714 0.18697 0.68764
 N155 N 0.71665 0.18554 0.68880
 N156 N 0.73646 0.20813 0.70956
 C157 C 0.71754 0.23298 0.73002
 N158 N 0.67785 0.23438 0.72859
 C159 C 0.65599 0.16335 0.66457
 C160 C 0.63870 0.14383 0.64466
 C161 C 0.61860 0.12116 0.62028
 N162 N 0.63902 0.09909 0.59881
 N163 N 0.62059 0.07950 0.57515
 C164 C 0.58112 0.08133 0.57218
 N165 N 0.56072 0.10326 0.59385
 N166 N 0.57916 0.12286 0.61751
 N167 N 0.65325 0.69728 0.21014
 C168 C 0.66900 0.67179 0.18859
 N169 N 0.70837 0.66944 0.18613
 N170 N 0.73130 0.69171 0.20479
 C171 C 0.71574 0.71720 0.22664
 N172 N 0.67617 0.71955 0.22880
 C173 C 0.64435 0.64892 0.16751
 C174 C 0.62405 0.63042 0.14895
 C175 C 0.60063 0.60953 0.12553
 N176 N 0.60508 0.57024 0.12179
 N177 N 0.58598 0.55165 0.09788
 C178 C 0.56182 0.57177 0.07696
 N179 N 0.55711 0.61100 0.08107
 N180 N 0.57615 0.62954 0.10496
 N181 N 0.82792 -0.21322 0.20314
 C182 C 0.81030 -0.18837 0.18131
 N183 N 0.77079 -0.18599 0.18070
 N184 N 0.74955 -0.20762 0.20148
 C185 C 0.76704 -0.23239 0.22371
 N186 N 0.80671 -0.23484 0.22391
 C187 C 0.83321 -0.16523 0.15886
 C188 C 0.85238 -0.14601 0.13978
 C189 C 0.87469 -0.12343 0.11651
 N190 N 0.85627 -0.10040 0.09373
 N191 N 0.87671 -0.08058 0.07122
 C192 C 0.91626 -0.08308 0.07073
 N193 N 0.93470 -0.10598 0.09371
 N194 N 0.91423 -0.12584 0.11624
 N195 N 0.82998 0.30226 0.71314
 C196 C 0.81411 0.32597 0.68950
 N197 N 0.77474 0.32856 0.68680
 N198 N 0.75189 0.30807 0.70713
 C199 C 0.76756 0.28425 0.73098
 N200 N 0.80714 0.28176 0.73347
 C201 C 0.83856 0.34673 0.66662
 C202 C 0.85842 0.36376 0.64663
 C203 C 0.88089 0.38362 0.62182
 N204 N 0.86256 0.40505 0.59792
 N205 N 0.88294 0.42206 0.57386
 C206 C 0.92235 0.41820 0.57282
 N207 N 0.94075 0.39690 0.59689
 N208 N 0.92031 0.37984 0.62100
 N209 N 0.33385 -0.19734 0.71032
 C210 C 0.31974 -0.16932 0.68940
 N211 N 0.28071 -0.16311 0.68751
 N212 N 0.25643 -0.18436 0.70599
 C213 C 0.27030 -0.21263 0.72703
 N214 N 0.30958 -0.21858 0.72881
 C215 C 0.34536 -0.14864 0.66757
 C216 C 0.36581 -0.13189 0.64793
 C217 C 0.38833 -0.11258 0.62298
 N218 N 0.37006 -0.09010 0.59978
 N219 N 0.39013 -0.07420 0.57505
 C220 C 0.42914 -0.08033 0.57263
 N221 N 0.44754 -0.10264 0.59604
 N222 N 0.42739 -0.11863 0.62081
 N223 N 0.33430 0.29787 0.21143
 C224 C 0.31682 0.32493 0.19143
 N225 N 0.27738 0.32754 0.19085
 N226 N 0.25599 0.30386 0.20979
 C227 C 0.27324 0.27663 0.23003
 N228 N 0.31290 0.27417 0.23040
 C229 C 0.33947 0.34881 0.16953
 C230 C 0.35768 0.36822 0.15003
 C231 C 0.37824 0.39034 0.12550
 N232 N 0.35815 0.40927 0.10115
 N233 N 0.37702 0.42750 0.07682
 C234 C 0.41661 0.42733 0.07602
 N235 N 0.43671 0.40861 0.10059
 N236 N 0.41781 0.39034 0.12494
 N237 N 0.78649 0.17380 -0.20205
 C238 C 0.80968 0.19190 -0.17977
 N239 N 0.81009 0.23169 -0.17899
 N240 N 0.78825 0.25274 -0.20006
 C241 C 0.76519 0.23480 -0.22275
 N242 N 0.76465 0.19484 -0.22312
 C243 C 0.83321 0.16920 -0.15707
 C244 C 0.85261 0.15009 -0.13777
 C245 C 0.87496 0.12737 -0.11424
 N246 N 0.91455 0.12891 -0.11395
 N247 N 0.93505 0.10870 -0.09134
 C248 C 0.91660 0.08630 -0.06830
 N249 N 0.87700 0.08469 -0.06880
 N250 N 0.85654 0.10486 -0.09139
 N251 N 0.81689 0.71462 0.31093
 C252 C 0.81527 0.67488 0.31091
 N253 N 0.78994 0.65689 0.29025
 N254 N 0.76705 0.67806 0.27006
 C255 C 0.76868 0.71801 0.26980
 N256 N 0.79404 0.73578 0.29078
 C257 C 0.83902 0.65237 0.33348
 C258 C 0.85854 0.63417 0.35326
 C259 C 0.88090 0.61329 0.37787
 N260 N 0.86247 0.59181 0.40140
 N261 N 0.88281 0.57423 0.42550
 C262 C 0.92226 0.57758 0.42694
 N263 N 0.94073 0.59891 0.40322
 N264 N 0.92034 0.61654 0.37909
 N265 N 0.31873 0.21813 0.31632
 C266 C 0.32198 0.17895 0.31172
 N267 N 0.30109 0.16201 0.28727
 N268 N 0.27771 0.18371 0.26790
 C269 C 0.27422 0.22308 0.27246
 N270 N 0.29537 0.23981 0.29701
 C271 C 0.34604 0.15570 0.33347
 C272 C 0.36563 0.13695 0.35282
 C273 C 0.38780 0.11551 0.37716
 N274 N 0.36924 0.09215 0.39931
 N275 N 0.38917 0.07434 0.42353
 C276 C 0.42833 0.07937 0.42648
 N277 N 0.44697 0.10256 0.40411
 N278 N 0.42698 0.12043 0.37986
 N279 N 0.30546 0.72642 -0.18433
 C280 C 0.30674 0.68715 -0.18903
 N281 N 0.28703 0.67162 -0.21479
 N282 N 0.26655 0.69477 -0.23525
 C283 C 0.26494 0.73424 -0.23059
 N284 N 0.28499 0.74956 -0.20476
 C285 C 0.32838 0.66248 -0.16669
 C286 C 0.34663 0.64262 -0.14727
 C287 C 0.36834 0.62017 -0.12339
 N288 N 0.34957 0.59943 -0.09958
 N289 N 0.36977 0.58052 -0.07609
 C290 C 0.40936 0.58186 -0.07562
 N291 N 0.42809 0.60247 -0.09962
 N292 N 0.40788 0.62138 -0.12311
 N293 N 1.19723 -0.15379 -0.21012
 C294 C 1.17058 -0.17202 -0.19074
 N295 N 1.16633 -0.21146 -0.19257
 N296 N 1.18816 -0.23211 -0.21309
 C297 C 1.21501 -0.21412 -0.23264
 N298 N 1.21907 -0.17446 -0.23067
 C299 C 1.14899 -0.15040 -0.16696
 C300 C 1.13140 -0.13312 -0.14607
 C301 C 1.11108 -0.11358 -0.12030
 N302 N 1.07172 -0.11628 -0.11800
 N303 N 1.05309 -0.09980 -0.09302
 C304 C 1.07326 -0.08024 -0.06948
 N305 N 1.11265 -0.07745 -0.07193
 N306 N 1.13126 -0.09392 -0.09691
 N307 N 1.20108 0.33162 0.29505
 C308 C 1.17683 0.31239 0.31592
 N309 N 1.17498 0.27266 0.31509
 N310 N 1.19682 0.25274 0.29401
 C311 C 1.22124 0.27182 0.27291
 N312 N 1.22290 0.31172 0.27400
 C313 C 1.15487 0.33380 0.33962
 C314 C 1.13718 0.35199 0.35992
 C315 C 1.11687 0.37360 0.38452
 N316 N 1.07744 0.37174 0.38659
 N317 N 1.05874 0.39103 0.41006
 C318 C 1.07886 0.41280 0.43220
 N319 N 1.11833 0.41475 0.42997
 N320 N 1.13702 0.39546 0.40650
 N321 N 0.70152 -0.16850 0.28897
 C322 C 0.67825 -0.18514 0.31212
 N323 N 0.67540 -0.22479 0.31391
 N324 N 0.69521 -0.24717 0.29318
 C325 C 0.71856 -0.23074 0.26979
 N326 N 0.72134 -0.19088 0.26822
 C327 C 0.65777 -0.16127 0.33520
 C328 C 0.64069 -0.14195 0.35518
 C329 C 0.62045 -0.11994 0.37967
 N330 N 0.58105 -0.12217 0.38203
 N331 N 0.56242 -0.10348 0.40589
 C332 C 0.58257 -0.08199 0.42821
 N333 N 0.62200 -0.07962 0.42567
 N334 N 0.64063 -0.09831 0.40180
 N335 N 0.66493 0.29112 -0.18754
 C336 C 0.66667 0.33083 -0.18992
 N337 N 0.69247 0.34760 -0.21098
 N338 N 0.71567 0.32532 -0.22921
 C339 C 0.71396 0.28541 -0.22708
 N340 N 0.68812 0.26884 -0.20575
 C341 C 0.64264 0.35467 -0.16927
 C342 C 0.62286 0.37382 -0.15095
 C343 C 0.59997 0.39524 -0.12769
 N344 N 0.60781 0.43348 -0.12140
 N345 N 0.58920 0.45201 -0.09738
 C346 C 0.56213 0.43289 -0.07887
 N347 N 0.55403 0.39479 -0.08555
 N348 N 0.57258 0.37631 -0.10955
 N349 N 1.16466 0.19871 -0.21178
 C350 C 1.17966 0.16966 -0.19227
 N351 N 1.21867 0.16312 -0.19225
 N352 N 1.24205 0.18519 -0.21089
 C353 C 1.22736 0.21480 -0.23018
 N354 N 1.18806 0.22079 -0.23046
 C355 C 1.15514 0.14810 -0.16992
 C356 C 1.13555 0.13063 -0.14999
 C357 C 1.11344 0.11058 -0.12501
 N358 N 1.11691 0.07117 -0.12058
 N359 N 1.09866 0.05303 -0.09579
 C360 C 1.07644 0.07374 -0.07454
 N361 N 1.07281 0.11316 -0.07918
 N362 N 1.09104 0.13128 -0.10397
 N363 N 1.18167 0.71565 0.31267
 C364 C 1.18619 0.67618 0.31153
 N365 N 1.21239 0.66098 0.29028
 N366 N 1.23336 0.68458 0.27075
 C367 C 1.22890 0.72441 0.27160
 N368 N 1.20257 0.73922 0.29321
 C369 C 1.16427 0.65124 0.33355
 C370 C 1.14561 0.63187 0.35301
 C371 C 1.12326 0.61063 0.37732
 N372 N 1.12745 0.57122 0.38151
 N373 N 1.10801 0.55220 0.40523
 C374 C 1.08377 0.57198 0.42556
 N375 N 1.07951 0.61137 0.42113
 N376 N 1.09889 0.63034 0.39744
 N377 N 0.66463 0.20978 0.29001
 C378 C 0.68025 0.18084 0.30933
 N379 N 0.71919 0.17417 0.30838
 N380 N 0.74187 0.19570 0.28876
 C381 C 0.72652 0.22474 0.26924
 N382 N 0.68736 0.23138 0.27031
 C383 C 0.65656 0.15867 0.33191
 C384 C 0.63819 0.14000 0.35193
 C385 C 0.61787 0.11805 0.37692
 N386 N 0.62261 0.07856 0.37977
 N387 N 0.60601 0.05860 0.40445
 C388 C 0.58428 0.07752 0.42716
 N389 N 0.57942 0.11701 0.42411
 N390 N 0.59600 0.13694 0.39945
 N391 N 0.67895 0.70242 -0.19575
 C392 C 0.69932 0.67874 -0.17463
 N393 N 0.73850 0.67568 -0.17802
 N394 N 0.75678 0.69608 -0.20152
 C395 C 0.73666 0.72038 -0.22253
 N396 N 0.69725 0.72283 -0.21925
 C397 C 0.67960 0.65783 -0.14864
 C398 C 0.66191 0.64085 -0.12715
 C399 C 0.63865 0.62131 -0.10259
 N400 N 0.65521 0.60205 -0.07642
 N401 N 0.63294 0.58351 -0.05424
 C402 C 0.59344 0.58377 -0.05759
 N403 N 0.57715 0.60321 -0.08371
 N404 N 0.59931 0.62167 -0.10577
 N405 N 0.80145 -0.16235 -0.21357
 C406 C 0.82830 -0.17687 -0.19191
 N407 N 0.83327 -0.21624 -0.18914
 N408 N 0.81185 -0.24045 -0.20726
 C409 C 0.78445 -0.22625 -0.22875
 N410 N 0.78003 -0.18660 -0.23174
 C411 C 0.84906 -0.15140 -0.17019
 C412 C 0.86608 -0.13161 -0.15039
 C413 C 0.88583 -0.11029 -0.12511
 N414 N 0.90888 -0.12985 -0.10311
 N415 N 0.92506 -0.11109 -0.07795
 C416 C 0.91866 -0.07213 -0.07387
 N417 N 0.89579 -0.05243 -0.09608
 N418 N 0.87953 -0.07127 -0.12127
 N419 N 0.82761 0.32238 0.27903
 C420 C 0.82098 0.32198 0.31193
 N421 N 0.79230 0.29887 0.32422
 N422 N 0.77102 0.27661 0.30430
 C423 C 0.77764 0.27643 0.27128
 N424 N 0.80628 0.30008 0.25907
 C425 C 0.84441 0.34492 0.33384
 C426 C 0.86344 0.36323 0.35340
 C427 C 0.88521 0.38394 0.37795
 N428 N 0.90742 0.36379 0.40024
 N429 N 0.92555 0.38253 0.42452
 C430 C 0.92200 0.42205 0.42735
 N431 N 0.89996 0.44222 0.40485
 N432 N 0.88180 0.42346 0.38057
 N433 N 0.32164 -0.17338 0.28090
 C434 C 0.32326 -0.18122 0.31371
 N435 N 0.30214 -0.21147 0.32614
 N436 N 0.27977 -0.23301 0.30646
 C437 C 0.27727 -0.22512 0.27344
 N438 N 0.29925 -0.19496 0.26119
 C439 C 0.34667 -0.15771 0.33533
 C440 C 0.36570 -0.13873 0.35450
 C441 C 0.38769 -0.11725 0.37854
 N442 N 0.41073 -0.13676 0.40062
 N443 N 0.42927 -0.11740 0.42433
 C444 C 0.42540 -0.07786 0.42682
 N445 N 0.40251 -0.05830 0.40453
 N446 N 0.38392 -0.07769 0.38081
 N447 N 0.32837 0.31196 -0.21492
 C448 C 0.32451 0.30618 -0.18195
 N449 N 0.29788 0.27995 -0.17080
 N450 N 0.27606 0.25982 -0.19190
 C451 C 0.27993 0.26506 -0.22503
 N452 N 0.30650 0.29177 -0.23608
 C453 C 0.34717 0.32842 -0.15885
 C454 C 0.36487 0.34731 -0.13873
 C455 C 0.38414 0.37072 -0.11433
 N456 N 0.40924 0.35428 -0.09201
 N457 N 0.42538 0.37603 -0.06844
 C458 C 0.41676 0.41489 -0.06639
 N459 N 0.39175 0.43116 -0.08887
 N460 N 0.37569 0.40948 -0.11237
 N461 N 1.16605 -0.20329 0.21185
 C462 C 1.18265 -0.17662 0.19125
 N463 N 1.22202 -0.17321 0.19095
 N464 N 1.24413 -0.19572 0.21071
 C465 C 1.22785 -0.22253 0.23178
 N466 N 1.18815 -0.22580 0.23162
 C467 C 1.15903 -0.15378 0.16870
 C468 C 1.13958 -0.13527 0.14901
 C469 C 1.11700 -0.11411 0.12463
 N470 N 1.12112 -0.07470 0.12066
 N471 N 1.10182 -0.05556 0.09669
 C472 C 1.07780 -0.07521 0.07589
 N473 N 1.07355 -0.11460 0.08009
 N474 N 1.09282 -0.13372 0.10405
 N475 N 1.18658 0.32153 0.72268
 C476 C 1.18990 0.32029 0.68942
 N477 N 1.21503 0.29430 0.67609
 N478 N 1.23588 0.27005 0.69532
 C479 C 1.23237 0.27060 0.72869
 N480 N 1.20752 0.29723 0.74197
 C481 C 1.16611 0.34479 0.66817
 C482 C 1.14640 0.36390 0.64901
 C483 C 1.12337 0.38497 0.62477
 N484 N 1.09903 0.36510 0.60449
 N485 N 1.07956 0.38389 0.58046
 C486 C 1.08376 0.42322 0.57582
 N487 N 1.10795 0.44316 0.59632
 N488 N 1.12747 0.42433 0.62037
 N489 N 0.68143 -0.18433 0.72189
 C490 C 0.68452 -0.18716 0.68871
 N491 N 0.71072 -0.21259 0.67612
 N492 N 0.73335 -0.23435 0.69601
 C493 C 0.73064 -0.23169 0.72935
 N494 N 0.70409 -0.20615 0.74183
 C495 C 0.66126 -0.16295 0.66687
 C496 C 0.64272 -0.14323 0.64735
 C497 C 0.62163 -0.12080 0.62276
 N498 N 0.59915 -0.13942 0.60027
 N499 N 0.58165 -0.11921 0.57599
 C500 C 0.58608 -0.07967 0.57328
 N501 N 0.60842 -0.06099 0.59596
 N502 N 0.62597 -0.08125 0.62027
 N503 N 0.69003 0.27805 0.17666
 C504 C 0.69576 0.31731 0.17393
 N505 N 0.71868 0.33536 0.19646
 N506 N 0.73598 0.31461 0.22057
 C507 C 0.73093 0.27503 0.22315
 N508 N 0.70731 0.25732 0.20075
 C509 C 0.67783 0.33930 0.14739
 C510 C 0.66191 0.35715 0.12517
 C511 C 0.64107 0.37778 0.09939
 N512 N 0.65964 0.40262 0.07822
 N513 N 0.63946 0.42286 0.05535
 C514 C 0.60010 0.41876 0.05294
 N515 N 0.58182 0.39363 0.07399
 N516 N 0.60192 0.37345 0.09674
 N517 N 0.84202 0.20152 0.21326
 C518 C 0.82557 0.17466 0.19316
 N519 N 0.78621 0.17183 0.19156
 N520 N 0.76388 0.19529 0.20939
 C521 C 0.78003 0.22271 0.22933
 N522 N 0.81964 0.22500 0.23115
 C523 C 0.84911 0.15170 0.17170
 C524 C 0.86763 0.13318 0.15219
 C525 C 0.88816 0.11229 0.12734
 N526 N 0.88241 0.07324 0.12342
 N527 N 0.89867 0.05464 0.09831
 C528 C 0.92100 0.07460 0.07623
 N529 N 0.92694 0.11362 0.08039
 N530 N 0.91071 0.13218 0.10549
 N531 N 0.78829 0.66425 0.69664
 C532 C 0.82619 0.67286 0.69052
 N533 N 0.84261 0.70439 0.70512
 N534 N 0.82176 0.72669 0.72519
 C535 C 0.78370 0.71826 0.73147
 N536 N 0.76742 0.68655 0.71672
 C537 C 0.84791 0.65041 0.66723
 C538 C 0.86577 0.63233 0.64691
 C539 C 0.88647 0.61168 0.62185
 N540 N 0.90825 0.63179 0.59955
 N541 N 0.92593 0.61302 0.57523
 C542 C 0.92239 0.57350 0.57237
 N543 N 0.90073 0.55339 0.59485
 N544 N 0.88304 0.57218 0.61918
 N545 N 0.34209 0.19516 0.71119
 C546 C 0.32495 0.17056 0.68947
 N547 N 0.28549 0.16837 0.68827
 N548 N 0.26379 0.19030 0.70798
 C549 C 0.28071 0.21541 0.72959
 N550 N 0.32038 0.21710 0.73094
 C551 C 0.34803 0.14873 0.66667
 C552 C 0.36667 0.13103 0.64659
 C553 C 0.38799 0.11076 0.62165
 N554 N 0.38502 0.07123 0.61874
 N555 N 0.40308 0.05283 0.59438
 C556 C 0.42460 0.07337 0.57208
 N557 N 0.42768 0.11290 0.57518
 N558 N 0.40965 0.13128 0.59954
 N559 N 0.28070 0.69027 0.18163
 C560 C 0.32021 0.69119 0.18316
 N561 N 0.33780 0.71080 0.20800
 N562 N 0.31651 0.72943 0.23032
 C563 C 0.27671 0.72921 0.22873
 N564 N 0.25940 0.70887 0.20390
 C565 C 0.34290 0.67153 0.15862
 C566 C 0.36071 0.65426 0.13769
 C567 C 0.38015 0.63209 0.11270
 N568 N 0.40640 0.64916 0.09206
 N569 N 0.42317 0.62836 0.06833
 C570 C 0.41411 0.58984 0.06446
 N571 N 0.38792 0.57298 0.08524
 N572 N 0.37124 0.59369 0.10888
   
