data_POSCAR
  _audit_creation_date              2014-09-24
  _audit_creation_method            'ToBaCCo'
  _symmetry_space_group_name_H-M    'P1'
  _symmetry_Int_Tables_number       1
  _symmetry_cell_setting            triclinic
  loop_
  _symmetry_equiv_pos_as_xyz
 x,y,z
_cell_length_a 42.2865
_cell_length_b 42.4780
_cell_length_c 42.3331
_cell_angle_alpha 89.996100
_cell_angle_beta 89.955900
_cell_angle_gamma 89.963700
loop_
  _atom_site_label
  _atom_site_type_symbol
  _atom_site_fract_x
  _atom_site_fract_y
  _atom_site_fract_z
N1 N 0.13881 0.16128 0.22660
 N2 N 0.16088 0.13951 0.22641
 C3 C 0.15602 0.11980 0.25089
 C4 C 0.12940 0.12976 0.26749
 C5 C 0.11923 0.15626 0.25112
 H6 H 0.17083 0.09974 0.25611
 H7 H 0.09911 0.17101 0.25645
 Cu8 Cu 0.19355 0.13941 0.19385
 Cu9 Cu 0.13680 0.19472 0.19511
 Cu10 Cu 0.19492 0.19446 0.13716
 N11 N 0.22621 0.13924 0.16125
 N12 N 0.22645 0.16095 0.13916
 C13 C 0.25100 0.15579 0.11961
 C14 C 0.26735 0.12926 0.12982
 C15 C 0.25068 0.11943 0.15645
 H16 H 0.25636 0.17046 0.09948
 H17 H 0.25585 0.09940 0.17129
 N18 N 0.16102 0.22640 0.13914
 N19 N 0.13893 0.22650 0.16116
 C20 C 0.11941 0.25107 0.15612
 C21 C 0.12961 0.26733 0.12960
 C22 C 0.15611 0.25089 0.11954
 H23 H 0.09925 0.25667 0.17075
 H24 H 0.17082 0.25631 0.09941
 H25 H 0.15896 0.17004 0.15953
 H26 H 0.18441 0.19542 0.18490
 N27 N -0.13909 0.83881 0.22661
 N28 N -0.16115 0.86059 0.22647
 C29 C -0.15621 0.88035 0.25088
 C30 C -0.12960 0.87036 0.26728
 C31 C -0.11945 0.84388 0.25104
 H32 H -0.17089 0.90046 0.25626
 H33 H -0.09929 0.82923 0.25645
 Cu34 Cu -0.19380 0.86076 0.19403
 Cu35 Cu -0.13717 0.80540 0.19523
 Cu36 Cu -0.19540 0.80545 0.13748
 N37 N -0.22654 0.86068 0.16165
 N38 N -0.22692 0.83896 0.13957
 C39 C -0.25157 0.84417 0.12019
 C40 C -0.26779 0.87075 0.13052
 C41 C -0.25096 0.88054 0.15701
 H42 H -0.25709 0.82952 0.10009
 H43 H -0.25599 0.90058 0.17188
 N44 N -0.16146 0.77356 0.13946
 N45 N -0.13936 0.77360 0.16143
 C46 C -0.11978 0.74909 0.15652
 C47 C -0.12992 0.73267 0.13012
 C48 C -0.15647 0.74897 0.11997
 H49 H -0.09962 0.74364 0.17117
 H50 H -0.17116 0.74338 0.09989
 H51 H -0.15943 0.82998 0.15958
 H52 H -0.18486 0.80473 0.18516
 N53 N -0.13960 0.16110 -0.22641
 N54 N -0.16165 0.13933 -0.22611
 C55 C -0.15684 0.11955 -0.25051
 C56 C -0.13035 0.12947 -0.26713
 C57 C -0.12009 0.15598 -0.25100
 H58 H -0.17156 0.09945 -0.25575
 H59 H -0.09998 0.17060 -0.25662
 Cu60 Cu -0.19425 0.13915 -0.19359
 Cu61 Cu -0.13769 0.19456 -0.19495
 Cu62 Cu -0.19583 0.19423 -0.13695
 N63 N -0.22686 0.13898 -0.16105
 N64 N -0.22726 0.16065 -0.13893
 C65 C -0.25186 0.15534 -0.11946
 C66 C -0.26801 0.12874 -0.12980
 C67 C -0.25120 0.11906 -0.15636
 H68 H -0.25740 0.16995 -0.09933
 H69 H -0.25619 0.09904 -0.17127
 N70 N -0.16200 0.22622 -0.13899
 N71 N -0.13992 0.22635 -0.16102
 C72 C -0.12045 0.25094 -0.15601
 C73 C -0.13069 0.26721 -0.12950
 C74 C -0.15714 0.25073 -0.11941
 H75 H -0.10032 0.25655 -0.17066
 H76 H -0.17186 0.25615 -0.09928
 H77 H -0.15978 0.16990 -0.15929
 H78 H -0.18533 0.19518 -0.18469
 N79 N 0.13961 0.83914 -0.22650
 N80 N 0.16181 0.86077 -0.22607
 C81 C 0.15721 0.88064 -0.25045
 C82 C 0.13071 0.87094 -0.26716
 C83 C 0.12023 0.84446 -0.25111
 H84 H 0.17208 0.90066 -0.25560
 H85 H 0.10002 0.82999 -0.25680
 Cu86 Cu 0.19427 0.86056 -0.19340
 Cu87 Cu 0.13730 0.80560 -0.19516
 Cu88 Cu 0.19509 0.80524 -0.13695
 N89 N 0.22674 0.86039 -0.16069
 N90 N 0.22679 0.83860 -0.13868
 C91 C 0.25128 0.84358 -0.11903
 C92 C 0.26777 0.87007 -0.12911
 C93 C 0.25126 0.88006 -0.15574
 H94 H 0.25650 0.82881 -0.09894
 H95 H 0.25656 0.90012 -0.17050
 N96 N 0.16104 0.77350 -0.13923
 N97 N 0.13910 0.77366 -0.16136
 C98 C 0.11941 0.74922 -0.15657
 C99 C 0.12932 0.73273 -0.13011
 C100 C 0.15585 0.74892 -0.11979
 H101 H 0.09932 0.74386 -0.17136
 H102 H 0.17038 0.74327 -0.09961
 H103 H 0.15938 0.82997 -0.15934
 H104 H 0.18486 0.80457 -0.18472
 N105 N 0.16178 1.13949 0.77376
 N106 N 0.13992 1.16147 0.77389
 C107 C 0.12026 1.15669 0.74931
 C108 C 0.13034 1.13023 0.73285
 C109 C 0.15682 1.12003 0.74922
 H110 H 0.10016 1.17140 0.74384
 H111 H 0.17154 1.09996 0.74381
 Cu112 Cu 0.13959 1.19404 0.80634
 Cu113 Cu 0.19515 1.13747 0.80529
 Cu114 Cu 0.19490 1.19526 0.86320
 N115 N 0.13965 1.22642 0.83898
 N116 N 0.16142 1.22661 0.86109
 C117 C 0.15632 1.25109 0.88057
 C118 C 0.12982 1.26734 0.87026
 C119 C 0.11989 1.25089 0.84371
 H120 H 0.17096 1.25654 0.90072
 H121 H 0.09983 1.25630 0.82889
 N122 N 0.22676 1.16148 0.86127
 N123 N 0.22686 1.13951 0.83926
 C124 C 0.25143 1.12000 0.84437
 C125 C 0.26766 1.13013 0.87090
 C126 C 0.25124 1.15653 0.88094
 H127 H 0.25703 1.09991 0.82976
 H128 H 0.25667 1.17116 0.90107
 H129 H 0.17029 1.15965 0.84088
 H130 H 0.19585 1.18499 0.81551
 N131 N 0.83921 0.86084 0.77353
 N132 N 0.86144 0.83926 0.77398
 C133 C 0.88117 0.84413 0.74944
 C134 C 0.87074 0.87027 0.73270
 C135 C 0.84398 0.88015 0.74883
 H136 H 0.90157 0.82972 0.74423
 H137 H 0.82897 0.89994 0.74317
 Cu138 Cu 0.86236 0.80705 0.80675
 Cu139 Cu 0.80573 0.86262 0.80495
 Cu140 Cu 0.80563 0.80481 0.86262
 N141 N 0.86137 0.77420 0.83885
 N142 N 0.83915 0.77354 0.86054
 C143 C 0.84398 0.74873 0.87968
 C144 C 0.87074 0.73279 0.86954
 C145 C 0.88110 0.74974 0.84348
 H146 H 0.82901 0.74286 0.89950
 H147 H 0.90147 0.74470 0.82892
 N148 N 0.77375 0.83854 0.86069
 N149 N 0.77383 0.86054 0.83871
 C150 C 0.74932 0.88012 0.84374
 C151 C 0.73289 0.87005 0.87019
 C152 C 0.74917 0.84357 0.88028
 H153 H 0.74391 0.90025 0.82913
 H154 H 0.74360 0.82896 0.90041
 H155 H 0.83039 0.84060 0.84094
 H156 H 0.80583 0.81484 0.81491
 N157 N 0.16062 0.85995 1.22598
 N158 N 0.13877 0.83801 1.22575
 C159 C 0.11894 0.84278 1.25020
 C160 C 0.12891 0.86918 1.26672
 C161 C 0.15549 0.87941 1.25051
 H162 H 0.09883 0.82805 1.25555
 H163 H 0.17017 0.89946 1.25604
 Cu164 Cu 0.13874 0.80537 1.19352
 Cu165 Cu 0.19417 0.86181 1.19454
 Cu166 Cu 0.19410 0.80396 1.13665
 N167 N 0.13867 0.77316 1.16087
 N168 N 0.16048 0.77278 1.13877
 C169 C 0.15527 0.74827 1.11937
 C170 C 0.12868 0.73225 1.12978
 C171 C 0.11879 0.74884 1.15624
 H172 H 0.16990 0.74262 1.09922
 H173 H 0.09871 0.74362 1.17111
 N174 N 0.22603 0.83764 1.13868
 N175 N 0.22606 0.85963 1.16068
 C176 C 0.25067 0.87908 1.15564
 C177 C 0.26701 0.86891 1.12915
 C178 C 0.25061 0.84253 1.11908
 H179 H 0.25621 0.89916 1.17024
 H180 H 0.25610 0.82789 1.09896
 H181 H 0.16943 0.83953 1.15886
 H182 H 0.19497 0.81421 1.18426
 N183 N 0.83927 1.14014 1.22625
 N184 N 0.86093 1.16226 1.22587
 C185 C 0.88088 1.15769 1.25025
 C186 C 0.87117 1.13125 1.26689
 C187 C 0.84462 1.12080 1.25082
 H188 H 0.90095 1.17253 1.25542
 H189 H 0.83013 1.10064 1.25645
 Cu190 Cu 0.86079 1.19465 1.19334
 Cu191 Cu 0.80566 1.13790 1.19494
 Cu192 Cu 0.80507 1.19546 1.13680
 N193 N 0.86032 1.22685 1.16066
 N194 N 0.83844 1.22690 1.13867
 C195 C 0.84337 1.25132 1.11908
 C196 C 0.86986 1.26763 1.12923
 C197 C 0.87999 1.25131 1.15575
 H198 H 0.82863 1.25669 1.09897
 H199 H 0.90015 1.25676 1.17042
 N200 N 0.77339 1.16156 1.13910
 N201 N 0.77363 1.13968 1.16121
 C202 C 0.74917 1.12001 1.15641
 C203 C 0.73262 1.12990 1.12997
 C204 C 0.74876 1.15637 1.11966
 H205 H 0.74386 1.09997 1.17116
 H206 H 0.74305 1.17086 1.09949
 H207 H 0.83010 1.16019 1.15897
 H208 H 0.80455 1.18544 1.18439
 O209 O 0.45521 1.05680 1.05582
 O210 O 0.42074 1.02637 1.02714
 C211 C 0.42693 1.04811 1.04764
 O212 O 0.54462 1.05445 0.94282
 O213 O 0.57914 1.02561 0.97311
 C214 C 0.57291 1.04607 0.95132
 O215 O 0.45561 1.05692 0.94531
 O216 O 0.42096 1.02681 0.97422
 C217 C 0.42735 1.04845 0.95370
 O218 O 0.54432 1.05471 1.05794
 O219 O 0.57896 1.02582 1.02776
 C220 C 0.57260 1.04638 1.04940
 Zr221 Zr 0.49985 1.03945 1.04044
 O222 O 0.50297 1.08919 1.04000
 O223 O 0.49664 1.03937 1.09035
 Zr224 Zr 0.50006 1.03935 0.96048
 O225 O 0.50335 1.08909 0.96063
 O226 O 0.49684 1.03908 0.91058
 O227 O 0.47172 1.04558 1.00043
 O228 O 0.52737 1.04511 1.00047
 O229 O 0.54452 0.94464 1.05825
 O230 O 0.57908 0.97347 1.02799
 C231 C 0.57281 0.95301 1.04976
 O232 O 0.45548 0.94217 0.94516
 O233 O 0.42092 0.97231 0.97412
 C234 C 0.42718 0.95069 0.95349
 O235 O 0.54451 0.94443 0.94308
 O236 O 0.57905 0.97328 0.97331
 C237 C 0.57275 0.95277 0.95164
 O238 O 0.45543 0.94219 1.05555
 O239 O 0.42086 0.97238 1.02661
 C240 C 0.42718 0.95068 1.04710
 Zr241 Zr 0.49998 0.95974 1.04052
 O242 O 0.50332 0.91001 1.04036
 O243 O 0.49661 0.95999 1.09042
 Zr244 Zr 0.49999 0.95960 0.96062
 O245 O 0.50322 0.90986 0.96125
 O246 O 0.49689 0.95954 0.91071
 Zr247 Zr 0.45300 0.99959 1.00045
 Zr248 Zr 0.54695 0.99954 1.00053
 O249 O 0.52743 0.95397 1.00059
 O250 O 0.47176 0.95358 1.00056
 O251 O 0.52811 0.99962 1.04666
 O252 O 0.47264 0.99951 0.95476
 O253 O 0.47252 0.99958 1.04619
 O254 O 0.52822 0.99945 0.95439
 H255 H 0.54163 1.06361 1.00039
 H256 H 0.45841 0.99951 0.93618
 H257 H 0.54172 0.93547 1.00067
 H258 H 0.45828 0.99952 1.06479
 H259 H 0.51470 1.02639 0.90246
 H260 H 0.51460 0.97238 0.90255
 H261 H 0.48491 0.90181 0.97335
 H262 H 0.48552 0.90187 1.02760
 H263 H 0.51440 0.97272 1.09857
 H264 H 0.51454 1.02676 1.09850
 H265 H 0.48478 1.09725 1.02774
 H266 H 0.48557 1.09723 0.97345
 O267 O 0.05474 0.54443 -0.05770
 O268 O 0.02558 0.57877 -0.02751
 C269 C 0.04625 0.57257 -0.04918
 O270 O -0.05816 0.45571 -0.05548
 O271 O -0.02783 0.42131 -0.02659
 C272 C -0.04959 0.42755 -0.04713
 O273 O -0.05572 0.54438 -0.05784
 O274 O -0.02686 0.57874 -0.02747
 C275 C -0.04733 0.57250 -0.04927
 O276 O 0.05713 0.45573 -0.05553
 O277 O 0.02693 0.42132 -0.02652
 C278 C 0.04861 0.42758 -0.04715
 Zr279 Zr 0.03952 0.50004 -0.04020
 O280 O 0.03932 0.49694 -0.09011
 O281 O 0.08948 0.50325 -0.03992
 Zr282 Zr -0.04055 0.50003 -0.04025
 O283 O -0.04023 0.49683 -0.09016
 O284 O -0.09051 0.50329 -0.04005
 O285 O -0.00053 0.52811 -0.04633
 O286 O -0.00049 0.47275 -0.04600
 O287 O 0.05691 0.45557 0.05504
 O288 O 0.02629 0.42122 0.02644
 C289 C 0.04817 0.42743 0.04686
 O290 O -0.05593 0.54431 0.05739
 O291 O -0.02685 0.57871 0.02725
 C292 C -0.04747 0.57245 0.04893
 O293 O -0.05816 0.45570 0.05494
 O294 O -0.02788 0.42131 0.02589
 C295 C -0.04957 0.42758 0.04652
 O296 O 0.05454 0.54427 0.05737
 O297 O 0.02608 0.57869 0.02665
 C298 C 0.04635 0.57241 0.04862
 Zr299 Zr 0.03939 0.49995 0.03978
 O300 O 0.03905 0.49669 0.08969
 O301 O 0.08935 0.50319 0.03967
 Zr302 Zr -0.04066 0.50002 0.03971
 O303 O -0.04060 0.49677 0.08962
 O304 O -0.09063 0.50325 0.03936
 Zr305 Zr -0.00063 0.54676 -0.00016
 Zr306 Zr -0.00052 0.45325 -0.00030
 O307 O -0.00064 0.47272 0.04544
 O308 O -0.00065 0.52806 0.04597
 O309 O 0.04568 0.47190 -0.00023
 O310 O -0.04639 0.52732 -0.00025
 O311 O 0.04516 0.52726 -0.00019
 O312 O -0.04674 0.47194 -0.00029
 H313 H -0.00047 0.45856 -0.06457
 H314 H -0.06496 0.54156 -0.00023
 H315 H -0.00069 0.45859 0.06406
 H316 H 0.06378 0.54141 -0.00021
 H317 H -0.09866 0.48556 -0.02728
 H318 H -0.09875 0.48527 0.02695
 H319 H -0.02782 0.51448 0.09779
 H320 H 0.02650 0.51459 0.09784
 H321 H 0.09754 0.48538 0.02702
 H322 H 0.09760 0.48543 -0.02725
 H323 H 0.02666 0.51479 -0.09820
 H324 H -0.02763 0.51470 -0.09828
 O325 O 1.05557 -0.05701 0.45521
 O326 O 1.02668 -0.02676 0.42070
 C327 C 1.04711 -0.04855 0.42698
 O328 O 0.94313 -0.05461 0.54429
 O329 O 0.97333 -0.02566 0.57875
 C330 C 0.95171 -0.04628 0.57251
 O331 O 0.94521 -0.05675 0.45542
 O332 O 0.97419 -0.02668 0.42083
 C333 C 0.95358 -0.04827 0.42717
 O334 O 1.05827 -0.05443 0.54416
 O335 O 1.02802 -0.02555 0.57872
 C336 C 1.04976 -0.04605 0.57241
 Zr337 Zr 1.04063 -0.03927 0.49970
 O338 O 1.04063 -0.08900 0.50303
 O339 O 1.09058 -0.03888 0.49628
 Zr340 Zr 0.96057 -0.03925 0.49982
 O341 O 0.96084 -0.08899 0.50300
 O342 O 0.91060 -0.03893 0.49672
 O343 O 1.00057 -0.04542 0.47161
 O344 O 1.00063 -0.04497 0.52714
 O345 O 1.05814 0.05574 0.54407
 O346 O 1.02795 0.02685 0.57864
 C347 C 1.04959 0.04742 0.57232
 O348 O 0.94547 0.05809 0.45529
 O349 O 0.97433 0.02783 0.42073
 C350 C 0.95388 0.04961 0.42704
 O351 O 0.94289 0.05553 0.54425
 O352 O 0.97324 0.02674 0.57877
 C353 C 0.95143 0.04717 0.57248
 O354 O 1.05592 0.05783 0.45514
 O355 O 1.02684 0.02775 0.42070
 C356 C 1.04750 0.04932 0.42691
 Zr357 Zr 1.04058 0.04041 0.49964
 O358 O 1.04022 0.09016 0.50278
 O359 O 1.09055 0.04017 0.49640
 Zr360 Zr 0.96054 0.04042 0.49976
 O361 O 0.96063 0.09016 0.50306
 O362 O 0.91058 0.04014 0.49648
 Zr363 Zr 1.00054 0.00055 0.45281
 Zr364 Zr 1.00061 0.00060 0.54667
 O365 O 1.00057 0.04615 0.52709
 O366 O 1.00055 0.04655 0.47153
 O367 O 1.04680 0.00059 0.52785
 O368 O 0.95478 0.00059 0.47240
 O369 O 1.04633 0.00054 0.47226
 O370 O 0.95440 0.00060 0.52799
 H371 H 1.00069 -0.06349 0.54136
 H372 H 0.93620 0.00064 0.45815
 H373 H 1.00052 0.06466 0.54132
 H374 H 1.06488 0.00046 0.45795
 H375 H 0.90248 -0.02657 0.51479
 H376 H 0.90243 0.02751 0.51434
 H377 H 0.97358 0.09829 0.48539
 H378 H 1.02785 0.09824 0.48468
 H379 H 1.09869 0.02764 0.51433
 H380 H 1.09874 -0.02645 0.51427
 H381 H 1.02755 -0.09716 0.48549
 H382 H 0.97333 -0.09710 0.48498
 C383 C 1.08880 0.08976 0.34986
 C384 C 1.11561 0.07608 0.33620
 C385 C 1.12903 0.08917 0.30898
 C386 C 1.11582 0.11628 0.29485
 C387 C 1.08862 0.12962 0.30892
 C388 C 1.07532 0.11646 0.33610
 C389 C 1.07468 0.07606 0.37760
 C390 C 1.06247 0.06425 0.40045
 H391 H 1.12612 0.05522 0.34654
 H392 H 1.14973 0.07781 0.29924
 H393 H 1.07730 0.15026 0.29918
 H394 H 1.05440 0.12710 0.34636
 C395 C 0.91205 -0.08889 0.35054
 C396 C 0.88518 -0.07519 0.33703
 C397 C 0.87163 -0.08834 0.30995
 C398 C 0.88482 -0.11542 0.29596
 C399 C 0.91199 -0.12885 0.30974
 C400 C 0.92546 -0.11566 0.33679
 C401 C 0.92631 -0.07514 0.37811
 C402 C 0.93859 -0.06326 0.40083
 H403 H 0.87474 -0.05430 0.34739
 H404 H 0.85088 -0.07717 0.30012
 H405 H 0.92303 -0.14954 0.29978
 H406 H 0.94642 -0.12632 0.34693
 C407 C 0.91029 0.08807 0.64930
 C408 C 0.92396 0.11488 0.66272
 C409 C 0.91082 0.12831 0.68988
 C410 C 0.88376 0.11508 0.70408
 C411 C 0.87034 0.08798 0.69038
 C412 C 0.88353 0.07460 0.66322
 C413 C 0.92414 0.07397 0.62166
 C414 C 0.93620 0.06191 0.59887
 H415 H 0.94484 0.12537 0.65226
 H416 H 0.92202 0.14902 0.69961
 H417 H 0.84967 0.07694 0.70051
 H418 H 0.87291 0.05369 0.65314
 C419 C 1.09055 -0.08729 0.64924
 C420 C 1.11734 -0.07401 0.66324
 C421 C 1.13037 -0.08750 0.69040
 C422 C 1.11675 -0.11454 0.70405
 C423 C 1.08966 -0.12759 0.68977
 C424 C 1.07669 -0.11404 0.66261
 C425 C 1.07686 -0.07305 0.62158
 C426 C 1.06491 -0.06088 0.59880
 H427 H 1.12811 -0.05314 0.65320
 H428 H 1.15107 -0.07660 0.70059
 H429 H 1.07832 -0.14825 0.69945
 H430 H 1.05578 -0.12440 0.65209
 C431 C 0.34974 1.08878 1.08915
 C432 C 0.33603 1.07526 1.11600
 C433 C 0.30883 1.08850 1.12946
 C434 C 0.29473 1.11563 1.11625
 C435 C 0.30884 1.12884 1.08903
 C436 C 0.33600 1.11553 1.07570
 C437 C 0.37749 1.07492 1.07496
 C438 C 0.40038 1.06304 1.06270
 H439 H 0.34632 1.05438 1.12653
 H440 H 0.29907 1.07724 1.15018
 H441 H 0.29914 1.14950 1.07773
 H442 H 0.34625 1.12611 1.05478
 C443 C 0.35010 0.91014 0.91187
 C444 C 0.33624 0.88340 0.92522
 C445 C 0.30910 0.87022 0.91178
 C446 C 0.29513 0.88355 0.88457
 C447 C 0.30935 0.91067 0.87147
 C448 C 0.33653 0.92377 0.88502
 C449 C 0.37782 0.92389 0.92614
 C450 C 0.40067 0.93574 0.93844
 H451 H 0.34639 0.87274 0.94614
 H452 H 0.29930 0.84957 0.92300
 H453 H 0.29971 0.92202 0.85075
 H454 H 0.34691 0.94464 0.87456
 C455 C 0.64985 0.91191 1.09079
 C456 C 0.66325 0.88509 1.07709
 C457 C 0.69042 0.87151 1.09011
 C458 C 0.70483 0.88455 1.11722
 C459 C 0.69105 0.91175 1.13064
 C460 C 0.66387 0.92523 1.11752
 C461 C 0.62213 0.92613 1.07702
 C462 C 0.59929 0.93825 1.06500
 H463 H 0.65273 0.87466 1.05623
 H464 H 0.69990 0.85081 1.07867
 H465 H 0.70103 0.92290 1.15129
 H466 H 0.65384 0.94615 1.12821
 C467 C 0.64985 1.08730 0.91015
 C468 C 0.66384 1.07408 0.88332
 C469 C 0.69094 1.08766 0.87012
 C470 C 0.70467 1.11486 0.88356
 C471 C 0.69027 1.12781 0.91075
 C472 C 0.66317 1.11413 0.92385
 C473 C 0.62220 1.07299 0.92401
 C474 C 0.59940 1.06083 0.93608
 H475 H 0.65385 1.05317 0.87262
 H476 H 0.70091 1.07659 0.84941
 H477 H 0.69969 1.14851 0.92219
 H478 H 0.65267 1.12449 0.94476
 C479 C 0.08890 0.35069 0.08812
 C480 C 0.11573 0.33686 0.07467
 C481 C 0.12892 0.30979 0.08807
 C482 C 0.11545 0.29605 0.11523
 C483 C 0.08831 0.31013 0.12846
 C484 C 0.07517 0.33721 0.11498
 C485 C 0.07513 0.37831 0.07398
 C486 C 0.06321 0.40107 0.06180
 H487 H 0.12642 0.34695 0.05372
 H488 H 0.14964 0.29977 0.07700
 H489 H 0.07706 0.30035 0.14919
 H490 H 0.05422 0.34758 0.12547
 C491 C -0.09025 0.35072 -0.08820
 C492 C -0.11700 0.33684 -0.07469
 C493 C -0.13010 0.30972 -0.08804
 C494 C -0.11660 0.29597 -0.11518
 C495 C -0.08952 0.31009 -0.12845
 C496 C -0.07648 0.33723 -0.11503
 C497 C -0.07656 0.37840 -0.07411
 C498 C -0.06468 0.40119 -0.06199
 H499 H -0.12771 0.34694 -0.05375
 H500 H -0.15077 0.29966 -0.07693
 H501 H -0.07825 0.30031 -0.14917
 H502 H -0.05558 0.34763 -0.12555
 C503 C 0.08751 0.64940 -0.08973
 C504 C 0.07416 0.66329 -0.11653
 C505 C 0.08767 0.69035 -0.12962
 C506 C 0.11481 0.70403 -0.11605
 C507 C 0.12791 0.68990 -0.08893
 C508 C 0.11434 0.66283 -0.07589
 C509 C 0.07331 0.62175 -0.07608
 C510 C 0.06114 0.59896 -0.06422
 H511 H 0.05323 0.65324 -0.12728
 H512 H 0.07669 0.70041 -0.15033
 H513 H 0.14862 0.69963 -0.07762
 H514 H 0.12474 0.65242 -0.05496
 C515 C -0.08858 0.64919 0.08970
 C516 C -0.11544 0.66268 0.07597
 C517 C -0.12887 0.68982 0.08903
 C518 C -0.11558 0.70392 0.11605
 C519 C -0.08840 0.69018 0.12950
 C520 C -0.07504 0.66305 0.11639
 C521 C -0.07447 0.62155 0.07599
 C522 C -0.06234 0.59878 0.06406
 H523 H -0.12597 0.65228 0.05511
 H524 H -0.14962 0.69961 0.07781
 H525 H -0.07727 0.70022 0.15013
 H526 H -0.05407 0.65295 0.12705
 C527 C 1.08989 0.08894 0.64920
 C528 C 1.11666 0.07554 0.66313
 C529 C 1.12974 0.08890 0.69029
 C530 C 1.11622 0.11596 0.70404
 C531 C 1.08913 0.12915 0.68988
 C532 C 1.07609 0.11570 0.66268
 C533 C 1.07626 0.07475 0.62151
 C534 C 1.06451 0.06247 0.59870
 H535 H 1.12739 0.05466 0.65303
 H536 H 1.15042 0.07785 0.70036
 H537 H 1.07788 0.14982 0.69970
 H538 H 1.05517 0.12614 0.65223
 C539 C 0.91144 -0.08812 0.64929
 C540 C 0.88432 -0.07509 0.66290
 C541 C 0.87113 -0.08857 0.68997
 C542 C 0.88491 -0.11539 0.70393
 C543 C 0.91233 -0.12823 0.69007
 C544 C 0.92548 -0.11466 0.66296
 C545 C 0.92514 -0.07380 0.62169
 C546 C 0.93689 -0.06140 0.59892
 H547 H 0.87339 -0.05440 0.65264
 H548 H 0.85017 -0.07780 0.69981
 H549 H 0.92377 -0.14871 0.70004
 H550 H 0.94666 -0.12482 0.65273
 C551 C 1.08757 -0.09010 0.35022
 C552 C 1.07400 -0.11680 0.33649
 C553 C 1.08735 -0.13005 0.30935
 C554 C 1.11453 -0.11671 0.29549
 C555 C 1.12785 -0.08972 0.30949
 C556 C 1.11445 -0.07655 0.33662
 C557 C 1.07357 -0.07616 0.37784
 C558 C 1.06166 -0.06396 0.40061
 H559 H 1.05303 -0.12734 0.34672
 H560 H 1.07625 -0.15067 0.29935
 H561 H 1.14861 -0.07860 0.29964
 H562 H 1.12502 -0.05572 0.34694
 C563 C 0.91300 0.09091 0.35034
 C564 C 0.88616 0.07719 0.33688
 C565 C 0.87261 0.09024 0.30977
 C566 C 0.88573 0.11728 0.29564
 C567 C 0.91285 0.13080 0.30937
 C568 C 0.92636 0.11767 0.33650
 C569 C 0.92718 0.07707 0.37793
 C570 C 0.93922 0.06494 0.40068
 H571 H 0.87573 0.05631 0.34728
 H572 H 0.85188 0.07897 0.30003
 H573 H 0.92380 0.15148 0.29929
 H574 H 0.94729 0.12836 0.34662
 C575 C 0.08907 0.35078 -0.08851
 C576 C 0.07535 0.33726 -0.11535
 C577 C 0.08848 0.31013 -0.12877
 C578 C 0.11557 0.29607 -0.11548
 C579 C 0.12898 0.30983 -0.08833
 C580 C 0.11580 0.33693 -0.07499
 C581 C 0.07538 0.37844 -0.07440
 C582 C 0.06359 0.40124 -0.06217
 H583 H 0.05444 0.34765 -0.12586
 H584 H 0.07731 0.30029 -0.14950
 H585 H 0.14965 0.29983 -0.07719
 H586 H 0.12646 0.34703 -0.05405
 C587 C -0.08987 0.35102 0.08792
 C588 C -0.07599 0.33757 0.11470
 C589 C -0.08898 0.31043 0.12814
 C590 C -0.11606 0.29634 0.11492
 C591 C -0.12965 0.31007 0.08784
 C592 C -0.11662 0.33718 0.07448
 C593 C -0.07627 0.37859 0.07376
 C594 C -0.06450 0.40131 0.06150
 H595 H -0.05508 0.34799 0.12513
 H596 H -0.07768 0.30063 0.14883
 H597 H -0.15034 0.30004 0.07679
 H598 H -0.12737 0.34729 0.05358
 C599 C -0.08803 0.64928 -0.09017
 C600 C -0.11514 0.66252 -0.07668
 C601 C -0.12854 0.68965 -0.08972
 C602 C -0.11495 0.70401 -0.11649
 C603 C -0.08753 0.69052 -0.12972
 C604 C -0.07419 0.66339 -0.11662
 C605 C -0.07402 0.62162 -0.07645
 C606 C -0.06204 0.59884 -0.06447
 H607 H -0.12589 0.65193 -0.05601
 H608 H -0.14948 0.69923 -0.07866
 H609 H -0.07621 0.70081 -0.15015
 H610 H -0.05302 0.65347 -0.12707
 C611 C 0.08715 0.64897 0.08955
 C612 C 0.07365 0.66283 0.11632
 C613 C 0.08707 0.68991 0.12940
 C614 C 0.11422 0.70357 0.11582
 C615 C 0.12745 0.68945 0.08875
 C616 C 0.11398 0.66238 0.07574
 C617 C 0.07308 0.62140 0.07584
 C618 C 0.06108 0.59867 0.06382
 H619 H 0.05270 0.65274 0.12703
 H620 H 0.07604 0.70000 0.15009
 H621 H 0.14818 0.69917 0.07744
 H622 H 0.12445 0.65197 0.05483
 C623 C 0.35089 1.08941 0.91248
 C624 C 0.33745 1.07576 0.88562
 C625 C 0.31038 1.08892 0.87209
 C626 C 0.29635 1.11597 0.88531
 C627 C 0.31007 1.12937 0.91247
 C628 C 0.33713 1.11615 0.92593
 C629 C 0.37838 1.07558 0.92668
 C630 C 0.40107 1.06357 0.93886
 H631 H 0.34784 1.05487 0.87518
 H632 H 0.30061 1.07776 0.85134
 H633 H 0.30006 1.15004 0.92351
 H634 H 0.34726 1.12673 0.94690
 C635 C 0.35047 0.90958 1.08785
 C636 C 0.33676 0.88287 1.07433
 C637 C 0.30963 0.86966 1.08769
 C638 C 0.29577 0.88304 1.11482
 C639 C 0.30974 0.91006 1.12810
 C640 C 0.33688 0.92321 1.11468
 C641 C 0.37807 0.92342 1.07380
 C642 C 0.40083 0.93548 1.06178
 H643 H 0.34700 0.87229 1.05339
 H644 H 0.29967 0.84901 1.07660
 H645 H 0.29986 0.92122 1.14882
 H646 H 0.34720 0.94407 1.12518
 C647 C 0.64927 1.08802 1.08969
 C648 C 0.66258 1.11481 1.07582
 C649 C 0.68969 1.12843 1.08883
 C650 C 0.70391 1.11540 1.11594
 C651 C 0.69033 1.08831 1.12952
 C652 C 0.66325 1.07476 1.11646
 C653 C 0.62169 1.07372 1.07608
 C654 C 0.59894 1.06140 1.06431
 H655 H 0.65206 1.12512 1.05490
 H656 H 0.69935 1.14912 1.07752
 H657 H 0.70048 1.07739 1.15022
 H658 H 0.65325 1.05386 1.12721
 C659 C 0.64950 0.91150 0.91098
 C660 C 0.66294 0.88468 0.92467
 C661 C 0.69007 0.87120 0.91150
 C662 C 0.70418 0.88442 0.88441
 C663 C 0.69047 0.91154 0.87101
 C664 C 0.66336 0.92495 0.88423
 C665 C 0.62189 0.92565 0.92475
 C666 C 0.59912 0.93786 0.93664
 H667 H 0.65250 0.87423 0.94557
 H668 H 0.69985 0.85049 0.92266
 H669 H 0.70053 0.92260 0.85034
 H670 H 0.65325 0.94587 0.87363
   
