data_POSCAR
  _audit_creation_date              2014-09-24
  _audit_creation_method            'ToBaCCo'
  _symmetry_space_group_name_H-M    'P1'
  _symmetry_Int_Tables_number       1
  _symmetry_cell_setting            triclinic
  loop_
  _symmetry_equiv_pos_as_xyz
 x,y,z
_cell_length_a 46.3232
_cell_length_b 43.9591
_cell_length_c 34.4519
_cell_angle_alpha 90.518200
_cell_angle_beta 90.018900
_cell_angle_gamma 89.977700
loop_
  _atom_site_label
  _atom_site_type_symbol
  _atom_site_fract_x
  _atom_site_fract_y
  _atom_site_fract_z
C1 C 0.29510 0.29131 0.23520
 H2 H 0.29653 0.29150 0.26655
 C3 C 0.31334 0.30981 0.21346
 H4 H 0.32885 0.32439 0.22805
 C5 C 0.27308 0.27217 0.17781
 H6 H 0.25757 0.25728 0.16400
 C7 C 0.29094 0.29033 0.15495
 H8 H 0.28892 0.28960 0.12363
 N9 N 0.27513 0.27339 0.21722
 C10 C 0.20682 0.26232 0.30321
 H11 H 0.20545 0.23779 0.30460
 C12 C 0.18827 0.28035 0.32567
 H13 H 0.17263 0.26973 0.34457
 C14 C 0.22854 0.30627 0.27648
 H15 H 0.24388 0.31634 0.25683
 C16 C 0.21042 0.32510 0.29839
 H17 H 0.21211 0.34958 0.29584
 Zn18 Zn 0.25085 0.24980 0.24934
 N19 N 0.22670 0.27548 0.27959
 C20 C 0.27305 0.22741 0.32091
 N21 N 0.27507 0.22612 0.28150
 C22 C 0.29498 0.20809 0.26356
 C23 C 0.31320 0.18957 0.28534
 C24 C 0.29088 0.20923 0.34381
 C25 C 0.20676 0.23743 0.19548
 C26 C 0.18812 0.21947 0.17307
 C27 C 0.21015 0.17465 0.20037
 C28 C 0.22836 0.19341 0.22224
 N29 N 0.22662 0.22420 0.21910
 H30 H 0.25760 0.24238 0.33469
 H31 H 0.29640 0.20785 0.23221
 H32 H 0.32866 0.17491 0.27079
 H33 H 0.28889 0.21002 0.37513
 H34 H 0.20547 0.26197 0.19407
 H35 H 0.17249 0.23015 0.15418
 H36 H 0.21176 0.15016 0.20295
 H37 H 0.24368 0.18328 0.24188
 C38 C 0.19018 0.31203 0.32328
 C39 C 0.31108 0.30948 0.17299
 C40 C 0.18993 0.18779 0.17549
 C41 C 0.31097 0.18998 0.32581
 C42 C 0.79582 0.79225 0.23492
 H43 H 0.79728 0.79244 0.26627
 C44 C 0.81394 0.81088 0.21316
 H45 H 0.82936 0.82553 0.22783
 C46 C 0.77383 0.77300 0.17757
 H47 H 0.75838 0.75803 0.16379
 C48 C 0.79155 0.79127 0.15467
 H49 H 0.78943 0.79049 0.12334
 N50 N 0.77592 0.77422 0.21697
 C51 C 0.70759 0.76296 0.30290
 H52 H 0.70628 0.73842 0.30428
 C53 C 0.68899 0.78093 0.32534
 H54 H 0.67335 0.77027 0.34422
 C55 C 0.72924 0.80697 0.27623
 H56 H 0.74456 0.81709 0.25661
 C57 C 0.71105 0.82574 0.29812
 H58 H 0.71269 0.85023 0.29559
 Zn59 Zn 0.75171 0.75056 0.24912
 N60 N 0.72746 0.77617 0.27933
 C61 C 0.77384 0.72818 0.32073
 N62 N 0.77597 0.72695 0.28132
 C63 C 0.79593 0.70895 0.26344
 C64 C 0.81405 0.69036 0.28527
 C65 C 0.79158 0.70993 0.34366
 C66 C 0.70766 0.73801 0.19525
 C67 C 0.68908 0.71997 0.17285
 C68 C 0.71125 0.67524 0.20021
 C69 C 0.72940 0.69408 0.22206
 N70 N 0.72755 0.72487 0.21888
 H71 H 0.75835 0.74313 0.33446
 H72 H 0.79742 0.70875 0.23210
 H73 H 0.82953 0.67569 0.27075
 H74 H 0.78948 0.71066 0.37498
 H75 H 0.70628 0.76255 0.19381
 H76 H 0.67341 0.73058 0.15394
 H77 H 0.71293 0.65076 0.20282
 H78 H 0.74474 0.68402 0.24172
 C79 C 0.69083 0.81262 0.32298
 C80 C 0.81163 0.81057 0.17267
 C81 C 0.69099 0.68829 0.17531
 C82 C 0.81168 0.69068 0.32572
 C83 C 0.79616 0.29075 0.73689
 H84 H 0.79767 0.29093 0.76823
 C85 C 0.81427 0.30934 0.71508
 H86 H 0.82976 0.32398 0.72961
 C87 C 0.77403 0.27159 0.67959
 H88 H 0.75852 0.25667 0.66583
 C89 C 0.79175 0.28984 0.65666
 H90 H 0.78963 0.28914 0.62535
 N91 N 0.77618 0.27278 0.71899
 C92 C 0.70793 0.26170 0.80507
 H93 H 0.70657 0.23717 0.80649
 C94 C 0.68935 0.27974 0.82748
 H95 H 0.67369 0.26913 0.84636
 C96 C 0.72965 0.30564 0.77831
 H97 H 0.74498 0.31570 0.75866
 C98 C 0.71150 0.32447 0.80017
 H99 H 0.71317 0.34895 0.79757
 Zn100 Zn 0.75195 0.24917 0.75117
 N101 N 0.72781 0.27485 0.78146
 C102 C 0.77414 0.22664 0.82267
 N103 N 0.77619 0.22545 0.78326
 C104 C 0.79608 0.20744 0.76527
 C105 C 0.81423 0.18878 0.78697
 C106 C 0.79188 0.20834 0.84554
 C107 C 0.70779 0.23684 0.69740
 C108 C 0.68915 0.21890 0.67496
 C109 C 0.71124 0.17405 0.70211
 C110 C 0.72945 0.19279 0.72401
 N111 N 0.72768 0.22360 0.72094
 H112 H 0.75869 0.24161 0.83648
 H113 H 0.79751 0.20729 0.73392
 H114 H 0.82963 0.17415 0.77219
 H115 H 0.78974 0.20914 0.87687
 H116 H 0.70648 0.26138 0.69605
 H117 H 0.67350 0.22960 0.65612
 H118 H 0.71288 0.14956 0.70462
 H119 H 0.74480 0.18265 0.74359
 C120 C 0.69124 0.31142 0.82504
 C121 C 0.81187 0.30905 0.67462
 C122 C 0.69099 0.18721 0.67729
 C123 C 0.81196 0.18903 0.82750
 C124 C 0.29506 0.79178 0.73615
 H125 H 0.29647 0.79201 0.76750
 C126 C 0.31327 0.81030 0.71439
 H127 H 0.32872 0.82495 0.72897
 C128 C 0.27314 0.77249 0.67876
 H129 H 0.25769 0.75753 0.66496
 C130 C 0.29096 0.79068 0.65589
 H131 H 0.28897 0.78989 0.62457
 N132 N 0.27515 0.77377 0.71818
 C133 C 0.20681 0.76254 0.80409
 H134 H 0.20553 0.73800 0.80554
 C135 C 0.18816 0.78053 0.82646
 H136 H 0.17252 0.76988 0.84534
 C137 C 0.22841 0.80653 0.77732
 H138 H 0.24374 0.81664 0.75768
 C139 C 0.21019 0.82532 0.79913
 H140 H 0.21179 0.84980 0.79652
 Zn141 Zn 0.25093 0.75012 0.75030
 N142 N 0.22667 0.77574 0.78050
 C143 C 0.27313 0.72774 0.82189
 N144 N 0.27520 0.72653 0.78248
 C145 C 0.29518 0.70859 0.76453
 C146 C 0.31342 0.69008 0.78631
 C147 C 0.29098 0.70957 0.84477
 C148 C 0.20691 0.73758 0.69639
 C149 C 0.18836 0.71954 0.67394
 C150 C 0.21052 0.67481 0.70131
 C151 C 0.22864 0.69365 0.72320
 N152 N 0.22679 0.72443 0.72004
 H153 H 0.25761 0.74264 0.83567
 H154 H 0.29663 0.70840 0.73319
 H155 H 0.32893 0.67549 0.77174
 H156 H 0.28894 0.71030 0.87609
 H157 H 0.20554 0.76211 0.69496
 H158 H 0.17272 0.73015 0.65500
 H159 H 0.21221 0.65033 0.70390
 H160 H 0.24397 0.68358 0.74288
 C161 C 0.18996 0.81221 0.82399
 C162 C 0.31104 0.80991 0.67392
 C163 C 0.19028 0.68786 0.67638
 C164 C 0.31114 0.69041 0.82677
 C165 C -0.03344 -0.02405 0.01620
 C166 C -0.01820 0.00015 -0.00047
 C167 C -0.03347 0.02436 -0.01713
 C168 C -0.06370 0.02420 -0.01749
 C169 C -0.07878 0.00017 -0.00044
 C170 C -0.06368 -0.02387 0.01659
 C171 C 0.01366 0.00015 -0.00048
 C172 C 0.02891 -0.02411 -0.01761
 C173 C 0.05915 -0.02395 -0.01797
 C174 C 0.07423 0.00012 -0.00046
 C175 C 0.05915 0.02420 0.01703
 C176 C 0.02892 0.02439 0.01666
 H177 H -0.02178 -0.04266 0.02943
 H178 H -0.02182 0.04297 -0.03037
 H179 H 0.01726 -0.04275 -0.03121
 H180 H 0.01727 0.04304 0.03026
 H181 H -0.10219 0.00017 -0.00043
 H182 H 0.09764 0.00011 -0.00045
 C183 C -0.03250 0.47566 0.51684
 C184 C -0.01726 0.49986 0.50016
 C185 C -0.03254 0.52406 0.48350
 C186 C -0.06277 0.52389 0.48314
 C187 C -0.07784 0.49986 0.50020
 C188 C -0.06273 0.47583 0.51724
 C189 C 0.01459 0.49986 0.50012
 C190 C 0.02984 0.47565 0.48290
 C191 C 0.06007 0.47583 0.48248
 C192 C 0.07516 0.49988 0.50003
 C193 C 0.06008 0.52392 0.51762
 C194 C 0.02985 0.52408 0.51730
 H195 H -0.02083 0.45705 0.53007
 H196 H -0.02090 0.54267 0.47024
 H197 H 0.01818 0.45702 0.46926
 H198 H 0.01820 0.54270 0.53097
 H199 H -0.10126 0.49986 0.50022
 H200 H 0.09857 0.49988 0.49999
 C201 C 0.46785 -0.02419 0.51677
 C202 C 0.48311 0.00001 0.50013
 C203 C 0.46785 0.02422 0.48346
 C204 C 0.43761 0.02405 0.48305
 C205 C 0.42253 0.00001 0.50006
 C206 C 0.43762 -0.02402 0.51711
 C207 C 0.51496 0.00001 0.50015
 C208 C 0.53022 -0.02416 0.48283
 C209 C 0.56045 -0.02400 0.48248
 C210 C 0.57552 -0.00001 0.50017
 C211 C 0.56044 0.02399 0.51785
 C212 C 0.53021 0.02417 0.51747
 H213 H 0.47951 -0.04281 0.53000
 H214 H 0.47950 0.04284 0.47024
 H215 H 0.51857 -0.04275 0.46909
 H216 H 0.51856 0.04276 0.53120
 H217 H 0.39912 0.00001 0.50003
 H218 H 0.59894 -0.00001 0.50017
 C219 C 0.46805 0.47559 0.01648
 C220 C 0.48331 0.49985 -0.00003
 C221 C 0.46805 0.52412 -0.01657
 C222 C 0.43782 0.52396 -0.01696
 C223 C 0.42273 0.49987 -0.00008
 C224 C 0.43781 0.47577 0.01682
 C225 C 0.51517 0.49985 0.00000
 C226 C 0.53044 0.47555 -0.01700
 C227 C 0.56068 0.47572 -0.01733
 C228 C 0.57574 0.49984 0.00008
 C229 C 0.56065 0.52397 0.01744
 C230 C 0.53042 0.52414 0.01704
 H231 H 0.47970 0.45693 0.02962
 H232 H 0.47970 0.54278 -0.02969
 H233 H 0.51881 0.45687 -0.03053
 H234 H 0.51876 0.54283 0.03054
 H235 H 0.39932 0.49988 -0.00010
 H236 H 0.59916 0.49984 0.00010
 C237 C 0.13758 -0.13143 -0.11304
 N238 N 0.11260 -0.12093 -0.12852
 N239 N 0.09651 -0.10079 -0.10910
 C240 C 0.10492 -0.09054 -0.07360
 N241 N 0.12986 -0.10109 -0.05809
 N242 N 0.14595 -0.12123 -0.07751
 C243 C 0.15560 -0.15195 -0.13476
 C244 C 0.17109 -0.16861 -0.15337
 C245 C 0.08835 -0.06774 -0.05354
 C246 C 0.07482 -0.04805 -0.03710
 C247 C 0.13817 0.36846 0.38669
 N248 N 0.11300 0.37878 0.37158
 N249 N 0.09701 0.39892 0.39116
 C250 C 0.10571 0.40935 0.42644
 N251 N 0.13085 0.39898 0.44159
 N252 N 0.14684 0.37884 0.42201
 C253 C 0.15607 0.34793 0.36480
 C254 C 0.17145 0.33125 0.34606
 C255 C 0.08922 0.43212 0.44666
 C256 C 0.07573 0.45177 0.46323
 C257 C 0.63867 -0.13111 0.38642
 N258 N 0.61363 -0.12060 0.37116
 N259 N 0.59760 -0.10051 0.39077
 C260 C 0.60614 -0.09034 0.42624
 N261 N 0.63116 -0.10089 0.44153
 N262 N 0.64718 -0.12098 0.42192
 C263 C 0.65662 -0.15159 0.36451
 C264 C 0.67204 -0.16822 0.34576
 C265 C 0.58962 -0.06761 0.44651
 C266 C 0.57612 -0.04800 0.46314
 C267 C 0.63902 0.36794 -0.11200
 N268 N 0.61381 0.37807 -0.12721
 N269 N 0.59776 0.39827 -0.10783
 C270 C 0.60643 0.40897 -0.07267
 N271 N 0.63161 0.39880 -0.05743
 N272 N 0.64766 0.37859 -0.07680
 C273 C 0.65699 0.34736 -0.13369
 C274 C 0.67243 0.33065 -0.15231
 C275 C 0.58988 0.43183 -0.05270
 C276 C 0.57636 0.45156 -0.03634
 C277 C -0.14024 0.13258 -0.11137
 N278 N -0.11333 0.12494 -0.12352
 N279 N -0.09786 0.10446 -0.10421
 C280 C -0.10883 0.09101 -0.07217
 N281 N -0.13573 0.09868 -0.05998
 N282 N -0.15120 0.11915 -0.07929
 C283 C -0.15737 0.15364 -0.13310
 C284 C -0.17199 0.17084 -0.15182
 C285 C -0.09267 0.06803 -0.05236
 C286 C -0.07933 0.04828 -0.03619
 C287 C -0.13909 0.63235 0.38909
 N288 N -0.11205 0.62490 0.37726
 N289 N -0.09665 0.60439 0.39661
 C290 C -0.10782 0.59071 0.42837
 N291 N -0.13484 0.59819 0.44024
 N292 N -0.15024 0.61870 0.42089
 C293 C -0.15613 0.65345 0.36731
 C294 C -0.17068 0.67070 0.34858
 C295 C -0.09171 0.56771 0.44823
 C296 C -0.07840 0.54796 0.46442
 C297 C 0.36074 0.13208 0.38906
 N298 N 0.38751 0.12424 0.37657
 N299 N 0.40309 0.10387 0.39590
 C300 C 0.39236 0.09072 0.42830
 N301 N 0.36560 0.09859 0.44082
 N302 N 0.35003 0.11897 0.42150
 C303 C 0.34349 0.15303 0.36733
 C304 C 0.32878 0.17014 0.34863
 C305 C 0.40860 0.06781 0.44813
 C306 C 0.42198 0.04811 0.46431
 C307 C 0.36093 0.63240 -0.11019
 N308 N 0.38777 0.62474 -0.12261
 N309 N 0.40335 0.60428 -0.10342
 C310 C 0.39255 0.59087 -0.07123
 N311 N 0.36574 0.59857 -0.05877
 N312 N 0.35016 0.61903 -0.07796
 C313 C 0.34367 0.65341 -0.13181
 C314 C 0.32895 0.67055 -0.15045
 C315 C 0.40881 0.56788 -0.05157
 C316 C 0.42218 0.54811 -0.03553
 C317 C -0.14002 -0.13223 0.11059
 N318 N -0.15105 -0.11879 0.07856
 N319 N -0.13562 -0.09831 0.05922
 C320 C -0.10870 -0.09066 0.07134
 N321 N -0.09766 -0.10414 0.10334
 N322 N -0.11309 -0.12462 0.12268
 C323 C -0.15710 -0.15330 0.13235
 C324 C -0.17168 -0.17051 0.15108
 C325 C -0.09258 -0.06768 0.05150
 C326 C -0.07928 -0.04794 0.03532
 C327 C -0.13893 0.36738 0.61131
 N328 N -0.15002 0.38088 0.57935
 N329 N -0.13463 0.40138 0.56000
 C330 C -0.10769 0.40901 0.57204
 N331 N -0.09658 0.39547 0.60396
 N332 N -0.11197 0.37497 0.62330
 C333 C -0.15596 0.34628 0.63307
 C334 C -0.17050 0.32904 0.65179
 C335 C -0.09160 0.43200 0.55218
 C336 C -0.07832 0.45176 0.53598
 C337 C 0.36079 -0.13215 0.61080
 N338 N 0.35006 -0.11897 0.57841
 N339 N 0.36562 -0.09857 0.55914
 C340 C 0.39238 -0.09074 0.57169
 N341 N 0.40313 -0.10396 0.60404
 N342 N 0.38757 -0.12436 0.62331
 C343 C 0.34355 -0.15312 0.63248
 C344 C 0.32884 -0.17025 0.65114
 C345 C 0.40862 -0.06781 0.55192
 C346 C 0.42199 -0.04809 0.53579
 C347 C 0.36090 0.36744 0.11001
 N348 N 0.35016 0.38077 0.07772
 N349 N 0.36574 0.40120 0.05854
 C350 C 0.39254 0.40892 0.07106
 N351 N 0.40330 0.39554 0.10331
 N352 N 0.38772 0.37511 0.12249
 C353 C 0.34363 0.34645 0.13162
 C354 C 0.32891 0.32932 0.15023
 C355 C 0.40880 0.43189 0.05141
 C356 C 0.42218 0.45165 0.03538
 C357 C 0.13758 0.13153 0.11234
 N358 N 0.14604 0.12124 0.07690
 N359 N 0.12995 0.10113 0.05742
 C360 C 0.10493 0.09071 0.07279
 N361 N 0.09644 0.10104 0.10821
 N362 N 0.11253 0.12115 0.12769
 C363 C 0.15560 0.15201 0.13413
 C364 C 0.17107 0.16864 0.15280
 C365 C 0.08836 0.06794 0.05268
 C366 C 0.07483 0.04828 0.03620
 C367 C 0.13823 0.63139 0.61309
 N368 N 0.11303 0.62119 0.62818
 N369 N 0.09703 0.60103 0.60867
 C370 C 0.10575 0.59045 0.57347
 N371 N 0.13093 0.60070 0.55835
 N372 N 0.14693 0.62086 0.57786
 C373 C 0.15615 0.65194 0.63492
 C374 C 0.17153 0.66863 0.65363
 C375 C 0.08925 0.56765 0.55332
 C376 C 0.07575 0.54799 0.53682
 C377 C 0.63874 0.13103 0.61389
 N378 N 0.61377 0.12045 0.62923
 N379 N 0.59772 0.10039 0.60963
 C380 C 0.60616 0.09030 0.57408
 N381 N 0.63110 0.10092 0.55870
 N382 N 0.64715 0.12098 0.57831
 C383 C 0.65672 0.15148 0.63578
 C384 C 0.67217 0.16808 0.65453
 C385 C 0.58962 0.06759 0.55381
 C386 C 0.57611 0.04799 0.53719
 C387 C 0.63883 0.63175 0.11229
 N388 N 0.61367 0.62155 0.12750
 N389 N 0.59765 0.60134 0.10809
 C390 C 0.60631 0.59072 0.07289
 N391 N 0.63145 0.60096 0.05765
 N392 N 0.64747 0.62117 0.07705
 C393 C 0.65678 0.65234 0.13401
 C394 C 0.67220 0.66905 0.15264
 C395 C 0.58980 0.56785 0.05288
 C396 C 0.57630 0.54812 0.03649
   
