data_POSCAR
  _audit_creation_date              2014-09-24
  _audit_creation_method            'ToBaCCo'
  _symmetry_space_group_name_H-M    'P1'
  _symmetry_Int_Tables_number       1
  _symmetry_cell_setting            triclinic
  loop_
  _symmetry_equiv_pos_as_xyz
 x,y,z
_cell_length_a 21.0334
_cell_length_b 21.0357
_cell_length_c 20.9734
_cell_angle_alpha 89.993800
_cell_angle_beta 90.020200
_cell_angle_gamma 89.992300
loop_
  _atom_site_label
  _atom_site_type_symbol
  _atom_site_fract_x
  _atom_site_fract_y
  _atom_site_fract_z
N1 N 0.40833 0.41030 1.41024
 N2 N 1.09112 0.58995 0.91008
 N3 N 0.59057 -0.09147 0.08933
 N4 N -0.08948 1.09103 -0.41002
 N5 N 0.58891 0.59093 0.58912
 N6 N 0.91032 0.40910 0.08901
 N7 N 0.40955 0.08963 0.91025
 N8 N 0.09095 0.91045 0.41114
 Zn9 Zn 0.04640 0.96964 -0.06724
 Zn10 Zn -0.02875 0.93164 0.04682
 Zn11 Zn 0.05046 1.05009 0.05067
 Zn12 Zn -0.06752 1.04478 -0.02918
 O13 O 0.00025 0.99915 0.00036
 O14 O 0.05100 0.88492 -0.06969
 O15 O -0.00132 0.93336 0.12712
 O16 O 0.13006 1.05763 0.02036
 O17 O -0.00381 0.85641 0.01581
 O18 O 0.12669 0.99659 -0.06573
 O19 O 0.05787 1.02046 0.13080
 O20 O -0.06689 1.12503 -0.00180
 O21 O -0.11350 0.92865 0.05157
 O22 O 0.02013 1.12966 0.05762
 O23 O -0.14254 1.01303 -0.00451
 O24 O -0.06983 1.04944 -0.11423
 O25 O 0.01537 0.99447 -0.14282
 C26 C 0.02928 0.84253 -0.03270
 C27 C 0.03427 0.97158 0.15721
 C28 C 0.15650 1.03311 -0.02814
 C29 C -0.02898 1.15548 0.03386
 C30 C -0.15613 0.96488 0.02914
 C31 C -0.03297 1.02767 -0.15676
 Zn32 Zn 0.45430 0.02981 0.43176
 Zn33 Zn 0.53001 0.06896 0.54537
 Zn34 Zn 0.45041 -0.04915 0.55044
 Zn35 Zn 0.56828 -0.04500 0.47022
 O36 O 0.50069 0.00107 0.49954
 O37 O 0.44897 0.11451 0.42907
 O38 O 0.50240 0.06831 0.62583
 O39 O 0.37083 -0.05734 0.52031
 O40 O 0.50553 0.14399 0.51315
 O41 O 0.37439 0.00192 0.43304
 O42 O 0.44241 -0.01823 0.62976
 O43 O 0.56697 -0.12523 0.49771
 O44 O 0.61478 0.07143 0.55036
 O45 O 0.48104 -0.12850 0.55882
 O46 O 0.64356 -0.01357 0.49511
 O47 O 0.57072 -0.04987 0.38517
 O48 O 0.48556 0.00501 0.35632
 C49 C 0.47166 0.15734 0.46498
 C50 C 0.46611 0.03071 0.65588
 C51 C 0.34452 -0.03392 0.47120
 C52 C 0.52953 -0.15495 0.53447
 C53 C 0.65731 0.03477 0.52848
 C54 C 0.53391 -0.02820 0.34253
 Zn55 Zn 0.93133 0.45458 0.47071
 Zn56 Zn 1.04954 0.45091 0.55029
 Zn57 Zn 1.04462 0.53001 0.43159
 Zn58 Zn 0.96948 0.56877 0.54563
 O59 O 0.99882 0.50100 0.49965
 O60 O 0.93288 0.37452 0.49839
 O61 O 1.12885 0.44284 0.51948
 O62 O 1.01237 0.50595 0.35629
 O63 O 1.01913 0.37144 0.55907
 O64 O 0.92851 0.44948 0.38577
 O65 O 1.12455 0.50187 0.43205
 O66 O 0.99381 0.64393 0.51360
 O67 O 1.05803 0.48198 0.62954
 O68 O 1.05012 0.61470 0.42931
 O69 O 0.99727 0.56803 0.62603
 O70 O 0.88471 0.57113 0.55062
 O71 O 0.85607 0.48594 0.49557
 C72 C 0.97052 0.34491 0.53504
 C73 C 1.15474 0.46609 0.47008
 C74 C 0.96426 0.47225 0.34284
 C75 C 1.02757 0.65743 0.46541
 C76 C 1.03406 0.53070 0.65586
 C77 C 0.84224 0.53437 0.52875
 Zn78 Zn 0.45389 0.46926 0.93239
 Zn79 Zn 0.56803 0.54445 0.96955
 Zn80 Zn 0.45052 0.54987 1.05021
 Zn81 Zn 0.52960 0.43162 1.04634
 O82 O 0.50043 0.49891 0.99970
 O83 O 0.48432 0.49398 0.85650
 O84 O 0.56772 0.62476 0.99707
 O85 O 0.37095 0.55806 1.01986
 O86 O 0.56945 0.54927 0.88457
 O87 O 0.37367 0.49630 0.93426
 O88 O 0.48157 0.62899 1.05780
 O89 O 0.50229 0.43324 1.12672
 O90 O 0.64336 0.51221 0.99314
 O91 O 0.44275 0.52008 1.13016
 O92 O 0.61435 0.42881 1.05071
 O93 O 0.50469 0.35628 1.01549
 O94 O 0.44934 0.38455 0.93022
 C95 C 0.53240 0.52738 0.84227
 C96 C 0.53040 0.65490 1.03363
 C97 C 0.34420 0.53329 0.97163
 C98 C 0.46640 0.47128 1.15666
 C99 C 0.65701 0.46425 1.02710
 C100 C 0.47135 0.34227 0.96718
 C101 C 1.25801 0.47555 0.39656
 C102 C 1.31632 0.49049 0.43926
 C103 C 1.34107 0.42284 0.42688
 C104 C 1.28363 0.40767 0.38417
 C105 C 1.30589 0.39809 0.48640
 C106 C 1.27976 0.46586 0.49838
 C107 C 1.22243 0.45067 0.45556
 C108 C 1.24748 0.38313 0.44370
 H109 H 1.23805 0.50779 0.35973
 H110 H 1.34526 0.53459 0.43814
 H111 H 1.28406 0.38356 0.33717
 H112 H 1.32326 0.36646 0.52485
 H113 H 1.27742 0.48999 0.54538
 H114 H 1.21861 0.33901 0.44588
 C115 C 0.23900 0.60621 0.98175
 C116 C 0.21522 0.61913 0.91298
 C117 C 0.15824 0.57502 0.92545
 C118 C 0.18099 0.56218 0.99398
 C119 C 0.19554 0.51689 0.90101
 C120 C 0.25329 0.56100 0.88868
 C121 C 0.27651 0.54858 0.95705
 C122 C 0.21966 0.50439 0.96954
 H123 H 0.25729 0.64267 1.01533
 H124 H 0.21491 0.66620 0.88923
 H125 H 0.15052 0.56199 1.03717
 H126 H 0.17995 0.47867 0.86825
 H127 H 0.28354 0.56030 0.84531
 H128 H 0.22222 0.45724 0.99317
 C129 C -0.24849 0.94264 0.11256
 C130 C -0.30686 0.98447 0.09584
 C131 C -0.34234 0.92399 0.07453
 C132 C -0.28482 0.88211 0.09139
 C133 C -0.31820 0.93272 0.00586
 C134 C -0.28140 0.99282 0.02715
 C135 C -0.22395 0.95087 0.04408
 C136 C -0.25964 0.89091 0.02252
 H137 H -0.21926 0.94702 0.15643
 H138 H -0.32355 1.02459 0.12559
 H139 H -0.28540 0.83650 0.11791
 H140 H -0.34754 0.92954 -0.03802
 H141 H -0.27940 1.03835 0.00046
 H142 H -0.23964 0.85275 -0.00804
 C143 C 0.78274 0.00673 0.52706
 C144 C 0.81962 0.06690 0.50605
 C145 C 0.84346 0.07555 0.57486
 C146 C 0.80792 0.01501 0.59590
 C147 C 0.78584 0.11736 0.59147
 C148 C 0.76095 0.10864 0.52247
 C149 C 0.72518 0.04862 0.54374
 C150 C 0.74944 0.05678 0.61237
 H151 H 0.78090 -0.03876 0.50031
 H152 H 0.84914 0.07023 0.46233
 H153 H 0.82452 -0.02511 0.62572
 H154 H 0.78631 0.16292 0.61807
 H155 H 0.74109 0.14684 0.49185
 H156 H 0.72003 0.05231 0.65609
 C157 C 0.49770 0.28323 0.46753
 C158 C 0.48667 0.30986 0.39963
 C159 C 0.42595 0.34339 0.42340
 C160 C 0.43735 0.31815 0.49128
 C161 C 0.38507 0.28516 0.40661
 C162 C 0.44580 0.25079 0.38291
 C163 C 0.45672 0.22512 0.45061
 C164 C 0.39656 0.25894 0.47464
 H165 H 0.54407 0.28174 0.49278
 H166 H 0.52543 0.32838 0.36916
 H167 H 0.43472 0.34648 0.53584
 H168 H 0.33866 0.28484 0.38151
 H169 H 0.44964 0.22267 0.33829
 H170 H 0.35980 0.23743 0.50589
 C171 C 0.96877 0.22082 0.50555
 C172 C 0.99340 0.18171 0.56311
 C173 C 0.92520 0.15849 0.57576
 C174 C 0.90058 0.19632 0.51787
 C175 C 0.91253 0.21497 0.62060
 C176 C 0.98098 0.23924 0.60782
 C177 C 0.95610 0.27719 0.55039
 C178 C 0.88806 0.25356 0.56268
 H179 H 0.99227 0.22391 0.45828
 H180 H 1.03663 0.15146 0.56262
 H181 H 0.86791 0.18163 0.47920
 H182 H 0.88889 0.21408 0.66781
 H183 H 1.01441 0.25732 0.64455
 H184 H 0.84466 0.28360 0.56233
 C185 C 0.02289 0.73908 -0.10653
 C186 C 0.09171 0.71453 -0.11577
 C187 C 0.07559 0.65673 -0.07394
 C188 C 0.00696 0.68026 -0.06473
 C189 C 0.09686 0.69205 -0.01322
 C190 C 0.11286 0.75072 -0.05502
 C191 C 0.04442 0.77472 -0.04638
 C192 C 0.02820 0.71701 -0.00440
 H193 H -0.00794 0.75898 -0.14458
 H194 H 0.11794 0.71440 -0.16162
 H195 H -0.03657 0.65059 -0.06777
 H196 H 0.12686 0.67471 0.02654
 H197 H 0.15637 0.78027 -0.05070
 H198 H 0.00182 0.71870 0.04140
 C199 C 0.53251 0.77907 1.00428
 C200 C 0.50782 0.81791 1.06196
 C201 C 0.57597 0.84113 1.07482
 C202 C 0.60068 0.80356 1.01679
 C203 C 0.58868 0.78447 1.11943
 C204 C 0.52027 0.76023 1.10645
 C205 C 0.54524 0.72253 1.04889
 C206 C 0.61324 0.74613 1.06139
 H207 H 0.50907 0.77615 0.95694
 H208 H 0.46455 0.84812 1.06158
 H209 H 0.63335 0.81841 0.97820
 H210 H 0.61224 0.78524 1.16671
 H211 H 0.48685 0.74196 1.14306
 H212 H 0.65665 0.71611 1.06094
 C213 C 0.46497 0.49961 1.28241
 C214 C 0.39700 0.48699 1.30779
 C215 C 0.42178 0.42762 1.34309
 C216 C 0.48962 0.44067 1.31916
 C217 C 0.40763 0.38527 1.28505
 C218 C 0.38305 0.44461 1.24882
 C219 C 0.45078 0.45706 1.22455
 C220 C 0.47571 0.39827 1.26030
 H221 H 0.48877 0.54667 1.28055
 H222 H 0.36495 0.52502 1.32507
 H223 H 0.53343 0.43992 1.34866
 H224 H 0.38383 0.33826 1.28461
 H225 H 0.33924 0.44660 1.21937
 H226 H 0.50847 0.36188 1.24057
 C227 C 0.50524 -0.02835 0.21665
 C228 C 0.56504 -0.00687 0.17937
 C229 C 0.57481 -0.07560 0.15629
 C230 C 0.51462 -0.09712 0.19213
 C231 C 0.61688 -0.09083 0.21428
 C232 C 0.60711 -0.02190 0.23835
 C233 C 0.54749 -0.04368 0.27453
 C234 C 0.55666 -0.11223 0.25098
 H235 H 0.45933 -0.00238 0.21827
 H236 H 0.56731 0.03650 0.14932
 H237 H 0.47525 -0.12766 0.17505
 H238 H 0.66281 -0.11669 0.21462
 H239 H 0.64486 0.00944 0.25783
 H240 H 0.55290 -0.15554 0.28098
 C241 C -0.00431 1.02764 -0.28264
 C242 C -0.06412 1.00620 -0.32000
 C243 C -0.07383 1.07494 -0.34308
 C244 C -0.01363 1.09641 -0.30716
 C245 C -0.11592 1.09019 -0.28514
 C246 C -0.10619 1.02126 -0.26105
 C247 C -0.04656 1.04300 -0.22481
 C248 C -0.05569 1.11155 -0.24838
 H249 H 0.04159 1.00164 -0.28097
 H250 H -0.06642 0.96284 -0.35005
 H251 H 0.02581 1.12689 -0.32415
 H252 H -0.16184 1.11605 -0.28492
 H253 H -0.14396 0.98993 -0.24159
 H254 H -0.05191 1.15486 -0.21839
 C255 C 1.00609 0.53141 0.78061
 C256 C 1.06441 0.50741 0.81882
 C257 C 1.07624 0.57558 0.84254
 C258 C 1.01759 0.59959 0.80560
 C259 C 1.11994 0.58953 0.78544
 C260 C 1.10797 0.52111 0.76066
 C261 C 1.04977 0.54537 0.72361
 C262 C 1.06127 0.61339 0.74771
 H263 H 0.95928 0.50718 0.77792
 H264 H 1.06522 0.46394 0.84881
 H265 H 0.97866 0.63144 0.82108
 H266 H 1.16671 0.61385 0.78646
 H267 H 1.14486 0.48848 0.74165
 H268 H 1.05976 0.65702 0.71796
 C269 C 0.71682 0.50648 0.52673
 C270 C 0.69138 0.51474 0.59545
 C271 C 0.65599 0.57534 0.57428
 C272 C 0.68010 0.56671 0.50559
 C273 C 0.71360 0.61706 0.59121
 C274 C 0.74984 0.55641 0.61224
 C275 C 0.77435 0.54826 0.54374
 C276 C 0.73874 0.60835 0.52232
 H277 H 0.71872 0.46100 0.49996
 H278 H 0.67462 0.47459 0.62514
 H279 H 0.65076 0.57011 0.46173
 H280 H 0.71311 0.66261 0.61781
 H281 H 0.77906 0.55187 0.65610
 H282 H 0.75879 0.64654 0.49182
 C283 C 0.75956 0.47453 1.10065
 C284 C 0.78534 0.40674 1.11330
 C285 C 0.84332 0.42218 1.07143
 C286 C 0.81846 0.48980 1.05882
 C287 C 0.80903 0.39750 1.01136
 C288 C 0.75020 0.38216 1.05323
 C289 C 0.72493 0.44963 1.04119
 C290 C 0.78274 0.46517 0.99915
 H291 H 0.73870 0.50661 1.13709
 H292 H 0.78497 0.38256 1.16026
 H293 H 0.84712 0.53408 1.06018
 H294 H 0.82704 0.36614 0.97301
 H295 H 0.72170 0.33782 1.05056
 H296 H 0.78095 0.48940 0.95216
 C297 C 0.24737 1.06062 -0.11117
 C298 C 0.28544 1.11878 -0.08690
 C299 C 0.34244 1.07469 -0.07438
 C300 C 0.30515 1.01653 -0.09879
 C301 C 0.31973 1.06189 -0.00585
 C302 C 0.26170 1.10590 -0.01813
 C303 C 0.22420 1.04825 -0.04280
 C304 C 0.28107 1.00408 -0.03026
 H305 H 0.21712 1.05989 -0.15455
 H306 H 0.28570 1.16584 -0.11066
 H307 H 0.32074 0.97829 -0.13153
 H308 H 0.35021 1.06174 0.03735
 H309 H 0.24342 1.14239 0.01542
 H310 H 0.27853 0.95694 -0.00660
 C311 C 0.25173 -0.11686 0.44501
 C312 C 0.19326 -0.10192 0.48762
 C313 C 0.15816 -0.07708 0.42806
 C314 C 0.21566 -0.09224 0.38545
 C315 C 0.18290 -0.00946 0.44058
 C316 C 0.21941 -0.03417 0.49974
 C317 C 0.27677 -0.04934 0.45698
 C318 C 0.24123 -0.02438 0.39796
 H319 H 0.28059 -0.16099 0.44719
 H320 H 0.17580 -0.13358 0.52598
 H321 H 0.21537 -0.11630 0.33842
 H322 H 0.15397 0.03465 0.43946
 H323 H 0.22172 -0.01009 0.54677
 H324 H 0.26121 0.00788 0.36118
 C325 C 0.51883 -0.26068 0.60694
 C326 C 0.50634 -0.31810 0.56212
 C327 C 0.57445 -0.34155 0.57495
 C328 C 0.58718 -0.28515 0.61988
 C329 C 0.59930 -0.30372 0.51716
 C330 C 0.53120 -0.27900 0.50468
 C331 C 0.54394 -0.22272 0.54962
 C332 C 0.61189 -0.24656 0.56208
 H333 H 0.48538 -0.24254 0.64359
 H334 H 0.46302 -0.34822 0.56149
 H335 H 0.61070 -0.28616 0.66717
 H336 H 0.63200 -0.31848 0.47857
 H337 H 0.50781 -0.27578 0.45734
 H338 H 0.65536 -0.21664 0.56187
 C339 C 1.05368 0.75094 0.38355
 C340 C 1.01271 0.81000 0.40008
 C341 C 1.07330 0.84353 0.42416
 C342 C 1.11429 0.78532 0.40756
 C343 C 1.06163 0.81827 0.49197
 C344 C 1.00140 0.78334 0.46792
 C345 C 1.04248 0.72525 0.45119
 C346 C 1.10252 0.75907 0.47553
 H347 H 1.05004 0.72284 0.33890
 H348 H 0.97408 0.82854 0.36940
 H349 H 1.16079 0.78500 0.38268
 H350 H 1.06409 0.84659 0.53655
 H351 H 0.95492 0.78182 0.49294
 H352 H 1.13916 0.73758 0.50696
 C353 C -0.00091 1.28073 0.03380
 C354 C -0.05987 1.31711 0.00875
 C355 C -0.07267 1.34189 0.07650
 C356 C -0.01330 1.30693 0.10166
 C357 C -0.11510 1.28430 0.09156
 C358 C -0.10232 1.25867 0.02357
 C359 C -0.04349 1.22329 0.04887
 C360 C -0.05573 1.24839 0.11652
 H361 H 0.04608 1.27852 0.00983
 H362 H -0.06079 1.34596 -0.03555
 H363 H 0.02482 1.32446 0.13355
 H364 H -0.16206 1.28438 0.11553
 H365 H -0.13883 1.23860 -0.00893
 H366 H -0.05367 1.21959 0.16082
 C367 C 0.47255 0.21674 0.99569
 C368 C 0.40388 0.19176 0.98695
 C369 C 0.42507 0.15641 0.92623
 C370 C 0.49370 0.17996 0.93537
 C371 C 0.40885 0.21419 0.88439
 C372 C 0.38778 0.25041 0.94513
 C373 C 0.45623 0.27442 0.95368
 C374 C 0.47767 0.23875 0.89354
 H375 H 0.49901 0.21847 1.04146
 H376 H 0.37394 0.17442 1.02674
 H377 H 0.53724 0.15030 0.93230
 H378 H 0.38254 0.21408 0.83856
 H379 H 0.34426 0.27995 0.94948
 H380 H 0.50843 0.25863 0.85545
 C381 C 0.55486 0.61131 0.75071
 C382 C 0.61509 0.58992 0.71403
 C383 C 0.57304 0.57481 0.65600
 C384 C 0.51283 0.59632 0.69184
 C385 C 0.56321 0.50605 0.67897
 C386 C 0.60526 0.52097 0.73799
 C387 C 0.54563 0.54275 0.77418
 C388 C 0.50340 0.52752 0.71627
 H389 H 0.55109 0.65460 0.78075
 H390 H 0.66104 0.61571 0.71442
 H391 H 0.47348 0.62691 0.67479
 H392 H 0.56549 0.46273 0.64887
 H393 H 0.64298 0.48956 0.75745
 H394 H 0.45747 0.50158 0.71787
 C395 C 0.49435 0.03115 0.78062
 C396 C 0.48298 0.09930 0.80575
 C397 C 0.42434 0.07532 0.84268
 C398 C 0.43605 0.00718 0.81882
 C399 C 0.38059 0.08946 0.78564
 C400 C 0.43924 0.11330 0.74792
 C401 C 0.45061 0.04531 0.72368
 C402 C 0.39243 0.02107 0.76072
 H403 H 0.54112 0.00686 0.77784
 H404 H 0.52199 0.13105 0.82126
 H405 H 0.43523 -0.03635 0.84872
 H406 H 0.33385 0.11384 0.78671
 H407 H 0.44078 0.15699 0.71826
 H408 H 0.35546 -0.01145 0.74167
 C409 C 0.11710 0.94497 0.24994
 C410 C 0.10274 0.98727 0.30885
 C411 C 0.07780 0.92784 0.34392
 C412 C 0.09236 0.88557 0.28593
 C413 C 0.01010 0.94088 0.31954
 C414 C 0.03492 0.99988 0.28302
 C415 C 0.04953 0.95741 0.22521
 C416 C 0.02442 0.89856 0.26073
 H417 H 0.16110 0.94702 0.22081
 H418 H 0.13462 1.02534 0.32638
 H419 H 0.11615 0.83855 0.28560
 H420 H -0.03390 0.94006 0.34873
 H421 H 0.01110 1.04693 0.28105
 H422 H -0.00818 0.86216 0.24074
 C423 C 0.97441 0.39757 0.24083
 C424 C 0.90668 0.38557 0.21447
 C425 C 0.92309 0.42672 0.15617
 C426 C 0.99066 0.43863 0.18155
 C427 C 0.89882 0.48715 0.18990
 C428 C 0.88251 0.44602 0.24906
 C429 C 0.94991 0.45745 0.27485
 C430 C 0.96643 0.49870 0.21667
 H431 H 1.00589 0.36104 0.26235
 H432 H 0.88205 0.33898 0.21472
 H433 H 1.03511 0.43638 0.15315
 H434 H 0.86804 0.52567 0.17144
 H435 H 0.83798 0.44942 0.27726
 H436 H 0.99119 0.54527 0.21828
   
