data_POSCAR
  _audit_creation_date              2014-09-24
  _audit_creation_method            'ToBaCCo'
  _symmetry_space_group_name_H-M    'P1'
  _symmetry_Int_Tables_number       1
  _symmetry_cell_setting            triclinic
  loop_
  _symmetry_equiv_pos_as_xyz
 x,y,z
_cell_length_a 35.7200
_cell_length_b 34.6897
_cell_length_c 37.7288
_cell_angle_alpha 89.834900
_cell_angle_beta 93.025100
_cell_angle_gamma 91.798000
loop_
  _atom_site_label
  _atom_site_type_symbol
  _atom_site_fract_x
  _atom_site_fract_y
  _atom_site_fract_z
N1 N 0.14164 1.23207 0.15460
 N2 N 0.11092 1.22542 0.17152
 C3 C 0.08508 1.25082 0.16097
 C4 C 0.09996 1.27499 0.13553
 C5 C 0.13614 1.26197 0.13214
 H6 H 0.05738 1.25102 0.17108
 H7 H 0.15715 1.27356 0.11511
 Cu8 Cu 0.10644 1.18406 0.20552
 Cu9 Cu 0.18620 1.20142 0.16428
 Cu10 Cu 0.18195 1.13643 0.23459
 N11 N 0.10621 1.15387 0.24859
 N12 N 0.13549 1.13445 0.25974
 C13 C 0.12711 1.11483 0.28930
 C14 C 0.09048 1.12263 0.29731
 C15 C 0.07836 1.14779 0.27070
 H16 H 0.14647 1.09650 0.30379
 H17 H 0.05112 1.16030 0.26698
 N18 N 0.22616 1.14293 0.20564
 N19 N 0.22785 1.16746 0.17889
 C20 C 0.26069 1.16351 0.16347
 C21 C 0.28066 1.13504 0.18127
 C22 C 0.25780 1.12280 0.20789
 H23 H 0.26877 1.17915 0.14014
 H24 H 0.26337 1.10025 0.22707
 H25 H 0.16098 1.15233 0.18453
 H26 H 0.17373 1.19220 0.21649
 N27 N 0.84748 0.76459 0.11568
 N28 N 0.86245 0.74609 0.14306
 C29 C 0.87943 0.71476 0.13143
 C30 C 0.87468 0.71358 0.09467
 C31 C 0.85438 0.74586 0.08570
 H32 H 0.89385 0.69427 0.14846
 H33 H 0.84542 0.75534 0.05936
 Cu34 Cu 0.85875 0.76566 0.19099
 Cu35 Cu 0.82079 0.81193 0.12095
 Cu36 Cu 0.79399 0.83116 0.20583
 N37 N 0.85946 0.79421 0.23533
 N38 N 0.83386 0.81939 0.24142
 C39 C 0.84132 0.83502 0.27373
 C40 C 0.87382 0.81913 0.28875
 C41 C 0.88427 0.79311 0.26335
 H42 H 0.82475 0.85717 0.28467
 H43 H 0.90847 0.77515 0.26451
 N44 N 0.76879 0.85319 0.16298
 N45 N 0.78038 0.84683 0.13096
 C46 C 0.75745 0.86396 0.10687
 C47 C 0.72981 0.88202 0.12434
 C48 C 0.73808 0.87494 0.16008
 H49 H 0.76000 0.86211 0.07851
 H50 H 0.72211 0.88354 0.18214
 H51 H 0.83593 0.82883 0.17298
 H52 H 0.79942 0.78957 0.16588
 N53 N 0.82363 1.23566 -0.17780
 N54 N 0.84031 1.23533 -0.20819
 C55 C 0.86660 1.26399 -0.20806
 C56 C 0.86639 1.28352 -0.17610
 C57 C 0.83858 1.26482 -0.15769
 H58 H 0.88520 1.26951 -0.22932
 H59 H 0.83083 1.27100 -0.13103
 Cu60 Cu 0.82991 1.19547 -0.24486
 Cu61 Cu 0.78482 1.19701 -0.16536
 Cu62 Cu 0.76743 1.12639 -0.22436
 N63 N 0.82650 1.14609 -0.26961
 N64 N 0.80212 1.11880 -0.26150
 C65 C 0.80638 1.08795 -0.28224
 C66 C 0.83507 1.09622 -0.30490
 C67 C 0.84695 1.13374 -0.29604
 H68 H 0.78985 1.06147 -0.28061
 H69 H 0.86914 1.15088 -0.30732
 N70 N 0.73193 1.13724 -0.18868
 N71 N 0.73899 1.16482 -0.16528
 C72 C 0.71203 1.16393 -0.14165
 C73 C 0.68647 1.13412 -0.15075
 C74 C 0.70012 1.11800 -0.18092
 H75 H 0.71189 1.18286 -0.11896
 H76 H 0.68882 1.09297 -0.19524
 H77 H 0.81878 1.16725 -0.19913
 H78 H 0.77938 1.19577 -0.21872
 N79 N 0.20738 0.77247 -0.13786
 N80 N 0.18387 0.76545 -0.16543
 C81 C 0.16468 0.73211 -0.15968
 C82 C 0.17670 0.71741 -0.12688
 C83 C 0.20383 0.74392 -0.11399
 H84 H 0.14326 0.71977 -0.17790
 H85 H 0.21935 0.74307 -0.08867
 Cu86 Cu 0.17896 0.80097 -0.20655
 Cu87 Cu 0.24052 0.81887 -0.13369
 Cu88 Cu 0.24373 0.87357 -0.20658
 N89 N 0.17904 0.84021 -0.24403
 N90 N 0.20444 0.86842 -0.24361
 C91 C 0.19700 0.89242 -0.27082
 C92 C 0.16495 0.87883 -0.28983
 C93 C 0.15450 0.84526 -0.27197
 H94 H 0.21360 0.91828 -0.27558
 H95 H 0.13024 0.82655 -0.27793
 N96 N 0.27201 0.88810 -0.16332
 N97 N 0.27098 0.86645 -0.13477
 C98 C 0.29279 0.88318 -0.10862
 C99 C 0.30817 0.91733 -0.12146
 C100 C 0.29426 0.91946 -0.15635
 H101 H 0.29657 0.87166 -0.08206
 H102 H 0.29997 0.94198 -0.17538
 H103 H 0.19991 0.84028 -0.16930
 H104 H 0.23409 0.80695 -0.18780
 C105 C 0.50865 1.05441 0.04688
 C106 C 0.01184 0.49586 0.97139
 C107 C 0.98582 -0.03301 0.50517
 C108 C 0.09850 0.32588 1.08961
 C109 C 0.07950 0.35569 1.07154
 C110 C 0.04358 0.36566 1.08185
 C111 C 0.02719 0.34592 1.10965
 C112 C 0.04589 0.31626 1.12715
 C113 C 0.08178 0.30554 1.11754
 C114 C 0.02434 0.39513 1.06421
 C115 C 0.04030 0.41483 1.03608
 C116 C 0.07598 0.40504 1.02527
 C117 C 0.09553 0.37553 1.04317
 C118 C 0.09109 0.42463 0.99646
 C119 C 0.07121 0.45389 0.97887
 C120 C 0.03615 0.46507 0.99040
 C121 C 0.02074 0.44411 1.01853
 H122 H 0.12592 0.31836 1.08139
 H123 H -0.00030 0.35334 1.11786
 H124 H 0.03181 0.30223 1.14852
 H125 H -0.00320 0.40267 1.07232
 H126 H 0.12297 0.36791 1.03493
 H127 H 0.11809 0.41699 0.98721
 H128 H 0.08321 0.46705 0.95590
 H129 H -0.00683 0.45096 1.02695
 C130 C -0.08255 0.66019 1.08098
 C131 C -0.06960 0.63281 1.05758
 C132 C -0.08634 0.62927 1.02288
 C133 C -0.11561 0.65332 1.01215
 C134 C -0.12818 0.68065 1.03550
 C135 C -0.11186 0.68438 1.07012
 C136 C -0.07355 0.60182 0.99950
 C137 C -0.04415 0.57787 1.01035
 C138 C -0.02722 0.58168 1.04489
 C139 C -0.04005 0.60905 1.06831
 C140 C 0.00265 0.55840 1.05534
 C141 C 0.01522 0.53101 1.03213
 C142 C -0.00259 0.52509 0.99810
 C143 C -0.03138 0.55021 0.98714
 H144 H -0.06942 0.66296 1.10743
 H145 H -0.12882 0.65100 0.98568
 H146 H -0.15104 0.69856 1.02645
 H147 H -0.08649 0.59906 0.97292
 H148 H -0.02700 0.61188 1.09484
 H149 H 0.01663 0.56165 1.08140
 H150 H 0.03945 0.51498 1.04099
 H151 H -0.04409 0.54784 0.96048
 C152 C -0.11678 0.33863 0.86525
 C153 C -0.09121 0.36709 0.87894
 C154 C -0.05576 0.37196 0.86426
 C155 C -0.04686 0.34897 0.83561
 C156 C -0.07251 0.32083 0.82205
 C157 C -0.10749 0.31501 0.83698
 C158 C -0.02958 0.39931 0.87876
 C159 C -0.03840 0.42191 0.90776
 C160 C -0.07409 0.41767 0.92193
 C161 C -0.10032 0.39033 0.90743
 C162 C -0.08259 0.44007 0.95106
 C163 C -0.05589 0.46611 0.96636
 C164 C -0.02010 0.47124 0.95239
 C165 C -0.01171 0.44808 0.92327
 H166 H -0.14383 0.33484 0.87672
 H167 H -0.01986 0.35238 0.82397
 H168 H -0.06442 0.30299 0.80044
 H169 H -0.00221 0.40267 0.86776
 H170 H -0.12755 0.38672 0.91867
 H171 H -0.10962 0.43673 0.96265
 H172 H -0.06312 0.48094 0.99008
 H173 H 0.01611 0.45007 0.91310
 C174 C 0.13056 0.66138 0.87792
 C175 C 0.11568 0.62996 0.89677
 C176 C 0.13289 0.61923 0.92978
 C177 C 0.16518 0.63941 0.94292
 C178 C 0.17976 0.67064 0.92410
 C179 C 0.16236 0.68248 0.89169
 C180 C 0.11715 0.58903 0.94947
 C181 C 0.08416 0.56960 0.93674
 C182 C 0.06738 0.57976 0.90344
 C183 C 0.08332 0.60970 0.88354
 C184 C 0.03408 0.56080 0.89117
 C185 C 0.01698 0.53273 0.91201
 C186 C 0.03334 0.52178 0.94535
 C187 C 0.06702 0.54109 0.95740
 H188 H 0.11672 0.66981 0.85301
 H189 H 0.17892 0.63140 0.96805
 H190 H 0.20456 0.68560 0.93536
 H191 H 0.13013 0.58123 0.97503
 H192 H 0.07005 0.61783 0.85821
 H193 H 0.02047 0.56866 0.86594
 H194 H -0.01004 0.52106 0.90235
 H195 H 0.07919 0.53479 0.98362
 C196 C 1.08429 0.07899 0.34826
 C197 C 1.06304 0.06342 0.37546
 C198 C 1.02692 0.07720 0.38056
 C199 C 1.01261 0.10619 0.35838
 C200 C 1.03361 0.12118 0.33110
 C201 C 1.06974 0.10783 0.32544
 C202 C 1.00552 0.06158 0.40752
 C203 C 1.01961 0.03195 0.42923
 C204 C 1.05556 0.01790 0.42397
 C205 C 1.07719 0.03387 0.39730
 C206 C 1.06896 -0.01252 0.44496
 C207 C 1.04714 -0.02873 0.47111
 C208 C 1.01180 -0.01394 0.47806
 C209 C 0.99801 0.01581 0.45581
 H210 H 1.11177 0.06782 0.34467
 H211 H 0.98497 0.11714 0.36196
 H212 H 1.02120 0.14351 0.31475
 H213 H 0.97780 0.07224 0.41139
 H214 H 1.10479 0.02299 0.39328
 H215 H 1.09607 -0.02435 0.44067
 H216 H 1.05793 -0.05353 0.48520
 H217 H 0.97015 0.02627 0.45919
 C218 C 1.11449 -0.12065 0.66285
 C219 C 1.09592 -0.10187 0.63414
 C220 C 1.10938 -0.06521 0.62322
 C221 C 1.14139 -0.04836 0.64031
 C222 C 1.15983 -0.06717 0.66843
 C223 C 1.14659 -0.10337 0.68060
 C224 C 1.09058 -0.04568 0.59549
 C225 C 1.05855 -0.06237 0.57812
 C226 C 1.04529 -0.09932 0.58817
 C227 C 1.06398 -0.11889 0.61629
 C228 C 1.01316 -0.11558 0.57033
 C229 C 0.99434 -0.09535 0.54292
 C230 C 1.00761 -0.05853 0.53229
 C231 C 1.03942 -0.04220 0.55105
 H232 H 1.10375 -0.14858 0.67113
 H233 H 1.15212 -0.02035 0.63206
 H234 H 1.18422 -0.05248 0.68074
 H235 H 1.10083 -0.01735 0.58751
 H236 H 1.05358 -0.14710 0.62438
 H237 H 1.00218 -0.14370 0.57795
 H238 H 0.96879 -0.10825 0.53098
 H239 H 1.04920 -0.01327 0.54453
 C240 C 0.87937 -0.14315 0.34396
 C241 C 0.90009 -0.13119 0.37488
 C242 C 0.93502 -0.14761 0.38386
 C243 C 0.94807 -0.17656 0.36236
 C244 C 0.92746 -0.18819 0.33153
 C245 C 0.89317 -0.17112 0.32132
 C246 C 0.95679 -0.13409 0.41359
 C247 C 0.94435 -0.10378 0.43406
 C248 C 0.90902 -0.08804 0.42555
 C249 C 0.88691 -0.10213 0.39631
 C250 C 0.89712 -0.05713 0.44533
 C251 C 0.92063 -0.04069 0.47224
 C252 C 0.95631 -0.05564 0.48121
 C253 C 0.96752 -0.08770 0.46178
 H254 H 0.85294 -0.12977 0.33743
 H255 H 0.97467 -0.18971 0.36898
 H256 H 0.93918 -0.21011 0.31552
 H257 H 0.98391 -0.14626 0.42007
 H258 H 0.86007 -0.08949 0.38948
 H259 H 0.87030 -0.04438 0.43884
 H260 H 0.91128 -0.01482 0.48447
 H261 H 0.99533 -0.09873 0.46699
 C262 C 0.87878 0.08441 0.64834
 C263 C 0.89348 0.05971 0.62349
 C264 C 0.87873 0.02162 0.61954
 C265 C 0.84933 0.00900 0.64017
 C266 C 0.83479 0.03366 0.66479
 C267 C 0.84936 0.07171 0.66953
 C268 C 0.89368 -0.00333 0.59516
 C269 C 0.92323 0.00936 0.57459
 C270 C 0.93785 0.04749 0.57829
 C271 C 0.92291 0.07247 0.60271
 C272 C 0.96768 0.05978 0.55799
 C273 C 0.98284 0.03465 0.53410
 C274 C 0.96786 -0.00327 0.52910
 C275 C 0.93860 -0.01571 0.55060
 H276 H 0.89061 0.11341 0.65098
 H277 H 0.83762 -0.02011 0.63741
 H278 H 0.81224 0.02235 0.68015
 H279 H 0.88242 -0.03263 0.59230
 H280 H 0.93433 0.10169 0.60569
 H281 H 0.97978 0.08870 0.56103
 H282 H 1.00703 0.04493 0.52041
 H283 H 0.92784 -0.04524 0.54858
 C284 C 0.33940 1.13758 0.14728
 C285 C 0.37210 1.12070 0.13633
 C286 C 0.38272 1.08461 0.15040
 C287 C 0.36101 1.06652 0.17584
 C288 C 0.32839 1.08334 0.18641
 C289 C 0.31683 1.11872 0.17187
 C290 C 0.41421 1.06666 0.13808
 C291 C 0.43476 1.08398 0.11129
 C292 C 0.42460 1.12040 0.09778
 C293 C 0.39364 1.13878 0.11067
 C294 C 0.44439 1.13702 0.07030
 C295 C 0.47285 1.11707 0.05515
 C296 C 0.48349 1.08044 0.06801
 C297 C 0.46408 1.06451 0.09656
 H298 H 0.33132 1.16508 0.13613
 H299 H 0.36879 1.03890 0.18699
 H300 H 0.31181 1.06793 0.20533
 H301 H 0.42195 1.03866 0.14848
 H302 H 0.38553 1.16647 0.09982
 H303 H 0.43663 1.16471 0.05929
 H304 H 0.48492 1.12983 0.03204
 H305 H 0.47045 1.03578 0.10595
 C306 C 0.64772 1.13446 -0.09686
 C307 C 0.61907 1.11852 -0.07672
 C308 C 0.59630 1.08749 -0.09059
 C309 C 0.60183 1.07367 -0.12468
 C310 C 0.63040 1.08958 -0.14449
 C311 C 0.65417 1.11964 -0.13064
 C312 C 0.56888 1.07025 -0.06995
 C313 C 0.56399 1.08349 -0.03547
 C314 C 0.58616 1.11502 -0.02183
 C315 C 0.61346 1.13248 -0.04258
 C316 C 0.58156 1.12769 0.01280
 C317 C 0.55572 1.10893 0.03394
 C318 C 0.53289 1.07758 0.02084
 C319 C 0.53806 1.06480 -0.01409
 H320 H 0.66549 1.15766 -0.08565
 H321 H 0.58441 1.05012 -0.13585
 H322 H 0.63398 1.07780 -0.17054
 H323 H 0.55180 1.04609 -0.08050
 H324 H 0.63086 1.15632 -0.03186
 H325 H 0.59862 1.15153 0.02390
 H326 H 0.55395 1.11846 0.06109
 H327 H 0.52342 1.03915 -0.02441
 C328 C 0.35434 0.93417 -0.07120
 C329 C 0.37932 0.96031 -0.05322
 C330 C 0.38373 0.99842 -0.06607
 C331 C 0.36303 1.00967 -0.09675
 C332 C 0.33845 0.98335 -0.11470
 C333 C 0.33388 0.94536 -0.10216
 C334 C 0.40901 1.02446 -0.04827
 C335 C 0.43041 1.01262 -0.01814
 C336 C 0.42591 0.97451 -0.00540
 C337 C 0.40025 0.94870 -0.02281
 C338 C 0.44711 0.96280 0.02468
 C339 C 0.47346 0.98809 0.04139
 C340 C 0.48011 1.02568 0.02798
 C341 C 0.45656 1.03813 -0.00081
 H342 H 0.35148 0.90491 -0.06138
 H343 H 0.36599 1.03876 -0.10698
 H344 H 0.32281 0.99294 -0.13826
 H345 H 0.41245 1.05368 -0.05817
 H346 H 0.39687 0.91946 -0.01293
 H347 H 0.44332 0.93399 0.03537
 H348 H 0.48827 0.97799 0.06519
 H349 H 0.45936 1.06757 -0.01025
 C350 C 0.67736 0.92906 0.12547
 C351 C 0.64696 0.94768 0.10821
 C352 C 0.63588 0.93763 0.07278
 C353 C 0.65488 0.90934 0.05528
 C354 C 0.68505 0.89136 0.07237
 C355 C 0.69689 0.90111 0.10742
 C356 C 0.60617 0.95616 0.05509
 C357 C 0.58733 0.98496 0.07209
 C358 C 0.59794 0.99529 0.10741
 C359 C 0.62771 0.97645 0.12542
 C360 C 0.57897 1.02476 0.12369
 C361 C 0.54985 1.04373 0.10510
 C362 C 0.53839 1.03294 0.07003
 C363 C 0.55827 1.00387 0.05381
 H364 H 0.68626 0.93686 0.15247
 H365 H 0.64654 0.90123 0.02822
 H366 H 0.69889 0.86945 0.05801
 H367 H 0.59790 0.94839 0.02788
 H368 H 0.63610 0.98442 0.15252
 H369 H 0.58707 1.03361 0.15059
 H370 H 0.53711 1.06736 0.11808
 H371 H 0.55101 0.99603 0.02646
   
