data_POSCAR
  _audit_creation_date              2014-09-24
  _audit_creation_method            'ToBaCCo'
  _symmetry_space_group_name_H-M    'P1'
  _symmetry_Int_Tables_number       1
  _symmetry_cell_setting            triclinic
  loop_
  _symmetry_equiv_pos_as_xyz
 x,y,z
_cell_length_a 50.4759
_cell_length_b 53.8638
_cell_length_c 49.8677
_cell_angle_alpha 91.994500
_cell_angle_beta 90.247500
_cell_angle_gamma 94.507800
loop_
  _atom_site_label
  _atom_site_type_symbol
  _atom_site_fract_x
  _atom_site_fract_y
  _atom_site_fract_z
C1 C 0.27467 0.46325 0.99521
 C2 C 0.25907 0.46404 1.02146
 C3 C 0.24312 0.48318 1.02389
 C4 C 0.24431 0.50022 0.99973
 C5 C 0.25345 0.46332 0.97292
 C6 C 0.23767 0.48280 0.97499
 C7 C 0.28956 0.48911 0.99384
 C8 C 0.27390 0.50839 0.99657
 H9 H 0.25988 0.44996 1.03637
 H10 H 0.23189 0.51625 1.00192
 H11 H 0.25177 0.44998 0.95625
 H12 H 0.31089 0.49192 0.99135
 C13 C 0.73185 0.54926 -0.00162
 C14 C 0.74998 0.54554 0.02257
 C15 C 0.76377 0.52474 0.02039
 C16 C 0.75789 0.50926 -0.00584
 C17 C 0.75043 0.54863 -0.02587
 C18 C 0.76401 0.52778 -0.02821
 C19 C 0.71419 0.52488 -0.00428
 C20 C 0.72755 0.50404 -0.00687
 H21 H 0.75180 0.55787 0.04008
 H22 H 0.76867 0.49215 -0.00803
 H23 H 0.75300 0.56378 -0.03958
 H24 H 0.69268 0.52426 -0.00459
 C25 C 0.04760 0.23205 0.49066
 C26 C 0.04434 0.24581 0.46635
 C27 C 0.02037 0.25860 0.46522
 C28 C 0.00432 0.25535 0.48950
 C29 C 0.04575 0.25158 0.51363
 C30 C 0.02319 0.26390 0.51303
 C31 C 0.02198 0.21504 0.49259
 C32 C -0.00066 0.22705 0.49239
 H33 H 0.06055 0.25026 0.45296
 H34 H -0.01453 0.26447 0.49021
 H35 H 0.06148 0.25602 0.52827
 H36 H 0.02190 0.19501 0.49407
 C37 C 0.95278 0.76165 0.49989
 C38 C 0.95264 0.74099 0.47788
 C39 C 0.97478 0.72801 0.47754
 C40 C 0.99525 0.73691 0.49949
 C41 C 0.95714 0.74789 0.52585
 C42 C 0.97922 0.73473 0.52569
 C43 C 0.97862 0.77765 0.49589
 C44 C 1.00085 0.76503 0.49549
 H45 H 0.93599 0.73655 0.46434
 H46 H 1.01329 0.72642 0.49912
 H47 H 0.94289 0.74683 0.54195
 H48 H 0.97915 0.79769 0.49417
 C49 C 0.50298 0.04498 0.22637
 C50 C 0.48067 0.04471 0.24706
 C51 C 0.48039 0.02540 0.26389
 C52 C 0.50265 0.00790 0.25848
 C53 C 0.52870 0.04438 0.24301
 C54 C 0.52870 0.02497 0.25996
 C55 C 0.49998 0.02057 0.21279
 C56 C 0.49957 0.00001 0.23024
 H57 H 0.46631 0.05864 0.24820
 H58 H 0.50161 -0.00768 0.27240
 H59 H 0.54540 0.05807 0.24130
 H60 H 0.50264 0.01799 0.19138
 C61 C 0.49772 -0.04020 0.77953
 C62 C 0.47223 -0.04062 0.76240
 C63 C 0.47126 -0.02064 0.74650
 C64 C 0.49586 -0.00197 0.74901
 C65 C 0.52014 -0.03778 0.75892
 C66 C 0.51936 -0.01783 0.74294
 C67 C 0.49925 -0.01506 0.79481
 C68 C 0.49796 0.00502 0.77917
 H69 H 0.45738 -0.05621 0.76084
 H70 H 0.49471 0.01420 0.73599
 H71 H 0.53516 -0.05100 0.75704
 H72 H 0.50119 -0.01352 0.81645
 C73 C 0.28609 0.01586 0.47029
 H74 H 0.28787 0.02869 0.48750
 C75 C 0.30423 0.01838 0.44936
 H76 H 0.31981 0.03340 0.45041
 C77 C 0.26374 -0.01953 0.44824
 H78 H 0.24838 -0.03465 0.44818
 C79 C 0.28132 -0.01753 0.42670
 H80 H 0.27923 -0.03111 0.41015
 N81 N 0.26634 -0.00283 0.46939
 C82 C 0.20889 0.02584 0.52525
 H83 H 0.20819 0.01196 0.54045
 C84 C 0.19375 0.04639 0.52820
 H85 H 0.18197 0.04833 0.54611
 C86 C 0.22547 0.04005 0.48370
 H87 H 0.23745 0.03728 0.46611
 C88 C 0.21025 0.06059 0.48556
 H89 H 0.21070 0.07322 0.46913
 Zn90 Zn 0.24438 -0.00523 0.49998
 N91 N 0.22468 0.02327 0.50348
 C92 C 0.26899 0.00956 0.55048
 N93 N 0.26755 -0.00746 0.52960
 C94 C 0.28451 -0.02584 0.52781
 C95 C 0.30408 -0.02750 0.54737
 C96 C 0.28806 0.00837 0.57070
 C97 C 0.20220 -0.03470 0.47617
 C98 C 0.18308 -0.05474 0.47303
 C99 C 0.19997 -0.07198 0.51316
 C100 C 0.21905 -0.05171 0.51533
 N101 N 0.21984 -0.03363 0.49691
 H102 H 0.25594 0.02450 0.55119
 H103 H 0.28318 -0.03888 0.51078
 H104 H 0.31760 -0.04210 0.54550
 H105 H 0.28931 0.02229 0.58695
 H106 H 0.20307 -0.01991 0.46199
 H107 H 0.16965 -0.05536 0.45600
 H108 H 0.19926 -0.08581 0.52843
 H109 H 0.23288 -0.05023 0.53202
 C110 C 0.19415 0.06413 0.50811
 C111 C 0.30199 0.00150 0.42724
 C112 C 0.18154 -0.07367 0.49182
 C113 C 0.30611 -0.01014 0.56905
 C114 C 0.71272 0.01631 0.53453
 H115 H 0.71166 0.02928 0.51859
 C116 C 0.69319 0.01536 0.55433
 H117 H 0.67750 0.02792 0.55362
 C118 C 0.73278 -0.01746 0.55327
 H119 H 0.74758 -0.03081 0.55250
 C120 C 0.71374 -0.01900 0.57344
 H121 H 0.71471 -0.03312 0.58827
 N122 N 0.73198 -0.00003 0.53423
 C123 C 0.80557 0.02499 0.50055
 H124 H 0.81192 0.00660 0.49634
 C125 C 0.82449 0.04528 0.50182
 H126 H 0.84524 0.04219 0.49885
 C127 C 0.77099 0.05154 0.50857
 H128 H 0.75013 0.05393 0.51117
 C129 C 0.78931 0.07247 0.50968
 H130 H 0.78242 0.09080 0.51345
 Zn131 Zn 0.75496 -0.00056 0.50413
 N132 N 0.77940 0.02829 0.50451
 C133 C 0.73589 0.01628 0.45469
 N134 N 0.73287 -0.00143 0.47346
 C135 C 0.71247 -0.01947 0.47203
 C136 C 0.69381 -0.02000 0.45131
 C137 C 0.71749 0.01657 0.43370
 C138 C 0.79150 -0.03184 0.52507
 C139 C 0.80567 -0.05296 0.52665
 C140 C 0.78450 -0.06908 0.48544
 C141 C 0.77075 -0.04759 0.48462
 N142 N 0.77419 -0.02961 0.50446
 H143 H 0.75215 0.03056 0.45638
 H144 H 0.71048 -0.03320 0.48736
 H145 H 0.67776 -0.03458 0.45058
 H146 H 0.71967 0.03134 0.41950
 H147 H 0.79424 -0.01712 0.54039
 H148 H 0.81949 -0.05418 0.54312
 H149 H 0.78107 -0.08338 0.46974
 H150 H 0.75727 -0.04539 0.46815
 C151 C 0.81649 0.06934 0.50677
 C152 C 0.69332 -0.00276 0.57388
 C153 C 0.80213 -0.07205 0.50676
 C154 C 0.69585 -0.00154 0.43204
 C155 C 0.48440 0.21789 1.01362
 H156 H 0.47118 0.21582 0.99641
 C157 C 0.48204 0.20062 1.03376
 H158 H 0.46649 0.18560 1.03214
 C159 C 0.52081 0.24005 1.03623
 H160 H 0.53615 0.25524 1.03676
 C161 C 0.51936 0.22296 1.05678
 H162 H 0.53381 0.22511 1.07295
 N163 N 0.50359 0.23704 1.01512
 C164 C 0.47584 0.29178 0.96129
 H165 H 0.49265 0.29435 0.94800
 C166 C 0.45444 0.30651 0.95889
 H167 H 0.45473 0.32035 0.94364
 C168 C 0.45544 0.27141 0.99813
 H169 H 0.45615 0.25830 1.01394
 C170 C 0.43338 0.28533 0.99604
 H171 H 0.41727 0.28273 1.01020
 Zn172 Zn 0.50701 0.25719 0.98493
 N173 N 0.47614 0.27484 0.98089
 C174 C 0.49518 0.23500 0.93275
 N175 N 0.51070 0.23498 0.95515
 C176 C 0.52700 0.21649 0.95903
 C177 C 0.52744 0.19655 0.94056
 C178 C 0.49518 0.21542 0.91355
 C179 C 0.53331 0.30453 0.99490
 C180 C 0.55463 0.32262 0.99610
 C181 C 0.58430 0.29051 0.98619
 C182 C 0.56230 0.27300 0.98493
 N183 N 0.53734 0.28032 0.98876
 H184 H 0.48186 0.24950 0.93028
 H185 H 0.53847 0.21638 0.97738
 H186 H 0.53982 0.18153 0.94452
 H187 H 0.48189 0.21505 0.89640
 H188 H 0.51348 0.30993 0.99871
 H189 H 0.55096 0.34185 1.00065
 H190 H 0.60396 0.28453 0.98237
 H191 H 0.56521 0.25368 0.98037
 C192 C 0.43296 0.30336 0.97650
 C193 C 0.50000 0.20268 1.05547
 C194 C 0.58047 0.31575 0.99129
 C195 C 0.51087 0.19554 0.91786
 C196 C 0.47709 0.79033 -0.00316
 H197 H 0.46126 0.78883 0.01140
 C198 C 0.47585 0.80671 -0.02407
 H199 H 0.45912 0.81805 -0.02528
 C200 C 0.51826 0.77750 -0.01890
 H201 H 0.53488 0.76627 -0.01670
 C202 C 0.51784 0.79369 -0.04017
 H203 H 0.53395 0.79434 -0.05445
 N204 N 0.49772 0.77568 -0.00133
 C205 C 0.45949 0.71321 0.04066
 H206 H 0.47160 0.71335 0.05862
 C207 C 0.43815 0.69527 0.03681
 H208 H 0.43400 0.68151 0.05186
 C209 C 0.45102 0.73024 -0.00143
 H210 H 0.45645 0.74346 -0.01663
 C211 C 0.42966 0.71258 -0.00616
 H212 H 0.41854 0.71275 -0.02476
 Zn213 Zn 0.49585 0.75289 0.02677
 N214 N 0.46544 0.73028 0.02169
 C215 C 0.47069 0.77155 0.07326
 N216 N 0.49363 0.77208 0.05901
 C217 C 0.51460 0.78863 0.06550
 C218 C 0.51288 0.80579 0.08691
 C219 C 0.46799 0.78861 0.09463
 C220 C 0.53013 0.72033 0.00381
 C221 C 0.55172 0.70574 0.00202
 C222 C 0.56341 0.71821 0.04781
 C223 C 0.54178 0.73293 0.04857
 N224 N 0.52584 0.73390 0.02664
 H225 H 0.45399 0.75874 0.06731
 H226 H 0.53234 0.78907 0.05337
 H227 H 0.52941 0.81944 0.09117
 H228 H 0.44934 0.78851 0.10528
 H229 H 0.51685 0.72109 -0.01318
 H230 H 0.55512 0.69581 -0.01673
 H231 H 0.57549 0.71731 0.06568
 H232 H 0.53754 0.74322 0.06682
 C233 C 0.42312 0.69468 0.01299
 C234 C 0.49620 0.80827 -0.04318
 C235 C 0.56872 0.70440 0.02424
 C236 C 0.48913 0.80627 0.10137
 C237 C 1.02959 0.47181 0.21162
 H238 H 1.01246 0.45843 0.20997
 C239 C 1.04966 0.47136 0.19256
 H240 H 1.04806 0.45735 0.17639
 C241 C 1.05197 0.50685 0.23428
 H242 H 1.05238 0.52109 0.25010
 C243 C 1.07271 0.50690 0.21574
 H244 H 1.08904 0.52117 0.21751
 N245 N 1.03091 0.48951 0.23179
 C246 C 0.97463 0.45817 0.29018
 H247 H 0.95992 0.47174 0.29033
 C248 C 0.97177 0.43800 0.30708
 H249 H 0.95442 0.43595 0.31974
 C250 C 1.01518 0.44468 0.27357
 H251 H 1.03242 0.44770 0.26098
 C252 C 1.01327 0.42441 0.29036
 H253 H 1.02924 0.41213 0.29046
 Zn254 Zn 1.00035 0.49017 0.25352
 N255 N 0.99605 0.46110 0.27383
 C256 C 0.94992 0.47564 0.22805
 N257 N 0.97144 0.49252 0.22961
 C258 C 0.97396 0.51204 0.21300
 C259 C 0.95402 0.51568 0.19448
 C260 C 0.92943 0.47856 0.20968
 C261 C 1.02259 0.52002 0.29684
 C262 C 1.02405 0.53964 0.31606
 C263 C 0.98466 0.55447 0.29647
 C264 C 0.98400 0.53469 0.27763
 N265 N 1.00285 0.51799 0.27803
 H266 H 0.94858 0.45991 0.24097
 H267 H 0.99154 0.52489 0.21431
 H268 H 0.95653 0.53133 0.18142
 H269 H 0.91221 0.46524 0.20899
 H270 H 1.03701 0.50620 0.29708
 H271 H 1.03965 0.54078 0.33112
 H272 H 0.96952 0.56760 0.29568
 H273 H 0.96807 0.53249 0.26302
 C274 C 0.99143 0.42090 0.30760
 C275 C 1.07139 0.48927 0.19427
 C276 C 1.00476 0.55706 0.31614
 C277 C 0.93126 0.49896 0.19277
 C278 C -0.02697 0.48148 0.78260
 H279 H -0.01243 0.46775 0.78200
 C280 C -0.04635 0.48079 0.80254
 H281 H -0.04689 0.46612 0.81687
 C282 C -0.04356 0.51745 0.76481
 H283 H -0.04201 0.53212 0.75056
 C284 C -0.06318 0.51753 0.78446
 H285 H -0.07650 0.53234 0.78498
 N286 N -0.02599 0.49954 0.76416
 C287 C 0.01821 0.47229 0.69555
 H288 H 0.03192 0.48850 0.69300
 C289 C 0.01869 0.45175 0.67779
 H290 H 0.03298 0.45217 0.66164
 C291 C -0.01687 0.45202 0.71997
 H292 H -0.03091 0.45231 0.73623
 C293 C -0.01684 0.43091 0.70284
 H294 H -0.03091 0.41508 0.70607
 Zn295 Zn 0.00238 0.50086 0.73930
 N296 N 0.00078 0.47202 0.71628
 C297 C 0.05141 0.48486 0.75712
 N298 N 0.03423 0.50301 0.75970
 C299 C 0.03815 0.52176 0.77860
 C300 C 0.05999 0.52268 0.79600
 C301 C 0.07345 0.48501 0.77414
 C302 C -0.02044 0.52840 0.70034
 C303 C -0.02334 0.54824 0.68360
 C304 C 0.01771 0.56831 0.70164
 C305 C 0.01983 0.54803 0.71808
 N306 N 0.00067 0.52877 0.71740
 H307 H 0.04761 0.46975 0.74247
 H308 H 0.02393 0.53573 0.78051
 H309 H 0.06271 0.53774 0.81094
 H310 H 0.08634 0.46991 0.77232
 H311 H -0.03514 0.51265 0.69988
 H312 H -0.04026 0.54747 0.67010
 H313 H 0.03285 0.58371 0.70285
 H314 H 0.03672 0.54777 0.73140
 C315 C 0.00114 0.43063 0.68145
 C316 C -0.06473 0.49910 0.80377
 C317 C -0.00422 0.56868 0.68424
 C318 C 0.07783 0.50393 0.79414
 C319 C 0.09016 0.21378 0.47194
 C320 C 0.10994 0.19713 0.47407
 C321 C 0.11148 0.18268 0.49668
 C322 C 0.09401 0.18614 0.51804
 C323 C 0.07467 0.20319 0.51628
 C324 C 0.07184 0.21681 0.49292
 N325 N 0.12983 0.16370 0.49682
 N326 N 0.12686 0.14545 0.51237
 C327 C 0.14460 0.12596 0.51223
 C328 C 0.13649 0.10356 0.52420
 C329 C 0.15254 0.08356 0.52300
 C330 C 0.17741 0.08576 0.51023
 C331 C 0.18582 0.10868 0.49895
 C332 C 0.16947 0.12850 0.49971
 H333 H 0.08908 0.22331 0.45337
 H334 H 0.12333 0.19461 0.45746
 H335 H 0.09499 0.17533 0.53587
 H336 H 0.06101 0.20498 0.53280
 H337 H 0.11729 0.10136 0.53382
 H338 H 0.14505 0.06619 0.53148
 H339 H 0.20505 0.11139 0.48954
 H340 H 0.17627 0.14577 0.49057
 C341 C 0.69771 0.57409 -0.02302
 C342 C 0.67953 0.59230 -0.02246
 C343 C 0.67851 0.60884 -0.00039
 C344 C 0.69659 0.60755 0.02089
 C345 C 0.71470 0.58912 0.02053
 C346 C 0.71507 0.57166 -0.00121
 N347 N 0.65782 0.62556 0.00055
 N348 N 0.65670 0.64283 0.01849
 C349 C 0.63476 0.65818 0.01955
 C350 C 0.63675 0.68025 0.03532
 C351 C 0.61545 0.69539 0.03679
 C352 C 0.59153 0.68842 0.02284
 C353 C 0.58956 0.66596 0.00740
 C354 C 0.61098 0.65112 0.00560
 H355 H 0.69754 0.56115 -0.04015
 H356 H 0.66572 0.59314 -0.03903
 H357 H 0.69616 0.62024 0.03817
 H358 H 0.72767 0.58855 0.03767
 H359 H 0.65495 0.68587 0.04624
 H360 H 0.61788 0.71268 0.04857
 H361 H 0.57132 0.65957 -0.00304
 H362 H 0.60878 0.63392 -0.00636
 C363 C 0.92069 -0.21435 0.47385
 C364 C 0.90161 -0.19703 0.47235
 C365 C 0.89084 -0.18702 0.49569
 C366 C 0.89889 -0.19503 0.52074
 C367 C 0.91799 -0.21241 0.52232
 C368 C 0.92913 -0.22246 0.49884
 N369 N 0.87329 -0.16755 0.49340
 N370 N 0.86334 -0.15697 0.51378
 C371 C 0.84689 -0.13666 0.51134
 C372 C 0.83621 -0.12616 0.53452
 C373 C 0.82135 -0.10542 0.53302
 C374 C 0.81699 -0.09472 0.50820
 C375 C 0.82740 -0.10558 0.48486
 C376 C 0.84221 -0.12636 0.48640
 H377 H 0.92958 -0.22071 0.45540
 H378 H 0.89586 -0.19073 0.45293
 H379 H 0.89113 -0.18724 0.53913
 H380 H 0.92472 -0.21695 0.54201
 H381 H 0.83967 -0.13393 0.55385
 H382 H 0.81324 -0.09778 0.55131
 H383 H 0.82470 -0.09762 0.46549
 H384 H 0.85039 -0.13405 0.46818
 C385 C 0.31633 0.44492 1.01093
 C386 C 0.33511 0.42729 1.00959
 C387 C 0.33110 0.40622 0.99255
 C388 C 0.30768 0.40262 0.97715
 C389 C 0.28900 0.42054 0.97806
 C390 C 0.29349 0.44241 0.99439
 N391 N 0.35155 0.38932 0.99075
 N392 N 0.34793 0.36753 0.98003
 C393 C 0.36935 0.35166 0.97796
 C394 C 0.36375 0.32582 0.97515
 C395 C 0.38444 0.30998 0.97445
 C396 C 0.41102 0.31989 0.97576
 C397 C 0.41661 0.34582 0.97767
 C398 C 0.39595 0.36159 0.97901
 H399 H 0.31999 0.46096 1.02453
 H400 H 0.35295 0.43010 1.02182
 H401 H 0.30406 0.38623 0.96405
 H402 H 0.27123 0.41694 0.96602
 H403 H 0.34334 0.31796 0.97421
 H404 H 0.37976 0.29000 0.97293
 H405 H 0.43697 0.35382 0.97888
 H406 H 0.40075 0.38152 0.98091
 C407 C 0.95087 0.21902 0.48055
 C408 C 0.92680 0.20425 0.48222
 C409 C 0.92449 0.18414 0.49942
 C410 C 0.94620 0.17968 0.51583
 C411 C 0.97011 0.19427 0.51411
 C412 C 0.97293 0.21366 0.49598
 N413 N 0.90082 0.16750 0.49886
 N414 N 0.89953 0.14798 0.51262
 C415 C 0.87736 0.12971 0.51220
 C416 C 0.87960 0.10812 0.52652
 C417 C 0.85957 0.08878 0.52510
 C418 C 0.83671 0.09077 0.50942
 C419 C 0.83397 0.11284 0.49574
 C420 C 0.85428 0.13218 0.49696
 H421 H 0.95259 0.23388 0.46643
 H422 H 0.91024 0.20795 0.46948
 H423 H 0.94496 0.16448 0.52953
 H424 H 0.98661 0.19010 0.52669
 H425 H 0.89729 0.10606 0.53835
 H426 H 0.86201 0.07212 0.53612
 H427 H 0.81655 0.11476 0.48345
 H428 H 0.85218 0.14875 0.48571
 C429 C 0.27771 0.55145 0.01737
 C430 C 0.29125 0.57512 0.02025
 C431 C 0.31194 0.58225 0.00280
 C432 C 0.31827 0.56579 -0.01828
 C433 C 0.30502 0.54212 -0.02095
 C434 C 0.28507 0.53455 -0.00279
 N435 N 0.32762 0.60529 0.00795
 N436 N 0.34571 0.61287 -0.00820
 C437 C 0.36326 0.63467 -0.00293
 C438 C 0.38094 0.64252 -0.02298
 C439 C 0.39997 0.66237 -0.01797
 C440 C 0.40179 0.67463 0.00740
 C441 C 0.38374 0.66697 0.02745
 C442 C 0.36451 0.64718 0.02231
 H443 H 0.26249 0.54590 0.03169
 H444 H 0.28622 0.58760 0.03661
 H445 H 0.33413 0.57081 -0.03209
 H446 H 0.31083 0.52946 -0.03682
 H447 H 0.38032 0.63285 -0.04241
 H448 H 0.41384 0.66762 -0.03368
 H449 H 0.38460 0.67620 0.04711
 H450 H 0.35113 0.64129 0.03818
 C451 C 0.04948 -0.22757 0.50708
 C452 C 0.07330 -0.21228 0.50645
 C453 C 0.07532 -0.19125 0.49056
 C454 C 0.05388 -0.18668 0.47387
 C455 C 0.03030 -0.20191 0.47439
 C456 C 0.02747 -0.22194 0.49174
 N457 N 0.09828 -0.17379 0.49287
 N458 N 0.09768 -0.15211 0.48357
 C459 C 0.11929 -0.13328 0.48556
 C460 C 0.11475 -0.10930 0.47778
 C461 C 0.13486 -0.09004 0.47994
 C462 C 0.16024 -0.09445 0.48959
 C463 C 0.16483 -0.11871 0.49724
 C464 C 0.14447 -0.13798 0.49535
 H465 H 0.04786 -0.24287 0.52061
 H466 H 0.08972 -0.21613 0.51931
 H467 H 0.05504 -0.17087 0.46098
 H468 H 0.01390 -0.19751 0.46178
 H469 H 0.09534 -0.10545 0.47039
 H470 H 0.13031 -0.07157 0.47446
 H471 H 0.18420 -0.12289 0.50443
 H472 H 0.14841 -0.15645 0.50140
 C473 C 0.69228 0.47701 0.96904
 C474 C 0.67670 0.45461 0.96569
 C475 C 0.68184 0.43413 0.98074
 C476 C 0.70373 0.43587 0.99845
 C477 C 0.71959 0.45838 1.00170
 C478 C 0.71346 0.47931 0.98756
 N479 N 0.66319 0.41273 0.97892
 N480 N 0.66514 0.39319 0.99219
 C481 C 0.64458 0.37323 0.99057
 C482 C 0.64768 0.35121 1.00400
 C483 C 0.62709 0.33216 1.00389
 C484 C 0.60296 0.33510 0.99061
 C485 C 0.60011 0.35702 0.97682
 C486 C 0.62069 0.37585 0.97671
 H487 H 0.68742 0.49278 0.95758
 H488 H 0.65993 0.45345 0.95195
 H489 H 0.70803 0.42020 1.01031
 H490 H 0.73575 0.45975 1.01611
 H491 H 0.66593 0.34896 1.01484
 H492 H 0.62973 0.31545 1.01474
 H493 H 0.58188 0.35961 0.96609
 H494 H 0.61768 0.39264 0.96617
 C495 C 0.51359 0.09089 1.21664
 C496 C 0.51351 0.11113 1.19981
 C497 C 0.50185 0.10818 1.17430
 C498 C 0.48915 0.08498 1.16625
 C499 C 0.48901 0.06484 1.18309
 C500 C 0.50233 0.06712 1.20808
 N501 N 0.50327 0.12874 1.15675
 N502 N 0.49630 0.12567 1.13224
 C503 C 0.49741 0.14543 1.11376
 C504 C 0.49203 0.13941 1.08672
 C505 C 0.49304 0.15797 1.06788
 C506 C 0.49915 0.18310 1.07581
 C507 C 0.50456 0.18913 1.10308
 C508 C 0.50376 0.17042 1.12194
 H509 H 0.52260 0.09386 1.23634
 H510 H 0.52285 0.12907 1.20651
 H511 H 0.47925 0.08239 1.14694
 H512 H 0.47831 0.04755 1.17636
 H513 H 0.48728 0.12018 1.08020
 H514 H 0.48939 0.15253 1.04701
 H515 H 0.50907 0.20831 1.10989
 H516 H 0.50791 0.17547 1.14283
 C517 C 0.01079 0.71150 0.55272
 C518 C 0.01568 0.69355 0.57140
 C519 C -0.00542 0.68053 0.58429
 C520 C -0.03159 0.68586 0.57846
 C521 C -0.03650 0.70370 0.55979
 C522 C -0.01538 0.71675 0.54662
 N523 N 0.00001 0.66156 0.60259
 N524 N -0.01860 0.64961 0.61506
 C525 C -0.01412 0.63010 0.63294
 C526 C -0.03593 0.61848 0.64600
 C527 C -0.03266 0.59877 0.66286
 C528 C -0.00738 0.59021 0.66693
 C529 C 0.01462 0.60215 0.65405
 C530 C 0.01129 0.62194 0.63717
 H531 H 0.02751 0.72126 0.54312
 H532 H 0.03595 0.68963 0.57569
 H533 H -0.04830 0.67595 0.58796
 H534 H -0.05694 0.70666 0.55516
 H535 H -0.05559 0.62465 0.64296
 H536 H -0.04993 0.59030 0.67282
 H537 H 0.03430 0.59585 0.65656
 H538 H 0.02846 0.63060 0.62719
 C539 C 0.52480 0.93551 -0.18928
 C540 C 0.52723 0.91778 -0.16984
 C541 C 0.50495 0.90307 -0.16156
 C542 C 0.48009 0.90606 -0.17324
 C543 C 0.47759 0.92377 -0.19274
 C544 C 0.50000 0.93863 -0.20130
 N545 N 0.50790 0.88612 -0.14047
 N546 N 0.48824 0.87279 -0.13141
 C547 C 0.49096 0.85633 -0.10981
 C548 C 0.46841 0.84229 -0.10100
 C549 C 0.47014 0.82660 -0.07945
 C550 C 0.49456 0.82473 -0.06628
 C551 C 0.51727 0.83871 -0.07535
 C552 C 0.51550 0.85440 -0.09692
 H553 H 0.54229 0.94723 -0.19451
 H554 H 0.54645 0.91589 -0.16073
 H555 H 0.46246 0.89513 -0.16687
 H556 H 0.45789 0.92620 -0.20020
 H557 H 0.44941 0.84360 -0.11081
 H558 H 0.45238 0.81577 -0.07324
 H559 H 0.53630 0.83785 -0.06545
 H560 H 0.53322 0.86517 -0.10333
 C561 C 1.02838 0.27264 0.41913
 C562 C 1.02422 0.28893 0.39860
 C563 C 1.00620 0.30713 0.40183
 C564 C 0.99128 0.30809 0.42543
 C565 C 0.99507 0.29159 0.44590
 C566 C 1.01449 0.27405 0.44368
 N567 N 1.00412 0.32486 0.38130
 N568 N 0.99136 0.34417 0.38476
 C569 C 0.99000 0.36235 0.36459
 C570 C 0.97948 0.38497 0.37131
 C571 C 0.97953 0.40382 0.35274
 C572 C 0.98988 0.40026 0.32683
 C573 C 0.99969 0.37714 0.31989
 C574 C 0.99989 0.35842 0.33862
 H575 H 1.04238 0.25879 0.41525
 H576 H 1.03553 0.28768 0.38026
 H577 H 0.97690 0.32183 0.42824
 H578 H 0.98320 0.29369 0.46359
 H579 H 0.97189 0.38827 0.39130
 H580 H 0.97222 0.42145 0.35901
 H581 H 1.00732 0.37353 0.30000
 H582 H 1.00795 0.34098 0.33286
 C583 C 0.50816 0.95581 0.23481
 C584 C 0.50726 0.93141 0.22396
 C585 C 0.49522 0.92546 0.19900
 C586 C 0.48411 0.94421 0.18489
 C587 C 0.48553 0.96863 0.19529
 C588 C 0.49769 0.97497 0.22039
 N589 N 0.49566 0.90074 0.18752
 N590 N 0.48017 0.89328 0.16819
 C591 C 0.48137 0.86966 0.15442
 C592 C 0.46100 0.86162 0.13631
 C593 C 0.46294 0.84024 0.12003
 C594 C 0.48560 0.82674 0.12132
 C595 C 0.50571 0.83440 0.14010
 C596 C 0.50355 0.85563 0.15669
 H597 H 0.51841 0.95965 0.25377
 H598 H 0.51618 0.91715 0.23492
 H599 H 0.47477 0.94012 0.16548
 H600 H 0.47642 0.98237 0.18375
 H601 H 0.44393 0.87241 0.13424
 H602 H 0.44733 0.83497 0.10548
 H603 H 0.52334 0.82426 0.14149
 H604 H 0.51964 0.86164 0.17042
 C605 C 0.00918 0.30666 0.52297
 C606 C 0.00530 0.32656 0.54084
 C607 C 0.01011 0.32462 0.56830
 C608 C 0.01894 0.30239 0.57778
 C609 C 0.02313 0.28253 0.55983
 C610 C 0.01822 0.28451 0.53225
 N611 N 0.00669 0.34574 0.58583
 N612 N 0.00787 0.34474 0.61127
 C613 C 0.00525 0.36633 0.62841
 C614 C 0.00336 0.36358 0.65616
 C615 C 0.00149 0.38441 0.67342
 C616 C 0.00186 0.40841 0.66314
 C617 C 0.00364 0.41111 0.63526
 C618 C 0.00519 0.39026 0.61802
 H619 H 0.00590 0.30889 0.50181
 H620 H -0.00127 0.34367 0.53325
 H621 H 0.02293 0.30050 0.59893
 H622 H 0.03008 0.26560 0.56746
 H623 H 0.00347 0.34526 0.66443
 H624 H 0.00038 0.38183 0.69484
 H625 H 0.00375 0.42936 0.62681
 H626 H 0.00669 0.39290 0.59665
 C627 C 0.50847 0.05150 0.77729
 C628 C 0.50946 0.07539 0.78952
 C629 C 0.49941 0.07885 0.81540
 C630 C 0.48719 0.05830 0.82841
 C631 C 0.48602 0.03460 0.81620
 C632 C 0.49733 0.03073 0.79081
 N633 N 0.50269 0.10292 0.82873
 N634 N 0.49879 0.10512 0.85386
 C635 C 0.50183 0.12825 0.86890
 C636 C 0.50077 0.12750 0.89684
 C637 C 0.50395 0.14939 0.91259
 C638 C 0.50795 0.17258 0.90060
 C639 C 0.50859 0.17345 0.87246
 C640 C 0.50577 0.15135 0.85664
 H641 H 0.51720 0.04928 0.75772
 H642 H 0.51881 0.09108 0.77918
 H643 H 0.47878 0.06049 0.84820
 H644 H 0.47635 0.01926 0.82683
 H645 H 0.49761 0.10979 0.90645
 H646 H 0.50291 0.14824 0.93421
 H647 H 0.51159 0.19115 0.86281
 H648 H 0.50653 0.15229 0.83500
 C649 C 0.95517 0.69003 0.45204
 C650 C 0.95752 0.66961 0.43449
 C651 C 0.98219 0.66475 0.42379
 C652 C 1.00480 0.68050 0.43109
 C653 C 1.00248 0.70103 0.44876
 C654 C 0.97757 0.70611 0.45921
 N655 N 0.98336 0.64399 0.40523
 N656 N 1.00478 0.63782 0.39440
 C657 C 1.00467 0.61711 0.37550
 C658 C 1.02861 0.61069 0.36411
 C659 C 1.02883 0.59098 0.34505
 C660 C 1.00497 0.57747 0.33697
 C661 C 0.98103 0.58378 0.34873
 C662 C 0.98086 0.60337 0.36778
 H663 H 0.93580 0.69306 0.46020
 H664 H 0.94000 0.65753 0.42910
 H665 H 1.02410 0.67710 0.42300
 H666 H 1.02004 0.71318 0.45376
 H667 H 1.04710 0.62113 0.36984
 H668 H 1.04754 0.58664 0.33621
 H669 H 0.96240 0.57346 0.34329
 H670 H 0.96206 0.60783 0.37632
 C671 C 1.23445 0.48263 0.07342
 C672 C 1.21725 0.48453 0.09522
 C673 C 1.19086 0.48987 0.09114
 C674 C 1.18207 0.49402 0.06501
 C675 C 1.19931 0.49240 0.04333
 C676 C 1.22555 0.48642 0.04723
 N677 N 1.17312 0.49022 0.11351
 N678 N 1.14824 0.49122 0.11003
 C679 C 1.12968 0.49130 0.13165
 C680 C 1.10255 0.48904 0.12544
 C681 C 1.08369 0.48836 0.14582
 C682 C 1.09168 0.49023 0.17289
 C683 C 1.11896 0.49299 0.17916
 C684 C 1.13789 0.49334 0.15867
 H685 H 1.25469 0.47817 0.07701
 H686 H 1.22432 0.48133 0.11524
 H687 H 1.16178 0.49821 0.06128
 H688 H 1.19178 0.49494 0.02344
 H689 H 1.09602 0.48756 0.10470
 H690 H 1.06280 0.48659 0.14043
 H691 H 1.12560 0.49441 0.19988
 H692 H 1.15880 0.49519 0.16391
 C693 C 0.54714 0.01163 0.71455
 C694 C 0.56638 0.01614 0.69480
 C695 C 0.57736 -0.00373 0.68120
 C696 C 0.56845 -0.02827 0.68719
 C697 C 0.54930 -0.03278 0.70688
 C698 C 0.53870 -0.01288 0.72109
 N699 N 0.59788 0.00133 0.66192
 N700 N 0.60884 -0.01628 0.64974
 C701 C 0.62971 -0.01214 0.63071
 C702 C 0.64027 -0.03285 0.61843
 C703 C 0.66092 -0.02976 0.60005
 C704 C 0.67147 -0.00577 0.59363
 C705 C 0.66071 0.01507 0.60589
 C706 C 0.63999 0.01193 0.62434
 H707 H 0.53949 0.02734 0.72514
 H708 H 0.57304 0.03515 0.69037
 H709 H 0.57642 -0.04400 0.67681
 H710 H 0.54276 -0.05190 0.71091
 H711 H 0.63243 -0.05147 0.62314
 H712 H 0.66837 -0.04618 0.59058
 H713 H 0.66854 0.03377 0.60147
 H714 H 0.63214 0.02822 0.63368
 C715 C -0.22242 0.53122 0.92369
 C716 C -0.20451 0.52752 0.90293
 C717 C -0.18101 0.51624 0.90773
 C718 C -0.17570 0.50832 0.93365
 C719 C -0.19372 0.51186 0.95444
 C720 C -0.21716 0.52352 0.94970
 N721 N -0.16281 0.51347 0.88606
 N722 N -0.14028 0.50483 0.88916
 C723 C -0.12212 0.50253 0.86734
 C724 C -0.09678 0.49493 0.87249
 C725 C -0.07824 0.49348 0.85185
 C726 C -0.08481 0.49953 0.82552
 C727 C -0.11050 0.50670 0.82034
 C728 C -0.12896 0.50825 0.84103
 H729 H -0.24051 0.53991 0.91934
 H730 H -0.20886 0.53363 0.88303
 H731 H -0.15763 0.49956 0.93786
 H732 H -0.18902 0.50597 0.97433
 H733 H -0.09124 0.49053 0.89269
 H734 H -0.05855 0.48825 0.85666
 H735 H -0.11637 0.51108 0.80025
 H736 H -0.14849 0.51402 0.83647
 C737 C 0.46751 0.01600 0.31097
 C738 C 0.44837 0.01265 0.33093
 C739 C 0.42148 0.01437 0.32503
 C740 C 0.41384 0.01962 0.29882
 C741 C 0.43304 0.02324 0.27890
 C742 C 0.46004 0.02139 0.28483
 N743 N 0.40252 0.01128 0.34616
 N744 N 0.37756 0.01019 0.34198
 C745 C 0.35897 0.00769 0.36352
 C746 C 0.33181 0.00358 0.35759
 C747 C 0.31322 0.00130 0.37826
 C748 C 0.32157 0.00345 0.40523
 C749 C 0.34884 0.00762 0.41111
 C750 C 0.36739 0.00962 0.39046
 H751 H 0.48816 0.01505 0.31618
 H752 H 0.45450 0.00881 0.35111
 H753 H 0.39316 0.02115 0.29382
 H754 H 0.42682 0.02730 0.25881
 H755 H 0.32507 0.00213 0.33691
 H756 H 0.29230 -0.00173 0.37320
 H757 H 0.35582 0.00908 0.43171
 H758 H 0.38827 0.01285 0.39558
 C759 C 0.19536 0.50066 0.96082
 C760 C 0.17647 0.50505 0.94134
 C761 C 0.17970 0.49709 0.91467
 C762 C 0.20229 0.48478 0.90756
 C763 C 0.22113 0.48023 0.92706
 C764 C 0.21777 0.48784 0.95409
 N765 N 0.15951 0.50128 0.89543
 N766 N 0.16169 0.49563 0.87059
 C767 C 0.14102 0.49916 0.85163
 C768 C 0.14500 0.49325 0.82448
 C769 C 0.12475 0.49534 0.80566
 C770 C 0.10002 0.50330 0.81375
 C771 C 0.09628 0.50963 0.84101
 C772 C 0.11657 0.50761 0.85977
 H773 H 0.19204 0.50709 0.98113
 H774 H 0.15917 0.51462 0.94707
 H775 H 0.20532 0.47857 0.88700
 H776 H 0.23848 0.47105 0.92076
 H777 H 0.16377 0.48677 0.81794
 H778 H 0.12841 0.49064 0.78479
 H779 H 0.07737 0.51544 0.84800
 H780 H 0.11295 0.51219 0.88067
 C781 C 0.57781 0.02925 0.27078
 C782 C 0.59912 0.02608 0.28804
 C783 C 0.59480 0.01434 0.31238
 C784 C 0.56894 0.00510 0.31894
 C785 C 0.54769 0.00811 0.30168
 C786 C 0.55168 0.02066 0.27760
 N787 N 0.61670 0.01248 0.33039
 N788 N 0.61314 0.00411 0.35376
 C789 C 0.63436 0.00232 0.37253
 C790 C 0.62805 -0.00514 0.39843
 C791 C 0.64800 -0.00648 0.41765
 C792 C 0.67482 -0.00057 0.41121
 C793 C 0.68115 0.00673 0.38502
 C794 C 0.66107 0.00822 0.36582
 H795 H 0.58194 0.03833 0.25208
 H796 H 0.61900 0.03309 0.28261
 H797 H 0.56506 -0.00425 0.33755
 H798 H 0.52818 0.00096 0.30771
 H799 H 0.60752 -0.00960 0.40385
 H800 H 0.64232 -0.01166 0.43773
 H801 H 0.70160 0.01113 0.37932
 H802 H 0.66640 0.01396 0.34584
 C803 C 0.78787 0.49351 0.04555
 C804 C 0.80623 0.48774 0.06507
 C805 C 0.82040 0.50673 0.08028
 C806 C 0.81618 0.53168 0.07554
 C807 C 0.79795 0.53745 0.05604
 C808 C 0.78337 0.51845 0.04092
 N809 N 0.83905 0.50038 0.10021
 N810 N 0.85142 0.51708 0.11522
 C811 C 0.87049 0.51169 0.13511
 C812 C 0.88287 0.53150 0.15051
 C813 C 0.90225 0.52728 0.16950
 C814 C 0.90968 0.50304 0.17343
 C815 C 0.89684 0.48304 0.15828
 C816 C 0.87740 0.48732 0.13921
 H817 H 0.77697 0.47839 0.03445
 H818 H 0.80932 0.46843 0.06846
 H819 H 0.82706 0.54675 0.08679
 H820 H 0.79560 0.55689 0.05259
 H821 H 0.87761 0.55033 0.14762
 H822 H 0.91142 0.54302 0.18116
 H823 H 0.90229 0.46420 0.16071
 H824 H 0.86807 0.47171 0.12749
 C825 C 0.42288 -0.02432 0.73458
 C826 C 0.40225 -0.02264 0.71612
 C827 C 0.40778 -0.01535 0.68995
 C828 C 0.43426 -0.00912 0.68256
 C829 C 0.45488 -0.01040 0.70115
 C830 C 0.44938 -0.01827 0.72722
 N831 N 0.38627 -0.01469 0.67123
 N832 N 0.39020 -0.01253 0.64621
 C833 C 0.36881 -0.01180 0.62738
 C834 C 0.37429 -0.01366 0.59995
 C835 C 0.35387 -0.01336 0.58101
 C836 C 0.32761 -0.01079 0.58925
 C837 C 0.32215 -0.00860 0.61680
 C838 C 0.34256 -0.00927 0.63576
 H839 H 0.41815 -0.03021 0.75467
 H840 H 0.38193 -0.02740 0.72207
 H841 H 0.43902 -0.00333 0.66246
 H842 H 0.47517 -0.00586 0.69494
 H843 H 0.39445 -0.01553 0.59326
 H844 H 0.35864 -0.01477 0.55988
 H845 H 0.30205 -0.00669 0.62363
 H846 H 0.33787 -0.00771 0.65688
   
