data_POSCAR
  _audit_creation_date              2014-09-24
  _audit_creation_method            'ToBaCCo'
  _symmetry_space_group_name_H-M    'P1'
  _symmetry_Int_Tables_number       1
  _symmetry_cell_setting            triclinic
  loop_
  _symmetry_equiv_pos_as_xyz
 x,y,z
_cell_length_a 39.3229
_cell_length_b 20.6430
_cell_length_c 16.0592
_cell_angle_alpha 89.958400
_cell_angle_beta 89.812100
_cell_angle_gamma 89.908300
loop_
  _atom_site_label
  _atom_site_type_symbol
  _atom_site_fract_x
  _atom_site_fract_y
  _atom_site_fract_z
C1 C 0.66614 0.32057 0.49391
 C2 C 0.68147 0.30508 0.56950
 C3 C 0.71356 0.27526 0.57031
 C4 C 0.73148 0.26232 0.49499
 C5 C 0.71527 0.28010 0.41936
 C6 C 0.68278 0.30772 0.41909
 C7 C 0.76644 0.23094 0.49501
 C8 C 0.78278 0.21249 0.41944
 C9 C 0.81535 0.18494 0.41954
 C10 C 0.83181 0.17298 0.49451
 C11 C 0.81635 0.18918 0.56965
 C12 C 0.78427 0.21879 0.57036
 H13 H 0.64111 0.34289 0.49312
 H14 H 0.72378 0.26267 0.63034
 H15 H 0.72714 0.27349 0.35949
 H16 H 0.77094 0.21859 0.35958
 H17 H 0.85689 0.15084 0.49455
 H18 H 0.77409 0.23183 0.63038
 C19 C 0.16628 0.81962 0.50724
 C20 C 0.18113 0.80046 0.58204
 C21 C 0.21297 0.77003 0.58165
 C22 C 0.23152 0.76169 0.50646
 C23 C 0.21605 0.78311 0.43153
 C24 C 0.18335 0.81019 0.43203
 C25 C 0.26650 0.73112 0.50651
 C26 C 0.28196 0.70904 0.43167
 C27 C 0.31464 0.68198 0.43223
 C28 C 0.33172 0.67327 0.50713
 C29 C 0.31696 0.69308 0.58179
 C30 C 0.28509 0.72345 0.58160
 H31 H 0.14128 0.84206 0.50741
 H32 H 0.22258 0.75302 0.64060
 H33 H 0.22889 0.77973 0.37223
 H34 H 0.26916 0.71193 0.37249
 H35 H 0.35676 0.65096 0.50713
 H36 H 0.27553 0.74098 0.64046
 C37 C 0.33121 0.32582 -0.50370
 C38 C 0.31668 0.30558 -0.57810
 C39 C 0.28481 0.27546 -0.57769
 C40 C 0.26603 0.26838 -0.50254
 C41 C 0.28121 0.29100 -0.42794
 C42 C 0.31389 0.31783 -0.42873
 C43 C 0.23113 0.23790 -0.50210
 C44 C 0.21585 0.21578 -0.42707
 C45 C 0.18311 0.18893 -0.42706
 C46 C 0.16591 0.18040 -0.50206
 C47 C 0.18064 0.20018 -0.57687
 C48 C 0.21247 0.23034 -0.57690
 H49 H 0.35624 0.34794 -0.50415
 H50 H 0.27541 0.25770 -0.63642
 H51 H 0.26815 0.28872 -0.36883
 H52 H 0.22897 0.21847 -0.36824
 H53 H 0.14089 0.15818 -0.50240
 H54 H 0.22201 0.24771 -0.63588
 C55 C -0.16750 0.82591 -0.49842
 C56 C -0.18446 0.81781 -0.57366
 C57 C -0.21728 0.79139 -0.57460
 C58 C -0.23291 0.76937 -0.49996
 C59 C -0.21444 0.77650 -0.42467
 C60 C -0.18249 0.80621 -0.42408
 C61 C -0.26798 0.73953 -0.50038
 C62 C -0.28683 0.73213 -0.42550
 C63 C -0.31875 0.70238 -0.42541
 C64 C -0.33341 0.68292 -0.50015
 C65 C -0.31603 0.69134 -0.57513
 C66 C -0.28323 0.71778 -0.57535
 H67 H -0.14238 0.84775 -0.49754
 H68 H -0.23014 0.78895 -0.63378
 H69 H -0.22415 0.75915 -0.36587
 H70 H -0.27739 0.74924 -0.36651
 H71 H -0.35847 0.66094 -0.49994
 H72 H -0.27011 0.72040 -0.63436
 O73 O -0.04708 0.89486 0.16008
 O74 O -0.08458 0.94821 0.07468
 C75 C -0.07755 0.91087 0.13713
 O76 O 0.04691 1.12090 0.14283
 O77 O 0.08528 1.05839 0.07023
 C78 C 0.07758 1.10294 0.12410
 O79 O -0.04829 1.11334 0.14770
 O80 O -0.08546 1.05351 0.06891
 C81 C -0.07864 1.09480 0.12716
 O82 O 0.04795 0.88822 0.15364
 O83 O 0.08591 0.94696 0.07499
 C84 C 0.07856 0.90562 0.13311
 Zr85 Zr 0.00043 0.92028 0.10723
 O86 O 0.00102 0.91247 0.23849
 O87 O -0.00063 0.81835 0.09614
 Zr88 Zr -0.00019 1.08473 0.10026
 O89 O 0.00226 1.09229 0.23153
 O90 O -0.00425 1.18672 0.08971
 O91 O -0.02988 1.00275 0.11970
 O92 O 0.02934 1.00316 0.12005
 O93 O 0.04865 0.87874 -0.14117
 O94 O 0.08613 0.94197 -0.06771
 C95 C 0.07907 0.89720 -0.12164
 O96 O -0.04586 1.10647 -0.16129
 O97 O -0.08399 1.05160 -0.07887
 C98 C -0.07648 1.09029 -0.13975
 O99 O 0.04915 1.11128 -0.15267
 O100 O 0.08654 1.05296 -0.07232
 C101 C 0.07960 1.09405 -0.13094
 O102 O -0.04633 0.88459 -0.14943
 O103 O -0.08455 0.94466 -0.07309
 C104 C -0.07696 0.90257 -0.13008
 Zr105 Zr 0.00107 0.91477 -0.10093
 O106 O 0.00505 0.90706 -0.23203
 O107 O -0.00227 0.81270 -0.09044
 Zr108 Zr 0.00119 1.07927 -0.10831
 O109 O 0.00498 1.08278 -0.23961
 O110 O -0.00250 1.18161 -0.10394
 Zr111 Zr -0.05020 0.99962 -0.00168
 Zr112 Zr 0.05157 1.00004 0.00066
 O113 O 0.03041 0.99655 -0.11966
 O114 O -0.02882 0.99657 -0.12220
 O115 O 0.03160 0.90527 0.00434
 O116 O -0.02953 1.09352 -0.00529
 O117 O -0.02936 0.90579 0.00335
 O118 O 0.03127 1.09468 -0.00385
 H119 H 0.04392 1.00477 0.17014
 H120 H -0.04543 1.13078 -0.00708
 H121 H 0.04533 0.99501 -0.16945
 H122 H -0.04517 0.86844 0.00509
 H123 H 0.01676 1.20260 0.06253
 H124 H 0.01950 1.19855 -0.08366
 H125 H -0.00820 1.04579 -0.26132
 H126 H -0.01171 0.93730 -0.25639
 H127 H 0.01758 0.79777 -0.05785
 H128 H -0.00158 0.80138 0.15380
 H129 H 0.00408 0.95674 0.26044
 H130 H -0.01406 1.06062 0.25488
 O131 O 0.45418 0.38382 0.14725
 O132 O 0.41595 0.44389 0.07172
 C133 C 0.42356 0.40165 0.12847
 O134 O 0.54841 0.61124 0.15112
 O135 O 0.58590 0.55389 0.06937
 C136 C 0.57888 0.59450 0.12855
 O137 O 0.45287 0.60438 0.15974
 O138 O 0.41500 0.55021 0.07629
 C139 C 0.42230 0.58784 0.13814
 O140 O 0.54901 0.37943 0.13623
 O141 O 0.58636 0.44344 0.06275
 C142 C 0.57941 0.39869 0.11686
 Zr143 Zr 0.50112 0.41450 0.09644
 O144 O 0.50442 0.40127 0.22676
 O145 O 0.49993 0.31339 0.07648
 Zr146 Zr 0.50063 0.57881 0.10717
 O147 O 0.50443 0.57941 0.23856
 O148 O 0.49667 0.68115 0.10654
 O149 O 0.47093 0.49584 0.11947
 O150 O 0.53012 0.49619 0.11653
 O151 O 0.54740 0.38878 -0.15719
 O152 O 0.58552 0.44707 -0.07903
 C153 C 0.57804 0.40550 -0.13672
 O154 O 0.45266 0.61662 -0.14957
 O155 O 0.41519 0.55679 -0.07122
 C156 C 0.42224 0.59875 -0.12879
 O157 O 0.54722 0.62263 -0.14436
 O158 O 0.58533 0.55951 -0.07257
 C159 C 0.57782 0.60441 -0.12596
 O160 O 0.45189 0.39607 -0.16084
 O161 O 0.41452 0.45060 -0.07557
 C162 C 0.42146 0.41275 -0.13762
 Zr163 Zr 0.49996 0.42249 -0.11190
 O164 O 0.50302 0.42383 -0.24351
 O165 O 0.49651 0.32014 -0.11325
 Zr166 Zr 0.50004 0.58673 -0.10133
 O167 O 0.50290 0.59832 -0.23201
 O168 O 0.49613 0.68843 -0.08617
 Zr169 Zr 0.44961 0.50049 -0.00075
 Zr170 Zr 0.55133 0.50070 -0.00402
 O171 O 0.52925 0.50513 -0.12321
 O172 O 0.46991 0.50524 -0.12236
 O173 O 0.53130 0.40610 -0.00944
 O174 O 0.47030 0.59433 0.00445
 O175 O 0.47050 0.40676 -0.00725
 O176 O 0.53110 0.59531 0.00279
 H177 H 0.54493 0.49436 0.16626
 H178 H 0.45437 0.63153 0.00712
 H179 H 0.54392 0.50683 -0.17342
 H180 H 0.45477 0.36932 -0.00893
 H181 H 0.51807 0.69858 0.08297
 H182 H 0.51794 0.70406 -0.06317
 H183 H 0.48959 0.56275 -0.25691
 H184 H 0.48556 0.45448 -0.26379
 H185 H 0.51598 0.30303 -0.08106
 H186 H 0.50020 0.29333 0.13253
 H187 H 0.49224 0.43797 0.25279
 H188 H 0.48864 0.54607 0.25999
 C189 C 0.33499 0.31820 0.34587
 C190 C 0.35253 0.33296 0.28721
 C191 C 0.37534 0.35419 0.22500
 C192 C 0.39653 0.37485 0.17764
 C193 C -0.16793 0.83496 0.35501
 C194 C -0.15046 0.85073 0.29668
 C195 C -0.12706 0.87017 0.23486
 C196 C -0.10519 0.88794 0.18742
 C197 C 0.66708 0.67318 0.34883
 C198 C 0.65022 0.65731 0.28964
 C199 C 0.62768 0.63746 0.22626
 C200 C 0.60638 0.61895 0.17798
 C201 C 0.16289 1.18708 0.34665
 C202 C 0.14632 1.17240 0.28654
 C203 C 0.12475 1.15137 0.22194
 C204 C 0.10431 1.13057 0.17303
 C205 C 0.66471 0.32037 -0.35852
 C206 C 0.64794 0.33657 -0.29897
 C207 C 0.62589 0.35841 -0.23516
 C208 C 0.60509 0.37904 -0.18653
 C209 C 0.16449 0.81346 -0.34524
 C210 C 0.14819 0.82823 -0.28443
 C211 C 0.12675 0.84926 -0.21918
 C212 C 0.10621 0.86993 -0.17007
 C213 C 0.33400 0.68078 -0.34616
 C214 C 0.35114 0.66620 -0.28696
 C215 C 0.37368 0.64528 -0.22432
 C216 C 0.39489 0.62498 -0.17702
 C217 C -0.16572 1.17382 -0.35486
 C218 C -0.14816 1.15770 -0.29709
 C219 C -0.12511 1.13593 -0.23602
 C220 C -0.10368 1.11567 -0.18926
 C221 C 0.66339 0.68914 -0.34884
 C222 C 0.64678 0.67435 -0.28858
 C223 C 0.62516 0.65314 -0.22380
 C224 C 0.60466 0.63219 -0.17482
 C225 C 0.16712 1.17174 -0.35481
 C226 C 0.15052 1.15603 -0.29479
 C227 C 0.12824 1.13648 -0.23032
 C228 C 0.10707 1.11823 -0.18114
 C229 C 0.33103 0.33630 -0.35340
 C230 C 0.34849 0.35232 -0.29550
 C231 C 0.37187 0.37193 -0.23415
 C232 C 0.39375 0.38977 -0.18717
 C233 C -0.16461 0.81907 -0.34783
 C234 C -0.14744 0.83398 -0.28891
 C235 C -0.12498 0.85530 -0.22643
 C236 C -0.10396 0.87596 -0.17899
 C237 C 0.33202 0.66389 0.35673
 C238 C 0.34962 0.64808 0.29864
 C239 C 0.37305 0.62859 0.23685
 C240 C 0.39485 0.61080 0.18915
 C241 C -0.16804 1.17001 0.34744
 C242 C -0.15083 1.15554 0.28807
 C243 C -0.12786 1.13674 0.22492
 C244 C -0.10625 1.11878 0.17683
 C245 C 0.66575 0.32289 0.34219
 C246 C 0.64933 0.33679 0.28148
 C247 C 0.62750 0.35519 0.21599
 C248 C 0.60666 0.37340 0.16633
 C249 C 0.16625 0.82790 0.35600
 C250 C 0.14934 0.84342 0.29665
 C251 C 0.12687 0.86292 0.23281
 C252 C 0.10574 0.88122 0.18382
   
