data_POSCAR
  _audit_creation_date              2014-09-24
  _audit_creation_method            'ToBaCCo'
  _symmetry_space_group_name_H-M    'P1'
  _symmetry_Int_Tables_number       1
  _symmetry_cell_setting            triclinic
  loop_
  _symmetry_equiv_pos_as_xyz
 x,y,z
_cell_length_a 54.0292
_cell_length_b 53.1030
_cell_length_c 54.1604
_cell_angle_alpha 90.054900
_cell_angle_beta 89.981700
_cell_angle_gamma 90.048500
loop_
  _atom_site_label
  _atom_site_type_symbol
  _atom_site_fract_x
  _atom_site_fract_y
  _atom_site_fract_z
N1 N 0.59575 0.66383 0.61252
 N2 N 0.58573 0.65322 0.63202
 C3 C 0.56557 0.66648 0.63873
 C4 C 0.56272 0.68642 0.62250
 C5 C 0.58226 0.68408 0.60609
 H6 H 0.55373 0.66184 0.65416
 H7 H 0.58659 0.69637 0.59079
 Cu8 Cu 0.59995 0.62317 0.64685
 Cu9 Cu 0.62565 0.65081 0.59711
 Cu10 Cu 0.65251 0.59834 0.62399
 N11 N 0.61572 0.59410 0.66203
 N12 N 0.63637 0.58468 0.65320
 C13 C 0.64337 0.56506 0.66724
 C14 C 0.62613 0.56180 0.68603
 C15 C 0.60882 0.58072 0.68199
 H16 H 0.65976 0.55398 0.66377
 H17 H 0.59250 0.58471 0.69280
 N18 N 0.66607 0.61482 0.59435
 N19 N 0.65593 0.63488 0.58420
 C20 C 0.66943 0.64169 0.56439
 C21 C 0.68899 0.62507 0.56184
 C22 C 0.68623 0.60828 0.58119
 H23 H 0.66512 0.65739 0.55246
 H24 H 0.69816 0.59256 0.58550
 H25 H 0.62123 0.61382 0.60816
 H26 H 0.63975 0.63472 0.62890
 N27 N 0.90408 0.33526 0.11303
 N28 N 0.91328 0.34508 0.13330
 C29 C 0.93318 0.33160 0.14028
 C30 C 0.93681 0.31221 0.12339
 C31 C 0.91784 0.31529 0.10632
 H32 H 0.94422 0.33582 0.15637
 H33 H 0.91404 0.30384 0.09027
 Cu34 Cu 0.89848 0.37474 0.14840
 Cu35 Cu 0.87476 0.34887 0.09694
 Cu36 Cu 0.84789 0.40155 0.12371
 N37 N 0.88334 0.40440 0.16315
 N38 N 0.86348 0.41468 0.15349
 C39 C 0.85681 0.43472 0.16718
 C40 C 0.87344 0.43725 0.18649
 C41 C 0.89004 0.41763 0.18330
 H42 H 0.84120 0.44674 0.16315
 H43 H 0.90571 0.41320 0.19491
 N44 N 0.83488 0.38548 0.09356
 N45 N 0.84502 0.36536 0.08346
 C46 C 0.83181 0.35878 0.06337
 C47 C 0.81244 0.37560 0.06061
 C48 C 0.81502 0.39228 0.08010
 H49 H 0.83611 0.34303 0.05148
 H50 H 0.80311 0.40803 0.08436
 H51 H 0.87945 0.38551 0.10898
 H52 H 0.85934 0.36472 0.12824
 N53 N 0.40316 0.16574 -0.11410
 N54 N 0.41242 0.15587 -0.13435
 C55 C 0.43249 0.16921 -0.14117
 C56 C 0.43606 0.18849 -0.12427
 C57 C 0.41704 0.18563 -0.10733
 H58 H 0.44383 0.16504 -0.15709
 H59 H 0.41337 0.19730 -0.09139
 Cu60 Cu 0.39745 0.12644 -0.14973
 Cu61 Cu 0.37375 0.15219 -0.09811
 Cu62 Cu 0.34720 0.09919 -0.12455
 N63 N 0.38271 0.09628 -0.16393
 N64 N 0.36298 0.08583 -0.15410
 C65 C 0.35654 0.06554 -0.16755
 C66 C 0.37318 0.06301 -0.18686
 C67 C 0.38956 0.08288 -0.18392
 H68 H 0.34105 0.05338 -0.16338
 H69 H 0.40513 0.08741 -0.19563
 N70 N 0.33395 0.11547 -0.09463
 N71 N 0.34395 0.13575 -0.08467
 C72 C 0.33061 0.14245 -0.06471
 C73 C 0.31129 0.12554 -0.06189
 C74 C 0.31404 0.10869 -0.08121
 H75 H 0.33480 0.15832 -0.05293
 H76 H 0.30222 0.09282 -0.08538
 H77 H 0.37880 0.11559 -0.11016
 H78 H 0.35834 0.13611 -0.12929
 N79 N 0.09657 0.83494 0.38571
 N80 N 0.08769 0.84440 0.36516
 C81 C 0.06771 0.83096 0.35825
 C82 C 0.06371 0.81196 0.37545
 C83 C 0.08254 0.81524 0.39265
 H84 H 0.05686 0.83496 0.34199
 H85 H 0.08605 0.80411 0.40895
 Cu86 Cu 0.10286 0.87358 0.34953
 Cu87 Cu 0.12583 0.84864 0.40183
 Cu88 Cu 0.15272 0.90128 0.37520
 N89 N 0.11768 0.90374 0.33542
 N90 N 0.13723 0.91436 0.34542
 C91 C 0.14365 0.93467 0.33202
 C92 C 0.12718 0.93703 0.31257
 C93 C 0.11093 0.91704 0.31537
 H94 H 0.15899 0.94698 0.33635
 H95 H 0.09546 0.91240 0.30356
 N96 N 0.16569 0.88529 0.40534
 N97 N 0.15553 0.86516 0.41540
 C98 C 0.16872 0.85859 0.43547
 C99 C 0.18811 0.87541 0.43827
 C100 C 0.18555 0.89210 0.41881
 H101 H 0.16441 0.84282 0.44731
 H102 H 0.19750 0.90784 0.41456
 H103 H 0.12088 0.88507 0.38924
 H104 H 0.14168 0.86429 0.37066
 N105 N 0.12488 0.12541 0.12484
 N106 N 0.37477 0.87507 0.62463
 N107 N 0.87515 0.62534 0.37487
 N108 N 0.62558 0.37586 -0.12555
 C109 C -0.00690 0.25629 0.12382
 C110 C -0.00878 0.27379 0.14318
 C111 C -0.02722 0.29224 0.14302
 C112 C -0.04448 0.29363 0.12354
 C113 C -0.04253 0.27592 0.10420
 C114 C -0.02396 0.25761 0.10432
 C115 C 0.01273 0.23680 0.12397
 N116 N 0.01687 0.22220 0.10378
 N117 N 0.03453 0.20471 0.10390
 C118 C 0.04877 0.20102 0.12424
 N119 N 0.04460 0.21559 0.14445
 N120 N 0.02699 0.23313 0.14430
 C121 C 0.06840 0.18153 0.12440
 C122 C 0.08062 0.17519 0.14646
 C123 C 0.09906 0.15675 0.14660
 C124 C 0.10578 0.14440 0.12469
 C125 C 0.09368 0.15073 0.10263
 C126 C 0.07512 0.16904 0.10248
 H127 H 0.00409 0.27335 0.15849
 H128 H -0.02780 0.30520 0.15839
 H129 H -0.05515 0.27607 0.08873
 H130 H -0.02309 0.24439 0.08911
 H131 H 0.07589 0.18439 0.16367
 H132 H 0.10827 0.15223 0.16379
 H133 H 0.09851 0.14131 0.08556
 H134 H 0.06613 0.17347 0.08516
 C135 C 0.50587 0.74340 0.62311
 C136 C 0.52041 0.73941 0.60194
 C137 C 0.53887 0.72098 0.60176
 C138 C 0.54316 0.70601 0.62271
 C139 C 0.52858 0.70994 0.64386
 C140 C 0.51020 0.72845 0.64408
 C141 C 0.48634 0.76301 0.62333
 N142 N 0.47364 0.76832 0.64435
 N143 N 0.45612 0.78595 0.64456
 C144 C 0.45051 0.79900 0.62375
 N145 N 0.46319 0.79367 0.60272
 N146 N 0.48074 0.77608 0.60253
 C147 C 0.43098 0.81862 0.62397
 C148 C 0.42376 0.83060 0.60197
 C149 C 0.40533 0.84904 0.60220
 C150 C 0.39379 0.85598 0.62441
 C151 C 0.40098 0.84409 0.64640
 C152 C 0.41934 0.82557 0.64619
 H153 H 0.51760 0.75056 0.58545
 H154 H 0.54957 0.71835 0.58507
 H155 H 0.53149 0.69894 0.66040
 H156 H 0.49937 0.73100 0.66072
 H157 H 0.43231 0.82572 0.58453
 H158 H 0.40017 0.85809 0.58505
 H159 H 0.39220 0.84903 0.66371
 H160 H 0.42443 0.81676 0.66348
 C161 C 1.00702 0.75637 0.37539
 C162 C 1.00918 0.77352 0.35579
 C163 C 1.02774 0.79187 0.35584
 C164 C 1.04485 0.79352 0.37544
 C165 C 1.04259 0.77618 0.39504
 C166 C 1.02390 0.75797 0.39503
 C167 C 0.98730 0.73693 0.37533
 N168 N 0.98304 0.72256 0.39563
 N169 N 0.96534 0.70508 0.39558
 C170 C 0.95119 0.70117 0.37521
 N171 N 0.95547 0.71552 0.35490
 N172 N 0.97312 0.73305 0.35497
 C173 C 0.93154 0.68166 0.37513
 C174 C 0.91931 0.67518 0.35309
 C175 C 0.90089 0.65669 0.35301
 C176 C 0.89420 0.64441 0.37496
 C177 C 0.90630 0.65090 0.39700
 C178 C 0.92484 0.66927 0.39708
 H179 H 0.99645 0.77287 0.34037
 H180 H 1.02856 0.80456 0.34027
 H181 H 1.05507 0.77654 0.41062
 H182 H 1.02281 0.74502 0.41042
 H183 H 0.92402 0.68431 0.33585
 H184 H 0.89167 0.65206 0.33585
 H185 H 0.90151 0.64154 0.41410
 H186 H 0.93384 0.67380 0.41438
 C187 C 0.49347 0.24499 -0.12451
 C188 C 0.47945 0.24044 -0.10310
 C189 C 0.46082 0.22216 -0.10303
 C190 C 0.45582 0.20790 -0.12434
 C191 C 0.46988 0.21241 -0.14573
 C192 C 0.48844 0.23075 -0.14583
 C193 C 0.51318 0.26445 -0.12463
 N194 N 0.52552 0.27015 -0.14575
 N195 N 0.54319 0.28765 -0.14588
 C196 C 0.54932 0.30019 -0.12488
 N197 N 0.53700 0.29448 -0.10374
 N198 N 0.51930 0.27700 -0.10363
 C199 C 0.56900 0.31969 -0.12503
 C200 C 0.57657 0.33133 -0.10294
 C201 C 0.59513 0.34968 -0.10312
 C202 C 0.60646 0.35684 -0.12536
 C203 C 0.59891 0.34529 -0.14744
 C204 C 0.58042 0.32688 -0.14728
 H205 H 0.48282 0.25103 -0.08634
 H206 H 0.45054 0.21908 -0.08616
 H207 H 0.46643 0.20198 -0.16255
 H208 H 0.49885 0.23375 -0.16266
 H209 H 0.56819 0.32627 -0.08547
 H210 H 0.60054 0.35848 -0.08590
 H211 H 0.60751 0.35041 -0.16478
 H212 H 0.57506 0.31833 -0.16463
 C213 C 0.12650 -0.00589 0.25597
 C214 C 0.10547 -0.02084 0.26034
 C215 C 0.10571 -0.03938 0.27864
 C216 C 0.12695 -0.04334 0.29310
 C217 C 0.14795 -0.02834 0.28878
 C218 C 0.14776 -0.00989 0.27040
 C219 C 0.12626 0.01373 0.23649
 N220 N 0.14715 0.02673 0.23077
 N221 N 0.14694 0.04432 0.21325
 C222 C 0.12582 0.04969 0.20072
 N223 N 0.10493 0.03670 0.20645
 N224 N 0.10515 0.01909 0.22395
 C225 C 0.12558 0.06926 0.18120
 C226 C 0.10326 0.07630 0.16976
 C227 C 0.10304 0.09473 0.15136
 C228 C 0.12512 0.10644 0.14393
 C229 C 0.14742 0.09945 0.15529
 C230 C 0.14766 0.08109 0.17376
 H231 H 0.08877 -0.01829 0.24959
 H232 H 0.08912 -0.05039 0.28157
 H233 H 0.16471 -0.03099 0.29940
 H234 H 0.16429 0.00127 0.26755
 H235 H 0.08591 0.06760 0.17501
 H236 H 0.08566 0.09972 0.14273
 H237 H 0.16463 0.10838 0.14996
 H238 H 0.16517 0.07615 0.18216
 C239 C 0.62617 0.50648 -0.25726
 C240 C 0.60648 0.52356 -0.25947
 C241 C 0.60650 0.54183 -0.27803
 C242 C 0.62616 0.54344 -0.29510
 C243 C 0.64585 0.52617 -0.29279
 C244 C 0.64587 0.50804 -0.27410
 C245 C 0.62614 0.48712 -0.23754
 N246 N 0.64650 0.47279 -0.23325
 N247 N 0.64645 0.45539 -0.21555
 C248 C 0.62602 0.45152 -0.20143
 N249 N 0.60565 0.46583 -0.20574
 N250 N 0.60572 0.48328 -0.22339
 C251 C 0.62593 0.43207 -0.18180
 C252 C 0.60383 0.42565 -0.16959
 C253 C 0.60372 0.40720 -0.15120
 C254 C 0.62571 0.39492 -0.14454
 C255 C 0.64782 0.40136 -0.15660
 C256 C 0.64793 0.41969 -0.17510
 H257 H 0.59101 0.52293 -0.24677
 H258 H 0.59086 0.55447 -0.27889
 H259 H 0.66147 0.52652 -0.30524
 H260 H 0.66134 0.49514 -0.27297
 H261 H 0.58655 0.43478 -0.17429
 H262 H 0.58651 0.40261 -0.14201
 H263 H 0.66495 0.39199 -0.15182
 H264 H 0.66528 0.42418 -0.18409
 C265 C 0.37372 1.00607 0.75629
 C266 C 0.39484 1.02086 0.76080
 C267 C 0.39465 1.03934 0.77919
 C268 C 0.37338 1.04340 0.79361
 C269 C 0.35230 1.02856 0.78915
 C270 C 0.35244 1.01016 0.77068
 C271 C 0.37389 0.98654 0.73669
 N272 N 0.35296 0.97361 0.73094
 N273 N 0.35310 0.95610 0.71332
 C274 C 0.37418 0.95072 0.70071
 N275 N 0.39512 0.96362 0.70648
 N276 N 0.39497 0.98117 0.72407
 C277 C 0.37433 0.93121 0.68109
 C278 C 0.39659 0.92422 0.66948
 C279 C 0.39672 0.90581 0.65103
 C280 C 0.37462 0.89406 0.64372
 C281 C 0.35238 0.90103 0.65524
 C282 C 0.35222 0.91937 0.67376
 H283 H 0.41156 1.01823 0.75009
 H284 H 0.41130 1.05023 0.78223
 H285 H 0.33552 1.03128 0.79972
 H286 H 0.33584 0.99913 0.76772
 H287 H 0.41396 0.93293 0.67465
 H288 H 0.41406 0.90084 0.64227
 H289 H 0.33514 0.89208 0.65000
 H290 H 0.33475 0.92427 0.68228
 C291 C 0.87381 0.49398 0.24354
 C292 C 0.89501 0.47940 0.23888
 C293 C 0.89486 0.46096 0.22044
 C294 C 0.87355 0.45673 0.20614
 C295 C 0.85237 0.47134 0.21077
 C296 C 0.85247 0.48970 0.22929
 C297 C 0.87398 0.51354 0.26311
 N298 N 0.85301 0.52630 0.26901
 N299 N 0.85317 0.54386 0.28659
 C300 C 0.87432 0.54946 0.29900
 N301 N 0.89529 0.53671 0.29309
 N302 N 0.89512 0.51912 0.27554
 C303 C 0.87452 0.56903 0.31855
 C304 C 0.89684 0.57624 0.32993
 C305 C 0.89703 0.59471 0.34832
 C306 C 0.87493 0.60630 0.35582
 C307 C 0.85262 0.59913 0.34453
 C308 C 0.85241 0.58073 0.32607
 H309 H 0.91177 0.48217 0.24948
 H310 H 0.91159 0.45025 0.21727
 H311 H 0.83556 0.46847 0.20029
 H312 H 0.83581 0.50057 0.23237
 H313 H 0.91421 0.56765 0.32461
 H314 H 0.91442 0.59983 0.35689
 H315 H 0.83538 0.60796 0.34991
 H316 H 0.83489 0.57566 0.31772
 C317 C 0.25491 0.12548 -0.00549
 C318 C 0.25944 0.10379 -0.01969
 C319 C 0.27767 0.10383 -0.03800
 C320 C 0.29191 0.12552 -0.04248
 C321 C 0.28743 0.14718 -0.02824
 C322 C 0.26911 0.14719 -0.01001
 C323 C 0.23551 0.12547 0.01390
 N324 N 0.22966 0.14694 0.02622
 N325 N 0.21223 0.14694 0.04361
 C326 C 0.19992 0.12544 0.04948
 N327 N 0.20579 0.10396 0.03717
 N328 N 0.22319 0.10397 0.01974
 C329 C 0.18055 0.12543 0.06888
 C330 C 0.16936 0.10277 0.07643
 C331 C 0.15117 0.10278 0.09478
 C332 C 0.14369 0.12541 0.10590
 C333 C 0.15476 0.14806 0.09835
 C334 C 0.17302 0.14808 0.08008
 H335 H 0.24887 0.08673 -0.01671
 H336 H 0.28074 0.08673 -0.04843
 H337 H 0.29786 0.16430 -0.03131
 H338 H 0.26614 0.16423 0.00056
 H339 H 0.17469 0.08499 0.06822
 H340 H 0.14275 0.08512 0.10019
 H341 H 0.14938 0.16572 0.10680
 H342 H 0.18121 0.16587 0.07473
 C343 C 0.74555 0.62523 0.50562
 C344 C 0.74120 0.60361 0.51994
 C345 C 0.72294 0.60359 0.53823
 C346 C 0.70849 0.62514 0.54255
 C347 C 0.71282 0.64676 0.52822
 C348 C 0.73116 0.64682 0.51002
 C349 C 0.76492 0.62525 0.48621
 N350 N 0.77060 0.64670 0.47377
 N351 N 0.78797 0.64671 0.45632
 C352 C 0.80038 0.62528 0.45050
 N353 N 0.79469 0.60383 0.46293
 N354 N 0.77735 0.60382 0.48041
 C355 C 0.81968 0.62529 0.43102
 C356 C 0.83093 0.60266 0.42349
 C357 C 0.84905 0.60269 0.40507
 C358 C 0.85639 0.62532 0.39386
 C359 C 0.84526 0.64793 0.40139
 C360 C 0.82706 0.64793 0.41973
 H361 H 0.75192 0.58664 0.51707
 H362 H 0.71999 0.58653 0.54873
 H363 H 0.70223 0.66378 0.53118
 H364 H 0.73400 0.66382 0.49936
 H365 H 0.82571 0.58489 0.43177
 H366 H 0.85753 0.58505 0.39967
 H367 H 0.85053 0.66558 0.39288
 H368 H 0.81882 0.66570 0.42506
 C369 C 0.75621 0.37575 0.00410
 C370 C 0.76062 0.39736 0.01845
 C371 C 0.77882 0.39730 0.03679
 C372 C 0.79313 0.37566 0.04114
 C373 C 0.78878 0.35408 0.02674
 C374 C 0.77050 0.35410 0.00848
 C375 C 0.73682 0.37577 -0.01528
 N376 N 0.73103 0.35433 -0.02771
 N377 N 0.71357 0.35434 -0.04507
 C378 C 0.70117 0.37580 -0.05078
 N379 N 0.70698 0.39725 -0.03837
 N380 N 0.72441 0.39723 -0.02098
 C381 C 0.68172 0.37581 -0.07010
 C382 C 0.67044 0.39846 -0.07747
 C383 C 0.65211 0.39846 -0.09567
 C384 C 0.64458 0.37584 -0.10681
 C385 C 0.65578 0.35321 -0.09948
 C386 C 0.67419 0.35318 -0.08135
 H387 H 0.74998 0.41438 0.01559
 H388 H 0.78179 0.41434 0.04735
 H389 H 0.79927 0.33701 0.02970
 H390 H 0.76762 0.33711 -0.00221
 H391 H 0.67578 0.41623 -0.06923
 H392 H 0.64361 0.41611 -0.10095
 H393 H 0.65038 0.33557 -0.10796
 H394 H 0.68246 0.33540 -0.07614
 C395 C 0.24441 0.87543 0.49471
 C396 C 0.23003 0.85382 0.49030
 C397 C 0.21173 0.85384 0.47206
 C398 C 0.20745 0.87544 0.45771
 C399 C 0.22185 0.89703 0.46208
 C400 C 0.24007 0.89705 0.48040
 C401 C 0.26382 0.87540 0.51407
 N402 N 0.27636 0.89680 0.51979
 N403 N 0.29378 0.89677 0.53719
 C404 C 0.29946 0.87531 0.54958
 N405 N 0.28693 0.85390 0.54385
 N406 N 0.26948 0.85395 0.52649
 C407 C 0.31888 0.87525 0.56893
 C408 C 0.32620 0.85260 0.58022
 C409 C 0.34453 0.85255 0.59841
 C410 C 0.35588 0.87513 0.60578
 C411 C 0.34859 0.89777 0.59458
 C412 C 0.33032 0.89784 0.57632
 H413 H 0.23286 0.83682 0.50095
 H414 H 0.20117 0.83679 0.46908
 H415 H 0.21894 0.91408 0.45155
 H416 H 0.25079 0.91404 0.48329
 H417 H 0.31781 0.83486 0.57499
 H418 H 0.34976 0.83490 0.60692
 H419 H 0.35721 0.91537 0.59988
 H420 H 0.32516 0.91562 0.56804
   
