data_POSCAR
  _audit_creation_date              2014-09-24
  _audit_creation_method            'ToBaCCo'
  _symmetry_space_group_name_H-M    'P1'
  _symmetry_Int_Tables_number       1
  _symmetry_cell_setting            triclinic
  loop_
  _symmetry_equiv_pos_as_xyz
 x,y,z
_cell_length_a 37.1998
_cell_length_b 40.5972
_cell_length_c 40.6580
_cell_angle_alpha 88.251400
_cell_angle_beta 87.701400
_cell_angle_gamma 90.436800
loop_
  _atom_site_label
  _atom_site_type_symbol
  _atom_site_fract_x
  _atom_site_fract_y
  _atom_site_fract_z
C1 C 0.24001 0.24617 0.25228
 C2 C 0.74276 0.74557 0.25113
 C3 C 0.74531 0.24123 0.75457
 C4 C 0.24804 0.74125 0.74915
 C5 C 0.06127 0.04707 0.00975
 H6 H 0.06463 0.04805 -0.01682
 C7 C 0.08246 0.06717 0.02861
 H8 H 0.10209 0.08367 0.01638
 C9 C 0.03084 0.02499 0.05789
 H10 H 0.01037 0.00890 0.06924
 C11 C 0.05122 0.04485 0.07765
 H12 H 0.04669 0.04328 0.10413
 N13 N 0.03645 0.02615 0.02460
 C14 C 0.02057 -0.04909 -0.04819
 H15 H -0.00846 -0.04882 -0.04907
 C16 C 0.04049 -0.07023 -0.06816
 H17 H 0.02656 -0.08585 -0.08471
 C18 C 0.07383 -0.02847 -0.02592
 H19 H 0.08672 -0.01258 -0.00904
 C20 C 0.09481 -0.04925 -0.04542
 H21 H 0.12373 -0.04903 -0.04332
 Zn22 Zn 0.00817 0.00001 -0.00249
 N23 N 0.03743 -0.02833 -0.02807
 C24 C -0.01286 0.02866 -0.06346
 N25 N -0.01734 0.02924 -0.03010
 C26 C -0.03946 0.05143 -0.01543
 C27 C -0.05929 0.07336 -0.03447
 C28 C -0.03197 0.05031 -0.08343
 C29 C -0.00975 -0.04989 0.04432
 C30 C -0.03201 -0.07007 0.06490
 C31 C -0.08367 -0.04355 0.04196
 C32 C -0.06041 -0.02392 0.02179
 N33 N -0.02416 -0.02696 0.02376
 H34 H 0.00555 0.01149 -0.07470
 H35 H -0.04192 0.05184 0.01116
 H36 H -0.07689 0.09076 -0.02236
 H37 H -0.02857 0.04910 -0.10994
 H38 H 0.01918 -0.05209 0.04508
 H39 H -0.01997 -0.08753 0.08175
 H40 H -0.11245 -0.04075 0.04009
 H41 H -0.07144 -0.00631 0.00459
 C42 C 0.07820 -0.07029 -0.06716
 C43 C 0.07754 0.06618 0.06304
 C44 C -0.06953 -0.06681 0.06411
 C45 C -0.05580 0.07284 -0.06896
 C46 C 0.04841 0.55567 0.51410
 H47 H 0.05183 0.55687 0.48754
 C48 C 0.06708 0.57773 0.53302
 H49 H 0.08485 0.59592 0.52083
 C50 C 0.01997 0.53126 0.56212
 H51 H 0.00117 0.51352 0.57340
 C52 C 0.03794 0.55292 0.58195
 H53 H 0.03333 0.55105 0.60841
 N54 N 0.02571 0.53277 0.52885
 C55 C 0.01607 0.45319 0.45979
 H56 H -0.01293 0.45081 0.46006
 C57 C 0.03741 0.43207 0.44106
 H58 H 0.02463 0.41365 0.42665
 C59 C 0.06784 0.48046 0.47803
 H60 H 0.07963 0.49902 0.49282
 C61 C 0.09022 0.46000 0.45944
 H62 H 0.11912 0.46306 0.46009
 Zn63 Zn -0.00006 0.50456 0.50171
 N64 N 0.03146 0.47707 0.47745
 C65 C -0.02237 0.52890 0.43955
 N66 N -0.02629 0.53168 0.47275
 C67 C -0.04807 0.55487 0.48620
 C68 C -0.06745 0.57612 0.46604
 C69 C -0.04132 0.54957 0.41849
 C70 C -0.01665 0.45430 0.54848
 C71 C -0.03842 0.43296 0.56826
 C72 C -0.09068 0.45741 0.54429
 C73 C -0.06789 0.47835 0.52500
 N74 N -0.03162 0.47671 0.52773
 H75 H -0.00446 0.51075 0.42928
 H76 H -0.05020 0.55691 0.51267
 H77 H -0.08428 0.59467 0.47724
 H78 H -0.03828 0.54656 0.39216
 H79 H 0.01231 0.45327 0.54985
 H80 H -0.02595 0.41585 0.58518
 H81 H -0.11946 0.45893 0.54162
 H82 H -0.07926 0.49573 0.50777
 C83 C 0.07501 0.43551 0.44052
 C84 C 0.06190 0.57653 0.56745
 C85 C -0.07601 0.43442 0.56642
 C86 C -0.06426 0.57360 0.43166
 C87 C 0.55117 0.05601 0.51015
 H88 H 0.55228 0.05856 0.48356
 C89 C 0.57239 0.07639 0.52866
 H90 H 0.58961 0.09480 0.51612
 C91 C 0.52667 0.02934 0.55872
 H92 H 0.50863 0.01120 0.57041
 C93 C 0.54741 0.04917 0.57817
 H94 H 0.54556 0.04550 0.60467
 N95 N 0.52935 0.03267 0.52532
 C96 C 0.51710 -0.04589 0.45583
 H97 H 0.48809 -0.04824 0.45636
 C98 C 0.53825 -0.06703 0.43692
 H99 H 0.52532 -0.08544 0.42260
 C100 C 0.56914 -0.01881 0.47376
 H101 H 0.58116 -0.00039 0.48854
 C102 C 0.59130 -0.03926 0.45499
 H103 H 0.62022 -0.03629 0.45550
 Zn104 Zn 0.50204 0.00535 0.49856
 N105 N 0.53274 -0.02213 0.47346
 C106 C 0.47845 0.03039 0.43718
 N107 N 0.47546 0.03312 0.47043
 C108 C 0.45439 0.05654 0.48438
 C109 C 0.43473 0.07805 0.46471
 C110 C 0.45922 0.05133 0.41660
 C111 C 0.48599 -0.04576 0.54459
 C112 C 0.46443 -0.06702 0.56467
 C113 C 0.41186 -0.04068 0.54327
 C114 C 0.43444 -0.01988 0.52363
 N115 N 0.47079 -0.02246 0.52497
 H116 H 0.49579 0.01203 0.42648
 H117 H 0.45298 0.05854 0.51088
 H118 H 0.41843 0.09675 0.47630
 H119 H 0.46150 0.04833 0.39023
 H120 H 0.51498 -0.04756 0.54483
 H121 H 0.47712 -0.08483 0.58071
 H122 H 0.38300 -0.03836 0.54173
 H123 H 0.42284 -0.00180 0.50726
 C124 C 0.57586 -0.06367 0.43617
 C125 C 0.57088 0.07294 0.56318
 C126 C 0.42681 -0.06453 0.56432
 C127 C 0.43695 0.07557 0.43030
 C128 C 0.55564 0.55069 0.01103
 H129 H 0.55829 0.55192 -0.01557
 C130 C 0.57738 0.57056 0.02957
 H131 H 0.59668 0.58721 0.01709
 C132 C 0.52673 0.52786 0.05960
 H133 H 0.50674 0.51144 0.07122
 C134 C 0.54767 0.54751 0.07908
 H135 H 0.54402 0.54555 0.10562
 N136 N 0.53143 0.52941 0.02623
 C137 C 0.51717 0.45308 -0.04550
 H138 H 0.48815 0.45262 -0.04652
 C139 C 0.53787 0.43210 -0.06502
 H140 H 0.52456 0.41580 -0.08136
 C141 C 0.56968 0.47537 -0.02329
 H142 H 0.58201 0.49180 -0.00659
 C143 C 0.59139 0.45487 -0.04240
 H144 H 0.62029 0.45588 -0.04023
 Zn145 Zn 0.50341 0.50292 -0.00064
 N146 N 0.53330 0.47461 -0.02564
 C147 C 0.48225 0.53039 -0.06204
 N148 N 0.47808 0.53179 -0.02873
 C149 C 0.45673 0.55482 -0.01445
 C150 C 0.43770 0.57706 -0.03386
 C151 C 0.46378 0.55218 -0.08238
 C152 C 0.48546 0.45292 0.04603
 C153 C 0.46318 0.43260 0.06644
 C154 C 0.41154 0.45956 0.04392
 C155 C 0.43483 0.47933 0.02389
 N156 N 0.47107 0.47606 0.02568
 H157 H 0.50000 0.51249 -0.07299
 H158 H 0.45449 0.55585 0.01211
 H159 H 0.42096 0.59530 -0.02202
 H160 H 0.46696 0.55027 -0.10884
 H161 H 0.51438 0.45059 0.04666
 H162 H 0.47521 0.41492 0.08306
 H163 H 0.38277 0.46250 0.04216
 H164 H 0.42384 0.49721 0.00694
 C165 C 0.57554 0.43310 -0.06386
 C166 C 0.57361 0.56899 0.06407
 C167 C 0.42567 0.43597 0.06574
 C168 C 0.44102 0.57584 -0.06833
 C169 C 0.19083 -0.25051 -0.21622
 C170 C 0.17022 -0.23241 -0.19377
 C171 C 0.18322 -0.20268 -0.18209
 C172 C 0.21814 -0.19221 -0.19205
 C173 C 0.23878 -0.21025 -0.21443
 C174 C 0.22496 -0.23895 -0.22868
 C175 C 0.16037 -0.18409 -0.15848
 C176 C 0.16365 -0.15142 -0.15498
 C177 C 0.14126 -0.13188 -0.13173
 C178 C 0.15265 -0.09972 -0.12536
 C179 C 0.13240 -0.07991 -0.10424
 C180 C 0.10007 -0.09173 -0.08902
 C181 C 0.08853 -0.12388 -0.09538
 C182 C 0.10878 -0.14374 -0.11654
 H183 H 0.17989 -0.27380 -0.22359
 H184 H 0.14394 -0.24174 -0.18547
 H185 H 0.23014 -0.17056 -0.18199
 H186 H 0.26590 -0.20163 -0.22056
 H187 H 0.13992 -0.19797 -0.14431
 H188 H 0.18385 -0.13790 -0.16990
 H189 H 0.17734 -0.08979 -0.13687
 H190 H 0.14176 -0.05507 -0.10033
 H191 H 0.06384 -0.13379 -0.08388
 H192 H 0.09839 -0.16800 -0.12116
 C193 C 0.18041 0.25923 0.28461
 C194 C 0.16068 0.27788 0.30720
 C195 C 0.17683 0.30402 0.32308
 C196 C 0.21378 0.31017 0.31690
 C197 C 0.23343 0.29167 0.29416
 C198 C 0.21684 0.26681 0.27637
 C199 C 0.15443 0.32336 0.34650
 C200 C 0.16375 0.35328 0.35673
 C201 C 0.14076 0.37334 0.37902
 C202 C 0.14853 0.40713 0.38087
 C203 C 0.12748 0.42723 0.40108
 C204 C 0.09811 0.41396 0.41996
 C205 C 0.09066 0.38006 0.41867
 C206 C 0.11186 0.35989 0.39864
 H207 H 0.16695 0.23858 0.27413
 H208 H 0.13258 0.27174 0.31236
 H209 H 0.22797 0.32878 0.32985
 H210 H 0.26190 0.29689 0.29027
 H211 H 0.12841 0.31301 0.35398
 H212 H 0.18849 0.36472 0.34712
 H213 H 0.17074 0.41816 0.36629
 H214 H 0.13373 0.45331 0.40141
 H215 H 0.06862 0.36906 0.43350
 H216 H 0.10559 0.33385 0.39904
 C217 C 0.68310 -0.24142 0.28324
 C218 C 0.66317 -0.22271 0.30560
 C219 C 0.67912 -0.19644 0.32139
 C220 C 0.71610 -0.19026 0.31546
 C221 C 0.73599 -0.20884 0.29295
 C222 C 0.71955 -0.23374 0.27512
 C223 C 0.65644 -0.17693 0.34439
 C224 C 0.66538 -0.14670 0.35400
 C225 C 0.64203 -0.12639 0.37572
 C226 C 0.64950 -0.09250 0.37697
 C227 C 0.62820 -0.07220 0.39671
 C228 C 0.59886 -0.08535 0.41570
 C229 C 0.59158 -0.11930 0.41492
 C230 C 0.61305 -0.13969 0.39536
 H231 H 0.66977 -0.26215 0.27277
 H232 H 0.63505 -0.22888 0.31061
 H233 H 0.73011 -0.17154 0.32844
 H234 H 0.76448 -0.20362 0.28924
 H235 H 0.63050 -0.18739 0.35194
 H236 H 0.69005 -0.13523 0.34425
 H237 H 0.67173 -0.08158 0.36232
 H238 H 0.63430 -0.04607 0.39668
 H239 H 0.56956 -0.13018 0.42985
 H240 H 0.60696 -0.16577 0.39621
 C241 C 0.69484 0.24933 -0.20184
 C242 C 0.67579 0.26804 -0.17888
 C243 C 0.68612 0.30060 -0.17337
 C244 C 0.71719 0.31349 -0.19008
 C245 C 0.73625 0.29476 -0.21307
 C246 C 0.72431 0.26290 -0.22074
 C247 C 0.66439 0.31981 -0.14945
 C248 C 0.66373 0.35287 -0.14996
 C249 C 0.64106 0.37228 -0.12693
 C250 C 0.65088 0.40510 -0.12181
 C251 C 0.62985 0.42469 -0.10110
 C252 C 0.59824 0.41196 -0.08527
 C253 C 0.58820 0.37916 -0.09054
 C254 C 0.60931 0.35952 -0.11119
 H255 H 0.68619 0.22418 -0.20522
 H256 H 0.65266 0.25708 -0.16557
 H257 H 0.72748 0.33771 -0.18502
 H258 H 0.76069 0.30529 -0.22438
 H259 H 0.64765 0.30595 -0.13151
 H260 H 0.68046 0.36673 -0.16792
 H261 H 0.67495 0.41567 -0.13392
 H262 H 0.63798 0.45004 -0.09798
 H263 H 0.56403 0.36864 -0.07860
 H264 H 0.60011 0.33470 -0.11522
 C265 C -0.24481 0.18628 -0.21307
 C266 C -0.22536 0.16671 -0.19135
 C267 C -0.19377 0.17869 -0.17816
 C268 C -0.18290 0.21132 -0.18587
 C269 C -0.20247 0.23097 -0.20739
 C270 C -0.23279 0.21835 -0.22279
 C271 C -0.17371 0.15703 -0.15549
 C272 C -0.13818 0.15999 -0.15179
 C273 C -0.11778 0.13763 -0.13006
 C274 C -0.08111 0.13264 -0.13753
 C275 C -0.06098 0.11161 -0.11774
 C276 C -0.07702 0.09550 -0.08974
 C277 C -0.11355 0.10103 -0.08185
 C278 C -0.13376 0.12187 -0.10177
 H279 H -0.26960 0.17627 -0.22175
 H280 H -0.23504 0.14203 -0.18485
 H281 H -0.15978 0.22204 -0.17476
 H282 H -0.19378 0.25623 -0.21219
 H283 H -0.18841 0.13679 -0.14314
 H284 H -0.12288 0.17813 -0.16670
 H285 H -0.06807 0.14480 -0.15895
 H286 H -0.03274 0.10821 -0.12415
 H287 H -0.12664 0.08888 -0.06046
 H288 H -0.16169 0.12589 -0.09468
 C289 C -0.25231 0.69775 0.29309
 C290 C -0.23348 0.67828 0.31535
 C291 C -0.19709 0.68462 0.32050
 C292 C -0.18031 0.71184 0.30387
 C293 C -0.19911 0.73124 0.28150
 C294 C -0.23507 0.72367 0.27449
 C295 C -0.17817 0.66310 0.34425
 C296 C -0.14223 0.66031 0.34431
 C297 C -0.12318 0.63809 0.36733
 C298 C -0.08758 0.62938 0.35910
 C299 C -0.06848 0.60854 0.37992
 C300 C -0.08450 0.59599 0.40965
 C301 C -0.11997 0.60508 0.41818
 C302 C -0.13907 0.62600 0.39739
 H303 H -0.28053 0.69237 0.29014
 H304 H -0.24746 0.65812 0.32856
 H305 H -0.15296 0.71890 0.30861
 H306 H -0.18543 0.75264 0.27038
 H307 H -0.19482 0.64775 0.36098
 H308 H -0.12579 0.67349 0.32562
 H309 H -0.07449 0.63864 0.33635
 H310 H -0.04096 0.60258 0.37291
 H311 H -0.13316 0.59574 0.44084
 H312 H -0.16600 0.63285 0.40528
 C313 C 0.24597 0.19881 0.29458
 C314 C 0.26529 0.17965 0.31672
 C315 C 0.30175 0.18624 0.32131
 C316 C 0.31810 0.21341 0.30423
 C317 C 0.29880 0.23251 0.28197
 C318 C 0.26274 0.22468 0.27555
 C319 C 0.32123 0.16500 0.34492
 C320 C 0.35720 0.16235 0.34441
 C321 C 0.37678 0.14024 0.36716
 C322 C 0.41217 0.13142 0.35825
 C323 C 0.43170 0.11057 0.37873
 C324 C 0.41633 0.09815 0.40877
 C325 C 0.38111 0.10742 0.41802
 C326 C 0.36158 0.12834 0.39756
 H327 H 0.21772 0.19322 0.29204
 H328 H 0.25165 0.15952 0.33029
 H329 H 0.34550 0.22065 0.30851
 H330 H 0.31218 0.25388 0.27049
 H331 H 0.30496 0.14969 0.36201
 H332 H 0.37323 0.17546 0.32539
 H333 H 0.42474 0.14054 0.33522
 H334 H 0.45902 0.10446 0.37116
 H335 H 0.36844 0.09820 0.44095
 H336 H 0.33485 0.13530 0.40595
 C337 C 0.25406 0.69243 -0.21181
 C338 C 0.27295 0.67409 -0.18873
 C339 C 0.30706 0.68430 -0.17961
 C340 C 0.32114 0.71429 -0.19278
 C341 C 0.30225 0.73274 -0.21585
 C342 C 0.26911 0.72131 -0.22756
 C343 C 0.32642 0.66360 -0.15553
 C344 C 0.36234 0.66395 -0.15353
 C345 C 0.38187 0.64179 -0.13087
 C346 C 0.41791 0.63437 -0.13879
 C347 C 0.43715 0.61311 -0.11847
 C348 C 0.42083 0.59902 -0.08955
 C349 C 0.38500 0.60705 -0.08117
 C350 C 0.36573 0.62827 -0.10153
 H351 H 0.22752 0.68374 -0.21753
 H352 H 0.26085 0.65167 -0.17804
 H353 H 0.34636 0.72408 -0.18480
 H354 H 0.31373 0.75620 -0.22432
 H355 H 0.31054 0.64589 -0.14064
 H356 H 0.37847 0.67941 -0.17064
 H357 H 0.43113 0.64477 -0.16100
 H358 H 0.46491 0.60790 -0.12528
 H359 H 0.37166 0.59654 -0.05909
 H360 H 0.33840 0.63419 -0.09398
 C361 C -0.20522 -0.24756 0.20832
 C362 C -0.18396 -0.22909 0.18535
 C363 C -0.19056 -0.19552 0.17955
 C364 C -0.22001 -0.18113 0.19627
 C365 C -0.24126 -0.19959 0.21930
 C366 C -0.23329 -0.23285 0.22693
 C367 C -0.16699 -0.17689 0.15510
 C368 C -0.16329 -0.14395 0.15445
 C369 C -0.13926 -0.12529 0.13045
 C370 C -0.14629 -0.09183 0.12411
 C371 C -0.12393 -0.07299 0.10233
 C372 C -0.09374 -0.08712 0.08660
 C373 C -0.08649 -0.12057 0.09308
 C374 C -0.10893 -0.13947 0.11480
 H375 H -0.19956 -0.27353 0.21182
 H376 H -0.16214 -0.24112 0.17211
 H377 H -0.22750 -0.15588 0.19109
 H378 H -0.26443 -0.18775 0.23046
 H379 H -0.15171 -0.19118 0.13749
 H380 H -0.17857 -0.12962 0.17202
 H381 H -0.16920 -0.08020 0.13610
 H382 H -0.12988 -0.04714 0.09829
 H383 H -0.06348 -0.13218 0.08126
 H384 H -0.10186 -0.16487 0.11972
 C385 C -0.19604 0.25095 0.71897
 C386 C -0.17524 0.26930 0.69552
 C387 C -0.18848 0.29840 0.68130
 C388 C -0.22385 0.30786 0.68967
 C389 C -0.24471 0.28944 0.71301
 C390 C -0.23056 0.26163 0.72951
 C391 C -0.16509 0.31754 0.65718
 C392 C -0.16814 0.35021 0.65199
 C393 C -0.14423 0.37055 0.62913
 C394 C -0.15376 0.40344 0.62259
 C395 C -0.13186 0.42405 0.60208
 C396 C -0.09972 0.41228 0.58761
 C397 C -0.09014 0.37936 0.59399
 C398 C -0.11201 0.35872 0.61455
 H399 H -0.18499 0.22819 0.72847
 H400 H -0.14856 0.26076 0.68857
 H401 H -0.23584 0.32907 0.67782
 H402 H -0.27207 0.29711 0.71842
 H403 H -0.14403 0.30411 0.64456
 H404 H -0.18894 0.36318 0.66558
 H405 H -0.17821 0.41336 0.63359
 H406 H -0.13976 0.44943 0.59808
 H407 H -0.06572 0.36944 0.58296
 H408 H -0.10298 0.33386 0.61909
 C409 C 0.30304 -0.25051 0.71133
 C410 C 0.32379 -0.23174 0.68820
 C411 C 0.31271 -0.20034 0.67789
 C412 C 0.27934 -0.18880 0.68984
 C413 C 0.25850 -0.20756 0.71290
 C414 C 0.27079 -0.23811 0.72589
 C415 C 0.33593 -0.18098 0.65379
 C416 C 0.33567 -0.14791 0.65150
 C417 C 0.35923 -0.12772 0.62827
 C418 C 0.35063 -0.09443 0.62286
 C419 C 0.37232 -0.07404 0.60194
 C420 C 0.40333 -0.08644 0.58599
 C421 C 0.41205 -0.11974 0.59138
 C422 C 0.39038 -0.14016 0.61234
 H423 H 0.31249 -0.27487 0.71797
 H424 H 0.34876 -0.24178 0.67841
 H425 H 0.26868 -0.16566 0.68085
 H426 H 0.23245 -0.19800 0.72038
 H427 H 0.35435 -0.19471 0.63834
 H428 H 0.31740 -0.13459 0.66754
 H429 H 0.32704 -0.08407 0.63500
 H430 H 0.36516 -0.04837 0.59876
 H431 H 0.43564 -0.13010 0.57928
 H432 H 0.39871 -0.16535 0.61627
 C433 C 0.29142 0.25348 0.20888
 C434 C 0.31231 0.27216 0.18578
 C435 C 0.30537 0.30570 0.18015
 C436 C 0.27591 0.31981 0.19711
 C437 C 0.25504 0.30113 0.22026
 C438 C 0.26341 0.26793 0.22777
 C439 C 0.32866 0.32462 0.15568
 C440 C 0.33214 0.35757 0.15525
 C441 C 0.35604 0.37655 0.13137
 C442 C 0.34895 0.41007 0.12548
 C443 C 0.37126 0.42922 0.10391
 C444 C 0.40146 0.41534 0.08796
 C445 C 0.40873 0.38182 0.09396
 C446 C 0.38635 0.36261 0.11546
 H447 H 0.29738 0.22756 0.21229
 H448 H 0.33414 0.26035 0.17236
 H449 H 0.26815 0.34501 0.19208
 H450 H 0.23187 0.31278 0.23165
 H451 H 0.34396 0.31053 0.13793
 H452 H 0.31684 0.37169 0.17298
 H453 H 0.32605 0.42153 0.13766
 H454 H 0.36527 0.45510 0.10023
 H455 H 0.43174 0.37038 0.08194
 H456 H 0.39348 0.33716 0.12002
 C457 C 0.18938 0.24038 0.21192
 C458 C 0.16898 0.22250 0.19041
 C459 C 0.17685 0.18949 0.18440
 C460 C 0.20570 0.17468 0.20032
 C461 C 0.22592 0.19247 0.22206
 C462 C 0.21719 0.22532 0.22946
 C463 C 0.15381 0.17101 0.16233
 C464 C 0.16553 0.14530 0.14506
 C465 C 0.14218 0.12625 0.12373
 C466 C 0.15799 0.10962 0.09715
 C467 C 0.13696 0.09052 0.07714
 C468 C 0.09971 0.08724 0.08366
 C469 C 0.08388 0.10370 0.11040
 C470 C 0.10485 0.12301 0.13024
 H471 H 0.18311 0.26609 0.21526
 H472 H 0.14717 0.23464 0.17813
 H473 H 0.21252 0.14920 0.19644
 H474 H 0.24868 0.18032 0.23265
 H475 H 0.12670 0.17982 0.15935
 H476 H 0.19363 0.13859 0.14541
 H477 H 0.18672 0.11141 0.09186
 H478 H 0.14995 0.07775 0.05697
 H479 H 0.05522 0.10170 0.11593
 H480 H 0.09185 0.13469 0.15106
 C481 C 0.24124 0.69050 0.71539
 C482 C 0.22300 0.67217 0.69273
 C483 C 0.19087 0.68356 0.67993
 C484 C 0.17811 0.71455 0.68913
 C485 C 0.19640 0.73304 0.71172
 C486 C 0.22743 0.72071 0.72696
 C487 C 0.17242 0.66303 0.65610
 C488 C 0.13703 0.66466 0.65120
 C489 C 0.11839 0.64258 0.62887
 C490 C 0.08172 0.63558 0.63511
 C491 C 0.06336 0.61427 0.61514
 C492 C 0.08122 0.59979 0.58818
 C493 C 0.11771 0.60748 0.58136
 C494 C 0.13612 0.62868 0.60144
 H495 H 0.26650 0.68089 0.72363
 H496 H 0.23416 0.64890 0.68513
 H497 H 0.15452 0.72506 0.67833
 H498 H 0.18620 0.75725 0.71715
 H499 H 0.18829 0.64438 0.64395
 H500 H 0.12047 0.68104 0.66573
 H501 H 0.06733 0.64629 0.65582
 H502 H 0.03509 0.60930 0.62065
 H503 H 0.13219 0.59668 0.56077
 H504 H 0.16408 0.63429 0.59519
 C505 C 0.68533 0.23315 0.72552
 C506 C 0.66371 0.21613 0.70433
 C507 C 0.67664 0.18832 0.68820
 C508 C 0.71200 0.17801 0.69351
 C509 C 0.73364 0.19507 0.71467
 C510 C 0.72023 0.22206 0.73233
 C511 C 0.65206 0.17041 0.66695
 C512 C 0.66330 0.14997 0.64341
 C513 C 0.63851 0.13142 0.62289
 C514 C 0.65179 0.11939 0.59281
 C515 C 0.62975 0.10082 0.57323
 C516 C 0.59393 0.09363 0.58344
 C517 C 0.58061 0.10564 0.61357
 C518 C 0.60264 0.12417 0.63317
 H519 H 0.67459 0.25526 0.73616
 H520 H 0.63681 0.22499 0.70024
 H521 H 0.72305 0.15652 0.68189
 H522 H 0.76096 0.18683 0.71765
 H523 H 0.62363 0.17532 0.67033
 H524 H 0.69181 0.14739 0.63789
 H525 H 0.67940 0.12425 0.58448
 H526 H 0.64103 0.09146 0.55043
 H527 H 0.55308 0.10069 0.62204
 H528 H 0.59158 0.13205 0.65660
 C529 C 0.69232 0.74081 0.21051
 C530 C 0.67142 0.72330 0.18914
 C531 C 0.67852 0.69014 0.18319
 C532 C 0.70727 0.67486 0.19885
 C533 C 0.72800 0.69229 0.22047
 C534 C 0.71985 0.72523 0.22798
 C535 C 0.65469 0.67200 0.16157
 C536 C 0.66548 0.64597 0.14436
 C537 C 0.64119 0.62736 0.12357
 C538 C 0.65589 0.61081 0.09646
 C539 C 0.63388 0.59225 0.07685
 C540 C 0.59677 0.58944 0.08432
 C541 C 0.58206 0.60576 0.11163
 C542 C 0.60401 0.62455 0.13107
 H543 H 0.68653 0.76660 0.21394
 H544 H 0.64974 0.73579 0.17701
 H545 H 0.71354 0.64926 0.19495
 H546 H 0.75057 0.67978 0.23099
 H547 H 0.62772 0.68131 0.15892
 H548 H 0.69343 0.63871 0.14429
 H549 H 0.68450 0.61228 0.09042
 H550 H 0.64600 0.57955 0.05621
 H551 H 0.55352 0.60405 0.11790
 H552 H 0.59189 0.63619 0.15233
   
