data_POSCAR
  _audit_creation_date              2014-09-24
  _audit_creation_method            'ToBaCCo'
  _symmetry_space_group_name_H-M    'P1'
  _symmetry_Int_Tables_number       1
  _symmetry_cell_setting            triclinic
  loop_
  _symmetry_equiv_pos_as_xyz
 x,y,z
_cell_length_a 48.2497
_cell_length_b 47.6206
_cell_length_c 48.2347
_cell_angle_alpha 89.962600
_cell_angle_beta 90.013400
_cell_angle_gamma 90.015400
loop_
  _atom_site_label
  _atom_site_type_symbol
  _atom_site_fract_x
  _atom_site_fract_y
  _atom_site_fract_z
C1 C 0.60416 0.64512 0.62530
 C2 C 0.60436 0.62450 0.64603
 C3 C 0.62509 0.60388 0.64626
 C4 C 0.64563 0.60392 0.62570
 C5 C 0.64543 0.62454 0.60496
 C6 C 0.62470 0.64512 0.60477
 H7 H 0.58843 0.62456 0.66191
 H8 H 0.66172 0.58800 0.62579
 H9 H 0.62455 0.66109 0.58872
 C10 C 0.89684 0.35421 0.12489
 C11 C 0.87628 0.35431 0.10434
 C12 C 0.85561 0.37498 0.10453
 C13 C 0.85550 0.39556 0.12527
 C14 C 0.87602 0.39550 0.14582
 C15 C 0.89668 0.37483 0.14563
 H16 H 0.87631 0.33839 0.08825
 H17 H 0.83950 0.41156 0.12542
 H18 H 0.91255 0.37483 0.16158
 C19 C 0.39604 0.14586 -0.12513
 C20 C 0.37550 0.14585 -0.10461
 C21 C 0.35480 0.12520 -0.10474
 C22 C 0.35467 0.10456 -0.12543
 C23 C 0.37520 0.10454 -0.14596
 C24 C 0.39588 0.12520 -0.14580
 H25 H 0.37561 0.16183 -0.08860
 H26 H 0.33865 0.08857 -0.12554
 H27 H 0.41178 0.12520 -0.16170
 C28 C 0.10324 0.85403 0.37499
 C29 C 0.12382 0.85406 0.39551
 C30 C 0.14450 0.87472 0.39535
 C31 C 0.14461 0.89538 0.37465
 C32 C 0.12407 0.89539 0.35412
 C33 C 0.10339 0.87473 0.35429
 H34 H 0.12380 0.83809 0.41157
 H35 H 0.16062 0.91137 0.37451
 H36 H 0.08750 0.87479 0.33836
 N37 N 0.09216 0.16963 0.11184
 N38 N 0.08093 0.15780 0.13380
 C39 C 0.05844 0.17269 0.14142
 C40 C 0.05560 0.19483 0.12324
 C41 C 0.07721 0.19240 0.10473
 H42 H 0.04514 0.16788 0.15882
 H43 H 0.08170 0.20614 0.08745
 Cu44 Cu 0.09684 0.12417 0.15029
 Cu45 Cu 0.12527 0.15468 0.09415
 Cu46 Cu 0.15473 0.09542 0.12377
 N47 N 0.11400 0.09130 0.16703
 N48 N 0.13664 0.08016 0.15656
 C49 C 0.14411 0.05783 0.17198
 C50 C 0.12514 0.05497 0.19313
 C51 C 0.10630 0.07641 0.18953
 H52 H 0.16197 0.04468 0.16813
 H53 H 0.08843 0.08077 0.20234
 N54 N 0.17000 0.11389 0.09055
 N55 N 0.15877 0.13647 0.07927
 C56 C 0.17383 0.14402 0.05694
 C57 C 0.19539 0.12529 0.05421
 C58 C 0.19249 0.10648 0.07570
 H59 H 0.16948 0.16174 0.04361
 H60 H 0.20577 0.08874 0.08010
 H61 H 0.11981 0.11347 0.10649
 H62 H 0.14133 0.13625 0.12951
 N63 N 0.40681 0.82990 0.61252
 N64 N 0.41770 0.84140 0.63480
 C65 C 0.44022 0.82655 0.64243
 C66 C 0.44342 0.80475 0.62393
 C67 C 0.42200 0.80737 0.60522
 H68 H 0.45332 0.83116 0.66004
 H69 H 0.41781 0.79392 0.58765
 Cu70 Cu 0.40132 0.87464 0.65155
 Cu71 Cu 0.37381 0.84496 0.59464
 Cu72 Cu 0.34429 0.90423 0.62420
 N73 N 0.38459 0.90787 0.66796
 N74 N 0.36226 0.91934 0.65713
 C75 C 0.35499 0.94189 0.67231
 C76 C 0.37378 0.94455 0.69366
 C77 C 0.39229 0.92277 0.69043
 H78 H 0.33740 0.95532 0.66816
 H79 H 0.40996 0.91819 0.70347
 N80 N 0.32916 0.88586 0.59087
 N81 N 0.34040 0.86328 0.57961
 C82 C 0.32541 0.85580 0.55722
 C83 C 0.30388 0.87456 0.55442
 C84 C 0.30672 0.89332 0.57593
 H85 H 0.32976 0.83808 0.54391
 H86 H 0.29343 0.91105 0.58030
 H87 H 0.37934 0.88600 0.60742
 H88 H 0.35714 0.86321 0.62974
 N89 N 0.90782 0.66944 0.38807
 N90 N 0.91902 0.65766 0.36609
 C91 C 0.94150 0.67258 0.35845
 C92 C 0.94436 0.69470 0.37664
 C93 C 0.92278 0.69221 0.39517
 H94 H 0.95478 0.66780 0.34103
 H95 H 0.91831 0.70592 0.41247
 Cu96 Cu 0.90310 0.62404 0.34962
 Cu97 Cu 0.87474 0.65443 0.40580
 Cu98 Cu 0.84528 0.59516 0.37623
 N99 N 0.88597 0.59115 0.33292
 N100 N 0.86335 0.57996 0.34343
 C101 C 0.85590 0.55762 0.32804
 C102 C 0.87486 0.55480 0.30687
 C103 C 0.89366 0.57629 0.31043
 H104 H 0.83807 0.54442 0.33193
 H105 H 0.91151 0.58069 0.29759
 N106 N 0.83004 0.61358 0.40946
 N107 N 0.84127 0.63616 0.42073
 C108 C 0.82623 0.64367 0.44307
 C109 C 0.80468 0.62491 0.44583
 C110 C 0.80757 0.60613 0.42434
 H111 H 0.83058 0.66138 0.45639
 H112 H 0.79429 0.58838 0.41996
 H113 H 0.88021 0.61325 0.39346
 H114 H 0.85863 0.63602 0.37048
 N115 N 0.59294 0.33121 -0.11222
 N116 N 0.58176 0.34301 -0.13421
 C117 C 0.55923 0.32816 -0.14183
 C118 C 0.55632 0.30605 -0.12361
 C119 C 0.57792 0.30848 -0.10508
 H120 H 0.54595 0.33296 -0.15926
 H121 H 0.58236 0.29476 -0.08777
 Cu122 Cu 0.59777 0.37659 -0.15074
 Cu123 Cu 0.62607 0.34613 -0.09451
 Cu124 Cu 0.65569 0.40529 -0.12418
 N125 N 0.61499 0.40941 -0.16750
 N126 N 0.63765 0.42053 -0.15701
 C127 C 0.64516 0.44284 -0.17245
 C128 C 0.62621 0.44570 -0.19362
 C129 C 0.60734 0.42428 -0.19002
 H130 H 0.66304 0.45598 -0.16858
 H131 H 0.58947 0.41992 -0.20285
 N132 N 0.67089 0.38684 -0.09092
 N133 N 0.65960 0.36429 -0.07961
 C134 C 0.67463 0.35675 -0.05726
 C135 C 0.69623 0.37543 -0.05454
 C136 C 0.69339 0.39423 -0.07605
 H137 H 0.67024 0.33904 -0.04392
 H138 H 0.70672 0.41193 -0.08046
 H139 H 0.62071 0.38732 -0.10692
 H140 H 0.64221 0.36448 -0.12987
 C141 C -0.04421 0.29508 0.12436
 N142 N -0.05116 0.26751 0.12317
 N143 N -0.03154 0.24781 0.12297
 C144 C -0.00438 0.25510 0.12396
 N145 N 0.00257 0.28267 0.12514
 N146 N -0.01705 0.30237 0.12534
 C147 C -0.06533 0.31628 0.12456
 C148 C -0.08309 0.33409 0.12472
 C149 C 0.01673 0.23389 0.12372
 C150 C 0.03447 0.21607 0.12351
 C151 C 0.54381 0.70510 0.62475
 N152 N 0.51669 0.69766 0.62554
 N153 N 0.49697 0.71725 0.62538
 C154 C 0.50378 0.74487 0.62443
 N155 N 0.53090 0.75231 0.62364
 N156 N 0.55062 0.73272 0.62380
 C157 C 0.56504 0.68401 0.62493
 C158 C 0.58288 0.66629 0.62509
 C159 C 0.48254 0.76596 0.62425
 C160 C 0.46470 0.78367 0.62410
 C161 C 1.04423 0.79493 0.37548
 N162 N 1.05117 0.76735 0.37662
 N163 N 1.03153 0.74766 0.37682
 C164 C 1.00438 0.75495 0.37589
 N165 N 0.99745 0.78253 0.37475
 N166 N 1.01708 0.80222 0.37455
 C167 C 1.06537 0.81612 0.37529
 C168 C 1.08315 0.83393 0.37515
 C169 C 0.98324 0.73375 0.37613
 C170 C 0.96550 0.71593 0.37635
 C171 C 0.45625 0.20602 -0.12465
 N172 N 0.48123 0.20101 -0.13654
 N173 N 0.50090 0.22067 -0.13636
 C174 C 0.49617 0.24593 -0.12428
 N175 N 0.47119 0.25094 -0.11239
 N176 N 0.45152 0.23128 -0.11258
 C177 C 0.43508 0.18485 -0.12484
 C178 C 0.41729 0.16708 -0.12498
 C179 C 0.51735 0.26709 -0.12406
 C180 C 0.53513 0.28487 -0.12387
 C181 C 0.12449 -0.04453 0.29379
 N182 N 0.14818 -0.03845 0.27991
 N183 N 0.14831 -0.01886 0.26015
 C184 C 0.12475 -0.00477 0.25369
 N185 N 0.10106 -0.01085 0.26758
 N186 N 0.10093 -0.03044 0.28733
 C187 C 0.12434 -0.06564 0.31502
 C188 C 0.12421 -0.08340 0.33285
 C189 C 0.12488 0.01628 0.23240
 C190 C 0.12499 0.03394 0.21449
 C191 C 0.62562 0.54505 -0.29442
 N192 N 0.60775 0.52309 -0.29556
 N193 N 0.60789 0.50354 -0.27577
 C194 C 0.62589 0.50537 -0.25425
 N195 N 0.64376 0.52733 -0.25312
 N196 N 0.64363 0.54688 -0.27290
 C197 C 0.62544 0.56612 -0.31570
 C198 C 0.62529 0.58384 -0.33356
 C199 C 0.62601 0.48435 -0.23293
 C200 C 0.62611 0.46670 -0.21500
 C201 C 0.37475 1.04441 0.79384
 N202 N 0.35685 1.02250 0.79533
 N203 N 0.35668 1.00286 0.77566
 C204 C 0.37440 1.00455 0.75390
 N205 N 0.39230 1.02646 0.75240
 N206 N 0.39247 1.04610 0.77208
 C207 C 0.37491 1.06556 0.81501
 C208 C 0.37504 1.08333 0.83279
 C209 C 0.37420 0.98342 0.73270
 C210 C 0.37402 0.96568 0.71489
 C211 C 0.87561 0.45540 0.20625
 N212 N 0.86102 0.47949 0.20279
 N213 N 0.86088 0.49904 0.22255
 C214 C 0.87532 0.49508 0.24636
 N215 N 0.88991 0.47099 0.24982
 N216 N 0.89005 0.45144 0.23006
 C217 C 0.87575 0.43434 0.18498
 C218 C 0.87587 0.41664 0.16713
 C219 C 0.87516 0.51612 0.26764
 C220 C 0.87502 0.53378 0.28554
 C221 C 0.29497 0.12524 -0.04499
 N222 N 0.28526 0.14981 -0.03464
 N223 N 0.26570 0.14984 -0.01513
 C224 C 0.25527 0.12529 -0.00540
 N225 N 0.26498 0.10072 -0.01575
 N226 N 0.28454 0.10070 -0.03526
 C227 C 0.31602 0.12522 -0.06600
 C228 C 0.33370 0.12520 -0.08366
 C229 C 0.23420 0.12531 0.01559
 C230 C 0.21649 0.12531 0.03322
 C231 C 0.70522 0.62468 0.54516
 N232 N 0.69936 0.61566 0.51915
 N233 N 0.71890 0.61572 0.49962
 C234 C 0.74488 0.62480 0.50552
 N235 N 0.75074 0.63383 0.53153
 N236 N 0.73120 0.63377 0.55106
 C237 C 0.68419 0.62461 0.56619
 C238 C 0.66653 0.62457 0.58386
 C239 C 0.76592 0.62485 0.48450
 C240 C 0.78360 0.62489 0.46685
 C241 C 0.79579 0.37518 0.04474
 N242 N 0.79961 0.36088 0.02074
 N243 N 0.78005 0.36094 0.00122
 C244 C 0.75610 0.37530 0.00511
 N245 N 0.75229 0.38960 0.02912
 N246 N 0.77184 0.38954 0.04864
 C247 C 0.81683 0.37511 0.06577
 C248 C 0.83451 0.37505 0.08344
 C249 C 0.73504 0.37534 -0.01589
 C250 C 0.71734 0.37538 -0.03353
 C251 C 0.20438 0.87466 0.45508
 N252 N 0.21615 0.85021 0.46340
 N253 N 0.23570 0.85018 0.48293
 C254 C 0.24407 0.87460 0.49471
 N255 N 0.23230 0.89906 0.48639
 N256 N 0.21275 0.89909 0.46687
 C257 C 0.18333 0.87469 0.43406
 C258 C 0.16563 0.87472 0.41641
 C259 C 0.26512 0.87457 0.51573
 C260 C 0.28280 0.87456 0.53338
   
