data_POSCAR
  _audit_creation_date              2014-09-24
  _audit_creation_method            'ToBaCCo'
  _symmetry_space_group_name_H-M    'P1'
  _symmetry_Int_Tables_number       1
  _symmetry_cell_setting            triclinic
  loop_
  _symmetry_equiv_pos_as_xyz
 x,y,z
_cell_length_a 26.2535
_cell_length_b 26.2955
_cell_length_c 54.1224
_cell_angle_alpha 87.580600
_cell_angle_beta 91.225800
_cell_angle_gamma 120.109700
loop_
  _atom_site_label
  _atom_site_type_symbol
  _atom_site_fract_x
  _atom_site_fract_y
  _atom_site_fract_z
C1 C 0.02175 0.09611 0.53352
 H2 H 0.06303 0.09630 0.53317
 C3 C 0.01630 0.13595 0.54786
 H4 H 0.05341 0.16683 0.55868
 C5 C -0.07653 0.05680 0.51922
 H6 H -0.11210 0.02664 0.50764
 C7 C -0.08383 0.09610 0.53332
 H8 H -0.12522 0.09585 0.53274
 N9 N -0.02430 0.05751 0.51965
 C10 C 0.01595 -0.08127 0.50744
 H11 H 0.01776 -0.07958 0.48745
 C12 C 0.02093 -0.12503 0.52094
 H13 H 0.02702 -0.15694 0.51136
 C14 C 0.00248 -0.04384 0.54434
 H15 H -0.00660 -0.01337 0.55336
 C16 C 0.00723 -0.08689 0.55854
 H17 H 0.00250 -0.08895 0.57845
 Zn18 Zn -0.00922 0.00956 0.49951
 N19 N 0.00661 -0.04200 0.51925
 C20 C 0.10745 0.06042 0.48008
 N21 N 0.05598 0.06121 0.47949
 C22 C 0.05019 0.10238 0.46562
 C23 C 0.09723 0.14489 0.45147
 C24 C 0.15575 0.10232 0.46617
 C25 C -0.12483 -0.07995 0.49144
 C26 C -0.17233 -0.12167 0.47790
 C27 C -0.11676 -0.07672 0.44035
 C28 C -0.07032 -0.03588 0.45461
 N29 N -0.07501 -0.03846 0.47968
 H30 H 0.11151 0.02815 0.49166
 H31 H 0.00907 0.10252 0.46585
 H32 H 0.09232 0.17779 0.44065
 H33 H 0.19683 0.10196 0.46688
 H34 H -0.12683 -0.08174 0.51143
 H35 H -0.21118 -0.15538 0.48756
 H36 H -0.11186 -0.07512 0.42044
 H37 H -0.02983 -0.00366 0.44566
 C38 C 0.01588 -0.12821 0.54670
 C39 C -0.03683 0.13615 0.54768
 C40 C -0.16797 -0.12051 0.45212
 C41 C 0.15055 0.14505 0.45183
 C42 C 1.11320 0.04467 0.13278
 H43 H 1.11362 0.08602 0.13282
 C44 C 1.15406 0.03965 0.11859
 H45 H 1.18597 0.07716 0.10756
 C46 C 1.07211 -0.05431 0.14768
 H47 H 1.04081 -0.09037 0.15941
 C48 C 1.11237 -0.06120 0.13373
 H49 H 1.11172 -0.10276 0.13458
 N50 N 1.07320 -0.00195 0.14687
 C51 C 0.93302 0.03749 0.15813
 H52 H 0.93294 0.03824 0.17810
 C53 C 0.89014 0.04278 0.14441
 H54 H 0.85714 0.04806 0.15380
 C55 C 0.97393 0.02619 0.12152
 H56 H 1.00537 0.01778 0.11272
 C57 C 0.93182 0.03129 0.10711
 H58 H 0.93145 0.02748 0.08724
 Zn59 Zn 1.02346 0.01215 0.16666
 N60 N 0.97355 0.02901 0.14657
 C61 C 1.07225 0.12736 0.18566
 N62 N 1.07334 0.07609 0.18643
 C63 C 1.11336 0.06950 0.20048
 C64 C 1.15425 0.11540 0.21469
 C65 C 1.11256 0.17455 0.19962
 C66 C 0.93298 -0.10374 0.17526
 C67 C 0.89014 -0.15191 0.18902
 C68 C 0.93206 -0.09854 0.22628
 C69 C 0.97411 -0.05134 0.21183
 N70 N 0.97360 -0.05463 0.18678
 H71 H 1.04092 0.13209 0.17395
 H72 H 1.11376 0.02856 0.20041
 H73 H 1.18618 0.10982 0.22570
 H74 H 1.11191 0.21545 0.19881
 H75 H 0.93279 -0.10465 0.15529
 H76 H 0.85706 -0.19027 0.17966
 H77 H 0.93179 -0.09503 0.24614
 H78 H 1.00562 -0.01141 0.22061
 C79 C 0.88916 0.03895 0.11869
 C80 C 1.15380 -0.01366 0.11913
 C81 C 0.88929 -0.14897 0.21473
 C82 C 1.15400 0.16845 0.21420
 C83 C 0.05031 0.94732 0.86750
 H84 H 0.00920 0.90597 0.86724
 C85 C 0.09730 0.95193 0.88169
 H86 H 0.09237 0.91411 0.89251
 C87 C 0.10756 1.04667 0.85309
 H88 H 0.11163 1.08302 0.84152
 C89 C 0.15582 1.05315 0.86704
 H90 H 0.19688 1.09469 0.86637
 N91 N 0.05610 0.99430 0.85363
 C92 C -0.12470 0.95438 0.84167
 H93 H -0.12674 0.95416 0.82169
 C94 C -0.17215 0.94855 0.85522
 H95 H -0.21104 0.94338 0.84563
 C96 C -0.07013 0.96491 0.87850
 H97 H -0.02963 0.97325 0.88745
 C98 C -0.11654 0.95927 0.89276
 H99 H -0.11172 0.96259 0.91266
 Zn100 Zn -0.00909 0.98065 0.83360
 N101 N -0.07486 0.96278 0.85342
 C102 C -0.07642 0.86600 0.81388
 N103 N -0.02418 0.91760 0.81346
 C104 C 0.02186 0.92511 0.79959
 C105 C 0.01640 0.87980 0.78526
 C106 C -0.08373 0.81938 0.79978
 C107 C 0.01608 1.09669 0.82568
 C108 C 0.02105 1.14544 0.81218
 C109 C 0.00736 1.09357 0.77458
 C110 C 0.00261 1.04577 0.78877
 N111 N 0.00674 1.04807 0.81386
 H112 H -0.11198 0.86054 0.82545
 H113 H 0.06315 0.96627 0.79995
 H114 H 0.05351 0.88608 0.77444
 H115 H -0.12513 0.77817 0.80035
 H116 H 0.01789 1.09682 0.84567
 H117 H 0.02714 1.18345 0.82176
 H118 H 0.00263 1.09090 0.75467
 H119 H -0.00646 1.00622 0.77976
 C120 C -0.16772 0.95176 0.88099
 C121 C 0.15059 1.00520 0.88138
 C122 C 0.01600 1.14356 0.78642
 C123 C -0.03673 0.82639 0.78543
 C124 C 0.50942 -0.00409 0.01205
 C125 C 0.50662 -0.00701 -0.01307
 C126 C 0.46011 -0.00243 -0.02747
 C127 C 0.54980 -0.01501 -0.02729
 C128 C 0.56208 0.00378 0.02608
 C129 C 0.45999 -0.00836 0.02666
 C130 C 0.42617 -0.04488 -0.04478
 C131 C 0.38228 -0.04092 -0.05832
 C132 C 0.37215 0.00575 -0.05484
 C133 C 0.40641 0.04873 -0.03790
 C134 C 0.45037 0.04485 -0.02437
 C135 C 0.56088 -0.06098 -0.02091
 C136 C 0.60126 -0.06843 -0.03447
 C137 C 0.63054 -0.03041 -0.05468
 C138 C 0.61911 0.01494 -0.06134
 C139 C 0.57880 0.02248 -0.04778
 C140 C 0.61873 0.04971 0.01959
 C141 C 0.66793 0.05723 0.03306
 C142 C 0.66098 0.01931 0.05328
 C143 C 0.60464 -0.02607 0.06002
 C144 C 0.55542 -0.03368 0.04656
 C145 C 0.47083 0.03416 0.04402
 C146 C 0.42457 0.03045 0.05778
 C147 C 0.36706 -0.01603 0.05448
 C148 C 0.35603 -0.05907 0.03747
 C149 C 0.40228 -0.05545 0.02372
 H150 H 0.43322 -0.08145 -0.04757
 H151 H 0.35607 -0.07438 -0.07141
 H152 H 0.39911 0.08515 -0.03514
 H153 H 0.47684 0.07872 -0.01149
 H154 H 0.53810 -0.09116 -0.00549
 H155 H 0.60959 -0.10382 -0.02921
 H156 H 0.57063 0.05793 -0.05311
 H157 H 0.62475 0.07987 0.00419
 H158 H 0.71129 0.09264 0.02775
 H159 H 0.59877 -0.05562 0.07567
 H160 H 0.51216 -0.06909 0.05197
 H161 H 0.51501 0.07059 0.04668
 H162 H 0.43359 0.06396 0.07092
 H163 H 0.31174 -0.09534 0.03484
 H164 H 0.39313 -0.08936 0.01079
 H165 H 0.64147 0.04458 -0.07697
 C166 C -0.02081 0.48808 0.67916
 C167 C -0.02082 0.49045 0.65395
 C168 C -0.02664 0.44094 0.63949
 C169 C -0.01416 0.54302 0.63967
 C170 C -0.02662 0.53177 0.69362
 C171 C -0.01413 0.44218 0.69344
 C172 C 0.01367 0.45176 0.62054
 C173 C 0.00863 0.40545 0.60693
 C174 C -0.03698 0.34789 0.61199
 C175 C -0.07786 0.33685 0.63060
 C176 C -0.07292 0.38315 0.64421
 C177 C 0.03290 0.59950 0.64449
 C178 C 0.03926 0.64866 0.63083
 C179 C -0.00097 0.64186 0.61206
 C180 C -0.04749 0.58567 0.60695
 C181 C -0.05394 0.53647 0.62062
 C182 C -0.07291 0.54318 0.68891
 C183 C -0.07784 0.58454 0.70251
 C184 C -0.03694 0.61447 0.72112
 C185 C 0.00868 0.60261 0.72618
 C186 C 0.01371 0.56133 0.71258
 C187 C -0.05389 0.40890 0.71250
 C188 C -0.04743 0.36617 0.72616
 C189 C -0.00091 0.35658 0.72105
 C190 C 0.03931 0.39007 0.70229
 C191 C 0.03293 0.43285 0.68863
 H192 H 0.04946 0.49597 0.61651
 H193 H 0.04049 0.41448 0.59256
 H194 H -0.11344 0.29251 0.63461
 H195 H -0.10516 0.37399 0.65841
 H196 H 0.06481 0.60541 0.65874
 H197 H 0.07557 0.69190 0.63486
 H198 H -0.09024 0.49331 0.61649
 H199 H -0.10517 0.52004 0.67470
 H200 H -0.11343 0.59324 0.69850
 H201 H 0.04055 0.62549 0.74055
 H202 H 0.04950 0.55298 0.71661
 H203 H -0.09019 0.41570 0.71662
 H204 H -0.07874 0.34057 0.74068
 H205 H 0.07562 0.38321 0.69826
 H206 H 0.06483 0.45890 0.67438
 H207 H -0.07882 0.57990 0.59244
 C208 C 0.50706 0.51429 0.34671
 C209 C 0.50980 0.51428 0.32158
 C210 C 0.56245 0.55915 0.30756
 C211 C 0.46031 0.46912 0.30696
 C212 C 0.46053 0.46310 0.36109
 C213 C 0.55033 0.56547 0.36096
 C214 C 0.55579 0.59003 0.28711
 C215 C 0.60499 0.63166 0.27364
 C216 C 0.66132 0.64258 0.28033
 C217 C 0.66826 0.61154 0.30052
 C218 C 0.61908 0.56984 0.31401
 C219 C 0.40263 0.45846 0.30992
 C220 C 0.35634 0.41588 0.29613
 C221 C 0.36731 0.38395 0.27907
 C222 C 0.42478 0.39500 0.27575
 C223 C 0.47108 0.43751 0.28955
 C224 C 0.45069 0.40605 0.35792
 C225 C 0.40668 0.35810 0.37140
 C226 C 0.37245 0.36674 0.38836
 C227 C 0.38269 0.42357 0.39191
 C228 C 0.42664 0.47154 0.37842
 C229 C 0.57935 0.55689 0.38142
 C230 C 0.61980 0.60473 0.39498
 C231 C 0.63134 0.66160 0.38836
 C232 C 0.60202 0.67041 0.36820
 C233 C 0.56151 0.62259 0.35463
 H234 H 0.51253 0.58219 0.28173
 H235 H 0.59911 0.65537 0.25801
 H236 H 0.71162 0.61946 0.30580
 H237 H 0.62510 0.54564 0.32939
 H238 H 0.39354 0.48318 0.32288
 H239 H 0.31208 0.40785 0.29877
 H240 H 0.51524 0.44530 0.28687
 H241 H 0.47713 0.39872 0.34501
 H242 H 0.39930 0.31436 0.36859
 H243 H 0.35651 0.43075 0.40502
 H244 H 0.43376 0.51516 0.38126
 H245 H 0.57111 0.51321 0.38671
 H246 H 0.64219 0.59741 0.41057
 H247 H 0.61044 0.71419 0.36298
 H248 H 0.53871 0.63005 0.33924
 H249 H 0.43376 0.37058 0.26258
 C250 C -0.04170 0.17899 0.56157
 C251 C -0.04342 0.21621 0.57319
 C252 C -0.04306 0.26107 0.58675
 C253 C -0.04105 0.30026 0.59828
 C254 C 0.84225 0.80436 0.22904
 C255 C 0.80186 0.76623 0.24095
 C256 C 0.75365 0.72253 0.25478
 C257 C 0.71185 0.68583 0.26649
 C258 C 0.20001 0.00942 -0.10486
 C259 C 0.24054 0.01090 -0.09337
 C260 C 0.28708 0.01062 -0.07995
 C261 C 0.32617 0.00900 -0.06850
 C262 C 0.01558 0.82401 0.56081
 C263 C 0.01360 0.78313 0.57260
 C264 C 0.00965 0.73449 0.58637
 C265 C 0.00523 0.69246 0.59809
 C266 C 0.19753 0.21668 0.22811
 C267 C 0.23516 0.25616 0.23978
 C268 C 0.28034 0.30142 0.25345
 C269 C 0.31967 0.33936 0.26513
 C270 C 0.78890 -0.04823 -0.10564
 C271 C 0.75143 -0.04639 -0.09386
 C272 C 0.70859 -0.04227 -0.08014
 C273 C 0.67271 -0.03744 -0.06850
 C274 C 0.19733 -0.01836 0.10526
 C275 C 0.23496 -0.02022 0.09363
 C276 C 0.28014 -0.02033 0.08000
 C277 C 0.31945 -0.01900 0.06837
 C278 C 0.79032 0.83779 0.43929
 C279 C 0.75272 0.79848 0.42752
 C280 C 0.70971 0.75153 0.41381
 C281 C 0.67369 0.71080 0.40218
 C282 C 0.01570 0.19104 0.77231
 C283 C 0.01371 0.22994 0.76052
 C284 C 0.00974 0.27461 0.74675
 C285 C 0.00530 0.31220 0.73502
 C286 C 0.84206 0.03853 0.10442
 C287 C 0.80164 0.03625 0.09255
 C288 C 0.75339 0.03172 0.07877
 C289 C 0.71154 0.02660 0.06709
 C290 C 0.20002 0.19041 0.43813
 C291 C 0.24061 0.22959 0.42670
 C292 C 0.28723 0.27656 0.41335
 C293 C 0.32639 0.31738 0.40196
 C294 C -0.04162 0.77867 0.77153
 C295 C -0.04335 0.73972 0.75992
 C296 C -0.04300 0.69522 0.74636
 C297 C -0.04101 0.65802 0.73483
   
