data_POSCAR
  _audit_creation_date              2014-09-24
  _audit_creation_method            'ToBaCCo'
  _symmetry_space_group_name_H-M    'P1'
  _symmetry_Int_Tables_number       1
  _symmetry_cell_setting            triclinic
  loop_
  _symmetry_equiv_pos_as_xyz
 x,y,z
_cell_length_a 41.8418
_cell_length_b 41.5520
_cell_length_c 38.7208
_cell_angle_alpha 89.651900
_cell_angle_beta 89.849800
_cell_angle_gamma 91.862500
loop_
  _atom_site_label
  _atom_site_type_symbol
  _atom_site_fract_x
  _atom_site_fract_y
  _atom_site_fract_z
O1 O -0.05271 0.27295 0.01772
 O2 O 0.00537 0.28010 -0.05413
 O3 O -0.05679 0.27107 -0.04918
 O4 O 0.00872 0.28229 0.01325
 O5 O 0.01460 0.22968 0.01503
 O6 O -0.05026 0.21855 -0.04821
 O7 O 0.01178 0.22763 -0.05201
 O8 O -0.04685 0.22031 0.01880
 Cu9 Cu -0.02441 0.28190 -0.01843
 Cu10 Cu -0.01705 0.21877 -0.01659
 C11 C -0.05958 0.24533 0.03051
 C12 C 0.01875 0.25509 -0.06509
 C13 C -0.06490 0.24289 -0.05906
 C14 C 0.02252 0.25785 0.02511
 O15 O 0.47305 0.79838 0.54654
 O16 O 0.52862 0.80790 0.47365
 O17 O 0.46750 0.79356 0.47977
 O18 O 0.53433 0.80782 0.54089
 O19 O 0.54251 0.75558 0.54175
 O20 O 0.47692 0.74156 0.48078
 O21 O 0.53758 0.75581 0.47493
 O22 O 0.48112 0.74611 0.54808
 Cu23 Cu 0.50003 0.80714 0.50995
 Cu24 Cu 0.51029 0.74454 0.51150
 C25 C 0.46777 0.77084 0.55994
 C26 C 0.54267 0.78370 0.46191
 C27 C 0.46108 0.76495 0.46979
 C28 C 0.54964 0.78388 0.55184
 O29 O 1.04564 0.72222 0.04009
 O30 O 0.98331 0.71396 -0.02656
 O31 O 1.04521 0.72209 -0.02713
 O32 O 0.98385 0.71389 0.04087
 O33 O 0.97903 0.76666 0.04071
 O34 O 1.03981 0.77475 -0.02788
 O35 O 0.97772 0.76663 -0.02658
 O36 O 1.04087 0.77496 0.03942
 Cu37 Cu 1.01500 0.71275 0.00682
 Cu38 Cu 1.00882 0.77604 0.00635
 C39 C 1.05389 0.74999 0.05119
 C40 C 0.96988 0.73885 -0.03790
 C41 C 1.05298 0.74979 -0.03915
 C42 C 0.97116 0.73894 0.05255
 O43 O 0.45515 0.23155 0.45231
 O44 O 0.50907 0.25110 0.52426
 O45 O 0.44778 0.23825 0.51877
 O46 O 0.51549 0.24823 0.45741
 O47 O 0.50461 0.29963 0.45149
 O48 O 0.43797 0.28988 0.51262
 O49 O 0.49925 0.30273 0.51849
 O50 O 0.44426 0.28296 0.44651
 Cu51 Cu 0.48292 0.23713 0.48884
 Cu52 Cu 0.47055 0.29896 0.48172
 C53 C 0.44038 0.25377 0.43726
 C54 C 0.51358 0.28010 0.53358
 C55 C 0.43127 0.26254 0.52589
 C56 C 0.52138 0.27581 0.44394
 O57 O 0.70673 -0.01885 0.02382
 O58 O 0.71351 0.04253 -0.04455
 O59 O 0.72223 -0.01946 -0.04137
 O60 O 0.70116 0.04313 0.02121
 O61 O 0.75257 0.05143 0.03190
 O62 O 0.77330 -0.01210 -0.02828
 O63 O 0.76509 0.04941 -0.03406
 O64 O 0.75776 -0.01069 0.03660
 Cu65 Cu 0.70578 0.01102 -0.01156
 Cu66 Cu 0.76730 0.02037 0.00277
 C67 C 0.73091 -0.02511 0.04203
 C68 C 0.74032 0.05644 -0.05112
 C69 C 0.75137 -0.02659 -0.04515
 C70 C 0.72357 0.05803 0.03712
 O71 O 0.23782 0.51077 0.46422
 O72 O 0.23108 0.44106 0.52411
 O73 O 0.22747 0.50310 0.53009
 O74 O 0.23856 0.44809 0.45737
 O75 O 0.29081 0.45054 0.46525
 O76 O 0.27969 0.50603 0.53834
 O77 O 0.28338 0.44401 0.53179
 O78 O 0.29008 0.51292 0.47228
 Cu79 Cu 0.22852 0.47543 0.49301
 Cu80 Cu 0.29121 0.47865 0.50266
 C81 C 0.26525 0.52378 0.45830
 C82 C 0.25625 0.43090 0.53833
 C83 C 0.25157 0.51391 0.54665
 C84 C 0.26644 0.43979 0.44894
 O85 O 0.30545 0.94584 -0.03451
 O86 O 0.30348 1.00511 0.03528
 O87 O 0.29707 0.94246 0.03227
 O88 O 0.30764 1.00847 -0.03180
 O89 O 0.25522 1.00984 -0.03711
 O90 O 0.24468 0.94506 0.02673
 O91 O 0.25110 1.00784 0.03002
 O92 O 0.25296 0.94688 -0.03959
 Cu93 Cu 0.30863 0.97525 0.00088
 Cu94 Cu 0.24578 0.97767 -0.00552
 C95 C 0.27976 0.93597 -0.04880
 C96 C 0.27721 1.01684 0.04440
 C97 C 0.26889 0.93250 0.04017
 C98 C 0.28301 1.02042 -0.04536
 O99 O 0.81617 0.54966 0.53936
 O100 O 0.82274 0.48548 0.47458
 O101 O 0.82309 0.54820 0.47231
 O102 O 0.81633 0.48699 0.54137
 O103 O 0.76380 0.48525 0.53553
 O104 O 0.77057 0.54629 0.46648
 O105 O 0.77018 0.48375 0.46912
 O106 O 0.76366 0.54771 0.53330
 Cu107 Cu 0.82489 0.51784 0.50748
 Cu108 Cu 0.76178 0.51566 0.50048
 C109 C 0.78869 0.55946 0.54742
 C110 C 0.79745 0.47354 0.46104
 C111 C 0.79796 0.55760 0.45758
 C112 C 0.78894 0.47560 0.55008
 C113 C 0.22998 0.21072 0.21034
 C114 C 0.20751 0.23512 0.20574
 C115 C 0.20717 0.26097 0.22894
 C116 C 0.22859 0.26320 0.25659
 C117 C 0.25128 0.23898 0.26115
 C118 C 0.25185 0.21313 0.23784
 H119 H 0.26818 0.19389 0.24243
 H120 H 0.19054 0.28012 0.22517
 C121 C 0.76014 0.79279 0.22805
 C122 C 0.78178 0.76753 0.22562
 C123 C 0.77863 0.74056 0.24745
 C124 C 0.75449 0.73752 0.27242
 C125 C 0.72999 0.76274 0.27637
 C126 C 0.73502 0.79099 0.25201
 H127 H 0.71896 0.81079 0.25402
 H128 H 0.79453 0.72079 0.24407
 C129 C 0.76861 0.27392 0.22668
 C130 C 0.74633 0.24488 0.22427
 C131 C 0.72307 0.24191 0.25400
 C132 C 0.72190 0.26467 0.28026
 C133 C 0.74348 0.29151 0.28036
 C134 C 0.76579 0.29596 0.25349
 H135 H 0.78164 0.31712 0.25339
 H136 H 0.70640 0.22141 0.25468
 C137 C 0.22296 0.75372 0.24565
 C138 C 0.24949 0.77565 0.24765
 C139 C 0.26998 0.77437 0.27610
 C140 C 0.26566 0.75095 0.30210
 C141 C 0.23974 0.72837 0.29972
 C142 C 0.21840 0.73048 0.27195
 H143 H 0.19795 0.71381 0.27095
 H144 H 0.28956 0.79202 0.27803
 C145 C 0.69337 0.26541 0.72307
 C146 C 0.71374 0.29314 0.72599
 C147 C 0.73372 0.29619 0.75504
 C148 C 0.73502 0.27172 0.77996
 C149 C 0.71491 0.24398 0.77672
 C150 C 0.69462 0.24094 0.74809
 H151 H 0.67893 0.21976 0.74581
 H152 H 0.74893 0.31757 0.75816
 C153 C 0.29246 0.71469 0.74167
 C154 C 0.27196 0.68703 0.74340
 C155 C 0.24718 0.68556 0.76783
 C156 C 0.24217 0.71120 0.79037
 C157 C 0.26309 0.73875 0.78939
 C158 C 0.28797 0.74012 0.76481
 H159 H 0.30403 0.76099 0.76369
 H160 H 0.23168 0.66418 0.76952
 C161 C 0.24136 0.25001 0.72123
 C162 C 0.26496 0.22639 0.72295
 C163 C 0.26326 0.20306 0.74914
 C164 C 0.23834 0.20215 0.77349
 C165 C 0.21434 0.22536 0.77164
 C166 C 0.21635 0.24917 0.74563
 H167 H 0.19939 0.26827 0.74543
 H168 H 0.28113 0.18475 0.74978
 C169 C 0.76343 0.73352 0.73062
 C170 C 0.73717 0.75412 0.72924
 C171 C 0.73285 0.77595 0.75623
 C172 C 0.75400 0.77795 0.78407
 C173 C 0.78074 0.75806 0.78528
 C174 C 0.78477 0.73567 0.75863
 H175 H 0.80366 0.71860 0.76048
 H176 H 0.71349 0.79259 0.75532
 C177 C 0.27788 0.04136 0.07175
 C178 C 0.25098 0.05806 0.08174
 C179 C 0.25214 0.08464 0.10730
 C180 C 0.22774 0.10702 0.10706
 C181 C 0.22830 0.13289 0.13004
 C182 C 0.25317 0.13673 0.15427
 C183 C 0.27745 0.11423 0.15470
 C184 C 0.27688 0.08833 0.13173
 C185 C 0.25509 0.16436 0.17848
 C186 C 0.22841 0.18153 0.18825
 H187 H 0.22855 0.05287 0.06867
 H188 H 0.20845 0.10485 0.08853
 H189 H 0.20961 0.15016 0.12801
 H190 H 0.29686 0.11658 0.17307
 H191 H 0.29570 0.07120 0.13355
 H192 H 0.27831 0.17130 0.18882
 H193 H 0.30094 0.04749 0.08286
 H194 H 0.20512 0.17372 0.17890
 C195 C 0.78516 0.58446 0.57363
 C196 C 0.81121 0.59909 0.59042
 C197 C 0.80728 0.62350 0.61763
 C198 C 0.83198 0.64641 0.62358
 C199 C 0.82850 0.67020 0.64861
 C200 C 0.80027 0.67145 0.66814
 C201 C 0.77610 0.64764 0.66319
 C202 C 0.77956 0.62395 0.63820
 C203 C 0.79691 0.69732 0.69385
 C204 C 0.76716 0.70800 0.70446
 H205 H 0.83522 0.59346 0.58243
 H206 H 0.85379 0.64623 0.60845
 H207 H 0.84769 0.68795 0.65236
 H208 H 0.75467 0.64682 0.67889
 H209 H 0.76066 0.60575 0.63555
 H210 H 0.81843 0.70962 0.70307
 H211 H 0.76114 0.59165 0.57950
 H212 H 0.74576 0.69815 0.69237
 C213 C 0.72714 0.95054 0.06956
 C214 C 0.75270 0.94048 0.08952
 C215 C 0.74920 0.91489 0.11619
 C216 C 0.77581 0.89680 0.12465
 C217 C 0.77320 0.87176 0.14888
 C218 C 0.74389 0.86467 0.16571
 C219 C 0.71742 0.88316 0.15762
 C220 C 0.72002 0.90811 0.13329
 C221 C 0.73954 0.83753 0.19055
 C222 C 0.76484 0.82217 0.20642
 H223 H 0.77650 0.95021 0.08389
 H224 H 0.79854 0.90155 0.11184
 H225 H 0.79405 0.85769 0.15346
 H226 H 0.69460 0.87829 0.17020
 H227 H 0.69920 0.92214 0.12825
 H228 H 0.71533 0.82890 0.19602
 H229 H 0.70361 0.93945 0.07314
 H230 H 0.78915 0.83070 0.20179
 C231 C 0.25466 0.40380 0.56292
 C232 C 0.22590 0.38932 0.57418
 C233 C 0.22442 0.36316 0.60043
 C234 C 0.19629 0.35804 0.61979
 C235 C 0.19440 0.33412 0.64538
 C236 C 0.22062 0.31486 0.65219
 C237 C 0.24843 0.31921 0.63197
 C238 C 0.25029 0.34304 0.60637
 C239 C 0.21778 0.28979 0.67953
 C240 C 0.24420 0.27697 0.69604
 H241 H 0.20362 0.39881 0.56502
 H242 H 0.17586 0.37288 0.61543
 H243 H 0.17251 0.33090 0.66018
 H244 H 0.26862 0.30391 0.63526
 H245 H 0.27186 0.34514 0.59097
 H246 H 0.19399 0.28121 0.68687
 H247 H 0.27707 0.39621 0.57361
 H248 H 0.26800 0.28596 0.68948
 C249 C 0.91765 0.24176 0.05938
 C250 C 0.90280 0.26799 0.07414
 C251 C 0.88014 0.26489 0.10358
 C252 C 0.85846 0.28940 0.10925
 C253 C 0.83645 0.28716 0.13650
 C254 C 0.83601 0.26042 0.15901
 C255 C 0.85798 0.23615 0.15358
 C256 C 0.87994 0.23838 0.12636
 C257 C 0.81234 0.25610 0.18733
 C258 C 0.79336 0.28045 0.19993
 H259 H 0.90703 0.29168 0.06286
 H260 H 0.85818 0.31013 0.09216
 H261 H 0.81952 0.30608 0.13925
 H262 H 0.85820 0.21531 0.17053
 H263 H 0.89687 0.21945 0.12366
 H264 H 0.81016 0.23255 0.19941
 H265 H 0.91233 0.21761 0.06878
 H266 H 0.79807 0.30519 0.19212
 C267 C 0.44614 0.76836 0.58980
 C268 C 0.43789 0.73921 0.60595
 C269 C 0.41578 0.73737 0.63579
 C270 C 0.39618 0.70969 0.64050
 C271 C 0.37391 0.70796 0.66744
 C272 C 0.37106 0.73387 0.69039
 C273 C 0.39182 0.76083 0.68678
 C274 C 0.41389 0.76269 0.65962
 C275 C 0.34683 0.73322 0.71825
 C276 C 0.31717 0.71746 0.71418
 H277 H 0.44612 0.71699 0.59504
 H278 H 0.39766 0.68964 0.62288
 H279 H 0.35911 0.68626 0.67034
 H280 H 0.39049 0.78076 0.70457
 H281 H 0.42952 0.78388 0.65749
 H282 H 0.35221 0.74614 0.74182
 H283 H 0.43599 0.79039 0.59893
 H284 H 0.31191 0.70586 0.68980
 C285 C 0.07725 0.75346 0.07672
 C286 C 0.09234 0.72703 0.09124
 C287 C 0.11631 0.72917 0.11942
 C288 C 0.13375 0.70177 0.12719
 C289 C 0.15592 0.70212 0.15411
 C290 C 0.16133 0.72992 0.17389
 C291 C 0.14373 0.75738 0.16641
 C292 C 0.12145 0.75702 0.13949
 C293 C 0.18457 0.72881 0.20268
 C294 C 0.19893 0.75610 0.21771
 H295 H 0.08654 0.70324 0.08122
 H296 H 0.13015 0.67989 0.11243
 H297 H 0.16893 0.68054 0.15947
 H298 H 0.14639 0.77895 0.18175
 H299 H 0.10792 0.77838 0.13523
 H300 H 0.19213 0.70533 0.21109
 H301 H 0.08352 0.77759 0.08516
 H302 H 0.19431 0.77969 0.20732
 C303 C 0.53585 0.28770 0.56203
 C304 C 0.55256 0.26346 0.57864
 C305 C 0.57629 0.26875 0.60661
 C306 C 0.59466 0.24270 0.61688
 C307 C 0.61730 0.24608 0.64316
 C308 C 0.62219 0.27580 0.65983
 C309 C 0.60349 0.30176 0.64999
 C310 C 0.58081 0.29838 0.62363
 C311 C 0.64577 0.28044 0.68804
 C312 C 0.67135 0.26033 0.69374
 H313 H 0.54865 0.23891 0.56995
 H314 H 0.59145 0.21949 0.60454
 H315 H 0.63034 0.22513 0.65056
 H316 H 0.60651 0.32481 0.66269
 H317 H 0.56682 0.31894 0.61716
 H318 H 0.64341 0.30113 0.70465
 H319 H 0.53949 0.31267 0.56904
 H320 H 0.67429 0.23900 0.67840
 C321 C 0.74277 0.07971 0.92279
 C322 C 0.71580 0.09123 0.90613
 C323 C 0.71770 0.11624 0.87892
 C324 C 0.69378 0.13907 0.87722
 C325 C 0.69445 0.16261 0.85129
 C326 C 0.71860 0.16312 0.82604
 C327 C 0.74215 0.13988 0.82724
 C328 C 0.74199 0.11683 0.85376
 C329 C 0.71905 0.18729 0.79799
 C330 C 0.71279 0.21942 0.80434
 H331 H 0.69218 0.08342 0.91497
 H332 H 0.67466 0.13880 0.89616
 H333 H 0.67570 0.17996 0.85054
 H334 H 0.76084 0.13978 0.80783
 H335 H 0.76032 0.09904 0.85410
 H336 H 0.72700 0.18038 0.77251
 H337 H 0.76619 0.08996 0.91631
 H338 H 0.70935 0.22734 0.83066
 C339 C 0.26903 0.55183 0.43515
 C340 C 0.24317 0.56813 0.42169
 C341 C 0.24727 0.59713 0.39941
 C342 C 0.22287 0.61950 0.39820
 C343 C 0.22619 0.64735 0.37780
 C344 C 0.25391 0.65311 0.35769
 C345 C 0.27816 0.63058 0.35875
 C346 C 0.27486 0.60283 0.37916
 C347 C 0.25872 0.68215 0.33559
 C348 C 0.23415 0.70191 0.32505
 H349 H 0.21916 0.56053 0.42938
 H350 H 0.20138 0.61567 0.41354
 H351 H 0.20721 0.66437 0.37839
 H352 H 0.29969 0.63432 0.34344
 H353 H 0.29380 0.58574 0.37851
 H354 H 0.28246 0.68698 0.32515
 H355 H 0.29318 0.56070 0.43000
 H356 H 0.20962 0.69529 0.33138
 C357 C 0.28172 0.91287 0.92534
 C358 C 0.25505 0.89763 0.91021
 C359 C 0.25838 0.87225 0.88385
 C360 C 0.23621 0.84619 0.88303
 C361 C 0.23952 0.82142 0.85905
 C362 C 0.26483 0.82259 0.83502
 C363 C 0.28625 0.84927 0.83501
 C364 C 0.28326 0.87373 0.85934
 C365 C 0.26888 0.79702 0.80903
 C366 C 0.26028 0.76475 0.81544
 H367 H 0.23134 0.90243 0.91983
 H368 H 0.21658 0.84476 0.90133
 H369 H 0.22198 0.80170 0.85904
 H370 H 0.30560 0.85098 0.81638
 H371 H 0.30020 0.89398 0.85866
 H372 H 0.27956 0.80397 0.78451
 H373 H 0.30535 0.90551 0.91784
 H374 H 0.25056 0.75822 0.84053
 C375 C 0.79990 0.44747 0.43581
 C376 C 0.77263 0.43137 0.42315
 C377 C 0.77329 0.40481 0.39796
 C378 C 0.74627 0.38412 0.39524
 C379 C 0.74532 0.35931 0.37109
 C380 C 0.77133 0.35501 0.34867
 C381 C 0.79855 0.37543 0.35172
 C382 C 0.79953 0.40022 0.37596
 C383 C 0.77106 0.32973 0.32191
 C384 C 0.74307 0.31529 0.30875
 H385 H 0.74948 0.43777 0.43314
 H386 H 0.72581 0.38708 0.41200
 H387 H 0.72430 0.34353 0.37047
 H388 H 0.81892 0.37259 0.33480
 H389 H 0.82052 0.41607 0.37671
 H390 H 0.79387 0.32313 0.31123
 H391 H 0.82351 0.44029 0.42823
 H392 H 0.72027 0.32165 0.31923
 C393 C 0.04144 0.25815 0.90848
 C394 C 0.05839 0.23189 0.89662
 C395 C 0.08386 0.23433 0.86997
 C396 C 0.10691 0.21056 0.86919
 C397 C 0.13132 0.21171 0.84450
 C398 C 0.13311 0.23665 0.81979
 C399 C 0.10956 0.25995 0.81991
 C400 C 0.08524 0.25897 0.84487
 C401 C 0.15846 0.23817 0.79296
 C402 C 0.18880 0.22598 0.79846
 H403 H 0.05424 0.20860 0.90889
 H404 H 0.10609 0.19103 0.88787
 H405 H 0.14831 0.19262 0.84444
 H406 H 0.11009 0.27908 0.80075
 H407 H 0.06733 0.27714 0.84395
 H408 H 0.15295 0.24942 0.76852
 H409 H 0.04668 0.28194 0.89795
 H410 H 0.19409 0.21611 0.82363
 C411 C 0.56509 0.78859 0.43295
 C412 C 0.58202 0.76347 0.41881
 C413 C 0.60569 0.76810 0.39055
 C414 C 0.62903 0.74499 0.38613
 C415 C 0.65218 0.74870 0.36024
 C416 C 0.65230 0.77561 0.33795
 C417 C 0.62857 0.79837 0.34187
 C418 C 0.60541 0.79466 0.36781
 C419 C 0.67685 0.78049 0.31070
 C420 C 0.70093 0.75873 0.30620
 H421 H 0.57909 0.73965 0.43017
 H422 H 0.62961 0.72418 0.40308
 H423 H 0.67001 0.73054 0.35787
 H424 H 0.62795 0.81911 0.32482
 H425 H 0.58721 0.81246 0.36955
 H426 H 0.67606 0.80159 0.29418
 H427 H 0.56891 0.81295 0.42346
 H428 H 0.71496 0.76219 0.29065
 C429 C 0.94531 0.73502 0.93518
 C430 C 0.92670 0.76043 0.92426
 C431 C 0.90293 0.75726 0.89610
 C432 C 0.87690 0.77774 0.89548
 C433 C 0.85439 0.77576 0.86884
 C434 C 0.85774 0.75340 0.84203
 C435 C 0.88414 0.73344 0.84226
 C436 C 0.90643 0.73518 0.86907
 C437 C 0.83518 0.75129 0.81267
 C438 C 0.80306 0.75933 0.81515
 H439 H 0.92883 0.78323 0.93763
 H440 H 0.87399 0.79533 0.91569
 H441 H 0.83495 0.79231 0.86889
 H442 H 0.88753 0.71641 0.82160
 H443 H 0.92675 0.71976 0.86804
 H444 H 0.84438 0.74268 0.78840
 H445 H 0.94150 0.71133 0.92417
 H446 H 0.79403 0.76744 0.83968
 C447 C 0.41854 0.24503 0.40891
 C448 C 0.39733 0.26673 0.39493
 C449 C 0.37393 0.25765 0.36781
 C450 C 0.34538 0.27426 0.36570
 C451 C 0.32266 0.26629 0.34054
 C452 C 0.32821 0.24166 0.31667
 C453 C 0.35715 0.22561 0.31821
 C454 C 0.37976 0.23335 0.34364
 C455 C 0.30527 0.23376 0.28868
 C456 C 0.27270 0.23937 0.29146
 H457 H 0.39627 0.29059 0.40595
 H458 H 0.34056 0.29340 0.38367
 H459 H 0.30120 0.28006 0.33945
 H460 H 0.36227 0.20704 0.29967
 H461 H 0.40198 0.22075 0.34381
 H462 H 0.31455 0.22440 0.26474
 H463 H 0.41804 0.22030 0.40027
 H464 H 0.26313 0.24740 0.31580
 C465 C 0.76047 0.94799 0.93100
 C466 C 0.73821 0.93144 0.91049
 C467 C 0.74649 0.90484 0.88713
 C468 C 0.72163 0.88514 0.87399
 C469 C 0.72814 0.85960 0.85210
 C470 C 0.75987 0.85306 0.84297
 C471 C 0.78470 0.87317 0.85552
 C472 C 0.77817 0.89884 0.87729
 C473 C 0.76796 0.82651 0.81951
 C474 C 0.74673 0.80123 0.81127
 H475 H 0.71327 0.93744 0.91260
 H476 H 0.69700 0.88951 0.88069
 H477 H 0.70806 0.84562 0.84212
 H478 H 0.80928 0.86903 0.84842
 H479 H 0.79809 0.91395 0.88574
 H480 H 0.79160 0.82693 0.80795
 H481 H 0.78537 0.94192 0.93060
 H482 H 0.72282 0.80001 0.82186
 C483 C 0.27077 0.41731 0.42010
 C484 C 0.24463 0.40360 0.40246
 C485 C 0.24705 0.37966 0.37436
 C486 C 0.21964 0.36110 0.36576
 C487 C 0.22052 0.33810 0.33963
 C488 C 0.24889 0.33342 0.32095
 C489 C 0.27630 0.35215 0.32942
 C490 C 0.27544 0.37509 0.35573
 C491 C 0.25132 0.30851 0.29375
 C492 C 0.22523 0.29056 0.28072
 H493 H 0.22082 0.40962 0.41078
 H494 H 0.19745 0.36408 0.37970
 H495 H 0.19897 0.32385 0.33482
 H496 H 0.29853 0.34898 0.31563
 H497 H 0.29695 0.38931 0.36098
 H498 H 0.27490 0.30375 0.28376
 H499 H 0.29486 0.41077 0.41372
 H500 H 0.20119 0.29770 0.28637
 C501 C 0.28666 0.04545 0.93062
 C502 C 0.26021 0.06003 0.91585
 C503 C 0.26217 0.08695 0.89060
 C504 C 0.23472 0.10476 0.88495
 C505 C 0.23493 0.12990 0.86086
 C506 C 0.26262 0.13753 0.84144
 C507 C 0.29021 0.11997 0.84733
 C508 C 0.29002 0.09480 0.87151
 C509 C 0.26380 0.16380 0.81538
 C510 C 0.23662 0.17584 0.79958
 H511 H 0.23644 0.05204 0.92405
 H512 H 0.21300 0.09933 0.89943
 H513 H 0.21346 0.14345 0.85806
 H514 H 0.31189 0.12544 0.83278
 H515 H 0.31150 0.08132 0.87453
 H516 H 0.28712 0.17363 0.80795
 H517 H 0.31065 0.05396 0.92418
 H518 H 0.21321 0.16596 0.80636
 C519 C 0.80094 0.58193 0.42992
 C520 C 0.77414 0.59409 0.41361
 C521 C 0.77585 0.61931 0.38645
 C522 C 0.74884 0.63763 0.38053
 C523 C 0.74934 0.66188 0.35540
 C524 C 0.77687 0.66797 0.33508
 C525 C 0.80385 0.64948 0.34086
 C526 C 0.80336 0.62528 0.36614
 C527 C 0.77883 0.69409 0.30881
 C528 C 0.75207 0.70878 0.29512
 H529 H 0.75061 0.58591 0.42238
 H530 H 0.72737 0.63355 0.39587
 H531 H 0.72832 0.67609 0.35275
 H532 H 0.82536 0.65368 0.32565
 H533 H 0.82441 0.61113 0.36928
 H534 H 0.80241 0.70250 0.30051
 H535 H 0.82469 0.59095 0.42318
 H536 H 0.72837 0.70052 0.30285
 C537 C 0.07619 0.75324 0.93508
 C538 C 0.09178 0.72686 0.92140
 C539 C 0.11717 0.72902 0.89455
 C540 C 0.12972 0.70026 0.88237
 C541 C 0.15413 0.70076 0.85769
 C542 C 0.16671 0.73020 0.84470
 C543 C 0.15380 0.75894 0.85627
 C544 C 0.12944 0.75848 0.88105
 C545 C 0.19309 0.73200 0.81916
 C546 C 0.21507 0.70777 0.81485
 H547 H 0.08511 0.70300 0.93099
 H548 H 0.12060 0.67721 0.89202
 H549 H 0.16266 0.67801 0.84868
 H550 H 0.16294 0.78194 0.84648
 H551 H 0.12077 0.78132 0.88945
 H552 H 0.19646 0.75413 0.80446
 H553 H 0.08184 0.77734 0.92586
 H554 H 0.21192 0.68503 0.82833
 C555 C 0.54766 0.28090 0.41906
 C556 C 0.56917 0.25715 0.41086
 C557 C 0.59547 0.26266 0.38559
 C558 C 0.62326 0.24489 0.38858
 C559 C 0.64864 0.24982 0.36533
 C560 C 0.64642 0.27231 0.33815
 C561 C 0.61848 0.28985 0.33506
 C562 C 0.59320 0.28502 0.35835
 C563 C 0.67257 0.27858 0.31282
 C564 C 0.69827 0.25851 0.30813
 H565 H 0.56768 0.23436 0.42462
 H566 H 0.62556 0.22752 0.40932
 H567 H 0.66996 0.23626 0.36920
 H568 H 0.61606 0.30723 0.31433
 H569 H 0.57179 0.29848 0.35453
 H570 H 0.67089 0.29933 0.29590
 H571 H 0.55051 0.30464 0.40758
 H572 H 0.69882 0.23553 0.32131
 C573 C 0.90824 0.23796 0.91694
 C574 C 0.88881 0.26314 0.90720
 C575 C 0.86066 0.25941 0.88419
 C576 C 0.84713 0.28725 0.87065
 C577 C 0.82069 0.28507 0.84872
 C578 C 0.80700 0.25484 0.84008
 C579 C 0.82032 0.22700 0.85381
 C580 C 0.84670 0.22918 0.87582
 C581 C 0.78001 0.25117 0.81565
 C582 C 0.75893 0.27553 0.80782
 H583 H 0.89478 0.28711 0.91657
 H584 H 0.85735 0.31084 0.87667
 H585 H 0.81172 0.30709 0.83802
 H586 H 0.81018 0.20342 0.84756
 H587 H 0.85568 0.20709 0.88628
 H588 H 0.77698 0.22822 0.80278
 H589 H 0.90377 0.21387 0.90740
 H590 H 0.76198 0.29902 0.81944
 C591 C 0.43575 0.75827 0.44445
 C592 C 0.41179 0.77973 0.43707
 C593 C 0.38798 0.77294 0.40974
 C594 C 0.35634 0.78240 0.41398
 C595 C 0.33370 0.77642 0.38804
 C596 C 0.34264 0.76152 0.35713
 C597 C 0.37439 0.75259 0.35272
 C598 C 0.39681 0.75795 0.37886
 C599 C 0.32018 0.75726 0.32807
 C600 C 0.28731 0.75202 0.33229
 H601 H 0.40963 0.80119 0.45255
 H602 H 0.34915 0.79431 0.43743
 H603 H 0.30955 0.78434 0.39176
 H604 H 0.38191 0.74154 0.32889
 H605 H 0.42124 0.75113 0.37451
 H606 H 0.33007 0.75735 0.30216
 H607 H 0.43561 0.73516 0.43164
 H608 H 0.27742 0.74761 0.35782
 C609 C 0.26345 0.90583 0.06471
 C610 C 0.28757 0.89336 0.08502
 C611 C 0.28074 0.86707 0.11009
 C612 C 0.29707 0.86681 0.14164
 C613 C 0.28964 0.84319 0.16653
 C614 C 0.26605 0.81913 0.15996
 C615 C 0.25086 0.81848 0.12775
 C616 C 0.25794 0.84235 0.10309
 C617 C 0.25713 0.79426 0.18595
 C618 C 0.25690 0.80070 0.22125
 H619 H 0.31122 0.90475 0.08451
 H620 H 0.31508 0.88533 0.14734
 H621 H 0.30257 0.84366 0.19070
 H622 H 0.23301 0.79983 0.12194
 H623 H 0.24566 0.84137 0.07853
 H624 H 0.24936 0.77068 0.17690
 H625 H 0.23914 0.89646 0.06771
 H626 H 0.26508 0.82417 0.23024
 C627 C 0.78670 0.45082 0.57730
 C628 C 0.75756 0.43590 0.58671
 C629 C 0.75439 0.41020 0.61329
 C630 C 0.72700 0.38979 0.61319
 C631 C 0.72307 0.36517 0.63775
 C632 C 0.74642 0.36073 0.66329
 C633 C 0.77373 0.38124 0.66344
 C634 C 0.77764 0.40584 0.63890
 C635 C 0.74372 0.33490 0.68979
 C636 C 0.71519 0.31837 0.69861
 H637 H 0.73618 0.44232 0.57287
 H638 H 0.70873 0.39265 0.59373
 H639 H 0.70202 0.34951 0.63605
 H640 H 0.79203 0.37843 0.68287
 H641 H 0.79867 0.42157 0.64057
 H642 H 0.76539 0.32901 0.70335
 H643 H 0.80874 0.44356 0.58910
 H644 H 0.69362 0.32359 0.68485
 C645 C 0.71582 0.08305 0.06213
 C646 C 0.74002 0.10176 0.07758
 C647 C 0.73452 0.12629 0.10416
 C648 C 0.75871 0.14973 0.11002
 C649 C 0.75547 0.17244 0.13602
 C650 C 0.72796 0.17197 0.15702
 C651 C 0.70367 0.14861 0.15111
 C652 C 0.70685 0.12592 0.12490
 C653 C 0.72462 0.19494 0.18564
 C654 C 0.74765 0.21905 0.19125
 H655 H 0.76449 0.09876 0.06925
 H656 H 0.78033 0.15037 0.09453
 H657 H 0.77477 0.19003 0.13988
 H658 H 0.68236 0.14766 0.16709
 H659 H 0.68806 0.10771 0.12170
 H660 H 0.70399 0.19263 0.20255
 H661 H 0.69094 0.08689 0.06795
 H662 H 0.74632 0.23163 0.20828
 C663 C 0.24624 0.53578 0.57570
 C664 C 0.27127 0.54958 0.59488
 C665 C 0.26631 0.57254 0.62343
 C666 C 0.29149 0.59390 0.63251
 C667 C 0.28763 0.61645 0.65872
 C668 C 0.25851 0.61776 0.67693
 C669 C 0.23345 0.59613 0.66810
 C670 C 0.23730 0.57361 0.64181
 C671 C 0.25291 0.64221 0.70390
 C672 C 0.27759 0.65909 0.72078
 H673 H 0.29563 0.54475 0.58745
 H674 H 0.31406 0.59362 0.61876
 H675 H 0.30730 0.63324 0.66378
 H676 H 0.21078 0.59660 0.68165
 H677 H 0.21759 0.55697 0.63632
 H678 H 0.22840 0.64769 0.70999
 H679 H 0.22181 0.54179 0.58124
 H680 H 0.30214 0.65330 0.71571
 C681 C 0.94725 0.73550 0.08029
 C682 C 0.93198 0.76206 0.09368
 C683 C 0.90786 0.75973 0.12164
 C684 C 0.88603 0.78444 0.12487
 C685 C 0.86280 0.78321 0.15082
 C686 C 0.86104 0.75719 0.17423
 C687 C 0.88355 0.73302 0.17177
 C688 C 0.90669 0.73415 0.14564
 C689 C 0.83658 0.75509 0.20183
 C690 C 0.80657 0.76838 0.19809
 H691 H 0.93689 0.78554 0.08215
 H692 H 0.88684 0.80471 0.10712
 H693 H 0.84666 0.80295 0.15278
 H694 H 0.88302 0.71307 0.18992
 H695 H 0.92384 0.71525 0.14475
 H696 H 0.84225 0.74218 0.22528
 H697 H 0.94134 0.71150 0.08980
 H698 H 0.80093 0.78028 0.17405
 C699 C 0.40363 0.25966 0.54931
 C700 C 0.39611 0.23197 0.56853
 C701 C 0.36812 0.23007 0.59198
 C702 C 0.36954 0.21170 0.62240
 C703 C 0.34387 0.21069 0.64566
 C704 C 0.31610 0.22777 0.63860
 C705 C 0.31414 0.24489 0.60741
 C706 C 0.33993 0.24623 0.58439
 C707 C 0.28875 0.22804 0.66288
 C708 C 0.29227 0.22521 0.69859
 H709 H 0.41224 0.21209 0.56814
 H710 H 0.39079 0.19859 0.62847
 H711 H 0.34577 0.19627 0.66887
 H712 H 0.29278 0.25772 0.60107
 H713 H 0.33763 0.25971 0.56057
 H714 H 0.26530 0.23241 0.65239
 H715 H 0.38917 0.28063 0.55211
 H716 H 0.31544 0.22018 0.70932
 C717 C 0.04754 0.26251 0.05133
 C718 C 0.06443 0.23680 0.06451
 C719 C 0.08794 0.24021 0.09280
 C720 C 0.11152 0.21719 0.09618
 C721 C 0.13358 0.21904 0.12317
 C722 C 0.13228 0.24396 0.14752
 C723 C 0.10829 0.26659 0.14457
 C724 C 0.08638 0.26488 0.11741
 C725 C 0.15461 0.24617 0.17701
 C726 C 0.18542 0.23431 0.17579
 H727 H 0.06076 0.21320 0.05316
 H728 H 0.11283 0.19762 0.07791
 H729 H 0.15100 0.20047 0.12533
 H730 H 0.10649 0.28567 0.16337
 H731 H 0.06786 0.28241 0.11636
 H732 H 0.14642 0.25778 0.20021
 H733 H 0.05252 0.28672 0.06042
 H734 H 0.19367 0.22354 0.15216
 C735 C 0.57548 0.78888 0.57713
 C736 C 0.59533 0.76384 0.58628
 C737 C 0.61898 0.76573 0.61457
 C738 C 0.64413 0.74420 0.61469
 C739 C 0.66574 0.74368 0.64214
 C740 C 0.66236 0.76458 0.67024
 C741 C 0.63707 0.78594 0.67024
 C742 C 0.61565 0.78670 0.64262
 C743 C 0.68369 0.76365 0.70060
 C744 C 0.71541 0.75415 0.69886
 H745 H 0.59349 0.74152 0.57196
 H746 H 0.64685 0.72744 0.59365
 H747 H 0.68433 0.72619 0.64173
 H748 H 0.63375 0.80198 0.69183
 H749 H 0.59600 0.80293 0.64393
 H750 H 0.67390 0.77131 0.72497
 H751 H 0.57860 0.81236 0.58881
 H752 H 0.72497 0.74703 0.67419
   
