data_POSCAR
  _audit_creation_date              2014-09-24
  _audit_creation_method            'ToBaCCo'
  _symmetry_space_group_name_H-M    'P1'
  _symmetry_Int_Tables_number       1
  _symmetry_cell_setting            triclinic
  loop_
  _symmetry_equiv_pos_as_xyz
 x,y,z
_cell_length_a 54.4566
_cell_length_b 54.3403
_cell_length_c 49.4553
_cell_angle_alpha 89.996800
_cell_angle_beta 89.981200
_cell_angle_gamma 89.979900
loop_
  _atom_site_label
  _atom_site_type_symbol
  _atom_site_fract_x
  _atom_site_fract_y
  _atom_site_fract_z
C1 C -0.07465 0.29708 -0.01456
 C2 C -0.07470 0.29773 0.01313
 C3 C -0.05218 0.28851 0.02151
 N4 N -0.03820 0.28272 -0.00019
 C5 C -0.05197 0.28790 -0.02222
 C6 C -0.04516 0.28448 0.04876
 C7 C -0.02017 0.28077 0.05592
 C8 C -0.01212 0.26980 0.07969
 C9 C 0.01307 0.27051 0.07932
 C10 C 0.01983 0.28153 0.05517
 N11 N -0.00050 0.28771 0.04096
 C12 C 0.04433 0.28641 0.04746
 C13 C 0.05142 0.29102 0.02049
 C14 C 0.07478 0.29789 0.01245
 C15 C 0.07492 0.29731 -0.01526
 C16 C 0.05147 0.29043 -0.02336
 N17 N 0.03724 0.28647 -0.00135
 C18 C 0.04434 0.28472 -0.05025
 C19 C 0.01967 0.27903 -0.05731
 C20 C 0.01201 0.26985 -0.08218
 C21 C -0.01320 0.26922 -0.08171
 C22 C -0.02040 0.27837 -0.05682
 N23 N -0.00034 0.28435 -0.04212
 C24 C -0.04497 0.28290 -0.04912
 H25 H -0.08956 0.30280 -0.02760
 H26 H -0.08965 0.30426 0.02564
 H27 H -0.00054 0.29435 -0.02421
 H28 H -0.02321 0.26185 0.09560
 H29 H 0.02506 0.26344 0.09495
 H30 H 0.09037 0.30209 0.02522
 H31 H 0.09084 0.30071 -0.02777
 H32 H -0.02489 0.26330 -0.09817
 H33 H -0.00094 0.29819 0.02333
 H34 H 0.02319 0.26480 -0.09937
 C35 C 0.42448 0.79763 0.48621
 C36 C 0.42450 0.79768 0.51394
 C37 C 0.44793 0.79087 0.52193
 N38 N 0.46220 0.78665 0.50005
 C39 C 0.44790 0.79079 0.47819
 C40 C 0.45522 0.78674 0.54895
 C41 C 0.47992 0.78286 0.55665
 C42 C 0.48732 0.77357 0.58147
 C43 C 0.51256 0.77360 0.58145
 C44 C 0.51991 0.78292 0.55662
 N45 N 0.49990 0.78865 0.54168
 C46 C 0.54459 0.78686 0.54888
 C47 C 0.55183 0.79102 0.52184
 C48 C 0.57522 0.79792 0.51380
 C49 C 0.57521 0.79788 0.48607
 C50 C 0.55180 0.79097 0.47811
 N51 N 0.53755 0.78677 0.50000
 C52 C 0.54453 0.78674 0.45110
 C53 C 0.51984 0.78276 0.44341
 C54 C 0.51248 0.77338 0.41863
 C55 C 0.48724 0.77334 0.41865
 C56 C 0.47986 0.78270 0.44344
 N57 N 0.49984 0.78853 0.45837
 C58 C 0.45516 0.78660 0.45117
 H59 H 0.40892 0.80187 0.47341
 H60 H 0.40896 0.80196 0.52675
 H61 H 0.49983 0.79822 0.47649
 H62 H 0.47574 0.76737 0.59790
 H63 H 0.52417 0.76744 0.59787
 H64 H 0.59076 0.80224 0.52659
 H65 H 0.59073 0.80217 0.47324
 H66 H 0.47565 0.76710 0.40225
 H67 H 0.49987 0.79829 0.52352
 H68 H 0.52408 0.76718 0.40221
 C69 C 1.07300 0.69924 -0.01384
 C70 C 1.07301 0.69921 0.01384
 C71 C 1.05148 0.71071 0.02191
 N72 N 1.03811 0.71745 0.00005
 C73 C 1.05146 0.71075 -0.02184
 C74 C 1.04491 0.71583 0.04906
 C75 C 1.02008 0.72034 0.05624
 C76 C 1.01226 0.73211 0.07964
 C77 C 0.98704 0.73134 0.07961
 C78 C 0.98011 0.71951 0.05600
 N79 N 1.00032 0.71297 0.04177
 C80 C 0.95565 0.71406 0.04873
 C81 C 0.94872 0.70875 0.02191
 C82 C 0.92576 0.70049 0.01395
 C83 C 0.92575 0.70054 -0.01380
 C84 C 0.94870 0.70883 -0.02176
 N85 N 0.96273 0.71376 0.00007
 C86 C 0.95561 0.71421 -0.04858
 C87 C 0.98008 0.71966 -0.05585
 C88 C 0.98701 0.73154 -0.07944
 C89 C 1.01223 0.73230 -0.07949
 C90 C 1.02005 0.72047 -0.05612
 N91 N 1.00029 0.71308 -0.04166
 C92 C 1.04487 0.71593 -0.04898
 H93 H 1.08716 0.69150 -0.02664
 H94 H 1.08718 0.69145 0.02660
 H95 H 1.00065 0.70200 -0.02447
 H96 H 1.02351 0.74049 0.09514
 H97 H 0.97515 0.73881 0.09511
 H98 H 0.91046 0.69546 0.02679
 H99 H 0.91044 0.69555 -0.02663
 H100 H 1.02349 0.74069 -0.09498
 H101 H 1.00069 0.70193 0.02455
 H102 H 0.97513 0.73905 -0.09492
 C103 C 0.57480 0.20212 0.48535
 C104 C 0.57479 0.20209 0.51308
 C105 C 0.55139 0.20900 0.52108
 N106 N 0.53713 0.21327 0.49922
 C107 C 0.55141 0.20906 0.47735
 C108 C 0.54411 0.21317 0.54810
 C109 C 0.51943 0.21714 0.55581
 C110 C 0.51206 0.22647 0.58063
 C111 C 0.48682 0.22652 0.58063
 C112 C 0.47944 0.21722 0.55581
 N113 N 0.49943 0.21142 0.54086
 C114 C 0.45475 0.21334 0.54810
 C115 C 0.44749 0.20923 0.52107
 C116 C 0.42407 0.20243 0.51304
 C117 C 0.42409 0.20248 0.48531
 C118 C 0.44752 0.20931 0.47733
 N119 N 0.46179 0.21345 0.49921
 C120 C 0.45481 0.21351 0.45032
 C121 C 0.47951 0.21739 0.44261
 C122 C 0.48691 0.22674 0.41782
 C123 C 0.51216 0.22668 0.41782
 C124 C 0.51950 0.21729 0.44262
 N125 N 0.49948 0.21155 0.45755
 C126 C 0.54417 0.21331 0.45034
 H127 H 0.59034 0.19781 0.47254
 H128 H 0.59031 0.19775 0.52589
 H129 H 0.49945 0.20186 0.47568
 H130 H 0.52366 0.23262 0.59706
 H131 H 0.47523 0.23272 0.59706
 H132 H 0.40852 0.19815 0.52583
 H133 H 0.40855 0.19824 0.47249
 H134 H 0.52377 0.23287 0.40141
 H135 H 0.49942 0.20176 0.52271
 H136 H 0.47534 0.23299 0.40141
 C137 C 0.69635 -0.07249 -0.01368
 C138 C 0.69665 -0.07265 0.01402
 C139 C 0.70873 -0.05140 0.02201
 N140 N 0.71549 -0.03805 0.00013
 C141 C 0.70827 -0.05117 -0.02171
 C142 C 0.71442 -0.04502 0.04906
 C143 C 0.71957 -0.02026 0.05607
 C144 C 0.73192 -0.01256 0.07914
 C145 C 0.73152 0.01274 0.07904
 C146 C 0.71933 0.01978 0.05571
 N147 N 0.71227 -0.00038 0.04170
 C148 C 0.71358 0.04424 0.04863
 C149 C 0.70759 0.05097 0.02195
 C150 C 0.69715 0.07316 0.01441
 C151 C 0.69672 0.07334 -0.01332
 C152 C 0.70736 0.05142 -0.02174
 N153 N 0.71367 0.03761 -0.00011
 C154 C 0.71274 0.04494 -0.04884
 C155 C 0.71821 0.02021 -0.05581
 C156 C 0.73160 0.01293 -0.07831
 C157 C 0.73198 -0.01233 -0.07823
 C158 C 0.71879 -0.01987 -0.05571
 N159 N 0.71083 0.00008 -0.04184
 C160 C 0.71370 -0.04466 -0.04877
 H161 H 0.68824 -0.08646 -0.02646
 H162 H 0.68877 -0.08673 0.02683
 H163 H 0.69908 -0.00011 -0.02518
 H164 H 0.74036 -0.02394 0.09450
 H165 H 0.73936 0.02459 0.09436
 H166 H 0.69067 0.08772 0.02753
 H167 H 0.68962 0.08805 -0.02582
 H168 H 0.74119 -0.02382 -0.09296
 H169 H 0.70089 -0.00055 0.02475
 H170 H 0.74049 0.02461 -0.09309
 C171 C 0.20155 0.42438 0.48647
 C172 C 0.20160 0.42437 0.51420
 C173 C 0.20845 0.44783 0.52220
 N174 N 0.21259 0.46215 0.50033
 C175 C 0.20837 0.44785 0.47846
 C176 C 0.21264 0.45510 0.54922
 C177 C 0.21656 0.47985 0.55693
 C178 C 0.22588 0.48723 0.58174
 C179 C 0.22588 0.51253 0.58174
 C180 C 0.21656 0.51993 0.55694
 N181 N 0.21080 0.49989 0.54199
 C182 C 0.21265 0.54468 0.54923
 C183 C 0.20846 0.55198 0.52222
 C184 C 0.20163 0.57546 0.51424
 C185 C 0.20161 0.57548 0.48651
 C186 C 0.20843 0.55201 0.47849
 N187 N 0.21262 0.53768 0.50034
 C188 C 0.21255 0.54473 0.45146
 C189 C 0.21643 0.51998 0.44373
 C190 C 0.22567 0.51258 0.41889
 C191 C 0.22565 0.48729 0.41888
 C192 C 0.21639 0.47990 0.44372
 N193 N 0.21068 0.49994 0.45869
 C194 C 0.21246 0.45516 0.45143
 H195 H 0.19725 0.40882 0.47367
 H196 H 0.19736 0.40879 0.52701
 H197 H 0.20108 0.49994 0.47686
 H198 H 0.23206 0.47561 0.59815
 H199 H 0.23207 0.52414 0.59816
 H200 H 0.19738 0.59103 0.52706
 H201 H 0.19734 0.59106 0.47372
 H202 H 0.23178 0.47567 0.40243
 H203 H 0.20115 0.49990 0.52385
 H204 H 0.23182 0.52420 0.40245
 C205 C 0.26979 0.92724 0.01462
 C206 C 0.26937 0.92703 -0.01310
 C207 C 0.28075 0.94855 -0.02159
 N208 N 0.28759 0.96213 0.00003
 C209 C 0.28099 0.94906 0.02212
 C210 C 0.28563 0.95519 -0.04877
 C211 C 0.29160 0.97983 -0.05556
 C212 C 0.30436 0.98702 -0.07853
 C213 C 0.30480 1.01230 -0.07851
 C214 C 0.29228 1.01989 -0.05554
 N215 N 0.28475 0.99998 -0.04133
 C216 C 0.28678 1.04465 -0.04889
 C217 C 0.28185 1.05144 -0.02178
 C218 C 0.26936 1.07245 -0.01376
 C219 C 0.26961 1.07263 0.01392
 C220 C 0.28224 1.05171 0.02198
 N221 N 0.28943 1.03856 0.00011
 C222 C 0.28738 1.04513 0.04913
 C223 C 0.29298 1.02042 0.05598
 C224 C 0.30453 1.01277 0.07957
 C225 C 0.30410 0.98746 0.07952
 C226 C 0.29270 0.98039 0.05573
 N227 N 0.28625 1.00053 0.04133
 C228 C 0.28645 0.95601 0.04889
 H229 H 0.26254 0.91306 0.02775
 H230 H 0.26146 0.91269 -0.02553
 H231 H 0.27519 1.00069 0.02414
 H232 H 0.31252 0.97527 -0.09375
 H233 H 0.31330 1.02379 -0.09373
 H234 H 0.26060 1.08604 -0.02652
 H235 H 0.26104 1.08636 0.02665
 H236 H 0.31112 0.97561 0.09533
 H237 H 0.27323 1.00023 -0.02448
 H238 H 0.31216 1.02421 0.09538
 C239 C 0.77564 0.42477 0.51427
 C240 C 0.77568 0.42477 0.48653
 C241 C 0.78357 0.44790 0.47853
 N242 N 0.78846 0.46197 0.50041
 C243 C 0.78351 0.44790 0.52228
 C244 C 0.78726 0.45531 0.45146
 C245 C 0.79181 0.47998 0.44391
 C246 C 0.80039 0.48736 0.41878
 C247 C 0.80038 0.51267 0.41877
 C248 C 0.79181 0.52005 0.44390
 N249 N 0.78663 0.50002 0.45910
 C250 C 0.78727 0.54473 0.45144
 C251 C 0.78361 0.55215 0.47852
 C252 C 0.77577 0.57530 0.48652
 C253 C 0.77575 0.57530 0.51426
 C254 C 0.78359 0.55215 0.52227
 N255 N 0.78850 0.53807 0.50040
 C256 C 0.78721 0.54473 0.54936
 C257 C 0.79171 0.52005 0.55692
 C258 C 0.80022 0.51266 0.58206
 C259 C 0.80019 0.48735 0.58207
 C260 C 0.79167 0.47998 0.55692
 N261 N 0.78655 0.50002 0.54171
 C262 C 0.78714 0.45531 0.54937
 H263 H 0.77038 0.40949 0.52704
 H264 H 0.77044 0.40949 0.47374
 H265 H 0.77718 0.50003 0.52342
 H266 H 0.80579 0.47571 0.40205
 H267 H 0.80579 0.52430 0.40204
 H268 H 0.77055 0.59059 0.47374
 H269 H 0.77052 0.59060 0.52704
 H270 H 0.80554 0.47570 0.59882
 H271 H 0.77722 0.50003 0.47737
 H272 H 0.80560 0.52430 0.59881
 O273 O 0.24525 0.21204 0.23926
 O274 O 0.22969 0.26430 0.28345
 O275 O 0.21132 0.24566 0.23922
 O276 O 0.26359 0.23067 0.28345
 O277 O 0.28747 0.25484 0.25911
 O278 O 0.23519 0.26984 0.21489
 O279 O 0.25357 0.28847 0.25912
 O280 O 0.26912 0.23621 0.21492
 Cu281 Cu 0.23506 0.23575 0.26378
 Cu282 Cu 0.26372 0.26476 0.23457
 C283 C 0.25974 0.21520 0.21942
 C284 C 0.23911 0.28529 0.27899
 C285 C 0.21434 0.26018 0.21936
 C286 C 0.28445 0.24031 0.27897
 O287 O 0.75456 0.78857 0.24038
 O288 O 0.77000 0.73632 0.28464
 O289 O 0.78847 0.75495 0.24046
 O290 O 0.73604 0.76992 0.28452
 O291 O 0.71225 0.74574 0.26011
 O292 O 0.76468 0.73077 0.21606
 O293 O 0.74621 0.71215 0.26023
 O294 O 0.73077 0.76439 0.21598
 Cu295 Cu 0.76465 0.76486 0.26495
 Cu296 Cu 0.73609 0.73584 0.23565
 C297 C 0.74015 0.78539 0.22048
 C298 C 0.76063 0.71531 0.28012
 C299 C 0.78552 0.74043 0.22059
 C300 C 0.71519 0.76027 0.27997
 O301 O 0.78886 0.24492 0.24067
 O302 O 0.73626 0.23006 0.28455
 O303 O 0.75490 0.21135 0.24049
 O304 O 0.77024 0.26363 0.28475
 O305 O 0.74654 0.28782 0.26022
 O306 O 0.73121 0.23555 0.21597
 O307 O 0.71257 0.25426 0.26001
 O308 O 0.76516 0.26912 0.21616
 Cu309 Cu 0.76494 0.23507 0.26507
 Cu310 Cu 0.73650 0.26411 0.23563
 C311 C 0.78598 0.25943 0.22077
 C312 C 0.71544 0.23974 0.27990
 C313 C 0.74056 0.21453 0.22053
 C314 C 0.76089 0.28465 0.28017
 O315 O 0.21146 0.75495 0.24023
 O316 O 0.26381 0.76985 0.28440
 O317 O 0.24534 0.78860 0.24030
 O318 O 0.22996 0.73618 0.28433
 O319 O 0.25384 0.71211 0.25985
 O320 O 0.26921 0.76454 0.21581
 O321 O 0.28769 0.74579 0.25992
 O322 O 0.23534 0.73088 0.21575
 Cu323 Cu 0.23525 0.76480 0.26476
 Cu324 Cu 0.26391 0.73592 0.23538
 C325 C 0.21447 0.74050 0.22030
 C326 C 0.28468 0.76025 0.27984
 C327 C 0.25979 0.78552 0.22040
 C328 C 0.23941 0.71520 0.27975
 O329 O 0.76915 0.26311 0.71523
 O330 O 0.75357 0.21074 0.75926
 O331 O 0.73519 0.22953 0.71513
 O332 O 0.78752 0.24429 0.75935
 O333 O 0.76369 0.26842 0.78381
 O334 O 0.71136 0.25368 0.73956
 O335 O 0.72973 0.23488 0.78369
 O336 O 0.74533 0.28724 0.73970
 Cu337 Cu 0.76374 0.23450 0.73479
 Cu338 Cu 0.73514 0.26348 0.76413
 C339 C 0.75979 0.28412 0.71982
 C340 C 0.73912 0.21388 0.77914
 C341 C 0.71435 0.23920 0.71966
 C342 C 0.78453 0.25875 0.77928
 O343 O 0.28779 0.74609 0.74036
 O344 O 0.23539 0.73116 0.78447
 O345 O 0.25396 0.71240 0.74041
 O346 O 0.26923 0.76484 0.78443
 O347 O 0.24538 0.78889 0.75992
 O348 O 0.23011 0.73644 0.71588
 O349 O 0.21154 0.75521 0.75994
 O350 O 0.26394 0.77014 0.71585
 Cu351 Cu 0.26398 0.73621 0.76487
 Cu352 Cu 0.23535 0.76508 0.73544
 C353 C 0.28481 0.76054 0.72044
 C354 C 0.21452 0.74076 0.77988
 C355 C 0.23955 0.71547 0.72049
 C356 C 0.25979 0.78582 0.77983
 O357 O 0.25419 0.28766 0.74069
 O358 O 0.26976 0.23518 0.78457
 O359 O 0.28807 0.25399 0.74041
 O360 O 0.23587 0.26886 0.78489
 O361 O 0.21195 0.24483 0.76046
 O362 O 0.26413 0.22994 0.71603
 O363 O 0.24581 0.21114 0.76018
 O364 O 0.23027 0.26361 0.71628
 Cu365 Cu 0.26437 0.26383 0.76508
 Cu366 Cu 0.23563 0.23498 0.73580
 C367 C 0.23971 0.28458 0.72083
 C368 C 0.26033 0.21420 0.78000
 C369 C 0.28500 0.23955 0.72048
 C370 C 0.21500 0.25925 0.78040
 O371 O 0.73064 0.76501 0.78414
 O372 O 0.74616 0.71262 0.74014
 O373 O 0.76457 0.73139 0.78425
 O374 O 0.71222 0.74623 0.74004
 O375 O 0.73606 0.77033 0.71557
 O376 O 0.78841 0.75549 0.75979
 O377 O 0.77000 0.73670 0.71566
 O378 O 0.75449 0.78912 0.75969
 Cu379 Cu 0.73601 0.73640 0.76459
 Cu380 Cu 0.76463 0.76532 0.73523
 C381 C 0.74004 0.78601 0.77958
 C382 C 0.76060 0.71571 0.72025
 C383 C 0.78542 0.74103 0.77972
 C384 C 0.71520 0.76069 0.72012
 C385 C 0.28331 0.10030 0.10972
 C386 C 0.29492 0.10527 0.08511
 C387 C 0.29657 0.08703 0.06528
 C388 C 0.28656 0.06340 0.06967
 C389 C 0.27523 0.05859 0.09481
 C390 C 0.27360 0.07690 0.11459
 C391 C 0.28062 0.11947 0.12957
 C392 C 0.27799 0.13571 0.14592
 C393 C 0.27438 0.15530 0.16508
 C394 C 0.28536 0.17825 0.16079
 C395 C 0.28093 0.19765 0.17870
 C396 C 0.26538 0.19435 0.20115
 C397 C 0.25471 0.17110 0.20550
 C398 C 0.25918 0.15172 0.18756
 H399 H 0.30258 0.12332 0.08116
 H400 H 0.30599 0.09134 0.04657
 H401 H 0.26675 0.04094 0.09883
 H402 H 0.26439 0.07291 0.13351
 H403 H 0.29711 0.18123 0.14341
 H404 H 0.28942 0.21531 0.17477
 H405 H 0.24265 0.16794 0.22257
 H406 H 0.25054 0.13405 0.19103
 C407 C 0.78303 0.60043 0.61074
 C408 C 0.80170 0.60134 0.59128
 C409 C 0.80331 0.58304 0.57148
 C410 C 0.78618 0.56372 0.57093
 C411 C 0.76769 0.56274 0.59069
 C412 C 0.76612 0.58102 0.61049
 C413 C 0.78069 0.61977 0.63045
 C414 C 0.77828 0.63609 0.64675
 C415 C 0.77487 0.65572 0.66592
 C416 C 0.78588 0.67863 0.66153
 C417 C 0.78159 0.69807 0.67945
 C418 C 0.76616 0.69483 0.70201
 C419 C 0.75547 0.67160 0.70646
 C420 C 0.75979 0.65220 0.68851
 H421 H 0.81484 0.61630 0.59127
 H422 H 0.81772 0.58402 0.55642
 H423 H 0.75432 0.54798 0.59052
 H424 H 0.75157 0.58017 0.62540
 H425 H 0.79754 0.68157 0.64406
 H426 H 0.79009 0.71571 0.67543
 H427 H 0.74350 0.66848 0.72361
 H428 H 0.75112 0.63455 0.69206
 C429 C 0.71879 0.89921 0.10900
 C430 C 0.70745 0.92166 0.11498
 C431 C 0.70588 0.94003 0.09525
 C432 C 0.71564 0.93626 0.06911
 C433 C 0.72688 0.91342 0.06343
 C434 C 0.72843 0.89513 0.08320
 C435 C 0.72090 0.88040 0.12934
 C436 C 0.72311 0.86440 0.14605
 C437 C 0.72625 0.84502 0.16557
 C438 C 0.74126 0.84867 0.18818
 C439 C 0.74543 0.82941 0.20635
 C440 C 0.73467 0.80619 0.20209
 C441 C 0.71927 0.80283 0.17954
 C442 C 0.71513 0.82212 0.16140
 H443 H 0.69981 0.92496 0.13488
 H444 H 0.69653 0.95703 0.10028
 H445 H 0.73519 0.90993 0.04390
 H446 H 0.73738 0.87786 0.07840
 H447 H 0.75002 0.86631 0.19155
 H448 H 0.75738 0.83261 0.22349
 H449 H 0.71071 0.78519 0.17567
 H450 H 0.70353 0.81908 0.14392
 C451 C 0.21836 0.39893 0.60996
 C452 C 0.19949 0.41642 0.61142
 C453 C 0.19758 0.43474 0.59165
 C454 C 0.21452 0.43567 0.57025
 C455 C 0.23344 0.41815 0.56896
 C456 C 0.23532 0.39986 0.58870
 C457 C 0.22044 0.37998 0.63016
 C458 C 0.22263 0.36389 0.64677
 C459 C 0.22578 0.34442 0.66620
 C460 C 0.24086 0.34797 0.68877
 C461 C 0.24504 0.32864 0.70685
 C462 C 0.23420 0.30546 0.70255
 C463 C 0.21874 0.30221 0.68004
 C464 C 0.21459 0.32157 0.66199
 H465 H 0.18628 0.41587 0.62779
 H466 H 0.18290 0.44814 0.59293
 H467 H 0.24672 0.41870 0.55267
 H468 H 0.25000 0.38645 0.58739
 H469 H 0.24968 0.36557 0.69217
 H470 H 0.25705 0.33175 0.72396
 H471 H 0.21013 0.28460 0.67613
 H472 H 0.20294 0.31860 0.64453
 C473 C 0.89996 0.27964 0.10949
 C474 C 0.89671 0.26776 0.08468
 C475 C 0.91473 0.26939 0.06468
 C476 C 0.93643 0.28301 0.06908
 C477 C 0.93947 0.29484 0.09428
 C478 C 0.92136 0.29318 0.11427
 C479 C 0.88128 0.27770 0.12998
 C480 C 0.86531 0.27567 0.14672
 C481 C 0.84589 0.27274 0.16620
 C482 C 0.84923 0.25752 0.18872
 C483 C 0.82988 0.25353 0.20679
 C484 C 0.80689 0.26471 0.20252
 C485 C 0.80385 0.28032 0.18006
 C486 C 0.82323 0.28428 0.16202
 H487 H 0.88028 0.25707 0.08085
 H488 H 0.91196 0.25940 0.04597
 H489 H 0.95565 0.30583 0.09832
 H490 H 0.92403 0.30251 0.13340
 H491 H 0.86668 0.24843 0.19209
 H492 H 0.83283 0.24141 0.22386
 H493 H 0.78640 0.28920 0.17617
 H494 H 0.82042 0.29604 0.14460
 C495 C 0.39917 0.78115 0.60969
 C496 C 0.40013 0.76408 0.58851
 C497 C 0.41840 0.76591 0.56878
 C498 C 0.43585 0.78489 0.57000
 C499 C 0.43489 0.80193 0.59133
 C500 C 0.41659 0.80006 0.61109
 C501 C 0.38021 0.77915 0.62985
 C502 C 0.36411 0.77704 0.64642
 C503 C 0.34464 0.77400 0.66581
 C504 C 0.34807 0.75891 0.68841
 C505 C 0.32874 0.75486 0.70649
 C506 C 0.30567 0.76586 0.70213
 C507 C 0.30253 0.78133 0.67957
 C508 C 0.32189 0.78535 0.66153
 H509 H 0.38677 0.74936 0.58726
 H510 H 0.41898 0.75254 0.55254
 H511 H 0.44824 0.81665 0.59256
 H512 H 0.41601 0.81335 0.62741
 H513 H 0.36558 0.74998 0.69187
 H514 H 0.33176 0.74285 0.72364
 H515 H 0.28502 0.79007 0.67563
 H516 H 0.31902 0.79701 0.64405
 C517 C 0.10051 0.72016 0.10906
 C518 C 0.10429 0.73055 0.08354
 C519 C 0.08604 0.72905 0.06378
 C520 C 0.06354 0.71709 0.06916
 C521 C 0.06006 0.70662 0.09501
 C522 C 0.07839 0.70816 0.11475
 C523 C 0.11933 0.72213 0.12937
 C524 C 0.13535 0.72420 0.14603
 C525 C 0.15476 0.72717 0.16550
 C526 C 0.17749 0.71578 0.16130
 C527 C 0.19681 0.71974 0.17940
 C528 C 0.19364 0.73522 0.20195
 C529 C 0.17058 0.74627 0.20624
 C530 C 0.15129 0.74228 0.18810
 H531 H 0.12130 0.74002 0.07897
 H532 H 0.08929 0.73791 0.04449
 H533 H 0.04334 0.69674 0.09980
 H534 H 0.07532 0.69995 0.13443
 H535 H 0.18039 0.70411 0.14382
 H536 H 0.21431 0.71097 0.17550
 H537 H 0.16754 0.75829 0.22337
 H538 H 0.13379 0.75125 0.19150
 C539 C 0.60014 0.21866 0.60882
 C540 C 0.58269 0.19977 0.61023
 C541 C 0.56440 0.19794 0.59046
 C542 C 0.56348 0.21498 0.56914
 C543 C 0.58097 0.23393 0.56791
 C544 C 0.59922 0.23573 0.58764
 C545 C 0.61907 0.22065 0.62899
 C546 C 0.63515 0.22275 0.64557
 C547 C 0.65460 0.22579 0.66497
 C548 C 0.67732 0.21439 0.66075
 C549 C 0.69666 0.21840 0.67881
 C550 C 0.69352 0.23393 0.70132
 C551 C 0.67047 0.24499 0.70561
 C552 C 0.65116 0.24095 0.68753
 H553 H 0.58323 0.18649 0.62655
 H554 H 0.55102 0.18324 0.59170
 H555 H 0.58042 0.24729 0.55167
 H556 H 0.61262 0.25042 0.58638
 H557 H 0.68020 0.20268 0.64331
 H558 H 0.71416 0.20962 0.67491
 H559 H 0.66744 0.25705 0.72272
 H560 H 0.63366 0.24993 0.69093
 C561 C 0.71760 0.10021 0.89072
 C562 C 0.72747 0.10434 0.91640
 C563 C 0.72580 0.08622 0.93635
 C564 C 0.71412 0.06355 0.93100
 C565 C 0.70430 0.05965 0.90492
 C566 C 0.70600 0.07785 0.88501
 C567 C 0.71975 0.11890 0.87025
 C568 C 0.72196 0.13484 0.85347
 C569 C 0.72510 0.15420 0.83393
 C570 C 0.71389 0.17707 0.83805
 C571 C 0.71806 0.19638 0.81994
 C572 C 0.73358 0.19305 0.79746
 C573 C 0.74442 0.16985 0.79324
 C574 C 0.74022 0.15058 0.81140
 H575 H 0.73670 0.12151 0.92096
 H576 H 0.73437 0.08971 0.95573
 H577 H 0.69485 0.04267 0.90008
 H578 H 0.69826 0.07448 0.86517
 H579 H 0.70222 0.18010 0.85548
 H580 H 0.70944 0.21399 0.82377
 H581 H 0.75646 0.16669 0.77616
 H582 H 0.74905 0.13297 0.80807
 C583 C 0.21824 0.60089 0.39071
 C584 C 0.19933 0.58345 0.38931
 C585 C 0.19743 0.56514 0.40909
 C586 C 0.21442 0.56416 0.43042
 C587 C 0.23337 0.58163 0.43165
 C588 C 0.23524 0.59992 0.41191
 C589 C 0.22030 0.61983 0.37051
 C590 C 0.22247 0.63592 0.35389
 C591 C 0.22560 0.65538 0.33445
 C592 C 0.21441 0.67825 0.33869
 C593 C 0.21852 0.69760 0.32063
 C594 C 0.23395 0.69434 0.29807
 C595 C 0.24478 0.67115 0.29374
 C596 C 0.24064 0.65182 0.31184
 H597 H 0.18609 0.58403 0.37298
 H598 H 0.18273 0.55177 0.40785
 H599 H 0.24670 0.58104 0.44790
 H600 H 0.24995 0.61329 0.41316
 H601 H 0.20278 0.68122 0.35618
 H602 H 0.20991 0.71521 0.32455
 H603 H 0.25676 0.66802 0.27659
 H604 H 0.24945 0.63422 0.30841
 C605 C 0.28219 0.90047 0.89010
 C606 C 0.27240 0.92387 0.88541
 C607 C 0.27384 0.94201 0.90540
 C608 C 0.28497 0.93699 0.93059
 C609 C 0.29520 0.91342 0.93473
 C610 C 0.29374 0.89535 0.91470
 C611 C 0.27969 0.88145 0.87005
 C612 C 0.27724 0.86529 0.85357
 C613 C 0.27387 0.84574 0.83430
 C614 C 0.25873 0.84926 0.81177
 C615 C 0.25446 0.82989 0.79376
 C616 C 0.26527 0.80670 0.79811
 C617 C 0.28077 0.80346 0.82060
 C618 C 0.28500 0.82286 0.83857
 H619 H 0.26331 0.92800 0.86646
 H620 H 0.26540 0.95972 0.90149
 H621 H 0.30469 0.90903 0.95337
 H622 H 0.30152 0.87732 0.91848
 H623 H 0.24996 0.86689 0.80831
 H624 H 0.24243 0.83300 0.77666
 H625 H 0.28937 0.78585 0.82453
 H626 H 0.29671 0.81991 0.85599
 C627 C 0.78312 0.39967 0.39002
 C628 C 0.76624 0.41911 0.39025
 C629 C 0.76780 0.43737 0.41007
 C630 C 0.78624 0.43633 0.42987
 C631 C 0.80333 0.41697 0.42935
 C632 C 0.80174 0.39869 0.40953
 C633 C 0.78081 0.38036 0.37027
 C634 C 0.77842 0.36407 0.35394
 C635 C 0.77503 0.34449 0.33471
 C636 C 0.76004 0.34810 0.31208
 C637 C 0.75575 0.32874 0.29406
 C638 C 0.76639 0.30548 0.29850
 C639 C 0.78173 0.30216 0.32110
 C640 C 0.78599 0.32154 0.33909
 H641 H 0.75173 0.42001 0.37530
 H642 H 0.75445 0.45216 0.41023
 H643 H 0.81770 0.41594 0.44445
 H644 H 0.81486 0.38370 0.40956
 H645 H 0.75142 0.36578 0.30854
 H646 H 0.74385 0.33192 0.27688
 H647 H 0.79019 0.28449 0.32511
 H648 H 0.79758 0.31854 0.35659
 C649 C 0.10007 0.27977 0.89057
 C650 C 0.09420 0.30260 0.90199
 C651 C 0.07564 0.30432 0.92147
 C652 C 0.06270 0.28318 0.92970
 C653 C 0.06877 0.26033 0.91810
 C654 C 0.08730 0.25867 0.89864
 C655 C 0.11944 0.27781 0.87088
 C656 C 0.13573 0.27569 0.85453
 C657 C 0.15527 0.27259 0.83523
 C658 C 0.17804 0.28385 0.83955
 C659 C 0.19739 0.27987 0.82147
 C660 C 0.19420 0.26451 0.79882
 C661 C 0.17111 0.25358 0.79444
 C662 C 0.15180 0.25759 0.81255
 H663 H 0.10400 0.31904 0.89592
 H664 H 0.07127 0.32214 0.93006
 H665 H 0.05937 0.24372 0.92441
 H666 H 0.09180 0.24089 0.89004
 H667 H 0.18093 0.29545 0.85708
 H668 H 0.21492 0.28854 0.82543
 H669 H 0.16804 0.24166 0.77723
 H670 H 0.13426 0.24874 0.80905
 C671 C 0.60066 0.78109 0.39046
 C672 C 0.59969 0.76405 0.41166
 C673 C 0.58139 0.76589 0.43136
 C674 C 0.56391 0.78486 0.43007
 C675 C 0.56488 0.80187 0.40872
 C676 C 0.58321 0.79999 0.38899
 C677 C 0.61965 0.77907 0.37034
 C678 C 0.63578 0.77694 0.35381
 C679 C 0.65528 0.77385 0.33447
 C680 C 0.65191 0.75866 0.31193
 C681 C 0.67127 0.75458 0.29390
 C682 C 0.69431 0.76562 0.29824
 C683 C 0.69739 0.78118 0.32073
 C684 C 0.67800 0.78523 0.33872
 H685 H 0.61307 0.74934 0.41297
 H686 H 0.58081 0.75255 0.44762
 H687 H 0.55151 0.81658 0.40744
 H688 H 0.58379 0.81326 0.37265
 H689 H 0.63441 0.74970 0.30849
 H690 H 0.66828 0.74250 0.27680
 H691 H 0.71488 0.78995 0.32466
 H692 H 0.68083 0.79697 0.35616
 C693 C 0.89954 0.72016 0.89072
 C694 C 0.91836 0.70277 0.88783
 C695 C 0.93662 0.70078 0.90761
 C696 C 0.93616 0.71613 0.93045
 C697 C 0.91731 0.73360 0.93315
 C698 C 0.89908 0.73556 0.91340
 C699 C 0.88065 0.72231 0.87051
 C700 C 0.86458 0.72451 0.85392
 C701 C 0.84514 0.72762 0.83451
 C702 C 0.82242 0.71622 0.83869
 C703 C 0.80309 0.72022 0.82060
 C704 C 0.80625 0.73575 0.79809
 C705 C 0.82929 0.74682 0.79384
 C706 C 0.84859 0.74278 0.81196
 H707 H 0.91891 0.69079 0.87034
 H708 H 0.95108 0.68726 0.90519
 H709 H 0.91679 0.74574 0.95052
 H710 H 0.88464 0.74912 0.91580
 H711 H 0.81953 0.70449 0.85612
 H712 H 0.78560 0.71143 0.82447
 H713 H 0.83233 0.75888 0.77673
 H714 H 0.86608 0.75176 0.80857
 C715 C 0.39871 0.21931 0.38969
 C716 C 0.41613 0.20038 0.38821
 C717 C 0.43444 0.19846 0.40793
 C718 C 0.43544 0.21545 0.42929
 C719 C 0.41799 0.23445 0.43060
 C720 C 0.39970 0.23634 0.41091
 C721 C 0.37974 0.22137 0.36957
 C722 C 0.36363 0.22353 0.35302
 C723 C 0.34418 0.22666 0.33364
 C724 C 0.32144 0.21530 0.33783
 C725 C 0.30210 0.21939 0.31979
 C726 C 0.30527 0.23494 0.29730
 C727 C 0.32834 0.24596 0.29303
 C728 C 0.34764 0.24184 0.31111
 H729 H 0.41552 0.18712 0.37186
 H730 H 0.44779 0.18372 0.40663
 H731 H 0.41859 0.24778 0.44687
 H732 H 0.38634 0.25107 0.41223
 H733 H 0.31854 0.20357 0.35526
 H734 H 0.28459 0.21064 0.32367
 H735 H 0.33139 0.25803 0.27594
 H736 H 0.36516 0.25078 0.30772
 C737 C 0.71845 0.89987 0.89095
 C738 C 0.70730 0.92241 0.88499
 C739 C 0.70561 0.94068 0.90484
 C740 C 0.71505 0.93670 0.93108
 C741 C 0.72618 0.91378 0.93670
 C742 C 0.72783 0.89560 0.91683
 C743 C 0.72063 0.88113 0.87053
 C744 C 0.72288 0.86515 0.85380
 C745 C 0.72605 0.84575 0.83431
 C746 C 0.74114 0.84935 0.81175
 C747 C 0.74534 0.83005 0.79362
 C748 C 0.73451 0.80685 0.79788
 C749 C 0.71903 0.80356 0.82038
 C750 C 0.71486 0.82289 0.83847
 H751 H 0.69989 0.92587 0.86502
 H752 H 0.69643 0.95776 0.89979
 H753 H 0.73435 0.91015 0.95626
 H754 H 0.73666 0.87827 0.92160
 H755 H 0.74995 0.86696 0.80838
 H756 H 0.75735 0.83320 0.77651
 H757 H 0.71041 0.78595 0.82426
 H758 H 0.70320 0.81989 0.85592
 C759 C 0.21793 0.39912 0.39054
 C760 C 0.19906 0.41661 0.38922
 C761 C 0.19723 0.43488 0.40905
 C762 C 0.21424 0.43575 0.43037
 C763 C 0.23315 0.41821 0.43153
 C764 C 0.23495 0.39997 0.41172
 C765 C 0.21995 0.38024 0.37025
 C766 C 0.22210 0.36422 0.35355
 C767 C 0.22522 0.34486 0.33400
 C768 C 0.24026 0.34853 0.31141
 C769 C 0.24443 0.32929 0.29320
 C770 C 0.23361 0.30608 0.29740
 C771 C 0.21818 0.30271 0.31993
 C772 C 0.21405 0.32198 0.33811
 H773 H 0.18581 0.41612 0.37290
 H774 H 0.18256 0.44831 0.40786
 H775 H 0.24649 0.41872 0.44775
 H776 H 0.24963 0.38655 0.41292
 H777 H 0.24906 0.36615 0.30808
 H778 H 0.25641 0.33249 0.27608
 H779 H 0.20958 0.28508 0.32376
 H780 H 0.20242 0.31892 0.35557
 C781 C 0.28331 0.09939 0.88995
 C782 C 0.29458 0.10459 0.91469
 C783 C 0.29605 0.08651 0.93470
 C784 C 0.28617 0.06280 0.93040
 C785 C 0.27527 0.05774 0.90509
 C786 C 0.27381 0.07590 0.88513
 C787 C 0.28074 0.11843 0.86993
 C788 C 0.27821 0.13462 0.85349
 C789 C 0.27474 0.15419 0.83427
 C790 C 0.28586 0.17708 0.83853
 C791 C 0.28152 0.19651 0.82062
 C792 C 0.26593 0.19329 0.79820
 C793 C 0.25514 0.17010 0.79386
 C794 C 0.25951 0.15070 0.81181
 H795 H 0.30211 0.12270 0.91859
 H796 H 0.30525 0.09100 0.95348
 H797 H 0.26698 0.04000 0.90106
 H798 H 0.26489 0.07172 0.86609
 H799 H 0.29763 0.18000 0.85589
 H800 H 0.29010 0.21412 0.82454
 H801 H 0.24305 0.16701 0.77682
 H802 H 0.25076 0.13307 0.80836
 C803 C 0.78307 0.60034 0.38998
 C804 C 0.76618 0.58092 0.39026
 C805 C 0.76776 0.56267 0.41009
 C806 C 0.78623 0.56370 0.42985
 C807 C 0.80333 0.58304 0.42929
 C808 C 0.80172 0.60131 0.40945
 C809 C 0.78073 0.61964 0.37023
 C810 C 0.77831 0.63592 0.35389
 C811 C 0.77489 0.65549 0.33466
 C812 C 0.75983 0.65189 0.31208
 C813 C 0.75550 0.67124 0.29407
 C814 C 0.76617 0.69449 0.29844
 C815 C 0.78159 0.69781 0.32099
 C816 C 0.78588 0.67842 0.33898
 H817 H 0.75165 0.58003 0.37533
 H818 H 0.75441 0.54789 0.41028
 H819 H 0.81772 0.58406 0.44435
 H820 H 0.81484 0.61629 0.40944
 H821 H 0.75117 0.63423 0.30859
 H822 H 0.74354 0.66807 0.27693
 H823 H 0.79007 0.71546 0.32495
 H824 H 0.79752 0.68142 0.35643
 C825 C 0.10045 0.72034 0.89099
 C826 C 0.10423 0.73071 0.91651
 C827 C 0.08598 0.72919 0.93629
 C828 C 0.06350 0.71722 0.93091
 C829 C 0.06001 0.70678 0.90505
 C830 C 0.07833 0.70834 0.88530
 C831 C 0.11927 0.72232 0.87068
 C832 C 0.13530 0.72440 0.85402
 C833 C 0.15473 0.72739 0.83458
 C834 C 0.15129 0.74248 0.81197
 C835 C 0.17060 0.74649 0.79386
 C836 C 0.19367 0.73547 0.79820
 C837 C 0.19681 0.72000 0.82076
 C838 C 0.17746 0.71602 0.83883
 H839 H 0.12124 0.74018 0.92108
 H840 H 0.08923 0.73803 0.95559
 H841 H 0.04329 0.69689 0.90027
 H842 H 0.07526 0.70015 0.86562
 H843 H 0.13378 0.75143 0.80853
 H844 H 0.16758 0.75850 0.77671
 H845 H 0.21432 0.71125 0.82469
 H846 H 0.18034 0.70436 0.85632
 C847 C 0.60047 0.21901 0.38987
 C848 C 0.58301 0.20013 0.38831
 C849 C 0.56462 0.19824 0.40797
 C850 C 0.56359 0.21522 0.42935
 C851 C 0.58107 0.23417 0.43072
 C852 C 0.59943 0.23602 0.41110
 C853 C 0.61953 0.22102 0.36984
 C854 C 0.63573 0.22315 0.35339
 C855 C 0.65531 0.22623 0.33414
 C856 C 0.65202 0.24140 0.31157
 C857 C 0.67146 0.24547 0.29363
 C858 C 0.69449 0.23443 0.29809
 C859 C 0.69749 0.21889 0.32062
 C860 C 0.67802 0.21485 0.33852
 H861 H 0.58365 0.18687 0.37196
 H862 H 0.55125 0.18354 0.40662
 H863 H 0.58045 0.24749 0.44701
 H864 H 0.61282 0.25071 0.41248
 H865 H 0.63454 0.25036 0.30803
 H866 H 0.66853 0.25754 0.27651
 H867 H 0.71497 0.21012 0.32465
 H868 H 0.68079 0.20313 0.35598
 C869 C 0.89863 0.27843 0.89044
 C870 C 0.89873 0.26202 0.91226
 C871 C 0.91708 0.26352 0.93192
 C872 C 0.93552 0.28148 0.92994
 C873 C 0.93535 0.29794 0.90804
 C874 C 0.91697 0.29640 0.88835
 C875 C 0.87970 0.27665 0.87025
 C876 C 0.86364 0.27471 0.85362
 C877 C 0.84422 0.27183 0.83415
 C878 C 0.84768 0.25679 0.81149
 C879 C 0.82840 0.25289 0.79334
 C880 C 0.80536 0.26396 0.79765
 C881 C 0.80220 0.27938 0.82025
 C882 C 0.82152 0.28326 0.83838
 H883 H 0.88464 0.24803 0.91406
 H884 H 0.91699 0.25065 0.94864
 H885 H 0.94942 0.31192 0.90626
 H886 H 0.91706 0.30918 0.87154
 H887 H 0.86517 0.24781 0.80807
 H888 H 0.83144 0.24091 0.77616
 H889 H 0.78471 0.28817 0.82417
 H890 H 0.81863 0.29488 0.85589
 C891 C 0.39902 0.78094 0.39055
 C892 C 0.40001 0.76390 0.41176
 C893 C 0.41830 0.76575 0.43145
 C894 C 0.43577 0.78471 0.43015
 C895 C 0.43479 0.80172 0.40879
 C896 C 0.41647 0.79984 0.38907
 C897 C 0.38005 0.77892 0.37043
 C898 C 0.36394 0.77680 0.35388
 C899 C 0.34447 0.77373 0.33450
 C900 C 0.34792 0.75862 0.31191
 C901 C 0.32860 0.75456 0.29383
 C902 C 0.30552 0.76556 0.29817
 C903 C 0.30236 0.78104 0.32072
 C904 C 0.32171 0.78507 0.33876
 H905 H 0.38663 0.74920 0.41308
 H906 H 0.41889 0.75241 0.44771
 H907 H 0.44816 0.81643 0.40750
 H908 H 0.41588 0.81311 0.37274
 H909 H 0.36544 0.74970 0.30846
 H910 H 0.33164 0.74254 0.27669
 H911 H 0.28485 0.78978 0.32465
 H912 H 0.31883 0.79675 0.35623
 C913 C 0.28234 0.90056 0.11061
 C914 C 0.26804 0.92190 0.11261
 C915 C 0.26963 0.94010 0.09271
 C916 C 0.28553 0.93710 0.07057
 C917 C 0.30008 0.91580 0.06887
 C918 C 0.29846 0.89760 0.08878
 C919 C 0.27986 0.88135 0.13046
 C920 C 0.27739 0.86510 0.14682
 C921 C 0.27397 0.84550 0.16603
 C922 C 0.25885 0.84901 0.18858
 C923 C 0.25455 0.82962 0.20655
 C924 C 0.26531 0.80641 0.20214
 C925 C 0.28078 0.80318 0.17962
 C926 C 0.28506 0.82260 0.16169
 H927 H 0.25546 0.92434 0.12937
 H928 H 0.25821 0.95636 0.09431
 H929 H 0.31250 0.91322 0.05199
 H930 H 0.30957 0.88114 0.08701
 H931 H 0.25013 0.86665 0.19209
 H932 H 0.24254 0.83272 0.22367
 H933 H 0.28934 0.78555 0.17564
 H934 H 0.29675 0.81967 0.14426
 C935 C 0.78275 0.39955 0.61066
 C936 C 0.76589 0.41901 0.61041
 C937 C 0.76754 0.43732 0.59066
 C938 C 0.78606 0.43632 0.57094
 C939 C 0.80315 0.41696 0.57149
 C940 C 0.80147 0.39863 0.59125
 C941 C 0.78031 0.38017 0.63030
 C942 C 0.77781 0.36381 0.64653
 C943 C 0.77429 0.34416 0.66564
 C944 C 0.75918 0.34768 0.68820
 C945 C 0.75477 0.32827 0.70610
 C946 C 0.76541 0.30501 0.70162
 C947 C 0.78087 0.30175 0.67908
 C948 C 0.78524 0.32121 0.66121
 H949 H 0.75130 0.41986 0.62529
 H950 H 0.75419 0.45211 0.59048
 H951 H 0.81759 0.41596 0.55646
 H952 H 0.81458 0.38363 0.59123
 H953 H 0.75055 0.36536 0.69177
 H954 H 0.74278 0.33139 0.72323
 H955 H 0.78933 0.28410 0.67505
 H956 H 0.79692 0.31827 0.64377
 C957 C 0.71912 0.10054 0.10928
 C958 C 0.73334 0.10193 0.08575
 C959 C 0.73147 0.08364 0.06601
 C960 C 0.71531 0.06376 0.06959
 C961 C 0.70109 0.06243 0.09325
 C962 C 0.70299 0.08075 0.11301
 C963 C 0.72128 0.11941 0.12955
 C964 C 0.72350 0.13545 0.14620
 C965 C 0.72667 0.15487 0.16568
 C966 C 0.71559 0.17778 0.16146
 C967 C 0.71973 0.19709 0.17957
 C968 C 0.73509 0.19373 0.20215
 C969 C 0.74583 0.17049 0.20646
 C970 C 0.74165 0.15121 0.18831
 H971 H 0.74591 0.11713 0.08269
 H972 H 0.74272 0.08489 0.04799
 H973 H 0.68853 0.04723 0.09634
 H974 H 0.69192 0.07949 0.13117
 H975 H 0.70401 0.18083 0.14396
 H976 H 0.71120 0.21473 0.17566
 H977 H 0.75775 0.16729 0.22362
 H978 H 0.75038 0.13356 0.19173
 C979 C 0.21839 0.60089 0.60989
 C980 C 0.23539 0.59989 0.58867
 C981 C 0.23351 0.58157 0.56896
 C982 C 0.21456 0.56410 0.57026
 C983 C 0.19760 0.56509 0.59163
 C984 C 0.19951 0.58344 0.61136
 C985 C 0.22045 0.61989 0.63002
 C986 C 0.22262 0.63604 0.64657
 C987 C 0.22575 0.65555 0.66594
 C988 C 0.21460 0.67842 0.66162
 C989 C 0.21872 0.69781 0.67963
 C990 C 0.23411 0.69458 0.70221
 C991 C 0.24491 0.67139 0.70661
 C992 C 0.24076 0.65202 0.68857
 H993 H 0.25008 0.61327 0.58735
 H994 H 0.24681 0.58097 0.55269
 H995 H 0.18290 0.55172 0.59292
 H996 H 0.18627 0.58405 0.62771
 H997 H 0.20300 0.68136 0.64412
 H998 H 0.21013 0.71542 0.67565
 H999 H 0.25686 0.66829 0.72378
 H1000 H 0.24954 0.63441 0.69206
 C1001 C 0.89964 0.71974 0.10955
 C1002 C 0.91846 0.70235 0.11232
 C1003 C 0.93671 0.70044 0.09250
 C1004 C 0.93622 0.71588 0.06974
 C1005 C 0.91737 0.73337 0.06716
 C1006 C 0.89915 0.73524 0.08695
 C1007 C 0.88077 0.72181 0.12980
 C1008 C 0.86472 0.72395 0.14643
 C1009 C 0.84529 0.72699 0.16586
 C1010 C 0.82259 0.71554 0.16171
 C1011 C 0.80325 0.71954 0.17979
 C1012 C 0.80637 0.73512 0.20226
 C1013 C 0.82940 0.74622 0.20650
 C1014 C 0.84870 0.74219 0.18839
 H1015 H 0.91903 0.69029 0.12975
 H1016 H 0.95117 0.68691 0.09483
 H1017 H 0.91683 0.74557 0.04985
 H1018 H 0.88471 0.74880 0.08464
 H1019 H 0.81972 0.70380 0.14429
 H1020 H 0.78577 0.71072 0.17593
 H1021 H 0.83240 0.75831 0.22359
 H1022 H 0.86618 0.75120 0.19175
 C1023 C 0.39878 0.21893 0.60895
 C1024 C 0.41621 0.20000 0.61030
 C1025 C 0.43445 0.19813 0.59048
 C1026 C 0.43537 0.21517 0.56915
 C1027 C 0.41790 0.23414 0.56796
 C1028 C 0.39968 0.23598 0.58775
 C1029 C 0.37991 0.22097 0.62920
 C1030 C 0.36389 0.22310 0.64588
 C1031 C 0.34453 0.22615 0.66540
 C1032 C 0.32178 0.21478 0.66131
 C1033 C 0.30252 0.21877 0.67949
 C1034 C 0.30577 0.23426 0.70202
 C1035 C 0.32884 0.24529 0.70619
 C1036 C 0.34807 0.24127 0.68798
 H1037 H 0.41568 0.18672 0.62662
 H1038 H 0.44782 0.18341 0.59169
 H1039 H 0.41844 0.24751 0.55172
 H1040 H 0.38630 0.25071 0.58652
 H1041 H 0.31882 0.20309 0.64386
 H1042 H 0.28500 0.21001 0.67569
 H1043 H 0.33194 0.25731 0.72331
 H1044 H 0.36559 0.25021 0.69130
 C1045 C 0.10039 0.28082 0.10817
 C1046 C 0.08252 0.29929 0.11000
 C1047 C 0.06426 0.30117 0.09021
 C1048 C 0.06379 0.28462 0.06841
 C1049 C 0.08168 0.26606 0.06678
 C1050 C 0.09992 0.26421 0.08654
 C1051 C 0.11927 0.27879 0.12839
 C1052 C 0.13531 0.27667 0.14503
 C1053 C 0.15471 0.27362 0.16450
 C1054 C 0.17742 0.28507 0.16039
 C1055 C 0.19671 0.28107 0.17851
 C1056 C 0.19354 0.26550 0.20098
 C1057 C 0.17050 0.25440 0.20517
 C1058 C 0.15123 0.25843 0.18702
 H1059 H 0.08270 0.31221 0.12668
 H1060 H 0.05053 0.31552 0.09180
 H1061 H 0.08145 0.25302 0.05022
 H1062 H 0.11362 0.24983 0.08496
 H1063 H 0.18032 0.29681 0.14297
 H1064 H 0.21420 0.28988 0.17469
 H1065 H 0.16745 0.24231 0.22225
 H1066 H 0.13374 0.24943 0.19035
 C1067 C 0.60078 0.78127 0.60945
 C1068 C 0.59980 0.76423 0.58825
 C1069 C 0.58150 0.76605 0.56858
 C1070 C 0.56400 0.78501 0.56988
 C1071 C 0.56497 0.80202 0.59122
 C1072 C 0.58332 0.80017 0.61093
 C1073 C 0.61977 0.77927 0.62956
 C1074 C 0.63590 0.77715 0.64610
 C1075 C 0.65539 0.77410 0.66546
 C1076 C 0.67813 0.78544 0.66118
 C1077 C 0.69749 0.78144 0.67922
 C1078 C 0.69436 0.76597 0.70179
 C1079 C 0.67130 0.75497 0.70614
 C1080 C 0.65197 0.75900 0.68807
 H1081 H 0.61320 0.74953 0.58694
 H1082 H 0.58092 0.75271 0.55233
 H1083 H 0.55159 0.81672 0.59252
 H1084 H 0.58390 0.81344 0.62726
 H1085 H 0.68100 0.79711 0.64370
 H1086 H 0.71499 0.79018 0.67527
 H1087 H 0.66827 0.74296 0.72330
 H1088 H 0.63446 0.75007 0.69153
   
