data_POSCAR
  _audit_creation_date              2014-09-24
  _audit_creation_method            'ToBaCCo'
  _symmetry_space_group_name_H-M    'P1'
  _symmetry_Int_Tables_number       1
  _symmetry_cell_setting            triclinic
  loop_
  _symmetry_equiv_pos_as_xyz
 x,y,z
_cell_length_a 47.0625
_cell_length_b 46.7324
_cell_length_c 47.0427
_cell_angle_alpha 89.855600
_cell_angle_beta 89.907500
_cell_angle_gamma 90.107300
loop_
  _atom_site_label
  _atom_site_type_symbol
  _atom_site_fract_x
  _atom_site_fract_y
  _atom_site_fract_z
C1 C 0.32889 0.36087 1.36346
 C2 C 0.33800 0.37277 1.33736
 C3 C 0.36185 0.36220 1.32292
 C4 C 0.37668 0.33886 1.33434
 C5 C 0.36840 0.32616 1.36026
 C6 C 0.34481 0.33784 1.37476
 H7 H 0.32575 0.38932 1.32702
 H8 H 0.39562 0.33158 1.32351
 H9 H 0.33856 0.32854 1.39479
 C10 C 1.17687 0.64128 0.86695
 C11 C 1.16505 0.62744 0.84304
 C12 C 1.14175 0.63893 0.82828
 C13 C 1.12944 0.66436 0.83817
 C14 C 1.13988 0.67807 0.86252
 C15 C 1.16344 0.66641 0.87675
 H16 H 1.17325 0.60695 0.83631
 H17 H 1.11221 0.67409 0.82642
 H18 H 1.17180 0.67787 0.89483
 C19 C 0.67480 -0.13621 0.13360
 C20 C 0.66331 -0.12342 0.15828
 C21 C 0.63891 -0.13447 0.17162
 C22 C 0.62555 -0.15862 0.16007
 C23 C 0.63632 -0.17185 0.13562
 C24 C 0.66061 -0.16036 0.12239
 H25 H 0.67300 -0.10451 0.16724
 H26 H 0.60695 -0.16747 0.17047
 H27 H 0.66901 -0.17132 0.10403
 C28 C -0.18109 1.13553 -0.36266
 C29 C -0.16603 1.15945 -0.37344
 C30 C -0.14057 1.16889 -0.36094
 C31 C -0.12993 1.15405 -0.33731
 C32 C -0.14478 1.13090 -0.32546
 C33 C -0.17001 1.12158 -0.33837
 H34 H -0.17497 1.17207 -0.39049
 H35 H -0.10991 1.16049 -0.32797
 H36 H -0.18059 1.10310 -0.32943
 C37 C 0.68101 0.63994 0.63697
 C38 C 0.66955 0.62643 0.66103
 C39 C 0.64500 0.63713 0.67414
 C40 C 0.63155 0.66129 0.66248
 C41 C 0.64260 0.67543 0.63825
 C42 C 0.66757 0.66428 0.62582
 H43 H 0.68043 0.60819 0.67017
 H44 H 0.61301 0.66954 0.67324
 H45 H 0.67617 0.67351 0.60652
 C46 C 0.82350 0.36131 0.14348
 C47 C 0.83390 0.37300 0.16887
 C48 C 0.85877 0.36242 0.18147
 C49 C 0.87305 0.33938 0.16867
 C50 C 0.86274 0.32657 0.14354
 C51 C 0.83826 0.33849 0.13089
 H52 H 0.82218 0.38985 0.17939
 H53 H 0.89161 0.33089 0.17920
 H54 H 0.83111 0.33082 0.11046
 C55 C 0.31950 0.14544 0.85414
 C56 C 0.33491 0.16889 0.86528
 C57 C 0.36053 0.17825 0.85287
 C58 C 0.37105 0.16379 0.82898
 C59 C 0.35598 0.14098 0.81695
 C60 C 0.33039 0.13205 0.82951
 H61 H 0.32753 0.17977 0.88407
 H62 H 0.39125 0.17007 0.81984
 H63 H 0.31836 0.11556 0.81884
 C64 C 0.17585 0.85366 0.35776
 C65 C 0.16481 0.86689 0.33308
 C66 C 0.14016 0.85659 0.31973
 C67 C 0.12626 0.83260 0.33110
 C68 C 0.13655 0.81909 0.35560
 C69 C 0.16103 0.82980 0.36893
 H70 H 0.17490 0.88572 0.32426
 H71 H 0.10706 0.82467 0.32115
 H72 H 0.16932 0.81808 0.38694
 Zn73 Zn -0.01593 1.00759 0.03513
 Zn74 Zn 0.03553 0.98869 0.00387
 Zn75 Zn -0.02204 0.97986 -0.02187
 Zn76 Zn 0.00261 1.03880 -0.01687
 O77 O -0.00001 1.00369 0.00001
 O78 O 0.00619 0.99448 0.06315
 O79 O 0.03947 0.95585 -0.01492
 O80 O -0.05318 0.96726 -0.00333
 O81 O 0.04463 0.98071 0.03996
 O82 O -0.04847 0.98835 0.03844
 O83 O -0.00306 0.94857 -0.03355
 O84 O -0.01716 1.04075 -0.04911
 O85 O 0.06285 1.01173 -0.00953
 O86 O -0.03492 0.99714 -0.05355
 O87 O 0.03829 1.04841 -0.02611
 O88 O -0.01043 1.06715 0.00512
 O89 O -0.02407 1.04394 0.04380
 C90 C 0.03087 0.98359 0.06299
 C91 C 0.02252 0.94083 -0.02964
 C92 C -0.06220 0.97226 0.02165
 C93 C -0.03184 1.02256 -0.06271
 C94 C 0.06179 1.03581 -0.02200
 C95 C -0.02107 1.06709 0.02993
 Zn96 Zn 0.49377 -0.03905 0.48090
 Zn97 Zn 0.51234 -0.00777 0.53248
 Zn98 Zn 0.51991 0.01932 0.47521
 Zn99 Zn 0.46171 0.01209 0.50027
 O100 O 0.49697 -0.00379 0.49715
 O101 O 0.50706 -0.06733 0.50291
 O102 O 0.54476 0.01150 0.53618
 O103 O 0.53241 0.00154 0.44363
 O104 O 0.52071 -0.04405 0.54134
 O105 O 0.51316 -0.04144 0.44845
 O106 O 0.55110 0.03139 0.49395
 O107 O 0.45897 0.04519 0.48147
 O108 O 0.48968 0.00516 0.56011
 O109 O 0.50200 0.05119 0.46336
 O110 O 0.45206 0.01999 0.53626
 O111 O 0.43408 -0.01035 0.48661
 O112 O 0.45786 -0.04843 0.47233
 C113 C 0.51796 -0.06719 0.52756
 C114 C 0.55924 0.02697 0.51933
 C115 C 0.52840 -0.02378 0.43465
 C116 C 0.47667 0.05980 0.46708
 C117 C 0.46520 0.01647 0.55954
 C118 C 0.43463 -0.03504 0.47543
 Zn119 Zn 1.00918 0.46010 0.48867
 Zn120 Zn 1.03940 0.51218 0.50870
 Zn121 Zn 0.98175 0.51761 0.48230
 Zn122 Zn 0.98848 0.49104 0.53990
 O123 O 1.00465 0.49528 0.50484
 O124 O 1.04543 0.45205 0.48030
 O125 O 1.04207 0.54478 0.48913
 O126 O 0.96965 0.49908 0.45106
 O127 O 1.06800 0.49035 0.49612
 O128 O 0.99006 0.45677 0.45612
 O129 O 0.99949 0.54942 0.46980
 O130 O 0.95591 0.51022 0.54312
 O131 O 1.04763 0.52112 0.54474
 O132 O 0.95029 0.52957 0.50053
 O133 O 1.01050 0.50399 0.56815
 O134 O 0.97999 0.45462 0.54821
 O135 O 0.99648 0.43148 0.51070
 C136 C 1.06826 0.46597 0.48430
 C137 C 1.02464 0.55851 0.47375
 C138 C 0.97429 0.47382 0.44228
 C139 C 0.94175 0.52544 0.52586
 C140 C 1.03437 0.51668 0.56785
 C141 C 0.98419 0.43151 0.53473
 Zn142 Zn 0.48520 0.49682 0.96337
 Zn143 Zn 0.53674 0.51626 0.99425
 Zn144 Zn 0.47917 0.52303 1.02107
 Zn145 Zn 0.50521 0.46495 1.01434
 O146 O 0.50153 0.50033 0.99832
 O147 O 0.50726 0.50995 0.93510
 O148 O 0.53982 0.54925 1.01294
 O149 O 0.44774 0.53558 1.00315
 O150 O 0.54572 0.52407 0.95804
 O151 O 0.45267 0.51604 0.96067
 O152 O 0.49761 0.55456 1.03306
 O153 O 0.48540 0.46156 1.04646
 O154 O 0.56468 0.49416 1.00782
 O155 O 0.46677 0.50455 1.05246
 O156 O 0.54103 0.45645 1.02371
 O157 O 0.49294 0.43668 0.99181
 O158 O 0.47674 0.46060 0.95459
 C159 C 0.53199 0.52083 0.93506
 C160 C 0.52276 0.56338 1.02839
 C161 C 0.43878 0.53138 0.97802
 C162 C 0.47036 0.47888 1.06071
 C163 C 0.56416 0.46998 1.02013
 C164 C 0.48099 0.43720 0.96765
 C165 C 1.25361 0.39165 0.40434
 C166 C 1.26917 0.40928 0.38576
 C167 C 1.29399 0.39941 0.37275
 C168 C 1.30406 0.37129 0.37751
 C169 C 1.28825 0.35382 0.39643
 C170 C 1.26365 0.36390 0.40968
 C171 C 1.22678 0.40197 0.41768
 C172 C 1.20378 0.38318 0.42206
 C173 C 1.17843 0.39292 0.43410
 C174 C 1.17520 0.42180 0.44174
 C175 C 1.19823 0.44057 0.43747
 C176 C 1.22372 0.43075 0.42578
 C177 C 1.14778 0.43243 0.45354
 C178 C 1.14730 0.45425 0.47410
 C179 C 1.12151 0.46497 0.48428
 C180 C 1.09558 0.45386 0.47446
 C181 C 1.09599 0.43166 0.45439
 C182 C 1.12175 0.42122 0.44390
 H183 H 1.26202 0.43075 0.38092
 H184 H 1.30550 0.41448 0.35959
 H185 H 1.29377 0.33174 0.40035
 H186 H 1.25244 0.34976 0.42411
 H187 H 1.20513 0.36097 0.41575
 H188 H 1.16137 0.37771 0.43746
 H189 H 1.19647 0.46304 0.44270
 H190 H 1.24107 0.44577 0.42316
 H191 H 1.16687 0.46301 0.48247
 H192 H 1.12188 0.48195 0.49991
 H193 H 1.07635 0.42283 0.44622
 H194 H 1.12118 0.40482 0.42771
 C195 C 0.25378 0.61165 0.90489
 C196 C 0.23400 0.62713 0.92100
 C197 C 0.20858 0.63660 0.90879
 C198 C 0.20206 0.63071 0.88003
 C199 C 0.22199 0.61457 0.86429
 C200 C 0.24733 0.60527 0.87652
 C201 C 0.28126 0.60232 0.91729
 C202 C 0.30634 0.60427 0.90116
 C203 C 0.33200 0.59407 0.91195
 C204 C 0.33325 0.58165 0.93915
 C205 C 0.30837 0.58051 0.95571
 C206 C 0.28261 0.59075 0.94488
 C207 C 0.36021 0.56892 0.94952
 C208 C 0.36917 0.57255 0.97778
 C209 C 0.39473 0.56049 0.98717
 C210 C 0.41173 0.54442 0.96849
 C211 C 0.40258 0.54070 0.94031
 C212 C 0.37719 0.55279 0.93096
 H213 H 0.23837 0.63230 0.94299
 H214 H 0.19386 0.64784 0.92242
 H215 H 0.21901 0.61013 0.84195
 H216 H 0.26203 0.59309 0.86360
 H217 H 0.30611 0.61367 0.88010
 H218 H 0.35092 0.59581 0.89892
 H219 H 0.30864 0.57085 0.97665
 H220 H 0.26360 0.58880 0.95773
 H221 H 0.35660 0.58504 0.99251
 H222 H 0.40117 0.56373 1.00901
 H223 H 0.41505 0.52836 0.92536
 H224 H 0.37063 0.54918 0.90920
 C225 C -0.24758 0.89336 0.09657
 C226 C -0.26791 0.87925 0.07992
 C227 C -0.29350 0.86981 0.09190
 C228 C -0.29963 0.87424 0.12102
 C229 C -0.27911 0.88893 0.13739
 C230 C -0.25360 0.89828 0.12536
 C231 C -0.22006 0.90283 0.08418
 C232 C -0.19482 0.89996 0.09985
 C233 C -0.16906 0.90996 0.08892
 C234 C -0.16788 0.92302 0.06201
 C235 C -0.19294 0.92520 0.04595
 C236 C -0.21879 0.91524 0.05694
 C237 C -0.14076 0.93528 0.05137
 C238 C -0.13232 0.93181 0.02290
 C239 C -0.10670 0.94360 0.01316
 C240 C -0.08917 0.95927 0.03166
 C241 C -0.09775 0.96275 0.06008
 C242 C -0.12318 0.95088 0.06981
 H243 H -0.26391 0.87516 0.05763
 H244 H -0.30867 0.85982 0.07782
 H245 H -0.28177 0.89219 0.15998
 H246 H -0.23848 0.90939 0.13872
 H247 H -0.19497 0.88990 0.12062
 H248 H -0.15000 0.90749 0.10155
 H249 H -0.19271 0.93542 0.02526
 H250 H -0.23790 0.91798 0.04446
 H251 H -0.14538 0.91971 0.00828
 H252 H -0.10070 0.94056 -0.00885
 H253 H -0.08482 0.97474 0.07491
 H254 H -0.12932 0.95429 0.09173
 C255 C 0.74141 0.10800 0.59890
 C256 C 0.74678 0.10255 0.62773
 C257 C 0.77212 0.11149 0.64033
 C258 C 0.79309 0.12627 0.62450
 C259 C 0.78744 0.13158 0.59542
 C260 C 0.76206 0.12254 0.58287
 C261 C 0.71437 0.09839 0.58572
 C262 C 0.71408 0.08627 0.55838
 C263 C 0.68874 0.07594 0.54669
 C264 C 0.66320 0.07747 0.56212
 C265 C 0.66339 0.09029 0.58911
 C266 C 0.68865 0.10064 0.60076
 C267 C 0.63663 0.06473 0.55078
 C268 C 0.61879 0.04877 0.56879
 C269 C 0.59381 0.03656 0.55846
 C270 C 0.58595 0.04001 0.52984
 C271 C 0.60380 0.05594 0.51172
 C272 C 0.62896 0.06810 0.52208
 H273 H 0.73137 0.09119 0.64064
 H274 H 0.77439 0.10764 0.66288
 H275 H 0.80294 0.14181 0.58176
 H276 H 0.75852 0.12711 0.56058
 H277 H 0.73359 0.08398 0.54638
 H278 H 0.68930 0.06592 0.52596
 H279 H 0.64394 0.09228 0.60127
 H280 H 0.68805 0.11043 0.62159
 H281 H 0.62435 0.04538 0.59087
 H282 H 0.58064 0.02437 0.57302
 H283 H 0.59835 0.05900 0.48957
 H284 H 0.64224 0.08045 0.50776
 C285 C 0.40852 0.25102 0.39254
 C286 C 0.40821 0.25679 0.36323
 C287 C 0.39586 0.28186 0.35270
 C288 C 0.38295 0.30183 0.37115
 C289 C 0.38417 0.29623 0.40065
 C290 C 0.39686 0.27135 0.41111
 C291 C 0.41986 0.22342 0.40363
 C292 C 0.40658 0.20968 0.42674
 C293 C 0.41644 0.18335 0.43668
 C294 C 0.43967 0.16979 0.42360
 C295 C 0.45318 0.18362 0.40067
 C296 C 0.44344 0.21014 0.39085
 C297 C 0.44937 0.14122 0.43374
 C298 C 0.47843 0.13418 0.43443
 C299 C 0.48736 0.10754 0.44473
 C300 C 0.46744 0.08747 0.45479
 C301 C 0.43841 0.09435 0.45372
 C302 C 0.42949 0.12079 0.44319
 H303 H 0.41654 0.24141 0.34822
 H304 H 0.39496 0.28443 0.32986
 H305 H 0.37610 0.31137 0.41600
 H306 H 0.39757 0.26810 0.43390
 H307 H 0.38813 0.21899 0.43688
 H308 H 0.40582 0.17363 0.45472
 H309 H 0.47098 0.17371 0.38994
 H310 H 0.45443 0.22024 0.37325
 H311 H 0.49434 0.14950 0.42761
 H312 H 0.50988 0.10291 0.44539
 H313 H 0.42250 0.07925 0.46103
 H314 H 0.40693 0.12515 0.44234
 C315 C 0.90122 0.24562 0.60843
 C316 C 0.88724 0.22711 0.58945
 C317 C 0.87416 0.20204 0.59922
 C318 C 0.87424 0.19504 0.62832
 C319 C 0.88821 0.21357 0.64727
 C320 C 0.90178 0.23827 0.63743
 C321 C 0.91472 0.27266 0.59820
 C322 C 0.91508 0.29718 0.61550
 C323 C 0.92759 0.32258 0.60598
 C324 C 0.93955 0.32447 0.57862
 C325 C 0.93916 0.29997 0.56128
 C326 C 0.92715 0.27437 0.57103
 C327 C 0.95180 0.35198 0.56806
 C328 C 0.97499 0.35224 0.54909
 C329 C 0.98567 0.37806 0.53840
 C330 C 0.97384 0.40423 0.54689
 C331 C 0.95116 0.40412 0.56629
 C332 C 0.94007 0.37833 0.57651
 H333 H 0.88594 0.23215 0.56703
 H334 H 0.86401 0.18815 0.58390
 H335 H 0.88835 0.20931 0.66989
 H336 H 0.91275 0.25157 0.65269
 H337 H 0.90533 0.29700 0.63634
 H338 H 0.92789 0.34074 0.62021
 H339 H 0.94773 0.30060 0.53993
 H340 H 0.92776 0.25589 0.55723
 H341 H 0.98502 0.33250 0.54254
 H342 H 1.00331 0.37755 0.52359
 H343 H 0.94139 0.42399 0.57293
 H344 H 0.92184 0.37912 0.59052
 C345 C 0.10156 0.75682 -0.10894
 C346 C 0.13125 0.75342 -0.10872
 C347 C 0.14365 0.72795 -0.11797
 C348 C 0.12667 0.70515 -0.12750
 C349 C 0.09699 0.70849 -0.12766
 C350 C 0.08457 0.73403 -0.11851
 C351 C 0.08849 0.78402 -0.09909
 C352 C 0.06321 0.78382 -0.08307
 C353 C 0.05159 0.80938 -0.07295
 C354 C 0.06509 0.83565 -0.07848
 C355 C 0.09002 0.83591 -0.09493
 C356 C 0.10153 0.81043 -0.10520
 C357 C 0.05389 0.86262 -0.06629
 C358 C 0.07255 0.88232 -0.05369
 C359 C 0.06227 0.90760 -0.04182
 C360 C 0.03308 0.91392 -0.04241
 C361 C 0.01437 0.89428 -0.05514
 C362 C 0.02467 0.86879 -0.06683
 H363 H 0.14495 0.77037 -0.10112
 H364 H 0.16659 0.72626 -0.11796
 H365 H 0.08331 0.69123 -0.13466
 H366 H 0.06167 0.73604 -0.11925
 H367 H 0.05282 0.76384 -0.07768
 H368 H 0.03251 0.80854 -0.06007
 H369 H 0.10061 0.85591 -0.09991
 H370 H 0.12064 0.81143 -0.11800
 H371 H 0.09512 0.87795 -0.05264
 H372 H 0.07728 0.92224 -0.03219
 H373 H -0.00823 0.89852 -0.05591
 H374 H 0.00985 0.85403 -0.07657
 C375 C 0.59825 0.74957 1.10613
 C376 C 0.62793 0.75307 1.10630
 C377 C 0.64018 0.77858 1.11563
 C378 C 0.62309 0.80139 1.12481
 C379 C 0.59338 0.79807 1.12432
 C380 C 0.58110 0.77244 1.11511
 C381 C 0.58543 0.72208 1.09668
 C382 C 0.56040 0.72170 1.08037
 C383 C 0.54915 0.69581 1.07054
 C384 C 0.56282 0.66983 1.07666
 C385 C 0.58744 0.67014 1.09348
 C386 C 0.59854 0.69593 1.10347
 C387 C 0.55224 0.64254 1.06464
 C388 C 0.57139 0.62323 1.05223
 C389 C 0.56172 0.59763 1.04050
 C390 C 0.53268 0.59057 1.04110
 C391 C 0.51348 0.60980 1.05368
 C392 C 0.52316 0.63565 1.06517
 H393 H 0.64177 0.73608 1.09909
 H394 H 0.66313 0.78022 1.11614
 H395 H 0.57962 0.81533 1.13103
 H396 H 0.55819 0.77039 1.11548
 H397 H 0.54994 0.74145 1.07450
 H398 H 0.53029 0.69617 1.05740
 H399 H 0.59812 0.65037 1.09891
 H400 H 0.61743 0.69537 1.11656
 H401 H 0.59386 0.62816 1.05122
 H402 H 0.57709 0.58330 1.03101
 H403 H 0.49097 0.60499 1.05441
 H404 H 0.50799 0.65012 1.07476
 C405 C 0.38898 0.40067 1.24381
 C406 C 0.38962 0.37080 1.24750
 C407 C 0.38074 0.35835 1.27305
 C408 C 0.37112 0.37545 1.29562
 C409 C 0.37048 0.40532 1.29196
 C410 C 0.37927 0.41778 1.26635
 C411 C 0.39870 0.41383 1.21664
 C412 C 0.41452 0.43942 1.21657
 C413 C 0.42470 0.45102 1.19106
 C414 C 0.41944 0.43720 1.16511
 C415 C 0.40311 0.41201 1.16510
 C416 C 0.39279 0.40051 1.19054
 C417 C 0.43198 0.44821 1.13825
 C418 C 0.44483 0.42919 1.11911
 C419 C 0.45720 0.43926 1.09404
 C420 C 0.45689 0.46860 1.08735
 C421 C 0.44385 0.48767 1.10639
 C422 C 0.43165 0.47758 1.13170
 H423 H 0.39735 0.35701 1.23075
 H424 H 0.38119 0.33527 1.27505
 H425 H 0.36347 0.41912 1.30903
 H426 H 0.37823 0.44082 1.26413
 H427 H 0.41975 0.45004 1.23630
 H428 H 0.43749 0.47030 1.19172
 H429 H 0.39833 0.40116 1.14536
 H430 H 0.38015 0.38115 1.18975
 H431 H 0.44575 0.40651 1.12378
 H432 H 0.46704 0.42395 1.07987
 H433 H 0.44328 0.51039 1.10185
 H434 H 0.42173 0.49268 1.14602
 C435 C 0.60901 -0.09700 0.24989
 C436 C 0.60938 -0.12685 0.24629
 C437 C 0.61888 -0.13891 0.22088
 C438 C 0.62807 -0.12143 0.19831
 C439 C 0.62738 -0.09155 0.20173
 C440 C 0.61799 -0.07947 0.22724
 C441 C 0.59929 -0.08437 0.27720
 C442 C 0.58272 -0.05934 0.27762
 C443 C 0.57258 -0.04833 0.30333
 C444 C 0.57864 -0.06224 0.32912
 C445 C 0.59575 -0.08682 0.32878
 C446 C 0.60604 -0.09769 0.30316
 C447 C 0.56617 -0.05203 0.35620
 C448 C 0.55386 -0.07171 0.37517
 C449 C 0.54165 -0.06243 0.40055
 C450 C 0.54165 -0.03324 0.40771
 C451 C 0.55414 -0.01350 0.38882
 C452 C 0.56612 -0.02281 0.36319
 H453 H 0.60217 -0.14098 0.26310
 H454 H 0.61946 -0.16200 0.21910
 H455 H 0.63402 -0.07749 0.18463
 H456 H 0.61818 -0.05641 0.22938
 H457 H 0.57688 -0.04872 0.25800
 H458 H 0.55921 -0.02950 0.30299
 H459 H 0.60114 -0.09768 0.34840
 H460 H 0.61932 -0.11658 0.30368
 H461 H 0.55327 -0.09431 0.37016
 H462 H 0.53224 -0.07821 0.41461
 H463 H 0.55442 0.00912 0.39373
 H464 H 0.57562 -0.00723 0.34897
 C465 C -0.11604 1.09269 -0.24704
 C466 C -0.11499 1.12247 -0.25115
 C467 C -0.12418 1.13467 -0.27660
 C468 C -0.13451 1.11743 -0.29873
 C469 C -0.13540 1.08760 -0.29479
 C470 C -0.12621 1.07535 -0.26921
 C471 C -0.10635 1.08006 -0.21971
 C472 C -0.09025 1.05474 -0.21917
 C473 C -0.07954 1.04412 -0.19348
 C474 C -0.08462 1.05870 -0.16789
 C475 C -0.10149 1.08345 -0.16833
 C476 C -0.11230 1.09395 -0.19390
 C477 C -0.07134 1.04907 -0.14096
 C478 C -0.05854 1.06916 -0.12287
 C479 C -0.04573 1.06045 -0.09758
 C480 C -0.04554 1.03144 -0.08964
 C481 C -0.05841 1.01128 -0.10769
 C482 C -0.07105 1.02001 -0.13321
 H483 H -0.10684 1.13642 -0.23471
 H484 H -0.12355 1.15774 -0.27880
 H485 H -0.14301 1.07373 -0.31153
 H486 H -0.12743 1.05235 -0.26664
 H487 H -0.08510 1.04367 -0.23869
 H488 H -0.06642 1.02511 -0.19376
 H489 H -0.10620 1.09480 -0.14885
 H490 H -0.12521 1.11310 -0.19349
 H491 H -0.05809 1.09164 -0.12849
 H492 H -0.03601 1.07655 -0.08420
 H493 H -0.05857 0.98877 -0.10218
 H494 H -0.08089 1.00411 -0.14672
 C495 C 1.11034 0.59848 0.75180
 C496 C 1.13936 0.59746 0.75883
 C497 C 1.14948 0.61063 0.78344
 C498 C 1.13079 0.62468 0.80213
 C499 C 1.10169 0.62529 0.79538
 C500 C 1.09165 0.61259 0.77044
 C501 C 1.09975 0.58523 0.72499
 C502 C 1.07244 0.57301 0.72362
 C503 C 1.06232 0.56126 0.69827
 C504 C 1.07939 0.56092 0.67369
 C505 C 1.10688 0.57267 0.67523
 C506 C 1.11679 0.58491 0.70040
 C507 C 1.06843 0.54887 0.64648
 C508 C 1.07667 0.56080 0.62021
 C509 C 1.06614 0.54986 0.59471
 C510 C 1.04664 0.52709 0.59482
 C511 C 1.03833 0.51508 0.62093
 C512 C 1.04932 0.52564 0.64645
 H513 H 1.15440 0.58638 0.74538
 H514 H 1.17209 0.61008 0.78756
 H515 H 1.08655 0.63550 0.80939
 H516 H 1.06923 0.61426 0.76564
 H517 H 1.05882 0.57236 0.74216
 H518 H 1.04088 0.55284 0.69792
 H519 H 1.12091 0.57240 0.65698
 H520 H 1.13774 0.59449 0.70036
 H521 H 1.09080 0.57908 0.61926
 H522 H 1.07266 0.55975 0.57489
 H523 H 1.02347 0.49737 0.62161
 H524 H 1.04292 0.51544 0.66612
 C525 C 0.75809 0.60822 0.59922
 C526 C 0.73574 0.58938 0.60589
 C527 C 0.71070 0.59964 0.61822
 C528 C 0.70742 0.62898 0.62372
 C529 C 0.72963 0.64785 0.61669
 C530 C 0.75479 0.63755 0.60473
 C531 C 0.78506 0.59723 0.58719
 C532 C 0.81122 0.60611 0.59849
 C533 C 0.83667 0.59510 0.58788
 C534 C 0.83650 0.57526 0.56550
 C535 C 0.81037 0.56677 0.55380
 C536 C 0.78486 0.57750 0.56470
 C537 C 0.86348 0.56280 0.55508
 C538 C 0.86928 0.56099 0.52583
 C539 C 0.89486 0.54917 0.51622
 C540 C 0.91487 0.53852 0.53570
 C541 C 0.90891 0.54024 0.56494
 C542 C 0.88359 0.55241 0.57451
 H543 H 0.73786 0.56664 0.60206
 H544 H 0.69381 0.58470 0.62329
 H545 H 0.72769 0.67054 0.62090
 H546 H 0.77165 0.65252 0.59963
 H547 H 0.81194 0.62115 0.61596
 H548 H 0.85655 0.60211 0.59713
 H549 H 0.80968 0.55136 0.53666
 H550 H 0.76496 0.57047 0.55550
 H551 H 0.85414 0.56900 0.51044
 H552 H 0.89883 0.54807 0.49356
 H553 H 0.92391 0.53229 0.58049
 H554 H 0.87951 0.55331 0.59716
 C555 C 0.74641 0.39340 1.10494
 C556 C 0.75352 0.36423 1.10331
 C557 C 0.77823 0.35388 1.11604
 C558 C 0.79695 0.37247 1.13024
 C559 C 0.79001 0.40170 1.13167
 C560 C 0.76497 0.41197 1.11940
 C561 C 0.71973 0.40428 1.09173
 C562 C 0.71850 0.43194 1.07992
 C563 C 0.69337 0.44218 1.06783
 C564 C 0.66889 0.42489 1.06674
 C565 C 0.67025 0.39710 1.07822
 C566 C 0.69519 0.38707 1.09079
 C567 C 0.64198 0.43588 1.05411
 C568 C 0.61546 0.42736 1.06517
 C569 C 0.59023 0.43789 1.05362
 C570 C 0.59087 0.45766 1.03112
 C571 C 0.61724 0.46624 1.01997
 C572 C 0.64249 0.45525 1.03113
 H573 H 0.74012 0.34928 1.09199
 H574 H 0.78249 0.33115 1.11491
 H575 H 0.80403 0.41676 1.14207
 H576 H 0.76007 0.43448 1.12155
 H577 H 0.73701 0.44570 1.07978
 H578 H 0.69311 0.46385 1.05968
 H579 H 0.65208 0.38291 1.07739
 H580 H 0.69505 0.36585 1.10005
 H581 H 0.61409 0.41302 1.08322
 H582 H 0.57020 0.43116 1.06285
 H583 H 0.61832 0.48132 1.00248
 H584 H 0.66240 0.46186 1.02159
 C585 C 0.24316 1.11539 -0.10625
 C586 C 0.25928 1.09738 -0.12379
 C587 C 0.28423 1.10717 -0.13666
 C588 C 0.29388 1.13559 -0.13281
 C589 C 0.27725 1.15362 -0.11533
 C590 C 0.25248 1.14362 -0.10219
 C591 C 0.21676 1.10470 -0.09231
 C592 C 0.19308 1.12267 -0.08883
 C593 C 0.16819 1.11244 -0.07612
 C594 C 0.16618 1.08385 -0.06688
 C595 C 0.18991 1.06593 -0.07027
 C596 C 0.21492 1.07627 -0.08261
 C597 C 0.13934 1.07254 -0.05435
 C598 C 0.13999 1.05175 -0.03266
 C599 C 0.11481 1.04002 -0.02198
 C600 C 0.08837 1.04913 -0.03238
 C601 C 0.08761 1.07042 -0.05347
 C602 C 0.11279 1.08185 -0.06448
 H603 H 0.25262 1.07557 -0.12773
 H604 H 0.29628 1.09172 -0.14872
 H605 H 0.28245 1.17592 -0.11226
 H606 H 0.24071 1.15810 -0.08867
 H607 H 0.19357 1.14459 -0.09632
 H608 H 0.15052 1.12700 -0.07349
 H609 H 0.18909 1.04369 -0.06383
 H610 H 0.23285 1.06192 -0.08446
 H611 H 0.15997 1.04452 -0.02387
 H612 H 0.11604 1.02382 -0.00552
 H613 H 0.06753 1.07771 -0.06205
 H614 H 0.11141 1.09743 -0.08148
 C615 C 0.25261 -0.11653 0.39591
 C616 C 0.24740 -0.11205 0.36691
 C617 C 0.22227 -0.12170 0.35444
 C618 C 0.20137 -0.13629 0.37058
 C619 C 0.20690 -0.14069 0.39982
 C620 C 0.23206 -0.13088 0.41224
 C621 C 0.27940 -0.10613 0.40898
 C622 C 0.27919 -0.09293 0.43579
 C623 C 0.30432 -0.08228 0.44758
 C624 C 0.33022 -0.08470 0.43286
 C625 C 0.33048 -0.09829 0.40624
 C626 C 0.30536 -0.10886 0.39444
 C627 C 0.35680 -0.07253 0.44483
 C628 C 0.38267 -0.08730 0.44230
 C629 C 0.40787 -0.07530 0.45254
 C630 C 0.40777 -0.04824 0.46553
 C631 C 0.38183 -0.03366 0.46842
 C632 C 0.35663 -0.04568 0.45820
 H633 H 0.26277 -0.10089 0.35377
 H634 H 0.22009 -0.11860 0.33177
 H635 H 0.19146 -0.15078 0.41365
 H636 H 0.23552 -0.13471 0.43468
 H637 H 0.25948 -0.09031 0.44740
 H638 H 0.30349 -0.07219 0.46825
 H639 H 0.35003 -0.10023 0.39424
 H640 H 0.30627 -0.11924 0.37390
 H641 H 0.38341 -0.10820 0.43244
 H642 H 0.42746 -0.08716 0.45007
 H643 H 0.38100 -0.01276 0.47828
 H644 H 0.33711 -0.03362 0.46016
 C645 C 0.60292 -0.24931 0.60563
 C646 C 0.58696 -0.26994 0.62036
 C647 C 0.59986 -0.29468 0.63095
 C648 C 0.62925 -0.29967 0.62703
 C649 C 0.64499 -0.27884 0.61183
 C650 C 0.63202 -0.25410 0.60140
 C651 C 0.58934 -0.22274 0.59492
 C652 C 0.60326 -0.19625 0.59751
 C653 C 0.59064 -0.17123 0.58731
 C654 C 0.56382 -0.17212 0.57425
 C655 C 0.54984 -0.19860 0.57172
 C656 C 0.56244 -0.22363 0.58201
 C657 C 0.55077 -0.14554 0.56291
 C658 C 0.53700 -0.14553 0.53643
 C659 C 0.52589 -0.12021 0.52517
 C660 C 0.52825 -0.09434 0.54018
 C661 C 0.54150 -0.09448 0.56694
 C662 C 0.55265 -0.11978 0.57816
 H663 H 0.56445 -0.26683 0.62400
 H664 H 0.58629 -0.31020 0.64133
 H665 H 0.66769 -0.28071 0.60888
 H666 H 0.64487 -0.23864 0.58994
 H667 H 0.62385 -0.19483 0.60764
 H668 H 0.60209 -0.15122 0.58928
 H669 H 0.52906 -0.19992 0.56197
 H670 H 0.55130 -0.24376 0.57950
 H671 H 0.53548 -0.16498 0.52405
 H672 H 0.51585 -0.12084 0.50448
 H673 H 0.54360 -0.07495 0.57911
 H674 H 0.56276 -0.11920 0.59881
 C675 C 1.09672 0.74265 0.38785
 C676 C 1.10367 0.76517 0.40632
 C677 C 1.11653 0.79007 0.39587
 C678 C 1.12230 0.79305 0.36671
 C679 C 1.11486 0.77074 0.34818
 C680 C 1.10235 0.74571 0.35867
 C681 C 1.08456 0.71564 0.39909
 C682 C 1.09581 0.68921 0.39054
 C683 C 1.08527 0.66369 0.40195
 C684 C 1.06302 0.66408 0.42188
 C685 C 1.05131 0.69045 0.42999
 C686 C 1.06214 0.71604 0.41885
 C687 C 1.05288 0.63705 0.43492
 C688 C 1.02371 0.63095 0.43704
 C689 C 1.01440 0.60528 0.44936
 C690 C 1.03412 0.58551 0.46021
 C691 C 1.06328 0.59180 0.45820
 C692 C 1.07254 0.61719 0.44553
 H693 H 1.09975 0.76323 0.42894
 H694 H 1.12192 0.80705 0.41054
 H695 H 1.11928 0.77243 0.32563
 H696 H 1.09705 0.72872 0.34398
 H697 H 1.11324 0.68832 0.37550
 H698 H 1.09453 0.64361 0.39525
 H699 H 1.03426 0.69129 0.44546
 H700 H 1.05299 0.73615 0.42563
 H701 H 1.00816 0.64590 0.42888
 H702 H 0.99181 0.60103 0.45068
 H703 H 1.07901 0.57699 0.46628
 H704 H 1.09514 0.62152 0.44440
 C705 C -0.09868 1.25129 0.10999
 C706 C -0.12743 1.25719 0.10498
 C707 C -0.13990 1.28204 0.11558
 C708 C -0.12403 1.30192 0.13173
 C709 C -0.09494 1.29592 0.13630
 C710 C -0.08249 1.27105 0.12549
 C711 C -0.08589 1.22435 0.09937
 C712 C -0.05882 1.22429 0.08674
 C713 C -0.04724 1.19890 0.07614
 C714 C -0.06242 1.17304 0.07816
 C715 C -0.08934 1.17309 0.09110
 C716 C -0.10095 1.19844 0.10156
 C717 C -0.05059 1.14613 0.06638
 C718 C -0.05364 1.12019 0.08126
 C719 C -0.04370 1.09462 0.06961
 C720 C -0.03053 1.09439 0.04277
 C721 C -0.02707 1.12042 0.02808
 C722 C -0.03695 1.14601 0.03979
 H723 H -0.14041 1.24245 0.09289
 H724 H -0.16246 1.28464 0.11212
 H725 H -0.08128 1.31069 0.14750
 H726 H -0.06022 1.26706 0.12965
 H727 H -0.04681 1.24397 0.08460
 H728 H -0.02634 1.19947 0.06649
 H729 H -0.10169 1.15357 0.09271
 H730 H -0.12171 1.19775 0.11150
 H731 H -0.06372 1.11968 0.10196
 H732 H -0.04660 1.07499 0.08155
 H733 H -0.01702 1.12099 0.00736
 H734 H -0.03456 1.16562 0.02769
 C735 C 0.40353 0.25288 0.88609
 C736 C 0.38973 0.23353 0.90448
 C737 C 0.37645 0.20902 0.89387
 C738 C 0.37604 0.20348 0.86450
 C739 C 0.39006 0.22269 0.84614
 C740 C 0.40387 0.24685 0.85681
 C741 C 0.41682 0.27957 0.89727
 C742 C 0.41675 0.30488 0.88101
 C743 C 0.42851 0.33010 0.89168
 C744 C 0.44012 0.33097 0.91920
 C745 C 0.44036 0.30564 0.93542
 C746 C 0.42912 0.28024 0.92450
 C747 C 0.45128 0.35831 0.93112
 C748 C 0.47419 0.35840 0.95034
 C749 C 0.48388 0.38401 0.96222
 C750 C 0.47131 0.41016 0.95470
 C751 C 0.44883 0.41024 0.93514
 C752 C 0.43873 0.38462 0.92374
 H753 H 0.38862 0.23752 0.92710
 H754 H 0.36644 0.19447 0.90878
 H755 H 0.38996 0.21942 0.82338
 H756 H 0.41475 0.26082 0.84198
 H757 H 0.40711 0.30548 0.86015
 H758 H 0.42842 0.34894 0.87826
 H759 H 0.44873 0.30544 0.95682
 H760 H 0.43010 0.26113 0.93751
 H761 H 0.48483 0.33872 0.95612
 H762 H 0.50141 0.38340 0.97711
 H763 H 0.43853 0.43008 0.92922
 H764 H 0.42064 0.38549 0.90960
 C765 C 0.61354 0.59875 0.75162
 C766 C 0.62310 0.58150 0.72910
 C767 C 0.63322 0.59389 0.70393
 C768 C 0.63400 0.62380 0.70071
 C769 C 0.62447 0.64101 0.72325
 C770 C 0.61430 0.62864 0.74833
 C771 C 0.60278 0.58574 0.77845
 C772 C 0.60910 0.59830 0.80482
 C773 C 0.59830 0.58669 0.83001
 C774 C 0.58099 0.56214 0.82950
 C775 C 0.57498 0.54934 0.80316
 C776 C 0.58574 0.56101 0.77793
 C777 C 0.56883 0.55039 0.85631
 C778 C 0.54079 0.53997 0.85713
 C779 C 0.52898 0.52998 0.88258
 C780 C 0.54489 0.53028 0.90784
 C781 C 0.57305 0.54031 0.90695
 C782 C 0.58490 0.55018 0.88148
 H783 H 0.62307 0.55841 0.73105
 H784 H 0.64025 0.58006 0.68688
 H785 H 0.62519 0.66412 0.72165
 H786 H 0.60677 0.64255 0.76509
 H787 H 0.62248 0.61712 0.80603
 H788 H 0.60308 0.59729 0.84988
 H789 H 0.56200 0.53022 0.80204
 H790 H 0.58026 0.55096 0.75796
 H791 H 0.52770 0.54019 0.83823
 H792 H 0.50719 0.52248 0.88254
 H793 H 0.58596 0.54066 0.92599
 H794 H 0.60670 0.55761 0.88150
 C795 C 0.38599 0.10022 0.74049
 C796 C 0.38796 0.13005 0.74372
 C797 C 0.37835 0.14322 0.76854
 C798 C 0.36661 0.12686 0.79076
 C799 C 0.36477 0.09701 0.78761
 C800 C 0.37434 0.08383 0.76275
 C801 C 0.39611 0.08632 0.71399
 C802 C 0.41091 0.06024 0.71506
 C803 C 0.42103 0.04757 0.69016
 C804 C 0.41661 0.06071 0.66362
 C805 C 0.40151 0.08661 0.66253
 C806 C 0.39135 0.09924 0.68741
 C807 C 0.42839 0.04795 0.63723
 C808 C 0.41287 0.04869 0.61172
 C809 C 0.42460 0.03802 0.58659
 C810 C 0.45208 0.02629 0.58642
 C811 C 0.46734 0.02498 0.61205
 C812 C 0.45565 0.03573 0.63715
 H813 H 0.39718 0.14324 0.72713
 H814 H 0.37977 0.16628 0.77018
 H815 H 0.35607 0.08381 0.80447
 H816 H 0.37229 0.06084 0.76080
 H817 H 0.41513 0.04987 0.73522
 H818 H 0.43231 0.02746 0.69167
 H819 H 0.39803 0.09745 0.64247
 H820 H 0.37970 0.11913 0.68583
 H821 H 0.39164 0.05756 0.61118
 H822 H 0.41222 0.03921 0.56724
 H823 H 0.48860 0.01617 0.61265
 H824 H 0.46830 0.03517 0.65634
 C825 C 0.10890 0.89760 0.24376
 C826 C 0.10908 0.86761 0.24615
 C827 C 0.11910 0.85435 0.27081
 C828 C 0.12911 0.87076 0.29370
 C829 C 0.12874 0.90076 0.29142
 C830 C 0.11879 0.91402 0.26672
 C831 C 0.09848 0.91165 0.21741
 C832 C 0.08210 0.93674 0.21880
 C833 C 0.07198 0.94969 0.19400
 C834 C 0.07795 0.93782 0.16722
 C835 C 0.09451 0.91285 0.16583
 C836 C 0.10469 0.89996 0.19061
 C837 C 0.06645 0.95097 0.14086
 C838 C 0.08281 0.95187 0.11584
 C839 C 0.07146 0.96293 0.09069
 C840 C 0.04351 0.97346 0.09000
 C841 C 0.02737 0.97318 0.11517
 C842 C 0.03869 0.96201 0.14029
 H843 H 0.10124 0.85434 0.22903
 H844 H 0.11936 0.83120 0.27181
 H845 H 0.13598 0.91401 0.30882
 H846 H 0.11920 0.93716 0.26546
 H847 H 0.07670 0.94614 0.23912
 H848 H 0.05954 0.96907 0.19579
 H849 H 0.09921 0.90295 0.14559
 H850 H 0.11757 0.88088 0.18877
 H851 H 0.10443 0.94398 0.11569
 H852 H 0.08451 0.96298 0.07171
 H853 H 0.00574 0.98103 0.11535
 H854 H 0.02538 0.96131 0.15907
 C855 C 0.88955 0.39874 0.25996
 C856 C 0.89011 0.36899 0.25552
 C857 C 0.88006 0.35724 0.23018
 C858 C 0.86938 0.37494 0.20851
 C859 C 0.86883 0.40469 0.21289
 C860 C 0.87876 0.41645 0.23833
 C861 C 0.90037 0.41112 0.28697
 C862 C 0.91586 0.43691 0.28699
 C863 C 0.92689 0.44792 0.31231
 C864 C 0.92285 0.43327 0.33811
 C865 C 0.90697 0.40779 0.33820
 C866 C 0.89578 0.39690 0.31296
 C867 C 0.93588 0.44394 0.36475
 C868 C 0.94980 0.42486 0.38312
 C869 C 0.96233 0.43466 0.40815
 C870 C 0.96106 0.46376 0.41554
 C871 C 0.94705 0.48289 0.39720
 C872 C 0.93472 0.47308 0.37196
 H873 H 0.89863 0.35474 0.27154
 H874 H 0.88039 0.33422 0.22770
 H875 H 0.86095 0.41893 0.19652
 H876 H 0.87772 0.43941 0.24115
 H877 H 0.92011 0.44822 0.26732
 H878 H 0.93929 0.46745 0.31160
 H879 H 0.90314 0.39631 0.35787
 H880 H 0.88343 0.37735 0.31384
 H881 H 0.95134 0.40235 0.37793
 H882 H 0.97294 0.41934 0.42178
 H883 H 0.94573 0.50543 0.40229
 H884 H 0.92396 0.48821 0.35824
   
