data_POSCAR
  _audit_creation_date              2014-09-24
  _audit_creation_method            'ToBaCCo'
  _symmetry_space_group_name_H-M    'P1'
  _symmetry_Int_Tables_number       1
  _symmetry_cell_setting            triclinic
  loop_
  _symmetry_equiv_pos_as_xyz
 x,y,z
_cell_length_a 49.4976
_cell_length_b 50.2469
_cell_length_c 28.8280
_cell_angle_alpha 89.974100
_cell_angle_beta 90.037500
_cell_angle_gamma 118.641600
loop_
  _atom_site_label
  _atom_site_type_symbol
  _atom_site_fract_x
  _atom_site_fract_y
  _atom_site_fract_z
C1 C 0.44169 0.90815 0.47795
 C2 C 0.44196 0.90807 0.52545
 C3 C 0.46423 0.93681 0.53957
 N4 N 0.47782 0.95402 0.50173
 C5 C 0.46401 0.93663 0.46418
 C6 C 0.47505 0.94560 0.58575
 C7 C 0.49800 0.97586 0.59637
 C8 C 0.51579 0.98518 0.63654
 C9 C 0.53170 1.01622 0.63591
 C10 C 0.52300 1.02554 0.59606
 N11 N 0.50287 1.00086 0.57174
 C12 C 0.53275 1.05629 0.58423
 C13 C 0.53243 1.06524 0.53763
 C14 C 0.53649 1.09334 0.52327
 C15 C 0.53631 1.09307 0.47576
 C16 C 0.53124 1.06457 0.46250
 N17 N 0.52901 1.04764 0.50027
 C18 C 0.53079 1.05524 0.41627
 C19 C 0.51989 1.02466 0.40364
 C20 C 0.52345 1.01484 0.36024
 C21 C 0.50686 0.98372 0.36065
 C22 C 0.49341 0.97538 0.40416
 N23 N 0.50149 1.00046 0.43014
 C24 C 0.47274 0.94536 0.41768
 H25 H 0.42721 0.88906 0.45610
 H26 H 0.42809 0.88833 0.54632
 H27 H 0.49199 1.00125 0.46191
 H28 H 0.51761 0.97177 0.66432
 H29 H 0.54788 1.03028 0.66216
 H30 H 0.53891 1.11211 0.54443
 H31 H 0.53928 1.11168 0.45365
 H32 H 0.50458 0.96897 0.33186
 H33 H 0.49022 1.00128 0.54314
 H34 H 0.53610 1.02859 0.33090
 C35 C -0.09465 0.46245 0.47562
 C36 C -0.09472 0.46318 0.52303
 C37 C -0.06605 0.46787 0.53748
 N38 N -0.04831 0.47028 0.50022
 C39 C -0.06596 0.46661 0.46226
 C40 C -0.05664 0.46991 0.58443
 C41 C -0.02508 0.48350 0.59690
 C42 C -0.01386 0.47891 0.63862
 C43 C 0.01740 0.49754 0.63840
 C44 C 0.02460 0.51276 0.59636
 N45 N -0.00139 0.50396 0.57105
 C46 C 0.05451 0.53499 0.58336
 C47 C 0.06296 0.54403 0.53702
 C48 C 0.09105 0.56755 0.52292
 C49 C 0.09109 0.56682 0.47535
 C50 C 0.06293 0.54299 0.46208
 N51 N 0.04585 0.52905 0.49984
 C52 C 0.05465 0.53225 0.41636
 C53 C 0.02499 0.50896 0.40432
 C54 C 0.01778 0.49274 0.36317
 C55 C -0.01347 0.47404 0.36322
 C56 C -0.02477 0.47980 0.40392
 N57 N -0.00107 0.50084 0.42911
 C58 C -0.05639 0.46709 0.41570
 H59 H -0.11332 0.46034 0.45370
 H60 H -0.11343 0.46168 0.54421
 H61 H -0.00312 0.51157 0.45875
 H62 H -0.02674 0.46350 0.66633
 H63 H 0.03309 0.49943 0.66596
 H64 H 0.10981 0.58320 0.54462
 H65 H 0.11004 0.58164 0.45325
 H66 H -0.02632 0.45806 0.33611
 H67 H -0.00334 0.51360 0.54011
 H68 H 0.03325 0.49419 0.33564
 C69 C 0.55706 0.46300 0.47675
 C70 C 0.55704 0.46281 0.52426
 C71 C 0.53277 0.46744 0.53837
 N72 N 0.51853 0.47121 0.50086
 C73 C 0.53345 0.46864 0.46324
 C74 C 0.52328 0.46726 0.58485
 C75 C 0.50189 0.47752 0.59639
 C76 C 0.48381 0.46914 0.63593
 C77 C 0.46821 0.48545 0.63637
 C78 C 0.47649 0.50320 0.59641
 N79 N 0.49692 0.49787 0.57206
 C80 C 0.46866 0.52643 0.58574
 C81 C 0.47052 0.53720 0.53954
 C82 C 0.46352 0.55968 0.52525
 C83 C 0.46391 0.55988 0.47775
 C84 C 0.47064 0.53733 0.46415
 N85 N 0.47451 0.52344 0.50180
 C86 C 0.47089 0.52853 0.41771
 C87 C 0.48087 0.50762 0.40436
 C88 C 0.47616 0.49424 0.36093
 C89 C 0.49124 0.47732 0.36069
 C90 C 0.50454 0.48062 0.40413
 N91 N 0.49817 0.49918 0.43048
 C92 C 0.52459 0.46925 0.41695
 H93 H 0.57290 0.45966 0.45480
 H94 H 0.57346 0.45998 0.54559
 H95 H 0.50819 0.50847 0.46224
 H96 H 0.48195 0.45288 0.66207
 H97 H 0.45277 0.48386 0.66385
 H98 H 0.45729 0.57378 0.54598
 H99 H 0.45897 0.57450 0.45578
 H100 H 0.49272 0.46461 0.33143
 H101 H 0.50985 0.51027 0.54368
 H102 H 0.46358 0.49677 0.33206
 O103 O 0.37789 0.67281 -0.05349
 O104 O 0.37890 0.72447 -0.03765
 C105 C 0.35963 0.72876 -0.06133
 O106 O 0.33094 0.71494 -0.05349
 O107 O 0.27900 0.66561 -0.03833
 C108 C 0.27543 0.64277 -0.06196
 O109 O 0.29007 0.62838 -0.05384
 O110 O 0.34074 0.62588 -0.03814
 C111 C 0.36382 0.64458 -0.06163
 O112 O 0.37922 0.66336 0.03852
 O113 O 0.37725 0.71358 0.05435
 C114 C 0.36291 0.72827 0.06244
 O115 O 0.33988 0.72510 0.03868
 O116 O 0.28932 0.67434 0.05374
 C117 C 0.27522 0.64611 0.06189
 O118 O 0.27932 0.62695 0.03831
 O119 O 0.33135 0.62734 0.05393
 C120 C 0.36000 0.64081 0.06209
 Cr121 Cr 0.37668 0.69279 0.00043
 Cr122 Cr 0.31062 0.69417 0.00015
 Cr123 Cr 0.31116 0.62873 0.00005
 O124 O 0.33281 0.67190 0.00020
 O125 O 0.62146 0.32825 -0.05358
 O126 O 0.62077 0.27663 -0.03841
 C127 C 0.64022 0.27281 -0.06226
 O128 O 0.66888 0.28705 -0.05453
 O129 O 0.72010 0.33654 -0.04007
 C130 C 0.72379 0.35991 -0.06236
 O131 O 0.70935 0.37433 -0.05302
 O132 O 0.65776 0.37542 -0.03718
 C133 C 0.63500 0.35655 -0.06111
 O134 O 0.61966 0.33693 0.03875
 O135 O 0.62228 0.28693 0.05344
 C136 C 0.63717 0.27277 0.06151
 O137 O 0.66054 0.27665 0.03800
 O138 O 0.71062 0.32761 0.05266
 C139 C 0.72450 0.35576 0.06126
 O140 O 0.71993 0.37491 0.03849
 O141 O 0.66726 0.37336 0.05464
 C142 C 0.63861 0.35948 0.06261
 Cr143 Cr 0.62269 0.30803 0.00002
 Cr144 Cr 0.68921 0.30777 -0.00093
 Cr145 Cr 0.68774 0.37285 0.00070
 O146 O 0.66659 0.32955 -0.00007
 C147 C 0.44008 0.88099 -0.31035
 N148 N 0.42096 0.88440 -0.34063
 N149 N 0.43229 0.90524 -0.37404
 C150 C 0.46315 0.92358 -0.37855
 N151 N 0.48211 0.92001 -0.34808
 N152 N 0.47086 0.89918 -0.31471
 C153 C 0.42778 0.85804 -0.27347
 N154 N 0.44716 0.85391 -0.24467
 N155 N 0.43613 0.83315 -0.21114
 C156 C 0.40532 0.81579 -0.20510
 N157 N 0.38591 0.81992 -0.23389
 N158 N 0.39694 0.84066 -0.26750
 C159 C 0.39330 0.79303 -0.16794
 N160 N 0.36255 0.77655 -0.16022
 N161 N 0.35177 0.75604 -0.12628
 C162 C 0.37136 0.75123 -0.09890
 N163 N 0.40209 0.76768 -0.10671
 N164 N 0.41286 0.78821 -0.14057
 C165 C 0.12193 0.56959 -0.31266
 N166 N 0.12539 0.55501 -0.34996
 N167 N 0.10412 0.54431 -0.38324
 C168 C 0.07856 0.54769 -0.38033
 N169 N 0.07503 0.56218 -0.34297
 N170 N 0.09640 0.57304 -0.30982
 C171 C 0.14522 0.58106 -0.27574
 N172 N 0.14405 0.59913 -0.24167
 N173 N 0.16507 0.60932 -0.20800
 C174 C 0.18790 0.60165 -0.20699
 N175 N 0.18903 0.58354 -0.24101
 N176 N 0.16813 0.57351 -0.27485
 C177 C 0.21081 0.61253 -0.16953
 N178 N 0.23063 0.60119 -0.16439
 N179 N 0.25120 0.61080 -0.13009
 C180 C 0.25283 0.63224 -0.09986
 N181 N 0.23311 0.64367 -0.10514
 N182 N 0.21241 0.63392 -0.13926
 C183 C 0.43812 0.56240 -0.31051
 N184 N 0.42646 0.53198 -0.31465
 N185 N 0.43633 0.52042 -0.34797
 C186 C 0.45822 0.53867 -0.37863
 N187 N 0.46981 0.56917 -0.37432
 N188 N 0.46001 0.58082 -0.34095
 C189 C 0.42713 0.57502 -0.27369
 N190 N 0.43969 0.60547 -0.26781
 N191 N 0.42966 0.61678 -0.23424
 C192 C 0.40667 0.59804 -0.20544
 N193 N 0.39411 0.56761 -0.21139
 N194 N 0.40418 0.55632 -0.24486
 C195 C 0.39554 0.61032 -0.16832
 N196 N 0.37165 0.59140 -0.14107
 N197 N 0.36153 0.60237 -0.10721
 C198 C 0.37496 0.63268 -0.09927
 N199 N 0.39886 0.65163 -0.12653
 N200 N 0.40895 0.64065 -0.16048
 C201 C 0.56495 0.12073 -0.31143
 N202 N 0.57751 0.12765 -0.35446
 N203 N 0.56708 0.10697 -0.38814
 C204 C 0.54385 0.07843 -0.38014
 N205 N 0.53158 0.07159 -0.33676
 N206 N 0.54177 0.09233 -0.30319
 C207 C 0.57618 0.14359 -0.27443
 N208 N 0.55919 0.13949 -0.23552
 N209 N 0.56928 0.16031 -0.20202
 C210 C 0.59686 0.18582 -0.20603
 N211 N 0.61392 0.18985 -0.24484
 N212 N 0.60369 0.16918 -0.27856
 C213 C 0.60809 0.20859 -0.16890
 N214 N 0.63820 0.22995 -0.16692
 N215 N 0.64846 0.25038 -0.13288
 C216 C 0.62890 0.25040 -0.09988
 N217 N 0.59875 0.22917 -0.10205
 N218 N 0.58856 0.20854 -0.13581
 C219 C 0.87755 0.43650 -0.31200
 N220 N 0.87198 0.42250 -0.35385
 N221 N 0.89309 0.43335 -0.38733
 C222 C 0.92081 0.45836 -0.38014
 N223 N 0.92631 0.47211 -0.33795
 N224 N 0.90505 0.46155 -0.30470
 C225 C 0.85424 0.42489 -0.27523
 N226 N 0.85427 0.44365 -0.24136
 N227 N 0.83310 0.43322 -0.20795
 C228 C 0.81142 0.40354 -0.20683
 N229 N 0.81151 0.38471 -0.24053
 N230 N 0.83241 0.39525 -0.27434
 C231 C 0.78840 0.39206 -0.16965
 N232 N 0.77455 0.36234 -0.15740
 N233 N 0.75404 0.35209 -0.12304
 C234 C 0.74633 0.37111 -0.10020
 N235 N 0.75999 0.40077 -0.11274
 N236 N 0.78082 0.41110 -0.14662
 C237 C 0.55601 0.43399 -0.31038
 N238 N 0.55105 0.42178 -0.35353
 N239 N 0.54064 0.43256 -0.38733
 C240 C 0.53449 0.45580 -0.37937
 N241 N 0.53923 0.46772 -0.33587
 N242 N 0.54994 0.45717 -0.30216
 C243 C 0.56785 0.42240 -0.27326
 N244 N 0.58003 0.43891 -0.23415
 N245 N 0.59100 0.42851 -0.20058
 C246 C 0.58989 0.40108 -0.20470
 N247 N 0.57755 0.38450 -0.24370
 N248 N 0.56687 0.39504 -0.27749
 C249 C 0.60176 0.38954 -0.16755
 N250 N 0.59406 0.35974 -0.16583
 N251 N 0.60458 0.34921 -0.13183
 C252 C 0.62345 0.36816 -0.09861
 N253 N 0.63131 0.39800 -0.10050
 N254 N 0.62053 0.40847 -0.13423
 C255 C 0.87843 0.43262 0.31113
 N256 N 0.90660 0.45657 0.30309
 N257 N 0.92761 0.46745 0.33669
 C258 C 0.92127 0.45508 0.37992
 N259 N 0.89291 0.43111 0.38779
 N260 N 0.87197 0.42000 0.35405
 C261 C 0.85531 0.42083 0.27402
 N262 N 0.83014 0.39306 0.27765
 N263 N 0.80927 0.38245 0.24375
 C264 C 0.81268 0.39937 0.20526
 N265 N 0.83777 0.42719 0.20177
 N266 N 0.85878 0.43766 0.23542
 C267 C 0.78965 0.38792 0.16801
 N268 N 0.78897 0.40716 0.13552
 N269 N 0.76810 0.39690 0.10168
 C270 C 0.74734 0.36697 0.09878
 N271 N 0.74809 0.34769 0.13115
 N272 N 0.76878 0.35801 0.16530
 C273 C 0.56337 0.12102 0.31143
 N274 N 0.53594 0.11292 0.33235
 N275 N 0.52558 0.09201 0.36570
 C276 C 0.54233 0.07851 0.37940
 N277 N 0.56978 0.08662 0.35857
 N278 N 0.58010 0.10748 0.32515
 C279 C 0.57468 0.14395 0.27448
 N280 N 0.60140 0.15105 0.25202
 N281 N 0.61154 0.17173 0.21831
 C282 C 0.59537 0.18610 0.20591
 N283 N 0.56869 0.17903 0.22843
 N284 N 0.55852 0.15832 0.26207
 C285 C 0.60643 0.20878 0.16860
 N286 N 0.59079 0.22391 0.15747
 N287 N 0.60066 0.24436 0.12346
 C288 C 0.62650 0.25040 0.09926
 N289 N 0.64216 0.23528 0.11039
 N290 N 0.63231 0.21486 0.14448
 C291 C 0.55879 0.43553 0.31258
 N292 N 0.57740 0.46241 0.33351
 N293 N 0.56654 0.47313 0.36672
 C294 C 0.53669 0.45731 0.38024
 N295 N 0.51807 0.43043 0.35940
 N296 N 0.52892 0.41974 0.32612
 C297 C 0.57073 0.42383 0.27575
 N298 N 0.55178 0.39774 0.25315
 N299 N 0.56259 0.38726 0.21951
 C300 C 0.59276 0.40245 0.20731
 N301 N 0.61171 0.42850 0.22999
 N302 N 0.60089 0.43901 0.26356
 C303 C 0.60467 0.39106 0.17001
 N304 N 0.63507 0.40566 0.15911
 N305 N 0.64588 0.39551 0.12504
 C306 C 0.62669 0.37041 0.10053
 N307 N 0.59628 0.35579 0.11144
 N308 N 0.58548 0.36591 0.14559
 C309 C 0.12232 0.56760 0.31298
 N310 N 0.11176 0.53881 0.32860
 N311 N 0.09034 0.52761 0.36159
 C312 C 0.07858 0.54474 0.37995
 N313 N 0.08921 0.57358 0.36451
 N314 N 0.11071 0.58481 0.33162
 C315 C 0.14564 0.57972 0.27617
 N316 N 0.15776 0.60908 0.26244
 N317 N 0.17870 0.61991 0.22871
 C318 C 0.18819 0.60175 0.20739
 N319 N 0.17607 0.57240 0.22114
 N320 N 0.15522 0.56160 0.25495
 C321 C 0.21097 0.61346 0.16979
 N322 N 0.21837 0.59453 0.14607
 N323 N 0.23882 0.60497 0.11170
 C324 C 0.25270 0.63476 0.09984
 N325 N 0.24537 0.65373 0.12364
 N326 N 0.22482 0.64326 0.15794
 C327 C 0.43818 0.87907 0.31356
 N328 N 0.45519 0.87697 0.34893
 N329 N 0.46599 0.89791 0.38222
 C330 C 0.46027 0.92177 0.38121
 N331 N 0.44334 0.92392 0.34580
 N332 N 0.43241 0.90289 0.31264
 C333 C 0.42647 0.85613 0.27664
 N334 N 0.40672 0.85637 0.24414
 N335 N 0.39628 0.83571 0.21043
 C336 C 0.40532 0.81416 0.20784
 N337 N 0.42509 0.81394 0.24032
 N338 N 0.43542 0.83451 0.27417
 C339 C 0.39411 0.79165 0.17032
 N340 N 0.40602 0.77254 0.16422
 N341 N 0.39609 0.75235 0.12984
 C342 C 0.37378 0.75043 0.10045
 N343 N 0.36178 0.76946 0.10667
 N344 N 0.37182 0.78975 0.14090
 C345 C 0.43798 0.56358 0.31319
 N346 N 0.46745 0.56852 0.31230
 N347 N 0.47792 0.55744 0.34558
 C348 C 0.45934 0.54118 0.38111
 N349 N 0.42989 0.53629 0.38211
 N350 N 0.41938 0.54725 0.34869
 C351 C 0.42636 0.57548 0.27617
 N352 N 0.39599 0.56740 0.27373
 N353 N 0.38541 0.57794 0.23981
 C354 C 0.40483 0.59705 0.20724
 N355 N 0.43521 0.60521 0.20978
 N356 N 0.44576 0.59456 0.24356
 C357 C 0.39316 0.60855 0.16971
 N358 N 0.41293 0.63024 0.14028
 N359 N 0.40236 0.64061 0.10611
 C360 C 0.37163 0.62953 0.09996
 N361 N 0.35185 0.60779 0.12934
 N362 N 0.36243 0.59755 0.16366
   
