data_POSCAR
  _audit_creation_date              2014-09-24
  _audit_creation_method            'ToBaCCo'
  _symmetry_space_group_name_H-M    'P1'
  _symmetry_Int_Tables_number       1
  _symmetry_cell_setting            triclinic
  loop_
  _symmetry_equiv_pos_as_xyz
 x,y,z
_cell_length_a 36.4835
_cell_length_b 33.0084
_cell_length_c 33.2453
_cell_angle_alpha 89.946600
_cell_angle_beta 89.935100
_cell_angle_gamma 89.877800
loop_
  _atom_site_label
  _atom_site_type_symbol
  _atom_site_fract_x
  _atom_site_fract_y
  _atom_site_fract_z
C1 C 0.30781 0.29820 0.23632
 H2 H 0.30954 0.29626 0.26875
 C3 C 0.33305 0.32164 0.21501
 H4 H 0.35407 0.33804 0.23117
 C5 C 0.27837 0.27899 0.17576
 H6 H 0.25759 0.26169 0.16043
 C7 C 0.30265 0.30265 0.15333
 H8 H 0.30015 0.30360 0.12089
 N9 N 0.28102 0.27767 0.21657
 C10 C 0.19402 0.26143 0.30501
 H11 H 0.19242 0.22871 0.30585
 C12 C 0.17106 0.28461 0.32952
 H13 H 0.15223 0.26933 0.34959
 C14 C 0.22128 0.32073 0.27828
 H15 H 0.24062 0.33466 0.25792
 C16 C 0.19863 0.34511 0.30205
 H17 H 0.20069 0.37772 0.29945
 Zn18 Zn 0.24901 0.24595 0.24853
 N19 N 0.21883 0.27968 0.28048
 C20 C 0.27806 0.21671 0.32240
 N21 N 0.27889 0.21299 0.28166
 C22 C 0.30266 0.18716 0.26330
 C23 C 0.32623 0.16300 0.28610
 C24 C 0.30130 0.19330 0.34636
 C25 C 0.19436 0.23269 0.19061
 C26 C 0.17091 0.21025 0.16609
 C27 C 0.19471 0.14895 0.19610
 C28 C 0.21802 0.17253 0.21971
 N29 N 0.21784 0.21361 0.21617
 H30 H 0.25989 0.23836 0.33643
 H31 H 0.30320 0.18532 0.23081
 H32 H 0.34442 0.14208 0.27086
 H33 H 0.30064 0.19727 0.37867
 H34 H 0.19403 0.26543 0.18917
 H35 H 0.15251 0.22592 0.14578
 H36 H 0.19553 0.11628 0.19896
 H37 H 0.23600 0.15790 0.24103
 C38 C 0.17318 0.32710 0.32832
 C39 C 0.33040 0.32426 0.17302
 C40 C 0.17099 0.16781 0.16863
 C41 C 0.32580 0.16593 0.32826
 C42 C 0.80671 0.80389 0.23319
 H43 H 0.80902 0.80419 0.26563
 C44 C 0.82977 0.82815 0.20995
 H45 H 0.84866 0.84768 0.22570
 C46 C 0.77739 0.77907 0.17484
 H47 H 0.75739 0.75927 0.16124
 C48 C 0.79980 0.80295 0.15034
 H49 H 0.79671 0.79995 0.11815
 N50 N 0.78095 0.78030 0.21548
 C51 C 0.69793 0.76375 0.30811
 H52 H 0.69727 0.73102 0.30979
 C53 C 0.67480 0.78675 0.33254
 H54 H 0.65680 0.77140 0.35347
 C55 C 0.72268 0.82325 0.27893
 H56 H 0.74090 0.83733 0.25747
 C57 C 0.69984 0.84744 0.30263
 H58 H 0.70075 0.88002 0.29903
 Zn59 Zn 0.75125 0.74851 0.24987
 N60 N 0.72157 0.78221 0.28236
 C61 C 0.78283 0.72115 0.32312
 N62 N 0.78290 0.71682 0.28243
 C63 C 0.80646 0.69082 0.26396
 C64 C 0.83026 0.66677 0.28666
 C65 C 0.80628 0.69787 0.34695
 C66 C 0.69282 0.73393 0.19760
 C67 C 0.66725 0.71118 0.17611
 C68 C 0.69594 0.65017 0.20117
 C69 C 0.72081 0.67408 0.22240
 N70 N 0.71911 0.71518 0.21990
 H71 H 0.76489 0.74295 0.33725
 H72 H 0.80645 0.68849 0.23150
 H73 H 0.84809 0.64551 0.27137
 H74 H 0.80600 0.70213 0.37924
 H75 H 0.69170 0.76667 0.19669
 H76 H 0.64680 0.72664 0.15814
 H77 H 0.69756 0.61751 0.20371
 H78 H 0.74109 0.65967 0.24122
 C79 C 0.67553 0.82923 0.33000
 C80 C 0.82673 0.82831 0.16757
 C81 C 0.66871 0.66871 0.17765
 C82 C 0.83025 0.66997 0.32882
 C83 C 0.80047 0.31416 0.73541
 H84 H 0.79961 0.31717 0.76780
 C85 C 0.82417 0.33834 0.71281
 H86 H 0.84113 0.36037 0.72807
 C87 C 0.77913 0.28181 0.67635
 H88 H 0.76219 0.25910 0.66229
 C89 C 0.80249 0.30528 0.65260
 H90 H 0.80314 0.30032 0.62042
 N91 N 0.77829 0.28687 0.71694
 C92 C 0.69293 0.26776 0.80722
 H93 H 0.69459 0.23524 0.81087
 C94 C 0.66822 0.29013 0.83041
 H95 H 0.65105 0.27483 0.85222
 C96 C 0.71283 0.32732 0.77389
 H97 H 0.72991 0.34161 0.75146
 C98 C 0.68785 0.35073 0.79577
 H99 H 0.68631 0.38309 0.79060
 Zn100 Zn 0.74786 0.25420 0.74979
 N101 N 0.71526 0.28668 0.78035
 C102 C 0.77687 0.22458 0.82416
 N103 N 0.77902 0.22300 0.78343
 C104 C 0.80440 0.19939 0.76493
 C105 C 0.82820 0.17515 0.78737
 C106 C 0.79981 0.20053 0.84791
 C107 C 0.69482 0.23817 0.69181
 C108 C 0.67193 0.21493 0.66749
 C109 C 0.69748 0.15452 0.69761
 C110 C 0.72007 0.17896 0.72121
 N111 N 0.71859 0.21997 0.71762
 H112 H 0.75766 0.24484 0.83853
 H113 H 0.80572 0.19890 0.73241
 H114 H 0.84628 0.15549 0.77058
 H115 H 0.79759 0.20435 0.88008
 H116 H 0.69390 0.27089 0.68998
 H117 H 0.65384 0.23009 0.64651
 H118 H 0.69868 0.12196 0.70133
 H119 H 0.73840 0.16509 0.74271
 C120 C 0.66557 0.33211 0.82473
 C121 C 0.82542 0.33407 0.67078
 C122 C 0.67302 0.17247 0.67020
 C123 C 0.82629 0.17468 0.82999
 C124 C 0.30479 0.81000 0.73493
 H125 H 0.30494 0.81237 0.76739
 C126 C 0.32813 0.83423 0.71200
 H127 H 0.34578 0.85569 0.72711
 C128 C 0.28122 0.77922 0.67606
 H129 H 0.26352 0.75710 0.66220
 C130 C 0.30426 0.80271 0.65196
 H131 H 0.30393 0.79836 0.61969
 N132 N 0.28162 0.78357 0.71673
 C133 C 0.19824 0.76557 0.80918
 H134 H 0.19905 0.73293 0.81205
 C135 C 0.17430 0.78821 0.83309
 H136 H 0.15721 0.77270 0.85480
 C137 C 0.21991 0.82520 0.77749
 H138 H 0.23711 0.83947 0.75517
 C139 C 0.19623 0.84900 0.80061
 H140 H 0.19559 0.88142 0.79571
 Zn141 Zn 0.25180 0.75129 0.75043
 N142 N 0.22080 0.78430 0.78245
 C143 C 0.28444 0.72446 0.82356
 N144 N 0.28388 0.72016 0.78289
 C145 C 0.30756 0.69472 0.76384
 C146 C 0.33225 0.67121 0.78593
 C147 C 0.30879 0.70167 0.84680
 C148 C 0.19722 0.73572 0.69383
 C149 C 0.17385 0.71265 0.66986
 C150 C 0.19912 0.65207 0.69988
 C151 C 0.22220 0.67633 0.72311
 N152 N 0.22118 0.71735 0.71931
 H153 H 0.26633 0.74585 0.83807
 H154 H 0.30699 0.69246 0.73139
 H155 H 0.35013 0.65034 0.77020
 H156 H 0.30899 0.70579 0.87910
 H157 H 0.19662 0.76843 0.69183
 H158 H 0.15574 0.72796 0.64901
 H159 H 0.20008 0.61951 0.70369
 H160 H 0.24060 0.66231 0.74442
 C161 C 0.17306 0.83058 0.82901
 C162 C 0.32809 0.83076 0.66989
 C163 C 0.17464 0.67017 0.67260
 C164 C 0.33295 0.67432 0.82806
 C165 C -0.00339 0.00054 -0.00320
 C166 C 0.00300 0.49980 0.50075
 C167 C 0.50211 0.00024 0.49972
 C168 C 0.49878 0.49963 0.00363
 C169 C 0.09892 -0.09751 -0.09906
 C170 C 0.13407 -0.08303 -0.10853
 C171 C 0.15814 -0.10638 -0.13169
 C172 C 0.14754 -0.14465 -0.14613
 C173 C 0.11228 -0.15901 -0.13670
 C174 C 0.08832 -0.13577 -0.11334
 C175 C 0.07332 -0.07287 -0.07440
 C176 C 0.05277 -0.09094 -0.04358
 C177 C 0.02833 -0.06800 -0.02055
 C178 C 0.02264 -0.02640 -0.02863
 C179 C 0.04485 -0.00821 -0.05841
 C180 C 0.06948 -0.03114 -0.08122
 H181 H 0.18529 -0.09468 -0.13778
 H182 H 0.10294 -0.18797 -0.14793
 H183 H 0.01466 -0.08312 0.00406
 H184 H 0.04274 0.02398 -0.06430
 H185 H 0.06120 -0.14744 -0.10697
 H186 H 0.05621 -0.12280 -0.03667
 H187 H 0.14316 -0.05389 -0.09746
 H188 H 0.08520 -0.01626 -0.10457
 C189 C 0.10298 0.40012 0.40374
 C190 C 0.08997 0.36404 0.38662
 C191 C 0.11262 0.34054 0.36200
 C192 C 0.14896 0.35240 0.35420
 C193 C 0.16196 0.38851 0.37148
 C194 C 0.13917 0.41219 0.39584
 C195 C 0.07864 0.42516 0.42943
 C196 C 0.07720 0.46733 0.42462
 C197 C 0.05315 0.49063 0.44775
 C198 C 0.02921 0.47247 0.47591
 C199 C 0.03272 0.43028 0.48230
 C200 C 0.05655 0.40698 0.45887
 H201 H 0.10145 0.31338 0.34860
 H202 H 0.18996 0.39820 0.36671
 H203 H 0.05257 0.52310 0.44309
 H204 H 0.01764 0.41483 0.50566
 H205 H 0.15001 0.43964 0.40904
 H206 H 0.09417 0.48225 0.40236
 H207 H 0.06200 0.35436 0.39173
 H208 H 0.05815 0.37464 0.46420
 C209 C 0.60382 -0.09825 0.40390
 C210 C 0.63968 -0.08526 0.39563
 C211 C 0.66299 -0.10879 0.37176
 C212 C 0.65084 -0.14569 0.35543
 C213 C 0.61485 -0.15849 0.36360
 C214 C 0.59167 -0.13510 0.38767
 C215 C 0.57895 -0.07344 0.42915
 C216 C 0.55724 -0.09177 0.45882
 C217 C 0.53293 -0.06875 0.48189
 C218 C 0.52861 -0.02675 0.47496
 C219 C 0.55217 -0.00837 0.44656
 C220 C 0.57666 -0.03139 0.42372
 H221 H 0.69071 -0.09837 0.36659
 H222 H 0.60437 -0.18633 0.35088
 H223 H 0.51818 -0.08425 0.50547
 H224 H 0.55099 0.02403 0.44154
 H225 H 0.56396 -0.14551 0.39307
 H226 H 0.55951 -0.12397 0.46464
 H227 H 0.64987 -0.05719 0.40817
 H228 H 0.59332 -0.01637 0.40126
 C229 C 0.59264 0.40366 -0.10303
 C230 C 0.61894 0.37860 -0.08486
 C231 C 0.64221 0.35478 -0.10844
 C232 C 0.64010 0.35643 -0.15055
 C233 C 0.61388 0.38169 -0.16876
 C234 C 0.58997 0.40481 -0.14510
 C235 C 0.56877 0.42928 -0.07785
 C236 C 0.53082 0.42322 -0.07701
 C237 C 0.50876 0.44601 -0.05104
 C238 C 0.52414 0.47526 -0.02501
 C239 C 0.56211 0.48311 -0.02879
 C240 C 0.58417 0.45968 -0.05402
 H241 H 0.66237 0.33562 -0.09386
 H242 H 0.61179 0.38323 -0.20122
 H243 H 0.47956 0.44026 -0.05060
 H244 H 0.57525 0.50743 -0.01264
 H245 H 0.56988 0.42414 -0.15955
 H246 H 0.51841 0.40023 -0.09577
 H247 H 0.62132 0.37742 -0.05240
 H248 H 0.61335 0.46556 -0.05529
 C249 C -0.10426 0.09974 -0.10009
 C250 C -0.09489 0.11006 -0.13969
 C251 C -0.11781 0.13467 -0.16290
 C252 C -0.15111 0.15044 -0.14727
 C253 C -0.16001 0.13983 -0.10705
 C254 C -0.13714 0.11485 -0.08413
 C255 C -0.07958 0.07363 -0.07551
 C256 C -0.07513 0.08062 -0.03414
 C257 C -0.05116 0.05679 -0.01144
 C258 C -0.02960 0.02627 -0.02958
 C259 C -0.03600 0.01783 -0.07064
 C260 C -0.06024 0.04143 -0.09325
 H261 H -0.10772 0.14277 -0.19237
 H262 H -0.18563 0.14860 -0.09324
 H263 H -0.04869 0.06285 0.02045
 H264 H -0.02292 -0.00743 -0.08556
 H265 H -0.14573 0.10666 -0.05403
 H266 H -0.08972 0.10498 -0.01929
 H267 H -0.06923 0.09988 -0.15262
 H268 H -0.06425 0.03400 -0.12465
 C269 C -0.09753 0.59652 0.40138
 C270 C -0.08566 0.61206 0.36423
 C271 C -0.10902 0.63588 0.34073
 C272 C -0.14487 0.64456 0.35375
 C273 C -0.15675 0.62883 0.39087
 C274 C -0.13331 0.60518 0.41447
 C275 C -0.07257 0.57144 0.42635
 C276 C -0.07053 0.57719 0.46808
 C277 C -0.04639 0.55412 0.49133
 C278 C -0.02286 0.52517 0.47352
 C279 C -0.02678 0.51808 0.43180
 C280 C -0.05077 0.54135 0.40857
 H281 H -0.09877 0.64807 0.31265
 H282 H -0.18439 0.63431 0.40147
 H283 H -0.04555 0.55932 0.52347
 H284 H -0.01203 0.49413 0.41668
 H285 H -0.14337 0.59312 0.44269
 H286 H -0.08724 0.59999 0.48272
 H287 H -0.05805 0.60633 0.35366
 H288 H -0.05281 0.53523 0.37665
 C289 C 0.39955 0.09446 0.40074
 C290 C 0.41109 0.11038 0.36365
 C291 C 0.38720 0.13355 0.34019
 C292 C 0.35114 0.14111 0.35318
 C293 C 0.33959 0.12501 0.39026
 C294 C 0.36358 0.10205 0.41385
 C295 C 0.42509 0.07009 0.42561
 C296 C 0.42731 0.07613 0.46728
 C297 C 0.45202 0.05372 0.49042
 C298 C 0.47589 0.02515 0.47255
 C299 C 0.47186 0.01779 0.43089
 C300 C 0.44732 0.04042 0.40776
 H301 H 0.39722 0.14612 0.31218
 H302 H 0.31183 0.12970 0.40084
 H303 H 0.45296 0.05906 0.52254
 H304 H 0.48690 -0.00594 0.41577
 H305 H 0.35383 0.08967 0.44207
 H306 H 0.41027 0.09862 0.48193
 H307 H 0.43884 0.10548 0.35311
 H308 H 0.44517 0.03413 0.37588
 C309 C 0.40553 0.59890 -0.10172
 C310 C 0.36992 0.60785 -0.08811
 C311 C 0.34656 0.63235 -0.11082
 C312 C 0.35825 0.64879 -0.14764
 C313 C 0.39400 0.64021 -0.16113
 C314 C 0.41739 0.61553 -0.13841
 C315 C 0.42984 0.57217 -0.07748
 C316 C 0.46746 0.58019 -0.07360
 C317 C 0.48942 0.55626 -0.04851
 C318 C 0.47412 0.52476 -0.02514
 C319 C 0.43705 0.51472 -0.03237
 C320 C 0.41524 0.53838 -0.05756
 H321 H 0.31909 0.63791 -0.09974
 H322 H 0.40401 0.65278 -0.18914
 H323 H 0.51833 0.56323 -0.04617
 H324 H 0.42449 0.48832 -0.01901
 H325 H 0.44455 0.60901 -0.14988
 H326 H 0.47981 0.60557 -0.08915
 H327 H 0.36010 0.59607 -0.05968
 H328 H 0.38680 0.53000 -0.06166
 C329 C -0.10387 -0.09719 0.09516
 C330 C -0.09285 -0.10959 0.13366
 C331 C -0.11548 -0.13400 0.15733
 C332 C -0.15009 -0.14701 0.14329
 C333 C -0.16079 -0.13448 0.10431
 C334 C -0.13807 -0.10996 0.08075
 C335 C -0.07951 -0.07132 0.07017
 C336 C -0.07602 -0.07797 0.02865
 C337 C -0.05198 -0.05458 0.00562
 C338 C -0.02971 -0.02465 0.02352
 C339 C -0.03532 -0.01641 0.06478
 C340 C -0.05939 -0.03978 0.08778
 H341 H -0.10470 -0.14384 0.18599
 H342 H -0.18742 -0.14192 0.09219
 H343 H -0.05004 -0.06050 -0.02635
 H344 H -0.02167 0.00842 0.07964
 H345 H -0.14768 -0.10028 0.05146
 H346 H -0.09135 -0.10181 0.01402
 H347 H -0.06623 -0.10110 0.14526
 H348 H -0.06265 -0.03275 0.11939
 C349 C -0.10052 0.40576 0.59888
 C350 C -0.13597 0.39701 0.58494
 C351 C -0.16004 0.37395 0.60831
 C352 C -0.14916 0.35899 0.64609
 C353 C -0.11368 0.36775 0.65998
 C354 C -0.08967 0.39091 0.63668
 C355 C -0.07481 0.43017 0.57416
 C356 C -0.05292 0.45995 0.59213
 C357 C -0.02814 0.48248 0.56923
 C358 C -0.02357 0.47502 0.52764
 C359 C -0.04721 0.44649 0.50957
 C360 C -0.07207 0.42407 0.53251
 H361 H -0.18738 0.36828 0.59701
 H362 H -0.10419 0.35610 0.68859
 H363 H -0.01334 0.50622 0.58447
 H364 H -0.04592 0.44111 0.47747
 H365 H -0.06232 0.39663 0.64794
 H366 H -0.05546 0.46642 0.62395
 H367 H -0.14529 0.40854 0.55621
 H368 H -0.08879 0.40152 0.51769
 C369 C 0.40055 -0.09616 0.59762
 C370 C 0.36487 -0.10471 0.58430
 C371 C 0.34133 -0.12834 0.60775
 C372 C 0.35305 -0.14410 0.64490
 C373 C 0.38884 -0.13566 0.65804
 C374 C 0.41227 -0.11187 0.63471
 C375 C 0.42560 -0.07102 0.57296
 C376 C 0.44708 -0.04096 0.59106
 C377 C 0.47137 -0.01780 0.56819
 C378 C 0.47590 -0.02497 0.52656
 C379 C 0.45264 -0.05382 0.50840
 C380 C 0.42819 -0.07679 0.53128
 H381 H 0.31375 -0.13374 0.59705
 H382 H 0.39898 -0.14796 0.68611
 H383 H 0.48589 0.00611 0.58350
 H384 H 0.45395 -0.05904 0.47627
 H385 H 0.43983 -0.10626 0.64540
 H386 H 0.44459 -0.03485 0.62296
 H387 H 0.35498 -0.09256 0.55605
 H388 H 0.41173 -0.09955 0.51643
 C389 C 0.40533 0.39835 0.10568
 C390 C 0.41861 0.37039 0.13401
 C391 C 0.39425 0.34651 0.15622
 C392 C 0.35628 0.34967 0.14985
 C393 C 0.34307 0.37737 0.12125
 C394 C 0.36736 0.40174 0.09961
 C395 C 0.43082 0.42385 0.08210
 C396 C 0.46053 0.40647 0.06158
 C397 C 0.48287 0.43021 0.03681
 C398 C 0.47569 0.47199 0.03152
 C399 C 0.44769 0.48956 0.05520
 C400 C 0.42502 0.46571 0.07930
 H401 H 0.40503 0.32520 0.17801
 H402 H 0.31390 0.38048 0.11601
 H403 H 0.50574 0.41552 0.02214
 H404 H 0.44254 0.52185 0.05379
 H405 H 0.35654 0.42290 0.07769
 H406 H 0.46597 0.37429 0.06401
 H407 H 0.44779 0.36739 0.13925
 H408 H 0.40287 0.47998 0.09579
 C409 C 0.09926 0.09668 0.09391
 C410 C 0.11943 0.12904 0.07754
 C411 C 0.14254 0.15223 0.10183
 C412 C 0.14634 0.14333 0.14293
 C413 C 0.12649 0.11085 0.15929
 C414 C 0.10308 0.08791 0.13513
 C415 C 0.07399 0.07246 0.06834
 C416 C 0.07011 0.03059 0.07442
 C417 C 0.04548 0.00815 0.05134
 C418 C 0.02322 0.02689 0.02197
 C419 C 0.02915 0.06848 0.01427
 C420 C 0.05355 0.09099 0.03761
 H421 H 0.15794 0.17676 0.08834
 H422 H 0.12856 0.10365 0.19100
 H423 H 0.04338 -0.02412 0.05676
 H424 H 0.01543 0.08405 -0.01002
 H425 H 0.08748 0.06374 0.14893
 H426 H 0.08639 0.01497 0.09682
 H427 H 0.11774 0.13620 0.04582
 H428 H 0.05609 0.12311 0.03172
 C429 C 0.10342 0.59770 0.59834
 C430 C 0.09113 0.63463 0.61447
 C431 C 0.11410 0.65793 0.63875
 C432 C 0.15003 0.64501 0.64724
 C433 C 0.16228 0.60799 0.63108
 C434 C 0.13919 0.58454 0.60701
 C435 C 0.07885 0.57305 0.57268
 C436 C 0.07657 0.53097 0.57784
 C437 C 0.05244 0.50810 0.55455
 C438 C 0.02921 0.52665 0.52592
 C439 C 0.03350 0.56869 0.51929
 C440 C 0.05745 0.59155 0.54282
 H441 H 0.10351 0.68585 0.65131
 H442 H 0.18997 0.59744 0.63646
 H443 H 0.05126 0.47568 0.55940
 H444 H 0.01900 0.58434 0.49561
 H445 H 0.14952 0.55642 0.59458
 H446 H 0.09299 0.51579 0.60043
 H447 H 0.06349 0.64519 0.60879
 H448 H 0.05970 0.62378 0.53719
 C449 C 0.60209 0.09944 0.59633
 C450 C 0.58960 0.13626 0.61249
 C451 C 0.61252 0.15978 0.63659
 C452 C 0.64858 0.14717 0.64486
 C453 C 0.66105 0.11029 0.62863
 C454 C 0.63801 0.08662 0.60473
 C455 C 0.57753 0.07450 0.57100
 C456 C 0.57559 0.03244 0.57639
 C457 C 0.55151 0.00926 0.55337
 C458 C 0.52801 0.02747 0.52480
 C459 C 0.53190 0.06952 0.51798
 C460 C 0.55581 0.09270 0.54124
 H461 H 0.60178 0.18760 0.64924
 H462 H 0.68884 0.10000 0.63387
 H463 H 0.55064 -0.02316 0.55835
 H464 H 0.51714 0.08493 0.49434
 H465 H 0.64847 0.05858 0.59225
 H466 H 0.59225 0.01751 0.59893
 H467 H 0.56184 0.14655 0.60701
 H468 H 0.55778 0.12493 0.53547
 C469 C 0.59165 0.59657 0.11062
 C470 C 0.57977 0.63093 0.13200
 C471 C 0.60474 0.65437 0.15376
 C472 C 0.64207 0.64383 0.15480
 C473 C 0.65391 0.60939 0.13368
 C474 C 0.62904 0.58613 0.11175
 C475 C 0.56559 0.57213 0.08633
 C476 C 0.56929 0.52987 0.08423
 C477 C 0.54703 0.50722 0.05867
 C478 C 0.52096 0.52611 0.03343
 C479 C 0.51497 0.56808 0.03878
 C480 C 0.53745 0.59082 0.06421
 H481 H 0.59477 0.68046 0.17022
 H482 H 0.68260 0.60089 0.13344
 H483 H 0.55110 0.47474 0.05739
 H484 H 0.49313 0.58387 0.02346
 H485 H 0.63929 0.56039 0.09495
 H486 H 0.58966 0.51423 0.10214
 H487 H 0.55112 0.63950 0.13226
 H488 H 0.53329 0.62326 0.06574
   
