data_POSCAR
  _audit_creation_date              2014-09-24
  _audit_creation_method            'ToBaCCo'
  _symmetry_space_group_name_H-M    'P1'
  _symmetry_Int_Tables_number       1
  _symmetry_cell_setting            triclinic
  loop_
  _symmetry_equiv_pos_as_xyz
 x,y,z
_cell_length_a 26.2813
_cell_length_b 27.7728
_cell_length_c 27.2953
_cell_angle_alpha 85.511400
_cell_angle_beta 95.711400
_cell_angle_gamma 95.491500
loop_
  _atom_site_label
  _atom_site_type_symbol
  _atom_site_fract_x
  _atom_site_fract_y
  _atom_site_fract_z
C1 C 0.21228 0.29094 0.29088
 C2 C 0.25176 0.32158 0.26115
 C3 C 0.27849 0.29555 0.23362
 C4 C 0.26169 0.24079 0.23740
 C5 C 0.17745 0.26283 0.25231
 C6 C 0.20319 0.23686 0.22366
 C7 C 0.24279 0.25237 0.32072
 C8 C 0.26802 0.22522 0.29294
 H9 H 0.25475 0.36090 0.25902
 H10 H 0.28244 0.21990 0.21424
 H11 H 0.13596 0.26079 0.25111
 H12 H 0.24573 0.24823 0.36076
 C13 C 0.71194 0.79007 0.29153
 C14 C 0.75172 0.82052 0.26202
 C15 C 0.77840 0.79439 0.23455
 C16 C 0.76125 0.73971 0.23817
 C17 C 0.67709 0.76221 0.25277
 C18 C 0.70279 0.73610 0.22421
 C19 C 0.74207 0.75125 0.32141
 C20 C 0.76726 0.72400 0.29369
 H21 H 0.75490 0.85985 0.25987
 H22 H 0.78192 0.71870 0.21504
 H23 H 0.63560 0.76047 0.25138
 H24 H 0.74481 0.74703 0.36145
 C25 C 0.71427 0.29186 0.78984
 C26 C 0.75277 0.32057 0.76274
 C27 C 0.78123 0.29313 0.73417
 C28 C 0.76377 0.24137 0.73707
 C29 C 0.67951 0.26449 0.75057
 C30 C 0.70535 0.23824 0.72222
 C31 C 0.74323 0.25229 0.82003
 C32 C 0.76857 0.22491 0.79253
 H33 H 0.75542 0.35992 0.75991
 H34 H 0.78411 0.21965 0.71436
 H35 H 0.63800 0.26275 0.74892
 H36 H 0.74549 0.24799 0.86005
 C37 C 0.21200 0.79052 0.79091
 C38 C 0.25153 0.82118 0.76127
 C39 C 0.27822 0.79521 0.73366
 C40 C 0.26131 0.74048 0.73724
 C41 C 0.17712 0.76257 0.75226
 C42 C 0.20281 0.73665 0.72351
 C43 C 0.24243 0.75181 0.82063
 C44 C 0.26762 0.72473 0.79275
 H45 H 0.25460 0.86050 0.75928
 H46 H 0.28202 0.71963 0.71398
 H47 H 0.13564 0.76054 0.75112
 H48 H 0.24536 0.74756 0.86067
 C49 C 0.07861 0.06982 0.01501
 H50 H 0.07932 0.07414 -0.02466
 C51 C 0.10788 0.10289 0.04475
 H52 H 0.13015 0.13285 0.02707
 C53 C 0.04447 0.02783 0.08495
 H54 H 0.01839 -0.00036 0.10044
 C55 C 0.07289 0.06013 0.11600
 H56 H 0.06784 0.05626 0.15502
 N57 N 0.04817 0.03285 0.03546
 C58 C 0.02272 -0.07731 -0.07265
 H59 H -0.01877 -0.08258 -0.07672
 C60 C 0.05142 -0.10471 -0.09862
 H61 H 0.03160 -0.13068 -0.12311
 C62 C 0.09868 -0.03689 -0.03595
 H63 H 0.11710 -0.01069 -0.01121
 C64 C 0.12886 -0.06338 -0.06123
 H65 H 0.16988 -0.05535 -0.05599
 Zn66 Zn 0.00611 -0.00812 -0.00741
 N67 N 0.04663 -0.04388 -0.04236
 C68 C -0.03936 0.03001 -0.10066
 N69 N -0.03438 0.03254 -0.05083
 C70 C -0.05810 0.06554 -0.02922
 C71 C -0.08975 0.09650 -0.05766
 C72 C -0.07113 0.06018 -0.13065
 C73 C -0.01536 -0.08609 0.06193
 C74 C -0.04555 -0.11650 0.09297
 C75 C -0.12007 -0.07850 0.05543
 C76 C -0.08855 -0.04901 0.02510
 N77 N -0.03705 -0.05247 0.02961
 H78 H -0.01897 0.00452 -0.11731
 H79 H -0.05273 0.06742 0.01042
 H80 H -0.10837 0.12240 -0.03954
 H81 H -0.07385 0.05736 -0.17003
 H82 H 0.02578 -0.08791 0.06495
 H83 H -0.02679 -0.14082 0.12033
 H84 H -0.16037 -0.07265 0.05299
 H85 H -0.10524 -0.02230 -0.00092
 C86 C 0.10542 -0.09843 -0.09288
 C87 C 0.10620 0.09781 0.09630
 C88 C -0.09893 -0.11324 0.08990
 C89 C -0.09790 0.09341 -0.10907
 C90 C 0.07791 0.56923 0.51521
 H91 H 0.07865 0.57336 0.47554
 C92 C 0.10721 0.60241 0.54481
 H93 H 0.12952 0.63225 0.52701
 C94 C 0.04371 0.52757 0.58529
 H95 H 0.01758 0.49950 0.60089
 C96 C 0.07216 0.56000 0.61619
 H97 H 0.06710 0.55631 0.65521
 N98 N 0.04746 0.53235 0.53580
 C99 C 0.02244 0.42240 0.42738
 H100 H -0.01904 0.41709 0.42318
 C101 C 0.05129 0.39529 0.40126
 H102 H 0.03159 0.36946 0.37655
 C103 C 0.09825 0.46266 0.46457
 H104 H 0.11656 0.48866 0.48958
 C105 C 0.12857 0.43644 0.43915
 H106 H 0.16957 0.44445 0.44462
 Zn107 Zn 0.00551 0.49113 0.49307
 N108 N 0.04621 0.45564 0.45798
 C109 C -0.03988 0.52955 0.39987
 N110 N -0.03529 0.53161 0.44976
 C111 C -0.05952 0.56414 0.47153
 C112 C -0.09127 0.59508 0.44318
 C113 C -0.07171 0.55972 0.36997
 C114 C -0.01531 0.41353 0.56298
 C115 C -0.04524 0.38306 0.59418
 C116 C -0.12028 0.41966 0.55581
 C117 C -0.08896 0.44930 0.52541
 N118 N -0.03734 0.44656 0.53022
 H119 H -0.01906 0.50447 0.38312
 H120 H -0.05443 0.56568 0.51121
 H121 H -0.11026 0.62062 0.46143
 H122 H -0.07408 0.55730 0.33055
 H123 H 0.02592 0.41230 0.56627
 H124 H -0.02610 0.35937 0.62194
 H125 H -0.16071 0.42505 0.55302
 H126 H -0.10593 0.47557 0.49905
 C127 C 0.10529 0.40163 0.40715
 C128 C 0.10552 0.59754 0.59636
 C129 C -0.09885 0.38540 0.59079
 C130 C -0.09896 0.59248 0.39169
 C131 C 0.57946 0.07068 0.51489
 H132 H 0.58021 0.07502 0.47522
 C133 C 0.60885 0.10363 0.54468
 H134 H 0.63131 0.13354 0.52711
 C135 C 0.54515 0.02876 0.58478
 H136 H 0.51892 0.00068 0.60023
 C137 C 0.57369 0.06095 0.61588
 H138 H 0.56846 0.05710 0.65485
 N139 N 0.54889 0.03378 0.53530
 C140 C 0.52307 -0.07645 0.42724
 H141 H 0.48158 -0.08160 0.42319
 C142 C 0.55165 -0.10406 0.40136
 H143 H 0.53173 -0.13005 0.37695
 C144 C 0.59917 -0.03615 0.46381
 H145 H 0.61770 -0.00991 0.48847
 C146 C 0.62923 -0.06284 0.43861
 H147 H 0.67027 -0.05492 0.44380
 Zn148 Zn 0.50672 -0.00712 0.49242
 N149 N 0.54711 -0.04300 0.45744
 C150 C 0.46132 0.03109 0.39917
 N151 N 0.46629 0.03360 0.44901
 C152 C 0.44255 0.06659 0.47063
 C153 C 0.41086 0.09751 0.44220
 C154 C 0.42952 0.06124 0.36920
 C155 C 0.48517 -0.08509 0.56172
 C156 C 0.45497 -0.11554 0.59270
 C157 C 0.38047 -0.07749 0.55520
 C158 C 0.41201 -0.04796 0.52492
 N159 N 0.46351 -0.05142 0.52944
 H160 H 0.48171 0.00560 0.38253
 H161 H 0.44791 0.06844 0.51028
 H162 H 0.39216 0.12336 0.46033
 H163 H 0.42676 0.05838 0.32982
 H164 H 0.52631 -0.08692 0.56475
 H165 H 0.47374 -0.13989 0.62003
 H166 H 0.34015 -0.07170 0.55275
 H167 H 0.39533 -0.02123 0.49892
 C168 C 0.60566 -0.09797 0.40711
 C169 C 0.60721 0.09848 0.59624
 C170 C 0.40159 -0.11229 0.58962
 C171 C 0.40272 0.09445 0.39078
 C172 C 0.57904 0.57010 0.01421
 H173 H 0.57993 0.57451 -0.02544
 C174 C 0.60816 0.60312 0.04412
 H175 H 0.63050 0.63311 0.02659
 C176 C 0.54460 0.52794 0.08391
 H177 H 0.51845 0.49972 0.09925
 C178 C 0.57286 0.56018 0.11512
 H179 H 0.56765 0.55621 0.15411
 N180 N 0.54853 0.53306 0.03446
 C181 C 0.52356 0.42333 -0.07422
 H182 H 0.48207 0.41800 -0.07842
 C183 C 0.55241 0.39616 -0.10029
 H184 H 0.53271 0.37031 -0.12497
 C185 C 0.59935 0.46372 -0.03718
 H186 H 0.61767 0.48985 -0.01229
 C187 C 0.62968 0.43746 -0.06254
 H188 H 0.67069 0.44561 -0.05727
 Zn189 Zn 0.50662 0.49214 -0.00859
 N190 N 0.54731 0.45663 -0.04368
 C191 C 0.46112 0.53054 -0.10174
 N192 N 0.46607 0.53286 -0.05189
 C193 C 0.44224 0.56569 -0.03012
 C194 C 0.41049 0.59664 -0.05844
 C195 C 0.42925 0.56072 -0.13160
 C196 C 0.48522 0.41406 0.06070
 C197 C 0.45510 0.38377 0.09190
 C198 C 0.38053 0.42170 0.05439
 C199 C 0.41199 0.45108 0.02390
 N200 N 0.46349 0.44763 0.02834
 H201 H 0.48158 0.50519 -0.11850
 H202 H 0.44759 0.56740 0.00954
 H203 H 0.39175 0.62237 -0.04019
 H204 H 0.42652 0.55802 -0.17100
 H205 H 0.52636 0.41225 0.06368
 H206 H 0.47395 0.35956 0.11931
 H207 H 0.34022 0.42750 0.05201
 H208 H 0.39524 0.47773 -0.00215
 C209 C 0.60641 0.40247 -0.09434
 C210 C 0.60623 0.59792 0.09565
 C211 C 0.40173 0.38709 0.08896
 C212 C 0.40237 0.59376 -0.10987
 C213 C 0.18340 -0.17943 -0.17696
 C214 C 0.21932 -0.15150 -0.13887
 C215 C 0.19484 -0.12495 -0.11028
 C216 C 0.13594 -0.12803 -0.12243
 C217 C 0.12823 -0.11380 -0.17809
 C218 C 0.15280 -0.14053 -0.20647
 C219 C 0.14411 -0.20958 -0.14622
 C220 C 0.11959 -0.18286 -0.11768
 H221 H 0.26050 -0.15400 -0.13351
 H222 H 0.21612 -0.10647 -0.08021
 H223 H 0.10537 -0.08487 -0.19387
 H224 H 0.15072 -0.13449 -0.24636
 H225 H 0.13678 -0.24870 -0.14638
 H226 H 0.09161 -0.19938 -0.09332
 C227 C 0.18359 0.32098 0.32297
 C228 C 0.21944 0.34907 0.36098
 C229 C 0.19488 0.37555 0.38957
 C230 C 0.13596 0.37221 0.37753
 C231 C 0.12812 0.38637 0.32185
 C232 C 0.15278 0.35972 0.29346
 C233 C 0.14445 0.29072 0.35380
 C234 C 0.11985 0.31735 0.38234
 H235 H 0.26066 0.34680 0.36623
 H236 H 0.21616 0.39424 0.41950
 H237 H 0.10513 0.41520 0.30607
 H238 H 0.15066 0.36574 0.25357
 H239 H 0.13726 0.25158 0.35368
 H240 H 0.09194 0.30074 0.40673
 C241 C 0.68338 -0.17965 0.32348
 C242 C 0.65311 -0.14061 0.29381
 C243 C 0.62861 -0.11368 0.32204
 C244 C 0.63606 -0.12784 0.37773
 C245 C 0.61938 -0.18261 0.38251
 C246 C 0.64383 -0.20954 0.35412
 C247 C 0.71933 -0.15184 0.36164
 C248 C 0.69492 -0.12507 0.39008
 H249 H 0.65119 -0.13464 0.25392
 H250 H 0.60597 -0.08464 0.30613
 H251 H 0.59124 -0.19894 0.40679
 H252 H 0.63628 -0.24865 0.35400
 H253 H 0.76047 -0.15458 0.36718
 H254 H 0.71619 -0.10669 0.42023
 C255 C 0.68530 0.32198 -0.17821
 C256 C 0.65535 0.36139 -0.20769
 C257 C 0.63047 0.38792 -0.17938
 C258 C 0.63718 0.37301 -0.12381
 C259 C 0.62040 0.31825 -0.11994
 C260 C 0.64523 0.29174 -0.14840
 C261 C 0.72076 0.34923 -0.13923
 C262 C 0.69593 0.37558 -0.11075
 H263 H 0.65389 0.36786 -0.24752
 H264 H 0.60797 0.41711 -0.19515
 H265 H 0.59191 0.30159 -0.09618
 H266 H 0.63762 0.25268 -0.14910
 H267 H 0.76184 0.34632 -0.13317
 H268 H 0.71677 0.39340 -0.08002
 C269 C -0.19619 0.18788 -0.18354
 C270 C -0.21845 0.15687 -0.14019
 C271 C -0.18626 0.12512 -0.11693
 C272 C -0.13418 0.12683 -0.13867
 C273 C -0.14923 0.11834 -0.19373
 C274 C -0.18171 0.15018 -0.21704
 C275 C -0.14479 0.21193 -0.16189
 C276 C -0.11257 0.18023 -0.13855
 H277 H -0.25717 0.15813 -0.13001
 H278 H -0.19768 0.09962 -0.08694
 H279 H -0.13963 0.08780 -0.21226
 H280 H -0.19876 0.14567 -0.25440
 H281 H -0.13437 0.25075 -0.16518
 H282 H -0.07462 0.19207 -0.12195
 C283 C -0.19735 0.68700 0.31742
 C284 C -0.21981 0.65546 0.36033
 C285 C -0.18757 0.62369 0.38352
 C286 C -0.13525 0.62594 0.36216
 C287 C -0.14978 0.61793 0.30692
 C288 C -0.18229 0.64977 0.28368
 C289 C -0.14622 0.71110 0.33964
 C290 C -0.11396 0.67940 0.36292
 H291 H -0.25865 0.65644 0.37030
 H292 H -0.19910 0.59789 0.41322
 H293 H -0.13981 0.58768 0.28820
 H294 H -0.19897 0.64550 0.24616
 H295 H -0.13601 0.74997 0.33679
 H296 H -0.07619 0.69129 0.37989
 C297 C 0.30368 0.18842 0.31661
 C298 C 0.28156 0.15692 0.35972
 C299 C 0.31402 0.12535 0.38285
 C300 C 0.36622 0.12771 0.36124
 C301 C 0.35147 0.11951 0.30608
 C302 C 0.31872 0.15116 0.28289
 C303 C 0.35482 0.21276 0.33853
 C304 C 0.38731 0.18124 0.36175
 H305 H 0.24276 0.15778 0.36986
 H306 H 0.30275 0.09960 0.41269
 H307 H 0.36154 0.08930 0.28734
 H308 H 0.30192 0.14677 0.24543
 H309 H 0.36487 0.25165 0.33551
 H310 H 0.42512 0.19330 0.37851
 C311 C 0.30328 0.68788 -0.18371
 C312 C 0.28118 0.65625 -0.14067
 C313 C 0.31366 0.62464 -0.11764
 C314 C 0.36585 0.62708 -0.13929
 C315 C 0.35107 0.61903 -0.19448
 C316 C 0.31831 0.65073 -0.21756
 C317 C 0.35443 0.71217 -0.16174
 C318 C 0.38693 0.68061 -0.13863
 H319 H 0.24239 0.65708 -0.13050
 H320 H 0.30240 0.59880 -0.08787
 H321 H 0.36113 0.58888 -0.21331
 H322 H 0.30149 0.64644 -0.25502
 H323 H 0.36448 0.75106 -0.16465
 H324 H 0.42475 0.69263 -0.12186
 C325 C -0.18741 -0.18181 0.19630
 C326 C -0.14341 -0.21125 0.18581
 C327 C -0.11453 -0.18985 0.14986
 C328 C -0.13158 -0.14031 0.12808
 C329 C -0.18868 -0.15171 0.11021
 C330 C -0.21767 -0.17291 0.14589
 C331 C -0.16038 -0.13204 0.20873
 C332 C -0.13172 -0.11044 0.17308
 H333 H -0.13532 -0.24580 0.20495
 H334 H -0.08331 -0.20731 0.13760
 H335 H -0.20472 -0.14614 0.07223
 H336 H -0.25826 -0.18408 0.13842
 H337 H -0.16142 -0.11595 0.24354
 H338 H -0.10939 -0.07580 0.17735
 C339 C -0.18647 0.31601 0.69743
 C340 C -0.14448 0.28812 0.68732
 C341 C -0.11459 0.31095 0.64928
 C342 C -0.13142 0.35799 0.62927
 C343 C -0.18565 0.34720 0.61219
 C344 C -0.21587 0.32461 0.64976
 C345 C -0.16089 0.36330 0.70975
 C346 C -0.13114 0.38639 0.67213
 H347 H -0.13482 0.25438 0.70735
 H348 H -0.08364 0.29363 0.63632
 H349 H -0.20126 0.35068 0.57388
 H350 H -0.25615 0.31223 0.64198
 H351 H -0.15918 0.37782 0.74573
 H352 H -0.10737 0.42016 0.67726
 C353 C 0.31260 -0.18090 0.69561
 C354 C 0.33906 -0.13086 0.70787
 C355 C 0.36793 -0.10927 0.67236
 C356 C 0.36883 -0.13941 0.62768
 C357 C 0.38616 -0.18867 0.65000
 C358 C 0.35707 -0.21006 0.68579
 C359 C 0.28273 -0.17254 0.64491
 C360 C 0.31193 -0.15134 0.60939
 H361 H 0.33760 -0.11459 0.74250
 H362 H 0.38996 -0.07448 0.67658
 H363 H 0.41765 -0.20604 0.63816
 H364 H 0.36523 -0.24447 0.70520
 H365 H 0.24225 -0.18404 0.63715
 H366 H 0.29622 -0.14602 0.57127
 C367 C 0.31284 0.31927 0.19545
 C368 C 0.28301 0.32703 0.14463
 C369 C 0.31221 0.34795 0.10898
 C370 C 0.36905 0.36024 0.12726
 C371 C 0.36791 0.39085 0.17155
 C372 C 0.33905 0.36954 0.20720
 C373 C 0.35749 0.29014 0.18607
 C374 C 0.38657 0.31124 0.15015
 H375 H 0.24256 0.31543 0.13694
 H376 H 0.29652 0.35293 0.07082
 H377 H 0.38978 0.42577 0.17543
 H378 H 0.33742 0.38618 0.24160
 H379 H 0.36576 0.25593 0.20586
 H380 H 0.41814 0.29380 0.13857
 C381 C 0.17698 0.20061 0.18843
 C382 C 0.20401 0.19885 0.14120
 C383 C 0.18200 0.16451 0.11076
 C384 C 0.13403 0.13528 0.12973
 C385 C 0.15355 0.11445 0.18145
 C386 C 0.17556 0.14854 0.21200
 C387 C 0.12093 0.20803 0.16941
 C388 C 0.09865 0.17383 0.13915
 H389 H 0.23824 0.22181 0.13277
 H390 H 0.19894 0.15773 0.07761
 H391 H 0.15218 0.07601 0.19262
 H392 H 0.19202 0.13911 0.24920
 H393 H 0.10093 0.23876 0.17656
 H394 H 0.05978 0.17521 0.12174
 C395 C 0.17652 0.70041 0.68831
 C396 C 0.20338 0.69873 0.64097
 C397 C 0.18130 0.66438 0.61056
 C398 C 0.13345 0.63506 0.62968
 C399 C 0.15318 0.61423 0.68133
 C400 C 0.17524 0.64833 0.71185
 C401 C 0.12040 0.70776 0.66948
 C402 C 0.09807 0.67356 0.63926
 H403 H 0.23753 0.72176 0.63245
 H404 H 0.19813 0.65767 0.57733
 H405 H 0.15185 0.57580 0.69249
 H406 H 0.19182 0.63890 0.74900
 H407 H 0.10040 0.73847 0.67670
 H408 H 0.05914 0.67490 0.62197
 C409 C 0.67899 0.20174 0.68733
 C410 C 0.62370 0.21049 0.66674
 C411 C 0.60102 0.17607 0.63694
 C412 C 0.63531 0.13596 0.62950
 C413 C 0.68458 0.16325 0.61113
 C414 C 0.70700 0.19784 0.64108
 C415 C 0.67537 0.15013 0.71211
 C416 C 0.65300 0.11579 0.68203
 H417 H 0.60459 0.24217 0.67267
 H418 H 0.56261 0.17821 0.61863
 H419 H 0.70180 0.15511 0.57859
 H420 H 0.74198 0.21970 0.63286
 H421 H 0.69085 0.14111 0.74974
 H422 H 0.65046 0.07754 0.69408
 C423 C 0.67660 0.70014 0.18865
 C424 C 0.70356 0.69906 0.14128
 C425 C 0.68170 0.66495 0.11051
 C426 C 0.63393 0.63523 0.12934
 C427 C 0.65369 0.61402 0.18083
 C428 C 0.67554 0.64788 0.21170
 C429 C 0.62045 0.70737 0.16988
 C430 C 0.59832 0.67340 0.13929
 H431 H 0.73770 0.72225 0.13304
 H432 H 0.69867 0.65862 0.07724
 H433 H 0.65248 0.57551 0.19162
 H434 H 0.69207 0.63818 0.24881
 H435 H 0.60026 0.73784 0.17740
 H436 H 0.55940 0.67471 0.12199
   
