data_POSCAR
  _audit_creation_date              2014-09-24
  _audit_creation_method            'ToBaCCo'
  _symmetry_space_group_name_H-M    'P1'
  _symmetry_Int_Tables_number       1
  _symmetry_cell_setting            triclinic
  loop_
  _symmetry_equiv_pos_as_xyz
 x,y,z
_cell_length_a 26.5083
_cell_length_b 26.4625
_cell_length_c 26.4421
_cell_angle_alpha 90.449800
_cell_angle_beta 90.087100
_cell_angle_gamma 89.963700
loop_
  _atom_site_label
  _atom_site_type_symbol
  _atom_site_fract_x
  _atom_site_fract_y
  _atom_site_fract_z
O1 O -0.12039 0.08413 0.00695
 O2 O 0.13523 0.05129 -0.02249
 O3 O 0.01815 0.13605 0.05233
 O4 O 0.00746 0.12024 -0.08382
 O5 O -0.00763 0.05263 -0.13697
 O6 O 0.01780 0.08205 0.12034
 O7 O 0.08136 0.11971 -0.02280
 O8 O -0.05276 0.13700 -0.00689
 Zr9 Zr 0.00942 0.08767 -0.01091
 O10 O 0.04425 0.03453 -0.05597
 O11 O -0.03496 0.05592 0.04432
 C12 C -0.10032 0.12840 0.00056
 C13 C 0.12586 0.09933 -0.02594
 C14 C 0.01886 0.12674 0.10047
 C15 C 0.00042 0.10036 -0.12846
 H16 H 0.08056 0.06574 0.05178
 O17 O 0.05489 0.04453 0.03470
 H18 H -0.06755 0.06705 -0.06769
 O19 O -0.04596 0.04572 -0.04602
 O20 O 0.12022 -0.08349 -0.00380
 O21 O -0.13645 -0.05089 0.01874
 O22 O 0.08247 0.00482 0.12074
 O23 O 0.05121 -0.01946 -0.13644
 O24 O -0.08420 -0.00921 -0.12081
 O25 O -0.05175 0.02286 0.13554
 O26 O -0.00514 -0.12104 0.08220
 O27 O -0.02270 -0.13587 -0.05313
 O28 O 0.00978 -0.05343 0.13541
 O29 O -0.02274 -0.08168 -0.12099
 O30 O 0.13549 -0.01032 0.05331
 O31 O -0.11989 0.02416 0.08135
 O32 O -0.13691 0.00669 -0.05347
 O33 O 0.11943 -0.02007 -0.08229
 O34 O 0.05243 -0.13638 0.00938
 O35 O -0.08318 -0.11961 0.01736
 Zr36 Zr 0.08707 -0.01089 -0.00981
 Zr37 Zr -0.08789 0.01120 0.00916
 Zr38 Zr 0.01014 0.00965 0.08727
 Zr39 Zr -0.01126 -0.00978 -0.08810
 Zr40 Zr -0.01041 -0.08771 0.00977
 O41 O -0.05623 -0.04450 -0.03552
 O42 O 0.04503 -0.04588 0.04520
 C43 C 0.10028 -0.12762 0.00411
 C44 C -0.12780 -0.09918 0.01940
 C45 C 0.12661 -0.00370 0.10112
 C46 C 0.09924 -0.02144 -0.12709
 C47 C -0.12865 -0.00252 -0.10105
 C48 C -0.09960 0.02700 0.12606
 C49 C 0.00353 -0.10139 0.12665
 C50 C -0.02545 -0.12631 -0.10115
 H51 H -0.06617 -0.05129 0.08050
 O52 O -0.04508 -0.03457 0.05476
 H53 H 0.05115 -0.08138 -0.06606
 O54 O 0.03412 -0.05551 -0.04499
 O55 O 0.37992 0.58128 0.02463
 O56 O 0.63570 0.55492 -0.00842
 O57 O 0.51616 0.62064 0.08381
 O58 O 0.50953 0.63653 -0.05181
 O59 O 0.49490 0.58348 -0.11983
 O60 O 0.51809 0.55234 0.13712
 O61 O 0.58233 0.62202 0.00708
 O62 O 0.44763 0.63585 0.02382
 Zr63 Zr 0.51004 0.58809 0.01087
 O64 O 0.54522 0.54658 -0.04502
 O65 O 0.46522 0.54455 0.05660
 C66 C 0.39983 0.62608 0.02771
 C67 C 0.62670 0.60258 -0.00100
 C68 C 0.51737 0.60062 0.12853
 C69 C 0.50329 0.62767 -0.09972
 H70 H 0.58056 0.55274 0.06703
 O71 O 0.55520 0.53563 0.04545
 H72 H 0.43386 0.58109 -0.05051
 O73 O 0.45517 0.55543 -0.03385
 O74 O 0.62052 0.41945 -0.01999
 O75 O 0.36403 0.44656 0.00659
 O76 O 0.58237 0.47839 0.12033
 O77 O 0.55299 0.51128 -0.13586
 O78 O 0.41737 0.51835 -0.11945
 O79 O 0.44781 0.49275 0.13735
 O80 O 0.49426 0.36359 0.05192
 O81 O 0.47877 0.38021 -0.08216
 O82 O 0.50919 0.41647 0.11994
 O83 O 0.47857 0.44827 -0.13603
 O84 O 0.63580 0.47856 0.05181
 O85 O 0.38010 0.50663 0.08435
 O86 O 0.36403 0.51907 -0.05084
 O87 O 0.62089 0.49836 -0.08285
 O88 O 0.55265 0.36502 -0.02002
 O89 O 0.41732 0.37950 -0.00931
 Zr90 Zr 0.58767 0.49167 -0.01032
 Zr91 Zr 0.41257 0.50941 0.01145
 Zr92 Zr 0.51013 0.48953 0.08812
 Zr93 Zr 0.49013 0.51093 -0.08727
 Zr94 Zr 0.48991 0.41283 -0.01001
 O95 O 0.44448 0.46523 -0.04454
 O96 O 0.54520 0.44502 0.03469
 C97 C 0.60058 0.37462 -0.02188
 C98 C 0.37284 0.39910 -0.00249
 C99 C 0.62695 0.47539 0.10000
 C100 C 0.60090 0.50626 -0.12705
 C101 C 0.37271 0.52005 -0.09914
 C102 C 0.40019 0.50004 0.12867
 C103 C 0.50260 0.37210 0.09956
 C104 C 0.47616 0.40018 -0.12676
 H105 H 0.43366 0.43246 0.06701
 O106 O 0.45500 0.45436 0.04578
 H107 H 0.55226 0.43565 -0.08132
 O108 O 0.53506 0.45640 -0.05531
 O109 O -0.12078 0.58372 0.50535
 O110 O 0.13529 0.55220 0.47744
 O111 O 0.01752 0.63678 0.55155
 O112 O 0.00726 0.61981 0.41564
 O113 O -0.00730 0.55170 0.36281
 O114 O 0.01742 0.58333 0.62001
 O115 O 0.08093 0.62022 0.47661
 O116 O -0.05328 0.63664 0.49211
 Zr117 Zr 0.00922 0.58776 0.48876
 O118 O 0.04458 0.53456 0.44423
 O119 O -0.03506 0.55623 0.54420
 C120 C -0.10104 0.62820 0.49864
 C121 C 0.12555 0.60010 0.47353
 C122 C 0.01820 0.62784 0.59976
 C123 C 0.00043 0.59947 0.37123
 H124 H 0.08036 0.56704 0.55165
 O125 O 0.05492 0.54538 0.53480
 H126 H -0.06744 0.56611 0.43182
 O127 O -0.04577 0.54518 0.45378
 O128 O 0.12143 0.41753 0.49743
 O129 O -0.13562 0.44842 0.51938
 O130 O 0.08286 0.50707 0.62136
 O131 O 0.05218 0.48005 0.36421
 O132 O -0.08334 0.48943 0.37922
 O133 O -0.05191 0.52360 0.63558
 O134 O -0.00374 0.37983 0.58333
 O135 O -0.02108 0.36377 0.44817
 O136 O 0.01060 0.44788 0.63633
 O137 O -0.02131 0.41739 0.37987
 O138 O 0.13607 0.49209 0.55406
 O139 O -0.11994 0.52425 0.58119
 O140 O -0.13651 0.50479 0.44647
 O141 O 0.12026 0.48028 0.41856
 O142 O 0.05394 0.36434 0.51074
 O143 O -0.08144 0.38019 0.51924
 Zr144 Zr 0.08769 0.48985 0.49087
 Zr145 Zr -0.08765 0.51092 0.50917
 Zr146 Zr 0.01041 0.51061 0.58765
 Zr147 Zr -0.01053 0.48964 0.41222
 Zr148 Zr -0.00918 0.41260 0.51073
 O149 O -0.05535 0.45506 0.46504
 O150 O 0.04589 0.45498 0.54611
 C151 C 0.10173 0.37330 0.50542
 C152 C -0.12611 0.40036 0.52111
 C153 C 0.12722 0.49934 0.60181
 C154 C 0.10019 0.47840 0.37373
 C155 C -0.12783 0.49543 0.39901
 C156 C -0.09980 0.52739 0.62597
 C157 C 0.00472 0.39990 0.62758
 C158 C -0.02372 0.37290 0.40003
 H159 H -0.06530 0.44923 0.58110
 O160 O -0.04438 0.46588 0.55519
 H161 H 0.05240 0.41871 0.43501
 O162 O 0.03515 0.44464 0.45582
 O163 O 0.38081 0.08171 0.52352
 O164 O 0.63656 0.05296 0.49130
 O165 O 0.51821 0.11994 0.58313
 O166 O 0.51142 0.13575 0.44789
 O167 O 0.49718 0.08279 0.37977
 O168 O 0.51792 0.05176 0.63684
 O169 O 0.58350 0.12041 0.50644
 O170 O 0.44905 0.13561 0.52320
 Zr171 Zr 0.51109 0.08722 0.51050
 O172 O 0.54640 0.04534 0.45502
 O173 O 0.46544 0.04432 0.55604
 C174 C 0.40113 0.12631 0.52676
 C175 C 0.62767 0.10074 0.49811
 C176 C 0.51878 0.09991 0.62778
 C177 C 0.50563 0.12695 0.39992
 H178 H 0.58105 0.05131 0.56701
 O179 O 0.55557 0.03439 0.54542
 H180 H 0.43544 0.08109 0.44876
 O181 O 0.45627 0.05511 0.46552
 O182 O 0.62029 -0.08280 0.48144
 O183 O 0.36372 -0.05284 0.50528
 O184 O 0.58135 -0.02336 0.62062
 O185 O 0.55440 0.00993 0.36431
 O186 O 0.41912 0.01919 0.37971
 O187 O 0.44693 -0.00740 0.63662
 O188 O 0.49274 -0.13699 0.55154
 O189 O 0.47882 -0.12030 0.41709
 O190 O 0.50774 -0.08413 0.61959
 O191 O 0.47963 -0.05207 0.36350
 O192 O 0.63566 -0.02300 0.55261
 O193 O 0.37967 0.00697 0.58319
 O194 O 0.36492 0.01988 0.44786
 O195 O 0.62183 -0.00403 0.41764
 O196 O 0.55178 -0.13636 0.48115
 O197 O 0.41656 -0.12033 0.48972
 Zr198 Zr 0.58810 -0.01001 0.49000
 Zr199 Zr 0.41282 0.00955 0.51052
 Zr200 Zr 0.50959 -0.01110 0.58786
 Zr201 Zr 0.49132 0.01031 0.41243
 Zr202 Zr 0.48943 -0.08777 0.48954
 O203 O 0.44476 -0.03493 0.45470
 O204 O 0.54458 -0.05597 0.53467
 C205 C 0.59987 -0.12747 0.48022
 C206 C 0.37223 -0.10036 0.49627
 C207 C 0.62599 -0.02655 0.60057
 C208 C 0.60214 0.00417 0.37337
 C209 C 0.37446 0.02145 0.39980
 C210 C 0.39941 0.00022 0.62765
 C211 C 0.50091 -0.12846 0.59921
 C212 C 0.47685 -0.10017 0.37248
 H213 H 0.43280 -0.06755 0.56618
 O214 O 0.45452 -0.04586 0.54510
 H215 H 0.55275 -0.06587 0.41892
 O216 O 0.53548 -0.04479 0.44463
 C217 C 0.16421 0.18577 -0.02122
 C218 C 0.20623 0.21798 -0.02191
 C219 C 0.25438 0.19830 -0.03388
 C220 C 0.25949 0.14676 -0.04554
 C221 C 0.21754 0.11477 -0.04413
 C222 C 0.16957 0.13379 -0.03150
 C223 C 0.29668 0.23027 -0.03320
 C224 C 0.29145 0.28158 -0.02019
 C225 C 0.24314 0.30116 -0.00858
 C226 C 0.20088 0.26935 -0.00972
 C227 C 0.23786 0.35227 0.00444
 C228 C 0.27998 0.38379 0.00630
 C229 C 0.32844 0.36494 -0.00480
 C230 C 0.33376 0.31358 -0.01822
 H231 H 0.12759 0.20103 -0.01107
 H232 H 0.29606 0.13101 -0.05496
 H233 H 0.22281 0.07498 -0.05246
 H234 H 0.33366 0.21512 -0.04215
 H235 H 0.16393 0.28444 -0.00049
 H236 H 0.20111 0.36788 0.01341
 H237 H 0.27446 0.42306 0.01672
 H238 H 0.37073 0.29842 -0.02710
 C239 C 0.16355 -0.31336 0.47783
 C240 C 0.20548 -0.28107 0.47680
 C241 C 0.25356 -0.30063 0.46435
 C242 C 0.25870 -0.35212 0.45251
 C243 C 0.21687 -0.38419 0.45430
 C244 C 0.16900 -0.36530 0.46747
 C245 C 0.29579 -0.26863 0.46479
 C246 C 0.29058 -0.21742 0.47809
 C247 C 0.24236 -0.19790 0.49015
 C248 C 0.20013 -0.22975 0.48919
 C249 C 0.23717 -0.14686 0.50349
 C250 C 0.27935 -0.11539 0.50530
 C251 C 0.32769 -0.13425 0.49381
 C252 C 0.33289 -0.18549 0.47998
 H253 H 0.12700 -0.29823 0.48839
 H254 H 0.29522 -0.36777 0.44272
 H255 H 0.22216 -0.42397 0.44588
 H256 H 0.33272 -0.28371 0.45549
 H257 H 0.16324 -0.21474 0.49879
 H258 H 0.20050 -0.13130 0.51282
 H259 H 0.27397 -0.07619 0.51606
 H260 H 0.36978 -0.20065 0.47078
 C261 C 0.83558 0.81575 0.01615
 C262 C 0.79318 0.78399 0.01458
 C263 C 0.74433 0.80479 0.01989
 C264 C 0.73870 0.85701 0.02655
 C265 C 0.78090 0.88854 0.02706
 C266 C 0.83001 0.86853 0.02161
 C267 C 0.70188 0.77317 0.01789
 C268 C 0.70761 0.72100 0.01001
 C269 C 0.75649 0.70030 0.00430
 C270 C 0.79893 0.73183 0.00690
 C271 C 0.76219 0.64832 -0.00404
 C272 C 0.71997 0.61696 -0.00638
 C273 C 0.67103 0.63684 -0.00029
 C274 C 0.66523 0.68917 0.00772
 H275 H 0.87276 0.79922 0.01156
 H276 H 0.70154 0.87362 0.03070
 H277 H 0.77474 0.92880 0.03156
 H278 H 0.66442 0.78920 0.02208
 H279 H 0.83638 0.71581 0.00253
 H280 H 0.79936 0.63184 -0.00864
 H281 H 0.72588 0.57690 -0.01259
 H282 H 0.62786 0.70518 0.01242
 C283 C 0.83536 0.31459 0.51151
 C284 C 0.79345 0.28233 0.51196
 C285 C 0.74572 0.30132 0.52658
 C286 C 0.74081 0.35227 0.54058
 C287 C 0.78263 0.38431 0.53947
 C288 C 0.83023 0.36587 0.52480
 C289 C 0.70366 0.26921 0.52658
 C290 C 0.70868 0.21842 0.51185
 C291 C 0.75642 0.19952 0.49715
 C292 C 0.79849 0.23154 0.49738
 C293 C 0.76131 0.14882 0.48240
 C294 C 0.71941 0.11696 0.48244
 C295 C 0.67169 0.13517 0.49718
 C296 C 0.66667 0.18619 0.51164
 H297 H 0.87172 0.29997 0.49961
 H298 H 0.70455 0.36746 0.55192
 H299 H 0.77763 0.42362 0.55002
 H300 H 0.66706 0.28379 0.53780
 H301 H 0.83508 0.21701 0.48602
 H302 H 0.79759 0.13376 0.47090
 H303 H 0.72450 0.07795 0.47086
 H304 H 0.63022 0.20082 0.52320
 C305 C 0.81415 0.16688 -0.01019
 C306 C 0.78228 0.20916 -0.01193
 C307 C 0.80207 0.25787 -0.00196
 C308 C 0.85344 0.26348 0.00925
 C309 C 0.88503 0.22129 0.01031
 C310 C 0.86574 0.17267 0.00065
 C311 C 0.77027 0.30016 -0.00339
 C312 C 0.71892 0.29441 -0.01479
 C313 C 0.69921 0.24577 -0.02521
 C314 C 0.73100 0.20346 -0.02372
 C315 C 0.64786 0.24020 -0.03647
 C316 C 0.61607 0.28226 -0.03647
 C317 C 0.63507 0.33076 -0.02547
 C318 C 0.68682 0.33654 -0.01526
 H319 H 0.79896 0.12962 -0.01819
 H320 H 0.86924 0.30050 0.01700
 H321 H 0.92462 0.22672 0.01899
 H322 H 0.78543 0.33747 0.00454
 H323 H 0.71582 0.16614 -0.03154
 H324 H 0.63215 0.20324 -0.04471
 H325 H 0.57641 0.27665 -0.04469
 H326 H 0.70199 0.37361 -0.00637
 C327 C 0.81365 -0.33555 0.49663
 C328 C 0.78172 -0.29338 0.49238
 C329 C 0.80262 -0.24432 0.48993
 C330 C 0.85501 -0.23823 0.49117
 C331 C 0.88658 -0.28027 0.49429
 C332 C 0.86654 -0.32961 0.49703
 C333 C 0.77090 -0.20210 0.48600
 C334 C 0.71843 -0.20827 0.48389
 C335 C 0.69749 -0.25737 0.48553
 C336 C 0.72921 -0.29958 0.49000
 C337 C 0.64508 -0.26342 0.48298
 C338 C 0.61360 -0.22126 0.47980
 C339 C 0.63384 -0.17206 0.47914
 C340 C 0.68655 -0.16602 0.48068
 H341 H 0.79712 -0.37297 0.49834
 H342 H 0.87167 -0.20091 0.48929
 H343 H 0.92693 -0.27376 0.49472
 H344 H 0.78706 -0.16448 0.48451
 H345 H 0.71304 -0.33718 0.49152
 H346 H 0.62836 -0.30075 0.48400
 H347 H 0.57321 -0.22732 0.47877
 H348 H 0.70285 -0.12846 0.48032
 C349 C 0.18771 0.33505 0.51823
 C350 C 0.21954 0.29262 0.52113
 C351 C 0.19938 0.24370 0.51313
 C352 C 0.14785 0.23792 0.50305
 C353 C 0.11645 0.28012 0.50068
 C354 C 0.13593 0.32909 0.50800
 C355 C 0.23101 0.20129 0.51498
 C356 C 0.28269 0.20701 0.52462
 C357 C 0.30288 0.25574 0.53339
 C358 C 0.27117 0.29826 0.53171
 C359 C 0.35465 0.26115 0.54289
 C360 C 0.38634 0.21891 0.54224
 C361 C 0.36686 0.17034 0.53239
 C362 C 0.31466 0.16472 0.52453
 H363 H 0.20313 0.37254 0.52441
 H364 H 0.13180 0.20072 0.49687
 H365 H 0.07680 0.27434 0.49255
 H366 H 0.21549 0.16388 0.50836
 H367 H 0.28674 0.33567 0.53808
 H368 H 0.37079 0.29816 0.54995
 H369 H 0.42632 0.22447 0.54870
 H370 H 0.29900 0.12764 0.51666
 C371 C 0.18595 0.83408 0.01797
 C372 C 0.21777 0.79168 0.02112
 C373 C 0.19782 0.74279 0.01247
 C374 C 0.14645 0.73700 0.00153
 C375 C 0.11502 0.77920 -0.00108
 C376 C 0.13436 0.82813 0.00684
 C377 C 0.22952 0.70043 0.01452
 C378 C 0.28106 0.70621 0.02497
 C379 C 0.30097 0.75495 0.03442
 C380 C 0.26919 0.79738 0.03258
 C381 C 0.35257 0.76047 0.04471
 C382 C 0.38442 0.71836 0.04408
 C383 C 0.36526 0.66982 0.03350
 C384 C 0.31318 0.66404 0.02495
 H385 H 0.20122 0.87154 0.02467
 H386 H 0.13055 0.69982 -0.00514
 H387 H 0.07550 0.77347 -0.00985
 H388 H 0.21419 0.66304 0.00738
 H389 H 0.28456 0.83479 0.03947
 H390 H 0.36848 0.79747 0.05231
 H391 H 0.42428 0.72401 0.05113
 H392 H 0.29779 0.62696 0.01651
 C393 C 0.00290 0.16511 0.18579
 C394 C -0.00075 0.20724 0.21811
 C395 C 0.01287 0.25555 0.20020
 C396 C 0.02992 0.26086 0.15036
 C397 C 0.03285 0.21882 0.11824
 C398 C 0.01928 0.17061 0.13551
 C399 C 0.00902 0.29780 0.23226
 C400 C -0.00821 0.29238 0.28205
 C401 C -0.02194 0.24415 0.30002
 C402 C -0.01826 0.20186 0.26787
 C403 C -0.03853 0.23899 0.35008
 C404 C -0.04041 0.28103 0.38240
 C405 C -0.02638 0.32907 0.36502
 C406 C -0.01100 0.33445 0.31444
 H407 H -0.00833 0.12826 0.19943
 H408 H 0.04052 0.29761 0.13606
 H409 H 0.04552 0.22413 0.07972
 H410 H 0.01962 0.33483 0.21853
 H411 H -0.02880 0.16482 0.28161
 H412 H -0.04927 0.20232 0.36448
 H413 H -0.05239 0.27585 0.42116
 H414 H 0.00056 0.37114 0.30063
 C415 C 0.48837 0.31429 0.83517
 C416 C 0.49123 0.28176 0.79317
 C417 C 0.47814 0.29976 0.74470
 C418 C 0.46208 0.34995 0.73923
 C419 C 0.46010 0.38238 0.78119
 C420 C 0.47353 0.36501 0.82948
 C421 C 0.48195 0.26752 0.70249
 C422 C 0.49895 0.21761 0.70816
 C423 C 0.51187 0.19962 0.75670
 C424 C 0.50790 0.23179 0.79888
 C425 C 0.52839 0.14962 0.76226
 C426 C 0.53155 0.11745 0.72024
 C427 C 0.51876 0.13484 0.67178
 C428 C 0.50283 0.18524 0.66606
 H429 H 0.49945 0.30045 0.87205
 H430 H 0.45183 0.36437 0.70236
 H431 H 0.44855 0.42123 0.77574
 H432 H 0.47194 0.28131 0.66527
 H433 H 0.51799 0.21802 0.83610
 H434 H 0.53843 0.13524 0.79919
 H435 H 0.54383 0.07883 0.72573
 H436 H 0.49216 0.19900 0.62904
 C437 C -0.01296 0.83566 0.81313
 C438 C -0.01027 0.79367 0.78065
 C439 C -0.02441 0.74548 0.79843
 C440 C -0.04139 0.74028 0.84834
 C441 C -0.04313 0.78221 0.88075
 C442 C -0.02858 0.83017 0.86360
 C443 C -0.02067 0.70325 0.76629
 C444 C -0.00264 0.70862 0.71675
 C445 C 0.01132 0.75687 0.69895
 C446 C 0.00737 0.79910 0.73100
 C447 C 0.02888 0.76209 0.64928
 C448 C 0.03204 0.72000 0.61724
 C449 C 0.01821 0.67186 0.63450
 C450 C 0.00124 0.66647 0.68455
 H451 H -0.00102 0.87230 0.79952
 H452 H -0.05246 0.70363 0.86256
 H453 H -0.05533 0.77700 0.91944
 H454 H -0.03148 0.66624 0.77991
 H455 H 0.01827 0.83609 0.71742
 H456 H 0.03973 0.79880 0.63505
 H457 H 0.04514 0.72517 0.57885
 H458 H -0.01023 0.62968 0.69815
 C459 C 0.50690 -0.31436 0.16468
 C460 C 0.50086 -0.28241 0.20691
 C461 C 0.50573 -0.30227 0.25613
 C462 C 0.51616 -0.35374 0.26231
 C463 C 0.52091 -0.38557 0.22023
 C464 C 0.51618 -0.36654 0.17075
 C465 C 0.49981 -0.27049 0.29841
 C466 C 0.48872 -0.21907 0.29214
 C467 C 0.48312 -0.19928 0.24295
 C468 C 0.48929 -0.23105 0.20064
 C469 C 0.47206 -0.14786 0.23691
 C470 C 0.46810 -0.11598 0.27911
 C471 C 0.47478 -0.13494 0.32824
 C472 C 0.48415 -0.18692 0.33435
 H473 H 0.50255 -0.29863 0.12718
 H474 H 0.51997 -0.36958 0.29980
 H475 H 0.52807 -0.42530 0.22673
 H476 H 0.50394 -0.28573 0.33616
 H477 H 0.48519 -0.21579 0.16289
 H478 H 0.46740 -0.13209 0.19950
 H479 H 0.46077 -0.07620 0.27314
 H480 H 0.48971 -0.20220 0.37187
 C481 C 0.00003 0.81324 0.16279
 C482 C 0.00221 0.78115 0.20492
 C483 C 0.01027 0.80181 0.25372
 C484 C 0.01632 0.85404 0.25961
 C485 C 0.01423 0.88571 0.21772
 C486 C 0.00589 0.86601 0.16861
 C487 C 0.01204 0.77003 0.29593
 C488 C 0.00584 0.71767 0.29006
 C489 C -0.00192 0.69691 0.24123
 C490 C -0.00367 0.72872 0.19900
 C491 C -0.00801 0.64461 0.23547
 C492 C -0.00684 0.61315 0.27763
 C493 C 0.00045 0.63325 0.32657
 C494 C 0.00702 0.68579 0.33233
 H495 H -0.00626 0.79687 0.12559
 H496 H 0.02261 0.87051 0.29674
 H497 H 0.01905 0.92589 0.22418
 H498 H 0.01808 0.78605 0.33334
 H499 H -0.00977 0.71269 0.16160
 H500 H -0.01391 0.62800 0.19834
 H501 H -0.01192 0.57293 0.27174
 H502 H 0.01272 0.70202 0.36966
 C503 C 0.50214 -0.33483 0.81346
 C504 C 0.50370 -0.29298 0.78131
 C505 C 0.50852 -0.24378 0.80204
 C506 C 0.51199 -0.23730 0.85452
 C507 C 0.51044 -0.27909 0.88628
 C508 C 0.50534 -0.32826 0.86620
 C509 C 0.50959 -0.20185 0.77007
 C510 C 0.50578 -0.20844 0.71757
 C511 C 0.50123 -0.25763 0.69678
 C512 C 0.50030 -0.29960 0.72876
 C513 C 0.49742 -0.26401 0.64430
 C514 C 0.49764 -0.22205 0.61267
 C515 C 0.50172 -0.17285 0.63291
 C516 C 0.50610 -0.16648 0.68556
 H517 H 0.49841 -0.37243 0.79733
 H518 H 0.51575 -0.19988 0.87104
 H519 H 0.51301 -0.27273 0.92670
 H520 H 0.51314 -0.16412 0.78604
 H521 H 0.49667 -0.33732 0.71280
 H522 H 0.49404 -0.30143 0.62770
 H523 H 0.49448 -0.22827 0.57226
 H524 H 0.50930 -0.12887 0.70182
 C525 C 0.50901 0.33371 0.18580
 C526 C 0.50871 0.29159 0.21768
 C527 C 0.50334 0.24253 0.19677
 C528 C 0.49874 0.23641 0.14432
 C529 C 0.49892 0.27849 0.11285
 C530 C 0.50376 0.32759 0.13318
 C531 C 0.50230 0.20042 0.22858
 C532 C 0.50636 0.20675 0.28112
 C533 C 0.51204 0.25580 0.30199
 C534 C 0.51327 0.29788 0.27016
 C535 C 0.51613 0.26201 0.35445
 C536 C 0.51426 0.22011 0.38607
 C537 C 0.50824 0.17108 0.36589
 C538 C 0.50453 0.16478 0.31315
 H539 H 0.51282 0.37122 0.20213
 H540 H 0.49471 0.19910 0.12763
 H541 H 0.49503 0.27243 0.07249
 H542 H 0.49801 0.16282 0.21250
 H543 H 0.51745 0.33549 0.28625
 H544 H 0.52057 0.29930 0.37108
 H545 H 0.51729 0.22631 0.42649
 H546 H 0.50006 0.12729 0.29692
 C547 C 0.00778 0.18530 0.83508
 C548 C 0.00684 0.21733 0.79290
 C549 C -0.00098 0.19675 0.74402
 C550 C -0.00746 0.14457 0.73807
 C551 C -0.00668 0.11295 0.78006
 C552 C 0.00071 0.13267 0.82931
 C553 C -0.00246 0.22862 0.70186
 C554 C 0.00360 0.28098 0.70789
 C555 C 0.01162 0.30159 0.75674
 C556 C 0.01328 0.26968 0.79889
 C557 C 0.01767 0.35388 0.76267
 C558 C 0.01554 0.38556 0.72073
 C559 C 0.00732 0.36569 0.67184
 C560 C 0.00154 0.31309 0.66583
 H561 H 0.01362 0.20165 0.87236
 H562 H -0.01341 0.12814 0.70087
 H563 H -0.01209 0.07284 0.77362
 H564 H -0.00859 0.21270 0.66442
 H565 H 0.01932 0.28562 0.83634
 H566 H 0.02390 0.37034 0.79981
 H567 H 0.02024 0.42580 0.72678
 H568 H -0.00470 0.29702 0.62851
 C569 C 0.16611 0.01082 0.18628
 C570 C 0.20828 0.01099 0.21841
 C571 C 0.25565 -0.00518 0.19977
 C572 C 0.26001 -0.02139 0.14943
 C573 C 0.21797 -0.02125 0.11765
 C574 C 0.17065 -0.00501 0.13559
 C575 C 0.29790 -0.00492 0.23167
 C576 C 0.29339 0.01114 0.28209
 C577 C 0.24604 0.02724 0.30083
 C578 C 0.20381 0.02721 0.26883
 C579 C 0.24165 0.04269 0.35144
 C580 C 0.28359 0.04152 0.38342
 C581 C 0.33080 0.02536 0.36524
 C582 C 0.33546 0.01068 0.31427
 H583 H 0.12997 0.02357 0.20067
 H584 H 0.29599 -0.03403 0.13457
 H585 H 0.22264 -0.03393 0.07889
 H586 H 0.33419 -0.01741 0.21733
 H587 H 0.16750 0.03957 0.28321
 H588 H 0.20568 0.05519 0.36644
 H589 H 0.27900 0.05318 0.42251
 H590 H 0.37152 -0.00237 0.29990
 C591 C 0.33615 0.51694 0.81557
 C592 C 0.29376 0.51527 0.78367
 C593 C 0.24488 0.52029 0.80438
 C594 C 0.23919 0.52678 0.85665
 C595 C 0.28137 0.52739 0.88831
 C596 C 0.33052 0.52221 0.86841
 C597 C 0.20243 0.51818 0.77264
 C598 C 0.20820 0.51047 0.72042
 C599 C 0.25711 0.50505 0.69978
 C600 C 0.29955 0.50776 0.73144
 C601 C 0.26283 0.49688 0.64774
 C602 C 0.22059 0.49442 0.61627
 C603 C 0.17162 0.50022 0.63610
 C604 C 0.16582 0.50805 0.68849
 H605 H 0.37337 0.51257 0.79912
 H606 H 0.20200 0.53071 0.87319
 H607 H 0.27517 0.53174 0.92860
 H608 H 0.16495 0.52214 0.78862
 H609 H 0.33702 0.50362 0.71548
 H610 H 0.30001 0.49250 0.63129
 H611 H 0.22649 0.48833 0.57617
 H612 H 0.12844 0.51251 0.70449
 C613 C 0.83421 -0.01711 0.81483
 C614 C 0.79174 -0.01997 0.78304
 C615 C 0.74319 -0.01056 0.80304
 C616 C 0.73780 0.00096 0.85448
 C617 C 0.78003 0.00349 0.88595
 C618 C 0.82896 -0.00523 0.86672
 C619 C 0.70079 -0.01240 0.77130
 C620 C 0.70626 -0.02330 0.71963
 C621 C 0.75470 -0.03336 0.69963
 C622 C 0.79712 -0.03181 0.73147
 C623 C 0.75999 -0.04397 0.64789
 C624 C 0.71794 -0.04319 0.61598
 C625 C 0.66966 -0.03216 0.63521
 C626 C 0.66410 -0.02315 0.68743
 H627 H 0.87124 -0.02430 0.79894
 H628 H 0.70083 0.00818 0.87045
 H629 H 0.77402 0.01259 0.92550
 H630 H 0.66362 -0.00474 0.78670
 H631 H 0.83431 -0.03919 0.71601
 H632 H 0.79679 -0.05198 0.63192
 H633 H 0.72341 -0.05056 0.57601
 H634 H 0.62724 -0.01433 0.70288
 C635 C -0.33680 0.47379 0.18548
 C636 C -0.29447 0.47444 0.21752
 C637 C -0.24553 0.47027 0.19674
 C638 C -0.23979 0.46497 0.14434
 C639 C -0.28192 0.46543 0.11257
 C640 C -0.33107 0.47059 0.13247
 C641 C -0.20310 0.47246 0.22854
 C642 C -0.20894 0.47961 0.28085
 C643 C -0.25792 0.48359 0.30162
 C644 C -0.30033 0.48058 0.26993
 C645 C -0.26372 0.49109 0.35377
 C646 C -0.22147 0.49502 0.38512
 C647 C -0.17240 0.49138 0.36508
 C648 C -0.16655 0.48338 0.31268
 H649 H -0.37402 0.47779 0.20199
 H650 H -0.20257 0.46151 0.12776
 H651 H -0.27566 0.46236 0.07218
 H652 H -0.16558 0.46945 0.21248
 H653 H -0.33785 0.48392 0.28596
 H654 H -0.30097 0.49418 0.37033
 H655 H -0.22741 0.50088 0.42525
 H656 H -0.12910 0.48040 0.29653
 C657 C 0.18554 -0.01517 0.83489
 C658 C 0.21768 -0.01446 0.79280
 C659 C 0.19788 -0.02368 0.74391
 C660 C 0.14634 -0.03395 0.73805
 C661 C 0.11451 -0.03423 0.78009
 C662 C 0.13363 -0.02452 0.82888
 C663 C 0.22979 -0.02208 0.70167
 C664 C 0.28129 -0.01136 0.70771
 C665 C 0.30111 -0.00251 0.75669
 C666 C 0.26920 -0.00404 0.79887
 C667 C 0.35263 0.00766 0.76269
 C668 C 0.38437 0.00879 0.72067
 C669 C 0.36515 0.00020 0.67175
 C670 C 0.31336 -0.00959 0.66555
 H671 H 0.20086 -0.00725 0.87216
 H672 H 0.13053 -0.04125 0.70089
 H673 H 0.07474 -0.04170 0.77426
 H674 H 0.21455 -0.02902 0.66416
 H675 H 0.28443 0.00300 0.83638
 H676 H 0.36844 0.01456 0.79993
 H677 H 0.42407 0.01667 0.72648
 H678 H 0.29816 -0.01672 0.62808
 C679 C 0.31446 0.48958 0.16677
 C680 C 0.28242 0.48788 0.20891
 C681 C 0.30216 0.49724 0.25782
 C682 C 0.35363 0.50780 0.26377
 C683 C 0.38536 0.50886 0.22172
 C684 C 0.36614 0.49983 0.17288
 C685 C 0.27021 0.49589 0.29997
 C686 C 0.21875 0.48515 0.29389
 C687 C 0.19908 0.47537 0.24505
 C688 C 0.23103 0.47678 0.20287
 C689 C 0.14762 0.46478 0.23916
 C690 C 0.11570 0.46475 0.28112
 C691 C 0.13469 0.47506 0.32984
 C692 C 0.18653 0.48469 0.33590
 H693 H 0.29928 0.48209 0.12935
 H694 H 0.36938 0.51508 0.30095
 H695 H 0.42500 0.51711 0.22742
 H696 H 0.28534 0.50334 0.33744
 H697 H 0.21588 0.46944 0.16539
 H698 H 0.13192 0.45704 0.20204
 H699 H 0.07599 0.45703 0.27527
 H700 H 0.20172 0.49305 0.37313
 C701 C 0.81411 0.02429 0.16448
 C702 C 0.78228 0.02431 0.20681
 C703 C 0.80246 0.03378 0.25550
 C704 C 0.85408 0.04402 0.26081
 C705 C 0.88567 0.04335 0.21853
 C706 C 0.86619 0.03281 0.17003
 C707 C 0.77091 0.03200 0.29808
 C708 C 0.71947 0.02056 0.29255
 C709 C 0.69932 0.01183 0.24367
 C710 C 0.73077 0.01384 0.20120
 C711 C 0.64797 0.00087 0.23799
 C712 C 0.61674 -0.00159 0.28026
 C713 C 0.63622 0.00653 0.32917
 C714 C 0.68782 0.01756 0.33506
 H715 H 0.79849 0.01586 0.12745
 H716 H 0.87022 0.05162 0.29777
 H717 H 0.92556 0.05033 0.22399
 H718 H 0.78647 0.03892 0.33547
 H719 H 0.71526 0.00667 0.16383
 H720 H 0.63194 -0.00590 0.20083
 H721 H 0.57722 -0.01036 0.27459
 H722 H 0.70319 0.02437 0.37252
 C723 C -0.31327 0.51930 0.83457
 C724 C -0.28152 0.52225 0.79209
 C725 C -0.30174 0.51435 0.74312
 C726 C -0.35330 0.50437 0.73734
 C727 C -0.38463 0.50195 0.77959
 C728 C -0.36506 0.50910 0.82862
 C729 C -0.27015 0.51615 0.70069
 C730 C -0.21843 0.52567 0.70644
 C731 C -0.19822 0.53440 0.75525
 C732 C -0.22989 0.53276 0.79777
 C733 C -0.14646 0.54381 0.76075
 C734 C -0.11477 0.54307 0.71855
 C735 C -0.13421 0.53320 0.66989
 C736 C -0.18643 0.52546 0.66416
 H737 H -0.29776 0.52536 0.87209
 H738 H -0.36943 0.49829 0.70010
 H739 H -0.42428 0.49388 0.77380
 H740 H -0.28572 0.50958 0.66324
 H741 H -0.21427 0.53907 0.83523
 H742 H -0.13031 0.55086 0.79781
 H743 H -0.07480 0.54946 0.72421
 H744 H -0.20208 0.51760 0.62702
   
