data_POSCAR
  _audit_creation_date              2014-09-24
  _audit_creation_method            'ToBaCCo'
  _symmetry_space_group_name_H-M    'P1'
  _symmetry_Int_Tables_number       1
  _symmetry_cell_setting            triclinic
  loop_
  _symmetry_equiv_pos_as_xyz
 x,y,z
_cell_length_a 43.9581
_cell_length_b 46.6166
_cell_length_c 45.6702
_cell_angle_alpha 90.322700
_cell_angle_beta 90.335200
_cell_angle_gamma 90.472500
loop_
  _atom_site_label
  _atom_site_type_symbol
  _atom_site_fract_x
  _atom_site_fract_y
  _atom_site_fract_z
O1 O 0.31940 0.36151 0.03403
 O2 O 0.36764 0.32946 -0.02193
 O3 O 0.32433 0.36637 -0.02231
 O4 O 0.36420 0.32665 0.03441
 O5 O 0.33191 0.29040 0.02953
 O6 O 0.29059 0.33146 -0.02739
 O7 O 0.33502 0.29354 -0.02729
 O8 O 0.28598 0.32616 0.02909
 Cu9 Cu 0.34710 0.34956 0.00649
 Cu10 Cu 0.30752 0.30673 0.00038
 C11 C 0.29454 0.34949 0.04117
 C12 C 0.35987 0.30590 -0.03398
 C13 C 0.30049 0.35624 -0.03441
 C14 C 0.35523 0.30180 0.04165
 O15 O 0.66580 0.62836 0.02578
 O16 O 0.61491 0.66345 -0.02684
 O17 O 0.65426 0.62285 -0.02995
 O18 O 0.62450 0.66714 0.02918
 O19 O 0.65864 0.70095 0.02036
 O20 O 0.69094 0.65422 -0.03812
 O21 O 0.65046 0.69573 -0.03618
 O22 O 0.70125 0.66114 0.01778
 Cu23 Cu 0.63642 0.64225 0.00037
 Cu24 Cu 0.67889 0.68133 -0.00990
 C25 C 0.69218 0.63866 0.03082
 C26 C 0.62389 0.68557 -0.04055
 C27 C 0.67779 0.63037 -0.04401
 C28 C 0.63599 0.69158 0.03484
 O29 O 0.68682 0.36247 1.00001
 O30 O 0.64808 0.30760 1.04303
 O31 O 0.68459 0.34915 1.05401
 O32 O 0.64594 0.32300 0.98829
 O33 O 0.68158 0.29076 0.98082
 O34 O 0.72447 0.32261 1.04383
 O35 O 0.68644 0.27804 1.03639
 O36 O 0.72255 0.33152 0.98808
 Cu37 Cu 0.66243 0.33832 1.02191
 Cu38 Cu 0.70749 0.30248 1.01156
 C39 C 0.71145 0.35654 0.98701
 C40 C 0.66077 0.28366 1.04753
 C41 C 0.71175 0.34185 1.05943
 C42 C 0.65638 0.30213 0.97367
 O43 O 0.31294 0.65304 0.97076
 O44 O 0.34321 0.68816 1.03611
 O45 O 0.30551 0.64755 1.02748
 O46 O 0.34951 0.69683 0.98203
 O47 O 0.31030 0.72605 0.97894
 O48 O 0.26641 0.67682 1.02694
 O49 O 0.30578 0.71946 1.03514
 O50 O 0.27292 0.68133 0.97052
 Cu51 Cu 0.33134 0.66811 1.00360
 Cu52 Cu 0.28484 0.70387 1.00264
 C53 C 0.28761 0.66037 0.95988
 C54 C 0.33046 0.71028 1.04635
 C55 C 0.27875 0.65375 1.03563
 C56 C 0.33799 0.72033 0.97379
 O57 O 0.01900 0.31522 0.34662
 O58 O -0.03479 0.35822 0.30448
 O59 O -0.04026 0.31937 0.34580
 O60 O 0.02273 0.35470 0.30768
 O61 O 0.01948 0.32277 0.27188
 O62 O -0.04046 0.28411 0.31350
 O63 O -0.03939 0.32356 0.27149
 O64 O 0.01857 0.28203 0.31197
 Cu65 Cu -0.00849 0.34000 0.32975
 Cu66 Cu -0.01079 0.29963 0.28883
 C67 C 0.02841 0.29151 0.33643
 C68 C -0.04542 0.34872 0.28041
 C69 C -0.05040 0.29516 0.33711
 C70 C 0.03113 0.34557 0.28281
 O71 O 0.03804 0.66033 0.63331
 O72 O -0.02505 0.62019 0.66512
 O73 O -0.02033 0.65882 0.62513
 O74 O 0.03337 0.62122 0.67234
 O75 O 0.02872 0.65456 0.70649
 O76 O -0.02520 0.69304 0.65822
 O77 O -0.03019 0.65339 0.69935
 O78 O 0.03311 0.69458 0.66653
 Cu79 Cu 0.00692 0.63681 0.64563
 Cu80 Cu 0.00094 0.67728 0.68614
 C81 C 0.04632 0.68425 0.64422
 C82 C -0.03817 0.62958 0.68785
 C83 C -0.03160 0.68259 0.63308
 C84 C 0.04034 0.63128 0.69739
 O85 O 0.98100 0.68578 0.35430
 O86 O 1.03898 0.64848 0.31244
 O87 O 1.03992 0.68549 0.35446
 O88 O 0.97996 0.64896 0.31189
 O89 O 0.98051 0.68385 0.27944
 O90 O 1.04018 0.72130 0.32317
 O91 O 1.03992 0.68327 0.27986
 O92 O 0.98136 0.72162 0.32287
 Cu93 Cu 1.00989 0.66368 0.33639
 Cu94 Cu 1.01057 0.70604 0.29799
 C95 C 0.97151 0.71010 0.34619
 C96 C 1.04933 0.65918 0.28903
 C97 C 1.05000 0.70987 0.34660
 C98 C 0.97011 0.65990 0.28831
 O99 O 0.98330 0.32258 0.64510
 O100 O 1.04657 0.34559 0.69200
 O101 O 1.04112 0.31143 0.64824
 O102 O 0.99013 0.35727 0.69008
 O103 O 0.97848 0.32132 0.71941
 O104 O 1.03152 0.27498 0.67736
 O105 O 1.03627 0.31081 0.72318
 O106 O 0.97405 0.28581 0.67407
 Cu107 Cu 1.01599 0.33767 0.66570
 Cu108 Cu 1.00411 0.29454 0.70154
 C109 C 0.96844 0.29990 0.65096
 C110 C 1.05167 0.33287 0.71597
 C111 C 1.04509 0.28540 0.65520
 C112 C 0.97644 0.34759 0.71234
 O113 O 0.30311 -0.01716 0.35610
 O114 O 0.35135 0.01505 0.30027
 O115 O 0.31417 0.03460 0.34012
 O116 O 0.34322 -0.03563 0.31884
 O117 O 0.30947 -0.03837 0.28288
 O118 O 0.27390 0.02806 0.31169
 O119 O 0.31282 0.01469 0.26891
 O120 O 0.26785 -0.02647 0.32259
 Cu121 Cu 0.33155 -0.00017 0.33214
 Cu122 Cu 0.28701 -0.00581 0.29329
 C123 C 0.27736 -0.02750 0.34884
 C124 C 0.34059 0.01966 0.27492
 C125 C 0.28824 0.04252 0.33116
 C126 C 0.33292 -0.04794 0.29597
 O127 O 0.64653 0.02994 0.67664
 O128 O 0.68969 -0.02624 0.64044
 O129 O 0.64494 -0.02565 0.67623
 O130 O 0.69080 0.02946 0.64027
 O131 O 0.72384 0.02933 0.67687
 O132 O 0.67687 -0.02656 0.71368
 O133 O 0.72302 -0.02664 0.67684
 O134 O 0.67823 0.02954 0.71432
 Cu135 Cu 0.66480 0.00191 0.65474
 Cu136 Cu 0.70380 0.00139 0.69923
 C137 C 0.65475 0.03933 0.70158
 C138 C 0.71363 -0.03602 0.65219
 C139 C 0.65280 -0.03562 0.70091
 C140 C 0.71508 0.03886 0.65217
 O141 O 0.37258 0.99849 0.67366
 O142 O 0.32553 1.04578 0.62877
 O143 O 0.36276 1.05232 0.67254
 O144 O 0.33605 0.99089 0.62876
 O145 O 0.29682 0.98497 0.65803
 O146 O 0.32601 1.04481 0.70437
 O147 O 0.28750 1.04043 0.65956
 O148 O 0.33386 0.98986 0.70309
 Cu149 Cu 0.35287 1.02238 0.64772
 Cu150 Cu 0.30701 1.01445 0.68418
 C151 C 0.36160 0.98666 0.69627
 C152 C 0.29853 1.05143 0.63647
 C153 C 0.34987 1.05834 0.69657
 C154 C 0.31175 0.97763 0.63546
 O155 O 0.61705 0.96447 0.34710
 O156 O 0.65500 1.02531 0.38257
 O157 O 0.61414 1.01945 0.34281
 O158 O 0.65831 0.96978 0.38738
 O159 O 0.69382 0.96780 0.35352
 O160 O 0.65031 1.02019 0.30954
 O161 O 0.69252 1.02359 0.35085
 O162 O 0.65167 0.96432 0.31232
 Cu163 Cu 0.63269 0.99475 0.36839
 Cu164 Cu 0.67575 0.99388 0.32812
 C165 C 0.62726 0.95437 0.32330
 C166 C 0.68027 1.03485 0.37328
 C167 C 0.62450 1.02846 0.31865
 C168 C 0.68347 0.96014 0.37824
 C169 C 0.90633 0.78579 0.49710
 C170 C 0.89881 0.80166 0.47225
 C171 C 0.87988 0.82551 0.47497
 C172 C 0.86623 0.83223 0.50208
 C173 C 0.87342 0.81516 0.52668
 C174 C 0.89384 0.79228 0.52444
 C175 C 0.84311 0.85560 0.50436
 C176 C 0.83691 0.86881 0.53163
 C177 C 0.81276 0.88796 0.53441
 C178 C 0.79612 0.89582 0.50965
 C179 C 0.80234 0.88395 0.48220
 C180 C 0.82554 0.86363 0.47967
 H181 H 0.92208 0.76814 0.49492
 H182 H 0.87528 0.83805 0.45563
 H183 H 0.86242 0.81869 0.54747
 H184 H 0.84999 0.86375 0.55102
 H185 H 0.77795 0.91126 0.51193
 H186 H 0.82868 0.85341 0.45861
 C187 C 0.11581 0.23362 0.49303
 C188 C 0.12478 0.22443 0.46530
 C189 C 0.14423 0.20090 0.46283
 C190 C 0.15440 0.18591 0.48796
 C191 C 0.14436 0.19559 0.51583
 C192 C 0.12616 0.22009 0.51838
 C193 C 0.17712 0.16198 0.48501
 C194 C 0.19614 0.15422 0.50881
 C195 C 0.21914 0.13379 0.50535
 C196 C 0.22404 0.12165 0.47774
 C197 C 0.20558 0.12866 0.45388
 C198 C 0.18150 0.14782 0.45778
 H199 H 0.10092 0.25197 0.49500
 H200 H 0.15227 0.19552 0.44122
 H201 H 0.15119 0.18500 0.53575
 H202 H 0.19428 0.16455 0.52993
 H203 H 0.24209 0.10619 0.47482
 H204 H 0.16694 0.15191 0.43917
 C205 C 0.12714 0.76570 0.50834
 C206 C 0.13312 0.78152 0.53382
 C207 C 0.15015 0.80694 0.53225
 C208 C 0.16316 0.81567 0.50551
 C209 C 0.15747 0.79875 0.48013
 C210 C 0.13895 0.77411 0.48132
 C211 C 0.18292 0.84198 0.50413
 C212 C 0.18622 0.85695 0.47756
 C213 C 0.20612 0.88045 0.47538
 C214 C 0.22179 0.89002 0.50042
 C215 C 0.21802 0.87646 0.52742
 C216 C 0.19900 0.85219 0.52909
 H217 H 0.11250 0.74693 0.50960
 H218 H 0.15328 0.81948 0.55204
 H219 H 0.16777 0.80412 0.45942
 H220 H 0.17315 0.85070 0.45841
 H221 H 0.23713 0.90825 0.49897
 H222 H 0.19759 0.84112 0.54978
 C223 C 0.88306 0.23438 0.49791
 C224 C 0.87802 0.21926 0.52378
 C225 C 0.85814 0.19562 0.52334
 C226 C 0.84129 0.18823 0.49789
 C227 C 0.84646 0.20438 0.47209
 C228 C 0.86754 0.22726 0.47199
 C229 C 0.81767 0.16465 0.49894
 C230 C 0.80734 0.15066 0.47303
 C231 C 0.78385 0.13010 0.47408
 C232 C 0.77221 0.12187 0.50122
 C233 C 0.78198 0.13501 0.52709
 C234 C 0.80425 0.15660 0.52597
 H235 H 0.89953 0.25181 0.49790
 H236 H 0.85560 0.18351 0.54327
 H237 H 0.83362 0.20012 0.45227
 H238 H 0.81682 0.15593 0.45194
 H239 H 0.75480 0.10528 0.50225
 H240 H 0.80991 0.16755 0.54621
 C241 C 0.50135 0.89207 0.77613
 C242 C 0.47206 0.88394 0.78475
 C243 C 0.46872 0.86243 0.80598
 C244 C 0.49443 0.85074 0.82045
 C245 C 0.52367 0.86137 0.81266
 C246 C 0.52716 0.88110 0.78983
 C247 C 0.49091 0.82771 0.84339
 C248 C 0.51583 0.81013 0.85117
 C249 C 0.51318 0.78916 0.87295
 C250 C 0.48507 0.78486 0.88642
 C251 C 0.45970 0.80115 0.87881
 C252 C 0.46273 0.82275 0.85766
 H253 H 0.50422 0.90760 0.75877
 H254 H 0.44597 0.85533 0.81111
 H255 H 0.54401 0.85442 0.82383
 H256 H 0.53738 0.81197 0.84011
 H257 H 0.48285 0.76859 0.90316
 H258 H 0.44309 0.83579 0.85320
 C259 C 0.49349 0.08885 0.20258
 C260 C 0.46816 0.09638 0.18572
 C261 C 0.47111 0.11816 0.16495
 C262 C 0.49819 0.13456 0.16278
 C263 C 0.52341 0.12648 0.18024
 C264 C 0.52119 0.10345 0.19973
 C265 C 0.49903 0.16123 0.14443
 C266 C 0.52693 0.17443 0.13668
 C267 C 0.52733 0.20112 0.12275
 C268 C 0.49999 0.21373 0.11420
 C269 C 0.47213 0.20063 0.12036
 C270 C 0.47169 0.17494 0.13602
 H271 H 0.49145 0.07214 0.21888
 H272 H 0.45166 0.12239 0.15115
 H273 H 0.54444 0.13860 0.18017
 H274 H 0.54850 0.16475 0.14193
 H275 H 0.50053 0.23381 0.10234
 H276 H 0.44969 0.16666 0.14228
 C277 C 0.50604 0.12371 0.77378
 C278 C 0.53258 0.12645 0.79060
 C279 C 0.53249 0.14373 0.81578
 C280 C 0.50666 0.16010 0.82315
 C281 C 0.48013 0.15704 0.80553
 C282 C 0.47974 0.13862 0.78117
 C283 C 0.50800 0.18132 0.84799
 C284 C 0.48108 0.19074 0.86169
 C285 C 0.48200 0.21267 0.88279
 C286 C 0.51011 0.22391 0.89189
 C287 C 0.53724 0.21439 0.87952
 C288 C 0.53612 0.19348 0.85734
 H289 H 0.50578 0.10965 0.75477
 H290 H 0.55296 0.14476 0.82897
 H291 H 0.46002 0.16955 0.80973
 H292 H 0.45919 0.18169 0.85571
 H293 H 0.51086 0.24007 0.90906
 H294 H 0.55725 0.18772 0.84696
 C295 C 0.48819 0.88175 0.22423
 C296 C 0.51655 0.87090 0.21616
 C297 C 0.51829 0.85093 0.19315
 C298 C 0.49191 0.84230 0.17752
 C299 C 0.46384 0.85504 0.18503
 C300 C 0.46173 0.87376 0.20904
 C301 C 0.49312 0.81855 0.15525
 C302 C 0.46709 0.80126 0.14998
 C303 C 0.46802 0.77788 0.13075
 C304 C 0.49546 0.77077 0.11736
 C305 C 0.52176 0.78724 0.12227
 C306 C 0.52040 0.81159 0.14048
 H307 H 0.48673 0.89700 0.24217
 H308 H 0.54014 0.84150 0.18852
 H309 H 0.44325 0.84995 0.17296
 H310 H 0.44605 0.80502 0.16145
 H311 H 0.49633 0.75248 0.10263
 H312 H 0.54079 0.82445 0.14343
 C313 C 0.76930 0.49583 0.88464
 C314 C 0.78611 0.47074 0.88072
 C315 C 0.80917 0.47033 0.85963
 C316 C 0.81469 0.49425 0.84147
 C317 C 0.79719 0.51931 0.84608
 C318 C 0.77509 0.52040 0.86809
 C319 C 0.83872 0.49312 0.81818
 C320 C 0.85177 0.51868 0.80724
 C321 C 0.87313 0.51795 0.78467
 C322 C 0.88352 0.49153 0.77440
 C323 C 0.87242 0.46574 0.78581
 C324 C 0.84911 0.46657 0.80672
 H325 H 0.75164 0.49644 0.90104
 H326 H 0.82308 0.45141 0.85808
 H327 H 0.80003 0.53802 0.83252
 H328 H 0.84546 0.53941 0.81583
 H329 H 0.90077 0.49107 0.75753
 H330 H 0.83970 0.44641 0.81407
 C331 C 0.23100 0.49503 0.12036
 C332 C 0.22146 0.47028 0.13461
 C333 C 0.19887 0.47184 0.15587
 C334 C 0.18484 0.49827 0.16273
 C335 C 0.19487 0.52321 0.14759
 C336 C 0.21887 0.52179 0.12740
 C337 C 0.16188 0.49991 0.18708
 C338 C 0.15610 0.52623 0.20155
 C339 C 0.13679 0.52741 0.22578
 C340 C 0.12368 0.50216 0.23639
 C341 C 0.12912 0.47571 0.22293
 C342 C 0.14703 0.47485 0.19760
 H343 H 0.24875 0.49344 0.10405
 H344 H 0.19362 0.45242 0.16763
 H345 H 0.18505 0.54394 0.15186
 H346 H 0.16728 0.54590 0.19516
 H347 H 0.10894 0.50314 0.25531
 H348 H 0.14983 0.45432 0.18696
 C349 C 0.75837 0.49896 0.13167
 C350 C 0.77114 0.52632 0.13542
 C351 C 0.79880 0.52938 0.15080
 C352 C 0.81280 0.50528 0.16385
 C353 C 0.79882 0.47801 0.16009
 C354 C 0.77203 0.47475 0.14370
 C355 C 0.84112 0.50831 0.18221
 C356 C 0.86059 0.48459 0.18614
 C357 C 0.88516 0.48590 0.20580
 C358 C 0.89141 0.51165 0.22056
 C359 C 0.87334 0.53581 0.21631
 C360 C 0.84812 0.53416 0.19736
 H361 H 0.73769 0.49645 0.11881
 H362 H 0.80889 0.55054 0.15281
 H363 H 0.80794 0.45915 0.17051
 H364 H 0.85686 0.46484 0.17408
 H365 H 0.91008 0.51283 0.23615
 H366 H 0.83354 0.55265 0.19561
 C367 C 0.22874 0.50938 0.88813
 C368 C 0.21058 0.53157 0.87769
 C369 C 0.18885 0.52589 0.85587
 C370 C 0.18689 0.49848 0.84241
 C371 C 0.20608 0.47656 0.85302
 C372 C 0.22652 0.48174 0.87619
 C373 C 0.16666 0.49329 0.81623
 C374 C 0.15807 0.46510 0.80765
 C375 C 0.14251 0.46017 0.78124
 C376 C 0.13315 0.48341 0.76436
 C377 C 0.13990 0.51157 0.77298
 C378 C 0.15714 0.51638 0.79847
 H379 H 0.24476 0.51384 0.90575
 H380 H 0.17438 0.54328 0.84910
 H381 H 0.20638 0.45563 0.84279
 H382 H 0.16388 0.44673 0.82080
 H383 H 0.12008 0.47945 0.74451
 H384 H 0.16378 0.53823 0.80347
 C385 C 0.24348 0.36241 0.06100
 C386 C 0.27534 0.36376 0.06307
 C387 C 0.28908 0.38178 0.08408
 C388 C 0.27145 0.40028 0.10101
 C389 C 0.23947 0.40051 0.09728
 C390 C 0.22561 0.38070 0.07803
 C391 C 0.22233 0.42193 0.11109
 C392 C 0.23709 0.44331 0.12778
 C393 C 0.26849 0.44162 0.13303
 C394 C 0.28555 0.42009 0.11994
 H395 H 0.31368 0.38260 0.08601
 H396 H 0.20114 0.38040 0.07504
 H397 H 0.19811 0.42348 0.10684
 H398 H 0.30999 0.42003 0.12318
 H399 H 0.23251 0.34854 0.04495
 H400 H 0.28005 0.45809 0.14581
 C401 C 0.74417 0.62427 0.04820
 C402 C 0.71241 0.62373 0.05166
 C403 C 0.69973 0.60709 0.07408
 C404 C 0.71824 0.59003 0.09187
 C405 C 0.75003 0.58936 0.08725
 C406 C 0.76283 0.60712 0.06576
 C407 C 0.76807 0.56997 0.10319
 C408 C 0.75442 0.55111 0.12326
 C409 C 0.72313 0.55340 0.12889
 C410 C 0.70521 0.57266 0.11339
 H411 H 0.67528 0.60681 0.07716
 H412 H 0.78714 0.60710 0.06196
 H413 H 0.79217 0.56826 0.09868
 H414 H 0.68095 0.57316 0.11745
 H415 H 0.75443 0.63701 0.03107
 H416 H 0.71227 0.53927 0.14450
 C417 C 0.72899 0.40697 0.98457
 C418 C 0.72774 0.37957 0.97174
 C419 C 0.74171 0.37472 0.94461
 C420 C 0.75550 0.39763 0.92968
 C421 C 0.75646 0.42517 0.94279
 C422 C 0.74366 0.42951 0.97043
 C423 C 0.76894 0.44832 0.92755
 C424 C 0.77873 0.44499 0.89849
 C425 C 0.77852 0.41738 0.88587
 C426 C 0.76736 0.39382 0.90148
 H427 H 0.74066 0.35356 0.93467
 H428 H 0.74418 0.45051 0.98073
 H429 H 0.76984 0.46924 0.93800
 H430 H 0.76681 0.37289 0.89105
 H431 H 0.71866 0.41091 1.00568
 H432 H 0.78576 0.41416 0.86348
 C433 C 0.29497 0.62965 0.91611
 C434 C 0.27494 0.64279 0.93579
 C435 C 0.24400 0.63483 0.93554
 C436 C 0.23388 0.61183 0.91781
 C437 C 0.25482 0.59763 0.89946
 C438 C 0.28492 0.60747 0.89784
 C439 C 0.24600 0.57255 0.88466
 C440 C 0.21675 0.56098 0.88837
 C441 C 0.19537 0.57597 0.90507
 C442 C 0.20386 0.60137 0.91966
 H443 H 0.22853 0.64468 0.95096
 H444 H 0.30115 0.59690 0.88372
 H445 H 0.26246 0.56096 0.87164
 H446 H 0.18744 0.61200 0.93350
 H447 H 0.31884 0.63560 0.91595
 H448 H 0.17271 0.56723 0.90807
 C449 C 0.05161 0.24471 0.35126
 C450 C 0.05015 0.27471 0.35404
 C451 C 0.06772 0.28857 0.37574
 C452 C 0.08503 0.27268 0.39561
 C453 C 0.08508 0.24238 0.39380
 C454 C 0.06891 0.22865 0.37103
 C455 C 0.09999 0.22645 0.41560
 C456 C 0.11425 0.24058 0.43933
 C457 C 0.11554 0.27071 0.43981
 C458 C 0.10113 0.28662 0.41814
 H459 H 0.06704 0.31174 0.37786
 H460 H 0.06880 0.20547 0.36913
 H461 H 0.09890 0.20321 0.41510
 H462 H 0.10160 0.30983 0.41963
 H463 H 0.03827 0.23358 0.33466
 H464 H 0.12687 0.28199 0.45765
 C465 C 0.09346 0.68503 0.61482
 C466 C 0.07082 0.70026 0.62968
 C467 C 0.06948 0.73025 0.62707
 C468 C 0.08875 0.74452 0.60740
 C469 C 0.11029 0.72860 0.59129
 C470 C 0.11332 0.69914 0.59604
 C471 C 0.12681 0.74186 0.56906
 C472 C 0.12138 0.77055 0.56182
 C473 C 0.10155 0.78688 0.57903
 C474 C 0.08543 0.77395 0.60187
 H475 H 0.05187 0.74204 0.63836
 H476 H 0.12986 0.68674 0.58398
 H477 H 0.14234 0.72933 0.55589
 H478 H 0.06916 0.78654 0.61406
 H479 H 0.09497 0.66193 0.61683
 H480 H 0.09718 0.80908 0.57367
 C481 C 0.92962 0.70872 0.38217
 C482 C 0.94977 0.72507 0.36519
 C483 C 0.95190 0.75489 0.36976
 C484 C 0.93591 0.76780 0.39288
 C485 C 0.91695 0.75071 0.41075
 C486 C 0.91310 0.72147 0.40457
 C487 C 0.90351 0.76266 0.43558
 C488 C 0.90918 0.79135 0.44338
 C489 C 0.92659 0.80877 0.42482
 C490 C 0.93988 0.79706 0.39965
 H491 H 0.96765 0.76755 0.35688
 H492 H 0.89847 0.70818 0.41798
 H493 H 0.88973 0.74927 0.44974
 H494 H 0.95420 0.81056 0.38617
 H495 H 0.92755 0.68576 0.37883
 H496 H 0.93104 0.83100 0.43052
 C497 C 0.93126 0.30846 0.61071
 C498 C 0.94575 0.28918 0.62961
 C499 C 0.94125 0.25951 0.62559
 C500 C 0.92394 0.24920 0.60175
 C501 C 0.91016 0.26885 0.58243
 C502 C 0.91329 0.29839 0.58752
 C503 C 0.89440 0.25873 0.55770
 C504 C 0.89279 0.22920 0.55138
 C505 C 0.90587 0.20973 0.57108
 C506 C 0.92122 0.21965 0.59614
 H507 H 0.95271 0.24450 0.63987
 H508 H 0.90279 0.31372 0.57293
 H509 H 0.88383 0.27394 0.54300
 H510 H 0.93167 0.20426 0.61069
 H511 H 0.93444 0.33139 0.61348
 H512 H 0.90499 0.18689 0.56667
 C513 C 0.38537 0.00893 0.24515
 C514 C 0.36183 0.02792 0.25193
 C515 C 0.36099 0.05508 0.23900
 C516 C 0.38517 0.06407 0.22116
 C517 C 0.40956 0.04518 0.21553
 C518 C 0.40886 0.01732 0.22673
 C519 C 0.43536 0.05510 0.20081
 C520 C 0.43795 0.08405 0.19293
 C521 C 0.41283 0.10219 0.19676
 C522 C 0.38651 0.09219 0.21053
 H523 H 0.34283 0.06973 0.24447
 H524 H 0.42729 0.00257 0.22256
 H525 H 0.45442 0.04083 0.19749
 H526 H 0.36804 0.10694 0.21447
 H527 H 0.38603 -0.01218 0.25496
 H528 H 0.41430 0.12465 0.19097
 C529 C 0.62017 0.08077 0.69764
 C530 C 0.63606 0.06153 0.71551
 C531 C 0.63132 0.06186 0.74594
 C532 C 0.60914 0.07991 0.75805
 C533 C 0.59249 0.09833 0.73952
 C534 C 0.59879 0.09923 0.70956
 C535 C 0.56871 0.11455 0.75090
 C536 C 0.56056 0.11221 0.78043
 C537 C 0.57797 0.09496 0.79914
 C538 C 0.60219 0.07893 0.78802
 H539 H 0.64339 0.04689 0.75978
 H540 H 0.58631 0.11336 0.69516
 H541 H 0.55567 0.12826 0.73648
 H542 H 0.61474 0.06504 0.80261
 H543 H 0.62374 0.08099 0.67418
 H544 H 0.57205 0.09298 0.82203
 C545 C 0.40853 0.98572 0.72577
 C546 C 0.38237 0.97122 0.71580
 C547 C 0.37726 0.94252 0.72390
 C548 C 0.39916 0.92806 0.74086
 C549 C 0.42548 0.94301 0.75059
 C550 C 0.42969 0.97190 0.74337
 C551 C 0.44788 0.92867 0.76647
 C552 C 0.44556 0.89904 0.77166
 C553 C 0.41902 0.88433 0.76266
 C554 C 0.39587 0.89880 0.74758
 H555 H 0.35709 0.93129 0.71605
 H556 H 0.44979 0.98359 0.75066
 H557 H 0.46779 0.94052 0.77402
 H558 H 0.37589 0.88692 0.74035
 H559 H 0.41257 1.00791 0.71986
 H560 H 0.41662 0.86151 0.76635
 C561 C 0.58639 0.91710 0.32332
 C562 C 0.60934 0.93181 0.30803
 C563 C 0.61241 0.92711 0.27773
 C564 C 0.59115 0.90980 0.26256
 C565 C 0.56714 0.89654 0.27808
 C566 C 0.56560 0.89951 0.30852
 C567 C 0.54401 0.88196 0.26279
 C568 C 0.54409 0.88088 0.23208
 C569 C 0.56892 0.89248 0.21684
 C570 C 0.59235 0.90682 0.23198
 H571 H 0.62999 0.93836 0.26571
 H572 H 0.54749 0.88927 0.32074
 H573 H 0.52504 0.87272 0.27466
 H574 H 0.61065 0.91666 0.21970
 H575 H 0.58378 0.92005 0.34671
 H576 H 0.56934 0.89184 0.19313
 C577 C 0.40290 0.30985 0.93118
 C578 C 0.38080 0.29268 0.94485
 C579 C 0.38087 0.26281 0.94021
 C580 C 0.40406 0.25011 0.92365
 C581 C 0.42679 0.26765 0.91102
 C582 C 0.42555 0.29748 0.91423
 C583 C 0.45121 0.25510 0.89645
 C584 C 0.45384 0.22515 0.89481
 C585 C 0.43058 0.20776 0.90624
 C586 C 0.40579 0.22017 0.92054
 H587 H 0.36399 0.24939 0.95080
 H588 H 0.44273 0.31118 0.90451
 H589 H 0.46884 0.26864 0.88720
 H590 H 0.38855 0.20636 0.92997
 H591 H 0.40311 0.33292 0.93422
 H592 H 0.43220 0.18461 0.90511
 C593 C 0.57564 0.68570 0.93031
 C594 C 0.60273 0.69975 0.93884
 C595 C 0.60840 0.72781 0.92887
 C596 C 0.58648 0.74217 0.91197
 C597 C 0.55895 0.72804 0.90444
 C598 C 0.55407 0.69963 0.91312
 C599 C 0.53608 0.74294 0.88957
 C600 C 0.53975 0.77219 0.88295
 C601 C 0.56775 0.78572 0.88924
 C602 C 0.59099 0.77079 0.90351
 H603 H 0.62919 0.73890 0.93529
 H604 H 0.53312 0.68846 0.90742
 H605 H 0.51479 0.73211 0.88434
 H606 H 0.61199 0.78198 0.90897
 H607 H 0.57082 0.66401 0.93741
 H608 H 0.57110 0.80825 0.88448
 C609 C 0.34320 0.75604 0.07285
 C610 C 0.34651 0.72624 0.06986
 C611 C 0.36977 0.71242 0.08547
 C612 C 0.39171 0.72838 0.10087
 C613 C 0.38966 0.75861 0.10194
 C614 C 0.36456 0.77213 0.08899
 C615 C 0.41382 0.77476 0.11399
 C616 C 0.44027 0.76098 0.12391
 C617 C 0.44124 0.73091 0.12425
 C618 C 0.41700 0.71470 0.11310
 H619 H 0.37234 0.68937 0.08353
 H620 H 0.36250 0.79527 0.08976
 H621 H 0.41306 0.79800 0.11358
 H622 H 0.41877 0.69153 0.11259
 H623 H 0.32547 0.76713 0.06098
 H624 H 0.46128 0.71998 0.13221
 C625 C 0.64515 0.23297 0.05783
 C626 C 0.64438 0.26226 0.06511
 C627 C 0.62442 0.27181 0.08682
 C628 C 0.60342 0.25292 0.09931
 C629 C 0.60263 0.22380 0.09039
 C630 C 0.62436 0.21381 0.07044
 C631 C 0.57891 0.20585 0.10007
 C632 C 0.55587 0.21712 0.11783
 C633 C 0.55814 0.24551 0.12806
 C634 C 0.58184 0.26325 0.11902
 H635 H 0.62400 0.29438 0.09272
 H636 H 0.62429 0.19154 0.06349
 H637 H 0.57711 0.18394 0.09213
 H638 H 0.58236 0.28543 0.12625
 H639 H 0.66045 0.22527 0.04109
 H640 H 0.54067 0.25434 0.14202
 C641 C 0.24836 0.07311 0.62221
 C642 C 0.27979 0.07021 0.61759
 C643 C 0.29310 0.08394 0.59342
 C644 C 0.27518 0.09899 0.57330
 C645 C 0.24342 0.10088 0.57749
 C646 C 0.23034 0.08837 0.60236
 C647 C 0.22524 0.11410 0.55607
 C648 C 0.23845 0.12473 0.53029
 C649 C 0.27018 0.12372 0.52701
 C650 C 0.28841 0.11114 0.54839
 H651 H 0.31733 0.08209 0.58962
 H652 H 0.20605 0.08966 0.60602
 H653 H 0.20074 0.11463 0.55862
 H654 H 0.31274 0.11002 0.54495
 H655 H 0.23753 0.06284 0.64067
 H656 H 0.28078 0.13200 0.50740
 C657 C 0.67778 0.07294 0.40958
 C658 C 0.69452 0.05747 0.38863
 C659 C 0.72572 0.06401 0.38505
 C660 C 0.74035 0.08367 0.40413
 C661 C 0.72312 0.09818 0.42552
 C662 C 0.69180 0.09343 0.42739
 C663 C 0.73765 0.11575 0.44619
 C664 C 0.76950 0.11768 0.44737
 C665 C 0.78664 0.10454 0.42526
 C666 C 0.77209 0.08787 0.40352
 H667 H 0.73904 0.05234 0.36909
 H668 H 0.67835 0.10452 0.44366
 H669 H 0.72424 0.12633 0.46288
 H670 H 0.78577 0.07703 0.38727
 H671 H 0.65367 0.06902 0.41257
 H672 H 0.81125 0.10585 0.42573
 C673 C 0.71383 0.92066 0.62088
 C674 C 0.73041 0.94184 0.63615
 C675 C 0.76204 0.94412 0.63230
 C676 C 0.77647 0.92701 0.61113
 C677 C 0.75909 0.90680 0.59478
 C678 C 0.72812 0.90299 0.60063
 C679 C 0.77229 0.89227 0.57133
 C680 C 0.80236 0.89821 0.56321
 C681 C 0.82024 0.91686 0.58045
 C682 C 0.80739 0.93110 0.60445
 H683 H 0.77479 0.96070 0.64385
 H684 H 0.71459 0.88749 0.58835
 H685 H 0.75856 0.87775 0.55799
 H686 H 0.82112 0.94639 0.61676
 H687 H 0.68946 0.91860 0.62377
 H688 H 0.84350 0.92162 0.57435
 C689 C 0.25214 0.97746 0.39657
 C690 C 0.25815 0.96054 0.37184
 C691 C 0.24807 0.93196 0.37063
 C692 C 0.23391 0.91971 0.39511
 C693 C 0.22870 0.93675 0.42030
 C694 C 0.23704 0.96579 0.42048
 C695 C 0.21700 0.92414 0.44560
 C696 C 0.21197 0.89439 0.44680
 C697 C 0.21588 0.87778 0.42130
 C698 C 0.22646 0.89041 0.39555
 H699 H 0.25301 0.91891 0.35154
 H700 H 0.23318 0.97912 0.43960
 H701 H 0.21334 0.93731 0.46488
 H702 H 0.23026 0.87702 0.37648
 H703 H 0.25971 0.99963 0.39756
 H704 H 0.21228 0.85478 0.42166
 C705 C 0.06699 0.34977 0.76581
 C706 C 0.07409 0.34600 0.73611
 C707 C 0.09893 0.36091 0.72427
 C708 C 0.11413 0.38203 0.74072
 C709 C 0.10505 0.38776 0.76984
 C710 C 0.08249 0.37049 0.78266
 C711 C 0.11674 0.41212 0.78453
 C712 C 0.13655 0.43095 0.76993
 C713 C 0.14714 0.42374 0.74193
 C714 C 0.13624 0.39933 0.72751
 H715 H 0.10447 0.35800 0.70133
 H716 H 0.07536 0.37438 0.80499
 H717 H 0.10847 0.41775 0.80611
 H718 H 0.14360 0.39506 0.70532
 H719 H 0.04772 0.33860 0.77524
 H720 H 0.16262 0.43799 0.73056
 C721 C 0.07217 0.64312 0.24156
 C722 C 0.07158 0.64231 0.27228
 C723 C 0.08946 0.62218 0.28711
 C724 C 0.10547 0.60131 0.27159
 C725 C 0.10426 0.60083 0.24064
 C726 C 0.08848 0.62250 0.22581
 C727 C 0.11703 0.57766 0.22532
 C728 C 0.13008 0.55479 0.24078
 C729 C 0.13289 0.55653 0.27137
 C730 C 0.12088 0.57971 0.28666
 H731 H 0.08938 0.62165 0.31085
 H732 H 0.08746 0.62263 0.20210
 H733 H 0.11475 0.57631 0.20170
 H734 H 0.12222 0.57995 0.31036
 H735 H 0.05854 0.65851 0.22974
 H736 H 0.14320 0.53922 0.28354
 C737 C 0.90680 0.36422 0.25497
 C738 C 0.93762 0.36855 0.26177
 C739 C 0.95254 0.39349 0.25235
 C740 C 0.93658 0.41477 0.23740
 C741 C 0.90510 0.41119 0.23188
 C742 C 0.89054 0.38552 0.24017
 C743 C 0.88858 0.43386 0.21950
 C744 C 0.90320 0.46007 0.21301
 C745 C 0.93484 0.46253 0.21694
 C746 C 0.95140 0.44010 0.22902
 H747 H 0.97649 0.39663 0.25746
 H748 H 0.86647 0.38230 0.23597
 H749 H 0.86416 0.43178 0.21669
 H750 H 0.97560 0.44295 0.23277
 H751 H 0.89511 0.34498 0.26213
 H752 H 0.94664 0.48230 0.21162
 C753 C 0.92274 0.59097 0.68411
 C754 C 0.93811 0.61159 0.70133
 C755 C 0.93338 0.61228 0.73175
 C756 C 0.91542 0.59102 0.74506
 C757 C 0.90136 0.56954 0.72754
 C758 C 0.90429 0.57028 0.69707
 C759 C 0.88601 0.54673 0.74079
 C760 C 0.88502 0.54458 0.77138
 C761 C 0.89758 0.56668 0.78874
 C762 C 0.91264 0.58983 0.77565
 H763 H 0.94531 0.62803 0.74519
 H764 H 0.89347 0.55407 0.68336
 H765 H 0.87593 0.52989 0.72732
 H766 H 0.92314 0.60614 0.78945
 H767 H 0.92585 0.59025 0.66060
 H768 H 0.89698 0.56536 0.81240
 C769 C 0.67244 0.58678 0.92671
 C770 C 0.68936 0.61152 0.93465
 C771 C 0.71843 0.61560 0.92224
 C772 C 0.73128 0.59405 0.90450
 C773 C 0.71433 0.56890 0.89800
 C774 C 0.68463 0.56595 0.90836
 C775 C 0.72794 0.54615 0.88298
 C776 C 0.75891 0.54732 0.87567
 C777 C 0.77520 0.57302 0.88050
 C778 C 0.76140 0.59632 0.89457
 H779 H 0.73184 0.63447 0.92789
 H780 H 0.67129 0.54687 0.90340
 H781 H 0.71500 0.52661 0.87888
 H782 H 0.77480 0.61544 0.89916
 H783 H 0.64980 0.58306 0.93521
 H784 H 0.79912 0.57445 0.87512
 C785 C 0.25573 0.36539 0.93467
 C786 C 0.28488 0.37318 0.94513
 C787 C 0.29770 0.39944 0.93602
 C788 C 0.28120 0.41831 0.91846
 C789 C 0.25127 0.41112 0.90957
 C790 C 0.23901 0.38430 0.91721
 C791 C 0.23383 0.43134 0.89425
 C792 C 0.24603 0.45866 0.88805
 C793 C 0.27648 0.46474 0.89550
 C794 C 0.29388 0.44479 0.91060
 H795 H 0.32036 0.40574 0.94323
 H796 H 0.21619 0.37826 0.91035
 H797 H 0.21038 0.42641 0.88857
 H798 H 0.31699 0.45043 0.91689
 H799 H 0.24526 0.34526 0.94097
 H800 H 0.28663 0.48532 0.89029
 C801 C 0.23153 0.63656 0.05876
 C802 C 0.26312 0.63459 0.05404
 C803 C 0.27916 0.61229 0.06768
 C804 C 0.26411 0.59189 0.08474
 C805 C 0.23217 0.59285 0.08788
 C806 C 0.21615 0.61563 0.07516
 C807 C 0.21700 0.57064 0.10300
 C808 C 0.23372 0.54779 0.11497
 C809 C 0.26569 0.54859 0.11342
 C810 C 0.28067 0.57016 0.09823
 H811 H 0.30361 0.61067 0.06507
 H812 H 0.19170 0.61704 0.07756
 H813 H 0.19240 0.57049 0.10435
 H814 H 0.30525 0.56951 0.09657
 H815 H 0.21848 0.65358 0.04882
 H816 H 0.27921 0.53189 0.12334
 C817 C 0.75990 0.35716 0.08234
 C818 C 0.72788 0.35718 0.08121
 C819 C 0.71213 0.37645 0.09943
 C820 C 0.72770 0.39780 0.11521
 C821 C 0.75974 0.39966 0.11367
 C822 C 0.77571 0.37839 0.09834
 C823 C 0.77483 0.42383 0.12562
 C824 C 0.75796 0.44621 0.13828
 C825 C 0.72643 0.44279 0.14180
 C826 C 0.71144 0.41871 0.13051
 H827 H 0.68745 0.37629 0.09972
 H828 H 0.80032 0.37916 0.09730
 H829 H 0.79918 0.42634 0.12287
 H830 H 0.68689 0.41733 0.13221
 H831 H 0.77278 0.34237 0.06899
 H832 H 0.71317 0.45957 0.15195
 C833 C 0.94085 0.68445 0.58669
 C834 C 0.94976 0.69755 0.61334
 C835 C 0.94143 0.72629 0.61861
 C836 C 0.92665 0.74219 0.59669
 C837 C 0.91890 0.72884 0.56978
 C838 C 0.92531 0.69983 0.56535
 C839 C 0.90619 0.74499 0.54713
 C840 C 0.90224 0.77473 0.55031
 C841 C 0.90885 0.78770 0.57751
 C842 C 0.92074 0.77151 0.60060
 H843 H 0.94798 0.73684 0.63893
 H844 H 0.91935 0.68927 0.54488
 H845 H 0.90046 0.73455 0.52652
 H846 H 0.92646 0.78217 0.62107
 H847 H 0.94638 0.66231 0.58195
 H848 H 0.90606 0.81058 0.58055
 C849 C 0.92210 0.25084 0.34972
 C850 C 0.92868 0.28012 0.35475
 C851 C 0.91611 0.29349 0.37961
 C852 C 0.89964 0.27758 0.40022
 C853 C 0.89540 0.24773 0.39622
 C854 C 0.90587 0.23477 0.37039
 C855 C 0.88236 0.23127 0.41883
 C856 C 0.87397 0.24447 0.44537
 C857 C 0.87605 0.27451 0.44789
 C858 C 0.88878 0.29089 0.42559
 H859 H 0.92019 0.31615 0.38370
 H860 H 0.90252 0.21198 0.36668
 H861 H 0.88080 0.20814 0.41663
 H862 H 0.89138 0.31384 0.42879
 H863 H 0.93104 0.23985 0.33070
 H864 H 0.86918 0.28520 0.46788
 C865 C 0.06202 0.23809 0.63779
 C866 C 0.06356 0.26830 0.63720
 C867 C 0.08217 0.28151 0.61613
 C868 C 0.09685 0.26530 0.59467
 C869 C 0.09297 0.23518 0.59369
 C870 C 0.07629 0.22170 0.61597
 C871 C 0.10454 0.21953 0.56969
 C872 C 0.11963 0.23401 0.54692
 C873 C 0.12543 0.26360 0.54971
 C874 C 0.11410 0.27911 0.57326
 H875 H 0.08452 0.30469 0.61572
 H876 H 0.07337 0.19860 0.61594
 H877 H 0.10016 0.19668 0.56779
 H878 H 0.11773 0.30213 0.57403
 H879 H 0.04820 0.22716 0.65388
 H880 H 0.13754 0.27503 0.53272
 C881 C 0.07769 0.75382 0.36057
 C882 C 0.07108 0.72448 0.36470
 C883 C 0.08435 0.71041 0.38878
 C884 C 0.10192 0.72564 0.40941
 C885 C 0.10631 0.75552 0.40634
 C886 C 0.09486 0.76924 0.38137
 C887 C 0.12067 0.77127 0.42898
 C888 C 0.13042 0.75737 0.45465
 C889 C 0.12819 0.72729 0.45613
 C890 C 0.11396 0.71160 0.43382
 H891 H 0.08027 0.68768 0.39209
 H892 H 0.09833 0.79207 0.37840
 H893 H 0.12233 0.79443 0.42749
 H894 H 0.11133 0.68860 0.43622
 H895 H 0.06821 0.76530 0.34215
 H896 H 0.13630 0.71598 0.47526
 C897 C 0.61439 0.92525 0.69607
 C898 C 0.63303 0.94229 0.71438
 C899 C 0.63036 0.93966 0.74499
 C900 C 0.60763 0.92176 0.75698
 C901 C 0.58819 0.90585 0.73807
 C902 C 0.59238 0.90705 0.70777
 C903 C 0.56361 0.89037 0.74953
 C904 C 0.55737 0.89116 0.77963
 C905 C 0.57767 0.90554 0.79861
 C906 C 0.60275 0.92065 0.78737
 H907 H 0.64456 0.95277 0.75930
 H908 H 0.57778 0.89484 0.69302
 H909 H 0.54804 0.87919 0.73481
 H910 H 0.61742 0.93257 0.80228
 H911 H 0.61628 0.92659 0.67247
 H912 H 0.57313 0.90651 0.82187
 C913 C 0.36899 0.91167 0.30167
 C914 C 0.35081 0.92848 0.28323
 C915 C 0.35505 0.92696 0.25274
 C916 C 0.37919 0.91098 0.24108
 C917 C 0.39846 0.89556 0.26013
 C918 C 0.39241 0.89509 0.29020
 C919 C 0.42452 0.88229 0.24910
 C920 C 0.43195 0.88447 0.21931
 C921 C 0.41191 0.89846 0.20020
 C922 C 0.38569 0.91165 0.21100
 H923 H 0.34148 0.94028 0.23840
 H924 H 0.40685 0.88322 0.30505
 H925 H 0.43974 0.87118 0.26388
 H926 H 0.37117 0.92329 0.19604
 H927 H 0.36615 0.91261 0.32520
 H928 H 0.41723 0.90028 0.17715
 C929 C 0.57894 0.05946 0.31334
 C930 C 0.60551 0.04804 0.30101
 C931 C 0.61224 0.05385 0.27151
 C932 C 0.59161 0.06934 0.25414
 C933 C 0.56432 0.07943 0.26663
 C934 C 0.55862 0.07506 0.29636
 C935 C 0.54241 0.09246 0.24894
 C936 C 0.54698 0.09515 0.21871
 C937 C 0.57478 0.08663 0.20659
 C938 C 0.59700 0.07382 0.22421
 H939 H 0.63267 0.04525 0.26176
 H940 H 0.53791 0.08287 0.30628
 H941 H 0.52106 0.09929 0.25840
 H942 H 0.61783 0.06641 0.21423
 H943 H 0.57335 0.05566 0.33606
 H944 H 0.57862 0.08854 0.18327
 C945 C 0.35984 0.07862 0.74673
 C946 C 0.36463 0.07963 0.71634
 C947 C 0.38745 0.09789 0.70540
 C948 C 0.40725 0.11259 0.72452
 C949 C 0.40378 0.10972 0.75514
 C950 C 0.37922 0.09363 0.76599
 C951 C 0.42620 0.12109 0.77415
 C952 C 0.45232 0.13441 0.76269
 C953 C 0.45441 0.13882 0.73238
 C954 C 0.43193 0.12825 0.71345
 H955 H 0.39123 0.09904 0.68199
 H956 H 0.37603 0.09132 0.78937
 H957 H 0.42468 0.11740 0.79751
 H958 H 0.43481 0.13081 0.69006
 H959 H 0.34242 0.06473 0.75571
 H960 H 0.47441 0.14907 0.72325
 C961 C 0.60983 0.69425 0.08260
 C962 C 0.62184 0.70872 0.05832
 C963 C 0.61611 0.73820 0.05494
 C964 C 0.59627 0.75234 0.07434
 C965 C 0.58306 0.73691 0.09771
 C966 C 0.59088 0.70825 0.10227
 C967 C 0.56059 0.74967 0.11492
 C968 C 0.55046 0.77747 0.10886
 C969 C 0.56483 0.79344 0.08686
 C970 C 0.58772 0.78099 0.06977
 H971 H 0.62506 0.74941 0.03609
 H972 H 0.58109 0.69622 0.12019
 H973 H 0.54945 0.73730 0.13188
 H974 H 0.59761 0.79325 0.05208
 H975 H 0.61415 0.67161 0.08568
 H976 H 0.55713 0.81486 0.08181
 C977 C 0.39272 0.30161 0.08257
 C978 C 0.37322 0.28613 0.06365
 C979 C 0.37377 0.25598 0.06384
 C980 C 0.39543 0.24158 0.08097
 C981 C 0.41603 0.25759 0.09865
 C982 C 0.41378 0.28747 0.10007
 C983 C 0.43971 0.24368 0.11325
 C984 C 0.44368 0.21402 0.10993
 C985 C 0.42214 0.19795 0.09381
 C986 C 0.39811 0.21163 0.07948
 H987 H 0.35886 0.24388 0.04926
 H988 H 0.42923 0.30000 0.11371
 H989 H 0.45603 0.25613 0.12603
 H990 H 0.38247 0.19896 0.06619
 H991 H 0.39241 0.32484 0.08309
 H992 H 0.42485 0.17503 0.09100
 C993 C 0.61654 0.30877 0.93555
 C994 C 0.63786 0.29075 0.94903
 C995 C 0.63836 0.26147 0.94135
 C996 C 0.61600 0.24996 0.92232
 C997 C 0.59365 0.26818 0.91030
 C998 C 0.59481 0.29765 0.91619
 C999 C 0.56934 0.25648 0.89414
 C1000 C 0.56643 0.22668 0.89039
 C1001 C 0.58965 0.20878 0.90072
 C1002 C 0.61434 0.22035 0.91651
 H1003 H 0.65462 0.24738 0.95175
 H1004 H 0.57799 0.31191 0.90695
 H1005 H 0.55163 0.27042 0.88594
 H1006 H 0.63130 0.20602 0.92537
 H1007 H 0.61594 0.33143 0.94087
 H1008 H 0.58778 0.18573 0.89806
 C1009 C 0.38305 0.75162 0.97807
 C1010 C 0.35846 0.74188 0.96092
 C1011 C 0.35603 0.75051 0.93155
 C1012 C 0.37939 0.76725 0.91895
 C1013 C 0.40465 0.77593 0.93632
 C1014 C 0.40576 0.76878 0.96602
 C1015 C 0.42946 0.78986 0.92337
 C1016 C 0.43020 0.79431 0.89299
 C1017 C 0.40434 0.78734 0.87609
 C1018 C 0.37902 0.77406 0.88901
 H1019 H 0.33716 0.74277 0.91823
 H1020 H 0.42492 0.77531 0.97960
 H1021 H 0.44924 0.79542 0.93660
 H1022 H 0.35987 0.76775 0.87531
 H1023 H 0.38510 0.74517 1.00077
 H1024 H 0.40449 0.79048 0.85261
 C1025 C 0.68686 0.92855 0.42196
 C1026 C 0.70089 0.94048 0.39722
 C1027 C 0.73188 0.93501 0.39212
 C1028 C 0.74900 0.91930 0.41252
 C1029 C 0.73474 0.90850 0.43789
 C1030 C 0.70356 0.91258 0.44201
 C1031 C 0.75211 0.89503 0.45950
 C1032 C 0.78379 0.89283 0.45666
 C1033 C 0.79767 0.90218 0.43075
 C1034 C 0.78038 0.91526 0.40877
 H1035 H 0.74297 0.94406 0.37311
 H1036 H 0.69229 0.90428 0.46127
 H1037 H 0.74117 0.88744 0.47926
 H1038 H 0.79172 0.92324 0.38942
 H1039 H 0.66298 0.93212 0.42625
 H1040 H 0.82209 0.90069 0.42817
 C1041 C 0.31794 0.94560 0.59187
 C1042 C 0.30041 0.95427 0.61598
 C1043 C 0.27135 0.94193 0.61988
 C1044 C 0.25931 0.92258 0.59899
 C1045 C 0.27674 0.91517 0.57420
 C1046 C 0.30628 0.92618 0.57126
 C1047 C 0.26384 0.89807 0.55197
 C1048 C 0.23341 0.88877 0.55370
 C1049 C 0.21677 0.89481 0.57914
 C1050 C 0.22965 0.91153 0.60166
 H1051 H 0.25760 0.94832 0.63839
 H1052 H 0.32000 0.92056 0.55248
 H1053 H 0.27699 0.89317 0.53258
 H1054 H 0.21597 0.91681 0.62057
 H1055 H 0.34047 0.95448 0.58841
 H1056 H 0.19326 0.88795 0.58089
 C1057 C 0.29295 0.08876 0.35811
 C1058 C 0.27412 0.06723 0.34601
 C1059 C 0.24315 0.06625 0.35370
 C1060 C 0.23197 0.08474 0.37556
 C1061 C 0.25182 0.10498 0.38897
 C1062 C 0.28184 0.10767 0.37919
 C1063 C 0.24207 0.12076 0.41332
 C1064 C 0.21287 0.11639 0.42483
 C1065 C 0.19254 0.09767 0.41039
 C1066 C 0.20201 0.08196 0.38585
 H1067 H 0.22859 0.04942 0.34481
 H1068 H 0.29724 0.12323 0.38910
 H1069 H 0.25776 0.13531 0.42442
 H1070 H 0.18641 0.06666 0.37582
 H1071 H 0.31684 0.08988 0.35249
 H1072 H 0.16995 0.09407 0.41904
 C1073 C 0.76505 0.06057 0.63703
 C1074 C 0.73310 0.06066 0.63631
 C1075 C 0.71809 0.07986 0.61768
 C1076 C 0.73457 0.09731 0.59845
 C1077 C 0.76668 0.09578 0.59780
 C1078 C 0.78174 0.07796 0.61784
 C1079 C 0.78284 0.11063 0.57595
 C1080 C 0.76702 0.12640 0.55464
 C1081 C 0.73534 0.12921 0.55679
 C1082 C 0.71925 0.11495 0.57860
 H1083 H 0.69342 0.08028 0.61723
 H1084 H 0.80633 0.07659 0.61785
 H1085 H 0.80725 0.10815 0.57413
 H1086 H 0.69468 0.11651 0.57897
 H1087 H 0.77704 0.04592 0.65125
 H1088 H 0.72286 0.14118 0.54046
 C1089 C 0.94515 0.64723 0.24032
 C1090 C 0.94717 0.64378 0.27082
 C1091 C 0.92908 0.62272 0.28432
 C1092 C 0.91088 0.60400 0.26749
 C1093 C 0.91045 0.60640 0.23663
 C1094 C 0.92697 0.62866 0.22334
 C1095 C 0.89518 0.58542 0.21965
 C1096 C 0.88100 0.56195 0.23329
 C1097 C 0.87998 0.56083 0.26397
 C1098 C 0.89458 0.58180 0.28096
 H1099 H 0.93020 0.62008 0.30788
 H1100 H 0.92680 0.63097 0.19975
 H1101 H 0.89639 0.58607 0.19596
 H1102 H 0.89453 0.57976 0.30459
 H1103 H 0.95882 0.66335 0.22944
 H1104 H 0.86935 0.54272 0.27474
 C1105 C 0.97801 0.39123 0.74266
 C1106 C 0.96076 0.36828 0.73127
 C1107 C 0.92918 0.36722 0.73605
 C1108 C 0.91481 0.39002 0.75085
 C1109 C 0.93253 0.41336 0.76149
 C1110 C 0.96412 0.41341 0.75791
 C1111 C 0.91838 0.43700 0.77438
 C1112 C 0.88655 0.43842 0.77618
 C1113 C 0.86899 0.41474 0.76675
 C1114 C 0.88303 0.39067 0.75424
 H1115 H 0.91581 0.34960 0.72703
 H1116 H 0.97797 0.43112 0.76600
 H1117 H 0.93217 0.45494 0.78210
 H1118 H 0.86900 0.37301 0.74635
 H1119 H 1.00237 0.39223 0.73919
 H1120 H 0.84441 0.41535 0.76795
 C1121 C 0.06207 0.61836 0.74653
 C1122 C 0.06170 0.61500 0.71594
 C1123 C 0.08045 0.59429 0.70297
 C1124 C 0.09798 0.57600 0.72028
 C1125 C 0.09713 0.57849 0.75113
 C1126 C 0.07965 0.60020 0.76401
 C1127 C 0.11261 0.55842 0.76844
 C1128 C 0.12835 0.53566 0.75518
 C1129 C 0.13028 0.53438 0.72450
 C1130 C 0.11532 0.55442 0.70720
 H1131 H 0.08065 0.59175 0.67936
 H1132 H 0.07883 0.60255 0.78761
 H1133 H 0.11092 0.55947 0.79209
 H1134 H 0.11644 0.55242 0.68358
 H1135 H 0.04786 0.63423 0.75698
 H1136 H 0.14268 0.51729 0.71388
 C1137 C 0.05256 0.36376 0.23546
 C1138 C 0.05329 0.36306 0.26622
 C1139 C 0.07246 0.38232 0.28142
 C1140 C 0.08903 0.40332 0.26640
 C1141 C 0.08688 0.40508 0.23555
 C1142 C 0.06924 0.38462 0.22022
 C1143 C 0.10127 0.42798 0.22089
 C1144 C 0.11724 0.44922 0.23694
 C1145 C 0.12044 0.44616 0.26741
 C1146 C 0.10652 0.42348 0.28199
 H1147 H 0.07334 0.38185 0.30515
 H1148 H 0.06739 0.38544 0.19658
 H1149 H 0.09873 0.43009 0.19738
 H1150 H 0.10866 0.42223 0.30560
 H1151 H 0.03780 0.34923 0.22329
 H1152 H 0.13322 0.46186 0.28014
   
