data_POSCAR
  _audit_creation_date              2014-09-24
  _audit_creation_method            'ToBaCCo'
  _symmetry_space_group_name_H-M    'P1'
  _symmetry_Int_Tables_number       1
  _symmetry_cell_setting            triclinic
  loop_
  _symmetry_equiv_pos_as_xyz
 x,y,z
_cell_length_a 36.7760
_cell_length_b 35.4787
_cell_length_c 27.3036
_cell_angle_alpha 89.649200
_cell_angle_beta 89.939100
_cell_angle_gamma 90.056700
loop_
  _atom_site_label
  _atom_site_type_symbol
  _atom_site_fract_x
  _atom_site_fract_y
  _atom_site_fract_z
C1 C 1.20212 0.26211 0.32711
 H2 H 1.20246 0.23161 0.32713
 C3 C 1.17633 0.28118 0.35515
 H4 H 1.15700 0.26523 0.37689
 C5 C 1.22467 0.31976 0.29484
 H6 H 1.24306 0.33466 0.27070
 C7 C 1.19959 0.33993 0.32246
 H8 H 1.19915 0.37038 0.31959
 N9 N 1.22397 0.28150 0.29551
 C10 C 1.22081 0.20611 0.17147
 H11 H 1.24917 0.19997 0.16462
 C12 C 1.19370 0.18720 0.14535
 H13 H 1.20116 0.16609 0.11869
 C14 C 1.17615 0.24009 0.21557
 H15 H 1.16911 0.26134 0.24195
 C16 C 1.14835 0.22151 0.19104
 H17 H 1.12027 0.22774 0.19983
 Zn18 Zn 1.24791 0.25345 0.24673
 N19 N 1.21157 0.23094 0.20716
 C20 C 1.26896 0.17905 0.27630
 N21 N 1.27623 0.21646 0.27997
 C22 C 1.30213 0.22908 0.31111
 C23 C 1.32265 0.20385 0.33909
 C24 C 1.28855 0.15267 0.30397
 C25 C 1.25949 0.31227 0.17854
 C26 C 1.27942 0.33716 0.14889
 C27 C 1.33436 0.30575 0.17490
 C28 C 1.31343 0.28155 0.20401
 N29 N 1.27671 0.28551 0.20595
 H30 H 1.24717 0.16952 0.25294
 H31 H 1.30701 0.25906 0.31410
 H32 H 1.34408 0.21617 0.36064
 H33 H 1.28008 0.12368 0.30071
 H34 H 1.23017 0.31449 0.18009
 H35 H 1.26520 0.35824 0.12742
 H36 H 1.36363 0.30257 0.17499
 H37 H 1.32668 0.25973 0.22514
 C38 C 1.15707 0.19420 0.15635
 C39 C 1.17368 0.32046 0.35085
 C40 C 1.31745 0.33413 0.14683
 C41 C 1.31639 0.16436 0.33658
 C42 C 0.72212 -0.21029 0.33407
 H43 H 0.74058 -0.22675 0.35630
 C44 C 0.70126 -0.18186 0.35579
 H45 H 0.70335 -0.17746 0.39487
 C46 C 0.69621 -0.19687 0.25660
 H47 H 0.69460 -0.20265 0.21779
 C48 C 0.67542 -0.16790 0.27653
 H49 H 0.65815 -0.15157 0.25238
 N50 N 0.71946 -0.21705 0.28516
 C51 C 0.73933 -0.31514 0.18963
 H52 H 0.76849 -0.31436 0.18579
 C53 C 0.71963 -0.34332 0.16570
 H54 H 0.73401 -0.36379 0.14374
 C55 C 0.68544 -0.29076 0.22464
 H56 H 0.67216 -0.27072 0.24828
 C57 C 0.66471 -0.31838 0.20133
 H58 H 0.63552 -0.31846 0.20646
 Zn59 Zn 0.75010 -0.25309 0.25380
 N60 N 0.72214 -0.28956 0.21859
 C61 C 0.77692 -0.31577 0.30590
 N62 N 0.77984 -0.27786 0.29996
 C63 C 0.80800 -0.25819 0.31968
 C64 C 0.83626 -0.27717 0.34348
 C65 C 0.80455 -0.33581 0.32918
 C66 C 0.77976 -0.19002 0.20378
 C67 C 0.80764 -0.16988 0.18125
 C68 C 0.84162 -0.22770 0.17293
 C69 C 0.81300 -0.24685 0.19582
 N70 N 0.78302 -0.22778 0.21141
 H71 H 0.75426 -0.33078 0.29007
 H72 H 0.80981 -0.22807 0.31379
 H73 H 0.85964 -0.26153 0.35632
 H74 H 0.80272 -0.36624 0.33164
 H75 H 0.75654 -0.17487 0.21733
 H76 H 0.80498 -0.13965 0.17677
 H77 H 0.86603 -0.24286 0.16285
 H78 H 0.81598 -0.27645 0.20427
 C79 C 0.68178 -0.34545 0.17171
 C80 C 0.67753 -0.16003 0.32691
 C81 C 0.83945 -0.18856 0.16694
 C82 C 0.83535 -0.31661 0.34642
 C83 C 0.72885 0.29128 -0.17129
 H84 H 0.74405 0.27241 -0.14785
 C85 C 0.70854 0.32049 -0.15027
 H86 H 0.70811 0.32324 -0.11082
 C87 C 0.70924 0.30921 -0.25048
 H88 H 0.70857 0.30440 -0.28935
 C89 C 0.68910 0.33898 -0.23117
 H90 H 0.67426 0.35709 -0.25612
 N91 N 0.72892 0.28610 -0.22072
 C92 C 0.74269 0.18628 -0.31388
 H93 H 0.77193 0.18659 -0.31826
 C94 C 0.72187 0.15912 -0.33808
 H95 H 0.73536 0.13848 -0.36077
 C96 C 0.68990 0.21223 -0.27754
 H97 H 0.67761 0.23281 -0.25363
 C98 C 0.66808 0.18564 -0.30106
 H99 H 0.63894 0.18655 -0.29556
 Zn100 Zn 0.75690 0.24624 -0.24983
 N101 N 0.72654 0.21183 -0.28386
 C102 C 0.77961 0.18178 -0.19763
 N103 N 0.78357 0.21979 -0.20098
 C104 C 0.80949 0.23814 -0.17463
 C105 C 0.83551 0.21771 -0.14826
 C106 C 0.80472 0.16036 -0.17141
 C107 C 0.77771 0.28515 -0.33588
 C108 C 0.80142 0.30372 -0.36774
 C109 C 0.85184 0.27925 -0.32116
 C110 C 0.82700 0.26137 -0.29013
 N111 N 0.79062 0.26638 -0.29616
 H112 H 0.75823 0.16773 -0.21752
 H113 H 0.81190 0.26847 -0.17761
 H114 H 0.85770 0.23254 -0.13084
 H115 H 0.80201 0.12997 -0.17096
 H116 H 0.74891 0.28576 -0.34314
 H117 H 0.78948 0.31771 -0.39908
 H118 H 0.88022 0.27640 -0.31178
 H119 H 0.83722 0.24414 -0.26063
 C120 C 0.68403 0.15822 -0.33135
 C121 C 0.68806 0.34482 -0.18030
 C122 C 0.83947 0.30301 -0.35946
 C123 C 0.83425 0.17818 -0.14855
 C124 C 1.18787 -0.24417 -0.17945
 H125 H 1.18594 -0.27424 -0.18526
 C126 C 1.16402 -0.22651 -0.14716
 H127 H 1.14394 -0.24312 -0.12758
 C128 C 1.21605 -0.18579 -0.19891
 H129 H 1.23624 -0.17005 -0.21922
 C130 C 1.19295 -0.16706 -0.16683
 H131 H 1.19524 -0.13675 -0.16351
 N132 N 1.21238 -0.22348 -0.20561
 C133 C 1.21656 -0.29852 -0.32840
 H134 H 1.24492 -0.30648 -0.33012
 C135 C 1.19069 -0.31868 -0.35486
 H136 H 1.19906 -0.34270 -0.37642
 C137 C 1.17060 -0.25879 -0.29645
 H138 H 1.16285 -0.23542 -0.27354
 C139 C 1.14396 -0.27768 -0.32298
 H140 H 1.11571 -0.26956 -0.31924
 Zn141 Zn 1.23922 -0.24909 -0.25360
 N142 N 1.20578 -0.27074 -0.29760
 C143 C 1.26313 -0.32378 -0.22482
 N144 N 1.26720 -0.28586 -0.21924
 C145 C 1.29108 -0.27173 -0.18611
 C146 C 1.31367 -0.29572 -0.15936
 C147 C 1.28528 -0.34891 -0.19868
 C148 C 1.25381 -0.18575 -0.31345
 C149 C 1.27537 -0.15874 -0.33727
 C150 C 1.32856 -0.19430 -0.31366
 C151 C 1.30607 -0.22045 -0.29021
 N152 N 1.26947 -0.21523 -0.28927
 H153 H 1.24288 -0.33474 -0.24950
 H154 H 1.29298 -0.24156 -0.18113
 H155 H 1.33293 -0.28371 -0.13385
 H156 H 1.28264 -0.37891 -0.20486
 H157 H 1.22455 -0.18261 -0.31292
 H158 H 1.26252 -0.13468 -0.35459
 H159 H 1.35766 -0.19891 -0.31359
 H160 H 1.31799 -0.24474 -0.27245
 C161 C 1.15383 -0.30901 -0.35072
 C162 C 1.16608 -0.18737 -0.14120
 C163 C 1.31337 -0.16241 -0.33660
 C164 C 1.31153 -0.33485 -0.16623
 C165 C 0.25641 0.18981 0.69155
 H166 H 0.22717 0.18647 0.69215
 C167 C 0.27787 0.16441 0.66518
 H168 H 0.26477 0.14198 0.64509
 C169 C 0.30863 0.22386 0.71596
 H170 H 0.32067 0.24730 0.73502
 C171 C 0.33108 0.19896 0.69059
 H172 H 0.36020 0.20325 0.69199
 N173 N 0.27201 0.21859 0.71678
 C174 C 0.18875 0.24255 0.82612
 H175 H 0.18477 0.27243 0.82005
 C176 C 0.16492 0.22262 0.85655
 H177 H 0.14359 0.23805 0.87490
 C178 C 0.22183 0.18701 0.80886
 H179 H 0.24360 0.17314 0.78944
 C180 C 0.19919 0.16609 0.83957
 H181 H 0.20387 0.13604 0.84150
 Zn182 Zn 0.24085 0.25133 0.75284
 N183 N 0.21549 0.22423 0.80149
 C184 C 0.17154 0.25656 0.70997
 N185 N 0.20585 0.27109 0.70892
 C186 C 0.21464 0.30015 0.67846
 C187 C 0.18739 0.31888 0.65247
 C188 C 0.14359 0.27399 0.68391
 C189 C 0.29422 0.27842 0.81631
 C190 C 0.31657 0.30457 0.83956
 C191 C 0.28109 0.35475 0.80357
 C192 C 0.25960 0.32753 0.78041
 N193 N 0.26736 0.29013 0.78561
 H194 H 0.16543 0.23221 0.73245
 H195 H 0.24238 0.31024 0.67677
 H196 H 0.19403 0.34388 0.63131
 H197 H 0.11595 0.26377 0.68756
 H198 H 0.29898 0.24858 0.82153
 H199 H 0.33874 0.29465 0.86231
 H200 H 0.27552 0.38439 0.79758
 H201 H 0.23693 0.33650 0.75818
 C202 C 0.16924 0.18343 0.86296
 C203 C 0.31587 0.16866 0.66456
 C204 C 0.31066 0.34329 0.83239
 C205 C 0.15130 0.30643 0.65658
 C206 C 0.77379 0.71150 0.66436
 H207 H 0.74451 0.70854 0.66359
 C208 C 0.79528 0.69140 0.63141
 H209 H 0.78229 0.67298 0.60522
 C210 C 0.82628 0.73869 0.69986
 H211 H 0.83840 0.75749 0.72609
 C212 C 0.84876 0.71909 0.66783
 H213 H 0.87795 0.72200 0.67132
 N214 N 0.78965 0.73312 0.69926
 C215 C 0.71221 0.72999 0.82108
 H216 H 0.71187 0.75966 0.83002
 C217 C 0.69084 0.70472 0.84796
 H218 H 0.67516 0.71592 0.87804
 C219 C 0.73552 0.68039 0.77311
 H220 H 0.75326 0.67085 0.74422
 C221 C 0.71478 0.65392 0.79940
 H222 H 0.71629 0.62477 0.78830
 Zn223 Zn 0.76038 0.75529 0.74831
 N224 N 0.73316 0.71781 0.78342
 C225 C 0.69273 0.78956 0.72303
 N226 N 0.72938 0.79130 0.71699
 C227 C 0.74470 0.81784 0.68714
 C228 C 0.72294 0.84390 0.66186
 C229 C 0.67007 0.81516 0.69888
 C230 C 0.81591 0.75707 0.81822
 C231 C 0.84238 0.77357 0.84786
 C232 C 0.81582 0.83444 0.83009
 C233 C 0.79033 0.81689 0.80014
 N234 N 0.79136 0.77896 0.79389
 H235 H 0.68083 0.76810 0.74621
 H236 H 0.77391 0.81845 0.68247
 H237 H 0.73566 0.86417 0.63748
 H238 H 0.64103 0.81336 0.70498
 H239 H 0.81584 0.72689 0.81283
 H240 H 0.86248 0.75604 0.86587
 H241 H 0.81530 0.86483 0.83364
 H242 H 0.77029 0.83368 0.78107
 C243 C 0.69093 0.66582 0.83684
 C244 C 0.83340 0.69393 0.63429
 C245 C 0.84266 0.81277 0.85360
 C246 C 0.68495 0.84257 0.66714
 C247 C 0.77202 0.20750 0.16673
 H248 H 0.74292 0.20311 0.16523
 C249 C 0.79489 0.18839 0.13453
 H250 H 0.78316 0.16913 0.10829
 C251 C 0.82264 0.23773 0.20298
 H252 H 0.83350 0.25754 0.22893
 C253 C 0.84648 0.21907 0.17184
 H254 H 0.87544 0.22352 0.17599
 N255 N 0.78635 0.23019 0.20167
 C256 C 0.70458 0.22658 0.31860
 H257 H 0.70184 0.25642 0.32569
 C258 C 0.68285 0.20072 0.34401
 H259 H 0.66318 0.21090 0.37034
 C260 C 0.73332 0.17713 0.27552
 H261 H 0.75320 0.16795 0.24904
 C262 C 0.71239 0.15018 0.30064
 H263 H 0.71571 0.12057 0.29234
 Zn264 Zn 0.75516 0.25223 0.24851
 N265 N 0.72835 0.21464 0.28384
 C266 C 0.68771 0.28480 0.21794
 N267 N 0.72450 0.28622 0.21370
 C268 C 0.74088 0.31157 0.18315
 C269 C 0.72015 0.33724 0.15595
 C270 C 0.66598 0.30997 0.19156
 C271 C 0.80940 0.25872 0.31950
 C272 C 0.83827 0.27729 0.34221
 C273 C 0.81255 0.33659 0.31533
 C274 C 0.78435 0.31694 0.29308
 N275 N 0.78449 0.27867 0.29320
 H276 H 0.67504 0.26412 0.24156
 H277 H 0.77020 0.31177 0.17987
 H278 H 0.73369 0.35683 0.13144
 H279 H 0.63676 0.30867 0.19615
 H280 H 0.80867 0.22823 0.31907
 H281 H 0.85947 0.26098 0.35983
 H282 H 0.81302 0.36707 0.31298
 H283 H 0.76369 0.33229 0.27326
 C284 C 0.68611 0.16199 0.33448
 C285 C 0.83280 0.19289 0.13835
 C286 C 0.84091 0.31662 0.33804
 C287 C 0.68211 0.33655 0.15977
 C288 C 0.26256 0.68449 0.19326
 H289 H 0.23322 0.68238 0.19423
 C290 C 0.28271 0.65921 0.16485
 H291 H 0.26857 0.63804 0.14376
 C292 C 0.31630 0.71554 0.21840
 H293 H 0.32941 0.73778 0.23863
 C294 C 0.33747 0.69079 0.19079
 H295 H 0.36674 0.69397 0.19142
 N296 N 0.27952 0.71182 0.21963
 C297 C 0.20027 0.74007 0.33305
 H298 H 0.19949 0.77036 0.32841
 C299 C 0.17553 0.72235 0.36440
 H300 H 0.15602 0.73910 0.38449
 C301 C 0.22574 0.68123 0.31069
 H302 H 0.24490 0.66534 0.28907
 C303 C 0.20179 0.66240 0.34199
 H304 H 0.20256 0.63191 0.34378
 Zn305 Zn 0.24995 0.74539 0.25694
 N306 N 0.22374 0.71927 0.30571
 C307 C 0.17994 0.75656 0.21774
 N308 N 0.21540 0.76740 0.21417
 C309 C 0.22583 0.79516 0.18265
 C310 C 0.19963 0.81647 0.15807
 C311 C 0.15291 0.77665 0.19321
 C312 C 0.30401 0.77197 0.32119
 C313 C 0.32393 0.79822 0.34815
 C314 C 0.28763 0.84775 0.31255
 C315 C 0.26860 0.82042 0.28616
 N316 N 0.27746 0.78334 0.29001
 H317 H 0.17230 0.73322 0.24114
 H318 H 0.25430 0.80247 0.17931
 H319 H 0.20798 0.84030 0.13575
 H320 H 0.12463 0.76927 0.19885
 H321 H 0.30995 0.74223 0.32495
 H322 H 0.34599 0.78696 0.36972
 H323 H 0.27798 0.87634 0.30906
 H324 H 0.24586 0.82906 0.26385
 C325 C 0.17565 0.68296 0.36830
 C326 C 0.32079 0.66218 0.16317
 C327 C 0.31641 0.83744 0.34449
 C328 C 0.16264 0.80806 0.16488
 O329 O 1.06378 -0.04946 0.10712
 O330 O 1.03445 -0.09428 0.06153
 C331 C 1.05766 -0.08416 0.09481
 O332 O 0.92765 0.04995 0.08169
 O333 O 0.96392 0.09249 0.04104
 C334 C 0.93560 0.08385 0.06743
 O335 O 0.93634 -0.05327 0.09890
 O336 O 0.97090 -0.09646 0.05734
 C337 C 0.94578 -0.08754 0.08860
 O338 O 1.06369 0.05484 0.09687
 O339 O 1.03103 0.09451 0.04672
 C340 C 1.05541 0.08796 0.08003
 Zr341 Zr 1.04406 0.00133 0.07684
 O342 O 1.03682 0.00734 0.15337
 O343 O 1.10122 0.00052 0.08553
 Zr344 Zr 0.95423 -0.00141 0.06974
 O345 O 0.95750 0.00468 0.14654
 O346 O 0.89704 -0.00623 0.07479
 O347 O 0.99954 -0.03413 0.08515
 O348 O 0.99778 0.03416 0.07955
 O349 O 1.07449 0.04809 -0.06463
 O350 O 1.03546 0.09167 -0.03199
 C351 C 1.06478 0.08244 -0.05572
 O352 O 0.94127 -0.05934 -0.07618
 O353 O 0.97306 -0.09921 -0.02519
 C354 C 0.94891 -0.09245 -0.05879
 O355 O 0.93713 0.04476 -0.08105
 O356 O 0.96814 0.08975 -0.03780
 C357 C 0.94373 0.07945 -0.06936
 O358 O 1.07211 -0.05584 -0.06552
 O359 O 1.03677 -0.09767 -0.02201
 C360 C 1.06353 -0.08956 -0.05119
 Zr361 Zr 1.04943 -0.00336 -0.04724
 O362 O 1.04661 -0.00192 -0.12472
 O363 O 1.10667 -0.00474 -0.05390
 Zr364 Zr 0.95961 -0.00590 -0.05425
 O365 O 0.96958 -0.00769 -0.13039
 O366 O 0.90281 -0.01003 -0.06537
 Zr367 Zr 1.00311 -0.05906 0.01536
 Zr368 Zr 1.00050 0.05451 0.00712
 O369 O 1.00425 0.02900 -0.06204
 O370 O 1.00570 -0.03952 -0.05775
 O371 O 1.05340 0.03209 0.01311
 O372 O 0.95053 -0.03606 0.00977
 O373 O 1.05458 -0.03302 0.01767
 O374 O 0.94870 0.02906 0.00472
 H375 H 0.99574 0.05296 0.10612
 H376 H 0.92868 -0.05240 0.01011
 H377 H 1.00544 0.04594 -0.09102
 H378 H 1.07711 -0.04812 0.02059
 H379 H 0.88752 -0.00310 0.04121
 H380 H 0.89099 0.00523 -0.03971
 H381 H 0.94535 -0.00814 -0.14618
 H382 H 1.04080 -0.02774 -0.13582
 H383 H 1.11648 -0.00405 -0.02024
 H384 H 1.11165 0.01578 0.05851
 H385 H 1.02514 -0.01598 0.16584
 H386 H 0.93207 0.00513 0.15850
 O387 O 0.94653 0.44644 0.39580
 O388 O 0.97290 0.40393 0.44862
 C389 C 0.95255 0.41237 0.41135
 O390 O 1.07720 0.55148 0.43651
 O391 O 1.03575 0.59375 0.46669
 C392 C 1.06664 0.58542 0.44629
 O393 O 1.07202 0.44813 0.42179
 O394 O 1.03573 0.40443 0.46048
 C395 C 1.06258 0.41380 0.43196
 O396 O 0.94089 0.55107 0.40222
 O397 O 0.96925 0.59319 0.45292
 C398 C 0.94680 0.58494 0.41788
 Zr399 Zr 0.96139 0.49872 0.42630
 O400 O 0.97316 0.49831 0.35026
 O401 O 0.90457 0.49702 0.41448
 Zr402 Zr 1.05042 0.49966 0.44544
 O403 O 1.05388 0.50660 0.36843
 O404 O 1.10777 0.49635 0.44717
 O405 O 1.00738 0.46497 0.42620
 O406 O 1.00669 0.53331 0.42764
 O407 O 0.92095 0.54825 0.56408
 O408 O 0.96037 0.59186 0.53151
 C409 C 0.93063 0.58264 0.55446
 O410 O 1.05241 0.44519 0.59679
 O411 O 1.02677 0.40320 0.54348
 C412 C 1.04701 0.41129 0.58095
 O413 O 1.05592 0.54927 0.59351
 O414 O 1.02656 0.59235 0.54481
 C415 C 1.04965 0.58346 0.57895
 O416 O 0.92490 0.44423 0.56876
 O417 O 0.96404 0.40270 0.53174
 C418 C 0.93540 0.41046 0.55767
 Zr419 Zr 0.94676 0.49687 0.54860
 O420 O 0.94307 0.49756 0.62580
 O421 O 0.88960 0.49425 0.54102
 Zr422 Zr 1.03581 0.49754 0.56823
 O423 O 1.02234 0.50046 0.64357
 O424 O 1.09162 0.49436 0.58647
 Zr425 Zr 0.99941 0.44135 0.49650
 Zr426 Zr 0.99825 0.55509 0.49816
 O427 O 0.98992 0.53089 0.56776
 O428 O 0.99046 0.46268 0.56738
 O429 O 0.94668 0.53096 0.48644
 O430 O 1.05063 0.46628 0.50770
 O431 O 0.94766 0.46514 0.48553
 O432 O 1.05024 0.53147 0.50910
 H433 H 1.01009 0.55196 0.40087
 H434 H 1.07254 0.45032 0.51164
 H435 H 0.98646 0.54819 0.59575
 H436 H 0.92600 0.44898 0.48070
 H437 H 1.11492 0.49790 0.48196
 H438 H 1.10503 0.50910 0.56144
 H439 H 1.00986 0.47667 0.65261
 H440 H 0.91674 0.49776 0.63351
 H441 H 0.88418 0.50175 0.50683
 H442 H 0.90094 0.49702 0.37849
 H443 H 0.97834 0.52442 0.33939
 H444 H 1.04462 0.48320 0.35328
 O445 O 0.55063 0.06662 0.58778
 O446 O 0.59048 0.03373 0.53935
 C447 C 0.58320 0.05773 0.57390
 O448 O 0.44871 -0.06783 0.58606
 O449 O 0.40680 -0.03166 0.54495
 C450 C 0.41557 -0.05855 0.57531
 O451 O 0.54904 -0.06674 0.58465
 O452 O 0.58971 -0.03209 0.53887
 C453 C 0.58179 -0.05839 0.57072
 O454 O 0.45031 0.07499 0.58200
 O455 O 0.40748 0.03765 0.54499
 C456 C 0.41691 0.06602 0.57218
 Zr457 Zr 0.49946 0.04842 0.56281
 O458 O 0.49599 0.04272 0.63999
 O459 O 0.50401 0.10731 0.57218
 Zr460 Zr 0.49851 -0.04514 0.56196
 O461 O 0.49995 -0.03873 0.63880
 O462 O 0.49744 -0.10455 0.56938
 O463 O 0.53245 0.00115 0.57024
 O464 O 0.46658 0.00195 0.57287
 O465 O 0.44559 0.07390 0.42074
 O466 O 0.40521 0.03714 0.46414
 C467 C 0.41297 0.06462 0.43424
 O468 O 0.54450 -0.06360 0.40876
 O469 O 0.58746 -0.03103 0.45240
 C470 C 0.57793 -0.05559 0.41946
 O471 O 0.44449 -0.06778 0.42060
 O472 O 0.40473 -0.03104 0.46432
 C473 C 0.41206 -0.05855 0.43467
 O474 O 0.54601 0.07002 0.41111
 O475 O 0.58819 0.03497 0.45318
 C476 C 0.57927 0.06126 0.42186
 Zr477 Zr 0.49633 0.04988 0.43907
 O478 O 0.49024 0.04693 0.36203
 O479 O 0.50021 0.10935 0.43503
 Zr480 Zr 0.49533 -0.04403 0.43831
 O481 O 0.48861 -0.04005 0.36139
 O482 O 0.49833 -0.10347 0.43407
 Zr483 Zr 0.55268 0.00178 0.49776
 Zr484 Zr 0.44250 0.00279 0.50305
 O485 O 0.46325 0.00327 0.43126
 O486 O 0.52872 0.00273 0.42748
 O487 O 0.46596 0.05712 0.50240
 O488 O 0.52846 -0.05202 0.49843
 O489 O 0.52954 0.05607 0.49961
 O490 O 0.46475 -0.05193 0.50168
 H491 H 0.45011 0.00219 0.60164
 H492 H 0.54407 -0.07471 0.49695
 H493 H 0.44557 0.00351 0.40388
 H494 H 0.54549 0.07858 0.49947
 H495 H 0.50809 -0.11526 0.53930
 H496 H 0.48451 -0.11375 0.46227
 H497 H 0.51101 -0.02875 0.34754
 H498 H 0.51321 0.03708 0.34824
 H499 H 0.48431 0.11973 0.46088
 H500 H 0.50101 0.11883 0.53943
 H501 H 0.51906 0.03144 0.65160
 H502 H 0.49897 -0.06456 0.65274
 O503 O 0.55162 0.56093 0.08565
 O504 O 0.59306 0.53013 0.03734
 C505 C 0.58463 0.55276 0.07293
 O506 O 0.44988 0.42457 0.05963
 O507 O 0.40916 0.46564 0.02453
 C508 C 0.41706 0.43533 0.04946
 O509 O 0.54995 0.42753 0.06932
 O510 O 0.59233 0.46477 0.03045
 C511 C 0.58319 0.43676 0.05897
 O512 O 0.45176 0.56979 0.07446
 O513 O 0.41010 0.53512 0.03117
 C514 C 0.41873 0.56180 0.06164
 Zr515 Zr 0.50132 0.54390 0.05617
 O516 O 0.49485 0.53332 0.13215
 O517 O 0.50526 0.60199 0.07197
 Zr518 Zr 0.50023 0.45080 0.04618
 O519 O 0.49493 0.45195 0.12343
 O520 O 0.50145 0.39132 0.05048
 O521 O 0.53397 0.49624 0.06129
 O522 O 0.46792 0.49718 0.05953
 O523 O 0.45299 0.57699 -0.08766
 O524 O 0.41083 0.53902 -0.04971
 C525 C 0.41974 0.56769 -0.07721
 O526 O 0.55222 0.44051 -0.10490
 O527 O 0.59332 0.47053 -0.05540
 C528 C 0.58518 0.44765 -0.09091
 O529 O 0.45183 0.43746 -0.10143
 O530 O 0.41033 0.47036 -0.05585
 C531 C 0.41878 0.44499 -0.08822
 O532 O 0.55357 0.57445 -0.08919
 O533 O 0.59403 0.53619 -0.04850
 C534 C 0.58631 0.56452 -0.07726
 Zr535 Zr 0.50289 0.55246 -0.06725
 O536 O 0.50024 0.55397 -0.14475
 O537 O 0.50631 0.61197 -0.06477
 Zr538 Zr 0.50193 0.45904 -0.07724
 O539 O 0.49854 0.46777 -0.15395
 O540 O 0.50483 0.40003 -0.08741
 Zr541 Zr 0.55685 0.50086 -0.00961
 Zr542 Zr 0.44655 0.50219 -0.01162
 O543 O 0.47008 0.50666 -0.08169
 O544 O 0.53573 0.50604 -0.08120
 O545 O 0.47013 0.55621 -0.00551
 O546 O 0.53251 0.44733 -0.01575
 O547 O 0.53371 0.55497 -0.00406
 O548 O 0.46898 0.44766 -0.01705
 H549 H 0.45008 0.49565 0.08672
 H550 H 0.54785 0.42450 -0.01830
 H551 H 0.45353 0.50851 -0.11023
 H552 H 0.54957 0.57741 -0.00101
 H553 H 0.50479 0.38212 0.01670
 H554 H 0.48879 0.38820 -0.06259
 H555 H 0.52171 0.47922 -0.16497
 H556 H 0.52385 0.54499 -0.15760
 H557 H 0.48927 0.62059 -0.03912
 H558 H 0.50507 0.61541 0.04018
 H559 H 0.51839 0.52406 0.14496
 H560 H 0.51938 0.45641 0.13739
 C561 C 1.10790 0.14735 0.16829
 C562 C 1.12813 0.17023 0.13626
 C563 C 1.12149 0.16872 0.08573
 C564 C 1.09536 0.14381 0.06741
 C565 C 1.07653 0.11954 0.09939
 C566 C 1.08265 0.12180 0.14993
 H567 H 1.11283 0.14814 0.20738
 H568 H 1.13691 0.18627 0.06060
 H569 H 1.09137 0.14195 0.02823
 H570 H 1.06864 0.10297 0.17502
 C571 C 1.09838 0.67642 0.59913
 C572 C 1.12568 0.66492 0.63185
 C573 C 1.12558 0.62807 0.65023
 C574 C 1.09935 0.60254 0.63514
 C575 C 1.07286 0.61305 0.60051
 C576 C 1.07227 0.65046 0.58308
 H577 H 1.09791 0.70504 0.58515
 H578 H 1.14598 0.61902 0.67639
 H579 H 1.10072 0.57409 0.64960
 H580 H 1.05239 0.65933 0.55615
 C581 C 0.66753 0.11661 0.59686
 C582 C 0.66115 0.12866 0.64526
 C583 C 0.63169 0.11307 0.67112
 C584 C 0.60784 0.08816 0.64840
 C585 C 0.61291 0.07777 0.59930
 C586 C 0.64361 0.09127 0.57406
 H587 H 0.69000 0.12810 0.57589
 H588 H 0.62657 0.12075 0.70883
 H589 H 0.58458 0.07787 0.66890
 H590 H 0.64789 0.08400 0.53601
 C591 C 0.63029 0.60817 0.17261
 C592 C 0.66003 0.62429 0.14785
 C593 C 0.66764 0.61233 0.09976
 C594 C 0.64463 0.58661 0.07609
 C595 C 0.61357 0.57265 0.10006
 C596 C 0.60728 0.58289 0.14896
 H597 H 0.62422 0.61580 0.21008
 H598 H 0.69030 0.62423 0.07958
 H599 H 0.64982 0.57954 0.03818
 H600 H 0.58367 0.57231 0.16845
 C601 C 0.88116 -0.13413 0.17596
 C602 C 0.87098 -0.16636 0.14986
 C603 C 0.88977 -0.17564 0.10676
 C604 C 0.91648 -0.15126 0.08812
 C605 C 0.92456 -0.11754 0.11259
 C606 C 0.90763 -0.10996 0.15752
 H607 H 0.86769 -0.12696 0.20996
 H608 H 0.88241 -0.20054 0.08625
 H609 H 0.92902 -0.15751 0.05319
 H610 H 0.91370 -0.08437 0.17738
 C611 C 0.90099 0.31952 0.61364
 C612 C 0.86281 0.32594 0.61488
 C613 C 0.84989 0.35898 0.59127
 C614 C 0.87379 0.38543 0.57170
 C615 C 0.91136 0.37974 0.57368
 C616 C 0.92485 0.34600 0.59296
 H617 H 0.91298 0.29391 0.62780
 H618 H 0.82157 0.36694 0.59126
 H619 H 0.86278 0.41118 0.55615
 H620 H 0.95386 0.34078 0.59376
 C621 C 0.32920 -0.11490 0.59718
 C622 C 0.33744 -0.13288 0.64197
 C623 C 0.36970 -0.12311 0.66625
 C624 C 0.39408 -0.09769 0.64523
 C625 C 0.38677 -0.08099 0.59954
 C626 C 0.35369 -0.08906 0.57613
 H627 H 0.30455 -0.12188 0.57756
 H628 H 0.37638 -0.13552 0.70143
 H629 H 0.41915 -0.09162 0.66445
 H630 H 0.34758 -0.07678 0.54066
 C631 C 0.33194 0.39907 0.11286
 C632 C 0.33975 0.36020 0.11602
 C633 C 0.37056 0.34644 0.09159
 C634 C 0.39437 0.37102 0.06778
 C635 C 0.38787 0.41002 0.06715
 C636 C 0.35581 0.42383 0.08840
 H637 H 0.30841 0.41058 0.13132
 H638 H 0.37683 0.31663 0.09191
 H639 H 0.41864 0.35958 0.05098
 H640 H 0.35032 0.45381 0.08855
 C641 C 0.88267 0.16438 -0.08538
 C642 C 0.86489 0.15529 -0.12937
 C643 C 0.87660 0.12369 -0.15580
 C644 C 0.90378 0.10037 -0.13739
 C645 C 0.92027 0.10822 -0.09230
 C646 C 0.91025 0.14099 -0.06698
 H647 H 0.87433 0.18867 -0.06435
 H648 H 0.86435 0.11665 -0.19062
 H649 H 0.91123 0.07550 -0.15791
 H650 H 0.92235 0.14745 -0.03188
 C651 C 0.88573 0.67010 0.40650
 C652 C 0.86754 0.66178 0.36263
 C653 C 0.87966 0.63160 0.33402
 C654 C 0.90765 0.60846 0.35043
 C655 C 0.92415 0.61488 0.39598
 C656 C 0.91388 0.64669 0.42318
 H657 H 0.87699 0.69348 0.42893
 H658 H 0.86675 0.62529 0.29937
 H659 H 0.91524 0.58442 0.32841
 H660 H 0.92598 0.65211 0.45859
 C661 C 0.35878 0.15094 0.40341
 C662 C 0.33663 0.13901 0.36374
 C663 C 0.33730 0.09976 0.35299
 C664 C 0.36040 0.07488 0.37814
 C665 C 0.38353 0.08817 0.41467
 C666 C 0.38208 0.12609 0.42770
 H667 H 0.35836 0.17936 0.41720
 H668 H 0.32224 0.08774 0.32304
 H669 H 0.36168 0.04562 0.36711
 H670 H 0.39965 0.13672 0.45634
 C671 C 0.32811 0.60473 -0.12171
 C672 C 0.33830 0.63976 -0.14207
 C673 C 0.37494 0.65062 -0.14018
 C674 C 0.40083 0.62724 -0.11873
 C675 C 0.39099 0.59214 -0.09842
 C676 C 0.35423 0.58119 -0.09974
 H677 H 0.29999 0.59571 -0.12247
 H678 H 0.38381 0.67708 -0.15620
 H679 H 0.42880 0.63683 -0.11829
 H680 H 0.34579 0.55434 -0.08444
 C681 C 1.10195 -0.17507 -0.11377
 C682 C 1.13942 -0.16707 -0.11062
 C683 C 1.15108 -0.13677 -0.08192
 C684 C 1.12583 -0.11297 -0.06035
 C685 C 1.08849 -0.11929 -0.06646
 C686 C 1.07650 -0.15127 -0.09153
 H687 H 1.09228 -0.19825 -0.13585
 H688 H 1.17975 -0.13052 -0.07791
 H689 H 1.13546 -0.08861 -0.04039
 H690 H 1.04771 -0.15639 -0.09655
 C691 C 1.12504 0.36855 0.34222
 C692 C 1.14208 0.34092 0.37113
 C693 C 1.12868 0.33350 0.41854
 C694 C 1.10033 0.35534 0.43774
 C695 C 1.08525 0.38462 0.40961
 C696 C 1.09709 0.39026 0.36134
 H697 H 1.13391 0.37398 0.30500
 H698 H 1.14119 0.31212 0.44140
 H699 H 1.09186 0.35100 0.47533
 H700 H 1.08567 0.41265 0.33901
 C701 C 0.61859 -0.12480 0.33051
 C702 C 0.65375 -0.13054 0.34908
 C703 C 0.66511 -0.10867 0.38931
 C704 C 0.64134 -0.08265 0.41120
 C705 C 0.60583 -0.07802 0.39319
 C706 C 0.59522 -0.09882 0.35187
 H707 H 0.60838 -0.14139 0.30036
 H708 H 0.69220 -0.11191 0.40419
 H709 H 0.65029 -0.06723 0.44311
 H710 H 0.56812 -0.09606 0.33676
 C711 C 0.63012 0.38215 -0.18114
 C712 C 0.66377 0.37434 -0.15897
 C713 C 0.67289 0.39387 -0.11580
 C714 C 0.64837 0.41950 -0.09464
 C715 C 0.61423 0.42605 -0.11621
 C716 C 0.60594 0.40769 -0.16033
 H717 H 0.62158 0.36738 -0.21373
 H718 H 0.69876 0.38898 -0.09800
 H719 H 0.65551 0.43297 -0.06048
 H720 H 0.57995 0.41197 -0.17814
 C721 C 1.10646 0.17221 -0.10699
 C722 C 1.14353 0.16151 -0.11054
 C723 C 1.15386 0.12677 -0.08963
 C724 C 1.12805 0.10225 -0.07048
 C725 C 1.09103 0.11157 -0.07096
 C726 C 1.08045 0.14735 -0.08739
 H727 H 1.09676 0.19842 -0.12253
 H728 H 1.18203 0.11813 -0.08776
 H729 H 1.13717 0.07542 -0.05583
 H730 H 1.05202 0.15529 -0.08743
 C731 C 1.11033 0.67231 0.39178
 C732 C 1.14735 0.66280 0.39675
 C733 C 1.15692 0.63113 0.42475
 C734 C 1.13012 0.60753 0.44366
 C735 C 1.09320 0.61519 0.43522
 C736 C 1.08329 0.64860 0.41111
 H737 H 1.10227 0.69661 0.37022
 H738 H 1.18521 0.62366 0.43005
 H739 H 1.13829 0.58217 0.46304
 H740 H 1.05494 0.65492 0.40429
 C741 C 0.62266 0.14318 0.35421
 C742 C 0.65982 0.13487 0.35645
 C743 C 0.67091 0.10102 0.37916
 C744 C 0.64509 0.07650 0.40044
 C745 C 0.60777 0.08514 0.39827
 C746 C 0.59709 0.11871 0.37449
 H747 H 0.61326 0.16872 0.33636
 H748 H 0.69951 0.09397 0.38127
 H749 H 0.65426 0.05100 0.41857
 H750 H 0.56874 0.12670 0.37210
 C751 C 0.67396 0.60092 -0.13547
 C752 C 0.66682 0.64017 -0.13891
 C753 C 0.63378 0.65322 -0.11884
 C754 C 0.60870 0.62840 -0.09809
 C755 C 0.61557 0.58957 -0.09576
 C756 C 0.64879 0.57602 -0.11358
 H757 H 0.69924 0.58920 -0.14867
 H758 H 0.62570 0.68244 -0.12157
 H759 H 0.58330 0.63971 -0.08444
 H760 H 0.65480 0.54616 -0.11199
 C761 C 0.90827 -0.17506 -0.12586
 C762 C 0.87106 -0.16833 -0.11720
 C763 C 0.86090 -0.14037 -0.08390
 C764 C 0.88716 -0.11768 -0.06241
 C765 C 0.92406 -0.12248 -0.07369
 C766 C 0.93479 -0.15204 -0.10423
 H767 H 0.91664 -0.19646 -0.15163
 H768 H 0.83248 -0.13503 -0.07616
 H769 H 0.87852 -0.09496 -0.03873
 H770 H 0.96318 -0.15582 -0.11356
 C771 C 0.89022 0.32900 0.39957
 C772 C 0.87390 0.33689 0.35417
 C773 C 0.88851 0.36555 0.32437
 C774 C 0.91676 0.38808 0.34131
 C775 C 0.93113 0.38228 0.38831
 C776 C 0.91871 0.35157 0.41654
 H777 H 0.87958 0.30690 0.42308
 H778 H 0.87718 0.37141 0.28852
 H779 H 0.92598 0.41142 0.31871
 H780 H 0.92902 0.34678 0.45321
 C781 C 0.35909 -0.14660 0.40973
 C782 C 0.33628 -0.13611 0.36998
 C783 C 0.33592 -0.09708 0.35718
 C784 C 0.35877 -0.07105 0.38044
 C785 C 0.38256 -0.08293 0.41720
 C786 C 0.38201 -0.12058 0.43229
 H787 H 0.35949 -0.17475 0.42485
 H788 H 0.32028 -0.08620 0.32684
 H789 H 0.35937 -0.04206 0.36773
 H790 H 0.40012 -0.13015 0.46109
 C791 C 0.37433 0.36503 -0.15689
 C792 C 0.33724 0.37100 -0.14840
 C793 C 0.32642 0.40293 -0.12174
 C794 C 0.35261 0.42771 -0.10247
 C795 C 0.38990 0.42125 -0.11051
 C796 C 0.40021 0.38980 -0.13852
 H797 H 0.38338 0.34100 -0.17794
 H798 H 0.29787 0.40813 -0.11481
 H799 H 0.34374 0.45157 -0.08100
 H800 H 0.42855 0.38361 -0.14559
 C801 C 1.13753 -0.12733 0.16054
 C802 C 1.13450 -0.16538 0.14790
 C803 C 1.10412 -0.17756 0.12118
 C804 C 1.07797 -0.15151 0.10535
 C805 C 1.08156 -0.11310 0.11697
 C806 C 1.11129 -0.10156 0.14562
 H807 H 1.16033 -0.11752 0.18212
 H808 H 1.10116 -0.20698 0.11156
 H809 H 1.05551 -0.16125 0.08313
 H810 H 1.11511 -0.07226 0.15528
 C811 C 1.11680 0.36562 0.66210
 C812 C 1.12155 0.33072 0.63953
 C813 C 1.09819 0.31992 0.60152
 C814 C 1.07181 0.34517 0.58407
 C815 C 1.06847 0.38119 0.60493
 C816 C 1.09037 0.39045 0.64535
 H817 H 1.13417 0.37396 0.69220
 H818 H 1.10132 0.29272 0.58424
 H819 H 1.05530 0.33719 0.55300
 H820 H 1.08838 0.41771 0.66278
 C821 C 0.66958 -0.09358 0.62948
 C822 C 0.66054 -0.13167 0.63879
 C823 C 0.62709 -0.14528 0.62153
 C824 C 0.60251 -0.12131 0.59838
 C825 C 0.61067 -0.08302 0.59093
 C826 C 0.64486 -0.06944 0.60545
 H827 H 0.69515 -0.08215 0.64220
 H828 H 0.61964 -0.17461 0.62623
 H829 H 0.57667 -0.13279 0.58657
 H830 H 0.65180 -0.04004 0.60006
 C831 C 0.66857 0.40049 0.12197
 C832 C 0.65901 0.36240 0.13000
 C833 C 0.62630 0.34899 0.11030
 C834 C 0.60274 0.37325 0.08582
 C835 C 0.61127 0.41161 0.07980
 C836 C 0.64487 0.42494 0.09682
 H837 H 0.69366 0.41167 0.13667
 H838 H 0.61861 0.31966 0.11426
 H839 H 0.57734 0.36199 0.07212
 H840 H 0.65203 0.45440 0.09259
 C841 C 0.84889 0.12833 0.11158
 C842 C 0.85792 0.16666 0.11333
 C843 C 0.89243 0.17833 0.09651
 C844 C 0.91786 0.15177 0.08018
 C845 C 0.90914 0.11325 0.08095
 C846 C 0.87407 0.10206 0.09558
 H847 H 0.82291 0.11822 0.12496
 H848 H 0.90000 0.20782 0.09706
 H849 H 0.94452 0.16117 0.06845
 H850 H 0.86609 0.07266 0.09572
 C851 C 0.89141 0.67774 0.58966
 C852 C 0.85695 0.66707 0.60760
 C853 C 0.84647 0.62914 0.60481
 C854 C 0.87024 0.60225 0.58649
 C855 C 0.90527 0.61245 0.57049
 C856 C 0.91537 0.65063 0.57109
 H857 H 0.90010 0.70688 0.59093
 H858 H 0.82046 0.61979 0.61900
 H859 H 0.86127 0.57317 0.58597
 H860 H 0.94203 0.65939 0.55852
 C861 C 0.33157 0.10324 0.63387
 C862 C 0.33976 0.14204 0.63710
 C863 C 0.37196 0.15527 0.61514
 C864 C 0.39623 0.13037 0.59325
 C865 C 0.38877 0.09159 0.59168
 C866 C 0.35577 0.07826 0.61095
 H867 H 0.30713 0.09194 0.65051
 H868 H 0.37870 0.18497 0.61518
 H869 H 0.42118 0.14150 0.57770
 H870 H 0.34946 0.04844 0.61014
 C871 C 0.37479 0.64994 0.10941
 C872 C 0.34327 0.63625 0.13259
 C873 C 0.33454 0.59768 0.12754
 C874 C 0.35787 0.57321 0.10204
 C875 C 0.39041 0.58691 0.08175
 C876 C 0.39811 0.62559 0.08478
 H877 H 0.38185 0.67953 0.11089
 H878 H 0.31051 0.58612 0.14495
 H879 H 0.35146 0.54344 0.10034
 H880 H 0.42279 0.63698 0.06875
   
