data_POSCAR
  _audit_creation_date              2014-09-24
  _audit_creation_method            'ToBaCCo'
  _symmetry_space_group_name_H-M    'P1'
  _symmetry_Int_Tables_number       1
  _symmetry_cell_setting            triclinic
  loop_
  _symmetry_equiv_pos_as_xyz
 x,y,z
_cell_length_a 34.5718
_cell_length_b 34.5717
_cell_length_c 34.5731
_cell_angle_alpha 89.999900
_cell_angle_beta 89.999400
_cell_angle_gamma 90.000200
loop_
  _atom_site_label
  _atom_site_type_symbol
  _atom_site_fract_x
  _atom_site_fract_y
  _atom_site_fract_z
N1 N 0.30477 0.30900 1.30691
 N2 N 1.19195 0.69194 0.80805
 N3 N 0.69309 -0.19524 0.19102
 N4 N -0.19100 1.19309 -0.30477
 N5 N 0.69186 0.69616 0.69412
 N6 N 0.80469 0.30469 0.19532
 N7 N 0.30588 0.19187 0.80385
 N8 N 0.19614 0.80590 0.30813
 Zn9 Zn 0.00167 1.04917 -0.01647
 Zn10 Zn -0.02942 0.96902 -0.02889
 Zn11 Zn 0.05078 0.98090 0.00226
 Zn12 Zn -0.01741 0.99972 0.05148
 O13 O 0.00133 0.99963 0.00203
 O14 O -0.02737 1.05440 -0.05876
 O15 O -0.00322 0.92937 -0.05020
 O16 O 0.08543 1.01456 -0.01652
 O17 O -0.05060 0.99541 -0.06850
 O18 O 0.04889 1.06538 -0.03027
 O19 O 0.05578 0.93854 -0.02676
 O20 O 0.01639 0.98115 0.08613
 O21 O -0.06910 0.94768 -0.00277
 O22 O 0.06710 0.96727 0.04947
 O23 O -0.05968 0.97053 0.05642
 O24 O -0.03127 1.04688 0.06783
 O25 O -0.01697 1.08373 0.01737
 C26 C -0.04769 1.03075 -0.07798
 C27 C 0.03203 0.91958 -0.04721
 C28 C 0.08145 1.04858 -0.02956
 C29 C 0.05044 0.96819 0.08210
 C30 C -0.07874 0.95031 0.03254
 C31 C -0.03024 1.07957 0.05129
 Zn32 Zn 0.48444 0.00356 0.44735
 Zn33 Zn 0.47245 -0.02754 0.52754
 Zn34 Zn 0.55265 -0.01557 0.49645
 Zn35 Zn 0.50355 0.05265 0.51557
 O36 O 0.50321 0.00321 0.49679
 O37 O 0.44214 -0.02558 0.44229
 O38 O 0.49868 -0.06711 0.54892
 O39 O 0.56879 -0.02937 0.44920
 O40 O 0.43289 -0.04892 0.50131
 O41 O 0.51812 -0.01508 0.41264
 O42 O 0.55770 -0.05786 0.52558
 O43 O 0.55081 0.06879 0.52937
 O44 O 0.45107 -0.00131 0.56710
 O45 O 0.58736 0.01811 0.51509
 O46 O 0.47442 0.05771 0.55786
 O47 O 0.48492 0.08737 0.48188
 O48 O 0.47064 0.05081 0.43121
 C49 C 0.42319 -0.04604 0.46604
 C50 C 0.53395 -0.07681 0.54605
 C51 C 0.55206 -0.02835 0.41661
 C52 C 0.58340 0.05205 0.52835
 C53 C 0.45395 0.03396 0.57681
 C54 C 0.47166 0.08340 0.44795
 Zn55 Zn 0.94851 0.48260 0.50027
 Zn56 Zn 1.02889 0.47060 0.53097
 Zn57 Zn 1.01646 0.50169 0.45082
 Zn58 Zn 0.99773 0.55080 0.51910
 O59 O 0.99796 0.50135 0.50036
 O60 O 0.94357 0.44034 0.52947
 O61 O 1.06850 0.44942 0.50458
 O62 O 0.98262 0.48305 0.41627
 O63 O 1.00277 0.43091 0.55231
 O64 O 0.93216 0.46874 0.45312
 O65 O 1.05875 0.47265 0.44559
 O66 O 1.01650 0.58545 0.48544
 O67 O 1.05020 0.49680 0.57062
 O68 O 1.03025 0.54891 0.43461
 O69 O 1.02675 0.55580 0.56145
 O70 O 0.95051 0.56712 0.53273
 O71 O 0.91386 0.51641 0.51884
 C72 C 0.96746 0.42127 0.54968
 C73 C 1.07798 0.45233 0.46924
 C74 C 0.94870 0.46978 0.42043
 C75 C 1.02954 0.58147 0.45142
 C76 C 1.04721 0.53205 0.58041
 C77 C 0.91788 0.55046 0.53181
 Zn78 Zn 0.49973 0.44851 1.01740
 Zn79 Zn 0.48091 0.49773 0.94921
 Zn80 Zn 0.46902 0.52888 1.02941
 Zn81 Zn 0.54918 0.51646 0.99832
 O82 O 0.49964 0.49796 0.99866
 O83 O 0.48116 0.41386 0.98360
 O84 O 0.43855 0.52675 0.94421
 O85 O 0.44769 0.50277 1.06909
 O86 O 0.46728 0.45051 0.93289
 O87 O 0.47053 0.44357 1.05967
 O88 O 0.42937 0.55020 1.00320
 O89 O 0.55441 0.55875 1.02736
 O90 O 0.51457 0.51650 0.91456
 O91 O 0.49541 0.56850 1.05058
 O92 O 0.56539 0.53026 0.95111
 O93 O 0.58373 0.48262 1.01696
 O94 O 0.54688 0.43216 1.03126
 C95 C 0.46820 0.41788 0.94955
 C96 C 0.41959 0.54721 0.96796
 C97 C 0.45031 0.46745 1.07873
 C98 C 0.53075 0.57798 1.04768
 C99 C 0.54859 0.52955 0.91854
 C100 C 0.57958 0.44871 1.03023
 C101 C 1.27949 0.32717 0.33221
 C102 C 1.25688 0.34267 0.35380
 C103 C 1.22891 0.36090 0.37867
 C104 C 1.22904 0.40115 0.38335
 C105 C 1.20000 0.41912 0.40503
 C106 C 1.17071 0.39692 0.42216
 C107 C 1.17106 0.35659 0.41819
 C108 C 1.20012 0.33862 0.39651
 C109 C 1.13874 0.41578 0.44100
 C110 C 1.11129 0.43212 0.45500
 H111 H 1.25104 0.41867 0.36952
 H112 H 1.19982 0.45035 0.40763
 H113 H 1.14838 0.33918 0.43101
 H114 H 1.19962 0.30749 0.39291
 C115 C 0.21739 0.67374 0.83316
 C116 C 0.24014 0.65814 0.85454
 C117 C 0.26826 0.63969 0.87907
 C118 C 0.26784 0.59945 0.88376
 C119 C 0.29702 0.58123 0.90506
 C120 C 0.32673 0.60318 0.92177
 C121 C 0.32667 0.64351 0.91779
 C122 C 0.29748 0.66173 0.89650
 C123 C 0.35877 0.58406 0.94023
 C124 C 0.38625 0.56755 0.95395
 H125 H 0.24551 0.58211 0.87024
 H126 H 0.29696 0.55000 0.90767
 H127 H 0.34967 0.66074 0.93030
 H128 H 0.29820 0.69285 0.89288
 C129 C -0.28134 0.82282 0.16592
 C130 C -0.25849 0.83838 0.14463
 C131 C -0.23024 0.85692 0.12030
 C132 C -0.20038 0.83512 0.10368
 C133 C -0.17109 0.85351 0.08268
 C134 C -0.17157 0.89378 0.07817
 C135 C -0.20190 0.91548 0.09406
 C136 C -0.23118 0.89709 0.11507
 C137 C -0.13951 0.91315 0.05998
 C138 C -0.11204 0.92982 0.04643
 H139 H -0.19925 0.80406 0.10773
 H140 H -0.14762 0.83648 0.07080
 H141 H -0.20239 0.94667 0.09103
 H142 H -0.25400 0.91426 0.12798
 C143 C 0.78363 0.17503 0.66994
 C144 C 0.76100 0.15957 0.64834
 C145 C 0.73309 0.14136 0.62340
 C146 C 0.73188 0.10097 0.62034
 C147 C 0.70300 0.08319 0.59829
 C148 C 0.67522 0.10571 0.57920
 C149 C 0.67688 0.14612 0.58165
 C150 C 0.70578 0.16391 0.60370
 C151 C 0.64358 0.08726 0.55942
 C152 C 0.61641 0.07144 0.54433
 H153 H 0.75274 0.08325 0.63561
 H154 H 0.70182 0.05190 0.59682
 H155 H 0.65539 0.16381 0.56725
 H156 H 0.70634 0.19516 0.60602
 C157 C 0.33006 0.28363 0.32498
 C158 C 0.35166 0.26100 0.34044
 C159 C 0.37660 0.23310 0.35864
 C160 C 0.37967 0.23189 0.39903
 C161 C 0.40172 0.20300 0.41681
 C162 C 0.42081 0.17523 0.39429
 C163 C 0.41835 0.17688 0.35388
 C164 C 0.39631 0.20578 0.33609
 C165 C 0.44059 0.14358 0.41274
 C166 C 0.45568 0.11642 0.42856
 H167 H 0.36440 0.25274 0.41675
 H168 H 0.40319 0.20182 0.44810
 H169 H 0.43275 0.15539 0.33620
 H170 H 0.39398 0.20634 0.30484
 C171 C 0.83410 0.21866 0.67717
 C172 C 0.85538 0.24152 0.66161
 C173 C 0.87971 0.26976 0.64307
 C174 C 0.88493 0.26883 0.60290
 C175 C 0.90594 0.29811 0.58451
 C176 C 0.92184 0.32844 0.60621
 C177 C 0.91733 0.32891 0.64648
 C178 C 0.89633 0.29962 0.66487
 C179 C 0.94002 0.36050 0.58684
 C180 C 0.95357 0.38797 0.57017
 H181 H 0.87202 0.24601 0.58573
 H182 H 0.90896 0.29762 0.55332
 H183 H 0.92922 0.35239 0.66351
 H184 H 0.89229 0.30075 0.69593
 C185 C 0.16683 0.71739 -0.17374
 C186 C 0.14545 0.74013 -0.15814
 C187 C 0.12092 0.76825 -0.13970
 C188 C 0.10349 0.79748 -0.16173
 C189 C 0.08220 0.82667 -0.14352
 C190 C 0.07821 0.82672 -0.10319
 C191 C 0.09492 0.79701 -0.08124
 C192 C 0.11622 0.76783 -0.09946
 C193 C 0.05975 0.85876 -0.08407
 C194 C 0.04603 0.88625 -0.06756
 H195 H 0.10711 0.79820 -0.19285
 H196 H 0.06969 0.84967 -0.16074
 H197 H 0.09231 0.79695 -0.05001
 H198 H 0.12975 0.74550 -0.08212
 C199 C 0.66779 0.77948 1.17285
 C200 C 0.64619 0.75687 1.15735
 C201 C 0.62132 0.72891 1.13912
 C202 C 0.61665 0.72904 1.09887
 C203 C 0.59495 0.70000 1.08090
 C204 C 0.57783 0.67072 1.10309
 C205 C 0.58180 0.67106 1.14342
 C206 C 0.60348 0.70011 1.16139
 C207 C 0.55898 0.63874 1.08423
 C208 C 0.54499 0.61130 1.06789
 H209 H 0.63048 0.75104 1.08135
 H210 H 0.59236 0.69983 1.04967
 H211 H 0.56897 0.64838 1.16084
 H212 H 0.60707 0.69962 1.19252
 C213 C 0.32283 0.33409 1.28134
 C214 C 0.33839 0.35538 1.25848
 C215 C 0.35693 0.37970 1.23024
 C216 C 0.39710 0.38492 1.23117
 C217 C 0.41549 0.40593 1.20189
 C218 C 0.39379 0.42183 1.17156
 C219 C 0.35352 0.41733 1.17109
 C220 C 0.33512 0.39633 1.20038
 C221 C 0.41315 0.44002 1.13950
 C222 C 0.42983 0.45356 1.11203
 H223 H 0.41427 0.37201 1.25398
 H224 H 0.44668 0.40895 1.20237
 H225 H 0.33648 0.42922 1.14762
 H226 H 0.30407 0.39229 1.19926
 C227 C 0.67503 -0.16995 0.21639
 C228 C 0.65957 -0.14835 0.23901
 C229 C 0.64136 -0.12341 0.26692
 C230 C 0.60098 -0.12035 0.26814
 C231 C 0.58319 -0.09830 0.29702
 C232 C 0.60571 -0.07921 0.32479
 C233 C 0.64613 -0.08166 0.32313
 C234 C 0.66392 -0.10371 0.29424
 C235 C 0.58727 -0.05943 0.35644
 C236 C 0.57145 -0.04433 0.38360
 H237 H 0.58326 -0.13562 0.24728
 H238 H 0.55191 -0.09683 0.29820
 H239 H 0.66381 -0.06726 0.34462
 H240 H 0.69516 -0.10603 0.29368
 C241 C -0.17283 1.16779 -0.27949
 C242 C -0.15734 1.14620 -0.25688
 C243 C -0.13911 1.12133 -0.22891
 C244 C -0.09886 1.11665 -0.22904
 C245 C -0.08090 1.09496 -0.20000
 C246 C -0.10310 1.07783 -0.17072
 C247 C -0.14342 1.08180 -0.17107
 C248 C -0.16139 1.10348 -0.20013
 C249 C -0.08424 1.05898 -0.13875
 C250 C -0.06791 1.04499 -0.11130
 H251 H -0.08134 1.13048 -0.25103
 H252 H -0.04966 1.09236 -0.19982
 H253 H -0.16084 1.06898 -0.14840
 H254 H -0.19252 1.10708 -0.19964
 C255 C 1.17374 0.66683 0.78261
 C256 C 1.15814 0.64546 0.75986
 C257 C 1.13970 0.62092 0.73174
 C258 C 1.09945 0.61623 0.73215
 C259 C 1.08123 0.59494 0.70297
 C260 C 1.10318 0.57823 0.67327
 C261 C 1.14351 0.58221 0.67332
 C262 C 1.16173 0.60350 0.70251
 C263 C 1.08406 0.55977 0.64122
 C264 C 1.06755 0.54605 0.61374
 H265 H 1.08211 0.62976 0.75448
 H266 H 1.05000 0.59232 0.70303
 H267 H 1.16074 0.56970 0.65033
 H268 H 1.19285 0.60712 0.70180
 C269 C 0.71738 0.67761 0.66934
 C270 C 0.74011 0.66162 0.64825
 C271 C 0.76810 0.64265 0.62399
 C272 C 0.79575 0.66454 0.60400
 C273 C 0.82470 0.64602 0.58264
 C274 C 0.82609 0.60555 0.58117
 C275 C 0.79800 0.58368 0.60055
 C276 C 0.76906 0.60219 0.62191
 C277 C 0.85773 0.58643 0.56203
 C278 C 0.88488 0.57017 0.54739
 H279 H 0.79539 0.69584 0.60557
 H280 H 0.84644 0.66321 0.56800
 H281 H 0.79897 0.55236 0.59982
 H282 H 0.74794 0.58499 0.63741
 C283 C 0.77932 0.32314 1.17031
 C284 C 0.75670 0.33896 1.14896
 C285 C 0.72884 0.35764 1.12433
 C286 C 0.70149 0.33547 1.10422
 C287 C 0.67267 0.35369 1.08244
 C288 C 0.67110 0.39415 1.08066
 C289 C 0.69889 0.41629 1.10016
 C290 C 0.72771 0.39807 1.12195
 C291 C 0.63956 0.41298 1.06109
 C292 C 0.61248 0.42908 1.04613
 H293 H 0.70199 0.30419 1.10602
 H294 H 0.65116 0.33630 1.06771
 H295 H 0.69779 0.44759 1.09921
 H296 H 0.74859 0.41549 1.13753
 C297 C 0.28065 1.17320 -0.17118
 C298 C 0.25816 1.15729 -0.14977
 C299 C 0.23044 1.13865 -0.12495
 C300 C 0.22836 1.09821 -0.12357
 C301 C 0.19967 1.08014 -0.10150
 C302 C 0.17295 1.10245 -0.08071
 C303 C 0.17549 1.14288 -0.08151
 C304 C 0.20419 1.16094 -0.10357
 C305 C 0.14145 1.08388 -0.06082
 C306 C 0.11439 1.06800 -0.04564
 H307 H 0.24839 1.08069 -0.14013
 H308 H 0.19779 1.04886 -0.10131
 H309 H 0.15481 1.16041 -0.06578
 H310 H 0.20543 1.19224 -0.10458
 C311 C 0.22160 -0.17545 0.33289
 C312 C 0.24433 -0.15941 0.35396
 C313 C 0.27240 -0.14041 0.37811
 C314 C 0.30157 -0.16203 0.39614
 C315 C 0.33068 -0.14331 0.41710
 C316 C 0.33071 -0.10290 0.42016
 C317 C 0.30107 -0.08135 0.40283
 C318 C 0.27197 -0.10006 0.38186
 C319 C 0.36261 -0.08336 0.43840
 C320 C 0.38998 -0.06659 0.45203
 H321 H 0.30229 -0.19322 0.39325
 H322 H 0.35362 -0.16024 0.43011
 H323 H 0.30098 -0.05007 0.40473
 H324 H 0.24968 -0.08305 0.36786
 C325 C 0.66709 -0.27839 0.67546
 C326 C 0.64603 -0.25566 0.65943
 C327 C 0.62187 -0.22760 0.64042
 C328 C 0.60383 -0.19843 0.66204
 C329 C 0.58287 -0.16933 0.64332
 C330 C 0.57982 -0.16929 0.60291
 C331 C 0.59716 -0.19893 0.58136
 C332 C 0.61813 -0.22803 0.60008
 C333 C 0.56158 -0.13738 0.58337
 C334 C 0.54796 -0.11002 0.56660
 H335 H 0.60671 -0.19771 0.69324
 H336 H 0.56985 -0.14638 0.66025
 H337 H 0.59526 -0.19901 0.55008
 H338 H 0.63213 -0.25032 0.58307
 C339 C 1.17117 0.78067 0.32680
 C340 C 1.14976 0.75818 0.34271
 C341 C 1.12494 0.73046 0.36135
 C342 C 1.12355 0.72838 0.40179
 C343 C 1.10148 0.69969 0.41985
 C344 C 1.08069 0.67297 0.39755
 C345 C 1.08150 0.67550 0.35712
 C346 C 1.10356 0.70421 0.33905
 C347 C 1.06081 0.64148 0.41612
 C348 C 1.04562 0.61441 0.43200
 H349 H 1.14011 0.74841 0.41930
 H350 H 1.10129 0.69782 0.45113
 H351 H 1.06576 0.65483 0.33959
 H352 H 1.10457 0.70545 0.30775
 C353 C -0.17030 1.27932 0.17687
 C354 C -0.14896 1.25671 0.16105
 C355 C -0.12432 1.22884 0.14237
 C356 C -0.12195 1.22771 0.10193
 C357 C -0.10017 1.19889 0.08371
 C358 C -0.08066 1.17110 0.10585
 C359 C -0.08243 1.17267 0.14630
 C360 C -0.10421 1.20150 0.16452
 C361 C -0.06109 1.13956 0.08701
 C362 C -0.04613 1.11248 0.07092
 H363 H -0.13754 1.24859 0.08452
 H364 H -0.09922 1.19778 0.05241
 H365 H -0.06769 1.15117 0.16370
 H366 H -0.10600 1.20199 0.19581
 C367 C 0.33066 0.21738 0.82240
 C368 C 0.35175 0.24011 0.83839
 C369 C 0.37602 0.26810 0.85736
 C370 C 0.37810 0.26906 0.89781
 C371 C 0.39946 0.29800 0.91633
 C372 C 0.41884 0.32609 0.89446
 C373 C 0.41736 0.32470 0.85399
 C374 C 0.39601 0.29575 0.83547
 C375 C 0.43797 0.35773 0.91358
 C376 C 0.45261 0.38488 0.92984
 H377 H 0.36259 0.24794 0.91502
 H378 H 0.40018 0.29896 0.94764
 H379 H 0.43201 0.34644 0.83681
 H380 H 0.39444 0.29540 0.80418
 C381 C 0.67319 0.67118 0.71935
 C382 C 0.65729 0.64977 0.74184
 C383 C 0.63865 0.62495 0.76956
 C384 C 0.66095 0.60357 0.79581
 C385 C 0.64289 0.58151 0.82451
 C386 C 0.60245 0.58071 0.82705
 C387 C 0.58015 0.60150 0.80034
 C388 C 0.59821 0.62357 0.77165
 C389 C 0.58389 0.56082 0.85854
 C390 C 0.56801 0.54563 0.88561
 H391 H 0.69225 0.60457 0.79456
 H392 H 0.66042 0.56577 0.84518
 H393 H 0.54887 0.60131 0.80222
 H394 H 0.58070 0.64013 0.75162
 C395 C 0.32454 0.16710 0.77839
 C396 C 0.34057 0.14604 0.75566
 C397 C 0.35958 0.12188 0.72760
 C398 C 0.33796 0.10385 0.69843
 C399 C 0.35668 0.08289 0.66932
 C400 C 0.39709 0.07984 0.66929
 C401 C 0.41864 0.09717 0.69892
 C402 C 0.39993 0.11814 0.72802
 C403 C 0.41663 0.06159 0.63738
 C404 C 0.43340 0.04797 0.61001
 H405 H 0.30676 0.10673 0.69771
 H406 H 0.33975 0.06988 0.64638
 H407 H 0.44992 0.09527 0.69901
 H408 H 0.41694 0.13214 0.75031
 C409 C 0.17759 0.83067 0.28261
 C410 C 0.16161 0.85176 0.25988
 C411 C 0.14264 0.87602 0.23188
 C412 C 0.10218 0.87810 0.23093
 C413 C 0.08367 0.89946 0.20198
 C414 C 0.10553 0.91884 0.17389
 C415 C 0.14601 0.91736 0.17528
 C416 C 0.16452 0.89601 0.20424
 C417 C 0.08642 0.93797 0.14225
 C418 C 0.07016 0.95261 0.11510
 H419 H 0.08497 0.86259 0.25204
 H420 H 0.05235 0.90017 0.20102
 H421 H 0.16319 0.93201 0.15355
 H422 H 0.19582 0.89444 0.20460
 C423 C 0.82314 0.32970 0.22069
 C424 C 0.83896 0.35104 0.24330
 C425 C 0.85763 0.37568 0.27117
 C426 C 0.83547 0.39579 0.29851
 C427 C 0.85369 0.41757 0.32733
 C428 C 0.89414 0.41935 0.32891
 C429 C 0.91628 0.39984 0.30112
 C430 C 0.89807 0.37805 0.27230
 C431 C 0.91298 0.43892 0.36045
 C432 C 0.92907 0.45388 0.38752
 H433 H 0.80419 0.39400 0.29801
 H434 H 0.83629 0.43231 0.34883
 H435 H 0.94759 0.40079 0.30223
 H436 H 0.91549 0.36247 0.25143
   
