data_POSCAR
  _audit_creation_date              2014-09-24
  _audit_creation_method            'ToBaCCo'
  _symmetry_space_group_name_H-M    'P1'
  _symmetry_Int_Tables_number       1
  _symmetry_cell_setting            triclinic
  loop_
  _symmetry_equiv_pos_as_xyz
 x,y,z
_cell_length_a 42.7957
_cell_length_b 42.8237
_cell_length_c 42.9036
_cell_angle_alpha 90.027900
_cell_angle_beta 90.052800
_cell_angle_gamma 89.919500
loop_
  _atom_site_label
  _atom_site_type_symbol
  _atom_site_fract_x
  _atom_site_fract_y
  _atom_site_fract_z
C1 C 0.33418 0.37894 1.35859
 C2 C 0.35654 0.38055 1.33478
 C3 C 0.38020 0.35847 1.33321
 C4 C 0.38178 0.33451 1.35543
 C5 C 0.35967 0.33293 1.37897
 C6 C 0.33574 0.35527 1.38056
 C7 C 0.30807 0.39657 1.36521
 N8 N 0.29402 0.38407 1.39057
 C9 C 0.31054 0.35885 1.40021
 C10 C 0.36629 0.30682 1.39651
 N11 N 0.39179 0.29279 1.38410
 C12 C 0.40152 0.30932 1.35902
 C13 C 0.39784 0.36517 1.30723
 N14 N 0.38538 0.39067 1.29327
 C15 C 0.36017 0.40032 1.30973
 H16 H 0.29966 0.41663 1.35231
 H17 H 0.30442 0.34402 1.41971
 H18 H 0.35330 0.29840 1.41646
 H19 H 0.42112 0.30320 1.34427
 H20 H 0.41790 0.35225 1.29883
 H21 H 0.34538 0.41992 1.30364
 C22 C 1.16730 0.62195 0.85974
 C23 C 1.14491 0.62037 0.83590
 C24 C 1.12121 0.64240 0.83441
 C25 C 1.11961 0.66629 0.85673
 C26 C 1.14175 0.66785 0.88029
 C27 C 1.16574 0.64556 0.88180
 C28 C 1.19345 0.60434 0.86630
 N29 N 1.20751 0.61679 0.89172
 C30 C 1.19097 0.64195 0.90145
 C31 C 1.13508 0.69390 0.89792
 N32 N 1.10953 0.70790 0.88555
 C33 C 1.09981 0.69141 0.86040
 C34 C 1.10355 0.63576 0.80841
 N35 N 1.11603 0.61033 0.79433
 C36 C 1.14128 0.60068 0.81077
 H37 H 1.20186 0.58433 0.85333
 H38 H 1.19709 0.65674 0.92101
 H39 H 1.14807 0.70230 0.91791
 H40 H 1.08017 0.69751 0.84566
 H41 H 1.08344 0.64867 0.80005
 H42 H 1.15610 0.58111 0.80461
 C43 C 0.66704 -0.12055 0.14044
 C44 C 0.64469 -0.11907 0.16428
 C45 C 0.62114 -0.14120 0.16575
 C46 C 0.61965 -0.16506 0.14342
 C47 C 0.64175 -0.16653 0.11985
 C48 C 0.66558 -0.14414 0.11835
 C49 C 0.69306 -0.10285 0.13390
 N50 N 0.70716 -0.11522 0.10847
 C51 C 0.69075 -0.14043 0.09871
 C52 C 0.63520 -0.19258 0.10220
 N53 N 0.60977 -0.20669 0.11457
 C54 C 0.60001 -0.19026 0.13974
 C55 C 0.60349 -0.13465 0.19177
 N56 N 0.61583 -0.10919 0.20587
 C57 C 0.64098 -0.09942 0.18944
 H58 H 0.70138 -0.08282 0.14689
 H59 H 0.69693 -0.15518 0.07913
 H60 H 0.64820 -0.20092 0.08219
 H61 H 0.58044 -0.19644 0.15448
 H62 H 0.58349 -0.14765 0.20012
 H63 H 0.65570 -0.07982 0.19563
 C64 C -0.16794 1.12046 -0.35899
 C65 C -0.14563 1.11903 -0.33507
 C66 C -0.12208 1.14116 -0.33354
 C67 C -0.12056 1.16499 -0.35589
 C68 C -0.14262 1.16641 -0.37953
 C69 C -0.16645 1.14402 -0.38109
 C70 C -0.19391 1.10272 -0.36564
 N71 N -0.20795 1.11502 -0.39114
 C72 C -0.19156 1.14023 -0.40085
 C73 C -0.13601 1.19240 -0.39723
 N74 N -0.11058 1.20651 -0.38480
 C75 C -0.10088 1.19014 -0.35956
 C76 C -0.10445 1.13463 -0.30748
 N77 N -0.11680 1.10918 -0.29342
 C78 C -0.14193 1.09939 -0.30992
 H79 H -0.20223 1.08269 -0.35268
 H80 H -0.19769 1.15493 -0.42048
 H81 H -0.14895 1.20066 -0.41731
 H82 H -0.08130 1.19633 -0.34479
 H83 H -0.08445 1.14763 -0.29908
 H84 H -0.15663 1.07978 -0.30379
 C85 C 0.66692 0.62127 0.64086
 C86 C 0.64449 0.62001 0.66463
 C87 C 0.62092 0.64220 0.66589
 C88 C 0.61950 0.66591 0.64340
 C89 C 0.64167 0.66715 0.61990
 C90 C 0.66552 0.64470 0.61863
 C91 C 0.69298 0.60348 0.63451
 N92 N 0.70716 0.61562 0.60906
 C93 C 0.69076 0.64078 0.59910
 C94 C 0.63519 0.69310 0.60207
 N95 N 0.60972 0.70736 0.61428
 C96 C 0.59987 0.69113 0.63950
 C97 C 0.60319 0.63588 0.69190
 N98 N 0.61551 0.61050 0.70619
 C99 C 0.64072 0.60056 0.68990
 H100 H 0.70129 0.58353 0.64763
 H101 H 0.69702 0.65535 0.57946
 H102 H 0.64827 0.70126 0.58207
 H103 H 0.58025 0.69748 0.65415
 H104 H 0.58316 0.64899 0.70010
 H105 H 0.65542 0.58096 0.69626
 C106 C 0.83294 0.37924 0.14191
 C107 C 0.85538 0.38043 0.16572
 C108 C 0.87888 0.35817 0.16700
 C109 C 0.88023 0.33445 0.14449
 C110 C 0.85805 0.33328 0.12095
 C111 C 0.83427 0.35580 0.11965
 C112 C 0.80694 0.39713 0.13552
 N113 N 0.79274 0.38501 0.11003
 C114 C 0.80905 0.35979 0.10007
 C115 C 0.86445 0.30731 0.10310
 N116 N 0.88988 0.29297 0.11533
 C117 C 0.89978 0.30916 0.14059
 C118 C 0.89666 0.36445 0.19302
 N119 N 0.88443 0.38987 0.20731
 C120 C 0.85924 0.39989 0.19100
 H121 H 0.79871 0.41711 0.14867
 H122 H 0.80277 0.34521 0.08040
 H123 H 0.85135 0.29920 0.08306
 H124 H 0.91939 0.30276 0.15525
 H125 H 0.91666 0.35129 0.20123
 H126 H 0.84462 0.41954 0.19734
 C127 C 0.33206 0.12082 0.85808
 C128 C 0.35451 0.11967 0.83433
 C129 C 0.37793 0.14196 0.83311
 C130 C 0.37917 0.16567 0.85563
 C131 C 0.35698 0.16680 0.87911
 C132 C 0.33328 0.14426 0.88035
 C133 C 0.30611 0.10292 0.86440
 N134 N 0.29185 0.11503 0.88986
 C135 C 0.30806 0.14026 0.89986
 C136 C 0.36326 0.19277 0.89697
 N137 N 0.38863 0.20717 0.88483
 C138 C 0.39861 0.19098 0.85960
 C139 C 0.39573 0.13571 0.80712
 N140 N 0.38360 0.11028 0.79279
 C141 C 0.35844 0.10023 0.80905
 H142 H 0.29795 0.08294 0.85123
 H143 H 0.30172 0.15484 0.91951
 H144 H 0.35013 0.20089 0.91696
 H145 H 0.41819 0.19744 0.84501
 H146 H 0.41567 0.14890 0.79894
 H147 H 0.34389 0.08057 0.80266
 C148 C 0.16660 0.87870 0.35899
 C149 C 0.14410 0.88002 0.33525
 C150 C 0.12069 0.85773 0.33386
 C151 C 0.11950 0.83387 0.35619
 C152 C 0.14174 0.83257 0.37966
 C153 C 0.16544 0.85511 0.38107
 C154 C 0.19255 0.89657 0.36541
 N155 N 0.20689 0.88431 0.39076
 C156 C 0.19072 0.85900 0.40059
 C157 C 0.13547 0.80648 0.39732
 N158 N 0.11007 0.79218 0.38506
 C159 C 0.10006 0.80855 0.35996
 C160 C 0.10286 0.86414 0.30789
 N161 N 0.11497 0.88966 0.29376
 C162 C 0.14014 0.89962 0.31011
 H163 H 0.20066 0.91664 0.35237
 H164 H 0.19713 0.84430 0.42012
 H165 H 0.14861 0.79823 0.41727
 H166 H 0.08043 0.80221 0.34533
 H167 H 0.08292 0.85099 0.29960
 H168 H 0.15470 0.91930 0.30386
 Zn169 Zn 0.00625 1.03788 -0.01911
 Zn170 Zn -0.02508 0.97557 -0.02445
 Zn171 Zn 0.03723 0.98106 0.00696
 Zn172 Zn -0.01973 1.00711 0.03767
 O173 O -0.00036 1.00039 0.00024
 O174 O -0.01281 1.04032 -0.05615
 O175 O -0.00626 0.93968 -0.03529
 O176 O 0.06974 1.00322 -0.00719
 O177 O -0.03605 0.99426 -0.06028
 O178 O 0.04674 1.04537 -0.02657
 O179 O 0.03978 0.94392 -0.01195
 O180 O 0.00249 0.99301 0.07017
 O181 O -0.06096 0.96468 -0.00576
 O182 O 0.04477 0.97370 0.04737
 O183 O -0.05685 0.98813 0.04015
 O184 O -0.02720 1.04760 0.04514
 O185 O -0.00790 1.07046 0.00302
 C186 C -0.02967 1.02108 -0.07101
 C187 C 0.02061 0.92898 -0.02880
 C188 C 0.07105 1.02944 -0.02081
 C189 C 0.02880 0.97945 0.07157
 C190 C -0.07172 0.97120 0.02100
 C191 C -0.02147 1.07185 0.02923
 Zn192 Zn 0.46209 0.01930 0.50602
 Zn193 Zn 0.49293 -0.03769 0.48015
 Zn194 Zn 0.52448 0.02449 0.47483
 Zn195 Zn 0.51891 -0.00687 0.53698
 O196 O 0.49962 -0.00017 0.49947
 O197 O 0.42953 -0.00286 0.49191
 O198 O 0.51193 -0.04024 0.44311
 O199 O 0.50581 0.06042 0.46389
 O200 O 0.45243 -0.04516 0.47274
 O201 O 0.45967 0.05639 0.48700
 O202 O 0.53539 0.00570 0.43904
 O203 O 0.55607 0.01201 0.53956
 O204 O 0.50707 -0.07024 0.50231
 O205 O 0.56038 0.03528 0.49362
 O206 O 0.52629 -0.04736 0.54451
 O207 O 0.49666 0.00736 0.56939
 O208 O 0.45453 0.02682 0.54639
 C209 C 0.42815 -0.02917 0.47844
 C210 C 0.52887 -0.02110 0.42829
 C211 C 0.47895 0.07122 0.47022
 C212 C 0.57105 0.02881 0.52043
 C213 C 0.52059 -0.07162 0.52857
 C214 C 0.47041 0.02103 0.57066
 Zn215 Zn 0.98197 0.49160 0.53854
 Zn216 Zn 0.97666 0.52291 0.47631
 Zn217 Zn 1.03894 0.51740 0.50780
 Zn218 Zn 1.00801 0.46056 0.48184
 O219 O 1.00137 0.49814 0.50110
 O220 O 0.94487 0.51072 0.54094
 O221 O 0.99547 0.55873 0.46543
 O222 O 1.04645 0.52488 0.54820
 O223 O 0.94076 0.53395 0.49494
 O224 O 1.00418 0.50573 0.57103
 O225 O 1.04149 0.55448 0.48882
 O226 O 1.04852 0.45292 0.47449
 O227 O 0.96575 0.50414 0.44050
 O228 O 1.07146 0.49511 0.49374
 O229 O 0.98903 0.45805 0.44476
 O230 O 0.99377 0.42812 0.50400
 O231 O 0.97443 0.45115 0.54606
 C232 C 0.93000 0.52760 0.52172
 C233 C 1.02232 0.56940 0.47192
 C234 C 1.03048 0.51924 0.57241
 C235 C 1.07281 0.46882 0.48022
 C236 C 0.97218 0.47727 0.42983
 C237 C 0.98013 0.42685 0.53018
 Zn238 Zn 0.48088 0.49427 0.96248
 Zn239 Zn 0.53798 0.52000 0.99318
 Zn240 Zn 0.47576 0.52569 1.02469
 Zn241 Zn 0.50700 0.46327 1.01916
 O242 O 0.50038 0.50083 0.99990
 O243 O 0.50308 0.50823 0.92996
 O244 O 0.54062 0.55713 1.01209
 O245 O 0.43983 0.53676 1.00607
 O246 O 0.54544 0.52734 0.95276
 O247 O 0.44383 0.51349 0.96006
 O248 O 0.49466 0.56149 1.03552
 O249 O 0.48813 0.46086 1.05625
 O250 O 0.57050 0.49769 1.00728
 O251 O 0.46492 0.50698 1.06053
 O252 O 0.54750 0.45555 1.02649
 O253 O 0.49261 0.43082 0.99705
 O254 O 0.47319 0.45384 0.95501
 C255 C 0.52942 0.52165 0.92856
 C256 C 0.52151 0.57212 1.02899
 C257 C 0.42902 0.53041 0.97928
 C258 C 0.47135 0.48012 1.07119
 C259 C 0.57182 0.47141 1.02079
 C260 C 0.47887 0.42954 0.97090
 C261 C 1.26758 0.39416 0.40314
 C262 C 1.24344 0.40333 0.41439
 C263 C 1.21446 0.41430 0.42741
 C264 C 1.21045 0.44608 0.43410
 C265 C 1.18194 0.45689 0.44585
 C266 C 1.15733 0.43597 0.45096
 C267 C 1.16142 0.40415 0.44451
 C268 C 1.18994 0.39334 0.43276
 C269 C 1.12763 0.44730 0.46192
 C270 C 1.10264 0.45699 0.47058
 H271 H 1.22923 0.46250 0.42999
 H272 H 1.17899 0.48156 0.45067
 H273 H 1.14252 0.38778 0.44828
 H274 H 1.19277 0.36872 0.42760
 C275 C 0.23398 0.60667 0.90426
 C276 C 0.25815 0.59747 0.91546
 C277 C 0.28717 0.58642 0.92837
 C278 C 0.29029 0.55511 0.93734
 C279 C 0.31883 0.54411 0.94887
 C280 C 0.34438 0.56437 0.95149
 C281 C 0.34119 0.59575 0.94280
 C282 C 0.31264 0.60675 0.93127
 C283 C 0.37412 0.55270 0.96203
 C284 C 0.39914 0.54267 0.97026
 H285 H 0.27077 0.53917 0.93513
 H286 H 0.32108 0.51977 0.95541
 H287 H 0.36083 0.61159 0.94461
 H288 H 0.31051 0.63098 0.92433
 C289 C -0.26646 0.89499 0.09593
 C290 C -0.24237 0.90430 0.08476
 C291 C -0.21343 0.91549 0.07189
 C292 C -0.18886 0.89462 0.06609
 C293 C -0.16036 0.90565 0.05460
 C294 C -0.15632 0.93760 0.04886
 C295 C -0.18099 0.95842 0.05439
 C296 C -0.20949 0.94739 0.06587
 C297 C -0.12660 0.94917 0.03831
 C298 C -0.10159 0.95908 0.03006
 H299 H -0.19164 0.86991 0.07074
 H300 H -0.14141 0.88936 0.05052
 H301 H -0.17808 0.98319 0.05013
 H302 H -0.22830 0.96374 0.07035
 C303 C 0.76573 0.10473 0.59620
 C304 C 0.74170 0.09533 0.58492
 C305 C 0.71284 0.08403 0.57193
 C306 C 0.70716 0.05186 0.57033
 C307 C 0.67869 0.04085 0.55872
 C308 C 0.65577 0.06196 0.54865
 C309 C 0.66155 0.09413 0.54997
 C310 C 0.69004 0.10514 0.56158
 C311 C 0.62600 0.05059 0.53794
 C312 C 0.60096 0.04081 0.52959
 H313 H 0.72459 0.03533 0.57834
 H314 H 0.67441 0.01593 0.55791
 H315 H 0.64395 0.11066 0.54234
 H316 H 0.69416 0.13007 0.56279
 C317 C 0.40437 0.26633 0.39417
 C318 C 0.41555 0.24217 0.40336
 C319 C 0.42840 0.21315 0.41444
 C320 C 0.43619 0.20970 0.44598
 C321 C 0.44761 0.18113 0.45699
 C322 C 0.45128 0.15590 0.43650
 C323 C 0.44377 0.15944 0.40490
 C324 C 0.43236 0.18801 0.39389
 C325 C 0.46175 0.12614 0.44811
 C326 C 0.46993 0.10111 0.45807
 H327 H 0.43314 0.22895 0.46209
 H328 H 0.45323 0.17861 0.48148
 H329 H 0.44642 0.14006 0.38888
 H330 H 0.42633 0.19040 0.36948
 C331 C 0.90206 0.23282 0.60498
 C332 C 0.91338 0.25685 0.59569
 C333 C 0.92651 0.28569 0.58459
 C334 C 0.93053 0.29053 0.55255
 C335 C 0.94242 0.31891 0.54169
 C336 C 0.95034 0.34257 0.56282
 C337 C 0.94655 0.33764 0.59488
 C338 C 0.93466 0.30925 0.60574
 C339 C 0.96149 0.37217 0.55155
 C340 C 0.97031 0.39708 0.54191
 H341 H 0.92423 0.27249 0.53599
 H342 H 0.94516 0.32251 0.51685
 H343 H 0.95251 0.35582 0.61142
 H344 H 0.93159 0.30578 0.63056
 C345 C 0.09685 0.73428 -0.10431
 C346 C 0.08552 0.75837 -0.09509
 C347 C 0.07243 0.78730 -0.08406
 C348 C 0.06543 0.79106 -0.05238
 C349 C 0.05371 0.81954 -0.04147
 C350 C 0.04893 0.84438 -0.06219
 C351 C 0.05566 0.84052 -0.09392
 C352 C 0.06738 0.81204 -0.10483
 C353 C 0.03818 0.87409 -0.05071
 C354 C 0.02979 0.89910 -0.04086
 H355 H 0.06932 0.77211 -0.03610
 H356 H 0.04869 0.82230 -0.01688
 H357 H 0.05216 0.85961 -0.11013
 H358 H 0.07278 0.80941 -0.12936
 C359 C 0.59724 0.76690 1.10441
 C360 C 0.58604 0.74278 1.09519
 C361 C 0.57308 0.71382 1.08414
 C362 C 0.56634 0.70994 1.05242
 C363 C 0.55472 0.68144 1.04152
 C364 C 0.54979 0.65670 1.06230
 C365 C 0.55628 0.66067 1.09407
 C366 C 0.56790 0.68917 1.10497
 C367 C 0.53909 0.62698 1.05085
 C368 C 0.53072 0.60198 1.04102
 H369 H 0.57033 0.72882 1.03610
 H370 H 0.54989 0.67859 1.01689
 H371 H 0.55267 0.64166 1.11032
 H372 H 0.57311 0.69190 1.12954
 C373 C 0.39610 0.40409 1.26549
 C374 C 0.40530 0.41542 1.24148
 C375 C 0.41633 0.42853 1.21264
 C376 C 0.44823 0.43451 1.20852
 C377 C 0.45910 0.44621 1.18010
 C378 C 0.43811 0.45199 1.15568
 C379 C 0.40616 0.44629 1.15990
 C380 C 0.39529 0.43459 1.18833
 C381 C 0.44952 0.46269 1.12601
 C382 C 0.45933 0.47103 1.10103
 H383 H 0.46471 0.42983 1.22713
 H384 H 0.48387 0.45042 1.17705
 H385 H 0.38974 0.45056 1.14114
 H386 H 0.37058 0.42998 1.19124
 C387 C 0.60506 -0.09595 0.23374
 C388 C 0.59580 -0.08480 0.25783
 C389 C 0.58468 -0.07195 0.28677
 C390 C 0.55308 -0.06405 0.29016
 C391 C 0.54206 -0.05259 0.31864
 C392 C 0.56258 -0.04899 0.34385
 C393 C 0.59424 -0.05661 0.34037
 C394 C 0.60526 -0.06806 0.31189
 C395 C 0.55096 -0.03846 0.37352
 C396 C 0.54100 -0.03020 0.39848
 H397 H 0.53695 -0.06703 0.27091
 H398 H 0.51751 -0.04687 0.32110
 H399 H 0.61029 -0.05402 0.35974
 H400 H 0.62973 -0.07417 0.30954
 C401 C -0.10601 1.09592 -0.26556
 C402 C -0.09673 1.08475 -0.24148
 C403 C -0.08557 1.07188 -0.21255
 C404 C -0.10628 1.06724 -0.18771
 C405 C -0.09523 1.05576 -0.15923
 C406 C -0.06343 1.04887 -0.15549
 C407 C -0.04278 1.05323 -0.18043
 C408 C -0.05382 1.06470 -0.20890
 C409 C -0.05181 1.03835 -0.12581
 C410 C -0.04184 1.03012 -0.10083
 H411 H -0.13086 1.07278 -0.19026
 H412 H -0.11138 1.05259 -0.14007
 H413 H -0.01813 1.04808 -0.17776
 H414 H -0.03760 1.06827 -0.22794
 C415 C 1.10529 0.59698 0.76650
 C416 C 1.09607 0.58569 0.74245
 C417 C 1.08505 0.57259 0.71357
 C418 C 1.10604 0.56682 0.68918
 C419 C 1.09519 0.55496 0.66078
 C420 C 1.06330 0.54881 0.65666
 C421 C 1.04235 0.55435 0.68114
 C422 C 1.05320 0.56620 0.70953
 C423 C 1.05195 0.53773 0.62708
 C424 C 1.04225 0.52898 0.60218
 H425 H 1.13071 0.57174 0.69203
 H426 H 1.11158 0.55087 0.64199
 H427 H 1.01763 0.54977 0.67817
 H428 H 1.03676 0.57064 0.72821
 C429 C 0.73508 0.60466 0.59596
 C430 C 0.75921 0.59523 0.58491
 C431 C 0.78819 0.58392 0.57217
 C432 C 0.81290 0.60465 0.56675
 C433 C 0.84143 0.59349 0.55536
 C434 C 0.84536 0.56156 0.54935
 C435 C 0.82055 0.54088 0.55450
 C436 C 0.79203 0.55204 0.56588
 C437 C 0.87510 0.54986 0.53890
 C438 C 0.90012 0.53983 0.53072
 H439 H 0.81021 0.62934 0.57160
 H440 H 0.86049 0.60967 0.55157
 H441 H 0.82337 0.51614 0.55003
 H442 H 0.77310 0.53580 0.57006
 C443 C 0.76634 0.39543 1.09758
 C444 C 0.74224 0.40487 1.08645
 C445 C 0.71329 0.41612 1.07353
 C446 C 0.68902 0.39518 1.06699
 C447 C 0.66055 0.40621 1.05529
 C448 C 0.65625 0.43823 1.05007
 C449 C 0.68061 0.45914 1.05638
 C450 C 0.70907 0.44810 1.06808
 C451 C 0.62660 0.44973 1.03911
 C452 C 0.60164 0.45952 1.03044
 H453 H 0.69201 0.37040 1.07117
 H454 H 0.64184 0.38985 1.05059
 H455 H 0.67750 0.48395 1.05253
 H456 H 0.72766 0.46450 1.07312
 C457 C 0.26547 1.10462 -0.09776
 C458 C 0.24139 1.09520 -0.08666
 C459 C 0.21247 1.08399 -0.07376
 C460 C 0.20737 1.05185 -0.07056
 C461 C 0.17892 1.04093 -0.05884
 C462 C 0.15547 1.06212 -0.05026
 C463 C 0.16067 1.09427 -0.05324
 C464 C 0.18912 1.10519 -0.06496
 C465 C 0.12582 1.05081 -0.03925
 C466 C 0.10086 1.04117 -0.03053
 H467 H 0.22524 1.03525 -0.07736
 H468 H 0.17512 1.01602 -0.05672
 H469 H 0.14266 1.11085 -0.04676
 H470 H 0.19280 1.13010 -0.06739
 C471 C 0.23331 -0.10531 0.40313
 C472 C 0.25744 -0.09586 0.41415
 C473 C 0.28642 -0.08454 0.42686
 C474 C 0.31054 -0.10551 0.43402
 C475 C 0.33907 -0.09441 0.44543
 C476 C 0.34358 -0.06230 0.44974
 C477 C 0.31937 -0.04135 0.44282
 C478 C 0.29085 -0.05245 0.43141
 C479 C 0.37329 -0.05077 0.46043
 C480 C 0.39829 -0.04099 0.46892
 H481 H 0.30739 -0.13036 0.43051
 H482 H 0.35766 -0.11080 0.45062
 H483 H 0.32265 -0.01646 0.44599
 H484 H 0.27238 -0.03602 0.42587
 C485 C 0.59725 -0.26624 0.60394
 C486 C 0.58610 -0.24214 0.59456
 C487 C 0.57319 -0.21319 0.58337
 C488 C 0.56558 -0.18935 0.60443
 C489 C 0.55392 -0.16086 0.59348
 C490 C 0.54981 -0.15611 0.56143
 C491 C 0.55718 -0.18004 0.54039
 C492 C 0.56884 -0.20853 0.55134
 C493 C 0.53889 -0.12643 0.55005
 C494 C 0.53024 -0.10145 0.54035
 H495 H 0.56892 -0.19269 0.62924
 H496 H 0.54839 -0.14248 0.60994
 H497 H 0.55418 -0.17658 0.51555
 H498 H 0.57471 -0.22678 0.53485
 C499 C 1.09702 0.76424 0.39591
 C500 C 1.08601 0.74009 0.40523
 C501 C 1.07327 0.71111 0.41641
 C502 C 1.06769 0.70696 0.44831
 C503 C 1.05624 0.67844 0.45930
 C504 C 1.05032 0.65396 0.43844
 C505 C 1.05565 0.65820 0.40651
 C506 C 1.06709 0.68672 0.39551
 C507 C 1.03974 0.62424 0.44995
 C508 C 1.03145 0.59925 0.45983
 H509 H 1.07245 0.72563 0.46467
 H510 H 1.05231 0.67538 0.48405
 H511 H 1.05125 0.63940 0.39019
 H512 H 1.07140 0.68966 0.37080
 C513 C -0.09772 1.26655 0.10495
 C514 C -0.08665 1.24243 0.09553
 C515 C -0.07383 1.21346 0.08427
 C516 C -0.06948 1.20886 0.05223
 C517 C -0.05790 1.18037 0.04121
 C518 C -0.05061 1.15635 0.06218
 C519 C -0.05474 1.16104 0.09424
 C520 C -0.06632 1.18954 0.10526
 C521 C -0.03974 1.12667 0.05073
 C522 C -0.03112 1.10170 0.04101
 H523 H -0.07527 1.22718 0.03579
 H524 H -0.05489 1.17696 0.01636
 H525 H -0.04928 1.14260 0.11065
 H526 H -0.06967 1.19282 0.13007
 C527 C 0.40157 0.23511 0.89586
 C528 C 0.41241 0.25926 0.90540
 C529 C 0.42481 0.28828 0.91690
 C530 C 0.40857 0.30492 0.93988
 C531 C 0.42022 0.33339 0.95078
 C532 C 0.44817 0.34536 0.93877
 C533 C 0.46450 0.32867 0.91586
 C534 C 0.45284 0.30018 0.90494
 C535 C 0.45974 0.37491 0.94978
 C536 C 0.46883 0.39980 0.95927
 H537 H 0.38686 0.29597 0.94925
 H538 H 0.40738 0.34611 0.96847
 H539 H 0.48612 0.33774 0.90639
 H540 H 0.46556 0.28751 0.88714
 C541 C 0.60466 0.59745 0.73410
 C542 C 0.59536 0.58644 0.75821
 C543 C 0.58425 0.57367 0.78717
 C544 C 0.55239 0.56732 0.79112
 C545 C 0.54147 0.55578 0.81959
 C546 C 0.56235 0.55054 0.84421
 C547 C 0.59425 0.55665 0.84017
 C548 C 0.60517 0.56819 0.81171
 C549 C 0.55093 0.53974 0.87384
 C550 C 0.54121 0.53119 0.89877
 H551 H 0.53600 0.57153 0.77232
 H552 H 0.51674 0.55122 0.82249
 H553 H 0.61059 0.55277 0.85909
 H554 H 0.62985 0.57308 0.80892
 C555 C 0.39456 0.09727 0.76489
 C556 C 0.40396 0.08626 0.74078
 C557 C 0.41516 0.07349 0.71184
 C558 C 0.44699 0.06679 0.70808
 C559 C 0.45801 0.05520 0.67965
 C560 C 0.43725 0.05027 0.65486
 C561 C 0.40539 0.05676 0.65869
 C562 C 0.39437 0.06835 0.68713
 C563 C 0.44877 0.03938 0.62528
 C564 C 0.45856 0.03073 0.60039
 H565 H 0.46329 0.07074 0.72701
 H566 H 0.48271 0.05034 0.67690
 H567 H 0.38914 0.05313 0.63965
 H568 H 0.36972 0.07352 0.68976
 C569 C 0.10403 0.90282 0.26591
 C570 C 0.09468 0.91394 0.24183
 C571 C 0.08355 0.92685 0.21291
 C572 C 0.05158 0.93244 0.20861
 C573 C 0.04066 0.94411 0.18017
 C574 C 0.06168 0.95025 0.15592
 C575 C 0.09369 0.94490 0.16031
 C576 C 0.10460 0.93323 0.18875
 C577 C 0.05030 0.96117 0.12629
 C578 C 0.04059 0.96982 0.10135
 H579 H 0.03509 0.92752 0.22711
 H580 H 0.01585 0.94807 0.17699
 H581 H 0.11013 0.94948 0.14168
 H582 H 0.12937 0.92894 0.19182
 C583 C 0.89538 0.40291 0.23522
 C584 C 0.90480 0.41390 0.25933
 C585 C 0.91609 0.42659 0.28829
 C586 C 0.94800 0.43276 0.29217
 C587 C 0.95914 0.44414 0.32065
 C588 C 0.93841 0.44940 0.34537
 C589 C 0.90646 0.44348 0.34141
 C590 C 0.89532 0.43210 0.31292
 C591 C 0.95007 0.45991 0.37505
 C592 C 0.96004 0.46817 0.40001
 H593 H 0.96428 0.42852 0.27330
 H594 H 0.98390 0.44853 0.32349
 H595 H 0.89024 0.44735 0.36040
 H596 H 0.87061 0.42734 0.31020
   
