data_POSCAR
  _audit_creation_date              2014-09-24
  _audit_creation_method            'ToBaCCo'
  _symmetry_space_group_name_H-M    'P1'
  _symmetry_Int_Tables_number       1
  _symmetry_cell_setting            triclinic
  loop_
  _symmetry_equiv_pos_as_xyz
 x,y,z
_cell_length_a 28.8404
_cell_length_b 28.0370
_cell_length_c 28.3983
_cell_angle_alpha 90.383600
_cell_angle_beta 90.426000
_cell_angle_gamma 90.293500
loop_
  _atom_site_label
  _atom_site_type_symbol
  _atom_site_fract_x
  _atom_site_fract_y
  _atom_site_fract_z
C1 C 0.17488 1.22190 0.15708
 C2 C 0.21996 1.20727 0.14531
 C3 C 0.24202 1.17050 0.17001
 C4 C 0.21921 1.14885 0.20780
 C5 C 0.17371 1.16176 0.21968
 C6 C 0.15216 1.19874 0.19440
 H7 H 0.23720 1.22295 0.11531
 H8 H 0.23616 1.11999 0.22630
 H9 H 0.11837 1.21115 0.20545
 C10 C 0.80030 0.73220 0.19345
 C11 C 0.82102 0.75400 0.23337
 C12 C 0.80390 0.79696 0.25189
 C13 C 0.76639 0.81917 0.22945
 C14 C 0.74453 0.79779 0.19044
 C15 C 0.76168 0.75468 0.17257
 H16 H 0.85217 0.73908 0.24876
 H17 H 0.75466 0.85368 0.24186
 H18 H 0.74452 0.73859 0.14227
 C19 C 0.82591 1.23986 -0.18579
 C20 C 0.78476 1.22191 -0.16593
 C21 C 0.75847 1.18670 -0.18925
 C22 C 0.77266 1.16973 -0.23330
 C23 C 0.81273 1.18802 -0.25435
 C24 C 0.83891 1.22318 -0.23068
 H25 H 0.77421 1.23344 -0.13112
 H26 H 0.75309 1.14148 -0.25067
 H27 H 0.86968 1.23734 -0.24736
 C28 C 0.17350 0.77813 -0.17012
 C29 C 0.21957 0.79131 -0.15945
 C30 C 0.24253 0.82647 -0.18569
 C31 C 0.21961 0.84736 -0.22408
 C32 C 0.17399 0.83423 -0.23550
 C33 C 0.15115 0.79963 -0.20868
 H34 H 0.23661 0.77639 -0.12878
 H35 H 0.23672 0.87500 -0.24414
 H36 H 0.11595 0.78938 -0.21808
 C37 C 0.57911 1.01242 -0.06804
 H38 H 0.57894 0.97384 -0.06900
 C39 C 0.61142 1.03779 -0.09443
 H40 H 0.63622 1.01877 -0.11587
 C41 C 0.54795 1.08441 -0.03776
 H42 H 0.52398 1.10240 -0.01474
 C43 C 0.57951 1.11120 -0.06386
 H44 H 0.57951 1.14976 -0.06119
 N45 N 0.54814 1.03591 -0.04056
 C46 C 0.43957 1.06592 0.01029
 H47 H 0.44176 1.06931 -0.02755
 C48 C 0.40659 1.09196 0.03516
 H49 H 0.38338 1.11566 0.01652
 C50 C 0.46535 1.02894 0.08059
 H51 H 0.48732 1.00330 0.09795
 C52 C 0.43244 1.05391 0.10674
 H53 H 0.42948 1.04780 0.14422
 Zn54 Zn 0.50808 0.99756 -0.00421
 N55 N 0.46828 1.03533 0.03322
 C56 C 0.57438 0.98047 0.06593
 N57 N 0.54610 0.95846 0.03385
 C58 C 0.54717 0.91034 0.02731
 C59 C 0.57713 0.88232 0.05417
 C60 C 0.60453 0.95375 0.09382
 C61 C 0.46795 0.96648 -0.09113
 C62 C 0.43548 0.94176 -0.11889
 C63 C 0.40694 0.90355 -0.04868
 C64 C 0.43946 0.92940 -0.02221
 N65 N 0.46918 0.96003 -0.04366
 H66 H 0.57354 1.01888 0.06966
 H67 H 0.52555 0.89367 0.00063
 H68 H 0.57809 0.84409 0.04855
 H69 H 0.62693 0.97150 0.11928
 H70 H 0.49099 0.99197 -0.10731
 H71 H 0.43377 0.94798 -0.15646
 H72 H 0.38287 0.87988 -0.03121
 H73 H 0.44051 0.92582 0.01569
 C74 C 0.40269 1.08567 0.08381
 C75 C 0.61160 1.08769 -0.09251
 C76 C 0.40457 0.91005 -0.09747
 C77 C 0.60595 0.90417 0.08791
 C78 C -0.01795 0.56396 1.07557
 H79 H 0.01930 0.56579 1.08006
 C80 C -0.04658 0.59171 1.10406
 H81 H -0.03138 0.61506 1.13057
 C82 C -0.08325 0.53306 1.03403
 H83 H -0.09733 0.51126 1.00582
 C84 C -0.11310 0.56040 1.06157
 H85 H -0.15010 0.55910 1.05481
 N86 N -0.03661 0.53521 1.04154
 C87 C 0.07689 0.43841 1.01083
 H88 H 0.08101 0.44597 0.97378
 C89 C 0.10180 0.40137 1.03136
 H90 H 0.12541 0.38049 1.01019
 C91 C 0.03790 0.45357 1.08265
 H92 H 0.01143 0.47251 1.10181
 C93 C 0.06208 0.41669 1.10458
 H94 H 0.05459 0.40771 1.14078
 Zn95 Zn 0.00450 0.50206 1.00156
 N96 N 0.04504 0.46294 1.03630
 C97 C 0.08181 0.56032 0.98127
 N98 N 0.03789 0.54852 0.96762
 C99 C 0.01546 0.57324 0.93338
 C100 C 0.03757 0.61098 0.91075
 C101 C 0.10462 0.59891 0.96066
 C102 C -0.05455 0.42627 0.98460
 C103 C -0.07810 0.39075 0.95946
 C104 C -0.04767 0.42345 0.88738
 C105 C -0.02463 0.45856 0.91398
 N106 N -0.02878 0.45950 0.96172
 H107 H 0.09848 0.54101 1.00948
 H108 H -0.01995 0.56412 0.92415
 H109 H 0.01949 0.62991 0.88308
 H110 H 0.13902 0.60883 0.97288
 H111 H -0.05626 0.42714 1.02263
 H112 H -0.09824 0.36429 0.97811
 H113 H -0.04397 0.42252 0.84947
 H114 H -0.00251 0.48401 0.89655
 C115 C 0.09332 0.38938 1.07827
 C116 C -0.09471 0.59004 1.09703
 C117 C -0.07439 0.38894 0.91040
 C118 C 0.08208 0.62533 0.92555
 C119 C 1.06046 -0.00428 0.56566
 H120 H 1.06202 0.03398 0.56236
 C121 C 1.08462 -0.02622 0.60220
 H122 H 1.10430 -0.00468 0.62715
 C123 C 1.03360 -0.07916 0.53726
 H124 H 1.01437 -0.09986 0.51155
 C125 C 1.05713 -0.10261 0.57353
 H126 H 1.05510 -0.14109 0.57603
 N127 N 1.03408 -0.03062 0.53514
 C128 C 1.02339 0.08489 0.43922
 H129 H 0.99347 0.10207 0.45434
 C130 C 1.04791 0.10755 0.40345
 H131 H 1.03725 0.14246 0.39154
 C132 C 1.07157 0.01679 0.43300
 H133 H 1.07949 -0.01921 0.44376
 C134 C 1.09684 0.03804 0.39701
 H135 H 1.12447 0.01846 0.38013
 Zn136 Zn 0.99626 0.00385 0.49208
 N137 N 1.03508 0.03997 0.45257
 C138 C 0.97507 0.08320 0.54985
 N139 N 0.95658 0.04447 0.52728
 C140 C 0.91102 0.03269 0.53228
 C141 C 0.88283 0.05890 0.56258
 C142 C 0.94803 0.11054 0.58024
 C143 C 0.95887 -0.02783 0.40590
 C144 C 0.93167 -0.05524 0.37519
 C145 C 0.90751 -0.10314 0.44103
 C146 C 0.93437 -0.07401 0.47080
 N147 N 0.95987 -0.03747 0.45282
 H148 H 1.01103 0.09263 0.54481
 H149 H 0.89670 0.00207 0.51405
 H150 H 0.84708 0.04820 0.56760
 H151 H 0.96354 0.14032 0.59919
 H152 H 0.97855 0.00174 0.39212
 H153 H 0.93094 -0.04667 0.33806
 H154 H 0.88824 -0.13276 0.45560
 H155 H 0.93475 -0.08050 0.50830
 C156 C 1.08405 0.08327 0.38105
 C157 C 1.08159 -0.07576 0.60736
 C158 C 0.90534 -0.09324 0.39267
 C159 C 0.90156 0.09795 0.58729
 C160 C 0.10626 0.26040 1.11901
 C161 C 0.15378 0.26064 1.13341
 C162 C 0.18033 0.30214 1.12575
 C163 C 0.16015 0.34347 1.10821
 C164 C 0.11280 0.34493 1.09765
 C165 C 0.08546 0.30313 1.10225
 C166 C 0.07993 0.21778 1.11706
 C167 C 0.03341 0.21794 1.10347
 C168 C 0.01245 0.26023 1.08984
 C169 C 0.03823 0.30236 1.08848
 H170 H 0.09558 0.18375 1.12403
 H171 H 0.01379 0.18493 1.10271
 H172 H -0.02360 0.26015 1.07895
 H173 H 0.02097 0.33392 1.07567
 H174 H 0.21665 0.30365 1.13571
 H175 H 0.18153 0.37496 1.10366
 C176 C -0.15893 0.65339 1.19728
 C177 C -0.17908 0.69187 1.17163
 C178 C -0.17521 0.69155 1.12218
 C179 C -0.14892 0.65750 1.09896
 C180 C -0.12537 0.62227 1.12393
 C181 C -0.13107 0.61910 1.17329
 C182 C -0.16828 0.64623 1.24556
 C183 C -0.14799 0.60877 1.27016
 C184 C -0.11904 0.57685 1.24712
 C185 C -0.11098 0.58148 1.19905
 H186 H -0.19232 0.66859 1.26450
 H187 H -0.15526 0.60412 1.30719
 H188 H -0.10363 0.54767 1.26636
 H189 H -0.08976 0.55477 1.18215
 H190 H -0.18972 0.71993 1.10108
 H191 H -0.14524 0.65997 1.06110
 C192 C -0.09764 0.27286 0.84205
 C193 C -0.14712 0.27455 0.83867
 C194 C -0.17033 0.31282 0.86030
 C195 C -0.14607 0.34971 0.88239
 C196 C -0.09768 0.35000 0.88387
 C197 C -0.07291 0.31145 0.86391
 C198 C -0.07228 0.23211 0.82801
 C199 C -0.02407 0.23110 0.83166
 C200 C -0.00002 0.26980 0.85073
 C201 C -0.02406 0.30937 0.86733
 H202 H -0.08922 0.19995 0.81554
 H203 H -0.00533 0.19976 0.82031
 H204 H 0.03739 0.26866 0.85379
 H205 H -0.00401 0.33780 0.88358
 H206 H -0.20778 0.31540 0.85861
 H207 H -0.16533 0.37864 0.89832
 C208 C 0.10574 0.75088 0.87690
 C209 C 0.15048 0.74351 0.85717
 C210 C 0.17273 0.69976 0.86481
 C211 C 0.15014 0.66238 0.88718
 C212 C 0.10506 0.66767 0.90440
 C213 C 0.08323 0.71290 0.90120
 C214 C 0.08445 0.79624 0.87645
 C215 C 0.04164 0.80362 0.89757
 C216 C 0.01974 0.76662 0.92106
 C217 C 0.04049 0.72195 0.92359
 H218 H 0.10127 0.82691 0.86135
 H219 H 0.02592 0.83859 0.89671
 H220 H -0.01302 0.77285 0.93836
 H221 H 0.02322 0.69524 0.94447
 H222 H 0.20704 0.69335 0.85085
 H223 H 0.16772 0.62844 0.89002
 C224 C 1.10377 0.12278 0.25401
 C225 C 1.15066 0.13901 0.25732
 C226 C 1.17467 0.13320 0.30021
 C227 C 1.15244 0.11551 0.33984
 C228 C 1.10553 0.10283 0.33813
 C229 C 1.08084 0.10564 0.29491
 C230 C 1.08041 0.11920 0.21020
 C231 C 1.03455 0.10355 0.20726
 C232 C 1.01144 0.08928 0.24759
 C233 C 1.03442 0.08949 0.29091
 H234 H 1.09798 0.12635 0.17766
 H235 H 1.01719 0.10155 0.17337
 H236 H 0.97598 0.07664 0.24508
 H237 H 1.01569 0.07587 0.32083
 H238 H 1.21049 0.14455 0.30391
 H239 H 1.17188 0.11240 0.37247
 C240 C 1.11270 -0.10915 0.73417
 C241 C 1.14925 -0.14161 0.72568
 C242 C 1.16215 -0.15204 0.67933
 C243 C 1.13934 -0.13102 0.64142
 C244 C 1.10295 -0.09900 0.64879
 C245 C 1.08865 -0.08850 0.69544
 C246 C 1.09987 -0.09630 0.78042
 C247 C 1.06276 -0.06571 0.78836
 C248 C 1.03792 -0.04718 0.75055
 C249 C 1.05060 -0.05832 0.70450
 H250 H 1.11864 -0.10935 0.81073
 H251 H 1.05314 -0.05645 0.82403
 H252 H 1.00882 -0.02384 0.75692
 H253 H 1.03009 -0.04336 0.67625
 H254 H 1.19009 -0.17677 0.67250
 H255 H 1.15052 -0.13935 0.60597
 C256 C 0.80476 -0.16088 0.33188
 C257 C 0.82829 -0.17864 0.29170
 C258 C 0.87592 -0.16996 0.28730
 C259 C 0.90002 -0.14319 0.32087
 C260 C 0.87730 -0.12317 0.35965
 C261 C 0.82900 -0.13146 0.36519
 C262 C 0.75764 -0.17186 0.33982
 C263 C 0.73408 -0.15173 0.37767
 C264 C 0.75691 -0.12049 0.40834
 C265 C 0.80385 -0.11029 0.40230
 H266 H 0.73875 -0.19640 0.31721
 H267 H 0.69783 -0.16015 0.38301
 H268 H 0.73821 -0.10429 0.43718
 H269 H 0.81987 -0.08539 0.42671
 H270 H 0.89455 -0.18302 0.25688
 H271 H 0.93685 -0.13734 0.31607
 C272 C 0.84106 0.19394 0.66102
 C273 C 0.83032 0.16658 0.70141
 C274 C 0.83938 0.11754 0.70124
 C275 C 0.86083 0.09585 0.66310
 C276 C 0.87421 0.12250 0.62395
 C277 C 0.86350 0.17174 0.62208
 C278 C 0.82935 0.24265 0.65812
 C279 C 0.84031 0.26908 0.61825
 C280 C 0.86260 0.24750 0.58043
 C281 C 0.87394 0.19924 0.58205
 H282 H 0.81107 0.26054 0.68623
 H283 H 0.83116 0.30642 0.61654
 H284 H 0.87074 0.26816 0.54948
 H285 H 0.89034 0.18360 0.55153
 H286 H 0.83139 0.09609 0.73176
 H287 H 0.86873 0.05816 0.66495
 C288 C 0.32639 1.17895 0.14417
 C289 C 0.28642 1.15055 0.15264
 C290 C 0.28730 1.10177 0.14142
 C291 C 0.32589 1.08132 0.12054
 C292 C 0.36473 1.10902 0.10970
 C293 C 0.36564 1.15807 0.12191
 C294 C 0.32860 1.22738 0.15794
 C295 C 0.36790 1.25488 0.14870
 C296 C 0.40579 1.23469 0.12609
 C297 C 0.40492 1.18668 0.11292
 H298 H 0.30039 1.24423 0.17648
 H299 H 0.36905 1.29201 0.15936
 H300 H 0.43619 1.25623 0.11911
 H301 H 0.43532 1.17210 0.09609
 H302 H 0.25714 1.07948 0.14746
 H303 H 0.32489 1.04375 0.11135
 C304 C 0.67253 1.16758 -0.18214
 C305 C 0.71876 1.16404 -0.16528
 C306 C 0.72822 1.13677 -0.12525
 C307 C 0.69297 1.11243 -0.10231
 C308 C 0.64709 1.11493 -0.11842
 C309 C 0.63636 1.14266 -0.15856
 C310 C 0.66137 1.19565 -0.22166
 C311 C 0.61578 1.19835 -0.23811
 C312 C 0.58059 1.17332 -0.21560
 C313 C 0.59061 1.14566 -0.17620
 H314 H 0.68764 1.21586 -0.23997
 H315 H 0.60771 1.21994 -0.26852
 H316 H 0.54532 1.17541 -0.22870
 H317 H 0.56230 1.12666 -0.15984
 H318 H 0.76345 1.13367 -0.11212
 H319 H 0.70155 1.09134 -0.07165
 C320 C 0.32653 0.81693 -0.15808
 C321 C 0.28778 0.84605 -0.16893
 C322 C 0.29051 0.89526 -0.16003
 C323 C 0.32951 0.91544 -0.13867
 C324 C 0.36690 0.88705 -0.12501
 C325 C 0.36615 0.83756 -0.13532
 C326 C 0.32711 0.76795 -0.16985
 C327 C 0.36514 0.73974 -0.15818
 C328 C 0.40338 0.75973 -0.13507
 C329 C 0.40413 0.80823 -0.12383
 H330 H 0.29859 0.75120 -0.18870
 H331 H 0.36505 0.70219 -0.16733
 H332 H 0.43280 0.73763 -0.12621
 H333 H 0.43479 0.82261 -0.10659
 H334 H 0.26133 0.91814 -0.16790
 H335 H 0.32975 0.95335 -0.13096
 C336 C 0.66490 0.83702 0.18869
 C337 C 0.70616 0.82260 0.16571
 C338 C 0.71215 0.83345 0.11801
 C339 C 0.67894 0.85925 0.09336
 C340 C 0.63890 0.87544 0.11570
 C341 C 0.63131 0.86423 0.16359
 C342 C 0.65573 0.82411 0.23569
 C343 C 0.61533 0.83908 0.25791
 C344 C 0.58303 0.86652 0.23367
 C345 C 0.59065 0.87883 0.18686
 H346 H 0.67918 0.80177 0.25541
 H347 H 0.60889 0.82906 0.29403
 H348 H 0.55167 0.87789 0.25109
 H349 H 0.56432 0.89948 0.16902
 H350 H 0.74336 0.82267 0.09989
 H351 H 0.68495 0.86750 0.05667
   
