data_POSCAR
  _audit_creation_date              2014-09-24
  _audit_creation_method            'ToBaCCo'
  _symmetry_space_group_name_H-M    'P1'
  _symmetry_Int_Tables_number       1
  _symmetry_cell_setting            triclinic
  loop_
  _symmetry_equiv_pos_as_xyz
 x,y,z
_cell_length_a 47.6821
_cell_length_b 49.3384
_cell_length_c 45.3876
_cell_angle_alpha 91.675700
_cell_angle_beta 89.910700
_cell_angle_gamma 92.621100
loop_
  _atom_site_label
  _atom_site_type_symbol
  _atom_site_fract_x
  _atom_site_fract_y
  _atom_site_fract_z
C1 C 0.27022 0.45711 0.99308
 C2 C 0.25084 0.45611 1.02008
 C3 C 0.23476 0.47823 1.02311
 C4 C 0.23945 0.49928 0.99903
 C5 C 0.25075 0.46077 0.96681
 C6 C 0.23464 0.48283 0.96999
 C7 C 0.28726 0.48402 0.99659
 C8 C 0.27123 0.50602 0.99973
 H9 H 0.24961 0.43933 1.03508
 H10 H 0.22639 0.51730 1.00153
 H11 H 0.24916 0.44674 0.94792
 H12 H 0.31008 0.48552 0.99699
 C13 C 0.73131 0.54339 0.00772
 C14 C 0.75039 0.53981 0.03435
 C15 C 0.76646 0.51768 0.03154
 C16 C 0.76203 0.50113 0.00252
 C17 C 0.75106 0.54424 -0.01896
 C18 C 0.76714 0.52209 -0.02160
 C19 C 0.71426 0.51650 0.00411
 C20 C 0.73025 0.49446 0.00137
 H21 H 0.75176 0.55393 0.05317
 H22 H 0.77507 0.48307 0.00031
 H23 H 0.75257 0.56096 -0.03402
 H24 H 0.69144 0.51502 0.00363
 C25 C 0.03938 0.22419 0.50190
 C26 C 0.03750 0.24040 0.47581
 C27 C 0.01299 0.25614 0.47543
 C28 C -0.00515 0.25274 0.50107
 C29 C 0.03771 0.24441 0.52819
 C30 C 0.01431 0.25942 0.52766
 C31 C 0.01185 0.20702 0.50290
 C32 C -0.01146 0.22191 0.50247
 H33 H 0.05421 0.24244 0.45959
 H34 H -0.02432 0.26478 0.50079
 H35 H 0.05421 0.24770 0.54457
 H36 H 0.01087 0.18498 0.50361
 C37 C 0.95939 0.77622 0.49679
 C38 C 0.96141 0.75605 0.47058
 C39 C 0.98489 0.74120 0.47126
 C40 C 1.00421 0.74792 0.49786
 C41 C 0.96131 0.75894 0.52421
 C42 C 0.98478 0.74407 0.52466
 C43 C 0.98681 0.79348 0.49633
 C44 C 1.01020 0.77877 0.49687
 H45 H 0.94500 0.75259 0.45414
 H46 H 1.02341 0.73599 0.49831
 H47 H 0.94475 0.75712 0.54059
 H48 H 0.98767 0.81551 0.49559
 C49 C 0.50137 0.04566 0.21665
 C50 C 0.47564 0.04497 0.23708
 C51 C 0.47470 0.02331 0.25519
 C52 C 0.49939 0.00448 0.25122
 C53 C 0.52672 0.04524 0.23744
 C54 C 0.52558 0.02360 0.25556
 C55 C 0.50040 0.01959 0.20094
 C56 C 0.49930 -0.00295 0.21997
 H57 H 0.45993 0.06025 0.23747
 H58 H 0.49856 -0.01312 0.26602
 H59 H 0.54366 0.06075 0.23812
 H60 H 0.50031 0.01729 0.17704
 C61 C 0.49782 -0.04711 0.78164
 C62 C 0.47212 -0.04657 0.76146
 C63 C 0.47291 -0.02498 0.74335
 C64 C 0.49916 -0.00593 0.74695
 C65 C 0.52320 -0.04627 0.76086
 C66 C 0.52381 -0.02467 0.74275
 C67 C 0.49910 -0.01954 0.79812
 C68 C 0.49981 0.00194 0.77992
 H69 H 0.45512 -0.06202 0.76118
 H70 H 0.49973 0.01166 0.73216
 H71 H 0.53908 -0.06139 0.76037
 H72 H 0.49957 -0.01721 0.82200
 C73 C 0.29475 0.01779 0.46653
 H74 H 0.29568 0.03254 0.48466
 C75 C 0.31427 0.01970 0.44371
 H76 H 0.33025 0.03604 0.44412
 C77 C 0.27321 -0.02196 0.44420
 H78 H 0.25752 -0.03843 0.44480
 C79 C 0.29240 -0.02080 0.42089
 H80 H 0.29128 -0.03624 0.40341
 N81 N 0.27464 -0.00268 0.46631
 C82 C 0.20948 0.02911 0.52348
 H83 H 0.20780 0.01360 0.53983
 C84 C 0.19206 0.05114 0.52518
 H85 H 0.17691 0.05264 0.54289
 C86 C 0.23070 0.04583 0.47991
 H87 H 0.24535 0.04346 0.46197
 C88 C 0.21369 0.06815 0.48079
 H89 H 0.21547 0.08297 0.46366
 Zn90 Zn 0.25063 -0.00397 0.49944
 N91 N 0.22846 0.02696 0.50120
 C92 C 0.27424 0.01458 0.55469
 N93 N 0.27426 -0.00484 0.53275
 C94 C 0.29279 -0.02501 0.53274
 C95 C 0.31212 -0.02640 0.55560
 C96 C 0.29329 0.01394 0.57802
 C97 C 0.20707 -0.03755 0.47508
 C98 C 0.18773 -0.05968 0.47330
 C99 C 0.20756 -0.07660 0.51776
 C100 C 0.22655 -0.05417 0.51872
 N101 N 0.22606 -0.03526 0.49747
 H102 H 0.25984 0.03082 0.55391
 H103 H 0.29266 -0.03987 0.51474
 H104 H 0.32687 -0.04247 0.55534
 H105 H 0.29334 0.02952 0.59534
 H106 H 0.20683 -0.02200 0.45877
 H107 H 0.17250 -0.06121 0.45557
 H108 H 0.20786 -0.09137 0.53493
 H109 H 0.24128 -0.05169 0.53674
 C110 C 0.19420 0.07082 0.50362
 C111 C 0.31311 0.00021 0.42072
 C112 C 0.18795 -0.07934 0.49488
 C113 C 0.31242 -0.00672 0.57839
 C114 C 0.70613 0.02341 0.53625
 H115 H 0.70597 0.03951 0.52057
 C116 C 0.68663 0.02266 0.55922
 H117 H 0.67145 0.03828 0.56139
 C118 C 0.72529 -0.01731 0.55189
 H119 H 0.73985 -0.03324 0.54853
 C120 C 0.70614 -0.01883 0.57517
 H121 H 0.70623 -0.03577 0.58983
 N122 N 0.72496 0.00362 0.53303
 C123 C 0.79203 0.03834 0.47839
 H124 H 0.79237 0.02295 0.46093
 C125 C 0.81123 0.06056 0.47816
 H126 H 0.82646 0.06230 0.46050
 C127 C 0.77226 0.05456 0.52317
 H128 H 0.75737 0.05192 0.54091
 C129 C 0.79114 0.07711 0.52380
 H130 H 0.79066 0.09182 0.54196
 Zn131 Zn 0.74843 0.00451 0.49941
 N132 N 0.77294 0.03583 0.50056
 C133 C 0.72590 0.02546 0.44717
 N134 N 0.72440 0.00472 0.46633
 C135 C 0.70419 -0.01559 0.46367
 C136 C 0.68451 -0.01565 0.44093
 C137 C 0.70662 0.02618 0.42411
 C138 C 0.79011 -0.02842 0.51947
 C139 C 0.80745 -0.05047 0.51947
 C140 C 0.78522 -0.06746 0.47438
 C141 C 0.76826 -0.04507 0.47521
 N142 N 0.77080 -0.02625 0.49772
 H143 H 0.74161 0.04178 0.45008
 H144 H 0.70315 -0.03153 0.47956
 H145 H 0.66831 -0.03174 0.43914
 H146 H 0.70772 0.04291 0.40915
 H147 H 0.79196 -0.01296 0.53685
 H148 H 0.82274 -0.05204 0.53690
 H149 H 0.78311 -0.08235 0.45640
 H150 H 0.75325 -0.04271 0.45779
 C151 C 0.81079 0.08011 0.50107
 C152 C 0.68654 0.00124 0.57872
 C153 C 0.80493 -0.07019 0.49676
 C154 C 0.68569 0.00550 0.42106
 C155 C 0.48990 0.21666 1.00836
 H156 H 0.47446 0.21460 0.99090
 C157 C 0.48874 0.19874 1.03157
 H158 H 0.47234 0.18282 1.03209
 C159 C 0.53060 0.23949 1.02867
 H160 H 0.54718 0.25504 1.02716
 C161 C 0.53022 0.22195 1.05231
 H162 H 0.54637 0.22418 1.06908
 N163 N 0.51046 0.23666 1.00743
 C164 C 0.47473 0.29674 0.95170
 H165 H 0.49039 0.29829 0.93448
 C166 C 0.45144 0.31291 0.95127
 H167 H 0.44908 0.32699 0.93367
 C168 C 0.45901 0.27714 0.99625
 H169 H 0.46230 0.26366 1.01410
 C170 C 0.43545 0.29292 0.99665
 H171 H 0.42060 0.29136 1.01468
 Zn172 Zn 0.51071 0.25885 0.97419
 N173 N 0.47800 0.27919 0.97389
 C174 C 0.49076 0.23317 0.92071
 N175 N 0.51193 0.23512 0.94087
 C176 C 0.53339 0.21787 0.93975
 C177 C 0.53393 0.19738 0.91797
 C178 C 0.49048 0.21287 0.89855
 C179 C 0.54326 0.30244 0.99779
 C180 C 0.56576 0.32146 1.00009
 C181 C 0.58551 0.30171 0.95578
 C182 C 0.56260 0.28300 0.95431
 N183 N 0.54221 0.28356 0.97533
 H184 H 0.47351 0.24657 0.92246
 H185 H 0.54957 0.21950 0.95647
 H186 H 0.55064 0.18322 0.91781
 H187 H 0.47311 0.21082 0.88316
 H188 H 0.52655 0.30265 1.01394
 H189 H 0.56642 0.33644 1.01804
 H190 H 0.60164 0.30125 0.93896
 H191 H 0.56107 0.26822 0.93629
 C192 C 0.43166 0.31098 0.97400
 C193 C 0.50909 0.20142 1.05372
 C194 C 0.58710 0.32105 0.97894
 C195 C 0.51209 0.19463 0.89745
 C196 C 0.47002 0.78084 -0.01058
 H197 H 0.45403 0.78193 0.00629
 C198 C 0.46990 0.79837 -0.03413
 H199 H 0.45373 0.81302 -0.03551
 C200 C 0.51124 0.76107 -0.02893
 H201 H 0.52769 0.74697 -0.02646
 C202 C 0.51191 0.77828 -0.05285
 H203 H 0.52871 0.77721 -0.06888
 N204 N 0.49041 0.76257 -0.00847
 C205 C 0.45360 0.70095 0.04873
 H206 H 0.46897 0.70134 0.06627
 C207 C 0.43067 0.68229 0.04903
 H208 H 0.42833 0.66821 0.06683
 C209 C 0.43848 0.71793 0.00333
 H210 H 0.44195 0.73131 -0.01484
 C211 C 0.41528 0.69961 0.00279
 H212 H 0.40090 0.69908 -0.01570
 Zn213 Zn 0.48990 0.74131 0.02552
 N214 N 0.45708 0.71827 0.02609
 C215 C 0.47020 0.76664 0.07860
 N216 N 0.49104 0.76603 0.05807
 C217 C 0.51269 0.78497 0.05847
 C218 C 0.51395 0.80567 0.08003
 C219 C 0.47063 0.78713 0.10058
 C220 C 0.52306 0.69998 0.00382
 C221 C 0.54600 0.68341 0.00234
 C222 C 0.56461 0.70618 0.04646
 C223 C 0.54131 0.72236 0.04712
 N224 N 0.52134 0.71927 0.02572
 H225 H 0.45282 0.75182 0.07744
 H226 H 0.52863 0.78430 0.04151
 H227 H 0.53097 0.82099 0.07977
 H228 H 0.45366 0.78797 0.11644
 H229 H 0.50669 0.69772 -0.01266
 H230 H 0.54735 0.66826 -0.01532
 H231 H 0.58052 0.70885 0.06344
 H232 H 0.53925 0.73734 0.06473
 C233 C 0.41144 0.68154 0.02574
 C234 C 0.49108 0.79713 -0.05538
 C235 C 0.56704 0.68667 0.02375
 C236 C 0.49262 0.80692 0.10109
 C237 C 1.03509 0.46986 0.21473
 H238 H 1.01848 0.45416 0.21417
 C239 C 1.05694 0.46900 0.19430
 H240 H 1.05727 0.45251 0.17802
 C241 C 1.05448 0.51101 0.23604
 H242 H 1.05311 0.52764 0.25191
 C243 C 1.07675 0.51093 0.21592
 H244 H 1.09263 0.52735 0.21656
 N245 N 1.03428 0.49058 0.23513
 C246 C 0.97980 0.45754 0.30422
 H247 H 0.96364 0.47223 0.30502
 C248 C 0.97884 0.43604 0.32366
 H249 H 0.96184 0.43407 0.33942
 C250 C 1.02219 0.44248 0.28332
 H251 H 1.03936 0.44533 0.26803
 C252 C 1.02202 0.42073 0.30235
 H253 H 1.03892 0.40678 0.30141
 Zn254 Zn 1.00227 0.49077 0.25989
 N255 N 1.00118 0.46027 0.28444
 C256 C 0.94981 0.47039 0.23514
 N257 N 0.97078 0.49005 0.23445
 C258 C 0.97089 0.50984 0.21419
 C259 C 0.94906 0.51073 0.19388
 C260 C 0.92749 0.47054 0.21514
 C261 C 1.02376 0.52644 0.30481
 C262 C 1.02433 0.54912 0.32406
 C263 C 0.98147 0.56297 0.30182
 C264 C 0.98168 0.54007 0.28301
 N265 N 1.00276 0.52246 0.28464
 H266 H 0.95042 0.45451 0.25098
 H267 H 0.98804 0.52495 0.21386
 H268 H 0.94931 0.52664 0.17792
 H269 H 0.91081 0.45491 0.21579
 H270 H 1.03999 0.51189 0.30599
 H271 H 1.04109 0.55214 0.34007
 H272 H 0.96456 0.57681 0.30041
 H273 H 0.96478 0.53627 0.26743
 C274 C 1.00019 0.41750 0.32273
 C275 C 1.07789 0.48976 0.19481
 C276 C 1.00297 0.56754 0.32251
 C277 C 0.92715 0.49094 0.19436
 C278 C -0.03446 0.48852 0.78658
 H279 H -0.01904 0.47310 0.78674
 C280 C -0.05611 0.48822 0.80735
 H281 H -0.05749 0.47246 0.82348
 C282 C -0.05094 0.52851 0.76608
 H283 H -0.04849 0.54452 0.75045
 C284 C -0.07291 0.52897 0.78649
 H285 H -0.08747 0.54519 0.78629
 N286 N -0.03230 0.50842 0.76645
 C287 C 0.01887 0.47561 0.69518
 H288 H 0.03505 0.49165 0.69405
 C289 C 0.01942 0.45318 0.67574
 H290 H 0.03612 0.45186 0.65962
 C291 C -0.02280 0.45777 0.71742
 H292 H -0.03939 0.45979 0.73345
 C293 C -0.02303 0.43497 0.69836
 H294 H -0.03966 0.41938 0.69995
 Zn295 Zn -0.00075 0.50865 0.74102
 N296 N -0.00183 0.47735 0.71574
 C297 C 0.04965 0.48888 0.76390
 N298 N 0.03145 0.50934 0.76551
 C299 C 0.03443 0.52966 0.78637
 C300 C 0.05643 0.52992 0.80670
 C301 C 0.07193 0.48838 0.78379
 C302 C -0.02148 0.54046 0.69688
 C303 C -0.02219 0.56206 0.67774
 C304 C 0.02100 0.58072 0.69945
 C305 C 0.02091 0.55874 0.71823
 N306 N -0.00028 0.53929 0.71677
 H307 H 0.04655 0.47253 0.74774
 H308 H 0.01933 0.54538 0.78754
 H309 H 0.05841 0.54594 0.82351
 H310 H 0.08606 0.47180 0.78265
 H311 H -0.03783 0.52451 0.69589
 H312 H -0.03919 0.56284 0.66202
 H313 H 0.03791 0.59614 0.70071
 H314 H 0.03788 0.55716 0.73373
 C315 C -0.00165 0.43263 0.67742
 C316 C -0.07542 0.50871 0.80738
 C317 C -0.00078 0.58239 0.67905
 C318 C 0.07523 0.50897 0.80550
 C319 C 0.10349 0.17067 0.50326
 C320 C 0.12294 0.17275 0.53024
 C321 C 0.14198 0.15294 0.53063
 C322 C 0.13966 0.13302 0.50400
 C323 C 0.14225 0.15090 0.47690
 C324 C 0.12322 0.17070 0.47651
 C325 C 0.09007 0.14180 0.50357
 C326 C 0.10905 0.12205 0.50396
 C327 C 0.08243 0.19143 0.50279
 C328 C 0.06378 0.20711 0.50237
 C329 C 0.15978 0.11138 0.50429
 C330 C 0.17571 0.09308 0.50419
 H331 H 0.12190 0.18841 0.54746
 H332 H 0.15725 0.15163 0.54819
 H333 H 0.15771 0.14827 0.45958
 H334 H 0.12238 0.18504 0.45887
 H335 H 0.06757 0.13726 0.50350
 H336 H 0.10280 0.10061 0.50423
 C337 C 0.67395 0.60335 0.01509
 C338 C 0.65345 0.59743 0.04046
 C339 C 0.63225 0.61496 0.04253
 C340 C 0.63359 0.63671 0.01903
 C341 C 0.63432 0.62085 -0.01053
 C342 C 0.65552 0.60333 -0.01260
 C343 C 0.68423 0.63305 0.02022
 C344 C 0.66297 0.65063 0.02229
 C345 C 0.69620 0.58385 0.01274
 C346 C 0.71301 0.56640 0.01058
 C347 C 0.61041 0.65519 0.02111
 C348 C 0.59082 0.66977 0.02249
 H349 H 0.65546 0.58095 0.05554
 H350 H 0.61610 0.61349 0.05937
 H351 H 0.61951 0.62322 -0.02832
 H352 H 0.65886 0.59069 -0.03216
 H353 H 0.70620 0.63968 0.02206
 H354 H 0.66672 0.67234 0.02592
 C355 C 0.89508 -0.17051 0.49586
 C356 C 0.90850 -0.14162 0.49626
 C357 C 0.88952 -0.12186 0.49622
 C358 C 0.85891 -0.13284 0.49579
 C359 C 0.85617 -0.15124 0.52245
 C360 C 0.87521 -0.17106 0.52249
 C361 C 0.87578 -0.17208 0.46876
 C362 C 0.85673 -0.15226 0.46873
 C363 C 0.91617 -0.19125 0.49599
 C364 C 0.93489 -0.20686 0.49627
 C365 C 0.83884 -0.11116 0.49585
 C366 C 0.82307 -0.09273 0.49613
 H367 H 0.93100 -0.13707 0.49654
 H368 H 0.89577 -0.10042 0.49647
 H369 H 0.84062 -0.14895 0.53974
 H370 H 0.87596 -0.18574 0.53980
 H371 H 0.87691 -0.18742 0.45122
 H372 H 0.84156 -0.15062 0.45113
 C373 C 0.32682 0.39657 0.98408
 C374 C 0.32705 0.37631 1.00909
 C375 C 0.34785 0.35833 1.00645
 C376 C 0.36636 0.36240 0.97906
 C377 C 0.37722 0.39212 0.98133
 C378 C 0.35647 0.41006 0.98397
 C379 C 0.32502 0.37901 0.95559
 C380 C 0.34584 0.36101 0.95295
 C381 C 0.30501 0.41646 0.98707
 C382 C 0.28843 0.43408 0.98973
 C383 C 0.38907 0.34341 0.97648
 C384 C 0.40828 0.32839 0.97498
 H385 H 0.31217 0.37606 1.02721
 H386 H 0.35079 0.34267 1.02232
 H387 H 0.39930 0.39854 0.98089
 H388 H 0.36080 0.43184 0.98579
 H389 H 0.30883 0.38053 0.93902
 H390 H 0.34749 0.34712 0.93410
 C391 C 0.91473 0.17612 0.50260
 C392 C 0.89128 0.18352 0.52420
 C393 C 0.86914 0.16494 0.52410
 C394 C 0.87273 0.14083 0.50241
 C395 C 0.90071 0.12908 0.51090
 C396 C 0.92272 0.14757 0.51100
 C397 C 0.90026 0.17221 0.47249
 C398 C 0.87817 0.15365 0.47239
 C399 C 0.93925 0.19521 0.50265
 C400 C 0.96095 0.20873 0.50260
 C401 C 0.84949 0.12027 0.50221
 C402 C 0.83139 0.10237 0.50182
 H403 H 0.89195 0.20174 0.53823
 H404 H 0.85085 0.16723 0.53806
 H405 H 0.90303 0.10802 0.51640
 H406 H 0.94390 0.14232 0.51659
 H407 H 0.90671 0.18313 0.45301
 H408 H 0.86570 0.14867 0.45282
 C409 C 0.31615 0.57817 0.01176
 C410 C 0.31547 0.59799 -0.01364
 C411 C 0.33381 0.61987 -0.01011
 C412 C 0.35101 0.61975 0.01847
 C413 C 0.36522 0.59249 0.01752
 C414 C 0.34695 0.57069 0.01400
 C415 C 0.31077 0.59544 0.03972
 C416 C 0.32913 0.61735 0.04326
 C417 C 0.29735 0.55400 0.00776
 C418 C 0.28410 0.53278 0.00419
 C419 C 0.37136 0.64280 0.02197
 C420 C 0.38918 0.66087 0.02411
 H421 H 0.30174 0.59516 -0.03264
 H422 H 0.33579 0.63579 -0.02610
 H423 H 0.38772 0.59047 0.01948
 H424 H 0.35383 0.55000 0.01294
 H425 H 0.29401 0.59092 0.05529
 H426 H 0.32812 0.63161 0.06187
 C427 C 0.08375 -0.17509 0.49558
 C428 C 0.09149 -0.16563 0.46456
 C429 C 0.11352 -0.14705 0.46416
 C430 C 0.12566 -0.13972 0.49481
 C431 C 0.13306 -0.16697 0.50771
 C432 C 0.11097 -0.18560 0.50811
 C433 C 0.07867 -0.14892 0.51354
 C434 C 0.10065 -0.13038 0.51313
 C435 C 0.05931 -0.19425 0.49605
 C436 C 0.03769 -0.20788 0.49645
 C437 C 0.14888 -0.11916 0.49448
 C438 C 0.16708 -0.10136 0.49448
 H439 H 0.08069 -0.17297 0.44465
 H440 H 0.12157 -0.13846 0.44390
 H441 H 0.15378 -0.17125 0.51574
 H442 H 0.11275 -0.20583 0.51648
 H443 H 0.05946 -0.14529 0.52561
 H444 H 0.10024 -0.11089 0.52484
 C445 C 0.68462 0.42259 0.99117
 C446 C 0.68712 0.40174 1.01536
 C447 C 0.66835 0.38012 1.01239
 C448 C 0.64896 0.38154 0.98554
 C449 C 0.66880 0.38476 0.95905
 C450 C 0.68759 0.40639 0.96201
 C451 C 0.65385 0.43041 0.99211
 C452 C 0.63515 0.40889 0.98916
 C453 C 0.70384 0.44652 0.99452
 C454 C 0.71731 0.46767 0.99754
 C455 C 0.62812 0.35885 0.98257
 C456 C 0.60988 0.34116 0.98063
 H457 H 0.70234 0.40371 1.03315
 H458 H 0.66747 0.36357 1.02766
 H459 H 0.66821 0.37123 0.93974
 H460 H 0.70310 0.41138 0.94526
 H461 H 0.64728 0.45112 0.99485
 H462 H 0.61261 0.41118 0.98938
 C463 C 0.50479 0.10814 1.15792
 C464 C 0.48096 0.12793 1.16075
 C465 C 0.48207 0.14751 1.14015
 C466 C 0.50691 0.14532 1.11877
 C467 C 0.50410 0.11636 1.10553
 C468 C 0.50299 0.09682 1.12609
 C469 C 0.53194 0.12611 1.15911
 C470 C 0.53305 0.14569 1.13850
 C471 C 0.50357 0.08679 1.17969
 C472 C 0.50255 0.06858 1.19681
 C473 C 0.50801 0.16606 1.09631
 C474 C 0.50866 0.18250 1.07720
 H475 H 0.46468 0.12671 1.17748
 H476 H 0.46675 0.16307 1.13921
 H477 H 0.50308 0.11160 1.08203
 H478 H 0.50102 0.07533 1.12022
 H479 H 0.54877 0.12370 1.17477
 H480 H 0.55084 0.16006 1.13649
 C481 C -0.00688 0.68402 0.58462
 C482 C -0.00362 0.65598 0.56977
 C483 C -0.00188 0.63559 0.58919
 C484 C -0.00357 0.64519 0.62160
 C485 C -0.03102 0.66019 0.62398
 C486 C -0.03276 0.68058 0.60455
 C487 C 0.01811 0.68786 0.60586
 C488 C 0.01985 0.66744 0.62531
 C489 C -0.00906 0.70586 0.56357
 C490 C -0.01150 0.72347 0.54600
 C491 C -0.00196 0.62309 0.64242
 C492 C -0.00116 0.60467 0.65927
 H493 H -0.00271 0.65247 0.54607
 H494 H 0.00051 0.61461 0.58212
 H495 H -0.04764 0.65524 0.63957
 H496 H -0.05086 0.69309 0.60352
 H497 H 0.03311 0.70509 0.60564
 H498 H 0.03634 0.66717 0.64176
 C499 C 0.49545 0.89048 -0.15954
 C500 C 0.49382 0.90174 -0.12774
 C501 C 0.49297 0.88218 -0.10719
 C502 C 0.49383 0.85326 -0.12042
 C503 C 0.52040 0.85337 -0.13959
 C504 C 0.52125 0.87296 -0.16018
 C505 C 0.47014 0.87027 -0.16292
 C506 C 0.46929 0.85067 -0.14233
 C507 C 0.49635 0.91184 -0.18131
 C508 C 0.49704 0.93003 -0.19846
 C509 C 0.49290 0.83250 -0.09798
 C510 C 0.49209 0.81605 -0.07887
 H511 H 0.49337 0.92321 -0.12188
 H512 H 0.49179 0.88690 -0.08372
 H513 H 0.53703 0.83928 -0.13723
 H514 H 0.53861 0.87567 -0.17547
 H515 H 0.45432 0.87123 -0.17999
 H516 H 0.45274 0.83484 -0.14175
 C517 C 1.00562 0.31614 0.41764
 C518 C 1.00298 0.34418 0.43269
 C519 C 1.00130 0.36471 0.41341
 C520 C 1.00243 0.35521 0.38093
 C521 C 0.97864 0.33331 0.37745
 C522 C 0.98031 0.31276 0.39675
 C523 C 1.03126 0.31928 0.39734
 C524 C 1.02959 0.33980 0.37807
 C525 C 1.00769 0.29409 0.43846
 C526 C 1.00992 0.27616 0.45571
 C527 C 1.00091 0.37737 0.36015
 C528 C 1.00025 0.39564 0.34309
 H529 H 1.00244 0.34760 0.45642
 H530 H 0.99933 0.38571 0.42062
 H531 H 0.96194 0.33389 0.36127
 H532 H 0.96505 0.29575 0.39710
 H533 H 1.04918 0.30649 0.39804
 H534 H 1.04607 0.34457 0.36226
 C535 C 0.49558 0.92195 0.18266
 C536 C 0.49915 0.92448 0.14925
 C537 C 0.49812 0.90023 0.13421
 C538 C 0.49363 0.87573 0.15399
 C539 C 0.46673 0.88115 0.17141
 C540 C 0.46776 0.90550 0.18651
 C541 C 0.51844 0.90298 0.19190
 C542 C 0.51741 0.87864 0.17680
 C543 C 0.49679 0.94847 0.19809
 C544 C 0.49793 0.97099 0.20913
 C545 C 0.49271 0.85000 0.13699
 C546 C 0.49240 0.82979 0.12142
 H547 H 0.50222 0.94368 0.13833
 H548 H 0.50032 0.89867 0.11041
 H549 H 0.44854 0.86711 0.17191
 H550 H 0.45045 0.91232 0.19996
 H551 H 0.53398 0.90817 0.20884
 H552 H 0.53207 0.86295 0.18080
 C553 C 0.00535 0.32444 0.58519
 C554 C 0.00231 0.35131 0.56953
 C555 C 0.00036 0.37318 0.58834
 C556 C 0.00164 0.36606 0.62100
 C557 C 0.02904 0.35124 0.62418
 C558 C 0.03099 0.32938 0.60537
 C559 C -0.01990 0.32224 0.60615
 C560 C -0.02185 0.34413 0.62499
 C561 C 0.00776 0.30097 0.56486
 C562 C 0.01039 0.28190 0.54802
 C563 C -0.00018 0.38968 0.64124
 C564 C -0.00113 0.40920 0.65778
 H565 H 0.00170 0.35301 0.54574
 H566 H -0.00191 0.39360 0.58067
 H567 H 0.04547 0.35737 0.63986
 H568 H 0.04909 0.31680 0.60495
 H569 H -0.03493 0.30503 0.60619
 H570 H -0.03855 0.34567 0.64116
 C571 C 0.50448 0.07869 0.81737
 C572 C 0.51240 0.07679 0.84996
 C573 C 0.51399 0.10119 0.86472
 C574 C 0.50750 0.12518 0.84550
 C575 C 0.47840 0.11791 0.83230
 C576 C 0.47681 0.09344 0.81749
 C577 C 0.52637 0.09893 0.80461
 C578 C 0.52796 0.12342 0.81942
 C579 C 0.50277 0.05205 0.80221
 C580 C 0.50140 0.02949 0.79126
 C581 C 0.50919 0.15109 0.86218
 C582 C 0.51054 0.17148 0.87746
 H583 H 0.51645 0.05791 0.86054
 H584 H 0.51940 0.10319 0.88794
 H585 H 0.46065 0.13086 0.83431
 H586 H 0.45770 0.08542 0.80682
 H587 H 0.53939 0.09445 0.78560
 H588 H 0.54235 0.13994 0.81312
 C589 C 0.99478 0.67587 0.41436
 C590 C 1.02033 0.67806 0.39379
 C591 C 1.02269 0.65604 0.37521
 C592 C 0.99927 0.63401 0.37903
 C593 C 0.97183 0.64863 0.37525
 C594 C 0.96947 0.67061 0.39380
 C595 C 0.99776 0.64915 0.43035
 C596 C 1.00012 0.62715 0.41178
 C597 C 0.99194 0.69948 0.43441
 C598 C 0.98902 0.71865 0.45105
 C599 C 1.00147 0.61029 0.35900
 C600 C 1.00256 0.59079 0.34244
 H601 H 1.03526 0.69535 0.39383
 H602 H 1.03964 0.65448 0.35934
 H603 H 0.95566 0.64229 0.35936
 H604 H 0.95129 0.68308 0.39380
 H605 H 0.99804 0.64765 0.45416
 H606 H 1.00241 0.60682 0.41969
 C607 C 1.17638 0.48472 0.08947
 C608 C 1.17184 0.45830 0.10622
 C609 C 1.15227 0.45979 0.12804
 C610 C 1.13912 0.48756 0.13099
 C611 C 1.12755 0.49279 0.10022
 C612 C 1.14713 0.49129 0.07841
 C613 C 1.18366 0.50662 0.11333
 C614 C 1.16406 0.50811 0.13517
 C615 C 1.19736 0.48290 0.06589
 C616 C 1.21445 0.48098 0.04642
 C617 C 1.11784 0.48894 0.15433
 C618 C 1.09990 0.48958 0.17307
 H619 H 1.18305 0.44002 0.10139
 H620 H 1.14672 0.44279 0.14189
 H621 H 1.10588 0.49729 0.09595
 H622 H 1.14223 0.49452 0.05546
 H623 H 1.20254 0.51978 0.11309
 H624 H 1.16615 0.52255 0.15364
 C625 C 0.58616 -0.01293 0.68122
 C626 C 0.60507 0.01275 0.68663
 C627 C 0.62575 0.01609 0.66609
 C628 C 0.62544 -0.00659 0.64219
 C629 C 0.59570 -0.00735 0.62919
 C630 C 0.57505 -0.01069 0.64971
 C631 C 0.60629 -0.03633 0.67957
 C632 C 0.62694 -0.03300 0.65905
 C633 C 0.56391 -0.01671 0.70324
 C634 C 0.54562 -0.02017 0.72126
 C635 C 0.64757 -0.00322 0.61997
 C636 C 0.66551 -0.00093 0.60137
 H637 H 0.60246 0.02705 0.70496
 H638 H 0.64085 0.03325 0.66682
 H639 H 0.59126 -0.00541 0.60591
 H640 H 0.55291 -0.01160 0.64402
 H641 H 0.60449 -0.05396 0.69333
 H642 H 0.64283 -0.04777 0.65523
 C643 C -0.17371 0.51528 0.91285
 C644 C -0.14427 0.50997 0.92433
 C645 C -0.12455 0.50833 0.90266
 C646 C -0.13620 0.51217 0.87161
 C647 C -0.15024 0.53955 0.87339
 C648 C -0.16995 0.54118 0.89505
 C649 C -0.18024 0.49246 0.88982
 C650 C -0.16051 0.49082 0.86813
 C651 C -0.19490 0.51723 0.93622
 C652 C -0.21222 0.51923 0.95544
 C653 C -0.11485 0.51056 0.84837
 C654 C -0.09704 0.50956 0.82952
 H655 H -0.13934 0.50767 0.94744
 H656 H -0.10273 0.50463 0.90722
 H657 H -0.14515 0.55619 0.85889
 H658 H -0.18174 0.55923 0.89911
 H659 H -0.19872 0.47879 0.89049
 H660 H -0.16209 0.47575 0.85023
 C661 C 0.41232 0.01227 0.31679
 C662 C 0.39706 -0.01582 0.31552
 C663 C 0.37647 -0.01885 0.33622
 C664 C 0.37321 0.00652 0.35610
 C665 C 0.36848 0.02953 0.33488
 C666 C 0.38904 0.03256 0.31421
 C667 C 0.42305 0.01598 0.34857
 C668 C 0.40250 0.01295 0.36923
 C669 C 0.43451 0.01575 0.29466
 C670 C 0.45281 0.01901 0.27662
 C671 C 0.35125 0.00354 0.37854
 C672 C 0.33360 0.00169 0.39749
 H673 H 0.40197 -0.03191 0.29978
 H674 H 0.36374 -0.03752 0.33821
 H675 H 0.35054 0.04231 0.33597
 H676 H 0.38872 0.04793 0.29759
 H677 H 0.44488 0.02054 0.35434
 H678 H 0.40672 0.01494 0.39271
 C679 C 0.17453 0.49675 0.90804
 C680 C 0.18302 0.51811 0.88535
 C681 C 0.16304 0.52134 0.86443
 C682 C 0.13655 0.50290 0.86826
 C683 C 0.12651 0.50900 0.89983
 C684 C 0.14648 0.50576 0.92074
 C685 C 0.16707 0.47078 0.88973
 C686 C 0.14713 0.47401 0.86885
 C687 C 0.19600 0.49285 0.93047
 C688 C 0.21362 0.48876 0.94865
 C689 C 0.11496 0.50599 0.84574
 C690 C 0.09699 0.50776 0.82731
 H691 H 0.20294 0.52969 0.88571
 H692 H 0.16585 0.53569 0.84686
 H693 H 0.10557 0.51534 0.90527
 H694 H 0.14265 0.50934 0.94409
 H695 H 0.17663 0.45152 0.89289
 H696 H 0.13963 0.45752 0.85412
 C697 C 0.58647 0.01438 0.31794
 C698 C 0.57522 0.01437 0.34964
 C699 C 0.59556 0.01214 0.37036
 C700 C 0.62516 0.01015 0.35735
 C701 C 0.62945 0.03528 0.33844
 C702 C 0.60912 0.03751 0.31773
 C703 C 0.60258 -0.01176 0.31448
 C704 C 0.62294 -0.01399 0.33522
 C705 C 0.56461 0.01703 0.29568
 C706 C 0.54675 0.01975 0.27741
 C707 C 0.64699 0.00798 0.37975
 C708 C 0.66476 0.00663 0.39842
 H709 H 0.55321 0.01594 0.35531
 H710 H 0.59097 0.01181 0.39379
 H711 H 0.64694 0.05003 0.34107
 H712 H 0.60919 0.05416 0.30261
 H713 H 0.59837 -0.02716 0.29729
 H714 H 0.63618 -0.03130 0.33580
 C715 C 0.82623 0.50340 0.09374
 C716 C 0.82612 0.52452 0.11924
 C717 C 0.84618 0.52107 0.13995
 C718 C 0.86442 0.49682 0.13318
 C719 C 0.87633 0.50170 0.10224
 C720 C 0.85626 0.50516 0.08152
 C721 C 0.82346 0.47579 0.10852
 C722 C 0.84356 0.47233 0.12928
 C723 C 0.80472 0.50753 0.07142
 C724 C 0.78722 0.51175 0.05317
 C725 C 0.88623 0.49354 0.15542
 C726 C 0.90462 0.49182 0.17339
 H727 H 0.81153 0.54076 0.12090
 H728 H 0.84876 0.53435 0.15935
 H729 H 0.89858 0.50234 0.09705
 H730 H 0.86133 0.50875 0.05859
 H731 H 0.80718 0.46034 0.10316
 H732 H 0.84450 0.45392 0.14171
 C733 C 0.41117 -0.01553 0.68195
 C734 C 0.42248 -0.01344 0.65039
 C735 C 0.40205 -0.01109 0.62981
 C736 C 0.37231 -0.01107 0.64279
 C737 C 0.37332 0.01199 0.66627
 C738 C 0.39378 0.00965 0.68688
 C739 C 0.38961 -0.03960 0.68075
 C740 C 0.36918 -0.03726 0.66016
 C741 C 0.43320 -0.01831 0.70400
 C742 C 0.45132 -0.02110 0.72197
 C743 C 0.35045 -0.00883 0.62043
 C744 C 0.33286 -0.00756 0.60155
 H745 H 0.44460 -0.01373 0.64471
 H746 H 0.40667 -0.00939 0.60648
 H747 H 0.35923 0.02867 0.66667
 H748 H 0.39723 0.02433 0.70495
 H749 H 0.39031 -0.05696 0.69485
 H750 H 0.35238 -0.05261 0.65663
   
