data_POSCAR
  _audit_creation_date              2014-09-24
  _audit_creation_method            'ToBaCCo'
  _symmetry_space_group_name_H-M    'P1'
  _symmetry_Int_Tables_number       1
  _symmetry_cell_setting            triclinic
  loop_
  _symmetry_equiv_pos_as_xyz
 x,y,z
_cell_length_a 42.2151
_cell_length_b 39.8070
_cell_length_c 43.3714
_cell_angle_alpha 92.783000
_cell_angle_beta 89.921000
_cell_angle_gamma 90.006200
loop_
  _atom_site_label
  _atom_site_type_symbol
  _atom_site_fract_x
  _atom_site_fract_y
  _atom_site_fract_z
N1 N 0.16998 1.24908 0.16734
 N2 N 0.14422 1.23988 0.18166
 C3 C 0.12013 1.26003 0.17432
 C4 C 0.13124 1.28350 0.15421
 C5 C 0.16322 1.27573 0.15052
 H6 H 0.09637 1.25763 0.18321
 H7 H 0.18012 1.28755 0.13577
 Cu8 Cu 0.14393 1.20227 0.20840
 Cu9 Cu 0.20927 1.22349 0.16942
 Cu10 Cu 0.21238 1.16361 0.22465
 N11 N 0.14813 1.17479 0.24386
 N12 N 0.17477 1.15972 0.25039
 C13 C 0.17048 1.14193 0.27571
 C14 C 0.13930 1.14607 0.28572
 C15 C 0.12601 1.16731 0.26474
 H16 H 0.18874 1.12688 0.28571
 H17 H 0.10200 1.17660 0.26424
 N18 N 0.24765 1.17160 0.19605
 N19 N 0.24651 1.19450 0.17508
 C20 C 0.27260 1.19171 0.15725
 C21 C 0.29112 1.16571 0.16739
 C22 C 0.27455 1.15371 0.19217
 H23 H 0.27707 1.20658 0.13753
 H24 H 0.28064 1.13217 0.20520
 H25 H 0.19141 1.17847 0.18424
 H26 H 0.20020 1.21224 0.21469
 N27 N 0.79858 0.76232 0.16199
 N28 N 0.82073 0.76036 0.18305
 C29 C 0.84084 0.73536 0.17447
 C30 C 0.83080 0.72080 0.14646
 C31 C 0.80379 0.73865 0.13935
 H32 H 0.86179 0.72898 0.18722
 H33 H 0.78926 0.73521 0.11896
 Cu34 Cu 0.82224 0.79172 0.21888
 Cu35 Cu 0.76598 0.79687 0.16427
 Cu36 Cu 0.76904 0.85470 0.22647
 N37 N 0.82405 0.82524 0.25304
 N38 N 0.80290 0.84933 0.25621
 C39 C 0.81001 0.86915 0.28125
 C40 C 0.83745 0.85713 0.29456
 C41 C 0.84555 0.82907 0.27585
 H42 H 0.79662 0.89128 0.28845
 H43 H 0.86569 0.81271 0.27830
 N44 N 0.73655 0.85599 0.19400
 N45 N 0.73515 0.83369 0.17053
 C46 C 0.71145 0.84215 0.15165
 C47 C 0.69737 0.87134 0.16365
 C48 C 0.71390 0.87934 0.19056
 H49 H 0.70583 0.82897 0.12998
 H50 H 0.71013 0.90098 0.20614
 H51 H 0.79299 0.83203 0.18931
 H52 H 0.76630 0.80474 0.21169
 N53 N 0.82332 1.24015 -0.17471
 N54 N 0.84420 1.23841 -0.19723
 C55 C 0.86535 1.26349 -0.19279
 C56 C 0.85742 1.28200 -0.16598
 C57 C 0.83045 1.26641 -0.15524
 H58 H 0.88556 1.26733 -0.20751
 H59 H 0.81773 1.27267 -0.13411
 Cu60 Cu 0.84364 1.20164 -0.22844
 Cu61 Cu 0.79015 1.20653 -0.17077
 Cu62 Cu 0.78941 1.14025 -0.22571
 N63 N 0.84261 1.16460 -0.25943
 N64 N 0.82168 1.14036 -0.25779
 C65 C 0.82745 1.11673 -0.28030
 C66 C 0.85359 1.12651 -0.29721
 C67 C 0.86239 1.15729 -0.28321
 H68 H 0.81378 1.09392 -0.28359
 H69 H 0.88243 1.17264 -0.28899
 N70 N 0.75863 1.14457 -0.19160
 N71 N 0.75859 1.16993 -0.17084
 C72 C 0.73528 1.16508 -0.15025
 C73 C 0.72004 1.13512 -0.15834
 C74 C 0.73549 1.12292 -0.18472
 H75 H 0.73042 1.18153 -0.13024
 H76 H 0.73039 1.09979 -0.19784
 H77 H 0.81511 1.16749 -0.19235
 H78 H 0.78799 1.19177 -0.21693
 N79 N 0.18328 0.74591 -0.16700
 N80 N 0.16188 0.74945 -0.18861
 C81 C 0.13793 0.72779 -0.18431
 C82 C 0.14501 0.70939 -0.15899
 C83 C 0.17401 0.72140 -0.14865
 H84 H 0.11656 0.72603 -0.19800
 H85 H 0.18633 0.71439 -0.12808
 Cu86 Cu 0.16688 0.78314 -0.21926
 Cu87 Cu 0.21874 0.77691 -0.16117
 Cu88 Cu 0.22663 0.83869 -0.21448
 N89 N 0.17252 0.81652 -0.25011
 N90 N 0.19559 0.83862 -0.24772
 C91 C 0.19331 0.85979 -0.27087
 C92 C 0.16742 0.85044 -0.28911
 C93 C 0.15494 0.82265 -0.27510
 H94 H 0.20944 0.88041 -0.27399
 H95 H 0.13404 0.80850 -0.28189
 N96 N 0.25568 0.83449 -0.17930
 N97 N 0.25276 0.81091 -0.15912
 C98 C 0.27465 0.81607 -0.13683
 C99 C 0.29228 0.84421 -0.14328
 C100 C 0.27964 0.85511 -0.17048
 H101 H 0.27705 0.80099 -0.11691
 H102 H 0.28644 0.87736 -0.18217
 H103 H 0.19802 0.81701 -0.18207
 H104 H 0.22303 0.78809 -0.20696
 Si105 Si 0.49851 1.01916 0.00122
 Si106 Si -0.00130 0.50322 1.00088
 Si107 Si 1.02054 -0.01848 0.49665
 C108 C 0.06265 0.33294 1.12682
 C109 C 0.07738 0.35689 1.10853
 C110 C 0.11092 0.35728 1.10759
 C111 C 0.12862 0.33299 1.12259
 C112 C 0.11361 0.30850 1.13982
 C113 C 0.08041 0.30944 1.14220
 C114 C 0.12669 0.38187 1.09160
 C115 C 0.10991 0.40627 1.07659
 C116 C 0.07647 0.40639 1.07612
 C117 C 0.05998 0.38052 1.09139
 C118 C 0.02675 0.37840 1.08813
 C119 C 0.01013 0.40088 1.07081
 C120 C 0.02571 0.42694 1.05677
 C121 C 0.05896 0.43078 1.05994
 C122 C 0.07315 0.45912 1.04698
 C123 C 0.05525 0.48133 1.03009
 C124 C 0.02296 0.47567 1.02511
 C125 C 0.00816 0.44908 1.03928
 H126 H 0.03738 0.33199 1.13021
 H127 H 0.15421 0.33371 1.12103
 H128 H 0.06759 0.29155 1.15543
 H129 H 0.15235 0.38237 1.09077
 H130 H 0.12392 0.42404 1.06449
 H131 H 0.01289 0.35872 1.09772
 H132 H -0.01529 0.39782 1.06842
 H133 H 0.09785 0.46522 1.05005
 H134 H 0.06679 0.50308 1.02116
 H135 H -0.01714 0.44543 1.03655
 C136 C -0.14732 0.66186 1.07834
 C137 C -0.12164 0.64332 1.08986
 C138 C -0.11249 0.65045 1.12093
 C139 C -0.12834 0.67519 1.13931
 C140 C -0.15339 0.69366 1.12736
 C141 C -0.16278 0.68648 1.09677
 C142 C -0.08737 0.63308 1.13356
 C143 C -0.07054 0.60916 1.11593
 C144 C -0.07820 0.60146 1.08470
 C145 C -0.10454 0.61841 1.07158
 C146 C -0.11278 0.61001 1.04060
 C147 C -0.09555 0.58661 1.02277
 C148 C -0.06938 0.57059 1.03491
 C149 C -0.06031 0.57752 1.06606
 C150 C -0.03337 0.56047 1.07699
 C151 C -0.01622 0.53803 1.05768
 C152 C -0.02528 0.53174 1.02700
 C153 C -0.05200 0.54784 1.01582
 H154 H -0.15594 0.65839 1.05506
 H155 H -0.12090 0.68004 1.16298
 H156 H -0.18189 0.70025 1.08663
 H157 H -0.08041 0.63825 1.15738
 H158 H -0.05151 0.59713 1.12765
 H159 H -0.13254 0.62111 1.02921
 H160 H -0.10267 0.58121 0.99904
 H161 H -0.02455 0.56414 1.10018
 H162 H 0.00452 0.52598 1.06678
 H163 H -0.05910 0.54290 0.99201
 C164 C -0.07611 0.34323 0.85460
 C165 C -0.08824 0.36168 0.88076
 C166 C -0.11939 0.35400 0.89047
 C167 C -0.13715 0.32866 0.87481
 C168 C -0.12447 0.31013 0.84939
 C169 C -0.09392 0.31801 0.83934
 C170 C -0.13265 0.37136 0.91600
 C171 C -0.11550 0.39573 0.93273
 C172 C -0.08410 0.40383 0.92460
 C173 C -0.07045 0.38699 0.89781
 C174 C -0.03939 0.39583 0.88912
 C175 C -0.02193 0.41956 0.90630
 C176 C -0.03452 0.43548 0.93287
 C177 C -0.06580 0.42806 0.94244
 C178 C -0.07711 0.44480 0.96988
 C179 C -0.05810 0.46762 0.98687
 C180 C -0.02742 0.47476 0.97706
 C181 C -0.01570 0.45856 0.95016
 H182 H -0.05277 0.34718 0.84547
 H183 H -0.16087 0.32330 0.88274
 H184 H -0.08321 0.30429 0.81988
 H185 H -0.15657 0.36583 0.92336
 H186 H -0.12770 0.40778 0.95205
 H187 H -0.02765 0.38483 0.86905
 H188 H 0.00189 0.42530 0.89880
 H189 H -0.10028 0.44048 0.97928
 H190 H -0.06732 0.47914 1.00814
 H191 H 0.00830 0.46357 0.94280
 C192 C 0.07239 0.67075 0.87570
 C193 C 0.08501 0.64249 0.89005
 C194 C 0.11758 0.63509 0.88538
 C195 C 0.13705 0.65703 0.86942
 C196 C 0.12430 0.68553 0.85643
 C197 C 0.09177 0.69170 0.85898
 C198 C 0.13056 0.60599 0.89683
 C199 C 0.11188 0.58384 0.91272
 C200 C 0.07965 0.59076 0.91900
 C201 C 0.06643 0.62134 0.90870
 C202 C 0.03558 0.63050 0.91851
 C203 C 0.01819 0.61045 0.93764
 C204 C 0.03022 0.57983 0.94666
 C205 C 0.06058 0.56886 0.93646
 C206 C 0.07034 0.53621 0.94389
 C207 C 0.05147 0.51638 0.96226
 C208 C 0.02291 0.52876 0.97458
 C209 C 0.01205 0.56015 0.96601
 H210 H 0.04754 0.67697 0.87652
 H211 H 0.16215 0.65178 0.86683
 H212 H 0.08139 0.71341 0.84875
 H213 H 0.15542 0.60014 0.89330
 H214 H 0.12378 0.56215 0.92115
 H215 H 0.02475 0.65396 0.91296
 H216 H -0.00505 0.61894 0.94531
 H217 H 0.09201 0.52499 0.93515
 H218 H 0.05940 0.49128 0.96693
 H219 H -0.01065 0.56942 0.97421
 C220 C 1.07634 0.12284 0.34121
 C221 C 1.09210 0.10011 0.36002
 C222 C 1.12466 0.09400 0.35411
 C223 C 1.14028 0.10950 0.32987
 C224 C 1.12408 0.13140 0.31083
 C225 C 1.09199 0.13801 0.31724
 C226 C 1.14151 0.07219 0.37223
 C227 C 1.12671 0.05578 0.39585
 C228 C 1.09415 0.06036 0.40230
 C229 C 1.07660 0.08309 0.38419
 C230 C 1.04401 0.08766 0.39053
 C231 C 1.02888 0.07029 0.41320
 C232 C 1.04544 0.04776 0.43067
 C233 C 1.07838 0.04262 0.42590
 C234 C 1.09383 0.01943 0.44469
 C235 C 1.07702 0.00180 0.46655
 C236 C 1.04454 0.00690 0.47052
 C237 C 1.02894 0.02990 0.45263
 H238 H 1.05179 0.12952 0.34415
 H239 H 1.16510 0.10401 0.32588
 H240 H 1.07833 0.15489 0.30371
 H241 H 1.16648 0.06754 0.36797
 H242 H 1.14156 0.03933 0.40849
 H243 H 1.02915 0.10429 0.37813
 H244 H 1.00373 0.07437 0.41691
 H245 H 1.11875 0.01393 0.44287
 H246 H 1.08941 -0.01642 0.47980
 H247 H 1.00361 0.03355 0.45553
 C248 C 1.15569 -0.08620 0.65125
 C249 C 1.12977 -0.09965 0.63408
 C250 C 1.11817 -0.13152 0.64190
 C251 C 1.13077 -0.14794 0.66710
 C252 C 1.15568 -0.13366 0.68481
 C253 C 1.16836 -0.10293 0.67596
 C254 C 1.09383 -0.14688 0.62471
 C255 C 1.08040 -0.13120 0.60001
 C256 C 1.09027 -0.09891 0.59188
 C257 C 1.11497 -0.08259 0.60958
 C258 C 1.12327 -0.04933 0.60293
 C259 C 1.10786 -0.03243 0.58008
 C260 C 1.08407 -0.04809 0.56242
 C261 C 1.07546 -0.08186 0.56738
 C262 C 1.05196 -0.09685 0.54786
 C263 C 1.03666 -0.07845 0.52568
 C264 C 1.04446 -0.04481 0.52200
 C265 C 1.06828 -0.02981 0.54023
 H266 H 1.16701 -0.06289 0.64608
 H267 H 1.12102 -0.17208 0.67256
 H268 H 1.18783 -0.09101 0.68842
 H269 H 1.08495 -0.17136 0.63047
 H270 H 1.06149 -0.14476 0.58834
 H271 H 1.14094 -0.03506 0.61576
 H272 H 1.11456 -0.00665 0.57632
 H273 H 1.04466 -0.12266 0.54918
 H274 H 1.01794 -0.09040 0.51211
 H275 H 1.07407 -0.00356 0.53757
 C276 C 0.85852 -0.08646 0.36276
 C277 C 0.88838 -0.09900 0.37147
 C278 C 0.90073 -0.12697 0.35392
 C279 C 0.88349 -0.14186 0.32915
 C280 C 0.85402 -0.12887 0.32042
 C281 C 0.84184 -0.10105 0.33777
 C282 C 0.93050 -0.13976 0.36083
 C283 C 0.94893 -0.12467 0.38407
 C284 C 0.93806 -0.09631 0.40182
 C285 C 0.90671 -0.08425 0.39639
 C286 C 0.89472 -0.05794 0.41609
 C287 C 0.91315 -0.04285 0.43934
 C288 C 0.94439 -0.05287 0.44363
 C289 C 0.95745 -0.07962 0.42489
 C290 C 0.98977 -0.08770 0.42936
 C291 C 1.00804 -0.06991 0.45142
 C292 C 0.99470 -0.04411 0.47009
 C293 C 0.96290 -0.03565 0.46616
 H294 H 0.84762 -0.06483 0.37424
 H295 H 0.89381 -0.16311 0.31629
 H296 H 0.81924 -0.09009 0.33226
 H297 H 0.93994 -0.16142 0.34776
 H298 H 0.97155 -0.13625 0.38788
 H299 H 0.87088 -0.04862 0.41445
 H300 H 0.90295 -0.02265 0.45379
 H301 H 1.00200 -0.10676 0.41548
 H302 H 1.03291 -0.07606 0.45359
 H303 H 0.95276 -0.01479 0.47977
 C304 C 0.87504 0.05680 0.64598
 C305 C 0.90158 0.07002 0.63075
 C306 C 0.91038 0.10365 0.63872
 C307 C 0.89436 0.12227 0.66230
 C308 C 0.86880 0.10835 0.67817
 C309 C 0.85905 0.07560 0.66909
 C310 C 0.93528 0.11859 0.62327
 C311 C 0.95180 0.10090 0.60003
 C312 C 0.94456 0.06703 0.59173
 C313 C 0.91953 0.05108 0.60789
 C314 C 0.91388 0.01651 0.60134
 C315 C 0.93175 -0.00186 0.57962
 C316 C 0.95558 0.01348 0.56309
 C317 C 0.96204 0.04826 0.56837
 C318 C 0.98585 0.06264 0.55003
 C319 C 1.00288 0.04302 0.52817
 C320 C 0.99669 0.00868 0.52382
 C321 C 0.97319 -0.00598 0.54139
 H322 H 0.86570 0.03207 0.64042
 H323 H 0.90201 0.14776 0.66800
 H324 H 0.83924 0.06377 0.68005
 H325 H 0.94210 0.14436 0.62919
 H326 H 0.97081 0.11435 0.58956
 H327 H 0.89631 0.00246 0.61330
 H328 H 0.92682 -0.02845 0.57570
 H329 H 0.99180 0.08896 0.55181
 H330 H 1.02128 0.05476 0.51504
 H331 H 0.96856 -0.03272 0.53808
 C332 C 0.36468 1.11236 0.15347
 C333 C 0.37245 1.11830 0.12241
 C334 C 0.35357 1.14172 0.10703
 C335 C 0.32790 1.15787 0.12211
 C336 C 0.31995 1.15087 0.15252
 C337 C 0.33888 1.12832 0.16810
 C338 C 0.35993 1.14849 0.07642
 C339 C 0.38389 1.13163 0.06015
 C340 C 0.40271 1.10719 0.07394
 C341 C 0.39766 1.10126 0.10589
 C342 C 0.41774 1.07826 0.12013
 C343 C 0.44101 1.06058 0.10356
 C344 C 0.44516 1.06479 0.07211
 C345 C 0.42623 1.08824 0.05677
 C346 C 0.43104 1.09087 0.02462
 C347 C 0.45331 1.07082 0.00863
 C348 C 0.47176 1.04790 0.02402
 C349 C 0.46775 1.04503 0.05576
 H350 H 0.37754 1.09501 0.16702
 H351 H 0.31348 1.17508 0.10958
 H352 H 0.33367 1.12265 0.19173
 H353 H 0.34585 1.16671 0.06468
 H354 H 0.38706 1.13851 0.03665
 H355 H 0.41616 1.07324 0.14425
 H356 H 0.45562 1.04293 0.11546
 H357 H 0.41745 1.10743 0.01087
 H358 H 0.45577 1.07286 -0.01608
 H359 H 0.48141 1.02666 0.06767
 C360 C 0.66483 1.06803 -0.13043
 C361 C 0.64530 1.08608 -0.10884
 C362 C 0.65048 1.12121 -0.10455
 C363 C 0.67480 1.13705 -0.12064
 C364 C 0.69414 1.11860 -0.14160
 C365 C 0.68870 1.08406 -0.14641
 C366 C 0.63137 1.14041 -0.08426
 C367 C 0.60707 1.12566 -0.06805
 C368 C 0.60109 1.09075 -0.07114
 C369 C 0.62087 1.07055 -0.09153
 C370 C 0.61586 1.03543 -0.09362
 C371 C 0.59229 1.02050 -0.07673
 C372 C 0.57250 1.03980 -0.05726
 C373 C 0.57628 1.07523 -0.05426
 C374 C 0.55500 1.09346 -0.03437
 C375 C 0.53148 1.07703 -0.01809
 C376 C 0.52831 1.04213 -0.02121
 C377 C 0.54895 1.02366 -0.04061
 H378 H 0.66228 1.04149 -0.13580
 H379 H 0.67840 1.16390 -0.11702
 H380 H 0.70323 1.06901 -0.16233
 H381 H 0.63519 1.16727 -0.08089
 H382 H 0.59363 1.14244 -0.05285
 H383 H 0.63012 1.01844 -0.10781
 H384 H 0.58952 0.99341 -0.07899
 H385 H 0.55577 1.12040 -0.03087
 H386 H 0.51603 1.09174 -0.00278
 H387 H 0.54662 0.99651 -0.04278
 C388 C 0.34135 0.87234 -0.07363
 C389 C 0.36240 0.89605 -0.08584
 C390 C 0.36089 0.90082 -0.11800
 C391 C 0.33832 0.88361 -0.13657
 C392 C 0.31707 0.86101 -0.12387
 C393 C 0.31918 0.85523 -0.09236
 C394 C 0.38174 0.92291 -0.13152
 C395 C 0.40411 0.94068 -0.11390
 C396 C 0.40626 0.93748 -0.08168
 C397 C 0.38475 0.91514 -0.06734
 C398 C 0.38582 0.91318 -0.03493
 C399 C 0.40714 0.93216 -0.01710
 C400 C 0.42855 0.95356 -0.03071
 C401 C 0.42881 0.95633 -0.06320
 C402 C 0.45162 0.97804 -0.07570
 C403 C 0.47268 0.99641 -0.05666
 C404 C 0.47186 0.99365 -0.02471
 C405 C 0.44965 0.97243 -0.01184
 H406 H 0.34136 0.86625 -0.04972
 H407 H 0.33741 0.88782 -0.16105
 H408 H 0.30317 0.83790 -0.08182
 H409 H 0.38075 0.92658 -0.15611
 H410 H 0.41903 0.95730 -0.12631
 H411 H 0.37000 0.89763 -0.02236
 H412 H 0.40684 0.93001 0.00773
 H413 H 0.45398 0.98141 -0.10007
 H414 H 0.48932 1.01313 -0.06709
 H415 H 0.44887 0.97055 0.01302
 C416 C 0.64645 0.94492 0.14197
 C417 C 0.62676 0.93048 0.11844
 C418 C 0.62964 0.89542 0.11158
 C419 C 0.65224 0.87628 0.12673
 C420 C 0.67226 0.89126 0.14916
 C421 C 0.66873 0.92560 0.15697
 C422 C 0.61020 0.87957 0.08940
 C423 C 0.58814 0.89773 0.07337
 C424 C 0.58487 0.93287 0.07856
 C425 C 0.60463 0.94956 0.10137
 C426 C 0.60215 0.98485 0.10581
 C427 C 0.58149 1.00331 0.08844
 C428 C 0.56212 0.98748 0.06620
 C429 C 0.56303 0.95200 0.06120
 C430 C 0.54228 0.93733 0.03865
 C431 C 0.52240 0.95719 0.02138
 C432 C 0.52228 0.99211 0.02615
 C433 C 0.54212 1.00713 0.04855
 H434 H 0.64540 0.97109 0.14941
 H435 H 0.65424 0.84958 0.12092
 H436 H 0.68375 0.93793 0.17426
 H437 H 0.61217 0.85273 0.08420
 H438 H 0.57439 0.88338 0.05651
 H439 H 0.61642 0.99929 0.12217
 H440 H 0.58080 1.03041 0.09238
 H441 H 0.54088 0.91065 0.03354
 H442 H 0.50765 0.94504 0.00379
 H443 H 0.54222 1.03430 0.05202
   
