data_POSCAR
  _audit_creation_date              2014-09-24
  _audit_creation_method            'ToBaCCo'
  _symmetry_space_group_name_H-M    'P1'
  _symmetry_Int_Tables_number       1
  _symmetry_cell_setting            triclinic
  loop_
  _symmetry_equiv_pos_as_xyz
 x,y,z
_cell_length_a 51.1495
_cell_length_b 51.1167
_cell_length_c 29.8767
_cell_angle_alpha 89.967400
_cell_angle_beta 90.003600
_cell_angle_gamma 89.886500
loop_
  _atom_site_label
  _atom_site_type_symbol
  _atom_site_fract_x
  _atom_site_fract_y
  _atom_site_fract_z
C1 C -0.02426 0.26196 0.02441
 C2 C -0.02400 0.26611 -0.02294
 C3 C 0.00030 0.26890 -0.04483
 C4 C 0.02430 0.26542 -0.02240
 C5 C 0.02379 0.26077 0.02448
 C6 C -0.00022 0.25885 0.04676
 H7 H 0.00008 0.25693 0.08290
 H8 H 0.00053 0.27070 -0.08097
 C9 C 0.47600 0.77017 0.52173
 C10 C 0.47623 0.76886 0.47440
 C11 C 0.50024 0.76810 0.45178
 C12 C 0.52402 0.76874 0.47513
 C13 C 0.52379 0.77001 0.52247
 C14 C 0.49978 0.77112 0.54509
 H15 H 0.49959 0.77153 0.58138
 H16 H 0.50043 0.76746 0.41550
 C17 C 1.02431 0.73282 0.02206
 C18 C 1.02378 0.73618 -0.02521
 C19 C 0.99973 0.73714 -0.04772
 C20 C 0.97574 0.73429 -0.02515
 C21 C 0.97627 0.73090 0.02211
 C22 C 1.00034 0.72954 0.04458
 H23 H 1.00011 0.72822 0.08080
 H24 H 0.99996 0.73847 -0.08394
 C25 C 0.52439 0.23238 0.52479
 C26 C 0.52415 0.23115 0.47744
 C27 C 0.50013 0.23009 0.45484
 C28 C 0.47636 0.23104 0.47822
 C29 C 0.47660 0.23236 0.52556
 C30 C 0.50062 0.23307 0.54816
 H31 H 0.50081 0.23370 0.58444
 H32 H 0.49993 0.22969 0.41855
 C33 C 0.73040 -0.02427 0.02644
 C34 C 0.72791 -0.02431 -0.02110
 C35 C 0.72684 -0.00047 -0.04440
 C36 C 0.72898 0.02353 -0.02214
 C37 C 0.73142 0.02380 0.02496
 C38 C 0.73233 0.00006 0.04844
 H39 H 0.73327 0.00078 0.08466
 H40 H 0.72586 -0.00064 -0.08067
 C41 C 0.22868 0.47643 0.52162
 C42 C 0.22841 0.47660 0.47423
 C43 C 0.22843 0.50061 0.45146
 C44 C 0.22883 0.52443 0.47476
 C45 C 0.22865 0.52425 0.52215
 C46 C 0.22852 0.50025 0.54491
 H47 H 0.22870 0.50009 0.58121
 H48 H 0.22853 0.50076 0.41516
 C49 C 0.26958 1.02493 0.02274
 C50 C 0.26619 1.02518 -0.02489
 C51 C 0.26402 1.00107 -0.04756
 C52 C 0.26600 0.97710 -0.02515
 C53 C 0.26977 0.97686 0.02161
 C54 C 0.27216 1.00059 0.04466
 H55 H 0.27368 0.99987 0.08083
 H56 H 0.26245 1.00073 -0.08375
 C57 C 0.77196 0.52383 0.52526
 C58 C 0.77225 0.52376 0.47788
 C59 C 0.77235 0.49980 0.45501
 C60 C 0.77213 0.47594 0.47820
 C61 C 0.77249 0.47600 0.52558
 C62 C 0.77242 0.49996 0.54846
 H63 H 0.77229 0.50003 0.58476
 H64 H 0.77217 0.49972 0.41871
 O65 O 0.22693 0.26184 0.19908
 O66 O 0.29009 0.25367 0.25653
 O67 O 0.26309 0.22613 0.19939
 O68 O 0.25369 0.28934 0.25636
 O69 O 0.23378 0.26919 0.31227
 O70 O 0.24318 0.20594 0.25527
 O71 O 0.27020 0.23350 0.31244
 O72 O 0.20699 0.24167 0.25496
 Cu73 Cu 0.26049 0.25978 0.22224
 Cu74 Cu 0.23656 0.23555 0.28942
 C75 C 0.20633 0.25301 0.21720
 C76 C 0.29080 0.24229 0.29424
 C77 C 0.25455 0.20539 0.21754
 C78 C 0.24216 0.28994 0.29395
 O79 O 0.77368 0.73648 0.19786
 O80 O 0.71072 0.74488 0.25587
 O81 O 0.73710 0.77192 0.19737
 O82 O 0.74725 0.70940 0.25626
 O83 O 0.76729 0.73025 0.31124
 O84 O 0.75714 0.79280 0.25231
 O85 O 0.73075 0.76575 0.31085
 O86 O 0.79373 0.75735 0.25281
 Cu87 Cu 0.74017 0.73856 0.22130
 Cu88 Cu 0.76425 0.76364 0.28735
 C89 C 0.79432 0.74556 0.21547
 C90 C 0.71012 0.75668 0.29320
 C91 C 0.74547 0.79291 0.21484
 C92 C 0.75890 0.70927 0.29374
 O93 O 0.79169 0.24466 0.24897
 O94 O 0.72857 0.23573 0.30631
 O95 O 0.75561 0.20892 0.24815
 O96 O 0.76468 0.27148 0.30711
 O97 O 0.74461 0.29222 0.25191
 O98 O 0.73553 0.22965 0.19293
 O99 O 0.70849 0.25646 0.25112
 O100 O 0.77163 0.26540 0.19375
 Cu101 Cu 0.76216 0.23811 0.28321
 Cu102 Cu 0.73804 0.26302 0.21686
 C103 C 0.79230 0.25643 0.21159
 C104 C 0.70789 0.24468 0.28849
 C105 C 0.74415 0.20874 0.21049
 C106 C 0.75609 0.29239 0.28954
 O107 O 0.27070 0.76574 0.30622
 O108 O 0.20772 0.75724 0.24824
 O109 O 0.23456 0.73003 0.30628
 O110 O 0.24407 0.79282 0.24794
 O111 O 0.26423 0.77219 0.19276
 O112 O 0.25473 0.70945 0.25105
 O113 O 0.22788 0.73664 0.19303
 O114 O 0.29087 0.74513 0.25103
 Cu115 Cu 0.23721 0.76353 0.28272
 Cu116 Cu 0.26144 0.73877 0.21639
 C117 C 0.29140 0.75681 0.28848
 C118 C 0.20718 0.74560 0.21076
 C119 C 0.24318 0.70916 0.28861
 C120 C 0.25572 0.79309 0.21046
 O121 O 0.77458 0.26168 0.80177
 O122 O 0.71136 0.25406 0.74433
 O123 O 0.73783 0.22661 0.80235
 O124 O 0.74802 0.28927 0.74413
 O125 O 0.76777 0.26850 0.68868
 O126 O 0.75758 0.20575 0.74699
 O127 O 0.73111 0.23324 0.68891
 O128 O 0.79434 0.24087 0.74636
 Cu129 Cu 0.74095 0.26001 0.77872
 Cu130 Cu 0.76468 0.23499 0.71213
 C131 C 0.79511 0.25249 0.78384
 C132 C 0.71058 0.24243 0.70686
 C133 C 0.74607 0.20562 0.78462
 C134 C 0.75955 0.28948 0.70655
 O135 O 0.29045 0.74576 0.74422
 O136 O 0.22745 0.73678 0.80170
 O137 O 0.25434 0.70994 0.74355
 O138 O 0.26334 0.77265 0.80227
 O139 O 0.24319 0.79325 0.74701
 O140 O 0.23418 0.73055 0.68830
 O141 O 0.20727 0.75738 0.74646
 O142 O 0.27031 0.76636 0.68896
 Cu143 Cu 0.26096 0.73920 0.77848
 Cu144 Cu 0.23673 0.76397 0.71208
 C145 C 0.29101 0.75748 0.70681
 C146 C 0.20674 0.74566 0.78388
 C147 C 0.24274 0.70966 0.70601
 C148 C 0.25461 0.79351 0.78470
 O149 O 0.25453 0.29225 0.74769
 O150 O 0.26426 0.22957 0.80627
 O151 O 0.29085 0.25659 0.74805
 O152 O 0.22776 0.26514 0.80585
 O153 O 0.20774 0.24447 0.75066
 O154 O 0.27081 0.23592 0.69286
 O155 O 0.24423 0.20890 0.75107
 O156 O 0.23450 0.27158 0.69250
 Cu157 Cu 0.26134 0.26299 0.78254
 Cu158 Cu 0.23727 0.23814 0.71622
 C159 C 0.24302 0.29247 0.71008
 C160 C 0.25586 0.20866 0.78857
 C161 C 0.29147 0.24487 0.71064
 C162 C 0.20712 0.25614 0.78811
 O163 O 0.73500 0.77173 0.80686
 O164 O 0.74405 0.70874 0.74909
 O165 O 0.77096 0.73571 0.80705
 O166 O 0.70802 0.74473 0.74903
 O167 O 0.72830 0.76500 0.69363
 O168 O 0.79124 0.75598 0.75166
 O169 O 0.76433 0.72901 0.69370
 O170 O 0.75528 0.79200 0.75146
 Cu171 Cu 0.73746 0.73818 0.78359
 Cu172 Cu 0.76183 0.76254 0.71702
 C173 C 0.74371 0.79248 0.78900
 C174 C 0.75563 0.70826 0.71156
 C175 C 0.79171 0.74442 0.78924
 C176 C 0.70755 0.75630 0.71145
 C177 C 0.28213 0.07384 0.11346
 C178 C 0.26387 0.09327 0.10288
 C179 C 0.24704 0.08981 0.06651
 C180 C 0.24870 0.06723 0.04034
 C181 C 0.26755 0.04775 0.04966
 C182 C 0.28385 0.05119 0.08736
 C183 C 0.26247 0.11689 0.12900
 C184 C 0.26111 0.13690 0.15025
 C185 C 0.25924 0.16055 0.17443
 C186 C 0.25732 0.18093 0.19446
 H187 H 0.29523 0.07629 0.14163
 H188 H 0.23257 0.10458 0.05837
 H189 H 0.23485 0.06485 0.01325
 H190 H 0.29870 0.03687 0.09573
 C191 C 0.78717 0.57769 0.60826
 C192 C 0.76654 0.59514 0.60038
 C193 C 0.74752 0.58913 0.56832
 C194 C 0.74917 0.56583 0.54406
 C195 C 0.77001 0.54839 0.55137
 C196 C 0.78886 0.55437 0.58396
 C197 C 0.76483 0.61924 0.62508
 C198 C 0.76315 0.63952 0.64543
 C199 C 0.76087 0.66337 0.66887
 C200 C 0.75865 0.68382 0.68856
 H201 H 0.80197 0.58213 0.63305
 H202 H 0.73142 0.60245 0.56210
 H203 H 0.73422 0.56139 0.51957
 H204 H 0.80502 0.54113 0.59014
 C205 C 0.71545 0.90790 0.06674
 C206 C 0.73258 0.90575 0.10302
 C207 C 0.74828 0.92699 0.11484
 C208 C 0.74725 0.95016 0.09005
 C209 C 0.73068 0.95243 0.05238
 C210 C 0.71436 0.93104 0.04184
 C211 C 0.73447 0.88160 0.12763
 C212 C 0.73647 0.86133 0.14801
 C213 C 0.73923 0.83755 0.17161
 C214 C 0.74192 0.81720 0.19151
 H215 H 0.70292 0.89168 0.05766
 H216 H 0.76164 0.92553 0.14289
 H217 H 0.76038 0.96584 0.09929
 H218 H 0.70021 0.93232 0.01501
 C219 C 0.21253 0.42276 0.60453
 C220 C 0.23298 0.40506 0.59694
 C221 C 0.25216 0.41080 0.56500
 C222 C 0.25086 0.43410 0.54061
 C223 C 0.23023 0.45181 0.54769
 C224 C 0.21120 0.44607 0.58011
 C225 C 0.23439 0.38103 0.62193
 C226 C 0.23583 0.36083 0.64261
 C227 C 0.23789 0.33710 0.66651
 C228 C 0.24000 0.31676 0.68660
 H229 H 0.19762 0.41853 0.62924
 H230 H 0.26813 0.39729 0.55900
 H231 H 0.26595 0.43835 0.51625
 H232 H 0.19519 0.45952 0.58612
 C233 C 0.92595 0.24660 0.11237
 C234 C 0.90599 0.26420 0.10144
 C235 C 0.90944 0.28173 0.06600
 C236 C 0.93254 0.28134 0.04101
 C237 C 0.95256 0.26309 0.05062
 C238 C 0.94908 0.24614 0.08748
 C239 C 0.88172 0.26371 0.12583
 C240 C 0.86131 0.26279 0.14595
 C241 C 0.83733 0.26114 0.16916
 C242 C 0.81680 0.25925 0.18870
 H243 H 0.92346 0.23290 0.13972
 H244 H 0.89421 0.29564 0.05753
 H245 H 0.93482 0.29559 0.01448
 H246 H 0.96370 0.23160 0.09594
 C247 C 0.41058 0.74702 0.56581
 C248 C 0.40444 0.76681 0.59645
 C249 C 0.42186 0.78756 0.60308
 C250 C 0.44526 0.78859 0.57893
 C251 C 0.45136 0.76895 0.54773
 C252 C 0.43395 0.74802 0.54171
 C253 C 0.38027 0.76570 0.62099
 C254 C 0.35991 0.76441 0.64117
 C255 C 0.33598 0.76245 0.66441
 C256 C 0.31547 0.76040 0.68393
 H257 H 0.39730 0.73082 0.56058
 H258 H 0.41732 0.80294 0.62679
 H259 H 0.45848 0.80484 0.58413
 H260 H 0.43848 0.73246 0.51835
 C261 C 0.07472 0.71879 0.10986
 C262 C 0.09433 0.73657 0.09824
 C263 C 0.09060 0.75342 0.06195
 C264 C 0.06753 0.75235 0.03701
 C265 C 0.04776 0.73408 0.04748
 C266 C 0.05158 0.71766 0.08498
 C267 C 0.11826 0.73772 0.12354
 C268 C 0.13847 0.73901 0.14420
 C269 C 0.16229 0.74090 0.16786
 C270 C 0.18274 0.74285 0.18766
 H271 H 0.07738 0.70568 0.13800
 H272 H 0.10546 0.76759 0.05310
 H273 H 0.06490 0.76651 0.01046
 H274 H 0.03711 0.70319 0.09422
 C275 C 0.57743 0.25328 0.60557
 C276 C 0.59637 0.23390 0.59858
 C277 C 0.59158 0.21368 0.56809
 C278 C 0.56803 0.21296 0.54439
 C279 C 0.54911 0.23259 0.55074
 C280 C 0.55388 0.25260 0.58187
 C281 C 0.62083 0.23502 0.62226
 C282 C 0.64136 0.23626 0.64193
 C283 C 0.66544 0.23806 0.66477
 C284 C 0.68603 0.23989 0.68409
 H285 H 0.58094 0.26902 0.62908
 H286 H 0.60608 0.19855 0.56250
 H287 H 0.56458 0.19717 0.52098
 H288 H 0.53956 0.26792 0.58723
 C289 C 0.75367 0.08758 0.93006
 C290 C 0.73387 0.09381 0.89949
 C291 C 0.71252 0.07697 0.89430
 C292 C 0.71092 0.05403 0.91973
 C293 C 0.73060 0.04782 0.95080
 C294 C 0.75211 0.06467 0.95544
 C295 C 0.73561 0.11751 0.87360
 C296 C 0.73747 0.13749 0.85239
 C297 C 0.74009 0.16106 0.82813
 C298 C 0.74265 0.18132 0.80795
 H299 H 0.77033 0.10040 0.93422
 H300 H 0.69711 0.08159 0.87068
 H301 H 0.69424 0.04125 0.91554
 H302 H 0.76773 0.06003 0.97862
 C303 C 0.21274 0.57849 0.39243
 C304 C 0.23328 0.59600 0.40007
 C305 C 0.25256 0.58995 0.43171
 C306 C 0.25124 0.56655 0.45581
 C307 C 0.23050 0.54906 0.44874
 C308 C 0.21139 0.55508 0.41656
 C309 C 0.23466 0.62018 0.37550
 C310 C 0.23608 0.64051 0.35519
 C311 C 0.23810 0.66437 0.33170
 C312 C 0.24019 0.68481 0.31189
 H313 H 0.19776 0.58296 0.36795
 H314 H 0.26860 0.60330 0.43774
 H315 H 0.26638 0.56208 0.48000
 H316 H 0.19529 0.54181 0.41058
 C317 C 0.28438 0.91084 0.92693
 C318 C 0.26333 0.90609 0.89814
 C319 C 0.24331 0.92467 0.89406
 C320 C 0.24426 0.94784 0.91884
 C321 C 0.26518 0.95261 0.94817
 C322 C 0.28537 0.93401 0.95170
 C323 C 0.26210 0.88206 0.87314
 C324 C 0.26087 0.86186 0.85242
 C325 C 0.25913 0.83814 0.82845
 C326 C 0.25729 0.81780 0.80828
 H327 H 0.30001 0.89663 0.93028
 H328 H 0.22692 0.92119 0.87189
 H329 H 0.22851 0.96192 0.91561
 H330 H 0.30187 0.93746 0.97361
 C331 C 0.78751 0.42227 0.39483
 C332 C 0.76697 0.40479 0.40265
 C333 C 0.74799 0.41067 0.43490
 C334 C 0.74958 0.43390 0.45936
 C335 C 0.77031 0.45139 0.45205
 C336 C 0.78913 0.44551 0.41933
 C337 C 0.76527 0.38082 0.37763
 C338 C 0.76360 0.36066 0.35694
 C339 C 0.76133 0.33697 0.33307
 C340 C 0.75910 0.31666 0.31300
 H341 H 0.80226 0.41793 0.36989
 H342 H 0.73196 0.39733 0.44108
 H343 H 0.73465 0.43826 0.48396
 H344 H 0.80521 0.45880 0.41315
 C345 C 0.09083 0.24623 0.93651
 C346 C 0.09437 0.26386 0.90128
 C347 C 0.07462 0.28181 0.89088
 C348 C 0.05148 0.28229 0.91587
 C349 C 0.04781 0.26499 0.95224
 C350 C 0.06777 0.24665 0.96154
 C351 C 0.11825 0.26324 0.87575
 C352 C 0.13842 0.26227 0.85491
 C353 C 0.16222 0.26063 0.83110
 C354 C 0.18266 0.25881 0.81123
 H355 H 0.10581 0.23194 0.94440
 H356 H 0.07713 0.29553 0.86357
 H357 H 0.03686 0.29686 0.90757
 H358 H 0.06530 0.23189 0.98714
 C359 C 0.57704 0.74733 0.39461
 C360 C 0.59602 0.76661 0.40149
 C361 C 0.59125 0.78695 0.43178
 C362 C 0.56768 0.78789 0.45541
 C363 C 0.54873 0.76835 0.44918
 C364 C 0.55349 0.74822 0.41824
 C365 C 0.62051 0.76524 0.37792
 C366 C 0.64104 0.76376 0.35830
 C367 C 0.66510 0.76166 0.33548
 C368 C 0.68565 0.75955 0.31610
 H369 H 0.58054 0.73150 0.37125
 H370 H 0.60579 0.80200 0.43728
 H371 H 0.56425 0.80376 0.47868
 H372 H 0.53914 0.73297 0.41298
 C373 C 0.92577 0.75157 0.88812
 C374 C 0.90516 0.73503 0.89992
 C375 C 0.90810 0.71772 0.93580
 C376 C 0.93140 0.71718 0.96023
 C377 C 0.95219 0.73426 0.94961
 C378 C 0.94910 0.75110 0.91245
 C379 C 0.88089 0.73616 0.87561
 C380 C 0.86051 0.73748 0.85544
 C381 C 0.83660 0.73945 0.83207
 C382 C 0.81613 0.74150 0.81236
 H383 H 0.92370 0.76510 0.86040
 H384 H 0.89239 0.70455 0.94486
 H385 H 0.93332 0.70283 0.98666
 H386 H 0.96428 0.76482 0.90320
 C387 C 0.42220 0.21336 0.39722
 C388 C 0.40464 0.23406 0.40383
 C389 C 0.41071 0.25395 0.43428
 C390 C 0.43415 0.25309 0.45823
 C391 C 0.45169 0.23219 0.45225
 C392 C 0.44566 0.21247 0.42122
 C393 C 0.38037 0.23499 0.37952
 C394 C 0.35994 0.23611 0.35952
 C395 C 0.33592 0.23782 0.33646
 C396 C 0.31534 0.23965 0.31705
 H397 H 0.41771 0.19791 0.37367
 H398 H 0.39732 0.27012 0.43951
 H399 H 0.43862 0.26870 0.48147
 H400 H 0.45898 0.19624 0.41606
 C401 C 0.75323 0.91174 0.93146
 C402 C 0.73340 0.90531 0.90114
 C403 C 0.71199 0.92212 0.89562
 C404 C 0.71030 0.94516 0.92067
 C405 C 0.72991 0.95147 0.95174
 C406 C 0.75158 0.93476 0.95648
 C407 C 0.73499 0.88135 0.87604
 C408 C 0.73654 0.86114 0.85545
 C409 C 0.73867 0.83734 0.83183
 C410 C 0.74079 0.81690 0.81206
 H411 H 0.76993 0.89891 0.93586
 H412 H 0.69656 0.91735 0.87217
 H413 H 0.69352 0.95788 0.91639
 H414 H 0.76710 0.93949 0.97976
 C415 C 0.24905 0.42404 0.39219
 C416 C 0.23025 0.40471 0.40004
 C417 C 0.21028 0.40920 0.43118
 C418 C 0.20931 0.43281 0.45479
 C419 C 0.22845 0.45206 0.44772
 C420 C 0.24813 0.44762 0.41580
 C421 C 0.23189 0.38007 0.37686
 C422 C 0.23369 0.35941 0.35763
 C423 C 0.23626 0.33521 0.33530
 C424 C 0.23878 0.31454 0.31635
 H425 H 0.26460 0.42076 0.36820
 H426 H 0.19560 0.39440 0.43747
 H427 H 0.19381 0.43597 0.47888
 H428 H 0.26309 0.46218 0.40991
 C429 C 0.25005 0.07477 0.88720
 C430 C 0.26697 0.09514 0.89859
 C431 C 0.28441 0.09203 0.93424
 C432 C 0.28456 0.06883 0.95904
 C433 C 0.26693 0.04841 0.94903
 C434 C 0.25012 0.05156 0.91190
 C435 C 0.26580 0.11948 0.87445
 C436 C 0.26424 0.13990 0.85445
 C437 C 0.26181 0.16383 0.83127
 C438 C 0.25930 0.18429 0.81167
 H439 H 0.23644 0.07699 0.85966
 H440 H 0.29781 0.10759 0.94304
 H441 H 0.29869 0.06681 0.98581
 H442 H 0.23607 0.03660 0.90312
 C443 C 0.75177 0.57616 0.39532
 C444 C 0.77051 0.59553 0.40322
 C445 C 0.79031 0.59118 0.43476
 C446 C 0.79118 0.56766 0.45864
 C447 C 0.77213 0.54833 0.45143
 C448 C 0.75260 0.55266 0.41920
 C449 C 0.76905 0.62001 0.37951
 C450 C 0.76736 0.64051 0.35973
 C451 C 0.76489 0.66449 0.33665
 C452 C 0.76237 0.68495 0.31701
 H453 H 0.73635 0.57932 0.37102
 H454 H 0.80494 0.60602 0.44108
 H455 H 0.80659 0.56458 0.48296
 H456 H 0.73771 0.53804 0.41319
 C457 C 0.07545 0.75681 0.89116
 C458 C 0.09383 0.73665 0.89566
 C459 C 0.08903 0.71594 0.92522
 C460 C 0.06607 0.71555 0.95058
 C461 C 0.04781 0.73603 0.94691
 C462 C 0.05251 0.75647 0.91652
 C463 C 0.11786 0.73761 0.87074
 C464 C 0.13810 0.73883 0.85021
 C465 C 0.16190 0.74074 0.82662
 C466 C 0.18232 0.74277 0.80687
 H467 H 0.07899 0.77293 0.86839
 H468 H 0.10311 0.70023 0.92889
 H469 H 0.06264 0.69944 0.97338
 H470 H 0.03865 0.77239 0.91314
 C471 C 0.57751 0.21430 0.39415
 C472 C 0.59496 0.23505 0.40056
 C473 C 0.58909 0.25466 0.43169
 C474 C 0.56597 0.25349 0.45648
 C475 C 0.54853 0.23255 0.45068
 C476 C 0.55435 0.21310 0.41899
 C477 C 0.61894 0.23629 0.37541
 C478 C 0.63915 0.23768 0.35479
 C479 C 0.66297 0.23971 0.33116
 C480 C 0.68342 0.24179 0.31143
 H481 H 0.58183 0.19905 0.37009
 H482 H 0.60240 0.27085 0.43680
 H483 H 0.56165 0.26891 0.48021
 H484 H 0.54112 0.19685 0.41394
 C485 C 0.92682 0.27958 0.88705
 C486 C 0.90755 0.26115 0.89726
 C487 C 0.91119 0.24397 0.93312
 C488 C 0.93381 0.24542 0.95916
 C489 C 0.95315 0.26440 0.95022
 C490 C 0.94951 0.28110 0.91303
 C491 C 0.88389 0.25990 0.87133
 C492 C 0.86381 0.25860 0.85033
 C493 C 0.84007 0.25679 0.82650
 C494 C 0.81962 0.25498 0.80674
 H495 H 0.92420 0.29297 0.85927
 H496 H 0.89655 0.22938 0.94096
 H497 H 0.93633 0.23130 0.98584
 H498 H 0.96372 0.29607 0.90501
 C499 C 0.42403 0.74746 0.39236
 C500 C 0.40494 0.76678 0.39863
 C501 C 0.40937 0.78715 0.42899
 C502 C 0.43272 0.78808 0.45329
 C503 C 0.45178 0.76850 0.44770
 C504 C 0.44736 0.74835 0.41667
 C505 C 0.38064 0.76538 0.37443
 C506 C 0.36026 0.76389 0.35436
 C507 C 0.33633 0.76178 0.33111
 C508 C 0.31585 0.75967 0.31150
 H509 H 0.42080 0.73161 0.36897
 H510 H 0.39475 0.80222 0.43403
 H511 H 0.43588 0.80397 0.47661
 H512 H 0.46179 0.73307 0.41188
 C513 C 0.28824 0.92245 0.10208
 C514 C 0.26678 0.90565 0.09769
 C515 C 0.24633 0.91221 0.06864
 C516 C 0.24731 0.93539 0.04398
 C517 C 0.26889 0.95222 0.04782
 C518 C 0.28926 0.94568 0.07735
 C519 C 0.26551 0.88172 0.12298
 C520 C 0.26392 0.86156 0.14371
 C521 C 0.26150 0.83782 0.16746
 C522 C 0.25905 0.81745 0.18733
 H523 H 0.30414 0.91758 0.12456
 H524 H 0.22958 0.89943 0.06514
 H525 H 0.23118 0.94029 0.02202
 H526 H 0.30600 0.95845 0.08091
 C527 C 0.75236 0.42328 0.60765
 C528 C 0.77118 0.40395 0.59946
 C529 C 0.79098 0.40848 0.56805
 C530 C 0.79176 0.43213 0.54452
 C531 C 0.77260 0.45140 0.55196
 C532 C 0.75309 0.44691 0.58413
 C533 C 0.76975 0.37929 0.62262
 C534 C 0.76808 0.35863 0.64191
 C535 C 0.76560 0.33448 0.66443
 C536 C 0.76306 0.31390 0.68365
 H537 H 0.73694 0.41997 0.63186
 H538 H 0.80568 0.39368 0.56150
 H539 H 0.80715 0.43533 0.52024
 H540 H 0.73812 0.46147 0.59030
 C541 C 0.75382 0.07663 0.10504
 C542 C 0.73438 0.09564 0.09912
 C543 C 0.71377 0.09107 0.06931
 C544 C 0.71267 0.06761 0.04535
 C545 C 0.73229 0.04858 0.05074
 C546 C 0.75275 0.05319 0.08107
 C547 C 0.73575 0.11991 0.12336
 C548 C 0.73717 0.14025 0.14357
 C549 C 0.73918 0.16408 0.16710
 C550 C 0.74124 0.18446 0.18703
 H551 H 0.76985 0.07998 0.12802
 H552 H 0.69859 0.10562 0.06456
 H553 H 0.69652 0.06429 0.02260
 H554 H 0.76806 0.03877 0.08571
 C555 C 0.24971 0.57637 0.60454
 C556 C 0.23097 0.59588 0.59702
 C557 C 0.21097 0.59170 0.56583
 C558 C 0.20988 0.56821 0.54191
 C559 C 0.22893 0.54876 0.54872
 C560 C 0.24867 0.55291 0.58062
 C561 C 0.23264 0.62033 0.62072
 C562 C 0.23446 0.64081 0.64046
 C563 C 0.23700 0.66479 0.66345
 C564 C 0.23948 0.68527 0.68295
 H565 H 0.26528 0.57940 0.62856
 H566 H 0.19633 0.60664 0.55980
 H567 H 0.19433 0.56527 0.51784
 H568 H 0.26356 0.53819 0.58632
 C569 C 0.92351 0.71418 0.10656
 C570 C 0.90667 0.73565 0.10202
 C571 C 0.91282 0.75575 0.07201
 C572 C 0.93558 0.75431 0.04632
 C573 C 0.95233 0.73259 0.05006
 C574 C 0.94631 0.71270 0.08083
 C575 C 0.88291 0.73706 0.12769
 C576 C 0.86283 0.73855 0.14862
 C577 C 0.83912 0.74066 0.17249
 C578 C 0.81873 0.74274 0.19238
 H579 H 0.91895 0.69854 0.12976
 H580 H 0.89997 0.77250 0.06836
 H581 H 0.94009 0.77005 0.02331
 H582 H 0.95906 0.69587 0.08434
 C583 C 0.40978 0.21416 0.57094
 C584 C 0.40524 0.23460 0.60117
 C585 C 0.42428 0.25390 0.60741
 C586 C 0.44764 0.25295 0.58318
 C587 C 0.45215 0.23275 0.55226
 C588 C 0.43316 0.21317 0.54673
 C589 C 0.38090 0.23607 0.62523
 C590 C 0.36046 0.23763 0.64516
 C591 C 0.33648 0.23980 0.66825
 C592 C 0.31595 0.24196 0.68774
 H593 H 0.39521 0.19909 0.56592
 H594 H 0.42097 0.26981 0.63069
 H595 H 0.46202 0.26823 0.58793
 H596 H 0.43639 0.19724 0.52349
 C597 C 0.07584 0.23976 0.10741
 C598 C 0.09361 0.26048 0.10431
 C599 C 0.08832 0.28160 0.07584
 C600 C 0.06546 0.28188 0.05021
 C601 C 0.04779 0.26090 0.05251
 C602 C 0.05299 0.24001 0.08178
 C603 C 0.11753 0.25973 0.12960
 C604 C 0.13770 0.25876 0.15038
 C605 C 0.16145 0.25721 0.17423
 C606 C 0.18187 0.25551 0.19413
 H607 H 0.07976 0.22332 0.12933
 H608 H 0.10193 0.29775 0.07326
 H609 H 0.06163 0.29835 0.02832
 H610 H 0.03958 0.22369 0.08410
 C611 C 0.57720 0.78689 0.60550
 C612 C 0.59467 0.76607 0.59919
 C613 C 0.58878 0.74640 0.56825
 C614 C 0.56562 0.74757 0.54352
 C615 C 0.54818 0.76859 0.54920
 C616 C 0.55402 0.78811 0.58072
 C617 C 0.61866 0.76482 0.62429
 C618 C 0.63889 0.76341 0.64488
 C619 C 0.66270 0.76135 0.66853
 C620 C 0.68313 0.75924 0.68833
 H621 H 0.58155 0.80220 0.62942
 H622 H 0.60208 0.73014 0.56324
 H623 H 0.56129 0.73210 0.51993
 H624 H 0.54078 0.80441 0.58568
   
