data_POSCAR
  _audit_creation_date              2014-09-24
  _audit_creation_method            'ToBaCCo'
  _symmetry_space_group_name_H-M    'P1'
  _symmetry_Int_Tables_number       1
  _symmetry_cell_setting            triclinic
  loop_
  _symmetry_equiv_pos_as_xyz
 x,y,z
_cell_length_a 44.1805
_cell_length_b 43.0496
_cell_length_c 42.6026
_cell_angle_alpha 89.672100
_cell_angle_beta 89.925400
_cell_angle_gamma 87.228700
loop_
  _atom_site_label
  _atom_site_type_symbol
  _atom_site_fract_x
  _atom_site_fract_y
  _atom_site_fract_z
C1 C 0.26158 0.28054 0.23356
 C2 C 0.28513 0.28006 0.21141
 C3 C 0.30887 0.25717 0.21298
 C4 C 0.30913 0.23499 0.23733
 C5 C 0.28586 0.23533 0.25975
 C6 C 0.26191 0.25812 0.25785
 C7 C 0.23746 0.30279 0.23146
 C8 C 0.21358 0.30302 0.25331
 C9 C 0.21420 0.28086 0.27772
 C10 C 0.23812 0.25827 0.28002
 C11 C 0.23846 0.23558 0.30386
 C12 C 0.26232 0.21279 0.30587
 C13 C 0.28596 0.21294 0.28375
 H14 H 0.28458 0.29697 0.19245
 H15 H 0.32754 0.21745 0.23884
 H16 H 0.23726 0.32005 0.21282
 H17 H 0.19569 0.28074 0.29444
 H18 H 0.22027 0.23576 0.32096
 H19 H 0.30416 0.19514 0.28482
 C20 C 0.73854 -0.27180 0.22624
 C21 C 0.71466 -0.27143 0.20453
 C22 C 0.69042 -0.24877 0.20598
 C23 C 0.69082 -0.22657 0.23032
 C24 C 0.71457 -0.22675 0.25216
 C25 C 0.73856 -0.24941 0.25008
 C26 C 0.76249 -0.29429 0.22418
 C27 C 0.78698 -0.29493 0.24558
 C28 C 0.78647 -0.27221 0.26949
 C29 C 0.76259 -0.24961 0.27182
 C30 C 0.76251 -0.22702 0.29547
 C31 C 0.73857 -0.20440 0.29782
 C32 C 0.71467 -0.20450 0.27607
 H33 H 0.71607 -0.28812 0.18563
 H34 H 0.67218 -0.20960 0.23331
 H35 H 0.76107 -0.31201 0.20641
 H36 H 0.80518 -0.27096 0.28571
 H37 H 0.78086 -0.22729 0.31235
 H38 H 0.69637 -0.18685 0.27744
 C39 C 0.75250 0.28032 0.77415
 C40 C 0.72910 0.28013 0.79656
 C41 C 0.70693 0.25744 0.79584
 C42 C 0.70868 0.23531 0.77138
 C43 C 0.73198 0.23513 0.74907
 C44 C 0.75397 0.25768 0.75044
 C45 C 0.77454 0.30279 0.77528
 C46 C 0.79807 0.30330 0.75272
 C47 C 0.79918 0.28008 0.72935
 C48 C 0.77750 0.25747 0.72811
 C49 C 0.77919 0.23446 0.70490
 C50 C 0.75740 0.21182 0.70345
 C51 C 0.73370 0.21249 0.72548
 H52 H 0.72931 0.29696 0.81530
 H53 H 0.69144 0.21853 0.76872
 H54 H 0.77232 0.32060 0.79306
 H55 H 0.81763 0.27851 0.71261
 H56 H 0.79730 0.23436 0.68769
 H57 H 0.71699 0.19487 0.72472
 C58 C 0.24398 -0.28751 0.77125
 C59 C 0.26729 -0.29000 0.79363
 C60 C 0.28957 -0.26776 0.79483
 C61 C 0.28853 -0.24305 0.77307
 C62 C 0.26550 -0.24032 0.75047
 C63 C 0.24307 -0.26257 0.74965
 C64 C 0.22167 -0.30966 0.77010
 C65 C 0.19817 -0.30749 0.74751
 C66 C 0.19758 -0.28202 0.72634
 C67 C 0.21974 -0.25985 0.72721
 C68 C 0.21881 -0.23491 0.70587
 C69 C 0.24114 -0.21278 0.70636
 C70 C 0.26450 -0.21568 0.72871
 H71 H 0.26779 -0.30895 0.81052
 H72 H 0.30587 -0.22608 0.77353
 H73 H 0.22368 -0.32922 0.78614
 H74 H 0.17926 -0.27842 0.70969
 H75 H 0.20097 -0.23301 0.68841
 H76 H 0.28164 -0.19850 0.72942
 C77 C 0.74595 -0.27341 0.77614
 C78 C 0.72266 -0.27609 0.79830
 C79 C 0.69821 -0.25393 0.79944
 C80 C 0.69724 -0.22889 0.77807
 C81 C 0.72023 -0.22600 0.75567
 C82 C 0.74470 -0.24831 0.75475
 C83 C 0.77019 -0.29571 0.77483
 C84 C 0.79355 -0.29359 0.75223
 C85 C 0.79196 -0.26794 0.73127
 C86 C 0.76782 -0.24562 0.73228
 C87 C 0.76638 -0.22072 0.71088
 C88 C 0.74196 -0.19856 0.71140
 C89 C 0.71898 -0.20132 0.73397
 H90 H 0.72369 -0.29528 0.81490
 H91 H 0.67826 -0.21197 0.77849
 H92 H 0.76977 -0.31541 0.79067
 H93 H 0.80995 -0.26439 0.71458
 H94 H 0.78393 -0.21904 0.69323
 H95 H 0.70023 -0.18415 0.73475
 C96 C 0.25196 0.26701 0.78237
 C97 C 0.27478 0.26896 0.80502
 C98 C 0.29914 0.24669 0.80621
 C99 C 0.30030 0.22206 0.78464
 C100 C 0.27775 0.21989 0.76171
 C101 C 0.25350 0.24245 0.76054
 C102 C 0.22793 0.28954 0.78083
 C103 C 0.20561 0.28806 0.75746
 C104 C 0.20724 0.26344 0.73589
 C105 C 0.23098 0.24068 0.73728
 C106 C 0.23279 0.21645 0.71543
 C107 C 0.25695 0.19397 0.71630
 C108 C 0.27931 0.19582 0.73960
 H109 H 0.27362 0.28783 0.82178
 H110 H 0.31921 0.20505 0.78518
 H111 H 0.22701 0.30868 0.79728
 H112 H 0.18993 0.26199 0.71802
 H113 H 0.21575 0.21551 0.69722
 H114 H 0.29788 0.17843 0.74057
 C115 C 0.24071 -0.27480 0.22421
 C116 C 0.26470 -0.27678 0.20264
 C117 C 0.28825 -0.25569 0.20334
 C118 C 0.28683 -0.23225 0.22652
 C119 C 0.26294 -0.23014 0.24834
 C120 C 0.23978 -0.25151 0.24715
 C121 C 0.21762 -0.29596 0.22293
 C122 C 0.19307 -0.29443 0.24430
 C123 C 0.19267 -0.27095 0.26744
 C124 C 0.21569 -0.24957 0.26888
 C125 C 0.21486 -0.22611 0.29166
 C126 C 0.23793 -0.20476 0.29315
 C127 C 0.26192 -0.20699 0.27143
 H128 H 0.26394 -0.29413 0.18443
 H129 H 0.30483 -0.21622 0.22870
 H130 H 0.21981 -0.31444 0.20586
 H131 H 0.17390 -0.26818 0.28368
 H132 H 0.19648 -0.22472 0.30855
 H133 H 0.27957 -0.19038 0.27222
 C134 C 0.76081 0.28004 0.22420
 C135 C 0.73660 0.28141 0.20290
 C136 C 0.71433 0.25921 0.20398
 C137 C 0.71637 0.23554 0.22683
 C138 C 0.74027 0.23412 0.24852
 C139 C 0.76265 0.25640 0.24716
 C140 C 0.78310 0.30208 0.22284
 C141 C 0.80778 0.30107 0.24403
 C142 C 0.80906 0.27726 0.26713
 C143 C 0.78681 0.25506 0.26877
 C144 C 0.78840 0.23142 0.29166
 C145 C 0.76600 0.20933 0.29337
 C146 C 0.74207 0.21081 0.27162
 H147 H 0.73531 0.29951 0.18507
 H148 H 0.69907 0.21855 0.22802
 H149 H 0.78022 0.32070 0.20579
 H150 H 0.82797 0.27488 0.28322
 H151 H 0.80678 0.23052 0.30853
 H152 H 0.72498 0.19358 0.27248
 O153 O 0.27775 0.02400 0.47306
 O154 O 0.27131 -0.03832 0.53189
 O155 O 0.27087 -0.03587 0.47064
 O156 O 0.27804 0.02114 0.53410
 O157 O 0.22838 0.02947 0.53457
 O158 O 0.22123 -0.02746 0.47124
 O159 O 0.22164 -0.03005 0.53228
 O160 O 0.22812 0.03246 0.47359
 Cu161 Cu 0.27947 -0.00813 0.50226
 Cu162 Cu 0.21987 0.00193 0.50288
 C163 C 0.25409 0.03907 0.46343
 C164 C 0.24537 -0.04471 0.54231
 C165 C 0.24479 -0.04154 0.46019
 C166 C 0.25439 0.03497 0.54528
 O167 O 0.78058 0.02973 0.53058
 O168 O 0.77396 -0.03151 0.47116
 O169 O 0.78176 0.02824 0.46966
 O170 O 0.77349 -0.02991 0.53230
 O171 O 0.72389 -0.02110 0.53157
 O172 O 0.73218 0.03712 0.46879
 O173 O 0.72439 -0.02250 0.47045
 O174 O 0.73096 0.03841 0.52981
 Cu175 Cu 0.78242 -0.00180 0.50096
 Cu176 Cu 0.72289 0.00884 0.50001
 C177 C 0.75686 0.04453 0.54037
 C178 C 0.74798 -0.03750 0.46066
 C179 C 0.75841 0.04278 0.45862
 C180 C 0.74733 -0.03539 0.54277
 O181 O 0.47724 0.28266 0.03479
 O182 O 0.53492 0.28299 -0.02837
 O183 O 0.47581 0.28289 -0.02623
 O184 O 0.53606 0.28495 0.03266
 O185 O 0.53947 0.23368 0.03425
 O186 O 0.47912 0.23161 -0.02567
 O187 O 0.53822 0.23173 -0.02665
 O188 O 0.48096 0.23137 0.03545
 Cu189 Cu 0.50566 0.28851 0.00306
 Cu190 Cu 0.50976 0.22697 0.00436
 C191 C 0.46935 0.25678 0.04593
 C192 C 0.54661 0.25721 -0.03806
 C193 C 0.46699 0.25705 -0.03599
 C194 C 0.54807 0.25982 0.04364
 O195 O 0.51789 0.76722 0.02854
 O196 O 0.45986 0.75985 -0.03239
 O197 O 0.45930 0.76334 0.02874
 O198 O 0.51871 0.76282 -0.03236
 O199 O 0.52380 0.71172 -0.02853
 O200 O 0.46482 0.71224 0.03227
 O201 O 0.46490 0.70874 -0.02875
 O202 O 0.52318 0.71612 0.03231
 Cu203 Cu 0.48839 0.76843 -0.00229
 Cu204 Cu 0.49467 0.70708 0.00211
 C205 C 0.53044 0.74298 0.04093
 C206 C 0.45236 0.73310 -0.04098
 C207 C 0.45207 0.73778 0.04110
 C208 C 0.53154 0.73711 -0.04075
 O209 O 0.03085 0.47431 0.26711
 O210 O -0.03207 0.53384 0.26581
 O211 O -0.02816 0.47316 0.26612
 O212 O 0.02697 0.53509 0.26651
 O213 O 0.02707 0.53519 0.21473
 O214 O -0.02681 0.47296 0.21436
 O215 O -0.03138 0.53344 0.21404
 O216 O 0.03187 0.47483 0.21534
 Cu217 Cu -0.00067 0.50410 0.27161
 Cu218 Cu 0.00025 0.50406 0.20946
 C219 C 0.04217 0.46445 0.24138
 C220 C -0.04245 0.54385 0.23965
 C221 C -0.03682 0.46242 0.24006
 C222 C 0.03628 0.54584 0.24056
 O223 O 0.02876 0.52652 0.77366
 O224 O -0.03056 0.46902 0.77630
 O225 O 0.02879 0.46595 0.77537
 O226 O -0.03042 0.52956 0.77433
 O227 O -0.03076 0.52818 0.72258
 O228 O 0.02772 0.46464 0.72363
 O229 O -0.03104 0.46803 0.72455
 O230 O 0.02823 0.52487 0.72192
 Cu231 Cu -0.00079 0.49787 0.78014
 Cu232 Cu -0.00151 0.49634 0.71802
 C233 C 0.03871 0.53542 0.74726
 C234 C -0.04103 0.45881 0.75078
 C235 C 0.03837 0.45444 0.74958
 C236 C -0.04078 0.53966 0.74818
 C237 C 0.37819 0.25340 0.14258
 C238 C 0.36491 0.22592 0.15236
 C239 C 0.34252 0.22721 0.17543
 C240 C 0.33291 0.25576 0.18863
 C241 C 0.34625 0.28278 0.17787
 N242 N 0.36825 0.28093 0.15549
 C243 C 0.40220 0.25347 0.11818
 N244 N 0.40789 0.28068 0.10326
 C245 C 0.42934 0.28252 0.08043
 C246 C 0.44649 0.25580 0.07127
 C247 C 0.44135 0.22767 0.08670
 C248 C 0.41951 0.22642 0.11020
 H249 H 0.33226 0.20592 0.18253
 H250 H 0.33948 0.30527 0.18749
 H251 H 0.43268 0.30474 0.06927
 H252 H 0.45437 0.20655 0.08076
 H253 H 0.37106 0.20363 0.14205
 H254 H 0.41676 0.20450 0.12208
 C255 C 0.62079 0.75265 0.13737
 C256 C 0.62669 0.77997 0.15360
 C257 C 0.64944 0.77951 0.17630
 C258 C 0.66662 0.75184 0.18340
 C259 C 0.65926 0.72486 0.16688
 N260 N 0.63702 0.72601 0.14487
 C261 C 0.59726 0.75148 0.11265
 N262 N 0.58765 0.72321 0.10390
 C263 C 0.56648 0.71991 0.08119
 C264 C 0.55361 0.74614 0.06561
 C265 C 0.56331 0.77551 0.07401
 C266 C 0.58515 0.77830 0.09733
 H267 H 0.65412 0.80140 0.18713
 H268 H 0.67024 0.70243 0.17196
 H269 H 0.55975 0.69679 0.07542
 H270 H 0.55421 0.79636 0.06241
 H271 H 0.61397 0.80161 0.14915
 H272 H 0.59264 0.80120 0.10262
 C273 C 0.63867 0.25453 -0.13413
 C274 C 0.64712 0.22761 -0.15097
 C275 C 0.66958 0.22858 -0.17384
 C276 C 0.68382 0.25646 -0.18083
 C277 C 0.67413 0.28308 -0.16353
 N278 N 0.65219 0.28142 -0.14121
 C279 C 0.61520 0.25453 -0.10918
 N280 N 0.60052 0.28185 -0.10094
 C281 C 0.57865 0.28346 -0.07836
 C282 C 0.57038 0.25641 -0.06261
 C283 C 0.58556 0.22813 -0.07043
 C284 C 0.60799 0.22710 -0.09341
 H285 H 0.67631 0.20683 -0.18497
 H286 H 0.68299 0.30559 -0.16828
 H287 H 0.56768 0.30580 -0.07290
 H288 H 0.58031 0.20672 -0.05857
 H289 H 0.63652 0.20584 -0.14689
 H290 H 0.61977 0.20504 -0.09816
 C291 C 0.35949 0.72642 -0.13539
 C292 C 0.35136 0.69929 -0.15092
 C293 C 0.32846 0.70113 -0.17354
 C294 C 0.31379 0.72985 -0.18102
 C295 C 0.32272 0.75637 -0.16518
 N296 N 0.34494 0.75400 -0.14317
 C297 C 0.38370 0.72653 -0.11122
 N298 N 0.39416 0.75442 -0.10246
 C299 C 0.41598 0.75703 -0.08033
 C300 C 0.42876 0.73041 -0.06534
 C301 C 0.41833 0.70135 -0.07384
 C302 C 0.39578 0.69929 -0.09660
 H303 H 0.32262 0.68018 -0.18561
 H304 H 0.31181 0.77895 -0.16999
 H305 H 0.42326 0.77994 -0.07451
 H306 H 0.42737 0.68023 -0.06269
 H307 H 0.36267 0.67693 -0.14634
 H308 H 0.38781 0.67661 -0.10203
 C309 C 0.13996 0.37085 0.24402
 C310 C 0.15087 0.35463 0.21745
 C311 C 0.17481 0.33252 0.22057
 C312 C 0.18775 0.32611 0.25007
 C313 C 0.17574 0.34217 0.27618
 N314 N 0.15258 0.36386 0.27253
 C315 C 0.11490 0.39505 0.24221
 N316 N 0.10034 0.40394 0.26915
 C317 C 0.07726 0.42603 0.26955
 C318 C 0.06748 0.44065 0.24157
 C319 C 0.08235 0.43213 0.21359
 C320 C 0.10609 0.40959 0.21380
 H321 H 0.18295 0.32010 0.19995
 H322 H 0.18512 0.33792 0.29935
 H323 H 0.06651 0.43196 0.29170
 H324 H 0.07582 0.44307 0.19150
 H325 H 0.14099 0.35836 0.19448
 H326 H 0.11752 0.40425 0.19191
 C327 C 0.13133 0.62512 0.74326
 C328 C 0.13806 0.64243 0.71640
 C329 C 0.16016 0.66439 0.71775
 C330 C 0.17581 0.66981 0.74592
 C331 C 0.16809 0.65184 0.77236
 N332 N 0.14637 0.63059 0.77036
 C333 C 0.10779 0.60170 0.74329
 N334 N 0.09531 0.59326 0.77114
 C335 C 0.07341 0.57217 0.77307
 C336 C 0.06274 0.55818 0.74580
 C337 C 0.07559 0.56619 0.71691
 C338 C 0.09814 0.58771 0.71555
 H339 H 0.16545 0.67618 0.69610
 H340 H 0.17816 0.65535 0.79507
 H341 H 0.06428 0.56653 0.79588
 H342 H 0.06837 0.55567 0.69532
 H343 H 0.12628 0.63955 0.69447
 H344 H 0.10805 0.59275 0.69300
 C345 C -0.14052 0.63711 0.23848
 C346 C -0.15779 0.64530 0.21184
 C347 C -0.18147 0.66776 0.21413
 C348 C -0.18866 0.68229 0.24301
 C349 C -0.17069 0.67303 0.26917
 N350 N -0.14773 0.65105 0.26624
 C351 C -0.11516 0.61324 0.23764
 N352 N -0.10523 0.60011 0.26515
 C353 C -0.08216 0.57805 0.26644
 C354 C -0.06755 0.56788 0.23882
 C355 C -0.07716 0.58131 0.21023
 C356 C -0.10073 0.60403 0.20952
 H357 H -0.19325 0.67425 0.19268
 H358 H -0.17542 0.68207 0.29235
 H359 H -0.07538 0.56844 0.28903
 H360 H -0.06628 0.57447 0.18837
 H361 H -0.15354 0.63445 0.18936
 H362 H -0.10699 0.61443 0.18717
 C363 C -0.13514 0.37074 0.75344
 C364 C -0.14962 0.36312 0.78155
 C365 C -0.17196 0.34121 0.78141
 C366 C -0.17992 0.32636 0.75332
 C367 C -0.16487 0.33523 0.72566
 N368 N -0.14342 0.35671 0.72650
 C369 C -0.11101 0.39351 0.75246
 N370 N -0.10062 0.40596 0.77950
 C371 C -0.07831 0.42669 0.77965
 C372 C -0.06512 0.43609 0.75134
 C373 C -0.07555 0.42356 0.72325
 C374 C -0.09836 0.40233 0.72371
 H375 H -0.18180 0.33508 0.80372
 H376 H -0.17069 0.32614 0.70298
 H377 H -0.07101 0.43583 0.80186
 H378 H -0.06608 0.43012 0.70085
 H379 H -0.14360 0.37375 0.80350
 H380 H -0.10598 0.39299 0.70171
 C381 C 0.26281 0.14009 0.37497
 C382 C 0.28962 0.15526 0.36855
 C383 C 0.28935 0.17919 0.34631
 C384 C 0.26246 0.18837 0.33062
 C385 C 0.23598 0.17328 0.33836
 N386 N 0.23684 0.14984 0.35992
 C387 C 0.26171 0.11397 0.39776
 N388 N 0.23437 0.10651 0.40969
 C389 C 0.23135 0.08274 0.43045
 C390 C 0.25690 0.06468 0.44041
 C391 C 0.28527 0.07168 0.42815
 C392 C 0.28778 0.09612 0.40680
 H393 H 0.31015 0.19069 0.34155
 H394 H 0.21477 0.17955 0.32673
 H395 H 0.20899 0.07811 0.43920
 H396 H 0.30556 0.05819 0.43494
 H397 H 0.31057 0.14919 0.38066
 H398 H 0.30987 0.10039 0.39723
 C399 C 0.76306 0.14049 0.63368
 C400 C 0.78943 0.14866 0.64951
 C401 C 0.78759 0.17208 0.67205
 C402 C 0.75964 0.18724 0.67918
 C403 C 0.73384 0.17830 0.66307
 N404 N 0.73620 0.15556 0.64110
 C405 C 0.76299 0.11566 0.60960
 N406 N 0.73575 0.10610 0.59948
 C407 C 0.73327 0.08362 0.57752
 C408 C 0.75933 0.06910 0.56425
 C409 C 0.78770 0.07860 0.57412
 C410 C 0.78967 0.10189 0.59660
 H411 H 0.80796 0.17791 0.68438
 H412 H 0.71187 0.18956 0.66768
 H413 H 0.71090 0.07709 0.57059
 H414 H 0.80839 0.06820 0.56430
 H415 H 0.81123 0.13705 0.64525
 H416 H 0.81189 0.10897 0.60312
 C417 C 0.23808 -0.13953 0.63781
 C418 C 0.21147 -0.14688 0.65384
 C419 C 0.21255 -0.17060 0.67631
 C420 C 0.24003 -0.18683 0.68328
 C421 C 0.26621 -0.17831 0.66740
 N422 N 0.26456 -0.15534 0.64536
 C423 C 0.23860 -0.11501 0.61315
 N424 N 0.26597 -0.10535 0.60329
 C425 C 0.26870 -0.08324 0.58071
 C426 C 0.24279 -0.06925 0.56651
 C427 C 0.21434 -0.07897 0.57603
 C428 C 0.21212 -0.10187 0.59912
 H429 H 0.19193 -0.17608 0.68850
 H430 H 0.28785 -0.19034 0.67199
 H431 H 0.29111 -0.07650 0.57406
 H432 H 0.19376 -0.06901 0.56550
 H433 H 0.19001 -0.13451 0.64961
 H434 H 0.18985 -0.10922 0.60529
 C435 C 0.73853 -0.13418 0.36867
 C436 C 0.71164 -0.14901 0.36197
 C437 C 0.71172 -0.17198 0.33900
 C438 C 0.73849 -0.18053 0.32283
 C439 C 0.76502 -0.16570 0.33071
 N440 N 0.76436 -0.14322 0.35304
 C441 C 0.73985 -0.10925 0.39244
 N442 N 0.76726 -0.10262 0.40466
 C443 C 0.77045 -0.07994 0.42633
 C444 C 0.74502 -0.06216 0.43693
 C445 C 0.71659 -0.06834 0.42442
 C446 C 0.71390 -0.09168 0.40216
 H447 H 0.69090 -0.18335 0.33416
 H448 H 0.78614 -0.17149 0.31873
 H449 H 0.79284 -0.07589 0.43524
 H450 H 0.69639 -0.05501 0.43166
 H451 H 0.69080 -0.14349 0.37450
 H452 H 0.69179 -0.09529 0.39241
 C453 C 0.62690 0.73748 -0.13324
 C454 C 0.63831 0.71101 -0.14940
 C455 C 0.66164 0.71380 -0.17118
 C456 C 0.67351 0.74286 -0.17728
 C457 C 0.66121 0.76880 -0.16104
 N458 N 0.63861 0.76549 -0.13977
 C459 C 0.60223 0.73615 -0.10966
 N460 N 0.58681 0.76308 -0.10147
 C461 C 0.56417 0.76400 -0.07979
 C462 C 0.55584 0.73660 -0.06474
 C463 C 0.57152 0.70861 -0.07264
 C464 C 0.59473 0.70827 -0.09488
 H465 H 0.67002 0.69332 -0.18371
 H466 H 0.66981 0.79163 -0.16492
 H467 H 0.55279 0.78614 -0.07433
 H468 H 0.56610 0.68695 -0.06138
 H469 H 0.62914 0.68843 -0.14592
 H470 H 0.60686 0.68643 -0.09973
 C471 C 0.37064 0.25515 -0.12702
 C472 C 0.35936 0.28155 -0.14366
 C473 C 0.33593 0.27876 -0.16519
 C474 C 0.32384 0.24976 -0.17063
 C475 C 0.33607 0.22384 -0.15404
 N476 N 0.35875 0.22716 -0.13294
 C477 C 0.39537 0.25665 -0.10359
 N478 N 0.41075 0.22981 -0.09473
 C479 C 0.43360 0.22923 -0.07331
 C480 C 0.44225 0.25691 -0.05939
 C481 C 0.42653 0.28477 -0.06792
 C482 C 0.40307 0.28475 -0.08974
 H483 H 0.32765 0.29919 -0.17808
 H484 H 0.32735 0.20105 -0.15752
 H485 H 0.44501 0.20719 -0.06730
 H486 H 0.43212 0.30664 -0.05748
 H487 H 0.36869 0.30409 -0.14078
 H488 H 0.39096 0.30654 -0.09503
 C489 C 0.35953 0.73778 0.13654
 C490 C 0.34395 0.71127 0.14453
 C491 C 0.32081 0.71335 0.16674
 C492 C 0.31247 0.74192 0.18124
 C493 C 0.32895 0.76793 0.17244
 N494 N 0.35138 0.76524 0.15058
 C495 C 0.38390 0.73697 0.11254
 N496 N 0.39069 0.76386 0.09765
 C497 C 0.41236 0.76482 0.07498
 C498 C 0.42869 0.73750 0.06601
 C499 C 0.42242 0.70965 0.08142
 C500 C 0.40027 0.70929 0.10472
 H501 H 0.31028 0.69203 0.17303
 H502 H 0.32331 0.79082 0.18164
 H503 H 0.41662 0.78686 0.06389
 H504 H 0.43474 0.68808 0.07562
 H505 H 0.34905 0.68906 0.13354
 H506 H 0.39651 0.68757 0.11661
 C507 C 0.64212 0.26375 0.13696
 C508 C 0.65032 0.29096 0.15228
 C509 C 0.67381 0.28942 0.17414
 C510 C 0.68894 0.26088 0.18123
 C511 C 0.67961 0.23412 0.16609
 N512 N 0.65686 0.23622 0.14461
 C513 C 0.61780 0.26386 0.11295
 N514 N 0.60602 0.23634 0.10487
 C515 C 0.58391 0.23437 0.08288
 C516 C 0.57227 0.26126 0.06748
 C517 C 0.58425 0.28982 0.07520
 C518 C 0.60703 0.29123 0.09766
 H519 H 0.67990 0.31050 0.18583
 H520 H 0.69076 0.21165 0.17086
 H521 H 0.57541 0.21183 0.07758
 H522 H 0.57622 0.31113 0.06365
 H523 H 0.63869 0.31322 0.14800
 H524 H 0.61625 0.31352 0.10231
 C525 C -0.13519 0.63689 0.74663
 C526 C -0.14282 0.65512 0.72018
 C527 C -0.16621 0.67793 0.72201
 C528 C -0.18230 0.68330 0.75029
 C529 C -0.17339 0.66462 0.77639
 N530 N -0.15049 0.64249 0.77390
 C531 C -0.11074 0.61202 0.74598
 N532 N -0.09809 0.60192 0.77358
 C533 C -0.07575 0.57906 0.77494
 C534 C -0.06486 0.56480 0.74731
 C535 C -0.07775 0.57464 0.71864
 C536 C -0.10070 0.59803 0.71786
 H537 H -0.17218 0.69032 0.70060
 H538 H -0.18363 0.66810 0.79922
 H539 H -0.06658 0.57208 0.79758
 H540 H -0.07035 0.56406 0.69677
 H541 H -0.13088 0.65218 0.69816
 H542 H -0.11069 0.60439 0.69546
 C543 C -0.12481 0.36786 0.23848
 C544 C -0.14161 0.36098 0.21173
 C545 C -0.16355 0.33887 0.21351
 C546 C -0.16947 0.32337 0.24200
 C547 C -0.15195 0.33120 0.26829
 N548 N -0.13071 0.35295 0.26588
 C549 C -0.10153 0.39158 0.23802
 N550 N -0.09353 0.40494 0.26553
 C551 C -0.07279 0.42726 0.26690
 C552 C -0.05879 0.43753 0.23937
 C553 C -0.06627 0.42367 0.21087
 C554 C -0.08738 0.40066 0.21010
 H555 H -0.17500 0.33344 0.19196
 H556 H -0.15581 0.32126 0.29121
 H557 H -0.06755 0.43716 0.28942
 H558 H -0.05572 0.43051 0.18910
 H559 H -0.13835 0.37270 0.18956
 H560 H -0.09210 0.39000 0.18783
 C561 C 0.13394 0.35840 0.75022
 C562 C 0.14938 0.34802 0.72305
 C563 C 0.17265 0.32509 0.72550
 C564 C 0.18098 0.31262 0.75488
 C565 C 0.16553 0.32404 0.78155
 N566 N 0.14272 0.34624 0.77857
 C567 C 0.10885 0.38261 0.74912
 N568 N 0.10056 0.39764 0.77609
 C569 C 0.07799 0.42028 0.77699
 C570 C 0.06229 0.42915 0.74949
 C571 C 0.07009 0.41363 0.72155
 C572 C 0.09309 0.39031 0.72128
 H573 H 0.18449 0.31746 0.70443
 H574 H 0.17125 0.31500 0.80466
 H575 H 0.07263 0.43154 0.79909
 H576 H 0.05831 0.41940 0.69986
 H577 H 0.14419 0.35768 0.70012
 H578 H 0.09794 0.37838 0.69947
 C579 C 0.12417 0.64046 0.23918
 C580 C 0.14085 0.64751 0.21228
 C581 C 0.16317 0.66918 0.21390
 C582 C 0.16965 0.68404 0.24240
 C583 C 0.15213 0.67621 0.26883
 N584 N 0.13050 0.65487 0.26657
 C585 C 0.10068 0.61697 0.23884
 N586 N 0.09294 0.60297 0.26627
 C587 C 0.07222 0.58058 0.26759
 C588 C 0.05807 0.57090 0.24007
 C589 C 0.06522 0.58551 0.21168
 C590 C 0.08624 0.60860 0.21098
 H591 H 0.17453 0.67474 0.19225
 H592 H 0.15633 0.68577 0.29172
 H593 H 0.06719 0.57011 0.29003
 H594 H 0.05450 0.57917 0.18995
 H595 H 0.13726 0.63619 0.19010
 H596 H 0.09071 0.61981 0.18880
 C597 C 0.73836 -0.12654 0.64149
 C598 C 0.71173 -0.14129 0.64971
 C599 C 0.71278 -0.16436 0.67291
 C600 C 0.74022 -0.17299 0.68784
 C601 C 0.76624 -0.15759 0.67908
 N602 N 0.76467 -0.13523 0.65644
 C603 C 0.73928 -0.10274 0.61624
 N604 N 0.76666 -0.09646 0.60362
 C605 C 0.76975 -0.07519 0.58031
 C606 C 0.74421 -0.05857 0.56822
 C607 C 0.71574 -0.06437 0.58104
 C608 C 0.71316 -0.08629 0.60507
 H609 H 0.69229 -0.17608 0.67852
 H610 H 0.78782 -0.16329 0.69021
 H611 H 0.79217 -0.07138 0.57126
 H612 H 0.69546 -0.05186 0.57264
 H613 H 0.69046 -0.13595 0.63792
 H614 H 0.69101 -0.08975 0.61490
 C615 C 0.23568 -0.13376 0.36338
 C616 C 0.20901 -0.14011 0.34708
 C617 C 0.20973 -0.16333 0.32431
 C618 C 0.23691 -0.18007 0.31736
 C619 C 0.26311 -0.17276 0.33379
 N620 N 0.26182 -0.15022 0.35603
 C621 C 0.23668 -0.10957 0.38806
 N622 N 0.26425 -0.10066 0.39795
 C623 C 0.26741 -0.07903 0.42069
 C624 C 0.24176 -0.06484 0.43509
 C625 C 0.21309 -0.07368 0.42540
 C626 C 0.21043 -0.09605 0.40211
 H627 H 0.18913 -0.16783 0.31173
 H628 H 0.28452 -0.18523 0.32929
 H629 H 0.28998 -0.07300 0.42746
 H630 H 0.19268 -0.06357 0.43609
 H631 H 0.18782 -0.12721 0.35121
 H632 H 0.18800 -0.10280 0.39588
 C633 C 0.76874 0.13769 0.36369
 C634 C 0.79556 0.14489 0.34792
 C635 C 0.79476 0.16847 0.32524
 C636 C 0.76738 0.18472 0.31791
 C637 C 0.74114 0.17677 0.33405
 N638 N 0.74249 0.15387 0.35613
 C639 C 0.76755 0.11280 0.38790
 N640 N 0.73986 0.10386 0.39753
 C641 C 0.73638 0.08158 0.41978
 C642 C 0.76185 0.06670 0.43395
 C643 C 0.79066 0.07550 0.42450
 C644 C 0.79364 0.09855 0.40167
 H645 H 0.81542 0.17356 0.31293
 H646 H 0.71959 0.18892 0.32934
 H647 H 0.71372 0.07560 0.42637
 H648 H 0.81093 0.06483 0.43502
 H649 H 0.81689 0.13235 0.35233
 H650 H 0.81617 0.10518 0.39557
 C651 C 0.26173 0.12383 0.64530
 C652 C 0.28827 0.13810 0.65446
 C653 C 0.28683 0.16055 0.67801
 C654 C 0.25907 0.16905 0.69235
 C655 C 0.23314 0.15415 0.68266
 N656 N 0.23511 0.13238 0.65970
 C657 C 0.26125 0.10066 0.61970
 N658 N 0.23408 0.09469 0.60654
 C659 C 0.23137 0.07396 0.58291
 C660 C 0.25710 0.05761 0.57102
 C661 C 0.28536 0.06311 0.58437
 C662 C 0.28754 0.08446 0.60873
 H663 H 0.30727 0.17191 0.68437
 H664 H 0.21132 0.15978 0.69330
 H665 H 0.20910 0.07037 0.57345
 H666 H 0.30577 0.05078 0.57615
 H667 H 0.30981 0.13287 0.64316
 H668 H 0.30953 0.08766 0.61895
   
