data_POSCAR
  _audit_creation_date              2014-09-24
  _audit_creation_method            'ToBaCCo'
  _symmetry_space_group_name_H-M    'P1'
  _symmetry_Int_Tables_number       1
  _symmetry_cell_setting            triclinic
  loop_
  _symmetry_equiv_pos_as_xyz
 x,y,z
_cell_length_a 20.4487
_cell_length_b 21.1480
_cell_length_c 19.6342
_cell_angle_alpha 91.655100
_cell_angle_beta 90.858700
_cell_angle_gamma 89.105200
loop_
  _atom_site_label
  _atom_site_type_symbol
  _atom_site_fract_x
  _atom_site_fract_y
  _atom_site_fract_z
Si1 Si 1.24168 0.25120 0.23404
 Si2 Si 0.75901 -0.23447 0.25083
 Si3 Si 0.75373 0.25332 -0.26398
 Si4 Si 1.27062 -0.26039 -0.23734
 Si5 Si 0.24570 0.25579 0.75448
 Si6 Si 0.73287 0.74776 0.75597
 Si7 Si 0.76015 0.23964 0.26993
 Si8 Si 0.23454 0.74814 0.24280
 N9 N 1.11130 0.04998 0.07896
 N10 N 1.15412 0.09207 0.10131
 N11 N 1.05914 -0.08461 0.10384
 N12 N 1.06460 -0.13660 0.13982
 N13 N 1.10792 -0.08202 0.06123
 N14 N 1.14778 -0.13127 0.06694
 N15 N 1.06239 0.04747 0.12142
 N16 N 1.07047 0.08671 0.17402
 C17 C 1.12729 0.11429 0.16028
 C18 C 1.12089 -0.16425 0.11676
 N19 N 0.87432 -0.06526 0.04218
 N20 N 0.82285 -0.10085 0.05186
 N21 N 0.92195 0.05853 0.10763
 N22 N 0.90463 0.09851 0.15770
 N23 N 0.88352 0.06665 0.05416
 N24 N 0.83996 0.11199 0.06560
 N25 N 0.91817 -0.07370 0.09082
 N26 N 0.89822 -0.11482 0.13457
 Mn27 Mn 0.99036 -0.01333 0.10663
 C28 C 0.83958 -0.13207 0.10890
 C29 C 0.85411 0.13191 0.12965
 N30 N 1.11768 -0.07186 -0.08401
 N31 N 1.15985 -0.11799 -0.09866
 N32 N 1.08327 0.06518 -0.11926
 N33 N 1.10303 0.10950 -0.16014
 N34 N 1.12381 0.06002 -0.06711
 N35 N 1.17270 0.09956 -0.07147
 N36 N 1.07369 -0.06712 -0.13311
 N37 N 1.08393 -0.10965 -0.18216
 Mn38 Mn 1.11590 -0.01077 -0.00260
 C39 C 1.13718 -0.14113 -0.15956
 C40 C 1.15826 0.13087 -0.12875
 N41 N 0.89430 0.07542 -0.09163
 N42 N 0.85254 0.12076 -0.10893
 N43 N 0.93345 -0.05777 -0.14619
 N44 N 0.92205 -0.10091 -0.19503
 N45 N 0.88561 -0.05656 -0.10230
 N46 N 0.84070 -0.09831 -0.11915
 N47 N 0.94486 0.07480 -0.13201
 N48 N 0.94023 0.12006 -0.17646
 Mn49 Mn 0.88391 0.00528 -0.02443
 Mn50 Mn 1.00886 0.00359 -0.13333
 Cl51 Cl 0.99983 -0.00381 -0.01332
 C52 C 0.88315 0.14872 -0.16084
 C53 C 0.86422 -0.12567 -0.17670
 N54 N 1.10757 0.57395 0.59238
 N55 N 1.15324 0.61267 0.61543
 N56 N 1.05319 0.44367 0.63088
 N57 N 1.05838 0.40149 0.67907
 N58 N 1.10504 0.44146 0.59196
 N59 N 1.14731 0.39832 0.61306
 N60 N 1.05642 0.57636 0.63243
 N61 N 1.06680 0.61626 0.68453
 C62 C 1.12664 0.63949 0.67199
 C63 C 1.11698 0.37354 0.66664
 N64 N 0.87584 0.44747 0.55216
 N65 N 0.82826 0.40631 0.55662
 N66 N 0.91474 0.58020 0.60751
 N67 N 0.89089 0.62162 0.65276
 N68 N 0.87870 0.58032 0.55152
 N69 N 0.83045 0.62216 0.55637
 N70 N 0.91369 0.44665 0.60678
 N71 N 0.89324 0.40429 0.64974
 Mn72 Mn 0.98443 0.51189 0.62018
 C73 C 0.84047 0.37906 0.61701
 C74 C 0.83931 0.64808 0.61910
 N75 N 1.12692 0.43701 0.44616
 N76 N 1.17313 0.39292 0.43878
 N77 N 1.09151 0.57129 0.39388
 N78 N 1.11168 0.61314 0.35059
 N79 N 1.13028 0.57028 0.44783
 N80 N 1.17836 0.61097 0.44240
 N81 N 1.08857 0.43789 0.39185
 N82 N 1.10724 0.39442 0.34633
 Mn83 Mn 1.11798 0.50555 0.51975
 C84 C 1.15925 0.36619 0.37681
 C85 C 1.16520 0.63809 0.38208
 N86 N 0.90051 0.57673 0.40850
 N87 N 0.85812 0.62017 0.38833
 N88 N 0.94938 0.44203 0.36800
 N89 N 0.94320 0.39602 0.32143
 N90 N 0.89876 0.44400 0.40841
 N91 N 0.85701 0.39940 0.39133
 N92 N 0.95195 0.57477 0.36921
 N93 N 0.94574 0.61646 0.32059
 Mn94 Mn 0.88814 0.51209 0.48000
 Mn95 Mn 1.02051 0.50655 0.38007
 Cl96 Cl 1.00288 0.50910 0.50015
 C97 C 0.88755 0.64492 0.33423
 C98 C 0.88574 0.36978 0.33763
 N99 N 0.60571 0.06293 0.57113
 N100 N 0.64778 0.10818 0.58738
 N101 N 0.56925 -0.07817 0.60006
 N102 N 0.59145 -0.12104 0.64260
 N103 N 0.61190 -0.06964 0.55179
 N104 N 0.66421 -0.10627 0.56059
 N105 N 0.56573 0.05424 0.62174
 N106 N 0.57909 0.09334 0.67348
 C107 C 0.62956 0.12707 0.65108
 C108 C 0.64989 -0.13911 0.61628
 N109 N 0.37751 -0.07261 0.56818
 N110 N 0.33027 -0.11201 0.58057
 N111 N 0.42659 0.05179 0.63276
 N112 N 0.41889 0.08947 0.68688
 N113 N 0.37860 0.05970 0.58840
 N114 N 0.33686 0.10346 0.61107
 N115 N 0.42673 -0.07995 0.61124
 N116 N 0.41341 -0.12447 0.65495
 Mn117 Mn 0.49720 -0.01360 0.61687
 C118 C 0.35369 -0.14478 0.63351
 C119 C 0.36339 0.12176 0.67206
 N120 N 0.59739 -0.05619 0.40697
 N121 N 0.64214 -0.09767 0.38648
 N122 N 0.54412 0.07766 0.37965
 N123 N 0.55476 0.12003 0.33302
 N124 N 0.59298 0.07584 0.42395
 N125 N 0.63844 0.11632 0.40791
 N126 N 0.54742 -0.05524 0.36395
 N127 N 0.55705 -0.09618 0.31267
 Mn128 Mn 0.60246 0.00362 0.48840
 C129 C 0.61604 -0.12245 0.32818
 C130 C 0.61304 0.14447 0.35218
 N131 N 0.36362 0.07325 0.44170
 N132 N 0.31318 0.11222 0.43285
 N133 N 0.40475 -0.05654 0.37394
 N134 N 0.38082 -0.08766 0.31985
 N135 N 0.36385 -0.05935 0.42473
 N136 N 0.31224 -0.09294 0.40651
 N137 N 0.40428 0.07642 0.39071
 N138 N 0.38323 0.11840 0.34664
 Mn139 Mn 0.37064 0.00069 0.50598
 Mn140 Mn 0.47519 0.01026 0.37650
 Cl141 Cl 0.48638 0.00017 0.49684
 C142 C 0.32720 0.14115 0.37443
 C143 C 0.32441 -0.11262 0.34183
 N144 N 0.62011 0.56608 0.10221
 N145 N 0.66247 0.61026 0.11991
 N146 N 0.57337 0.43848 0.15104
 N147 N 0.58058 0.39775 0.20058
 N148 N 0.62205 0.43246 0.10820
 N149 N 0.66351 0.38745 0.12724
 N150 N 0.56855 0.57059 0.14133
 N151 N 0.57479 0.61659 0.18751
 C152 C 0.63271 0.64155 0.17238
 C153 C 0.63631 0.36570 0.18436
 N154 N 0.39447 0.42970 0.08096
 N155 N 0.34973 0.38774 0.09530
 N156 N 0.42666 0.56881 0.12305
 N157 N 0.40211 0.61331 0.16508
 N158 N 0.38840 0.56201 0.06898
 N159 N 0.33838 0.60192 0.07172
 N160 N 0.43514 0.43710 0.13293
 N161 N 0.42024 0.40086 0.18334
 Mn162 Mn 0.50098 0.50424 0.13759
 C163 C 0.36789 0.37004 0.15894
 C164 C 0.34774 0.63417 0.13100
 N165 N 0.63927 0.42331 -0.03936
 N166 N 0.68965 0.38478 -0.05197
 N167 N 0.59657 0.55401 -0.09459
 N168 N 0.61301 0.59590 -0.13978
 N169 N 0.63748 0.55579 -0.04239
 N170 N 0.68315 0.59826 -0.05063
 N171 N 0.59751 0.42115 -0.09094
 N172 N 0.61736 0.38120 -0.13906
 Mn173 Mn 0.63050 0.49404 0.03250
 C174 C 0.67399 0.35823 -0.11374
 C175 C 0.66650 0.62348 -0.11091
 N176 N 0.40503 0.55034 -0.07498
 N177 N 0.36266 0.59411 -0.09456
 N178 N 0.45865 0.41830 -0.10989
 N179 N 0.44690 0.37995 -0.16293
 N180 N 0.40976 0.41777 -0.06706
 N181 N 0.36374 0.37909 -0.09010
 N182 N 0.45717 0.55054 -0.11311
 N183 N 0.45234 0.59396 -0.15963
 Mn184 Mn 0.39882 0.48944 0.00198
 Mn185 Mn 0.52754 0.48623 -0.10243
 Cl186 Cl 0.51444 0.49328 0.01739
 C187 C 0.39357 0.62069 -0.14694
 C188 C 0.38847 0.35469 -0.14892
 N189 N 1.19932 0.19581 0.18111
 N190 N 1.15655 0.16021 0.20450
 N191 N 1.21723 0.70058 0.70232
 N192 N 1.16339 0.67712 0.71996
 N193 N 0.70901 0.20652 0.67371
 N194 N 0.66466 0.17063 0.69457
 N195 N 0.71273 0.71665 0.19378
 N196 N 0.66422 0.68711 0.21531
 N197 N 0.81449 -0.19155 0.20208
 N198 N 0.79575 -0.16917 0.14560
 N199 N 0.81312 0.30227 0.69703
 N200 N 0.79672 0.33549 0.64638
 N201 N 0.33233 -0.21962 0.71834
 N202 N 0.31248 -0.18471 0.67059
 N203 N 0.28433 0.29854 0.17707
 N204 N 0.33220 0.32969 0.20037
 N205 N 0.79181 0.19979 -0.20688
 N206 N 0.85340 0.19383 -0.20411
 N207 N 0.80256 0.71537 0.30787
 N208 N 0.85624 0.68904 0.29052
 N209 N 0.29921 0.20948 0.28666
 N210 N 0.28138 0.18013 0.33863
 N211 N 0.30535 0.68190 -0.18359
 N212 N 0.36540 0.66772 -0.18852
 N213 N 1.22823 -0.20392 -0.18524
 N214 N 1.17011 -0.18771 -0.20014
 N215 N 1.18710 0.30168 0.28233
 N216 N 1.20118 0.32121 0.34258
 N217 N 0.70959 -0.17984 0.29944
 N218 N 0.65010 -0.16710 0.28526
 N219 N 0.70018 0.30225 -0.21392
 N220 N 0.71662 0.31845 -0.15315
 N221 N 1.18530 0.20947 -0.20578
 N222 N 1.20268 0.17330 -0.15812
 N223 N 1.18817 0.70611 0.29560
 N224 N 1.20848 0.68001 0.34953
 N225 N 0.70954 0.19439 0.32343
 N226 N 0.64952 0.18469 0.31004
 N227 N 0.68304 0.69853 -0.19396
 N228 N 0.70624 0.66768 -0.14441
 N229 N 0.77672 -0.19505 -0.19332
 N230 N 0.82973 -0.17295 -0.21536
 N231 N 0.80463 0.29501 0.32139
 N232 N 0.85477 0.32117 0.29816
 N233 N 0.25887 -0.18328 0.27680
 N234 N 0.27202 -0.12882 0.29594
 N235 N 0.29739 0.29365 -0.18216
 N236 N 0.35093 0.31881 -0.19810
 N237 N 1.18412 -0.23605 0.17830
 N238 N 1.14287 -0.22659 0.13310
 N239 N 1.20692 0.31490 0.70438
 N240 N 1.14618 0.32709 0.70897
 N241 N 0.67795 -0.21150 0.69957
 N242 N 0.69687 -0.17696 0.65207
 N243 N 0.71352 0.28447 0.20888
 N244 N 0.66843 0.32240 0.22917
 N245 N 0.81688 0.18595 0.22908
 N246 N 0.81322 0.17670 0.16510
 N247 N 0.79191 0.69794 0.71393
 N248 N 0.79228 0.68988 0.64980
 N249 N 0.29053 0.20478 0.69738
 N250 N 0.33296 0.16547 0.71873
 N251 N 0.29948 0.70220 0.21686
 N252 N 0.29883 0.67746 0.15709
   
