data_POSCAR
  _audit_creation_date              2014-09-24
  _audit_creation_method            'ToBaCCo'
  _symmetry_space_group_name_H-M    'P1'
  _symmetry_Int_Tables_number       1
  _symmetry_cell_setting            triclinic
  loop_
  _symmetry_equiv_pos_as_xyz
 x,y,z
_cell_length_a 54.9344
_cell_length_b 55.3222
_cell_length_c 55.3003
_cell_angle_alpha 90.057600
_cell_angle_beta 90.041400
_cell_angle_gamma 89.918100
loop_
  _atom_site_label
  _atom_site_type_symbol
  _atom_site_fract_x
  _atom_site_fract_y
  _atom_site_fract_z
N1 N 0.27509 0.22641 0.20835
 N2 N 0.26513 0.24618 0.19966
 C3 C 0.27783 0.25338 0.18012
 C4 C 0.29683 0.23729 0.17637
 C5 C 0.29445 0.22039 0.19471
 H6 H 0.27378 0.26938 0.16966
 H7 H 0.30589 0.20481 0.19793
 Cu8 Cu 0.23682 0.26077 0.21507
 Cu9 Cu 0.26243 0.21004 0.23688
 Cu10 Cu 0.21198 0.23569 0.26452
 N11 N 0.20851 0.27501 0.23081
 N12 N 0.19891 0.26509 0.25013
 C13 C 0.17979 0.27844 0.25746
 C14 C 0.17716 0.29791 0.24190
 C15 C 0.19579 0.29507 0.22519
 H16 H 0.16868 0.27418 0.27299
 H17 H 0.19993 0.30679 0.21014
 N18 N 0.22777 0.20599 0.27638
 N19 N 0.24695 0.19619 0.26589
 C20 C 0.25357 0.17633 0.27837
 C21 C 0.23781 0.17347 0.29771
 C22 C 0.22169 0.19265 0.29580
 H23 H 0.26898 0.16502 0.27393
 H24 H 0.20660 0.19663 0.30767
 H25 H 0.22696 0.22184 0.23316
 H26 H 0.24738 0.24040 0.25274
 N27 N 0.72556 -0.22753 0.20822
 N28 N 0.73653 -0.24629 0.19856
 C29 C 0.72405 -0.25334 0.17880
 C30 C 0.70402 -0.23821 0.17586
 C31 C 0.70573 -0.22202 0.19503
 H32 H 0.72908 -0.26862 0.16769
 H33 H 0.69355 -0.20727 0.19924
 Cu34 Cu 0.76566 -0.26030 0.21305
 Cu35 Cu 0.73766 -0.21163 0.23722
 Cu36 Cu 0.78816 -0.23696 0.26480
 N37 N 0.79327 -0.27489 0.22976
 N38 N 0.80189 -0.26575 0.24993
 C39 C 0.82060 -0.27942 0.25769
 C40 C 0.82404 -0.29837 0.24152
 C41 C 0.80621 -0.29477 0.22400
 H42 H 0.83077 -0.27575 0.27400
 H43 H 0.80269 -0.30579 0.20825
 N44 N 0.77181 -0.20779 0.27717
 N45 N 0.75258 -0.19809 0.26667
 C46 C 0.74565 -0.17847 0.27938
 C47 C 0.76125 -0.17566 0.29889
 C48 C 0.77760 -0.19463 0.29683
 H49 H 0.73020 -0.16722 0.27490
 H50 H 0.79273 -0.19851 0.30869
 H51 H 0.77362 -0.22206 0.23366
 H52 H 0.75336 -0.24249 0.25150
 N53 N 0.72529 0.22801 0.79258
 N54 N 0.73479 0.24800 0.80125
 C55 C 0.72188 0.25505 0.82074
 C56 C 0.70322 0.23860 0.82448
 C57 C 0.70602 0.22169 0.80619
 H58 H 0.72551 0.27117 0.83115
 H59 H 0.69489 0.20594 0.80292
 Cu60 Cu 0.76261 0.26313 0.78555
 Cu61 Cu 0.73820 0.21181 0.76402
 Cu62 Cu 0.78806 0.23835 0.73624
 N63 N 0.79070 0.27785 0.76994
 N64 N 0.80052 0.26803 0.75064
 C65 C 0.81925 0.28180 0.74320
 C66 C 0.82142 0.30151 0.75864
 C67 C 0.80286 0.29825 0.77544
 H68 H 0.83026 0.27769 0.72755
 H69 H 0.79835 0.30984 0.79049
 N70 N 0.77286 0.20832 0.72440
 N71 N 0.75391 0.19821 0.73496
 C72 C 0.74760 0.17827 0.72247
 C73 C 0.76331 0.17565 0.70304
 C74 C 0.77908 0.19508 0.70492
 H75 H 0.73242 0.16674 0.72696
 H76 H 0.79401 0.19931 0.69296
 H77 H 0.77339 0.22430 0.76765
 H78 H 0.75253 0.24228 0.74798
 N79 N 0.27576 -0.22811 0.79279
 N80 N 0.26560 -0.24755 0.80190
 C81 C 0.27848 -0.25473 0.82136
 C82 C 0.29780 -0.23896 0.82464
 C83 C 0.29541 -0.22228 0.80610
 H84 H 0.27435 -0.27053 0.83207
 H85 H 0.30707 -0.20698 0.80250
 Cu86 Cu 0.23684 -0.26197 0.78716
 Cu87 Cu 0.26306 -0.21200 0.76414
 Cu88 Cu 0.21288 -0.23795 0.73651
 N89 N 0.20912 -0.27668 0.77081
 N90 N 0.19989 -0.26722 0.75105
 C91 C 0.18116 -0.28091 0.74345
 C92 C 0.17833 -0.30020 0.75929
 C93 C 0.19655 -0.29678 0.77646
 H94 H 0.17052 -0.27699 0.72750
 H95 H 0.20052 -0.30804 0.79190
 N96 N 0.22853 -0.20831 0.72447
 N97 N 0.24759 -0.19836 0.73500
 C98 C 0.25411 -0.17855 0.72243
 C99 C 0.23843 -0.17588 0.70297
 C100 C 0.22244 -0.19512 0.70492
 H101 H 0.26941 -0.16714 0.72691
 H102 H 0.20742 -0.19924 0.69300
 H103 H 0.22746 -0.22345 0.76777
 H104 H 0.24805 -0.24281 0.74907
 N105 N 0.71926 -0.23474 0.78576
 N106 N 0.72843 -0.25550 0.79282
 C107 C 0.71594 -0.26346 0.81217
 C108 C 0.69786 -0.24678 0.81757
 C109 C 0.70060 -0.22878 0.80032
 H110 H 0.71983 -0.28016 0.82152
 H111 H 0.68992 -0.21249 0.79842
 Cu112 Cu 0.75573 -0.27031 0.77616
 Cu113 Cu 0.73212 -0.21705 0.75819
 Cu114 Cu 0.78562 -0.23884 0.73340
 N115 N 0.78779 -0.27991 0.76498
 N116 N 0.79950 -0.26756 0.74842
 C117 C 0.82096 -0.27842 0.74391
 C118 C 0.82290 -0.29886 0.75842
 C119 C 0.80135 -0.29906 0.77160
 H120 H 0.83392 -0.27196 0.73073
 H121 H 0.79569 -0.31211 0.78497
 N122 N 0.76856 -0.21011 0.72082
 N123 N 0.74811 -0.20185 0.73021
 C124 C 0.74071 -0.18248 0.71744
 C125 C 0.75727 -0.17827 0.69902
 C126 C 0.77469 -0.19623 0.70181
 H127 H 0.72431 -0.17236 0.72120
 H128 H 0.79057 -0.19921 0.69070
 H129 H 0.74924 -0.24533 0.74040
 H130 H 0.76706 -0.22954 0.76457
 N131 N 0.27940 0.23345 0.78694
 N132 N 0.26826 0.25214 0.79656
 C133 C 0.28080 0.25954 0.81614
 C134 C 0.30094 0.24468 0.81899
 C135 C 0.29939 0.22832 0.80004
 H136 H 0.27554 0.27454 0.82754
 H137 H 0.31191 0.21381 0.79589
 Cu138 Cu 0.23847 0.26491 0.78251
 Cu139 Cu 0.26718 0.21711 0.75821
 Cu140 Cu 0.21402 0.23956 0.73283
 N141 N 0.20870 0.27735 0.76813
 N142 N 0.19917 0.26737 0.74875
 C143 C 0.17889 0.27959 0.74254
 C144 C 0.17552 0.29831 0.75889
 C145 C 0.19483 0.29625 0.77489
 H146 H 0.16769 0.27535 0.72702
 H147 H 0.19853 0.30765 0.79033
 N148 N 0.23181 0.21155 0.71948
 N149 N 0.25202 0.20303 0.72915
 C150 C 0.25969 0.18394 0.71607
 C151 C 0.24356 0.18018 0.69716
 C152 C 0.22611 0.19811 0.69997
 H153 H 0.27582 0.17352 0.72011
 H154 H 0.21038 0.20121 0.68867
 H155 H 0.24919 0.24669 0.74379
 H156 H 0.23091 0.22599 0.76325
 N157 N 0.27860 -0.23129 0.20970
 N158 N 0.26747 -0.24979 0.19977
 C159 C 0.28033 -0.25730 0.18045
 C160 C 0.30066 -0.24268 0.17807
 C161 C 0.29889 -0.22635 0.19703
 H162 H 0.27520 -0.27224 0.16895
 H163 H 0.31148 -0.21204 0.20150
 Cu164 Cu 0.23738 -0.26252 0.21308
 Cu165 Cu 0.26606 -0.21503 0.23832
 Cu166 Cu 0.21298 -0.23779 0.26323
 N167 N 0.20824 -0.27562 0.22801
 N168 N 0.19858 -0.26577 0.24739
 C169 C 0.17891 -0.27866 0.25402
 C170 C 0.17619 -0.29775 0.23802
 C171 C 0.19515 -0.29520 0.22175
 H172 H 0.16789 -0.27487 0.26976
 H173 H 0.19921 -0.30683 0.20657
 N174 N 0.23029 -0.20963 0.27664
 N175 N 0.25055 -0.20103 0.26722
 C176 C 0.25808 -0.18209 0.28057
 C177 C 0.24181 -0.17852 0.29938
 C178 C 0.22441 -0.19639 0.29623
 H179 H 0.27430 -0.17175 0.27686
 H180 H 0.20868 -0.19969 0.30744
 H181 H 0.24822 -0.24496 0.25207
 H182 H 0.22992 -0.22382 0.23298
 N183 N 0.71999 0.23329 0.21210
 N184 N 0.73072 0.25236 0.20284
 C185 C 0.71815 0.25969 0.18325
 C186 C 0.69843 0.24442 0.18003
 C187 C 0.70026 0.22787 0.19877
 H188 H 0.72309 0.27496 0.17215
 H189 H 0.68809 0.21304 0.20262
 Cu190 Cu 0.75995 0.26576 0.21740
 Cu191 Cu 0.73231 0.21695 0.24078
 Cu192 Cu 0.78493 0.24004 0.26660
 N193 N 0.78967 0.27825 0.23180
 N194 N 0.79938 0.26813 0.25101
 C195 C 0.81955 0.28042 0.25731
 C196 C 0.82268 0.29934 0.24120
 C197 C 0.80332 0.29732 0.22524
 H198 H 0.83084 0.27609 0.27272
 H199 H 0.79946 0.30885 0.20995
 N200 N 0.76757 0.21175 0.27966
 N201 N 0.74757 0.20296 0.26983
 C202 C 0.74008 0.18382 0.28288
 C203 C 0.75613 0.18030 0.30191
 C204 C 0.77332 0.19843 0.29922
 H205 H 0.72410 0.17324 0.27876
 H206 H 0.78885 0.20182 0.31071
 H207 H 0.74956 0.24663 0.25575
 H208 H 0.76833 0.22665 0.23588
 C209 C 0.25008 0.01094 0.49969
 C210 C 0.25008 -0.01363 0.50066
 C211 C 0.24988 -0.02870 0.47843
 C212 C 0.24936 -0.02695 0.52395
 C213 C 0.25000 0.02604 0.52189
 C214 C 0.24924 0.02425 0.47639
 C215 C 0.23111 -0.04551 0.47504
 C216 C 0.23059 -0.06009 0.45446
 C217 C 0.24897 -0.05830 0.43689
 C218 C 0.26795 -0.04161 0.44043
 C219 C 0.26841 -0.02693 0.46105
 C220 C 0.23018 -0.02362 0.54039
 C221 C 0.22899 -0.03748 0.56150
 C222 C 0.24689 -0.05501 0.56645
 C223 C 0.26613 -0.05815 0.54999
 C224 C 0.26728 -0.04432 0.52892
 C225 C 0.26865 0.02430 0.53918
 C226 C 0.26844 0.03923 0.55964
 C227 C 0.24957 0.05611 0.56309
 C228 C 0.23102 0.05778 0.54567
 C229 C 0.23129 0.04298 0.52525
 C230 C 0.26715 0.04155 0.47134
 C231 C 0.26590 0.05536 0.45026
 C232 C 0.24658 0.05226 0.43386
 C233 C 0.22871 0.03478 0.43889
 C234 C 0.22998 0.02096 0.46002
 H235 H 0.21675 -0.04726 0.48834
 H236 H 0.21598 -0.07307 0.45248
 H237 H 0.28231 -0.03978 0.42715
 H238 H 0.28323 -0.01428 0.46353
 H239 H 0.21592 -0.01062 0.53666
 H240 H 0.21403 -0.03456 0.57389
 H241 H 0.28206 -0.04734 0.51631
 H242 H 0.28343 0.01156 0.53671
 H243 H 0.28293 0.03750 0.57281
 H244 H 0.21649 0.07090 0.54759
 H245 H 0.21685 0.04471 0.51202
 H246 H 0.28199 0.04453 0.48390
 H247 H 0.27970 0.06895 0.44715
 H248 H 0.21369 0.03188 0.42654
 H249 H 0.21572 0.00800 0.46382
 H250 H 0.27995 -0.07178 0.55305
 C251 C 0.75032 0.01315 0.50078
 C252 C 0.75011 -0.01143 0.49995
 C253 C 0.75028 -0.02633 0.52226
 C254 C 0.75063 -0.02494 0.47674
 C255 C 0.75032 0.02807 0.47849
 C256 C 0.75138 0.02660 0.52399
 C257 C 0.76892 -0.04333 0.52565
 C258 C 0.76933 -0.05787 0.54623
 C259 C 0.75097 -0.05584 0.56380
 C260 C 0.73216 -0.03891 0.56031
 C261 C 0.73181 -0.02427 0.53968
 C262 C 0.76972 -0.02185 0.46016
 C263 C 0.77076 -0.03594 0.43916
 C264 C 0.75284 -0.05348 0.43449
 C265 C 0.73369 -0.05636 0.45109
 C266 C 0.73266 -0.04229 0.47202
 C267 C 0.73150 0.02637 0.46138
 C268 C 0.73164 0.04111 0.44082
 C269 C 0.75061 0.05775 0.43708
 C270 C 0.76933 0.05940 0.45433
 C271 C 0.76912 0.04479 0.47486
 C272 C 0.73356 0.04403 0.52911
 C273 C 0.73497 0.05789 0.55016
 C274 C 0.75437 0.05474 0.56645
 C275 C 0.77219 0.03717 0.56133
 C276 C 0.77075 0.02328 0.54024
 H277 H 0.78323 -0.04530 0.51232
 H278 H 0.78381 -0.07102 0.54818
 H279 H 0.71783 -0.03690 0.57360
 H280 H 0.71709 -0.01147 0.53721
 H281 H 0.78402 -0.00887 0.46369
 H282 H 0.78564 -0.03320 0.42665
 H283 H 0.71796 -0.04511 0.48475
 H284 H 0.71665 0.01380 0.46406
 H285 H 0.71703 0.03941 0.42778
 H286 H 0.78394 0.07235 0.45217
 H287 H 0.78369 0.04649 0.48796
 H288 H 0.71864 0.04703 0.51665
 H289 H 0.72120 0.07155 0.55336
 H290 H 0.78727 0.03424 0.57360
 H291 H 0.78493 0.01022 0.53638
 H292 H 0.71986 -0.07000 0.44824
 C293 C 0.49983 0.25144 -0.01246
 C294 C 0.49894 0.25148 0.01213
 C295 C 0.52136 0.25144 0.02708
 C296 C 0.47556 0.25066 0.02560
 C297 C 0.47740 0.25136 -0.02740
 C298 C 0.52321 0.25070 -0.02595
 C299 C 0.52500 0.23276 0.04381
 C300 C 0.54569 0.23247 0.05842
 C301 C 0.56308 0.25098 0.05674
 C302 C 0.55933 0.26984 0.04008
 C303 C 0.53861 0.27006 0.02535
 C304 C 0.45897 0.23167 0.02221
 C305 C 0.43783 0.23035 0.03624
 C306 C 0.43301 0.24788 0.05407
 C307 C 0.44963 0.26693 0.05727
 C308 C 0.47070 0.26824 0.04324
 C309 C 0.46010 0.26998 -0.02565
 C310 C 0.43939 0.26976 -0.04038
 C311 C 0.43569 0.25091 -0.05707
 C312 C 0.45312 0.23237 -0.05875
 C313 C 0.47380 0.23267 -0.04414
 C314 C 0.52791 0.26826 -0.04360
 C315 C 0.54898 0.26701 -0.05766
 C316 C 0.56576 0.24806 -0.05445
 C317 C 0.56108 0.23054 -0.03662
 C318 C 0.53994 0.23179 -0.02257
 H319 H 0.51179 0.21834 0.04552
 H320 H 0.54787 0.21795 0.07137
 H321 H 0.57249 0.28429 0.03838
 H322 H 0.53592 0.28480 0.01275
 H323 H 0.46261 0.21764 0.00903
 H324 H 0.42532 0.21554 0.03323
 H325 H 0.48343 0.28287 0.04633
 H326 H 0.46276 0.28473 -0.01303
 H327 H 0.42620 0.28423 -0.03865
 H328 H 0.45098 0.21785 -0.07173
 H329 H 0.48705 0.21824 -0.04586
 H330 H 0.51508 0.28282 -0.04668
 H331 H 0.55178 0.28054 -0.07151
 H332 H 0.57371 0.21581 -0.03361
 H333 H 0.53641 0.21776 -0.00939
 H334 H 0.44671 0.28047 0.07112
 C335 C 0.50111 0.74723 -0.01201
 C336 C 0.50202 0.74746 0.01259
 C337 C 0.52540 0.74818 0.02614
 C338 C 0.47956 0.74782 0.02746
 C339 C 0.47770 0.74808 -0.02548
 C340 C 0.52350 0.74704 -0.02697
 C341 C 0.52975 0.73109 0.04436
 C342 C 0.55078 0.73236 0.05849
 C343 C 0.56794 0.75083 0.05476
 C344 C 0.56364 0.76785 0.03633
 C345 C 0.54248 0.76664 0.02228
 C346 C 0.46218 0.72930 0.02580
 C347 C 0.44139 0.72983 0.04038
 C348 C 0.43769 0.74888 0.05686
 C349 C 0.45522 0.76728 0.05850
 C350 C 0.47598 0.76669 0.04403
 C351 C 0.46123 0.76725 -0.02233
 C352 C 0.44005 0.76855 -0.03634
 C353 C 0.43506 0.75081 -0.05391
 C354 C 0.45156 0.73157 -0.05686
 C355 C 0.47268 0.73028 -0.04285
 C356 C 0.52713 0.76555 -0.04387
 C357 C 0.54782 0.76568 -0.05844
 C358 C 0.56525 0.74716 -0.05655
 C359 C 0.56151 0.72846 -0.03974
 C360 C 0.54077 0.72840 -0.02505
 H361 H 0.51666 0.71690 0.04784
 H362 H 0.55324 0.71924 0.07280
 H363 H 0.57655 0.78219 0.03286
 H364 H 0.53924 0.78035 0.00868
 H365 H 0.46482 0.71442 0.01333
 H366 H 0.42813 0.71546 0.03869
 H367 H 0.48929 0.78103 0.04568
 H368 H 0.46499 0.78143 -0.00935
 H369 H 0.42764 0.78350 -0.03352
 H370 H 0.44850 0.71785 -0.07050
 H371 H 0.48530 0.71550 -0.04575
 H372 H 0.51391 0.77998 -0.04572
 H373 H 0.54997 0.78007 -0.07152
 H374 H 0.57468 0.71400 -0.03788
 H375 H 0.53811 0.71380 -0.01230
 H376 H 0.45309 0.78194 0.07132
 C377 C 0.01251 0.50036 0.25016
 C378 C -0.01225 0.49997 0.24988
 C379 C -0.02608 0.47696 0.24909
 C380 C -0.02705 0.52245 0.24964
 C381 C 0.02657 0.52327 0.25007
 C382 C 0.02717 0.47779 0.24974
 C383 C -0.02303 0.46047 0.23002
 C384 C -0.03703 0.43940 0.22906
 C385 C -0.05447 0.43459 0.24704
 C386 C -0.05741 0.45118 0.26609
 C387 C -0.04341 0.47218 0.26704
 C388 C -0.04396 0.52601 0.23097
 C389 C -0.05848 0.54670 0.23047
 C390 C -0.05653 0.56425 0.24876
 C391 C -0.03970 0.56059 0.26761
 C392 C -0.02510 0.53983 0.26807
 C393 C 0.04452 0.52695 0.26774
 C394 C 0.05937 0.54736 0.26696
 C395 C 0.05660 0.56449 0.24843
 C396 C 0.03831 0.56106 0.23097
 C397 C 0.02354 0.54049 0.23166
 C398 C 0.02519 0.46040 0.26811
 C399 C 0.03975 0.43961 0.26760
 C400 C 0.05651 0.43592 0.24871
 C401 C 0.05841 0.45343 0.23042
 C402 C 0.04396 0.47417 0.23100
 H403 H -0.01004 0.46406 0.21575
 H404 H -0.03426 0.42690 0.21423
 H405 H -0.07099 0.44823 0.27995
 H406 H -0.04619 0.48484 0.28174
 H407 H -0.04587 0.51272 0.21669
 H408 H -0.07157 0.54875 0.21597
 H409 H -0.01240 0.53723 0.28283
 H410 H 0.04720 0.51382 0.28203
 H411 H 0.07315 0.54969 0.28078
 H412 H 0.03604 0.57384 0.21632
 H413 H 0.01019 0.53771 0.21751
 H414 H 0.01255 0.46304 0.28290
 H415 H 0.03782 0.42637 0.28188
 H416 H 0.07144 0.45132 0.21589
 H417 H 0.04587 0.48747 0.21676
 H418 H -0.03774 0.57384 0.28190
 C419 C 0.01197 0.50030 0.75140
 C420 C -0.01277 0.50169 0.75149
 C421 C -0.02846 0.47981 0.75159
 C422 C -0.02575 0.52524 0.75213
 C423 C 0.02756 0.52224 0.75161
 C424 C 0.02501 0.47679 0.75183
 C425 C -0.02676 0.46215 0.73339
 C426 C -0.04251 0.44226 0.73339
 C427 C -0.06041 0.43989 0.75142
 C428 C -0.06193 0.45757 0.76962
 C429 C -0.04618 0.47732 0.76965
 C430 C -0.04314 0.53041 0.73431
 C431 C -0.05664 0.55175 0.73529
 C432 C -0.05314 0.56835 0.75422
 C433 C -0.03557 0.56321 0.77203
 C434 C -0.02207 0.54178 0.77105
 C435 C 0.04484 0.52511 0.77006
 C436 C 0.05997 0.54533 0.77054
 C437 C 0.05826 0.56310 0.75246
 C438 C 0.04109 0.56009 0.73381
 C439 C 0.02589 0.53980 0.73336
 C440 C 0.02153 0.46022 0.77071
 C441 C 0.03511 0.43884 0.77154
 C442 C 0.05253 0.43376 0.75359
 C443 C 0.05579 0.45036 0.73465
 C444 C 0.04222 0.47168 0.73383
 H445 H -0.01352 0.46396 0.71901
 H446 H -0.04109 0.42906 0.71899
 H447 H -0.07525 0.45606 0.78396
 H448 H -0.04782 0.49073 0.78384
 H449 H -0.04642 0.51773 0.71973
 H450 H -0.07034 0.55491 0.72157
 H451 H -0.00904 0.53791 0.78523
 H452 H 0.04655 0.51166 0.78420
 H453 H 0.07331 0.54688 0.78489
 H454 H 0.03928 0.57352 0.71969
 H455 H 0.01291 0.53773 0.71876
 H456 H 0.00862 0.46405 0.78500
 H457 H 0.03209 0.42634 0.78629
 H458 H 0.06936 0.44722 0.72080
 H459 H 0.04532 0.48437 0.71926
 H460 H -0.03236 0.57570 0.78677
 C461 C 0.35254 0.24060 0.12145
 C462 C 0.35504 0.22510 0.14142
 C463 C 0.33692 0.22391 0.15910
 C464 C 0.31585 0.23824 0.15730
 C465 C 0.31327 0.25365 0.13725
 C466 C 0.33140 0.25482 0.11954
 C467 C 0.37220 0.24229 0.10306
 C468 C 0.37897 0.26480 0.09342
 C469 C 0.39832 0.26655 0.07711
 C470 C 0.41136 0.24584 0.07005
 C471 C 0.40423 0.22325 0.07926
 C472 C 0.38488 0.22151 0.09556
 H473 H 0.33974 0.21202 0.17437
 H474 H 0.29720 0.26476 0.13506
 H475 H 0.40317 0.28418 0.07013
 H476 H 0.41404 0.20698 0.07438
 H477 H 0.32876 0.26670 0.10421
 H478 H 0.36972 0.28119 0.09897
 H479 H 0.37129 0.21422 0.14367
 H480 H 0.37992 0.20386 0.10240
 C481 C 0.64885 0.75816 0.12193
 C482 C 0.64755 0.77532 0.14061
 C483 C 0.66578 0.77667 0.15820
 C484 C 0.68585 0.76074 0.15777
 C485 C 0.68712 0.74364 0.13887
 C486 C 0.66893 0.74243 0.12121
 C487 C 0.62902 0.75636 0.10365
 C488 C 0.62113 0.73368 0.09526
 C489 C 0.60175 0.73192 0.07897
 C490 C 0.58966 0.75278 0.07074
 C491 C 0.59787 0.77549 0.07874
 C492 C 0.61734 0.77726 0.09494
 H493 H 0.66370 0.79008 0.17227
 H494 H 0.70216 0.73111 0.13743
 H495 H 0.59612 0.71417 0.07292
 H496 H 0.58884 0.79191 0.07299
 H497 H 0.67070 0.72923 0.10684
 H498 H 0.62953 0.71721 0.10175
 H499 H 0.63214 0.78746 0.14199
 H500 H 0.62317 0.79503 0.10074
 C501 C 0.64690 0.24134 -0.12116
 C502 C 0.64487 0.22572 -0.14112
 C503 C 0.66319 0.22471 -0.15861
 C504 C 0.68402 0.23933 -0.15662
 C505 C 0.68612 0.25485 -0.13657
 C506 C 0.66780 0.25582 -0.11905
 C507 C 0.62699 0.24290 -0.10302
 C508 C 0.61986 0.26537 -0.09346
 C509 C 0.60036 0.26699 -0.07731
 C510 C 0.58749 0.24617 -0.07034
 C511 C 0.59494 0.22364 -0.07951
 C512 C 0.61446 0.22202 -0.09564
 H513 H 0.66073 0.21274 -0.17388
 H514 H 0.70198 0.26618 -0.13424
 H515 H 0.59525 0.28458 -0.07035
 H516 H 0.58528 0.20729 -0.07472
 H517 H 0.67008 0.26778 -0.10371
 H518 H 0.62896 0.28183 -0.09892
 H519 H 0.62882 0.21463 -0.14354
 H520 H 0.61970 0.20441 -0.10242
 C521 C 0.35416 0.75771 -0.12098
 C522 C 0.35659 0.77288 -0.14121
 C523 C 0.33829 0.77404 -0.15873
 C524 C 0.31708 0.76002 -0.15652
 C525 C 0.31459 0.74492 -0.13622
 C526 C 0.33291 0.74378 -0.11867
 C527 C 0.37396 0.75613 -0.10269
 C528 C 0.38064 0.73372 -0.09270
 C529 C 0.40010 0.73207 -0.07647
 C530 C 0.41334 0.75278 -0.06984
 C531 C 0.40629 0.77527 -0.07938
 C532 C 0.38683 0.77692 -0.09561
 H533 H 0.34105 0.78567 -0.17419
 H534 H 0.29843 0.73405 -0.13372
 H535 H 0.40489 0.71452 -0.06921
 H536 H 0.41623 0.79153 -0.07483
 H537 H 0.33033 0.73215 -0.10315
 H538 H 0.37124 0.71734 -0.09791
 H539 H 0.37292 0.78351 -0.14377
 H540 H 0.38193 0.79450 -0.10271
 C541 C 0.12358 0.35506 0.24525
 C542 C 0.14005 0.35367 0.22586
 C543 C 0.15733 0.33515 0.22475
 C544 C 0.15864 0.31753 0.24302
 C545 C 0.14210 0.31893 0.26240
 C546 C 0.12481 0.33747 0.26351
 C547 C 0.10539 0.37494 0.24645
 C548 C 0.10020 0.38652 0.26851
 C549 C 0.08389 0.40595 0.26938
 C550 C 0.07247 0.41424 0.24820
 C551 C 0.07722 0.40228 0.22627
 C552 C 0.09346 0.38286 0.22541
 H553 H 0.16963 0.33479 0.20950
 H554 H 0.14244 0.30579 0.27686
 H555 H 0.08082 0.41499 0.28649
 H556 H 0.06836 0.40798 0.20972
 H557 H 0.11221 0.33790 0.27856
 H558 H 0.10928 0.38103 0.28500
 H559 H 0.13982 0.36714 0.21167
 H560 H 0.09668 0.37401 0.20823
 C561 C 0.12607 0.64325 0.75591
 C562 C 0.12644 0.66144 0.73825
 C563 C 0.14359 0.68007 0.73934
 C564 C 0.16095 0.68101 0.75816
 C565 C 0.16047 0.66262 0.77580
 C566 C 0.14328 0.64406 0.77468
 C567 C 0.10790 0.62341 0.75478
 C568 C 0.09661 0.61506 0.77597
 C569 C 0.08019 0.59583 0.77511
 C570 C 0.07468 0.58443 0.75305
 C571 C 0.08558 0.59308 0.73177
 C572 C 0.10201 0.61236 0.73262
 H573 H 0.14301 0.69365 0.72532
 H574 H 0.17332 0.66229 0.79060
 H575 H 0.07173 0.58990 0.79176
 H576 H 0.08193 0.58451 0.71454
 H577 H 0.14369 0.63009 0.78838
 H578 H 0.10039 0.62350 0.79324
 H579 H 0.11323 0.66146 0.72370
 H580 H 0.11062 0.61821 0.71602
 C581 C -0.12340 0.64524 0.24515
 C582 C -0.14014 0.64630 0.22599
 C583 C -0.15741 0.66483 0.22477
 C584 C -0.15845 0.68292 0.24272
 C585 C -0.14155 0.68174 0.26192
 C586 C -0.12431 0.66315 0.26311
 C587 C -0.10523 0.62536 0.24641
 C588 C -0.09988 0.61399 0.26853
 C589 C -0.08365 0.59450 0.26942
 C590 C -0.07244 0.58597 0.24822
 C591 C -0.07732 0.59775 0.22624
 C592 C -0.09352 0.61720 0.22534
 H593 H -0.16989 0.66468 0.20966
 H594 H -0.14139 0.69510 0.27619
 H595 H -0.08047 0.58562 0.28658
 H596 H -0.06861 0.59188 0.20967
 H597 H -0.11148 0.66297 0.27798
 H598 H -0.10880 0.61970 0.28503
 H599 H -0.14016 0.63253 0.21205
 H600 H -0.09687 0.62590 0.20812
 C601 C -0.12802 0.35953 0.75445
 C602 C -0.14540 0.35868 0.77304
 C603 C -0.16194 0.33958 0.77450
 C604 C -0.16163 0.32068 0.75735
 C605 C -0.14400 0.32157 0.73881
 C606 C -0.12744 0.34071 0.73742
 C607 C -0.11074 0.38012 0.75283
 C608 C -0.08616 0.37633 0.74677
 C609 C -0.06985 0.39572 0.74597
 C610 C -0.07776 0.41931 0.75124
 C611 C -0.10242 0.42313 0.75683
 C612 C -0.11870 0.40379 0.75760
 H613 H -0.17490 0.33987 0.78919
 H614 H -0.14287 0.30766 0.72512
 H615 H -0.05092 0.39218 0.74182
 H616 H -0.10919 0.44115 0.76049
 H617 H -0.11442 0.34098 0.72272
 H618 H -0.07942 0.35828 0.74322
 H619 H -0.14608 0.37273 0.78668
 H620 H -0.13761 0.40741 0.76179
 C621 C 0.24005 0.11873 0.35322
 C622 C 0.25399 0.11619 0.33207
 C623 C 0.25316 0.13384 0.31400
 C624 C 0.23838 0.15445 0.31665
 C625 C 0.22430 0.15684 0.33774
 C626 C 0.22514 0.13922 0.35579
 C627 C 0.24148 0.10047 0.37287
 C628 C 0.22049 0.09369 0.38570
 C629 C 0.22207 0.07762 0.40513
 C630 C 0.24466 0.06796 0.41216
 C631 C 0.26555 0.07427 0.39894
 C632 C 0.26398 0.09034 0.37951
 H633 H 0.26406 0.13119 0.29793
 H634 H 0.21289 0.17251 0.34064
 H635 H 0.20568 0.07330 0.41508
 H636 H 0.28318 0.06691 0.40374
 H637 H 0.21450 0.14193 0.37205
 H638 H 0.20284 0.10094 0.38082
 H639 H 0.26542 0.10045 0.32941
 H640 H 0.28051 0.09534 0.37013
 C641 C 0.76126 0.12109 0.64726
 C642 C 0.77600 0.14166 0.64471
 C643 C 0.77681 0.15922 0.66286
 C644 C 0.76288 0.15667 0.68403
 C645 C 0.74831 0.13596 0.68666
 C646 C 0.74750 0.11839 0.66849
 C647 C 0.75976 0.10293 0.62751
 C648 C 0.73725 0.09278 0.62099
 C649 C 0.73559 0.07674 0.60153
 C650 C 0.75640 0.07044 0.58816
 C651 C 0.77901 0.08012 0.59503
 C652 C 0.78067 0.09620 0.61447
 H653 H 0.78806 0.17498 0.65999
 H654 H 0.73754 0.13317 0.70277
 H655 H 0.71795 0.06938 0.59683
 H656 H 0.79534 0.07580 0.58495
 H657 H 0.73621 0.10258 0.67113
 H658 H 0.72077 0.09776 0.63053
 H659 H 0.78651 0.14448 0.62840
 H660 H 0.79832 0.10349 0.61923
 C661 C 0.24059 -0.12146 0.64713
 C662 C 0.22579 -0.14201 0.64459
 C663 C 0.22498 -0.15953 0.66275
 C664 C 0.23896 -0.15698 0.68391
 C665 C 0.25362 -0.13631 0.68652
 C666 C 0.25443 -0.11877 0.66834
 C667 C 0.24197 -0.10328 0.62741
 C668 C 0.26445 -0.09314 0.62079
 C669 C 0.26597 -0.07707 0.60136
 C670 C 0.24505 -0.07075 0.58813
 C671 C 0.22249 -0.08043 0.59512
 C672 C 0.22097 -0.09652 0.61453
 H673 H 0.21366 -0.17526 0.65989
 H674 H 0.26443 -0.13352 0.70263
 H675 H 0.28357 -0.06970 0.59657
 H676 H 0.20607 -0.07610 0.58516
 H677 H 0.26576 -0.10298 0.67096
 H678 H 0.28099 -0.09812 0.63022
 H679 H 0.21522 -0.14482 0.62830
 H680 H 0.20335 -0.10378 0.61939
 C681 C 0.75876 -0.12098 0.35455
 C682 C 0.74481 -0.11849 0.33339
 C683 C 0.74566 -0.13615 0.31529
 C684 C 0.76049 -0.15673 0.31794
 C685 C 0.77451 -0.15912 0.33909
 C686 C 0.77365 -0.14148 0.35716
 C687 C 0.75745 -0.10259 0.37410
 C688 C 0.77852 -0.09566 0.38676
 C689 C 0.77710 -0.07931 0.40598
 C690 C 0.75457 -0.06951 0.41300
 C691 C 0.73357 -0.07601 0.39999
 C692 C 0.73499 -0.09236 0.38076
 H693 H 0.73479 -0.13350 0.29919
 H694 H 0.78593 -0.17479 0.34198
 H695 H 0.79357 -0.07486 0.41578
 H696 H 0.71599 -0.06856 0.40480
 H697 H 0.78429 -0.14415 0.37343
 H698 H 0.79613 -0.10300 0.38186
 H699 H 0.73339 -0.10274 0.33071
 H700 H 0.71840 -0.09747 0.37151
 C701 C 0.64422 0.74983 -0.12553
 C702 C 0.66175 0.73149 -0.12798
 C703 C 0.67921 0.73260 -0.14634
 C704 C 0.67950 0.75206 -0.16272
 C705 C 0.66193 0.77039 -0.16017
 C706 C 0.64453 0.76928 -0.14183
 C707 C 0.62533 0.74863 -0.10640
 C708 C 0.61818 0.76967 -0.09404
 C709 C 0.59915 0.76901 -0.07735
 C710 C 0.58686 0.74728 -0.07260
 C711 C 0.59456 0.72604 -0.08426
 C712 C 0.61360 0.72671 -0.10102
 H713 H 0.69242 0.71815 -0.14758
 H714 H 0.66135 0.78562 -0.17238
 H715 H 0.59390 0.78557 -0.06829
 H716 H 0.58526 0.70909 -0.08111
 H717 H 0.63100 0.78349 -0.14069
 H718 H 0.62721 0.78673 -0.09740
 H719 H 0.66211 0.71639 -0.11555
 H720 H 0.61855 0.71024 -0.11042
 C721 C 0.35610 0.24815 -0.12554
 C722 C 0.33870 0.26664 -0.12775
 C723 C 0.32080 0.26554 -0.14570
 C724 C 0.31990 0.24592 -0.16189
 C725 C 0.33733 0.22743 -0.15961
 C726 C 0.35519 0.22854 -0.14167
 C727 C 0.37537 0.24930 -0.10674
 C728 C 0.38256 0.22829 -0.09438
 C729 C 0.40174 0.22897 -0.07782
 C730 C 0.41413 0.25069 -0.07320
 C731 C 0.40645 0.27189 -0.08493
 C732 C 0.38726 0.27120 -0.10156
 H733 H 0.30781 0.28019 -0.14688
 H734 H 0.33727 0.21198 -0.17159
 H735 H 0.40700 0.21245 -0.06871
 H736 H 0.41584 0.28882 -0.08191
 H737 H 0.36856 0.21417 -0.14068
 H738 H 0.37342 0.21126 -0.09759
 H739 H 0.33879 0.28189 -0.11545
 H740 H 0.38230 0.28764 -0.11097
 C741 C 0.35705 0.75300 0.12397
 C742 C 0.33945 0.73472 0.12583
 C743 C 0.32114 0.73611 0.14333
 C744 C 0.32003 0.75582 0.15940
 C745 C 0.33768 0.77409 0.15748
 C746 C 0.35596 0.77269 0.14001
 C747 C 0.37671 0.75153 0.10563
 C748 C 0.38431 0.77238 0.09328
 C749 C 0.40372 0.77137 0.07704
 C750 C 0.41597 0.74948 0.07274
 C751 C 0.40795 0.72846 0.08452
 C752 C 0.38853 0.72948 0.10083
 H753 H 0.30799 0.72162 0.14424
 H754 H 0.33747 0.78959 0.16940
 H755 H 0.40923 0.78777 0.06788
 H756 H 0.41722 0.71139 0.08175
 H757 H 0.36947 0.78690 0.13928
 H758 H 0.37524 0.78953 0.09621
 H759 H 0.33969 0.71943 0.11360
 H760 H 0.38326 0.71316 0.11025
 C761 C 0.64302 0.24788 0.12479
 C762 C 0.66033 0.26642 0.12701
 C763 C 0.67835 0.26528 0.14485
 C764 C 0.67945 0.24559 0.16091
 C765 C 0.66213 0.22704 0.15858
 C766 C 0.64415 0.22819 0.14077
 C767 C 0.62361 0.24912 0.10614
 C768 C 0.61639 0.22816 0.09369
 C769 C 0.59714 0.22894 0.07722
 C770 C 0.58470 0.25069 0.07278
 C771 C 0.59238 0.27182 0.08463
 C772 C 0.61162 0.27104 0.10118
 H773 H 0.69126 0.27997 0.14604
 H774 H 0.66234 0.21155 0.17047
 H775 H 0.59189 0.21246 0.06802
 H776 H 0.58295 0.28878 0.08174
 H777 H 0.63085 0.21379 0.13978
 H778 H 0.62559 0.21111 0.09674
 H779 H 0.66007 0.28172 0.11482
 H780 H 0.61659 0.28743 0.11068
 C781 C -0.12043 0.64878 0.75923
 C782 C -0.11862 0.66943 0.74461
 C783 C -0.13710 0.68682 0.74452
 C784 C -0.15798 0.68406 0.75910
 C785 C -0.15940 0.66352 0.77411
 C786 C -0.14094 0.64614 0.77411
 C787 C -0.10157 0.62953 0.75828
 C788 C -0.09449 0.61722 0.77938
 C789 C -0.07821 0.59782 0.77817
 C790 C -0.06862 0.59031 0.75584
 C791 C -0.07505 0.60315 0.73486
 C792 C -0.09135 0.62251 0.73606
 H793 H -0.13486 0.70229 0.73283
 H794 H -0.17492 0.66036 0.78567
 H795 H -0.07378 0.58819 0.79463
 H796 H -0.06772 0.59801 0.71743
 H797 H -0.14309 0.63026 0.78532
 H798 H -0.10177 0.62240 0.79682
 H799 H -0.10286 0.67217 0.73319
 H800 H -0.09657 0.63147 0.71945
 C801 C -0.12169 0.35425 0.24218
 C802 C -0.14247 0.35688 0.22761
 C803 C -0.16038 0.33901 0.22717
 C804 C -0.15799 0.31805 0.24134
 C805 C -0.13709 0.31533 0.25580
 C806 C -0.11915 0.33323 0.25621
 C807 C -0.10314 0.37372 0.24317
 C808 C -0.09267 0.38056 0.26534
 C809 C -0.07642 0.39993 0.26651
 C810 C -0.07027 0.41290 0.24554
 C811 C -0.08022 0.40564 0.22327
 C812 C -0.09646 0.38627 0.22210
 H813 H -0.17630 0.34195 0.21602
 H814 H -0.13447 0.29934 0.26675
 H815 H -0.06881 0.40491 0.28388
 H816 H -0.07601 0.41538 0.20683
 H817 H -0.10319 0.33054 0.26740
 H818 H -0.09759 0.37139 0.28192
 H819 H -0.14519 0.37306 0.21693
 H820 H -0.10397 0.38122 0.20471
 C821 C 0.11949 0.35301 0.75835
 C822 C 0.11713 0.33210 0.74409
 C823 C 0.13520 0.31426 0.74437
 C824 C 0.15603 0.31693 0.75893
 C825 C 0.15819 0.33773 0.77339
 C826 C 0.14017 0.35555 0.77307
 C827 C 0.10088 0.37250 0.75741
 C828 C 0.09408 0.38498 0.77851
 C829 C 0.07787 0.40443 0.77737
 C830 C 0.06809 0.41184 0.75509
 C831 C 0.07427 0.39888 0.73410
 C832 C 0.09048 0.37943 0.73524
 H833 H 0.13273 0.29837 0.73323
 H834 H 0.17402 0.34062 0.78465
 H835 H 0.07361 0.41415 0.79384
 H836 H 0.06677 0.40395 0.71671
 H837 H 0.14275 0.37163 0.78395
 H838 H 0.10150 0.37985 0.79592
 H839 H 0.10125 0.32947 0.73279
 H840 H 0.09546 0.37029 0.71864
 C841 C 0.12368 0.64468 0.24134
 C842 C 0.11903 0.66683 0.25288
 C843 C 0.13603 0.68560 0.25174
 C844 C 0.15787 0.68266 0.23883
 C845 C 0.16226 0.66061 0.22695
 C846 C 0.14540 0.64182 0.22827
 C847 C 0.10629 0.62433 0.24334
 C848 C 0.11485 0.60092 0.24825
 C849 C 0.09866 0.58160 0.25003
 C850 C 0.07355 0.58524 0.24679
 C851 C 0.06494 0.60864 0.24182
 C852 C 0.08116 0.62806 0.24026
 H853 H 0.13201 0.70242 0.26093
 H854 H 0.17893 0.65763 0.21697
 H855 H 0.10582 0.56371 0.25363
 H856 H 0.04566 0.61193 0.23938
 H857 H 0.14932 0.62500 0.21900
 H858 H 0.13410 0.59758 0.25093
 H859 H 0.10249 0.66944 0.26320
 H860 H 0.07413 0.64593 0.23631
 C861 C 0.75421 -0.12327 0.64372
 C862 C 0.73596 -0.12470 0.66143
 C863 C 0.73700 -0.14241 0.67944
 C864 C 0.75629 -0.15917 0.68013
 C865 C 0.77459 -0.15759 0.66242
 C866 C 0.77354 -0.13989 0.64447
 C867 C 0.75301 -0.10480 0.62428
 C868 C 0.77426 -0.09304 0.61648
 C869 C 0.77345 -0.07673 0.59725
 C870 C 0.75139 -0.07178 0.58536
 C871 C 0.73000 -0.08298 0.59359
 C872 C 0.73080 -0.09934 0.61284
 H873 H 0.72258 -0.14287 0.69272
 H874 H 0.78973 -0.17007 0.66219
 H875 H 0.79015 -0.06803 0.59159
 H876 H 0.71278 -0.07971 0.58460
 H877 H 0.78771 -0.13951 0.63086
 H878 H 0.79155 -0.09649 0.62524
 H879 H 0.72097 -0.11197 0.66150
 H880 H 0.71417 -0.10831 0.61826
 C881 C 0.24526 -0.12491 0.35612
 C882 C 0.22581 -0.14132 0.35495
 C883 C 0.22465 -0.15859 0.33655
 C884 C 0.24294 -0.15993 0.31882
 C885 C 0.26238 -0.14342 0.31997
 C886 C 0.26353 -0.12614 0.33841
 C887 C 0.24655 -0.10681 0.37594
 C888 C 0.26879 -0.10167 0.38744
 C889 C 0.26971 -0.08552 0.40689
 C890 C 0.24840 -0.07420 0.41526
 C891 C 0.22628 -0.07889 0.40338
 C892 C 0.22537 -0.09499 0.38394
 H893 H 0.20939 -0.17090 0.33644
 H894 H 0.27682 -0.14374 0.30671
 H895 H 0.28696 -0.08247 0.41587
 H896 H 0.20964 -0.07009 0.40914
 H897 H 0.27862 -0.11357 0.33866
 H898 H 0.28537 -0.11070 0.38188
 H899 H 0.21163 -0.14109 0.36854
 H900 H 0.20805 -0.09819 0.37514
 C901 C 0.75306 0.12565 0.35753
 C902 C 0.77275 0.14178 0.35631
 C903 C 0.77376 0.15942 0.33829
 C904 C 0.75507 0.16143 0.32101
 C905 C 0.73535 0.14524 0.32225
 C906 C 0.73436 0.12759 0.34031
 C907 C 0.75202 0.10711 0.37692
 C908 C 0.73001 0.10201 0.38883
 C909 C 0.72939 0.08551 0.40797
 C910 C 0.75078 0.07384 0.41563
 C911 C 0.77263 0.07844 0.40328
 C912 C 0.77323 0.09486 0.38414
 H913 H 0.78926 0.17143 0.33805
 H914 H 0.72057 0.14613 0.30937
 H915 H 0.71234 0.08251 0.41731
 H916 H 0.78930 0.06937 0.40850
 H917 H 0.71906 0.11527 0.34063
 H918 H 0.71340 0.11134 0.38386
 H919 H 0.78727 0.14102 0.36955
 H920 H 0.79036 0.09800 0.37499
 C921 C 0.24681 0.12499 0.64194
 C922 C 0.26531 0.12686 0.65938
 C923 C 0.26427 0.14471 0.67728
 C924 C 0.24470 0.16115 0.67816
 C925 C 0.22622 0.15922 0.66065
 C926 C 0.22728 0.14138 0.64278
 C927 C 0.24791 0.10621 0.62274
 C928 C 0.22667 0.09413 0.61539
 C929 C 0.22736 0.07745 0.59645
 C930 C 0.24932 0.07241 0.58442
 C931 C 0.27072 0.08392 0.59222
 C932 C 0.27002 0.10067 0.61118
 H933 H 0.27888 0.14550 0.69035
 H934 H 0.21087 0.17146 0.66057
 H935 H 0.21066 0.06852 0.59112
 H936 H 0.28785 0.08059 0.58313
 H937 H 0.21293 0.14067 0.62936
 H938 H 0.20946 0.09762 0.62428
 H939 H 0.28048 0.11434 0.65935
 H940 H 0.28665 0.10986 0.61626
   
