data_POSCAR
  _audit_creation_date              2014-09-24
  _audit_creation_method            'ToBaCCo'
  _symmetry_space_group_name_H-M    'P1'
  _symmetry_Int_Tables_number       1
  _symmetry_cell_setting            triclinic
  loop_
  _symmetry_equiv_pos_as_xyz
 x,y,z
_cell_length_a 27.8073
_cell_length_b 27.8921
_cell_length_c 15.2797
_cell_angle_alpha 89.684600
_cell_angle_beta 90.030400
_cell_angle_gamma 119.972300
loop_
  _atom_site_label
  _atom_site_type_symbol
  _atom_site_fract_x
  _atom_site_fract_y
  _atom_site_fract_z
O1 O 0.57414 1.05558 0.58219
 O2 O 0.51857 0.94592 0.41454
 O3 O 0.57331 1.05354 0.41140
 O4 O 0.52071 0.94804 0.58525
 O5 O 0.44063 0.94665 0.58374
 O6 O 0.49486 1.05526 0.41330
 O7 O 0.44024 0.94796 0.41345
 O8 O 0.49396 1.05393 0.58371
 Cu9 Cu 0.55468 1.00077 0.49825
 Cu10 Cu 0.45949 1.00099 0.49860
 C11 C 0.54295 1.07281 0.61242
 C12 C 0.47001 0.92880 0.38467
 C13 C 0.54322 1.07246 0.38232
 C14 C 0.47177 0.92936 0.61435
 O15 O -0.05675 0.43655 0.41595
 O16 O 0.05260 0.49194 0.58411
 O17 O -0.05556 0.44042 0.58716
 O18 O 0.05126 0.49257 0.41306
 O19 O 0.05253 0.57233 0.41486
 O20 O -0.05676 0.51887 0.58176
 O21 O 0.05082 0.57018 0.58474
 O22 O -0.05491 0.51652 0.41181
 Cu23 Cu -0.00215 0.45737 0.50036
 Cu24 Cu -0.00212 0.55232 0.49811
 C25 C -0.07390 0.46744 0.38398
 C26 C 0.06990 0.54025 0.61385
 C27 C -0.07461 0.47085 0.61388
 C28 C 0.07027 0.54174 0.38467
 O29 O 0.50952 0.56254 0.58254
 O30 O 0.56099 0.50513 0.41576
 O31 O 0.50508 0.55682 0.41259
 O32 O 0.56117 0.50676 0.58604
 O33 O 0.48269 0.42693 0.58962
 O34 O 0.42495 0.47874 0.42159
 O35 O 0.48090 0.42676 0.41874
 O36 O 0.43093 0.48296 0.59197
 Cu37 Cu 0.54214 0.54069 0.49866
 Cu38 Cu 0.44690 0.44587 0.50597
 C39 C 0.46190 0.53267 0.61649
 C40 C 0.52956 0.45649 0.38778
 C41 C 0.45519 0.52632 0.38786
 C42 C 0.53156 0.45834 0.61771
 O43 O 0.41488 0.66674 -0.09531
 O44 O 0.42025 0.76146 -0.07023
 C45 C 0.38753 0.77094 -0.11569
 O46 O 0.33580 0.74756 -0.10121
 O47 O 0.23970 0.65891 -0.07655
 C48 C 0.22994 0.61620 -0.11956
 O49 O 0.25312 0.58802 -0.10282
 O50 O 0.34240 0.58179 -0.07554
 C51 C 0.38695 0.61594 -0.11490
 O52 O 0.41320 0.64990 0.07869
 O53 O 0.41430 0.74273 0.10428
 C54 C 0.38939 0.76949 0.11847
 O55 O 0.34865 0.76354 0.07272
 O56 O 0.25529 0.67192 0.09719
 C57 C 0.22842 0.62051 0.11409
 O58 O 0.23492 0.58495 0.07177
 O59 O 0.32586 0.58206 0.09866
 C60 C 0.37688 0.60672 0.11832
 Cr61 Cr 0.41251 0.70371 0.00420
 Cr62 Cr 0.29631 0.70879 -0.00189
 Cr63 Cr 0.29077 0.58736 -0.00193
 O64 O 0.33320 0.66652 0.00011
 O65 O 0.58394 0.32823 -0.09977
 O66 O 0.58603 0.23676 -0.07508
 C67 C 0.62128 0.23047 -0.11877
 O68 O 0.67282 0.25662 -0.10230
 O69 O 0.76432 0.35010 -0.07653
 C70 C 0.77059 0.39268 -0.11739
 O71 O 0.74396 0.41717 -0.09845
 O72 O 0.65042 0.41452 -0.07097
 C73 C 0.60928 0.37981 -0.11559
 O74 O 0.58041 0.34008 0.07485
 O75 O 0.58731 0.25112 0.09898
 C76 C 0.61620 0.22855 0.11548
 O77 O 0.65941 0.23889 0.07220
 O78 O 0.74886 0.33391 0.09828
 C79 C 0.77108 0.38486 0.11668
 O80 O 0.76060 0.41804 0.07507
 O81 O 0.66486 0.41081 0.10277
 C82 C 0.61334 0.38232 0.11899
 Cr83 Cr 0.58758 0.29072 -0.00025
 Cr84 Cr 0.70965 0.29634 -0.00201
 Cr85 Cr 0.70351 0.41199 0.00204
 O86 O 0.66696 0.33300 -0.00005
 C87 C 0.45030 0.88673 -0.31355
 C88 C 0.49311 0.87267 -0.27551
 C89 C 0.47272 0.83423 -0.21011
 C90 C 0.41123 0.81313 -0.18837
 C91 C 0.40839 0.86560 -0.16870
 C92 C 0.42894 0.90413 -0.23400
 C93 C 0.40127 0.83074 -0.34153
 C94 C 0.38090 0.79218 -0.27613
 H95 H 0.53577 0.89107 -0.29791
 H96 H 0.49810 0.82005 -0.17761
 H97 H 0.39213 0.87212 -0.10811
 H98 H 0.43024 0.94359 -0.22918
 H99 H 0.38444 0.82200 -0.40738
 H100 H 0.34661 0.75047 -0.28611
 C101 C 0.11305 0.56173 -0.31510
 C102 C 0.09609 0.52336 -0.23462
 C103 C 0.13502 0.54176 -0.17023
 C104 C 0.18747 0.59703 -0.19166
 C105 C 0.20819 0.58748 -0.27954
 C106 C 0.16920 0.56889 -0.34405
 C107 C 0.12712 0.61853 -0.27827
 C108 C 0.16595 0.63697 -0.21385
 H109 H 0.05673 0.48506 -0.22867
 H110 H 0.12888 0.51922 -0.10925
 H111 H 0.25005 0.59518 -0.29031
 H112 H 0.17774 0.56066 -0.40991
 H113 H 0.10845 0.64249 -0.30079
 H114 H 0.18016 0.67659 -0.18237
 C115 C 0.44230 0.55594 -0.31230
 C116 C 0.38543 0.55058 -0.33021
 C117 C 0.36730 0.57074 -0.26482
 C118 C 0.40773 0.59463 -0.18747
 C119 C 0.41784 0.54763 -0.15807
 C120 C 0.43582 0.52735 -0.22336
 C121 C 0.48113 0.61793 -0.29422
 C122 C 0.46310 0.63814 -0.22913
 H123 H 0.36162 0.53275 -0.38939
 H124 H 0.32798 0.57008 -0.26811
 H125 H 0.41171 0.53188 -0.09144
 H126 H 0.44504 0.49429 -0.21250
 H127 H 0.51937 0.64404 -0.32972
 H128 H 0.48625 0.68125 -0.20975
 C129 C 0.56384 0.11540 -0.31608
 C130 C 0.51961 0.12751 -0.27879
 C131 C 0.53856 0.16568 -0.21400
 C132 C 0.60027 0.18869 -0.19161
 C133 C 0.60507 0.13728 -0.17101
 C134 C 0.58589 0.09889 -0.23595
 C135 C 0.61184 0.17227 -0.34440
 C136 C 0.63081 0.21069 -0.27933
 H137 H 0.47695 0.10807 -0.30130
 H138 H 0.51187 0.17850 -0.18248
 H139 H 0.62174 0.13139 -0.11021
 H140 H 0.58616 0.06019 -0.23058
 H141 H 0.62891 0.18169 -0.41022
 H142 H 0.66401 0.25294 -0.28965
 C143 C 0.88482 0.45138 -0.31784
 C144 C 0.90852 0.44718 -0.22907
 C145 C 0.87063 0.42828 -0.16284
 C146 C 0.81219 0.41493 -0.19106
 C147 C 0.82064 0.46870 -0.23386
 C148 C 0.85853 0.48778 -0.30001
 C149 C 0.83500 0.39326 -0.33377
 C150 C 0.79716 0.37420 -0.26733
 H151 H 0.95160 0.45864 -0.21887
 H152 H 0.88137 0.42360 -0.09624
 H153 H 0.79863 0.48997 -0.21455
 H154 H 0.86815 0.52503 -0.33655
 H155 H 0.82967 0.36930 -0.39242
 H156 H 0.75969 0.33398 -0.26921
 C157 C 0.55269 0.43894 -0.31399
 C158 C 0.55939 0.38949 -0.34081
 C159 C 0.57846 0.36999 -0.27534
 C160 C 0.58894 0.40150 -0.18874
 C161 C 0.62901 0.46248 -0.21349
 C162 C 0.61015 0.48203 -0.27871
 C163 C 0.51497 0.41879 -0.23254
 C164 C 0.53386 0.39908 -0.16732
 H165 H 0.55051 0.37173 -0.40594
 H166 H 0.58576 0.33557 -0.28455
 H167 H 0.66920 0.48817 -0.18329
 H168 H 0.63437 0.52424 -0.30283
 H169 H 0.47670 0.42004 -0.22649
 H170 H 0.51180 0.38357 -0.10577
 C171 C 0.88585 0.44685 0.31549
 C172 C 0.90442 0.42673 0.23560
 C173 C 0.86622 0.40618 0.17012
 C174 C 0.81286 0.40767 0.18985
 C175 C 0.79165 0.37653 0.27731
 C176 C 0.82983 0.39697 0.34302
 C177 C 0.87084 0.48904 0.27762
 C178 C 0.83283 0.46860 0.21224
 H179 H 0.94424 0.42853 0.23081
 H180 H 0.87348 0.39058 0.10956
 H181 H 0.75008 0.34166 0.28687
 H182 H 0.82077 0.37952 0.40870
 H183 H 0.88818 0.53134 0.30008
 H184 H 0.81819 0.49373 0.18018
 C185 C 0.56328 0.11287 0.31379
 C186 C 0.62064 0.12779 0.27633
 C187 C 0.63845 0.16615 0.21094
 C188 C 0.59753 0.18642 0.18836
 C189 C 0.54262 0.13349 0.16830
 C190 C 0.52476 0.09498 0.23364
 C191 C 0.56947 0.16865 0.34130
 C192 C 0.58747 0.20712 0.27574
 H193 H 0.64547 0.11010 0.29898
 H194 H 0.67827 0.18081 0.17896
 H195 H 0.52001 0.12664 0.10740
 H196 H 0.48689 0.05521 0.22836
 H197 H 0.56106 0.17738 0.40693
 H198 H 0.59435 0.24863 0.28539
 C199 C 0.55064 0.43489 0.31629
 C200 C 0.60055 0.42894 0.34404
 C201 C 0.62100 0.41091 0.27894
 C202 C 0.58983 0.40065 0.19175
 C203 C 0.52865 0.35981 0.21514
 C204 C 0.50821 0.37773 0.28025
 C205 C 0.57082 0.47310 0.23552
 C206 C 0.59142 0.45528 0.17060
 H207 H 0.61788 0.43753 0.40957
 H208 H 0.65584 0.40415 0.28882
 H209 H 0.50354 0.31998 0.18403
 H210 H 0.46585 0.35320 0.30384
 H211 H 0.56885 0.51090 0.22973
 H212 H 0.60700 0.47779 0.10939
 C213 C 0.11323 0.56359 0.31302
 C214 C 0.08999 0.53600 0.22434
 C215 C 0.12816 0.55526 0.15845
 C216 C 0.18635 0.60027 0.18711
 C217 C 0.17730 0.64520 0.22922
 C218 C 0.13915 0.62605 0.29485
 C219 C 0.16309 0.55530 0.33002
 C220 C 0.20129 0.57437 0.26401
 H221 H 0.04704 0.50435 0.21409
 H222 H 0.11780 0.54004 0.09192
 H223 H 0.19901 0.68847 0.20970
 H224 H 0.12894 0.65325 0.33081
 H225 H 0.16809 0.53639 0.38904
 H226 H 0.23891 0.57171 0.26660
 C227 C 0.44776 0.88583 0.31377
 C228 C 0.39130 0.87362 0.27648
 C229 C 0.37172 0.83500 0.21227
 C230 C 0.41020 0.81174 0.19055
 C231 C 0.46655 0.86293 0.16923
 C232 C 0.48612 0.90173 0.23350
 C233 C 0.43867 0.82910 0.34310
 C234 C 0.41887 0.79026 0.27870
 H235 H 0.36834 0.89335 0.29856
 H236 H 0.33213 0.82200 0.18073
 H237 H 0.48892 0.86838 0.10838
 H238 H 0.52519 0.94035 0.22754
 H239 H 0.44651 0.82009 0.40908
 H240 H 0.40975 0.74806 0.28973
 C241 C 0.43253 0.54678 0.31655
 C242 C 0.36998 0.51009 0.29851
 C243 C 0.35093 0.52951 0.23308
 C244 C 0.39613 0.58391 0.19127
 C245 C 0.42154 0.62396 0.26841
 C246 C 0.44046 0.60451 0.33402
 C247 C 0.46063 0.55202 0.22775
 C248 C 0.44154 0.57129 0.16224
 H249 H 0.34278 0.47234 0.33429
 H250 H 0.30764 0.50808 0.21350
 H251 H 0.42397 0.66398 0.27149
 H252 H 0.45900 0.62790 0.39319
 H253 H 0.49243 0.54092 0.21708
 H254 H 0.45704 0.57664 0.09561
   
