data_POSCAR
  _audit_creation_date              2014-09-24
  _audit_creation_method            'ToBaCCo'
  _symmetry_space_group_name_H-M    'P1'
  _symmetry_Int_Tables_number       1
  _symmetry_cell_setting            triclinic
  loop_
  _symmetry_equiv_pos_as_xyz
 x,y,z
_cell_length_a 74.6820
_cell_length_b 74.6991
_cell_length_c 21.0701
_cell_angle_alpha 89.957100
_cell_angle_beta 90.006100
_cell_angle_gamma 119.921000
loop_
  _atom_site_label
  _atom_site_type_symbol
  _atom_site_fract_x
  _atom_site_fract_y
  _atom_site_fract_z
C1 C 0.23134 0.49615 0.46674
 C2 C 0.23133 0.49646 0.53464
 C3 C 0.24839 0.49768 0.56736
 C4 C 0.26507 0.49781 0.53575
 C5 C 0.26440 0.49643 0.46843
 C6 C 0.24775 0.49568 0.43541
 H7 H 0.24805 0.49536 0.38399
 H8 H 0.24853 0.49819 0.61874
 C9 C 0.50653 -0.26320 0.46550
 C10 C 0.50401 -0.26418 0.53260
 C11 C 0.50314 -0.24820 0.56480
 C12 C 0.50557 -0.23052 0.53303
 C13 C 0.50797 -0.22959 0.46590
 C14 C 0.50880 -0.24560 0.43370
 H15 H 0.50972 -0.24491 0.38232
 H16 H 0.50221 -0.24889 0.61618
 C17 C 1.26462 0.76885 0.46503
 C18 C 1.26483 0.76828 0.53268
 C19 C 1.24860 0.75173 0.56520
 C20 C 1.23186 0.73584 0.53277
 C21 C 1.23117 0.73661 0.46585
 C22 C 1.24745 0.75297 0.43303
 H23 H 1.24688 0.75286 0.38162
 H24 H 1.24882 0.75141 0.61665
 C25 C 0.76922 0.50600 0.46682
 C26 C 0.76978 0.50623 0.53435
 C27 C 0.75285 0.50510 0.56761
 C28 C 0.73573 0.50420 0.53627
 C29 C 0.73583 0.50469 0.46874
 C30 C 0.75238 0.50536 0.43543
 H31 H 0.75220 0.50548 0.38395
 H32 H 0.75304 0.50500 0.61901
 C33 C 0.49255 0.26272 0.46681
 C34 C 0.49217 0.26284 0.53434
 C35 C 0.49321 0.24693 0.56726
 C36 C 0.49415 0.23079 0.53557
 C37 C 0.49378 0.23059 0.46804
 C38 C 0.49321 0.24659 0.43507
 H39 H 0.49319 0.24644 0.38358
 H40 H 0.49322 0.24707 0.61866
 C41 C 0.73786 0.22991 0.46754
 C42 C 0.73710 0.23075 0.53442
 C43 C 0.75308 0.24744 0.56704
 C44 C 0.77039 0.26315 0.53499
 C45 C 0.77086 0.26229 0.46743
 C46 C 0.75475 0.24562 0.43507
 H47 H 0.75496 0.24529 0.38362
 H48 H 0.75256 0.24730 0.61847
 N49 N 0.97834 0.52101 0.06796
 N50 N 0.96241 0.52393 0.07516
 N51 N 1.02186 0.53048 0.11225
 N52 N 1.03736 0.54076 0.15186
 N53 N 1.02185 0.54275 0.06767
 N54 N 1.03734 0.56173 0.07573
 N55 N 0.97841 0.50874 0.11245
 N56 N 0.96256 0.50298 0.15109
 C57 C 0.95271 0.51259 0.12735
 C58 C 1.04691 0.56025 0.12846
 N59 N 1.02201 0.47945 0.07060
 N60 N 1.03804 0.47672 0.07830
 N61 N 0.97848 0.47027 0.11429
 N62 N 0.96264 0.46040 0.15310
 N63 N 0.97849 0.45768 0.07089
 N64 N 0.96264 0.43889 0.07896
 N65 N 1.02197 0.49203 0.11398
 N66 N 1.03795 0.49820 0.15232
 Mn67 Mn 1.00018 0.50038 0.11400
 C68 C 1.04783 0.48850 0.12961
 C69 C 0.95290 0.44081 0.13051
 N70 N 1.02183 0.54224 -0.06909
 N71 N 1.03759 0.56106 -0.07779
 N72 N 0.97828 0.50795 -0.11213
 N73 N 0.96275 0.50253 -0.15190
 N74 N 0.97835 0.52057 -0.06870
 N75 N 0.96288 0.52409 -0.07770
 N76 N 1.02175 0.52960 -0.11251
 N77 N 1.03744 0.53946 -0.15186
 Mn78 Mn 1.00010 0.53188 -0.00055
 C79 C 1.04720 0.55909 -0.12968
 C80 C 0.95326 0.51271 -0.12976
 N81 N 0.97833 0.45711 -0.06570
 N82 N 0.96271 0.43816 -0.07333
 N83 N 1.02173 0.49104 -0.11072
 N84 N 1.03716 0.49615 -0.15060
 N85 N 1.02179 0.47882 -0.06606
 N86 N 1.03725 0.47526 -0.07432
 N87 N 0.97826 0.46937 -0.11024
 N88 N 0.96260 0.45911 -0.14938
 Mn89 Mn 1.00016 0.46804 0.00247
 Mn90 Mn 1.00000 0.49949 -0.11217
 Cl91 Cl 1.00011 0.49995 0.00091
 C92 C 0.95301 0.43964 -0.12576
 C93 C 1.04674 0.48620 -0.12723
 N94 N 0.47888 0.45761 0.06775
 N95 N 0.47584 0.43875 0.07556
 N96 N 0.46980 0.49200 0.11140
 N97 N 0.45964 0.49729 0.15140
 N98 N 0.45734 0.47961 0.06742
 N99 N 0.43838 0.47612 0.07628
 N100 N 0.49136 0.47005 0.11164
 N101 N 0.49714 0.46000 0.15045
 C102 C 0.48733 0.44048 0.12745
 C103 C 0.44005 0.48729 0.12882
 N104 N 0.52093 0.54275 0.06709
 N105 N 0.52421 0.56169 0.07501
 N106 N 0.52999 0.50842 0.11153
 N107 N 0.54010 0.50304 0.15148
 N108 N 0.54245 0.52075 0.06743
 N109 N 0.56138 0.52411 0.07614
 N110 N 0.50844 0.53038 0.11111
 N111 N 0.50288 0.54055 0.15014
 Mn112 Mn 0.49989 0.50021 0.11219
 C113 C 0.51284 0.56008 0.12707
 C114 C 0.55968 0.51294 0.12875
 N115 N 0.45734 0.47963 -0.06930
 N116 N 0.43861 0.47697 -0.07691
 N117 N 0.49129 0.46987 -0.11300
 N118 N 0.49650 0.45955 -0.15265
 N119 N 0.47880 0.45754 -0.06893
 N120 N 0.47516 0.43851 -0.07735
 N121 N 0.46987 0.49196 -0.11332
 N122 N 0.46004 0.49801 -0.15202
 Mn123 Mn 0.46786 0.46837 -0.00076
 C124 C 0.44052 0.48852 -0.12885
 C125 C 0.48633 0.44000 -0.12976
 N126 N 0.54248 0.52058 -0.06924
 N127 N 0.56125 0.52332 -0.07676
 N128 N 0.50852 0.53023 -0.11353
 N129 N 0.50279 0.54033 -0.15233
 N130 N 0.52098 0.54263 -0.06957
 N131 N 0.52407 0.56150 -0.07725
 N132 N 0.52998 0.50816 -0.11311
 N133 N 0.53987 0.50213 -0.15163
 Mn134 Mn 0.53194 0.53190 -0.00110
 Mn135 Mn 0.49992 0.50005 -0.11400
 Cl136 Cl 0.49990 0.50013 -0.00090
 C137 C 0.55939 0.51173 -0.12846
 C138 C 0.51264 0.55984 -0.12915
 N139 N 0.45740 -0.02168 0.06807
 N140 N 0.43860 -0.03755 0.07605
 N141 N 0.49148 0.02189 0.11149
 N142 N 0.49675 0.03742 0.15107
 N143 N 0.47900 0.02180 0.06745
 N144 N 0.47544 0.03725 0.07587
 N145 N 0.46992 -0.02157 0.11205
 N146 N 0.45998 -0.03733 0.15110
 C147 C 0.44044 -0.04717 0.12814
 C148 C 0.48664 0.04689 0.12821
 N149 N 0.54255 0.02202 0.06753
 N150 N 0.56147 0.03763 0.07586
 N151 N 0.50852 -0.02143 0.11205
 N152 N 0.50280 -0.03721 0.15098
 N153 N 0.52095 -0.02145 0.06804
 N154 N 0.52402 -0.03724 0.07582
 N155 N 0.53011 0.02203 0.11150
 N156 N 0.54021 0.03763 0.15092
 Mn157 Mn 0.50001 0.00024 0.11254
 C158 C 0.55978 0.04725 0.12809
 C159 C 0.51261 -0.04694 0.12782
 N160 N 0.47900 0.02171 -0.06926
 N161 N 0.47607 0.03761 -0.07703
 N162 N 0.46977 -0.02184 -0.11257
 N163 N 0.45965 -0.03752 -0.15170
 N164 N 0.45735 -0.02178 -0.06859
 N165 N 0.43845 -0.03743 -0.07657
 N166 N 0.49141 0.02162 -0.11323
 N167 N 0.49725 0.03744 -0.15208
 Mn168 Mn 0.46796 0.00001 -0.00059
 C169 C 0.48755 0.04728 -0.12901
 C170 C 0.44011 -0.04713 -0.12863
 N171 N 0.52086 -0.02168 -0.06857
 N172 N 0.52411 -0.03736 -0.07637
 N173 N 0.52996 0.02169 -0.11321
 N174 N 0.53993 0.03743 -0.15231
 N175 N 0.54245 0.02181 -0.06915
 N176 N 0.56126 0.03764 -0.07707
 N177 N 0.50835 -0.02178 -0.11253
 N178 N 0.50276 -0.03753 -0.15144
 Mn179 Mn 0.53193 0.00018 -0.00054
 Mn180 Mn 0.49987 -0.00009 -0.11366
 Cl181 Cl 0.49994 0.00009 -0.00056
 C182 C 0.51271 -0.04713 -0.12832
 C183 C 0.55945 0.04725 -0.12921
 C184 C 1.19293 0.48650 0.33831
 C185 C 1.18513 0.49919 0.35764
 C186 C 1.19336 0.51169 0.41127
 C187 C 1.20892 0.51110 0.44646
 C188 C 1.21635 0.49770 0.42924
 C189 C 1.20850 0.48587 0.37337
 C190 C 1.16816 0.49879 0.32391
 C191 C 1.15364 0.49812 0.29664
 C192 C 1.13633 0.49704 0.26582
 C193 C 1.12133 0.49592 0.24047
 C194 C 1.10318 0.49444 0.21138
 C195 C 1.09410 0.50527 0.23723
 C196 C 1.07614 0.50341 0.21035
 C197 C 1.06701 0.49066 0.15726
 C198 C 1.07630 0.47996 0.13121
 C199 C 1.09428 0.48183 0.15820
 H200 H 1.18666 0.47675 0.29685
 H201 H 1.18760 0.52176 0.42629
 H202 H 1.21521 0.52124 0.48707
 H203 H 1.21357 0.47524 0.35841
 H204 H 1.10083 0.51504 0.27843
 H205 H 1.06935 0.51188 0.23134
 H206 H 1.06963 0.47007 0.09026
 H207 H 1.10116 0.47336 0.13786
 C208 C 0.51949 0.70896 0.34222
 C209 C 0.50623 0.68836 0.35917
 C210 C 0.49258 0.68374 0.40999
 C211 C 0.49243 0.69963 0.44450
 C212 C 0.50617 0.72055 0.42946
 C213 C 0.51937 0.72490 0.37663
 C214 C 0.50683 0.67194 0.32520
 C215 C 0.50738 0.65807 0.29767
 C216 C 0.50806 0.64170 0.26648
 C217 C 0.50867 0.62759 0.24075
 C218 C 0.50940 0.61060 0.21114
 C219 C 0.49830 0.59078 0.23741
 C220 C 0.49933 0.57431 0.20978
 C221 C 0.51151 0.57747 0.15550
 C222 C 0.52249 0.59738 0.12907
 C223 C 0.52145 0.61385 0.15680
 H224 H 0.53012 0.71272 0.30289
 H225 H 0.48202 0.66783 0.42296
 H226 H 0.48111 0.69543 0.48195
 H227 H 0.53033 0.74067 0.36341
 H228 H 0.48894 0.58809 0.27947
 H229 H 0.49067 0.55913 0.23110
 H230 H 0.53196 0.60025 0.08721
 H231 H 0.53011 0.62913 0.13609
 C232 C 0.29293 -0.19128 0.33972
 C233 C 0.31343 -0.18331 0.35903
 C234 C 0.31786 -0.19170 0.41199
 C235 C 0.30187 -0.20770 0.44634
 C236 C 0.28102 -0.21545 0.42895
 C237 C 0.27688 -0.20729 0.37395
 C238 C 0.32988 -0.16623 0.32541
 C239 C 0.34370 -0.15172 0.29809
 C240 C 0.35995 -0.13451 0.26708
 C241 C 0.37390 -0.11965 0.24145
 C242 C 0.39066 -0.10172 0.21192
 C243 C 0.41052 -0.09272 0.23802
 C244 C 0.42675 -0.07502 0.21051
 C245 C 0.42331 -0.06608 0.15649
 C246 C 0.40336 -0.07530 0.13022
 C247 C 0.38713 -0.09301 0.15785
 H248 H 0.28931 -0.18490 0.29874
 H249 H 0.33371 -0.18586 0.42686
 H250 H 0.30594 -0.21428 0.48570
 H251 H 0.26117 -0.21254 0.35888
 H252 H 0.41343 -0.09931 0.27988
 H253 H 0.44196 -0.06828 0.23168
 H254 H 0.40028 -0.06876 0.08856
 H255 H 0.37182 -0.09984 0.13727
 C256 C 0.80554 0.48875 0.40159
 C257 C 0.81651 0.50408 0.35613
 C258 C 0.81144 0.51951 0.34515
 C259 C 0.79575 0.51986 0.38029
 C260 C 0.78507 0.50486 0.42718
 C261 C 0.78982 0.48907 0.43673
 C262 C 0.83344 0.50440 0.32236
 C263 C 0.84787 0.50494 0.29498
 C264 C 0.86505 0.50579 0.26399
 C265 C 0.87991 0.50665 0.23851
 C266 C 0.89788 0.50778 0.20935
 C267 C 0.90667 0.51997 0.15526
 C268 C 0.92448 0.52147 0.12816
 C269 C 0.93371 0.51081 0.15502
 C270 C 0.92468 0.49847 0.20902
 C271 C 0.90689 0.49698 0.23599
 H272 H 0.80932 0.47673 0.41043
 H273 H 0.81984 0.53144 0.31013
 H274 H 0.79228 0.53213 0.37214
 H275 H 0.78159 0.47723 0.47213
 H276 H 0.89983 0.52841 0.13428
 H277 H 0.93108 0.53105 0.08650
 H278 H 0.93142 0.49004 0.23064
 H279 H 0.90025 0.48752 0.27788
 C280 C 0.51012 0.31649 0.40297
 C281 C 0.49494 0.31237 0.35722
 C282 C 0.47949 0.29196 0.34562
 C283 C 0.47898 0.27577 0.38041
 C284 C 0.49384 0.27985 0.42757
 C285 C 0.50965 0.30031 0.43776
 C286 C 0.49478 0.32910 0.32371
 C287 C 0.49438 0.34310 0.29647
 C288 C 0.49367 0.35951 0.26554
 C289 C 0.49291 0.37356 0.23999
 C290 C 0.49188 0.39043 0.21056
 C291 C 0.47962 0.38701 0.15664
 C292 C 0.47820 0.40333 0.12922
 C293 C 0.48903 0.42325 0.15555
 C294 C 0.50143 0.42658 0.20939
 C295 C 0.50282 0.41026 0.23671
 H296 H 0.52216 0.33222 0.41228
 H297 H 0.46766 0.28859 0.31036
 H298 H 0.46670 0.26011 0.37177
 H299 H 0.52139 0.30374 0.47337
 H300 H 0.47106 0.37172 0.13605
 H301 H 0.46857 0.40034 0.08769
 H302 H 0.50997 0.44177 0.23062
 H303 H 0.51234 0.41308 0.27846
 C304 C 0.68437 0.19283 0.40404
 C305 C 0.68862 0.18092 0.36197
 C306 C 0.70902 0.18535 0.35334
 C307 C 0.72508 0.20147 0.38713
 C308 C 0.72088 0.21324 0.43022
 C309 C 0.70041 0.20896 0.43780
 C310 C 0.67200 0.16396 0.32857
 C311 C 0.65799 0.14964 0.30126
 C312 C 0.64149 0.13273 0.27007
 C313 C 0.62732 0.11817 0.24411
 C314 C 0.61030 0.10065 0.21398
 C315 C 0.61357 0.09202 0.15929
 C316 C 0.59709 0.07471 0.13096
 C317 C 0.57714 0.06580 0.15712
 C318 C 0.57396 0.07466 0.21174
 C319 C 0.59045 0.09196 0.23998
 H320 H 0.66865 0.18958 0.41098
 H321 H 0.71248 0.17623 0.32091
 H322 H 0.74075 0.20454 0.38057
 H323 H 0.69687 0.21804 0.47008
 H324 H 0.62888 0.09861 0.13878
 H325 H 0.59999 0.06823 0.08886
 H326 H 0.55875 0.06815 0.23285
 H327 H 0.58773 0.09850 0.28229
 C328 C 0.50887 0.19190 -0.41200
 C329 C 0.49650 0.18370 -0.35808
 C330 C 0.48408 0.19170 -0.33781
 C331 C 0.48364 0.20751 -0.37207
 C332 C 0.49543 0.21544 -0.42805
 C333 C 0.50847 0.20771 -0.44640
 C334 C 0.49612 0.16669 -0.32465
 C335 C 0.49554 0.15219 -0.29749
 C336 C 0.49464 0.13497 -0.26665
 C337 C 0.49373 0.12007 -0.24119
 C338 C 0.49253 0.10208 -0.21188
 C339 C 0.48021 0.09329 -0.15803
 C340 C 0.47865 0.07549 -0.13069
 C341 C 0.48938 0.06626 -0.15705
 C342 C 0.50184 0.07528 -0.21084
 C343 C 0.50338 0.09307 -0.23807
 H344 H 0.51878 0.18602 -0.42767
 H345 H 0.47442 0.18545 -0.29610
 H346 H 0.47322 0.21274 -0.35629
 H347 H 0.51873 0.21412 -0.48670
 H348 H 0.47173 0.10013 -0.13741
 H349 H 0.46898 0.06890 -0.08921
 H350 H 0.51031 0.06854 -0.23208
 H351 H 0.51293 0.09972 -0.27977
 C352 C 0.70685 0.51419 -0.33646
 C353 C 0.68643 0.50183 -0.35664
 C354 C 0.68222 0.48950 -0.41063
 C355 C 0.69838 0.48988 -0.44523
 C356 C 0.71915 0.50288 -0.42703
 C357 C 0.72305 0.51461 -0.37094
 C358 C 0.66986 0.50228 -0.32311
 C359 C 0.65598 0.50293 -0.29594
 C360 C 0.63971 0.50393 -0.26515
 C361 C 0.62576 0.50493 -0.23977
 C362 C 0.60903 0.50626 -0.21062
 C363 C 0.58919 0.49552 -0.23689
 C364 C 0.57300 0.49721 -0.20988
 C365 C 0.57647 0.50971 -0.15622
 C366 C 0.59639 0.52032 -0.12975
 C367 C 0.61258 0.51861 -0.15687
 H368 H 0.71029 0.52382 -0.29470
 H369 H 0.66644 0.47964 -0.42622
 H370 H 0.69451 0.47967 -0.48561
 H371 H 0.73870 0.52499 -0.35525
 H372 H 0.58627 0.48594 -0.27851
 H373 H 0.55781 0.48882 -0.23120
 H374 H 0.59949 0.53002 -0.08836
 H375 H 0.62787 0.52702 -0.13619
 C376 C 0.79920 0.30274 -0.33952
 C377 C 0.81966 0.31014 -0.35834
 C378 C 0.82386 0.30157 -0.41124
 C379 C 0.80770 0.28592 -0.44591
 C380 C 0.78690 0.27869 -0.42894
 C381 C 0.78297 0.28705 -0.37410
 C382 C 0.83640 0.32672 -0.32407
 C383 C 0.85059 0.34075 -0.29642
 C384 C 0.86742 0.35733 -0.26518
 C385 C 0.88194 0.37160 -0.23943
 C386 C 0.89947 0.38875 -0.20977
 C387 C 0.90812 0.40849 -0.23664
 C388 C 0.92547 0.42510 -0.20901
 C389 C 0.93441 0.42215 -0.15414
 C390 C 0.92553 0.40233 -0.12708
 C391 C 0.90817 0.38572 -0.15481
 H392 H 0.79577 0.30925 -0.29853
 H393 H 0.83967 0.30695 -0.42568
 H394 H 0.81160 0.27912 -0.48504
 H395 H 0.76730 0.28216 -0.35930
 H396 H 0.90153 0.41101 -0.27920
 H397 H 0.93196 0.44020 -0.23081
 H398 H 0.93207 0.39962 -0.08475
 H399 H 0.90161 0.37052 -0.13363
 C400 C 0.52097 -0.17709 -0.41160
 C401 C 0.50760 -0.18131 -0.36024
 C402 C 0.49399 -0.20180 -0.34296
 C403 C 0.49349 -0.21803 -0.37756
 C404 C 0.50642 -0.21405 -0.43088
 C405 C 0.52051 -0.19324 -0.44627
 C406 C 0.50777 -0.16455 -0.32595
 C407 C 0.50801 -0.15030 -0.29832
 C408 C 0.50840 -0.13338 -0.26715
 C409 C 0.50881 -0.11875 -0.24148
 C410 C 0.50940 -0.10109 -0.21191
 C411 C 0.49825 -0.09241 -0.23828
 C412 C 0.49921 -0.07492 -0.21080
 C413 C 0.51139 -0.06587 -0.15657
 C414 C 0.52240 -0.07477 -0.13001
 C415 C 0.52142 -0.09227 -0.15759
 H416 H 0.53181 -0.16128 -0.42481
 H417 H 0.48357 -0.20526 -0.30318
 H418 H 0.48231 -0.23369 -0.36402
 H419 H 0.53166 -0.18934 -0.48409
 H420 H 0.48891 -0.09909 -0.28034
 H421 H 0.49053 -0.06842 -0.23220
 H422 H 0.53187 -0.06814 -0.08818
 H423 H 0.53012 -0.09884 -0.13681
 C424 C 0.29400 0.48801 -0.33671
 C425 C 0.31436 0.49983 -0.35805
 C426 C 0.31855 0.51177 -0.41301
 C427 C 0.30241 0.51152 -0.44737
 C428 C 0.28168 0.49904 -0.42793
 C429 C 0.27782 0.48771 -0.37093
 C430 C 0.33087 0.49921 -0.32462
 C431 C 0.34465 0.49839 -0.29739
 C432 C 0.36078 0.49717 -0.26643
 C433 C 0.37460 0.49598 -0.24088
 C434 C 0.39121 0.49445 -0.21154
 C435 C 0.41108 0.50510 -0.23759
 C436 C 0.42715 0.50325 -0.21041
 C437 C 0.42354 0.49067 -0.15678
 C438 C 0.40358 0.48014 -0.13053
 C439 C 0.38750 0.48202 -0.15784
 H440 H 0.29058 0.47868 -0.29420
 H441 H 0.33430 0.52121 -0.42953
 H442 H 0.30627 0.52142 -0.48857
 H443 H 0.26220 0.47773 -0.35428
 H444 H 0.41413 0.51475 -0.27917
 H445 H 0.44238 0.51158 -0.23156
 H446 H 0.40036 0.47039 -0.08917
 H447 H 0.37217 0.47368 -0.13732
 C448 C 1.19355 0.68199 -0.40877
 C449 C 1.18280 0.68633 -0.36246
 C450 C 1.18849 0.70686 -0.34924
 C451 C 1.20468 0.72298 -0.38269
 C452 C 1.21528 0.71872 -0.43001
 C453 C 1.20976 0.69810 -0.44221
 C454 C 1.16566 0.66972 -0.32949
 C455 C 1.15114 0.65582 -0.30242
 C456 C 1.13397 0.63952 -0.27139
 C457 C 1.11918 0.62557 -0.24552
 C458 C 1.10135 0.60882 -0.21546
 C459 C 1.09268 0.61246 -0.16151
 C460 C 1.07510 0.59625 -0.13324
 C461 C 1.06597 0.57621 -0.15873
 C462 C 1.07486 0.57267 -0.21264
 C463 C 1.09243 0.58888 -0.24081
 H464 H 1.18931 0.66617 -0.41933
 H465 H 1.18028 0.71040 -0.31354
 H466 H 1.20869 0.73876 -0.37261
 H467 H 1.21790 0.69450 -0.47796
 H468 H 1.09945 0.62784 -0.14150
 H469 H 1.06860 0.59942 -0.09170
 H470 H 1.06819 0.55739 -0.23324
 H471 H 1.09900 0.58589 -0.28255
 C472 C 0.80011 0.49685 -0.34201
 C473 C 0.82033 0.50978 -0.36303
 C474 C 0.82390 0.52215 -0.41665
 C475 C 0.80732 0.52129 -0.44994
 C476 C 0.78675 0.50779 -0.43075
 C477 C 0.78347 0.49595 -0.37518
 C478 C 0.83739 0.51012 -0.33028
 C479 C 0.85173 0.51028 -0.30347
 C480 C 0.86857 0.51040 -0.27275
 C481 C 0.88303 0.51051 -0.24699
 C482 C 0.90040 0.51072 -0.21676
 C483 C 0.90887 0.49932 -0.24254
 C484 C 0.92602 0.49983 -0.21395
 C485 C 0.93489 0.51179 -0.15926
 C486 C 0.92618 0.52306 -0.13337
 C487 C 0.90904 0.52253 -0.16202
 H488 H 0.79717 0.48721 -0.30046
 H489 H 0.83953 0.53246 -0.43279
 H490 H 0.81068 0.53159 -0.48992
 H491 H 0.76800 0.48521 -0.35882
 H492 H 0.90230 0.49012 -0.28490
 H493 H 0.93239 0.49097 -0.23484
 H494 H 0.93267 0.53238 -0.09121
 H495 H 0.90259 0.53141 -0.14169
 C496 C 0.47621 0.30096 -0.41596
 C497 C 0.48846 0.30955 -0.36207
 C498 C 0.50132 0.30215 -0.34110
 C499 C 0.50227 0.28650 -0.37459
 C500 C 0.49056 0.27815 -0.43043
 C501 C 0.47711 0.28532 -0.44957
 C502 C 0.48811 0.32622 -0.32908
 C503 C 0.48797 0.34038 -0.30215
 C504 C 0.48791 0.35711 -0.27139
 C505 C 0.48788 0.37150 -0.24571
 C506 C 0.48783 0.38877 -0.21575
 C507 C 0.49925 0.40855 -0.24206
 C508 C 0.49889 0.42529 -0.21380
 C509 C 0.48707 0.42241 -0.15888
 C510 C 0.47577 0.40253 -0.13244
 C511 C 0.47615 0.38580 -0.16078
 H512 H 0.46595 0.30637 -0.43209
 H513 H 0.51088 0.30870 -0.29936
 H514 H 0.51296 0.28167 -0.35825
 H515 H 0.46691 0.27855 -0.48979
 H516 H 0.50835 0.41101 -0.28461
 H517 H 0.50777 0.44044 -0.23511
 H518 H 0.46656 0.39988 -0.09009
 H519 H 0.46725 0.37056 -0.14003
 C520 C 0.70019 0.17735 -0.40171
 C521 C 0.68820 0.18156 -0.35985
 C522 C 0.69248 0.20191 -0.35149
 C523 C 0.70857 0.21799 -0.38541
 C524 C 0.72042 0.21381 -0.42828
 C525 C 0.71626 0.19339 -0.43557
 C526 C 0.67137 0.16489 -0.32627
 C527 C 0.65723 0.15068 -0.29902
 C528 C 0.64065 0.13380 -0.26811
 C529 C 0.62648 0.11917 -0.24250
 C530 C 0.60953 0.10147 -0.21285
 C531 C 0.61289 0.09277 -0.15849
 C532 C 0.59654 0.07518 -0.13088
 C533 C 0.57665 0.06608 -0.15748
 C534 C 0.57336 0.07503 -0.21173
 C535 C 0.58973 0.09262 -0.23925
 H536 H 0.69705 0.16167 -0.40838
 H537 H 0.68330 0.20533 -0.31916
 H538 H 0.71157 0.23364 -0.37906
 H539 H 0.72542 0.18989 -0.46768
 H540 H 0.62817 0.09949 -0.13773
 H541 H 0.59950 0.06862 -0.08903
 H542 H 0.55819 0.06837 -0.23313
 H543 H 0.58697 0.09922 -0.28137
 C544 C 1.20039 0.50389 -0.33931
 C545 C 1.18025 0.49010 -0.35916
 C546 C 1.17697 0.47773 -0.41254
 C547 C 1.19377 0.47949 -0.44691
 C548 C 1.21422 0.49393 -0.42904
 C549 C 1.21724 0.50570 -0.37355
 C550 C 1.16296 0.48912 -0.32599
 C551 C 1.14847 0.48857 -0.29901
 C552 C 1.13150 0.48817 -0.26831
 C553 C 1.11697 0.48796 -0.24276
 C554 C 1.09954 0.48778 -0.21303
 C555 C 1.09095 0.49892 -0.23998
 C556 C 1.07381 0.49853 -0.21181
 C557 C 1.06507 0.48694 -0.15635
 C558 C 1.07388 0.47591 -0.12931
 C559 C 1.09102 0.47633 -0.15756
 H560 H 1.20309 0.51355 -0.29801
 H561 H 1.16142 0.46683 -0.42792
 H562 H 1.19074 0.46943 -0.48732
 H563 H 1.23262 0.51709 -0.35823
 H564 H 1.09744 0.50785 -0.28290
 H565 H 1.06736 0.50720 -0.23358
 H566 H 1.06748 0.46689 -0.08653
 H567 H 1.09757 0.46766 -0.13632
 C568 C 0.52238 0.70085 -0.39890
 C569 C 0.50621 0.68860 -0.35733
 C570 C 0.48964 0.69220 -0.35015
 C571 C 0.48907 0.70782 -0.38521
 C572 C 0.50499 0.71982 -0.42819
 C573 C 0.52184 0.71646 -0.43392
 C574 C 0.50645 0.67200 -0.32346
 C575 C 0.50675 0.65796 -0.29622
 C576 C 0.50724 0.64143 -0.26556
 C577 C 0.50777 0.62722 -0.24032
 C578 C 0.50856 0.61020 -0.21126
 C579 C 0.52071 0.61343 -0.15722
 C580 C 0.52194 0.59698 -0.13015
 C581 C 0.51105 0.57714 -0.15697
 C582 C 0.49875 0.57400 -0.21091
 C583 C 0.49754 0.59045 -0.23789
 H584 H 0.53530 0.69822 -0.40469
 H585 H 0.47706 0.68281 -0.31806
 H586 H 0.47601 0.71025 -0.37996
 H587 H 0.53441 0.72575 -0.46612
 H588 H 0.52932 0.62866 -0.13629
 H589 H 0.53150 0.59982 -0.08851
 H590 H 0.49016 0.55886 -0.23245
 H591 H 0.48811 0.58780 -0.27976
 C592 C 0.30748 -0.20153 -0.34845
 C593 C 0.31128 -0.18141 -0.35868
 C594 C 0.29941 -0.17783 -0.40284
 C595 C 0.28401 -0.19426 -0.43741
 C596 C 0.28049 -0.21441 -0.42857
 C597 C 0.29209 -0.21798 -0.38303
 C598 C 0.32773 -0.16436 -0.32526
 C599 C 0.34169 -0.14997 -0.29818
 C600 C 0.35821 -0.13299 -0.26749
 C601 C 0.37243 -0.11837 -0.24207
 C602 C 0.38950 -0.10077 -0.21261
 C603 C 0.40928 -0.09214 -0.23913
 C604 C 0.42582 -0.07474 -0.21152
 C605 C 0.42274 -0.06575 -0.15706
 C606 C 0.40286 -0.07461 -0.13038
 C607 C 0.38634 -0.09202 -0.15807
 H608 H 0.31658 -0.20446 -0.31437
 H609 H 0.30219 -0.16232 -0.41102
 H610 H 0.27502 -0.19124 -0.47170
 H611 H 0.28955 -0.23342 -0.37543
 H612 H 0.41189 -0.09880 -0.28135
 H613 H 0.44097 -0.06826 -0.23298
 H614 H 0.40006 -0.06802 -0.08836
 H615 H 0.37109 -0.09857 -0.13719
 C616 C 0.52275 -0.18599 0.34836
 C617 C 0.50648 -0.18195 0.35611
 C618 C 0.49035 -0.19392 0.39812
 C619 C 0.49063 -0.20969 0.43303
 C620 C 0.50718 -0.21348 0.42673
 C621 C 0.52306 -0.20175 0.38330
 C622 C 0.50665 -0.16510 0.32254
 C623 C 0.50691 -0.15077 0.29545
 C624 C 0.50735 -0.13376 0.26485
 C625 C 0.50785 -0.11904 0.23958
 C626 C 0.50861 -0.10127 0.21040
 C627 C 0.49763 -0.09248 0.23708
 C628 C 0.49882 -0.07484 0.20993
 C629 C 0.51105 -0.06579 0.15579
 C630 C 0.52189 -0.07482 0.12893
 C631 C 0.52068 -0.09246 0.15617
 H632 H 0.53531 -0.17680 0.31598
 H633 H 0.47768 -0.19094 0.40437
 H634 H 0.47810 -0.21876 0.46561
 H635 H 0.53591 -0.20449 0.37765
 H636 H 0.48826 -0.09917 0.27910
 H637 H 0.49026 -0.06823 0.23151
 H638 H 0.53139 -0.06819 0.08715
 H639 H 0.52927 -0.09914 0.13520
 C640 C 0.29925 0.47659 0.40937
 C641 C 0.31070 0.49125 0.36273
 C642 C 0.30649 0.50714 0.34914
 C643 C 0.29114 0.50858 0.38278
 C644 C 0.27996 0.49422 0.43072
 C645 C 0.28387 0.47799 0.44302
 C646 C 0.32715 0.49038 0.33005
 C647 C 0.34114 0.48989 0.30323
 C648 C 0.35772 0.48952 0.27243
 C649 C 0.37200 0.48930 0.24660
 C650 C 0.38914 0.48907 0.21633
 C651 C 0.38602 0.47745 0.16115
 C652 C 0.40264 0.47698 0.13233
 C653 C 0.42257 0.48812 0.15849
 C654 C 0.42561 0.49987 0.21365
 C655 C 0.40897 0.50032 0.24239
 H656 H 0.30236 0.46422 0.42017
 H657 H 0.31526 0.51856 0.31314
 H658 H 0.28830 0.52116 0.37256
 H659 H 0.27523 0.46664 0.47931
 H660 H 0.37074 0.46870 0.14058
 H661 H 0.39987 0.46782 0.08981
 H662 H 0.44080 0.50863 0.23475
 H663 H 0.41155 0.50938 0.28508
 C664 C 1.17672 0.70085 0.40740
 C665 C 1.18019 0.68942 0.36133
 C666 C 1.20036 0.69377 0.34839
 C667 C 1.21699 0.70934 0.38189
 C668 C 1.21357 0.72062 0.42891
 C669 C 1.19333 0.71644 0.44088
 C670 C 1.16304 0.67296 0.32827
 C671 C 1.14865 0.65901 0.30114
 C672 C 1.13176 0.64251 0.27011
 C673 C 1.11725 0.62829 0.24426
 C674 C 1.09984 0.61116 0.21427
 C675 C 1.09125 0.61425 0.15919
 C676 C 1.07407 0.59763 0.13086
 C677 C 1.06530 0.57775 0.15746
 C678 C 1.07413 0.57476 0.21250
 C679 C 1.09130 0.59139 0.24072
 H680 H 1.16117 0.69762 0.41770
 H681 H 1.20321 0.68501 0.31286
 H682 H 1.23248 0.71236 0.37202
 H683 H 1.19042 0.72514 0.47643
 H684 H 1.09775 0.62950 0.13835
 H685 H 1.06759 0.60036 0.08843
 H686 H 1.06772 0.55961 0.23392
 H687 H 1.09784 0.58884 0.28334
 C688 C 0.47488 0.17637 0.40681
 C689 C 0.48991 0.17992 0.36111
 C690 C 0.50579 0.20009 0.34892
 C691 C 0.50684 0.21663 0.38301
 C692 C 0.49210 0.21311 0.43001
 C693 C 0.47589 0.19289 0.44090
 C694 C 0.48935 0.16283 0.32793
 C695 C 0.48903 0.14847 0.30086
 C696 C 0.48879 0.13161 0.26995
 C697 C 0.48863 0.11714 0.24420
 C698 C 0.48845 0.09975 0.21422
 C699 C 0.47674 0.09111 0.15928
 C700 C 0.47625 0.07396 0.13093
 C701 C 0.48747 0.06526 0.15733
 C702 C 0.49932 0.07413 0.21222
 C703 C 0.49979 0.09128 0.24049
 H704 H 0.46250 0.16082 0.41651
 H705 H 0.51749 0.20300 0.31363
 H706 H 0.51941 0.23212 0.37383
 H707 H 0.46424 0.18991 0.47638
 H708 H 0.46791 0.09756 0.13857
 H709 H 0.46703 0.06745 0.08861
 H710 H 0.50814 0.06776 0.23350
 H711 H 0.50890 0.09786 0.28300
 C712 C 0.69320 0.49282 0.35022
 C713 C 0.68888 0.50868 0.36276
 C714 C 0.70035 0.52364 0.40855
 C715 C 0.71590 0.52258 0.44235
 C716 C 0.71997 0.50641 0.43108
 C717 C 0.70873 0.49173 0.38403
 C718 C 0.67234 0.50931 0.32976
 C719 C 0.65832 0.50969 0.30275
 C720 C 0.64174 0.51003 0.27183
 C721 C 0.62748 0.51030 0.24596
 C722 C 0.61039 0.51063 0.21572
 C723 C 0.59056 0.49949 0.24191
 C724 C 0.57399 0.50011 0.21334
 C725 C 0.57709 0.51193 0.15823
 C726 C 0.59701 0.52295 0.13192
 C727 C 0.61357 0.52230 0.16057
 H728 H 0.68442 0.48117 0.31485
 H729 H 0.69716 0.53600 0.41851
 H730 H 0.72459 0.53419 0.47789
 H731 H 0.71169 0.47919 0.37456
 H732 H 0.58794 0.49040 0.28459
 H733 H 0.55880 0.49144 0.23455
 H734 H 0.59983 0.53215 0.08943
 H735 H 0.62885 0.53098 0.13992
 C736 C 0.80602 0.31603 0.40225
 C737 C 0.81782 0.31220 0.35850
 C738 C 0.81376 0.29198 0.34867
 C739 C 0.79820 0.27567 0.38328
 C740 C 0.78667 0.27948 0.42847
 C741 C 0.79044 0.29974 0.43685
 C742 C 0.83456 0.32910 0.32533
 C743 C 0.84883 0.34327 0.29845
 C744 C 0.86581 0.35986 0.26796
 C745 C 0.88054 0.37403 0.24267
 C746 C 0.89835 0.39093 0.21333
 C747 C 0.90722 0.38748 0.15957
 C748 C 0.92492 0.40377 0.13226
 C749 C 0.93397 0.42369 0.15855
 C750 C 0.92485 0.42707 0.21219
 C751 C 0.90715 0.41076 0.23942
 H752 H 0.80902 0.33162 0.41014
 H753 H 0.82282 0.28886 0.31494
 H754 H 0.79547 0.26015 0.37603
 H755 H 0.78153 0.30294 0.47085
 H756 H 0.90054 0.37218 0.13906
 H757 H 0.93160 0.40074 0.09087
 H758 H 0.93147 0.44227 0.23332
 H759 H 0.90042 0.41359 0.28108
   
