data_POSCAR
  _audit_creation_date              2014-09-24
  _audit_creation_method            'ToBaCCo'
  _symmetry_space_group_name_H-M    'P1'
  _symmetry_Int_Tables_number       1
  _symmetry_cell_setting            triclinic
  loop_
  _symmetry_equiv_pos_as_xyz
 x,y,z
_cell_length_a 42.3161
_cell_length_b 42.3533
_cell_length_c 42.3448
_cell_angle_alpha 90.779500
_cell_angle_beta 88.927500
_cell_angle_gamma 89.366800
loop_
  _atom_site_label
  _atom_site_type_symbol
  _atom_site_fract_x
  _atom_site_fract_y
  _atom_site_fract_z
C1 C 0.55829 0.42086 -0.01643
 C2 C 0.58102 0.44369 -0.01632
 C3 C 0.56601 0.47183 -0.00732
 N4 N 0.53500 0.46667 -0.00149
 C5 C 0.53021 0.43562 -0.00714
 C6 C 0.58133 0.50069 -0.00066
 C7 C 0.56433 0.52903 0.00679
 C8 C 0.57725 0.55613 0.01985
 C9 C 0.55401 0.57898 0.02031
 C10 C 0.52762 0.56575 0.00667
 N11 N 0.53400 0.53519 -0.00119
 C12 C 0.49908 0.58237 0.00039
 C13 C 0.47043 0.56622 -0.00500
 C14 C 0.44339 0.57948 -0.01766
 C15 C 0.42082 0.55653 -0.01744
 C16 C 0.43493 0.52983 -0.00523
 N17 N 0.46524 0.53572 0.00236
 C18 C 0.41937 0.50108 0.00022
 C19 C 0.43583 0.47263 0.00596
 C20 C 0.42222 0.44548 0.01773
 C21 C 0.44543 0.42248 0.01705
 C22 C 0.47256 0.43626 0.00489
 N23 N 0.46651 0.46684 -0.00177
 C24 C 0.50136 0.42002 -0.00154
 H25 H 0.56219 0.39609 -0.02198
 H26 H 0.60589 0.43961 -0.02133
 H27 H 0.48127 0.48181 -0.01437
 H28 H 0.60109 0.55962 0.02779
 H29 H 0.55652 0.60284 0.02929
 H30 H 0.44024 0.60316 -0.02644
 H31 H 0.39689 0.55907 -0.02569
 H32 H 0.44255 0.39829 0.02438
 H33 H 0.51978 0.52070 -0.01481
 H34 H 0.39798 0.44243 0.02561
 C35 C 0.01814 0.55551 0.57976
 C36 C 0.01863 0.57839 0.55719
 C37 C 0.00595 0.56509 0.53014
 N38 N -0.00167 0.53464 0.53534
 C39 C 0.00574 0.52882 0.56566
 C40 C 0.00068 0.58114 0.50149
 C41 C -0.00523 0.56431 0.47299
 C42 C -0.01945 0.57701 0.44665
 C43 C -0.01900 0.55383 0.42364
 C44 C -0.00503 0.52742 0.43664
 N45 N 0.00316 0.53387 0.46678
 C46 C 0.00146 0.49889 0.41998
 C47 C 0.00706 0.47007 0.43527
 C48 C 0.01728 0.44231 0.42047
 C49 C 0.01698 0.41945 0.44313
 C50 C 0.00660 0.43408 0.47097
 N51 N 0.00052 0.46499 0.46610
 C52 C 0.00082 0.41860 0.49976
 C53 C -0.00564 0.43508 0.52843
 C54 C -0.01803 0.42163 0.55558
 C55 C -0.01847 0.44480 0.57866
 C56 C -0.00632 0.47173 0.56494
 N57 N 0.00137 0.46565 0.53433
 C58 C -0.00016 0.50021 0.58128
 H59 H 0.02629 0.55812 0.60373
 H60 H 0.02755 0.60204 0.56033
 H61 H 0.01420 0.48039 0.51954
 H62 H -0.02917 0.60056 0.44419
 H63 H -0.02805 0.55614 0.40003
 H64 H 0.02394 0.43882 0.39586
 H65 H 0.02341 0.39486 0.43947
 H66 H -0.02640 0.44200 0.60290
 H67 H 0.01681 0.51949 0.48104
 H68 H -0.02563 0.39751 0.55857
 C69 C 0.42027 0.01799 0.55570
 C70 C 0.44288 0.01894 0.57846
 C71 C 0.47021 0.00575 0.56499
 N72 N 0.46521 -0.00255 0.53457
 C73 C 0.43468 0.00484 0.52894
 C74 C 0.49890 0.00020 0.58083
 C75 C 0.52736 -0.00634 0.56357
 C76 C 0.55327 -0.02242 0.57531
 C77 C 0.57639 -0.02227 0.55216
 C78 C 0.56408 -0.00609 0.52681
 N79 N 0.53392 0.00303 0.53371
 C80 C 0.58111 0.00082 0.49858
 C81 C 0.56510 0.00657 0.47010
 C82 C 0.57820 0.02012 0.44327
 C83 C 0.55549 0.01924 0.42060
 C84 C 0.52913 0.00575 0.43449
 N85 N 0.53496 -0.00191 0.46475
 C86 C 0.50084 -0.00101 0.41882
 C87 C 0.47262 -0.00830 0.43529
 C88 C 0.44607 -0.02132 0.42177
 C89 C 0.42288 -0.02158 0.44498
 C90 C 0.43598 -0.00871 0.47197
 N91 N 0.46633 -0.00086 0.46591
 C92 C 0.41927 -0.00186 0.50043
 H93 H 0.39607 0.02627 0.55845
 H94 H 0.43953 0.02836 0.60218
 H95 H 0.48059 0.01246 0.48064
 H96 H 0.55525 -0.03334 0.59816
 H97 H 0.59960 -0.03304 0.55376
 H98 H 0.60163 0.02973 0.44030
 H99 H 0.55801 0.02776 0.39672
 H100 H 0.39894 -0.02974 0.44215
 H101 H 0.51980 0.01766 0.52010
 H102 H 0.44349 -0.02925 0.39756
 O103 O 0.47464 0.00063 -0.04376
 O104 O 0.47461 0.00126 0.04322
 O105 O 0.47470 0.04443 0.00000
 O106 O 0.47452 -0.04252 -0.00053
 O107 O 0.52665 -0.04322 -0.00150
 O108 O 0.52683 0.04374 -0.00097
 O109 O 0.52674 0.00056 0.04225
 O110 O 0.52677 -0.00006 -0.04473
 Cu111 Cu 0.46940 0.00102 -0.00017
 Cu112 Cu 0.53197 0.00019 -0.00134
 C113 C 0.50070 0.00019 -0.05916
 C114 C 0.50067 0.00099 0.05765
 C115 C 0.50079 0.05899 -0.00041
 C116 C 0.50056 -0.05778 -0.00108
 O117 O -0.04433 0.52595 1.00139
 O118 O 0.04272 0.52591 1.00061
 O119 O -0.00040 0.52589 0.95753
 O120 O -0.00121 0.52598 1.04447
 O121 O -0.00065 0.47390 1.04380
 O122 O 0.00017 0.47381 0.95686
 O123 O 0.04328 0.47383 0.99994
 O124 O -0.04377 0.47387 1.00071
 Cu125 Cu -0.00086 0.53115 1.00107
 Cu126 Cu -0.00019 0.46863 1.00026
 C127 C -0.05897 0.49992 1.00116
 C128 C 0.05792 0.49986 1.00015
 C129 C 0.00001 0.49984 0.94229
 C130 C -0.00104 0.49995 1.05904
 O131 O 0.00023 -0.04451 0.47438
 O132 O -0.00006 0.04241 0.47439
 O133 O 0.04358 -0.00138 0.47438
 O134 O -0.04342 -0.00072 0.47441
 O135 O -0.04439 -0.00000 0.52651
 O136 O 0.04261 -0.00066 0.52648
 O137 O -0.00103 0.04313 0.52649
 O138 O -0.00074 -0.04380 0.52648
 Cu139 Cu 0.00018 -0.00112 0.46917
 Cu140 Cu -0.00099 -0.00026 0.53171
 C141 C -0.00020 -0.05906 0.50043
 C142 C -0.00058 0.05767 0.50044
 C143 C 0.05800 -0.00112 0.50042
 C144 C -0.05882 -0.00025 0.50046
 C145 C -0.33466 0.49637 0.97185
 C146 C -0.31890 0.50038 1.00037
 C147 C -0.33631 0.50447 1.02860
 C148 C -0.36934 0.50464 1.02833
 C149 C -0.38537 0.50086 0.99973
 C150 C -0.36770 0.49653 0.97151
 C151 C -0.28489 0.50025 1.00068
 C152 C -0.25640 0.50016 1.00090
 C153 C -0.22304 0.50008 1.00112
 C154 C -0.19455 0.50003 1.00127
 C155 C -0.16053 0.50000 1.00138
 C156 C -0.14424 0.52857 1.00177
 C157 C -0.11119 0.52858 1.00175
 C158 C -0.09398 0.49994 1.00134
 C159 C -0.11059 0.47133 1.00100
 C160 C -0.14364 0.47139 1.00102
 H161 H -0.32143 0.49313 0.94987
 H162 H -0.32434 0.50744 1.05083
 H163 H -0.38242 0.50740 1.05046
 H164 H -0.37951 0.49350 0.94920
 H165 H -0.15708 0.55085 1.00204
 H166 H -0.09915 0.55100 1.00201
 H167 H -0.09807 0.44889 1.00068
 H168 H -0.15601 0.44913 1.00072
 C169 C 0.33363 0.51926 1.02176
 C170 C 0.31787 0.50030 0.99990
 C171 C 0.33528 0.48157 0.97816
 C172 C 0.36832 0.48180 0.97826
 C173 C 0.38425 0.50077 1.00013
 C174 C 0.36667 0.51950 1.02189
 C175 C 0.28385 0.50011 0.99977
 C176 C 0.25536 0.49999 0.99969
 C177 C 0.22200 0.49989 0.99963
 C178 C 0.19351 0.49985 0.99962
 C179 C 0.15949 0.49984 0.99965
 C180 C 0.14322 0.47126 0.99934
 C181 C 0.11017 0.47122 0.99946
 C182 C 0.09294 0.49985 0.99991
 C183 C 0.10953 0.52847 1.00020
 C184 C 0.14258 0.52843 1.00007
 H185 H 0.32040 0.53384 1.03869
 H186 H 0.32333 0.46683 0.96114
 H187 H 0.38151 0.46729 0.96125
 H188 H 0.37857 0.53421 1.03898
 H189 H 0.15607 0.44898 0.99902
 H190 H 0.09814 0.44879 0.99923
 H191 H 0.09699 0.55091 1.00054
 H192 H 0.15493 0.55070 1.00032
 C193 C 0.01630 -0.33584 0.47690
 C194 C 0.00037 -0.31867 0.50085
 C195 C -0.01551 -0.33459 0.52499
 C196 C -0.01546 -0.36758 0.52526
 C197 C 0.00059 -0.38530 0.50134
 C198 C 0.01640 -0.36884 0.47708
 C199 C 0.00033 -0.28469 0.50066
 C200 C 0.00028 -0.25624 0.50055
 C201 C 0.00022 -0.22292 0.50047
 C202 C 0.00016 -0.19446 0.50043
 C203 C 0.00009 -0.16049 0.50042
 C204 C -0.00049 -0.14353 0.52902
 C205 C -0.00058 -0.11051 0.52906
 C206 C -0.00009 -0.09402 0.50043
 C207 C 0.00049 -0.11130 0.47179
 C208 C 0.00058 -0.14432 0.47183
 H209 H 0.02877 -0.32373 0.45815
 H210 H -0.02810 -0.32151 0.54354
 H211 H -0.02865 -0.37925 0.54382
 H212 H 0.02949 -0.38152 0.45860
 H213 H -0.00087 -0.15582 0.55130
 H214 H -0.00103 -0.09793 0.55150
 H215 H 0.00087 -0.09934 0.44935
 H216 H 0.00103 -0.15722 0.44955
 C217 C -0.02201 0.33390 0.48246
 C218 C 0.00012 0.31726 0.50015
 C219 C 0.02246 0.33375 0.51772
 C220 C 0.02270 0.36675 0.51757
 C221 C 0.00060 0.38354 0.49983
 C222 C -0.02181 0.36690 0.48232
 C223 C -0.00007 0.28329 0.50026
 C224 C -0.00022 0.25484 0.50033
 C225 C -0.00037 0.22153 0.50039
 C226 C -0.00048 0.19307 0.50041
 C227 C -0.00058 0.15910 0.50043
 C228 C -0.00113 0.14293 0.52903
 C229 C -0.00116 0.10992 0.52907
 C230 C -0.00063 0.09264 0.50044
 C231 C -0.00010 0.10912 0.47180
 C232 C -0.00007 0.14213 0.47183
 H233 H -0.03942 0.32138 0.46882
 H234 H 0.03968 0.32111 0.53149
 H235 H 0.04013 0.37924 0.53121
 H236 H -0.03911 0.37952 0.46863
 H237 H -0.00152 0.15584 0.55130
 H238 H -0.00157 0.09796 0.55151
 H239 H 0.00032 0.09654 0.44936
 H240 H 0.00036 0.15442 0.44955
 C241 C 0.52416 0.01442 -0.33595
 C242 C 0.49998 -0.00031 -0.31891
 C243 C 0.47549 -0.01500 -0.33500
 C244 C 0.47506 -0.01490 -0.36799
 C245 C 0.49916 0.00004 -0.38559
 C246 C 0.52383 0.01456 -0.36896
 C247 C 0.50029 -0.00035 -0.28492
 C248 C 0.50048 -0.00036 -0.25645
 C249 C 0.50062 -0.00035 -0.22312
 C250 C 0.50069 -0.00032 -0.19465
 C251 C 0.50070 -0.00026 -0.16065
 C252 C 0.47209 0.00017 -0.14352
 C253 C 0.47206 0.00029 -0.11050
 C254 C 0.50071 -0.00001 -0.09414
 C255 C 0.52936 -0.00046 -0.11158
 C256 C 0.52932 -0.00059 -0.14461
 H257 H 0.54321 0.02594 -0.32373
 H258 H 0.45677 -0.02671 -0.32204
 H259 H 0.45626 -0.02728 -0.37976
 H260 H 0.54252 0.02674 -0.38147
 H261 H 0.44980 0.00043 -0.15570
 H262 H 0.44960 0.00064 -0.09780
 H263 H 0.55181 -0.00071 -0.09974
 H264 H 0.55161 -0.00092 -0.15763
 C265 C 0.52077 -0.02083 0.33308
 C266 C 0.50071 -0.00000 0.31739
 C267 C 0.48068 0.02050 0.33485
 C268 C 0.48072 0.02018 0.36787
 C269 C 0.50079 -0.00067 0.38373
 C270 C 0.52082 -0.02118 0.36609
 C271 C 0.50066 0.00032 0.28340
 C272 C 0.50064 0.00056 0.25493
 C273 C 0.50063 0.00080 0.22160
 C274 C 0.50063 0.00097 0.19313
 C275 C 0.50064 0.00111 0.15913
 C276 C 0.47203 0.00151 0.14309
 C277 C 0.47200 0.00153 0.11007
 C278 C 0.50066 0.00112 0.09263
 C279 C 0.52930 0.00076 0.10900
 C280 C 0.52926 0.00075 0.14202
 H281 H 0.53635 -0.03680 0.31981
 H282 H 0.46507 0.03672 0.32296
 H283 H 0.46519 0.03623 0.38109
 H284 H 0.53638 -0.03748 0.37794
 H285 H 0.44973 0.00179 0.15610
 H286 H 0.44955 0.00181 0.09821
 H287 H 0.55176 0.00044 0.09631
 H288 H 0.55155 0.00042 0.15421
 C289 C 0.52340 -0.33474 -0.01637
 C290 C 0.49963 -0.31744 -0.00032
 C291 C 0.47568 -0.33326 0.01601
 C292 C 0.47543 -0.36625 0.01628
 C293 C 0.49920 -0.38408 0.00014
 C294 C 0.52324 -0.36774 -0.01615
 C295 C 0.49983 -0.28346 -0.00056
 C296 C 0.49998 -0.25500 -0.00075
 C297 C 0.50012 -0.22168 -0.00093
 C298 C 0.50022 -0.19322 -0.00107
 C299 C 0.50031 -0.15923 -0.00118
 C300 C 0.47174 -0.14227 -0.00067
 C301 C 0.47179 -0.10925 -0.00068
 C302 C 0.50048 -0.09275 -0.00120
 C303 C 0.52909 -0.11004 -0.00174
 C304 C 0.52897 -0.14305 -0.00173
 H305 H 0.54201 -0.32272 -0.02919
 H306 H 0.45726 -0.32008 0.02869
 H307 H 0.45702 -0.37783 0.02977
 H308 H 0.54159 -0.38052 -0.02933
 H309 H 0.44942 -0.15455 -0.00023
 H310 H 0.44936 -0.09667 -0.00025
 H311 H 0.55157 -0.09807 -0.00215
 H312 H 0.55123 -0.15595 -0.00213
 C313 C 0.48435 0.33499 -0.02370
 C314 C 0.50118 0.31866 -0.00076
 C315 C 0.51806 0.33548 0.02196
 C316 C 0.51814 0.36849 0.02174
 C317 C 0.50140 0.38495 -0.00129
 C318 C 0.48444 0.36799 -0.02396
 C319 C 0.50113 0.28468 -0.00055
 C320 C 0.50109 0.25622 -0.00041
 C321 C 0.50105 0.22289 -0.00028
 C322 C 0.50101 0.19443 -0.00020
 C323 C 0.50096 0.16044 -0.00016
 C324 C 0.52955 0.14350 -0.00070
 C325 C 0.52953 0.11048 -0.00075
 C326 C 0.50085 0.09396 -0.00026
 C327 C 0.47223 0.11123 0.00031
 C328 C 0.47232 0.14424 0.00036
 H329 H 0.47120 0.32221 -0.04137
 H330 H 0.53111 0.32309 0.03984
 H331 H 0.53120 0.38124 0.03949
 H332 H 0.47138 0.38036 -0.04184
 H333 H 0.55186 0.15581 -0.00111
 H334 H 0.55196 0.09792 -0.00120
 H335 H 0.44975 0.09925 0.00070
 H336 H 0.45005 0.15712 0.00078
 C337 C -0.33428 -0.01389 0.47468
 C338 C -0.31861 0.00068 0.49963
 C339 C -0.33606 0.01522 0.52424
 C340 C -0.36908 0.01527 0.52391
 C341 C -0.38530 0.00083 0.49881
 C342 C -0.36729 -0.01389 0.47425
 C343 C -0.28462 0.00067 0.49998
 C344 C -0.25614 0.00063 0.50019
 C345 C -0.22280 0.00056 0.50036
 C346 C -0.19433 0.00048 0.50043
 C347 C -0.16032 0.00035 0.50046
 C348 C -0.14429 0.00066 0.52906
 C349 C -0.11125 0.00048 0.52910
 C350 C -0.09381 -0.00001 0.50047
 C351 C -0.11016 -0.00031 0.47183
 C352 C -0.14320 -0.00013 0.47186
 H353 H -0.32097 -0.02545 0.45562
 H354 H -0.32415 0.02666 0.54365
 H355 H -0.38196 0.02728 0.54297
 H356 H -0.37871 -0.02618 0.45507
 H357 H -0.15733 0.00103 0.55134
 H358 H -0.09940 0.00072 0.55154
 H359 H -0.09745 -0.00069 0.44939
 H360 H -0.15539 -0.00038 0.44958
 C361 C 0.33453 0.01904 0.48110
 C362 C 0.31781 -0.00189 0.50033
 C363 C 0.33425 -0.02281 0.51958
 C364 C 0.36728 -0.02283 0.51961
 C365 C 0.38417 -0.00189 0.50038
 C366 C 0.36757 0.01906 0.48113
 C367 C 0.28381 -0.00187 0.50033
 C368 C 0.25534 -0.00184 0.50033
 C369 C 0.22200 -0.00179 0.50035
 C370 C 0.19352 -0.00172 0.50036
 C371 C 0.15951 -0.00163 0.50038
 C372 C 0.14346 -0.00196 0.47178
 C373 C 0.11042 -0.00181 0.47176
 C374 C 0.09300 -0.00134 0.50041
 C375 C 0.10937 -0.00103 0.52903
 C376 C 0.14241 -0.00117 0.52898
 H377 H 0.32205 0.03534 0.46614
 H378 H 0.32154 -0.03911 0.53454
 H379 H 0.37972 -0.03920 0.53453
 H380 H 0.38023 0.03543 0.46623
 H381 H 0.15648 -0.00231 0.44950
 H382 H 0.09855 -0.00206 0.44933
 H383 H 0.09667 -0.00066 0.55148
 H384 H 0.15461 -0.00091 0.55125
 C385 C 0.02202 0.51782 1.33489
 C386 C -0.00007 0.49971 1.31865
 C387 C -0.02174 0.48137 1.33553
 C388 C -0.02128 0.48109 1.36852
 C389 C 0.00093 0.49909 1.38492
 C390 C 0.02252 0.51754 1.36788
 C391 C -0.00046 0.49988 1.28468
 C392 C -0.00074 0.49998 1.25623
 C393 C -0.00101 0.50004 1.22292
 C394 C -0.00118 0.50006 1.19446
 C395 C -0.00131 0.50004 1.16049
 C396 C -0.00163 0.52862 1.14429
 C397 C -0.00160 0.52862 1.11127
 C398 C -0.00124 0.49998 1.09401
 C399 C -0.00098 0.47137 1.11053
 C400 C -0.00101 0.47143 1.14355
 H401 H 0.03887 0.53211 1.32206
 H402 H -0.03897 0.46732 1.32319
 H403 H -0.03824 0.46690 1.38132
 H404 H 0.03976 0.53160 1.38018
 H405 H -0.00185 0.55090 1.15718
 H406 H -0.00180 0.55105 1.09929
 H407 H -0.00071 0.44893 1.09797
 H408 H -0.00076 0.44917 1.15586
 C409 C 0.02177 0.48096 0.66530
 C410 C 0.00016 0.49988 0.68266
 C411 C -0.02157 0.51888 0.66689
 C412 C -0.02171 0.51898 0.63388
 C413 C -0.00007 0.50008 0.61635
 C414 C 0.02168 0.48106 0.63229
 C415 C 0.00028 0.49980 0.71663
 C416 C 0.00037 0.49976 0.74509
 C417 C 0.00044 0.49974 0.77840
 C418 C 0.00047 0.49973 0.80686
 C419 C 0.00047 0.49976 0.84084
 C420 C 0.00074 0.47118 0.85704
 C421 C 0.00063 0.47117 0.89006
 C422 C 0.00024 0.49981 0.90732
 C423 C 0.00001 0.52842 0.89080
 C424 C 0.00012 0.52836 0.85778
 H425 H 0.03869 0.46618 0.67727
 H426 H -0.03840 0.53359 0.68009
 H427 H -0.03869 0.53372 0.62195
 H428 H 0.03858 0.46640 0.61913
 H429 H 0.00101 0.44890 0.84415
 H430 H 0.00082 0.44874 0.90204
 H431 H -0.00030 0.55086 0.90337
 H432 H -0.00010 0.55062 0.84547
   
