data_POSCAR
  _audit_creation_date              2014-09-24
  _audit_creation_method            'ToBaCCo'
  _symmetry_space_group_name_H-M    'P1'
  _symmetry_Int_Tables_number       1
  _symmetry_cell_setting            triclinic
  loop_
  _symmetry_equiv_pos_as_xyz
 x,y,z
_cell_length_a 27.3737
_cell_length_b 27.3816
_cell_length_c 27.2944
_cell_angle_alpha 90.194700
_cell_angle_beta 90.206700
_cell_angle_gamma 89.988200
loop_
  _atom_site_label
  _atom_site_type_symbol
  _atom_site_fract_x
  _atom_site_fract_y
  _atom_site_fract_z
O1 O 0.56910 0.12232 0.00352
 O2 O 0.62303 0.05801 0.00329
 C3 C 0.61288 0.10420 0.00406
 O4 O 0.43218 -0.00378 0.12554
 O5 O 0.37804 -0.00080 0.06108
 C6 C 0.38833 -0.00298 0.10739
 O7 O 0.56906 0.00196 0.12565
 O8 O 0.62276 -0.00071 0.06124
 C9 C 0.61283 0.00130 0.10759
 O10 O 0.43246 0.12284 -0.00320
 O11 O 0.37835 0.05890 0.00035
 C12 C 0.38863 0.10497 -0.00240
 Zr13 Zr 0.50037 0.08652 0.00273
 O14 O 0.49551 0.13677 0.06175
 O15 O 0.50173 0.14600 -0.04647
 Zr16 Zr 0.50054 -0.00097 0.08941
 O17 O 0.49550 0.05355 0.14436
 O18 O 0.50605 -0.05608 0.14338
 O19 O 0.54428 0.04957 0.05291
 O20 O 0.45778 0.04915 0.05231
 O21 O 0.43154 0.00281 -0.12171
 O22 O 0.37770 -0.00038 -0.05739
 C23 C 0.38779 0.00203 -0.10366
 O24 O 0.56842 -0.12421 -0.00187
 O25 O 0.62229 -0.05998 0.00017
 C26 C 0.61217 -0.10615 -0.00166
 O27 O 0.43184 -0.12385 0.00403
 O28 O 0.37784 -0.05966 0.00134
 C29 C 0.38803 -0.10582 0.00330
 O30 O 0.56863 -0.00320 -0.12147
 O31 O 0.62287 -0.00139 -0.05697
 C32 C 0.61252 -0.00300 -0.10332
 Zr33 Zr 0.50009 -0.00036 -0.08556
 O34 O 0.49466 -0.05492 -0.14047
 O35 O 0.50451 0.05450 -0.13984
 Zr36 Zr 0.50028 -0.08780 0.00135
 O37 O 0.49469 -0.14193 -0.05398
 O38 O 0.50587 -0.14225 0.05598
 Zr39 Zr 0.57326 -0.00058 0.00185
 Zr40 Zr 0.42725 -0.00062 0.00190
 O41 O 0.45772 -0.05034 -0.04850
 O42 O 0.54382 -0.05085 -0.04896
 O43 O 0.45672 0.04988 -0.04826
 O44 O 0.54295 -0.05067 0.05161
 O45 O 0.54263 0.04947 -0.04788
 O46 O 0.45665 -0.05120 0.05214
 H47 H 0.43559 0.06951 0.07245
 H48 H 0.56493 -0.07117 0.07185
 H49 H 0.43587 -0.07068 -0.06916
 H50 H 0.56468 0.06953 -0.06828
 H51 H 0.47827 -0.07870 0.13852
 H52 H 0.47843 -0.13745 0.07897
 H53 H 0.52201 -0.13689 -0.07703
 H54 H 0.52223 -0.07779 -0.13574
 H55 H 0.47791 0.07816 -0.13349
 H56 H 0.51118 0.13296 -0.07884
 H57 H 0.52731 0.13703 0.07910
 H58 H 0.52229 0.07710 0.13881
 O59 O -0.00134 0.56719 -0.12508
 O60 O -0.00116 0.62126 -0.06059
 C61 C -0.00196 0.61099 -0.10693
 O62 O -0.12339 0.43096 0.00216
 O63 O -0.05916 0.37703 0.00015
 C64 C -0.10532 0.38720 0.00202
 O65 O -0.12321 0.56748 -0.00409
 O66 O -0.05906 0.62157 -0.00117
 C67 C -0.10522 0.61131 -0.00331
 O68 O 0.00474 0.43064 -0.12484
 O69 O 0.00021 0.37665 -0.06084
 C70 C 0.00327 0.38678 -0.10705
 Zr71 Zr -0.00056 0.49893 -0.08870
 O72 O -0.05911 0.49380 -0.13949
 O73 O 0.04913 0.49959 -0.14788
 Zr74 Zr -0.08706 0.49908 -0.00118
 O75 O -0.14140 0.49350 -0.05632
 O76 O -0.14137 0.50466 0.05359
 O77 O -0.05060 0.54286 -0.05169
 O78 O -0.05006 0.45627 -0.05134
 O79 O 0.12345 0.43093 -0.00435
 O80 O 0.05940 0.37681 -0.00164
 C81 C 0.10552 0.38710 -0.00377
 O82 O 0.00327 0.56779 0.12239
 O83 O 0.00053 0.62176 0.05813
 C84 C 0.00262 0.61158 0.10441
 O85 O -0.00230 0.43092 0.12221
 O86 O 0.00076 0.37680 0.05776
 C87 C -0.00144 0.38708 0.10407
 O88 O 0.12369 0.56740 0.00203
 O89 O 0.05949 0.62135 0.00027
 C90 C 0.10567 0.61118 0.00202
 Zr91 Zr 0.08723 0.49927 -0.00121
 O92 O 0.14183 0.49407 0.05368
 O93 O 0.14125 0.50379 -0.05632
 Zr94 Zr 0.00029 0.49928 0.08613
 O95 O 0.05505 0.49410 0.14086
 O96 O -0.05447 0.50471 0.14048
 Zr97 Zr 0.00008 0.57229 -0.00118
 Zr98 Zr 0.00023 0.42605 -0.00145
 O99 O 0.05019 0.45686 0.04871
 O100 O 0.05055 0.54299 0.04938
 O101 O 0.05030 0.45559 -0.05193
 O102 O -0.04965 0.54171 0.04883
 O103 O 0.04974 0.54161 -0.05125
 O104 O -0.05002 0.45541 0.04917
 H105 H -0.07034 0.43399 -0.07160
 H106 H -0.07004 0.56351 0.06935
 H107 H 0.07077 0.43518 0.06917
 H108 H 0.07015 0.56377 -0.07119
 H109 H -0.13585 0.47783 0.07714
 H110 H -0.07687 0.47668 0.13609
 H111 H 0.07794 0.52161 0.13609
 H112 H 0.13657 0.52118 0.07711
 H113 H 0.13469 0.47732 -0.08024
 H114 H 0.08059 0.51212 -0.13529
 H115 H -0.07695 0.52523 -0.13913
 H116 H -0.13644 0.52083 -0.07937
 O117 O 0.12163 -0.00046 0.43152
 O118 O 0.05718 -0.00072 0.37732
 C119 C 0.10343 -0.00125 0.38758
 O120 O -0.00429 -0.12251 0.56866
 O121 O -0.00122 -0.05826 0.62296
 C122 C -0.00345 -0.10443 0.61263
 O123 O 0.00153 -0.12270 0.43152
 O124 O -0.00162 -0.05856 0.37754
 C125 C 0.00066 -0.10471 0.38764
 O126 O 0.12204 0.00568 0.56888
 O127 O 0.05815 0.00085 0.62301
 C128 C 0.10421 0.00407 0.61281
 Zr129 Zr 0.08597 0.00024 0.50039
 O130 O 0.13658 -0.05816 0.50523
 O131 O 0.14523 0.04980 0.49970
 Zr132 Zr -0.00146 -0.08654 0.50015
 O133 O 0.05310 -0.14110 0.50546
 O134 O -0.05643 -0.14067 0.49448
 O135 O 0.04895 -0.04995 0.45635
 O136 O 0.04865 -0.04933 0.54300
 O137 O 0.00209 0.12399 0.56918
 O138 O -0.00096 0.05991 0.62320
 C139 C 0.00137 0.10604 0.61307
 O140 O -0.12446 0.00362 0.43116
 O141 O -0.06021 0.00192 0.37717
 C142 C -0.10641 0.00346 0.38726
 O143 O -0.12453 -0.00212 0.56858
 O144 O -0.06023 0.00108 0.62287
 C145 C -0.10642 -0.00121 0.61256
 O146 O -0.00395 0.12398 0.43205
 O147 O -0.00137 0.05970 0.37781
 C148 C -0.00336 0.10589 0.38809
 Zr149 Zr -0.00108 0.08783 0.50052
 O150 O -0.05571 0.14233 0.50578
 O151 O 0.05391 0.14199 0.49628
 Zr152 Zr -0.08853 0.00066 0.50004
 O153 O -0.14291 0.05541 0.50534
 O154 O -0.14293 -0.05405 0.49438
 Zr155 Zr -0.00140 0.00063 0.42718
 Zr156 Zr -0.00116 0.00075 0.57352
 O157 O -0.05106 0.05065 0.54279
 O158 O -0.05169 0.05109 0.45652
 O159 O 0.04934 0.05091 0.54417
 O160 O -0.05136 -0.04924 0.45745
 O161 O 0.04871 0.05042 0.45794
 O162 O -0.05171 -0.04962 0.54399
 H163 H 0.06902 -0.06954 0.56512
 H164 H -0.07181 -0.06955 0.43536
 H165 H -0.07142 0.07116 0.56464
 H166 H 0.06876 0.07080 0.43586
 H167 H -0.07912 -0.13591 0.52221
 H168 H -0.13800 -0.07695 0.52190
 H169 H -0.13792 0.07837 0.47792
 H170 H -0.07883 0.13724 0.47831
 H171 H 0.07786 0.13531 0.52268
 H172 H 0.13268 0.08141 0.48775
 H173 H 0.13638 -0.07577 0.47351
 H174 H 0.07670 -0.13547 0.47872
 C175 C -0.34718 0.13800 0.00452
 C176 C -0.31430 0.16723 0.00447
 C177 C -0.27588 0.20305 0.00394
 C178 C -0.26619 0.22901 -0.03908
 C179 C -0.23024 0.26525 -0.03928
 C180 C -0.20382 0.27568 0.00354
 C181 C -0.21320 0.24944 0.04648
 C182 C -0.24919 0.21317 0.04668
 C183 C -0.16823 0.31430 0.00361
 C184 C -0.13911 0.34728 0.00317
 H185 H -0.28676 0.22160 -0.07227
 H186 H -0.22340 0.28545 -0.07262
 H187 H -0.19308 0.25736 0.07983
 H188 H -0.25653 0.19343 0.08018
 C189 C 0.34809 0.86030 0.00389
 C190 C 0.31518 0.83105 0.00402
 C191 C 0.27668 0.79525 0.00372
 C192 C 0.25204 0.78378 0.04711
 C193 C 0.21597 0.74756 0.04701
 C194 C 0.20442 0.72269 0.00353
 C195 C 0.22877 0.73448 -0.03991
 C196 C 0.26480 0.77067 -0.03982
 C197 C 0.16874 0.68408 0.00360
 C198 C 0.13955 0.65112 0.00316
 H199 H 0.26107 0.80243 0.08102
 H200 H 0.19750 0.73861 0.08085
 H201 H 0.22026 0.71536 -0.07370
 H202 H 0.28375 0.77910 -0.07353
 C203 C 0.34875 0.13888 -0.00400
 C204 C 0.31578 0.16805 -0.00469
 C205 C 0.27713 0.20367 -0.00478
 C206 C 0.26241 0.22534 0.03933
 C207 C 0.22619 0.26135 0.03925
 C208 C 0.20452 0.27586 -0.00494
 C209 C 0.21891 0.25388 -0.04903
 C210 C 0.25516 0.21783 -0.04895
 C211 C 0.16875 0.31436 -0.00505
 C212 C 0.13948 0.34725 -0.00470
 H213 H 0.27928 0.21478 0.07367
 H214 H 0.21548 0.27823 0.07353
 H215 H 0.20251 0.26496 -0.08342
 H216 H 0.26640 0.20143 -0.08328
 C217 C -0.34782 0.86008 -0.00265
 C218 C -0.31480 0.83097 -0.00307
 C219 C -0.27616 0.79535 -0.00325
 C220 C -0.26065 0.77426 0.04084
 C221 C -0.22458 0.73809 0.04057
 C222 C -0.20386 0.72286 -0.00379
 C223 C -0.21901 0.74429 -0.04785
 C224 C -0.25509 0.78048 -0.04758
 C225 C -0.16828 0.68419 -0.00411
 C226 C -0.13912 0.65120 -0.00398
 H227 H -0.27681 0.78538 0.07529
 H228 H -0.21328 0.72162 0.07482
 H229 H -0.20336 0.73264 -0.08237
 H230 H -0.26693 0.79645 -0.08190
 C231 C 0.00348 -0.34853 0.13852
 C232 C 0.00395 -0.31584 0.16819
 C233 C 0.00437 -0.27795 0.20481
 C234 C 0.01766 -0.28927 0.25305
 C235 C 0.01730 -0.25299 0.28915
 C236 C 0.00365 -0.20518 0.27723
 C237 C -0.00954 -0.19373 0.22895
 C238 C -0.00919 -0.23009 0.19277
 C239 C 0.00259 -0.16839 0.31496
 C240 C 0.00173 -0.13868 0.34761
 H241 H 0.02803 -0.32619 0.26278
 H242 H 0.02742 -0.26227 0.32639
 H243 H -0.02030 -0.15688 0.21939
 H244 H -0.01968 -0.22099 0.15560
 C245 C 0.00416 0.35056 0.86192
 C246 C 0.00446 0.31779 0.83229
 C247 C 0.00416 0.27988 0.79562
 C248 C -0.00963 0.29116 0.74750
 C249 C -0.01001 0.25479 0.71148
 C250 C 0.00337 0.20688 0.72333
 C251 C 0.01711 0.19547 0.77148
 C252 C 0.01750 0.23194 0.80759
 C253 C 0.00308 0.16988 0.68573
 C254 C 0.00248 0.14008 0.65311
 H255 H -0.02004 0.32809 0.73784
 H256 H -0.02068 0.26404 0.67439
 H257 H 0.02754 0.15853 0.78103
 H258 H 0.02819 0.22280 0.84470
 C259 C -0.00224 0.34725 0.13803
 C260 C -0.00264 0.31447 0.16740
 C261 C -0.00271 0.27617 0.20338
 C262 C -0.04577 0.25047 0.21344
 C263 C -0.04611 0.21459 0.24984
 C264 C -0.00338 0.20431 0.27630
 C265 C 0.03975 0.22974 0.26594
 C266 C 0.04008 0.26558 0.22958
 C267 C -0.00395 0.16877 0.31502
 C268 C -0.00395 0.13968 0.34807
 H269 H -0.07912 0.25850 0.19354
 H270 H -0.07971 0.19527 0.25767
 H271 H 0.07295 0.22222 0.28629
 H272 H 0.07353 0.28537 0.22225
 C273 C -0.00267 -0.34912 0.85921
 C274 C -0.00288 -0.31615 0.83007
 C275 C -0.00260 -0.27757 0.79443
 C276 C -0.03939 -0.24197 0.79446
 C277 C -0.03963 -0.20538 0.75876
 C278 C -0.00306 -0.20432 0.72298
 C279 C 0.03387 -0.23973 0.72322
 C280 C 0.03411 -0.27626 0.75885
 C281 C -0.00389 -0.16789 0.68513
 C282 C -0.00400 -0.13834 0.65251
 H283 H -0.06802 -0.24273 0.82175
 H284 H -0.06845 -0.17825 0.75881
 H285 H 0.06222 -0.23935 0.69562
 H286 H 0.06264 -0.30368 0.75841
 C287 C 0.34780 0.00308 0.86232
 C288 C 0.31494 0.00351 0.83283
 C289 C 0.27666 0.00339 0.79658
 C290 C 0.24053 0.03967 0.79695
 C291 C 0.20426 0.04005 0.76067
 C292 C 0.20405 0.00416 0.72393
 C293 C 0.24002 -0.03224 0.72380
 C294 C 0.27622 -0.03262 0.76001
 C295 C 0.16778 0.00499 0.68567
 C296 C 0.13826 0.00498 0.65281
 H297 H 0.24063 0.06778 0.82498
 H298 H 0.17668 0.06843 0.76103
 H299 H 0.24028 -0.06009 0.69549
 H300 H 0.30407 -0.06074 0.75929
 C301 C -0.35075 0.00221 0.13839
 C302 C -0.31757 0.00300 0.16756
 C303 C -0.27876 0.00397 0.20326
 C304 C -0.24887 -0.03706 0.20989
 C305 C -0.21245 -0.03668 0.24600
 C306 C -0.20578 0.00473 0.27559
 C307 C -0.23544 0.04586 0.26869
 C308 C -0.27183 0.04549 0.23261
 C309 C -0.16975 0.00452 0.31414
 C310 C -0.14036 0.00422 0.34713
 H311 H -0.25407 -0.06944 0.18755
 H312 H -0.18991 -0.06879 0.25120
 H313 H -0.23079 0.07796 0.29155
 H314 H -0.29489 0.07732 0.22796
 C315 C 0.34842 -0.00369 0.14124
 C316 C 0.31536 -0.00404 0.17028
 C317 C 0.27653 -0.00433 0.20567
 C318 C 0.27078 -0.04446 0.23681
 C319 C 0.23416 -0.04416 0.27238
 C320 C 0.20310 -0.00375 0.27698
 C321 C 0.20862 0.03628 0.24562
 C322 C 0.24527 0.03599 0.21002
 C323 C 0.16680 -0.00280 0.31498
 C324 C 0.13730 -0.00210 0.34764
 H325 H 0.29489 -0.07571 0.23392
 H326 H 0.23040 -0.07518 0.29663
 H327 H 0.18498 0.06784 0.24904
 H328 H 0.24954 0.06731 0.18627
 C329 C -0.34769 -0.00373 0.86266
 C330 C -0.31496 -0.00381 0.83323
 C331 C -0.27669 -0.00330 0.79723
 C332 C -0.25167 -0.04639 0.78540
 C333 C -0.21580 -0.04606 0.74900
 C334 C -0.20484 -0.00265 0.72431
 C335 C -0.22959 0.04049 0.73643
 C336 C -0.26543 0.04017 0.77280
 C337 C -0.16930 -0.00252 0.68559
 C338 C -0.14020 -0.00208 0.65256
 H339 H -0.26025 -0.08024 0.80391
 H340 H -0.19701 -0.07967 0.73978
 H341 H -0.22155 0.07421 0.71744
 H342 H -0.28470 0.07364 0.78149
   
