data_POSCAR
  _audit_creation_date              2014-09-24
  _audit_creation_method            'ToBaCCo'
  _symmetry_space_group_name_H-M    'P1'
  _symmetry_Int_Tables_number       1
  _symmetry_cell_setting            triclinic
  loop_
  _symmetry_equiv_pos_as_xyz
 x,y,z
_cell_length_a 57.2564
_cell_length_b 57.3441
_cell_length_c 57.3243
_cell_angle_alpha 89.975500
_cell_angle_beta 90.071900
_cell_angle_gamma 89.985700
loop_
  _atom_site_label
  _atom_site_type_symbol
  _atom_site_fract_x
  _atom_site_fract_y
  _atom_site_fract_z
C1 C 0.21435 0.51844 1.02747
 H2 H 0.21421 0.53189 1.01423
 C3 C 0.19834 0.51927 1.04578
 H4 H 0.18674 0.53411 1.04652
 C5 C 0.23069 0.48357 1.04229
 H6 H 0.24291 0.46933 1.04051
 C7 C 0.21503 0.48368 1.06095
 H8 H 0.21554 0.46903 1.07280
 N9 N 0.23016 0.50085 1.02609
 C10 C 0.28611 0.52793 0.98231
 H11 H 0.28652 0.51457 0.96899
 C12 C 0.30226 0.54613 0.98176
 H13 H 0.31485 0.54687 0.96770
 C14 C 0.26920 0.54298 1.01688
 H15 H 0.25664 0.54139 1.03083
 C16 C 0.28504 0.56151 1.01700
 H17 H 0.28446 0.57404 1.03111
 Zn18 Zn 0.25004 0.50040 0.99976
 N19 N 0.26996 0.52672 0.99962
 C20 C 0.23169 0.51765 0.95690
 N21 N 0.23060 0.50028 0.97304
 C22 C 0.21453 0.48292 0.97131
 C23 C 0.19884 0.48242 0.95266
 C24 C 0.21631 0.51784 0.93797
 C25 C 0.28539 0.47229 1.01788
 C26 C 0.30136 0.45392 1.01862
 C27 C 0.28458 0.43893 0.98295
 C28 C 0.26891 0.45762 0.98290
 N29 N 0.26955 0.47378 1.00025
 H30 H 0.24424 0.53157 0.95883
 H31 H 0.21375 0.46958 0.98465
 H32 H 0.18592 0.46866 0.95185
 H33 H 0.21753 0.53173 0.92523
 H34 H 0.28572 0.48557 1.03127
 H35 H 0.31372 0.45298 1.03290
 H36 H 0.28413 0.42652 0.96874
 H37 H 0.25662 0.45943 0.96871
 C38 C 0.30195 0.56318 0.99934
 C39 C 0.19823 0.50164 1.06303
 C40 C 0.30120 0.43700 1.00090
 C41 C 0.19954 0.50010 0.93571
 C42 C 0.78607 0.51775 -0.02750
 H43 H 0.78647 0.53092 -0.01401
 C44 C 0.80206 0.51866 -0.04584
 H45 H 0.81450 0.53286 -0.04652
 C46 C 0.76938 0.48315 -0.04278
 H47 H 0.75700 0.46904 -0.04122
 C48 C 0.78506 0.48339 -0.06144
 H49 H 0.78452 0.46939 -0.07409
 N50 N 0.77012 0.50023 -0.02633
 C51 C 0.71494 0.52710 0.01854
 H52 H 0.71461 0.51358 0.03170
 C53 C 0.69892 0.54542 0.01952
 H54 H 0.68653 0.54607 0.03375
 C55 C 0.73147 0.54245 -0.01609
 H56 H 0.74381 0.54094 -0.03024
 C57 C 0.71576 0.56110 -0.01579
 H58 H 0.71622 0.57379 -0.02977
 Zn59 Zn 0.75050 0.49949 0.00017
 N60 N 0.73083 0.52598 0.00097
 C61 C 0.76966 0.51583 0.04303
 N62 N 0.77026 0.49870 0.02663
 C63 C 0.78617 0.48114 0.02780
 C64 C 0.80227 0.48024 0.04607
 C65 C 0.78544 0.51560 0.06163
 C66 C 0.71477 0.47198 -0.01809
 C67 C 0.69867 0.45374 -0.01900
 C68 C 0.71563 0.43802 0.01627
 C69 C 0.73143 0.45659 0.01651
 N70 N 0.73075 0.47305 -0.00057
 H71 H 0.75730 0.52998 0.04148
 H72 H 0.78647 0.46793 0.01433
 H73 H 0.81469 0.46602 0.04675
 H74 H 0.78502 0.52964 0.07425
 H75 H 0.71442 0.48550 -0.03126
 H76 H 0.68619 0.45314 -0.03320
 H77 H 0.71611 0.42535 0.03027
 H78 H 0.74385 0.45806 0.03062
 C79 C 0.69910 0.56267 0.00212
 C80 C 0.80178 0.50124 -0.06306
 C81 C 0.69886 0.43651 -0.00158
 C82 C 0.80214 0.49771 0.06324
 C83 C -0.01842 0.28564 0.47223
 H84 H -0.03168 0.28592 0.48565
 C85 C -0.01939 0.30162 0.45389
 H86 H -0.03417 0.31333 0.45332
 C87 C 0.01615 0.26905 0.45700
 H88 H 0.03036 0.25676 0.45864
 C89 C 0.01590 0.28468 0.43831
 H90 H 0.03040 0.28406 0.42628
 N91 N -0.00089 0.26975 0.47344
 C92 C -0.02767 0.21463 0.51843
 H93 H -0.01410 0.21433 0.53159
 C94 C -0.04598 0.19862 0.51945
 H95 H -0.04659 0.18625 0.53371
 C96 C -0.04312 0.23112 0.48378
 H97 H -0.04164 0.24343 0.46960
 C98 C -0.06176 0.21541 0.48413
 H99 H -0.07449 0.21584 0.47014
 Zn100 Zn -0.00008 0.25014 0.49997
 N101 N -0.02659 0.23050 0.50084
 C102 C -0.01631 0.26926 0.54285
 N103 N 0.00077 0.26986 0.52640
 C104 C 0.01836 0.28575 0.52749
 C105 C 0.01934 0.30180 0.54576
 C106 C -0.01600 0.28500 0.56145
 C107 C 0.02747 0.21451 0.48169
 C108 C 0.04577 0.19846 0.48076
 C109 C 0.06156 0.21537 0.51600
 C110 C 0.04293 0.23111 0.51627
 N111 N 0.02641 0.23045 0.49921
 H112 H -0.03048 0.25692 0.54136
 H113 H 0.03154 0.28605 0.51398
 H114 H 0.03359 0.31419 0.54638
 H115 H -0.03001 0.28457 0.57411
 H116 H 0.01391 0.21417 0.46853
 H117 H 0.04637 0.18603 0.46656
 H118 H 0.07428 0.21585 0.52998
 H119 H 0.04146 0.24349 0.53038
 C120 C -0.06328 0.19877 0.50206
 C121 C -0.00196 0.30162 0.43644
 C122 C 0.06307 0.19866 0.49815
 C123 C 0.00192 0.30165 0.56299
 C124 C 0.98186 0.71463 0.52768
 H125 H 0.96855 0.71397 0.51428
 C126 C 0.98120 0.69890 0.54626
 H127 H 0.96735 0.68607 0.54696
 C128 C 1.01666 0.73154 0.54234
 H129 H 1.03067 0.74401 0.54055
 C130 C 1.01670 0.71612 0.56120
 H131 H 1.03055 0.71724 0.57403
 N132 N 0.99933 0.73060 0.52611
 C133 C 0.97186 0.78585 0.48163
 H134 H 0.98529 0.78625 0.46836
 C135 C 0.95355 0.80188 0.48088
 H136 H 0.95280 0.81437 0.46672
 C137 C 0.95677 0.76910 0.51627
 H138 H 0.95839 0.75666 0.53033
 C139 C 0.93813 0.78483 0.51620
 H140 H 0.92555 0.78429 0.53027
 Zn141 Zn 0.99965 0.75018 0.49954
 N142 N 0.97312 0.76984 0.49908
 C143 C 0.98274 0.73140 0.45677
 N144 N 1.00005 0.73055 0.47302
 C145 C 1.01758 0.71462 0.47153
 C146 C 1.01833 0.69887 0.45299
 C147 C 0.98279 0.71595 0.43794
 C148 C 1.02731 0.78596 0.51736
 C149 C 1.04560 0.80201 0.51810
 C150 C 1.06111 0.78492 0.48286
 C151 C 1.04249 0.76917 0.48279
 N152 N 1.02612 0.76992 0.49995
 H153 H 0.96868 0.74384 0.45851
 H154 H 1.03087 0.71403 0.48495
 H155 H 1.03222 0.68608 0.45235
 H156 H 0.96895 0.71700 0.42510
 H157 H 1.01386 0.78637 0.53060
 H158 H 1.04631 0.81452 0.53223
 H159 H 1.07373 0.78436 0.46881
 H160 H 1.04092 0.75670 0.46876
 C161 C 0.93643 0.80161 0.49841
 C162 C 0.99883 0.69946 0.56330
 C163 C 1.06276 0.80172 0.50061
 C164 C 1.00072 0.69935 0.43591
 C165 C 0.47162 -0.01678 0.28549
 H166 H 0.48516 -0.02991 0.28646
 C167 C 0.45301 -0.01733 0.30117
 H168 H 0.45242 -0.03091 0.31428
 C169 C 0.45664 0.01748 0.26783
 H170 H 0.45833 0.03124 0.25508
 C171 C 0.43773 0.01762 0.28320
 H172 H 0.42477 0.03130 0.28178
 N173 N 0.47304 0.00036 0.26917
 C174 C 0.51792 -0.02805 0.21482
 H175 H 0.53108 -0.01454 0.21405
 C176 C 0.51885 -0.04678 0.19931
 H177 H 0.53267 -0.04674 0.18650
 C178 C 0.48315 -0.04265 0.23156
 H179 H 0.46911 -0.04086 0.24399
 C180 C 0.48332 -0.06167 0.21635
 H181 H 0.46968 -0.07455 0.21835
 Zn182 Zn 0.49972 0.00049 0.24973
 N183 N 0.50034 -0.02637 0.23059
 C184 C 0.54244 -0.01590 0.26928
 N185 N 0.52611 0.00133 0.26960
 C186 C 0.52733 0.01909 0.28526
 C187 C 0.54560 0.02011 0.30135
 C188 C 0.56104 -0.01556 0.28507
 C189 C 0.48198 0.02758 0.21341
 C190 C 0.48122 0.04572 0.19720
 C191 C 0.51638 0.06151 0.21435
 C192 C 0.51647 0.04303 0.23025
 N193 N 0.49935 0.02661 0.22957
 H194 H 0.54085 -0.03019 0.25712
 H195 H 0.51392 0.03238 0.28534
 H196 H 0.54634 0.03449 0.31356
 H197 H 0.57360 -0.02967 0.28486
 H198 H 0.46876 0.01410 0.21306
 H199 H 0.46710 0.04628 0.18462
 H200 H 0.53039 0.07418 0.21488
 H201 H 0.53048 0.04164 0.24281
 C202 C 0.50130 -0.06412 0.19964
 C203 C 0.43577 0.00008 0.30021
 C204 C 0.49864 0.06296 0.19746
 C205 C 0.56272 0.00255 0.30149
 C206 C 0.52675 -0.01894 0.71435
 H207 H 0.51336 -0.03224 0.71404
 C208 C 0.54494 -0.01961 0.69818
 H209 H 0.54562 -0.03375 0.68569
 C210 C 0.54193 0.01570 0.73103
 H211 H 0.54040 0.02972 0.74350
 C212 C 0.56044 0.01570 0.71517
 H213 H 0.57302 0.02979 0.71566
 N214 N 0.52562 -0.00153 0.73040
 C215 C 0.48227 -0.02930 0.78635
 H216 H 0.46903 -0.01586 0.78721
 C217 C 0.48181 -0.04784 0.80212
 H218 H 0.46818 -0.04848 0.81518
 C219 C 0.51672 -0.04408 0.76889
 H220 H 0.53051 -0.04235 0.75617
 C221 C 0.51694 -0.06292 0.78434
 H222 H 0.53072 -0.07578 0.78303
 Zn223 Zn 0.49943 -0.00126 0.75049
 N224 N 0.49946 -0.02781 0.77008
 C225 C 0.45635 -0.01822 0.73232
 N226 N 0.47255 -0.00091 0.73126
 C227 C 0.47081 0.01656 0.71532
 C228 C 0.45210 0.01722 0.69971
 C229 C 0.43735 -0.01826 0.71701
 C230 C 0.51784 0.02657 0.78590
 C231 C 0.51877 0.04494 0.80183
 C232 C 0.48302 0.06011 0.78532
 C233 C 0.48276 0.04143 0.76968
 N234 N 0.50008 0.02519 0.77019
 H235 H 0.45828 -0.03223 0.74477
 H236 H 0.48420 0.02985 0.71456
 H237 H 0.45128 0.03105 0.68687
 H238 H 0.42456 -0.03211 0.71819
 H239 H 0.53121 0.01324 0.78612
 H240 H 0.53317 0.04581 0.81406
 H241 H 0.46885 0.07261 0.78495
 H242 H 0.46848 0.03971 0.75749
 C243 C 0.49935 -0.06494 0.80129
 C244 C 0.56205 -0.00207 0.69839
 C245 C 0.50114 0.06197 0.80176
 C246 C 0.43509 -0.00041 0.70036
 C247 C 0.28582 0.01750 0.47174
 H248 H 0.28645 0.03085 0.48506
 C249 C 0.30155 0.01811 0.45316
 H250 H 0.31431 0.03201 0.45209
 C251 C 0.26880 -0.01728 0.45714
 H252 H 0.25633 -0.03128 0.45898
 C253 C 0.28424 -0.01733 0.43827
 H254 H 0.28346 -0.03125 0.42553
 N255 N 0.26976 0.00008 0.47331
 C256 C 0.21423 0.02813 0.51708
 H257 H 0.21355 0.01483 0.53045
 C258 C 0.19844 0.04668 0.51753
 H259 H 0.18558 0.04775 0.53134
 C260 C 0.23138 0.04267 0.48234
 H261 H 0.24391 0.04080 0.46841
 C262 C 0.21589 0.06150 0.48214
 H263 H 0.21668 0.07420 0.46816
 Zn264 Zn 0.25002 -0.00001 0.49976
 N265 N 0.23036 0.02653 0.49974
 C266 C 0.26852 0.01727 0.54256
 N267 N 0.26958 -0.00010 0.52640
 C268 C 0.28561 -0.01754 0.52813
 C269 C 0.30123 -0.01815 0.54684
 C270 C 0.28384 0.01732 0.56156
 C271 C 0.21434 -0.02809 0.48210
 C272 C 0.19854 -0.04662 0.48148
 C273 C 0.21573 -0.06149 0.51703
 C274 C 0.23123 -0.04267 0.51699
 N275 N 0.23034 -0.02652 0.49959
 H276 H 0.25607 0.03128 0.54060
 H277 H 0.28632 -0.03090 0.51482
 H278 H 0.31398 -0.03206 0.54804
 H279 H 0.28299 0.03125 0.57428
 H280 H 0.21375 -0.01479 0.46872
 H281 H 0.18577 -0.04767 0.46756
 H282 H 0.21641 -0.07419 0.53101
 H283 H 0.24367 -0.04083 0.53104
 C284 C 0.19926 0.06348 0.49988
 C285 C 0.30075 0.00052 0.43630
 C286 C 0.19922 -0.06344 0.49914
 C287 C 0.30034 -0.00054 0.56368
 C288 C 0.71384 0.01774 0.52859
 H289 H 0.71330 0.03123 0.51540
 C290 C 0.69796 0.01815 0.54705
 H291 H 0.68518 0.03204 0.54817
 C292 C 0.73069 -0.01726 0.54293
 H293 H 0.74314 -0.03127 0.54100
 C294 C 0.71511 -0.01750 0.56167
 H295 H 0.71575 -0.03160 0.57424
 N296 N 0.72986 0.00028 0.52693
 C297 C 0.78539 0.02852 0.48326
 H298 H 0.78601 0.01532 0.46980
 C299 C 0.80120 0.04705 0.48287
 H300 H 0.81401 0.04820 0.46903
 C301 C 0.76836 0.04285 0.51813
 H302 H 0.75586 0.04091 0.53209
 C303 C 0.78387 0.06166 0.51840
 H304 H 0.78314 0.07427 0.53245
 Zn305 Zn 0.74959 0.00035 0.50047
 N306 N 0.76931 0.02683 0.50063
 C307 C 0.73096 0.01806 0.45788
 N308 N 0.72997 0.00052 0.47387
 C309 C 0.71389 -0.01685 0.47210
 C310 C 0.69810 -0.01719 0.45352
 C311 C 0.71547 0.01838 0.43903
 C312 C 0.78519 -0.02801 0.51792
 C313 C 0.80094 -0.04660 0.51839
 C314 C 0.78370 -0.06110 0.48272
 C315 C 0.76825 -0.04222 0.48291
 N316 N 0.76919 -0.02623 0.50044
 H317 H 0.74346 0.03202 0.45990
 H318 H 0.71323 -0.03034 0.48528
 H319 H 0.68527 -0.03101 0.45231
 H320 H 0.71623 0.03248 0.42646
 H321 H 0.78581 -0.01482 0.53140
 H322 H 0.81370 -0.04781 0.53230
 H323 H 0.78298 -0.07367 0.46864
 H324 H 0.75582 -0.04021 0.46887
 C325 C 0.80045 0.06374 0.50062
 C326 C 0.69858 0.00034 0.56370
 C327 C 0.80021 -0.06326 0.50060
 C328 C 0.69888 0.00062 0.43687
 C329 C 0.48218 0.21430 1.02701
 H330 H 0.46887 0.21369 1.01361
 C331 C 0.48155 0.19849 1.04552
 H332 H 0.46766 0.18570 1.04647
 C333 C 0.51696 0.23126 1.04182
 H334 H 0.53097 0.24373 1.04007
 C335 C 0.51698 0.21574 1.06063
 H336 H 0.53090 0.21645 1.07343
 N337 N 0.49963 0.23034 1.02556
 C338 C 0.47158 0.28558 0.98133
 H339 H 0.48489 0.28619 0.96796
 C340 C 0.45299 0.30134 0.98075
 H341 H 0.45191 0.31411 0.96686
 C342 C 0.45705 0.26865 1.01618
 H343 H 0.45894 0.25622 1.03021
 C344 C 0.43818 0.28411 1.01626
 H345 H 0.42549 0.28341 1.03024
 Zn346 Zn 0.49981 0.24998 0.99903
 N347 N 0.47321 0.26958 0.99879
 C348 C 0.48275 0.23117 0.95625
 N349 N 0.50007 0.23032 0.97253
 C350 C 0.51756 0.21432 0.97113
 C351 C 0.51825 0.19847 0.95266
 C352 C 0.48278 0.21562 0.93748
 C353 C 0.52792 0.28565 1.01669
 C354 C 0.54649 0.30142 1.01731
 C355 C 0.56141 0.28419 0.98185
 C356 C 0.54256 0.26872 0.98190
 N357 N 0.52636 0.26964 0.99924
 H358 H 0.46870 0.24361 0.95796
 H359 H 0.53087 0.21377 0.98454
 H360 H 0.53218 0.18571 0.95176
 H361 H 0.46886 0.21626 0.92468
 H362 H 0.51458 0.28626 1.03002
 H363 H 0.54753 0.31419 1.03119
 H364 H 0.57415 0.28347 0.96791
 H365 H 0.54072 0.25628 0.96788
 C366 C 0.43618 0.30063 0.99840
 C367 C 0.49913 0.19919 1.06245
 C368 C 0.56336 0.30070 0.99970
 C369 C 0.50068 0.19910 0.93572
 C370 C 0.48313 0.78561 -0.02669
 H371 H 0.46980 0.78630 -0.01334
 C372 C 0.48248 0.80127 -0.04534
 H373 H 0.46857 0.81403 -0.04644
 C374 C 0.51791 0.76853 -0.04129
 H375 H 0.53192 0.75606 -0.03942
 C376 C 0.51792 0.78389 -0.06022
 H377 H 0.53182 0.78306 -0.07299
 N378 N 0.50057 0.76956 -0.02508
 C379 C 0.47254 0.71434 0.01908
 H380 H 0.48588 0.71371 0.03245
 C381 C 0.45398 0.69857 0.01963
 H382 H 0.45293 0.68578 0.03350
 C383 C 0.45793 0.73131 -0.01576
 H384 H 0.45979 0.74376 -0.02977
 C385 C 0.43908 0.71584 -0.01587
 H386 H 0.42636 0.71656 -0.02985
 Zn387 Zn 0.50072 0.74996 0.00148
 N388 N 0.47412 0.73036 0.00164
 C389 C 0.48359 0.76867 0.04421
 N390 N 0.50093 0.76960 0.02800
 C391 C 0.51842 0.78559 0.02956
 C392 C 0.51911 0.80130 0.04814
 C393 C 0.48362 0.78408 0.06309
 C394 C 0.52876 0.71422 -0.01604
 C395 C 0.54730 0.69840 -0.01660
 C396 C 0.56230 0.71568 0.01883
 C397 C 0.54347 0.73119 0.01873
 N398 N 0.52725 0.73027 0.00137
 H399 H 0.46954 0.75624 0.04238
 H400 H 0.53175 0.78621 0.01621
 H401 H 0.53305 0.81403 0.04920
 H402 H 0.46970 0.78334 0.07585
 H403 H 0.51540 0.71361 -0.02939
 H404 H 0.54829 0.68560 -0.03045
 H405 H 0.57505 0.71639 0.03279
 H406 H 0.54167 0.74367 0.03272
 C407 C 0.43713 0.69930 0.00196
 C408 C 0.50005 0.80041 -0.06223
 C409 C 0.56418 0.69912 0.00103
 C410 C 0.50153 0.80055 0.06504
 C411 C 1.02925 0.48215 0.21469
 H412 H 1.01597 0.46874 0.21413
 C413 C 1.04775 0.48163 0.19885
 H414 H 1.04881 0.46775 0.18609
 C415 C 1.04376 0.51705 0.23152
 H416 H 1.04188 0.53109 0.24393
 C417 C 1.06254 0.51720 0.21598
 H418 H 1.07519 0.53123 0.21662
 N419 N 1.02764 0.49961 0.23067
 C420 C 0.98336 0.47193 0.28598
 H421 H 0.97009 0.48535 0.28653
 C422 C 0.98258 0.45338 0.30174
 H423 H 0.96863 0.45244 0.31445
 C424 C 1.01812 0.45703 0.26912
 H425 H 1.03217 0.45875 0.25669
 C426 C 1.01800 0.43819 0.28459
 H427 H 1.03185 0.42533 0.28390
 Zn428 Zn 1.00106 0.49980 0.25027
 N429 N 1.00085 0.47334 0.26999
 C430 C 0.95838 0.48246 0.23151
 N431 N 0.97451 0.49987 0.23056
 C432 C 0.97290 0.51725 0.21447
 C433 C 0.95436 0.51771 0.19863
 C434 C 0.93955 0.48226 0.21598
 C435 C 1.01864 0.52800 0.28588
 C436 C 1.01924 0.54660 0.30157
 C437 C 0.98375 0.56147 0.28418
 C438 C 0.98381 0.54257 0.26879
 N439 N 1.00119 0.52639 0.26982
 H440 H 0.96026 0.46849 0.24401
 H441 H 0.98620 0.53064 0.21383
 H442 H 0.95328 0.53154 0.18579
 H443 H 0.92687 0.46826 0.21671
 H444 H 1.03200 0.51467 0.28657
 H445 H 1.03314 0.54769 0.31436
 H446 H 0.96980 0.57420 0.28337
 H447 H 0.96979 0.54070 0.25631
 C448 C 1.00007 0.43638 0.30105
 C449 C 1.06450 0.49936 0.19947
 C450 C 1.00161 0.56346 0.30073
 C451 C 0.93757 0.50003 0.19937
 C452 C -0.02822 0.48263 0.78523
 H453 H -0.01485 0.46930 0.78583
 C454 C -0.04674 0.48203 0.80104
 H455 H -0.04772 0.46816 0.81383
 C456 C -0.04293 0.51742 0.76828
 H457 H -0.04113 0.53144 0.75583
 C458 C -0.06174 0.51748 0.78379
 H459 H -0.07448 0.53143 0.78310
 N460 N -0.02671 0.50007 0.76920
 C461 C 0.01758 0.47242 0.71390
 H462 H 0.03083 0.48586 0.71329
 C463 C 0.01834 0.45388 0.69814
 H464 H 0.03225 0.45296 0.68538
 C465 C -0.01712 0.45750 0.73085
 H466 H -0.03115 0.45921 0.74330
 C467 C -0.01702 0.43867 0.71539
 H468 H -0.03086 0.42581 0.71611
 Zn469 Zn -0.00016 0.50033 0.74957
 N470 N 0.00012 0.47383 0.72992
 C471 C 0.04268 0.48324 0.76827
 N472 N 0.02644 0.50057 0.76922
 C473 C 0.02799 0.51799 0.78525
 C474 C 0.04661 0.51863 0.80100
 C475 C 0.06158 0.48322 0.78372
 C476 C -0.01793 0.52834 0.71388
 C477 C -0.01866 0.54691 0.69813
 C478 C 0.01677 0.56200 0.71542
 C479 C 0.01684 0.54314 0.73088
 N480 N -0.00045 0.52687 0.72992
 H481 H 0.04084 0.46923 0.75583
 H482 H 0.01462 0.53131 0.78588
 H483 H 0.04766 0.53251 0.81376
 H484 H 0.07436 0.46931 0.78297
 H485 H -0.03121 0.51494 0.71326
 H486 H -0.03258 0.54789 0.68536
 H487 H 0.03065 0.57481 0.71617
 H488 H 0.03089 0.54138 0.74334
 C489 C 0.00086 0.43688 0.69888
 C490 C -0.06361 0.49965 0.80034
 C491 C -0.00113 0.56386 0.69889
 C492 C 0.06352 0.50105 0.80024
 C493 C 0.12294 0.17072 0.50433
 C494 C 0.11806 0.14757 0.49833
 C495 C 0.09531 0.14116 0.49213
 C496 C 0.07748 0.15779 0.49197
 C497 C 0.08215 0.18111 0.49802
 C498 C 0.10511 0.18740 0.50419
 C499 C 0.13626 0.13024 0.49871
 C500 C 0.15117 0.11541 0.49900
 C501 C 0.16827 0.09768 0.49933
 C502 C 0.18256 0.08225 0.49959
 H503 H 0.14051 0.17587 0.50912
 H504 H 0.09132 0.12327 0.48756
 H505 H 0.05994 0.15231 0.48750
 H506 H 0.10931 0.20525 0.50869
 C507 C 0.67130 0.62255 -0.00394
 C508 C 0.64812 0.61776 0.00214
 C509 C 0.64166 0.59507 0.00835
 C510 C 0.65825 0.57720 0.00844
 C511 C 0.68159 0.58179 0.00231
 C512 C 0.68794 0.60468 -0.00388
 C513 C 0.63084 0.63599 0.00185
 C514 C 0.61603 0.65094 0.00163
 C515 C 0.59833 0.66807 0.00140
 C516 C 0.58292 0.68239 0.00122
 H517 H 0.67650 0.64007 -0.00875
 H518 H 0.62374 0.59115 0.01300
 H519 H 0.65271 0.55972 0.01293
 H520 H 0.70581 0.60881 -0.00845
 C521 C 0.90408 -0.14091 0.49269
 C522 C 0.88139 -0.14735 0.49898
 C523 C 0.87658 -0.17051 0.50500
 C524 C 0.89444 -0.18718 0.50476
 C525 C 0.91733 -0.18085 0.49846
 C526 C 0.92194 -0.15751 0.49242
 C527 C 0.86317 -0.13005 0.49942
 C528 C 0.84825 -0.11522 0.49974
 C529 C 0.83116 -0.09749 0.50007
 C530 C 0.81688 -0.08204 0.50032
 H531 H 0.90802 -0.12300 0.48810
 H532 H 0.85906 -0.17569 0.50987
 H533 H 0.89029 -0.20504 0.50926
 H534 H 0.93943 -0.15200 0.48786
 C535 C 0.35863 0.40448 1.00679
 C536 C 0.35219 0.38192 1.00013
 C537 C 0.32902 0.37725 0.99384
 C538 C 0.31238 0.39511 0.99416
 C539 C 0.31871 0.41788 1.00081
 C540 C 0.34204 0.42234 1.00713
 C541 C 0.36947 0.36370 0.99961
 C542 C 0.38429 0.34876 0.99923
 C543 C 0.40200 0.33165 0.99887
 C544 C 0.41743 0.31734 0.99862
 H545 H 0.37654 0.40831 1.01159
 H546 H 0.32384 0.35983 0.98869
 H547 H 0.29451 0.39107 0.98944
 H548 H 0.34756 0.43974 1.01197
 C549 C 0.90442 0.14135 0.50836
 C550 C 0.88168 0.14775 0.50213
 C551 C 0.87682 0.17089 0.49601
 C552 C 0.89467 0.18755 0.49607
 C553 C 0.91761 0.18125 0.50228
 C554 C 0.92227 0.15795 0.50845
 C555 C 0.86347 0.13045 0.50180
 C556 C 0.84855 0.11563 0.50153
 C557 C 0.83145 0.09791 0.50122
 C558 C 0.81715 0.08249 0.50095
 H559 H 0.90839 0.12347 0.51303
 H560 H 0.85926 0.17604 0.49118
 H561 H 0.89048 0.20539 0.49148
 H562 H 0.93980 0.15246 0.51295
 C563 C 0.32988 0.62290 0.00619
 C564 C 0.35311 0.61808 0.00030
 C565 C 0.35957 0.59541 -0.00598
 C566 C 0.34293 0.57760 -0.00635
 C567 C 0.31953 0.58222 -0.00045
 C568 C 0.31319 0.60508 0.00584
 C569 C 0.37042 0.63627 0.00080
 C570 C 0.38524 0.65119 0.00115
 C571 C 0.40296 0.66829 0.00150
 C572 C 0.41838 0.68259 0.00174
 H573 H 0.32468 0.64040 0.01105
 H574 H 0.37752 0.59147 -0.01048
 H575 H 0.34846 0.56013 -0.01091
 H576 H 0.29528 0.60924 0.01024
 C577 C 0.09512 -0.14083 0.50638
 C578 C 0.11784 -0.14731 0.50018
 C579 C 0.12265 -0.17048 0.49420
 C580 C 0.10477 -0.18712 0.49438
 C581 C 0.08186 -0.18076 0.50058
 C582 C 0.07725 -0.15741 0.50658
 C583 C 0.13608 -0.13005 0.49985
 C584 C 0.15104 -0.11526 0.49963
 C585 C 0.16817 -0.09757 0.49942
 C586 C 0.18249 -0.08217 0.49927
 H587 H 0.09119 -0.12293 0.51094
 H588 H 0.14019 -0.17569 0.48941
 H589 H 0.10892 -0.20499 0.48992
 H590 H 0.05975 -0.15188 0.51107
 C591 C 0.67079 0.37680 1.00464
 C592 C 0.64760 0.38170 0.99861
 C593 C 0.64122 0.40442 0.99240
 C594 C 0.65790 0.42220 0.99224
 C595 C 0.68126 0.41749 0.99831
 C596 C 0.68752 0.39457 1.00451
 C597 C 0.63023 0.36356 0.99894
 C598 C 0.61536 0.34869 0.99918
 C599 C 0.59760 0.33164 0.99941
 C600 C 0.58214 0.31737 0.99957
 H601 H 0.67593 0.35925 1.00944
 H602 H 0.62330 0.40844 0.98780
 H603 H 0.65243 0.43971 0.98775
 H604 H 0.70540 0.39035 1.00903
 C605 C 0.49275 0.09513 1.13989
 C606 C 0.49879 0.11787 1.14634
 C607 C 0.50472 0.12274 1.16952
 C608 C 0.50464 0.10492 1.18620
 C609 C 0.49859 0.08199 1.17988
 C610 C 0.49264 0.07731 1.15652
 C611 C 0.49901 0.13608 1.12905
 C612 C 0.49912 0.15102 1.11426
 C613 C 0.49919 0.16815 1.09658
 C614 C 0.49919 0.18248 1.08118
 H615 H 0.48822 0.09114 1.12197
 H616 H 0.50939 0.14030 1.17471
 H617 H 0.50905 0.10913 1.20409
 H618 H 0.48825 0.05979 1.15101
 C619 C -0.02207 0.65929 0.61165
 C620 C -0.00111 0.64891 0.61875
 C621 C 0.01988 0.65536 0.60806
 C622 C 0.01990 0.67199 0.59021
 C623 C -0.00111 0.68237 0.58279
 C624 C -0.02209 0.67591 0.59380
 C625 C -0.00118 0.63122 0.63656
 C626 C -0.00120 0.61615 0.65124
 C627 C -0.00119 0.59823 0.66812
 C628 C -0.00117 0.58270 0.68229
 H629 H -0.03842 0.65444 0.61982
 H630 H 0.03619 0.64735 0.61333
 H631 H 0.03630 0.67632 0.58188
 H632 H -0.03850 0.68379 0.58867
 C633 C 0.52084 0.89038 -0.15475
 C634 C 0.49990 0.87982 -0.14796
 C635 C 0.47883 0.88693 -0.15811
 C636 C 0.47865 0.90470 -0.17482
 C637 C 0.49959 0.91560 -0.18160
 C638 C 0.52072 0.90814 -0.17147
 C639 C 0.49996 0.86216 -0.13011
 C640 C 0.50000 0.84762 -0.11492
 C641 C 0.50003 0.83089 -0.09685
 C642 C 0.50005 0.81686 -0.08119
 H643 H 0.53724 0.88509 -0.14692
 H644 H 0.46251 0.87886 -0.15299
 H645 H 0.46215 0.90985 -0.18250
 H646 H 0.53708 0.91639 -0.17607
 C647 C 1.00957 0.33059 0.37877
 C648 C 0.99828 0.35196 0.38180
 C649 C 0.98666 0.35660 0.40268
 C650 C 0.98639 0.34004 0.42056
 C651 C 0.99786 0.31830 0.41801
 C652 C 1.00940 0.31394 0.39661
 C653 C 0.99885 0.36936 0.36370
 C654 C 0.99927 0.38425 0.34886
 C655 C 0.99966 0.40205 0.33186
 C656 C 0.99990 0.41754 0.31764
 H657 H 1.01849 0.32674 0.36256
 H658 H 0.97802 0.37321 0.40530
 H659 H 0.97801 0.34502 0.43669
 H660 H 1.01773 0.29741 0.39304
 C661 C 0.52251 0.89163 0.15627
 C662 C 0.50168 0.88057 0.15012
 C663 C 0.48081 0.88734 0.16071
 C664 C 0.48066 0.90528 0.17721
 C665 C 0.50150 0.91703 0.18347
 C666 C 0.52249 0.90961 0.17273
 C667 C 0.50164 0.86273 0.13246
 C668 C 0.50161 0.84807 0.11741
 C669 C 0.50158 0.83121 0.09947
 C670 C 0.50155 0.81709 0.08391
 H671 H 0.53884 0.88639 0.14830
 H672 H 0.46451 0.87900 0.15591
 H673 H 0.46386 0.91049 0.18402
 H674 H 0.53920 0.91705 0.17737
 C675 C -0.00422 0.32961 0.62275
 C676 C 0.00185 0.35275 0.61789
 C677 C 0.00810 0.35913 0.59518
 C678 C 0.00822 0.34250 0.57738
 C679 C 0.00209 0.31920 0.58204
 C680 C -0.00412 0.31293 0.60495
 C681 C 0.00153 0.37007 0.63605
 C682 C 0.00129 0.38490 0.65093
 C683 C 0.00108 0.40264 0.66799
 C684 C 0.00094 0.41809 0.68224
 H685 H -0.00905 0.32447 0.64029
 H686 H 0.01274 0.37701 0.59120
 H687 H 0.01273 0.34798 0.55987
 H688 H -0.00868 0.29509 0.60914
 C689 C 0.50778 0.09476 0.85887
 C690 C 0.50121 0.11734 0.85234
 C691 C 0.49474 0.12192 0.82923
 C692 C 0.49478 0.10396 0.81272
 C693 C 0.50133 0.08118 0.81914
 C694 C 0.50784 0.07680 0.84241
 C695 C 0.50097 0.13568 0.86948
 C696 C 0.50082 0.15071 0.88416
 C697 C 0.50070 0.16794 0.90174
 C698 C 0.50066 0.18233 0.91706
 H699 H 0.51273 0.09101 0.87673
 H700 H 0.48966 0.13935 0.82398
 H701 H 0.48992 0.10793 0.79489
 H702 H 0.51262 0.05940 0.84799
 C703 C 1.02189 0.65918 0.38770
 C704 C 1.00098 0.64870 0.38060
 C705 C 0.97995 0.65510 0.39123
 C706 C 0.97981 0.67176 0.40903
 C707 C 1.00076 0.68223 0.41647
 C708 C 1.02180 0.67583 0.40552
 C709 C 1.00117 0.63097 0.36284
 C710 C 1.00130 0.61587 0.34822
 C711 C 1.00142 0.59791 0.33139
 C712 C 1.00151 0.58234 0.31727
 H713 H 1.03827 0.65437 0.37958
 H714 H 0.96368 0.64702 0.38594
 H715 H 0.96339 0.67605 0.41732
 H716 H 1.03817 0.68378 0.41065
 C717 C 1.16944 0.48980 0.12072
 C718 C 1.14816 0.50135 0.11791
 C719 C 1.14350 0.51322 0.09715
 C720 C 1.15996 0.51348 0.07919
 C721 C 1.18162 0.50176 0.08152
 C722 C 1.18599 0.48996 0.10280
 C723 C 1.13088 0.50081 0.13613
 C724 C 1.11611 0.50039 0.15109
 C725 C 1.09849 0.49997 0.16828
 C726 C 1.08315 0.49966 0.18266
 H727 H 1.17331 0.48069 0.13684
 H728 H 1.12694 0.52206 0.09470
 H729 H 1.15496 0.52208 0.06316
 H730 H 1.20248 0.48142 0.10621
 C731 C 0.59434 -0.00780 0.64090
 C732 C 0.61704 -0.00149 0.64736
 C733 C 0.62187 0.00452 0.67053
 C734 C 0.60403 0.00427 0.68718
 C735 C 0.58112 -0.00202 0.68085
 C736 C 0.57650 -0.00807 0.65750
 C737 C 0.63526 -0.00104 0.63009
 C738 C 0.65023 -0.00069 0.61532
 C739 C 0.66740 -0.00031 0.59769
 C740 C 0.68178 -0.00000 0.58235
 H741 H 0.59039 -0.01239 0.62299
 H742 H 0.63940 0.00939 0.67572
 H743 H 0.60820 0.00877 0.70505
 H744 H 0.55899 -0.01264 0.65199
 C745 C -0.17055 0.49498 0.87705
 C746 C -0.14734 0.50100 0.88181
 C747 C -0.14081 0.50724 0.90449
 C748 C -0.15737 0.50742 0.92237
 C749 C -0.18075 0.50135 0.91781
 C750 C -0.18717 0.49514 0.89493
 C751 C -0.13010 0.50062 0.86357
 C752 C -0.11533 0.50034 0.84860
 C753 C -0.09767 0.50004 0.83145
 C754 C -0.08230 0.49984 0.81710
 H755 H -0.17581 0.49016 0.85954
 H756 H -0.12287 0.51184 0.90839
 H757 H -0.15178 0.51193 0.93985
 H758 H -0.20506 0.49062 0.89082
 C759 C 0.38765 -0.02059 0.34076
 C760 C 0.38040 0.00044 0.35081
 C761 C 0.39086 0.02139 0.34395
 C762 C 0.40866 0.02133 0.32728
 C763 C 0.41626 0.00025 0.31726
 C764 C 0.40545 -0.02070 0.32410
 C765 C 0.36269 0.00045 0.36860
 C766 C 0.34812 0.00046 0.38376
 C767 C 0.33135 0.00048 0.40178
 C768 C 0.31727 0.00050 0.41739
 H769 H 0.37965 -0.03691 0.34593
 H770 H 0.38545 0.03776 0.35170
 H771 H 0.41684 0.03770 0.32263
 H772 H 0.41072 -0.03716 0.31650
 C773 C 0.15922 0.47965 0.88721
 C774 C 0.14891 0.50066 0.88024
 C775 C 0.15548 0.52154 0.89104
 C776 C 0.17215 0.52141 0.90888
 C777 C 0.18245 0.50034 0.91619
 C778 C 0.17589 0.47947 0.90506
 C779 C 0.13114 0.50074 0.86246
 C780 C 0.11601 0.50082 0.84782
 C781 C 0.09801 0.50092 0.83097
 C782 C 0.08242 0.50099 0.81682
 H783 H 0.15427 0.46339 0.87895
 H784 H 0.14753 0.53789 0.88586
 H785 H 0.17658 0.53771 0.91731
 H786 H 0.18370 0.46303 0.91010
 C787 C 0.62250 -0.00384 0.32962
 C788 C 0.61769 0.00255 0.35268
 C789 C 0.59502 0.00913 0.35895
 C790 C 0.57719 0.00925 0.34228
 C791 C 0.58180 0.00278 0.31906
 C792 C 0.60468 -0.00374 0.31290
 C793 C 0.63585 0.00214 0.37005
 C794 C 0.65076 0.00180 0.38491
 C795 C 0.66787 0.00138 0.40266
 C796 C 0.68217 0.00103 0.41810
 H797 H 0.64000 -0.00893 0.32458
 H798 H 0.59107 0.01401 0.37677
 H799 H 0.55971 0.01401 0.34767
 H800 H 0.60883 -0.00857 0.29513
 C801 C 0.85977 0.49176 0.09546
 C802 C 0.85341 0.49812 0.11814
 C803 C 0.83023 0.50419 0.12298
 C804 C 0.81349 0.50396 0.10518
 C805 C 0.81974 0.49763 0.08230
 C806 C 0.84308 0.49150 0.07766
 C807 C 0.87078 0.49861 0.13630
 C808 C 0.88565 0.49900 0.15120
 C809 C 0.90339 0.49941 0.16831
 C810 C 0.91882 0.49972 0.18263
 H811 H 0.87768 0.48713 0.09150
 H812 H 0.82511 0.50911 0.14049
 H813 H 0.79563 0.50852 0.10935
 H814 H 0.84854 0.48691 0.06018
 C815 C 0.38664 0.02035 0.66010
 C816 C 0.37968 -0.00058 0.64966
 C817 C 0.39042 -0.02152 0.65617
 C818 C 0.40822 -0.02152 0.67289
 C819 C 0.41555 -0.00053 0.68329
 C820 C 0.40445 0.02040 0.67681
 C821 C 0.36200 -0.00052 0.63178
 C822 C 0.34747 -0.00049 0.61655
 C823 C 0.33076 -0.00049 0.59843
 C824 C 0.31675 -0.00051 0.58272
 H825 H 0.37842 0.03666 0.65519
 H826 H 0.38525 -0.03781 0.64811
 H827 H 0.41663 -0.03787 0.67725
 H828 H 0.40949 0.03679 0.68471
   
