data_POSCAR
  _audit_creation_date              2014-09-24
  _audit_creation_method            'ToBaCCo'
  _symmetry_space_group_name_H-M    'P1'
  _symmetry_Int_Tables_number       1
  _symmetry_cell_setting            triclinic
  loop_
  _symmetry_equiv_pos_as_xyz
 x,y,z
_cell_length_a 45.0239
_cell_length_b 46.3686
_cell_length_c 47.4277
_cell_angle_alpha 84.134500
_cell_angle_beta 95.575900
_cell_angle_gamma 96.841400
loop_
  _atom_site_label
  _atom_site_type_symbol
  _atom_site_fract_x
  _atom_site_fract_y
  _atom_site_fract_z
C1 C 0.21443 0.27183 0.28011
 C2 C 0.23304 0.29025 0.25805
 C3 C 0.24963 0.27463 0.24398
 C4 C 0.24591 0.24173 0.25313
 C5 C 0.19542 0.24846 0.26343
 C6 C 0.21184 0.23280 0.24916
 C7 C 0.23701 0.25512 0.29952
 C8 C 0.25348 0.23927 0.28556
 H9 H 0.23301 0.31367 0.25402
 H10 H 0.25930 0.22890 0.24159
 H11 H 0.17114 0.24514 0.26235
 H12 H 0.23913 0.25538 0.32245
 C13 C 0.71263 0.77316 0.27936
 C14 C 0.73318 0.79118 0.25870
 C15 C 0.74870 0.77498 0.24417
 C16 C 0.74226 0.74189 0.25173
 C17 C 0.69247 0.75206 0.26091
 C18 C 0.70792 0.73568 0.24643
 C19 C 0.73305 0.75388 0.29854
 C20 C 0.74860 0.73748 0.28424
 H21 H 0.73465 0.81476 0.25545
 H22 H 0.75487 0.72864 0.23987
 H23 H 0.66819 0.75050 0.25917
 H24 H 0.73467 0.75314 0.32154
 C25 C 0.72681 0.28575 0.78263
 C26 C 0.74884 0.30415 0.76658
 C27 C 0.76694 0.28841 0.75179
 C28 C 0.75967 0.25681 0.75603
 C29 C 0.70867 0.26662 0.76090
 C30 C 0.72584 0.25140 0.74698
 C31 C 0.74482 0.26459 0.80236
 C32 C 0.76219 0.24943 0.78855
 H33 H 0.75079 0.32776 0.76528
 H34 H 0.77354 0.24422 0.74475
 H35 H 0.68450 0.26532 0.75680
 H36 H 0.74407 0.26221 0.82525
 C37 C 0.22041 0.78537 0.77319
 C38 C 0.24482 0.80471 0.75766
 C39 C 0.26187 0.78979 0.74331
 C40 C 0.25297 0.75660 0.74596
 C41 C 0.20236 0.76809 0.75007
 C42 C 0.21934 0.75292 0.73589
 C43 C 0.23714 0.76280 0.79225
 C44 C 0.25429 0.74776 0.77816
 H45 H 0.24777 0.82825 0.75759
 H46 H 0.26685 0.74436 0.73433
 H47 H 0.17826 0.76750 0.74562
 H48 H 0.23561 0.75931 0.81502
 C49 C 0.05067 0.02658 0.01190
 H50 H 0.05365 0.03070 -0.01058
 C51 C 0.06866 0.04316 0.03139
 H52 H 0.08555 0.05996 0.02372
 C53 C 0.02419 0.00039 0.04897
 H54 H 0.00643 -0.01582 0.05574
 C55 C 0.04137 0.01670 0.06911
 H56 H 0.03685 0.01244 0.09125
 N57 N 0.02912 0.00549 0.02096
 C58 C 0.01064 -0.05110 -0.04860
 H59 H -0.01356 -0.05198 -0.05173
 C60 C 0.02599 -0.06632 -0.06543
 H61 H 0.01334 -0.07880 -0.08157
 C62 C 0.05631 -0.03395 -0.02345
 H63 H 0.06805 -0.02175 -0.00676
 C64 C 0.07255 -0.04885 -0.03975
 H65 H 0.09671 -0.04756 -0.03553
 Zn66 Zn 0.00366 -0.01469 -0.00657
 N67 N 0.02596 -0.03493 -0.02841
 C68 C -0.01708 0.01660 -0.05869
 N69 N -0.01686 0.01364 -0.02983
 C70 C -0.03142 0.03129 -0.01605
 C71 C -0.04806 0.05212 -0.03134
 C72 C -0.03349 0.03721 -0.07488
 C73 C -0.01384 -0.06485 0.02913
 C74 C -0.03341 -0.08430 0.04497
 C75 C -0.07443 -0.05793 0.02388
 C76 C -0.05415 -0.03916 0.00833
 N77 N -0.02434 -0.04235 0.01185
 H78 H -0.00478 0.00288 -0.06926
 H79 H -0.03050 0.02878 0.00694
 H80 H -0.05986 0.06553 -0.01982
 H81 H -0.03378 0.03891 -0.09784
 H82 H 0.00993 -0.06711 0.03127
 H83 H -0.02447 -0.10148 0.05933
 H84 H -0.09793 -0.05445 0.02131
 H85 H -0.06227 -0.02172 -0.00608
 C86 C 0.05742 -0.06517 -0.06123
 C87 C 0.06390 0.03848 0.06041
 C88 C -0.06406 -0.08050 0.04295
 C89 C -0.04957 0.05509 -0.06120
 C90 C 0.03854 0.55222 0.50272
 H91 H 0.02262 0.55961 0.48577
 C92 C 0.05673 0.57264 0.51820
 H93 H 0.05457 0.59561 0.51293
 C94 C 0.06022 0.51338 0.53049
 H95 H 0.06093 0.49016 0.53548
 C96 C 0.07912 0.53308 0.54633
 H97 H 0.09440 0.52481 0.56347
 N98 N 0.04027 0.52320 0.50934
 C99 C 0.01621 0.45444 0.45182
 H100 H -0.00801 0.45172 0.45158
 C101 C 0.03038 0.43791 0.43523
 H102 H 0.01681 0.42233 0.42249
 C103 C 0.06308 0.47850 0.46837
 H104 H 0.07578 0.49451 0.48109
 C105 C 0.07816 0.46246 0.45210
 H106 H 0.10240 0.46628 0.45273
 Zn107 Zn 0.01252 0.49578 0.49079
 N108 N 0.03266 0.47403 0.46824
 C109 C -0.01628 0.51896 0.43855
 N110 N -0.01642 0.51614 0.46740
 C111 C -0.03638 0.52892 0.48039
 C112 C -0.05713 0.54536 0.46441
 C113 C -0.03672 0.53527 0.42168
 C114 C -0.01428 0.48404 0.54188
 C115 C -0.02986 0.46792 0.56331
 C116 C -0.02904 0.42465 0.53920
 C117 C -0.01346 0.44169 0.51813
 N118 N -0.00696 0.47098 0.51950
 H119 H 0.00010 0.50912 0.42858
 H120 H -0.03595 0.52685 0.50327
 H121 H -0.07254 0.55548 0.47541
 H122 H -0.03600 0.53753 0.39880
 H123 H -0.00810 0.50717 0.54307
 H124 H -0.03578 0.47902 0.58063
 H125 H -0.03450 0.40150 0.53742
 H126 H -0.00697 0.43144 0.50061
 C127 C 0.06181 0.44169 0.43535
 C128 C 0.07709 0.56314 0.54057
 C129 C -0.03784 0.43785 0.56198
 C130 C -0.05739 0.54891 0.43464
 C131 C 0.54793 0.05664 0.50783
 H132 H 0.53270 0.06486 0.49069
 C133 C 0.56625 0.07620 0.52417
 H134 H 0.56487 0.09936 0.51935
 C135 C 0.56775 0.01655 0.53523
 H136 H 0.56766 -0.00681 0.53973
 C137 C 0.58676 0.03539 0.55193
 H138 H 0.60132 0.02632 0.56926
 N139 N 0.54863 0.02741 0.51387
 C140 C 0.52318 -0.03892 0.45401
 H141 H 0.49895 -0.04068 0.45334
 C142 C 0.53683 -0.05555 0.43713
 H143 H 0.52285 -0.07022 0.42371
 C144 C 0.57061 -0.01726 0.47204
 H145 H 0.58372 -0.00216 0.48550
 C146 C 0.58521 -0.03348 0.45551
 H147 H 0.60950 -0.03071 0.45664
 Zn148 Zn 0.52042 0.00130 0.49416
 N149 N 0.54012 -0.02047 0.47127
 C150 C 0.49293 0.02620 0.44204
 N151 N 0.49254 0.02310 0.47086
 C152 C 0.47300 0.03641 0.48388
 C153 C 0.45288 0.05358 0.46793
 C154 C 0.47307 0.04317 0.42520
 C155 C 0.49282 -0.05296 0.51952
 C156 C 0.47642 -0.07038 0.53975
 C157 C 0.47565 -0.02794 0.56511
 C158 C 0.49202 -0.01139 0.54445
 N159 N 0.49972 -0.02386 0.52185
 H160 H 0.50902 0.01600 0.43205
 H161 H 0.47326 0.03413 0.50675
 H162 H 0.43773 0.06405 0.47892
 H163 H 0.47392 0.04554 0.40234
 H164 H 0.49965 -0.06277 0.50189
 H165 H 0.47069 -0.09337 0.53719
 H166 H 0.46945 -0.01732 0.58262
 H167 H 0.49856 0.01156 0.54645
 C168 C 0.56829 -0.05309 0.43786
 C169 C 0.58569 0.06564 0.54682
 C170 C 0.46724 -0.05780 0.56273
 C171 C 0.45277 0.05726 0.43816
 C172 C 0.52205 0.54247 0.01036
 H173 H 0.50764 0.55203 -0.00663
 C174 C 0.53882 0.56062 0.02912
 H175 H 0.53656 0.58376 0.02646
 C176 C 0.54341 0.50132 0.03380
 H177 H 0.54564 0.47831 0.03528
 C178 C 0.56101 0.51882 0.05283
 H179 H 0.57610 0.50889 0.06916
 N180 N 0.52383 0.51319 0.01341
 C181 C 0.50777 0.44910 -0.04937
 H182 H 0.48366 0.44396 -0.04968
 C183 C 0.52424 0.43410 -0.06538
 H184 H 0.51255 0.41738 -0.07798
 C185 C 0.55212 0.47717 -0.03235
 H186 H 0.56285 0.49414 -0.01962
 C187 C 0.56948 0.46264 -0.04792
 H188 H 0.59353 0.46859 -0.04684
 Zn189 Zn 0.49838 0.48911 -0.01162
 N190 N 0.52187 0.47010 -0.03324
 C191 C 0.47482 0.51622 -0.06486
 N192 N 0.47351 0.51316 -0.03614
 C193 C 0.45450 0.52762 -0.02364
 C194 C 0.43573 0.54581 -0.04001
 C195 C 0.45639 0.53437 -0.08214
 C196 C 0.48572 0.44103 0.02976
 C197 C 0.46743 0.42150 0.04689
 C198 C 0.42399 0.44042 0.02106
 C199 C 0.44303 0.45931 0.00435
 N200 N 0.47338 0.46025 0.00963
 H201 H 0.49026 0.50476 -0.07439
 H202 H 0.45401 0.52499 -0.00075
 H203 H 0.42089 0.55702 -0.02939
 H204 H 0.45777 0.53658 -0.10493
 H205 H 0.50975 0.44091 0.03280
 H206 H 0.47773 0.40702 0.06336
 H207 H 0.39996 0.44074 0.01686
 H208 H 0.43330 0.47331 -0.01272
 C209 C 0.55558 0.44072 -0.06469
 C210 C 0.55835 0.54882 0.05093
 C211 C 0.43613 0.42164 0.04310
 C212 C 0.43649 0.54945 -0.06970
 C213 C 0.17090 -0.16822 -0.17914
 N214 N 0.20119 -0.16724 -0.17424
 N215 N 0.21670 -0.18175 -0.18951
 C216 C 0.20253 -0.19778 -0.21028
 N217 N 0.17221 -0.19867 -0.21523
 N218 N 0.15669 -0.18416 -0.19995
 C219 C 0.15384 -0.15261 -0.16192
 N220 N 0.12348 -0.15385 -0.16640
 N221 N 0.10804 -0.13993 -0.15051
 C222 C 0.12241 -0.12427 -0.12955
 N223 N 0.15276 -0.12300 -0.12511
 N224 N 0.16819 -0.13692 -0.14100
 C225 C 0.10548 -0.10901 -0.11188
 N226 N 0.11999 -0.09343 -0.09097
 N227 N 0.10472 -0.07958 -0.07489
 C228 C 0.07433 -0.08077 -0.07905
 N229 N 0.05985 -0.09642 -0.10001
 N230 N 0.07512 -0.11027 -0.11611
 C231 C 0.16745 0.32295 0.32542
 N232 N 0.15225 0.30186 0.31006
 N233 N 0.16693 0.28565 0.29570
 C234 C 0.19735 0.28992 0.29615
 N235 N 0.21249 0.31103 0.31151
 N236 N 0.19783 0.32722 0.32587
 C237 C 0.15143 0.34081 0.34139
 N238 N 0.16687 0.36168 0.35684
 N239 N 0.15248 0.37785 0.37148
 C240 C 0.12210 0.37376 0.37121
 N241 N 0.10662 0.35291 0.35573
 N242 N 0.12103 0.33672 0.34108
 C243 C 0.10636 0.39150 0.38757
 N244 N 0.07599 0.38755 0.38745
 N245 N 0.06183 0.40354 0.40252
 C246 C 0.07747 0.42410 0.41829
 N247 N 0.10787 0.42801 0.41831
 N248 N 0.12203 0.41204 0.40325
 C249 C 0.66858 -0.17429 0.32582
 N250 N 0.65240 -0.19366 0.30910
 N251 N 0.66615 -0.21031 0.29437
 C252 C 0.69661 -0.20822 0.29582
 N253 N 0.71274 -0.18883 0.31256
 N254 N 0.69900 -0.17219 0.32727
 C255 C 0.65351 -0.15597 0.34215
 N256 N 0.66983 -0.13668 0.35886
 N257 N 0.65623 -0.12011 0.37380
 C258 C 0.62581 -0.12222 0.37258
 N259 N 0.60948 -0.14149 0.35585
 N260 N 0.62308 -0.15806 0.34090
 C261 C 0.61088 -0.10411 0.38925
 N262 N 0.58047 -0.10632 0.38826
 N263 N 0.56697 -0.09005 0.40359
 C264 C 0.58331 -0.07093 0.42052
 N265 N 0.61375 -0.06874 0.42141
 N266 N 0.62727 -0.08500 0.40608
 C267 C 0.67556 0.33312 -0.17223
 N268 N 0.70596 0.33563 -0.16770
 N269 N 0.72205 0.32069 -0.18200
 C270 C 0.70837 0.30274 -0.20144
 N271 N 0.67794 0.30028 -0.20592
 N272 N 0.66185 0.31516 -0.19160
 C273 C 0.65773 0.34943 -0.15640
 N274 N 0.62728 0.34584 -0.16007
 N275 N 0.61105 0.36049 -0.14563
 C276 C 0.62469 0.37933 -0.12703
 N277 N 0.65515 0.38296 -0.12338
 N278 N 0.67138 0.36826 -0.13778
 C279 C 0.60678 0.39538 -0.11102
 N280 N 0.62037 0.41501 -0.09320
 N281 N 0.60412 0.42945 -0.07859
 C282 C 0.57364 0.42482 -0.08116
 N283 N 0.56010 0.40514 -0.09903
 N284 N 0.57634 0.39073 -0.11369
 C285 C -0.18080 0.19123 -0.16826
 N286 N -0.18271 0.19562 -0.19711
 N287 N -0.20094 0.21403 -0.21089
 C288 C -0.21796 0.22867 -0.19635
 N289 N -0.21604 0.22418 -0.16752
 N290 N -0.19782 0.20582 -0.15375
 C291 C -0.16064 0.17118 -0.15280
 N292 N -0.15854 0.16768 -0.12394
 N293 N -0.14036 0.14957 -0.10969
 C294 C -0.12358 0.13426 -0.12374
 N295 N -0.12564 0.13774 -0.15263
 N296 N -0.14383 0.15590 -0.16691
 C297 C -0.10386 0.11411 -0.10777
 N298 N -0.08757 0.09790 -0.12140
 N299 N -0.07013 0.07933 -0.10667
 C300 C -0.06827 0.07626 -0.07775
 N301 N -0.08453 0.09262 -0.06423
 N302 N -0.10196 0.11115 -0.07892
 C303 C -0.19386 0.67928 0.32653
 N304 N -0.20988 0.69461 0.34133
 N305 N -0.22806 0.71311 0.32782
 C306 C -0.23100 0.71703 0.29897
 N307 N -0.21499 0.70167 0.28412
 N308 N -0.19671 0.68315 0.29766
 C309 C -0.17387 0.65900 0.34184
 N310 N -0.15654 0.64425 0.32772
 N311 N -0.13830 0.62611 0.34200
 C312 C -0.13683 0.62205 0.37086
 N313 N -0.15422 0.63674 0.38488
 N314 N -0.17237 0.65487 0.37065
 C315 C -0.11659 0.60249 0.38698
 N316 N -0.11601 0.59857 0.41575
 N317 N -0.09740 0.58137 0.43073
 C318 C -0.07858 0.56737 0.41759
 N319 N -0.07926 0.57123 0.38873
 N320 N -0.09793 0.58845 0.37369
 C321 C 0.31495 0.18555 0.32878
 N322 N 0.31079 0.18762 0.29992
 N323 N 0.29139 0.20485 0.28609
 C324 C 0.27549 0.22064 0.30061
 N325 N 0.27981 0.21859 0.32944
 N326 N 0.29913 0.20139 0.34325
 C327 C 0.33584 0.16632 0.34441
 N328 N 0.33856 0.16379 0.37327
 N329 N 0.35717 0.14627 0.38775
 C330 C 0.37383 0.13062 0.37393
 N331 N 0.37119 0.13315 0.34502
 N332 N 0.35248 0.15068 0.33051
 C333 C 0.39424 0.11136 0.39025
 N334 N 0.41201 0.09626 0.37703
 N335 N 0.43056 0.07900 0.39217
 C336 C 0.43199 0.07612 0.42108
 N337 N 0.41411 0.09123 0.43417
 N338 N 0.39563 0.10849 0.41908
 C339 C 0.30716 0.68546 -0.17957
 N340 N 0.30771 0.69229 -0.20807
 N341 N 0.29076 0.71197 -0.22162
 C342 C 0.27270 0.72555 -0.20716
 N343 N 0.27216 0.71860 -0.17870
 N344 N 0.28904 0.69895 -0.16518
 C345 C 0.32606 0.66425 -0.16417
 N346 N 0.32504 0.65804 -0.13568
 N347 N 0.34237 0.63926 -0.12128
 C348 C 0.36141 0.62595 -0.13480
 N349 N 0.36243 0.63206 -0.16335
 N350 N 0.34504 0.65089 -0.17779
 C351 C 0.38072 0.60570 -0.11840
 N352 N 0.40024 0.59214 -0.13115
 N353 N 0.41791 0.57414 -0.11580
 C354 C 0.41674 0.56906 -0.08715
 N355 N 0.39712 0.58264 -0.07457
 N356 N 0.37949 0.60057 -0.08986
 C357 C -0.19635 -0.18680 0.18101
 N358 N -0.19448 -0.21490 0.19176
 N359 N -0.21198 -0.22718 0.21184
 C360 C -0.23172 -0.21172 0.22207
 N361 N -0.23343 -0.18364 0.21134
 N362 N -0.21617 -0.17145 0.19115
 C363 C -0.17735 -0.17284 0.15889
 N364 N -0.18320 -0.14669 0.14525
 N365 N -0.16580 -0.13336 0.12563
 C366 C -0.14175 -0.14556 0.11901
 N367 N -0.13585 -0.17177 0.13260
 N368 N -0.15342 -0.18524 0.15213
 C369 C -0.12210 -0.12993 0.09816
 N370 N -0.09499 -0.13867 0.09497
 N371 N -0.07668 -0.12330 0.07709
 C372 C -0.08488 -0.09874 0.06160
 N373 N -0.11217 -0.09030 0.06464
 N374 N -0.13036 -0.10553 0.08260
 C375 C -0.17034 0.33004 0.69940
 N376 N -0.18565 0.34549 0.71474
 N377 N -0.20578 0.33195 0.73178
 C378 C -0.21137 0.30240 0.73426
 N379 N -0.19584 0.28694 0.71902
 N380 N -0.17576 0.30050 0.70186
 C381 C -0.14884 0.34530 0.68005
 N382 N -0.13565 0.33055 0.66225
 N383 N -0.11690 0.34477 0.64412
 C384 C -0.11062 0.37422 0.64323
 N385 N -0.12368 0.38889 0.66115
 N386 N -0.14246 0.37471 0.67918
 C387 C -0.09078 0.39027 0.62275
 N388 N -0.08402 0.41955 0.62292
 N389 N -0.06690 0.43449 0.60387
 C390 C -0.05588 0.42080 0.58380
 N391 N -0.06256 0.39142 0.58373
 N392 N -0.07966 0.37643 0.60287
 C393 C 0.32886 -0.16785 0.69353
 N394 N 0.32073 -0.19697 0.69300
 N395 N 0.29965 -0.21055 0.70907
 C396 C 0.28587 -0.19550 0.72616
 N397 N 0.29413 -0.16642 0.72671
 N398 N 0.31523 -0.15287 0.71074
 C399 C 0.35136 -0.15244 0.67528
 N400 N 0.35983 -0.12353 0.67683
 N401 N 0.37945 -0.10911 0.65975
 C402 C 0.39132 -0.12303 0.64042
 N403 N 0.38297 -0.15201 0.63892
 N404 N 0.36336 -0.16647 0.65608
 C405 C 0.41202 -0.10663 0.62092
 N406 N 0.42247 -0.11968 0.60010
 N407 N 0.44032 -0.10431 0.58182
 C408 C 0.44842 -0.07532 0.58368
 N409 N 0.43807 -0.06242 0.60468
 N410 N 0.42022 -0.07775 0.62291
 C411 C 0.30469 0.31397 0.18136
 N412 N 0.28277 0.32809 0.18967
 N413 N 0.26533 0.31554 0.20959
 C414 C 0.26895 0.28828 0.22182
 N415 N 0.29076 0.27403 0.21338
 N416 N 0.30842 0.28670 0.19359
 C417 C 0.32403 0.32832 0.15966
 N418 N 0.34977 0.31761 0.15505
 N419 N 0.36755 0.33138 0.13584
 C420 C 0.36006 0.35621 0.12043
 N421 N 0.33422 0.36673 0.12492
 N422 N 0.31661 0.35312 0.14424
 C423 C 0.37965 0.37205 0.09964
 N424 N 0.36970 0.39428 0.08178
 N425 N 0.38754 0.40958 0.06355
 C426 C 0.41613 0.40341 0.06251
 N427 N 0.42609 0.38107 0.08038
 N428 N 0.40814 0.36560 0.09854
 C429 C 0.17154 0.16997 0.19579
 N430 N 0.15593 0.17918 0.21560
 N431 N 0.16883 0.19900 0.23269
 C432 C 0.19791 0.21021 0.23078
 N433 N 0.21362 0.20079 0.21114
 N434 N 0.20064 0.18111 0.19387
 C435 C 0.15680 0.14889 0.17636
 N436 N 0.16998 0.14368 0.15309
 N437 N 0.15595 0.12532 0.13497
 C438 C 0.12834 0.11137 0.13960
 N439 N 0.11530 0.11641 0.16299
 N440 N 0.12922 0.13490 0.18097
 C441 C 0.11235 0.09175 0.11934
 N442 N 0.08659 0.07519 0.12590
 N443 N 0.07148 0.05801 0.10731
 C444 C 0.08141 0.05684 0.08134
 N445 N 0.10724 0.07341 0.07483
 N446 N 0.12248 0.09048 0.09350
 C447 C 0.18180 0.69924 0.67283
 N448 N 0.20986 0.69642 0.68535
 N449 N 0.22197 0.71374 0.70518
 C450 C 0.20636 0.73432 0.71339
 N451 N 0.17831 0.73710 0.70082
 N452 N 0.16631 0.71997 0.68085
 C453 C 0.16796 0.67982 0.65146
 N454 N 0.14200 0.68560 0.63606
 N455 N 0.12879 0.66762 0.61728
 C456 C 0.14094 0.64306 0.61335
 N457 N 0.16696 0.63727 0.62872
 N458 N 0.18030 0.65539 0.64737
 C459 C 0.12548 0.62272 0.59353
 N460 N 0.13390 0.59558 0.59339
 N461 N 0.11881 0.57673 0.57631
 C462 C 0.09487 0.58438 0.55859
 N463 N 0.08673 0.61166 0.55859
 N464 N 0.10167 0.63042 0.57577
 C465 C 0.68877 0.19721 0.68416
 N466 N 0.71696 0.19473 0.69655
 N467 N 0.72890 0.21208 0.71644
 C468 C 0.71296 0.23230 0.72484
 N469 N 0.68477 0.23467 0.71246
 N470 N 0.67296 0.21754 0.69244
 C471 C 0.67523 0.17817 0.66237
 N472 N 0.64952 0.18435 0.64673
 N473 N 0.63660 0.16691 0.62737
 C474 C 0.64875 0.14248 0.62307
 N475 N 0.67450 0.13624 0.63870
 N476 N 0.68758 0.15385 0.65793
 C477 C 0.63359 0.12287 0.60242
 N478 N 0.64157 0.09562 0.60183
 N479 N 0.62665 0.07750 0.58392
 C480 C 0.60336 0.08603 0.56580
 N481 N 0.59569 0.11341 0.56628
 N482 N 0.61043 0.13143 0.58428
 C483 C 0.66497 0.67751 0.18947
 N484 N 0.69446 0.67669 0.19845
 N485 N 0.70818 0.69516 0.21663
 C486 C 0.69284 0.71493 0.22663
 N487 N 0.66333 0.71558 0.21772
 N488 N 0.64969 0.69730 0.19942
 C489 C 0.64971 0.65779 0.16897
 N490 N 0.62213 0.66252 0.15638
 N491 N 0.60811 0.64498 0.13760
 C492 C 0.62101 0.62189 0.13084
 N493 N 0.64857 0.61703 0.14351
 N494 N 0.66273 0.63475 0.16218
 C495 C 0.60523 0.60281 0.11002
 N496 N 0.61480 0.57681 0.10651
 N497 N 0.59997 0.55956 0.08775
 C498 C 0.57519 0.56779 0.07166
 N499 N 0.56581 0.59385 0.07519
 N500 N 0.58046 0.61096 0.09404
   
