data_POSCAR
  _audit_creation_date              2014-09-24
  _audit_creation_method            'ToBaCCo'
  _symmetry_space_group_name_H-M    'P1'
  _symmetry_Int_Tables_number       1
  _symmetry_cell_setting            triclinic
  loop_
  _symmetry_equiv_pos_as_xyz
 x,y,z
_cell_length_a 39.4495
_cell_length_b 39.9696
_cell_length_c 38.1256
_cell_angle_alpha 91.236600
_cell_angle_beta 91.488400
_cell_angle_gamma 89.296300
loop_
  _atom_site_label
  _atom_site_type_symbol
  _atom_site_fract_x
  _atom_site_fract_y
  _atom_site_fract_z
C1 C 0.18814 0.21063 0.22869
 C2 C 0.18621 0.23337 0.20126
 C3 C 0.21017 0.23238 0.17524
 C4 C 0.23673 0.20858 0.17673
 C5 C 0.23851 0.18643 0.20406
 C6 C 0.21455 0.18784 0.23042
 C7 C 0.16651 0.20347 0.25523
 N8 N 0.17964 0.17719 0.27350
 C9 C 0.20932 0.16782 0.25850
 C10 C 0.26400 0.16388 0.19729
 N11 N 0.27837 0.17160 0.16648
 C12 C 0.26213 0.19945 0.15404
 C13 C 0.20058 0.25627 0.15116
 N14 N 0.17199 0.27187 0.16257
 C15 C 0.16301 0.25795 0.19301
 H16 H 0.14286 0.21639 0.26052
 H17 H 0.22476 0.14631 0.26561
 H18 H 0.27126 0.14321 0.21385
 H19 H 0.26655 0.21080 0.12907
 H20 H 0.21349 0.26208 0.12737
 H21 H 0.14090 0.26501 0.20784
 C22 C -0.22256 0.76831 0.27710
 C23 C -0.22566 0.74120 0.25326
 C24 C -0.25315 0.73962 0.23005
 C25 C -0.27791 0.76520 0.23036
 C26 C -0.27491 0.79162 0.25405
 C27 C -0.24708 0.79316 0.27761
 C28 C -0.19621 0.77893 0.29872
 N29 N -0.20386 0.80991 0.31244
 C30 C -0.23532 0.81841 0.29955
 C31 C -0.29896 0.81518 0.24486
 N32 N -0.31657 0.80429 0.21558
 C33 C -0.30379 0.77329 0.20704
 C34 C -0.24701 0.71351 0.20679
 N35 N -0.21642 0.69922 0.21518
 C36 C -0.20332 0.71613 0.24367
 H37 H -0.17286 0.76502 0.30291
 H38 H -0.24803 0.84229 0.30321
 H39 H -0.30077 0.83975 0.25707
 H40 H -0.31103 0.75797 0.18447
 H41 H -0.26313 0.70648 0.18452
 H42 H -0.17824 0.71221 0.25511
 C43 C -0.20074 0.23162 -0.26644
 C44 C -0.19935 0.25635 -0.23973
 C45 C -0.22102 0.25498 -0.21181
 C46 C -0.24455 0.22898 -0.21034
 C47 C -0.24682 0.20574 -0.23755
 C48 C -0.22471 0.20690 -0.26555
 C49 C -0.17901 0.22290 -0.29293
 N50 N -0.18906 0.19319 -0.30801
 C51 C -0.21759 0.18386 -0.29157
 C52 C -0.26945 0.18199 -0.22836
 N53 N -0.28089 0.18955 -0.19572
 C54 C -0.26557 0.21842 -0.18447
 C55 C -0.21224 0.28052 -0.18870
 N56 N -0.18601 0.29764 -0.20197
 C57 C -0.17785 0.28270 -0.23308
 H58 H -0.15663 0.23666 -0.29926
 H59 H -0.23029 0.16015 -0.29517
 H60 H -0.27483 0.15933 -0.24343
 H61 H -0.26895 0.23076 -0.15925
 H62 H -0.22358 0.28554 -0.16356
 H63 H -0.15777 0.29035 -0.24985
 C64 C 0.18248 0.77898 -0.21265
 C65 C 0.18213 0.76101 -0.18140
 C66 C 0.21065 0.76022 -0.15925
 C67 C 0.23955 0.77842 -0.16759
 C68 C 0.23967 0.79574 -0.19850
 C69 C 0.21154 0.79524 -0.22146
 C70 C 0.15775 0.78723 -0.23744
 N71 N 0.17162 0.80746 -0.26148
 C72 C 0.20462 0.81222 -0.25166
 C73 C 0.26748 0.81584 -0.19743
 N74 N 0.28448 0.81196 -0.16626
 C75 C 0.26804 0.78813 -0.14826
 C76 C 0.20256 0.74168 -0.13060
 N77 N 0.16999 0.73146 -0.13492
 C78 C 0.15723 0.74340 -0.16565
 H79 H 0.13162 0.77926 -0.23765
 H80 H 0.22186 0.82901 -0.26390
 H81 H 0.27364 0.83333 -0.21751
 H82 H 0.27380 0.78129 -0.12142
 H83 H 0.21894 0.73623 -0.10818
 H84 H 0.13178 0.73912 -0.17597
 C85 C 0.22421 1.20191 0.77840
 C86 C 0.25090 1.20499 0.80338
 C87 C 0.24834 1.22776 0.83118
 C88 C 0.21909 1.24791 0.83427
 C89 C 0.19286 1.24436 0.80988
 C90 C 0.19549 1.22146 0.78180
 C91 C 0.21837 1.18038 0.75019
 N92 N 0.18657 1.18627 0.73630
 C93 C 0.17272 1.21169 0.75588
 C94 C 0.16652 1.26426 0.82078
 N95 N 0.17583 1.28039 0.85130
 C96 C 0.20831 1.27066 0.85951
 C97 C 0.27624 1.22286 0.85303
 N98 N 0.29566 1.19778 0.83920
 C99 C 0.28037 1.18687 0.80876
 H100 H 0.23579 1.16087 0.74189
 H101 H 0.14779 1.22271 0.75220
 H102 H 0.14242 1.26688 0.80687
 H103 H 0.22252 1.27795 0.88305
 H104 H 0.28137 1.23581 0.87779
 H105 H 0.28895 1.16587 0.79278
 C106 C 0.78768 0.79013 0.72371
 C107 C 0.75972 0.78929 0.74582
 C108 C 0.75618 0.76262 0.76787
 C109 C 0.78031 0.73667 0.76829
 C110 C 0.80809 0.73779 0.74728
 C111 C 0.81201 0.76490 0.72497
 C112 C 0.79903 0.81382 0.70126
 N113 N 0.82999 0.80405 0.68929
 C114 C 0.83810 0.77416 0.70408
 C115 C 0.82902 0.71137 0.75637
 N116 N 0.81478 0.69413 0.78278
 C117 C 0.78470 0.70984 0.78980
 C118 C 0.73010 0.77028 0.78988
 N119 N 0.71776 0.80120 0.78226
 C120 C 0.73546 0.81289 0.75499
 H121 H 0.78638 0.83740 0.69581
 H122 H 0.86108 0.75977 0.69977
 H123 H 0.85367 0.70673 0.74548
 H124 H 0.76724 0.70358 0.80991
 H125 H 0.72209 0.75517 0.81132
 H126 H 0.73289 0.83783 0.74463
 C127 C 0.22968 0.81595 1.21173
 C128 C 0.25644 0.81341 1.18793
 C129 C 0.25453 0.79051 1.16009
 C130 C 0.22594 0.77025 1.15522
 C131 C 0.19965 0.77335 1.17829
 C132 C 0.20169 0.79597 1.20664
 C133 C 0.22327 0.83632 1.24069
 N134 N 0.19197 0.82910 1.25313
 C135 C 0.17898 0.80425 1.23197
 C136 C 0.17392 0.75323 1.16595
 N137 N 0.18396 0.73775 1.13597
 C138 C 0.21585 0.74770 1.12913
 C139 C 0.28228 0.79509 1.13984
 N140 N 0.30107 0.82048 1.15412
 C141 C 0.28553 0.83164 1.18376
 H142 H 0.24003 0.85560 1.25089
 H143 H 0.15491 0.79207 1.23456
 H144 H 0.14936 0.75043 1.17753
 H145 H 0.23001 0.74004 1.10632
 H146 H 0.28767 0.78146 1.11577
 H147 H 0.29359 0.85277 1.19999
 C148 C 0.78898 1.19912 1.25870
 C149 C 0.76126 1.19978 1.23485
 C150 C 0.75498 1.22783 1.21497
 C151 C 0.77675 1.25526 1.21821
 C152 C 0.80466 1.25419 1.24085
 C153 C 0.81084 1.22584 1.26129
 C154 C 0.80169 1.17484 1.28057
 N155 N 0.83101 1.18586 1.29643
 C156 C 0.83691 1.21703 1.28419
 C157 C 0.82341 1.28231 1.23512
 N158 N 0.80764 1.30049 1.20949
 C159 C 0.77887 1.28401 1.19937
 C160 C 0.72935 1.22000 1.19102
 N161 N 0.72036 1.18776 1.19555
 C162 C 0.73962 1.17522 1.22237
 H163 H 0.79082 1.15035 1.28340
 H164 H 0.85805 1.23277 1.29194
 H165 H 0.84792 1.28771 1.24714
 H166 H 0.76111 1.29146 1.17884
 H167 H 0.72004 1.23557 1.16987
 H168 H 0.73950 1.14944 1.23052
 O169 O 0.55003 0.96708 0.91840
 O170 O 0.49228 0.97490 1.05608
 O171 O 0.56800 0.95341 1.02410
 O172 O 0.44908 0.98830 0.95463
 O173 O 0.55335 0.98785 1.06344
 O174 O 0.48925 0.96202 0.92929
 O175 O 0.46985 0.95895 1.00712
 O176 O 0.57646 0.94855 0.96380
 C177 C 0.57035 0.94690 0.93189
 C178 C 0.47514 0.95377 1.03872
 C179 C 0.56381 0.95943 1.05535
 C180 C 0.45850 0.96510 0.93472
 O181 O 0.48481 1.02995 0.92669
 O182 O 0.54263 1.04829 1.03896
 O183 O 0.59058 1.01410 0.95846
 O184 O 0.43669 1.01299 1.01865
 O185 O 0.48091 1.03993 1.04001
 O186 O 0.54822 1.03047 0.92282
 O187 O 0.47264 1.04520 0.97901
 O188 O 0.58711 1.01953 1.02363
 Co189 Co 0.51790 0.99749 0.93033
 Co190 Co 0.51767 1.01103 1.04364
 Co191 Co 0.57570 0.98535 0.99255
 Co192 Co 0.47346 1.00172 0.99370
 O193 O 0.52334 0.99763 0.98734
 C194 C 0.47202 1.05115 0.94721
 C195 C 0.57417 1.04571 1.03706
 C196 C 0.57887 1.03165 0.93324
 C197 C 0.44947 1.03367 1.04239
 O198 O 0.02172 0.47608 0.07084
 O199 O 0.03078 0.53617 -0.02606
 O200 O -0.00483 0.43805 -0.02548
 O201 O -0.01116 0.57690 0.04100
 O202 O 0.03230 0.47559 -0.02976
 O203 O 0.02380 0.53953 0.06147
 O204 O -0.00740 0.57405 -0.02185
 O205 O -0.00413 0.43715 0.03874
 C206 C 0.01885 0.44621 0.06053
 C207 C 0.02309 0.56635 -0.02572
 C208 C 0.02504 0.44559 -0.03101
 C209 C 0.01793 0.56899 0.05280
 O210 O -0.04096 0.54308 0.08010
 O211 O -0.02988 0.47629 -0.06436
 O212 O -0.06890 0.45371 0.03910
 O213 O -0.06885 0.54384 -0.02688
 O214 O -0.02930 0.53637 -0.06323
 O215 O -0.04304 0.48099 0.08239
 O216 O -0.07420 0.55044 0.03585
 O217 O -0.06764 0.46260 -0.02714
 Co218 Co -0.01054 0.50997 0.06753
 Co219 Co -0.00087 0.50620 -0.04118
 Co220 Co -0.03513 0.45364 0.00642
 Co221 Co -0.03881 0.55684 0.00716
 O222 O -0.02121 0.50642 0.01042
 C223 C -0.06957 0.55151 0.06808
 C224 C -0.05898 0.46524 -0.05813
 C225 C -0.06628 0.46183 0.07092
 C226 C -0.05961 0.54381 -0.05766
 O227 O 1.08282 0.03010 0.47569
 O228 O 0.93311 0.01135 0.52714
 O229 O 0.98763 0.02212 0.43610
 O230 O 1.03699 0.04450 0.55327
 O231 O 0.96979 0.04161 0.48592
 O232 O 1.08411 0.02097 0.54150
 O233 O 0.97808 0.03558 0.54898
 O234 O 1.04929 0.01283 0.43174
 C235 C 1.07250 0.03177 0.44422
 C236 C 0.94631 0.03158 0.55064
 C237 C 0.97313 0.04508 0.45373
 C238 C 1.06828 0.04466 0.55539
 O239 O 1.07937 -0.04294 0.52989
 O240 O 0.94296 -0.01270 0.46350
 O241 O 1.03986 -0.05318 0.44587
 O242 O 0.98792 -0.03046 0.56483
 O243 O 0.96517 -0.04373 0.51534
 O244 O 1.08629 -0.03285 0.46531
 O245 O 1.04848 -0.02087 0.57153
 O246 O 0.98235 -0.04550 0.45079
 Co247 Co 1.07698 -0.00614 0.50298
 Co248 Co 0.96969 -0.00106 0.50197
 Co249 Co 1.01503 -0.01490 0.44566
 Co250 Co 1.01354 0.00596 0.55454
 O251 O 1.02092 -0.00520 0.49968
 C252 C 1.06907 -0.04308 0.56068
 C253 C 0.95198 -0.03805 0.44685
 C254 C 1.07110 -0.05363 0.44633
 C255 C 0.97011 -0.05012 0.54659
 C256 C 1.13398 0.12171 0.35033
 C257 C 1.16945 0.12347 0.34991
 C258 C 1.18461 0.14253 0.32440
 C259 C 1.16464 0.16081 0.30000
 C260 C 1.12894 0.16022 0.30227
 C261 C 1.11353 0.13985 0.32661
 C262 C 1.11801 0.09964 0.37539
 C263 C 1.08267 0.09576 0.37394
 C264 C 1.06785 0.07316 0.39640
 C265 C 1.08798 0.05587 0.42118
 C266 C 1.12320 0.06080 0.42309
 C267 C 1.13848 0.08209 0.39963
 C268 C 1.07813 0.13626 0.32684
 C269 C 1.06298 0.11424 0.34981
 C270 C 1.18911 0.10562 0.37461
 C271 C 1.17385 0.08555 0.39933
 H272 H 1.06205 0.14998 0.30855
 H273 H 1.03568 0.11159 0.34860
 H274 H 1.21652 0.10701 0.37470
 H275 H 1.18990 0.07208 0.41785
 H276 H 1.21202 0.14351 0.32392
 H277 H 1.11305 0.17348 0.28348
 H278 H 1.04077 0.06902 0.39474
 H279 H 1.13873 0.04705 0.44187
 C280 C 0.86102 -0.12670 0.37126
 C281 C 0.82648 -0.11850 0.36807
 C282 C 0.80471 -0.14011 0.34903
 C283 C 0.81715 -0.16995 0.33282
 C284 C 0.85209 -0.17786 0.33732
 C285 C 0.87399 -0.15632 0.35616
 C286 C 0.88415 -0.10372 0.39059
 C287 C 0.91880 -0.11185 0.39335
 C288 C 0.94072 -0.08995 0.41152
 C289 C 0.92826 -0.06013 0.42709
 C290 C 0.89344 -0.05224 0.42411
 C291 C 0.87122 -0.07402 0.40579
 C292 C 0.90883 -0.16365 0.35969
 C293 C 0.93087 -0.14176 0.37793
 C294 C 0.81439 -0.08865 0.38377
 C295 C 0.83637 -0.06680 0.40231
 H296 H 0.91920 -0.18643 0.34810
 H297 H 0.95758 -0.14829 0.37995
 H298 H 0.78771 -0.08202 0.38157
 H299 H 0.82602 -0.04402 0.41391
 H300 H 0.77809 -0.13352 0.34738
 H301 H 0.86298 -0.20003 0.32525
 H302 H 0.96750 -0.09623 0.41369
 H303 H 0.88371 -0.02932 0.43604
 C304 C 0.86654 0.12796 0.62761
 C305 C 0.83160 0.12331 0.63053
 C306 C 0.81278 0.14611 0.65084
 C307 C 0.82858 0.17352 0.66859
 C308 C 0.86357 0.17854 0.66360
 C309 C 0.88266 0.15558 0.64374
 C310 C 0.88678 0.10306 0.60787
 C311 C 0.92192 0.10721 0.60597
 C312 C 0.94115 0.08325 0.58778
 C313 C 0.92546 0.05549 0.57104
 C314 C 0.89016 0.05168 0.57303
 C315 C 0.87067 0.07538 0.59166
 C316 C 0.91785 0.15914 0.64070
 C317 C 0.93718 0.13529 0.62224
 C318 C 0.81627 0.09550 0.61370
 C319 C 0.83546 0.07199 0.59452
 H320 H 0.93064 0.18030 0.65309
 H321 H 0.96430 0.13879 0.62080
 H322 H 0.78924 0.09170 0.61566
 H323 H 0.82268 0.05084 0.58211
 H324 H 0.78581 0.14226 0.65273
 H325 H 0.87674 0.19893 0.67684
 H326 H 0.96831 0.08650 0.58627
 H327 H 0.87796 0.03036 0.56024
 C328 C 1.12508 -0.13716 0.65885
 C329 C 1.15906 -0.14723 0.65591
 C330 C 1.17412 -0.16670 0.68217
 C331 C 1.15543 -0.17690 0.71113
 C332 C 1.12057 -0.16844 0.71231
 C333 C 1.10558 -0.14766 0.68680
 C334 C 1.11005 -0.11418 0.63284
 C335 C 1.07688 -0.10195 0.63720
 C336 C 1.06357 -0.07837 0.61364
 C337 C 1.08274 -0.06821 0.58517
 C338 C 1.11552 -0.08157 0.58058
 C339 C 1.12957 -0.10402 0.60476
 C340 C 1.07196 -0.13594 0.68946
 C341 C 1.05798 -0.11320 0.66530
 C342 C 1.17766 -0.13687 0.62724
 C343 C 1.16306 -0.11586 0.60190
 H344 H 1.05661 -0.14375 0.71090
 H345 H 1.03224 -0.10419 0.66876
 H346 H 1.20386 -0.14476 0.62458
 H347 H 1.17835 -0.10820 0.58034
 H348 H 1.20051 -0.17404 0.67993
 H349 H 1.10577 -0.17563 0.73440
 H350 H 1.03842 -0.06793 0.61741
 H351 H 1.13051 -0.07354 0.55892
 C352 C 0.35305 1.11436 1.11651
 C353 C 0.35002 1.14862 1.10951
 C354 C 0.32446 1.16772 1.12572
 C355 C 0.30298 1.15308 1.15007
 C356 C 0.30710 1.11862 1.15703
 C357 C 0.33149 1.09912 1.13986
 C358 C 0.37904 1.09390 1.09872
 C359 C 0.38058 1.05923 1.10410
 C360 C 0.40417 1.03964 1.08576
 C361 C 0.42690 1.05476 1.06348
 C362 C 0.42614 1.08963 1.05941
 C363 C 0.40149 1.10929 1.07625
 C364 C 0.33433 1.06451 1.14524
 C365 C 0.35823 1.04482 1.12735
 C366 C 0.37272 1.16308 1.08655
 C367 C 0.39826 1.14381 1.07050
 H368 H 0.31765 1.05246 1.16310
 H369 H 0.35928 1.01814 1.13181
 H370 H 0.37082 1.18952 1.08104
 H371 H 0.41526 1.15593 1.05301
 H372 H 0.32226 1.19417 1.12039
 H373 H 0.29026 1.10633 1.17449
 H374 H 0.40495 1.01271 1.08876
 H375 H 0.44377 1.10114 1.04212
 C376 C 0.36013 0.87522 0.87456
 C377 C 0.33800 0.88650 0.84791
 C378 C 0.31363 0.86475 0.83357
 C379 C 0.31001 0.83209 0.84656
 C380 C 0.33232 0.82143 0.87383
 C381 C 0.35784 0.84267 0.88739
 C382 C 0.38592 0.89812 0.88958
 C383 C 0.40897 0.88655 0.91537
 C384 C 0.43368 0.90841 0.92923
 C385 C 0.43406 0.94187 0.91866
 C386 C 0.41065 0.95328 0.89321
 C387 C 0.38686 0.93127 0.87802
 C388 C 0.38113 0.83211 0.91354
 C389 C 0.40652 0.85355 0.92699
 C390 C 0.34015 0.91960 0.83651
 C391 C 0.36396 0.94172 0.85157
 H392 H 0.37982 0.80703 0.92360
 H393 H 0.42407 0.84438 0.94701
 H394 H 0.32301 0.92860 0.81605
 H395 H 0.36454 0.96715 0.84234
 H396 H 0.29626 0.87429 0.81369
 H397 H 0.33051 0.79638 0.88384
 H398 H 0.45210 0.89976 0.94867
 H399 H 0.41131 0.97909 0.88506
 C400 C 0.62120 0.86537 1.15244
 C401 C 0.62944 0.87589 1.18685
 C402 C 0.64862 0.85457 1.20860
 C403 C 0.66059 0.82300 1.19602
 C404 C 0.65002 0.81235 1.16180
 C405 C 0.63086 0.83351 1.13991
 C406 C 0.60337 0.88867 1.12859
 C407 C 0.59659 0.87857 1.09368
 C408 C 0.58209 0.90155 1.07039
 C409 C 0.57467 0.93460 1.08162
 C410 C 0.58016 0.94396 1.11710
 C411 C 0.59486 0.92109 1.14068
 C412 C 0.62241 0.82389 1.10514
 C413 C 0.60561 0.84606 1.08239
 C414 C 0.61940 0.90808 1.19845
 C415 C 0.60244 0.93030 1.17576
 H416 H 0.62960 0.79930 1.09514
 H417 H 0.60031 0.83795 1.05552
 H418 H 0.62544 0.91647 1.22507
 H419 H 0.59590 0.95514 1.18553
 H420 H 0.65453 0.86325 1.23505
 H421 H 0.65793 0.78842 1.15098
 H422 H 0.57761 0.89403 1.04318
 H423 H 0.57447 0.96933 1.12592
 C424 C 0.65894 1.12481 0.85986
 C425 C 0.67976 1.14756 0.87854
 C426 C 0.69876 1.17053 0.85995
 C427 C 0.69812 1.16980 0.82279
 C428 C 0.67643 1.14694 0.80482
 C429 C 0.65674 1.12471 0.82310
 C430 C 0.63919 1.10043 0.87907
 C431 C 0.61770 1.07840 0.86018
 C432 C 0.59845 1.05579 0.87843
 C433 C 0.60109 1.05449 0.91519
 C434 C 0.62329 1.07608 0.93392
 C435 C 0.64210 1.09961 0.91587
 C436 C 0.63510 1.10215 0.80516
 C437 C 0.61572 1.07950 0.82343
 C438 C 0.68172 1.14632 0.91540
 C439 C 0.66338 1.12262 0.93372
 H440 H 0.63312 1.10199 0.77676
 H441 H 0.59922 1.06258 0.80865
 H442 H 0.69780 1.16361 0.93020
 H443 H 0.66576 1.12243 0.96209
 H444 H 0.71541 1.18744 0.87447
 H445 H 0.67427 1.14674 0.77646
 H446 H 0.58141 1.03902 0.86406
 H447 H 0.62497 1.07529 0.96232
 C448 C 0.11230 0.34856 0.11661
 C449 C 0.12316 0.35178 0.15188
 C450 C 0.14377 0.32671 0.16648
 C451 C 0.15388 0.29884 0.14606
 C452 C 0.14392 0.29648 0.11039
 C453 C 0.12260 0.32115 0.09560
 C454 C 0.08894 0.37392 0.10175
 C455 C 0.07671 0.37000 0.06698
 C456 C 0.05338 0.39356 0.05351
 C457 C 0.04311 0.42118 0.07438
 C458 C 0.05622 0.42507 0.10886
 C459 C 0.07876 0.40128 0.12286
 C460 C 0.11057 0.31856 0.06061
 C461 C 0.08790 0.34250 0.04658
 C462 C 0.11260 0.37960 0.17207
 C463 C 0.09091 0.40406 0.15773
 H464 H 0.11832 0.29759 0.04409
 H465 H 0.07891 0.33936 0.01962
 H466 H 0.12097 0.38236 0.19926
 H467 H 0.08321 0.42507 0.17423
 H468 H 0.15166 0.32848 0.19390
 H469 H 0.15150 0.27478 0.09483
 H470 H 0.04351 0.39066 0.02683
 H471 H 0.04820 0.44622 0.12505
 C472 C -0.13525 0.37851 -0.14986
 C473 C -0.11808 0.35918 -0.17509
 C474 C -0.13511 0.33292 -0.19272
 C475 C -0.16912 0.32586 -0.18527
 C476 C -0.18615 0.34624 -0.16054
 C477 C -0.16926 0.37233 -0.14252
 C478 C -0.11680 0.40467 -0.12956
 C479 C -0.13341 0.42251 -0.10278
 C480 C -0.11485 0.44481 -0.08114
 C481 C -0.07996 0.44916 -0.08609
 C482 C -0.06417 0.43273 -0.11445
 C483 C -0.08237 0.40994 -0.13592
 C484 C -0.18543 0.39175 -0.11659
 C485 C -0.16776 0.41632 -0.09694
 C486 C -0.08391 0.36587 -0.18144
 C487 C -0.06637 0.39086 -0.16222
 H488 H -0.21172 0.38732 -0.11079
 H489 H -0.18089 0.43005 -0.07646
 H490 H -0.07040 0.35122 -0.20094
 H491 H -0.03982 0.39465 -0.16736
 H492 H -0.12148 0.31736 -0.21131
 H493 H -0.21243 0.34162 -0.15499
 H494 H -0.12705 0.45737 -0.05926
 H495 H -0.03719 0.43558 -0.11803
 C496 C 0.11297 0.66579 -0.07497
 C497 C 0.09934 0.69732 -0.08352
 C498 C 0.11893 0.71948 -0.10220
 C499 C 0.15198 0.71049 -0.11189
 C500 C 0.16598 0.67954 -0.10163
 C501 C 0.14629 0.65676 -0.08365
 C502 C 0.09125 0.64112 -0.05850
 C503 C 0.10391 0.60869 -0.05239
 C504 C 0.08204 0.58436 -0.03993
 C505 C 0.04781 0.59246 -0.03381
 C506 C 0.03623 0.62565 -0.03814
 C507 C 0.05762 0.64989 -0.05103
 C508 C 0.15861 0.62460 -0.07558
 C509 C 0.13774 0.60093 -0.06035
 C510 C 0.06594 0.70553 -0.07446
 C511 C 0.04549 0.68227 -0.05827
 H512 H 0.18430 0.61733 -0.08202
 H513 H 0.14794 0.57611 -0.05554
 H514 H 0.05528 0.72988 -0.08063
 H515 H 0.01960 0.68932 -0.05243
 H516 H 0.10832 0.74339 -0.11007
 H517 H 0.19135 0.67258 -0.10948
 H518 H 0.09125 0.55897 -0.03632
 H519 H 0.01002 0.63227 -0.03319
 C520 C -0.16047 0.62823 0.15452
 C521 C -0.15332 0.63173 0.19065
 C522 C -0.17276 0.65423 0.21080
 C523 C -0.19882 0.67369 0.19499
 C524 C -0.20607 0.66914 0.15876
 C525 C -0.18698 0.64652 0.13844
 C526 C -0.13897 0.60597 0.13285
 C527 C -0.14549 0.60332 0.09653
 C528 C -0.12376 0.58379 0.07573
 C529 C -0.09520 0.56755 0.09088
 C530 C -0.08970 0.56955 0.12754
 C531 C -0.11148 0.58884 0.14865
 C532 C -0.19321 0.64256 0.10214
 C533 C -0.17287 0.62129 0.08156
 C534 C -0.12627 0.61334 0.20571
 C535 C -0.10566 0.59233 0.18506
 H536 H -0.21366 0.65644 0.08943
 H537 H -0.17819 0.61941 0.05356
 H538 H -0.12055 0.61571 0.23359
 H539 H -0.08463 0.57915 0.19762
 H540 H -0.16722 0.65696 0.23867
 H541 H -0.22562 0.68408 0.14598
 H542 H -0.12824 0.58250 0.04756
 H543 H -0.06787 0.55709 0.13946
 C544 C 1.13778 0.13179 0.65452
 C545 C 1.17276 0.12746 0.66052
 C546 C 1.18911 0.14605 0.68753
 C547 C 1.17080 0.16901 0.70890
 C548 C 1.13554 0.17323 0.70161
 C549 C 1.11904 0.15466 0.67477
 C550 C 1.12025 0.11136 0.62706
 C551 C 1.08501 0.11492 0.62187
 C552 C 1.06820 0.09414 0.59708
 C553 C 1.08639 0.06974 0.57779
 C554 C 1.12191 0.06735 0.58253
 C555 C 1.13892 0.08792 0.60731
 C556 C 1.08391 0.15805 0.66830
 C557 C 1.06718 0.13849 0.64234
 C558 C 1.19070 0.10423 0.63966
 C559 C 1.17407 0.08481 0.61351
 H560 H 1.06912 0.17568 0.68376
 H561 H 1.04000 0.14155 0.63860
 H562 H 1.21777 0.10071 0.64387
 H563 H 1.18878 0.06684 0.59839
 H564 H 1.21613 0.14253 0.69138
 H565 H 1.12020 0.18998 0.71730
 H566 H 1.04088 0.09615 0.59372
 H567 H 1.13619 0.04866 0.56788
 C568 C 0.89013 -0.14029 0.62357
 C569 C 0.85471 -0.13671 0.62151
 C570 C 0.83475 -0.15520 0.64381
 C571 C 0.84973 -0.17831 0.66728
 C572 C 0.88546 -0.18239 0.66789
 C573 C 0.90576 -0.16281 0.64681
 C574 C 0.91128 -0.11940 0.60160
 C575 C 0.94680 -0.12103 0.60551
 C576 C 0.96664 -0.09920 0.58638
 C577 C 0.95103 -0.07682 0.56284
 C578 C 0.91557 -0.07672 0.55801
 C579 C 0.89550 -0.09735 0.57793
 C580 C 0.94139 -0.16464 0.64910
 C581 C 0.96155 -0.14385 0.62911
 C582 C 0.83989 -0.11449 0.59735
 C583 C 0.85994 -0.09538 0.57568
 H584 H 0.95382 -0.18182 0.66703
 H585 H 0.98889 -0.14556 0.63228
 H586 H 0.81256 -0.11171 0.59529
 H587 H 0.84751 -0.07836 0.55758
 H588 H 0.80744 -0.15227 0.64198
 H589 H 0.89774 -0.19933 0.68613
 H590 H 0.99394 -0.09934 0.58998
 H591 H 0.90350 -0.05902 0.54033
 C592 C 1.14252 -0.12596 0.33872
 C593 C 1.12439 -0.14685 0.31524
 C594 C 1.14106 -0.16173 0.28683
 C595 C 1.17595 -0.15603 0.28124
 C596 C 1.19360 -0.13470 0.30543
 C597 C 1.17704 -0.11975 0.33411
 C598 C 1.12476 -0.10967 0.36825
 C599 C 1.14271 -0.08820 0.39141
 C600 C 1.12534 -0.07149 0.41837
 C601 C 1.09011 -0.07568 0.42187
 C602 C 1.07274 -0.09812 0.39902
 C603 C 1.08993 -0.11509 0.37209
 C604 C 1.19428 -0.09852 0.35824
 C605 C 1.17742 -0.08303 0.38639
 C606 C 1.08970 -0.15217 0.32031
 C607 C 1.07276 -0.13653 0.34822
 H608 H 1.22096 -0.09355 0.35516
 H609 H 1.19158 -0.06651 0.40409
 H610 H 1.07542 -0.16831 0.30231
 H611 H 1.04591 -0.14096 0.35088
 H612 H 1.12605 -0.17690 0.26873
 H613 H 1.22030 -0.12999 0.30261
 H614 H 1.13896 -0.05411 0.43563
 H615 H 1.04566 -0.10142 0.40134
 C616 C 0.89114 0.13161 0.36802
 C617 C 0.85653 0.12450 0.36377
 C618 C 0.83667 0.14262 0.33965
 C619 C 0.85075 0.16856 0.32023
 C620 C 0.88555 0.17597 0.32583
 C621 C 0.90594 0.15710 0.34911
 C622 C 0.91240 0.11145 0.39223
 C623 C 0.94750 0.11708 0.39504
 C624 C 0.96788 0.09626 0.41648
 C625 C 0.95293 0.07071 0.43539
 C626 C 0.91764 0.06639 0.43333
 C627 C 0.89731 0.08624 0.41134
 C628 C 0.94098 0.16270 0.35337
 C629 C 0.96144 0.14288 0.37571
 C630 C 0.84237 0.09921 0.38359
 C631 C 0.86238 0.08054 0.40715
 H632 H 0.95281 0.18224 0.33889
 H633 H 0.98838 0.14771 0.37773
 H634 H 0.81561 0.09365 0.38070
 H635 H 0.85053 0.06107 0.42172
 H636 H 0.80995 0.13704 0.33697
 H637 H 0.89731 0.19522 0.31094
 H638 H 0.99505 0.09961 0.41819
 H639 H 0.90625 0.04633 0.44749
 C640 C 0.11321 0.34721 -0.09363
 C641 C 0.09875 0.32260 -0.11588
 C642 C 0.11988 0.30025 -0.13390
 C643 C 0.15554 0.30169 -0.12964
 C644 C 0.16955 0.32585 -0.10590
 C645 C 0.14848 0.34910 -0.08842
 C646 C 0.09093 0.37187 -0.07606
 C647 C 0.10527 0.39772 -0.05518
 C648 C 0.08382 0.42213 -0.04003
 C649 C 0.04843 0.41999 -0.04513
 C650 C 0.03462 0.39332 -0.06524
 C651 C 0.05569 0.36955 -0.08120
 C652 C 0.16191 0.37472 -0.06652
 C653 C 0.14070 0.39874 -0.05039
 C654 C 0.06334 0.32096 -0.12008
 C655 C 0.04213 0.34395 -0.10286
 H656 H 0.18909 0.37656 -0.06225
 H657 H 0.15216 0.41837 -0.03420
 H658 H 0.05191 0.30189 -0.13705
 H659 H 0.01494 0.34200 -0.10699
 H660 H 0.10820 0.28118 -0.15058
 H661 H 0.19677 0.32785 -0.10238
 H662 H 0.09447 0.44256 -0.02434
 H663 H 0.00739 0.39175 -0.06954
 C664 C -0.14734 0.38063 0.15646
 C665 C -0.17462 0.36344 0.14047
 C666 C -0.19011 0.33794 0.15859
 C667 C -0.17863 0.32930 0.19263
 C668 C -0.15209 0.34794 0.20883
 C669 C -0.13607 0.37331 0.19068
 C670 C -0.12909 0.40544 0.13624
 C671 C -0.10043 0.42121 0.15135
 C672 C -0.08116 0.44223 0.13070
 C673 C -0.09019 0.44678 0.09510
 C674 C -0.12016 0.43234 0.08115
 C675 C -0.13944 0.41137 0.10141
 C676 C -0.10822 0.39067 0.20551
 C677 C -0.09065 0.41414 0.18615
 C678 C -0.18505 0.37109 0.10603
 C679 C -0.16778 0.39472 0.08684
 H680 H -0.09934 0.38541 0.23197
 H681 H -0.06870 0.42620 0.19823
 H682 H -0.20622 0.35811 0.09350
 H683 H -0.17605 0.39923 0.06001
 H684 H -0.21006 0.32397 0.14526
 H685 H -0.14327 0.34226 0.23517
 H686 H -0.05803 0.45311 0.14157
 H687 H -0.12745 0.43591 0.05385
 C688 C -0.13796 0.61918 -0.15724
 C689 C -0.12254 0.62984 -0.18770
 C690 C -0.13906 0.65383 -0.20858
 C691 C -0.17076 0.66793 -0.19899
 C692 C -0.18641 0.65520 -0.16901
 C693 C -0.17001 0.63136 -0.14797
 C694 C -0.11953 0.59603 -0.13371
 C695 C -0.13425 0.58689 -0.10222
 C696 C -0.11534 0.56756 -0.07834
 C697 C -0.08179 0.55782 -0.08561
 C698 C -0.06815 0.56550 -0.11824
 C699 C -0.08679 0.58500 -0.14222
 C700 C -0.18457 0.62045 -0.11701
 C701 C -0.16695 0.59865 -0.09447
 C702 C -0.09027 0.61716 -0.19605
 C703 C -0.07269 0.59512 -0.17368
 H704 H -0.20942 0.62956 -0.10964
 H705 H -0.17867 0.59163 -0.07035
 H706 H -0.07813 0.62500 -0.21963
 H707 H -0.04749 0.58667 -0.18062
 H708 H -0.12650 0.66171 -0.23178
 H709 H -0.21078 0.66439 -0.16070
 H710 H -0.12608 0.56163 -0.05336
 H711 H -0.04235 0.55809 -0.12409
 C712 C 0.11783 0.66865 0.08629
 C713 C 0.15129 0.65859 0.09474
 C714 C 0.17415 0.68233 0.10868
 C715 C 0.16322 0.71540 0.11520
 C716 C 0.13009 0.72537 0.10537
 C717 C 0.10726 0.70211 0.09077
 C718 C 0.09284 0.64336 0.07472
 C719 C 0.05912 0.65329 0.06761
 C720 C 0.03491 0.62889 0.05912
 C721 C 0.04405 0.59474 0.05879
 C722 C 0.07818 0.58527 0.06485
 C723 C 0.10272 0.60953 0.07283
 C724 C 0.07362 0.71128 0.08218
 C725 C 0.04999 0.68728 0.07057
 C726 C 0.16060 0.62470 0.09086
 C727 C 0.13668 0.60055 0.08019
 H728 H 0.06530 0.73709 0.08526
 H729 H 0.02410 0.69526 0.06494
 H730 H 0.18632 0.61662 0.09715
 H731 H 0.14467 0.57455 0.07850
 H732 H 0.19961 0.67475 0.11673
 H733 H 0.12187 0.75094 0.11051
 H734 H 0.00874 0.63637 0.05418
 H735 H 0.08550 0.55904 0.06398
 C736 C 0.37867 1.14622 0.88712
 C737 C 0.37742 1.14970 0.85053
 C738 C 0.35062 1.16792 0.83500
 C739 C 0.32505 1.18243 0.85570
 C740 C 0.32737 1.17966 0.89250
 C741 C 0.35398 1.16131 0.90833
 C742 C 0.40536 1.12497 0.90332
 C743 C 0.40549 1.11992 0.93967
 C744 C 0.42908 1.09738 0.95446
 C745 C 0.45211 1.07970 0.93310
 C746 C 0.45261 1.08630 0.89696
 C747 C 0.42908 1.10865 0.88187
 C748 C 0.35569 1.15665 0.94479
 C749 C 0.38098 1.13626 0.96019
 C750 C 0.40234 1.13394 0.83010
 C751 C 0.42775 1.11377 0.84551
 H752 H 0.33686 1.16822 0.96147
 H753 H 0.38087 1.13265 0.98827
 H754 H 0.40175 1.13659 0.80187
 H755 H 0.44599 1.10140 0.82871
 H756 H 0.34921 1.17027 0.80674
 H757 H 0.30762 1.19034 0.90863
 H758 H 0.42812 1.09211 0.98212
 H759 H 0.47017 1.07278 0.88026
 C760 C 0.38379 0.86738 1.10618
 C761 C 0.36027 0.84928 1.08536
 C762 C 0.33355 0.83332 1.10146
 C763 C 0.32998 0.83536 1.13819
 C764 C 0.35427 0.85315 1.15875
 C765 C 0.38115 0.86935 1.14283
 C766 C 0.41074 0.88593 1.08909
 C767 C 0.43330 0.90545 1.10970
 C768 C 0.45687 0.92545 1.09308
 C769 C 0.45733 0.92652 1.05613
 C770 C 0.43573 0.90535 1.03604
 C771 C 0.41219 0.88528 1.05233
 C772 C 0.40495 0.88818 1.16268
 C773 C 0.43055 0.90594 1.14640
 C774 C 0.36328 0.84833 1.04871
 C775 C 0.38879 0.86605 1.03247
 H776 H 0.40335 0.88980 1.19099
 H777 H 0.44782 0.92082 1.16265
 H778 H 0.34532 0.83434 1.03237
 H779 H 0.38966 0.86536 1.00408
 H780 H 0.31485 0.82040 1.08511
 H781 H 0.35208 0.85466 1.18699
 H782 H 0.47319 0.94181 1.10881
 H783 H 0.43559 0.90616 1.00770
 C784 C 0.65937 1.13113 1.12358
 C785 C 0.64616 1.16090 1.13830
 C786 C 0.66653 1.17984 1.16195
 C787 C 0.69932 1.16848 1.17158
 C788 C 0.71202 1.13851 1.15675
 C789 C 0.69232 1.11992 1.13243
 C790 C 0.63813 1.11097 1.09890
 C791 C 0.65153 1.08135 1.08417
 C792 C 0.63094 1.06153 1.06193
 C793 C 0.59668 1.07036 1.05524
 C794 C 0.58380 1.10062 1.06957
 C795 C 0.60456 1.12116 1.09131
 C796 C 0.70490 1.09030 1.11685
 C797 C 0.68491 1.07143 1.09297
 C798 C 0.61278 1.17081 1.12932
 C799 C 0.59226 1.15117 1.10645
 H800 H 0.73035 1.08152 1.12331
 H801 H 0.69548 1.04857 1.08179
 H802 H 0.60223 1.19370 1.14047
 H803 H 0.56648 1.15944 1.10078
 H804 H 0.65685 1.20299 1.17338
 H805 H 0.73748 1.13010 1.16376
 H806 H 0.64117 1.03824 1.05133
 H807 H 0.55751 1.10765 1.06466
 C808 C 0.65020 0.85876 0.84492
 C809 C 0.65017 0.86345 0.80849
 C810 C 0.67227 0.84413 0.78773
 C811 C 0.69410 0.82018 0.80321
 C812 C 0.69343 0.81564 0.83978
 C813 C 0.67168 0.83493 0.86074
 C814 C 0.62797 0.87979 0.86706
 C815 C 0.62894 0.87588 0.90361
 C816 C 0.60901 0.89704 0.92471
 C817 C 0.58822 0.92200 0.90948
 C818 C 0.58683 0.92487 0.87264
 C819 C 0.60689 0.90403 0.85134
 C820 C 0.67146 0.83127 0.89732
 C821 C 0.65049 0.85144 0.91839
 C822 C 0.62834 0.88767 0.79368
 C823 C 0.60703 0.90756 0.81473
 H824 H 0.68793 0.81293 0.90981
 H825 H 0.65144 0.84812 0.94653
 H826 H 0.62795 0.89149 0.76563
 H827 H 0.59087 0.92619 0.80229
 H828 H 0.67252 0.84765 0.75965
 H829 H 0.71058 0.79783 0.85212
 H830 H 0.61031 0.89463 0.95298
 H831 H 0.57113 0.94414 0.86062
   
