data_POSCAR
  _audit_creation_date              2014-09-24
  _audit_creation_method            'ToBaCCo'
  _symmetry_space_group_name_H-M    'P1'
  _symmetry_Int_Tables_number       1
  _symmetry_cell_setting            triclinic
  loop_
  _symmetry_equiv_pos_as_xyz
 x,y,z
_cell_length_a 43.5836
_cell_length_b 42.9519
_cell_length_c 43.5944
_cell_angle_alpha 89.846000
_cell_angle_beta 90.000800
_cell_angle_gamma 89.974400
loop_
  _atom_site_label
  _atom_site_type_symbol
  _atom_site_fract_x
  _atom_site_fract_y
  _atom_site_fract_z
N1 N 0.58531 0.67406 0.61029
 N2 N 0.57288 0.66182 0.63505
 C3 C 0.54822 0.67895 0.64312
 C4 C 0.54530 0.70294 0.62223
 C5 C 0.56907 0.69928 0.60176
 H6 H 0.53366 0.67452 0.66273
 H7 H 0.57427 0.71402 0.58229
 Cu8 Cu 0.59050 0.62496 0.65436
 Cu9 Cu 0.62191 0.65692 0.59107
 Cu10 Cu 0.65372 0.59150 0.62505
 N11 N 0.60865 0.58808 0.67316
 N12 N 0.63345 0.57527 0.66144
 C13 C 0.64130 0.55024 0.67830
 C14 C 0.62035 0.54731 0.70173
 C15 C 0.59984 0.57152 0.69800
 H16 H 0.66066 0.53518 0.67375
 H17 H 0.58004 0.57651 0.71212
 N18 N 0.67100 0.61122 0.58812
 N19 N 0.65892 0.63617 0.57507
 C20 C 0.67609 0.64411 0.55052
 C21 C 0.69987 0.62311 0.54824
 C22 C 0.69611 0.60263 0.57226
 H23 H 0.67179 0.66375 0.53555
 H24 H 0.71073 0.58306 0.57779
 H25 H 0.61514 0.61179 0.60586
 H26 H 0.63966 0.63719 0.63045
 N27 N 0.90715 0.32632 0.11185
 N28 N 0.91901 0.33989 0.13613
 C29 C 0.94424 0.32414 0.14497
 C30 C 0.94821 0.29957 0.12515
 C31 C 0.92445 0.30145 0.10435
 H32 H 0.95874 0.33012 0.16421
 H33 H 0.92018 0.28609 0.08520
 Cu34 Cu 0.90053 0.37695 0.15373
 Cu35 Cu 0.87044 0.34226 0.09175
 Cu36 Cu 0.83647 0.40798 0.12331
 N37 N 0.88104 0.41334 0.17152
 N38 N 0.85596 0.42547 0.15966
 C39 C 0.84731 0.45015 0.17667
 C40 C 0.86817 0.45342 0.20024
 C41 C 0.88919 0.42983 0.19643
 H42 H 0.82733 0.46445 0.17236
 H43 H 0.90877 0.42500 0.21091
 N44 N 0.82029 0.38683 0.08656
 N45 N 0.83325 0.36179 0.07467
 C46 C 0.81725 0.35302 0.04972
 C47 C 0.79324 0.37346 0.04587
 C48 C 0.79568 0.39464 0.06943
 H49 H 0.82274 0.33342 0.03521
 H50 H 0.78079 0.41433 0.07356
 H51 H 0.87554 0.38827 0.10490
 H52 H 0.85168 0.36297 0.13031
 N53 N 0.40643 0.17389 -0.11188
 N54 N 0.41835 0.16025 -0.13609
 C55 C 0.44361 0.17596 -0.14487
 C56 C 0.44757 0.20057 -0.12510
 C57 C 0.42373 0.19873 -0.10439
 H58 H 0.45817 0.16994 -0.16405
 H59 H 0.41943 0.21414 -0.08529
 Cu60 Cu 0.39991 0.12319 -0.15370
 Cu61 Cu 0.36966 0.15804 -0.09185
 Cu62 Cu 0.33570 0.09235 -0.12342
 N63 N 0.38040 0.08683 -0.17150
 N64 N 0.35526 0.07478 -0.15971
 C65 C 0.34662 0.05012 -0.17673
 C66 C 0.36754 0.04678 -0.20024
 C67 C 0.38859 0.07030 -0.19638
 H68 H 0.32660 0.03588 -0.17247
 H69 H 0.40822 0.07508 -0.21081
 N70 N 0.31946 0.11357 -0.08673
 N71 N 0.33242 0.13860 -0.07484
 C72 C 0.31637 0.14741 -0.04993
 C73 C 0.29234 0.12702 -0.04611
 C74 C 0.29480 0.10582 -0.06965
 H75 H 0.32185 0.16702 -0.03542
 H76 H 0.27991 0.08615 -0.07379
 H77 H 0.37475 0.11200 -0.10492
 H78 H 0.35100 0.13731 -0.13045
 N79 N 0.08463 0.82477 0.39010
 N80 N 0.07248 0.83658 0.36498
 C81 C 0.04788 0.81938 0.35693
 C82 C 0.04474 0.79579 0.37822
 C83 C 0.06828 0.79973 0.39890
 H84 H 0.03355 0.82349 0.33707
 H85 H 0.07329 0.78531 0.41866
 Cu86 Cu 0.09033 0.87301 0.34514
 Cu87 Cu 0.12105 0.84217 0.40937
 Cu88 Cu 0.15251 0.90768 0.37538
 N89 N 0.10789 0.91043 0.32684
 N90 N 0.13225 0.92371 0.33891
 C91 C 0.13973 0.94898 0.32224
 C92 C 0.11901 0.95161 0.29858
 C93 C 0.09902 0.92694 0.30199
 H94 H 0.15874 0.96440 0.32702
 H95 H 0.07954 0.92157 0.28758
 N96 N 0.16983 0.88814 0.41237
 N97 N 0.15789 0.86314 0.42543
 C98 C 0.17508 0.85530 0.44999
 C99 C 0.19874 0.87643 0.45228
 C100 C 0.19487 0.89687 0.42825
 H101 H 0.17091 0.83564 0.46496
 H102 H 0.20941 0.91648 0.42268
 H103 H 0.11381 0.88702 0.39396
 H104 H 0.13923 0.86174 0.37014
 N105 N 0.14051 0.14748 0.14689
 N106 N 0.39167 0.89776 0.60407
 N107 N 0.89251 0.60222 0.39602
 N108 N 0.64158 0.35309 -0.14725
 C109 C 0.01862 0.23894 0.12982
 C110 C 0.02396 0.22731 0.16271
 C111 C 0.04850 0.20787 0.16551
 C112 C 0.06532 0.20193 0.13516
 C113 C 0.07367 0.23439 0.12296
 C114 C 0.04914 0.25383 0.12016
 C115 C 0.01596 0.20931 0.11035
 C116 C 0.04055 0.18982 0.11316
 C117 C -0.00757 0.26023 0.12719
 C118 C -0.02860 0.27842 0.12584
 C119 C 0.09199 0.18138 0.13857
 C120 C 0.11439 0.16529 0.14215
 H121 H 0.00969 0.23373 0.18209
 H122 H 0.05523 0.19764 0.18730
 H123 H 0.09683 0.24147 0.11698
 H124 H 0.05128 0.27756 0.11178
 H125 H -0.00349 0.20410 0.09567
 H126 H 0.04218 0.16792 0.10090
 C127 C 0.48331 0.77488 0.61885
 C128 C 0.44930 0.76584 0.62124
 C129 C 0.42977 0.79057 0.61886
 C130 C 0.44621 0.82186 0.61432
 C131 C 0.46659 0.81726 0.58598
 C132 C 0.48606 0.79259 0.58836
 C133 C 0.48814 0.79960 0.64374
 C134 C 0.46864 0.82430 0.64136
 C135 C 0.50465 0.74854 0.62103
 C136 C 0.52287 0.72744 0.62201
 C137 C 0.42561 0.84872 0.61139
 C138 C 0.40949 0.87134 0.60826
 H139 H 0.44127 0.74214 0.62456
 H140 H 0.40502 0.78807 0.62012
 H141 H 0.46578 0.83208 0.56578
 H142 H 0.50192 0.78630 0.57020
 H143 H 0.50532 0.79783 0.66170
 H144 H 0.46911 0.84370 0.65728
 C145 C 0.98401 0.72515 0.38151
 C146 C 0.97006 0.72109 0.41360
 C147 C 0.95059 0.69640 0.41590
 C148 C 0.94696 0.67815 0.38590
 C149 C 0.97973 0.66908 0.37662
 C150 C 0.99919 0.69376 0.37432
 C151 C 0.95640 0.72719 0.35971
 C152 C 0.93689 0.70244 0.36202
 C153 C 1.00534 0.75148 0.37941
 C154 C 1.02356 0.77257 0.37847
 C155 C 0.92638 0.65129 0.38876
 C156 C 0.91029 0.62866 0.39186
 H157 H 0.97498 0.73632 0.43281
 H158 H 0.93884 0.69049 0.43709
 H159 H 0.98700 0.64533 0.37218
 H160 H 1.02312 0.69115 0.36791
 H161 H 0.95252 0.74634 0.34388
 H162 H 0.91629 0.70039 0.34817
 C163 C 0.51943 0.26215 -0.12993
 C164 C 0.52364 0.28414 -0.10254
 C165 C 0.54830 0.30352 -0.10540
 C166 C 0.56625 0.29894 -0.13536
 C167 C 0.54240 0.30291 -0.16099
 C168 C 0.51779 0.28356 -0.15813
 C169 C 0.55014 0.24495 -0.13296
 C170 C 0.57473 0.26427 -0.13581
 C171 C 0.49317 0.24097 -0.12725
 C172 C 0.47209 0.22287 -0.12584
 C173 C 0.59297 0.31938 -0.13882
 C174 C 0.61542 0.33539 -0.14245
 H175 H 0.50861 0.28448 -0.08269
 H176 H 0.55439 0.32046 -0.08800
 H177 H 0.54461 0.31949 -0.17969
 H178 H 0.49892 0.28358 -0.17440
 H179 H 0.55239 0.21977 -0.13282
 H180 H 0.59803 0.25563 -0.13811
 C181 C 0.12226 0.02330 0.23629
 C182 C 0.10067 0.05040 0.24404
 C183 C 0.10370 0.07531 0.22485
 C184 C 0.12802 0.07069 0.19980
 C185 C 0.11866 0.04058 0.18333
 C186 C 0.11563 0.01562 0.20255
 C187 C 0.15454 0.03755 0.23629
 C188 C 0.15756 0.06242 0.21714
 C189 C 0.11956 -0.00320 0.25742
 C190 C 0.11859 -0.02425 0.27574
 C191 C 0.13171 0.09781 0.17963
 C192 C 0.13554 0.12071 0.16403
 H193 H 0.08438 0.05003 0.26287
 H194 H 0.08999 0.09628 0.22726
 H195 H 0.11473 0.03902 0.15879
 H196 H 0.10910 -0.00733 0.19448
 H197 H 0.17342 0.02883 0.25011
 H198 H 0.17903 0.07498 0.21456
 C199 C 0.62358 0.47702 -0.23707
 C200 C 0.63948 0.44890 -0.25179
 C201 C 0.64245 0.42408 -0.23257
 C202 C 0.62925 0.42972 -0.20044
 C203 C 0.59580 0.43956 -0.20588
 C204 C 0.59281 0.46446 -0.22516
 C205 C 0.64244 0.48407 -0.20816
 C206 C 0.64542 0.45919 -0.18890
 C207 C 0.62094 0.50346 -0.25827
 C208 C 0.62003 0.52446 -0.27666
 C209 C 0.63289 0.40266 -0.18018
 C210 C 0.63667 0.37981 -0.16449
 H211 H 0.64768 0.44850 -0.27530
 H212 H 0.65320 0.40244 -0.23963
 H213 H 0.57621 0.42803 -0.19548
 H214 H 0.57068 0.47427 -0.23128
 H215 H 0.65250 0.50663 -0.20322
 H216 H 0.65804 0.46043 -0.16746
 C217 C 0.37191 0.98550 0.72786
 C218 C 0.38241 1.00276 0.69884
 C219 C 0.38576 0.98396 0.67400
 C220 C 0.37828 0.94967 0.68052
 C221 C 0.34556 0.94991 0.69362
 C222 C 0.34221 0.96877 0.71855
 C223 C 0.39559 0.95944 0.73252
 C224 C 0.39894 0.94060 0.70763
 C225 C 0.36884 1.00625 0.75435
 C226 C 0.36755 1.02427 0.77547
 C227 C 0.38232 0.92987 0.65346
 C228 C 0.38641 0.91456 0.63067
 H229 H 0.38679 1.02763 0.69787
 H230 H 0.39300 0.99273 0.65177
 H231 H 0.32674 0.93644 0.68419
 H232 H 0.32051 0.97147 0.73048
 H233 H 0.40851 0.95602 0.75355
 H234 H 0.41473 0.92105 0.70734
 C235 C 0.87257 0.51466 0.27216
 C236 C 0.89488 0.50179 0.29630
 C237 C 0.89827 0.52057 0.32114
 C238 C 0.87902 0.55044 0.31951
 C239 C 0.84592 0.53931 0.31454
 C240 C 0.84252 0.52048 0.28961
 C241 C 0.88487 0.54720 0.26424
 C242 C 0.88826 0.56603 0.28916
 C243 C 0.86947 0.49393 0.24565
 C244 C 0.86817 0.47592 0.22453
 C245 C 0.88310 0.57021 0.34659
 C246 C 0.88722 0.58548 0.36940
 H247 H 0.90700 0.47982 0.29406
 H248 H 0.91328 0.51466 0.34017
 H249 H 0.82683 0.54571 0.32923
 H250 H 0.82053 0.51075 0.28295
 H251 H 0.89035 0.55481 0.24111
 H252 H 0.89666 0.58976 0.28738
 C253 C 0.23095 0.13122 0.02521
 C254 C 0.21684 0.10012 0.03543
 C255 C 0.19755 0.10278 0.05994
 C256 C 0.19432 0.13626 0.07178
 C257 C 0.18420 0.15543 0.04378
 C258 C 0.20347 0.15278 0.01929
 C259 C 0.24646 0.14430 0.05402
 C260 C 0.22723 0.14695 0.07847
 C261 C 0.25205 0.12875 -0.00089
 C262 C 0.27009 0.12753 -0.02182
 C263 C 0.17397 0.13950 0.09838
 C264 C 0.15807 0.14292 0.12077
 H265 H 0.22153 0.07801 0.02438
 H266 H 0.18572 0.08294 0.06989
 H267 H 0.16367 0.16975 0.04321
 H268 H 0.19944 0.16483 -0.00226
 H269 H 0.27048 0.15089 0.05515
 H270 H 0.23479 0.15580 0.10052
 C271 C 0.77119 0.61897 0.48688
 C272 C 0.79723 0.59876 0.49977
 C273 C 0.82164 0.59604 0.48051
 C274 C 0.81769 0.61380 0.45017
 C275 C 0.81078 0.64752 0.45955
 C276 C 0.78631 0.65024 0.47887
 C277 C 0.76309 0.60427 0.45585
 C278 C 0.78755 0.60155 0.43654
 C279 C 0.74511 0.62148 0.50800
 C280 C 0.72419 0.62268 0.52603
 C281 C 0.84423 0.61048 0.42977
 C282 C 0.86652 0.60694 0.41376
 H283 H 0.79656 0.58755 0.52212
 H284 H 0.84187 0.58251 0.48636
 H285 H 0.82391 0.66747 0.45169
 H286 H 0.77847 0.67253 0.48756
 H287 H 0.74017 0.59671 0.44958
 H288 H 0.78559 0.59166 0.41373
 C289 C 0.73195 0.36937 -0.02553
 C290 C 0.74799 0.37366 -0.05659
 C291 C 0.72876 0.37103 -0.08106
 C292 C 0.69534 0.36437 -0.07212
 C293 C 0.68651 0.39071 -0.05005
 C294 C 0.70578 0.39334 -0.02552
 C295 C 0.71599 0.33760 -0.02760
 C296 C 0.69676 0.33497 -0.05208
 C297 C 0.75302 0.37181 0.00059
 C298 C 0.77103 0.37300 0.02154
 C299 C 0.67501 0.36114 -0.09874
 C300 C 0.65913 0.35769 -0.12112
 H301 H 0.77232 0.37840 -0.05914
 H302 H 0.73664 0.37353 -0.10457
 H303 H 0.66688 0.40592 -0.05340
 H304 H 0.70268 0.41081 -0.00784
 H305 H 0.71945 0.31882 -0.01123
 H306 H 0.68374 0.31394 -0.05667
 C307 C 0.27016 0.88076 0.51352
 C308 C 0.26438 0.90274 0.54063
 C309 C 0.28887 0.90551 0.55987
 C310 C 0.31673 0.88603 0.55012
 C311 C 0.32355 0.89622 0.51705
 C312 C 0.29911 0.89345 0.49784
 C313 C 0.28012 0.84980 0.52815
 C314 C 0.30463 0.85257 0.54742
 C315 C 0.24405 0.87819 0.49245
 C316 C 0.22309 0.87694 0.47446
 C317 C 0.34332 0.88941 0.57046
 C318 C 0.36564 0.89299 0.58640
 H319 H 0.24292 0.91498 0.54441
 H320 H 0.28839 0.92013 0.58015
 H321 H 0.34569 0.90483 0.50938
 H322 H 0.30031 0.89969 0.47371
 H323 H 0.26890 0.82769 0.52380
 H324 H 0.31442 0.83284 0.55958
   
