data_POSCAR
  _audit_creation_date              2014-09-24
  _audit_creation_method            'ToBaCCo'
  _symmetry_space_group_name_H-M    'P1'
  _symmetry_Int_Tables_number       1
  _symmetry_cell_setting            triclinic
  loop_
  _symmetry_equiv_pos_as_xyz
 x,y,z
_cell_length_a 36.2624
_cell_length_b 38.1416
_cell_length_c 36.2636
_cell_angle_alpha 90.001200
_cell_angle_beta 90.001700
_cell_angle_gamma 90.000500
loop_
  _atom_site_label
  _atom_site_type_symbol
  _atom_site_fract_x
  _atom_site_fract_y
  _atom_site_fract_z
Si1 Si 0.25000 0.24996 0.25001
 Si2 Si 0.74999 0.74998 0.25001
 Si3 Si 0.75000 0.25005 0.75000
 Si4 Si 0.24999 0.75003 0.75002
 C5 C 0.05201 0.05246 0.01281
 H6 H 0.05284 0.05394 -0.01697
 C7 C 0.07362 0.07516 0.03394
 H8 H 0.09128 0.09414 0.02045
 C9 C 0.02767 0.02623 0.06691
 H10 H 0.00933 0.00755 0.07969
 C11 C 0.04881 0.04846 0.08905
 H12 H 0.04696 0.04656 0.11880
 N13 N 0.02997 0.02832 0.02949
 C14 C 0.01491 -0.05451 -0.05220
 H15 H -0.01488 -0.05595 -0.05297
 C16 C 0.03595 -0.07717 -0.07394
 H17 H 0.02238 -0.09607 -0.09165
 C18 C 0.06910 -0.02844 -0.02789
 H19 H 0.08195 -0.00981 -0.00953
 C20 C 0.09116 -0.05062 -0.04917
 H21 H 0.12092 -0.04875 -0.04740
 Zn22 Zn 0.00111 -0.00106 -0.00118
 N23 N 0.03167 -0.03046 -0.03011
 C24 C -0.02569 0.02649 -0.06909
 N25 N -0.02775 0.02849 -0.03166
 C26 C -0.04967 0.05260 -0.01478
 C27 C -0.07142 0.07535 -0.03570
 C28 C -0.04698 0.04876 -0.09105
 C29 C -0.01283 -0.05465 0.04966
 C30 C -0.03393 -0.07723 0.07143
 C31 C -0.08907 -0.05045 0.04676
 C32 C -0.06694 -0.02835 0.02545
 N33 N -0.02953 -0.03051 0.02763
 H34 H -0.00746 0.00780 -0.08203
 H35 H -0.05031 0.05401 0.01501
 H36 H -0.08900 0.09428 -0.02205
 H37 H -0.04536 0.04690 -0.12081
 H38 H 0.01696 -0.05618 0.05040
 H39 H -0.02043 -0.09617 0.08912
 H40 H -0.11882 -0.04845 0.04505
 H41 H -0.07974 -0.00965 0.00713
 C42 C 0.07442 -0.07510 -0.07249
 C43 C 0.07206 0.07305 0.07240
 C44 C -0.07239 -0.07499 0.07005
 C45 C -0.07014 0.07330 -0.07418
 C46 C 0.05220 0.55454 0.51494
 H47 H 0.05296 0.55597 0.48515
 C48 C 0.07394 0.57721 0.53598
 H49 H 0.09163 0.59611 0.52241
 C50 C 0.02791 0.52846 0.56913
 H51 H 0.00956 0.50982 0.58199
 C52 C 0.04919 0.55065 0.59119
 H53 H 0.04742 0.54878 0.62095
 N54 N 0.03013 0.53048 0.53171
 C55 C 0.01484 0.44740 0.45038
 H56 H -0.01495 0.44597 0.44974
 C57 C 0.03578 0.42466 0.42864
 H58 H 0.02213 0.40572 0.41105
 C59 C 0.06914 0.47355 0.47436
 H60 H 0.08207 0.49225 0.49258
 C61 C 0.09110 0.45129 0.45306
 H62 H 0.12087 0.45317 0.45468
 Zn63 Zn 0.00120 0.50106 0.50115
 N64 N 0.03171 0.47153 0.47230
 C65 C -0.02544 0.52833 0.43310
 N66 N -0.02762 0.53049 0.47051
 C67 C -0.04965 0.55463 0.48721
 C68 C -0.07143 0.57721 0.46610
 C69 C -0.04675 0.55042 0.41097
 C70 C -0.01277 0.44755 0.55206
 C71 C -0.03388 0.42484 0.57367
 C72 C -0.08901 0.45152 0.54885
 C73 C -0.06687 0.47375 0.52771
 N74 N -0.02945 0.47168 0.53001
 H75 H -0.00712 0.50964 0.42030
 H76 H -0.05039 0.55617 0.51699
 H77 H -0.08913 0.59614 0.47960
 H78 H -0.04505 0.54841 0.38122
 H79 H 0.01702 0.44607 0.55288
 H80 H -0.02039 0.40587 0.59133
 H81 H -0.11876 0.45342 0.54700
 H82 H -0.07966 0.49243 0.50937
 C83 C 0.07425 0.42674 0.42991
 C84 C 0.07249 0.57514 0.57445
 C85 C -0.07235 0.42694 0.57211
 C86 C -0.07005 0.57496 0.42764
 C87 C 0.54962 0.05262 0.51480
 H88 H 0.55025 0.05403 0.48501
 C89 C 0.57137 0.07537 0.53572
 H90 H 0.58895 0.09431 0.52207
 C91 C 0.52566 0.02649 0.56912
 H92 H 0.50744 0.00779 0.58206
 C93 C 0.54695 0.04876 0.59107
 H94 H 0.54534 0.04690 0.62084
 N95 N 0.52771 0.02849 0.53169
 C96 C 0.51282 -0.05464 0.45036
 H97 H 0.48303 -0.05619 0.44962
 C98 C 0.53393 -0.07721 0.42858
 H99 H 0.52043 -0.09616 0.41089
 C100 C 0.56692 -0.02832 0.47456
 H101 H 0.57972 -0.00962 0.49288
 C102 C 0.58905 -0.05041 0.45325
 H103 H 0.61881 -0.04839 0.45496
 Zn104 Zn 0.49886 -0.00106 0.50120
 N105 N 0.52951 -0.03049 0.47239
 C106 C 0.47229 0.02623 0.43312
 N107 N 0.46999 0.02831 0.47053
 C108 C 0.44794 0.05245 0.48721
 C109 C 0.42634 0.07515 0.46609
 C110 C 0.45115 0.04846 0.41098
 C111 C 0.48508 -0.05452 0.55222
 C112 C 0.46404 -0.07718 0.57396
 C113 C 0.40882 -0.05064 0.54919
 C114 C 0.43088 -0.02845 0.52791
 N115 N 0.46830 -0.03047 0.53013
 H116 H 0.49063 0.00754 0.42033
 H117 H 0.44713 0.05393 0.51700
 H118 H 0.40867 0.09413 0.47958
 H119 H 0.45299 0.04655 0.38122
 H120 H 0.51486 -0.05595 0.55298
 H121 H 0.47761 -0.09607 0.59167
 H122 H 0.37906 -0.04877 0.54742
 H123 H 0.41803 -0.00983 0.50955
 C124 C 0.57239 -0.07495 0.42996
 C125 C 0.57010 0.07331 0.57420
 C126 C 0.42557 -0.07512 0.57250
 C127 C 0.42789 0.07304 0.42763
 C128 C 0.54962 0.55463 0.01281
 H129 H 0.55036 0.55618 -0.01697
 C130 C 0.57140 0.57721 0.03392
 H131 H 0.58909 0.59615 0.02042
 C132 C 0.52542 0.52832 0.06691
 H133 H 0.50710 0.50962 0.07971
 C134 C 0.54673 0.55041 0.08904
 H135 H 0.54502 0.54840 0.11880
 N136 N 0.52760 0.53049 0.02950
 C137 C 0.51276 0.44755 -0.05207
 H138 H 0.48298 0.44607 -0.05289
 C139 C 0.53389 0.42485 -0.07368
 H140 H 0.52039 0.40587 -0.09135
 C141 C 0.56686 0.47376 -0.02771
 H142 H 0.57965 0.49244 -0.00937
 C143 C 0.58901 0.45154 -0.04886
 H144 H 0.61876 0.45344 -0.04701
 Zn145 Zn 0.49878 0.50105 -0.00114
 N146 N 0.52945 0.47168 -0.03002
 C147 C 0.47207 0.52845 -0.06912
 N148 N 0.46984 0.53046 -0.03170
 C149 C 0.44776 0.55451 -0.01493
 C150 C 0.42602 0.57718 -0.03596
 C151 C 0.45079 0.55065 -0.09118
 C152 C 0.48518 0.44737 0.04961
 C153 C 0.46426 0.42463 0.07135
 C154 C 0.40891 0.45123 0.04693
 C155 C 0.43086 0.47350 0.02564
 N156 N 0.46830 0.47150 0.02770
 H157 H 0.49043 0.50983 -0.08198
 H158 H 0.44700 0.55593 0.01486
 H159 H 0.40831 0.59607 -0.02239
 H160 H 0.45256 0.54878 -0.12094
 H161 H 0.51497 0.44597 0.05025
 H162 H 0.47791 0.40569 0.08893
 H163 H 0.37914 0.45309 0.04532
 H164 H 0.41792 0.49220 0.00742
 C165 C 0.57235 0.42696 -0.07212
 C166 C 0.57002 0.57496 0.07238
 C167 C 0.42578 0.42668 0.07008
 C168 C 0.42748 0.57512 -0.07443
 C169 C 0.22295 -0.22395 -0.22245
 C170 C 0.20404 -0.20553 -0.20319
 C171 C 0.18153 -0.18339 -0.18027
 C172 C 0.19799 -0.16182 -0.15368
 C173 C 0.17616 -0.14005 -0.13162
 C174 C 0.13778 -0.13976 -0.13606
 C175 C 0.12131 -0.16139 -0.16260
 C176 C 0.14314 -0.18316 -0.18466
 C177 C 0.11536 -0.11711 -0.11359
 C178 C 0.09666 -0.09802 -0.09482
 H179 H 0.22765 -0.16178 -0.15007
 H180 H 0.18918 -0.12341 -0.11120
 H181 H 0.09166 -0.16135 -0.16629
 H182 H 0.13014 -0.19972 -0.20516
 C183 C 0.22153 0.27750 0.27917
 C184 C 0.20278 0.29599 0.29852
 C185 C 0.18051 0.31822 0.32157
 C186 C 0.19730 0.34327 0.34431
 C187 C 0.17567 0.36510 0.36651
 C188 C 0.13718 0.36198 0.36605
 C189 C 0.12039 0.33688 0.34336
 C190 C 0.14202 0.31505 0.32116
 C191 C 0.11495 0.38466 0.38865
 C192 C 0.09637 0.40378 0.40751
 H193 H 0.22704 0.34595 0.34482
 H194 H 0.18893 0.38443 0.38393
 H195 H 0.09065 0.33427 0.34278
 H196 H 0.12876 0.29578 0.30366
 C197 C 0.72143 -0.22253 0.27915
 C198 C 0.70250 -0.20419 0.29846
 C199 C 0.67995 -0.18218 0.32148
 C200 C 0.69641 -0.15712 0.34444
 C201 C 0.67450 -0.13556 0.36664
 C202 C 0.63604 -0.13898 0.36598
 C203 C 0.61957 -0.16408 0.34307
 C204 C 0.64149 -0.18564 0.32087
 C205 C 0.61351 -0.11658 0.38861
 C206 C 0.59471 -0.09768 0.40750
 H207 H 0.72613 -0.15422 0.34511
 H208 H 0.68751 -0.11622 0.38424
 H209 H 0.58985 -0.16692 0.34234
 H210 H 0.62848 -0.20493 0.30320
 C211 C 0.72144 0.27758 -0.22090
 C212 C 0.70249 0.29604 -0.20172
 C213 C 0.67990 0.31824 -0.17895
 C214 C 0.69631 0.34032 -0.15279
 C215 C 0.67438 0.36219 -0.13092
 C216 C 0.63597 0.36205 -0.13512
 C217 C 0.61956 0.33990 -0.16122
 C218 C 0.64149 0.31804 -0.18309
 C219 C 0.61347 0.38479 -0.11286
 C220 C 0.59468 0.40396 -0.09426
 H221 H 0.72599 0.34071 -0.14939
 H222 H 0.68736 0.37923 -0.11085
 H223 H 0.58989 0.33961 -0.16471
 H224 H 0.62853 0.30108 -0.20326
 C225 C -0.22084 0.22253 -0.22150
 C226 C -0.20150 0.20408 -0.20270
 C227 C -0.17846 0.18189 -0.18038
 C228 C -0.18357 0.18056 -0.14211
 C229 C -0.16138 0.15873 -0.12047
 C230 C -0.13399 0.13814 -0.13703
 C231 C -0.12883 0.13953 -0.17529
 C232 C -0.15102 0.16136 -0.19692
 C233 C -0.11139 0.11542 -0.11483
 C234 C -0.09253 0.09628 -0.09628
 H235 H -0.20473 0.19631 -0.12904
 H236 H -0.16562 0.15783 -0.09091
 H237 H -0.10775 0.12370 -0.18838
 H238 H -0.14685 0.16217 -0.22650
 C239 C -0.22087 0.72252 0.27859
 C240 C -0.20156 0.70419 0.29754
 C241 C -0.17854 0.68221 0.32012
 C242 C -0.18298 0.68205 0.35850
 C243 C -0.16077 0.66049 0.38042
 C244 C -0.13403 0.63902 0.36405
 C245 C -0.12955 0.63924 0.32567
 C246 C -0.15176 0.66080 0.30375
 C247 C -0.11140 0.61661 0.38655
 C248 C -0.09251 0.59770 0.40532
 H249 H -0.20362 0.69849 0.37144
 H250 H -0.16449 0.66050 0.41007
 H251 H -0.10898 0.62273 0.31272
 H252 H -0.14811 0.66071 0.27410
 C253 C 0.27910 0.22243 0.27856
 C254 C 0.29828 0.20397 0.29751
 C255 C 0.32105 0.18177 0.32010
 C256 C 0.31646 0.18151 0.35846
 C257 C 0.33834 0.15965 0.38038
 C258 C 0.36488 0.13796 0.36402
 C259 C 0.36953 0.13828 0.32566
 C260 C 0.34766 0.16015 0.30375
 C261 C 0.38715 0.11521 0.38652
 C262 C 0.40575 0.09604 0.40530
 H263 H 0.29594 0.19811 0.37138
 H264 H 0.33450 0.15958 0.41001
 H265 H 0.38996 0.12160 0.31273
 H266 H 0.35141 0.16012 0.27411
 C267 C 0.27752 0.72400 -0.22294
 C268 C 0.29678 0.70559 -0.20402
 C269 C 0.31970 0.68345 -0.18150
 C270 C 0.31442 0.68228 -0.14325
 C271 C 0.33648 0.66051 -0.12142
 C272 C 0.36390 0.63981 -0.13776
 C273 C 0.36924 0.64104 -0.17600
 C274 C 0.34718 0.66282 -0.19783
 C275 C 0.38638 0.61715 -0.11536
 C276 C 0.40515 0.59805 -0.09666
 H277 H 0.29323 0.69812 -0.13035
 H278 H 0.33211 0.65974 -0.09187
 H279 H 0.39034 0.62513 -0.18892
 H280 H 0.35147 0.66350 -0.22739
 C281 C -0.22143 -0.22256 0.22086
 C282 C -0.20249 -0.20423 0.20154
 C283 C -0.17992 -0.18225 0.17852
 C284 C -0.19638 -0.15984 0.15271
 C285 C -0.17447 -0.13828 0.13051
 C286 C -0.13599 -0.13906 0.13401
 C287 C -0.11952 -0.16152 0.15977
 C288 C -0.14144 -0.18308 0.18198
 C289 C -0.11349 -0.11664 0.11139
 C290 C -0.09471 -0.09773 0.09250
 H291 H -0.22611 -0.15899 0.14983
 H292 H -0.18749 -0.12099 0.11070
 H293 H -0.08980 -0.16230 0.16272
 H294 H -0.12843 -0.20030 0.20186
 C295 C -0.22143 0.27757 0.72090
 C296 C -0.20248 0.29603 0.70172
 C297 C -0.17989 0.31822 0.67895
 C298 C -0.19628 0.34021 0.65270
 C299 C -0.17436 0.36207 0.63082
 C300 C -0.13596 0.36203 0.63512
 C301 C -0.11956 0.33998 0.66131
 C302 C -0.14149 0.31812 0.68318
 C303 C -0.11346 0.38477 0.61285
 C304 C -0.09467 0.40394 0.59425
 H305 H -0.22596 0.34052 0.64922
 H306 H -0.18733 0.37904 0.61067
 H307 H -0.08990 0.33976 0.66487
 H308 H -0.12854 0.30123 0.70342
 C309 C 0.27704 -0.22395 0.72248
 C310 C 0.29596 -0.20554 0.70322
 C311 C 0.31846 -0.18340 0.68030
 C312 C 0.30202 -0.16197 0.65358
 C313 C 0.32385 -0.14020 0.63152
 C314 C 0.36222 -0.13977 0.63609
 C315 C 0.37867 -0.16127 0.66276
 C316 C 0.35684 -0.18304 0.68482
 C317 C 0.38463 -0.11713 0.61361
 C318 C 0.40333 -0.09804 0.59484
 H319 H 0.27237 -0.16203 0.64987
 H320 H 0.31084 -0.12366 0.61100
 H321 H 0.40831 -0.16113 0.66654
 H322 H 0.36983 -0.19950 0.70542
 C323 C 0.27849 0.27746 0.22082
 C324 C 0.29727 0.29591 0.20147
 C325 C 0.31957 0.31811 0.17841
 C326 C 0.30284 0.34000 0.15229
 C327 C 0.32447 0.36183 0.13009
 C328 C 0.36291 0.36185 0.13393
 C329 C 0.37965 0.33990 0.16000
 C330 C 0.35803 0.31807 0.18220
 C331 C 0.38512 0.38456 0.11133
 C332 C 0.40367 0.40370 0.09248
 H333 H 0.27313 0.34025 0.14916
 H334 H 0.31124 0.37872 0.11004
 H335 H 0.40936 0.33973 0.16321
 H336 H 0.37124 0.30126 0.20234
 C337 C 0.22087 0.22244 0.22146
 C338 C 0.20168 0.20398 0.20253
 C339 C 0.17889 0.18178 0.17995
 C340 C 0.15289 0.15955 0.19637
 C341 C 0.13102 0.13768 0.17445
 C342 C 0.13506 0.13797 0.13602
 C343 C 0.16100 0.16027 0.11960
 C344 C 0.18288 0.18213 0.14151
 C345 C 0.11279 0.11522 0.11352
 C346 C 0.09420 0.09606 0.09473
 H347 H 0.14962 0.15905 0.22606
 H348 H 0.11106 0.12052 0.18744
 H349 H 0.16436 0.16068 0.08991
 H350 H 0.20292 0.19921 0.12854
 C351 C 0.22245 0.72401 0.72297
 C352 C 0.20319 0.70559 0.70405
 C353 C 0.18027 0.68346 0.68154
 C354 C 0.15286 0.66275 0.69788
 C355 C 0.13080 0.64097 0.67605
 C356 C 0.13606 0.63982 0.63779
 C357 C 0.16342 0.66059 0.62144
 C358 C 0.18548 0.68237 0.64327
 C359 C 0.11358 0.61717 0.61538
 C360 C 0.09481 0.59807 0.59669
 H361 H 0.14862 0.66337 0.72744
 H362 H 0.10975 0.62500 0.68897
 H363 H 0.16773 0.65989 0.59188
 H364 H 0.20661 0.69826 0.63036
 C365 C 0.72083 0.22254 0.72150
 C366 C 0.70149 0.20408 0.70271
 C367 C 0.67844 0.18189 0.68040
 C368 C 0.65105 0.16131 0.69695
 C369 C 0.62886 0.13948 0.67532
 C370 C 0.63396 0.13814 0.63705
 C371 C 0.66130 0.15879 0.62048
 C372 C 0.68349 0.18062 0.64211
 C373 C 0.61136 0.11543 0.61485
 C374 C 0.59250 0.09629 0.59630
 H375 H 0.64693 0.16208 0.72653
 H376 H 0.60782 0.12361 0.68841
 H377 H 0.66549 0.15794 0.59091
 H378 H 0.70461 0.19641 0.62904
 C379 C 0.72084 0.72252 0.22144
 C380 C 0.70151 0.70419 0.20250
 C381 C 0.67849 0.68221 0.17992
 C382 C 0.65247 0.66001 0.19637
 C383 C 0.63026 0.63846 0.17445
 C384 C 0.63399 0.63902 0.13599
 C385 C 0.65996 0.66127 0.11954
 C386 C 0.68217 0.68282 0.14146
 C387 C 0.61136 0.61661 0.11348
 C388 C 0.59247 0.59770 0.09470
 H389 H 0.64942 0.65932 0.22608
 H390 H 0.61029 0.62133 0.18745
 H391 H 0.66308 0.66189 0.08983
 H392 H 0.70222 0.69988 0.12847
   
