data_POSCAR
  _audit_creation_date              2014-09-24
  _audit_creation_method            'ToBaCCo'
  _symmetry_space_group_name_H-M    'P1'
  _symmetry_Int_Tables_number       1
  _symmetry_cell_setting            triclinic
  loop_
  _symmetry_equiv_pos_as_xyz
 x,y,z
_cell_length_a 41.8162
_cell_length_b 42.4150
_cell_length_c 42.8450
_cell_angle_alpha 89.094900
_cell_angle_beta 89.938200
_cell_angle_gamma 89.541300
loop_
  _atom_site_label
  _atom_site_type_symbol
  _atom_site_fract_x
  _atom_site_fract_y
  _atom_site_fract_z
N1 N 0.28268 0.21705 0.19339
 N2 N 0.27040 0.24299 0.18096
 C3 C 0.28893 0.25247 0.15688
 C4 C 0.31399 0.23133 0.15427
 C5 C 0.30935 0.20916 0.17767
 H6 H 0.28504 0.27353 0.14279
 H7 H 0.32474 0.18925 0.18327
 Cu8 Cu 0.23242 0.26258 0.19864
 Cu9 Cu 0.26447 0.19651 0.23018
 Cu10 Cu 0.19676 0.23100 0.26207
 N11 N 0.19440 0.28161 0.21683
 N12 N 0.18054 0.26912 0.24161
 C13 C 0.15570 0.28750 0.25007
 C14 C 0.15404 0.31276 0.22949
 C15 C 0.17880 0.30839 0.20868
 H16 H 0.14046 0.28321 0.27007
 H17 H 0.18530 0.32401 0.18957
 N18 N 0.21673 0.19242 0.27943
 N19 N 0.24259 0.17929 0.26736
 C20 C 0.25158 0.15462 0.28560
 C21 C 0.23038 0.15228 0.31018
 C22 C 0.20859 0.17642 0.30560
 H23 H 0.27263 0.14016 0.28201
 H24 H 0.18905 0.18252 0.32097
 H25 H 0.21819 0.21233 0.22299
 H26 H 0.24395 0.23669 0.24863
 N27 N 0.71481 -0.21390 0.19830
 N28 N 0.72925 -0.23746 0.18432
 C29 C 0.71110 -0.24690 0.16029
 C30 C 0.68395 -0.22816 0.15934
 C31 C 0.68700 -0.20751 0.18368
 H32 H 0.71699 -0.26613 0.14498
 H33 H 0.67003 -0.18949 0.19044
 Cu34 Cu 0.77004 -0.25395 0.19914
 Cu35 Cu 0.73257 -0.19393 0.23488
 Cu36 Cu 0.80055 -0.22844 0.26688
 N37 N 0.80492 -0.27598 0.22020
 N38 N 0.81692 -0.26591 0.24655
 C39 C 0.84019 -0.28591 0.25620
 C40 C 0.84280 -0.30965 0.23467
 C41 C 0.82014 -0.30271 0.21212
 H42 H 0.85384 -0.28366 0.27746
 H43 H 0.81472 -0.31632 0.19170
 N44 N 0.78027 -0.19042 0.28393
 N45 N 0.75426 -0.17730 0.27182
 C46 C 0.74524 -0.15289 0.28962
 C47 C 0.76658 -0.15075 0.31397
 C48 C 0.78849 -0.17471 0.30972
 H49 H 0.72423 -0.13834 0.28576
 H50 H 0.80832 -0.18074 0.32492
 H51 H 0.78000 -0.20622 0.22846
 H52 H 0.75459 -0.23518 0.25039
 N53 N 0.71800 0.21712 0.79910
 N54 N 0.73007 0.24239 0.81186
 C55 C 0.71129 0.25120 0.83580
 C56 C 0.68633 0.23026 0.83813
 C57 C 0.69122 0.20894 0.81459
 H58 H 0.71514 0.27153 0.85019
 H59 H 0.67606 0.18932 0.80886
 Cu60 Cu 0.76850 0.26209 0.79552
 Cu61 Cu 0.73725 0.19748 0.76279
 Cu62 Cu 0.80500 0.23286 0.73204
 N63 N 0.80564 0.28224 0.77693
 N64 N 0.81990 0.27073 0.75218
 C65 C 0.84414 0.28977 0.74373
 C66 C 0.84500 0.31439 0.76434
 C67 C 0.82031 0.30900 0.78509
 H68 H 0.85962 0.28632 0.72381
 H69 H 0.81321 0.32378 0.80427
 N70 N 0.78634 0.19448 0.71478
 N71 N 0.76027 0.18120 0.72618
 C72 C 0.75263 0.15650 0.70832
 C73 C 0.77504 0.15418 0.68483
 C74 C 0.79601 0.17854 0.68950
 H75 H 0.73193 0.14169 0.71160
 H76 H 0.81622 0.18470 0.67495
 H77 H 0.78316 0.21249 0.77090
 H78 H 0.75752 0.23824 0.74530
 N79 N 0.28235 -0.21955 0.80536
 N80 N 0.26921 -0.24435 0.81881
 C81 C 0.28779 -0.25414 0.84280
 C82 C 0.31374 -0.23438 0.84435
 C83 C 0.30962 -0.21270 0.82033
 H84 H 0.28313 -0.27436 0.85777
 H85 H 0.32551 -0.19366 0.81397
 Cu86 Cu 0.22978 -0.26231 0.80330
 Cu87 Cu 0.26388 -0.19882 0.76884
 Cu88 Cu 0.19598 -0.23200 0.73768
 N89 N 0.19296 -0.28157 0.78382
 N90 N 0.17980 -0.26976 0.75828
 C91 C 0.15570 -0.28850 0.74943
 C92 C 0.15383 -0.31329 0.77059
 C93 C 0.17771 -0.30825 0.79207
 H94 H 0.14116 -0.28478 0.72882
 H95 H 0.18393 -0.32336 0.81175
 N96 N 0.21585 -0.19377 0.72010
 N97 N 0.24182 -0.18116 0.73196
 C98 C 0.25078 -0.15662 0.71373
 C99 C 0.22942 -0.15376 0.68936
 C100 C 0.20757 -0.17753 0.69403
 H101 H 0.27193 -0.14261 0.71718
 H102 H 0.18793 -0.18325 0.67879
 H103 H 0.21712 -0.21253 0.77643
 H104 H 0.24268 -0.23926 0.75241
 N105 N 0.72218 -0.21021 0.81201
 N106 N 0.73523 -0.23497 0.82595
 C107 C 0.71739 -0.24302 0.85100
 C108 C 0.69203 -0.22212 0.85279
 C109 C 0.69575 -0.20158 0.82778
 H110 H 0.72189 -0.26305 0.86635
 H111 H 0.67983 -0.18247 0.82100
 Cu112 Cu 0.77329 -0.25540 0.80926
 Cu113 Cu 0.73900 -0.19246 0.77326
 Cu114 Cu 0.80507 -0.22965 0.74124
 N115 N 0.80978 -0.27644 0.79017
 N116 N 0.82207 -0.26636 0.76361
 C117 C 0.84608 -0.28584 0.75524
 C118 C 0.84887 -0.30931 0.77777
 C119 C 0.82554 -0.30272 0.79961
 H120 H 0.86002 -0.28357 0.73404
 H121 H 0.82000 -0.31646 0.82036
 N122 N 0.78455 -0.19216 0.72202
 N123 N 0.75936 -0.17795 0.73419
 C124 C 0.75039 -0.15382 0.71520
 C125 C 0.77094 -0.15294 0.69002
 C126 C 0.79230 -0.17741 0.69502
 H127 H 0.73017 -0.13832 0.71907
 H128 H 0.81170 -0.18416 0.67975
 H129 H 0.75873 -0.23439 0.75783
 H130 H 0.78569 -0.20747 0.77952
 N131 N 0.27652 0.20480 0.81015
 N132 N 0.26371 0.22990 0.82292
 C133 C 0.28149 0.23807 0.84770
 C134 C 0.30659 0.21690 0.85048
 C135 C 0.30274 0.19604 0.82642
 H136 H 0.27730 0.25846 0.86201
 H137 H 0.31857 0.17679 0.82043
 Cu138 Cu 0.22648 0.25055 0.80432
 Cu139 Cu 0.26017 0.18702 0.77166
 Cu140 Cu 0.19404 0.22427 0.73822
 N141 N 0.18935 0.27136 0.78570
 N142 N 0.17681 0.26090 0.75974
 C143 C 0.15278 0.28029 0.75072
 C144 C 0.15025 0.30415 0.77213
 C145 C 0.17366 0.29781 0.79407
 H146 H 0.13890 0.27785 0.72964
 H147 H 0.17947 0.31210 0.81393
 N148 N 0.21494 0.18690 0.72007
 N149 N 0.24011 0.17272 0.73275
 C150 C 0.24952 0.14896 0.71424
 C151 C 0.22936 0.14829 0.68882
 C152 C 0.20768 0.17250 0.69322
 H153 H 0.26988 0.13362 0.71848
 H154 H 0.18850 0.17947 0.67763
 H155 H 0.24054 0.22841 0.75391
 H156 H 0.21355 0.20224 0.77711
 N157 N 0.27362 -0.20938 0.19185
 N158 N 0.26108 -0.23459 0.17938
 C159 C 0.27883 -0.24298 0.15453
 C160 C 0.30357 -0.22181 0.15132
 C161 C 0.29955 -0.20077 0.17526
 H162 H 0.27480 -0.26345 0.14037
 H163 H 0.31512 -0.18147 0.18097
 Cu164 Cu 0.22413 -0.25489 0.19841
 Cu165 Cu 0.25739 -0.19128 0.23034
 Cu166 Cu 0.19176 -0.22765 0.26455
 N167 N 0.18705 -0.27499 0.21742
 N168 N 0.17459 -0.26418 0.24340
 C169 C 0.15051 -0.28308 0.25256
 C170 C 0.14783 -0.30694 0.23124
 C171 C 0.17125 -0.30115 0.20921
 H172 H 0.13662 -0.28024 0.27365
 H173 H 0.17689 -0.31558 0.18933
 N174 N 0.21256 -0.19043 0.28233
 N175 N 0.23755 -0.17658 0.26932
 C176 C 0.24695 -0.15277 0.28755
 C177 C 0.22696 -0.15168 0.31312
 C178 C 0.20541 -0.17573 0.30913
 H179 H 0.26718 -0.13766 0.28301
 H180 H 0.18637 -0.18237 0.32494
 H181 H 0.23821 -0.23237 0.24853
 H182 H 0.21088 -0.20620 0.22524
 N183 N 0.72510 0.21173 0.18633
 N184 N 0.74262 0.23128 0.16952
 C185 C 0.72610 0.24039 0.14392
 C186 C 0.69670 0.22586 0.14489
 C187 C 0.69682 0.20783 0.17200
 H188 H 0.73445 0.25710 0.12648
 H189 H 0.67740 0.19365 0.18099
 Cu190 Cu 0.78411 0.24528 0.18381
 Cu191 Cu 0.73976 0.19398 0.22613
 Cu192 Cu 0.80624 0.22890 0.25787
 N193 N 0.81645 0.26981 0.20474
 N194 N 0.82455 0.26378 0.23391
 C195 C 0.84569 0.28548 0.24316
 C196 C 0.85107 0.30608 0.21850
 C197 C 0.83225 0.29548 0.19443
 H198 H 0.85583 0.28672 0.26632
 H199 H 0.82947 0.30619 0.17150
 N200 N 0.78421 0.19319 0.27818
 N201 N 0.75872 0.17981 0.26614
 C202 C 0.74902 0.15639 0.28550
 C203 C 0.76952 0.15504 0.31072
 C204 C 0.79147 0.17861 0.30542
 H205 H 0.72860 0.14148 0.28164
 H206 H 0.81114 0.18470 0.32048
 H207 H 0.76269 0.23556 0.23554
 H208 H 0.78835 0.20203 0.22168
 C209 C 0.23659 0.01556 0.50011
 C210 C 0.23627 -0.01651 0.49990
 C211 C 0.23564 -0.03457 0.47046
 C212 C 0.23623 -0.03556 0.52919
 C213 C 0.23660 0.03357 0.52958
 C214 C 0.23655 0.03466 0.47084
 C215 C 0.21139 -0.05673 0.46600
 C216 C 0.21089 -0.07492 0.43917
 C217 C 0.23467 -0.07139 0.41634
 C218 C 0.25902 -0.04928 0.42068
 C219 C 0.25960 -0.03108 0.44766
 C220 C 0.21111 -0.03323 0.55081
 C221 C 0.21102 -0.05238 0.57769
 C222 C 0.23598 -0.07406 0.58323
 C223 C 0.26106 -0.07632 0.56158
 C224 C 0.26107 -0.05733 0.53470
 C225 C 0.26075 0.02926 0.55207
 C226 C 0.26057 0.04712 0.57928
 C227 C 0.23643 0.06971 0.58415
 C228 C 0.21251 0.07414 0.56159
 C229 C 0.21262 0.05629 0.53452
 C230 C 0.26157 0.05582 0.46517
 C231 C 0.26162 0.07479 0.43827
 C232 C 0.23645 0.07311 0.41676
 C233 C 0.21129 0.05209 0.42248
 C234 C 0.21130 0.03297 0.44938
 H235 H 0.19281 -0.05994 0.48338
 H236 H 0.19201 -0.09196 0.43625
 H237 H 0.27777 -0.04632 0.40349
 H238 H 0.27890 -0.01460 0.45094
 H239 H 0.19146 -0.01692 0.54666
 H240 H 0.19138 -0.05052 0.59407
 H241 H 0.28050 -0.05958 0.51812
 H242 H 0.27985 0.01233 0.54840
 H243 H 0.27941 0.04345 0.59627
 H244 H 0.19378 0.09155 0.56493
 H245 H 0.19392 0.06015 0.51737
 H246 H 0.28110 0.05759 0.48162
 H247 H 0.28118 0.09094 0.43459
 H248 H 0.19156 0.05070 0.40622
 H249 H 0.19152 0.01715 0.45366
 H250 H 0.28049 -0.09296 0.56514
 C251 C 0.76712 0.01677 0.50021
 C252 C 0.76593 -0.01526 0.50024
 C253 C 0.76709 -0.03444 0.52953
 C254 C 0.76446 -0.03323 0.47094
 C255 C 0.76774 0.03592 0.47088
 C256 C 0.76875 0.03465 0.52960
 C257 C 0.79116 -0.05743 0.53315
 C258 C 0.79235 -0.07658 0.55988
 C259 C 0.76935 -0.07323 0.58348
 C260 C 0.74525 -0.05021 0.57999
 C261 C 0.74402 -0.03099 0.55312
 C262 C 0.78944 -0.03206 0.44906
 C263 C 0.78846 -0.05087 0.42257
 C264 C 0.76256 -0.07104 0.41768
 C265 C 0.73750 -0.07196 0.43945
 C266 C 0.73855 -0.05331 0.46595
 C267 C 0.74323 0.03420 0.44857
 C268 C 0.74398 0.05346 0.42173
 C269 C 0.76902 0.07488 0.41700
 C270 C 0.79347 0.07650 0.43930
 C271 C 0.79277 0.05727 0.46599
 C272 C 0.74483 0.05697 0.53607
 C273 C 0.74658 0.07513 0.56286
 C274 C 0.77244 0.07150 0.58342
 C275 C 0.79638 0.04910 0.57708
 C276 C 0.79459 0.03082 0.55025
 H277 H 0.80912 -0.06052 0.51519
 H278 H 0.81120 -0.09408 0.56186
 H279 H 0.72723 -0.04738 0.59793
 H280 H 0.72495 -0.01373 0.55056
 H281 H 0.80990 -0.01709 0.45283
 H282 H 0.80810 -0.05007 0.40608
 H283 H 0.71921 -0.05466 0.48275
 H284 H 0.72339 0.01829 0.45215
 H285 H 0.72485 0.05197 0.40480
 H286 H 0.81311 0.09269 0.43633
 H287 H 0.81186 0.05903 0.48293
 H288 H 0.72485 0.06037 0.52026
 H289 H 0.72796 0.09237 0.56738
 H290 H 0.81662 0.04597 0.59254
 H291 H 0.81354 0.01406 0.54533
 H292 H 0.71734 -0.08740 0.43635
 C293 C 0.50251 0.23849 0.01335
 C294 C 0.50000 0.23673 -0.01820
 C295 C 0.46863 0.23417 -0.03410
 C296 C 0.52860 0.23545 -0.03869
 C297 C 0.53398 0.23901 0.02922
 C298 C 0.47404 0.23768 0.03402
 C299 C 0.44857 0.20828 -0.02845
 C300 C 0.42043 0.20487 -0.04568
 C301 C 0.41208 0.22726 -0.06881
 C302 C 0.43183 0.25339 -0.07399
 C303 C 0.45998 0.25671 -0.05692
 C304 C 0.53226 0.21011 -0.05907
 C305 C 0.55846 0.20860 -0.07917
 C306 C 0.58144 0.23250 -0.07932
 C307 C 0.57788 0.25789 -0.05895
 C308 C 0.55153 0.25947 -0.03885
 C309 C 0.54228 0.26510 0.04713
 C310 C 0.57068 0.26487 0.06432
 C311 C 0.59089 0.23831 0.06420
 C312 C 0.58265 0.21227 0.04615
 C313 C 0.55446 0.21267 0.02863
 C314 C 0.44925 0.26005 0.03100
 C315 C 0.42267 0.25859 0.05083
 C316 C 0.42065 0.23490 0.07398
 C317 C 0.44557 0.21276 0.07712
 C318 C 0.47205 0.21420 0.05737
 H319 H 0.45514 0.19036 -0.01129
 H320 H 0.40560 0.18449 -0.04131
 H321 H 0.42577 0.27085 -0.09178
 H322 H 0.47528 0.27670 -0.06175
 H323 H 0.51480 0.19139 -0.05935
 H324 H 0.56058 0.18874 -0.09455
 H325 H 0.54884 0.27952 -0.02370
 H326 H 0.52652 0.28546 0.04810
 H327 H 0.57626 0.28505 0.07839
 H328 H 0.59776 0.19142 0.04614
 H329 H 0.54811 0.19213 0.01536
 H330 H 0.45054 0.27860 0.01340
 H331 H 0.40369 0.27595 0.04820
 H332 H 0.44476 0.19432 0.09480
 H333 H 0.49093 0.19674 0.06011
 H334 H 0.59534 0.27661 -0.05888
 C335 C 0.49754 0.76337 0.01924
 C336 C 0.49995 0.76244 -0.01242
 C337 C 0.47125 0.76123 -0.03277
 C338 C 0.53123 0.76431 -0.02875
 C339 C 0.52617 0.76471 0.03970
 C340 C 0.46606 0.76473 0.03525
 C341 C 0.44839 0.73733 -0.02920
 C342 C 0.42165 0.73669 -0.04879
 C343 C 0.41765 0.75977 -0.07233
 C344 C 0.44069 0.78334 -0.07612
 C345 C 0.46727 0.78404 -0.05655
 C346 C 0.53992 0.74070 -0.04975
 C347 C 0.56791 0.74337 -0.06734
 C348 C 0.58745 0.76988 -0.06452
 C349 C 0.57907 0.79335 -0.04319
 C350 C 0.55108 0.79061 -0.02545
 C351 C 0.52810 0.78846 0.06205
 C352 C 0.55437 0.78996 0.08197
 C353 C 0.57920 0.76767 0.07997
 C354 C 0.57736 0.74383 0.05772
 C355 C 0.55090 0.74219 0.03786
 C356 C 0.44467 0.78987 0.02960
 C357 C 0.41631 0.79226 0.04679
 C358 C 0.40908 0.76961 0.06992
 C359 C 0.43016 0.74419 0.07510
 C360 C 0.45853 0.74187 0.05805
 H361 H 0.45133 0.71916 -0.01137
 H362 H 0.40426 0.71817 -0.04559
 H363 H 0.43800 0.80125 -0.09424
 H364 H 0.48468 0.80259 -0.05979
 H365 H 0.52477 0.72038 -0.05279
 H366 H 0.57401 0.72508 -0.08372
 H367 H 0.54445 0.80937 -0.00978
 H368 H 0.50924 0.80599 0.06398
 H369 H 0.55514 0.80863 0.09883
 H370 H 0.59628 0.72637 0.05596
 H371 H 0.54961 0.72326 0.02126
 H372 H 0.45034 0.80803 0.01247
 H373 H 0.40047 0.81211 0.04239
 H374 H 0.42496 0.72653 0.09290
 H375 H 0.47486 0.72245 0.06287
 H376 H 0.59370 0.81406 -0.04067
 C377 C 0.01264 0.50164 0.23440
 C378 C -0.01992 0.50101 0.23360
 C379 C -0.03803 0.47116 0.23022
 C380 C -0.03930 0.53040 0.23540
 C381 C 0.03066 0.53165 0.23565
 C382 C 0.03238 0.47247 0.23312
 C383 C -0.03139 0.45021 0.20589
 C384 C -0.04888 0.42243 0.20303
 C385 C -0.07376 0.41553 0.22400
 C386 C -0.08096 0.43681 0.24775
 C387 C -0.06323 0.46435 0.25087
 C388 C -0.06127 0.53762 0.21159
 C389 C -0.07997 0.56492 0.21289
 C390 C -0.07719 0.58536 0.23810
 C391 C -0.05540 0.57818 0.26211
 C392 C -0.03662 0.55077 0.26082
 C393 C 0.05315 0.53586 0.25947
 C394 C 0.07184 0.56297 0.26001
 C395 C 0.06855 0.58623 0.23656
 C396 C 0.04603 0.58211 0.21274
 C397 C 0.02725 0.55497 0.21221
 C398 C 0.02912 0.44812 0.25547
 C399 C 0.04874 0.42129 0.25412
 C400 C 0.07195 0.41860 0.23060
 C401 C 0.07509 0.44294 0.20829
 C402 C 0.05557 0.46967 0.20963
 H403 H -0.01281 0.45543 0.18903
 H404 H -0.04313 0.40660 0.18426
 H405 H -0.10027 0.43200 0.26397
 H406 H -0.06910 0.48034 0.26952
 H407 H -0.06376 0.52216 0.19187
 H408 H -0.09673 0.57013 0.19422
 H409 H -0.02015 0.54532 0.27967
 H410 H 0.05639 0.51797 0.27754
 H411 H 0.08916 0.56539 0.27852
 H412 H 0.04336 0.59973 0.19434
 H413 H 0.01054 0.55186 0.19324
 H414 H 0.01165 0.45006 0.27404
 H415 H 0.04608 0.40274 0.27158
 H416 H 0.09274 0.44156 0.18991
 H417 H 0.05848 0.48825 0.19224
 H418 H -0.05297 0.59357 0.28185
 C419 C 0.01681 0.49906 0.76657
 C420 C -0.01573 0.50015 0.76650
 C421 C -0.03523 0.47113 0.76496
 C422 C -0.03379 0.53038 0.76854
 C423 C 0.03633 0.52809 0.76763
 C424 C 0.03493 0.46879 0.76616
 C425 C -0.03164 0.44982 0.74039
 C426 C -0.05072 0.42291 0.73919
 C427 C -0.07379 0.41721 0.76237
 C428 C -0.07753 0.43863 0.78669
 C429 C -0.05846 0.46539 0.78796
 C430 C -0.05669 0.53807 0.74570
 C431 C -0.07483 0.56574 0.74783
 C432 C -0.07056 0.58605 0.77295
 C433 C -0.04766 0.57844 0.79585
 C434 C -0.02949 0.55071 0.79374
 C435 C 0.05902 0.53122 0.79143
 C436 C 0.07822 0.55790 0.79259
 C437 C 0.07520 0.58185 0.76981
 C438 C 0.05256 0.57877 0.74591
 C439 C 0.03330 0.55200 0.74473
 C440 C 0.03114 0.44589 0.78990
 C441 C 0.04974 0.41831 0.78990
 C442 C 0.07241 0.41329 0.76627
 C443 C 0.07609 0.43616 0.74254
 C444 C 0.05762 0.46372 0.74259
 H445 H -0.01428 0.45415 0.72208
 H446 H -0.04757 0.40679 0.72010
 H447 H -0.09530 0.43460 0.80470
 H448 H -0.06171 0.48162 0.80700
 H449 H -0.06055 0.52257 0.72622
 H450 H -0.09250 0.57118 0.73003
 H451 H -0.01240 0.54488 0.81196
 H452 H 0.06176 0.51297 0.80923
 H453 H 0.09550 0.55956 0.81122
 H454 H 0.05004 0.59699 0.72806
 H455 H 0.01628 0.54978 0.72588
 H456 H 0.01418 0.44963 0.80863
 H457 H 0.04673 0.40100 0.80851
 H458 H 0.09348 0.43306 0.72414
 H459 H 0.06107 0.48123 0.72424
 H460 H -0.04405 0.59363 0.81557
 C461 C 0.38613 0.20877 0.12125
 C462 C 0.37644 0.23550 0.14358
 C463 C 0.34171 0.23284 0.13235
 C464 C 0.35106 0.20615 0.11021
 C465 C 0.34755 0.25771 0.10650
 C466 C 0.38269 0.26035 0.11746
 C467 C 0.39214 0.23362 0.09531
 C468 C 0.35733 0.23100 0.08407
 H469 H 0.40151 0.18832 0.12792
 H470 H 0.38406 0.23741 0.16829
 H471 H 0.33771 0.18386 0.10737
 H472 H 0.33146 0.27786 0.10054
 H473 H 0.39601 0.28265 0.12034
 H474 H 0.34975 0.22908 0.05935
 C475 C 0.64205 0.77470 0.09046
 C476 C 0.64668 0.79783 0.11769
 C477 C 0.65774 0.77010 0.13858
 C478 C 0.65359 0.74693 0.11165
 C479 C 0.62330 0.76434 0.14964
 C480 C 0.61187 0.79212 0.12853
 C481 C 0.60750 0.76901 0.10149
 C482 C 0.61869 0.74123 0.12242
 H483 H 0.64943 0.77904 0.06589
 H484 H 0.65852 0.82112 0.11588
 H485 H 0.67091 0.72833 0.10478
 H486 H 0.61583 0.75997 0.17420
 H487 H 0.59513 0.81090 0.13613
 H488 H 0.60684 0.71794 0.12420
 C489 C 0.64457 0.22964 -0.09081
 C490 C 0.65118 0.20455 -0.11598
 C491 C 0.65892 0.23109 -0.13954
 C492 C 0.65273 0.25620 -0.11467
 C493 C 0.62384 0.23283 -0.15004
 C494 C 0.61574 0.20625 -0.12627
 C495 C 0.60941 0.23135 -0.10132
 C496 C 0.61726 0.25791 -0.12492
 H497 H 0.65281 0.22828 -0.06621
 H498 H 0.66546 0.18261 -0.11245
 H499 H 0.66814 0.27677 -0.10995
 H500 H 0.61560 0.23418 -0.17465
 H501 H 0.60093 0.18544 -0.13164
 H502 H 0.60305 0.27989 -0.12848
 C503 C 0.36646 0.78834 -0.09718
 C504 C 0.36941 0.78627 -0.13307
 C505 C 0.34099 0.76351 -0.13321
 C506 C 0.33770 0.76558 -0.09757
 C507 C 0.36366 0.73496 -0.12981
 C508 C 0.39242 0.75773 -0.12941
 C509 C 0.38926 0.75985 -0.09372
 C510 C 0.36080 0.73701 -0.09382
 H511 H 0.36779 0.81032 -0.08351
 H512 H 0.37298 0.80662 -0.14926
 H513 H 0.31488 0.76890 -0.08473
 H514 H 0.36222 0.71303 -0.14352
 H515 H 0.41517 0.75441 -0.14237
 H516 H 0.35700 0.71663 -0.07773
 C517 C 0.08213 0.35598 0.22742
 C518 C 0.10903 0.34957 0.20337
 C519 C 0.13159 0.34025 0.23028
 C520 C 0.10501 0.34621 0.25437
 C521 C 0.14309 0.37441 0.23283
 C522 C 0.12033 0.38407 0.20586
 C523 C 0.09365 0.39022 0.22990
 C524 C 0.11623 0.38079 0.25687
 H525 H 0.05681 0.34868 0.22516
 H526 H 0.10624 0.33639 0.18138
 H527 H 0.09889 0.33042 0.27437
 H528 H 0.16840 0.38173 0.23514
 H529 H 0.12727 0.39913 0.18559
 H530 H 0.11903 0.39393 0.27889
 C531 C 0.08403 0.64453 0.77219
 C532 C 0.11031 0.65149 0.79657
 C533 C 0.13317 0.66048 0.76986
 C534 C 0.10720 0.65401 0.74545
 C535 C 0.14550 0.62635 0.76806
 C536 C 0.12242 0.61699 0.79481
 C537 C 0.09634 0.61031 0.77044
 C538 C 0.11925 0.61944 0.74370
 H539 H 0.05852 0.65174 0.77396
 H540 H 0.10679 0.66497 0.81833
 H541 H 0.10099 0.66937 0.72509
 H542 H 0.17101 0.61909 0.76631
 H543 H 0.12924 0.60225 0.81540
 H544 H 0.12280 0.60596 0.72195
 C545 C -0.09768 0.63959 0.21260
 C546 C -0.13460 0.63819 0.21118
 C547 C -0.13641 0.66386 0.23608
 C548 C -0.09975 0.66563 0.23749
 C549 C -0.13672 0.63880 0.26238
 C550 C -0.13464 0.61279 0.23747
 C551 C -0.09792 0.61437 0.23881
 C552 C -0.09971 0.64007 0.26378
 H553 H -0.08132 0.63969 0.19218
 H554 H -0.14890 0.63727 0.18942
 H555 H -0.08561 0.68767 0.23742
 H556 H -0.15306 0.63868 0.28282
 H557 H -0.14882 0.59077 0.23756
 H558 H -0.08541 0.64103 0.28554
 C559 C -0.09705 0.36483 0.78884
 C560 C -0.13396 0.36715 0.78734
 C561 C -0.13397 0.34037 0.76357
 C562 C -0.09734 0.33767 0.76509
 C563 C -0.13188 0.36419 0.73627
 C564 C -0.13158 0.39132 0.76004
 C565 C -0.09489 0.38880 0.76159
 C566 C -0.09489 0.36196 0.73778
 H567 H -0.08246 0.36533 0.81046
 H568 H -0.15001 0.36938 0.80786
 H569 H -0.08347 0.31532 0.76727
 H570 H -0.14651 0.36365 0.71468
 H571 H -0.14553 0.41363 0.75789
 H572 H -0.07889 0.35959 0.71726
 C573 C 0.26196 0.11728 0.37763
 C574 C 0.25850 0.10551 0.34380
 C575 C 0.23241 0.13062 0.33790
 C576 C 0.23583 0.14261 0.37138
 C577 C 0.20625 0.10747 0.34831
 C578 C 0.23236 0.08205 0.35463
 C579 C 0.23579 0.09404 0.38817
 C580 C 0.20970 0.11919 0.38216
 H581 H 0.28515 0.12177 0.38924
 H582 H 0.27859 0.09991 0.32781
 H583 H 0.23721 0.16775 0.37804
 H584 H 0.18332 0.10364 0.33596
 H585 H 0.23098 0.05691 0.34799
 H586 H 0.18965 0.12475 0.39822
 C587 C 0.74868 0.09393 0.63688
 C588 C 0.77538 0.09542 0.66186
 C589 C 0.77519 0.13155 0.65848
 C590 C 0.74852 0.13033 0.63390
 C591 C 0.80097 0.13007 0.63291
 C592 C 0.80115 0.09363 0.63590
 C593 C 0.77443 0.09244 0.61125
 C594 C 0.77428 0.12863 0.60803
 H595 H 0.72717 0.07879 0.63828
 H596 H 0.77580 0.08197 0.68429
 H597 H 0.72686 0.14563 0.63334
 H598 H 0.82258 0.14503 0.63136
 H599 H 0.82299 0.07862 0.63700
 H600 H 0.77388 0.14220 0.58566
 C601 C 0.23198 -0.08328 0.64536
 C602 C 0.20556 -0.10801 0.65164
 C603 C 0.23145 -0.13197 0.66175
 C604 C 0.25784 -0.10754 0.65588
 C605 C 0.23460 -0.14380 0.62817
 C606 C 0.20875 -0.11958 0.61769
 C607 C 0.23514 -0.09513 0.61171
 C608 C 0.26104 -0.11918 0.62196
 H609 H 0.23097 -0.05815 0.65216
 H610 H 0.18274 -0.10361 0.66416
 H611 H 0.27804 -0.10257 0.67181
 H612 H 0.23560 -0.16895 0.62139
 H613 H 0.18858 -0.12443 0.60168
 H614 H 0.28413 -0.12424 0.61022
 C615 C 0.78808 -0.11777 0.38462
 C616 C 0.76148 -0.14078 0.37491
 C617 C 0.76492 -0.12905 0.34098
 C618 C 0.79155 -0.10631 0.35032
 C619 C 0.73931 -0.10346 0.34611
 C620 C 0.73584 -0.11496 0.38041
 C621 C 0.76248 -0.09211 0.38986
 C622 C 0.76593 -0.08040 0.35585
 H623 H 0.80811 -0.12356 0.40075
 H624 H 0.75968 -0.16587 0.38245
 H625 H 0.81447 -0.10305 0.33763
 H626 H 0.71923 -0.09767 0.33004
 H627 H 0.71265 -0.11895 0.39239
 H628 H 0.76772 -0.05534 0.34822
 C629 C 0.64401 0.74939 -0.08649
 C630 C 0.64135 0.74897 -0.12250
 C631 C 0.66478 0.77667 -0.12463
 C632 C 0.66784 0.77713 -0.08889
 C633 C 0.63694 0.80054 -0.12363
 C634 C 0.61321 0.77281 -0.12127
 C635 C 0.61612 0.77325 -0.08546
 C636 C 0.63961 0.80100 -0.08758
 H637 H 0.64670 0.72833 -0.07097
 H638 H 0.64229 0.72758 -0.13708
 H639 H 0.69063 0.77888 -0.07579
 H640 H 0.63405 0.82165 -0.13904
 H641 H 0.59049 0.77101 -0.13449
 H642 H 0.63923 0.82260 -0.07331
 C643 C 0.35536 0.24704 -0.09135
 C644 C 0.35764 0.24618 -0.12737
 C645 C 0.33408 0.21855 -0.12737
 C646 C 0.33141 0.21935 -0.09161
 C647 C 0.36183 0.19461 -0.12518
 C648 C 0.38569 0.22229 -0.12494
 C649 C 0.38318 0.22314 -0.08911
 C650 C 0.35957 0.19544 -0.08910
 H651 H 0.35287 0.26865 -0.07723
 H652 H 0.35664 0.26701 -0.14336
 H653 H 0.30873 0.21812 -0.07818
 H654 H 0.36446 0.17300 -0.13925
 H655 H 0.40827 0.22352 -0.13854
 H656 H 0.36006 0.17436 -0.07342
 C657 C 0.38268 0.77436 0.12613
 C658 C 0.35756 0.80131 0.12613
 C659 C 0.33094 0.77661 0.12891
 C660 C 0.35577 0.74969 0.12914
 C661 C 0.32814 0.77518 0.09319
 C662 C 0.35515 0.79988 0.09011
 C663 C 0.38005 0.77290 0.09035
 C664 C 0.35339 0.74821 0.09315
 H665 H 0.40536 0.77404 0.13958
 H666 H 0.35929 0.82324 0.13980
 H667 H 0.35582 0.72908 0.14543
 H668 H 0.30538 0.77550 0.07987
 H669 H 0.35455 0.82073 0.07415
 H670 H 0.35189 0.72633 0.07936
 C671 C 0.65285 0.22362 0.07515
 C672 C 0.66899 0.25082 0.09284
 C673 C 0.66945 0.23008 0.12262
 C674 C 0.65372 0.20288 0.10521
 C675 C 0.63655 0.24300 0.13237
 C676 C 0.63567 0.26376 0.10235
 C677 C 0.61986 0.23649 0.08492
 C678 C 0.62050 0.21580 0.11474
 H679 H 0.65934 0.21570 0.05139
 H680 H 0.68918 0.26519 0.08390
 H681 H 0.66137 0.17779 0.10661
 H682 H 0.63012 0.25098 0.15612
 H683 H 0.62857 0.28901 0.10121
 H684 H 0.60027 0.20149 0.12368
 C685 C -0.09341 0.64106 0.75000
 C686 C -0.13036 0.63954 0.75155
 C687 C -0.13013 0.66430 0.77736
 C688 C -0.09348 0.66626 0.77581
 C689 C -0.12812 0.63832 0.80274
 C690 C -0.12808 0.61322 0.77690
 C691 C -0.09135 0.61499 0.77535
 C692 C -0.09115 0.63986 0.80118
 H693 H -0.07892 0.64199 0.72828
 H694 H -0.14671 0.63962 0.73115
 H695 H -0.07945 0.68837 0.77536
 H696 H -0.14246 0.63711 0.82454
 H697 H -0.14218 0.59115 0.77732
 H698 H -0.07509 0.64036 0.82177
 C699 C -0.09848 0.36276 0.24879
 C700 C -0.13459 0.36249 0.24101
 C701 C -0.12864 0.33491 0.21883
 C702 C -0.09277 0.33483 0.22659
 C703 C -0.12322 0.35794 0.19130
 C704 C -0.12892 0.38589 0.21353
 C705 C -0.09300 0.38590 0.22130
 C706 C -0.08705 0.35824 0.19907
 H707 H -0.08821 0.36492 0.27252
 H708 H -0.15439 0.36395 0.25820
 H709 H -0.07810 0.31353 0.23201
 H710 H -0.13349 0.35580 0.16757
 H711 H -0.14366 0.40714 0.20810
 H712 H -0.06747 0.35611 0.18173
 C713 C 0.08007 0.35017 0.76835
 C714 C 0.10535 0.34040 0.74379
 C715 C 0.12900 0.33265 0.77033
 C716 C 0.10401 0.34200 0.79492
 C717 C 0.14194 0.36645 0.76906
 C718 C 0.11811 0.37455 0.74247
 C719 C 0.09303 0.38405 0.76705
 C720 C 0.11669 0.37619 0.79361
 H721 H 0.05441 0.34369 0.76800
 H722 H 0.10069 0.32553 0.72322
 H723 H 0.09842 0.32830 0.81651
 H724 H 0.16761 0.37291 0.76940
 H725 H 0.12442 0.38744 0.72062
 H726 H 0.12128 0.39117 0.81412
 C727 C 0.07709 0.64909 0.23504
 C728 C 0.10250 0.65797 0.25961
 C729 C 0.12625 0.66516 0.23306
 C730 C 0.10114 0.65670 0.20847
 C731 C 0.13872 0.63098 0.23414
 C732 C 0.11476 0.62344 0.26072
 C733 C 0.08956 0.61485 0.23611
 C734 C 0.11334 0.62215 0.20957
 H735 H 0.05152 0.65631 0.23548
 H736 H 0.09806 0.67287 0.28026
 H737 H 0.09573 0.67066 0.18696
 H738 H 0.16429 0.62377 0.23371
 H739 H 0.12083 0.61021 0.28248
 H740 H 0.11768 0.60713 0.18898
 C741 C 0.77322 -0.08267 0.64568
 C742 C 0.74546 -0.10457 0.65578
 C743 C 0.76988 -0.13119 0.66227
 C744 C 0.79760 -0.10959 0.65259
 C745 C 0.76664 -0.14289 0.62868
 C746 C 0.74226 -0.11601 0.62177
 C747 C 0.77004 -0.09438 0.61200
 C748 C 0.79442 -0.12111 0.61867
 H749 H 0.77599 -0.05769 0.65246
 H750 H 0.72528 -0.09793 0.67126
 H751 H 0.82037 -0.10713 0.66559
 H752 H 0.76386 -0.16789 0.62194
 H753 H 0.71948 -0.11854 0.60880
 H754 H 0.81485 -0.12858 0.60391
 C755 C 0.23556 -0.12811 0.39036
 C756 C 0.20641 -0.13004 0.36831
 C757 C 0.22927 -0.12999 0.34018
 C758 C 0.25842 -0.12830 0.36191
 C759 C 0.22756 -0.09382 0.33775
 C760 C 0.20470 -0.09361 0.36622
 C761 C 0.23382 -0.09189 0.38806
 C762 C 0.25674 -0.09182 0.35989
 H763 H 0.23897 -0.14209 0.41225
 H764 H 0.18564 -0.14584 0.37180
 H765 H 0.28049 -0.14285 0.35989
 H766 H 0.22419 -0.07995 0.31579
 H767 H 0.18259 -0.07911 0.36816
 H768 H 0.27757 -0.07616 0.35614
 C769 C 0.79424 0.12171 0.38107
 C770 C 0.79584 0.11020 0.34704
 C771 C 0.76853 0.13314 0.33838
 C772 C 0.76686 0.14482 0.37211
 C773 C 0.74350 0.10766 0.34564
 C774 C 0.77086 0.08442 0.35473
 C775 C 0.76926 0.09613 0.38852
 C776 C 0.74188 0.11908 0.37978
 H777 H 0.81539 0.12819 0.39512
 H778 H 0.81805 0.10662 0.33328
 H779 H 0.76518 0.16990 0.37901
 H780 H 0.72263 0.10199 0.33082
 H781 H 0.77254 0.05934 0.34783
 H782 H 0.71965 0.12265 0.39352
 C783 C 0.20695 0.09140 0.63498
 C784 C 0.23005 0.09080 0.66322
 C785 C 0.23164 0.12697 0.66142
 C786 C 0.20854 0.12782 0.63350
 C787 C 0.26060 0.12532 0.63935
 C788 C 0.25905 0.08883 0.64074
 C789 C 0.23587 0.08970 0.61280
 C790 C 0.23751 0.12592 0.61112
 H791 H 0.18486 0.07723 0.63299
 H792 H 0.22691 0.07654 0.68495
 H793 H 0.18769 0.14393 0.63047
 H794 H 0.28265 0.13955 0.64137
 H795 H 0.27998 0.07287 0.64396
 H796 H 0.24070 0.14023 0.58943
   
