data_POSCAR
  _audit_creation_date              2014-09-24
  _audit_creation_method            'ToBaCCo'
  _symmetry_space_group_name_H-M    'P1'
  _symmetry_Int_Tables_number       1
  _symmetry_cell_setting            triclinic
  loop_
  _symmetry_equiv_pos_as_xyz
 x,y,z
_cell_length_a 13.3258
_cell_length_b 13.4019
_cell_length_c 13.3690
_cell_angle_alpha 93.097400
_cell_angle_beta 87.416400
_cell_angle_gamma 86.353000
loop_
  _atom_site_label
  _atom_site_type_symbol
  _atom_site_fract_x
  _atom_site_fract_y
  _atom_site_fract_z
C1 C 0.71349 0.57851 -0.00832
 C2 C 0.68117 0.68086 -0.00143
 C3 C 0.57849 0.71360 0.00560
 C4 C 0.50613 0.64048 0.01593
 C5 C 0.53622 0.53742 -0.00159
 C6 C 0.63958 0.50678 -0.01894
 C7 C 0.66482 0.40637 -0.05196
 C8 C 0.59313 0.33555 -0.05219
 C9 C 0.49272 0.36160 -0.01944
 C10 C 0.46262 0.46452 -0.00108
 C11 C 0.40589 0.66625 0.04995
 C12 C 0.33456 0.59523 0.05165
 C13 C 0.35942 0.49483 0.01851
 C14 C 0.28548 0.42270 0.01070
 C15 C 0.31843 0.32046 0.00445
 C16 C 0.42099 0.28855 -0.00744
 H17 H 0.73934 0.38142 -0.08195
 H18 H 0.61748 0.26094 -0.08175
 H19 H 0.38174 0.74059 0.08050
 H20 H 0.26085 0.62003 0.08390
 H21 H 0.73708 0.73619 -0.00131
 H22 H 0.26339 0.26437 0.00676
 C23 C -0.00810 0.71224 0.42004
 C24 C 0.00394 0.68063 0.31807
 C25 C 0.00998 0.57847 0.28603
 C26 C 0.01821 0.50623 0.36015
 C27 C -0.00204 0.53658 0.46268
 C28 C -0.02111 0.63936 0.49191
 C29 C -0.05492 0.66552 0.59168
 C30 C -0.05515 0.59457 0.66369
 C31 C -0.02216 0.49420 0.63901
 C32 C -0.00243 0.46387 0.53650
 C33 C 0.05202 0.40569 0.33614
 C34 C 0.05118 0.33478 0.40804
 C35 C 0.01752 0.36114 0.50762
 C36 C 0.00713 0.28846 0.58004
 C37 C -0.00216 0.32038 0.68190
 C38 C -0.01145 0.42249 0.71289
 H39 H -0.08471 0.74033 0.61521
 H40 H -0.08490 0.61931 0.73801
 H41 H 0.08395 0.38073 0.26268
 H42 H 0.08132 0.25994 0.38491
 H43 H 0.00655 0.73688 0.26289
 H44 H -0.00207 0.26484 0.73786
 C45 C 0.58093 0.00786 0.71417
 C46 C 0.68373 -0.00074 0.68286
 C47 C 0.71553 -0.00953 0.58060
 C48 C 0.64133 -0.02075 0.50804
 C49 C 0.53822 -0.00099 0.53708
 C50 C 0.50835 0.01860 0.63968
 C51 C 0.40783 0.05389 0.66361
 C52 C 0.33615 0.05447 0.59138
 C53 C 0.36159 0.02026 0.49170
 C54 C 0.46455 -0.00076 0.46301
 C55 C 0.66615 -0.05635 0.40829
 C56 C 0.59433 -0.05633 0.33619
 C57 C 0.49407 -0.02164 0.36054
 C58 C 0.42164 -0.01088 0.28636
 C59 C 0.31910 -0.00044 0.31721
 C60 C 0.28778 0.00975 0.41919
 H61 H 0.38354 0.08548 0.73742
 H62 H 0.26141 0.08565 0.61445
 H63 H 0.74046 -0.08850 0.38495
 H64 H 0.61819 -0.08763 0.26214
 H65 H 0.73996 -0.00052 0.73899
 H66 H 0.26288 -0.00042 0.26114
 O67 O 0.46524 -0.01772 -0.15516
 O68 O 0.38600 -0.02167 0.11209
 O69 O 0.38593 0.11530 -0.02269
 O70 O 0.46324 -0.15346 -0.02158
 O71 O 0.61619 -0.11870 0.01693
 O72 O 0.53833 0.15020 0.01834
 O73 O 0.53858 0.01530 0.15054
 O74 O 0.61803 0.01765 -0.11679
 Cu75 Cu 0.40993 -0.02296 -0.02606
 Cu76 Cu 0.59300 0.01974 0.02117
 C77 C 0.55370 0.00309 -0.18253
 C78 C 0.45034 -0.00627 0.17756
 C79 C 0.45008 0.17925 -0.00434
 C80 C 0.55155 -0.18280 0.00069
 O81 O -0.11791 0.61535 0.98211
 O82 O 0.15160 0.53786 0.98580
 O83 O 0.01736 0.53817 0.84981
 O84 O 0.01812 0.61652 1.11791
 O85 O -0.01576 0.46388 1.15373
 O86 O -0.02244 0.38704 0.88618
 O87 O 0.11673 0.38504 1.01984
 O88 O -0.15336 0.46364 1.01999
 Cu89 Cu 0.02099 0.59209 0.97998
 Cu90 Cu -0.02233 0.40978 1.02403
 C91 C -0.18253 0.55137 0.99757
 C92 C 0.18119 0.44957 1.00599
 C93 C -0.00595 0.45096 0.82170
 C94 C 0.00468 0.55188 1.18250
 O95 O -0.02108 -0.11429 0.38480
 O96 O -0.02394 0.15264 0.46501
 O97 O 0.11261 0.02329 0.38488
 O98 O -0.15445 0.01667 0.46496
 O99 O -0.11459 -0.01802 0.61750
 O100 O 0.15291 -0.02006 0.53511
 O101 O 0.02291 0.11515 0.61500
 O102 O 0.01914 -0.15174 0.53677
 Cu103 Cu -0.02582 0.02352 0.40968
 Cu104 Cu 0.02407 -0.02259 0.59138
 C105 C -0.00364 -0.17917 0.44875
 C106 C 0.00237 0.17997 0.55184
 C107 C 0.17895 0.00471 0.44785
 C108 C -0.18106 -0.00405 0.55345
   
