data_POSCAR
  _audit_creation_date              2014-09-24
  _audit_creation_method            'ToBaCCo'
  _symmetry_space_group_name_H-M    'P1'
  _symmetry_Int_Tables_number       1
  _symmetry_cell_setting            triclinic
  loop_
  _symmetry_equiv_pos_as_xyz
 x,y,z
_cell_length_a 15.2339
_cell_length_b 16.3356
_cell_length_c 16.3061
_cell_angle_alpha 90.022700
_cell_angle_beta 90.375200
_cell_angle_gamma 89.343000
loop_
  _atom_site_label
  _atom_site_type_symbol
  _atom_site_fract_x
  _atom_site_fract_y
  _atom_site_fract_z
C1 C 0.22676 0.88806 -0.47761
 C2 C 0.22622 0.90633 -0.55972
 C3 C 0.30897 0.93616 -0.57799
 N4 N 0.35963 0.93576 -0.50968
 C5 C 0.31008 0.90571 -0.44852
 C6 C 0.33193 0.97598 -0.65185
 C7 C 0.41786 1.00701 -0.66404
 C8 C 0.44231 1.06708 -0.71959
 C9 C 0.53203 1.07222 -0.71603
 C10 C 0.56145 1.01210 -0.66231
 N11 N 0.49140 0.97408 -0.62947
 C12 C 0.65094 0.99005 -0.64805
 C13 C 0.67751 0.94742 -0.57671
 C14 C 0.76012 0.91263 -0.56283
 C15 C 0.76083 0.88525 -0.48362
 C16 C 0.67829 0.90234 -0.45267
 N17 N 0.62750 0.94027 -0.50933
 C18 C 0.65555 0.89502 -0.37010
 C19 C 0.56808 0.89552 -0.34195
 C20 C 0.54402 0.89551 -0.26015
 C21 C 0.45402 0.89748 -0.25868
 C22 C 0.42525 0.89973 -0.33973
 N23 N 0.49544 0.89469 -0.38991
 C24 C 0.33614 0.90370 -0.36534
 H25 H 0.17148 0.86573 -0.44330
 H26 H 0.16950 0.90250 -0.59978
 H27 H 0.49421 0.88692 -0.45305
 H28 H 0.40232 1.10413 -0.75994
 H29 H 0.57100 1.11472 -0.75082
 H30 H 0.81484 0.90794 -0.60459
 H31 H 0.81606 0.85706 -0.45197
 H32 H 0.41491 0.89603 -0.20362
 H33 H 0.49398 0.92107 -0.59400
 H34 H 0.58670 0.89347 -0.20684
 C35 C -0.75957 1.54579 0.13133
 C36 C -0.76382 1.46722 0.10250
 C37 C -0.69127 1.45572 0.05249
 N38 N -0.64243 1.52380 0.05110
 C39 C -0.68405 1.57882 0.09912
 C40 C -0.67434 1.38678 0.00304
 C41 C -0.58859 1.37258 -0.02951
 C42 C -0.56810 1.32547 -0.09787
 C43 C -0.47784 1.32505 -0.10508
 C44 C -0.44542 1.37315 -0.04204
 N45 N -0.51325 1.40228 0.00325
 C46 C -0.35504 1.38618 -0.02483
 C47 C -0.32591 1.45327 0.02182
 C48 C -0.24044 1.46441 0.04944
 C49 C -0.23747 1.54156 0.08209
 C50 C -0.32146 1.57424 0.07461
 N51 N -0.37531 1.52029 0.03775
 C52 C -0.34407 1.65637 0.08991
 C53 C -0.43175 1.68509 0.09686
 C54 C -0.45680 1.76652 0.10567
 C55 C -0.54694 1.76850 0.10750
 C56 C -0.57486 1.68826 0.09883
 N57 N -0.50388 1.63780 0.09696
 C58 C -0.66355 1.66209 0.09850
 H59 H -0.80668 1.57569 0.17080
 H60 H -0.81482 1.42395 0.11625
 H61 H -0.50451 1.57433 0.09937
 H62 H -0.61329 1.29514 -0.13900
 H63 H -0.44041 1.29366 -0.15196
 H64 H -0.18525 1.42237 0.04503
 H65 H -0.17971 1.57077 0.10699
 H66 H -0.58676 1.82295 0.11677
 H67 H -0.50783 1.43381 0.05860
 H68 H -0.41476 1.81921 0.11134
 C69 C 0.02482 0.55272 0.23033
 C70 C 0.02651 0.46916 0.23080
 C71 C 0.01455 0.44384 0.31132
 N72 N 0.01057 0.51120 0.36044
 C73 C 0.01696 0.57790 0.31095
 C74 C 0.01761 0.36032 0.33900
 C75 C 0.03373 0.34046 0.42384
 C76 C 0.07208 0.26756 0.45121
 C77 C 0.07278 0.26939 0.53513
 C78 C 0.03365 0.34235 0.55902
 N79 N 0.01231 0.38678 0.49070
 C80 C 0.02675 0.36796 0.64271
 C81 C 0.03997 0.45138 0.66496
 C82 C 0.07706 0.47674 0.73869
 C83 C 0.08123 0.56006 0.73611
 C84 C 0.04480 0.58456 0.66191
 N85 N 0.02176 0.51766 0.61738
 C86 C 0.03542 0.66776 0.63645
 C87 C 0.02275 0.69074 0.55285
 C88 C 0.00796 0.77064 0.52665
 C89 C 0.00616 0.76951 0.44325
 C90 C 0.01454 0.68837 0.41879
 N91 N 0.02623 0.64072 0.48634
 C92 C 0.01575 0.66170 0.33569
 H93 H 0.03201 0.59025 0.17620
 H94 H 0.04177 0.43291 0.17740
 H95 H 0.04272 0.57895 0.48656
 H96 H 0.10169 0.21885 0.41571
 H97 H 0.10413 0.22379 0.57388
 H98 H 0.10440 0.43970 0.78773
 H99 H 0.11145 0.59779 0.78269
 H100 H 0.00125 0.82433 0.40674
 H101 H -0.02206 0.44223 0.49021
 H102 H 0.00021 0.82573 0.56274
 O103 O -0.22874 0.99945 -0.13432
 O104 O 0.21904 0.99995 -0.11347
 O105 O -0.00574 1.09765 -0.23778
 O106 O 0.00693 0.87526 -0.20870
 O107 O 0.00234 0.78860 -0.09696
 O108 O -0.01105 1.20971 -0.15103
 O109 O 0.11783 0.98246 -0.21770
 O110 O -0.11824 0.98297 -0.22906
 Zr111 Zr -0.00315 0.99478 -0.15776
 O112 O 0.07510 0.93086 -0.07551
 O113 O -0.08719 1.07712 -0.10155
 C114 C -0.19990 0.98752 -0.20762
 C115 C 0.19716 0.98573 -0.18910
 C116 C -0.00815 1.17614 -0.22357
 C117 C 0.00738 0.80295 -0.17494
 H118 H 0.10852 1.10898 -0.13049
 O119 O 0.06969 1.07877 -0.09308
 H120 H -0.11798 0.88819 -0.11365
 O121 O -0.08278 0.92815 -0.08239
 O122 O 0.20732 1.03382 0.10622
 O123 O -0.24120 1.01613 0.08194
 O124 O 0.10740 1.22321 -0.03066
 O125 O 0.11699 0.80749 0.01856
 O126 O -0.12342 0.80370 0.01457
 O127 O -0.13741 1.21938 -0.04636
 O128 O -0.02125 1.14827 0.18356
 O129 O -0.02656 0.92496 0.20708
 O130 O -0.02049 1.23630 0.07242
 O131 O -0.01157 0.81447 0.11956
 O132 O 0.21370 1.12230 -0.01641
 O133 O -0.23879 1.11576 -0.03859
 O134 O -0.23154 0.90091 -0.00990
 O135 O 0.21894 0.91004 0.00740
 O136 O 0.09612 1.04145 0.20169
 O137 O -0.14189 1.03068 0.18803
 Zr138 Zr 0.14206 1.01553 -0.00701
 Zr139 Zr -0.16206 1.01021 -0.02220
 Zr140 Zr -0.01384 1.15767 -0.03172
 Zr141 Zr -0.00534 0.86935 0.00365
 Zr142 Zr -0.01837 1.03002 0.12964
 O143 O -0.09045 0.94670 0.06430
 O144 O 0.06259 1.09733 0.05460
 C145 C 0.17787 1.04188 0.18027
 C146 C -0.22077 1.02193 0.15860
 C147 C 0.18880 1.19740 -0.02418
 C148 C 0.19679 0.83495 0.01800
 C149 C -0.20465 0.82763 0.00744
 C150 C -0.21750 1.19160 -0.04569
 C151 C -0.02161 1.22099 0.15091
 C152 C -0.02264 0.84671 0.19123
 H153 H -0.13511 1.13125 0.07591
 O154 O -0.09439 1.09409 0.04658
 H155 H 0.10279 0.92030 0.11398
 O156 O 0.06658 0.94980 0.07278
 C157 C 0.26836 0.97912 0.28513
 C158 C 0.24315 1.04719 0.24577
 H159 H 0.23153 0.92389 0.27284
 H160 H 0.26508 1.10702 0.26458
 C161 C -0.28257 1.01198 0.29652
 C162 C -0.29428 1.01450 0.21533
 H163 H -0.21617 1.01815 0.31960
 H164 H -0.35753 1.00060 0.18837
 C165 C -0.27267 0.90506 -0.31030
 C166 C -0.26649 0.97580 -0.27010
 H167 H -0.22320 0.85734 -0.30295
 H168 H -0.31731 1.02239 -0.27683
 C169 C 0.26611 0.91306 -0.30309
 C170 C 0.26843 0.97321 -0.24732
 H171 H 0.20911 0.87417 -0.30664
 H172 H 0.32462 1.01307 -0.24298
 C173 C 0.25374 1.33492 -0.01362
 C174 C 0.26259 1.25460 -0.02465
 H175 H 0.18751 1.35877 -0.00685
 H176 H 0.32747 1.22682 -0.02288
 C177 C 0.26560 0.71698 0.08604
 C178 C 0.27002 0.77867 0.03256
 H179 H 0.20146 0.70256 0.11005
 H180 H 0.32998 0.79093 -0.00031
 C181 C -0.27276 0.71627 0.08250
 C182 C -0.27317 0.76764 0.01892
 H183 H -0.21753 0.71397 0.12471
 H184 H -0.32905 0.76984 -0.02260
 C185 C -0.28611 1.32901 -0.05595
 C186 C -0.29291 1.24867 -0.04508
 H187 H -0.22347 1.35360 -0.07428
 H188 H -0.35498 1.22412 -0.02492
 C189 C 0.01333 1.29290 0.28192
 C190 C -0.02544 1.29291 0.20702
 H191 H 0.03863 1.23390 0.30059
 H192 H -0.06255 1.34535 0.18529
 C193 C 0.01844 1.31021 -0.29124
 C194 C -0.00527 1.23092 -0.29669
 H195 H 0.02633 1.33219 -0.22928
 H196 H -0.02250 1.20400 -0.35503
 C197 C 0.04112 0.73279 -0.30542
 C198 C 0.00978 0.73017 -0.22873
 H199 H 0.06574 0.79123 -0.32543
 H200 H -0.01968 0.67501 -0.20529
 C201 C 0.02267 0.72464 0.26908
 C202 C -0.03252 0.78878 0.25959
 H203 H 0.07490 0.71646 0.22489
 H204 H -0.08666 0.79843 0.30128
   
