data_POSCAR
  _audit_creation_date              2014-09-24
  _audit_creation_method            'ToBaCCo'
  _symmetry_space_group_name_H-M    'P1'
  _symmetry_Int_Tables_number       1
  _symmetry_cell_setting            triclinic
  loop_
  _symmetry_equiv_pos_as_xyz
 x,y,z
_cell_length_a 22.8902
_cell_length_b 22.8902
_cell_length_c 37.2432
_cell_angle_alpha 81.135500
_cell_angle_beta 98.864500
_cell_angle_gamma 85.568200
loop_
  _atom_site_label
  _atom_site_type_symbol
  _atom_site_fract_x
  _atom_site_fract_y
  _atom_site_fract_z
O1 O -0.04799 0.56590 0.95485
 O2 O -0.06659 0.43561 1.02218
 O3 O -0.06606 0.54879 1.02274
 O4 O -0.04873 0.45143 0.95414
 O5 O 0.04809 0.43853 0.97361
 O6 O 0.03082 0.53566 1.04213
 O7 O 0.03020 0.42274 1.04153
 O8 O 0.04882 0.55274 0.97432
 Cu9 Cu -0.06702 0.50175 0.98635
 Cu10 Cu 0.04921 0.48613 1.00967
 C11 C 0.00357 0.58215 0.95344
 C12 C -0.02138 0.40693 1.04360
 C13 C -0.02056 0.55871 1.04427
 C14 C 0.00261 0.42769 0.95245
 O15 O 0.57722 -0.03024 0.54153
 O16 O 0.44722 -0.04887 0.47432
 O17 O 0.56142 -0.04813 0.47361
 O18 O 0.46429 -0.03087 0.54213
 O19 O 0.45117 0.06601 0.52274
 O20 O 0.54853 0.04868 0.45414
 O21 O 0.43406 0.04795 0.45485
 O22 O 0.56434 0.06654 0.52218
 Cu23 Cu 0.51383 -0.04925 0.50967
 Cu24 Cu 0.49821 0.06697 0.48635
 C25 C 0.59302 0.02134 0.54360
 C26 C 0.41781 -0.00361 0.45344
 C27 C 0.57227 -0.00265 0.45245
 C28 C 0.44124 0.02051 0.54427
 C29 C -0.05171 -0.11422 0.22888
 C30 C -0.10115 -0.11114 0.25214
 C31 C -0.10040 -0.06401 0.27054
 C32 C -0.05044 -0.02428 0.26411
 C33 C -0.05920 -0.05374 0.20354
 C34 C -0.05844 -0.00678 0.22200
 C35 C 0.00628 -0.11445 0.25576
 C36 C 0.00686 -0.06728 0.27412
 H37 H -0.13380 -0.14306 0.25382
 H38 H -0.05008 0.01404 0.27917
 H39 H -0.06155 -0.04863 0.17383
 H40 H 0.04429 -0.14743 0.25882
 C41 C 0.11417 0.05166 0.72888
 C42 C 0.11441 -0.00633 0.75576
 C43 C 0.06724 -0.00691 0.77412
 C44 C 0.02424 0.05040 0.76411
 C45 C 0.05370 0.05916 0.70354
 C46 C 0.00674 0.05840 0.72199
 C47 C 0.11110 0.10111 0.75214
 C48 C 0.06396 0.10036 0.77054
 H49 H 0.14738 -0.04433 0.75882
 H50 H -0.01409 0.05003 0.77917
 H51 H 0.04858 0.06151 0.67383
 H52 H 0.14301 0.13375 0.75382
 C53 C 0.01677 -0.35304 0.12139
 C54 C -0.03924 -0.32557 0.12313
 C55 C -0.08942 -0.33684 0.09961
 C56 C -0.08354 -0.37503 0.07418
 C57 C -0.02727 -0.40228 0.07190
 C58 C 0.02278 -0.39118 0.09599
 C59 C -0.04458 -0.28366 0.14781
 C60 C -0.04798 -0.24731 0.16780
 C61 C -0.05066 -0.20318 0.19022
 C62 C -0.05181 -0.16395 0.20834
 H63 H 0.05594 -0.34438 0.13935
 H64 H -0.13296 -0.31556 0.10062
 H65 H -0.12293 -0.38268 0.05605
 H66 H 0.06670 -0.41148 0.09499
 C67 C -0.09149 0.28866 0.09729
 C68 C -0.04158 0.25665 0.12041
 C69 C 0.01482 0.27518 0.11851
 C70 C 0.02151 0.32517 0.09335
 C71 C -0.02830 0.35749 0.06952
 C72 C -0.08503 0.33875 0.07207
 C73 C -0.04763 0.20303 0.14473
 C74 C -0.05172 0.15694 0.16428
 C75 C -0.05532 0.10153 0.18597
 C76 C -0.05735 0.05289 0.20321
 H77 H -0.13534 0.27447 0.09842
 H78 H 0.05379 0.25051 0.13616
 H79 H 0.06589 0.33802 0.09241
 H80 H -0.12450 0.36230 0.05437
 C81 C 0.33680 0.08938 0.59961
 C82 C 0.32552 0.03920 0.62313
 C83 C 0.35299 -0.01682 0.62139
 C84 C 0.39113 -0.02282 0.59599
 C85 C 0.40223 0.02722 0.57190
 C86 C 0.37499 0.08350 0.57418
 C87 C 0.28362 0.04453 0.64781
 C88 C 0.24727 0.04793 0.66780
 C89 C 0.20313 0.05062 0.69022
 C90 C 0.16391 0.05176 0.70834
 H91 H 0.31551 0.13291 0.60062
 H92 H 0.34433 -0.05598 0.63935
 H93 H 0.41144 -0.06674 0.59499
 H94 H 0.38264 0.12289 0.55605
 C95 C -0.27523 -0.01486 0.61851
 C96 C -0.25670 0.04153 0.62040
 C97 C -0.28870 0.09144 0.59729
 C98 C -0.33879 0.08498 0.57207
 C99 C -0.35753 0.02826 0.56952
 C100 C -0.32522 -0.02155 0.59335
 C101 C -0.20307 0.04759 0.64473
 C102 C -0.15698 0.05167 0.66428
 C103 C -0.10158 0.05527 0.68597
 C104 C -0.05294 0.05730 0.70321
 H105 H -0.25055 -0.05383 0.63616
 H106 H -0.27451 0.13529 0.59842
 H107 H -0.36235 0.12445 0.55437
 H108 H -0.33807 -0.06593 0.59241
 C109 C -0.03182 -0.27627 0.88269
 C110 C 0.02480 -0.25750 0.88190
 C111 C 0.07455 -0.29194 0.90374
 C112 C 0.06775 -0.34459 0.92658
 C113 C 0.01096 -0.36356 0.92790
 C114 C -0.03876 -0.32896 0.90552
 C115 C 0.03204 -0.20275 0.85895
 C116 C 0.03887 -0.15707 0.83984
 C117 C 0.04777 -0.10401 0.81739
 C118 C 0.05620 -0.05932 0.79793
 H119 H -0.07064 -0.24999 0.86586
 H120 H 0.11860 -0.27788 0.90331
 H121 H 0.10692 -0.37010 0.94346
 H122 H -0.08307 -0.34224 0.90593
 C123 C -0.03407 0.33045 0.87986
 C124 C 0.02232 0.30318 0.87867
 C125 C 0.07233 0.31778 0.90086
 C126 C 0.06603 0.35896 0.92445
 C127 C 0.00947 0.38615 0.92619
 C128 C -0.04051 0.37170 0.90345
 C129 C 0.02904 0.25963 0.85511
 C130 C 0.03554 0.22293 0.83565
 C131 C 0.04423 0.17993 0.81304
 C132 C 0.05264 0.14345 0.79374
 H133 H -0.07310 0.31950 0.86279
 H134 H 0.11620 0.29698 0.90015
 H135 H 0.10540 0.36901 0.94159
 H136 H -0.08465 0.39174 0.90415
 C137 C -0.33050 0.03402 0.37986
 C138 C -0.30322 -0.02237 0.37867
 C139 C -0.31783 -0.07238 0.40086
 C140 C -0.35900 -0.06607 0.42445
 C141 C -0.38620 -0.00952 0.42619
 C142 C -0.37174 0.04046 0.40345
 C143 C -0.25968 -0.02909 0.35511
 C144 C -0.22298 -0.03558 0.33565
 C145 C -0.17997 -0.04427 0.31304
 C146 C -0.14349 -0.05269 0.29374
 H147 H -0.31955 0.07305 0.36279
 H148 H -0.29702 -0.11625 0.40015
 H149 H -0.36906 -0.10544 0.44159
 H150 H -0.39179 0.08461 0.40415
 C151 C 0.29190 -0.07460 0.40374
 C152 C 0.25745 -0.02485 0.38190
 C153 C 0.27623 0.03177 0.38269
 C154 C 0.32892 0.03871 0.40552
 C155 C 0.36351 -0.01100 0.42790
 C156 C 0.34455 -0.06779 0.42658
 C157 C 0.20270 -0.03209 0.35895
 C158 C 0.15702 -0.03891 0.33984
 C159 C 0.10396 -0.04782 0.31739
 C160 C 0.05927 -0.05624 0.29793
 H161 H 0.27784 -0.11865 0.40331
 H162 H 0.24995 0.07059 0.36586
 H163 H 0.34219 0.08303 0.40593
 H164 H 0.37005 -0.10697 0.44346
   
