data_POSCAR
  _audit_creation_date              2014-09-24
  _audit_creation_method            'ToBaCCo'
  _symmetry_space_group_name_H-M    'P1'
  _symmetry_Int_Tables_number       1
  _symmetry_cell_setting            triclinic
  loop_
  _symmetry_equiv_pos_as_xyz
 x,y,z
_cell_length_a 30.4910
_cell_length_b 30.5736
_cell_length_c 30.5321
_cell_angle_alpha 84.546000
_cell_angle_beta 97.148000
_cell_angle_gamma 94.910400
loop_
  _atom_site_label
  _atom_site_type_symbol
  _atom_site_fract_x
  _atom_site_fract_y
  _atom_site_fract_z
C1 C 0.60066 0.54493 0.01690
 C2 C 0.58986 0.58813 0.02036
 C3 C 0.54610 0.59906 0.02072
 C4 C 0.51158 0.56460 0.02004
 C5 C 0.52152 0.52047 0.01706
 C6 C 0.56616 0.51043 0.01660
 C7 C 0.57544 0.46581 0.02011
 C8 C 0.54178 0.43225 0.01933
 C9 C 0.49720 0.44152 0.01626
 C10 C 0.48690 0.48587 0.01667
 C11 C 0.46818 0.57229 0.02684
 C12 C 0.43450 0.53868 0.02610
 C13 C 0.44241 0.49550 0.01871
 C14 C 0.40795 0.46086 0.01780
 C15 C 0.41929 0.41744 0.01673
 C16 C 0.46289 0.40729 0.01556
 H17 H 0.60902 0.45599 0.02511
 H18 H 0.55137 0.39873 0.02260
 H19 H 0.45991 0.60413 0.03459
 H20 H 0.40251 0.54686 0.03327
 H21 H 0.61571 0.61468 0.01846
 H22 H 0.39334 0.39087 0.01454
 C23 C -0.00891 0.59111 0.45276
 C24 C -0.01038 0.58104 0.40895
 C25 C -0.00720 0.53792 0.39787
 C26 C -0.00524 0.50311 0.43257
 C27 C -0.00425 0.51295 0.47735
 C28 C -0.00560 0.55711 0.48743
 C29 C -0.00451 0.56609 0.53187
 C30 C -0.00170 0.53256 0.56589
 C31 C -0.00177 0.48836 0.55686
 C32 C -0.00277 0.47843 0.51220
 C33 C -0.00724 0.45852 0.42378
 C34 C -0.00444 0.42497 0.45787
 C35 C -0.00233 0.43408 0.50233
 C36 C 0.00023 0.40007 0.53724
 C37 C 0.00148 0.41049 0.58099
 C38 C -0.00027 0.45384 0.59133
 H39 H -0.00599 0.59920 0.54099
 H40 H 0.00049 0.54189 0.59941
 H41 H -0.01190 0.44867 0.39038
 H42 H -0.00446 0.39165 0.44875
 H43 H -0.01114 0.60816 0.38328
 H44 H 0.00266 0.38413 0.60745
 C45 C 0.54220 0.00115 0.59496
 C46 C 0.58586 0.00035 0.58503
 C47 C 0.59638 -0.00026 0.54163
 C48 C 0.56144 0.00127 0.50605
 C49 C 0.51677 0.00084 0.51518
 C50 C 0.50700 0.00021 0.55962
 C51 C 0.46220 -0.00388 0.56746
 C52 C 0.42806 -0.00316 0.53279
 C53 C 0.43691 -0.00085 0.48860
 C54 C 0.48164 0.00099 0.47963
 C55 C 0.56994 0.00574 0.46147
 C56 C 0.53571 0.00526 0.42695
 C57 C 0.49129 0.00289 0.43516
 C58 C 0.45621 0.00231 0.40010
 C59 C 0.41244 0.00100 0.40957
 C60 C 0.40225 -0.00031 0.45307
 H61 H 0.45263 -0.00851 0.60056
 H62 H 0.39455 -0.00481 0.54128
 H63 H 0.60323 0.01040 0.45237
 H64 H 0.54471 0.00713 0.39365
 H65 H 0.61259 0.00015 0.61202
 H66 H 0.38573 0.00090 0.38252
 O67 O 0.47067 0.00330 -0.07005
 O68 O 0.46023 -0.00525 0.04938
 O69 O 0.46037 0.05872 -0.01252
 O70 O 0.47110 -0.06091 -0.00708
 O71 O 0.54353 -0.04936 0.00834
 O72 O 0.53307 0.07033 0.00024
 O73 O 0.53264 0.00776 0.06381
 O74 O 0.54330 0.01348 -0.05542
 Cu75 Cu 0.45833 -0.00222 -0.01169
 Cu76 Cu 0.54541 0.01162 0.00562
 C77 C 0.50883 0.00950 -0.08317
 C78 C 0.49456 0.00046 0.07700
 C79 C 0.49484 0.08494 -0.00670
 C80 C 0.50921 -0.07565 0.00188
 O81 O -0.05382 0.54249 0.98491
 O82 O 0.06616 0.53202 0.99286
 O83 O 0.00114 0.53044 0.92875
 O84 O 0.01042 0.54190 1.04879
 O85 O -0.00077 0.46978 1.06135
 O86 O -0.00927 0.45830 0.94180
 O87 O 0.05504 0.45996 1.00575
 O88 O -0.06540 0.47040 0.99711
 Cu89 Cu 0.00711 0.54392 0.98744
 Cu90 Cu -0.00631 0.45739 1.00269
 C91 C -0.08013 0.50842 0.99021
 C92 C 0.08120 0.49424 1.00064
 C93 C -0.00513 0.49225 0.91485
 C94 C 0.00606 0.50777 1.07558
 O95 O -0.01340 -0.05854 0.45563
 O96 O -0.00729 0.06080 0.46540
 O97 O 0.04957 0.00450 0.45473
 O98 O -0.06961 -0.00267 0.46717
 O99 O -0.05361 -0.01348 0.53966
 O100 O 0.06517 -0.00805 0.52712
 O101 O 0.00951 0.04930 0.53773
 O102 O 0.00207 -0.07033 0.52811
 Cu103 Cu -0.01169 0.00225 0.45346
 Cu104 Cu 0.00735 -0.01174 0.54043
 C105 C -0.00670 -0.08487 0.49012
 C106 C 0.00196 0.07551 0.50324
 C107 C 0.07773 -0.00109 0.48878
 C108 C -0.08197 -0.00909 0.50565
 C109 C -0.26532 0.52849 1.00043
 C110 C -0.30011 0.50629 0.97482
 C111 C -0.34422 0.51161 0.98008
 C112 C -0.35468 0.53837 1.01197
 C113 C -0.31941 0.56097 1.03709
 C114 C -0.27544 0.55598 1.03148
 C115 C -0.21848 0.52329 0.99494
 C116 C -0.18797 0.56031 0.99301
 C117 C -0.14332 0.55547 0.99020
 C118 C -0.12807 0.51343 0.98967
 C119 C -0.15877 0.47641 0.99070
 C120 C -0.20362 0.48133 0.99305
 H121 H -0.37017 0.49567 0.95823
 H122 H -0.32572 0.58168 1.06216
 H123 H -0.12056 0.58467 0.98944
 H124 H -0.14805 0.44360 0.99030
 H125 H -0.24921 0.57314 1.05198
 H126 H -0.19867 0.59306 0.99386
 H127 H -0.29317 0.48563 0.94998
 H128 H -0.22646 0.45224 0.99473
 C129 C 0.27020 0.47750 1.01152
 C130 C 0.29705 0.50589 0.98527
 C131 C 0.34251 0.50100 0.98768
 C132 C 0.36241 0.46778 1.01672
 C133 C 0.33516 0.43921 1.04264
 C134 C 0.28987 0.44427 1.04037
 C135 C 0.22173 0.48196 1.00849
 C136 C 0.19188 0.44431 1.01034
 C137 C 0.14634 0.44832 1.00798
 C138 C 0.12952 0.49008 1.00350
 C139 C 0.15929 0.52776 1.00142
 C140 C 0.20489 0.52374 1.00395
 H141 H 0.36178 0.52224 0.96555
 H142 H 0.34911 0.41344 1.06568
 H143 H 0.12428 0.41863 1.00936
 H144 H 0.14739 0.56042 0.99808
 H145 H 0.27030 0.42230 1.06160
 H146 H 0.20367 0.41164 1.01305
 H147 H 0.28271 0.53118 0.96193
 H148 H 0.22703 0.55337 1.00298
 C149 C -0.01052 -0.27169 0.47197
 C150 C 0.02645 -0.29498 0.48932
 C151 C 0.02691 -0.33967 0.48337
 C152 C -0.00988 -0.36196 0.46068
 C153 C -0.04681 -0.33881 0.44333
 C154 C -0.04716 -0.29404 0.44893
 C155 C -0.01046 -0.22398 0.47701
 C156 C -0.02525 -0.19493 0.44082
 C157 C -0.02422 -0.14978 0.44515
 C158 C -0.00871 -0.13280 0.48590
 C159 C 0.00559 -0.16196 0.52226
 C160 C 0.00491 -0.20709 0.51780
 H161 H 0.05604 -0.35689 0.49619
 H162 H -0.07531 -0.35546 0.42537
 H163 H -0.03547 -0.12817 0.41652
 H164 H 0.01776 -0.14987 0.55407
 H165 H -0.07616 -0.27692 0.43547
 H166 H -0.03683 -0.20704 0.40888
 H167 H 0.05538 -0.27836 0.50660
 H168 H 0.01612 -0.22887 0.54632
 C169 C 0.00315 0.26255 0.51986
 C170 C -0.03406 0.28536 0.50214
 C171 C -0.03497 0.33018 0.50741
 C172 C 0.00161 0.35307 0.52978
 C173 C 0.03877 0.33040 0.54749
 C174 C 0.03956 0.28553 0.54257
 C175 C 0.00369 0.21476 0.51533
 C176 C 0.01906 0.18615 0.55170
 C177 C 0.01874 0.14096 0.54774
 C178 C 0.00337 0.12349 0.50720
 C179 C -0.01153 0.15222 0.47069
 C180 C -0.01155 0.19736 0.47477
 H181 H -0.06428 0.34701 0.49434
 H182 H 0.06711 0.34750 0.56524
 H183 H 0.03040 0.11970 0.57648
 H184 H -0.02362 0.13978 0.43902
 H185 H 0.06876 0.26883 0.55629
 H186 H 0.03058 0.19864 0.58347
 H187 H -0.06282 0.26829 0.48508
 H188 H -0.02317 0.21874 0.44611
 C189 C 0.52674 0.00879 -0.26951
 C190 C 0.50348 0.03580 -0.30264
 C191 C 0.50833 0.03338 -0.34731
 C192 C 0.53578 0.00310 -0.36002
 C193 C 0.55933 -0.02351 -0.32639
 C194 C 0.55474 -0.02080 -0.28187
 C195 C 0.52210 0.01125 -0.22206
 C196 C 0.55968 0.01120 -0.19038
 C197 C 0.55538 0.01145 -0.14541
 C198 C 0.51333 0.01141 -0.13106
 C199 C 0.47575 0.01214 -0.16282
 C200 C 0.48012 0.01228 -0.20791
 H201 H 0.49153 0.05613 -0.37184
 H202 H 0.58054 -0.04749 -0.33456
 H203 H 0.58500 0.01098 -0.12182
 H204 H 0.44291 0.01222 -0.15281
 H205 H 0.57267 -0.04240 -0.25704
 H206 H 0.59249 0.01094 -0.20044
 H207 H 0.48234 0.05953 -0.29390
 H208 H 0.45059 0.01204 -0.23163
 C209 C 0.47474 0.00043 0.26301
 C210 C 0.49064 0.03735 0.28608
 C211 C 0.48470 0.03813 0.33068
 C212 C 0.46352 0.00169 0.35310
 C213 C 0.44752 -0.03511 0.33011
 C214 C 0.45305 -0.03575 0.28547
 C215 C 0.48016 -0.00019 0.21550
 C216 C 0.44459 -0.01515 0.18548
 C217 C 0.44937 -0.01521 0.14057
 C218 C 0.48996 -0.00069 0.12479
 C219 C 0.52571 0.01380 0.15493
 C220 C 0.52078 0.01427 0.19980
 H221 H 0.49653 0.06711 0.34776
 H222 H 0.43079 -0.06337 0.34685
 H223 H 0.42119 -0.02654 0.11819
 H224 H 0.55738 0.02530 0.14377
 H225 H 0.44074 -0.06471 0.26857
 H226 H 0.41279 -0.02610 0.19664
 H227 H 0.50690 0.06591 0.26937
 H228 H 0.54883 0.02558 0.22234
 C229 C 0.52776 -0.26384 0.01397
 C230 C 0.56158 -0.28233 0.04363
 C231 C 0.56718 -0.32739 0.04612
 C232 C 0.53858 -0.35561 0.01962
 C233 C 0.50474 -0.33690 -0.01019
 C234 C 0.49932 -0.29170 -0.01282
 C235 C 0.52280 -0.21558 0.01056
 C236 C 0.48058 -0.19914 0.00446
 C237 C 0.47611 -0.15374 0.00153
 C238 C 0.51376 -0.12376 0.00474
 C239 C 0.55594 -0.14019 0.01071
 C240 C 0.56040 -0.18550 0.01348
 H241 H 0.59345 -0.34036 0.06971
 H242 H 0.48345 -0.35692 -0.03280
 H243 H 0.44313 -0.14217 -0.00295
 H244 H 0.58564 -0.11800 0.01303
 H245 H 0.47359 -0.27837 -0.03679
 H246 H 0.45094 -0.22139 0.00262
 H247 H 0.58364 -0.26199 0.06528
 H248 H 0.59341 -0.19695 0.01736
 C249 C 0.47917 0.27061 0.00356
 C250 C 0.45898 0.28320 0.03884
 C251 C 0.45486 0.32765 0.04330
 C252 C 0.47058 0.36037 0.01241
 C253 C 0.49056 0.34781 -0.02306
 C254 C 0.49533 0.30332 -0.02713
 C255 C 0.48284 0.22338 -0.00128
 C256 C 0.52337 0.20819 -0.00827
 C257 C 0.52721 0.16323 -0.01061
 C258 C 0.49037 0.13274 -0.00677
 C259 C 0.44954 0.14818 -0.00100
 C260 C 0.44591 0.19301 0.00205
 H261 H 0.43906 0.33657 0.07071
 H262 H 0.50198 0.37244 -0.04784
 H263 H 0.55908 0.15229 -0.01514
 H264 H 0.42061 0.12549 0.00222
 H265 H 0.51063 0.29435 -0.05485
 H266 H 0.55234 0.23099 -0.01075
 H267 H 0.44657 0.25859 0.06311
 H268 H 0.41420 0.20401 0.00704
 C269 C -0.26789 -0.00878 0.52660
 C270 C -0.30093 -0.03554 0.50356
 C271 C -0.34562 -0.03298 0.50848
 C272 C -0.35847 -0.00278 0.53576
 C273 C -0.32494 0.02332 0.55941
 C274 C -0.28036 0.02046 0.55475
 C275 C -0.22048 -0.01097 0.52129
 C276 C -0.18824 -0.01106 0.55840
 C277 C -0.14336 -0.01120 0.55335
 C278 C -0.12969 -0.01089 0.51102
 C279 C -0.16201 -0.01139 0.47392
 C280 C -0.20698 -0.01163 0.47903
 H281 H -0.37007 -0.05540 0.49167
 H282 H -0.33323 0.04714 0.58058
 H283 H -0.11931 -0.01090 0.58260
 H284 H -0.15254 -0.01126 0.44087
 H285 H -0.25561 0.04182 0.57257
 H286 H -0.19780 -0.01106 0.59140
 H287 H -0.29210 -0.05907 0.48238
 H288 H -0.23113 -0.01122 0.44984
 C289 C 0.26412 -0.00030 0.46903
 C290 C 0.28598 0.03593 0.44684
 C291 C 0.33098 0.03594 0.44218
 C292 C 0.35490 -0.00024 0.45957
 C293 C 0.33304 -0.03680 0.48113
 C294 C 0.28810 -0.03666 0.48620
 C295 C 0.21641 -0.00018 0.47411
 C296 C 0.20092 -0.01423 0.51494
 C297 C 0.15598 -0.01400 0.51981
 C298 C 0.12548 -0.00012 0.48381
 C299 C 0.14100 0.01389 0.44293
 C300 C 0.18604 0.01407 0.43821
 H301 H 0.34726 0.06425 0.42508
 H302 H 0.35081 -0.06537 0.49395
 H303 H 0.14507 -0.02509 0.55171
 H304 H 0.11834 0.02474 0.41458
 H305 H 0.27187 -0.06526 0.50288
 H306 H 0.22369 -0.02496 0.54326
 H307 H 0.26838 0.06447 0.43356
 H308 H 0.19706 0.02472 0.40626
 C309 C 0.00298 0.52448 1.26221
 C310 C -0.02822 0.55084 1.27432
 C311 C -0.03191 0.55462 1.31887
 C312 C -0.00465 0.53190 1.35274
 C313 C 0.02724 0.50615 1.34028
 C314 C 0.03062 0.50207 1.29559
 C315 C 0.00636 0.52042 1.21477
 C316 C 0.00899 0.47898 1.19940
 C317 C 0.00953 0.47492 1.15425
 C318 C 0.00795 0.51230 1.12363
 C319 C 0.00655 0.55388 1.13922
 C320 C 0.00554 0.55786 1.18429
 H321 H -0.05705 0.57460 1.32680
 H322 H 0.05067 0.49027 1.36505
 H323 H 0.01072 0.44243 1.14328
 H324 H 0.00531 0.58330 1.11648
 H325 H 0.05559 0.48225 1.28708
 H326 H 0.00936 0.44956 1.22217
 H327 H -0.05030 0.56807 1.24925
 H328 H 0.00402 0.59027 1.19535
 C329 C -0.00427 0.47198 0.72876
 C330 C -0.03822 0.48644 0.69664
 C331 C -0.03701 0.48057 0.65196
 C332 C -0.00121 0.46129 0.63855
 C333 C 0.03269 0.44683 0.67068
 C334 C 0.03111 0.45200 0.71540
 C335 C -0.00591 0.47710 0.77621
 C336 C 0.00091 0.44120 0.80786
 C337 C 0.00020 0.44599 0.85278
 C338 C -0.00664 0.48700 0.86704
 C339 C -0.01363 0.52292 0.83532
 C340 C -0.01368 0.51789 0.79024
 H341 H -0.06404 0.49095 0.62779
 H342 H 0.06036 0.43149 0.66106
 H343 H 0.00585 0.41776 0.87645
 H344 H -0.01905 0.55487 0.84536
 H345 H 0.05773 0.44074 0.73959
 H346 H 0.00661 0.40934 0.79776
 H347 H -0.06609 0.50142 0.70627
 H348 H -0.01883 0.54607 0.76638
   
