data_POSCAR
  _audit_creation_date              2014-09-24
  _audit_creation_method            'ToBaCCo'
  _symmetry_space_group_name_H-M    'P1'
  _symmetry_Int_Tables_number       1
  _symmetry_cell_setting            triclinic
  loop_
  _symmetry_equiv_pos_as_xyz
 x,y,z
_cell_length_a 33.5679
_cell_length_b 33.6963
_cell_length_c 33.2334
_cell_angle_alpha 89.910500
_cell_angle_beta 90.002000
_cell_angle_gamma 90.088500
loop_
  _atom_site_label
  _atom_site_type_symbol
  _atom_site_fract_x
  _atom_site_fract_y
  _atom_site_fract_z
Zr1 Zr 0.24283 0.24356 0.31868
 O2 O 0.27009 0.27199 0.36835
 O3 O 0.20325 0.20468 0.34691
 O4 O 0.20052 0.27697 0.35135
 O5 O 0.32109 0.17809 0.30481
 O6 O 0.17286 0.31797 0.30424
 O7 O 0.27833 0.20347 0.35170
 O8 O 0.17133 0.17444 0.29464
 O9 O 0.19264 0.24619 0.28143
 O10 O 0.24629 0.19418 0.28080
 O11 O 0.24694 0.29843 0.28885
 O12 O 0.29841 0.24814 0.28929
 Zr13 Zr 0.25477 0.25615 0.17986
 Zr14 Zr 0.19824 0.29945 0.24937
 Zr15 Zr 0.29958 0.19999 0.24916
 Zr16 Zr 0.19775 0.19803 0.24230
 O17 O 0.36239 0.20519 0.25064
 O18 O 0.13545 0.20728 0.23754
 O19 O 0.25105 0.20064 0.20918
 O20 O 0.19985 0.25112 0.20977
 O21 O 0.25152 0.30590 0.21728
 O22 O 0.30457 0.25327 0.21757
 C23 C 0.17760 0.18040 0.33235
 C24 C 0.30792 0.18153 0.34113
 C25 C 0.17697 0.30523 0.34056
 O26 O 0.13563 0.29384 0.24480
 O27 O 0.17911 0.32470 0.19458
 O28 O 0.22057 0.29794 0.14737
 C29 C 0.19193 0.32097 0.15825
 O30 O 0.32272 0.31871 0.31335
 Zr31 Zr 0.30010 0.30138 0.25626
 O32 O 0.29300 0.29646 0.15168
 O33 O 0.20300 0.36188 0.25405
 O34 O 0.29009 0.36327 0.26175
 O35 O 0.36291 0.29464 0.25723
 O36 O 0.32265 0.32879 0.20402
 C37 C 0.31663 0.32270 0.16630
 O38 O 0.22643 0.22884 0.13015
 O39 O 0.29550 0.13734 0.24755
 O40 O 0.29520 0.22131 0.14663
 O41 O 0.32125 0.17881 0.19339
 O42 O 0.20549 0.13559 0.24065
 O43 O 0.18008 0.17562 0.18526
 C44 C 0.31739 0.19190 0.15709
 H45 H 0.24577 0.16860 0.29547
 H46 H 0.17732 0.25157 0.19056
 H47 H 0.33013 0.25425 0.20275
 H48 H 0.24624 0.32079 0.30812
 H49 H 0.12223 0.18129 0.24184
 H50 H 0.12453 0.32103 0.24640
 H51 H 0.17555 0.37255 0.25253
 H52 H 0.31599 0.37681 0.25755
 H53 H 0.17889 0.12328 0.24428
 H54 H 0.32310 0.12707 0.24913
 H55 H 0.37316 0.17789 0.24887
 H56 H 0.37480 0.32137 0.25371
 H57 H 0.15715 0.15742 0.18872
 H58 H 0.23792 0.24083 0.10545
 H59 H 0.25835 0.26027 0.39306
 H60 H 0.34094 0.34162 0.30997
 Zr61 Zr 0.75374 0.75729 0.31972
 O62 O 0.72698 0.72810 0.36931
 O63 O 0.79288 0.79652 0.34808
 O64 O 0.79653 0.72436 0.35221
 O65 O 0.67453 0.82172 0.30624
 O66 O 0.82448 0.68380 0.30499
 O67 O 0.71766 0.79658 0.35297
 O68 O 0.82487 0.82698 0.29589
 O69 O 0.80390 0.75524 0.28239
 O70 O 0.74988 0.80691 0.28209
 O71 O 0.75002 0.70259 0.28967
 O72 O 0.69817 0.75244 0.29038
 Zr73 Zr 0.74171 0.74558 0.18086
 Zr74 Zr 0.79868 0.70214 0.25012
 Zr75 Zr 0.69661 0.80086 0.25050
 Zr76 Zr 0.79843 0.80363 0.24350
 O77 O 0.63382 0.79520 0.25146
 O78 O 0.86078 0.79484 0.23855
 O79 O 0.74510 0.80085 0.21047
 O80 O 0.79666 0.75073 0.21072
 O81 O 0.74539 0.69559 0.21809
 O82 O 0.69192 0.74782 0.21860
 C83 C 0.81856 0.82088 0.33360
 C84 C 0.68770 0.81810 0.34255
 C85 C 0.82039 0.69646 0.34132
 O86 O 0.86122 0.70818 0.24507
 O87 O 0.81753 0.67701 0.19516
 O88 O 0.77579 0.70391 0.14820
 C89 C 0.80444 0.68076 0.15890
 O90 O 0.67432 0.68159 0.31412
 Zr91 Zr 0.69683 0.69944 0.25710
 O92 O 0.70352 0.70539 0.15254
 O93 O 0.79443 0.63968 0.25501
 O94 O 0.70727 0.63761 0.26253
 O95 O 0.63397 0.70574 0.25795
 O96 O 0.67466 0.67201 0.20475
 C97 C 0.68043 0.67858 0.16704
 O98 O 0.77002 0.77313 0.13119
 O99 O 0.70013 0.86358 0.24971
 O100 O 0.70134 0.78088 0.14787
 O101 O 0.67521 0.82282 0.19495
 O102 O 0.79025 0.86602 0.24217
 O103 O 0.81580 0.82656 0.18651
 C104 C 0.67922 0.81025 0.15853
 H105 H 0.75018 0.83236 0.29692
 H106 H 0.81914 0.75048 0.19144
 H107 H 0.66640 0.74682 0.20372
 H108 H 0.75096 0.68012 0.30888
 H109 H 0.87383 0.82089 0.24289
 H110 H 0.87250 0.68106 0.24673
 H111 H 0.82196 0.62922 0.25334
 H112 H 0.68148 0.62389 0.25830
 H113 H 0.81677 0.87848 0.24580
 H114 H 0.67244 0.87359 0.25131
 H115 H 0.62286 0.82244 0.24995
 H116 H 0.62229 0.67896 0.25428
 H117 H 0.83859 0.84493 0.19000
 H118 H 0.75846 0.76132 0.10648
 H119 H 0.73855 0.73984 0.39406
 H120 H 0.65609 0.65873 0.31064
 Zr121 Zr 0.75900 0.24324 -0.31893
 O122 O 0.73195 0.27106 -0.36913
 O123 O 0.79945 0.20476 -0.34640
 O124 O 0.80116 0.27669 -0.35169
 O125 O 0.68087 0.17768 -0.30498
 O126 O 0.82796 0.31861 -0.30495
 O127 O 0.72388 0.20279 -0.35187
 O128 O 0.83193 0.17591 -0.29365
 O129 O 0.80885 0.24702 -0.28134
 O130 O 0.75597 0.19404 -0.28068
 O131 O 0.75392 0.29829 -0.28971
 O132 O 0.70322 0.24730 -0.28994
 Zr133 Zr 0.74587 0.25673 -0.18019
 Zr134 Zr 0.80232 0.30042 -0.24992
 Zr135 Zr 0.70244 0.19942 -0.24942
 Zr136 Zr 0.80418 0.19904 -0.24181
 O137 O 0.63953 0.20336 -0.25084
 O138 O 0.86628 0.20929 -0.23617
 O139 O 0.75062 0.20113 -0.20906
 O140 O 0.80104 0.25235 -0.20981
 O141 O 0.74875 0.30628 -0.21814
 O142 O 0.69645 0.25274 -0.21830
 C143 C 0.82583 0.18147 -0.33148
 C144 C 0.69406 0.18110 -0.34128
 C145 C 0.82433 0.30531 -0.34109
 O146 O 0.86494 0.29586 -0.24463
 O147 O 0.82076 0.32662 -0.19541
 O148 O 0.77945 0.29955 -0.14809
 C149 C 0.80784 0.32305 -0.15909
 O150 O 0.67827 0.31776 -0.31477
 Zr151 Zr 0.70052 0.30071 -0.25742
 O152 O 0.70641 0.29634 -0.15284
 O153 O 0.79681 0.36271 -0.25562
 O154 O 0.70996 0.36272 -0.26297
 O155 O 0.63787 0.29262 -0.25930
 O156 O 0.67656 0.32777 -0.20568
 C157 C 0.68225 0.32189 -0.16785
 O158 O 0.77417 0.23073 -0.12972
 O159 O 0.70746 0.13684 -0.24771
 O160 O 0.70592 0.22070 -0.14707
 O161 O 0.68077 0.17782 -0.19390
 O162 O 0.79715 0.13650 -0.23996
 O163 O 0.82145 0.17719 -0.18437
 C164 C 0.68423 0.19083 -0.15760
 H165 H 0.75690 0.16845 -0.29523
 H166 H 0.82343 0.25336 -0.19044
 H167 H 0.67077 0.25326 -0.20368
 H168 H 0.75451 0.32051 -0.30922
 H169 H 0.87989 0.18349 -0.23995
 H170 H 0.87573 0.32317 -0.24679
 H171 H 0.82412 0.37382 -0.25412
 H172 H 0.68388 0.37593 -0.25912
 H173 H 0.82393 0.12459 -0.24327
 H174 H 0.68004 0.12607 -0.24960
 H175 H 0.62918 0.17585 -0.24918
 H176 H 0.62541 0.31907 -0.25609
 H177 H 0.84438 0.15900 -0.18745
 H178 H 0.76206 0.24271 -0.10537
 H179 H 0.74392 0.25928 -0.39364
 H180 H 0.65979 0.34041 -0.31163
 Zr181 Zr 0.24562 0.75672 -0.32220
 O182 O 0.27744 0.73298 -0.37157
 O183 O 0.20509 0.79451 -0.35081
 O184 O 0.20694 0.72296 -0.35913
 O185 O 0.32389 0.81904 -0.30164
 O186 O 0.17736 0.67992 -0.31524
 O187 O 0.27947 0.80147 -0.35032
 O188 O 0.16984 0.82156 -0.29915
 O189 O 0.19382 0.74949 -0.28822
 O190 O 0.24481 0.80423 -0.28187
 O191 O 0.25152 0.70068 -0.29498
 O192 O 0.29957 0.75263 -0.28960
 Zr193 Zr 0.24920 0.73779 -0.18272
 Zr194 Zr 0.20107 0.69497 -0.25877
 Zr195 Zr 0.29648 0.79872 -0.24748
 Zr196 Zr 0.19426 0.79603 -0.24675
 O197 O 0.35932 0.79722 -0.24217
 O198 O 0.13219 0.78420 -0.24687
 O199 O 0.24551 0.79421 -0.21052
 O200 O 0.19658 0.74141 -0.21698
 O201 O 0.25178 0.68976 -0.22271
 O202 O 0.30131 0.74461 -0.21714
 C203 C 0.17785 0.81740 -0.33680
 C204 C 0.31068 0.82021 -0.33821
 C205 C 0.18317 0.69401 -0.35074
 O206 O 0.13845 0.69597 -0.25174
 O207 O 0.18935 0.65960 -0.20832
 O208 O 0.20763 0.69761 -0.15496
 C209 C 0.18915 0.66751 -0.17058
 O210 O 0.32996 0.68320 -0.31370
 Zr211 Zr 0.30219 0.69838 -0.25836
 O212 O 0.28640 0.69625 -0.15456
 O213 O 0.20722 0.63400 -0.27300
 O214 O 0.29447 0.63646 -0.26680
 O215 O 0.36433 0.70953 -0.25525
 O216 O 0.32310 0.67003 -0.20587
 C217 C 0.31341 0.67304 -0.16852
 O218 O 0.22030 0.76146 -0.13149
 O219 O 0.28981 0.86115 -0.24628
 O220 O 0.28665 0.77411 -0.14642
 O221 O 0.31338 0.81947 -0.19010
 O222 O 0.19899 0.85854 -0.24112
 O223 O 0.17260 0.81388 -0.18948
 C224 C 0.30836 0.80488 -0.15456
 H225 H 0.24399 0.83046 -0.29529
 H226 H 0.17242 0.73877 -0.20011
 H227 H 0.32582 0.74412 -0.20059
 H228 H 0.25294 0.67944 -0.31548
 H229 H 0.11826 0.80997 -0.24968
 H230 H 0.12913 0.66834 -0.25564
 H231 H 0.18051 0.62158 -0.27067
 H232 H 0.32026 0.62346 -0.26078
 H233 H 0.17201 0.86976 -0.24521
 H234 H 0.31703 0.87249 -0.24719
 H235 H 0.36860 0.82513 -0.24092
 H236 H 0.37781 0.68374 -0.25086
 H237 H 0.14911 0.83125 -0.19310
 H238 H 0.23117 0.74745 -0.10760
 H239 H 0.26647 0.74552 -0.39620
 H240 H 0.34908 0.66129 -0.30913
 Zr241 Zr 1.25513 1.25811 0.81882
 O242 O 1.22752 1.23018 0.86867
 O243 O 1.29596 1.29582 0.84678
 O244 O 1.29694 1.22417 0.85146
 O245 O 1.17817 1.32495 0.80492
 O246 O 1.32351 1.18240 0.80452
 O247 O 1.22042 1.29876 0.85186
 O248 O 1.32921 1.32433 0.79428
 O249 O 1.30504 1.25410 0.78135
 O250 O 1.25294 1.30762 0.78089
 O251 O 1.24952 1.20330 0.78928
 O252 O 1.19941 1.25493 0.78961
 Zr253 Zr 1.24240 1.24582 0.68017
 Zr254 Zr 1.29800 1.20097 0.74960
 Zr255 Zr 1.19945 1.30310 0.74938
 Zr256 Zr 1.30119 1.30238 0.74214
 O257 O 1.13649 1.29985 0.75069
 O258 O 1.36317 1.29165 0.73637
 O259 O 1.24774 1.30122 0.70922
 O260 O 1.29756 1.24933 0.70984
 O261 O 1.24446 1.19595 0.71769
 O262 O 1.19287 1.24998 0.71805
 C263 C 1.32290 1.31861 0.83203
 C264 C 1.19108 1.32104 0.84125
 C265 C 1.31998 1.19556 0.84073
 O266 O 1.36069 1.20482 0.74433
 O267 O 1.31586 1.17502 0.69476
 O268 O 1.27499 1.20299 0.64765
 C269 C 1.30293 1.17911 0.65849
 O270 O 1.17338 1.18483 0.81402
 Zr271 Zr 1.19619 1.20172 0.75683
 O272 O 1.20271 1.20693 0.65219
 O273 O 1.29170 1.13872 0.75501
 O274 O 1.20469 1.13959 0.76227
 O275 O 1.13359 1.21009 0.75817
 O276 O 1.17259 1.17512 0.70468
 C277 C 1.17847 1.18130 0.66692
 O278 O 1.27148 1.27223 0.63031
 O279 O 1.20535 1.36562 0.74794
 O280 O 1.20294 1.28184 0.64699
 O281 O 1.17822 1.32495 0.69373
 O282 O 1.29527 1.36504 0.74112
 O283 O 1.31874 1.32461 0.68493
 C284 C 1.18159 1.31180 0.65747
 H285 H 1.25422 1.33309 0.79563
 H286 H 1.31996 1.24822 0.69050
 H287 H 1.16722 1.24975 0.70334
 H288 H 1.24980 1.18097 0.80866
 H289 H 1.37709 1.31728 0.74044
 H290 H 1.37104 1.17734 0.74610
 H291 H 1.31886 1.12737 0.75332
 H292 H 1.17845 1.12670 0.75812
 H293 H 1.32225 1.37650 0.74462
 H294 H 1.17807 1.37667 0.74954
 H295 H 1.12654 1.32747 0.74901
 H296 H 1.12099 1.18369 0.75474
 H297 H 1.34186 1.34261 0.68818
 H298 H 1.25949 1.26070 0.60566
 H299 H 1.23956 1.24166 0.89331
 H300 H 1.15468 1.16231 0.81075
 Zr301 Zr 0.74381 0.74406 0.82029
 O302 O 0.77081 0.77252 0.87010
 O303 O 0.70376 0.70549 0.84835
 O304 O 0.70141 0.77741 0.85280
 O305 O 0.82251 0.67926 0.80675
 O306 O 0.67400 0.81844 0.80558
 O307 O 0.77945 0.70434 0.85351
 O308 O 0.67116 0.67632 0.79589
 O309 O 0.69385 0.74686 0.78279
 O310 O 0.74720 0.69456 0.78255
 O311 O 0.74826 0.79892 0.79054
 O312 O 0.79945 0.74841 0.79104
 Zr313 Zr 0.75624 0.75650 0.68155
 Zr314 Zr 0.69975 0.80010 0.75087
 Zr315 Zr 0.80059 0.70022 0.75098
 Zr316 Zr 0.69886 0.69866 0.74375
 O317 O 0.86347 0.70477 0.75216
 O318 O 0.63665 0.70782 0.73770
 O319 O 0.75225 0.70099 0.71080
 O320 O 0.70123 0.75176 0.71128
 O321 O 0.75312 0.80632 0.71891
 O322 O 0.80588 0.75346 0.71945
 C323 C 0.67727 0.68221 0.83363
 C324 C 0.80943 0.68292 0.84306
 C325 C 0.67788 0.80562 0.84189
 O326 O 0.63716 0.79472 0.74581
 O327 O 0.68118 0.82561 0.69613
 O328 O 0.72241 0.79851 0.64894
 C329 C 0.69396 0.82176 0.65982
 O330 O 0.82392 0.81916 0.81518
 Zr331 Zr 0.80152 0.80163 0.75807
 O332 O 0.79479 0.79642 0.65343
 O333 O 0.70466 0.86249 0.75586
 O334 O 0.79166 0.86357 0.76308
 O335 O 0.86427 0.79457 0.75963
 O336 O 0.82467 0.82847 0.70582
 C337 C 0.81875 0.82229 0.66810
 O338 O 0.72787 0.72930 0.63180
 O339 O 0.79603 0.63759 0.74990
 O340 O 0.79672 0.72161 0.64847
 O341 O 0.82239 0.67893 0.69527
 O342 O 0.70625 0.63616 0.74319
 O343 O 0.68197 0.67594 0.68660
 C344 C 0.81882 0.69216 0.65897
 H345 H 0.74649 0.66910 0.79744
 H346 H 0.67878 0.75233 0.69197
 H347 H 0.83152 0.75428 0.70476
 H348 H 0.74754 0.82128 0.80980
 H349 H 0.62336 0.68185 0.74181
 H350 H 0.62614 0.82195 0.74739
 H351 H 0.67725 0.87326 0.75420
 H352 H 0.81761 0.87701 0.75886
 H353 H 0.67953 0.62408 0.74668
 H354 H 0.82356 0.62717 0.75158
 H355 H 0.87399 0.67736 0.75068
 H356 H 0.87634 0.82121 0.75603
 H357 H 0.65942 0.65724 0.68990
 H358 H 0.73951 0.74118 0.60712
 H359 H 0.75892 0.76085 0.89477
 H360 H 0.84204 0.84214 0.81180
 Zr361 Zr 1.25994 0.74356 0.18231
 O362 O 1.23320 0.77227 0.13246
 O363 O 1.29956 0.70466 0.15444
 O364 O 1.30257 0.77654 0.14986
 O365 O 1.18150 0.67847 0.19553
 O366 O 1.33013 0.81751 0.19702
 O367 O 1.22470 0.70372 0.14890
 O368 O 1.33107 0.67430 0.20693
 O369 O 1.30984 0.74621 0.21994
 O370 O 1.25613 0.69411 0.22015
 O371 O 1.25567 0.79841 0.21194
 O372 O 1.20412 0.74814 0.21109
 Zr373 Zr 1.24671 0.75584 0.32085
 Zr374 Zr 1.30402 0.79942 0.25183
 Zr375 Zr 1.20262 0.69995 0.25122
 Zr376 Zr 1.30437 0.69798 0.25905
 O377 O 1.13981 0.70500 0.24932
 O378 O 1.36663 0.70746 0.26416
 O379 O 1.25074 0.70045 0.29163
 O380 O 1.30196 0.75103 0.29150
 O381 O 1.25044 0.80568 0.28341
 O382 O 1.19726 0.75308 0.28273
 C383 C 1.32503 0.68031 0.16917
 C384 C 1.19487 0.68201 0.15933
 C385 C 1.32621 0.80462 0.16076
 O386 O 1.36653 0.79405 0.25756
 O387 O 1.32205 0.82497 0.30682
 O388 O 1.28010 0.79789 0.35358
 C389 C 1.30864 0.82121 0.34295
 O390 O 1.18008 0.81875 0.18678
 Zr391 Zr 1.20221 0.80131 0.24405
 O392 O 1.20814 0.79588 0.34868
 O393 O 1.29960 0.86182 0.24648
 O394 O 1.21248 0.86320 0.23850
 O395 O 1.13940 0.79450 0.24263
 O396 O 1.17942 0.82874 0.29611
 C397 C 1.18497 0.82239 0.33388
 O398 O 1.27479 0.72871 0.37084
 O399 O 1.20641 0.63727 0.25272
 O400 O 1.20620 0.72051 0.35371
 O401 O 1.18053 0.67841 0.30650
 O402 O 1.29649 0.63554 0.26092
 O403 O 1.32168 0.67562 0.31626
 C404 C 1.18417 0.69108 0.34288
 H405 H 1.25667 0.66856 0.20551
 H406 H 1.32427 0.75159 0.31097
 H407 H 1.17159 0.75394 0.29736
 H408 H 1.25665 0.82077 0.19260
 H409 H 1.37988 0.68153 0.25999
 H410 H 1.37764 0.82127 0.25579
 H411 H 1.32707 0.87247 0.24835
 H412 H 1.18659 0.87675 0.24246
 H413 H 1.32308 0.62325 0.25752
 H414 H 1.17881 0.62701 0.25077
 H415 H 1.12899 0.67767 0.25084
 H416 H 1.12755 0.82121 0.24610
 H417 H 1.34466 0.65752 0.31300
 H418 H 1.26297 0.74049 0.39543
 H419 H 1.24497 0.76060 0.10779
 H420 H 1.16181 0.84157 0.19000
 Zr421 Zr 0.74428 1.25353 0.17970
 O422 O 0.77156 1.22550 0.12987
 O423 O 0.70456 1.29241 0.15157
 O424 O 0.70206 1.21987 0.14695
 O425 O 0.82234 1.31959 0.19417
 O426 O 0.67466 1.17828 0.19380
 O427 O 0.78002 1.29395 0.14697
 O428 O 0.67227 1.32207 0.20389
 O429 O 0.69406 1.25012 0.21687
 O430 O 0.74727 1.30279 0.21779
 O431 O 0.74883 1.19860 0.20944
 O432 O 0.79981 1.24939 0.20931
 Zr433 Zr 0.75608 1.24062 0.31857
 Zr434 Zr 0.70004 1.19678 0.24881
 Zr435 Zr 0.80052 1.29744 0.24957
 Zr436 Zr 0.69864 1.29821 0.25614
 O437 O 0.86338 1.29292 0.24849
 O438 O 0.63642 1.28811 0.26045
 O439 O 0.75190 1.29613 0.28939
 O440 O 0.70115 1.24502 0.28855
 O441 O 0.75332 1.19091 0.28103
 O442 O 0.80596 1.24415 0.28105
 C443 C 0.67873 1.31647 0.16616
 C444 C 0.80949 1.31610 0.15775
 C445 C 0.67859 1.19137 0.15755
 O446 O 0.63740 1.20158 0.25368
 O447 O 0.68146 1.17082 0.30365
 O448 O 0.72264 1.19809 0.35089
 C449 C 0.69441 1.17452 0.33997
 O450 O 0.82488 1.17908 0.18520
 Zr451 Zr 0.80195 1.19606 0.24224
 O452 O 0.79478 1.20088 0.34682
 O453 O 0.70534 1.13446 0.24355
 O454 O 0.79240 1.13410 0.23652
 O455 O 0.86469 1.20357 0.24146
 O456 O 0.82460 1.16866 0.29457
 C457 C 0.81852 1.17476 0.33231
 O458 O 0.72712 1.26732 0.36821
 O459 O 0.79595 1.36005 0.25111
 O460 O 0.79591 1.27605 0.35204
 O461 O 0.82162 1.31897 0.30544
 O462 O 0.70592 1.36071 0.25832
 O463 O 0.68045 1.32006 0.31322
 C464 C 0.81774 1.30584 0.34172
 H465 H 0.74666 1.32840 0.20319
 H466 H 0.67861 1.24415 0.30774
 H467 H 0.83146 1.24347 0.29598
 H468 H 0.74831 1.17631 0.19007
 H469 H 0.62295 1.31395 0.25629
 H470 H 0.62657 1.17426 0.25193
 H471 H 0.67800 1.12343 0.24525
 H472 H 0.81838 1.12080 0.24080
 H473 H 0.67925 1.37280 0.25474
 H474 H 0.82347 1.37063 0.24975
 H475 H 0.87394 1.32033 0.25047
 H476 H 0.87681 1.17700 0.24504
 H477 H 0.65731 1.33793 0.30975
 H478 H 0.73871 1.25552 0.39295
 H479 H 0.75979 1.23733 0.10524
 H480 H 0.84333 1.15642 0.18860
 O481 O 0.44198 1.07291 0.06650
 O482 O 0.39739 1.03385 0.03212
 C483 C 0.40600 1.06184 0.05754
 O484 O 0.55270 1.06968 -0.07588
 O485 O 0.59718 1.03249 -0.03926
 C486 C 0.58865 1.05885 -0.06648
 O487 O 0.44210 1.07330 -0.07129
 O488 O 0.39747 1.03373 -0.03742
 C489 C 0.40611 1.06225 -0.06233
 O490 O 0.55284 1.07054 0.06947
 O491 O 0.59736 1.03314 0.03320
 C492 C 0.58879 1.05982 0.06011
 Zr493 Zr 0.49752 1.04997 0.04733
 O494 O 0.50049 1.11274 0.04777
 O495 O 0.49630 1.04645 0.11082
 Zr496 Zr 0.49730 1.04868 -0.05393
 O497 O 0.49800 1.11108 -0.06097
 O498 O 0.49602 1.04066 -0.11696
 O499 O 0.46174 1.05708 -0.00325
 O500 O 0.53231 1.05669 -0.00342
 O501 O 0.55294 0.93059 0.07150
 O502 O 0.59738 0.96701 0.03393
 C503 C 0.58885 0.94121 0.06176
 O504 O 0.44139 0.92412 -0.07000
 O505 O 0.39722 0.96434 -0.03660
 C506 C 0.40545 0.93557 -0.06125
 O507 O 0.55241 0.92796 -0.07415
 O508 O 0.59712 0.96598 -0.03855
 C509 C 0.58839 0.93894 -0.06500
 O510 O 0.44252 0.92684 0.06788
 O511 O 0.39761 0.96508 0.03303
 C512 C 0.40649 0.93723 0.05859
 Zr513 Zr 0.49763 0.94991 0.04836
 O514 O 0.50135 0.88718 0.04857
 O515 O 0.49427 0.95105 0.11196
 Zr516 Zr 0.49702 0.94903 -0.05281
 O517 O 0.49699 0.88644 -0.05792
 O518 O 0.49585 0.95556 -0.11604
 Zr519 Zr 0.43735 0.99931 -0.00241
 Zr520 Zr 0.55735 0.99955 -0.00273
 O521 O 0.53232 0.94229 -0.00217
 O522 O 0.46164 0.94161 -0.00192
 O523 O 0.53322 1.00014 0.05573
 O524 O 0.46192 0.99880 -0.06063
 O525 O 0.46280 0.99993 0.05545
 O526 O 0.53303 0.99881 -0.06130
 H527 H 0.55024 1.08006 -0.00352
 H528 H 0.44364 0.99859 -0.08405
 H529 H 0.55043 0.91912 -0.00155
 H530 H 0.44515 1.00003 0.07936
 H531 H 0.49460 1.06764 -0.12876
 H532 H 0.49452 0.92830 -0.12710
 H533 H 0.50929 0.87564 -0.03323
 H534 H 0.48052 0.87708 0.03014
 H535 H 0.51340 0.97136 0.12143
 H536 H 0.49593 1.07419 0.12067
 H537 H 0.48003 1.12259 0.02878
 H538 H 0.50617 1.12248 -0.03488
 O539 O 1.05513 0.57188 0.56818
 O540 O 1.09905 0.53372 0.53191
 C541 C 1.09091 0.56087 0.55839
 O542 O 0.94385 0.42762 0.56809
 O543 O 0.89899 0.46612 0.53351
 C544 C 0.90782 0.43818 0.55898
 O545 O 1.05440 0.43126 0.57106
 O546 O 1.09861 0.46760 0.53317
 C547 C 1.09024 0.44191 0.56110
 O548 O 0.94403 0.57435 0.56682
 O549 O 0.89915 0.53504 0.53312
 C550 C 0.90796 0.56312 0.55836
 Zr551 Zr 0.99926 0.55074 0.54775
 O552 O 0.99944 0.54504 0.61107
 O553 O 0.99823 0.61345 0.55189
 Zr554 Zr 0.99896 0.45070 0.54836
 O555 O 0.99580 0.45179 0.61197
 O556 O 1.00263 0.38797 0.54864
 O557 O 1.03489 0.50078 0.55559
 O558 O 0.96434 0.50083 0.55589
 O559 O 0.94293 0.57402 0.42855
 O560 O 0.89858 0.53505 0.46347
 C561 C 0.90702 0.56329 0.43816
 O562 O 1.05303 0.42833 0.42597
 O563 O 1.09805 0.46653 0.46083
 C564 C 1.08910 0.43929 0.43467
 O565 O 0.94194 0.42614 0.43055
 O566 O 0.89786 0.46651 0.46398
 C567 C 0.90608 0.43779 0.43927
 O568 O 1.05356 0.56991 0.42339
 O569 O 1.09815 0.53284 0.45996
 C570 C 1.08948 0.55896 0.43261
 Zr571 Zr 0.99827 0.55022 0.44662
 O572 O 0.99330 0.54890 0.38311
 O573 O 1.00216 0.61292 0.44611
 Zr574 Zr 0.99782 0.45022 0.44710
 O575 O 0.99348 0.45472 0.38363
 O576 O 0.99792 0.38768 0.44174
 Zr577 Zr 1.05851 0.50026 0.49681
 Zr578 Zr 0.93870 0.50048 0.49812
 O579 O 0.96312 0.50025 0.43979
 O580 O 1.03372 0.50003 0.43847
 O581 O 0.96305 0.55822 0.49751
 O582 O 1.03327 0.44308 0.49753
 O583 O 1.03375 0.55758 0.49668
 O584 O 0.96272 0.44263 0.49819
 H585 H 0.94674 0.50090 0.57983
 H586 H 1.05124 0.41980 0.49807
 H587 H 0.94484 0.50023 0.41638
 H588 H 1.05193 0.58074 0.49588
 H589 H 0.98130 0.37781 0.53082
 H590 H 1.00821 0.37677 0.46730
 H591 H 1.01955 0.46386 0.37323
 H592 H 1.01586 0.53313 0.37266
 H593 H 0.98332 0.62291 0.46663
 H594 H 1.01440 0.62425 0.52956
 H595 H 0.99873 0.57243 0.62183
 H596 H 1.01623 0.47077 0.62154
 O597 O 1.07327 0.55615 0.07354
 O598 O 1.03512 0.60172 0.03942
 C599 C 1.06262 0.59228 0.06510
 O600 O 1.07252 0.44867 -0.07102
 O601 O 1.03377 0.40406 -0.03620
 C602 C 1.06080 0.41284 -0.06275
 O603 O 1.07928 0.55843 -0.06314
 O604 O 1.04159 0.60263 -0.02725
 C605 C 1.07089 0.59424 -0.05150
 O606 O 1.06909 0.44546 0.07464
 O607 O 1.03217 0.40220 0.03624
 C608 C 1.05837 0.40996 0.06399
 Zr609 Zr 1.04936 0.50132 0.05382
 O610 O 1.11201 0.50135 0.06125
 O611 O 1.04098 0.50080 0.11683
 Zr612 Zr 1.05283 0.50349 -0.04750
 O613 O 1.11571 0.49908 -0.04761
 O614 O 1.04993 0.50730 -0.11092
 O615 O 1.05942 0.53755 0.00425
 O616 O 1.05799 0.46755 0.00256
 O617 O 0.92831 0.44719 0.07181
 O618 O 0.96585 0.40330 0.03503
 C619 C 0.93916 0.41147 0.06212
 O620 O 0.93083 0.56073 -0.06934
 O621 O 0.96926 0.60390 -0.03252
 C622 C 0.94182 0.59621 -0.05899
 O623 O 0.93179 0.45049 -0.07471
 O624 O 0.96649 0.40486 -0.03704
 C625 C 0.94111 0.41432 -0.06503
 O626 O 0.92608 0.55767 0.06980
 O627 O 0.96673 0.60229 0.03730
 C628 C 0.93766 0.59356 0.06163
 Zr629 Zr 0.94925 0.50263 0.05029
 O630 O 0.88631 0.49879 0.04781
 O631 O 0.94784 0.50519 0.11392
 Zr632 Zr 0.95269 0.50490 -0.05084
 O633 O 0.88978 0.50177 -0.05416
 O634 O 0.95709 0.50975 -0.11422
 Zr635 Zr 1.00201 0.56286 0.00272
 Zr636 Zr 1.00033 0.44333 0.00017
 O637 O 0.94327 0.46910 -0.00118
 O638 O 0.94365 0.53956 0.00022
 O639 O 0.99866 0.46620 0.05917
 O640 O 1.00370 0.53940 -0.05583
 O641 O 0.99961 0.53658 0.06021
 O642 O 1.00250 0.46870 -0.05777
 H643 H 1.08103 0.44924 0.00242
 H644 H 1.00529 0.55818 -0.07875
 H645 H 0.91951 0.45163 -0.00197
 H646 H 0.99907 0.55380 0.08434
 H647 H 1.07788 0.50755 -0.12049
 H648 H 0.97443 0.48793 -0.12365
 H649 H 0.87893 0.52228 -0.03598
 H650 H 0.87656 0.52161 0.03189
 H651 H 0.96615 0.48450 0.12412
 H652 H 1.06800 0.50161 0.12879
 H653 H 1.12366 0.48608 0.03880
 H654 H 1.12548 0.51473 -0.02445
 O655 O 0.57225 1.05704 0.57213
 O656 O 0.53361 1.10077 0.53624
 C657 C 0.56151 1.09269 0.56206
 O658 O 0.56927 0.94413 0.43185
 O659 O 0.53184 0.90042 0.46921
 C660 C 0.55817 0.90850 0.44169
 O661 O 0.57358 1.05421 0.43415
 O662 O 0.53393 1.09932 0.46683
 C663 C 0.56252 1.09024 0.44213
 O664 O 0.56946 0.94667 0.57729
 O665 O 0.53230 0.90155 0.54141
 C666 C 0.55892 0.91067 0.56826
 Zr667 Zr 0.54899 1.00142 0.55419
 O668 O 0.61196 0.99855 0.55607
 O669 O 0.54437 1.00385 0.61756
 Zr670 Zr 0.54883 0.99959 0.45299
 O671 O 0.61161 0.99884 0.44731
 O672 O 0.54218 0.99982 0.38975
 O673 O 0.55685 1.03603 0.50289
 O674 O 0.55623 0.96575 0.50428
 O675 O 0.42750 0.94688 0.57765
 O676 O 0.46658 0.90217 0.54372
 C677 C 0.43955 0.91101 0.57032
 O678 O 0.42609 1.05477 0.43222
 O679 O 0.46458 1.09961 0.46690
 C680 C 0.43701 1.09075 0.44097
 O681 O 0.42906 0.94411 0.43142
 O682 O 0.46546 0.90028 0.46970
 C683 C 0.43945 0.90846 0.44192
 O684 O 0.42513 1.05685 0.57174
 O685 O 0.46435 1.10067 0.53644
 C686 C 0.43601 1.09252 0.56181
 Zr687 Zr 0.44848 1.00139 0.55403
 O688 O 0.38553 0.99721 0.55435
 O689 O 0.44988 1.00606 0.61754
 Zr690 Zr 0.44852 0.99969 0.45313
 O691 O 0.38556 0.99535 0.45415
 O692 O 0.44861 1.00200 0.38947
 Zr693 Zr 0.49893 1.06028 0.50239
 Zr694 Zr 0.49882 0.94077 0.50494
 O695 O 0.44134 0.96556 0.50430
 O696 O 0.44078 1.03633 0.50284
 O697 O 0.49878 0.96608 0.56282
 O698 O 0.49887 1.03426 0.44487
 O699 O 0.49880 1.03623 0.56088
 O700 O 0.49867 0.96393 0.44595
 H701 H 0.57960 0.94785 0.50460
 H702 H 0.49912 1.05166 0.42080
 H703 H 0.41798 0.94754 0.50475
 H704 H 0.49877 1.05442 0.58427
 H705 H 0.56950 1.00073 0.37851
 H706 H 0.46798 0.98200 0.37993
 H707 H 0.37511 1.01911 0.46802
 H708 H 0.37513 1.01804 0.53621
 H709 H 0.46847 0.98555 0.62762
 H710 H 0.57206 1.00433 0.62789
 H711 H 0.62223 1.01790 0.53616
 H712 H 0.62261 0.99024 0.47345
 O713 O 0.92781 0.93043 0.44528
 O714 O 0.96580 0.96512 0.39988
 C715 C 0.93790 0.94003 0.40887
 O716 O 0.93396 1.07103 0.55683
 O717 O 0.96895 1.03303 0.60190
 C718 C 0.94380 1.06089 0.59316
 O719 O 0.92872 1.06654 0.44508
 O720 O 0.96617 1.03136 0.39984
 C721 C 0.93852 1.05665 0.40871
 O722 O 0.93230 0.92662 0.55698
 O723 O 0.96824 0.96378 0.60197
 C724 C 0.94215 0.93681 0.59326
 Zr725 Zr 0.95140 0.94832 0.50098
 O726 O 0.88856 0.94521 0.50503
 O727 O 0.95625 0.88581 0.49934
 Zr728 Zr 0.95209 1.04832 0.50089
 O729 O 0.88925 1.05102 0.50549
 O730 O 0.95660 1.11086 0.49855
 O731 O 0.94350 0.99838 0.46513
 O732 O 0.94430 0.99839 0.53598
 O733 O 1.07079 0.92576 0.55627
 O734 O 1.03587 0.96341 0.60151
 C735 C 1.06127 0.93577 0.59270
 O736 O 1.07370 1.06655 0.44432
 O737 O 1.03590 1.03125 0.39939
 C738 C 1.06333 1.05687 0.40805
 O739 O 1.07051 1.07023 0.55610
 O740 O 1.03547 1.03260 0.60152
 C741 C 1.06091 1.06014 0.59251
 O742 O 1.07493 0.93083 0.44491
 O743 O 1.03633 0.96496 0.39970
 C744 C 1.06458 0.94029 0.40855
 Zr745 Zr 1.05076 0.94760 0.50061
 O746 O 1.11331 0.94070 0.50236
 O747 O 1.04291 0.88537 0.49908
 Zr748 Zr 1.05187 1.04752 0.50038
 O749 O 1.11485 1.04685 0.50413
 O750 O 1.05272 1.11022 0.49670
 Zr751 Zr 1.00125 0.99804 0.44019
 Zr752 Zr 1.00179 0.99801 0.56115
 O753 O 1.05909 0.99757 0.53553
 O754 O 1.05928 0.99757 0.46464
 O755 O 1.00118 0.94019 0.53712
 O756 O 1.00179 1.05531 0.46529
 O757 O 1.00094 0.94068 0.46509
 O758 O 1.00218 1.05572 0.53669
 H759 H 0.92070 0.99868 0.55389
 H760 H 1.00169 1.07875 0.44724
 H761 H 1.08274 0.99760 0.55337
 H762 H 1.00087 0.91757 0.44667
 H763 H 0.92891 1.12103 0.49866
 H764 H 1.03160 1.12017 0.51483
 H765 H 1.12499 1.03167 0.48081
 H766 H 1.12479 0.96767 0.50321
 H767 H 1.07003 0.87389 0.49762
 H768 H 0.92860 0.87548 0.49916
 H769 H 0.87771 0.96553 0.48657
 H770 H 0.87816 1.03238 0.48544
 O771 O 0.42981 0.57073 -0.05528
 O772 O 0.46572 0.53422 -0.10082
 C773 C 0.43944 0.56094 -0.09174
 O774 O 0.57255 0.56804 0.05544
 O775 O 0.53548 0.53211 0.10059
 C776 C 0.56285 0.55782 0.09177
 O777 O 0.56695 0.57362 -0.05605
 O778 O 0.53257 0.53532 -0.10124
 C779 C 0.55731 0.56350 -0.09238
 O780 O 0.42748 0.56623 0.05652
 O781 O 0.46581 0.53106 0.10115
 C782 C 0.43812 0.55646 0.09272
 Zr783 Zr 0.44939 0.54798 0.00024
 O784 O 0.44806 0.61065 0.00417
 O785 O 0.38643 0.54624 -0.00365
 Zr786 Zr 0.54924 0.55016 -0.00037
 O787 O 0.54388 0.61260 0.00238
 O788 O 0.61201 0.55407 -0.00499
 O789 O 0.49898 0.55711 -0.03610
 O790 O 0.49948 0.55615 0.03530
 O791 O 0.42875 0.42948 0.05521
 O792 O 0.46634 0.46461 0.10046
 C793 C 0.43873 0.43922 0.09157
 O794 O 0.57032 0.42874 -0.05693
 O795 O 0.53400 0.46575 -0.10173
 C796 C 0.56024 0.43884 -0.09318
 O797 O 0.57404 0.43119 0.05481
 O798 O 0.53615 0.46558 0.10032
 C799 C 0.56380 0.44034 0.09125
 O800 O 0.43329 0.42623 -0.05685
 O801 O 0.46744 0.46510 -0.10191
 C802 C 0.44272 0.43686 -0.09318
 Zr803 Zr 0.45141 0.44828 -0.00054
 O804 O 0.45309 0.38560 0.00395
 O805 O 0.38856 0.44587 -0.00513
 Zr806 Zr 0.55147 0.45045 -0.00091
 O807 O 0.55353 0.38777 0.00300
 O808 O 0.61437 0.45265 -0.00565
 Zr809 Zr 0.50007 0.49959 -0.06076
 Zr810 Zr 0.50073 0.49867 0.06007
 O811 O 0.50167 0.44163 0.03438
 O812 O 0.50143 0.44163 -0.03677
 O813 O 0.44260 0.49770 0.03591
 O814 O 0.55765 0.50075 -0.03582
 O815 O 0.44272 0.49825 -0.03522
 O816 O 0.55856 0.50017 0.03532
 H817 H 0.49937 0.57942 0.05350
 H818 H 0.58109 0.50149 -0.05393
 H819 H 0.50196 0.41807 0.05225
 H820 H 0.41912 0.49788 -0.05313
 H821 H 0.62331 0.53418 0.01368
 H822 H 0.62468 0.46686 0.01821
 H823 H 0.53611 0.37707 -0.01840
 H824 H 0.46826 0.37549 -0.01939
 H825 H 0.37757 0.46376 0.01563
 H826 H 0.37640 0.53112 0.01980
 H827 H 0.46870 0.62097 -0.01437
 H828 H 0.57143 0.62323 0.00242
 C829 C 0.34192 1.17363 0.12545
 C830 C 0.34669 1.13438 0.12227
 C831 C 0.37624 1.11774 0.09413
 C832 C 0.37297 1.08090 0.07948
 H833 H 0.32974 1.11449 0.14142
 H834 H 0.40198 1.13569 0.08638
 H835 H 0.35669 1.19320 0.10424
 H836 H 0.34611 1.06384 0.08496
 C837 C 0.84364 0.67411 0.62742
 C838 C 0.84874 0.63493 0.62411
 C839 C 0.87837 0.61863 0.59584
 C840 C 0.87506 0.58200 0.58069
 H841 H 0.83188 0.61483 0.64313
 H842 H 0.90410 0.63668 0.58831
 H843 H 0.85830 0.69385 0.60629
 H844 H 0.84818 0.56491 0.58599
 C845 C 0.65507 0.82928 0.12699
 C846 C 0.64909 0.86850 0.12553
 C847 C 0.61961 0.88552 0.09754
 C848 C 0.62186 0.92307 0.08451
 H849 H 0.66489 0.88797 0.14601
 H850 H 0.59478 0.86704 0.08824
 H851 H 0.64144 0.81033 0.10453
 H852 H 0.64794 0.94088 0.09116
 C853 C 1.15744 0.33072 0.62593
 C854 C 1.15104 0.36983 0.62469
 C855 C 1.12135 0.38655 0.59682
 C856 C 1.12339 0.42403 0.58372
 H857 H 1.16660 0.38941 0.64526
 H858 H 1.09659 0.36790 0.58767
 H859 H 1.14400 0.31173 0.60338
 H860 H 1.14941 0.44199 0.59023
 C861 C 0.65987 1.17160 -0.12615
 C862 C 0.65123 1.13279 -0.12679
 C863 C 0.62128 1.11567 -0.09923
 C864 C 0.62183 1.07727 -0.08885
 H865 H 0.66526 1.11365 -0.14882
 H866 H 0.59764 1.13467 -0.08820
 H867 H 0.64798 1.19006 -0.10234
 H868 H 0.64691 1.05885 -0.09727
 C869 C 1.15987 0.67178 0.37407
 C870 C 1.15154 0.63301 0.37301
 C871 C 1.12184 0.61565 0.40041
 C872 C 1.12244 0.57718 0.41010
 H873 H 1.16566 0.61413 0.35082
 H874 H 1.09836 0.63455 0.41198
 H875 H 1.14792 0.69003 0.39803
 H876 H 1.14735 0.55875 0.40120
 C877 C 0.33125 0.82321 -0.12121
 C878 C 0.34162 0.86172 -0.12120
 C879 C 0.37153 0.87793 -0.09275
 C880 C 0.37184 0.91649 -0.08270
 H881 H 0.32938 0.88143 -0.14385
 H882 H 0.39469 0.85845 -0.08153
 H883 H 0.34138 0.80411 -0.09704
 H884 H 0.34713 0.93518 -0.09167
 C885 C 0.84179 0.32461 0.37349
 C886 C 0.84638 0.36393 0.37628
 C887 C 0.87581 0.38107 0.40430
 C888 C 0.87281 0.41830 0.41798
 H889 H 0.82954 0.38350 0.35675
 H890 H 0.90140 0.36321 0.41257
 H891 H 0.85648 0.30536 0.39502
 H892 H 0.84613 0.43538 0.41197
 C893 C 1.17301 0.34553 0.12703
 C894 C 1.13342 0.34962 0.12471
 C895 C 1.11541 0.37912 0.09748
 C896 C 1.07744 0.37662 0.08530
 H897 H 1.11421 0.33222 0.14419
 H898 H 1.13338 0.40438 0.08839
 H899 H 1.19207 0.36074 0.10565
 H900 H 1.06000 0.35029 0.09178
 C901 C 0.67490 0.84624 0.62867
 C902 C 0.63543 0.85162 0.62799
 C903 C 0.61699 0.88064 0.60063
 C904 C 0.57852 0.87825 0.59033
 H905 H 0.61657 0.83540 0.64882
 H906 H 0.63496 0.90521 0.58978
 H907 H 0.69356 0.86012 0.60604
 H908 H 0.56109 0.85240 0.59860
 C909 C 1.16770 0.64187 -0.14819
 C910 C 1.14995 0.64887 -0.11063
 C911 C 1.12488 0.61912 -0.09479
 C912 C 1.09541 0.62544 -0.06543
 H913 H 1.15192 0.67780 -0.09656
 H914 H 1.12662 0.58986 -0.10824
 H915 H 1.15862 0.61472 -0.16332
 H916 H 1.09065 0.65517 -0.05401
 C917 C 0.67639 1.14921 0.37117
 C918 C 0.63696 1.14739 0.37681
 C919 C 0.61938 1.11820 0.40484
 C920 C 0.58270 1.12267 0.42014
 H921 H 0.61744 1.16677 0.35978
 H922 H 0.63638 1.09175 0.41190
 H923 H 0.69609 1.13196 0.39019
 H924 H 0.56659 1.15009 0.41515
 C925 C 0.82283 0.65599 0.12752
 C926 C 0.86238 0.65211 0.12420
 C927 C 0.88006 0.62293 0.09635
 C928 C 0.91765 0.62628 0.08313
 H929 H 0.88191 0.66969 0.14312
 H930 H 0.86235 0.59734 0.08781
 H931 H 0.80338 0.64065 0.10665
 H932 H 0.93456 0.65297 0.08946
 C933 C 0.32100 1.15409 0.62729
 C934 C 0.36052 1.15151 0.62301
 C935 C 0.37841 1.12203 0.59580
 C936 C 0.41582 1.12565 0.58225
 H937 H 0.37991 1.17028 0.64088
 H938 H 0.36110 1.09588 0.58819
 H939 H 0.30146 1.13747 0.60754
 H940 H 0.43237 1.15277 0.58759
 C941 C 0.82643 0.34832 -0.12807
 C942 C 0.86584 0.35475 -0.12701
 C943 C 0.88363 0.38424 -0.09946
 C944 C 0.92179 0.38197 -0.08777
 H945 H 0.88521 0.33883 -0.14749
 H946 H 0.86539 0.40885 -0.08943
 H947 H 0.80735 0.36188 -0.10568
 H948 H 0.93928 0.35599 -0.09520
 C949 C 0.32662 0.84610 0.37427
 C950 C 0.36610 0.84926 0.37839
 C951 C 0.38342 0.87867 0.40601
 C952 C 0.42060 0.87540 0.42013
 H953 H 0.38574 0.83107 0.36026
 H954 H 0.36566 0.90441 0.41383
 H955 H 0.30697 0.86212 0.39437
 H956 H 0.43764 0.84863 0.41481
 C957 C 1.15452 1.15770 0.36157
 C958 C 1.12951 1.12877 0.35104
 C959 C 1.10883 1.10686 0.38267
 C960 C 1.08356 1.07729 0.37483
 H961 H 1.12476 1.12110 0.31973
 H962 H 1.11458 1.11553 0.41356
 H963 H 1.15904 1.16452 0.39314
 H964 H 1.07722 1.06870 0.34407
 C965 C 0.65261 0.66089 -0.13741
 C966 C 0.62472 0.63488 -0.14840
 C967 C 0.60231 0.61421 -0.11716
 C968 C 0.57655 0.58516 -0.12538
 H969 H 0.61912 0.62835 -0.17983
 H970 H 0.60815 0.62249 -0.08617
 H971 H 0.65793 0.66660 -0.10573
 H972 H 0.57056 0.57662 -0.15623
 C973 C 0.85013 1.15968 0.63952
 C974 C 0.87719 1.13265 0.65017
 C975 C 0.89890 1.11159 0.61856
 C976 C 0.92455 1.08231 0.62639
 H977 H 0.88264 1.12566 0.68154
 H978 H 0.89287 1.12001 0.58764
 H979 H 0.84498 1.16578 0.60788
 H980 H 0.93084 1.07368 0.65716
 C981 C 0.34807 0.65761 0.14000
 C982 C 0.37259 0.62825 0.15039
 C983 C 0.39302 0.60642 0.11859
 C984 C 0.41798 0.57656 0.12614
 H985 H 0.37708 0.62019 0.18166
 H986 H 0.38741 0.61548 0.08777
 H987 H 0.34380 0.66477 0.10844
 H988 H 0.42429 0.56762 0.15682
 C989 C 1.15708 0.83826 0.63629
 C990 C 1.12770 0.86577 0.64660
 C991 C 1.10828 0.88641 0.61629
 C992 C 1.07989 0.91564 0.62414
 H993 H 1.12036 0.87159 0.67783
 H994 H 1.11604 0.87959 0.58537
 H995 H 1.16401 0.83398 0.60465
 H996 H 1.07237 0.92307 0.65496
 C997 C 0.65571 0.33941 0.13697
 C998 C 0.63064 0.36827 0.14757
 C999 C 0.60993 0.39047 0.11607
 C1000 C 0.58441 0.41974 0.12419
 H1001 H 0.62581 0.37566 0.17893
 H1002 H 0.61575 0.38219 0.08510
 H1003 H 0.66033 0.33285 0.10536
 H1004 H 0.57801 0.42789 0.15505
 C1005 C 0.84173 0.84344 0.36288
 C1006 C 0.86801 0.87129 0.35234
 C1007 C 0.88941 0.89258 0.38392
 C1008 C 0.91658 0.92042 0.37587
 H1009 H 0.87359 0.87829 0.32099
 H1010 H 0.88278 0.88475 0.41488
 H1011 H 0.83658 0.83710 0.39448
 H1012 H 0.92363 0.92823 0.34502
 C1013 C 0.34778 0.33954 -0.13896
 C1014 C 0.37547 0.36585 -0.14978
 C1015 C 0.39791 0.38620 -0.11837
 C1016 C 0.42330 0.41566 -0.12633
 H1017 H 0.38082 0.37292 -0.18116
 H1018 H 0.39242 0.37731 -0.08747
 H1019 H 0.34263 0.33341 -0.10731
 H1020 H 0.42897 0.42479 -0.15710
 C1021 C 1.17248 0.34541 -0.12725
 C1022 C 1.13334 0.35256 -0.12634
 C1023 C 1.11669 0.38192 -0.09820
 C1024 C 1.07881 0.38019 -0.08582
 H1025 H 1.11360 0.33764 -0.14727
 H1026 H 1.13566 0.40607 -0.08822
 H1027 H 1.19164 0.35813 -0.10438
 H1028 H 1.06054 0.35469 -0.09326
 C1029 C 0.66902 0.84228 0.37422
 C1030 C 0.62967 0.84799 0.37666
 C1031 C 0.61328 0.87766 0.40475
 C1032 C 0.57612 0.87528 0.41922
 H1033 H 0.60965 0.83190 0.35693
 H1034 H 0.63189 0.90275 0.41284
 H1035 H 0.68850 0.85627 0.39602
 H1036 H 0.55829 0.84902 0.41366
 C1037 C 0.82852 0.65913 -0.12528
 C1038 C 0.86805 0.65574 -0.12199
 C1039 C 0.88547 0.62642 -0.09420
 C1040 C 0.92273 0.62960 -0.08020
 H1041 H 0.88751 0.67334 -0.14101
 H1042 H 0.86769 0.60065 -0.08629
 H1043 H 0.80933 0.64360 -0.10424
 H1044 H 0.93985 0.65636 -0.08565
 C1045 C 0.32610 1.15667 0.37264
 C1046 C 0.36534 1.15039 0.37509
 C1047 C 0.38151 1.12069 0.40337
 C1048 C 0.41847 1.12351 0.41821
 H1049 H 0.38555 1.16637 0.35542
 H1050 H 0.36304 1.09544 0.41133
 H1051 H 0.30640 1.14287 0.39442
 H1052 H 0.43596 1.15001 0.41258
 C1053 C 1.17608 0.65791 0.12786
 C1054 C 1.13693 0.65109 0.12735
 C1055 C 1.11969 0.62198 0.09946
 C1056 C 1.08183 0.62456 0.08752
 H1057 H 1.11756 0.66617 0.14848
 H1058 H 1.13801 0.59739 0.08949
 H1059 H 1.19497 0.64509 0.10485
 H1060 H 1.06433 0.65052 0.09504
 C1061 C 0.67521 1.15675 0.62732
 C1062 C 0.63573 1.15243 0.62449
 C1063 C 0.61836 1.12281 0.59698
 C1064 C 0.58109 1.12595 0.58303
 H1065 H 0.61617 1.16968 0.64363
 H1066 H 0.63609 1.09704 0.58925
 H1067 H 0.69449 1.14163 0.60616
 H1068 H 0.56416 1.15278 0.58839
 C1069 C 0.82803 0.34113 0.12641
 C1070 C 0.86709 0.34917 0.12551
 C1071 C 0.88334 0.37945 0.09775
 C1072 C 0.92099 0.37812 0.08448
 H1073 H 0.88708 0.33432 0.14624
 H1074 H 0.86429 0.40392 0.08889
 H1075 H 0.80870 0.35385 0.10367
 H1076 H 0.93919 0.35232 0.09082
 C1077 C 0.32932 0.84277 0.63418
 C1078 C 0.36936 0.85430 0.63610
 C1079 C 0.38432 0.88218 0.60871
 C1080 C 0.42305 0.88015 0.59318
 H1081 H 0.38956 0.83870 0.65605
 H1082 H 0.36408 0.90407 0.59626
 H1083 H 0.31334 0.84963 0.60662
 H1084 H 0.43947 0.85262 0.59618
 C1085 C 0.34482 1.17715 -0.12799
 C1086 C 0.34768 1.13774 -0.12422
 C1087 C 0.37700 1.11980 -0.09670
 C1088 C 0.37318 1.08250 -0.08329
 H1089 H 0.32925 1.11853 -0.14263
 H1090 H 0.40313 1.13702 -0.08865
 H1091 H 0.36105 1.19640 -0.10766
 H1092 H 0.34603 1.06604 -0.08910
 C1093 C 0.84543 0.67820 0.37254
 C1094 C 0.84817 0.63879 0.37655
 C1095 C 0.87768 0.62083 0.40389
 C1096 C 0.87393 0.58353 0.41741
 H1097 H 0.82950 0.61956 0.35841
 H1098 H 0.90390 0.63802 0.41169
 H1099 H 0.86193 0.69754 0.39257
 H1100 H 0.84670 0.56711 0.41188
 C1101 C 0.65362 1.17310 0.12609
 C1102 C 0.64874 1.13372 0.12329
 C1103 C 0.61917 1.11638 0.09545
 C1104 C 0.62181 1.07885 0.08231
 H1105 H 0.66574 1.11412 0.14265
 H1106 H 0.59391 1.13443 0.08660
 H1107 H 0.63888 1.19253 0.10478
 H1108 H 0.64825 1.06154 0.08870
 C1109 C 1.16016 0.67589 0.61629
 C1110 C 1.15301 0.63676 0.61562
 C1111 C 1.12373 0.61905 0.58789
 C1112 C 1.12430 0.58023 0.57934
 H1113 H 1.16748 0.61758 0.63739
 H1114 H 1.10011 0.63763 0.57604
 H1115 H 1.14803 0.69495 0.59305
 H1116 H 1.14925 0.56210 0.58880
 C1117 C 0.65306 0.82420 -0.12696
 C1118 C 0.64808 0.86355 -0.12539
 C1119 C 0.61871 0.88150 -0.09803
 C1120 C 0.62127 0.91953 -0.08667
 H1121 H 0.66487 0.88268 -0.14549
 H1122 H 0.59369 0.86356 -0.08815
 H1123 H 0.63858 0.80522 -0.10502
 H1124 H 0.64751 0.93684 -0.09405
 C1125 C 1.15242 0.32399 0.37188
 C1126 C 1.14794 0.36341 0.37375
 C1127 C 1.11884 0.38159 0.40134
 C1128 C 1.12177 0.41957 0.41287
 H1129 H 1.16492 0.38245 0.35374
 H1130 H 1.09368 0.36385 0.41122
 H1131 H 1.13776 0.30506 0.39374
 H1132 H 1.14814 0.43667 0.40544
 C1133 C 0.35104 0.82290 0.12956
 C1134 C 0.35027 0.86196 0.12269
 C1135 C 0.37911 0.88032 0.09500
 C1136 C 0.37390 0.91681 0.07992
 H1137 H 0.32928 0.88061 0.13868
 H1138 H 0.40615 0.86407 0.08817
 H1139 H 0.37011 0.80383 0.11177
 H1140 H 0.34604 0.93234 0.08457
 C1141 C 0.84905 0.32364 0.62751
 C1142 C 0.85055 0.36299 0.62248
 C1143 C 0.87954 0.38104 0.59466
 C1144 C 0.87513 0.41799 0.58045
 H1145 H 0.83125 0.38207 0.64005
 H1146 H 0.90596 0.36418 0.58697
 H1147 H 0.86621 0.30437 0.60804
 H1148 H 0.84774 0.43411 0.58588
 C1149 C 1.15588 1.15795 0.63787
 C1150 C 1.12894 1.13086 0.64869
 C1151 C 1.10779 1.10915 0.61728
 C1152 C 1.08070 1.08130 0.62548
 H1153 H 1.12263 1.12482 0.68010
 H1154 H 1.11499 1.11628 0.58628
 H1155 H 1.16161 1.16346 0.60621
 H1156 H 1.07337 1.07388 0.65635
 C1157 C 0.65914 0.65420 0.13780
 C1158 C 0.63313 0.62610 0.14841
 C1159 C 0.61249 0.60403 0.11687
 C1160 C 0.58414 0.57735 0.12487
 H1161 H 0.62667 0.61999 0.17978
 H1162 H 0.62034 0.61068 0.08591
 H1163 H 0.66482 0.65997 0.10619
 H1164 H 0.57605 0.57054 0.15569
 C1165 C 1.16332 0.84665 0.36289
 C1166 C 1.13666 0.87396 0.35209
 C1167 C 1.11561 0.89575 0.38352
 C1168 C 1.08628 0.92125 0.37547
 H1169 H 1.12988 0.87953 0.32069
 H1170 H 1.12397 0.88980 0.41448
 H1171 H 1.16922 0.84134 0.39455
 H1172 H 1.07767 0.92737 0.34465
 C1173 C 0.65945 0.34538 -0.13902
 C1174 C 0.63131 0.37122 -0.14990
 C1175 C 0.60961 0.39250 -0.11847
 C1176 C 0.58064 0.41852 -0.12641
 H1177 H 0.62419 0.37629 -0.18131
 H1178 H 0.61789 0.38641 -0.08752
 H1179 H 0.66575 0.34068 -0.10734
 H1180 H 0.57228 0.42508 -0.15721
 C1181 C 0.84021 1.15077 0.36169
 C1182 C 0.86716 1.12355 0.35142
 C1183 C 0.88815 1.10203 0.38325
 C1184 C 0.91706 1.07597 0.37552
 H1185 H 0.87412 1.11777 0.32012
 H1186 H 0.88001 1.10845 0.41415
 H1187 H 0.83405 1.15620 0.39326
 H1188 H 0.92539 1.06934 0.34475
 C1189 C 0.33498 0.64893 -0.13900
 C1190 C 0.36579 0.62581 -0.14881
 C1191 C 0.38729 0.60459 -0.11704
 C1192 C 0.41850 0.58121 -0.12474
 H1193 H 0.37559 0.62325 -0.17977
 H1194 H 0.37719 0.60851 -0.08630
 H1195 H 0.32587 0.65125 -0.10777
 H1196 H 0.42831 0.57654 -0.15544
 C1197 C 0.84112 0.84579 0.63906
 C1198 C 0.86984 0.87094 0.64982
 C1199 C 0.89159 0.89197 0.61839
 C1200 C 0.92154 0.91673 0.62640
 H1201 H 0.87758 0.87542 0.68117
 H1202 H 0.88261 0.88672 0.58749
 H1203 H 0.83428 0.84146 0.60744
 H1204 H 0.93045 0.92257 0.65718
 C1205 C 0.33836 0.34688 0.13719
 C1206 C 0.36599 0.37329 0.14793
 C1207 C 0.38730 0.39495 0.11652
 C1208 C 0.41722 0.41979 0.12460
 H1209 H 0.37336 0.37820 0.17929
 H1210 H 0.37849 0.38962 0.08558
 H1211 H 0.33189 0.34214 0.10556
 H1212 H 0.42611 0.42547 0.15541
   
