data_POSCAR
  _audit_creation_date              2014-09-24
  _audit_creation_method            'ToBaCCo'
  _symmetry_space_group_name_H-M    'P1'
  _symmetry_Int_Tables_number       1
  _symmetry_cell_setting            triclinic
  loop_
  _symmetry_equiv_pos_as_xyz
 x,y,z
_cell_length_a 47.2063
_cell_length_b 48.8629
_cell_length_c 40.2239
_cell_angle_alpha 89.977500
_cell_angle_beta 89.759900
_cell_angle_gamma 89.983000
loop_
  _atom_site_label
  _atom_site_type_symbol
  _atom_site_fract_x
  _atom_site_fract_y
  _atom_site_fract_z
C1 C 0.27158 0.27835 0.23318
 C2 C 0.25014 0.26400 0.24991
 C3 C 0.22871 0.27837 0.26664
 C4 C 0.22871 0.30713 0.26718
 C5 C 0.25016 0.32128 0.24991
 C6 C 0.27160 0.30711 0.23264
 C7 C 0.25013 0.23384 0.24992
 C8 C 0.27203 0.21945 0.26553
 C9 C 0.27203 0.19069 0.26611
 C10 C 0.25009 0.17654 0.24995
 C11 C 0.22816 0.19073 0.23378
 C12 C 0.22820 0.21949 0.23432
 H13 H 0.28793 0.26698 0.22020
 H14 H 0.21236 0.26701 0.27963
 H15 H 0.28876 0.23082 0.27767
 H16 H 0.21149 0.23088 0.22218
 H17 H 0.25017 0.34343 0.24990
 H18 H 0.25007 0.15438 0.24997
 C19 C 0.77128 0.77948 0.23302
 C20 C 0.74998 0.76513 0.24993
 C21 C 0.72866 0.77944 0.26687
 C22 C 0.72856 0.80825 0.26756
 C23 C 0.74995 0.82240 0.24998
 C24 C 0.77136 0.80829 0.23238
 C25 C 0.75000 0.73497 0.24992
 C26 C 0.77185 0.72060 0.26568
 C27 C 0.77190 0.69185 0.26622
 C28 C 0.75005 0.67767 0.24991
 C29 C 0.72818 0.69184 0.23360
 C30 C 0.72818 0.72060 0.23415
 H31 H 0.78748 0.76795 0.21995
 H32 H 0.71248 0.76788 0.27992
 H33 H 0.78850 0.73199 0.27794
 H34 H 0.71151 0.73198 0.22190
 H35 H 0.74994 0.84456 0.25000
 H36 H 0.75007 0.65552 0.24990
 C37 C 0.77128 0.27841 0.73412
 C38 C 0.74992 0.26409 0.75098
 C39 C 0.72855 0.27846 0.76780
 C40 C 0.72847 0.30729 0.76839
 C41 C 0.74994 0.32136 0.75087
 C42 C 0.77130 0.30715 0.73352
 C43 C 0.74993 0.23392 0.75102
 C44 C 0.77178 0.21958 0.76679
 C45 C 0.77189 0.19074 0.76746
 C46 C 0.74994 0.17663 0.75104
 C47 C 0.72808 0.19083 0.73473
 C48 C 0.72811 0.21957 0.73529
 H49 H 0.78758 0.26702 0.72107
 H50 H 0.71231 0.26694 0.78082
 H51 H 0.78837 0.23112 0.77895
 H52 H 0.71144 0.23096 0.72303
 H53 H 0.75010 0.34352 0.75067
 H54 H 0.74979 0.15447 0.75090
 C55 C 0.27173 0.77909 0.73280
 C56 C 0.25032 0.76473 0.74957
 C57 C 0.22889 0.77908 0.76628
 C58 C 0.22885 0.80782 0.76681
 C59 C 0.25026 0.82201 0.74951
 C60 C 0.27179 0.80791 0.73212
 C61 C 0.25032 0.73457 0.74960
 C62 C 0.27224 0.72020 0.76523
 C63 C 0.27226 0.69144 0.76582
 C64 C 0.25032 0.67727 0.74967
 C65 C 0.22838 0.69144 0.73349
 C66 C 0.22841 0.72020 0.73401
 H67 H 0.28801 0.76755 0.71988
 H68 H 0.21256 0.76770 0.77929
 H69 H 0.28896 0.73158 0.77736
 H70 H 0.21169 0.73158 0.72185
 H71 H 0.25008 0.84417 0.74965
 H72 H 0.25032 0.65512 0.74969
 C73 C 0.03791 0.04251 0.01362
 H74 H 0.03865 0.04392 -0.01321
 C75 C 0.05486 0.05967 0.03287
 H76 H 0.06864 0.07421 0.02052
 C77 C 0.01895 0.02168 0.06202
 H78 H 0.00472 0.00707 0.07332
 C79 C 0.03554 0.03844 0.08225
 H80 H 0.03401 0.03626 0.10898
 N81 N 0.02082 0.02364 0.02835
 C82 C 0.01222 -0.04074 -0.04618
 H83 H -0.01058 -0.04205 -0.04829
 C84 C 0.02949 -0.05789 -0.06530
 H85 H 0.01973 -0.07230 -0.08218
 C86 C 0.05245 -0.02044 -0.02131
 H87 H 0.06139 -0.00614 -0.00380
 C88 C 0.07049 -0.03719 -0.03986
 H89 H 0.09315 -0.03525 -0.03656
 Zn90 Zn -0.00057 0.00069 -0.00001
 N91 N 0.02390 -0.02216 -0.02513
 C92 C -0.02008 0.02191 -0.06195
 N93 N -0.02197 0.02375 -0.02827
 C94 C -0.03906 0.04258 -0.01347
 C95 C -0.05600 0.05982 -0.03265
 C96 C -0.03666 0.03876 -0.08211
 C97 C -0.01334 -0.04089 0.04600
 C98 C -0.03060 -0.05809 0.06507
 C99 C -0.07162 -0.03729 0.03974
 C100 C -0.05360 -0.02048 0.02124
 N101 N -0.02504 -0.02224 0.02503
 H102 H -0.00585 0.00733 -0.07331
 H103 H -0.03981 0.04389 0.01337
 H104 H -0.06978 0.07433 -0.02025
 H105 H -0.03512 0.03669 -0.10885
 H106 H 0.00946 -0.04222 0.04808
 H107 H -0.02084 -0.07256 0.08188
 H108 H -0.09428 -0.03532 0.03647
 H109 H -0.06254 -0.00612 0.00379
 C110 C 0.05909 -0.05612 -0.06243
 C111 C 0.05405 0.05756 0.06770
 C112 C -0.06021 -0.05629 0.06223
 C113 C -0.05517 0.05785 -0.06748
 C114 C 0.03837 0.54262 0.51365
 H115 H 0.03909 0.54399 0.48682
 C116 C 0.05530 0.55983 0.53285
 H117 H 0.06905 0.57437 0.52046
 C118 C 0.01944 0.52185 0.56211
 H119 H 0.00523 0.50724 0.57346
 C120 C 0.03602 0.53866 0.58229
 H121 H 0.03450 0.53653 0.60903
 N122 N 0.02130 0.52375 0.52844
 C123 C 0.01258 0.45928 0.45407
 H124 H -0.01023 0.45797 0.45204
 C125 C 0.02979 0.44206 0.43497
 H126 H 0.01999 0.42761 0.41818
 C127 C 0.05288 0.47961 0.47876
 H128 H 0.06185 0.49395 0.49619
 C129 C 0.07086 0.46280 0.46021
 H130 H 0.09353 0.46473 0.46345
 Zn131 Zn -0.00012 0.50077 0.50016
 N132 N 0.02432 0.47789 0.47503
 C133 C -0.01963 0.52195 0.43821
 N134 N -0.02155 0.52379 0.47189
 C135 C -0.03865 0.54262 0.48667
 C136 C -0.05556 0.55987 0.46747
 C137 C -0.03618 0.53880 0.41803
 C138 C -0.01277 0.45921 0.54619
 C139 C -0.02997 0.44196 0.56527
 C140 C -0.07106 0.46271 0.54005
 C141 C -0.05309 0.47956 0.52153
 N142 N -0.02453 0.47785 0.52526
 H143 H -0.00539 0.50736 0.42687
 H144 H -0.03942 0.54394 0.51351
 H145 H -0.06934 0.57439 0.47985
 H146 H -0.03461 0.53673 0.39129
 H147 H 0.01004 0.45791 0.54822
 H148 H -0.02015 0.42748 0.58204
 H149 H -0.09373 0.46463 0.53681
 H150 H -0.06208 0.49392 0.50412
 C151 C 0.05940 0.44382 0.43776
 C152 C 0.05450 0.55779 0.56768
 C153 C -0.05958 0.44370 0.56248
 C154 C -0.05469 0.55791 0.43263
 C155 C 0.53881 0.04205 0.51388
 H156 H 0.53963 0.04340 0.48704
 C157 C 0.55568 0.05927 0.53312
 H158 H 0.56949 0.07379 0.52078
 C159 C 0.51971 0.02134 0.56228
 H160 H 0.50545 0.00675 0.57358
 C161 C 0.53623 0.03817 0.58251
 H162 H 0.53461 0.03607 0.60924
 N163 N 0.52169 0.02321 0.52861
 C164 C 0.51317 -0.04132 0.45424
 H165 H 0.49037 -0.04264 0.45214
 C166 C 0.53044 -0.05849 0.43516
 H167 H 0.52070 -0.07293 0.41831
 C168 C 0.55340 -0.02096 0.47907
 H169 H 0.56232 -0.00663 0.49654
 C170 C 0.57144 -0.03773 0.46055
 H171 H 0.59410 -0.03578 0.46384
 Zn172 Zn 0.50034 0.00020 0.50027
 N173 N 0.52485 -0.02270 0.47525
 C174 C 0.48092 0.02129 0.43823
 N175 N 0.47898 0.02319 0.47190
 C176 C 0.46185 0.04204 0.48660
 C177 C 0.44494 0.05923 0.46734
 C178 C 0.46436 0.03808 0.41798
 C179 C 0.48751 -0.04129 0.54637
 C180 C 0.47023 -0.05846 0.56545
 C181 C 0.42925 -0.03772 0.53997
 C182 C 0.44729 -0.02095 0.52146
 N183 N 0.47584 -0.02269 0.52532
 H184 H 0.49518 0.00669 0.42694
 H185 H 0.46106 0.04341 0.51344
 H186 H 0.43113 0.07376 0.47966
 H187 H 0.46595 0.03595 0.39125
 H188 H 0.51031 -0.04261 0.54851
 H189 H 0.47997 -0.07289 0.58234
 H190 H 0.40659 -0.03577 0.53664
 H191 H 0.43838 -0.00663 0.50395
 C192 C 0.56005 -0.05669 0.43802
 C193 C 0.55476 0.05727 0.56796
 C194 C 0.44063 -0.05667 0.56254
 C195 C 0.44582 0.05719 0.43251
 C196 C 0.53903 0.54252 0.01314
 H197 H 0.53982 0.54383 -0.01370
 C198 C 0.55591 0.55978 0.03233
 H199 H 0.56969 0.57429 0.01994
 C200 C 0.51998 0.52186 0.06160
 H201 H 0.50574 0.50728 0.07295
 C202 C 0.53650 0.53873 0.08177
 H203 H 0.53491 0.53667 0.10852
 N204 N 0.52192 0.52369 0.02792
 C205 C 0.51325 0.45908 -0.04629
 H206 H 0.49045 0.45779 -0.04836
 C207 C 0.53048 0.44180 -0.06530
 H208 H 0.52069 0.42732 -0.08206
 C209 C 0.55354 0.47943 -0.02160
 H210 H 0.56250 0.49380 -0.00419
 C211 C 0.57153 0.46256 -0.04004
 H212 H 0.59420 0.46448 -0.03677
 Zn213 Zn 0.50053 0.50066 -0.00034
 N214 N 0.52498 0.47773 -0.02537
 C215 C 0.48102 0.52173 -0.06235
 N216 N 0.47913 0.52364 -0.02868
 C217 C 0.46205 0.54252 -0.01394
 C218 C 0.44514 0.55973 -0.03318
 C219 C 0.46447 0.53855 -0.08257
 C220 C 0.48782 0.45919 0.04579
 C221 C 0.47059 0.44198 0.06489
 C222 C 0.42953 0.46271 0.03957
 C223 C 0.44753 0.47952 0.02103
 N224 N 0.47609 0.47780 0.02480
 H225 H 0.49524 0.50711 -0.07366
 H226 H 0.46129 0.54389 0.01289
 H227 H 0.43138 0.57429 -0.02083
 H228 H 0.46602 0.53642 -0.10930
 H229 H 0.51062 0.45788 0.04785
 H230 H 0.48039 0.42753 0.08171
 H231 H 0.40687 0.46464 0.03630
 H232 H 0.43856 0.49385 0.00357
 C233 C 0.56008 0.44353 -0.06245
 C234 C 0.55501 0.55783 0.06717
 C235 C 0.44099 0.44373 0.06206
 C236 C 0.44598 0.55770 -0.06801
 N237 N 0.16747 -0.17674 -0.17867
 C238 C 0.16770 -0.14900 -0.17816
 N239 N 0.18767 -0.13543 -0.19594
 N240 N 0.20688 -0.14915 -0.21364
 C241 C 0.20687 -0.17697 -0.21422
 N242 N 0.18669 -0.19047 -0.19640
 C243 C 0.14770 -0.13409 -0.15822
 C244 C 0.13147 -0.12107 -0.14126
 C245 C 0.11286 -0.10497 -0.12084
 N246 N 0.12371 -0.08713 -0.09849
 N247 N 0.10660 -0.07176 -0.07986
 C248 C 0.07800 -0.07364 -0.08286
 N249 N 0.06723 -0.09162 -0.10530
 N250 N 0.08435 -0.10701 -0.12397
 N251 N 0.16737 0.32274 0.32167
 C252 C 0.16768 0.35047 0.32217
 N253 N 0.18768 0.36399 0.30437
 N254 N 0.20685 0.35021 0.28668
 C255 C 0.20677 0.32239 0.28612
 N256 N 0.18656 0.30895 0.30395
 C257 C 0.14772 0.36544 0.34210
 C258 C 0.13154 0.37854 0.35904
 C259 C 0.11300 0.39472 0.37944
 N260 N 0.12391 0.41262 0.40167
 N261 N 0.10686 0.42807 0.42028
 C262 C 0.07825 0.42622 0.41736
 N263 N 0.06742 0.40817 0.39504
 N264 N 0.08448 0.39270 0.37640
 N265 N 0.66820 -0.17714 0.32115
 C266 C 0.66863 -0.14942 0.32207
 N267 N 0.68875 -0.13581 0.30458
 N268 N 0.70792 -0.14949 0.28677
 C269 C 0.70778 -0.17733 0.28577
 N270 N 0.68739 -0.19082 0.30331
 C271 C 0.64864 -0.13457 0.34209
 C272 C 0.63243 -0.12158 0.35911
 C273 C 0.61382 -0.10552 0.37957
 N274 N 0.62467 -0.08767 0.40191
 N275 N 0.60756 -0.07232 0.42057
 C276 C 0.57896 -0.07421 0.41759
 N277 N 0.56819 -0.09221 0.39517
 N278 N 0.58531 -0.10758 0.37648
 N279 N 0.66798 0.32219 -0.17835
 C280 C 0.66847 0.34991 -0.17756
 N281 N 0.68868 0.36341 -0.19503
 N282 N 0.70787 0.34964 -0.21269
 C283 C 0.70767 0.32180 -0.21356
 N284 N 0.68719 0.30841 -0.19604
 C285 C 0.64848 0.36488 -0.15768
 C286 C 0.63228 0.37800 -0.14079
 C287 C 0.61371 0.39423 -0.12047
 N288 N 0.62461 0.41216 -0.09827
 N289 N 0.60755 0.42767 -0.07976
 C290 C 0.57895 0.42586 -0.08275
 N291 N 0.56813 0.40778 -0.10503
 N292 N 0.58520 0.39224 -0.12358
 N293 N -0.18714 0.13482 -0.19761
 C294 C -0.16647 0.14846 -0.18127
 N295 N -0.16608 0.17617 -0.18230
 N296 N -0.18583 0.18982 -0.19910
 C297 C -0.20677 0.17631 -0.21548
 N298 N -0.20688 0.14848 -0.21440
 C299 C -0.14584 0.13370 -0.16226
 C300 C -0.12894 0.12104 -0.14594
 C301 C -0.10938 0.10566 -0.12612
 N302 N -0.09127 0.08765 -0.14054
 N303 N -0.07382 0.07269 -0.12195
 C304 C -0.07388 0.07515 -0.08828
 N305 N -0.09203 0.09332 -0.07402
 N306 N -0.10947 0.10829 -0.09258
 N307 N -0.18609 0.63515 0.30195
 C308 C -0.16556 0.64877 0.31858
 N309 N -0.16525 0.67650 0.31776
 N310 N -0.18493 0.69018 0.30086
 C311 C -0.20566 0.67664 0.28421
 N312 N -0.20575 0.64883 0.28508
 C313 C -0.14500 0.63398 0.33767
 C314 C -0.12818 0.62128 0.35404
 C315 C -0.10869 0.60585 0.37391
 N316 N -0.09059 0.58783 0.35952
 N317 N -0.07321 0.57281 0.37813
 C318 C -0.07333 0.57525 0.41181
 N319 N -0.09149 0.59344 0.42604
 N320 N -0.10886 0.60845 0.40744
 N321 N 0.33508 0.17534 0.31732
 C322 C 0.33471 0.14762 0.31825
 N323 N 0.31408 0.13399 0.30180
 N324 N 0.29438 0.14767 0.28498
 C325 C 0.29453 0.17548 0.28400
 N326 N 0.31536 0.18901 0.30048
 C327 C 0.35530 0.13285 0.33732
 C328 C 0.37215 0.12020 0.35370
 C329 C 0.39167 0.10484 0.37361
 N330 N 0.39153 0.10754 0.40714
 N331 N 0.40894 0.09262 0.42579
 C332 C 0.42713 0.07443 0.41162
 N333 N 0.42724 0.07190 0.37795
 N334 N 0.40982 0.08682 0.35929
 N335 N 0.33531 0.67611 -0.18298
 C336 C 0.33497 0.64838 -0.18209
 N337 N 0.31436 0.63475 -0.19857
 N338 N 0.29465 0.64843 -0.21537
 C339 C 0.29477 0.67624 -0.21630
 N340 N 0.31558 0.68978 -0.19980
 C341 C 0.35556 0.63360 -0.16304
 C342 C 0.37242 0.62092 -0.14668
 C343 C 0.39193 0.60552 -0.12681
 N344 N 0.41000 0.58746 -0.14117
 N345 N 0.42740 0.57248 -0.12253
 C346 C 0.42732 0.57500 -0.08887
 N347 N 0.40920 0.59323 -0.07467
 N348 N 0.39181 0.60821 -0.09328
 N349 N -0.18887 -0.13569 0.19549
 C350 C -0.16872 -0.14926 0.17799
 N351 N -0.16827 -0.17698 0.17885
 N352 N -0.18746 -0.19070 0.19665
 C353 C -0.20787 -0.17725 0.21421
 N354 N -0.20803 -0.14941 0.21326
 C355 C -0.14874 -0.13436 0.15801
 C356 C -0.13253 -0.12134 0.14102
 C357 C -0.11393 -0.10523 0.12059
 N358 N -0.08543 -0.10730 0.12368
 N359 N -0.06832 -0.09189 0.10502
 C360 C -0.07911 -0.07385 0.08263
 N361 N -0.10771 -0.07194 0.07967
 N362 N -0.12480 -0.08734 0.09830
 N363 N -0.18766 0.36390 0.69606
 C364 C -0.16774 0.35033 0.67819
 N365 N -0.16751 0.32259 0.67870
 N366 N -0.18667 0.30886 0.69652
 C367 C -0.20678 0.32236 0.71444
 N368 N -0.20680 0.35017 0.71386
 C369 C -0.14781 0.36525 0.65818
 C370 C -0.13164 0.37833 0.64119
 C371 C -0.11311 0.39451 0.62077
 N372 N -0.08460 0.39251 0.62381
 N373 N -0.06755 0.40800 0.60518
 C374 C -0.07841 0.42606 0.58286
 N375 N -0.10702 0.42789 0.57993
 N376 N -0.12405 0.41242 0.59854
 N377 N 0.31165 -0.13604 0.69544
 C378 C 0.33191 -0.14960 0.67810
 N379 N 0.33241 -0.17731 0.67902
 N380 N 0.31316 -0.19105 0.69671
 C381 C 0.29263 -0.17761 0.71410
 N382 N 0.29242 -0.14978 0.71310
 C383 C 0.35194 -0.13469 0.65820
 C384 C 0.36819 -0.12166 0.64127
 C385 C 0.38681 -0.10555 0.62088
 N386 N 0.41532 -0.10761 0.62404
 N387 N 0.43245 -0.09221 0.60539
 C388 C 0.42170 -0.07420 0.58295
 N389 N 0.39310 -0.07232 0.57991
 N390 N 0.37598 -0.08769 0.59852
 N391 N 0.31267 0.36394 0.19544
 C392 C 0.33267 0.35041 0.17764
 N393 N 0.33295 0.32267 0.17813
 N394 N 0.31375 0.30890 0.19586
 C395 C 0.29356 0.32236 0.21369
 N396 N 0.29350 0.35017 0.21314
 C397 C 0.35263 0.36537 0.15771
 C398 C 0.36881 0.37846 0.14076
 C399 C 0.38737 0.39463 0.12037
 N400 N 0.41588 0.39262 0.12345
 N401 N 0.43295 0.40809 0.10481
 C402 C 0.42213 0.42613 0.08246
 N403 N 0.39352 0.42798 0.07950
 N404 N 0.37646 0.41253 0.09810
 N405 N 0.16506 0.17549 0.18265
 C406 C 0.16538 0.14777 0.18175
 N407 N 0.18600 0.13410 0.19821
 N408 N 0.20574 0.14775 0.21499
 C409 C 0.20563 0.17556 0.21592
 N410 N 0.18481 0.18913 0.19945
 C411 C 0.14476 0.13304 0.16272
 C412 C 0.12787 0.12041 0.14638
 C413 C 0.10831 0.10510 0.12650
 N414 N 0.10838 0.10786 0.09298
 N415 N 0.09092 0.09298 0.07436
 C416 C 0.07277 0.07477 0.08856
 N417 N 0.07274 0.07218 0.12222
 N418 N 0.09020 0.08706 0.14086
 N419 N 0.16531 0.67611 0.68235
 C420 C 0.16565 0.64839 0.68150
 N421 N 0.18627 0.63476 0.69799
 N422 N 0.20599 0.64843 0.71476
 C423 C 0.20587 0.67624 0.71564
 N424 N 0.18505 0.68978 0.69913
 C425 C 0.14504 0.63362 0.66250
 C426 C 0.12817 0.62095 0.64618
 C427 C 0.10864 0.60556 0.62635
 N428 N 0.10871 0.60825 0.59282
 N429 N 0.09130 0.59329 0.57424
 C430 C 0.07318 0.57507 0.58849
 N431 N 0.07315 0.57255 0.62216
 N432 N 0.09057 0.58751 0.64075
 N433 N 0.68609 0.13420 0.69889
 C434 C 0.66556 0.14786 0.68228
 N435 N 0.66525 0.17558 0.68314
 N436 N 0.68492 0.18923 0.70007
 C437 C 0.70564 0.17565 0.71671
 N438 N 0.70574 0.14784 0.71580
 C439 C 0.64502 0.13311 0.66315
 C440 C 0.62820 0.12045 0.64674
 C441 C 0.60873 0.10507 0.62683
 N442 N 0.59059 0.08705 0.64117
 N443 N 0.57322 0.07209 0.62251
 C444 C 0.57339 0.07456 0.58883
 N445 N 0.59158 0.09275 0.57465
 N446 N 0.60894 0.10771 0.59329
 N447 N 0.68626 0.63513 0.19784
 C448 C 0.66571 0.64875 0.18122
 N449 N 0.66535 0.67648 0.18205
 N450 N 0.68501 0.69016 0.19895
 C451 C 0.70576 0.67663 0.21560
 N452 N 0.70590 0.64882 0.21473
 C453 C 0.64518 0.63396 0.16213
 C454 C 0.62838 0.62125 0.14575
 C455 C 0.60892 0.60580 0.12589
 N456 N 0.59081 0.58779 0.14028
 N457 N 0.57347 0.57276 0.12167
 C458 C 0.57362 0.57518 0.08799
 N459 N 0.59177 0.59337 0.07375
 N460 N 0.60911 0.60839 0.09235
   
