data_POSCAR
  _audit_creation_date              2014-09-24
  _audit_creation_method            'ToBaCCo'
  _symmetry_space_group_name_H-M    'P1'
  _symmetry_Int_Tables_number       1
  _symmetry_cell_setting            triclinic
  loop_
  _symmetry_equiv_pos_as_xyz
 x,y,z
_cell_length_a 42.5398
_cell_length_b 42.5543
_cell_length_c 42.5399
_cell_angle_alpha 90.000400
_cell_angle_beta 90.000400
_cell_angle_gamma 89.999900
loop_
  _atom_site_label
  _atom_site_type_symbol
  _atom_site_fract_x
  _atom_site_fract_y
  _atom_site_fract_z
Zn1 Zn 0.77471 0.72509 0.77482
 Zn2 Zn 0.77471 0.77473 0.72522
 Zn3 Zn 0.72511 0.72509 0.72522
 Zn4 Zn 0.72511 0.77473 0.77482
 O5 O 0.74991 0.74991 0.75002
 O6 O 0.81582 0.73152 0.76836
 O7 O 0.76825 0.76831 0.68411
 O8 O 0.73154 0.68400 0.73165
 O9 O 0.81581 0.76831 0.73168
 O10 O 0.76828 0.68400 0.76838
 O11 O 0.73156 0.73151 0.68411
 O12 O 0.68400 0.76831 0.76836
 O13 O 0.76828 0.81583 0.73165
 O14 O 0.68400 0.73152 0.73168
 O15 O 0.73154 0.81583 0.76839
 O16 O 0.73156 0.76831 0.81593
 O17 O 0.76825 0.73151 0.81593
 C18 C 0.83050 0.74991 0.75002
 C19 C 0.74990 0.74991 0.66943
 C20 C 0.74991 0.66931 0.75002
 C21 C 0.66931 0.74991 0.75002
 C22 C 0.74991 0.83051 0.75002
 C23 C 0.74991 0.74991 0.83061
 Zn24 Zn 0.22511 0.72509 0.72522
 Zn25 Zn 0.22511 0.77473 0.77482
 Zn26 Zn 0.27471 0.72509 0.77482
 Zn27 Zn 0.27470 0.77474 0.72522
 O28 O 0.24991 0.74991 0.75002
 O29 O 0.18400 0.73152 0.73168
 O30 O 0.23156 0.76830 0.81593
 O31 O 0.26828 0.68400 0.76838
 O32 O 0.18400 0.76831 0.76836
 O33 O 0.23154 0.68400 0.73165
 O34 O 0.26825 0.73151 0.81593
 O35 O 0.31581 0.76831 0.73168
 O36 O 0.23154 0.81583 0.76840
 O37 O 0.31582 0.73152 0.76836
 O38 O 0.26827 0.81583 0.73165
 O39 O 0.26825 0.76831 0.68411
 O40 O 0.23156 0.73152 0.68411
 C41 C 0.16931 0.74991 0.75002
 C42 C 0.24990 0.74990 0.83061
 C43 C 0.24991 0.66931 0.75001
 C44 C 0.33050 0.74992 0.75002
 C45 C 0.24991 0.83051 0.75003
 C46 C 0.24990 0.74992 0.66943
 Zn47 Zn 0.72510 0.22509 0.77482
 Zn48 Zn 0.77470 0.22509 0.72522
 Zn49 Zn 0.72510 0.27473 0.72522
 Zn50 Zn 0.77470 0.27473 0.77482
 O51 O 0.74990 0.24991 0.75002
 O52 O 0.73153 0.18400 0.76839
 O53 O 0.76824 0.23151 0.68411
 O54 O 0.68399 0.26831 0.73168
 O55 O 0.76827 0.18400 0.73165
 O56 O 0.68399 0.23151 0.76836
 O57 O 0.73156 0.26831 0.68411
 O58 O 0.76827 0.31583 0.76839
 O59 O 0.81581 0.23152 0.73168
 O60 O 0.73154 0.31583 0.73165
 O61 O 0.81581 0.26831 0.76836
 O62 O 0.76824 0.26831 0.81593
 O63 O 0.73156 0.23151 0.81593
 C64 C 0.74990 0.16931 0.75002
 C65 C 0.74990 0.24991 0.66943
 C66 C 0.66931 0.24991 0.75002
 C67 C 0.74990 0.33051 0.75002
 C68 C 0.83049 0.24991 0.75002
 C69 C 0.74990 0.24991 0.83061
 Zn70 Zn 0.27470 0.22509 0.72522
 Zn71 Zn 0.22510 0.22509 0.77482
 Zn72 Zn 0.27470 0.27473 0.77482
 Zn73 Zn 0.22510 0.27473 0.72522
 O74 O 0.24990 0.24991 0.75002
 O75 O 0.26827 0.18400 0.73166
 O76 O 0.23156 0.23152 0.81593
 O77 O 0.31581 0.26831 0.76836
 O78 O 0.23153 0.18400 0.76839
 O79 O 0.31581 0.23152 0.73168
 O80 O 0.26824 0.26831 0.81593
 O81 O 0.23154 0.31583 0.73164
 O82 O 0.18399 0.23152 0.76836
 O83 O 0.26827 0.31583 0.76839
 O84 O 0.18399 0.26831 0.73168
 O85 O 0.23156 0.26830 0.68411
 O86 O 0.26824 0.23151 0.68412
 C87 C 0.24990 0.16931 0.75003
 C88 C 0.24990 0.24992 0.83061
 C89 C 0.33049 0.24991 0.75002
 C90 C 0.24990 0.33051 0.75001
 C91 C 0.16931 0.24991 0.75002
 C92 C 0.24990 0.24990 0.66943
 Zn93 Zn 0.72508 0.72501 0.22522
 Zn94 Zn 0.77468 0.77465 0.22522
 Zn95 Zn 0.72508 0.77465 0.27482
 Zn96 Zn 0.77468 0.72501 0.27482
 O97 O 0.74988 0.74983 0.25002
 O98 O 0.73154 0.73143 0.18411
 O99 O 0.76825 0.81574 0.23165
 O100 O 0.68397 0.76823 0.26836
 O101 O 0.76822 0.76823 0.18411
 O102 O 0.68397 0.73143 0.23168
 O103 O 0.73151 0.81575 0.26838
 O104 O 0.76822 0.73144 0.31593
 O105 O 0.81579 0.76822 0.23168
 O106 O 0.73154 0.76823 0.31592
 O107 O 0.81579 0.73143 0.26836
 O108 O 0.76824 0.68391 0.26839
 O109 O 0.73151 0.68391 0.23165
 C110 C 0.74988 0.74983 0.16943
 C111 C 0.74988 0.83043 0.25001
 C112 C 0.66929 0.74983 0.25002
 C113 C 0.74988 0.74984 0.33061
 C114 C 0.83047 0.74983 0.25002
 C115 C 0.74988 0.66923 0.25002
 Zn116 Zn 0.27468 0.77465 0.22522
 Zn117 Zn 0.22508 0.72500 0.22522
 Zn118 Zn 0.27468 0.72501 0.27482
 Zn119 Zn 0.22508 0.77465 0.27482
 O120 O 0.24988 0.74983 0.25002
 O121 O 0.26822 0.76822 0.18411
 O122 O 0.23151 0.68391 0.23166
 O123 O 0.31579 0.73143 0.26836
 O124 O 0.23154 0.73143 0.18411
 O125 O 0.31579 0.76822 0.23168
 O126 O 0.26824 0.68392 0.26840
 O127 O 0.23154 0.76824 0.31592
 O128 O 0.18397 0.73143 0.23168
 O129 O 0.26822 0.73144 0.31593
 O130 O 0.18397 0.76823 0.26836
 O131 O 0.23151 0.81575 0.26838
 O132 O 0.26825 0.81574 0.23165
 C133 C 0.24988 0.74982 0.16943
 C134 C 0.24988 0.66923 0.25003
 C135 C 0.33047 0.74983 0.25002
 C136 C 0.24988 0.74984 0.33061
 C137 C 0.16929 0.74983 0.25002
 C138 C 0.24988 0.83043 0.25001
 Zn139 Zn 0.72507 0.27465 0.22522
 Zn140 Zn 0.77467 0.22501 0.22522
 Zn141 Zn 0.77467 0.27465 0.27482
 Zn142 Zn 0.72507 0.22501 0.27482
 O143 O 0.74987 0.24983 0.25002
 O144 O 0.73153 0.26823 0.18411
 O145 O 0.81578 0.23143 0.23168
 O146 O 0.76824 0.31574 0.26839
 O147 O 0.76821 0.23144 0.18411
 O148 O 0.73150 0.31575 0.23166
 O149 O 0.81578 0.26823 0.26836
 O150 O 0.73153 0.23143 0.31593
 O151 O 0.76824 0.18392 0.23164
 O152 O 0.76822 0.26823 0.31593
 O153 O 0.73150 0.18391 0.26839
 O154 O 0.68397 0.23143 0.26836
 O155 O 0.68396 0.26823 0.23168
 C156 C 0.74987 0.24984 0.16943
 C157 C 0.83047 0.24983 0.25002
 C158 C 0.74987 0.33043 0.25003
 C159 C 0.74987 0.24983 0.33061
 C160 C 0.74987 0.16923 0.25001
 C161 C 0.66928 0.24983 0.25002
 Zn162 Zn 0.22507 0.27465 0.22523
 Zn163 Zn 0.27467 0.22501 0.22522
 Zn164 Zn 0.27467 0.27465 0.27482
 Zn165 Zn 0.22507 0.22501 0.27482
 O166 O 0.24987 0.24983 0.25002
 O167 O 0.23153 0.26824 0.18412
 O168 O 0.31578 0.23143 0.23168
 O169 O 0.26824 0.31574 0.26840
 O170 O 0.26821 0.23144 0.18411
 O171 O 0.23150 0.31575 0.23166
 O172 O 0.31578 0.26822 0.26836
 O173 O 0.23153 0.23143 0.31593
 O174 O 0.26824 0.18392 0.23164
 O175 O 0.26822 0.26822 0.31593
 O176 O 0.23150 0.18391 0.26838
 O177 O 0.18397 0.23143 0.26836
 O178 O 0.18396 0.26823 0.23168
 C179 C 0.24987 0.24984 0.16943
 C180 C 0.33047 0.24983 0.25002
 C181 C 0.24987 0.33043 0.25003
 C182 C 0.24988 0.24982 0.33061
 C183 C 0.24987 0.16923 0.25001
 C184 C 0.16928 0.24983 0.25002
 C185 C -0.06821 0.74992 0.75002
 C186 C -0.08500 0.77111 0.73105
 C187 C -0.11785 0.77108 0.73100
 C188 C -0.13467 0.74992 0.75002
 C189 C -0.11785 0.72875 0.76903
 C190 C -0.08500 0.72873 0.76899
 C191 C -0.03331 0.74992 0.75002
 C192 C -0.01652 0.72148 0.75005
 C193 C 0.01633 0.72148 0.74999
 C194 C 0.03312 0.74992 0.75002
 C195 C 0.01633 0.77836 0.75005
 C196 C -0.01652 0.77836 0.74998
 C197 C 0.06802 0.74992 0.75002
 C198 C 0.08481 0.77111 0.76899
 C199 C 0.11767 0.77108 0.76903
 C200 C 0.13448 0.74992 0.75002
 C201 C 0.11767 0.72875 0.73101
 C202 C 0.08481 0.72872 0.73105
 H203 H -0.07271 0.78746 0.71590
 H204 H -0.13007 0.78765 0.71604
 H205 H -0.13007 0.71218 0.78400
 H206 H -0.07271 0.71238 0.78414
 H207 H -0.02880 0.69919 0.74978
 H208 H 0.02862 0.69919 0.75027
 H209 H 0.02862 0.80065 0.74977
 H210 H -0.02880 0.80065 0.75026
 H211 H 0.07252 0.78747 0.78413
 H212 H 0.12988 0.78766 0.78400
 H213 H 0.12988 0.71218 0.71604
 H214 H 0.07252 0.71237 0.71591
 C215 C 0.74991 -0.06821 0.75003
 C216 C 0.77001 -0.08501 0.72990
 C217 C 0.77001 -0.11786 0.72988
 C218 C 0.74991 -0.13467 0.75002
 C219 C 0.72982 -0.11786 0.77017
 C220 C 0.72981 -0.08501 0.77016
 C221 C 0.74991 -0.03331 0.75003
 C222 C 0.72155 -0.01651 0.75224
 C223 C 0.72155 0.01633 0.75224
 C224 C 0.74991 0.03313 0.75003
 C225 C 0.77827 0.01633 0.74781
 C226 C 0.77827 -0.01651 0.74781
 C227 C 0.74991 0.06804 0.75003
 C228 C 0.77001 0.08484 0.72990
 C229 C 0.77000 0.11768 0.72988
 C230 C 0.74991 0.13449 0.75002
 C231 C 0.72981 0.11768 0.77017
 C232 C 0.72981 0.08484 0.77015
 H233 H 0.78547 -0.07275 0.71382
 H234 H 0.78572 -0.13007 0.71400
 H235 H 0.71411 -0.13007 0.78604
 H236 H 0.71435 -0.07275 0.78623
 H237 H 0.69928 -0.02877 0.75348
 H238 H 0.69928 0.02859 0.75348
 H239 H 0.80054 0.02859 0.74658
 H240 H 0.80054 -0.02877 0.74658
 H241 H 0.78547 0.07257 0.71382
 H242 H 0.78571 0.12989 0.71400
 H243 H 0.71410 0.12989 0.78604
 H244 H 0.71435 0.07257 0.78623
 C245 C 0.74989 0.74988 -0.06810
 C246 C 0.73092 0.77108 -0.08488
 C247 C 0.73088 0.77106 -0.11774
 C248 C 0.74990 0.74990 -0.13455
 C249 C 0.76891 0.72873 -0.11774
 C250 C 0.76886 0.72869 -0.08489
 C251 C 0.74988 0.74987 -0.03320
 C252 C 0.74991 0.72142 -0.01642
 C253 C 0.74985 0.72142 0.01644
 C254 C 0.74988 0.74985 0.03324
 C255 C 0.74991 0.77830 0.01645
 C256 C 0.74985 0.77831 -0.01640
 C257 C 0.74988 0.74985 0.06813
 C258 C 0.76885 0.77104 0.08493
 C259 C 0.76889 0.77100 0.11778
 C260 C 0.74988 0.74983 0.13459
 C261 C 0.73087 0.72867 0.11777
 C262 C 0.73091 0.72865 0.08492
 H263 H 0.71578 0.78743 -0.07259
 H264 H 0.71592 0.78764 -0.12995
 H265 H 0.78388 0.71216 -0.12996
 H266 H 0.78400 0.71234 -0.07260
 H267 H 0.74964 0.69914 -0.02871
 H268 H 0.75012 0.69913 0.02872
 H269 H 0.74963 0.80058 0.02874
 H270 H 0.75013 0.80060 -0.02868
 H271 H 0.78399 0.78739 0.07264
 H272 H 0.78386 0.78757 0.13000
 H273 H 0.71590 0.71210 0.12999
 H274 H 0.71577 0.71230 0.07263
 C275 C 0.56802 0.74992 0.75002
 C276 C 0.58481 0.77112 0.76898
 C277 C 0.61767 0.77108 0.76903
 C278 C 0.63448 0.74992 0.75002
 C279 C 0.61767 0.72875 0.73101
 C280 C 0.58481 0.72872 0.73105
 C281 C 0.53312 0.74992 0.75002
 C282 C 0.51633 0.72148 0.74999
 C283 C 0.48348 0.72148 0.75005
 C284 C 0.46669 0.74992 0.75002
 C285 C 0.48348 0.77836 0.74999
 C286 C 0.51633 0.77836 0.75005
 C287 C 0.43179 0.74992 0.75002
 C288 C 0.41500 0.77111 0.73105
 C289 C 0.38215 0.77108 0.73101
 C290 C 0.36533 0.74992 0.75002
 C291 C 0.38215 0.72875 0.76904
 C292 C 0.41500 0.72873 0.76899
 H293 H 0.57252 0.78747 0.78413
 H294 H 0.62988 0.78766 0.78399
 H295 H 0.62988 0.71218 0.71604
 H296 H 0.57252 0.71237 0.71591
 H297 H 0.52862 0.69919 0.75027
 H298 H 0.47120 0.69919 0.74978
 H299 H 0.47120 0.80065 0.75026
 H300 H 0.52862 0.80065 0.74977
 H301 H 0.42729 0.78746 0.71591
 H302 H 0.36993 0.78765 0.71604
 H303 H 0.36993 0.71218 0.78400
 H304 H 0.42729 0.71238 0.78414
 C305 C 0.24991 -0.06821 0.75004
 C306 C 0.27001 -0.08501 0.72991
 C307 C 0.27001 -0.11785 0.72989
 C308 C 0.24991 -0.13467 0.75003
 C309 C 0.22981 -0.11786 0.77018
 C310 C 0.22981 -0.08501 0.77017
 C311 C 0.24991 -0.03331 0.75004
 C312 C 0.22155 -0.01651 0.75225
 C313 C 0.22155 0.01633 0.75225
 C314 C 0.24991 0.03313 0.75004
 C315 C 0.27827 0.01633 0.74782
 C316 C 0.27827 -0.01651 0.74782
 C317 C 0.24991 0.06804 0.75004
 C318 C 0.27001 0.08484 0.72991
 C319 C 0.27000 0.11768 0.72989
 C320 C 0.24990 0.13449 0.75003
 C321 C 0.22981 0.11768 0.77018
 C322 C 0.22981 0.08484 0.77016
 H323 H 0.28547 -0.07275 0.71383
 H324 H 0.28572 -0.13006 0.71401
 H325 H 0.21410 -0.13007 0.78605
 H326 H 0.21435 -0.07275 0.78624
 H327 H 0.19928 -0.02877 0.75349
 H328 H 0.19928 0.02859 0.75349
 H329 H 0.30054 0.02859 0.74659
 H330 H 0.30054 -0.02877 0.74659
 H331 H 0.28547 0.07257 0.71383
 H332 H 0.28571 0.12989 0.71401
 H333 H 0.21410 0.12989 0.78605
 H334 H 0.21434 0.07258 0.78624
 C335 C 0.24989 0.74987 -0.06810
 C336 C 0.23092 0.77107 -0.08488
 C337 C 0.23088 0.77105 -0.11774
 C338 C 0.24990 0.74989 -0.13455
 C339 C 0.26891 0.72872 -0.11774
 C340 C 0.26886 0.72868 -0.08489
 C341 C 0.24988 0.74986 -0.03320
 C342 C 0.24991 0.72141 -0.01641
 C343 C 0.24985 0.72140 0.01644
 C344 C 0.24988 0.74984 0.03324
 C345 C 0.24991 0.77829 0.01645
 C346 C 0.24985 0.77830 -0.01640
 C347 C 0.24988 0.74983 0.06814
 C348 C 0.26885 0.77103 0.08493
 C349 C 0.26890 0.77099 0.11778
 C350 C 0.24988 0.74982 0.13459
 C351 C 0.23087 0.72866 0.11778
 C352 C 0.23091 0.72864 0.08492
 H353 H 0.21577 0.78742 -0.07259
 H354 H 0.21592 0.78763 -0.12995
 H355 H 0.28388 0.71215 -0.12996
 H356 H 0.28400 0.71233 -0.07260
 H357 H 0.24963 0.69913 -0.02871
 H358 H 0.25012 0.69912 0.02872
 H359 H 0.24963 0.80057 0.02875
 H360 H 0.25013 0.80059 -0.02868
 H361 H 0.28400 0.78738 0.07264
 H362 H 0.28386 0.78756 0.13000
 H363 H 0.21590 0.71209 0.12999
 H364 H 0.21577 0.71229 0.07263
 C365 C -0.06821 0.24992 0.75002
 C366 C -0.08500 0.27111 0.76899
 C367 C -0.11786 0.27108 0.76904
 C368 C -0.13467 0.24992 0.75002
 C369 C -0.11786 0.22875 0.73101
 C370 C -0.08500 0.22872 0.73105
 C371 C -0.03332 0.24992 0.75002
 C372 C -0.01653 0.22147 0.74999
 C373 C 0.01633 0.22147 0.75005
 C374 C 0.03312 0.24992 0.75002
 C375 C 0.01633 0.27836 0.74999
 C376 C -0.01653 0.27836 0.75006
 C377 C 0.06802 0.24992 0.75002
 C378 C 0.08481 0.27111 0.73105
 C379 C 0.11766 0.27108 0.73101
 C380 C 0.13447 0.24992 0.75002
 C381 C 0.11766 0.22875 0.76903
 C382 C 0.08481 0.22872 0.76899
 H383 H -0.07271 0.28746 0.78414
 H384 H -0.13007 0.28765 0.78400
 H385 H -0.13007 0.21218 0.71604
 H386 H -0.07271 0.21237 0.71590
 H387 H -0.02881 0.19919 0.75026
 H388 H 0.02861 0.19919 0.74977
 H389 H 0.02861 0.30065 0.75027
 H390 H -0.02881 0.30065 0.74978
 H391 H 0.07252 0.28747 0.71591
 H392 H 0.12988 0.28766 0.71604
 H393 H 0.12987 0.21218 0.78400
 H394 H 0.07251 0.21237 0.78413
 C395 C 0.74991 0.56804 0.75001
 C396 C 0.77001 0.58484 0.77014
 C397 C 0.77001 0.61768 0.77016
 C398 C 0.74991 0.63449 0.75001
 C399 C 0.72982 0.61768 0.72987
 C400 C 0.72981 0.58484 0.72988
 C401 C 0.74991 0.53313 0.75001
 C402 C 0.72155 0.51633 0.74780
 C403 C 0.72155 0.48349 0.74780
 C404 C 0.74991 0.46669 0.75001
 C405 C 0.77827 0.48349 0.75223
 C406 C 0.77827 0.51633 0.75223
 C407 C 0.74991 0.43179 0.75001
 C408 C 0.77001 0.41499 0.77014
 C409 C 0.77000 0.38214 0.77016
 C410 C 0.74991 0.36533 0.75002
 C411 C 0.72981 0.38214 0.72987
 C412 C 0.72981 0.41499 0.72988
 H413 H 0.78548 0.57257 0.78621
 H414 H 0.78572 0.62989 0.78603
 H415 H 0.71410 0.62989 0.71399
 H416 H 0.71435 0.57257 0.71381
 H417 H 0.69928 0.52859 0.74656
 H418 H 0.69928 0.47123 0.74656
 H419 H 0.80054 0.47123 0.75346
 H420 H 0.80054 0.52859 0.75346
 H421 H 0.78547 0.42725 0.78622
 H422 H 0.78571 0.36993 0.78604
 H423 H 0.71410 0.36993 0.71399
 H424 H 0.71435 0.42725 0.71381
 C425 C 0.74989 0.24989 -0.06810
 C426 C 0.76886 0.27109 -0.08488
 C427 C 0.76891 0.27107 -0.11773
 C428 C 0.74990 0.24991 -0.13455
 C429 C 0.73088 0.22874 -0.11774
 C430 C 0.73093 0.22870 -0.08489
 C431 C 0.74989 0.24989 -0.03320
 C432 C 0.74986 0.22144 -0.01641
 C433 C 0.74992 0.22143 0.01644
 C434 C 0.74989 0.24987 0.03324
 C435 C 0.74986 0.27832 0.01645
 C436 C 0.74993 0.27833 -0.01640
 C437 C 0.74988 0.24986 0.06814
 C438 C 0.73091 0.27105 0.08493
 C439 C 0.73086 0.27101 0.11778
 C440 C 0.74988 0.24985 0.13459
 C441 C 0.76889 0.22868 0.11778
 C442 C 0.76885 0.22866 0.08492
 H443 H 0.78401 0.28744 -0.07259
 H444 H 0.78387 0.28764 -0.12995
 H445 H 0.71592 0.21217 -0.12996
 H446 H 0.71578 0.21235 -0.07260
 H447 H 0.75014 0.19916 -0.02870
 H448 H 0.74964 0.19914 0.02872
 H449 H 0.75014 0.30060 0.02874
 H450 H 0.74965 0.30061 -0.02868
 H451 H 0.71577 0.28741 0.07264
 H452 H 0.71590 0.28758 0.13000
 H453 H 0.78386 0.21211 0.12999
 H454 H 0.78400 0.21232 0.07263
 C455 C 0.56802 0.24992 0.75002
 C456 C 0.58481 0.27111 0.73105
 C457 C 0.61766 0.27108 0.73101
 C458 C 0.63447 0.24992 0.75002
 C459 C 0.61766 0.22875 0.76903
 C460 C 0.58481 0.22872 0.76899
 C461 C 0.53312 0.24992 0.75002
 C462 C 0.51633 0.22147 0.75005
 C463 C 0.48347 0.22147 0.74999
 C464 C 0.46668 0.24992 0.75002
 C465 C 0.48347 0.27836 0.75006
 C466 C 0.51633 0.27836 0.74999
 C467 C 0.43179 0.24992 0.75002
 C468 C 0.41500 0.27111 0.76899
 C469 C 0.38214 0.27108 0.76904
 C470 C 0.36533 0.24992 0.75002
 C471 C 0.38214 0.22875 0.73101
 C472 C 0.41500 0.22872 0.73105
 H473 H 0.57252 0.28747 0.71591
 H474 H 0.62988 0.28766 0.71604
 H475 H 0.62987 0.21217 0.78399
 H476 H 0.57251 0.21237 0.78413
 H477 H 0.52861 0.19919 0.74977
 H478 H 0.47119 0.19919 0.75026
 H479 H 0.47119 0.30065 0.74978
 H480 H 0.52861 0.30065 0.75027
 H481 H 0.42729 0.28746 0.78414
 H482 H 0.36993 0.28765 0.78400
 H483 H 0.36993 0.21218 0.71604
 H484 H 0.42729 0.21237 0.71590
 C485 C 0.24991 0.56804 0.75000
 C486 C 0.27001 0.58484 0.77013
 C487 C 0.27001 0.61768 0.77015
 C488 C 0.24991 0.63449 0.75001
 C489 C 0.22981 0.61768 0.72986
 C490 C 0.22981 0.58484 0.72988
 C491 C 0.24991 0.53313 0.75000
 C492 C 0.22155 0.51633 0.74779
 C493 C 0.22155 0.48349 0.74779
 C494 C 0.24991 0.46669 0.75000
 C495 C 0.27827 0.48349 0.75222
 C496 C 0.27827 0.51633 0.75222
 C497 C 0.24991 0.43179 0.75001
 C498 C 0.27001 0.41499 0.77014
 C499 C 0.27000 0.38214 0.77015
 C500 C 0.24990 0.36533 0.75001
 C501 C 0.22981 0.38214 0.72987
 C502 C 0.22981 0.41499 0.72988
 H503 H 0.28547 0.57257 0.78621
 H504 H 0.28572 0.62989 0.78603
 H505 H 0.21410 0.62989 0.71399
 H506 H 0.21435 0.57258 0.71380
 H507 H 0.19928 0.52859 0.74655
 H508 H 0.19928 0.47123 0.74655
 H509 H 0.30054 0.47123 0.75345
 H510 H 0.30054 0.52859 0.75345
 H511 H 0.28547 0.42725 0.78621
 H512 H 0.28571 0.36994 0.78603
 H513 H 0.21410 0.36993 0.71399
 H514 H 0.21435 0.42725 0.71380
 C515 C 0.24989 0.24991 -0.06809
 C516 C 0.26886 0.27110 -0.08488
 C517 C 0.26891 0.27108 -0.11773
 C518 C 0.24989 0.24991 -0.13455
 C519 C 0.23088 0.22875 -0.11774
 C520 C 0.23092 0.22871 -0.08489
 C521 C 0.24989 0.24990 -0.03320
 C522 C 0.24986 0.22145 -0.01641
 C523 C 0.24992 0.22144 0.01644
 C524 C 0.24989 0.24988 0.03324
 C525 C 0.24986 0.27833 0.01645
 C526 C 0.24992 0.27834 -0.01640
 C527 C 0.24989 0.24987 0.06814
 C528 C 0.23092 0.27106 0.08493
 C529 C 0.23087 0.27102 0.11778
 C530 C 0.24988 0.24985 0.13459
 C531 C 0.26889 0.22869 0.11778
 C532 C 0.26885 0.22867 0.08492
 H533 H 0.28401 0.28745 -0.07259
 H534 H 0.28387 0.28765 -0.12995
 H535 H 0.21591 0.21218 -0.12996
 H536 H 0.21578 0.21236 -0.07260
 H537 H 0.25014 0.19917 -0.02870
 H538 H 0.24964 0.19916 0.02872
 H539 H 0.25014 0.30061 0.02875
 H540 H 0.24965 0.30063 -0.02868
 H541 H 0.21577 0.28742 0.07264
 H542 H 0.21590 0.28759 0.13000
 H543 H 0.28386 0.21212 0.12999
 H544 H 0.28400 0.21233 0.07263
 C545 C -0.06824 0.74982 0.25002
 C546 C -0.08503 0.77101 0.23105
 C547 C -0.11788 0.77098 0.23100
 C548 C -0.13469 0.74982 0.25002
 C549 C -0.11788 0.72866 0.26904
 C550 C -0.08503 0.72863 0.26899
 C551 C -0.03334 0.74982 0.25002
 C552 C -0.01655 0.72138 0.25006
 C553 C 0.01631 0.72138 0.24999
 C554 C 0.03310 0.74982 0.25002
 C555 C 0.01631 0.77826 0.25005
 C556 C -0.01655 0.77826 0.24998
 C557 C 0.06799 0.74982 0.25002
 C558 C 0.08478 0.77102 0.26898
 C559 C 0.11764 0.77099 0.26903
 C560 C 0.13445 0.74982 0.25002
 C561 C 0.11764 0.72865 0.23101
 C562 C 0.08478 0.72862 0.23106
 H563 H -0.07273 0.78736 0.21590
 H564 H -0.13009 0.78756 0.21603
 H565 H -0.13010 0.71209 0.28401
 H566 H -0.07274 0.71228 0.28414
 H567 H -0.02883 0.69909 0.24978
 H568 H 0.02859 0.69909 0.25028
 H569 H 0.02859 0.80055 0.24976
 H570 H -0.02883 0.80055 0.25025
 H571 H 0.07249 0.78737 0.28413
 H572 H 0.12985 0.78757 0.28399
 H573 H 0.12985 0.71208 0.21605
 H574 H 0.07249 0.71227 0.21592
 C575 C 0.74987 -0.06830 0.25000
 C576 C 0.76997 -0.08510 0.22988
 C577 C 0.76997 -0.11794 0.22987
 C578 C 0.74988 -0.13475 0.25001
 C579 C 0.72978 -0.11794 0.27015
 C580 C 0.72977 -0.08509 0.27013
 C581 C 0.74987 -0.03339 0.25000
 C582 C 0.72151 -0.01659 0.25222
 C583 C 0.72151 0.01625 0.25222
 C584 C 0.74987 0.03305 0.25000
 C585 C 0.77823 0.01625 0.24779
 C586 C 0.77823 -0.01659 0.24779
 C587 C 0.74987 0.06796 0.25000
 C588 C 0.76997 0.08476 0.22987
 C589 C 0.76997 0.11760 0.22986
 C590 C 0.74987 0.13441 0.25001
 C591 C 0.72978 0.11760 0.27015
 C592 C 0.72977 0.08475 0.27014
 H593 H 0.78544 -0.07283 0.21380
 H594 H 0.78568 -0.13015 0.21399
 H595 H 0.71407 -0.13015 0.28603
 H596 H 0.71431 -0.07283 0.28621
 H597 H 0.69924 -0.02885 0.25345
 H598 H 0.69924 0.02851 0.25345
 H599 H 0.80050 0.02851 0.24655
 H600 H 0.80050 -0.02885 0.24655
 H601 H 0.78543 0.07249 0.21380
 H602 H 0.78567 0.12981 0.21399
 H603 H 0.71407 0.12981 0.28603
 H604 H 0.71431 0.07249 0.28621
 C605 C 0.74990 0.74989 0.56813
 C606 C 0.76887 0.77109 0.58492
 C607 C 0.76892 0.77107 0.61777
 C608 C 0.74990 0.74991 0.63459
 C609 C 0.73089 0.72874 0.61778
 C610 C 0.73093 0.72870 0.58493
 C611 C 0.74990 0.74989 0.53324
 C612 C 0.74987 0.72144 0.51645
 C613 C 0.74993 0.72143 0.48360
 C614 C 0.74990 0.74987 0.46680
 C615 C 0.74987 0.77832 0.48359
 C616 C 0.74993 0.77832 0.51644
 C617 C 0.74989 0.74986 0.43190
 C618 C 0.73092 0.77105 0.41511
 C619 C 0.73087 0.77101 0.38226
 C620 C 0.74988 0.74984 0.36545
 C621 C 0.76890 0.72868 0.38226
 C622 C 0.76886 0.72866 0.41512
 H623 H 0.78402 0.78744 0.57263
 H624 H 0.78388 0.78764 0.62999
 H625 H 0.71592 0.71217 0.63000
 H626 H 0.71579 0.71235 0.57264
 H627 H 0.75015 0.69916 0.52874
 H628 H 0.74965 0.69914 0.47132
 H629 H 0.75014 0.80060 0.47130
 H630 H 0.74965 0.80061 0.52872
 H631 H 0.71578 0.78741 0.42740
 H632 H 0.71590 0.78758 0.37004
 H633 H 0.78386 0.71211 0.37005
 H634 H 0.78401 0.71231 0.42741
 C635 C 0.56799 0.74982 0.25002
 C636 C 0.58478 0.77102 0.26898
 C637 C 0.61764 0.77099 0.26903
 C638 C 0.63445 0.74982 0.25002
 C639 C 0.61764 0.72865 0.23101
 C640 C 0.58478 0.72862 0.23106
 C641 C 0.53310 0.74982 0.25002
 C642 C 0.51631 0.72138 0.24999
 C643 C 0.48345 0.72138 0.25006
 C644 C 0.46666 0.74982 0.25002
 C645 C 0.48345 0.77826 0.24998
 C646 C 0.51630 0.77826 0.25005
 C647 C 0.43176 0.74982 0.25002
 C648 C 0.41497 0.77101 0.23105
 C649 C 0.38212 0.77098 0.23100
 C650 C 0.36531 0.74982 0.25002
 C651 C 0.38212 0.72866 0.26904
 C652 C 0.41497 0.72863 0.26899
 H653 H 0.57249 0.78737 0.28413
 H654 H 0.62985 0.78757 0.28399
 H655 H 0.62985 0.71208 0.21605
 H656 H 0.57249 0.71227 0.21591
 H657 H 0.52859 0.69909 0.25028
 H658 H 0.47117 0.69909 0.24978
 H659 H 0.47117 0.80055 0.25026
 H660 H 0.52859 0.80055 0.24976
 H661 H 0.42727 0.78736 0.21590
 H662 H 0.36991 0.78756 0.21603
 H663 H 0.36990 0.71209 0.28400
 H664 H 0.42726 0.71228 0.28414
 C665 C 0.24987 -0.06830 0.25000
 C666 C 0.26997 -0.08510 0.22987
 C667 C 0.26997 -0.11794 0.22986
 C668 C 0.24988 -0.13475 0.25000
 C669 C 0.22978 -0.11794 0.27015
 C670 C 0.22977 -0.08509 0.27013
 C671 C 0.24987 -0.03339 0.24999
 C672 C 0.22151 -0.01659 0.25221
 C673 C 0.22151 0.01625 0.25221
 C674 C 0.24987 0.03305 0.24999
 C675 C 0.27823 0.01625 0.24778
 C676 C 0.27823 -0.01659 0.24778
 C677 C 0.24987 0.06796 0.25000
 C678 C 0.26997 0.08476 0.22987
 C679 C 0.26996 0.11760 0.22986
 C680 C 0.24987 0.13441 0.25000
 C681 C 0.22977 0.11760 0.27015
 C682 C 0.22977 0.08475 0.27013
 H683 H 0.28543 -0.07283 0.21379
 H684 H 0.28568 -0.13015 0.21398
 H685 H 0.21407 -0.13015 0.28602
 H686 H 0.21431 -0.07283 0.28620
 H687 H 0.19924 -0.02885 0.25344
 H688 H 0.19924 0.02851 0.25344
 H689 H 0.30050 0.02851 0.24654
 H690 H 0.30050 -0.02885 0.24654
 H691 H 0.28543 0.07249 0.21379
 H692 H 0.28567 0.12981 0.21398
 H693 H 0.21407 0.12980 0.28602
 H694 H 0.21431 0.07249 0.28620
 C695 C 0.24990 0.74990 0.56814
 C696 C 0.26887 0.77110 0.58492
 C697 C 0.26892 0.77108 0.61778
 C698 C 0.24990 0.74991 0.63459
 C699 C 0.23089 0.72875 0.61778
 C700 C 0.23093 0.72871 0.58493
 C701 C 0.24990 0.74990 0.53324
 C702 C 0.24987 0.72145 0.51645
 C703 C 0.24993 0.72144 0.48360
 C704 C 0.24990 0.74988 0.46680
 C705 C 0.24987 0.77833 0.48359
 C706 C 0.24993 0.77834 0.51644
 C707 C 0.24990 0.74987 0.43190
 C708 C 0.23092 0.77106 0.41511
 C709 C 0.23087 0.77102 0.38226
 C710 C 0.24989 0.74985 0.36545
 C711 C 0.26890 0.72869 0.38226
 C712 C 0.26886 0.72867 0.41512
 H713 H 0.28401 0.78745 0.57263
 H714 H 0.28388 0.78765 0.62999
 H715 H 0.21592 0.71217 0.63000
 H716 H 0.21579 0.71236 0.57264
 H717 H 0.25015 0.69917 0.52874
 H718 H 0.24965 0.69916 0.47132
 H719 H 0.25015 0.80061 0.47130
 H720 H 0.24965 0.80062 0.52872
 H721 H 0.21578 0.78742 0.42740
 H722 H 0.21591 0.78759 0.37004
 H723 H 0.28387 0.71212 0.37005
 H724 H 0.28401 0.71233 0.42741
 C725 C -0.06824 0.24983 0.25002
 C726 C -0.08503 0.27102 0.26899
 C727 C -0.11789 0.27099 0.26904
 C728 C -0.13470 0.24983 0.25002
 C729 C -0.11789 0.22867 0.23100
 C730 C -0.08503 0.22864 0.23105
 C731 C -0.03334 0.24983 0.25002
 C732 C -0.01655 0.22138 0.24998
 C733 C 0.01630 0.22138 0.25005
 C734 C 0.03309 0.24983 0.25002
 C735 C 0.01630 0.27827 0.25000
 C736 C -0.01655 0.27827 0.25006
 C737 C 0.06799 0.24983 0.25002
 C738 C 0.08478 0.27103 0.23106
 C739 C 0.11763 0.27100 0.23101
 C740 C 0.13445 0.24983 0.25002
 C741 C 0.11763 0.22866 0.26903
 C742 C 0.08478 0.22863 0.26898
 H743 H -0.07274 0.28736 0.28414
 H744 H -0.13010 0.28756 0.28401
 H745 H -0.13010 0.21210 0.21603
 H746 H -0.07274 0.21229 0.21590
 H747 H -0.02884 0.19910 0.25025
 H748 H 0.02858 0.19910 0.24976
 H749 H 0.02858 0.30055 0.25028
 H750 H -0.02884 0.30055 0.24979
 H751 H 0.07249 0.28738 0.21592
 H752 H 0.12985 0.28757 0.21605
 H753 H 0.12985 0.21208 0.28399
 H754 H 0.07249 0.21227 0.28412
 C755 C 0.74987 0.56796 0.25003
 C756 C 0.76997 0.58476 0.27016
 C757 C 0.76997 0.61760 0.27017
 C758 C 0.74988 0.63441 0.25003
 C759 C 0.72978 0.61760 0.22988
 C760 C 0.72977 0.58475 0.22990
 C761 C 0.74987 0.53305 0.25004
 C762 C 0.72151 0.51625 0.24782
 C763 C 0.72151 0.48341 0.24782
 C764 C 0.74987 0.46661 0.25004
 C765 C 0.77823 0.48341 0.25225
 C766 C 0.77823 0.51625 0.25225
 C767 C 0.74987 0.43170 0.25004
 C768 C 0.76997 0.41490 0.27016
 C769 C 0.76997 0.38206 0.27017
 C770 C 0.74987 0.36525 0.25003
 C771 C 0.72977 0.38206 0.22989
 C772 C 0.72977 0.41491 0.22990
 H773 H 0.78543 0.57249 0.28624
 H774 H 0.78568 0.62981 0.28605
 H775 H 0.71407 0.62981 0.21401
 H776 H 0.71431 0.57249 0.21383
 H777 H 0.69924 0.52851 0.24659
 H778 H 0.69924 0.47115 0.24659
 H779 H 0.80050 0.47115 0.25349
 H780 H 0.80050 0.52851 0.25349
 H781 H 0.78543 0.42717 0.28624
 H782 H 0.78568 0.36985 0.28605
 H783 H 0.71406 0.36985 0.21401
 H784 H 0.71431 0.42717 0.21383
 C785 C 0.74988 0.24988 0.56814
 C786 C 0.73092 0.27108 0.58492
 C787 C 0.73088 0.27106 0.61778
 C788 C 0.74989 0.24990 0.63459
 C789 C 0.76890 0.22873 0.61778
 C790 C 0.76885 0.22869 0.58493
 C791 C 0.74988 0.24987 0.53324
 C792 C 0.74991 0.22143 0.51645
 C793 C 0.74984 0.22142 0.48360
 C794 C 0.74987 0.24986 0.46680
 C795 C 0.74990 0.27830 0.48359
 C796 C 0.74984 0.27831 0.51644
 C797 C 0.74987 0.24985 0.43190
 C798 C 0.76884 0.27104 0.41511
 C799 C 0.76889 0.27100 0.38226
 C800 C 0.74987 0.24983 0.36545
 C801 C 0.73086 0.22867 0.38226
 C802 C 0.73090 0.22865 0.41512
 H803 H 0.71577 0.28743 0.57263
 H804 H 0.71591 0.28764 0.62999
 H805 H 0.78387 0.21216 0.63000
 H806 H 0.78400 0.21234 0.57264
 H807 H 0.74963 0.19914 0.52874
 H808 H 0.75012 0.19913 0.47132
 H809 H 0.74962 0.30059 0.47130
 H810 H 0.75012 0.30060 0.52872
 H811 H 0.78399 0.28739 0.42740
 H812 H 0.78385 0.28757 0.37004
 H813 H 0.71589 0.21210 0.37005
 H814 H 0.71576 0.21230 0.42741
 C815 C 0.56799 0.24983 0.25002
 C816 C 0.58478 0.27102 0.23106
 C817 C 0.61763 0.27099 0.23101
 C818 C 0.63445 0.24983 0.25002
 C819 C 0.61763 0.22866 0.26903
 C820 C 0.58478 0.22863 0.26898
 C821 C 0.53309 0.24983 0.25002
 C822 C 0.51630 0.22138 0.25005
 C823 C 0.48345 0.22138 0.24998
 C824 C 0.46666 0.24983 0.25002
 C825 C 0.48345 0.27827 0.25006
 C826 C 0.51630 0.27827 0.24999
 C827 C 0.43176 0.24983 0.25002
 C828 C 0.41497 0.27102 0.26899
 C829 C 0.38211 0.27099 0.26904
 C830 C 0.36530 0.24983 0.25002
 C831 C 0.38211 0.22867 0.23100
 C832 C 0.41497 0.22864 0.23105
 H833 H 0.57249 0.28738 0.21591
 H834 H 0.62985 0.28757 0.21605
 H835 H 0.62985 0.21208 0.28399
 H836 H 0.57249 0.21227 0.28413
 H837 H 0.52858 0.19910 0.24976
 H838 H 0.47116 0.19910 0.25026
 H839 H 0.47116 0.30055 0.24978
 H840 H 0.52858 0.30055 0.25028
 H841 H 0.42726 0.28736 0.28414
 H842 H 0.36990 0.28756 0.28401
 H843 H 0.36990 0.21210 0.21603
 H844 H 0.42726 0.21229 0.21590
 C845 C 0.24987 0.56796 0.25005
 C846 C 0.26997 0.58476 0.27017
 C847 C 0.26997 0.61760 0.27018
 C848 C 0.24988 0.63441 0.25004
 C849 C 0.22978 0.61760 0.22989
 C850 C 0.22977 0.58475 0.22991
 C851 C 0.24987 0.53305 0.25005
 C852 C 0.22151 0.51625 0.24783
 C853 C 0.22151 0.48341 0.24784
 C854 C 0.24987 0.46661 0.25005
 C855 C 0.27823 0.48341 0.25227
 C856 C 0.27823 0.51625 0.25226
 C857 C 0.24987 0.43170 0.25005
 C858 C 0.26997 0.41490 0.27017
 C859 C 0.26997 0.38206 0.27018
 C860 C 0.24987 0.36525 0.25004
 C861 C 0.22977 0.38206 0.22990
 C862 C 0.22977 0.41491 0.22992
 H863 H 0.28543 0.57249 0.28625
 H864 H 0.28568 0.62981 0.28606
 H865 H 0.21407 0.62980 0.21402
 H866 H 0.21431 0.57249 0.21384
 H867 H 0.19924 0.52851 0.24660
 H868 H 0.19924 0.47115 0.24660
 H869 H 0.30050 0.47115 0.25350
 H870 H 0.30050 0.52851 0.25350
 H871 H 0.28543 0.42716 0.28625
 H872 H 0.28568 0.36985 0.28606
 H873 H 0.21406 0.36986 0.21402
 H874 H 0.21431 0.42717 0.21384
 C875 C 0.24988 0.24987 0.56814
 C876 C 0.23091 0.27107 0.58492
 C877 C 0.23088 0.27105 0.61778
 C878 C 0.24989 0.24989 0.63459
 C879 C 0.26890 0.22872 0.61778
 C880 C 0.26885 0.22868 0.58493
 C881 C 0.24987 0.24986 0.53324
 C882 C 0.24991 0.22141 0.51645
 C883 C 0.24984 0.22140 0.48360
 C884 C 0.24987 0.24984 0.46680
 C885 C 0.24990 0.27829 0.48359
 C886 C 0.24984 0.27830 0.51644
 C887 C 0.24987 0.24983 0.43191
 C888 C 0.26884 0.27103 0.41511
 C889 C 0.26889 0.27099 0.38226
 C890 C 0.24988 0.24982 0.36545
 C891 C 0.23086 0.22866 0.38226
 C892 C 0.23091 0.22864 0.41512
 H893 H 0.21577 0.28742 0.57263
 H894 H 0.21591 0.28763 0.62999
 H895 H 0.28387 0.21215 0.63000
 H896 H 0.28400 0.21233 0.57264
 H897 H 0.24963 0.19913 0.52875
 H898 H 0.25012 0.19912 0.47132
 H899 H 0.24962 0.30057 0.47130
 H900 H 0.25012 0.30059 0.52872
 H901 H 0.28399 0.28738 0.42740
 H902 H 0.28386 0.28756 0.37004
 H903 H 0.21590 0.21209 0.37005
 H904 H 0.21576 0.21229 0.42741
   
