data_POSCAR
  _audit_creation_date              2014-09-24
  _audit_creation_method            'ToBaCCo'
  _symmetry_space_group_name_H-M    'P1'
  _symmetry_Int_Tables_number       1
  _symmetry_cell_setting            triclinic
  loop_
  _symmetry_equiv_pos_as_xyz
 x,y,z
_cell_length_a 32.3277
_cell_length_b 31.6992
_cell_length_c 50.7168
_cell_angle_alpha 87.396200
_cell_angle_beta 91.129400
_cell_angle_gamma 92.772500
loop_
  _atom_site_label
  _atom_site_type_symbol
  _atom_site_fract_x
  _atom_site_fract_y
  _atom_site_fract_z
C1 C 0.01872 0.36968 1.01403
 C2 C 0.01780 0.37117 0.98695
 C3 C 0.00428 0.41065 0.97896
 N4 N -0.00308 0.43329 1.00014
 C5 C 0.00562 0.40826 1.02159
 C6 C -0.00494 0.42387 0.95269
 C7 C -0.01268 0.46625 0.94527
 C8 C -0.03203 0.47933 0.92191
 C9 C -0.03155 0.52275 0.92159
 C10 C -0.01125 0.53504 0.94459
 N11 N -0.00031 0.50032 0.95907
 C12 C -0.00160 0.57738 0.95134
 C13 C 0.00762 0.58735 0.97786
 C14 C 0.02900 0.62384 0.98561
 C15 C 0.02938 0.62233 1.01263
 C16 C 0.00822 0.58496 1.02059
 N17 N -0.00459 0.56324 0.99929
 C18 C -0.00014 0.57192 1.04715
 C19 C -0.00943 0.52876 1.05425
 C20 C -0.02888 0.51372 1.07723
 C21 C -0.02886 0.47035 1.07749
 C22 C -0.01012 0.46006 1.05447
 N23 N 0.00137 0.49576 1.04030
 C24 C -0.00198 0.41860 1.04774
 H25 H 0.02733 0.34300 1.02669
 H26 H 0.02554 0.34588 0.97456
 H27 H 0.01959 0.49763 1.02353
 H28 H -0.04526 0.45964 0.90671
 H29 H -0.04464 0.54291 0.90612
 H30 H 0.04333 0.64874 0.97310
 H31 H 0.04407 0.64582 1.02502
 H32 H -0.04133 0.44883 1.09284
 H33 H 0.01839 0.50016 0.97604
 H34 H -0.04165 0.53205 1.09233
 C35 C 0.62750 0.03331 0.51300
 C36 C 0.62733 0.03073 0.48613
 C37 C 0.58869 0.01348 0.47889
 N38 N 0.56503 0.00611 0.50047
 C39 C 0.58881 0.01818 0.52132
 C40 C 0.57643 0.00332 0.45282
 C41 C 0.53411 -0.00420 0.44555
 C42 C 0.52013 -0.02401 0.42295
 C43 C 0.47765 -0.02382 0.42270
 C44 C 0.46665 -0.00471 0.44539
 N45 N 0.50116 0.00730 0.45921
 C46 C 0.42546 0.00242 0.45215
 C47 C 0.41343 0.01061 0.47796
 C48 C 0.37382 0.02026 0.48483
 C49 C 0.37398 0.02188 0.51180
 C50 C 0.41382 0.01359 0.52052
 N51 N 0.43778 0.00638 0.49979
 C52 C 0.42655 0.00951 0.54732
 C53 C 0.46816 0.00434 0.55555
 C54 C 0.48091 -0.00664 0.58114
 C55 C 0.52345 -0.00589 0.58127
 C56 C 0.53561 0.00595 0.55584
 N57 N 0.50179 0.01231 0.54033
 C58 C 0.57708 0.01336 0.54799
 H59 H 0.65312 0.04520 0.52504
 H60 H 0.65278 0.04062 0.47338
 H61 H 0.50198 0.02598 0.52133
 H62 H 0.53851 -0.03761 0.40820
 H63 H 0.45715 -0.03684 0.40768
 H64 H 0.34730 0.02480 0.47183
 H65 H 0.34749 0.02776 0.52357
 H66 H 0.54317 -0.01264 0.59828
 H67 H 0.50221 0.02592 0.47560
 H68 H 0.46176 -0.01390 0.59815
 C69 C 0.05037 -0.05789 0.28977
 H70 H 0.02826 -0.08461 0.28938
 C71 C 0.08591 -0.06002 0.30575
 H72 H 0.09120 -0.08870 0.31749
 C73 C 0.07024 0.01194 0.27477
 H74 H 0.06367 0.04007 0.26287
 C75 C 0.10635 0.01107 0.29034
 H76 H 0.12731 0.03877 0.29041
 N77 N 0.04300 -0.02213 0.27496
 C78 C 0.02422 -0.07890 0.22074
 H79 H 0.05234 -0.05935 0.22264
 C80 C 0.02344 -0.11328 0.20446
 H81 H 0.05065 -0.11885 0.19326
 C82 C -0.04493 -0.09569 0.23338
 H83 H -0.07135 -0.08939 0.24495
 C84 C -0.04705 -0.13048 0.21738
 H85 H -0.07521 -0.15037 0.21688
 Zn86 Zn -0.00669 -0.02101 0.25472
 N87 N -0.00999 -0.06999 0.23426
 C88 C 0.02011 0.03227 0.21135
 N89 N -0.00619 0.02859 0.23204
 C90 C -0.03222 0.05983 0.23668
 C91 C -0.03335 0.09579 0.21976
 C92 C 0.01988 0.06758 0.19389
 C93 C -0.04596 -0.02089 0.30422
 C94 C -0.07921 -0.02044 0.32132
 C95 C -0.12583 -0.01899 0.28354
 C96 C -0.09164 -0.01931 0.26714
 N97 N -0.05263 -0.02079 0.27765
 H98 H 0.04128 0.00782 0.20823
 H99 H -0.05225 0.05700 0.25353
 H100 H -0.05491 0.11983 0.22349
 H101 H 0.04101 0.06981 0.17753
 H102 H -0.01480 -0.02091 0.31227
 H103 H -0.07306 -0.01999 0.34237
 H104 H -0.15661 -0.01865 0.27475
 H105 H -0.09617 -0.01835 0.24594
 C106 C -0.01276 -0.13931 0.20233
 C107 C 0.11432 -0.02512 0.30630
 C108 C -0.11987 -0.01975 0.31106
 C109 C -0.00738 0.09975 0.19785
 C110 C 0.01207 0.10354 0.75469
 H111 H 0.01360 0.10656 0.73339
 C112 C 0.01176 0.13970 0.76942
 H113 H 0.01282 0.17054 0.75930
 C114 C 0.00767 0.05951 0.79365
 H115 H 0.00547 0.02825 0.80303
 C116 C 0.00713 0.09477 0.80913
 H117 H 0.00547 0.09016 0.83037
 N118 N 0.01059 0.06447 0.76696
 C119 C 0.06260 -0.01245 0.70779
 H120 H 0.03804 -0.03664 0.70605
 C121 C 0.09664 -0.01194 0.69127
 H122 H 0.09830 -0.03579 0.67675
 C123 C 0.09025 0.04836 0.72871
 H124 H 0.08770 0.07168 0.74340
 C125 C 0.12535 0.04944 0.71301
 H126 H 0.14944 0.07398 0.71542
 Zn127 Zn 0.01060 0.01694 0.74565
 N128 N 0.05936 0.01821 0.72545
 C129 C -0.03303 0.02315 0.69651
 N130 N -0.03697 0.01889 0.72316
 C131 C -0.07491 0.01686 0.73441
 C132 C -0.11087 0.01669 0.71865
 C133 C -0.06809 0.02312 0.68003
 C134 C 0.04221 -0.03928 0.78396
 C135 C 0.04295 -0.07494 0.80111
 C136 C -0.02253 -0.09965 0.78227
 C137 C -0.02205 -0.06342 0.76549
 N138 N 0.00958 -0.03368 0.76704
 H139 H -0.00277 0.02673 0.68787
 H140 H -0.07720 0.01449 0.75569
 H141 H -0.14078 0.01361 0.72795
 H142 H -0.06425 0.02638 0.65887
 H143 H 0.06737 -0.01553 0.78441
 H144 H 0.06903 -0.07859 0.81461
 H145 H -0.04858 -0.12234 0.78129
 H146 H -0.04715 -0.05908 0.75143
 C147 C 0.12830 0.01951 0.69370
 C148 C 0.00931 0.13555 0.79704
 C149 C 0.01000 -0.10545 0.80065
 C150 C -0.10767 0.01918 0.69104
 C151 C 0.01916 -0.40548 0.09181
 C152 C 0.02001 -0.37519 0.11102
 C153 C 0.00209 -0.33616 0.10595
 C154 C -0.01613 -0.32772 0.08096
 C155 C -0.01704 -0.35798 0.06176
 C156 C 0.00055 -0.39744 0.06682
 C157 C 0.00455 -0.30462 0.12675
 C158 C -0.02122 -0.27277 0.12766
 C159 C -0.01845 -0.24028 0.14789
 C160 C -0.05280 -0.21573 0.15121
 C161 C -0.05116 -0.18348 0.16914
 C162 C -0.01497 -0.17485 0.18413
 C163 C 0.01941 -0.19952 0.18093
 C164 C 0.01782 -0.23174 0.16294
 H165 H 0.03419 -0.43483 0.09630
 H166 H 0.03485 -0.38229 0.12993
 H167 H -0.02918 -0.29760 0.07588
 H168 H -0.03228 -0.35068 0.04301
 H169 H 0.02753 -0.30907 0.14228
 H170 H -0.04653 -0.27080 0.11345
 H171 H -0.08097 -0.22126 0.13970
 H172 H -0.07796 -0.16461 0.17076
 H173 H 0.04767 -0.19387 0.19230
 H174 H 0.04543 -0.24899 0.16057
 C175 C 0.02356 0.38582 0.09054
 C176 C 0.02278 0.35290 0.10986
 C177 C -0.00490 0.31769 0.10752
 C178 C -0.03303 0.31685 0.08597
 C179 C -0.03235 0.34984 0.06674
 C180 C -0.00366 0.38426 0.06869
 C181 C -0.00394 0.28279 0.12795
 C182 C -0.01520 0.24264 0.12290
 C183 C -0.01275 0.20696 0.14270
 C184 C -0.00974 0.16601 0.13376
 C185 C -0.00770 0.13134 0.15166
 C186 C -0.00912 0.13680 0.17895
 C187 C -0.01273 0.17772 0.18796
 C188 C -0.01456 0.21249 0.17004
 H189 H 0.04571 0.41230 0.09245
 H190 H 0.04440 0.35454 0.12641
 H191 H -0.05587 0.29104 0.08401
 H192 H -0.05411 0.34852 0.05025
 H193 H 0.00910 0.29015 0.14711
 H194 H -0.02430 0.23485 0.10297
 H195 H -0.00877 0.16082 0.11282
 H196 H -0.00567 0.10011 0.14410
 H197 H -0.01383 0.18290 0.20888
 H198 H -0.01808 0.24339 0.17768
 C199 C 0.38149 -0.02868 0.58118
 C200 C 0.35092 -0.02892 0.60030
 C201 C 0.33187 0.00849 0.60570
 C202 C 0.34488 0.04652 0.59234
 C203 C 0.37615 0.04692 0.57368
 C204 C 0.39436 0.00926 0.56780
 C205 C 0.29882 0.00717 0.62546
 C206 C 0.26490 0.02950 0.62189
 C207 C 0.23049 0.02642 0.64069
 C208 C 0.18966 0.02740 0.63091
 C209 C 0.15644 0.02446 0.64820
 C210 C 0.16359 0.02176 0.67558
 C211 C 0.20444 0.02171 0.68546
 C212 C 0.23769 0.02360 0.66814
 H213 H 0.39525 -0.05800 0.57683
 H214 H 0.34146 -0.05850 0.61048
 H215 H 0.33122 0.07595 0.59654
 H216 H 0.38590 0.07647 0.56358
 H217 H 0.30096 -0.01511 0.64222
 H218 H 0.26076 0.04817 0.60367
 H219 H 0.18349 0.02987 0.60984
 H220 H 0.12512 0.02495 0.64022
 H221 H 0.21052 0.01978 0.70655
 H222 H 0.26897 0.02362 0.67618
 C223 C -0.38745 0.04719 0.58668
 C224 C -0.35513 0.04929 0.60539
 C225 C -0.32438 0.01941 0.60618
 C226 C -0.32755 -0.01371 0.58854
 C227 C -0.35984 -0.01578 0.56989
 C228 C -0.38973 0.01487 0.56864
 C229 C -0.28986 0.02335 0.62574
 C230 C -0.25220 0.00905 0.62161
 C231 C -0.21627 0.01237 0.64027
 C232 C -0.18054 -0.00857 0.63433
 C233 C -0.14551 -0.00640 0.65082
 C234 C -0.14521 0.01692 0.67371
 C235 C -0.18089 0.03788 0.67981
 C236 C -0.21605 0.03577 0.66327
 H237 H -0.41040 0.07102 0.58602
 H238 H -0.35368 0.07477 0.61895
 H239 H -0.30548 -0.03832 0.58920
 H240 H -0.36152 -0.04126 0.55632
 H241 H -0.29579 0.03977 0.64337
 H242 H -0.24685 -0.00578 0.60325
 H243 H -0.17970 -0.02688 0.61684
 H244 H -0.11875 -0.02346 0.64577
 H245 H -0.18138 0.05655 0.69714
 H246 H -0.24241 0.05299 0.66860
 C247 C 0.01627 -0.39458 0.90660
 C248 C 0.01711 -0.36162 0.88731
 C249 C 0.00059 -0.32272 0.89227
 C250 C -0.01815 -0.31789 0.91666
 C251 C -0.01905 -0.35078 0.93594
 C252 C -0.00151 -0.38961 0.93138
 C253 C 0.00264 -0.28827 0.87148
 C254 C 0.00305 -0.24722 0.87693
 C255 C 0.00564 -0.21211 0.85660
 C256 C 0.01947 -0.17184 0.86438
 C257 C 0.02134 -0.13745 0.84616
 C258 C 0.00906 -0.14245 0.81972
 C259 C -0.00500 -0.18271 0.81189
 C260 C -0.00678 -0.21720 0.83012
 H261 H 0.03082 -0.42355 0.90239
 H262 H 0.03147 -0.36626 0.86861
 H263 H -0.03283 -0.28903 0.92083
 H264 H -0.03443 -0.34612 0.95430
 H265 H 0.00627 -0.29720 0.85135
 H266 H 0.00348 -0.23853 0.89733
 H267 H 0.02878 -0.16691 0.88469
 H268 H 0.03160 -0.10670 0.85293
 H269 H -0.01457 -0.18758 0.79163
 H270 H -0.01871 -0.24742 0.82346
 C271 C -0.03912 0.35823 0.93500
 C272 C -0.04202 0.32676 0.91658
 C273 C -0.01479 0.32773 0.89530
 C274 C 0.01457 0.36189 0.89230
 C275 C 0.01741 0.39341 0.91077
 C276 C -0.00904 0.39147 0.93243
 C277 C -0.01830 0.29256 0.87693
 C278 C 0.01254 0.28197 0.86154
 C279 C 0.00972 0.24478 0.84475
 C280 C 0.03589 0.24416 0.82303
 C281 C 0.03539 0.20901 0.80732
 C282 C 0.00900 0.17344 0.81320
 C283 C -0.01713 0.17397 0.83498
 C284 C -0.01673 0.20914 0.85064
 H285 H -0.06008 0.35649 0.95146
 H286 H -0.06517 0.30113 0.91923
 H287 H 0.03520 0.36471 0.87574
 H288 H 0.04051 0.41914 0.90836
 H289 H -0.04717 0.27382 0.87697
 H290 H 0.04137 0.30075 0.86119
 H291 H 0.05692 0.27094 0.81825
 H292 H 0.05633 0.20930 0.79090
 H293 H -0.03797 0.14713 0.83994
 H294 H -0.03642 0.20764 0.86767
 C295 C -0.39561 0.01860 0.40836
 C296 C -0.36406 0.01563 0.39014
 C297 C -0.32861 -0.00670 0.39683
 C298 C -0.32608 -0.02735 0.42193
 C299 C -0.35741 -0.02417 0.44018
 C300 C -0.39246 -0.00075 0.43384
 C301 C -0.29543 -0.00810 0.37706
 C302 C -0.25626 -0.01734 0.38337
 C303 C -0.22279 -0.01835 0.36387
 C304 C -0.18861 -0.04268 0.37030
 C305 C -0.15557 -0.04356 0.35305
 C306 C -0.15567 -0.01964 0.32903
 C307 C -0.18989 0.00483 0.32257
 C308 C -0.22309 0.00555 0.33980
 H309 H -0.42188 0.03724 0.40281
 H310 H -0.36705 0.03151 0.37088
 H311 H -0.30041 -0.04659 0.42762
 H312 H -0.35457 -0.04081 0.45922
 H313 H -0.30374 -0.00047 0.35669
 H314 H -0.24774 -0.02494 0.40368
 H315 H -0.18752 -0.06125 0.38875
 H316 H -0.13001 -0.06323 0.35848
 H317 H -0.19055 0.02430 0.30447
 H318 H -0.24821 0.02579 0.33450
 C319 C 0.38995 0.03027 0.41118
 C320 C 0.35790 0.02796 0.39232
 C321 C 0.32804 -0.00579 0.39332
 C322 C 0.33196 -0.03816 0.41309
 C323 C 0.36390 -0.03567 0.43201
 C324 C 0.39273 -0.00120 0.43135
 C325 C 0.29368 -0.00599 0.37342
 C326 C 0.25752 -0.02804 0.37692
 C327 C 0.22184 -0.02695 0.35799
 C328 C 0.18316 -0.04361 0.36665
 C329 C 0.14842 -0.04322 0.34986
 C330 C 0.15150 -0.02613 0.32390
 C331 C 0.19020 -0.00984 0.31502
 C332 C 0.22509 -0.01046 0.33178
 H333 H 0.41220 0.05695 0.41034
 H334 H 0.35598 0.05303 0.37717
 H335 H 0.31078 -0.06561 0.41403
 H336 H 0.36608 -0.06052 0.44729
 H337 H 0.29781 0.01493 0.35616
 H338 H 0.25253 -0.04629 0.39521
 H339 H 0.17966 -0.05668 0.38664
 H340 H 0.11893 -0.05564 0.35735
 H341 H 0.19359 0.00287 0.29496
 H342 H 0.25435 0.00154 0.32388
   
