data_POSCAR
  _audit_creation_date              2014-09-24
  _audit_creation_method            'ToBaCCo'
  _symmetry_space_group_name_H-M    'P1'
  _symmetry_Int_Tables_number       1
  _symmetry_cell_setting            triclinic
  loop_
  _symmetry_equiv_pos_as_xyz
 x,y,z
_cell_length_a 24.0828
_cell_length_b 24.1059
_cell_length_c 28.2318
_cell_angle_alpha 89.811200
_cell_angle_beta 90.124500
_cell_angle_gamma 120.221900
loop_
  _atom_site_label
  _atom_site_type_symbol
  _atom_site_fract_x
  _atom_site_fract_y
  _atom_site_fract_z
C1 C 0.05757 0.52720 1.35087
 C2 C -0.00091 0.50029 1.37504
 C3 C -0.05940 0.47202 1.35074
 C4 C -0.06007 0.47001 1.30066
 C5 C -0.00092 0.49756 1.27563
 C6 C 0.05824 0.52650 1.30077
 C7 C 0.11621 0.55387 1.27517
 C8 C 0.11618 0.55298 1.22585
 C9 C 0.05822 0.52435 1.20030
 C10 C -0.00093 0.49616 1.22535
 C11 C -0.11804 0.44124 1.27497
 C12 C -0.11803 0.43948 1.22569
 C13 C -0.06005 0.46670 1.20016
 C14 C -0.05928 0.46550 1.15008
 C15 C -0.00073 0.49372 1.12596
 C16 C 0.05762 0.52314 1.15030
 H17 H 0.16219 0.57640 1.29314
 H18 H 0.16209 0.57481 1.20786
 H19 H -0.16401 0.41971 1.29286
 H20 H -0.16399 0.41668 1.20767
 H21 H -0.00092 0.50123 1.41355
 H22 H -0.00044 0.49308 1.08748
 C23 C 0.53438 0.47545 1.15039
 C24 C 0.50621 0.50546 1.12598
 C25 C 0.47684 0.53431 1.15008
 C26 C 0.47569 0.53387 1.20007
 C27 C 0.50388 0.50319 1.22533
 C28 C 0.53325 0.47367 1.20038
 C29 C 0.56048 0.44316 1.22603
 C30 C 0.55882 0.44151 1.27534
 C31 C 0.53011 0.47059 1.30083
 C32 C 0.50256 0.50192 1.27557
 C33 C 0.44713 0.56310 1.22543
 C34 C 0.44631 0.56234 1.27475
 C35 C 0.47368 0.53198 1.30046
 C36 C 0.47299 0.53079 1.35045
 C37 C 0.49986 0.49955 1.37494
 C38 C 0.52812 0.46942 1.35092
 H39 H 0.58322 0.42014 1.20812
 H40 H 0.58036 0.41727 1.29339
 H41 H 0.42529 0.58699 1.20729
 H42 H 0.42384 0.58567 1.29260
 H43 H 0.50692 0.50614 1.08752
 H44 H 0.49880 0.49884 1.41342
 C45 C 0.46757 0.94194 1.35105
 C46 C 0.49881 1.00034 1.37528
 C47 C 0.52935 1.05891 1.35103
 C48 C 0.52864 1.05971 1.30091
 C49 C 0.49739 1.00068 1.27582
 C50 C 0.46686 0.94148 1.30094
 C51 C 0.43663 0.88365 1.27527
 C52 C 0.43642 0.88384 1.22594
 C53 C 0.46609 0.94183 1.20040
 C54 C 0.49668 1.00085 1.22550
 C55 C 0.55817 1.11771 1.27524
 C56 C 0.55707 1.11786 1.22592
 C57 C 0.52667 1.06001 1.20032
 C58 C 0.52540 1.05942 1.15021
 C59 C 0.49540 1.00097 1.12606
 C60 C 0.46613 0.94257 1.15037
 H61 H 0.41295 0.83764 1.29321
 H62 H 0.41260 0.83802 1.20792
 H63 H 0.58236 1.16359 1.29316
 H64 H 0.58046 1.16383 1.20793
 H65 H 0.49932 1.00020 1.41380
 H66 H 0.49495 1.00080 1.08757
 C67 C 1.06054 0.53571 0.85005
 C68 C 1.00202 0.50639 0.87427
 C69 C 0.94358 0.47608 0.85005
 C70 C 0.94283 0.47442 0.80006
 C71 C 1.00191 0.50438 0.77489
 C72 C 1.06114 0.53539 0.79993
 C73 C 1.11902 0.56501 0.77419
 C74 C 1.11882 0.56431 0.72485
 C75 C 1.06074 0.53364 0.69934
 C76 C 1.00171 0.50318 0.72460
 C77 C 0.88476 0.44361 0.77463
 C78 C 0.88458 0.44205 0.72531
 C79 C 0.94245 0.47152 0.69966
 C80 C 0.94282 0.47033 0.64966
 C81 C 1.00107 0.50071 0.62522
 C82 C 1.05974 0.53238 0.64922
 H83 H 1.16504 0.58916 0.79209
 H84 H 1.16470 0.58794 0.70677
 H85 H 0.83890 0.42027 0.79272
 H86 H 0.83858 0.41758 0.70740
 H87 H 1.00183 0.50688 0.91276
 H88 H 1.00059 0.49972 0.58674
 C89 C 0.52975 0.47160 0.64959
 C90 C 0.49933 0.49948 0.62530
 C91 C 0.46802 0.52629 0.64950
 C92 C 0.46714 0.52592 0.69951
 C93 C 0.49751 0.49733 0.72465
 C94 C 0.52882 0.46983 0.69961
 C95 C 0.55817 0.44134 0.72520
 C96 C 0.55681 0.43982 0.77454
 C97 C 0.52635 0.46705 0.80003
 C98 C 0.49658 0.49625 0.77489
 C99 C 0.43685 0.55333 0.72499
 C100 C 0.43648 0.55282 0.77434
 C101 C 0.46601 0.52451 0.79993
 C102 C 0.46595 0.52365 0.84994
 C103 C 0.49498 0.49439 0.87424
 C104 C 0.52485 0.46609 0.85004
 H105 H 0.58238 0.41986 0.70722
 H106 H 0.58002 0.41723 0.79260
 H107 H 0.41331 0.57559 0.70694
 H108 H 0.41265 0.57469 0.79231
 H109 H 0.49997 0.50025 0.58684
 H110 H 0.49454 0.49384 0.91270
 C111 C 0.47632 -0.05938 0.85088
 C112 C 0.50578 -0.00096 0.87503
 C113 C 0.53392 0.05741 0.85071
 C114 C 0.53273 0.05817 0.80073
 C115 C 0.50336 -0.00084 0.77568
 C116 C 0.47516 -0.06000 0.80079
 C117 C 0.44666 -0.11786 0.77514
 C118 C 0.44593 -0.11765 0.72581
 C119 C 0.47329 -0.05963 0.70033
 C120 C 0.50206 -0.00068 0.72544
 C121 C 0.55992 0.11617 0.77520
 C122 C 0.55820 0.11631 0.72588
 C123 C 0.52954 0.05845 0.70037
 C124 C 0.52757 0.05790 0.65038
 C125 C 0.49950 -0.00034 0.62613
 C126 C 0.47271 -0.05874 0.65033
 H127 H 0.42481 -0.16383 0.79310
 H128 H 0.42354 -0.16343 0.70775
 H129 H 0.58263 0.16200 0.79321
 H130 H 0.57966 0.16222 0.70786
 H131 H 0.50663 -0.00077 0.91352
 H132 H 0.49859 -0.00022 0.58766
 O133 O 0.43026 0.65214 0.96055
 O134 O 0.42789 0.75810 0.94520
 C135 C 0.39867 0.78859 0.93754
 O136 O 0.34907 0.77880 0.96026
 O137 O 0.24285 0.67015 0.94483
 C138 C 0.21222 0.61033 0.93716
 O139 O 0.22166 0.57037 0.96006
 O140 O 0.33035 0.57333 0.94503
 C141 C 0.39031 0.60261 0.93770
 O142 O 0.42740 0.67013 1.05438
 O143 O 0.43033 0.77875 1.03909
 C144 C 0.39037 0.78815 1.06185
 O145 O 0.33047 0.75747 1.05415
 O146 O 0.22169 0.65138 1.03875
 C147 C 0.21206 0.60186 1.06164
 O148 O 0.24248 0.57262 1.05403
 O149 O 0.34849 0.57033 1.03891
 C150 C 0.39807 0.61021 1.06181
 Cr151 Cr 0.42538 0.71299 0.99979
 Cr152 Cr 0.28780 0.71266 0.99950
 Cr153 Cr 0.28753 0.57525 0.99951
 O154 O 0.33357 0.66697 0.99960
 O155 O 0.57339 0.32974 0.94626
 O156 O 0.57067 0.22126 0.96167
 C157 C 0.61056 0.21171 0.93901
 O158 O 0.67047 0.24215 0.94674
 O159 O 0.77931 0.34831 0.96174
 C160 C 0.78905 0.39777 0.93873
 O161 O 0.75869 0.42709 0.94620
 O162 O 0.65271 0.42953 0.96115
 C163 C 0.60294 0.38960 0.93849
 O164 O 0.57090 0.34775 1.04009
 O165 O 0.57327 0.24180 1.05555
 C166 C 0.60264 0.21148 1.06333
 O167 O 0.65231 0.22141 1.04066
 O168 O 0.75850 0.33026 1.05568
 C169 C 0.78902 0.39014 1.06315
 O170 O 0.77943 0.42990 1.04016
 O171 O 0.67079 0.42707 1.05505
 C172 C 0.61087 0.39749 1.06268
 Cr173 Cr 0.57567 0.28695 1.00090
 Cr174 Cr 0.71335 0.28734 1.00120
 Cr175 Cr 0.71360 0.42479 1.00065
 O176 O 0.66753 0.33302 1.00092
 O177 O 0.66947 0.42739 0.55339
 O178 O 0.77806 0.43007 0.53858
 C179 C 0.78800 0.39029 0.56116
 O180 O 0.75781 0.33049 0.55329
 O181 O 0.65127 0.22192 0.53868
 C182 C 0.60164 0.21196 0.56136
 O183 O 0.57185 0.24184 0.55342
 O184 O 0.56968 0.34793 0.53850
 C185 C 0.60956 0.39760 0.56115
 O186 O 0.65196 0.43027 0.45946
 O187 O 0.75817 0.42790 0.44462
 C188 C 0.78806 0.39812 0.43686
 O189 O 0.77752 0.34803 0.45929
 O190 O 0.66837 0.24169 0.44466
 C191 C 0.60839 0.21147 0.43703
 O192 O 0.56892 0.22183 0.45949
 O193 O 0.57197 0.33075 0.44459
 C194 C 0.60184 0.39070 0.43700
 Cr195 Cr 0.71256 0.42523 0.49899
 Cr196 Cr 0.71192 0.28738 0.49896
 Cr197 Cr 0.57429 0.28742 0.49898
 O198 O 0.66627 0.33334 0.49891
 O199 O 0.32902 0.57247 0.55374
 O200 O 0.22039 0.56984 0.53897
 C201 C 0.21071 0.60960 0.56159
 O202 O 0.24091 0.66942 0.55360
 O203 O 0.34734 0.77801 0.53868
 C204 C 0.39699 0.78773 0.56137
 O205 O 0.42663 0.75776 0.55348
 O206 O 0.42879 0.65179 0.53852
 C207 C 0.38898 0.60205 0.56128
 O208 O 0.34631 0.56994 0.45984
 O209 O 0.24008 0.57239 0.44499
 C210 C 0.21008 0.60212 0.43721
 O211 O 0.22057 0.65204 0.45963
 O212 O 0.32966 0.75842 0.44470
 C213 C 0.38961 0.78880 0.43708
 O214 O 0.42921 0.77843 0.45957
 O215 O 0.42605 0.66957 0.44466
 C216 C 0.39631 0.60964 0.43727
 Cr217 Cr 0.28579 0.57482 0.49935
 Cr218 Cr 0.28643 0.71263 0.49913
 Cr219 Cr 0.42400 0.71257 0.49904
 O220 O 0.33206 0.66667 0.49911
 C221 C 0.44511 0.56076 0.37834
 C222 C 0.42251 0.58425 0.40391
 C223 C 0.43892 0.88695 0.37771
 C224 C 0.41520 0.84063 0.40347
 C225 C 0.11243 0.55356 0.37758
 C226 C 0.15855 0.57607 0.40346
 C227 C 0.55371 0.44035 0.37768
 C228 C 0.57585 0.41634 0.40343
 C229 C 0.55851 0.11372 0.37767
 C230 C 0.58259 0.15987 0.40342
 C231 C 0.88571 0.44635 0.37733
 C232 C 0.83956 0.42418 0.40313
 C233 C 0.56329 0.44670 1.12232
 C234 C 0.58598 0.42370 1.09640
 C235 C 0.88601 0.43806 1.12326
 C236 C 0.84016 0.41521 1.09716
 C237 C 0.55296 0.11423 1.12340
 C238 C 0.57623 0.16018 1.09732
 C239 C 0.44786 0.56298 1.12171
 C240 C 0.42452 0.58539 1.09563
 C241 C 0.11545 0.55215 1.12202
 C242 C 0.16108 0.57544 1.09575
 C243 C 0.43745 0.88480 1.12209
 C244 C 0.41510 0.83918 1.09588
 C245 C 0.56055 0.44486 0.62136
 C246 C 0.58431 0.42312 0.59521
 C247 C 0.55437 0.11567 0.62207
 C248 C 0.57613 0.16122 0.59571
 C249 C 0.88482 0.43937 0.62151
 C250 C 0.83905 0.41556 0.59532
 C251 C 0.43780 0.55382 0.62123
 C252 C 0.41428 0.57611 0.59517
 C253 C 0.44506 0.88371 0.62198
 C254 C 0.42280 0.83832 0.59564
 C255 C 0.11431 0.56092 0.62224
 C256 C 0.15991 0.58439 0.59591
 C257 C 0.43742 0.55275 0.87812
 C258 C 0.41511 0.57616 0.90405
 C259 C 0.11533 0.56310 0.87684
 C260 C 0.16114 0.58562 0.90303
 C261 C 0.44878 0.88585 0.87764
 C262 C 0.42529 0.83991 0.90367
 C263 C 0.55367 0.43717 0.87835
 C264 C 0.57669 0.41448 0.90450
 C265 C 0.88578 0.44703 0.87840
 C266 C 0.84011 0.42394 0.90465
 C267 C 0.56288 0.11512 0.87892
 C268 C 0.58560 0.16074 0.90505
   
