data_POSCAR
  _audit_creation_date              2014-09-24
  _audit_creation_method            'ToBaCCo'
  _symmetry_space_group_name_H-M    'P1'
  _symmetry_Int_Tables_number       1
  _symmetry_cell_setting            triclinic
  loop_
  _symmetry_equiv_pos_as_xyz
 x,y,z
_cell_length_a 29.6598
_cell_length_b 32.1962
_cell_length_c 31.9398
_cell_angle_alpha 90.460800
_cell_angle_beta 89.898600
_cell_angle_gamma 89.958100
loop_
  _atom_site_label
  _atom_site_type_symbol
  _atom_site_fract_x
  _atom_site_fract_y
  _atom_site_fract_z
C1 C 0.25812 0.28017 0.23460
 C2 C 0.29147 0.27851 0.20344
 C3 C 0.32343 0.24623 0.20267
 C4 C 0.32122 0.21510 0.23322
 C5 C 0.28824 0.21655 0.26475
 C6 C 0.25660 0.24923 0.26556
 C7 C 0.22638 0.31242 0.23528
 C8 C 0.19290 0.31432 0.26646
 C9 C 0.19184 0.28353 0.29752
 C10 C 0.22348 0.25097 0.29728
 C11 C 0.22249 0.22010 0.32817
 C12 C 0.25412 0.18739 0.32778
 C13 C 0.28663 0.18590 0.29561
 H14 H 0.29228 0.30222 0.17956
 H15 H 0.34587 0.19022 0.23303
 H16 H 0.22812 0.33639 0.21170
 H17 H 0.16586 0.28436 0.32136
 H18 H 0.19751 0.22221 0.35269
 H19 H 0.31053 0.16044 0.29418
 C20 C 0.75634 -0.27266 0.21799
 C21 C 0.72815 -0.27037 0.18278
 C22 C 0.69928 -0.23601 0.17661
 C23 C 0.69937 -0.20391 0.20700
 C24 C 0.72712 -0.20600 0.24236
 C25 C 0.75571 -0.24047 0.24795
 C26 C 0.78541 -0.30663 0.22331
 C27 C 0.81337 -0.31003 0.25908
 C28 C 0.81163 -0.27737 0.28904
 C29 C 0.78367 -0.24266 0.28346
 C30 C 0.78319 -0.21003 0.31296
 C31 C 0.75495 -0.17540 0.30738
 C32 C 0.72670 -0.17391 0.27221
 H33 H 0.72983 -0.29505 0.15958
 H34 H 0.67663 -0.17776 0.20443
 H35 H 0.78648 -0.32955 0.19848
 H36 H 0.83116 -0.27896 0.31751
 H37 H 0.80462 -0.21166 0.34036
 H38 H 0.70505 -0.14718 0.26760
 C39 C 0.74850 0.27637 0.77312
 C40 C 0.71776 0.27501 0.80656
 C41 C 0.68807 0.24100 0.81193
 C42 C 0.69164 0.20754 0.78309
 C43 C 0.72123 0.20917 0.74886
 C44 C 0.74960 0.24378 0.74371
 C45 C 0.77756 0.31042 0.76847
 C46 C 0.80717 0.31351 0.73376
 C47 C 0.80674 0.28069 0.70397
 C48 C 0.77873 0.24593 0.70893
 C49 C 0.77889 0.21355 0.67920
 C50 C 0.75078 0.17878 0.68418
 C51 C 0.72233 0.17678 0.71930
 H52 H 0.71605 0.30171 0.82719
 H53 H 0.67182 0.17969 0.78662
 H54 H 0.77724 0.33367 0.79299
 H55 H 0.82734 0.28222 0.67608
 H56 H 0.80015 0.21605 0.65188
 H57 H 0.70079 0.14993 0.72350
 C58 C 0.24083 -0.27381 0.78057
 C59 C 0.26987 -0.27134 0.81511
 C60 C 0.30036 -0.23815 0.81949
 C61 C 0.30153 -0.20729 0.78861
 C62 C 0.27260 -0.20935 0.75395
 C63 C 0.24217 -0.24278 0.74982
 C64 C 0.21066 -0.30702 0.77641
 C65 C 0.18161 -0.31049 0.74151
 C66 C 0.18330 -0.27889 0.71095
 C67 C 0.21306 -0.24511 0.71504
 C68 C 0.21395 -0.21341 0.68503
 C69 C 0.24389 -0.17971 0.68918
 C70 C 0.27344 -0.17827 0.72353
 H71 H 0.26841 -0.29511 0.83892
 H72 H 0.32535 -0.18190 0.79119
 H73 H 0.21129 -0.33104 0.79994
 H74 H 0.16051 -0.27937 0.68455
 H75 H 0.19156 -0.21511 0.65829
 H76 H 0.29640 -0.15231 0.72716
 C77 C 0.74460 -0.27677 0.76566
 C78 C 0.71554 -0.27210 0.80004
 C79 C 0.68404 -0.23948 0.80173
 C80 C 0.68287 -0.21049 0.76903
 C81 C 0.71207 -0.21451 0.73459
 C82 C 0.74275 -0.24803 0.73278
 C83 C 0.77521 -0.30997 0.76369
 C84 C 0.80343 -0.31622 0.72835
 C85 C 0.80088 -0.28688 0.69573
 C86 C 0.77148 -0.25288 0.69801
 C87 C 0.77007 -0.22392 0.66559
 C88 C 0.74009 -0.19017 0.66725
 C89 C 0.71090 -0.18578 0.70177
 H90 H 0.71749 -0.29393 0.82558
 H91 H 0.65856 -0.18534 0.76990
 H92 H 0.77694 -0.33019 0.79044
 H93 H 0.82069 -0.29078 0.66753
 H94 H 0.79214 -0.22782 0.63874
 H95 H 0.68783 -0.15970 0.70341
 C96 C 0.24601 0.27923 0.78517
 C97 C 0.27617 0.27726 0.81879
 C98 C 0.30720 0.24441 0.82194
 C99 C 0.30681 0.21265 0.79139
 C100 C 0.27652 0.21407 0.75763
 C101 C 0.24624 0.24765 0.75436
 C102 C 0.21621 0.31277 0.78152
 C103 C 0.18684 0.31557 0.74716
 C104 C 0.18703 0.28383 0.71665
 C105 C 0.21651 0.24992 0.72005
 C106 C 0.21704 0.21854 0.68936
 C107 C 0.24685 0.18472 0.69232
 C108 C 0.27646 0.18280 0.72675
 H109 H 0.27555 0.30152 0.84251
 H110 H 0.33099 0.18753 0.79306
 H111 H 0.21664 0.33729 0.80497
 H112 H 0.16399 0.28532 0.69041
 H113 H 0.19487 0.22129 0.66282
 H114 H 0.29927 0.15668 0.72976
 C115 C 0.25404 -0.27079 0.22710
 C116 C 0.28510 -0.26825 0.19414
 C117 C 0.31707 -0.23577 0.19219
 C118 C 0.31751 -0.20605 0.22508
 C119 C 0.28702 -0.20864 0.25870
 C120 C 0.25509 -0.24107 0.25956
 C121 C 0.22159 -0.30250 0.22764
 C122 C 0.18975 -0.30531 0.26047
 C123 C 0.19207 -0.27570 0.29329
 C124 C 0.22408 -0.24371 0.29285
 C125 C 0.22512 -0.21403 0.32512
 C126 C 0.25692 -0.18169 0.32484
 C127 C 0.28785 -0.17923 0.29146
 H128 H 0.28278 -0.29090 0.16899
 H129 H 0.34239 -0.18150 0.22567
 H130 H 0.22237 -0.32554 0.20281
 H131 H 0.16774 -0.27622 0.31859
 H132 H 0.20140 -0.21638 0.35086
 H133 H 0.31209 -0.15407 0.29065
 C134 C 0.76465 0.27499 0.22462
 C135 C 0.73624 0.27072 0.18987
 C136 C 0.70322 0.23933 0.18809
 C137 C 0.70121 0.21031 0.22082
 C138 C 0.73025 0.21361 0.25540
 C139 C 0.76163 0.24646 0.25754
 C140 C 0.79518 0.30812 0.22722
 C141 C 0.82183 0.31474 0.26338
 C142 C 0.81904 0.28505 0.29568
 C143 C 0.78964 0.25107 0.29279
 C144 C 0.78695 0.22227 0.32533
 C145 C 0.75610 0.18922 0.32344
 C146 C 0.72772 0.18515 0.28840
 H147 H 0.73948 0.29249 0.16435
 H148 H 0.67640 0.18589 0.22046
 H149 H 0.79775 0.32834 0.20050
 H150 H 0.83817 0.28896 0.32422
 H151 H 0.80831 0.22599 0.35262
 H152 H 0.70393 0.15966 0.28665
 O153 O 0.28893 0.04253 0.46773
 O154 O 0.28549 -0.03764 0.54970
 O155 O 0.29134 -0.03865 0.46823
 O156 O 0.28816 0.04275 0.54945
 O157 O 0.21380 0.04270 0.54755
 O158 O 0.21700 -0.03904 0.46598
 O159 O 0.21115 -0.03765 0.54688
 O160 O 0.21462 0.04227 0.46538
 Cu161 Cu 0.29591 0.00230 0.50883
 Cu162 Cu 0.20672 0.00230 0.50595
 C163 C 0.25220 0.05610 0.45255
 C164 C 0.24761 -0.05115 0.56246
 C165 C 0.25482 -0.05320 0.45360
 C166 C 0.25057 0.05617 0.56295
 O167 O 0.71161 0.03776 0.54014
 O168 O 0.71422 -0.03539 0.45055
 O169 O 0.70766 -0.04274 0.53152
 O170 O 0.71166 0.04491 0.45916
 O171 O 0.78600 0.04484 0.46192
 O172 O 0.78200 -0.04444 0.53339
 O173 O 0.78856 -0.03573 0.45304
 O174 O 0.78592 0.03592 0.54272
 Cu175 Cu 0.70384 0.00118 0.49514
 Cu176 Cu 0.79306 0.00008 0.49802
 C177 C 0.74856 0.04938 0.55665
 C178 C 0.75203 -0.04804 0.43653
 C179 C 0.74397 -0.05883 0.54461
 C180 C 0.74931 0.06007 0.44830
 O181 O 0.46545 0.27678 0.05003
 O182 O 0.54712 0.27587 -0.03636
 O183 O 0.45967 0.27656 -0.03187
 O184 O 0.55241 0.27421 0.04414
 O185 O 0.55236 0.20570 0.04174
 O186 O 0.45649 0.20809 -0.03166
 O187 O 0.54341 0.20737 -0.03964
 O188 O 0.46493 0.20826 0.05018
 Cu189 Cu 0.50603 0.28272 0.00660
 Cu190 Cu 0.50400 0.20043 0.00514
 C191 C 0.45206 0.24281 0.06561
 C192 C 0.55886 0.24161 -0.05301
 C193 C 0.44252 0.24279 -0.04512
 C194 C 0.56857 0.23962 0.05568
 O195 O 0.54796 0.73353 0.03559
 O196 O 0.45356 0.73316 -0.03867
 O197 O 0.54078 0.73401 -0.04535
 O198 O 0.45997 0.73472 0.04208
 O199 O 0.46034 0.80325 0.04264
 O200 O 0.54103 0.80256 -0.04525
 O201 O 0.45329 0.80171 -0.03865
 O202 O 0.54799 0.80206 0.03594
 Cu203 Cu 0.50063 0.72700 -0.00148
 Cu204 Cu 0.50069 0.80929 -0.00129
 C205 C 0.56435 0.76779 0.04828
 C206 C 0.43716 0.76726 -0.05129
 C207 C 0.55477 0.76814 -0.06022
 C208 C 0.44596 0.76907 0.05704
 O209 O 0.05003 0.46620 0.30189
 O210 O -0.03908 0.54609 0.30433
 O211 O -0.03720 0.46503 0.30497
 O212 O 0.04797 0.54790 0.30000
 O213 O 0.04484 0.54587 0.23100
 O214 O -0.04156 0.46447 0.23587
 O215 O -0.04309 0.54381 0.23525
 O216 O 0.04594 0.46406 0.23293
 Cu217 Cu 0.00605 0.50647 0.30973
 Cu218 Cu 0.00174 0.50446 0.22676
 C219 C 0.06248 0.45083 0.26700
 C220 C -0.05659 0.55814 0.27024
 C221 C -0.05428 0.45110 0.27122
 C222 C 0.06037 0.56154 0.26461
 O223 O 0.04006 0.54137 0.69543
 O224 O -0.04502 0.45803 0.69195
 O225 O -0.04725 0.53922 0.69143
 O226 O 0.04251 0.46051 0.69766
 O227 O 0.03674 0.46159 0.76656
 O228 O -0.05236 0.54040 0.76048
 O229 O -0.05124 0.46084 0.76087
 O230 O 0.03568 0.54239 0.76440
 Cu231 Cu -0.00195 0.49957 0.68717
 Cu232 Cu -0.00804 0.50143 0.77003
 C233 C 0.05261 0.55597 0.73057
 C234 C -0.06316 0.44581 0.72573
 C235 C -0.06530 0.55289 0.72491
 C236 C 0.05501 0.44768 0.73331
 C237 C 0.37598 0.20795 0.15391
 C238 C 0.35977 0.24546 0.17062
 C239 C 0.37994 0.28241 0.15624
 C240 C 0.41085 0.28155 0.12274
 C241 C 0.42239 0.24372 0.10281
 C242 C 0.40642 0.20708 0.12085
 C243 C 0.38409 0.17035 0.10107
 C244 C 0.35077 0.17127 0.13732
 H245 H 0.37083 0.31213 0.16990
 H246 H 0.42429 0.31067 0.11150
 H247 H 0.40619 0.14245 0.10106
 H248 H 0.36847 0.17771 0.07038
 H249 H 0.35376 0.14393 0.15816
 H250 H 0.31580 0.17916 0.12771
 C251 C 0.65767 0.72988 0.11909
 C252 C 0.67081 0.76597 0.14099
 C253 C 0.65367 0.80411 0.12564
 C254 C 0.62052 0.80493 0.09414
 C255 C 0.60318 0.76776 0.07717
 C256 C 0.62456 0.73078 0.08842
 C257 C 0.60493 0.69033 0.10165
 C258 C 0.64099 0.68917 0.13530
 H259 H 0.66508 0.83362 0.13803
 H260 H 0.60697 0.83465 0.08468
 H261 H 0.60923 0.66577 0.07731
 H262 H 0.57019 0.69356 0.11445
 H263 H 0.66581 0.66371 0.13034
 H264 H 0.62721 0.69167 0.16763
 C265 C 0.65485 0.27218 -0.12388
 C266 C 0.65474 0.24151 -0.15571
 C267 C 0.61791 0.21314 -0.15485
 C268 C 0.58663 0.21316 -0.12163
 C269 C 0.59018 0.24206 -0.08870
 C270 C 0.62319 0.27268 -0.09173
 C271 C 0.65676 0.28581 -0.05965
 C272 C 0.69167 0.28503 -0.09439
 H273 H 0.61222 0.19061 -0.17942
 H274 H 0.55984 0.19030 -0.12159
 H275 H 0.66249 0.26180 -0.03538
 H276 H 0.64978 0.31756 -0.04733
 H277 H 0.71768 0.26047 -0.09043
 H278 H 0.70515 0.31645 -0.10127
 C279 C 0.34798 0.72761 -0.12581
 C280 C 0.33094 0.76391 -0.14375
 C281 C 0.34418 0.80210 -0.12544
 C282 C 0.37765 0.80341 -0.09413
 C283 C 0.39858 0.76657 -0.08046
 C284 C 0.38091 0.72889 -0.09511
 C285 C 0.40430 0.69146 -0.11252
 C286 C 0.36813 0.69004 -0.14617
 H287 H 0.33000 0.83106 -0.13629
 H288 H 0.38851 0.83332 -0.08216
 H289 H 0.40273 0.66470 -0.09079
 H290 H 0.43846 0.69861 -0.12494
 H291 H 0.34576 0.66248 -0.14376
 H292 H 0.38126 0.69637 -0.17812
 C293 C 0.14304 0.36735 0.30252
 C294 C 0.15901 0.34835 0.26600
 C295 C 0.14133 0.36424 0.22804
 C296 C 0.11009 0.39773 0.22806
 C297 C 0.09565 0.41658 0.26603
 C298 C 0.11347 0.39972 0.30245
 C299 C 0.11424 0.40476 0.34878
 C300 C 0.14794 0.36833 0.34896
 H301 H 0.15121 0.35067 0.19830
 H302 H 0.09736 0.40869 0.19838
 H303 H 0.08118 0.39722 0.36330
 H304 H 0.12934 0.43484 0.35870
 H305 H 0.13431 0.34000 0.36405
 H306 H 0.18246 0.37750 0.35885
 C307 C 0.14022 0.63085 0.77248
 C308 C 0.15220 0.65481 0.73750
 C309 C 0.13451 0.64139 0.69839
 C310 C 0.10320 0.60847 0.69581
 C311 C 0.08798 0.58830 0.73220
 C312 C 0.10889 0.59892 0.76992
 C313 C 0.08868 0.60936 0.81145
 C314 C 0.12279 0.64439 0.81445
 H315 H 0.14459 0.65585 0.66943
 H316 H 0.08969 0.59998 0.66546
 H317 H 0.09443 0.58447 0.83476
 H318 H 0.05326 0.62044 0.80902
 H319 H 0.14788 0.63964 0.83978
 H320 H 0.10719 0.67580 0.81383
 C321 C -0.12360 0.65480 0.29574
 C322 C -0.15787 0.65488 0.26506
 C323 C -0.16219 0.61762 0.24112
 C324 C -0.13004 0.58556 0.24372
 C325 C -0.09334 0.58882 0.27124
 C326 C -0.09260 0.62249 0.29896
 C327 C -0.05453 0.65093 0.30913
 C328 C -0.08792 0.68643 0.30541
 H329 H -0.18969 0.61261 0.21961
 H330 H -0.13322 0.55869 0.22331
 H331 H -0.02800 0.65106 0.28447
 H332 H -0.04199 0.64648 0.34156
 H333 H -0.08087 0.70719 0.27852
 H334 H -0.09381 0.70264 0.33578
 C335 C -0.12818 0.34836 0.69918
 C336 C -0.16387 0.34855 0.72854
 C337 C -0.16937 0.38601 0.75198
 C338 C -0.13720 0.41806 0.75026
 C339 C -0.09925 0.41458 0.72415
 C340 C -0.09713 0.38067 0.69679
 C341 C -0.05857 0.35214 0.68841
 C342 C -0.09204 0.31665 0.69122
 H343 H -0.19788 0.39123 0.77236
 H344 H -0.14148 0.44517 0.77018
 H345 H -0.03326 0.35228 0.71407
 H346 H -0.04447 0.35624 0.65644
 H347 H -0.08627 0.29617 0.71857
 H348 H -0.09646 0.30012 0.66082
 C349 C 0.21331 0.13468 0.37248
 C350 C 0.25350 0.15402 0.35992
 C351 C 0.29421 0.13678 0.37498
 C352 C 0.29405 0.10422 0.40420
 C353 C 0.25313 0.08775 0.41921
 C354 C 0.21329 0.10224 0.40095
 C355 C 0.17035 0.11599 0.42090
 C356 C 0.17052 0.15200 0.39050
 H357 H 0.32637 0.14948 0.36540
 H358 H 0.32596 0.09307 0.41612
 H359 H 0.17479 0.12577 0.45412
 H360 H 0.14248 0.09361 0.41516
 H361 H 0.17521 0.18231 0.40680
 H362 H 0.14221 0.15082 0.36777
 C363 C 0.78962 0.12398 0.64020
 C364 C 0.75013 0.14438 0.65302
 C365 C 0.70879 0.12781 0.63862
 C366 C 0.70789 0.09562 0.60843
 C367 C 0.74835 0.07884 0.59234
 C368 C 0.78862 0.09186 0.61108
 C369 C 0.83278 0.10382 0.59241
 C370 C 0.83382 0.13946 0.62392
 H371 H 0.67715 0.14112 0.64912
 H372 H 0.67563 0.08538 0.59636
 H373 H 0.82968 0.11423 0.55942
 H374 H 0.85927 0.08008 0.59804
 H375 H 0.83156 0.17007 0.60829
 H376 H 0.86130 0.13652 0.64732
 C377 C 0.28384 -0.12476 0.64790
 C378 C 0.24382 -0.14519 0.65859
 C379 C 0.20347 -0.13012 0.64090
 C380 C 0.20443 -0.09880 0.61030
 C381 C 0.24578 -0.08199 0.59646
 C382 C 0.28484 -0.09417 0.61757
 C383 C 0.32918 -0.10879 0.60086
 C384 C 0.32810 -0.14227 0.63417
 H385 H 0.17127 -0.14306 0.64999
 H386 H 0.17294 -0.08894 0.59645
 H387 H 0.35633 -0.08552 0.60595
 H388 H 0.32673 -0.12133 0.56840
 H389 H 0.35458 -0.13820 0.65844
 H390 H 0.32507 -0.17425 0.62108
 C391 C 0.71553 -0.11914 0.34808
 C392 C 0.75535 -0.14015 0.33750
 C393 C 0.79580 -0.12544 0.35540
 C394 C 0.79505 -0.09413 0.38647
 C395 C 0.75378 -0.07709 0.40056
 C396 C 0.71469 -0.08864 0.37897
 C397 C 0.66993 -0.10262 0.39498
 C398 C 0.67082 -0.13600 0.36103
 H399 H 0.82785 -0.13898 0.34641
 H400 H 0.82656 -0.08487 0.40082
 H401 H 0.64322 -0.07892 0.39009
 H402 H 0.67180 -0.11532 0.42721
 H403 H 0.64470 -0.13144 0.33658
 H404 H 0.67316 -0.16807 0.37353
 C405 C 0.63260 0.72858 -0.14482
 C406 C 0.65197 0.76369 -0.16270
 C407 C 0.63861 0.80235 -0.14492
 C408 C 0.60700 0.80425 -0.11139
 C409 C 0.58770 0.76756 -0.09487
 C410 C 0.60214 0.73049 -0.11307
 C411 C 0.59399 0.68490 -0.11326
 C412 C 0.62837 0.68261 -0.14939
 H413 H 0.65268 0.83104 -0.15658
 H414 H 0.59773 0.83433 -0.09864
 H415 H 0.55905 0.67695 -0.12297
 H416 H 0.60584 0.66996 -0.08401
 H417 H 0.61315 0.67338 -0.17985
 H418 H 0.65981 0.66591 -0.14092
 C419 C 0.35530 0.20830 -0.12405
 C420 C 0.34095 0.24450 -0.14374
 C421 C 0.36108 0.28186 -0.12902
 C422 C 0.39355 0.28162 -0.09642
 C423 C 0.40699 0.24401 -0.07739
 C424 C 0.38620 0.20818 -0.09256
 C425 C 0.38415 0.16237 -0.08721
 C426 C 0.34899 0.16238 -0.12265
 H427 H 0.35258 0.31128 -0.14317
 H428 H 0.40846 0.31081 -0.08667
 H429 H 0.37001 0.15356 -0.05628
 H430 H 0.41637 0.14691 -0.09598
 H431 H 0.31457 0.15365 -0.11213
 H432 H 0.36105 0.14644 -0.15155
 C433 C 0.35636 0.73191 0.13224
 C434 C 0.34705 0.76687 0.15754
 C435 C 0.36779 0.80465 0.14535
 C436 C 0.39917 0.80576 0.11211
 C437 C 0.41146 0.76914 0.09047
 C438 C 0.38775 0.73298 0.10003
 C439 C 0.40483 0.69045 0.10915
 C440 C 0.37059 0.68908 0.14450
 H441 H 0.35992 0.83369 0.16093
 H442 H 0.41487 0.83508 0.10438
 H443 H 0.44036 0.69045 0.12023
 H444 H 0.39733 0.66814 0.08336
 H445 H 0.38621 0.68823 0.17611
 H446 H 0.34365 0.66569 0.13902
 C447 C 0.65603 0.20169 0.13298
 C448 C 0.67060 0.23863 0.15251
 C449 C 0.65550 0.27630 0.13480
 C450 C 0.62410 0.27659 0.10191
 C451 C 0.60648 0.23921 0.08564
 C452 C 0.62530 0.20213 0.10010
 C453 C 0.60303 0.16304 0.11356
 C454 C 0.63571 0.16273 0.15010
 H455 H 0.66597 0.30590 0.14779
 H456 H 0.61188 0.30625 0.09087
 H457 H 0.60876 0.13718 0.09091
 H458 H 0.56733 0.16783 0.12320
 H459 H 0.65959 0.13613 0.14901
 H460 H 0.61800 0.16750 0.18045
 C461 C -0.13302 0.64669 0.69413
 C462 C -0.16708 0.64891 0.72505
 C463 C -0.17082 0.61382 0.75159
 C464 C -0.13846 0.58188 0.75070
 C465 C -0.10212 0.58318 0.72253
 C466 C -0.10180 0.61449 0.69270
 C467 C -0.06400 0.64235 0.68054
 C468 C -0.09768 0.67779 0.68230
 H469 H -0.19809 0.61045 0.77370
 H470 H -0.14123 0.55670 0.77285
 H471 H -0.05155 0.63552 0.64837
 H472 H -0.03739 0.64456 0.70495
 H473 H -0.10379 0.69161 0.65104
 H474 H -0.09074 0.70061 0.70780
 C475 C -0.11746 0.35382 0.29950
 C476 C -0.15053 0.35067 0.26790
 C477 C -0.15581 0.38617 0.24214
 C478 C -0.12542 0.41957 0.24426
 C479 C -0.08962 0.41934 0.27292
 C480 C -0.08811 0.38742 0.30210
 C481 C -0.04910 0.36105 0.31437
 C482 C -0.08074 0.32414 0.31135
 H483 H -0.18285 0.38878 0.21976
 H484 H -0.12917 0.44506 0.22260
 H485 H -0.03774 0.36779 0.34686
 H486 H -0.02186 0.36054 0.29038
 H487 H -0.08686 0.30944 0.34221
 H488 H -0.07198 0.30216 0.28555
 C489 C 0.13810 0.37138 0.77859
 C490 C 0.15665 0.35208 0.74311
 C491 C 0.14627 0.36940 0.70378
 C492 C 0.11415 0.40148 0.70043
 C493 C 0.09172 0.41692 0.73633
 C494 C 0.10643 0.40283 0.77531
 C495 C 0.08007 0.38723 0.81180
 C496 C 0.11487 0.35276 0.81543
 H497 H 0.16182 0.35737 0.67550
 H498 H 0.10561 0.41289 0.66965
 H499 H 0.04602 0.37582 0.80280
 H500 H 0.08067 0.40937 0.83867
 H501 H 0.10106 0.32134 0.80856
 H502 H 0.13552 0.35513 0.84436
 C503 C 0.13320 0.65246 0.29741
 C504 C 0.15570 0.66368 0.26037
 C505 C 0.14123 0.64340 0.22310
 C506 C 0.10962 0.61079 0.22422
 C507 C 0.09180 0.59699 0.26257
 C508 C 0.10249 0.61998 0.29846
 C509 C 0.11823 0.60564 0.34022
 C510 C 0.15198 0.64105 0.33925
 H511 H 0.15380 0.65246 0.19273
 H512 H 0.10033 0.59556 0.19515
 H513 H 0.13426 0.57442 0.33888
 H514 H 0.09193 0.60964 0.36475
 H515 H 0.18762 0.63043 0.33739
 H516 H 0.14515 0.66519 0.36352
 C517 C 0.77987 -0.14813 0.61291
 C518 C 0.73972 -0.15977 0.63269
 C519 C 0.69934 -0.14193 0.61798
 C520 C 0.70040 -0.11002 0.58805
 C521 C 0.74189 -0.09505 0.57253
 C522 C 0.78099 -0.11650 0.58379
 C523 C 0.82519 -0.10071 0.59953
 C524 C 0.82400 -0.13550 0.63142
 H525 H 0.66712 -0.15160 0.63054
 H526 H 0.66893 -0.09580 0.57872
 H527 H 0.82258 -0.06921 0.61389
 H528 H 0.85250 -0.10451 0.57592
 H529 H 0.82074 -0.12423 0.66429
 H530 H 0.85056 -0.15935 0.62611
 C531 C 0.21741 -0.13838 0.37928
 C532 C 0.25753 -0.15095 0.35975
 C533 C 0.29816 -0.13448 0.37577
 C534 C 0.29756 -0.10329 0.40704
 C535 C 0.25632 -0.08766 0.42279
 C536 C 0.21678 -0.10754 0.40979
 C537 C 0.17360 -0.08983 0.39390
 C538 C 0.17426 -0.12373 0.36048
 H539 H 0.33032 -0.14492 0.36352
 H540 H 0.32930 -0.09041 0.41765
 H541 H 0.17776 -0.05805 0.38104
 H542 H 0.14560 -0.09335 0.41677
 H543 H 0.17876 -0.11167 0.32821
 H544 H 0.14668 -0.14677 0.36418
 C545 C 0.79209 0.14688 0.37986
 C546 C 0.75327 0.15963 0.35863
 C547 C 0.71158 0.14378 0.37255
 C548 C 0.71004 0.11245 0.40304
 C549 C 0.75016 0.09611 0.42006
 C550 C 0.79063 0.11580 0.40963
 C551 C 0.83466 0.09800 0.39555
 C552 C 0.83628 0.13215 0.36297
 H553 H 0.68031 0.15447 0.35891
 H554 H 0.67758 0.09969 0.41164
 H555 H 0.83118 0.06634 0.38173
 H556 H 0.86118 0.10121 0.41990
 H557 H 0.83379 0.12035 0.33024
 H558 H 0.86369 0.15504 0.36863
 C559 C 0.20792 0.13292 0.64435
 C560 C 0.24760 0.15120 0.65990
 C561 C 0.28885 0.13348 0.64654
 C562 C 0.28994 0.10192 0.61574
 C563 C 0.24974 0.08688 0.59760
 C564 C 0.20910 0.10125 0.61460
 C565 C 0.16721 0.11558 0.59360
 C566 C 0.16608 0.15088 0.62544
 H567 H 0.32054 0.14526 0.65850
 H568 H 0.32237 0.09049 0.60510
 H569 H 0.13902 0.09319 0.59740
 H570 H 0.17328 0.12609 0.56098
 H571 H 0.13668 0.14932 0.64699
 H572 H 0.17153 0.18141 0.61029
   
