data_POSCAR
  _audit_creation_date              2014-09-24
  _audit_creation_method            'ToBaCCo'
  _symmetry_space_group_name_H-M    'P1'
  _symmetry_Int_Tables_number       1
  _symmetry_cell_setting            triclinic
  loop_
  _symmetry_equiv_pos_as_xyz
 x,y,z
_cell_length_a 31.9160
_cell_length_b 31.9644
_cell_length_c 31.8343
_cell_angle_alpha 95.564000
_cell_angle_beta 78.865800
_cell_angle_gamma 81.508900
loop_
  _atom_site_label
  _atom_site_type_symbol
  _atom_site_fract_x
  _atom_site_fract_y
  _atom_site_fract_z
C1 C 0.51243 0.52872 0.00782
 C2 C 0.47778 0.56341 0.01070
 C3 C 0.43632 0.55400 0.00857
 C4 C 0.42729 0.51211 0.00445
 C5 C 0.46127 0.47801 0.00428
 C6 C 0.50294 0.48688 0.00492
 H7 H 0.52829 0.46019 0.00477
 H8 H 0.41023 0.58021 0.00958
 C9 C 0.01308 0.52902 0.48921
 C10 C 0.01623 0.49503 0.45582
 C11 C 0.01727 0.45322 0.46578
 C12 C 0.01443 0.44364 0.50820
 C13 C 0.01100 0.47704 0.54187
 C14 C 0.01029 0.51898 0.53186
 H15 H 0.00884 0.54392 0.55794
 H16 H 0.01950 0.42769 0.43995
 C17 C 0.51322 0.01183 0.45148
 C18 C 0.48405 -0.00288 0.48367
 C19 C 0.49528 -0.00794 0.52354
 C20 C 0.53480 0.00101 0.53280
 C21 C 0.56556 0.01320 0.49922
 C22 C 0.55332 0.01928 0.45964
 H23 H 0.57647 0.02704 0.43312
 H24 H 0.47084 -0.01575 0.54887
 O25 O 0.46507 0.01309 -0.05725
 O26 O 0.45347 0.02152 0.06044
 O27 O 0.45429 0.07656 0.00403
 O28 O 0.46507 -0.04034 -0.00111
 O29 O 0.53612 -0.04590 -0.01075
 O30 O 0.52502 0.07115 -0.00213
 O31 O 0.52446 0.01574 0.05238
 O32 O 0.53580 0.00983 -0.06542
 Cu33 Cu 0.45231 0.01851 0.00233
 Cu34 Cu 0.53747 0.01225 -0.00731
 C35 C 0.50230 0.00992 -0.08145
 C36 C 0.48708 0.01923 0.07646
 C37 C 0.48791 0.09383 0.00206
 C38 C 0.50237 -0.06312 -0.00684
 O39 O -0.08881 0.53164 1.01712
 O40 O 0.02952 0.52117 1.00680
 O41 O -0.02179 0.52361 0.95296
 O42 O -0.03551 0.53024 1.07085
 O43 O -0.03258 0.46045 1.06663
 O44 O -0.01553 0.45352 0.94773
 O45 O 0.03478 0.45128 1.00392
 O46 O -0.08259 0.46155 1.01063
 Cu47 Cu -0.03005 0.53373 1.01243
 Cu48 Cu -0.02355 0.44970 1.00674
 C49 C -0.10581 0.49816 1.01490
 C50 C 0.05224 0.48450 1.00435
 C51 C -0.01579 0.48756 0.93010
 C52 C -0.03565 0.49648 1.08880
 O53 O 0.03347 -0.07823 0.45861
 O54 O 0.02357 0.03846 0.46122
 O55 O 0.08823 -0.02373 0.45030
 O56 O -0.03003 -0.01471 0.46734
 O57 O -0.03527 -0.00753 0.53794
 O58 O 0.08384 -0.01874 0.52071
 O59 O 0.02037 0.04501 0.53150
 O60 O 0.02754 -0.07085 0.52923
 Cu61 Cu 0.02956 -0.02053 0.45223
 Cu62 Cu 0.02382 -0.01245 0.53688
 C63 C 0.03094 -0.09433 0.49382
 C64 C 0.02040 0.06162 0.49685
 C65 C 0.10622 -0.02206 0.48254
 C66 C -0.05292 -0.00932 0.50540
 C67 C -0.43611 0.56501 1.04104
 C68 C -0.39349 0.56739 1.04500
 C69 C -0.35875 0.53788 1.01995
 C70 C -0.36695 0.50669 0.98988
 C71 C -0.40917 0.50460 0.98544
 C72 C -0.44469 0.53352 1.01103
 N73 N -0.31548 0.53921 1.02577
 N74 N -0.28548 0.50735 1.01095
 C75 C -0.24132 0.50627 1.01436
 C76 C -0.21306 0.46731 1.00269
 C77 C -0.16932 0.46468 1.00382
 C78 C -0.15278 0.50130 1.01611
 C79 C -0.18126 0.54054 1.02808
 C80 C -0.22538 0.54300 1.02747
 H81 H -0.46229 0.58677 1.06272
 H82 H -0.38767 0.59145 1.06855
 H83 H -0.34065 0.48385 0.96963
 H84 H -0.41389 0.48052 0.96122
 H85 H -0.22502 0.43886 0.99239
 H86 H -0.14829 0.43402 0.99418
 H87 H -0.16943 0.56928 1.03770
 H88 H -0.24673 0.57351 1.03642
 C89 C 0.36310 0.53197 0.97459
 C90 C 0.32070 0.52895 0.97154
 C91 C 0.29879 0.50038 0.99365
 C92 C 0.31993 0.47431 1.01896
 C93 C 0.36249 0.47755 1.02248
 C94 C 0.38489 0.50652 1.00027
 N95 N 0.25453 0.50031 0.99118
 N96 N 0.23282 0.47264 1.00590
 C97 C 0.18802 0.47535 1.00390
 C98 C 0.16679 0.44112 1.01373
 C99 C 0.12281 0.44356 1.01289
 C100 C 0.09925 0.48071 1.00286
 C101 C 0.12070 0.51495 0.99290
 C102 C 0.16470 0.51223 0.99315
 H103 H 0.37912 0.55391 0.95600
 H104 H 0.30471 0.54915 0.95189
 H105 H 0.30319 0.45245 1.03696
 H106 H 0.37683 0.45885 1.04426
 H107 H 0.18432 0.41257 1.02216
 H108 H 0.10704 0.41677 1.02097
 H109 H 0.10345 0.54394 0.98500
 H110 H 0.18028 0.53925 0.98561
 C111 C 0.04140 -0.41784 0.44477
 C112 C 0.04478 -0.37544 0.43945
 C113 C 0.02191 -0.34225 0.47104
 C114 C -0.00598 -0.35174 0.50730
 C115 C -0.00996 -0.39394 0.51237
 C116 C 0.01410 -0.42801 0.48151
 N117 N 0.02858 -0.29940 0.46664
 N118 N 0.01704 -0.27033 0.49885
 C119 C 0.02269 -0.22702 0.49628
 C120 C 0.01434 -0.19909 0.53462
 C121 C 0.01830 -0.15630 0.53375
 C122 C 0.03021 -0.14046 0.49426
 C123 C 0.03898 -0.16868 0.45565
 C124 C 0.03549 -0.21177 0.45664
 H125 H 0.06272 -0.44240 0.42149
 H126 H 0.06680 -0.36858 0.41156
 H127 H -0.02460 -0.32653 0.53190
 H128 H -0.03246 -0.39968 0.54048
 H129 H 0.00446 -0.21053 0.56533
 H130 H 0.01104 -0.13543 0.56406
 H131 H 0.04813 -0.15738 0.42474
 H132 H 0.04202 -0.23289 0.42656
 C133 C 0.04468 0.37758 0.53700
 C134 C 0.04641 0.33412 0.54080
 C135 C 0.01916 0.31084 0.52228
 C136 C -0.01114 0.33184 0.50138
 C137 C -0.01339 0.37526 0.49822
 C138 C 0.01485 0.39845 0.51545
 N139 N 0.02352 0.26580 0.52375
 N140 N 0.00736 0.24223 0.49883
 C141 C 0.01076 0.19718 0.49933
 C142 C -0.00002 0.17271 0.46541
 C143 C 0.00339 0.12856 0.46440
 C144 C 0.01687 0.10829 0.49792
 C145 C 0.02710 0.13301 0.53234
 C146 C 0.02441 0.17713 0.53289
 H147 H 0.06719 0.39466 0.55001
 H148 H 0.06992 0.31826 0.55697
 H149 H -0.03287 0.31464 0.48721
 H150 H -0.03685 0.39073 0.48173
 H151 H -0.01069 0.18792 0.43944
 H152 H -0.00492 0.11034 0.43762
 H153 H 0.03769 0.11817 0.55854
 H154 H 0.03269 0.19553 0.55956
 C155 C 0.55821 0.03411 -0.40414
 C156 C 0.55998 0.03639 -0.36043
 C157 C 0.54229 0.00742 -0.33504
 C158 C 0.52440 -0.02512 -0.35418
 C159 C 0.52327 -0.02797 -0.39789
 C160 C 0.53965 0.00190 -0.42369
 N161 N 0.54128 0.01237 -0.28968
 N162 N 0.51564 -0.00526 -0.26408
 C163 C 0.51346 -0.00128 -0.21859
 C164 C 0.47809 -0.01316 -0.19204
 C165 C 0.47430 -0.00913 -0.14739
 C166 C 0.50648 0.00604 -0.12866
 C167 C 0.54243 0.01731 -0.15542
 C168 C 0.54572 0.01406 -0.20011
 H169 H 0.56967 0.05880 -0.42199
 H170 H 0.57362 0.06181 -0.34593
 H171 H 0.51114 -0.04834 -0.33530
 H172 H 0.50995 -0.05410 -0.41155
 H173 H 0.45314 -0.02514 -0.20602
 H174 H 0.44643 -0.01834 -0.12755
 H175 H 0.56763 0.02915 -0.14173
 H176 H 0.57348 0.02319 -0.22018
 C177 C 0.51198 0.05610 0.39111
 C178 C 0.50785 0.06126 0.34902
 C179 C 0.49525 0.02926 0.32357
 C180 C 0.48641 -0.00815 0.34079
 C181 C 0.49146 -0.01378 0.38269
 C182 C 0.50438 0.01833 0.40822
 N183 N 0.49453 0.03437 0.27959
 N184 N 0.47496 0.01211 0.25703
 C185 C 0.47718 0.01610 0.21230
 C186 C 0.44612 0.00139 0.19182
 C187 C 0.44852 0.00368 0.14780
 C188 C 0.48283 0.01964 0.12343
 C189 C 0.51402 0.03431 0.14402
 C190 C 0.51098 0.03300 0.18821
 H191 H 0.52195 0.08131 0.41014
 H192 H 0.51493 0.09010 0.33599
 H193 H 0.47720 -0.03356 0.32135
 H194 H 0.48636 -0.04356 0.39472
 H195 H 0.42007 -0.01190 0.21001
 H196 H 0.42429 -0.00818 0.13255
 H197 H 0.54076 0.04676 0.12591
 H198 H 0.53559 0.04418 0.20332
 C199 C 0.45045 -0.36152 0.03909
 C200 C 0.45260 -0.31836 0.03883
 C201 C 0.48689 -0.30527 0.01205
 C202 C 0.51980 -0.33608 -0.01440
 C203 C 0.51761 -0.37961 -0.01446
 C204 C 0.48270 -0.39305 0.01227
 N205 N 0.48598 -0.26045 0.01141
 N206 N 0.51694 -0.24440 -0.00871
 C207 C 0.51299 -0.19910 -0.00877
 C208 C 0.54970 -0.18126 -0.02378
 C209 C 0.54648 -0.13700 -0.02324
 C210 C 0.50621 -0.10998 -0.00827
 C211 C 0.46935 -0.12812 0.00608
 C212 C 0.47271 -0.17214 0.00606
 H213 H 0.42354 -0.37023 0.06085
 H214 H 0.42713 -0.29486 0.05943
 H215 H 0.54643 -0.32653 -0.03576
 H216 H 0.54226 -0.40252 -0.03675
 H217 H 0.58091 -0.20163 -0.03543
 H218 H 0.57543 -0.12395 -0.03464
 H219 H 0.43790 -0.10822 0.01791
 H220 H 0.44374 -0.18508 0.01757
 C221 C 0.44160 0.41206 -0.03226
 C222 C 0.43972 0.36835 -0.03481
 C223 C 0.45368 0.34422 -0.00404
 C224 C 0.46806 0.36464 0.03026
 C225 C 0.46914 0.40825 0.03329
 C226 C 0.45632 0.43236 0.00192
 N227 N 0.45421 0.29904 -0.00854
 N228 N 0.47726 0.27502 0.01102
 C229 C 0.47882 0.22983 0.00829
 C230 C 0.51269 0.20525 0.02160
 C231 C 0.51571 0.16104 0.01931
 C232 C 0.48415 0.14069 0.00462
 C233 C 0.44961 0.16546 -0.00801
 C234 C 0.44718 0.20974 -0.00663
 H235 H 0.43209 0.42990 -0.05712
 H236 H 0.42860 0.35302 -0.06145
 H237 H 0.47864 0.34683 0.05467
 H238 H 0.48055 0.42323 0.05994
 H239 H 0.53712 0.22044 0.03336
 H240 H 0.54252 0.14280 0.02948
 H241 H 0.42494 0.15052 -0.01959
 H242 H 0.42052 0.22824 -0.01676
 C243 C -0.36890 0.04567 0.48133
 C244 C -0.32542 0.04657 0.48184
 C245 C -0.30275 0.01795 0.50336
 C246 C -0.32405 -0.01193 0.52454
 C247 C -0.36743 -0.01344 0.52348
 C248 C -0.39084 0.01554 0.50203
 N249 N -0.25766 0.01858 0.50121
 N250 N -0.23632 -0.00066 0.52562
 C251 C -0.19069 -0.00111 0.52098
 C252 C -0.17012 -0.01391 0.55383
 C253 C -0.12537 -0.01562 0.54940
 C254 C -0.10045 -0.00546 0.51149
 C255 C -0.12121 0.00735 0.47861
 C256 C -0.16594 0.00985 0.48342
 H257 H -0.38548 0.06936 0.46536
 H258 H -0.30928 0.06976 0.46539
 H259 H -0.30681 -0.03495 0.54070
 H260 H -0.38199 -0.03846 0.53811
 H261 H -0.18881 -0.02260 0.58286
 H262 H -0.11012 -0.02584 0.57513
 H263 H -0.10282 0.01549 0.44911
 H264 H -0.18103 0.01956 0.45744
 C265 C 0.42701 -0.04916 0.49062
 C266 C 0.38488 -0.05592 0.49013
 C267 C 0.35585 -0.02559 0.47663
 C268 C 0.36953 0.01175 0.46322
 C269 C 0.41147 0.01901 0.46461
 C270 C 0.44063 -0.01141 0.47841
 N271 N 0.31209 -0.03227 0.47938
 N272 N 0.28655 -0.01191 0.45937
 C273 C 0.24213 -0.01717 0.46448
 C274 C 0.21888 -0.00412 0.43368
 C275 C 0.17500 -0.00720 0.43881
 C276 C 0.15338 -0.02237 0.47556
 C277 C 0.17677 -0.03555 0.50645
 C278 C 0.22094 -0.03341 0.50074
 H279 H 0.44881 -0.07309 0.50141
 H280 H 0.37466 -0.08470 0.50070
 H281 H 0.34736 0.03590 0.45321
 H282 H 0.42073 0.04882 0.45603
 H283 H 0.23479 0.00866 0.40574
 H284 H 0.15763 0.00356 0.41471
 H285 H 0.16086 -0.04729 0.53507
 H286 H 0.23822 -0.04334 0.52518
 C287 C 0.04899 0.48781 1.37706
 C288 C 0.04517 0.49091 1.33444
 C289 C 0.00487 0.50557 1.32512
 C290 C -0.03142 0.51893 1.35908
 C291 C -0.02726 0.51741 1.40192
 C292 C 0.01292 0.50153 1.41111
 N293 N 0.00159 0.50622 1.28100
 N294 N -0.03232 0.49926 1.26793
 C295 C -0.03503 0.50053 1.22369
 C296 C -0.05901 0.47357 1.20476
 C297 C -0.05952 0.47218 1.16076
 C298 C -0.03741 0.49906 1.13560
 C299 C -0.01487 0.52731 1.15508
 C300 C -0.01314 0.52760 1.19863
 H301 H 0.08005 0.47486 1.38362
 H302 H 0.07333 0.48050 1.30849
 H303 H -0.06277 0.53061 1.35242
 H304 H -0.05554 0.52742 1.42782
 H305 H -0.07607 0.45260 1.22380
 H306 H -0.07714 0.45020 1.14638
 H307 H 0.00265 0.54813 1.13623
 H308 H 0.00527 0.54890 1.21278
 C309 C -0.02367 0.44806 0.60863
 C310 C -0.02772 0.44387 0.65258
 C311 C -0.00118 0.46235 0.67664
 C312 C 0.03062 0.48382 0.65581
 C313 C 0.03520 0.48735 0.61184
 C314 C 0.00784 0.46994 0.58784
 N315 N -0.00779 0.46020 0.72221
 N316 N 0.00794 0.48475 0.74665
 C317 C 0.00219 0.48397 0.79231
 C318 C 0.01204 0.51806 0.81742
 C319 C 0.00605 0.51919 0.86216
 C320 C -0.00907 0.48562 0.88259
 C321 C -0.01813 0.45086 0.85726
 C322 C -0.01295 0.45021 0.81243
 H323 H -0.04567 0.43497 0.59110
 H324 H -0.05243 0.42733 0.66822
 H325 H 0.05180 0.49807 0.67356
 H326 H 0.05989 0.50415 0.59657
 H327 H 0.02386 0.54418 0.80226
 H328 H 0.01357 0.54624 0.88078
 H329 H -0.02991 0.42461 0.87219
 H330 H -0.02053 0.42339 0.79356
   
