data_POSCAR
  _audit_creation_date              2014-09-24
  _audit_creation_method            'ToBaCCo'
  _symmetry_space_group_name_H-M    'P1'
  _symmetry_Int_Tables_number       1
  _symmetry_cell_setting            triclinic
  loop_
  _symmetry_equiv_pos_as_xyz
 x,y,z
_cell_length_a 48.9013
_cell_length_b 48.9433
_cell_length_c 13.4387
_cell_angle_alpha 90.095700
_cell_angle_beta 89.997300
_cell_angle_gamma 119.848800
loop_
  _atom_site_label
  _atom_site_type_symbol
  _atom_site_fract_x
  _atom_site_fract_y
  _atom_site_fract_z
C1 C 0.22299 0.49655 0.44940
 C2 C 0.22298 0.49625 0.55454
 C3 C 0.24777 0.49599 0.60622
 C4 C 0.27257 0.49588 0.55429
 C5 C 0.27248 0.49607 0.44928
 C6 C 0.24780 0.49647 0.39763
 H7 H 0.24790 0.49660 0.31686
 H8 H 0.24770 0.49576 0.68703
 C9 C 0.50441 -0.27273 0.44735
 C10 C 0.50454 -0.27245 0.55235
 C11 C 0.50455 -0.24754 0.60401
 C12 C 0.50458 -0.22271 0.55215
 C13 C 0.50453 -0.22297 0.44714
 C14 C 0.50438 -0.24794 0.39552
 H15 H 0.50439 -0.24794 0.31475
 H16 H 0.50467 -0.24747 0.68478
 C17 C 1.27314 0.77752 0.44374
 C18 C 1.27297 0.77743 0.54880
 C19 C 1.24833 0.75244 0.60042
 C20 C 1.22374 0.72752 0.54848
 C21 C 1.22385 0.72762 0.44370
 C22 C 1.24850 0.75252 0.39188
 H23 H 1.24840 0.75242 0.31111
 H24 H 1.24825 0.75243 0.68114
 C25 C 0.77691 0.50407 0.45268
 C26 C 0.77710 0.50433 0.55772
 C27 C 0.75211 0.50409 0.60976
 C28 C 0.72701 0.50367 0.55806
 C29 C 0.72689 0.50341 0.45313
 C30 C 0.75178 0.50358 0.40119
 H31 H 0.75164 0.50344 0.32046
 H32 H 0.75224 0.50431 0.69057
 C33 C 0.49658 0.27315 0.45300
 C34 C 0.49650 0.27322 0.55798
 C35 C 0.49644 0.24839 0.61014
 C36 C 0.49644 0.22349 0.55845
 C37 C 0.49659 0.22351 0.45349
 C38 C 0.49667 0.24831 0.40147
 H39 H 0.49676 0.24826 0.32075
 H40 H 0.49635 0.24844 0.69095
 C41 C 0.72774 0.22354 0.44943
 C42 C 0.72774 0.22363 0.55421
 C43 C 0.75263 0.24829 0.60624
 C44 C 0.77763 0.27292 0.55457
 C45 C 0.77760 0.27283 0.44951
 C46 C 0.75264 0.24815 0.39770
 H47 H 0.75263 0.24806 0.31697
 H48 H 0.75252 0.24821 0.68701
 O49 O 1.04430 0.56951 0.18045
 O50 O 1.07891 0.56224 0.08446
 C51 C 1.07265 0.57671 0.15385
 O52 O 0.95627 0.42841 0.17286
 O53 O 0.92144 0.43730 0.08398
 C54 C 0.92784 0.42155 0.14827
 O55 O 1.04463 0.47478 0.18143
 O56 O 1.07911 0.51634 0.08519
 C57 C 1.07297 0.49583 0.15502
 O58 O 0.95578 0.52745 0.17194
 O59 O 0.92113 0.48402 0.08194
 C60 C 0.92739 0.50603 0.14684
 Zr61 Zr 1.00016 0.53456 0.12352
 O62 O 0.99684 0.53374 0.28065
 O63 O 1.00348 0.57938 0.11989
 Zr64 Zr 1.00043 0.46564 0.12436
 O65 O 0.99707 0.46391 0.28153
 O66 O 1.00407 0.42430 0.12295
 O67 O 1.02846 0.51420 0.14345
 O68 O 0.97300 0.48647 0.14257
 O69 O 0.95586 0.52753 -0.17514
 O70 O 0.92143 0.48426 -0.08493
 C71 C 0.92755 0.50622 -0.14954
 O72 O 1.04429 0.47421 -0.18366
 O73 O 1.07889 0.51608 -0.08805
 C74 C 1.07265 0.49533 -0.15727
 O75 O 0.95583 0.42781 -0.17444
 O76 O 0.92124 0.43695 -0.08509
 C77 C 0.92746 0.42101 -0.14940
 O78 O 1.04411 0.56918 -0.18449
 O79 O 1.07885 0.56211 -0.08872
 C80 C 1.07254 0.57646 -0.15829
 Zr81 Zr 1.00003 0.53416 -0.12722
 O82 O 0.99640 0.53212 -0.28438
 O83 O 1.00343 0.57901 -0.12641
 Zr84 Zr 1.00013 0.46517 -0.12666
 O85 O 0.99649 0.46291 -0.28378
 O86 O 1.00376 0.42382 -0.12430
 Zr87 Zr 1.04733 0.52341 -0.00171
 Zr88 Zr 0.95319 0.47635 -0.00106
 O89 O 0.97269 0.48598 -0.14501
 O90 O 1.02824 0.51369 -0.14672
 O91 O 0.97183 0.52557 -0.00172
 O92 O 1.02777 0.47415 -0.00127
 O93 O 1.02759 0.55305 -0.00200
 O94 O 0.97205 0.44588 -0.00085
 H95 H 0.95897 0.47955 0.20147
 H96 H 1.04205 0.46523 -0.00111
 H97 H 0.95849 0.47888 -0.20359
 H98 H 1.04177 0.57619 -0.00224
 H99 H 0.98595 0.40811 0.08461
 H100 H 0.98558 0.40769 -0.08620
 H101 H 1.01365 0.48302 -0.31019
 H102 H 1.01401 0.52973 -0.31046
 H103 H 0.98573 0.57731 -0.08609
 H104 H 0.98470 0.57702 0.08443
 H105 H 1.01363 0.53009 0.30705
 H106 H 1.01438 0.48402 0.30760
 O107 O 0.47491 0.43068 -0.18283
 O108 O 0.51655 0.43773 -0.08623
 C109 C 0.49599 0.42338 -0.15602
 O110 O 0.52770 0.57184 -0.17232
 O111 O 0.48396 0.56290 -0.08366
 C112 C 0.50614 0.57872 -0.14764
 O113 O 0.56930 0.52508 -0.18192
 O114 O 0.56244 0.48361 -0.08522
 C115 C 0.57675 0.50411 -0.15501
 O116 O 0.42854 0.47309 -0.17551
 O117 O 0.43690 0.51615 -0.08391
 C118 C 0.42137 0.49438 -0.14967
 Zr119 Zr 0.46579 0.46590 -0.12674
 O120 O 0.46471 0.46780 -0.28402
 O121 O 0.42431 0.42119 -0.12750
 Zr122 Zr 0.53488 0.53486 -0.12276
 O123 O 0.53867 0.53981 -0.27917
 O124 O 0.57831 0.57703 -0.10458
 O125 O 0.51443 0.48635 -0.14442
 O126 O 0.48672 0.51409 -0.14350
 O127 O 0.42751 0.47219 0.17122
 O128 O 0.43649 0.51575 0.08195
 C129 C 0.42061 0.49366 0.14602
 O130 O 0.56889 0.52495 0.18491
 O131 O 0.56196 0.48327 0.08861
 C132 C 0.57618 0.50381 0.15860
 O133 O 0.52692 0.57161 0.17500
 O134 O 0.48362 0.56297 0.08406
 C135 C 0.50551 0.57864 0.14939
 O136 O 0.47402 0.43022 0.18168
 O137 O 0.51603 0.43742 0.08685
 C138 C 0.49524 0.42298 0.15585
 Zr139 Zr 0.46496 0.46526 0.12427
 O140 O 0.46220 0.46620 0.28136
 O141 O 0.42365 0.42045 0.11993
 Zr142 Zr 0.53391 0.53416 0.12753
 O143 O 0.53168 0.53554 0.28472
 O144 O 0.57853 0.57572 0.12801
 Zr145 Zr 0.52346 0.47638 0.00074
 Zr146 Zr 0.47634 0.52350 0.00017
 O147 O 0.48568 0.51337 0.14414
 O148 O 0.51348 0.48556 0.14570
 O149 O 0.44588 0.47433 -0.00163
 O150 O 0.55320 0.52558 0.00256
 O151 O 0.47417 0.44685 -0.00124
 O152 O 0.52552 0.55396 0.00223
 H153 H 0.47974 0.52123 -0.20227
 H154 H 0.57634 0.53433 0.00306
 H155 H 0.47840 0.52039 0.20257
 H156 H 0.46523 0.42370 -0.00154
 H157 H 0.58630 0.58454 -0.17260
 H158 H 0.57727 0.59073 0.08156
 H159 H 0.52946 0.51562 0.31052
 H160 H 0.48253 0.46974 0.30833
 H161 H 0.40749 0.42265 0.08218
 H162 H 0.40815 0.42307 -0.08857
 H163 H 0.48440 0.46927 -0.30939
 H164 H 0.51951 0.52181 -0.30733
 O165 O 0.47485 0.04408 0.18386
 O166 O 0.51647 0.07869 0.08788
 C167 C 0.49592 0.07242 0.15773
 O168 O 0.52786 -0.04431 0.17141
 O169 O 0.48406 -0.07879 0.08266
 C170 C 0.50627 -0.07261 0.14653
 O171 O 0.56982 0.04395 0.18140
 O172 O 0.56248 0.07861 0.08650
 C173 C 0.57701 0.07232 0.15555
 O174 O 0.42838 -0.04436 0.17365
 O175 O 0.43698 -0.07893 0.08202
 C176 C 0.42133 -0.07273 0.14758
 Zr177 Zr 0.46559 -0.00001 0.12574
 O178 O 0.46354 -0.00355 0.28285
 O179 O 0.42418 0.00357 0.12408
 Zr180 Zr 0.53472 -0.00008 0.12403
 O181 O 0.53360 -0.00359 0.28114
 O182 O 0.57959 0.00327 0.12080
 O183 O 0.51423 0.02806 0.14491
 O184 O 0.48656 -0.02732 0.14308
 O185 O 0.42798 -0.04391 -0.17326
 O186 O 0.43723 -0.07860 -0.08527
 C187 C 0.42125 -0.07227 -0.14898
 O188 O 0.56925 0.04414 -0.18348
 O189 O 0.56219 0.07872 -0.08661
 C190 C 0.57653 0.07248 -0.15649
 O191 O 0.52726 -0.04428 -0.17610
 O192 O 0.48380 -0.07881 -0.08645
 C193 C 0.50578 -0.07264 -0.15129
 O194 O 0.47423 0.04442 -0.18117
 O195 O 0.51613 0.07884 -0.08541
 C196 C 0.49537 0.07273 -0.15452
 Zr197 Zr 0.46528 0.00024 -0.12498
 O198 O 0.46294 -0.00308 -0.28218
 O199 O 0.42387 0.00380 -0.12158
 Zr200 Zr 0.53429 0.00001 -0.12693
 O201 O 0.53251 -0.00331 -0.28415
 O202 O 0.57915 0.00333 -0.12618
 Zr203 Zr 0.52353 0.04714 0.00010
 Zr204 Zr 0.47656 -0.04686 -0.00093
 O205 O 0.48611 -0.02714 -0.14455
 O206 O 0.51383 0.02828 -0.14523
 O207 O 0.44598 -0.02810 0.00013
 O208 O 0.55320 0.02741 -0.00126
 O209 O 0.47423 0.02762 0.00090
 O210 O 0.52579 -0.02828 -0.00186
 H211 H 0.47955 -0.04146 0.20165
 H212 H 0.57636 0.04158 -0.00143
 H213 H 0.47901 -0.04117 -0.20358
 H214 H 0.46530 0.04189 0.00150
 H215 H 0.57749 -0.01495 0.08244
 H216 H 0.57721 -0.01486 -0.08828
 H217 H 0.52972 0.01409 -0.30970
 H218 H 0.48314 0.01397 -0.30852
 H219 H 0.40773 -0.01448 -0.08386
 H220 H 0.40784 -0.01484 0.08717
 H221 H 0.48395 0.01322 0.30912
 H222 H 0.53059 0.01358 0.30781
 C223 C 1.15132 0.49653 0.30329
 C224 C 1.12042 0.47541 0.33311
 C225 C 1.09493 0.47521 0.28523
 C226 C 1.19903 0.49669 0.39697
 C227 C 1.13121 0.51755 0.17778
 C228 C 1.15666 0.51765 0.22571
 C229 C 1.17747 0.49670 0.35324
 C230 C 1.10000 0.49625 0.20677
 H231 H 1.11603 0.45906 0.39341
 H232 H 1.07128 0.45857 0.30972
 H233 H 1.13603 0.53411 0.11785
 H234 H 1.18048 0.53419 0.20224
 C235 C 0.50533 0.65655 0.29800
 C236 C 0.48322 0.64005 0.22318
 C237 C 0.48340 0.61488 0.17413
 C238 C 0.50457 0.70333 0.39501
 C239 C 0.52800 0.62278 0.27422
 C240 C 0.52773 0.64788 0.32317
 C241 C 0.50483 0.68207 0.35009
 C242 C 0.50576 0.60586 0.19927
 H243 H 0.46574 0.64652 0.20315
 H244 H 0.46590 0.60240 0.11699
 H245 H 0.54549 0.61649 0.29575
 H246 H 0.54491 0.66042 0.38112
 C247 C 0.34350 -0.15074 0.29503
 C248 C 0.35223 -0.11977 0.32130
 C249 C 0.37731 -0.09441 0.27275
 C250 C 0.29690 -0.19832 0.39148
 C251 C 0.38505 -0.13092 0.17097
 C252 C 0.35992 -0.15624 0.21958
 C253 C 0.31804 -0.17677 0.34678
 C254 C 0.39413 -0.09965 0.19717
 H255 H 0.33976 -0.11520 0.37977
 H256 H 0.38364 -0.07071 0.29509
 H257 H 0.39745 -0.13587 0.11329
 H258 H 0.35343 -0.18011 0.19869
 C259 C 0.84966 0.50564 0.29768
 C260 C 0.84400 0.48350 0.22290
 C261 C 0.86925 0.48380 0.17294
 C262 C 0.80232 0.50449 0.39644
 C263 C 0.90594 0.52862 0.27207
 C264 C 0.88066 0.52822 0.32194
 C265 C 0.82377 0.50495 0.35076
 C266 C 0.90055 0.50632 0.19720
 H267 H 0.82009 0.46587 0.20364
 H268 H 0.86421 0.46626 0.11587
 H269 H 0.92968 0.54623 0.29290
 H270 H 0.88530 0.54542 0.37992
 C271 C 0.49593 0.34551 0.30362
 C272 C 0.51724 0.36135 0.22663
 C273 C 0.51712 0.38663 0.17880
 C274 C 0.49645 0.29833 0.39737
 C275 C 0.47429 0.38033 0.28512
 C276 C 0.47452 0.35509 0.33292
 C277 C 0.49625 0.31972 0.35365
 C278 C 0.49557 0.39639 0.20734
 H279 H 0.53399 0.35419 0.20364
 H280 H 0.53387 0.39845 0.11938
 H281 H 0.45748 0.38724 0.30921
 H282 H 0.45802 0.34307 0.39281
 C283 C 0.65484 0.15046 0.30211
 C284 C 0.63870 0.15581 0.22558
 C285 C 0.61329 0.13041 0.17823
 C286 C 0.70239 0.19820 0.39451
 C287 C 0.62001 0.09413 0.28423
 C288 C 0.64538 0.11960 0.33156
 C289 C 0.68084 0.17659 0.35142
 C290 C 0.60368 0.09923 0.20683
 H291 H 0.64574 0.17962 0.20250
 H292 H 0.60127 0.13525 0.11904
 H293 H 0.61323 0.07049 0.30828
 H294 H 0.65762 0.11521 0.39114
 C295 C 0.49573 0.15134 -0.29816
 C296 C 0.51695 0.15644 -0.22100
 C297 C 0.51694 0.13088 -0.17465
 C298 C 0.49622 0.19938 -0.38963
 C299 C 0.47443 0.09495 -0.28281
 C300 C 0.47455 0.12058 -0.32917
 C301 C 0.49600 0.17765 -0.34679
 C302 C 0.49561 0.09980 -0.20482
 H303 H 0.53353 0.18016 -0.19668
 H304 H 0.53360 0.13553 -0.11501
 H305 H 0.45779 0.07139 -0.30817
 H306 H 0.45814 0.11639 -0.38925
 C307 C 0.65511 0.50383 -0.29897
 C308 C 0.64543 0.52503 -0.32946
 C309 C 0.61984 0.52506 -0.28316
 C310 C 0.70297 0.50368 -0.39006
 C311 C 0.61329 0.48236 -0.17626
 C312 C 0.63892 0.48243 -0.22257
 C313 C 0.68131 0.50373 -0.34735
 C314 C 0.60349 0.50376 -0.20579
 H315 H 0.65769 0.54157 -0.38903
 H316 H 0.61293 0.54181 -0.30786
 H317 H 0.60127 0.46561 -0.11705
 H318 H 0.64611 0.46579 -0.19878
 C319 C 0.84940 0.34315 -0.29654
 C320 C 0.88037 0.35163 -0.32217
 C321 C 0.90576 0.37673 -0.27367
 C322 C 0.80178 0.29661 -0.39298
 C323 C 0.86927 0.38495 -0.17334
 C324 C 0.84391 0.35980 -0.22189
 C325 C 0.82335 0.31772 -0.34823
 C326 C 0.90054 0.39380 -0.19888
 H327 H 0.88488 0.33897 -0.38012
 H328 H 0.92947 0.38290 -0.29544
 H329 H 0.86434 0.39755 -0.11625
 H330 H 0.82003 0.35348 -0.20162
 C331 C 0.50569 -0.15079 -0.29946
 C332 C 0.48353 -0.15622 -0.22504
 C333 C 0.48366 -0.13085 -0.17634
 C334 C 0.50487 -0.19850 -0.39566
 C335 C 0.52832 -0.09443 -0.27603
 C336 C 0.52809 -0.11984 -0.32468
 C337 C 0.50521 -0.17688 -0.35109
 C338 C 0.50603 -0.09960 -0.20140
 H339 H 0.46602 -0.18006 -0.20498
 H340 H 0.46614 -0.13575 -0.11942
 H341 H 0.54583 -0.07075 -0.29746
 H342 H 0.54531 -0.11534 -0.38236
 C343 C 0.34329 0.49452 -0.29747
 C344 C 0.35221 0.47238 -0.32387
 C345 C 0.37740 0.47213 -0.27530
 C346 C 0.29643 0.49545 -0.39358
 C347 C 0.38488 0.51622 -0.17331
 C348 C 0.35964 0.51638 -0.22194
 C349 C 0.31768 0.49504 -0.34906
 C350 C 0.39413 0.49412 -0.19956
 H351 H 0.33980 0.45540 -0.38244
 H352 H 0.38387 0.45484 -0.29770
 H353 H 0.39720 0.53352 -0.11552
 H354 H 0.35300 0.53368 -0.20096
 C355 C 1.15069 0.65431 -0.30487
 C356 C 1.11975 0.64458 -0.33487
 C357 C 1.09432 0.61920 -0.28764
 C358 C 1.19840 0.70204 -0.39688
 C359 C 1.13072 0.61295 -0.18058
 C360 C 1.15610 0.63838 -0.22783
 C361 C 1.17682 0.68040 -0.35400
 C362 C 1.09947 0.60309 -0.20970
 H363 H 1.11529 0.65664 -0.39478
 H364 H 1.07064 0.61225 -0.31215
 H365 H 1.13561 0.60113 -0.12098
 H366 H 1.17994 0.64561 -0.20421
 C367 C 0.84924 0.50621 -0.29459
 C368 C 0.84390 0.48431 -0.21963
 C369 C 0.86936 0.48447 -0.17173
 C370 C 0.80138 0.50495 -0.39018
 C371 C 0.90563 0.52866 -0.27336
 C372 C 0.88012 0.52840 -0.32121
 C373 C 0.82308 0.50553 -0.34578
 C374 C 0.90055 0.50659 -0.19831
 H375 H 0.82007 0.46697 -0.19866
 H376 H 0.86456 0.46713 -0.11437
 H377 H 0.92928 0.54596 -0.29586
 H378 H 0.88449 0.54539 -0.37944
 C379 C 0.49621 0.34504 -0.29966
 C380 C 0.51753 0.36113 -0.22278
 C381 C 0.51762 0.38677 -0.17655
 C382 C 0.49641 0.29724 -0.39049
 C383 C 0.47508 0.38037 -0.28451
 C384 C 0.47509 0.35477 -0.33073
 C385 C 0.49632 0.31888 -0.34794
 C386 C 0.49631 0.39663 -0.20664
 H387 H 0.53408 0.35387 -0.19857
 H388 H 0.53432 0.39874 -0.11699
 H389 H 0.45843 0.38736 -0.30971
 H390 H 0.45861 0.34256 -0.39069
 C391 C 0.65459 0.15068 -0.30043
 C392 C 0.64498 0.11988 -0.33125
 C393 C 0.61948 0.09439 -0.28491
 C394 C 0.70235 0.19839 -0.39123
 C395 C 0.61294 0.13055 -0.17728
 C396 C 0.63848 0.15598 -0.22365
 C397 C 0.68071 0.17682 -0.34873
 C398 C 0.60319 0.09942 -0.20716
 H399 H 0.65722 0.11557 -0.39109
 H400 H 0.61260 0.07078 -0.30989
 H401 H 0.60096 0.13532 -0.11777
 H402 H 0.64565 0.17976 -0.19960
 C403 C 1.15107 0.49556 -0.30109
 C404 C 1.15627 0.51694 -0.22443
 C405 C 1.13075 0.51699 -0.17804
 C406 C 1.19897 0.49604 -0.39302
 C407 C 1.09470 0.47423 -0.28535
 C408 C 1.12029 0.47429 -0.33174
 C409 C 1.17730 0.49582 -0.34985
 C410 C 1.09964 0.49556 -0.20781
 H411 H 1.18004 0.53361 -0.20062
 H412 H 1.13544 0.53376 -0.11868
 H413 H 1.07110 0.45749 -0.31022
 H414 H 1.11609 0.45777 -0.39157
 C415 C 0.50604 0.65636 -0.29488
 C416 C 0.52863 0.64793 -0.31977
 C417 C 0.52890 0.62288 -0.27115
 C418 C 0.50495 0.70265 -0.39174
 C419 C 0.48393 0.61467 -0.17226
 C420 C 0.48375 0.63977 -0.22095
 C421 C 0.50541 0.68165 -0.34676
 C422 C 0.50645 0.60585 -0.19712
 H423 H 0.54591 0.66061 -0.37721
 H424 H 0.54653 0.61671 -0.29222
 H425 H 0.46632 0.60209 -0.11567
 H426 H 0.46612 0.64610 -0.20140
 C427 C 0.34378 -0.14985 -0.29732
 C428 C 0.35207 -0.11893 -0.32197
 C429 C 0.37705 -0.09365 -0.27292
 C430 C 0.29774 -0.19718 -0.39511
 C431 C 0.38540 -0.13027 -0.17395
 C432 C 0.36037 -0.15550 -0.22306
 C433 C 0.31863 -0.17572 -0.34978
 C434 C 0.39412 -0.09902 -0.19865
 H435 H 0.33938 -0.11435 -0.37962
 H436 H 0.38315 -0.06993 -0.29396
 H437 H 0.39803 -0.13527 -0.11723
 H438 H 0.35413 -0.17939 -0.20362
 C439 C 0.50609 -0.15040 0.29357
 C440 C 0.52884 -0.11953 0.31807
 C441 C 0.52916 -0.09419 0.26943
 C442 C 0.50492 -0.19770 0.39105
 C443 C 0.48393 -0.13066 0.17113
 C444 C 0.48371 -0.15596 0.21987
 C445 C 0.50539 -0.17629 0.34576
 C446 C 0.50661 -0.09946 0.19570
 H447 H 0.54620 -0.11503 0.37533
 H448 H 0.54689 -0.07051 0.29034
 H449 H 0.46621 -0.13557 0.11483
 H450 H 0.46595 -0.17982 0.20062
 C451 C 0.34325 0.49414 0.29457
 C452 C 0.35155 0.47146 0.31891
 C453 C 0.37643 0.47100 0.26958
 C454 C 0.29733 0.49557 0.39308
 C455 C 0.38467 0.51591 0.17078
 C456 C 0.35973 0.51628 0.22021
 C457 C 0.31819 0.49499 0.34742
 C458 C 0.39341 0.49334 0.19530
 H459 H 0.33894 0.45428 0.37662
 H460 H 0.38256 0.45336 0.29050
 H461 H 0.39725 0.53347 0.11410
 H462 H 0.35346 0.53396 0.20103
 C463 C 1.15089 0.65472 0.29779
 C464 C 1.12010 0.64518 0.32857
 C465 C 1.09457 0.61969 0.28218
 C466 C 1.19863 0.70233 0.38888
 C467 C 1.13072 0.61307 0.17465
 C468 C 1.15618 0.63859 0.22107
 C469 C 1.17704 0.68076 0.34620
 C470 C 1.09959 0.60338 0.20447
 H471 H 1.11583 0.65745 0.38843
 H472 H 1.07096 0.61281 0.30713
 H473 H 1.13547 0.60104 0.11520
 H474 H 1.17997 0.64574 0.19714
 C475 C 0.49645 0.15051 0.30562
 C476 C 0.47532 0.11968 0.33568
 C477 C 0.47520 0.09422 0.28800
 C478 C 0.49660 0.19818 0.39834
 C479 C 0.51763 0.13048 0.18054
 C480 C 0.51765 0.15587 0.22824
 C481 C 0.49656 0.17660 0.35509
 C482 C 0.49631 0.09932 0.20963
 H483 H 0.45892 0.11532 0.39593
 H484 H 0.45856 0.07059 0.31251
 H485 H 0.53424 0.13530 0.12065
 H486 H 0.53418 0.17967 0.20474
 C487 C 0.65385 0.50326 0.30553
 C488 C 0.64421 0.52456 0.33545
 C489 C 0.61883 0.52467 0.28811
 C490 C 0.70146 0.50321 0.39794
 C491 C 0.61249 0.48191 0.18125
 C492 C 0.63791 0.48189 0.22863
 C493 C 0.67987 0.50317 0.35476
 C494 C 0.60272 0.50339 0.21022
 H495 H 0.65634 0.54109 0.39534
 H496 H 0.61191 0.54146 0.31246
 H497 H 0.60061 0.46517 0.12171
 H498 H 0.64512 0.46522 0.20526
 C499 C 0.85029 0.34400 0.29649
 C500 C 0.88130 0.35248 0.32136
 C501 C 0.90654 0.37750 0.27250
 C502 C 0.80298 0.29772 0.39369
 C503 C 0.86976 0.38560 0.17333
 C504 C 0.84456 0.36053 0.22226
 C505 C 0.82442 0.31872 0.34863
 C506 C 0.90109 0.39446 0.19815
 H507 H 0.88597 0.33988 0.37900
 H508 H 0.93031 0.38370 0.29366
 H509 H 0.86468 0.39814 0.11659
 H510 H 0.82062 0.35418 0.20265
   
