data_POSCAR
  _audit_creation_date              2014-09-24
  _audit_creation_method            'ToBaCCo'
  _symmetry_space_group_name_H-M    'P1'
  _symmetry_Int_Tables_number       1
  _symmetry_cell_setting            triclinic
  loop_
  _symmetry_equiv_pos_as_xyz
 x,y,z
_cell_length_a 60.7886
_cell_length_b 60.6458
_cell_length_c 60.6897
_cell_angle_alpha 89.098800
_cell_angle_beta 89.201000
_cell_angle_gamma 89.377100
loop_
  _atom_site_label
  _atom_site_type_symbol
  _atom_site_fract_x
  _atom_site_fract_y
  _atom_site_fract_z
C1 C 0.21482 0.51810 1.02732
 H2 H 0.21263 0.52878 1.01305
 C3 C 0.20008 0.51936 1.04508
 H4 H 0.18716 0.53173 1.04430
 C5 C 0.23493 0.48960 1.04522
 H6 H 0.24819 0.47760 1.04496
 C7 C 0.22079 0.49049 1.06353
 H8 H 0.22346 0.47868 1.07678
 N9 N 0.23170 0.50327 1.02759
 C10 C 0.28290 0.52585 0.98197
 H11 H 0.28397 0.51199 0.97099
 C12 C 0.29773 0.54318 0.97959
 H13 H 0.31026 0.54244 0.96677
 C14 C 0.26591 0.54297 1.01274
 H15 H 0.25367 0.54267 1.02582
 C16 C 0.28038 0.56065 1.01094
 H17 H 0.27885 0.57402 1.02249
 Zn18 Zn 0.24918 0.50111 1.00168
 N19 N 0.26741 0.52604 0.99834
 C20 C 0.23099 0.51331 0.96018
 N21 N 0.22970 0.49918 0.97778
 C22 C 0.21344 0.48401 0.97957
 C23 C 0.19757 0.48264 0.96328
 C24 C 0.21553 0.51240 0.94341
 C25 C 0.28476 0.47626 1.01740
 C26 C 0.29965 0.45862 1.01853
 C27 C 0.27914 0.44043 0.99037
 C28 C 0.26473 0.45851 0.98965
 N29 N 0.26771 0.47590 1.00314
 H30 H 0.24375 0.52555 0.95927
 H31 H 0.21265 0.47317 0.99388
 H32 H 0.18473 0.47048 0.96500
 H33 H 0.21655 0.52400 0.92970
 H34 H 0.28687 0.49041 1.02777
 H35 H 0.31310 0.45916 1.03001
 H36 H 0.27672 0.42685 0.97931
 H37 H 0.25136 0.45871 0.97812
 C38 C 0.29668 0.56084 0.99429
 C39 C 0.20265 0.50526 1.06364
 C40 C 0.29695 0.44042 1.00484
 C41 C 0.19843 0.49704 0.94496
 C42 C 0.78282 0.51737 -0.03270
 H43 H 0.78376 0.52917 -0.01958
 C44 C 0.79746 0.51863 -0.05059
 H45 H 0.80953 0.53163 -0.05129
 C46 C 0.76624 0.48572 -0.04743
 H47 H 0.75442 0.47260 -0.04587
 C48 C 0.78041 0.48651 -0.06575
 H49 H 0.77935 0.47396 -0.07817
 N50 N 0.76773 0.50100 -0.03136
 C51 C 0.71717 0.52454 0.01444
 H52 H 0.71848 0.51213 0.02738
 C53 C 0.70148 0.54140 0.01620
 H54 H 0.69124 0.54207 0.03090
 C55 C 0.72924 0.53854 -0.02026
 H56 H 0.73981 0.53708 -0.03463
 C57 C 0.71346 0.55546 -0.01938
 H58 H 0.71208 0.56676 -0.03328
 Zn59 Zn 0.75043 0.49919 -0.00528
 N60 N 0.73079 0.52353 -0.00346
 C61 C 0.76888 0.51388 0.03482
 N62 N 0.77006 0.49854 0.01873
 C63 C 0.78594 0.48258 0.01882
 C64 C 0.80106 0.48120 0.03590
 C65 C 0.78363 0.51309 0.05226
 C66 C 0.71648 0.47289 -0.01995
 C67 C 0.70209 0.45512 -0.01998
 C68 C 0.72201 0.43882 0.01048
 C69 C 0.73592 0.45701 0.01004
 N70 N 0.73299 0.47353 -0.00510
 H71 H 0.75658 0.52683 0.03420
 H72 H 0.78683 0.47088 0.00555
 H73 H 0.81367 0.46846 0.03554
 H74 H 0.78210 0.52518 0.06513
 H75 H 0.71436 0.48638 -0.03163
 H76 H 0.68902 0.45490 -0.03191
 H77 H 0.72433 0.42597 0.02285
 H78 H 0.74877 0.45803 0.02207
 C79 C 0.69923 0.55707 -0.00098
 C80 C 0.79647 0.50295 -0.06730
 C81 C 0.70472 0.43784 -0.00455
 C82 C 0.79996 0.49653 0.05301
 C83 C -0.02145 0.28550 0.47962
 H84 H -0.03252 0.28598 0.49373
 C85 C -0.02303 0.30167 0.46312
 H86 H -0.03606 0.31383 0.46469
 C87 C 0.00814 0.26814 0.46079
 H88 H 0.02061 0.25532 0.46023
 C89 C 0.00712 0.28393 0.44379
 H90 H 0.01934 0.28292 0.43072
 N91 N -0.00608 0.26918 0.47821
 C92 C -0.02999 0.21474 0.51919
 H93 H -0.01625 0.21252 0.53017
 C94 C -0.04755 0.20010 0.52025
 H95 H -0.04736 0.18673 0.53230
 C96 C -0.04669 0.23465 0.48984
 H97 H -0.04607 0.24780 0.47765
 C98 C -0.06468 0.22050 0.49046
 H99 H -0.07777 0.22294 0.47872
 Zn100 Zn -0.00440 0.24925 0.50241
 N101 N -0.02984 0.23156 0.50411
 C102 C -0.01698 0.26505 0.54474
 N103 N -0.00197 0.26645 0.52796
 C104 C 0.01446 0.28147 0.52814
 C105 C 0.01627 0.29590 0.54568
 C106 C -0.01580 0.27920 0.56263
 C107 C 0.01945 0.21477 0.48316
 C108 C 0.03607 0.19882 0.48121
 C109 C 0.05396 0.21455 0.51250
 C110 C 0.03690 0.23009 0.51398
 N111 N 0.02009 0.22993 0.49940
 H112 H -0.03021 0.25334 0.54405
 H113 H 0.02599 0.28242 0.51443
 H114 H 0.02952 0.30769 0.54552
 H115 H -0.02821 0.27822 0.57557
 H116 H 0.00575 0.21483 0.47198
 H117 H 0.03522 0.18678 0.46826
 H118 H 0.06696 0.21462 0.52452
 H119 H 0.03687 0.24191 0.52709
 C120 C -0.06513 0.20282 0.50567
 C121 C -0.00851 0.30135 0.44473
 C122 C 0.05353 0.19849 0.49611
 C123 C 0.00088 0.29504 0.56315
 C124 C 0.98731 0.71671 0.52125
 H125 H 0.97558 0.71567 0.50808
 C126 C 0.98587 0.70229 0.53933
 H127 H 0.97302 0.69006 0.53987
 C128 C 1.01881 0.73346 0.53599
 H129 H 1.03176 0.74546 0.53450
 C130 C 1.01800 0.71931 0.55438
 H131 H 1.03020 0.72083 0.56708
 N132 N 1.00346 0.73203 0.51999
 C133 C 0.97800 0.78420 0.47693
 H134 H 0.99108 0.78507 0.46468
 C135 C 0.96024 0.79896 0.47583
 H136 H 0.95988 0.81128 0.46274
 C137 C 0.96321 0.76764 0.50942
 H138 H 0.96456 0.75566 0.52269
 C139 C 0.94514 0.78203 0.50893
 H140 H 0.93254 0.78060 0.52164
 Zn141 Zn 1.00430 0.75026 0.49442
 N142 N 0.97911 0.76886 0.49347
 C143 C 0.98947 0.73247 0.45419
 N144 N 1.00521 0.73138 0.46990
 C145 C 1.02150 0.71585 0.46922
 C146 C 1.02258 0.70076 0.45210
 C147 C 0.98990 0.71767 0.43678
 C148 C 1.03008 0.78447 0.50994
 C149 C 1.04735 0.79946 0.50992
 C150 C 1.06260 0.78178 0.47766
 C151 C 1.04500 0.76716 0.47828
 N152 N 1.02923 0.76871 0.49431
 H153 H 0.97640 0.74462 0.45524
 H154 H 1.03355 0.71509 0.48216
 H155 H 1.03548 0.68832 0.45206
 H156 H 0.97734 0.71890 0.42434
 H157 H 1.01708 0.78560 0.52225
 H158 H 1.04744 0.81218 0.52223
 H159 H 1.07506 0.78017 0.46485
 H160 H 1.04384 0.75482 0.46573
 C161 C 0.94351 0.79803 0.49202
 C162 C 1.00134 0.70348 0.55623
 C163 C 1.06387 0.79832 0.49353
 C164 C 1.00659 0.70150 0.43561
 C165 C 0.48166 -0.02580 0.28649
 H166 H 0.49521 -0.03750 0.28723
 C167 C 0.46495 -0.02653 0.30249
 H168 H 0.46556 -0.03906 0.31538
 C169 C 0.46473 0.00508 0.26902
 H170 H 0.46501 0.01775 0.25632
 C171 C 0.44759 0.00484 0.28458
 H172 H 0.43477 0.01734 0.28365
 N173 N 0.48132 -0.01011 0.27025
 C174 C 0.52396 -0.03502 0.21771
 H175 H 0.53569 -0.02175 0.21646
 C176 C 0.52545 -0.05257 0.20317
 H177 H 0.53827 -0.05201 0.19065
 C178 C 0.49217 -0.05017 0.23468
 H179 H 0.47911 -0.04905 0.24687
 C180 C 0.49286 -0.06796 0.22032
 H181 H 0.48058 -0.08059 0.22254
 Zn182 Zn 0.50598 -0.00885 0.25090
 N183 N 0.50761 -0.03418 0.23314
 C184 C 0.54800 -0.02172 0.26740
 N185 N 0.53120 -0.00676 0.26866
 C186 C 0.53118 0.00955 0.28379
 C187 C 0.54852 0.01127 0.29847
 C188 C 0.56578 -0.02048 0.28164
 C189 C 0.48724 0.01567 0.21666
 C190 C 0.48527 0.03266 0.20103
 C191 C 0.51740 0.04959 0.21619
 C192 C 0.51875 0.03225 0.23157
 N193 N 0.50373 0.01578 0.23155
 H194 H 0.54748 -0.03490 0.25567
 H195 H 0.51747 0.02105 0.28461
 H196 H 0.54821 0.02432 0.31044
 H197 H 0.57884 -0.03273 0.28068
 H198 H 0.47570 0.00221 0.21685
 H199 H 0.47192 0.03233 0.18942
 H200 H 0.52975 0.06231 0.21616
 H201 H 0.53203 0.03177 0.24320
 C202 C 0.50965 -0.06949 0.20404
 C203 C 0.44771 -0.01096 0.30174
 C204 C 0.50057 0.04986 0.20055
 C205 C 0.56607 -0.00395 0.29756
 C206 C 0.52075 -0.00605 0.71645
 H207 H 0.50822 -0.01852 0.71544
 C208 C 0.53831 -0.00587 0.70138
 H209 H 0.53908 -0.01821 0.68869
 C210 C 0.53436 0.02568 0.73376
 H211 H 0.53262 0.03814 0.74619
 C212 C 0.55221 0.02646 0.71905
 H213 H 0.56428 0.03931 0.72067
 N214 N 0.51917 0.00947 0.73233
 C215 C 0.47952 -0.01921 0.78567
 H216 H 0.46670 -0.00678 0.78715
 C217 C 0.48011 -0.03704 0.80049
 H218 H 0.46769 -0.03817 0.81341
 C219 C 0.51191 -0.03210 0.76767
 H220 H 0.52451 -0.02992 0.75514
 C221 C 0.51315 -0.05018 0.78217
 H222 H 0.52651 -0.06198 0.78030
 Zn223 Zn 0.49437 0.00860 0.75153
 N224 N 0.49523 -0.01710 0.76963
 C225 C 0.45349 -0.00682 0.73563
 N226 N 0.46904 0.00910 0.73374
 C227 C 0.46770 0.02525 0.71801
 C228 C 0.45028 0.02575 0.70326
 C229 C 0.43566 -0.00681 0.72135
 C230 C 0.51066 0.03353 0.78562
 C231 C 0.51141 0.05056 0.80075
 C232 C 0.47846 0.06618 0.78473
 C233 C 0.47834 0.04881 0.76987
 N234 N 0.49438 0.03301 0.77051
 H235 H 0.45507 -0.01980 0.74791
 H236 H 0.48043 0.03755 0.71672
 H237 H 0.44954 0.03867 0.69076
 H238 H 0.42363 -0.01981 0.72282
 H239 H 0.52307 0.02060 0.78589
 H240 H 0.52468 0.05079 0.81245
 H241 H 0.46540 0.07845 0.78421
 H242 H 0.46529 0.04784 0.75803
 C243 C 0.49719 -0.05275 0.79894
 C244 C 0.55437 0.01055 0.70256
 C245 C 0.49512 0.06715 0.80050
 C246 C 0.43404 0.00950 0.70476
 C247 C 0.28538 0.01631 0.47197
 H248 H 0.28710 0.02819 0.48494
 C249 C 0.30039 0.01606 0.45436
 H250 H 0.31351 0.02800 0.45370
 C251 C 0.26643 -0.01400 0.45738
 H252 H 0.25350 -0.02603 0.45887
 C253 C 0.28095 -0.01471 0.43935
 H254 H 0.27903 -0.02730 0.42709
 N255 N 0.26886 0.00138 0.47321
 C256 C 0.21595 0.02745 0.51463
 H257 H 0.21449 0.01416 0.52665
 C258 C 0.20083 0.04493 0.51483
 H259 H 0.18786 0.04516 0.52725
 C260 C 0.23447 0.04308 0.48360
 H261 H 0.24732 0.04206 0.47119
 C262 C 0.21982 0.06100 0.48335
 H263 H 0.22155 0.07366 0.47068
 Zn264 Zn 0.25079 0.00149 0.49888
 N265 N 0.23231 0.02679 0.49914
 C266 C 0.26785 0.01653 0.53943
 N267 N 0.26975 0.00123 0.52333
 C268 C 0.28636 -0.01398 0.52336
 C269 C 0.30207 -0.01405 0.53990
 C270 C 0.28310 0.01691 0.55644
 C271 C 0.21607 -0.02440 0.48482
 C272 C 0.20136 -0.04192 0.48527
 C273 C 0.22050 -0.05730 0.51667
 C274 C 0.23483 -0.03945 0.51564
 N275 N 0.23244 -0.02351 0.49980
 H276 H 0.25476 0.02870 0.53890
 H277 H 0.28760 -0.02580 0.51023
 H278 H 0.31526 -0.02618 0.53958
 H279 H 0.28162 0.02943 0.56891
 H280 H 0.21431 -0.01129 0.47265
 H281 H 0.18821 -0.04208 0.47343
 H282 H 0.22281 -0.06993 0.52925
 H283 H 0.24773 -0.03829 0.52760
 C284 C 0.20261 0.06194 0.49898
 C285 C 0.29834 0.00031 0.43783
 C286 C 0.20343 -0.05867 0.50139
 C287 C 0.30064 0.00165 0.55663
 C288 C 0.71559 0.01495 0.52968
 H289 H 0.71438 0.02696 0.51637
 C290 C 0.70046 0.01547 0.54719
 H291 H 0.68757 0.02793 0.54713
 C292 C 0.73314 -0.01666 0.54509
 H293 H 0.74560 -0.02943 0.54400
 C294 C 0.71840 -0.01671 0.56294
 H295 H 0.72004 -0.02930 0.57568
 N296 N 0.73148 -0.00098 0.52891
 C297 C 0.78405 0.02275 0.48553
 H298 H 0.78477 0.00947 0.47384
 C299 C 0.79975 0.03936 0.48452
 H300 H 0.81237 0.03895 0.47176
 C301 C 0.76700 0.03903 0.51675
 H302 H 0.75458 0.03851 0.52964
 C303 C 0.78231 0.05607 0.51624
 H304 H 0.78148 0.06857 0.52878
 Zn305 Zn 0.74963 -0.00201 0.50337
 N306 N 0.76819 0.02279 0.50155
 C307 C 0.73214 0.01211 0.46204
 N308 N 0.73074 -0.00284 0.47894
 C309 C 0.71461 -0.01819 0.47977
 C310 C 0.69889 -0.01881 0.46328
 C311 C 0.71684 0.01195 0.44505
 C312 C 0.78409 -0.02785 0.51966
 C313 C 0.79912 -0.04538 0.52053
 C314 C 0.78112 -0.06140 0.48944
 C315 C 0.76643 -0.04352 0.48916
 N316 N 0.76813 -0.02726 0.50420
 H317 H 0.74483 0.02444 0.46190
 H318 H 0.71376 -0.02973 0.49353
 H319 H 0.68609 -0.03109 0.46428
 H320 H 0.71791 0.02420 0.43192
 H321 H 0.78531 -0.01447 0.53115
 H322 H 0.81196 -0.04529 0.53270
 H323 H 0.77943 -0.07428 0.47745
 H324 H 0.75385 -0.04256 0.47677
 C325 C 0.79914 0.05617 0.50016
 C326 C 0.70162 -0.00063 0.56405
 C327 C 0.79780 -0.06245 0.50524
 C328 C 0.69979 -0.00349 0.44572
 C329 C 0.48396 0.21742 1.03296
 H330 H 0.47194 0.21691 1.02001
 C331 C 0.48287 0.20232 1.05052
 H332 H 0.46971 0.19043 1.05114
 C333 C 0.51590 0.23341 1.04761
 H334 H 0.52904 0.24522 1.04613
 C335 C 0.51543 0.21861 1.06548
 H336 H 0.52830 0.21920 1.07761
 N337 N 0.50029 0.23254 1.03181
 C338 C 0.47715 0.28518 0.98820
 H339 H 0.49053 0.28530 0.97625
 C340 C 0.46060 0.30124 0.98701
 H341 H 0.46115 0.31352 0.97388
 C342 C 0.46056 0.26928 1.02017
 H343 H 0.46095 0.25718 1.03341
 C344 C 0.44356 0.28497 1.01951
 H345 H 0.43093 0.28476 1.03228
 Zn346 Zn 0.50173 0.25074 1.00629
 N347 N 0.47693 0.26972 1.00465
 C348 C 0.48721 0.23266 0.96615
 N349 N 0.50301 0.23188 0.98180
 C350 C 0.51933 0.21639 0.98134
 C351 C 0.52021 0.20082 0.96466
 C352 C 0.48745 0.21737 0.94916
 C353 C 0.52635 0.28505 1.02241
 C354 C 0.54286 0.30082 1.02263
 C355 C 0.55995 0.28331 0.99116
 C356 C 0.54298 0.26793 0.99143
 N357 N 0.52660 0.26913 1.00688
 H358 H 0.47407 0.24475 0.96711
 H359 H 0.53150 0.21596 0.99418
 H360 H 0.53339 0.18866 0.96457
 H361 H 0.47442 0.21790 0.93718
 H362 H 0.51296 0.28577 1.03431
 H363 H 0.54227 0.31350 1.03499
 H364 H 0.57258 0.28250 0.97842
 H365 H 0.54261 0.25548 0.97891
 C366 C 0.44365 0.30141 1.00295
 C367 C 0.49888 0.20265 1.06698
 C368 C 0.55980 0.30023 1.00670
 C369 C 0.50400 0.20103 0.94839
 C370 C 0.47938 0.78413 -0.02677
 H371 H 0.46698 0.78336 -0.01382
 C372 C 0.47749 0.79982 -0.04373
 H373 H 0.46362 0.81117 -0.04364
 C374 C 0.51299 0.77083 -0.04196
 H375 H 0.52703 0.75983 -0.04102
 C376 C 0.51177 0.78627 -0.05924
 H377 H 0.52468 0.78657 -0.07170
 N378 N 0.49679 0.76988 -0.02630
 C379 C 0.47387 0.71423 0.01388
 H380 H 0.48704 0.71318 0.02567
 C381 C 0.45674 0.69911 0.01502
 H382 H 0.45696 0.68633 0.02767
 C383 C 0.45812 0.73179 -0.01738
 H384 H 0.45885 0.74437 -0.03015
 C385 C 0.44065 0.71699 -0.01685
 H386 H 0.42786 0.71865 -0.02902
 Zn387 Zn 0.49827 0.74977 -0.00213
 N388 N 0.47413 0.73033 -0.00197
 C389 C 0.48213 0.76419 0.03962
 N390 N 0.49799 0.76675 0.02378
 C391 C 0.51368 0.78243 0.02541
 C392 C 0.51389 0.79626 0.04357
 C393 C 0.48180 0.77760 0.05813
 C394 C 0.52727 0.71928 -0.02159
 C395 C 0.54550 0.70514 -0.02297
 C396 C 0.55644 0.71695 0.01307
 C397 C 0.53823 0.73120 0.01358
 N398 N 0.52412 0.73214 -0.00362
 H399 H 0.46956 0.75193 0.03786
 H400 H 0.52588 0.78433 0.01239
 H401 H 0.52626 0.80893 0.04426
 H402 H 0.46918 0.77512 0.07066
 H403 H 0.51548 0.71992 -0.03478
 H404 H 0.54775 0.69492 -0.03732
 H405 H 0.56744 0.71620 0.02695
 H406 H 0.53513 0.74111 0.02796
 C407 C 0.43976 0.70042 -0.00042
 C408 C 0.49383 0.80103 -0.06029
 C409 C 0.56021 0.70375 -0.00540
 C410 C 0.49777 0.79399 0.06025
 C411 C 1.01960 0.48425 0.21337
 H412 H 1.00631 0.47261 0.21225
 C413 C 1.03655 0.48419 0.19765
 H414 H 1.03639 0.47228 0.18455
 C415 C 1.03559 0.51436 0.23150
 H416 H 1.03485 0.52647 0.24434
 C417 C 1.05305 0.51469 0.21626
 H418 H 1.06567 0.52705 0.21756
 N419 N 1.01932 0.49928 0.22976
 C420 C 0.97671 0.47238 0.28161
 H421 H 0.96416 0.48514 0.28232
 C422 C 0.97596 0.45456 0.29642
 H423 H 0.96251 0.45354 0.30825
 C424 C 1.00955 0.45842 0.26531
 H425 H 1.02285 0.46024 0.25345
 C426 C 1.00948 0.44034 0.27986
 H427 H 1.02285 0.42842 0.27905
 Zn428 Zn 0.99409 0.49959 0.24832
 N429 N 0.99330 0.47397 0.26644
 C430 C 0.95356 0.48543 0.23035
 N431 N 0.96946 0.50104 0.22961
 C432 C 0.96908 0.51768 0.21435
 C433 C 0.95214 0.51923 0.19912
 C434 C 0.93626 0.48636 0.21542
 C435 C 1.01013 0.52486 0.28267
 C436 C 1.01047 0.54206 0.29768
 C437 C 0.97788 0.55741 0.28071
 C438 C 0.97819 0.53993 0.26602
 N439 N 0.99423 0.52416 0.26716
 H440 H 0.95438 0.47207 0.24230
 H441 H 0.98219 0.52962 0.21385
 H442 H 0.95242 0.53237 0.18684
 H443 H 0.92367 0.47388 0.21636
 H444 H 1.02244 0.51185 0.28350
 H445 H 1.02306 0.54212 0.31011
 H446 H 0.96508 0.56990 0.27942
 H447 H 0.96542 0.53887 0.25390
 C448 C 0.99261 0.43831 0.29581
 C449 C 1.05345 0.49968 0.19889
 C450 C 0.99414 0.55861 0.29687
 C451 C 0.93545 0.50339 0.19947
 C452 C -0.01972 0.48260 0.78198
 H453 H -0.00656 0.47046 0.78259
 C454 C -0.03676 0.48185 0.79760
 H455 H -0.03680 0.46888 0.81007
 C456 C -0.03529 0.51463 0.76529
 H457 H -0.03434 0.52771 0.75305
 C458 C -0.05279 0.51437 0.78048
 H459 H -0.06522 0.52727 0.77975
 N460 N -0.01919 0.49890 0.76635
 C461 C 0.02331 0.47562 0.71302
 H462 H 0.03550 0.48850 0.71269
 C463 C 0.02421 0.45907 0.69732
 H464 H 0.03738 0.45913 0.68513
 C465 C -0.00877 0.46013 0.72929
 H466 H -0.02184 0.46089 0.74150
 C467 C -0.00850 0.44324 0.71388
 H468 H -0.02146 0.43114 0.71439
 Zn469 Zn 0.00612 0.50002 0.74790
 N470 N 0.00702 0.47586 0.72859
 C471 C 0.04711 0.48408 0.76451
 N472 N 0.03077 0.49944 0.76659
 C473 C 0.03086 0.51441 0.78303
 C474 C 0.04789 0.51437 0.79820
 C475 C 0.06458 0.48356 0.77923
 C476 C -0.00944 0.52806 0.71442
 C477 C -0.00922 0.54603 0.69975
 C478 C 0.02308 0.55941 0.71780
 C479 C 0.02224 0.54119 0.73212
 N480 N 0.00614 0.52597 0.73019
 H481 H 0.04650 0.47201 0.75164
 H482 H 0.01753 0.52629 0.78444
 H483 H 0.04772 0.52647 0.81113
 H484 H 0.07732 0.47106 0.77754
 H485 H -0.02180 0.51548 0.71297
 H486 H -0.02145 0.54710 0.68697
 H487 H 0.03601 0.57136 0.71962
 H488 H 0.03472 0.53904 0.74448
 C489 C 0.00806 0.44268 0.69750
 C490 C -0.05346 0.49800 0.79710
 C491 C 0.00733 0.56192 0.70121
 C492 C 0.06501 0.49875 0.79643
 C493 C 0.06474 0.15886 0.49216
 C494 C 0.08073 0.14214 0.49214
 C495 C 0.10291 0.14714 0.49492
 C496 C 0.10902 0.16920 0.49771
 C497 C 0.09300 0.18594 0.49793
 C498 C 0.07068 0.18093 0.49519
 N499 N 0.11874 0.12948 0.49530
 N500 N 0.13937 0.13276 0.49593
 C501 C 0.15493 0.11486 0.49673
 C502 C 0.17740 0.11934 0.49460
 C503 C 0.19296 0.10218 0.49526
 C504 C 0.18623 0.08023 0.49837
 C505 C 0.16367 0.07579 0.50068
 C506 C 0.14814 0.09292 0.49978
 H507 H 0.04765 0.15447 0.49030
 H508 H 0.07582 0.12519 0.49007
 H509 H 0.12608 0.17346 0.49993
 H510 H 0.09805 0.20282 0.50016
 H511 H 0.18286 0.13617 0.49232
 H512 H 0.21025 0.10606 0.49360
 H513 H 0.15802 0.05901 0.50286
 H514 H 0.13086 0.08902 0.50153
 C515 C 0.66150 0.57035 0.01072
 C516 C 0.64515 0.58668 0.01177
 C517 C 0.64847 0.60733 0.00183
 C518 C 0.66859 0.61170 -0.00893
 C519 C 0.68516 0.59552 -0.00964
 C520 C 0.68181 0.57455 0.00009
 N521 N 0.63118 0.62351 0.00299
 N522 N 0.63087 0.64067 -0.00935
 C523 C 0.61351 0.65676 -0.00779
 C524 C 0.61051 0.67193 -0.02513
 C525 C 0.59317 0.68727 -0.02440
 C526 C 0.57891 0.68796 -0.00601
 C527 C 0.58226 0.67309 0.01162
 C528 C 0.59931 0.65748 0.01068
 H529 H 0.65801 0.55433 0.01797
 H530 H 0.62967 0.58310 0.02005
 H531 H 0.67159 0.62767 -0.01654
 H532 H 0.70067 0.59957 -0.01760
 H533 H 0.62138 0.67158 -0.03941
 H534 H 0.59094 0.69867 -0.03813
 H535 H 0.57138 0.67325 0.02590
 H536 H 0.60140 0.64600 0.02435
 C537 C 0.91524 -0.17951 0.47144
 C538 C 0.89787 -0.16420 0.47103
 C539 C 0.88965 -0.15524 0.49062
 C540 C 0.89895 -0.16184 0.51077
 C541 C 0.91635 -0.17708 0.51121
 C542 C 0.92474 -0.18607 0.49154
 N543 N 0.87221 -0.13919 0.48959
 N544 N 0.86361 -0.13094 0.50687
 C545 C 0.84654 -0.11449 0.50599
 C546 C 0.83772 -0.10648 0.52574
 C547 C 0.82164 -0.08984 0.52553
 C548 C 0.81413 -0.08086 0.50546
 C549 C 0.82282 -0.08918 0.48561
 C550 C 0.83888 -0.10585 0.48586
 H551 H 0.92112 -0.18633 0.45603
 H552 H 0.89082 -0.15927 0.45540
 H553 H 0.89297 -0.15504 0.52614
 H554 H 0.92351 -0.18149 0.52692
 H555 H 0.84345 -0.11306 0.54136
 H556 H 0.81507 -0.08402 0.54108
 H557 H 0.81760 -0.08241 0.46989
 H558 H 0.84552 -0.11173 0.47036
 C559 C 0.30578 0.39988 1.00475
 C560 C 0.32100 0.38242 1.00486
 C561 C 0.34359 0.38658 1.00520
 C562 C 0.35085 0.40849 1.00571
 C563 C 0.33566 0.42594 1.00580
 C564 C 0.31298 0.42182 1.00523
 N565 N 0.35883 0.36839 1.00497
 N566 N 0.37947 0.37133 1.00320
 C567 C 0.39505 0.35346 1.00306
 C568 C 0.41725 0.35816 0.99919
 C569 C 0.43298 0.34123 0.99898
 C570 C 0.42676 0.31923 1.00282
 C571 C 0.40445 0.31452 1.00683
 C572 C 0.38867 0.33150 1.00686
 H573 H 0.28838 0.39625 1.00451
 H574 H 0.31520 0.36561 1.00453
 H575 H 0.36823 0.41215 1.00601
 H576 H 0.34167 0.44268 1.00592
 H577 H 0.42235 0.37503 0.99634
 H578 H 0.45008 0.34538 0.99618
 H579 H 0.39921 0.29770 1.00971
 H580 H 0.37159 0.32748 1.00993
 C581 C 0.89464 0.19412 0.50394
 C582 C 0.87752 0.17891 0.50352
 C583 C 0.88204 0.15625 0.50462
 C584 C 0.90395 0.14890 0.50649
 C585 C 0.92105 0.16407 0.50712
 C586 C 0.91659 0.18684 0.50573
 N587 N 0.86421 0.14103 0.50371
 N588 N 0.86759 0.12035 0.50226
 C589 C 0.85008 0.10479 0.50151
 C590 C 0.85532 0.08261 0.49798
 C591 C 0.83875 0.06688 0.49729
 C592 C 0.81657 0.07308 0.50031
 C593 C 0.81132 0.09539 0.50392
 C594 C 0.82794 0.11116 0.50442
 H595 H 0.89074 0.21157 0.50302
 H596 H 0.86070 0.18479 0.50215
 H597 H 0.90789 0.13146 0.50741
 H598 H 0.93782 0.15799 0.50825
 H599 H 0.87232 0.07751 0.49581
 H600 H 0.84331 0.04978 0.49482
 H601 H 0.79436 0.10063 0.50617
 H602 H 0.82350 0.12824 0.50720
 C603 C 0.32007 0.58718 -0.02795
 C604 C 0.33590 0.60372 -0.02937
 C605 C 0.34485 0.61233 -0.01025
 C606 C 0.33763 0.60433 0.01044
 C607 C 0.32183 0.58779 0.01188
 C608 C 0.31293 0.57894 -0.00730
 N609 N 0.36151 0.62881 -0.01226
 N610 N 0.37009 0.63739 0.00454
 C611 C 0.38706 0.65354 0.00277
 C612 C 0.39538 0.66236 0.02206
 C613 C 0.41234 0.67771 0.02104
 C614 C 0.42135 0.68451 0.00059
 C615 C 0.41281 0.67575 -0.01880
 C616 C 0.39581 0.66039 -0.01774
 H617 H 0.31335 0.58092 -0.04302
 H618 H 0.34131 0.60978 -0.04540
 H619 H 0.34436 0.61065 0.02547
 H620 H 0.31695 0.58158 0.02802
 H621 H 0.38873 0.65724 0.03796
 H622 H 0.41832 0.68438 0.03625
 H623 H 0.41956 0.68043 -0.03478
 H624 H 0.38969 0.65374 -0.03289
 C625 C 0.08947 -0.17673 0.47226
 C626 C 0.10602 -0.16092 0.47140
 C627 C 0.11529 -0.15333 0.49079
 C628 C 0.10798 -0.16196 0.51120
 C629 C 0.09145 -0.17783 0.51210
 C630 C 0.08191 -0.18533 0.49263
 N631 N 0.13177 -0.13665 0.48928
 N632 N 0.14029 -0.12835 0.50625
 C633 C 0.15653 -0.11143 0.50463
 C634 C 0.16447 -0.10233 0.52396
 C635 C 0.17983 -0.08534 0.52296
 C636 C 0.18759 -0.07718 0.50249
 C637 C 0.17977 -0.08656 0.48309
 C638 C 0.16437 -0.10351 0.48413
 H639 H 0.08226 -0.18188 0.45698
 H640 H 0.11146 -0.15434 0.45558
 H641 H 0.11496 -0.15641 0.52643
 H642 H 0.08622 -0.18432 0.52802
 H643 H 0.15850 -0.10824 0.53986
 H644 H 0.18528 -0.07829 0.53820
 H645 H 0.18565 -0.08088 0.46708
 H646 H 0.15856 -0.11034 0.46893
 C647 C 0.69656 0.39742 0.99903
 C648 C 0.68162 0.38004 1.00015
 C649 C 0.65898 0.38423 0.99888
 C650 C 0.65141 0.40608 0.99618
 C651 C 0.66631 0.42342 0.99485
 C652 C 0.68903 0.41929 0.99635
 N653 N 0.64401 0.36616 1.00043
 N654 N 0.62331 0.36933 1.00173
 C655 C 0.60793 0.35165 1.00312
 C656 C 0.58568 0.35673 1.00660
 C657 C 0.57011 0.34000 1.00796
 C658 C 0.57654 0.31782 1.00566
 C659 C 0.59891 0.31271 1.00204
 C660 C 0.61453 0.32950 1.00088
 H661 H 0.71400 0.39377 1.00006
 H662 H 0.68767 0.36328 1.00217
 H663 H 0.63399 0.40976 0.99511
 H664 H 0.66004 0.44012 0.99303
 H665 H 0.58040 0.37375 1.00824
 H666 H 0.55296 0.34445 1.01042
 H667 H 0.60431 0.29574 1.00033
 H668 H 0.63166 0.32519 0.99813
 C669 C 0.49395 0.06252 1.16164
 C670 C 0.49298 0.07909 1.14543
 C671 C 0.49736 0.10097 1.15061
 C672 C 0.50270 0.10621 1.17236
 C673 C 0.50369 0.08963 1.18863
 C674 C 0.49932 0.06759 1.18344
 N675 N 0.49644 0.11739 1.13344
 N676 N 0.50038 0.13764 1.13670
 C677 C 0.49953 0.15374 1.11918
 C678 C 0.50433 0.17573 1.12362
 C679 C 0.50400 0.19171 1.10675
 C680 C 0.49878 0.18590 1.08510
 C681 C 0.49385 0.16381 1.08074
 C682 C 0.49421 0.14788 1.09760
 H683 H 0.49085 0.04568 1.15701
 H684 H 0.48894 0.07485 1.12871
 H685 H 0.50612 0.12304 1.17676
 H686 H 0.50764 0.09409 1.20531
 H687 H 0.50841 0.18046 1.14019
 H688 H 0.50766 0.20862 1.11066
 H689 H 0.49012 0.15874 1.06419
 H690 H 0.49050 0.13097 1.09371
 C691 C -0.02013 0.68231 0.58500
 C692 C -0.02122 0.66708 0.60250
 C693 C -0.00203 0.65726 0.61071
 C694 C 0.01844 0.66310 0.60141
 C695 C 0.01956 0.67835 0.58392
 C696 C 0.00026 0.68800 0.57540
 N697 N -0.00383 0.64105 0.62804
 N698 N 0.01294 0.63118 0.63596
 C699 C 0.01113 0.61456 0.65291
 C700 C 0.03028 0.60412 0.66044
 C701 C 0.02909 0.58723 0.67633
 C702 C 0.00862 0.58049 0.68500
 C703 C -0.01060 0.59123 0.67760
 C704 C -0.00937 0.60812 0.66170
 H705 H -0.03526 0.68967 0.57901
 H706 H -0.03708 0.66276 0.60957
 H707 H 0.03353 0.65569 0.60744
 H708 H 0.03549 0.68219 0.57672
 H709 H 0.04617 0.60887 0.65373
 H710 H 0.04416 0.57910 0.68143
 H711 H -0.02658 0.58660 0.68416
 H712 H -0.02442 0.61599 0.65617
 C713 C 0.51922 0.92224 -0.17625
 C714 C 0.52063 0.90526 -0.16049
 C715 C 0.50168 0.89442 -0.15303
 C716 C 0.48117 0.90066 -0.16168
 C717 C 0.47972 0.91767 -0.17743
 C718 C 0.49873 0.92872 -0.18484
 N719 N 0.50372 0.87748 -0.13645
 N720 N 0.48721 0.86692 -0.12889
 C721 C 0.48933 0.85024 -0.11205
 C722 C 0.47053 0.83913 -0.10463
 C723 C 0.47196 0.82306 -0.08793
 C724 C 0.49233 0.81783 -0.07832
 C725 C 0.51122 0.82895 -0.08591
 C726 C 0.50976 0.84500 -0.10262
 H727 H 0.53412 0.93062 -0.18136
 H728 H 0.53652 0.90066 -0.15389
 H729 H 0.46627 0.89249 -0.15620
 H730 H 0.46374 0.92211 -0.18392
 H731 H 0.45470 0.84299 -0.11179
 H732 H 0.45716 0.81460 -0.08266
 H733 H 0.52709 0.82554 -0.07865
 H734 H 0.52454 0.85343 -0.10801
 C735 C 0.98189 0.33932 0.43267
 C736 C 0.98122 0.35586 0.41644
 C737 C 0.98907 0.35186 0.39516
 C738 C 0.99772 0.33097 0.39017
 C739 C 0.99855 0.31434 0.40640
 C740 C 0.99061 0.31812 0.42807
 N741 N 0.98822 0.36940 0.37911
 N742 N 0.99439 0.36699 0.35915
 C743 C 0.99358 0.38491 0.34350
 C744 C 0.99979 0.38118 0.32157
 C745 C 0.99937 0.39843 0.30600
 C746 C 0.99273 0.41980 0.31216
 C747 C 0.98650 0.42345 0.33422
 C748 C 0.98688 0.40620 0.34972
 H749 H 0.97640 0.34374 0.44905
 H750 H 0.97471 0.37200 0.42053
 H751 H 1.00379 0.32745 0.37373
 H752 H 1.00471 0.29834 0.40149
 H753 H 1.00495 0.36484 0.31655
 H754 H 1.00403 0.39501 0.28910
 H755 H 0.98169 0.43976 0.33961
 H756 H 0.98211 0.40957 0.36660
 C757 C 0.53032 0.90647 0.17835
 C758 C 0.53082 0.88988 0.16263
 C759 C 0.51152 0.87941 0.15665
 C760 C 0.49160 0.88532 0.16703
 C761 C 0.49102 0.90176 0.18293
 C762 C 0.51035 0.91297 0.18872
 N763 N 0.51253 0.86329 0.13965
 N764 N 0.49534 0.85458 0.13200
 C765 C 0.49637 0.83879 0.11469
 C766 C 0.47675 0.83149 0.10567
 C767 C 0.47716 0.81680 0.08815
 C768 C 0.49730 0.80901 0.07940
 C769 C 0.51699 0.81611 0.08880
 C770 C 0.51655 0.83090 0.10624
 H771 H 0.54585 0.91363 0.18269
 H772 H 0.54634 0.88530 0.15490
 H773 H 0.47640 0.87747 0.16263
 H774 H 0.47509 0.90630 0.18968
 H775 H 0.46110 0.83751 0.11199
 H776 H 0.46171 0.81196 0.08112
 H777 H 0.53277 0.81017 0.08272
 H778 H 0.53195 0.83622 0.11303
 C779 C -0.00278 0.30457 0.60326
 C780 C -0.00222 0.31990 0.62023
 C781 C 0.00285 0.34196 0.61563
 C782 C 0.00745 0.34857 0.59376
 C783 C 0.00690 0.33329 0.57681
 C784 C 0.00177 0.31111 0.58133
 N785 N 0.00306 0.35737 0.63329
 N786 N 0.00763 0.37759 0.62993
 C787 C 0.00781 0.39338 0.64722
 C788 C 0.01308 0.41522 0.64192
 C789 C 0.01324 0.43118 0.65824
 C790 C 0.00811 0.42555 0.68027
 C791 C 0.00281 0.40355 0.68557
 C792 C 0.00268 0.38757 0.66919
 H793 H -0.00657 0.28756 0.60731
 H794 H -0.00576 0.31458 0.63701
 H795 H 0.01132 0.36555 0.58973
 H796 H 0.01011 0.33895 0.56007
 H797 H 0.01696 0.41990 0.62502
 H798 H 0.01704 0.44803 0.65354
 H799 H -0.00100 0.39866 0.70242
 H800 H -0.00142 0.37075 0.67369
 C801 C 0.49010 0.10696 0.81065
 C802 C 0.49063 0.12383 0.82609
 C803 C 0.49638 0.11918 0.84794
 C804 C 0.50154 0.09736 0.85424
 C805 C 0.50103 0.08051 0.83885
 C806 C 0.49538 0.08511 0.81685
 N807 N 0.49689 0.13679 0.86339
 N808 N 0.50218 0.13344 0.88339
 C809 C 0.50277 0.15074 0.89915
 C810 C 0.50851 0.14544 0.92083
 C811 C 0.50906 0.16177 0.93677
 C812 C 0.50386 0.18382 0.93125
 C813 C 0.49817 0.18912 0.90939
 C814 C 0.49763 0.17273 0.89345
 H815 H 0.48590 0.11107 0.79378
 H816 H 0.48664 0.14058 0.82102
 H817 H 0.50594 0.09330 0.87106
 H818 H 0.50483 0.06381 0.84423
 H819 H 0.51243 0.12853 0.92542
 H820 H 0.51315 0.15707 0.95351
 H821 H 0.49431 0.20598 0.90458
 H822 H 0.49320 0.17723 0.87675
 C823 C 1.02711 0.67858 0.40781
 C824 C 1.02754 0.66277 0.39128
 C825 C 1.00803 0.65326 0.38430
 C826 C 0.98791 0.65990 0.39391
 C827 C 0.98744 0.67572 0.41042
 C828 C 1.00705 0.68517 0.41763
 N829 N 1.00911 0.63670 0.36773
 N830 N 0.99197 0.62727 0.36085
 C831 C 0.99294 0.61048 0.34452
 C832 C 0.97337 0.60080 0.33795
 C833 C 0.97372 0.58407 0.32238
 C834 C 0.99376 0.57670 0.31309
 C835 C 1.01341 0.58655 0.31964
 C836 C 1.01303 0.60330 0.33522
 H837 H 1.04246 0.68574 0.41281
 H838 H 1.04315 0.65782 0.38397
 H839 H 0.97259 0.65274 0.38884
 H840 H 0.97177 0.68021 0.41785
 H841 H 0.95780 0.60613 0.34507
 H842 H 0.95833 0.57661 0.31793
 H843 H 1.02907 0.58142 0.31259
 H844 H 1.02839 0.61057 0.34000
 C845 C 1.19320 0.49864 0.10295
 C846 C 1.17772 0.49826 0.12022
 C847 C 1.15583 0.50426 0.11647
 C848 C 1.14963 0.51126 0.09530
 C849 C 1.16508 0.51201 0.07808
 C850 C 1.18719 0.50546 0.08143
 N851 N 1.14013 0.50285 0.13425
 N852 N 1.11955 0.50439 0.13086
 C853 C 1.10347 0.50317 0.14827
 C854 C 1.08129 0.50155 0.14276
 C855 C 1.06508 0.50020 0.15923
 C856 C 1.07080 0.50077 0.18157
 C857 C 1.09307 0.50264 0.18711
 C858 C 1.10933 0.50367 0.17058
 H859 H 1.21001 0.49422 0.10682
 H860 H 1.18276 0.49304 0.13654
 H861 H 1.13276 0.51599 0.09198
 H862 H 1.15917 0.51669 0.06193
 H863 H 1.07658 0.50124 0.12563
 H864 H 1.04802 0.49906 0.15452
 H865 H 1.09788 0.50303 0.20421
 H866 H 1.12640 0.50500 0.17521
 C867 C 0.58063 0.03151 0.67795
 C868 C 0.59801 0.03213 0.66263
 C869 C 0.60808 0.01260 0.65555
 C870 C 0.60068 -0.00771 0.66412
 C871 C 0.58334 -0.00836 0.67948
 C872 C 0.57305 0.01124 0.68652
 N873 N 0.62550 0.01382 0.63945
 N874 N 0.63472 -0.00337 0.63165
 C875 C 0.65194 -0.00223 0.61535
 C876 C 0.66031 -0.02184 0.60659
 C877 C 0.67660 -0.02135 0.59013
 C878 C 0.68491 -0.00113 0.58217
 C879 C 0.67668 0.01855 0.59125
 C880 C 0.66032 0.01803 0.60767
 H881 H 0.57288 0.04689 0.68277
 H882 H 0.60351 0.04788 0.65608
 H883 H 0.60826 -0.02305 0.65896
 H884 H 0.57811 -0.02421 0.68600
 H885 H 0.65393 -0.03755 0.61233
 H886 H 0.68230 -0.03680 0.58327
 H887 H 0.68294 0.03437 0.58571
 H888 H 0.65418 0.03343 0.61427
 C889 C -0.19386 0.49993 0.89247
 C890 C -0.17829 0.49962 0.87527
 C891 C -0.15591 0.50216 0.87962
 C892 C -0.14926 0.50543 0.90141
 C893 C -0.16481 0.50600 0.91855
 C894 C -0.18725 0.50313 0.91429
 N895 N -0.14024 0.50122 0.86178
 N896 N -0.11964 0.50037 0.86524
 C897 C -0.10357 0.49962 0.84779
 C898 C -0.08152 0.49600 0.85317
 C899 C -0.06530 0.49523 0.83667
 C900 C -0.07087 0.49835 0.81444
 C901 C -0.09302 0.50214 0.80903
 C902 C -0.10930 0.50265 0.82557
 H903 H -0.21107 0.49782 0.88874
 H904 H -0.18363 0.49715 0.85855
 H905 H -0.13207 0.50750 0.90520
 H906 H -0.15924 0.50825 0.93523
 H907 H -0.07691 0.49374 0.87024
 H908 H -0.04833 0.49260 0.84133
 H909 H -0.09775 0.50449 0.79201
 H910 H -0.12626 0.50554 0.82104
 C911 C 0.43631 -0.01313 0.34153
 C912 C 0.42025 -0.01205 0.35818
 C913 C 0.39813 -0.00861 0.35296
 C914 C 0.39215 -0.00626 0.33075
 C915 C 0.40824 -0.00715 0.31406
 C916 C 0.43049 -0.01058 0.31929
 N917 N 0.38224 -0.00722 0.37053
 N918 N 0.36164 -0.00586 0.36718
 C919 C 0.34605 -0.00413 0.38501
 C920 C 0.32356 -0.00540 0.38062
 C921 C 0.30799 -0.00397 0.39775
 C922 C 0.31472 -0.00095 0.41955
 C923 C 0.33730 0.00052 0.42388
 C924 C 0.35284 -0.00114 0.40680
 H925 H 0.45335 -0.01549 0.34607
 H926 H 0.42506 -0.01379 0.37524
 H927 H 0.37514 -0.00356 0.32631
 H928 H 0.40329 -0.00528 0.29705
 H929 H 0.31811 -0.00763 0.36390
 H930 H 0.29068 -0.00499 0.39394
 H931 H 0.34296 0.00259 0.44056
 H932 H 0.37013 -0.00006 0.41063
 C933 C 0.15890 0.49463 0.93422
 C934 C 0.14253 0.49457 0.91831
 C935 C 0.14806 0.49623 0.89591
 C936 C 0.17029 0.49801 0.88950
 C937 C 0.18670 0.49824 0.90543
 C938 C 0.18116 0.49653 0.92796
 N939 N 0.13077 0.49639 0.88013
 N940 N 0.13446 0.49631 0.85944
 C941 C 0.11689 0.49681 0.84394
 C942 C 0.12180 0.49469 0.82147
 C943 C 0.10497 0.49518 0.80598
 C944 C 0.08293 0.49805 0.81276
 C945 C 0.07806 0.50023 0.83534
 C946 C 0.09486 0.49955 0.85080
 H947 H 0.15412 0.49359 0.95146
 H948 H 0.12545 0.49330 0.92344
 H949 H 0.17496 0.49935 0.87226
 H950 H 0.20373 0.49956 0.90015
 H951 H 0.13871 0.49263 0.81598
 H952 H 0.10920 0.49365 0.78867
 H953 H 0.06120 0.50219 0.84105
 H954 H 0.09062 0.50125 0.86808
 C955 C 0.60618 -0.00596 0.30687
 C956 C 0.62310 -0.00555 0.32224
 C957 C 0.61830 -0.00252 0.34461
 C958 C 0.59629 0.00044 0.35146
 C959 C 0.57939 0.00025 0.33611
 C960 C 0.58414 -0.00308 0.31367
 N961 N 0.63591 -0.00272 0.36007
 N962 N 0.63223 -0.00251 0.38076
 C963 C 0.64950 -0.00264 0.39656
 C964 C 0.64394 -0.00479 0.41892
 C965 C 0.66029 -0.00517 0.43486
 C966 C 0.68256 -0.00319 0.42867
 C967 C 0.68813 -0.00080 0.40621
 C968 C 0.67173 -0.00064 0.39023
 H969 H 0.61030 -0.00838 0.28965
 H970 H 0.63999 -0.00780 0.31674
 H971 H 0.59213 0.00285 0.36867
 H972 H 0.56255 0.00227 0.34184
 H973 H 0.62686 -0.00626 0.42399
 H974 H 0.65550 -0.00673 0.45206
 H975 H 0.70517 0.00064 0.40100
 H976 H 0.67641 0.00109 0.37302
 C977 C 0.82260 0.47481 0.08025
 C978 C 0.83763 0.47369 0.09746
 C979 C 0.84608 0.49297 0.10624
 C980 C 0.83933 0.51354 0.09758
 C981 C 0.82436 0.51469 0.08031
 C982 C 0.81582 0.49533 0.07142
 N983 N 0.86169 0.49121 0.12367
 N984 N 0.86933 0.50811 0.13296
 C985 C 0.88526 0.50642 0.15010
 C986 C 0.89253 0.52571 0.15986
 C987 C 0.90857 0.52474 0.17613
 C988 C 0.91769 0.50436 0.18289
 C989 C 0.91014 0.48496 0.17322
 C990 C 0.89406 0.48597 0.15698
 H991 H 0.81611 0.45960 0.07401
 H992 H 0.84269 0.45775 0.10402
 H993 H 0.84573 0.52869 0.10401
 H994 H 0.81975 0.53074 0.07369
 H995 H 0.88582 0.54156 0.15474
 H996 H 0.91380 0.53994 0.18346
 H997 H 0.91704 0.46904 0.17783
 H998 H 0.88876 0.47081 0.14961
 C999 C 0.39420 0.00510 0.69554
 C1000 C 0.37730 0.00437 0.68015
 C1001 C 0.38192 0.00728 0.65764
 C1002 C 0.40368 0.01131 0.65066
 C1003 C 0.42052 0.01229 0.66603
 C1004 C 0.41598 0.00908 0.68861
 N1005 N 0.36437 0.00599 0.64220
 N1006 N 0.36806 0.00581 0.62150
 C1007 C 0.35082 0.00470 0.60573
 C1008 C 0.35649 0.00201 0.58352
 C1009 C 0.34018 0.00084 0.56761
 C1010 C 0.31784 0.00258 0.57367
 C1011 C 0.31214 0.00545 0.59598
 C1012 C 0.32850 0.00638 0.61194
 H1013 H 0.39023 0.00274 0.71286
 H1014 H 0.36060 0.00132 0.68575
 H1015 H 0.40768 0.01367 0.63335
 H1016 H 0.43719 0.01514 0.66021
 H1017 H 0.37363 0.00079 0.57854
 H1018 H 0.34505 -0.00107 0.55051
 H1019 H 0.29504 0.00671 0.60109
 H1020 H 0.32373 0.00852 0.62903
   
