data_POSCAR
  _audit_creation_date              2014-09-24
  _audit_creation_method            'ToBaCCo'
  _symmetry_space_group_name_H-M    'P1'
  _symmetry_Int_Tables_number       1
  _symmetry_cell_setting            triclinic
  loop_
  _symmetry_equiv_pos_as_xyz
 x,y,z
_cell_length_a 23.7223
_cell_length_b 24.2305
_cell_length_c 23.0970
_cell_angle_alpha 90.898900
_cell_angle_beta 88.181900
_cell_angle_gamma 91.060900
loop_
  _atom_site_label
  _atom_site_type_symbol
  _atom_site_fract_x
  _atom_site_fract_y
  _atom_site_fract_z
C1 C 0.23255 0.17504 0.23115
 C2 C 0.20137 0.15675 0.28029
 C3 C 0.14395 0.17092 0.28908
 C4 C 0.11947 0.20580 0.24953
 C5 C 0.15025 0.22524 0.20131
 C6 C 0.20665 0.20936 0.19138
 C7 C 0.28798 0.15692 0.21954
 C8 C 0.31774 0.17231 0.16812
 C9 C 0.29160 0.20832 0.12995
 C10 C 0.23626 0.22621 0.14061
 C11 C 0.20910 0.25888 0.10026
 C12 C 0.15327 0.27566 0.11106
 C13 C 0.12427 0.25857 0.16163
 H14 H 0.22124 0.12857 0.30883
 H15 H 0.07554 0.21700 0.25558
 H16 H 0.30647 0.12952 0.24985
 H17 H 0.31347 0.22057 0.09008
 H18 H 0.23123 0.27135 0.06066
 H19 H 0.08060 0.26988 0.16922
 C20 C -0.19469 0.83859 0.22143
 C21 C -0.16278 0.85555 0.26831
 C22 C -0.11606 0.82523 0.28499
 C23 C -0.10158 0.77742 0.25314
 C24 C -0.13598 0.75783 0.20831
 C25 C -0.18277 0.78871 0.19219
 C26 C -0.23736 0.87214 0.20275
 C27 C -0.27095 0.85621 0.15636
 C28 C -0.26130 0.80431 0.12871
 C29 C -0.21651 0.77078 0.14595
 C30 C -0.20354 0.72061 0.11703
 C31 C -0.15741 0.68881 0.13347
 C32 C -0.12356 0.70850 0.17873
 H33 H -0.17247 0.89468 0.28942
 H34 H -0.06482 0.75445 0.26460
 H35 H -0.24467 0.91127 0.22507
 H36 H -0.28625 0.79112 0.09239
 H37 H -0.22866 0.70672 0.08103
 H38 H -0.08621 0.68671 0.19015
 C39 C -0.25061 0.15418 -0.23693
 C40 C -0.23106 0.13198 -0.29053
 C41 C -0.18306 0.15492 -0.31964
 C42 C -0.15763 0.20282 -0.29700
 C43 C -0.17509 0.22386 -0.24303
 C44 C -0.22134 0.19957 -0.21257
 C45 C -0.29645 0.12993 -0.20561
 C46 C -0.31251 0.15029 -0.14963
 C47 C -0.28227 0.19541 -0.12635
 C48 C -0.23664 0.21942 -0.15672
 C49 C -0.20428 0.26137 -0.13081
 C50 C -0.15782 0.28455 -0.16088
 C51 C -0.14419 0.26661 -0.21742
 H52 H -0.25132 0.09519 -0.30811
 H53 H -0.12247 0.22270 -0.31981
 H54 H -0.31777 0.09460 -0.22460
 H55 H -0.29315 0.21109 -0.08321
 H56 H -0.21453 0.27540 -0.08697
 H57 H -0.10721 0.28344 -0.24017
 C58 C 0.23217 0.85841 -0.22210
 C59 C 0.21496 0.88076 -0.27422
 C60 C 0.16343 0.86418 -0.29857
 C61 C 0.13168 0.82102 -0.27220
 C62 C 0.14857 0.79836 -0.22023
 C63 C 0.19804 0.81811 -0.19416
 C64 C 0.28192 0.87705 -0.19633
 C65 C 0.29641 0.85754 -0.14197
 C66 C 0.26193 0.81799 -0.11389
 C67 C 0.21311 0.79782 -0.13983
 C68 C 0.17902 0.75774 -0.11234
 C69 C 0.13138 0.73649 -0.13957
 C70 C 0.11604 0.75687 -0.19320
 H71 H 0.24057 0.91316 -0.29434
 H72 H 0.09331 0.80510 -0.29070
 H73 H 0.30842 0.90816 -0.21748
 H74 H 0.27348 0.80257 -0.07213
 H75 H 0.19032 0.74184 -0.07070
 H76 H 0.07834 0.74074 -0.21334
 C77 C 0.18359 1.22284 0.78452
 C78 C 0.15776 1.19231 0.73961
 C79 C 0.17832 1.13989 0.72200
 C80 C 0.22690 1.12039 0.74778
 C81 C 0.25398 1.15102 0.79099
 C82 C 0.23153 1.20173 0.81045
 C83 C 0.16058 1.27259 0.80616
 C84 C 0.18328 1.29992 0.85533
 C85 C 0.23063 1.27778 0.88058
 C86 C 0.25564 1.23001 0.85770
 C87 C 0.30298 1.20868 0.88341
 C88 C 0.32622 1.15878 0.86368
 C89 C 0.30146 1.13005 0.81727
 H90 H 0.11991 1.20811 0.72146
 H91 H 0.24349 1.08048 0.73466
 H92 H 0.12262 1.28724 0.78716
 H93 H 0.24832 1.29799 0.91835
 H94 H 0.32074 1.23007 0.92042
 H95 H 0.31692 1.09012 0.80328
 C96 C 0.82232 0.76033 0.76407
 C97 C 0.84649 0.78339 0.71308
 C98 C 0.83849 0.83941 0.70029
 C99 C 0.80144 0.87035 0.73649
 C100 C 0.77753 0.84810 0.78700
 C101 C 0.78788 0.79305 0.80110
 C102 C 0.83527 0.70661 0.78092
 C103 C 0.81512 0.68598 0.83514
 C104 C 0.77802 0.71808 0.86929
 C105 C 0.76509 0.77141 0.85328
 C106 C 0.73215 0.80454 0.89052
 C107 C 0.72244 0.85944 0.87647
 C108 C 0.74506 0.88105 0.82485
 H109 H 0.87448 0.75883 0.68551
 H110 H 0.79076 0.91217 0.72590
 H111 H 0.86365 0.68325 0.75298
 H112 H 0.76177 0.70284 0.91064
 H113 H 0.71557 0.78821 0.93119
 H114 H 0.73738 0.92368 0.81429
 C115 C 0.12643 0.76711 1.22034
 C116 C 0.10422 0.78911 1.27285
 C117 C 0.13270 0.83212 1.30205
 C118 C 0.18403 0.85266 1.27867
 C119 C 0.20531 0.83277 1.22525
 C120 C 0.17676 0.78964 1.19589
 C121 C 0.09767 0.72489 1.19057
 C122 C 0.11906 0.70332 1.13735
 C123 C 0.16905 0.72694 1.11268
 C124 C 0.19705 0.77106 1.14088
 C125 C 0.24351 0.79868 1.11412
 C126 C 0.27088 0.84271 1.14286
 C127 C 0.25251 0.85831 1.19895
 H128 H 0.06383 0.77413 1.29011
 H129 H 0.20501 0.88740 1.29953
 H130 H 0.05856 0.70828 1.20940
 H131 H 0.18484 0.71325 1.07046
 H132 H 0.25790 0.78663 1.07081
 H133 H 0.27290 0.89289 1.22074
 C134 C 0.85247 1.23650 1.23012
 C135 C 0.88017 1.20687 1.27237
 C136 C 0.85463 1.16012 1.29850
 C137 C 0.80022 1.14339 1.28136
 C138 C 0.77309 1.17117 1.23732
 C139 C 0.79920 1.21800 1.21166
 C140 C 0.87823 1.28326 1.20474
 C141 C 0.85262 1.31136 1.15991
 C142 C 0.79970 1.29186 1.14081
 C143 C 0.77299 1.24512 1.16622
 C144 C 0.72161 1.22365 1.14554
 C145 C 0.69587 1.17597 1.16978
 C146 C 0.72165 1.15077 1.21650
 H147 H 0.92199 1.22031 1.28491
 H148 H 0.78019 1.10659 1.29903
 H149 H 0.91929 1.29717 1.21906
 H150 H 0.77917 1.31272 1.10638
 H151 H 0.70246 1.24301 1.10919
 H152 H 0.70388 1.11318 1.23468
 O153 O 0.54974 0.90736 0.95889
 O154 O 0.45333 0.92207 1.11821
 O155 O 0.61882 0.97582 1.08600
 O156 O 0.38259 0.97025 0.99496
 O157 O 0.55197 0.92002 1.10633
 O158 O 0.44236 0.91455 0.95125
 O159 O 0.38911 0.97883 1.09970
 O160 O 0.61807 0.96401 0.98157
 C161 C 0.60092 0.91715 0.96434
 C162 C 0.40283 0.93199 1.11552
 C163 C 0.60301 0.92800 1.09834
 C164 C 0.39301 0.92780 0.96477
 O165 O 0.45542 1.01569 0.91348
 O166 O 0.55965 1.02724 1.14914
 O167 O 0.58261 1.06832 0.97139
 O168 O 0.43833 1.08018 1.08608
 O169 O 0.45561 1.02875 1.15736
 O170 O 0.55991 1.00543 0.91019
 O171 O 0.41871 1.07128 0.97994
 O172 O 0.57560 1.07816 1.07580
 Co173 Co 0.50242 0.96386 0.94360
 Co174 Co 0.50541 0.97683 1.12470
 Co175 Co 0.59075 1.01926 1.02947
 Co176 Co 0.41636 1.02286 1.04053
 O177 O 0.50316 0.99550 1.03401
 C178 C 0.42759 1.05810 0.92787
 C179 C 0.57826 1.07192 1.12866
 C180 C 0.58172 1.05169 0.92045
 C181 C 0.43594 1.07301 1.13887
 O182 O 0.06486 0.43406 0.04228
 O183 O 0.06027 0.55207 -0.13792
 O184 O 0.07661 0.41841 -0.06035
 O185 O 0.02002 0.60451 0.02319
 O186 O 0.05441 0.44626 -0.14400
 O187 O 0.07424 0.53662 0.04415
 O188 O 0.01475 0.61231 -0.08130
 O189 O 0.02544 0.35756 0.00782
 C190 C 0.05738 0.38190 0.04670
 C191 C 0.05413 0.60032 -0.11798
 C192 C 0.08538 0.41853 -0.11374
 C193 C 0.06620 0.58741 0.04101
 O194 O -0.02907 0.54404 0.08947
 O195 O -0.05523 0.45241 -0.14454
 O196 O -0.06845 0.40539 -0.00266
 O197 O -0.09405 0.57192 -0.07441
 O198 O -0.04500 0.55435 -0.15075
 O199 O -0.04460 0.44278 0.07704
 O200 O -0.08761 0.55818 0.02551
 O201 O -0.02296 0.38425 -0.09551
 Co202 Co 0.01394 0.48997 0.05402
 Co203 Co 0.00300 0.50048 -0.13378
 Co204 Co 0.00339 0.41746 -0.03003
 Co205 Co -0.03435 0.57999 -0.02705
 O206 O -0.00600 0.49957 -0.03798
 C207 C -0.07535 0.56281 0.07656
 C208 C -0.05629 0.40262 -0.13156
 C209 C -0.07773 0.41165 0.04989
 C210 C -0.08804 0.57372 -0.12767
 O211 O 1.10844 0.05535 0.45035
 O212 O 0.89722 0.04600 0.56107
 O213 O 0.94209 0.03446 0.38278
 O214 O 1.04755 0.03884 0.63670
 O215 O 0.88973 0.04771 0.45977
 O216 O 1.08407 0.07589 0.55612
 O217 O 0.97828 0.08210 0.57754
 O218 O 1.03957 0.07062 0.39382
 C219 C 1.08820 0.08136 0.40988
 C220 C 0.92596 0.08596 0.57979
 C221 C 0.90078 0.05633 0.40777
 C222 C 1.08188 0.07522 0.61182
 O223 O 1.10202 -0.03018 0.57487
 O224 O 0.90222 -0.06025 0.44902
 O225 O 1.07540 -0.03036 0.39162
 O226 O 0.94392 -0.01152 0.62421
 O227 O 0.91603 -0.06511 0.55634
 O228 O 1.10636 -0.05308 0.47377
 O229 O 1.02219 -0.06142 0.58649
 O230 O 0.97591 -0.06678 0.38911
 Co231 Co 1.09000 0.01161 0.51134
 Co232 Co 0.90996 -0.00786 0.50593
 Co233 Co 1.00765 0.00183 0.39953
 Co234 Co 1.00422 0.01122 0.57866
 O235 O 0.99928 0.00263 0.49438
 C236 C 1.07197 -0.06787 0.59400
 C237 C 0.92762 -0.08267 0.40635
 C238 C 1.10106 -0.06320 0.42137
 C239 C 0.91488 -0.05265 0.60932
 C240 C 1.10819 0.14734 0.33213
 C241 C 1.12596 0.11877 0.37684
 H242 H 1.06299 0.15070 0.32746
 H243 H 1.17010 0.11845 0.38711
 C244 C 0.91791 -0.15467 0.32966
 C245 C 0.89595 -0.12417 0.37341
 H246 H 0.96266 -0.16286 0.32781
 H247 H 0.85057 -0.12383 0.38084
 C248 C 0.84303 0.12485 0.63023
 C249 C 0.89832 0.12935 0.61485
 H250 H 0.81770 0.09221 0.61086
 H251 H 0.92575 0.15945 0.63516
 C252 C 1.14437 -0.10590 0.65418
 C253 C 1.09242 -0.11027 0.63254
 H254 H 1.17212 -0.07338 0.63746
 H255 H 1.06156 -0.14032 0.64791
 C256 C 0.36989 1.14945 1.14953
 C257 C 0.39763 1.10836 1.17492
 H258 H 0.38594 1.16233 1.10724
 H259 H 0.38567 1.09414 1.21773
 C260 C 0.34702 0.88006 0.88565
 C261 C 0.34584 0.89594 0.94135
 H262 H 0.38375 0.88967 0.85825
 H263 H 0.30685 0.89291 0.96686
 C264 C 0.68876 0.89459 1.13978
 C265 C 0.64353 0.88374 1.10813
 H266 H 0.69254 0.93626 1.15751
 H267 H 0.63292 0.84200 1.09451
 C268 C 0.64553 1.12583 0.88676
 C269 C 0.61413 1.08085 0.87430
 H270 H 0.64033 1.14330 0.93012
 H271 H 0.61583 1.06154 0.83184
 C272 C 0.12378 0.30899 0.06875
 C273 C 0.09075 0.35053 0.08649
 H274 H 0.12952 0.29965 0.02292
 H275 H 0.08956 0.36347 0.13162
 C276 C -0.12084 0.32419 -0.13143
 C277 C -0.09594 0.36578 -0.15992
 H278 H -0.11420 0.31927 -0.08556
 H279 H -0.10677 0.37450 -0.20404
 C280 C 0.09805 0.69199 -0.11257
 C281 C 0.09110 0.64409 -0.14078
 H282 H 0.08039 0.69819 -0.06914
 H283 H 0.11270 0.63712 -0.18228
 C284 C -0.14130 0.63883 0.09858
 C285 C -0.10622 0.60011 0.11708
 H286 H -0.15503 0.63658 0.05428
 H287 H -0.09340 0.60043 0.16158
 C288 C 1.15075 0.10409 0.68264
 C289 C 1.11014 0.11813 0.64689
 H290 H 1.16400 0.06140 0.68042
 H291 H 1.09824 0.16057 0.64173
 C292 C 0.86928 -0.13576 0.65393
 C293 C 0.87999 -0.08114 0.65318
 H294 H 0.88950 -0.16170 0.62102
 H295 H 0.86816 -0.05526 0.68998
 C296 C 1.10311 -0.13704 0.34921
 C297 C 1.12940 -0.10968 0.39186
 H298 H 1.05835 -0.13129 0.34446
 H299 H 1.17322 -0.11709 0.40039
 C300 C 0.88609 0.12941 0.33736
 C301 C 0.86417 0.09194 0.37457
 H302 H 0.93131 0.13705 0.33779
 H303 H 0.81908 0.08760 0.38212
 C304 C 0.15774 0.34596 -0.11719
 C305 C 0.12345 0.37961 -0.14404
 H306 H 0.16650 0.35477 -0.07212
 H307 H 0.11919 0.37606 -0.19049
 C308 C -0.11566 0.35924 0.13356
 C309 C -0.12188 0.37701 0.07931
 H310 H -0.08051 0.37603 0.15751
 H311 H -0.15362 0.35806 0.05246
 C312 C -0.16416 0.63851 -0.13913
 C313 C -0.12496 0.60596 -0.16331
 H314 H -0.17613 0.63137 -0.09405
 H315 H -0.11295 0.60854 -0.20867
 C316 C 0.08745 0.66117 0.10978
 C317 C 0.10603 0.62768 0.06649
 H318 H 0.04464 0.65375 0.12636
 H319 H 0.14981 0.62757 0.05192
 C320 C 0.37006 1.13442 0.89887
 C321 C 0.40050 1.09020 0.88332
 H322 H 0.37361 1.15117 0.94246
 H323 H 0.40053 1.07376 0.83952
 C324 C 0.31551 0.87594 1.11307
 C325 C 0.36143 0.89299 1.14070
 H326 H 0.30977 0.88770 1.06872
 H327 H 0.36952 0.87724 1.18325
 C328 C 0.64706 1.14915 1.14030
 C329 C 0.61297 1.11001 1.16426
 H330 H 0.64239 1.15872 1.09503
 H331 H 0.61541 1.10080 1.20975
 C332 C 0.68861 0.89533 0.91471
 C333 C 0.64106 0.87729 0.94097
 H334 H 0.69863 0.93921 0.91434
 H335 H 0.62744 0.83455 0.93651
   
