data_POSCAR
  _audit_creation_date              2014-09-24
  _audit_creation_method            'ToBaCCo'
  _symmetry_space_group_name_H-M    'P1'
  _symmetry_Int_Tables_number       1
  _symmetry_cell_setting            triclinic
  loop_
  _symmetry_equiv_pos_as_xyz
 x,y,z
_cell_length_a 29.6963
_cell_length_b 29.9597
_cell_length_c 29.5852
_cell_angle_alpha 88.717700
_cell_angle_beta 91.529300
_cell_angle_gamma 86.885000
loop_
  _atom_site_label
  _atom_site_type_symbol
  _atom_site_fract_x
  _atom_site_fract_y
  _atom_site_fract_z
C1 C 0.00220 0.44882 0.16585
 H2 H 0.00571 0.48048 0.14844
 C3 C 0.00549 0.40914 0.14179
 H4 H 0.01147 0.41112 0.10582
 C5 C -0.00936 0.40824 0.23369
 H6 H -0.01460 0.40823 0.26974
 C7 C -0.00690 0.36785 0.21101
 H8 H -0.01004 0.33773 0.23107
 N9 N -0.00476 0.44762 0.21106
 C10 C -0.05780 0.57704 0.21198
 H11 H -0.08411 0.56525 0.23288
 C12 C -0.06450 0.61834 0.18946
 H13 H -0.09610 0.63760 0.19307
 C14 C 0.01571 0.56744 0.18328
 H15 H 0.04718 0.54765 0.18173
 C16 C 0.01051 0.60885 0.16035
 H17 H 0.03790 0.61985 0.14030
 Zn18 Zn -0.00761 0.50019 0.24581
 N19 N -0.01805 0.55262 0.20891
 C20 C 0.05622 0.54385 0.29860
 N21 N 0.04787 0.50489 0.27809
 C22 C 0.07971 0.47055 0.27792
 C23 C 0.12180 0.47443 0.29920
 C24 C 0.09796 0.54933 0.32011
 C25 C -0.09535 0.48238 0.26806
 C26 C -0.13402 0.48261 0.29377
 C27 C -0.09093 0.51075 0.35635
 C28 C -0.05295 0.50971 0.32938
 N29 N -0.05606 0.49639 0.28584
 H30 H 0.03062 0.57099 0.29757
 H31 H 0.07284 0.44015 0.26072
 H32 H 0.14596 0.44636 0.29744
 H33 H 0.10385 0.58085 0.33593
 H34 H -0.09693 0.47226 0.23321
 H35 H -0.16449 0.47232 0.27739
 H36 H -0.08789 0.52241 0.39066
 H37 H -0.02139 0.52068 0.34292
 C38 C -0.02981 0.63529 0.16417
 C39 C 0.00080 0.36761 0.16407
 C40 C -0.13251 0.49763 0.33865
 C41 C 0.13168 0.51445 0.32073
 C42 C 0.04392 0.56447 0.81879
 H43 H 0.06993 0.53772 0.82091
 C44 C 0.04829 0.60264 0.84438
 H45 H 0.07772 0.60506 0.86644
 C46 C -0.02548 0.59426 0.78646
 H47 H -0.05378 0.59127 0.76327
 C48 C -0.02245 0.63304 0.81140
 H49 H -0.04949 0.65863 0.80792
 N50 N 0.00741 0.56092 0.79063
 C51 C 0.00126 0.41824 0.76870
 H52 H 0.00133 0.41834 0.73212
 C53 C -0.00325 0.37831 0.79286
 H54 H -0.00698 0.34799 0.77429
 C55 C 0.00283 0.45870 0.83658
 H56 H 0.00404 0.49025 0.85340
 C57 C -0.00181 0.41949 0.86212
 H58 H -0.00345 0.42110 0.89859
 Zn59 Zn 0.00618 0.50984 0.75438
 N60 N 0.00461 0.45729 0.79073
 C61 C 0.09022 0.47433 0.72287
 N62 N 0.05904 0.50928 0.71992
 C63 C 0.06708 0.54732 0.69633
 C64 C 0.10821 0.55168 0.67527
 C65 C 0.13157 0.47693 0.70176
 C66 C -0.08626 0.51157 0.73924
 C67 C -0.12711 0.50976 0.71520
 C68 C -0.08580 0.50706 0.64596
 C69 C -0.04567 0.50962 0.67145
 N70 N -0.04671 0.51184 0.71725
 H71 H 0.08383 0.44489 0.74290
 H72 H 0.04202 0.57496 0.69523
 H73 H 0.11413 0.58275 0.65750
 H74 H 0.15574 0.44884 0.70627
 H75 H -0.08592 0.51207 0.77581
 H76 H -0.15740 0.50855 0.73447
 H77 H -0.08421 0.50477 0.60953
 H78 H -0.01370 0.50877 0.65476
 C79 C -0.00459 0.37861 0.84032
 C80 C 0.01523 0.63782 0.84035
 C81 C -0.12745 0.50729 0.66765
 C82 C 0.14143 0.51638 0.67790
 C83 C 0.21753 0.04215 0.42144
 H84 H 0.24391 0.06543 0.42256
 C85 C 0.19021 0.04077 0.38244
 H86 H 0.19598 0.06367 0.35472
 C87 C 0.17697 -0.01411 0.45679
 H88 H 0.17133 -0.03485 0.48620
 C89 C 0.14900 -0.01682 0.41833
 H90 H 0.12262 -0.04040 0.41815
 N91 N 0.21197 0.01341 0.45686
 C92 C 0.23538 -0.02980 0.58994
 H93 H 0.26189 -0.05436 0.58245
 C94 C 0.21121 -0.03507 0.62925
 H95 H 0.21906 -0.06388 0.65141
 C96 C 0.19255 0.03726 0.57043
 H97 H 0.18490 0.06482 0.54673
 C98 C 0.16822 0.03385 0.61017
 H99 H 0.14173 0.05889 0.61687
 Zn100 Zn 0.25565 0.00781 0.50534
 N101 N 0.22527 0.00549 0.56101
 C102 C 0.29308 0.08734 0.53668
 N103 N 0.29406 0.05687 0.50331
 C104 C 0.32118 0.06153 0.46736
 C105 C 0.34726 0.09871 0.46305
 C106 C 0.31851 0.12519 0.53372
 C107 C 0.26672 -0.08506 0.49675
 C108 C 0.28921 -0.12680 0.49345
 C109 C 0.35980 -0.09048 0.49408
 C110 C 0.33581 -0.04932 0.49798
 N111 N 0.28997 -0.04728 0.49909
 H112 H 0.27194 0.08281 0.56539
 H113 H 0.32179 0.03670 0.44134
 H114 H 0.36782 0.10191 0.43355
 H115 H 0.31609 0.14851 0.56092
 H116 H 0.23051 -0.08314 0.49846
 H117 H 0.26890 -0.15549 0.49108
 H118 H 0.39630 -0.09128 0.49336
 H119 H 0.35401 -0.01924 0.50081
 C120 C 0.17727 -0.00308 0.63973
 C121 C 0.15677 0.00940 0.37979
 C122 C 0.33664 -0.13016 0.49241
 C123 C 0.34565 0.13186 0.49592
 C124 C 0.79710 0.01358 0.56523
 H125 H 0.79525 0.04458 0.54562
 C126 C 0.81730 0.01185 0.60851
 H127 H 0.83076 0.04198 0.62134
 C128 C 0.77910 -0.06227 0.57229
 H129 H 0.76362 -0.09091 0.55830
 C130 C 0.79902 -0.06554 0.61560
 H131 H 0.79880 -0.09691 0.63451
 N132 N 0.77804 -0.02298 0.54830
 C133 C 0.76279 -0.00906 0.40176
 H134 H 0.72657 -0.01123 0.39894
 C135 C 0.78770 -0.00521 0.36284
 H136 H 0.76899 -0.00377 0.33106
 C137 C 0.82874 -0.00719 0.44822
 H138 H 0.84445 -0.00821 0.48164
 C139 C 0.85518 -0.00284 0.41003
 H140 H 0.89129 -0.00052 0.41481
 Zn141 Zn 0.74479 -0.01684 0.49291
 N142 N 0.78339 -0.01022 0.44335
 C143 C 0.71125 0.06997 0.46554
 N144 N 0.70625 0.03609 0.49607
 C145 C 0.67837 0.04181 0.53147
 C146 C 0.65439 0.08276 0.53712
 C147 C 0.68820 0.11137 0.46994
 C148 C 0.72888 -0.09921 0.45340
 C149 C 0.70879 -0.13959 0.44683
 C150 C 0.65549 -0.11961 0.50411
 C151 C 0.67635 -0.07910 0.50910
 N152 N 0.71241 -0.06957 0.48386
 H153 H 0.73442 0.06584 0.43836
 H154 H 0.67617 0.01532 0.55656
 H155 H 0.63305 0.08666 0.56608
 H156 H 0.69357 0.13679 0.44456
 H157 H 0.75864 -0.09236 0.43487
 H158 H 0.72302 -0.16250 0.42248
 H159 H 0.62694 -0.12566 0.52480
 H160 H 0.66411 -0.05574 0.53376
 C161 C 0.83500 -0.00236 0.36628
 C162 C 0.81798 -0.02812 0.63459
 C163 C 0.67199 -0.15087 0.47271
 C164 C 0.65979 0.11877 0.50674
 C165 C 0.54753 0.18779 0.97259
 H166 H 0.52263 0.18917 0.94520
 C167 C 0.58739 0.16162 0.96886
 H168 H 0.59309 0.14299 0.93838
 C169 C 0.57041 0.21071 1.04546
 H170 H 0.56323 0.22920 1.07557
 C171 C 0.61097 0.18511 1.04304
 H172 H 0.63451 0.18421 1.07161
 N173 N 0.54026 0.21245 1.00997
 C174 C 0.39598 0.23346 1.00051
 H175 H 0.39315 0.26845 0.99034
 C176 C 0.35759 0.20907 1.00167
 H177 H 0.32605 0.22701 0.99275
 C178 C 0.44194 0.17011 1.02532
 H179 H 0.47502 0.15531 1.03456
 C180 C 0.40426 0.14428 1.02729
 H181 H 0.40901 0.10946 1.03803
 Zn182 Zn 0.48710 0.24974 1.00834
 N183 N 0.43707 0.21383 1.01203
 C184 C 0.45878 0.26151 0.91822
 N185 N 0.48343 0.28019 0.95148
 C186 C 0.50611 0.31762 0.94324
 C187 C 0.50381 0.33811 0.90014
 C188 C 0.45473 0.28123 0.87529
 C189 C 0.44716 0.29452 1.08077
 C190 C 0.44475 0.32134 1.11842
 C191 C 0.52239 0.33850 1.10825
 C192 C 0.52264 0.31266 1.06933
 N193 N 0.48573 0.29023 1.05710
 H194 H 0.44270 0.23062 0.92460
 H195 H 0.52608 0.33151 0.97000
 H196 H 0.52177 0.36813 0.89491
 H197 H 0.43459 0.26558 0.84964
 H198 H 0.41807 0.27667 1.07123
 H199 H 0.41357 0.32369 1.13667
 H200 H 0.55247 0.35529 1.11755
 H201 H 0.55285 0.30931 1.04979
 C202 C 0.36116 0.16339 1.01498
 C203 C 0.62019 0.16105 1.00377
 C204 C 0.48298 0.34258 1.13369
 C205 C 0.47761 0.31979 0.86538
 C206 C 0.45205 0.82286 0.95837
 H207 H 0.47485 0.82339 0.93066
 C208 C 0.41145 0.84879 0.95503
 H209 H 0.40388 0.86849 0.92431
 C210 C 0.43458 0.79698 1.03146
 H211 H 0.44363 0.77712 1.06150
 C212 C 0.39354 0.82224 1.02961
 H213 H 0.37275 0.82055 1.05888
 N214 N 0.46207 0.79604 0.99538
 C215 C 0.60277 0.75059 0.97590
 H216 H 0.59728 0.71546 0.97204
 C217 C 0.64584 0.76599 0.97084
 H218 H 0.67336 0.74247 0.96296
 C219 C 0.57338 0.82358 0.99143
 H220 H 0.54489 0.84573 0.99952
 C221 C 0.61617 0.84048 0.98681
 H222 H 0.61972 0.87590 0.99067
 Zn223 Zn 0.51194 0.75253 0.99450
 N224 N 0.56771 0.77921 0.98647
 C225 C 0.49807 0.67044 0.94901
 N226 N 0.50416 0.71496 0.94426
 C227 C 0.50818 0.73427 0.90266
 C228 C 0.50453 0.70928 0.86372
 C229 C 0.49486 0.64388 0.91086
 C230 C 0.55394 0.71916 1.07607
 C231 C 0.55765 0.69623 1.11764
 C232 C 0.48215 0.67199 1.10554
 C233 C 0.48032 0.69466 1.06356
 N234 N 0.51567 0.71824 1.04991
 H235 H 0.49644 0.65521 0.98230
 H236 H 0.51595 0.76894 0.89961
 H237 H 0.50919 0.72615 0.83169
 H238 H 0.49026 0.60845 0.91546
 H239 H 0.58164 0.73825 1.06519
 H240 H 0.58853 0.69781 1.13777
 H241 H 0.45335 0.65375 1.11509
 H242 H 0.45023 0.69420 1.04217
 C243 C 0.65327 0.81125 0.97698
 C244 C 0.38037 0.84754 0.99010
 C245 C 0.52126 0.67289 1.13354
 C246 C 0.49757 0.66321 0.86731
 B247 B 1.00093 1.04948 0.03065
 B248 B 0.99945 1.05171 -0.02639
 B249 B 1.04655 1.03129 0.00193
 B250 B 1.03044 1.00196 0.04776
 B251 B 0.97346 1.00399 0.04729
 B252 B 0.95448 1.03485 0.00140
 B253 B 1.00141 0.96003 -0.02834
 B254 B 1.00220 0.95786 0.02905
 B255 B 0.95511 0.97825 0.00006
 B256 B 0.97145 1.00796 -0.04549
 B257 B 1.02840 1.00574 -0.04497
 B258 B 1.04789 0.97498 0.00102
 B259 B 0.54662 0.49709 0.47388
 B260 B 0.49785 0.52405 0.45385
 B261 B 0.50282 0.46749 0.45553
 B262 B 0.53274 0.45068 0.50311
 B263 B 0.54640 0.49706 0.53102
 B264 B 0.52496 0.54237 0.50077
 B265 B 0.45422 0.49436 0.52838
 B266 B 0.50275 0.46738 0.54816
 B267 B 0.49772 0.52390 0.54667
 B268 B 0.46798 0.54059 0.49910
 B269 B 0.45426 0.49407 0.47147
 B270 B 0.47611 0.44888 0.50154
 C271 C 1.00446 1.32969 0.13987
 C272 C 0.99745 1.28646 0.15662
 C273 C 1.00388 1.24637 0.12901
 N274 N 0.98878 1.20688 0.14398
 N275 N 0.99463 1.17009 0.11987
 C276 C 1.01617 1.17131 0.07998
 N277 N 1.03160 1.21072 0.06513
 N278 N 1.02550 1.24760 0.08913
 C279 C 1.02274 1.13094 0.05289
 C280 C 0.99885 1.09285 0.06085
 H281 H 0.98534 1.28086 0.19022
 H282 H 1.04466 1.13271 0.02452
 H283 H 1.01281 1.33269 0.10448
 H284 H 0.97456 1.09390 0.08735
 C285 C 0.96315 0.68076 0.14351
 C286 C 0.99836 0.70750 0.13210
 C287 C 0.99054 0.75436 0.11643
 N288 N 1.02616 0.77840 0.10526
 N289 N 1.01996 0.82094 0.09146
 C290 C 0.97791 0.84125 0.08853
 N291 N 0.94223 0.81726 0.09982
 N292 N 0.94842 0.77461 0.11357
 C293 C 0.97078 0.88788 0.07179
 C294 C 1.00650 0.91121 0.05556
 H295 H 1.03300 0.69470 0.13638
 H296 H 0.93692 0.90300 0.07072
 H297 H 0.92887 0.69509 0.14055
 H298 H 1.04004 0.89558 0.05928
 C299 C 0.98928 1.33748 -0.13239
 C300 C 1.00126 1.29481 -0.14750
 C301 C 0.99417 1.25398 -0.12077
 N302 N 1.01090 1.21400 -0.13534
 N303 N 1.00495 1.17655 -0.11173
 C304 C 0.98180 1.17761 -0.07276
 N305 N 0.96476 1.21759 -0.05830
 N306 N 0.97085 1.25513 -0.08187
 C307 C 0.97614 1.13649 -0.04592
 C308 C 0.99982 1.09664 -0.05572
 H309 H 1.01766 1.29083 -0.17949
 H310 H 0.95504 1.13847 -0.01676
 H311 H 0.97636 1.34104 -0.09868
 H312 H 1.02120 1.09603 -0.08474
 C313 C 1.02118 0.67866 -0.13335
 C314 C 1.00011 0.72013 -0.14545
 C315 C 1.00731 0.76063 -0.11969
 N316 N 0.98559 0.79986 -0.13310
 N317 N 0.99144 0.83692 -0.11017
 C318 C 1.01935 0.83616 -0.07301
 N319 N 1.04119 0.79694 -0.05963
 N320 N 1.03529 0.75982 -0.08256
 C321 C 1.02527 0.87666 -0.04686
 C322 C 1.00079 0.91661 -0.05771
 H323 H 0.97837 0.72376 -0.17535
 H324 H 1.04820 0.87419 -0.01788
 H325 H 1.04483 0.67642 -0.10476
 H326 H 0.97826 0.91766 -0.08692
 C327 C 1.13060 1.00219 0.33745
 C328 C 1.14561 1.01431 0.29481
 C329 C 1.12211 1.00332 0.25250
 N330 N 1.13626 1.02017 0.21275
 N331 N 1.11574 1.01071 0.17389
 C332 C 1.08050 0.98367 0.17322
 N333 N 1.06658 0.96636 0.21295
 N334 N 1.08700 0.97604 0.25193
 C335 C 1.05645 0.97485 0.13053
 C336 C 1.06045 1.00275 0.09272
 H337 H 1.17647 1.03149 0.29160
 H338 H 1.03198 0.94945 0.13060
 H339 H 1.10039 0.98362 0.33963
 H340 H 1.08218 1.03041 0.09551
 C341 C 1.15076 0.98960 -0.31955
 C342 C 1.13582 1.02418 -0.29205
 C343 C 1.11210 1.01501 -0.25008
 N344 N 1.11181 1.04494 -0.21634
 N345 N 1.09123 1.03644 -0.17784
 C346 C 1.06987 0.99785 -0.17186
 N347 N 1.06960 0.96824 -0.20585
 N348 N 1.09057 0.97652 -0.24415
 C349 C 1.04638 0.98836 -0.12990
 C350 C 1.05554 1.01061 -0.09017
 H351 H 1.14446 1.05814 -0.29968
 H352 H 1.02143 0.96354 -0.13085
 H353 H 1.14623 0.95537 -0.30874
 H354 H 1.08178 1.03430 -0.09014
 C355 C 0.86136 1.00103 0.32977
 C356 C 0.84613 0.99787 0.28471
 C357 C 0.87556 1.00288 0.24596
 N358 N 0.86000 0.99286 0.20409
 N359 N 0.88557 0.99757 0.16823
 C360 C 0.92764 1.01277 0.17283
 N361 N 0.94320 1.02305 0.21469
 N362 N 0.91765 1.01813 0.25067
 C363 C 0.95605 1.01812 0.13335
 C364 C 0.94406 1.00156 0.09130
 H365 H 0.81205 0.98968 0.27628
 H366 H 0.98711 1.03476 0.13807
 H367 H 0.89706 1.00547 0.33547
 H368 H 0.91288 0.98478 0.08825
 C369 C 0.83589 0.96804 -0.31801
 C370 C 0.85902 1.00111 -0.29611
 C371 C 0.87376 0.99651 -0.24820
 N372 N 0.89784 1.02876 -0.22917
 N373 N 0.91144 1.02522 -0.18590
 C374 C 0.90130 0.98936 -0.15992
 N375 N 0.87707 0.95717 -0.17889
 N376 N 0.86351 0.96068 -0.22220
 C377 C 0.91750 0.98427 -0.11251
 C378 C 0.94554 1.01472 -0.09302
 H379 H 0.86710 1.03130 -0.31405
 H380 H 0.90873 0.95495 -0.09368
 H381 H 0.83016 0.93750 -0.29921
 H382 H 0.95321 1.04402 -0.11278
 C383 C 1.32528 1.13759 0.01677
 C384 C 1.28128 1.15162 0.00277
 C385 C 1.24312 1.12310 0.00721
 N386 N 1.20216 1.13792 -0.01000
 N387 N 1.16669 1.11309 -0.00593
 C388 C 1.17085 1.07256 0.01562
 N389 N 1.21182 1.05769 0.03298
 N390 N 1.24741 1.08255 0.02883
 C391 C 1.13173 1.04534 0.02042
 C392 C 1.09043 1.05853 -0.00037
 H393 H 1.27336 1.18399 -0.01298
 H394 H 1.13593 1.01466 0.04033
 H395 H 1.33072 1.10337 0.02935
 H396 H 1.08815 1.08839 -0.02171
 C397 C 0.66346 1.13561 -0.00244
 C398 C 0.70364 1.14604 0.01927
 C399 C 0.74704 1.12363 0.00833
 N400 N 0.78531 1.13458 0.03045
 N401 N 0.82495 1.11475 0.02066
 C402 C 0.82775 1.08343 -0.01178
 N403 N 0.78952 1.07263 -0.03404
 N404 N 0.74987 1.09240 -0.02420
 C405 C 0.87084 1.05996 -0.02168
 C406 C 0.90953 1.06522 0.00476
 H407 H 0.70397 1.17259 0.04344
 H408 H 0.87084 1.03546 -0.04788
 H409 H 0.66441 1.11028 -0.02802
 H410 H 0.90833 1.08910 0.03165
 C411 C 1.33930 0.86934 -0.01624
 C412 C 1.30387 0.86900 0.01426
 C413 C 1.25838 0.88924 0.00307
 N414 N 1.22558 0.88726 0.03401
 N415 N 1.18403 0.90453 0.02447
 C416 C 1.17355 0.92431 -0.01651
 N417 N 1.20634 0.92630 -0.04750
 N418 N 1.24795 0.90903 -0.03794
 C419 C 1.12798 0.94462 -0.02701
 C420 C 1.09445 0.94603 0.00516
 H421 H 1.30801 0.85252 0.04701
 H422 H 1.12207 0.96052 -0.05979
 H423 H 1.33236 0.88730 -0.04813
 H424 H 1.10231 0.93029 0.03788
 C425 C 0.69996 0.82602 -0.02715
 C426 C 0.71472 0.86578 -0.00981
 C427 C 0.76214 0.87788 -0.01151
 N428 N 0.77397 0.91723 0.00573
 N429 N 0.81658 0.92883 0.00500
 C430 C 0.84921 0.90154 -0.01285
 N431 N 0.83744 0.86206 -0.03009
 N432 N 0.79469 0.85043 -0.02941
 C433 C 0.89634 0.91494 -0.01416
 C434 C 0.90743 0.95672 0.00116
 H435 H 0.69146 0.88848 0.00696
 H436 H 0.92174 0.89230 -0.02786
 H437 H 0.72451 0.80322 -0.04224
 H438 H 0.88093 0.97738 0.01577
 C439 C 0.82918 0.50142 0.36579
 C440 C 0.78636 0.48802 0.35293
 C441 C 0.74637 0.49581 0.38057
 N442 N 0.70695 0.47873 0.36728
 N443 N 0.66998 0.48573 0.39111
 C444 C 0.67088 0.51031 0.42909
 N445 N 0.71028 0.52767 0.44236
 N446 N 0.74740 0.52054 0.41853
 C447 C 0.63007 0.51754 0.45574
 C448 C 0.59161 0.49440 0.44631
 H449 H 0.78090 0.47077 0.32182
 H450 H 0.63104 0.53986 0.48392
 H451 H 0.83296 0.51600 0.39880
 H452 H 0.59235 0.47136 0.41869
 C453 C 0.17377 0.52136 0.34191
 C454 C 0.20946 0.48894 0.34714
 C455 C 0.25321 0.49843 0.36838
 N456 N 0.28459 0.46446 0.37682
 N457 N 0.32441 0.47218 0.39599
 C458 C 0.33450 0.51426 0.40724
 N459 N 0.30324 0.54833 0.39854
 N460 N 0.26330 0.54058 0.37949
 C461 C 0.37808 0.52306 0.42922
 C462 C 0.40848 0.48835 0.44386
 H463 H 0.20588 0.45505 0.33660
 H464 H 0.38538 0.55742 0.43463
 H465 H 0.17886 0.55407 0.35550
 H466 H 0.40018 0.45427 0.43751
 C467 C 0.83265 0.50342 0.64145
 C468 C 0.78904 0.50900 0.65810
 C469 C 0.74836 0.50102 0.63062
 N470 N 0.70727 0.51545 0.64518
 N471 N 0.66990 0.50778 0.62137
 C472 C 0.67219 0.48495 0.58230
 N473 N 0.71326 0.47017 0.56788
 N474 N 0.75070 0.47813 0.59154
 C475 C 0.63121 0.47656 0.55552
 C476 C 0.59054 0.50077 0.56183
 H477 H 0.78356 0.52108 0.69174
 H478 H 0.63424 0.45320 0.52836
 H479 H 0.83578 0.49641 0.60584
 H480 H 0.58925 0.52575 0.58764
 C481 C 0.18345 0.52262 0.65827
 C482 C 0.21749 0.48897 0.65389
 C483 C 0.26168 0.49795 0.63532
 N484 N 0.28814 0.46361 0.61985
 N485 N 0.32833 0.47086 0.60311
 C486 C 0.34387 0.51266 0.60165
 N487 N 0.31773 0.54698 0.61777
 N488 N 0.27726 0.53979 0.63415
 C489 C 0.38809 0.52063 0.58252
 C490 C 0.40696 0.49102 0.55175
 H491 H 0.21157 0.45446 0.66185
 H492 H 0.40451 0.55063 0.59137
 H493 H 0.18969 0.55563 0.64486
 H494 H 0.38689 0.46395 0.54101
 C495 C 0.52585 0.65165 0.17647
 C496 C 0.49086 0.63343 0.20036
 C497 C 0.49920 0.61244 0.24559
 N498 N 0.46429 0.60546 0.27316
 N499 N 0.47170 0.58681 0.31424
 C500 C 0.51430 0.57425 0.32910
 N501 N 0.54908 0.58081 0.30136
 N502 N 0.54171 0.59972 0.26049
 C503 C 0.52342 0.55248 0.37366
 C504 C 0.49143 0.55161 0.40723
 H505 H 0.45640 0.63658 0.18753
 H506 H 0.55658 0.53688 0.37942
 H507 H 0.55875 0.65110 0.19336
 H508 H 0.45874 0.56843 0.40036
 C509 C 0.49523 0.63578 0.82936
 C510 C 0.49152 0.65186 0.78452
 C511 C 0.49453 0.62218 0.74568
 N512 N 0.48424 0.63888 0.70342
 N513 N 0.48846 0.61301 0.66758
 C514 C 0.50349 0.56953 0.67268
 N515 N 0.51386 0.55284 0.71492
 N516 N 0.50941 0.57865 0.75080
 C517 C 0.50936 0.54075 0.63348
 C518 C 0.49388 0.55406 0.59011
 H519 H 0.48543 0.68711 0.77680
 H520 H 0.52666 0.50857 0.63954
 H521 H 0.49574 0.59989 0.83515
 H522 H 0.47752 0.58703 0.58511
 C523 C 0.47990 0.36625 0.17394
 C524 C 0.51652 0.37902 0.20028
 C525 C 0.50866 0.39927 0.24439
 N526 N 0.54009 0.39382 0.27852
 N527 N 0.53177 0.41002 0.31926
 C528 C 0.49178 0.43234 0.32715
 N529 N 0.46080 0.43846 0.29282
 N530 N 0.46894 0.42196 0.25230
 C531 C 0.48210 0.45164 0.37111
 C532 C 0.50769 0.44047 0.41025
 H533 H 0.55083 0.36978 0.19148
 H534 H 0.45464 0.47672 0.37172
 H535 H 0.44663 0.37161 0.18781
 H536 H 0.53449 0.41458 0.40910
 C537 C 0.47309 0.33785 0.82122
 C538 C 0.49879 0.37128 0.80329
 C539 C 0.49193 0.38622 0.75583
 N540 N 0.52484 0.40712 0.73421
 N541 N 0.51922 0.41964 0.69085
 C542 C 0.48042 0.41185 0.66764
 N543 N 0.44729 0.39156 0.68943
 N544 N 0.45304 0.37874 0.73266
 C545 C 0.47312 0.42692 0.62040
 C546 C 0.50856 0.44032 0.59453
 H547 H 0.52631 0.38448 0.82249
 H548 H 0.43905 0.42845 0.60675
 H549 H 0.44910 0.32317 0.79844
 H550 H 0.54268 0.43521 0.60823
 C551 C 0.65425 0.80696 0.46646
 C552 C 0.62180 0.78821 0.49334
 C553 C 0.60747 0.74245 0.48649
 N554 N 0.58270 0.72258 0.51825
 N555 N 0.57018 0.68094 0.51312
 C556 C 0.58184 0.65755 0.47599
 N557 N 0.60622 0.67756 0.44394
 N558 N 0.61897 0.71918 0.44918
 C559 C 0.56744 0.61173 0.46992
 C560 C 0.54827 0.58847 0.50514
 H561 H 0.60817 0.80570 0.52187
 H562 H 0.57120 0.59673 0.43731
 H563 H 0.66828 0.78646 0.43996
 H564 H 0.54689 0.60373 0.53789
 C565 C 0.63766 0.16060 0.51487
 C566 C 0.64458 0.20024 0.49054
 C567 C 0.62188 0.24355 0.50101
 N568 N 0.63247 0.28094 0.47777
 N569 N 0.61216 0.32048 0.48626
 C570 C 0.58048 0.32414 0.51840
 N571 N 0.56988 0.28676 0.54170
 N572 N 0.59025 0.24719 0.53325
 C573 C 0.55623 0.36717 0.52674
 C574 C 0.56432 0.40618 0.50231
 H575 H 0.66832 0.20093 0.46361
 H576 H 0.52928 0.36699 0.55053
 H577 H 0.61494 0.16265 0.54292
 H578 H 0.59122 0.40540 0.47834
 C579 C 0.36150 0.82869 0.48958
 C580 C 0.34320 0.78682 0.49467
 C581 C 0.37042 0.74481 0.49029
 N582 N 0.35373 0.70559 0.50395
 N583 N 0.37788 0.66715 0.50011
 C584 C 0.41947 0.66657 0.48210
 N585 N 0.43601 0.70572 0.46811
 N586 N 0.41197 0.74418 0.47219
 C587 C 0.44693 0.62477 0.47804
 C588 C 0.43602 0.58480 0.49893
 H589 H 0.30865 0.78380 0.50422
 H590 H 0.47732 0.62634 0.45908
 H591 H 0.39751 0.82939 0.48464
 H592 H 0.40487 0.58384 0.51687
 C593 C 0.37035 0.17028 0.48903
 C594 C 0.36953 0.20731 0.51710
 C595 C 0.39318 0.24810 0.50649
 N596 N 0.38817 0.28368 0.53376
 N597 N 0.40841 0.32127 0.52465
 C598 C 0.43451 0.32487 0.48788
 N599 N 0.43975 0.28920 0.46061
 N600 N 0.41939 0.25152 0.46970
 C601 C 0.45704 0.36658 0.47793
 C602 C 0.45105 0.40347 0.50548
 H603 H 0.34990 0.20805 0.54726
 H604 H 0.47934 0.36745 0.44975
 H605 H 0.39036 0.17200 0.45898
 H606 H 0.42932 0.40037 0.53388
   
