data_POSCAR
  _audit_creation_date              2014-09-24
  _audit_creation_method            'ToBaCCo'
  _symmetry_space_group_name_H-M    'P1'
  _symmetry_Int_Tables_number       1
  _symmetry_cell_setting            triclinic
  loop_
  _symmetry_equiv_pos_as_xyz
 x,y,z
_cell_length_a 14.1916
_cell_length_b 14.5221
_cell_length_c 37.6036
_cell_angle_alpha 92.165300
_cell_angle_beta 87.981500
_cell_angle_gamma 118.810400
loop_
  _atom_site_label
  _atom_site_type_symbol
  _atom_site_fract_x
  _atom_site_fract_y
  _atom_site_fract_z
C1 C -0.01592 0.02348 0.53235
 C2 C -0.11573 -0.05723 0.51149
 C3 C -0.09287 -0.11226 0.48521
 C4 C 0.02735 -0.08052 0.48255
 C5 C 0.03204 -0.04251 0.54587
 C6 C 0.05344 -0.09808 0.52014
 C7 C 0.06303 0.09251 0.50399
 C8 C 0.08435 0.03902 0.47761
 H9 H -0.19657 -0.07274 0.51817
 H10 H 0.05020 -0.12302 0.46196
 H11 H 0.02898 -0.05987 0.57382
 H12 H 0.09688 0.17705 0.50444
 C13 C 0.93654 -0.05289 0.21018
 C14 C 1.02038 -0.06676 0.18650
 C15 C 1.06644 0.00587 0.16029
 C16 C 1.02642 0.08746 0.16153
 C17 C 0.99376 0.05367 0.22423
 C18 C 1.04522 0.13119 0.19787
 C19 C 0.85756 -0.05265 0.18393
 C20 C 0.90258 0.01985 0.15803
 H21 H 1.04526 -0.12459 0.19139
 H22 H 1.06338 0.14849 0.14131
 H23 H 1.01410 0.07108 0.25211
 H24 H 0.77360 -0.10949 0.18567
 C25 C 0.08815 1.02877 0.85518
 C26 C 0.10396 1.13145 0.83864
 C27 C 0.02237 1.11672 0.81666
 C28 C -0.06531 1.00141 0.81297
 C29 C -0.02297 0.98194 0.87317
 C30 C -0.10289 0.96962 0.85152
 C31 C 0.07522 0.95659 0.82312
 C32 C -0.00349 0.94273 0.80093
 H33 H 0.17179 1.20800 0.84391
 H34 H -0.13160 0.98638 0.79487
 H35 H -0.03359 0.97776 0.90188
 H36 H 0.12341 0.91765 0.81879
 O37 O 0.55698 -0.06073 0.03473
 O38 O 0.36646 -0.05776 -0.02829
 O39 O 0.52704 -0.09155 -0.03436
 O40 O 0.36211 -0.07957 0.03991
 O41 O 0.45121 0.09385 0.04063
 O42 O 0.61972 0.08170 -0.03508
 O43 O 0.45941 0.11551 -0.02899
 O44 O 0.64960 0.11221 0.03362
 Cu45 Cu 0.44588 -0.08811 0.00367
 Cu46 Cu 0.55315 0.11721 0.00347
 C47 C 0.63670 0.02563 0.04479
 C48 C 0.38194 0.02983 -0.04003
 C49 C 0.59969 -0.00829 -0.04812
 C50 C 0.37600 0.00778 0.05269
 O51 O -0.08599 0.38407 0.70563
 O52 O -0.07397 0.52958 0.62465
 O53 O -0.10934 0.34096 0.63764
 O54 O -0.10880 0.55012 0.69326
 O55 O 0.06852 0.63787 0.69179
 O56 O 0.06753 0.41451 0.64003
 O57 O 0.10298 0.60322 0.62568
 O58 O 0.09101 0.47370 0.70727
 Cu59 Cu -0.11114 0.44438 0.66541
 Cu60 Cu 0.09896 0.53950 0.66644
 C61 C 0.00256 0.40406 0.71991
 C62 C 0.01862 0.59093 0.61120
 C63 C -0.02268 0.34014 0.62952
 C64 C -0.02192 0.63098 0.70129
 O65 O 0.55830 0.62829 0.31729
 O66 O 0.35168 0.40749 0.36950
 O67 O 0.52044 0.59000 0.38483
 O68 O 0.36009 0.47840 0.30567
 O69 O 0.43961 0.38239 0.29339
 O70 O 0.61486 0.50913 0.37061
 O71 O 0.44281 0.32175 0.35875
 O72 O 0.63404 0.52997 0.30251
 Cu73 Cu 0.43924 0.53372 0.34548
 Cu74 Cu 0.53946 0.42635 0.33068
 C75 C 0.63203 0.61577 0.30094
 C76 C 0.36358 0.32672 0.37321
 C77 C 0.59821 0.57343 0.39043
 C78 C 0.37036 0.41087 0.28612
 C79 C 0.04596 0.13895 0.58813
 C80 C -0.03189 0.08922 0.56177
 C81 C -0.11663 0.11404 0.56181
 C82 C -0.11592 0.19274 0.58509
 C83 C -0.02896 0.25072 0.60804
 C84 C 0.04718 0.21691 0.61063
 C85 C 0.16698 0.27578 0.61140
 C86 C 0.16604 0.18971 0.58674
 H87 H -0.17941 0.07895 0.54237
 H88 H -0.17955 0.21321 0.58325
 H89 H 0.19779 0.27697 0.63828
 H90 H 0.20131 0.35351 0.59864
 H91 H 0.19614 0.14132 0.59950
 H92 H 0.20110 0.21838 0.55993
 C93 C 0.82458 0.88614 0.26741
 C94 C 0.87766 0.86546 0.23843
 C95 C 0.85755 0.76057 0.23362
 C96 C 0.78061 0.68017 0.25496
 C97 C 0.71886 0.70153 0.28085
 C98 C 0.74796 0.80670 0.28808
 C99 C 0.68133 0.86039 0.29293
 C100 C 0.76557 0.94809 0.27033
 H101 H 0.89425 0.73813 0.21175
 H102 H 0.76429 0.60017 0.24939
 H103 H 0.67848 0.88518 0.32109
 H104 H 0.60192 0.81640 0.27997
 H105 H 0.81121 1.02322 0.28555
 H106 H 0.73423 0.95531 0.24452
 C107 C 0.25731 0.12682 -0.10686
 C108 C 0.17152 0.03310 -0.11976
 C109 C 0.16246 -0.06236 -0.10812
 C110 C 0.23207 -0.06339 -0.08285
 C111 C 0.31181 0.03109 -0.06779
 C112 C 0.32578 0.12557 -0.08141
 C113 C 0.33106 0.21912 -0.06181
 C114 C 0.25624 0.22052 -0.08941
 H115 H 0.09851 -0.13695 -0.11772
 H116 H 0.22055 -0.13849 -0.07421
 H117 H 0.41299 0.28817 -0.06307
 H118 H 0.29396 0.20033 -0.03467
 H119 H 0.29539 0.29092 -0.10633
 H120 H 0.17556 0.20246 -0.07838
 C121 C 0.14292 0.80855 0.54529
 C122 C 0.05270 0.80483 0.53016
 C123 C -0.04704 0.71292 0.53489
 C124 C -0.05813 0.63696 0.55939
 C125 C 0.03074 0.65176 0.57918
 C126 C 0.13217 0.73332 0.56908
 C127 C 0.22169 0.81264 0.59140
 C128 C 0.23351 0.89490 0.56524
 H129 H -0.11898 0.70637 0.52341
 H130 H -0.13755 0.57278 0.56522
 H131 H 0.29199 0.79841 0.59102
 H132 H 0.19373 0.82435 0.61835
 H133 H 0.31045 0.92760 0.54970
 H134 H 0.21332 0.95451 0.57723
 C135 C 0.23923 0.24012 0.20481
 C136 C 0.13402 0.22623 0.20805
 C137 C 0.11751 0.29452 0.23197
 C138 C 0.19928 0.36372 0.25490
 C139 C 0.29817 0.36290 0.25559
 C140 C 0.31886 0.30633 0.22835
 C141 C 0.36594 0.23461 0.23017
 C142 C 0.27932 0.16152 0.20486
 H143 H 0.03804 0.28719 0.23537
 H144 H 0.18021 0.40859 0.27474
 H145 H 0.35698 0.20093 0.25694
 H146 H 0.44826 0.26929 0.21816
 H147 H 0.22125 0.08617 0.21722
 H148 H 0.31337 0.15348 0.17867
 C149 C 0.80309 0.06568 -0.12396
 C150 C 0.80145 -0.02985 -0.13254
 C151 C 0.71752 -0.12188 -0.11809
 C152 C 0.64645 -0.11568 -0.09218
 C153 C 0.65996 -0.01698 -0.07975
 C154 C 0.73394 0.07185 -0.09814
 C155 C 0.81778 0.17620 -0.08436
 C156 C 0.89371 0.16983 -0.11261
 H157 H 0.71292 -0.19734 -0.12436
 H158 H 0.58721 -0.18743 -0.07984
 H159 H 0.84167 0.17314 -0.05676
 H160 H 0.79733 0.23962 -0.08898
 H161 H 0.96185 0.16391 -0.10128
 H162 H 0.91697 0.23000 -0.13330
 C163 C 0.21510 0.09442 0.11371
 C164 C 0.14680 0.00610 0.13357
 C165 C 0.15850 -0.08461 0.12619
 C166 C 0.23433 -0.08383 0.10039
 C167 C 0.30225 0.00795 0.08130
 C168 C 0.28995 0.09551 0.08970
 C169 C 0.32800 0.20533 0.07901
 C170 C 0.24460 0.20569 0.10615
 H171 H 0.10763 -0.15751 0.13945
 H172 H 0.23877 -0.15554 0.09522
 H173 H 0.30871 0.20989 0.05095
 H174 H 0.41264 0.25858 0.08663
 H175 H 0.17897 0.21242 0.09326
 H176 H 0.28128 0.25982 0.12932
 C177 C 0.85828 0.75817 0.43392
 C178 C 0.82566 0.79852 0.46352
 C179 C 0.71474 0.74663 0.47256
 C180 C 0.63975 0.66699 0.45004
 C181 C 0.67406 0.63521 0.41857
 C182 C 0.78449 0.67831 0.41216
 C183 C 0.84757 0.72689 0.37907
 C184 C 0.92826 0.81441 0.40268
 H185 H 0.68458 0.76963 0.49609
 H186 H 0.55472 0.63415 0.45626
 H187 H 0.80493 0.75348 0.36127
 H188 H 0.88000 0.67804 0.36581
 H189 H 0.93260 0.89179 0.39862
 H190 H 1.00732 0.81602 0.40254
 C191 C 0.10872 0.29201 0.78734
 C192 C 0.01607 0.20250 0.79852
 C193 C -0.08407 0.19386 0.78970
 C194 C -0.08957 0.26408 0.76598
 C195 C 0.00500 0.34439 0.75061
 C196 C 0.10337 0.36068 0.76382
 C197 C 0.20405 0.37691 0.74458
 C198 C 0.20974 0.30186 0.77042
 H199 H -0.15860 0.12969 0.79946
 H200 H -0.16768 0.25070 0.75783
 H201 H 0.27040 0.45891 0.74778
 H202 H 0.18961 0.34556 0.71669
 H203 H 0.27909 0.34079 0.78856
 H204 H 0.19849 0.22706 0.75757
 C205 C 0.74801 -0.06989 0.11546
 C206 C 0.83996 0.02149 0.12718
 C207 C 0.87386 0.11250 0.10687
 C208 C 0.81072 0.11393 0.07883
 C209 C 0.71327 0.02368 0.06999
 C210 C 0.68801 -0.06887 0.08732
 C211 C 0.58372 -0.14678 0.10351
 C212 C 0.64785 -0.14690 0.13481
 H213 H 0.94536 0.18462 0.11385
 H214 H 0.83569 0.18680 0.06527
 H215 H 0.54638 -0.22268 0.08826
 H216 H 0.52914 -0.11338 0.11021
 H217 H 0.64505 -0.22397 0.13811
 H218 H 0.62982 -0.11252 0.15935
 C219 C 0.11043 0.14595 0.42370
 C220 C 0.14481 0.09154 0.44524
 C221 C 0.24486 0.09744 0.43653
 C222 C 0.31455 0.16993 0.41117
 C223 C 0.28499 0.23760 0.39436
 C224 C 0.17846 0.21650 0.39898
 C225 C 0.12664 0.28447 0.40312
 C226 C 0.05071 0.20649 0.43035
 H227 H 0.27313 0.05356 0.45150
 H228 H 0.39449 0.17905 0.40707
 H229 H 0.08567 0.28496 0.37853
 H230 H 0.18087 0.36321 0.41498
 H231 H -0.03373 0.16216 0.42127
 H232 H 0.06050 0.24266 0.45738
 C233 C 0.05343 0.89921 0.74161
 C234 C -0.02491 0.87593 0.76867
 C235 C -0.11582 0.77547 0.76760
 C236 C -0.11769 0.69660 0.74403
 C237 C -0.02808 0.71701 0.72149
 C238 C 0.05162 0.82178 0.71869
 C239 C 0.17110 0.87363 0.71524
 C240 C 0.17371 0.95994 0.74027
 H241 H -0.17981 0.75469 0.78738
 H242 H -0.18480 0.61774 0.74577
 H243 H 0.20008 0.90096 0.68779
 H244 H 0.20522 0.82725 0.72703
 H245 H 0.20352 1.03645 0.72702
 H246 H 0.21243 0.96457 0.76586
   
