data_POSCAR
  _audit_creation_date              2014-09-24
  _audit_creation_method            'ToBaCCo'
  _symmetry_space_group_name_H-M    'P1'
  _symmetry_Int_Tables_number       1
  _symmetry_cell_setting            triclinic
  loop_
  _symmetry_equiv_pos_as_xyz
 x,y,z
_cell_length_a 49.8651
_cell_length_b 49.8287
_cell_length_c 23.4729
_cell_angle_alpha 89.884000
_cell_angle_beta 90.068000
_cell_angle_gamma 119.980800
loop_
  _atom_site_label
  _atom_site_type_symbol
  _atom_site_fract_x
  _atom_site_fract_y
  _atom_site_fract_z
C1 C 0.49977 0.99929 0.47255
 C2 C 0.49980 0.99921 0.53057
 C3 C 0.48443 0.96995 0.56395
 C4 C 0.51520 1.02838 0.56401
 C5 C 0.51357 1.02855 0.43919
 C6 C 0.48595 0.97013 0.43907
 C7 C 0.45284 0.94833 0.55655
 C8 C 0.43868 0.92116 0.58914
 C9 C 0.45593 0.91548 0.62973
 C10 C 0.48737 0.93711 0.63747
 C11 C 0.50149 0.96420 0.60491
 C12 C 0.49817 1.03405 0.60504
 C13 C 0.51232 1.06112 0.63752
 C14 C 0.54370 1.08274 0.62964
 C15 C 0.56093 1.07716 0.58910
 C16 C 0.54678 1.05004 0.55655
 C17 C 0.53630 1.03430 0.39817
 C18 C 0.54919 1.06142 0.36567
 C19 C 0.53937 1.08301 0.37353
 C20 C 0.51655 1.07736 0.41409
 C21 C 0.50360 1.05018 0.44666
 C22 C 0.49593 0.94847 0.44636
 C23 C 0.48303 0.92144 0.41356
 C24 C 0.46024 0.91595 0.37295
 C25 C 0.45040 0.93755 0.36530
 C26 C 0.46325 0.96453 0.39802
 H27 H 0.43916 0.95263 0.52592
 H28 H 0.41428 0.90479 0.58286
 H29 H 0.50104 0.93318 0.66883
 H30 H 0.52581 0.98069 0.61146
 H31 H 0.47386 1.01755 0.61166
 H32 H 0.49881 1.06513 0.66895
 H33 H 0.56046 1.04581 0.52588
 H34 H 0.54415 1.01782 0.39154
 H35 H 0.56672 1.06548 0.33422
 H36 H 0.50862 1.09381 0.42021
 H37 H 0.48567 1.04589 0.47732
 H38 H 0.51384 0.95265 0.47704
 H39 H 0.49097 0.90498 0.41952
 H40 H 0.43290 0.93362 0.33381
 H41 H 0.45540 0.98103 0.39153
 H42 H 0.58529 1.09364 0.58295
 C43 C -0.00042 0.49999 0.46915
 C44 C -0.00036 0.49999 0.52718
 C45 C 0.02887 0.51376 0.56049
 C46 C -0.02952 0.48623 0.56068
 C47 C -0.02965 0.48459 0.43583
 C48 C 0.02874 0.51539 0.43566
 C49 C 0.05046 0.50374 0.55301
 C50 C 0.07761 0.51668 0.58551
 C51 C 0.08329 0.53954 0.62600
 C52 C 0.06174 0.54939 0.63388
 C53 C 0.03464 0.53652 0.60146
 C54 C -0.03519 0.46351 0.60183
 C55 C -0.06219 0.45067 0.63449
 C56 C -0.08375 0.46054 0.62667
 C57 C -0.07819 0.48335 0.58597
 C58 C -0.05113 0.49624 0.55324
 C59 C -0.03537 0.50162 0.39473
 C60 C -0.06244 0.48746 0.36223
 C61 C -0.08404 0.45602 0.37016
 C62 C -0.07840 0.43879 0.41084
 C63 C -0.05126 0.45298 0.44339
 C64 C 0.05038 0.54700 0.44302
 C65 C 0.07747 0.56116 0.41038
 C66 C 0.08304 0.54392 0.36986
 C67 C 0.06145 0.51251 0.36209
 C68 C 0.03441 0.49835 0.39465
 H69 H 0.04615 0.48580 0.52239
 H70 H 0.09403 0.50872 0.57937
 H71 H 0.06582 0.56695 0.66528
 H72 H 0.01819 0.54439 0.60810
 H73 H -0.01873 0.45563 0.60844
 H74 H -0.06619 0.43316 0.66604
 H75 H -0.04690 0.51416 0.52248
 H76 H -0.01890 0.52595 0.38805
 H77 H -0.06641 0.50105 0.33075
 H78 H -0.09479 0.41439 0.41715
 H79 H -0.04698 0.43931 0.47411
 H80 H 0.04615 0.56068 0.47367
 H81 H 0.09393 0.58554 0.41644
 H82 H 0.06545 0.49899 0.33067
 H83 H 0.01792 0.47402 0.38811
 H84 H -0.09462 0.49131 0.57987
 C85 C 0.50012 0.50015 0.47291
 C86 C 0.50013 0.50017 0.53094
 C87 C 0.48635 0.51561 0.56422
 C88 C 0.51391 0.48474 0.56446
 C89 C 0.51553 0.48634 0.43961
 C90 C 0.48471 0.51395 0.43938
 C91 C 0.49633 0.54722 0.55661
 C92 C 0.48340 0.56144 0.58907
 C93 C 0.46056 0.54425 0.62971
 C94 C 0.45075 0.51281 0.63771
 C95 C 0.46363 0.49861 0.60530
 C96 C 0.53663 0.50176 0.60549
 C97 C 0.54952 0.48758 0.63812
 C98 C 0.53970 0.45614 0.63040
 C99 C 0.51686 0.43892 0.58981
 C100 C 0.50393 0.45312 0.55713
 C101 C 0.49852 0.46362 0.39859
 C102 C 0.51271 0.45077 0.36607
 C103 C 0.54411 0.46062 0.37389
 C104 C 0.56132 0.48342 0.41447
 C105 C 0.54713 0.49633 0.44707
 C106 C 0.45311 0.50396 0.44676
 C107 C 0.43892 0.51685 0.41395
 C108 C 0.45612 0.53964 0.37323
 C109 C 0.48753 0.54948 0.36548
 C110 C 0.50172 0.53665 0.39822
 H111 H 0.51425 0.56087 0.52590
 H112 H 0.49139 0.58585 0.58270
 H113 H 0.43321 0.49924 0.66916
 H114 H 0.45579 0.47428 0.61202
 H115 H 0.54448 0.52610 0.61200
 H116 H 0.56706 0.50117 0.66953
 H117 H 0.48601 0.43946 0.52646
 H118 H 0.47420 0.45577 0.39198
 H119 H 0.49922 0.43326 0.33461
 H120 H 0.58569 0.49137 0.42056
 H121 H 0.56079 0.51426 0.47772
 H122 H 0.43946 0.48605 0.47753
 H123 H 0.41455 0.50890 0.41999
 H124 H 0.50101 0.56698 0.33392
 H125 H 0.52604 0.54450 0.39165
 H126 H 0.50887 0.41452 0.58365
 O127 O 0.37912 0.66830 -0.06681
 O128 O 0.38042 0.72070 -0.04945
 C129 C 0.36112 0.72518 -0.07717
 O130 O 0.33234 0.71091 -0.06723
 O131 O 0.27996 0.65983 -0.04992
 C132 C 0.27555 0.63604 -0.07746
 O133 O 0.28980 0.62151 -0.06723
 O134 O 0.34081 0.62015 -0.04936
 C135 C 0.36463 0.63952 -0.07687
 O136 O 0.38024 0.65961 0.04648
 O137 O 0.37897 0.71070 0.06382
 C138 C 0.36448 0.72499 0.07382
 O139 O 0.34076 0.72065 0.04606
 O140 O 0.28966 0.66829 0.06337
 C141 C 0.27535 0.63950 0.07345
 O142 O 0.27978 0.62013 0.04594
 O143 O 0.33207 0.62135 0.06382
 C144 C 0.36082 0.63581 0.07407
 Cr145 Cr 0.37795 0.68896 -0.00150
 Cr146 Cr 0.31155 0.68905 -0.00193
 Cr147 Cr 0.31149 0.62252 -0.00171
 O148 O 0.33366 0.66685 -0.00172
 O149 O 0.62121 0.33211 -0.06472
 O150 O 0.61994 0.27972 -0.04708
 C151 C 0.63927 0.27527 -0.07468
 O152 O 0.66804 0.28955 -0.06469
 O153 O 0.72039 0.34064 -0.04747
 C154 C 0.72477 0.36443 -0.07516
 O155 O 0.71051 0.37894 -0.06506
 O156 O 0.65948 0.38026 -0.04738
 C157 C 0.63567 0.36089 -0.07489
 O158 O 0.62006 0.34071 0.04852
 O159 O 0.62135 0.28961 0.06614
 C160 C 0.63585 0.27532 0.07625
 O161 O 0.65960 0.27973 0.04860
 O162 O 0.71068 0.33210 0.06584
 C163 C 0.72498 0.36088 0.07580
 O164 O 0.72053 0.38026 0.04814
 O165 O 0.66821 0.37898 0.06583
 C166 C 0.63946 0.36450 0.07605
 Cr167 Cr 0.62238 0.31140 0.00071
 Cr168 Cr 0.68881 0.31138 0.00057
 Cr169 Cr 0.68881 0.37787 0.00039
 O170 O 0.66667 0.33355 0.00056
 C171 C 0.41790 0.84124 -0.27185
 N172 N 0.38978 0.83124 -0.24764
 N173 N 0.37817 0.80753 -0.21121
 C174 C 0.39432 0.79310 -0.19787
 N175 N 0.42240 0.80306 -0.22217
 N176 N 0.43402 0.82678 -0.25860
 C177 C 0.43112 0.86775 -0.30882
 C178 C 0.44276 0.89047 -0.33879
 C179 C 0.38246 0.76857 -0.15655
 C180 C 0.37267 0.74847 -0.12083
 C181 C 0.15989 0.57686 -0.27243
 N182 N 0.16983 0.55872 -0.24792
 N183 N 0.19348 0.57080 -0.21145
 C184 C 0.20790 0.60139 -0.19837
 N185 N 0.19799 0.61954 -0.22297
 N186 N 0.17435 0.60746 -0.25945
 C187 C 0.13346 0.56359 -0.30946
 C188 C 0.11081 0.55253 -0.33947
 C189 C 0.23235 0.61405 -0.15699
 C190 C 0.25237 0.62433 -0.12121
 C191 C 0.42398 0.58289 -0.27093
 N192 N 0.44217 0.61082 -0.24611
 N193 N 0.43008 0.62243 -0.20981
 C194 C 0.39944 0.60646 -0.19721
 N195 N 0.38124 0.57856 -0.22212
 N196 N 0.39333 0.56695 -0.25843
 C197 C 0.43723 0.56966 -0.30778
 C198 C 0.44828 0.55801 -0.33766
 C199 C 0.38675 0.61829 -0.15602
 C200 C 0.37642 0.62804 -0.12041
 C201 C 0.58278 0.15935 -0.26891
 N202 N 0.56648 0.17359 -0.25554
 N203 N 0.57802 0.19727 -0.21918
 C204 C 0.60620 0.20742 -0.19509
 N205 N 0.62252 0.19322 -0.20855
 N206 N 0.61098 0.16954 -0.24491
 C207 C 0.56967 0.13290 -0.30587
 C208 C 0.55815 0.11025 -0.33585
 C209 C 0.61799 0.23193 -0.15387
 C210 C 0.62774 0.25200 -0.11824
 C211 C 0.83998 0.42342 -0.27097
 N212 N 0.82545 0.39280 -0.25790
 N213 N 0.80191 0.38078 -0.22119
 C214 C 0.79220 0.39901 -0.19644
 N215 N 0.80670 0.42961 -0.20960
 N216 N 0.83024 0.44163 -0.24630
 C217 C 0.86629 0.43661 -0.30827
 C218 C 0.88884 0.44761 -0.33853
 C219 C 0.76785 0.38639 -0.15488
 C220 C 0.74790 0.37613 -0.11899
 C221 C 0.57630 0.41754 -0.26967
 N222 N 0.60694 0.43350 -0.25709
 N223 N 0.61904 0.42189 -0.22062
 C224 C 0.60085 0.39397 -0.19562
 N225 N 0.57022 0.37799 -0.20828
 N226 N 0.55812 0.38959 -0.24475
 C227 C 0.56305 0.43076 -0.30671
 C228 C 0.55200 0.44239 -0.33676
 C229 C 0.61355 0.38215 -0.15428
 C230 C 0.62388 0.37239 -0.11855
 C231 C 0.84083 0.41746 0.27042
 N232 N 0.82620 0.43348 0.25758
 N233 N 0.80254 0.42190 0.22114
 C234 C 0.79279 0.39394 0.19642
 N235 N 0.80737 0.37789 0.20934
 N236 N 0.83104 0.38948 0.24579
 C237 C 0.86727 0.43066 0.30741
 C238 C 0.88993 0.44228 0.33741
 C239 C 0.76830 0.38213 0.15511
 C240 C 0.74824 0.37237 0.11941
 C241 C 0.57670 0.15961 0.27163
 N242 N 0.55861 0.16964 0.24725
 N243 N 0.57069 0.19328 0.21066
 C244 C 0.60122 0.20761 0.19733
 N245 N 0.61933 0.19762 0.22179
 N246 N 0.60725 0.17398 0.25838
 C247 C 0.56344 0.13319 0.30878
 C248 C 0.55237 0.11054 0.33890
 C249 C 0.61388 0.23206 0.15586
 C250 C 0.62415 0.25210 0.12003
 C251 C 0.58329 0.42351 0.27172
 N252 N 0.56731 0.39287 0.25902
 N253 N 0.57881 0.38085 0.22234
 C254 C 0.60665 0.39910 0.19723
 N255 N 0.62266 0.42973 0.21001
 N256 N 0.61116 0.44175 0.24669
 C257 C 0.57017 0.43670 0.30897
 C258 C 0.55862 0.44770 0.33918
 C259 C 0.61837 0.38648 0.15569
 C260 C 0.62805 0.37622 0.11983
 C261 C 0.15954 0.58305 0.26806
 N262 N 0.17396 0.56688 0.25510
 N263 N 0.19761 0.57842 0.21863
 C264 C 0.20754 0.60647 0.19402
 N265 N 0.19315 0.62267 0.20706
 N266 N 0.16950 0.61113 0.24353
 C267 C 0.13313 0.56992 0.30513
 C268 C 0.11052 0.55838 0.33522
 C269 C 0.23201 0.61826 0.15271
 C270 C 0.25208 0.62800 0.11704
 C271 C 0.42320 0.83989 0.27014
 N272 N 0.39267 0.82554 0.25671
 N273 N 0.38069 0.80209 0.21985
 C274 C 0.39888 0.79228 0.19529
 N275 N 0.42940 0.80659 0.20881
 N276 N 0.44138 0.83005 0.24567
 C277 C 0.43636 0.86612 0.30762
 C278 C 0.44734 0.88860 0.33801
 C279 C 0.38632 0.76801 0.15362
 C280 C 0.37612 0.74810 0.11767
 C281 C 0.41694 0.57672 0.27048
 N282 N 0.43284 0.60739 0.25785
 N283 N 0.42135 0.61942 0.22100
 C284 C 0.39359 0.60114 0.19566
 N285 N 0.37766 0.57048 0.20838
 N286 N 0.38915 0.55845 0.24523
 C287 C 0.43006 0.56354 0.30794
 C288 C 0.44162 0.55255 0.33831
 C289 C 0.38188 0.61377 0.15396
 C290 C 0.37221 0.62406 0.11798
   
