data_POSCAR
  _audit_creation_date              2014-09-24
  _audit_creation_method            'ToBaCCo'
  _symmetry_space_group_name_H-M    'P1'
  _symmetry_Int_Tables_number       1
  _symmetry_cell_setting            triclinic
  loop_
  _symmetry_equiv_pos_as_xyz
 x,y,z
_cell_length_a 36.8035
_cell_length_b 36.7865
_cell_length_c 41.1231
_cell_angle_alpha 90.083800
_cell_angle_beta 89.957100
_cell_angle_gamma 120.067200
loop_
  _atom_site_label
  _atom_site_type_symbol
  _atom_site_fract_x
  _atom_site_fract_y
  _atom_site_fract_z
O1 O 0.04020 0.55019 1.28126
 O2 O -0.04142 0.50932 1.21770
 O3 O -0.04151 0.50948 1.28105
 O4 O 0.04029 0.55045 1.21791
 O5 O 0.04028 0.49031 1.21780
 O6 O -0.04158 0.44932 1.28099
 O7 O -0.04143 0.44921 1.21764
 O8 O 0.04013 0.49003 1.28115
 Cu9 Cu -0.00061 0.53593 1.24949
 Cu10 Cu -0.00066 0.46364 1.24938
 C11 C 0.05389 0.52697 1.29196
 C12 C -0.05516 0.47237 1.20690
 C13 C -0.05530 0.47253 1.29172
 C14 C 0.05405 0.52729 1.20717
 O15 O 0.44914 0.49093 1.28236
 O16 O 0.49018 0.45020 1.21881
 O17 O 0.48979 0.44988 1.28217
 O18 O 0.44901 0.49071 1.21898
 O19 O 0.50911 0.55095 1.21905
 O20 O 0.54993 0.51008 1.28232
 O21 O 0.55027 0.51043 1.21895
 O22 O 0.50926 0.55112 1.28244
 Cu23 Cu 0.46346 0.46436 1.25058
 Cu24 Cu 0.53570 0.53672 1.25070
 C25 C 0.47231 0.52790 1.29316
 C26 C 0.52715 0.47348 1.20813
 C27 C 0.52671 0.47308 1.29293
 C28 C 0.47218 0.52768 1.20830
 O29 O 0.50902 0.95896 1.28294
 O30 O 0.55012 1.04068 1.21945
 O31 O 0.55030 1.04077 1.28282
 O32 O 0.50926 0.95892 1.21956
 O33 O 0.44921 0.95900 1.21952
 O34 O 0.49028 1.04090 1.28284
 O35 O 0.49008 1.04076 1.21946
 O36 O 0.44901 0.95910 1.28291
 Cu37 Cu 0.53573 0.99982 1.25120
 Cu38 Cu 0.46359 0.99995 1.25119
 C39 C 0.47207 0.94526 1.29367
 C40 C 0.52699 1.05446 1.20870
 C41 C 0.52722 1.05464 1.29354
 C42 C 0.47236 0.94521 1.20881
 O43 O 0.95980 0.50975 0.71770
 O44 O 1.04172 0.55076 0.78092
 O45 O 1.04157 0.55095 0.71753
 O46 O 0.95998 0.51005 0.78108
 O47 O 0.95992 0.44991 0.78102
 O48 O 1.04158 0.49084 0.71740
 O49 O 1.04166 0.49061 0.78079
 O50 O 0.95981 0.44964 0.71763
 Cu51 Cu 1.00077 0.53644 0.74931
 Cu52 Cu 1.00074 0.46419 0.74920
 C53 C 0.94602 0.47277 0.70697
 C54 C 1.05545 0.52756 0.79157
 C55 C 1.05533 0.52781 0.70670
 C56 C 0.94621 0.47311 0.79183
 O57 O 0.49041 0.44946 0.71838
 O58 O 0.44979 0.49062 0.78169
 O59 O 0.44955 0.49026 0.71833
 O60 O 0.49024 0.44941 0.78174
 O61 O 0.55048 0.50950 0.78174
 O62 O 0.50977 0.55038 0.71827
 O63 O 0.51005 0.55071 0.78163
 O64 O 0.55063 0.50958 0.71838
 Cu65 Cu 0.46392 0.46387 0.75004
 Cu66 Cu 0.53631 0.53611 0.75000
 C67 C 0.52737 0.47262 0.70767
 C68 C 0.47311 0.52760 0.79237
 C69 C 0.47279 0.52718 0.70755
 C70 C 0.52719 0.47256 0.79248
 O71 O 0.55038 0.04031 0.71777
 O72 O 0.50978 -0.04143 0.78102
 O73 O 0.50984 -0.04145 0.71765
 O74 O 0.55070 0.04031 0.78113
 O75 O 0.49052 0.04013 0.78129
 O76 O 0.44964 -0.04168 0.71775
 O77 O 0.44959 -0.04160 0.78112
 O78 O 0.49017 0.04008 0.71793
 Cu79 Cu 0.53625 -0.00055 0.74938
 Cu80 Cu 0.46391 -0.00079 0.74953
 C81 C 0.52709 0.05395 0.70716
 C82 C 0.47285 -0.05524 0.79179
 C83 C 0.47288 -0.05533 0.70693
 C84 C 0.52750 0.05397 0.79198
 O85 O 0.39532 0.66901 0.96305
 O86 O 0.39709 0.73987 0.97294
 C87 C 0.37089 0.74555 0.95690
 O88 O 0.33192 0.72658 0.96278
 O89 O 0.26094 0.65745 0.97244
 C90 C 0.25527 0.62543 0.95651
 O91 O 0.27419 0.60546 0.96257
 O92 O 0.34321 0.60371 0.97273
 C93 C 0.37534 0.63006 0.95695
 O94 O 0.39670 0.65747 1.02775
 O95 O 0.39488 0.72655 1.03764
 C96 C 0.37489 0.74550 1.04357
 O97 O 0.34299 0.73979 1.02752
 O98 O 0.27382 0.66884 1.03717
 C99 C 0.25482 0.62987 1.04311
 O100 O 0.26060 0.60359 1.02722
 O101 O 0.33139 0.60538 1.03739
 C102 C 0.37029 0.62538 1.04355
 Cr103 Cr 0.39366 0.69706 1.00034
 Cr104 Cr 0.30359 0.69700 0.99998
 Cr105 Cr 0.30352 0.60687 0.99998
 O106 O 0.33359 0.66697 1.00011
 O107 O 0.60534 0.33150 0.96323
 O108 O 0.60360 0.26056 0.97279
 C109 C 0.62981 0.25454 0.95701
 O110 O 0.66872 0.27336 0.96313
 O111 O 0.73974 0.34267 0.97258
 C112 C 0.74577 0.37491 0.95686
 O113 O 0.72702 0.39504 0.96305
 O114 O 0.65780 0.39672 0.97268
 C115 C 0.62548 0.37040 0.95702
 O116 O 0.60377 0.34272 1.02804
 O117 O 0.60548 0.27350 1.03761
 C118 C 0.62560 0.25474 1.04374
 O119 O 0.65781 0.26074 1.02796
 O120 O 0.72710 0.33179 1.03741
 C121 C 0.74589 0.37073 1.04356
 O122 O 0.73986 0.39694 1.02786
 O123 O 0.66895 0.39522 1.03749
 C124 C 0.63005 0.37508 1.04370
 Cr125 Cr 0.60694 0.30327 1.00041
 Cr126 Cr 0.69715 0.30333 1.00027
 Cr127 Cr 0.69721 0.39359 1.00027
 O128 O 0.66710 0.33340 1.00033
 O129 O 0.66827 0.39433 0.53713
 O130 O 0.73915 0.39622 0.52712
 C131 C 0.74490 0.36993 0.54297
 O132 O 0.72587 0.33097 0.53692
 O133 O 0.65673 0.26005 0.52697
 C134 C 0.62468 0.25427 0.54286
 O135 O 0.60470 0.27320 0.53688
 O136 O 0.60301 0.34234 0.52712
 C137 C 0.62932 0.37434 0.54310
 O138 O 0.65681 0.39624 0.47248
 O139 O 0.72586 0.39447 0.46246
 C140 C 0.74477 0.37448 0.45638
 O141 O 0.73904 0.34244 0.47223
 O142 O 0.66815 0.27326 0.46229
 C143 C 0.62921 0.25427 0.45627
 O144 O 0.60294 0.26004 0.47217
 O145 O 0.60482 0.33098 0.46240
 C146 C 0.62478 0.36996 0.45652
 Cr147 Cr 0.69635 0.39298 0.49979
 Cr148 Cr 0.69628 0.30285 0.49960
 Cr149 Cr 0.60620 0.30281 0.49964
 O150 O 0.66628 0.33287 0.49968
 O151 O 0.33158 0.60527 0.53699
 O152 O 0.26059 0.60347 0.52761
 C153 C 0.25460 0.62971 0.54339
 O154 O 0.27342 0.66864 0.53727
 O155 O 0.34269 0.73964 0.52769
 C156 C 0.37503 0.74570 0.54329
 O157 O 0.39514 0.72696 0.53698
 O158 O 0.39672 0.65767 0.52730
 C159 C 0.37051 0.62543 0.54306
 O160 O 0.34242 0.60346 0.47215
 O161 O 0.27320 0.60517 0.46277
 C162 C 0.25446 0.62532 0.45668
 O163 O 0.26054 0.65760 0.47245
 O164 O 0.33149 0.72693 0.46287
 C165 C 0.37037 0.74571 0.45661
 O166 O 0.39664 0.73964 0.47219
 O167 O 0.39480 0.66863 0.46251
 C168 C 0.37465 0.62969 0.45637
 Cr169 Cr 0.30314 0.60674 0.49988
 Cr170 Cr 0.30323 0.69700 0.50006
 Cr171 Cr 0.39343 0.69703 0.49975
 O172 O 0.33327 0.66693 0.49990
 C173 C 0.45739 0.54288 0.31674
 C174 C 0.44435 0.55624 0.33779
 C175 C 0.42932 0.57194 0.36258
 C176 C 0.41664 0.58532 0.38387
 C177 C 0.40193 0.60093 0.40897
 C178 C 0.38945 0.61414 0.43053
 C179 C 0.45698 0.91537 0.31722
 C180 C 0.44355 0.88897 0.33825
 C181 C 0.42784 0.85824 0.36301
 C182 C 0.41448 0.83216 0.38426
 C183 C 0.39893 0.80182 0.40931
 C184 C 0.38580 0.77610 0.43083
 C185 C 0.08540 0.54266 0.31691
 C186 C 0.11170 0.55564 0.33800
 C187 C 0.14230 0.57062 0.36285
 C188 C 0.16827 0.58328 0.38418
 C189 C 0.19849 0.59798 0.40931
 C190 C 0.22413 0.61048 0.43088
 C191 C 0.54241 0.45716 0.31769
 C192 C 0.55536 0.44370 0.33861
 C193 C 0.57030 0.42790 0.36325
 C194 C 0.58290 0.41443 0.38442
 C195 C 0.59754 0.39875 0.40937
 C196 C 0.60999 0.38550 0.43082
 C197 C 0.54232 0.08460 0.31701
 C198 C 0.55577 0.11106 0.33798
 C199 C 0.57153 0.14184 0.36268
 C200 C 0.58494 0.16793 0.38392
 C201 C 0.60055 0.19825 0.40895
 C202 C 0.61374 0.22395 0.43048
 C203 C 0.91317 0.45681 0.31656
 C204 C 0.88688 0.44385 0.33760
 C205 C 0.85635 0.42891 0.36241
 C206 C 0.83048 0.41631 0.38376
 C207 C 0.80042 0.40169 0.40891
 C208 C 0.77491 0.38926 0.43053
 C209 C 0.54311 0.45782 1.18322
 C210 C 0.55658 0.44489 1.16218
 C211 C 0.57236 0.42993 1.13740
 C212 C 0.58580 0.41728 1.11613
 C213 C 0.60142 0.40256 1.09105
 C214 C 0.61460 0.39002 1.06951
 C215 C 0.91502 0.45738 1.18330
 C216 C 0.88870 0.44402 1.16221
 C217 C 0.85808 0.42836 1.13738
 C218 C 0.83210 0.41502 1.11606
 C219 C 0.80187 0.39946 1.09094
 C220 C 0.77622 0.38627 1.06937
 C221 C 0.54277 0.08596 1.18374
 C222 C 0.55580 0.11224 1.16263
 C223 C 0.57085 0.14281 1.13775
 C224 C 0.58355 0.16873 1.11639
 C225 C 0.59829 0.19890 1.09121
 C226 C 0.61079 0.22449 1.06960
 C227 C 0.45636 0.54333 1.18344
 C228 C 0.44301 0.55622 1.16239
 C229 C 0.42737 0.57108 1.13757
 C230 C 0.41408 0.58362 1.11622
 C231 C 0.39862 0.59818 1.09105
 C232 C 0.38557 0.61059 1.06943
 C233 C 0.08563 0.54319 1.18237
 C234 C 0.11200 0.55660 1.16138
 C235 C 0.14264 0.57230 1.13665
 C236 C 0.16863 0.58566 1.11539
 C237 C 0.19885 0.60122 1.09035
 C238 C 0.22450 0.61439 1.06884
 C239 C 0.45665 0.91370 1.18388
 C240 C 0.44371 0.88745 1.16275
 C241 C 0.42883 0.85697 1.13784
 C242 C 0.41631 0.83114 1.11641
 C243 C 0.40180 0.80111 1.09117
 C244 C 0.38949 0.77563 1.06949
 C245 C 0.54313 0.45683 0.68283
 C246 C 0.55643 0.44381 0.66179
 C247 C 0.57201 0.42880 0.63700
 C248 C 0.58530 0.41616 0.61568
 C249 C 0.60078 0.40151 0.59055
 C250 C 0.61389 0.38908 0.56895
 C251 C 0.54267 0.08549 0.68234
 C252 C 0.55554 0.11181 0.66133
 C253 C 0.57038 0.14240 0.63657
 C254 C 0.58291 0.16833 0.61528
 C255 C 0.59749 0.19848 0.59020
 C256 C 0.60989 0.22405 0.56865
 C257 C 0.91437 0.45684 0.68218
 C258 C 0.88795 0.44339 0.66122
 C259 C 0.85722 0.42763 0.63651
 C260 C 0.83117 0.41421 0.61528
 C261 C 0.80088 0.39860 0.59025
 C262 C 0.77521 0.38540 0.56873
 C263 C 0.45699 0.54288 0.68264
 C264 C 0.44367 0.55585 0.66158
 C265 C 0.42805 0.57084 0.63677
 C266 C 0.41473 0.58348 0.61547
 C267 C 0.39920 0.59817 0.59038
 C268 C 0.38603 0.61063 0.56884
 C269 C 0.45802 0.91481 0.68331
 C270 C 0.44502 0.88847 0.66220
 C271 C 0.43000 0.85784 0.63733
 C272 C 0.41730 0.83186 0.61596
 C273 C 0.40253 0.80164 0.59078
 C274 C 0.38997 0.77601 0.56917
 C275 C 0.08519 0.54285 0.68310
 C276 C 0.11156 0.55626 0.66203
 C277 C 0.14226 0.57199 0.63721
 C278 C 0.16829 0.58539 0.61591
 C279 C 0.19859 0.60100 0.59080
 C280 C 0.22427 0.61420 0.56923
 C281 C 0.45753 0.54355 0.81724
 C282 C 0.44466 0.55698 0.83829
 C283 C 0.42981 0.57269 0.86310
 C284 C 0.41726 0.58605 0.88443
 C285 C 0.40265 0.60157 0.90956
 C286 C 0.39020 0.61468 0.93114
 C287 C 0.08700 0.54326 0.81643
 C288 C 0.11329 0.55620 0.83750
 C289 C 0.14382 0.57110 0.86235
 C290 C 0.16968 0.58367 0.88372
 C291 C 0.19972 0.59826 0.90892
 C292 C 0.22519 0.61067 0.93058
 C293 C 0.45715 0.91334 0.81671
 C294 C 0.44390 0.88717 0.83783
 C295 C 0.42837 0.85678 0.86274
 C296 C 0.41511 0.83103 0.88416
 C297 C 0.39962 0.80109 0.90939
 C298 C 0.38645 0.77566 0.93104
 C299 C 0.54284 0.45670 0.81739
 C300 C 0.55578 0.44333 0.83844
 C301 C 0.57074 0.42769 0.86325
 C302 C 0.58338 0.41438 0.88455
 C303 C 0.59809 0.39888 0.90965
 C304 C 0.61060 0.38578 0.93121
 C305 C 0.91470 0.45741 0.81681
 C306 C 0.88841 0.44445 0.83793
 C307 C 0.85781 0.42948 0.86282
 C308 C 0.83187 0.41685 0.88419
 C309 C 0.80166 0.40218 0.90937
 C310 C 0.77605 0.38972 0.93098
 C311 C 0.54334 0.08551 0.81695
 C312 C 0.55667 0.11182 0.83808
 C313 C 0.57230 0.14242 0.86298
 C314 C 0.58560 0.16837 0.88436
 C315 C 0.60112 0.19858 0.90955
 C316 C 0.61429 0.22421 0.93116
   
