data_POSCAR
  _audit_creation_date              2014-09-24
  _audit_creation_method            'ToBaCCo'
  _symmetry_space_group_name_H-M    'P1'
  _symmetry_Int_Tables_number       1
  _symmetry_cell_setting            triclinic
  loop_
  _symmetry_equiv_pos_as_xyz
 x,y,z
_cell_length_a 24.8615
_cell_length_b 24.2578
_cell_length_c 20.0013
_cell_angle_alpha 89.833200
_cell_angle_beta 90.861800
_cell_angle_gamma 91.092900
loop_
  _atom_site_label
  _atom_site_type_symbol
  _atom_site_fract_x
  _atom_site_fract_y
  _atom_site_fract_z
C1 C 1.24045 0.24212 0.24504
 C2 C 0.76561 -0.23658 0.26067
 C3 C 0.75988 0.25636 -0.24556
 C4 C 1.23448 -0.24557 -0.23971
 C5 C 0.24662 0.25412 0.74058
 C6 C 0.76955 0.75474 0.74668
 C7 C 0.76424 0.24615 0.24310
 C8 C 0.25122 0.74996 0.24708
 O9 O 1.12018 -0.05297 0.11262
 O10 O 1.06448 -0.12020 0.06652
 C11 C 1.10706 -0.10394 0.10043
 O12 O 0.91375 0.09395 0.10607
 O13 O 0.96155 0.15527 0.04227
 C14 C 0.92203 0.14266 0.08112
 O15 O 0.91938 -0.05538 0.13434
 O16 O 0.96269 -0.12173 0.07505
 C17 C 0.92622 -0.10603 0.11695
 O18 O 1.12098 0.09892 0.09064
 O19 O 1.06270 0.15708 0.03704
 C20 C 1.10617 0.14752 0.07150
 Zr21 Zr 1.08424 0.02062 0.07927
 O22 O 1.08918 0.02848 0.18452
 O23 O 1.16923 0.02165 0.07295
 Zr24 Zr 0.95282 0.01841 0.09572
 O25 O 0.97864 0.02987 0.19609
 O26 O 0.87427 0.02165 0.13441
 O27 O 1.01962 -0.03102 0.10538
 O28 O 1.01890 0.07051 0.09460
 O29 O 1.09785 0.08341 -0.12936
 O30 O 1.05217 0.14849 -0.07048
 C31 C 1.08549 0.13374 -0.11567
 O32 O 0.90304 -0.06927 -0.09841
 O33 O 0.95646 -0.12838 -0.03840
 C34 C 0.91534 -0.11776 -0.07811
 O35 O 0.89983 0.07713 -0.10308
 O36 O 0.95674 0.14539 -0.06304
 C37 C 0.91499 0.12781 -0.09693
 O38 O 1.10030 -0.06822 -0.11416
 O39 O 1.05856 -0.12680 -0.04045
 C40 C 1.09454 -0.11592 -0.08537
 Zr41 Zr 1.06956 0.00886 -0.08833
 O42 O 1.05523 0.00488 -0.19291
 O43 O 1.15367 0.00931 -0.10190
 Zr44 Zr 0.93803 0.00618 -0.07354
 O45 O 0.93712 0.00340 -0.17947
 O46 O 0.85306 0.00443 -0.07120
 Zr47 Zr 1.01050 -0.07027 0.01135
 Zr48 Zr 1.00974 0.09663 -0.00527
 O49 O 1.00233 0.05580 -0.09752
 O50 O 1.00306 -0.04446 -0.08900
 O51 O 1.08715 0.06352 -0.01089
 O52 O 0.93489 -0.03402 0.01640
 O53 O 1.08645 -0.03143 -0.00072
 O54 O 0.93363 0.05908 0.00704
 H55 H 1.02111 0.10010 0.12856
 H56 H 0.90165 -0.05625 0.01893
 H57 H 0.99929 0.07800 -0.13863
 H58 H 1.12088 -0.05062 -0.00228
 H59 H 0.87773 0.02806 0.18328
 H60 H 0.84316 0.01202 -0.02439
 H61 H 0.94943 -0.03329 -0.19359
 H62 H 1.04489 -0.03364 -0.20413
 H63 H 1.17033 0.02472 -0.06059
 H64 H 1.18385 0.02545 0.11920
 H65 H 1.07757 -0.00710 0.20452
 H66 H 0.97206 -0.00547 0.21972
 O67 O 1.10674 0.43230 0.59996
 O68 O 1.05277 0.36795 0.54550
 C69 C 1.09299 0.38225 0.58490
 O70 O 0.91613 0.58286 0.61114
 O71 O 0.95613 0.64451 0.54066
 C72 C 0.92134 0.63168 0.58639
 O73 O 0.90692 0.43712 0.61423
 O74 O 0.94822 0.37141 0.55152
 C75 C 0.91189 0.38741 0.59396
 O76 O 1.11315 0.58311 0.59064
 O77 O 1.05818 0.64445 0.53624
 C78 C 1.09849 0.63247 0.57533
 Zr79 Zr 1.07666 0.50691 0.56584
 O80 O 1.08351 0.50518 0.67167
 O81 O 1.16083 0.50599 0.55174
 Zr82 Zr 0.94499 0.50789 0.57982
 O83 O 0.96693 0.50995 0.68263
 O84 O 0.86297 0.51079 0.60432
 O85 O 1.01018 0.45633 0.58761
 O86 O 1.01246 0.55728 0.58374
 O87 O 1.09702 0.57930 0.36835
 O88 O 1.04960 0.64347 0.42575
 C89 C 1.08582 0.62966 0.38342
 O90 O 0.89759 0.42954 0.38005
 O91 O 0.94780 0.36704 0.43965
 C92 C 0.90783 0.38009 0.40024
 O93 O 0.89864 0.57971 0.38133
 O94 O 0.95153 0.64246 0.43804
 C95 C 0.91047 0.62921 0.40060
 O96 O 1.08490 0.42733 0.36167
 O97 O 1.04420 0.36544 0.43246
 C98 C 1.07629 0.37768 0.38353
 Zr99 Zr 1.06318 0.50413 0.39837
 O100 O 1.05189 0.50966 0.29335
 O101 O 1.14703 0.49892 0.38411
 Zr102 Zr 0.93220 0.50517 0.40934
 O103 O 0.93641 0.50412 0.30393
 O104 O 0.84742 0.50763 0.40433
 Zr105 Zr 1.00102 0.42198 0.49136
 Zr106 Zr 1.00491 0.58918 0.48662
 O107 O 0.99788 0.55438 0.39062
 O108 O 0.99538 0.45332 0.39273
 O109 O 1.08161 0.55440 0.47984
 O110 O 0.92657 0.46089 0.49626
 O111 O 1.07856 0.45767 0.48244
 O112 O 0.92767 0.55388 0.49463
 H113 H 1.01502 0.58350 0.62147
 H114 H 0.89221 0.44048 0.49705
 H115 H 0.99562 0.57949 0.35150
 H116 H 1.11096 0.43490 0.47929
 H117 H 0.84369 0.52249 0.56315
 H118 H 0.83537 0.51754 0.44957
 H119 H 0.89878 0.50578 0.28714
 H120 H 1.03246 0.47581 0.27832
 H121 H 1.16478 0.51400 0.42488
 H122 H 1.17793 0.50390 0.59668
 H123 H 1.07496 0.54202 0.68923
 H124 H 0.96967 0.47144 0.69870
 O125 O 0.57845 0.09960 0.62589
 O126 O 0.63979 0.05586 0.56036
 C127 C 0.62693 0.09046 0.60753
 O128 O 0.43483 -0.10720 0.61435
 O129 O 0.37107 -0.05457 0.56273
 C130 C 0.38501 -0.09591 0.60133
 O131 O 0.58206 -0.09910 0.61484
 O132 O 0.64181 -0.04512 0.55538
 C133 C 0.63055 -0.08529 0.59729
 O134 O 0.43383 0.10327 0.61890
 O135 O 0.37015 0.05202 0.56110
 C136 C 0.38444 0.09159 0.60260
 Zr137 Zr 0.50547 0.06792 0.58887
 O138 O 0.50571 0.05275 0.69298
 O139 O 0.50658 0.15415 0.60475
 Zr140 Zr 0.50672 -0.06821 0.58332
 O141 O 0.50502 -0.06460 0.68909
 O142 O 0.51209 -0.15521 0.58466
 O143 O 0.55613 0.00102 0.59781
 O144 O 0.45758 -0.00178 0.59940
 O145 O 0.42642 0.10562 0.39123
 O146 O 0.36589 0.05044 0.44716
 C147 C 0.37782 0.09136 0.40644
 O148 O 0.57330 -0.09024 0.37526
 O149 O 0.63699 -0.04196 0.43711
 C150 C 0.62240 -0.07832 0.39180
 O151 O 0.42958 -0.09976 0.38684
 O152 O 0.36706 -0.05515 0.44894
 C153 C 0.38098 -0.09341 0.40659
 O154 O 0.57122 0.10190 0.37646
 O155 O 0.63607 0.05540 0.43581
 C156 C 0.62076 0.08973 0.38876
 Zr157 Zr 0.50048 0.07434 0.42194
 O158 O 0.49464 0.08555 0.31712
 O159 O 0.50566 0.16111 0.43398
 Zr160 Zr 0.50185 -0.06184 0.41480
 O161 O 0.49338 -0.04993 0.31018
 O162 O 0.50870 -0.14726 0.39811
 Zr163 Zr 0.58632 0.00534 0.49970
 Zr164 Zr 0.42086 -0.00008 0.50391
 O165 O 0.45238 0.00466 0.40706
 O166 O 0.54968 0.00792 0.40378
 O167 O 0.45465 0.08039 0.50693
 O168 O 0.55067 -0.07381 0.49734
 O169 O 0.55067 0.08311 0.50420
 O170 O 0.45671 -0.07821 0.49968
 H171 H 0.43357 -0.00307 0.63854
 H172 H 0.57319 -0.10659 0.49503
 H173 H 0.42618 0.00398 0.36924
 H174 H 0.57458 0.11624 0.50350
 H175 H 0.48838 -0.16967 0.54834
 H176 H 0.51471 -0.16494 0.44205
 H177 H 0.52712 -0.03260 0.29384
 H178 H 0.47790 0.05200 0.29747
 H179 H 0.47411 0.17276 0.45968
 H180 H 0.51851 0.17193 0.56289
 H181 H 0.50369 0.08931 0.71464
 H182 H 0.54000 -0.04896 0.70495
 O183 O 0.57458 0.60289 0.12739
 O184 O 0.63718 0.55963 0.06436
 C185 C 0.62400 0.59534 0.11048
 O186 O 0.43058 0.39567 0.11288
 O187 O 0.36694 0.44723 0.05815
 C188 C 0.38102 0.40769 0.09981
 O189 O 0.57569 0.40113 0.11492
 O190 O 0.63816 0.45520 0.06180
 C191 C 0.62501 0.41405 0.10167
 O192 O 0.42756 0.60165 0.11964
 O193 O 0.36547 0.55094 0.05781
 C194 C 0.37850 0.58854 0.10227
 Zr195 Zr 0.50154 0.56947 0.08974
 O196 O 0.49695 0.55614 0.19435
 O197 O 0.50085 0.65568 0.10525
 Zr198 Zr 0.50285 0.43349 0.08218
 O199 O 0.50131 0.43639 0.18801
 O200 O 0.50621 0.34633 0.08241
 O201 O 0.55219 0.50245 0.09985
 O202 O 0.45383 0.49965 0.09731
 O203 O 0.42804 0.60986 -0.11089
 O204 O 0.36629 0.55393 -0.05752
 C205 C 0.37914 0.59514 -0.09745
 O206 O 0.57591 0.41337 -0.12291
 O207 O 0.63829 0.45731 -0.05529
 C208 C 0.62512 0.42186 -0.10264
 O209 O 0.43043 0.40020 -0.11454
 O210 O 0.36719 0.44848 -0.05698
 C211 C 0.38142 0.40982 -0.09829
 O212 O 0.57389 0.61019 -0.11272
 O213 O 0.63668 0.56003 -0.05567
 C214 C 0.62348 0.59911 -0.09806
 Zr215 Zr 0.50103 0.57601 -0.07837
 O216 O 0.49582 0.57486 -0.18422
 O217 O 0.50436 0.66329 -0.07566
 Zr218 Zr 0.50240 0.44029 -0.08587
 O219 O 0.49881 0.45598 -0.18980
 O220 O 0.50516 0.35448 -0.10363
 Zr221 Zr 0.58517 0.50695 0.00316
 Zr222 Zr 0.41906 0.50207 0.00085
 O223 O 0.45284 0.50679 -0.09491
 O224 O 0.55151 0.50997 -0.09444
 O225 O 0.45299 0.58247 0.00553
 O226 O 0.54940 0.42759 -0.00179
 O227 O 0.54825 0.58444 0.00667
 O228 O 0.45483 0.42410 -0.00283
 H229 H 0.42945 0.49776 0.13589
 H230 H 0.57163 0.39422 -0.00343
 H231 H 0.42791 0.50670 -0.13405
 H232 H 0.57070 0.61856 0.00770
 H233 H 0.48248 0.33265 0.04566
 H234 H 0.51153 0.33646 -0.05997
 H235 H 0.49698 0.41939 -0.21166
 H236 H 0.52885 0.55789 -0.20112
 H237 H 0.47869 0.67535 -0.04155
 H238 H 0.51317 0.67357 0.06365
 H239 H 0.53334 0.54727 0.21143
 H240 H 0.53678 0.45001 0.20476
 C241 C 1.17038 0.17512 0.21571
 C242 C 1.22079 0.19527 0.19874
 C243 C 1.23590 0.19159 0.13118
 C244 C 1.19609 0.18666 0.08071
 C245 C 1.14125 0.19294 0.09555
 C246 C 1.12997 0.20816 0.16093
 C247 C 1.15873 0.16006 0.29846
 C248 C 1.10275 0.18448 0.33744
 C249 C 1.04465 0.23868 0.25166
 C250 C 1.07239 0.23986 0.17584
 H251 H 1.18620 0.13437 0.32600
 H252 H 1.09710 0.17466 0.39024
 H253 H 1.00605 0.25910 0.25643
 H254 H 1.05017 0.25783 0.13456
 H255 H 1.27751 0.19722 0.11710
 H256 H 1.20782 0.17657 0.03032
 C257 C 1.13283 0.73986 0.70648
 C258 C 1.19151 0.73595 0.70568
 C259 C 1.21375 0.71226 0.64789
 C260 C 1.18233 0.68247 0.60237
 C261 C 1.12706 0.67686 0.61085
 C262 C 1.10145 0.70667 0.66116
 C263 C 1.10289 0.77555 0.74765
 C264 C 1.04714 0.77249 0.75196
 C265 C 1.01819 0.73511 0.71352
 C266 C 1.04475 0.70320 0.66775
 H267 H 1.11982 0.80798 0.77686
 H268 H 1.02639 0.79971 0.78531
 H269 H 0.97487 0.73218 0.71747
 H270 H 1.01980 0.67673 0.63708
 H271 H 1.25693 0.71113 0.64188
 H272 H 1.20190 0.66015 0.56297
 C273 C 0.69589 0.16692 0.75130
 C274 C 0.71857 0.21464 0.71766
 C275 C 0.70939 0.21696 0.64732
 C276 C 0.68494 0.17362 0.61154
 C277 C 0.66757 0.12539 0.64325
 C278 C 0.67315 0.12178 0.71359
 C279 C 0.69473 0.16282 0.82195
 C280 C 0.67621 0.11517 0.85394
 C281 C 0.65721 0.07049 0.81675
 C282 C 0.65510 0.07377 0.74733
 H283 H 0.70679 0.19668 0.85371
 H284 H 0.67643 0.11305 0.90802
 H285 H 0.64317 0.03343 0.84183
 H286 H 0.63936 0.03829 0.72013
 H287 H 0.72511 0.24986 0.61701
 H288 H 0.67841 0.17844 0.55814
 C289 C 0.75409 0.66730 0.19004
 C290 C 0.73110 0.71606 0.22024
 C291 C 0.67485 0.72013 0.21124
 C292 C 0.64352 0.68155 0.17569
 C293 C 0.66468 0.63439 0.14546
 C294 C 0.72126 0.62768 0.15205
 C295 C 0.80907 0.65517 0.19858
 C296 C 0.83238 0.61011 0.16866
 C297 C 0.80130 0.57400 0.13056
 C298 C 0.74631 0.58165 0.12347
 H299 H 0.83478 0.67797 0.23131
 H300 H 0.87482 0.60255 0.17634
 H301 H 0.81987 0.53907 0.10769
 H302 H 0.72459 0.55031 0.09586
 H303 H 0.65333 0.75525 0.22867
 H304 H 0.60102 0.69009 0.17126
 C305 C 0.78954 -0.17469 0.15789
 C306 C 0.80645 -0.21316 0.20782
 C307 C 0.86282 -0.22212 0.21321
 C308 C 0.90042 -0.19104 0.17770
 C309 C 0.88441 -0.14592 0.14014
 C310 C 0.82812 -0.13664 0.13097
 C311 C 0.73446 -0.16629 0.14328
 C312 C 0.71682 -0.11783 0.11441
 C313 C 0.75381 -0.07756 0.09679
 C314 C 0.80850 -0.08789 0.10130
 H315 H 0.70370 -0.19452 0.15771
 H316 H 0.67421 -0.11090 0.10745
 H317 H 0.73986 -0.03908 0.07663
 H318 H 0.83414 -0.05639 0.08180
 H319 H 0.88015 -0.25084 0.24779
 H320 H 0.94286 -0.19871 0.18557
 C321 C 0.77740 0.33296 0.66162
 C322 C 0.79690 0.29041 0.70441
 C323 C 0.85418 0.28395 0.70554
 C324 C 0.88851 0.30884 0.66119
 C325 C 0.87018 0.34953 0.61971
 C326 C 0.81429 0.36321 0.62054
 C327 C 0.72256 0.34801 0.66039
 C328 C 0.70496 0.39312 0.62381
 C329 C 0.74104 0.42349 0.58602
 C330 C 0.79439 0.40766 0.58279
 H331 H 0.69209 0.32487 0.68628
 H332 H 0.66304 0.40436 0.62459
 H333 H 0.72750 0.45909 0.55825
 H334 H 0.81978 0.43109 0.55077
 H335 H 0.87590 0.26243 0.74403
 H336 H 0.93131 0.30130 0.66589
 C337 C 0.25282 -0.15668 0.67885
 C338 C 0.27272 -0.20199 0.71972
 C339 C 0.32844 -0.21130 0.71341
 C340 C 0.36249 -0.17692 0.67581
 C341 C 0.34348 -0.13336 0.63553
 C342 C 0.28687 -0.12704 0.63244
 C343 C 0.19930 -0.13975 0.68203
 C344 C 0.17676 -0.10359 0.63591
 C345 C 0.20788 -0.08176 0.58522
 C346 C 0.26247 -0.09271 0.58371
 H347 H 0.17504 -0.15231 0.72172
 H348 H 0.13488 -0.09266 0.63953
 H349 H 0.19000 -0.05507 0.54791
 H350 H 0.28389 -0.07560 0.54205
 H351 H 0.34754 -0.24590 0.73695
 H352 H 0.40495 -0.18604 0.67750
 C353 C 0.32041 0.31990 0.24348
 C354 C 0.27856 0.28794 0.20913
 C355 C 0.26439 0.30833 0.14437
 C356 C 0.29590 0.34766 0.10944
 C357 C 0.34059 0.37375 0.13968
 C358 C 0.35022 0.36253 0.20872
 C359 C 0.32918 0.31604 0.31371
 C360 C 0.36771 0.34837 0.34715
 C361 C 0.39647 0.38853 0.31307
 C362 C 0.38672 0.39670 0.24535
 H363 H 0.30364 0.29248 0.34586
 H364 H 0.37320 0.34419 0.40070
 H365 H 0.42462 0.41530 0.33986
 H366 H 0.40593 0.43222 0.22286
 H367 H 0.22791 0.29398 0.11961
 H368 H 0.28534 0.35739 0.05807
 C369 C 0.82984 0.17640 -0.23903
 C370 C 0.79828 0.21766 -0.20567
 C371 C 0.80785 0.22654 -0.13665
 C372 C 0.84938 0.20093 -0.10268
 C373 C 0.88246 0.16506 -0.13597
 C374 C 0.87364 0.15295 -0.20419
 C375 C 0.82497 0.16397 -0.30853
 C376 C 0.85884 0.12775 -0.34031
 C377 C 0.90141 0.10535 -0.30547
 C378 C 0.90961 0.11900 -0.23889
 H379 H 0.79913 0.18502 -0.34202
 H380 H 0.85372 0.11953 -0.39324
 H381 H 0.92933 0.07901 -0.33062
 H382 H 0.94539 0.10390 -0.21547
 H383 H 0.78358 0.25386 -0.10781
 H384 H 0.85456 0.20775 -0.04945
 C385 C 0.83805 0.76218 0.35989
 C386 C 0.79362 0.73765 0.32373
 C387 C 0.77924 0.68407 0.34350
 C388 C 0.81771 0.65081 0.37192
 C389 C 0.87086 0.67058 0.38215
 C390 C 0.88105 0.72809 0.37989
 C391 C 0.84052 0.81756 0.37988
 C392 C 0.88867 0.84170 0.40274
 C393 C 0.93464 0.81016 0.40804
 C394 C 0.93101 0.75339 0.39768
 H395 H 0.80478 0.84109 0.38396
 H396 H 0.89021 0.88481 0.41662
 H397 H 0.97252 0.82913 0.42367
 H398 H 0.96750 0.73077 0.40449
 H399 H 0.74074 0.66540 0.33008
 H400 H 0.80639 0.60822 0.38137
 C401 C 0.26298 0.19420 0.36777
 C402 C 0.27418 0.20716 0.29825
 C403 C 0.31893 0.18073 0.27096
 C404 C 0.34803 0.14119 0.30541
 C405 C 0.33611 0.12551 0.37108
 C406 C 0.29278 0.15174 0.40251
 C407 C 0.22258 0.22050 0.40419
 C408 C 0.20816 0.20298 0.46804
 C409 C 0.23617 0.16154 0.49997
 C410 C 0.27866 0.13692 0.46828
 H411 H 0.20088 0.25449 0.38502
 H412 H 0.17532 0.22229 0.49335
 H413 H 0.22524 0.14850 0.54977
 H414 H 0.29914 0.10526 0.49567
 H415 H 0.33093 0.18967 0.22021
 H416 H 0.38150 0.12294 0.27998
 C417 C 0.26528 0.64534 -0.21746
 C418 C 0.26900 0.70508 -0.20692
 C419 C 0.30595 0.72221 -0.15588
 C420 C 0.33835 0.68599 -0.11973
 C421 C 0.33702 0.62933 -0.13164
 C422 C 0.30157 0.60890 -0.18209
 C423 C 0.22430 0.61881 -0.25646
 C424 C 0.22371 0.56240 -0.26868
 C425 C 0.26280 0.52936 -0.24083
 C426 C 0.30091 0.55199 -0.19695
 H427 H 0.18841 0.63861 -0.27227
 H428 H 0.19135 0.54395 -0.29812
 H429 H 0.26173 0.48558 -0.25081
 H430 H 0.32906 0.52422 -0.17359
 H431 H 0.31060 0.76557 -0.14398
 H432 H 0.36609 0.70296 -0.08250
 C433 C 1.16755 -0.24648 -0.13538
 C434 C 1.20721 -0.21921 -0.17742
 C435 C 1.22084 -0.16455 -0.16049
 C436 C 1.18599 -0.13323 -0.12405
 C437 C 1.13753 -0.15580 -0.10005
 C438 C 1.13259 -0.21384 -0.09573
 C439 C 1.15725 -0.30380 -0.13659
 C440 C 1.11730 -0.32874 -0.09831
 C441 C 1.08542 -0.29710 -0.05799
 C442 C 1.09255 -0.24020 -0.05681
 H443 H 1.17890 -0.33056 -0.16678
 H444 H 1.11103 -0.37301 -0.10013
 H445 H 1.05473 -0.31670 -0.02776
 H446 H 1.06712 -0.21835 -0.02345
 H447 H 1.25551 -0.14342 -0.18101
 H448 H 1.19527 -0.08961 -0.11946
 C449 C 1.13025 0.25020 0.27240
 C450 C 1.18679 0.27303 0.26765
 C451 C 1.19525 0.32708 0.29159
 C452 C 1.15968 0.35652 0.32857
 C453 C 1.11082 0.33604 0.35207
 C454 C 1.09538 0.28204 0.33636
 C455 C 1.07719 0.15742 0.23905
 C456 C 1.02240 0.14786 0.28759
 C457 C 1.00662 0.19297 0.34788
 C458 C 1.03896 0.25269 0.37000
 H459 H 1.08738 0.12427 0.20591
 H460 H 0.99764 0.11117 0.28096
 H461 H 0.97121 0.18241 0.37630
 H462 H 1.02004 0.27391 0.41021
 H463 H 1.23206 0.34958 0.28420
 H464 H 1.17323 0.39778 0.34224
 C465 C 0.74332 -0.12924 0.29367
 C466 C 0.73162 -0.18872 0.29314
 C467 C 0.68911 -0.20655 0.33430
 C468 C 0.65484 -0.17013 0.36460
 C469 C 0.66242 -0.11316 0.35923
 C470 C 0.70591 -0.09212 0.32259
 C471 C 0.79336 -0.10496 0.27516
 C472 C 0.80212 -0.04814 0.27362
 C473 C 0.76187 -0.01292 0.29209
 C474 C 0.71418 -0.03453 0.31700
 H475 H 0.82845 -0.12866 0.26691
 H476 H 0.84103 -0.03163 0.25975
 H477 H 0.76879 0.03117 0.29088
 H478 H 0.68474 -0.00571 0.33396
 H479 H 0.68133 -0.25012 0.34226
 H480 H 0.62144 -0.18699 0.39271
 C481 C 0.75428 0.34815 -0.16818
 C482 C 0.72957 0.29975 -0.19938
 C483 C 0.67332 0.29468 -0.19263
 C484 C 0.64295 0.33363 -0.16033
 C485 C 0.66507 0.38283 -0.13368
 C486 C 0.72179 0.39032 -0.13797
 C487 C 0.81070 0.35604 -0.16548
 C488 C 0.83449 0.40389 -0.13941
 C489 C 0.80294 0.44550 -0.11480
 C490 C 0.74726 0.43902 -0.11394
 H491 H 0.83765 0.32488 -0.18104
 H492 H 0.87788 0.40868 -0.13832
 H493 H 0.82184 0.48282 -0.09552
 H494 H 0.72494 0.47304 -0.09485
 H495 H 0.65049 0.26086 -0.21429
 H496 H 0.60024 0.32461 -0.15760
 C497 C 1.15608 0.19707 -0.25970
 C498 C 1.19779 0.22730 -0.22292
 C499 C 1.18856 0.23833 -0.15466
 C500 C 1.14749 0.21186 -0.12073
 C501 C 1.11245 0.17608 -0.15445
 C502 C 1.11299 0.17235 -0.22443
 C503 C 1.15774 0.18769 -0.32979
 C504 C 1.11701 0.15823 -0.36338
 C505 C 1.07397 0.13614 -0.32830
 C506 C 1.07211 0.14258 -0.25936
 H507 H 1.19089 0.20133 -0.35979
 H508 H 1.11920 0.15211 -0.41686
 H509 H 1.04231 0.11330 -0.35441
 H510 H 1.03824 0.12454 -0.23350
 H511 H 1.21299 0.26690 -0.12588
 H512 H 1.14530 0.21656 -0.06696
 C513 C 1.19892 0.73227 0.36050
 C514 C 1.21420 0.71847 0.29274
 C515 C 1.18205 0.67709 0.26000
 C516 C 1.13596 0.65569 0.28687
 C517 C 1.11928 0.67137 0.34981
 C518 C 1.14793 0.71333 0.38478
 C519 C 1.23279 0.76010 0.40752
 C520 C 1.21333 0.77997 0.46763
 C521 C 1.16017 0.77009 0.48444
 C522 C 1.12812 0.73549 0.44465
 H523 H 1.27515 0.76492 0.40099
 H524 H 1.23980 0.80279 0.50146
 H525 H 1.14464 0.78673 0.53032
 H526 H 1.08754 0.72758 0.46071
 H527 H 1.18952 0.66435 0.20921
 H528 H 1.11393 0.62421 0.25869
 C529 C 0.68139 0.17231 0.24252
 C530 C 0.72634 0.19968 0.27594
 C531 C 0.73891 0.17947 0.34163
 C532 C 0.70656 0.14176 0.37566
 C533 C 0.66072 0.11908 0.34577
 C534 C 0.64998 0.13122 0.27720
 C535 C 0.66955 0.18135 0.17378
 C536 C 0.62841 0.15219 0.14076
 C537 C 0.59897 0.11190 0.17431
 C538 C 0.61003 0.10087 0.24136
 H539 H 0.69352 0.20924 0.14383
 H540 H 0.62049 0.15971 0.08819
 H541 H 0.56817 0.08814 0.14783
 H542 H 0.58844 0.06674 0.26408
 H543 H 0.77388 0.19310 0.36988
 H544 H 0.71656 0.13188 0.42720
 C545 C 0.75649 0.66818 -0.16752
 C546 C 0.73441 0.70909 -0.21312
 C547 C 0.67773 0.70982 -0.21682
 C548 C 0.64491 0.67376 -0.18072
 C549 C 0.66506 0.63560 -0.13374
 C550 C 0.72203 0.63510 -0.12456
 C551 C 0.81224 0.65817 -0.16366
 C552 C 0.83448 0.62442 -0.11463
 C553 C 0.80175 0.59855 -0.06830
 C554 C 0.74624 0.60309 -0.07347
 H555 H 0.83956 0.67408 -0.19975
 H556 H 0.87752 0.61851 -0.11249
 H557 H 0.81939 0.57365 -0.02899
 H558 H 0.72367 0.58209 -0.03550
 H559 H 0.65691 0.73963 -0.24714
 H560 H 0.60205 0.67753 -0.18940
 C561 C 0.78478 -0.18438 -0.14460
 C562 C 0.80620 -0.21686 -0.19707
 C563 C 0.86300 -0.22517 -0.19392
 C564 C 0.89708 -0.19917 -0.14767
 C565 C 0.87734 -0.16102 -0.10355
 C566 C 0.82050 -0.15388 -0.10117
 C567 C 0.72870 -0.17714 -0.13779
 C568 C 0.70858 -0.13703 -0.09629
 C569 C 0.74354 -0.10418 -0.05901
 C570 C 0.79850 -0.11409 -0.05894
 H571 H 0.69941 -0.19817 -0.16835
 H572 H 0.66573 -0.12999 -0.09510
 H573 H 0.72769 -0.07070 -0.03050
 H574 H 0.82384 -0.08933 -0.02691
 H575 H 0.88334 -0.25173 -0.22786
 H576 H 0.94007 -0.20493 -0.15109
 C577 C 0.77631 0.31134 0.34571
 C578 C 0.79782 0.27157 0.30209
 C579 C 0.85091 0.25446 0.31667
 C580 C 0.88628 0.28832 0.35290
 C581 C 0.86835 0.33765 0.37909
 C582 C 0.81215 0.34739 0.38039
 C583 C 0.72054 0.31593 0.35635
 C584 C 0.70016 0.36016 0.39123
 C585 C 0.73518 0.39905 0.41913
 C586 C 0.79047 0.39155 0.41602
 H587 H 0.69228 0.28461 0.34029
 H588 H 0.65718 0.36389 0.39720
 H589 H 0.71943 0.43396 0.44536
 H590 H 0.81573 0.41972 0.44314
 H591 H 0.86670 0.21740 0.29502
 H592 H 0.92839 0.27827 0.35561
 C593 C 0.34291 -0.21555 0.30153
 C594 C 0.28716 -0.20845 0.28324
 C595 C 0.26425 -0.15847 0.30801
 C596 C 0.29269 -0.12163 0.35055
 C597 C 0.34273 -0.13575 0.37726
 C598 C 0.36380 -0.18745 0.35867
 C599 C 0.38030 -0.24732 0.26616
 C600 C 0.42727 -0.26560 0.29752
 C601 C 0.43897 -0.25013 0.36308
 C602 C 0.40791 -0.21031 0.39334
 H603 H 0.37427 -0.25893 0.21465
 H604 H 0.45391 -0.29265 0.27135
 H605 H 0.47409 -0.26599 0.38871
 H606 H 0.41971 -0.19534 0.44247
 H607 H 0.22325 -0.14780 0.29568
 H608 H 0.27526 -0.08248 0.36302
 C609 C 0.31064 0.27579 -0.15221
 C610 C 0.28409 0.29281 -0.21311
 C611 C 0.29351 0.34873 -0.23231
 C612 C 0.32082 0.38667 -0.19173
 C613 C 0.34121 0.37182 -0.12950
 C614 C 0.33684 0.31590 -0.10944
 C615 C 0.31177 0.22011 -0.13199
 C616 C 0.33447 0.20443 -0.07084
 C617 C 0.35771 0.24375 -0.02853
 C618 C 0.35952 0.29890 -0.04777
 H619 H 0.29541 0.18804 -0.16282
 H620 H 0.33400 0.16142 -0.05624
 H621 H 0.37504 0.23139 0.01905
 H622 H 0.37864 0.32820 -0.01388
 H623 H 0.28098 0.36464 -0.28038
 H624 H 0.32883 0.42767 -0.21099
 C625 C 1.23635 -0.17902 0.14996
 C626 C 1.21571 -0.21622 0.20048
 C627 C 1.15879 -0.21266 0.21162
 C628 C 1.12468 -0.18040 0.17441
 C629 C 1.14447 -0.14537 0.12635
 C630 C 1.20033 -0.14474 0.11238
 C631 C 1.29199 -0.17417 0.13616
 C632 C 1.31127 -0.13934 0.08616
 C633 C 1.27592 -0.10798 0.04850
 C634 C 1.22116 -0.11048 0.06142
 H635 H 1.32145 -0.19786 0.16249
 H636 H 1.35393 -0.13710 0.07621
 H637 H 1.29099 -0.08146 0.00909
 H638 H 1.19546 -0.08576 0.03043
 H639 H 1.13814 -0.23196 0.25260
 H640 H 1.08245 -0.17964 0.18733
 C641 C 1.22073 0.30343 0.62066
 C642 C 1.21482 0.29418 0.69097
 C643 C 1.17270 0.32391 0.72086
 C644 C 1.12895 0.34203 0.68455
 C645 C 1.12893 0.34158 0.61518
 C646 C 1.17650 0.32539 0.58257
 C647 C 1.27088 0.30130 0.58929
 C648 C 1.27700 0.31512 0.52218
 C649 C 1.23327 0.33274 0.48460
 C650 C 1.18323 0.33702 0.51408
 H651 H 1.30711 0.29753 0.61721
 H652 H 1.31636 0.31410 0.49990
 H653 H 1.23848 0.34403 0.43274
 H654 H 1.15031 0.35124 0.48355
 H655 H 1.17082 0.32836 0.77457
 H656 H 1.09647 0.36105 0.71120
 C657 C 0.70139 -0.21887 0.64586
 C658 C 0.73323 -0.20266 0.70406
 C659 C 0.73490 -0.14470 0.71683
 C660 C 0.70438 -0.10644 0.68029
 C661 C 0.67372 -0.12233 0.62445
 C662 C 0.67545 -0.17827 0.60460
 C663 C 0.69318 -0.27471 0.62740
 C664 C 0.66707 -0.28985 0.56801
 C665 C 0.64719 -0.24984 0.52537
 C666 C 0.65086 -0.19471 0.54369
 H667 H 0.70412 -0.30791 0.65942
 H668 H 0.66214 -0.33300 0.55518
 H669 H 0.62783 -0.26167 0.47861
 H670 H 0.63558 -0.16479 0.50904
 H671 H 0.76064 -0.12700 0.75508
 H672 H 0.70438 -0.06384 0.69646
 C673 C 0.75460 0.34436 0.17509
 C674 C 0.73156 0.29648 0.20879
 C675 C 0.67500 0.29776 0.21296
 C676 C 0.64371 0.33579 0.17909
 C677 C 0.66533 0.37598 0.13550
 C678 C 0.72224 0.37819 0.13097
 C679 C 0.80697 0.36467 0.18885
 C680 C 0.83203 0.40278 0.14666
 C681 C 0.80373 0.42469 0.09274
 C682 C 0.74860 0.41465 0.08654
 H683 H 0.82829 0.35384 0.23389
 H684 H 0.87343 0.41545 0.15605
 H685 H 0.82379 0.45219 0.05803
 H686 H 0.72768 0.43548 0.04660
 H687 H 0.65265 0.26971 0.24415
 H688 H 0.60088 0.33224 0.18756
 C689 C 0.79716 0.16812 0.15573
 C690 C 0.80409 0.22028 0.18965
 C691 C 0.85198 0.25026 0.17140
 C692 C 0.89015 0.22943 0.12838
 C693 C 0.87861 0.18165 0.09332
 C694 C 0.82637 0.15893 0.09685
 C695 C 0.77048 0.12066 0.18074
 C696 C 0.75434 0.07773 0.13790
 C697 C 0.77060 0.07856 0.07156
 C698 C 0.80929 0.11721 0.05206
 H699 H 0.76375 0.11482 0.23313
 H700 H 0.73021 0.04358 0.15655
 H701 H 0.75777 0.04643 0.03727
 H702 H 0.82865 0.11240 0.00439
 H703 H 0.86635 0.28559 0.19792
 H704 H 0.93010 0.24807 0.12709
 C705 C 0.84758 0.75840 0.65527
 C706 C 0.80666 0.72852 0.69262
 C707 C 0.80066 0.67213 0.67925
 C708 C 0.83470 0.64519 0.63817
 C709 C 0.88074 0.67075 0.61171
 C710 C 0.88536 0.72889 0.61555
 C711 C 0.85499 0.81618 0.66042
 C712 C 0.89594 0.84412 0.62685
 C713 C 0.93155 0.81540 0.58799
 C714 C 0.92677 0.75840 0.58264
 H715 H 0.83122 0.84069 0.69239
 H716 H 0.90060 0.88838 0.63198
 H717 H 0.96350 0.83738 0.56238
 H718 H 0.95591 0.73864 0.55209
 H719 H 0.77013 0.64641 0.70204
 H720 H 0.82599 0.60184 0.63128
 C721 C 0.27070 0.14548 0.71181
 C722 C 0.28181 0.20522 0.71028
 C723 C 0.33218 0.21955 0.68409
 C724 C 0.36128 0.18361 0.64500
 C725 C 0.34435 0.12877 0.63369
 C726 C 0.29792 0.10945 0.66675
 C727 C 0.23899 0.11814 0.76097
 C728 C 0.22396 0.06279 0.75564
 C729 C 0.24360 0.03100 0.70471
 C730 C 0.28141 0.05342 0.66173
 H731 H 0.22650 0.13719 0.80630
 H732 H 0.19772 0.04417 0.79219
 H733 H 0.23214 -0.01213 0.70129
 H734 H 0.29823 0.02552 0.62633
 H735 H 0.35025 0.25959 0.69431
 H736 H 0.39894 0.19888 0.62479
 C737 C 0.30839 0.65973 0.24588
 C738 C 0.28171 0.70501 0.21101
 C739 C 0.27837 0.69892 0.13992
 C740 C 0.30663 0.65895 0.10504
 C741 C 0.33643 0.61922 0.13861
 C742 C 0.33437 0.61722 0.20908
 C743 C 0.31225 0.65638 0.31673
 C744 C 0.33697 0.61266 0.34941
 C745 C 0.35956 0.57077 0.31302
 C746 C 0.35869 0.57308 0.24368
 H747 H 0.29839 0.68819 0.34852
 H748 H 0.33895 0.61160 0.40351
 H749 H 0.37842 0.53664 0.33859
 H750 H 0.37665 0.53945 0.21726
 H751 H 0.25399 0.72507 0.10887
 H752 H 0.30642 0.66021 0.05087
   
