data_POSCAR
  _audit_creation_date              2014-09-24
  _audit_creation_method            'ToBaCCo'
  _symmetry_space_group_name_H-M    'P1'
  _symmetry_Int_Tables_number       1
  _symmetry_cell_setting            triclinic
  loop_
  _symmetry_equiv_pos_as_xyz
 x,y,z
_cell_length_a 47.1638
_cell_length_b 47.3955
_cell_length_c 8.7550
_cell_angle_alpha 89.894000
_cell_angle_beta 90.001400
_cell_angle_gamma 90.066300
loop_
  _atom_site_label
  _atom_site_type_symbol
  _atom_site_fract_x
  _atom_site_fract_y
  _atom_site_fract_z
C1 C 0.16156 0.26346 0.24277
 C2 C 0.16166 0.23454 0.24046
 C3 C 0.18976 0.22623 0.22514
 N4 N 0.20662 0.24924 0.21473
 C5 C 0.18947 0.27197 0.22583
 C6 C 0.19919 0.19819 0.20149
 C7 C 0.22842 0.19109 0.19307
 C8 C 0.23921 0.16583 0.13769
 C9 C 0.26789 0.16617 0.16373
 C10 C 0.27398 0.19119 0.23889
 N11 N 0.24987 0.20641 0.25451
 C12 C 0.30105 0.19875 0.29760
 C13 C 0.30789 0.22719 0.33244
 C14 C 0.33097 0.23594 0.41886
 C15 C 0.33069 0.26486 0.41820
 C16 C 0.30719 0.27283 0.33400
 N17 N 0.29323 0.24984 0.28179
 C18 C 0.29987 0.30095 0.29899
 C19 C 0.27279 0.30859 0.24445
 C20 C 0.26599 0.33451 0.18074
 C21 C 0.23722 0.33430 0.15524
 C22 C 0.22727 0.30827 0.20441
 N23 N 0.24910 0.29272 0.25837
 C24 C 0.19844 0.30023 0.20784
 H25 H 0.14294 0.27668 0.25177
 H26 H 0.14296 0.22135 0.24439
 H27 H 0.24750 0.27375 0.31753
 H28 H 0.22784 0.14855 0.08554
 H29 H 0.28253 0.14960 0.13222
 H30 H 0.34631 0.22290 0.47776
 H31 H 0.34590 0.27847 0.47425
 H32 H 0.22499 0.35147 0.10713
 H33 H 0.24768 0.22450 0.32062
 H34 H 0.28021 0.35191 0.15696
 C35 C 0.83297 0.23565 0.08828
 C36 C 0.83292 0.26457 0.08735
 C37 C 0.80798 0.27288 0.15773
 N38 N 0.79290 0.25005 0.20243
 C39 C 0.80808 0.22727 0.15947
 C40 C 0.80036 0.30109 0.18800
 C41 C 0.77327 0.30911 0.24146
 C42 C 0.76681 0.33541 0.30112
 C43 C 0.73827 0.33531 0.33243
 C44 C 0.72806 0.30893 0.29136
 N45 N 0.74951 0.29312 0.23529
 C46 C 0.69928 0.30075 0.29984
 C47 C 0.68996 0.27243 0.29063
 C48 C 0.66181 0.26411 0.28838
 C49 C 0.66174 0.23520 0.28966
 C50 C 0.68991 0.22662 0.29088
 N51 N 0.70705 0.24954 0.29337
 C52 C 0.69929 0.19823 0.30484
 C53 C 0.72841 0.19036 0.30016
 C54 C 0.73889 0.16366 0.33414
 C55 C 0.76742 0.16402 0.30278
 C56 C 0.77372 0.19070 0.24755
 N57 N 0.74987 0.20656 0.24585
 C58 C 0.80065 0.19902 0.19175
 H59 H 0.84952 0.22233 0.04228
 H60 H 0.84940 0.27795 0.04060
 H61 H 0.74776 0.22606 0.19310
 H62 H 0.78115 0.35292 0.31990
 H63 H 0.72638 0.35273 0.38002
 H64 H 0.64319 0.27744 0.28914
 H65 H 0.64293 0.22215 0.29342
 H66 H 0.78177 0.14639 0.31660
 H67 H 0.74744 0.27384 0.18023
 H68 H 0.72729 0.14539 0.37376
 C69 C 0.66254 0.73549 0.73777
 C70 C 0.66249 0.76444 0.73549
 C71 C 0.69042 0.77281 0.71584
 N72 N 0.70749 0.75001 0.70568
 C73 C 0.69050 0.72719 0.71939
 C74 C 0.69960 0.80099 0.69804
 C75 C 0.72855 0.80873 0.69767
 C76 C 0.73900 0.83453 0.64810
 C77 C 0.76767 0.83445 0.67692
 C78 C 0.77390 0.80861 0.74344
 N79 N 0.74997 0.79305 0.75530
 C80 C 0.80063 0.80086 0.80277
 C81 C 0.80757 0.77278 0.84099
 C82 C 0.83078 0.76486 0.92771
 C83 C 0.83087 0.73595 0.93068
 C84 C 0.80794 0.72714 0.84334
 N85 N 0.79357 0.74975 0.78962
 C86 C 0.80115 0.69868 0.80885
 C87 C 0.77401 0.69112 0.75131
 C88 C 0.76777 0.66619 0.67502
 C89 C 0.73913 0.66628 0.64644
 C90 C 0.72868 0.69144 0.70344
 N91 N 0.75003 0.70656 0.76672
 C92 C 0.69974 0.69906 0.70362
 H93 H 0.64406 0.72210 0.74964
 H94 H 0.64399 0.77777 0.74609
 H95 H 0.74779 0.72488 0.83104
 H96 H 0.72716 0.85171 0.59736
 H97 H 0.78219 0.85162 0.65361
 H98 H 0.84593 0.77849 0.98411
 H99 H 0.84610 0.72293 0.99040
 H100 H 0.72736 0.64977 0.58917
 H101 H 0.74789 0.77427 0.81590
 H102 H 0.78231 0.64959 0.64303
 C103 C 0.33187 0.73546 0.58867
 C104 C 0.33170 0.76441 0.58693
 C105 C 0.30719 0.77267 0.66164
 N106 N 0.29242 0.74986 0.70893
 C107 C 0.30744 0.72709 0.66427
 C108 C 0.29985 0.80073 0.69670
 C109 C 0.27303 0.80815 0.75566
 C110 C 0.26726 0.83308 0.83176
 C111 C 0.23869 0.83307 0.86199
 C112 C 0.22766 0.80830 0.80137
 N113 N 0.24886 0.79304 0.73827
 C114 C 0.19848 0.80088 0.80050
 C115 C 0.18954 0.77248 0.78155
 C116 C 0.16201 0.76390 0.75066
 C117 C 0.16204 0.73501 0.75267
 C118 C 0.18980 0.72666 0.77940
 N119 N 0.20650 0.74966 0.79812
 C120 C 0.19893 0.69842 0.80140
 C121 C 0.22805 0.69090 0.80712
 C122 C 0.23858 0.66468 0.85041
 C123 C 0.26720 0.66495 0.82146
 C124 C 0.27344 0.69107 0.75875
 N125 N 0.24953 0.70675 0.75069
 C126 C 0.30023 0.69894 0.69986
 H127 H 0.34823 0.72212 0.54100
 H128 H 0.34790 0.77783 0.53769
 H129 H 0.24732 0.72563 0.69129
 H130 H 0.28211 0.84953 0.86269
 H131 H 0.22735 0.84949 0.92208
 H132 H 0.14365 0.77702 0.72985
 H133 H 0.14351 0.72188 0.73732
 H134 H 0.28163 0.64757 0.84111
 H135 H 0.24648 0.77493 0.67227
 H136 H 0.22693 0.64671 0.89358
 O137 O 0.97296 -0.02208 -0.15566
 O138 O 1.02828 0.03161 -0.09373
 O139 O 1.02825 -0.02217 -0.15407
 O140 O 0.97311 0.03180 -0.09709
 O141 O 0.97283 0.02246 0.15044
 O142 O 1.02788 -0.03156 0.09335
 O143 O 1.02803 0.02222 0.15378
 O144 O 0.97265 -0.03139 0.09190
 Cu145 Cu 1.00068 0.00574 -0.14988
 Cu146 Cu 1.00030 -0.00554 0.14686
 C147 C 0.96347 -0.03580 -0.04206
 C148 C 1.03748 0.03600 0.04026
 C149 C 1.03740 -0.03595 -0.03995
 C150 C 0.96371 0.03628 0.03638
 O151 O 0.52755 0.53164 0.40809
 O152 O 0.47241 0.47793 0.34448
 O153 O 0.47233 0.53161 0.40702
 O154 O 0.52768 0.47794 0.34671
 O155 O 0.52747 0.46832 0.59398
 O156 O 0.47210 0.52187 0.65405
 O157 O 0.47222 0.46817 0.59155
 O158 O 0.52739 0.52205 0.65534
 Cu159 Cu 0.50001 0.50578 0.35203
 Cu160 Cu 0.49976 0.49409 0.64853
 C161 C 0.53681 0.53591 0.54201
 C162 C 0.46299 0.46398 0.45738
 C163 C 0.46287 0.53580 0.54068
 C164 C 0.53694 0.46409 0.46039
 O165 O -0.02739 0.53194 0.08959
 O166 O 0.02755 0.47810 0.15356
 O167 O 0.02784 0.53179 0.08923
 O168 O -0.02759 0.47830 0.15192
 O169 O -0.02748 0.46861 -0.09505
 O170 O 0.02786 0.52219 -0.15789
 O171 O 0.02766 0.46846 -0.09348
 O172 O -0.02742 0.52228 -0.15738
 Cu173 Cu 0.00012 0.50606 0.14544
 Cu174 Cu 0.00018 0.49440 -0.15067
 C175 C -0.03674 0.53616 -0.04426
 C176 C 0.03683 0.46413 0.04074
 C177 C 0.03720 0.53604 -0.04467
 C178 C -0.03687 0.46441 0.03874
 O179 O 0.47215 1.03185 0.59409
 O180 O 0.52748 0.97810 0.65659
 O181 O 0.52743 1.03200 0.59654
 O182 O 0.47215 0.97814 0.65860
 O183 O 0.47219 0.96868 0.41140
 O184 O 0.52745 1.02252 0.34940
 O185 O 0.52741 0.96868 0.40937
 O186 O 0.47219 1.02233 0.34698
 Cu187 Cu 0.49980 1.00601 0.65113
 Cu188 Cu 0.49982 0.99457 0.35494
 C189 C 0.46284 1.03616 0.46012
 C190 C 0.53679 0.96431 0.54302
 C191 C 0.53678 1.03636 0.46272
 C192 C 0.46282 0.96433 0.54517
 C193 C 1.14018 0.14813 0.28188
 C194 C 1.13700 0.13507 0.13966
 C195 C 1.15448 0.14298 0.01764
 C196 C 1.17516 0.16381 0.03778
 C197 C 1.17871 0.17684 0.18080
 C198 C 1.16086 0.16892 0.30232
 C199 C 1.11571 0.11365 0.11874
 C200 C 1.09785 0.09573 0.10160
 C201 C 1.07689 0.07480 0.08134
 C202 C 1.05893 0.05702 0.06340
 H203 H 1.12669 0.14226 0.37701
 H204 H 1.15203 0.13318 -0.09331
 H205 H 1.18814 0.17002 -0.05880
 H206 H 1.16307 0.17878 0.41324
 C207 C 0.64018 0.65576 0.53136
 C208 C 0.63729 0.63416 0.63958
 C209 C 0.65501 0.63361 0.76795
 C210 C 0.67545 0.65467 0.78837
 C211 C 0.67824 0.67652 0.68083
 C212 C 0.66059 0.67684 0.55169
 C213 C 0.61593 0.61277 0.61922
 C214 C 0.59788 0.59502 0.60226
 C215 C 0.57662 0.57436 0.58253
 C216 C 0.55843 0.55679 0.56497
 H217 H 0.62662 0.65635 0.43152
 H218 H 0.65294 0.61703 0.85270
 H219 H 0.68893 0.65411 0.88849
 H220 H 0.66258 0.69347 0.46740
 C221 C -0.16059 0.36534 0.03860
 C222 C -0.13647 0.36541 0.13201
 C223 C -0.13293 0.34439 0.24288
 C224 C -0.15353 0.32346 0.26124
 C225 C -0.17778 0.32333 0.16828
 C226 C -0.18121 0.34440 0.05683
 C227 C -0.11527 0.38694 0.11392
 C228 C -0.09739 0.40489 0.09874
 C229 C -0.07638 0.42576 0.07994
 C230 C -0.05837 0.44348 0.06210
 H231 H -0.16345 0.38147 -0.04793
 H232 H -0.11428 0.34421 0.31508
 H233 H -0.15064 0.30740 0.34806
 H234 H -0.19985 0.34457 -0.01537
 C235 C 0.36748 0.84316 0.74411
 C236 C 0.36271 0.86562 0.64323
 C237 C 0.33730 0.86698 0.56075
 C238 C 0.31680 0.84588 0.57838
 C239 C 0.32159 0.82319 0.67839
 C240 C 0.34702 0.82204 0.76170
 C241 C 0.38402 0.88709 0.62338
 C242 C 0.40199 0.90494 0.60647
 C243 C 0.42314 0.92571 0.58607
 C244 C 0.44124 0.94338 0.56805
 H245 H 0.38700 0.84195 0.80910
 H246 H 0.33336 0.88430 0.48264
 H247 H 0.29727 0.84712 0.51363
 H248 H 0.35094 0.80481 0.84030
 C249 C -0.16402 0.63046 -0.08532
 C250 C -0.13635 0.63512 -0.13717
 C251 C -0.12927 0.66088 -0.20523
 C252 C -0.14979 0.68187 -0.22263
 C253 C -0.17788 0.67746 -0.17208
 C254 C -0.18465 0.65136 -0.10326
 C255 C -0.11515 0.61357 -0.11962
 C256 C -0.09729 0.59563 -0.10430
 C257 C -0.07627 0.57477 -0.08526
 C258 C -0.05824 0.55707 -0.06765
 H259 H -0.16964 0.61069 -0.03069
 H260 H -0.10790 0.66470 -0.24573
 H261 H -0.14384 0.70131 -0.27954
 H262 H -0.20581 0.64731 -0.06046
 C263 C 0.33557 1.13067 0.40860
 C264 C 0.36332 1.13513 0.35764
 C265 C 0.37048 1.16064 0.28692
 C266 C 0.35000 1.18158 0.26651
 C267 C 0.32191 1.17748 0.31779
 C268 C 0.31502 1.15158 0.38853
 C269 C 0.38450 1.11359 0.37786
 C270 C 0.40235 1.09566 0.39511
 C271 C 0.42335 1.07482 0.41666
 C272 C 0.44135 1.05713 0.43621
 H273 H 0.32983 1.11108 0.46477
 H274 H 0.39192 1.16431 0.24719
 H275 H 0.35599 1.20080 0.20752
 H276 H 0.29383 1.14777 0.43174
 C277 C 1.13516 -0.16006 -0.05268
 C278 C 1.13714 -0.13482 -0.13500
 C279 C 1.15960 -0.13069 -0.23687
 C280 C 1.17986 -0.15183 -0.25785
 C281 C 1.17794 -0.17760 -0.17738
 C282 C 1.15533 -0.18129 -0.07372
 C283 C 1.11597 -0.11326 -0.11557
 C284 C 1.09808 -0.09538 -0.09917
 C285 C 1.07699 -0.07459 -0.07951
 C286 C 1.05892 -0.05692 -0.06192
 H287 H 1.11807 -0.16333 0.02820
 H288 H 1.16139 -0.11117 -0.30077
 H289 H 1.19664 -0.14833 -0.34035
 H290 H 1.15356 -0.20041 -0.00647
 C291 C 0.65217 0.36404 0.22794
 C292 C 0.63698 0.36556 0.36510
 C293 C 0.64241 0.34608 0.48210
 C294 C 0.66277 0.32500 0.46133
 C295 C 0.67779 0.32321 0.32321
 C296 C 0.67251 0.34297 0.20707
 C297 C 0.61567 0.38695 0.38500
 C298 C 0.59772 0.40478 0.40103
 C299 C 0.57661 0.42556 0.42029
 C300 C 0.55852 0.44320 0.43779
 H301 H 0.64820 0.37907 0.13706
 H302 H 0.63088 0.34714 0.58902
 H303 H 0.66679 0.31001 0.55225
 H304 H 0.68404 0.34194 0.10017
 C305 C 0.83860 -0.13356 -0.05693
 C306 C 0.86416 -0.13516 -0.13786
 C307 C 0.86900 -0.15772 -0.23746
 C308 C 0.84829 -0.17851 -0.25703
 C309 C 0.82255 -0.17695 -0.17680
 C310 C 0.81786 -0.15435 -0.07643
 C311 C 0.88540 -0.11364 -0.11927
 C312 C 0.90322 -0.09564 -0.10339
 C313 C 0.92412 -0.07465 -0.08355
 C314 C 0.94204 -0.05683 -0.06529
 H315 H 0.83479 -0.11637 0.02198
 H316 H 0.88879 -0.15925 -0.29973
 H317 H 0.85227 -0.19583 -0.33466
 H318 H 0.79822 -0.15295 -0.01276
 C319 C 0.33769 0.36657 0.44025
 C320 C 0.36298 0.36542 0.35660
 C321 C 0.36770 0.34313 0.25511
 C322 C 0.34711 0.32221 0.23584
 C323 C 0.32164 0.32332 0.31872
 C324 C 0.31707 0.34565 0.42109
 C325 C 0.38425 0.38691 0.37566
 C326 C 0.40221 0.40475 0.39235
 C327 C 0.42335 0.42547 0.41363
 C328 C 0.44144 0.44308 0.43301
 H329 H 0.33395 0.38355 0.52056
 H330 H 0.38731 0.34192 0.19111
 H331 H 0.35099 0.30513 0.15654
 H332 H 0.29763 0.34671 0.48670
 C333 C 0.15446 0.64239 -0.02022
 C334 C 0.13706 0.63479 -0.14303
 C335 C 0.14024 0.64830 -0.28426
 C336 C 0.16077 0.66932 -0.30287
 C337 C 0.17834 0.67711 -0.18013
 C338 C 0.17498 0.66343 -0.03852
 C339 C 0.11577 0.61333 -0.12362
 C340 C 0.09786 0.59545 -0.10682
 C341 C 0.07680 0.57463 -0.08645
 C342 C 0.05874 0.55695 -0.06814
 H343 H 0.15207 0.63217 0.08990
 H344 H 0.12685 0.64260 -0.37987
 H345 H 0.16307 0.67943 -0.41324
 H346 H 0.18803 0.66927 0.05826
 C347 C 0.63896 1.14964 0.22812
 C348 C 0.63706 1.13505 0.36681
 C349 C 0.65587 1.14143 0.48580
 C350 C 0.67663 1.16224 0.46545
 C351 C 0.67872 1.17694 0.32591
 C352 C 0.65960 1.17048 0.20767
 C353 C 0.61565 1.11365 0.38642
 C354 C 0.59761 1.09583 0.40205
 C355 C 0.57642 1.07504 0.42118
 C356 C 0.55832 1.05736 0.43932
 H357 H 0.62443 1.14493 0.13583
 H358 H 0.65443 1.13048 0.59448
 H359 H 0.69082 1.16713 0.55920
 H360 H 0.66079 1.18148 0.09921
 C361 C 0.15287 0.36480 0.27458
 C362 C 0.13550 0.36453 0.14490
 C363 C 0.13876 0.34327 0.03543
 C364 C 0.15925 0.32231 0.05580
 C365 C 0.17663 0.32244 0.18601
 C366 C 0.17335 0.34384 0.29521
 C367 C 0.11435 0.38605 0.12415
 C368 C 0.09661 0.40404 0.10633
 C369 C 0.07582 0.42506 0.08476
 C370 C 0.05804 0.44294 0.06523
 H371 H 0.15056 0.38120 0.35964
 H372 H 0.12549 0.34291 -0.06557
 H373 H 0.16161 0.30599 -0.02964
 H374 H 0.18660 0.34421 0.39623
 C375 C 0.65449 0.86594 0.76436
 C376 C 0.63673 0.86548 0.63619
 C377 C 0.63971 0.84407 0.52724
 C378 C 0.66028 0.82314 0.54677
 C379 C 0.67801 0.82341 0.67568
 C380 C 0.67506 0.84503 0.78396
 C381 C 0.61535 0.88686 0.61704
 C382 C 0.59741 0.90473 0.60130
 C383 C 0.57634 0.92559 0.58246
 C384 C 0.55830 0.94333 0.56549
 H385 H 0.65235 0.88237 0.84946
 H386 H 0.62608 0.84351 0.42770
 H387 H 0.66236 0.80667 0.46195
 H388 H 0.68855 0.84553 0.88405
 C389 C 0.86753 0.15599 0.24484
 C390 C 0.86452 0.13565 0.13029
 C391 C 0.84079 0.13624 0.03394
 C392 C 0.81989 0.15682 0.05414
 C393 C 0.82266 0.17701 0.17047
 C394 C 0.84668 0.17655 0.26516
 C395 C 0.88580 0.11418 0.11226
 C396 C 0.90365 0.09623 0.09716
 C397 C 0.92455 0.07527 0.07737
 C398 C 0.94241 0.05744 0.05891
 H399 H 0.88599 0.15593 0.31841
 H400 H 0.83845 0.12084 -0.05665
 H401 H 0.80160 0.15710 -0.02071
 H402 H 0.84921 0.19212 0.35459
 C403 C 0.33830 0.63402 0.55293
 C404 C 0.36320 0.63457 0.64020
 C405 C 0.36755 0.65622 0.74622
 C406 C 0.34705 0.67719 0.76557
 C407 C 0.32203 0.67671 0.67869
 C408 C 0.31778 0.65499 0.57220
 C409 C 0.38441 0.61308 0.62028
 C410 C 0.40229 0.59521 0.60312
 C411 C 0.42334 0.57441 0.58261
 C412 C 0.44137 0.55674 0.56403
 H413 H 0.33477 0.61742 0.47010
 H414 H 0.38676 0.65689 0.81388
 H415 H 0.35060 0.69374 0.84862
 H416 H 0.29857 0.65434 0.50447
   
