data_POSCAR
  _audit_creation_date              2014-09-24
  _audit_creation_method            'ToBaCCo'
  _symmetry_space_group_name_H-M    'P1'
  _symmetry_Int_Tables_number       1
  _symmetry_cell_setting            triclinic
  loop_
  _symmetry_equiv_pos_as_xyz
 x,y,z
_cell_length_a 32.7230
_cell_length_b 35.4213
_cell_length_c 33.0895
_cell_angle_alpha 89.985600
_cell_angle_beta 89.900100
_cell_angle_gamma 90.106600
loop_
  _atom_site_label
  _atom_site_type_symbol
  _atom_site_fract_x
  _atom_site_fract_y
  _atom_site_fract_z
Si1 Si 1.24905 0.24989 0.25152
 Si2 Si 0.75057 -0.25047 0.25125
 Si3 Si 0.75059 0.24978 -0.25017
 Si4 Si 1.24944 -0.25068 -0.25033
 Si5 Si 0.24955 0.25071 0.74874
 Si6 Si 0.75057 0.75024 0.74878
 Si7 Si 0.75094 0.25034 0.25025
 Si8 Si 0.24945 0.75033 0.25033
 N9 N 1.07344 0.03875 0.04429
 N10 N 1.10156 0.06446 0.05224
 N11 N 1.04478 -0.04069 0.07221
 N12 N 1.05315 -0.06594 0.10041
 N13 N 1.07325 -0.04064 0.04415
 N14 N 1.10172 -0.06585 0.05253
 N15 N 1.04499 0.03870 0.07236
 N16 N 1.05298 0.06438 0.10018
 C17 C 1.08799 0.08044 0.08682
 C18 C 1.08838 -0.08172 0.08733
 N19 N 0.92817 -0.04021 0.04389
 N20 N 0.89986 -0.06580 0.05175
 N21 N 0.95681 0.03892 0.07234
 N22 N 0.94871 0.06442 0.10033
 N23 N 0.92850 0.03911 0.04422
 N24 N 0.90040 0.06474 0.05232
 N25 N 0.95651 -0.04042 0.07197
 N26 N 0.94826 -0.06615 0.09969
 Mn27 Mn 1.00076 -0.00088 0.07259
 C28 C 0.91322 -0.08200 0.08626
 C29 C 0.91381 0.08055 0.08704
 N30 N 1.07319 -0.04024 -0.04312
 N31 N 1.10118 -0.06598 -0.05112
 N32 N 1.04523 0.03929 -0.07096
 N33 N 1.05352 0.06493 -0.09878
 N34 N 1.07362 0.03910 -0.04292
 N35 N 1.10198 0.06462 -0.05093
 N36 N 1.04487 -0.04004 -0.07122
 N37 N 1.05282 -0.06566 -0.09910
 Mn38 Mn 1.07375 -0.00076 0.00059
 C39 C 1.08765 -0.08185 -0.08575
 C40 C 1.08862 0.08076 -0.08550
 N41 N 0.92856 0.03948 -0.04302
 N42 N 0.90021 0.06484 -0.05123
 N43 N 0.95669 -0.03986 -0.07136
 N44 N 0.94843 -0.06524 -0.09943
 N45 N 0.92824 -0.03990 -0.04329
 N46 N 0.89986 -0.06530 -0.05151
 N47 N 0.95700 0.03952 -0.07110
 N48 N 0.94875 0.06491 -0.09916
 Mn49 Mn 0.92800 -0.00038 0.00046
 Mn50 Mn 1.00096 -0.00027 -0.07152
 Cl51 Cl 1.00087 -0.00057 0.00053
 C52 C 0.91362 0.08077 -0.08595
 C53 C 0.91326 -0.08115 -0.08624
 N54 N 1.07270 0.54053 0.54291
 N55 N 1.10028 0.56679 0.55058
 N56 N 1.04467 0.46093 0.57072
 N57 N 1.05246 0.43490 0.59818
 N58 N 1.07314 0.46122 0.54269
 N59 N 1.10111 0.43537 0.55032
 N60 N 1.04427 0.54021 0.57099
 N61 N 1.05169 0.56624 0.59854
 C62 C 1.08634 0.58280 0.58501
 C63 C 1.08739 0.41897 0.58467
 N64 N 0.92821 0.46032 0.54294
 N65 N 0.90021 0.43445 0.55088
 N66 N 0.95629 0.53972 0.57120
 N67 N 0.94850 0.56561 0.59884
 N68 N 0.92789 0.53967 0.54321
 N69 N 0.89996 0.56553 0.55101
 N70 N 0.95662 0.46039 0.57094
 N71 N 0.94874 0.43458 0.59868
 Mn72 Mn 1.00047 0.50031 0.57135
 C73 C 0.91384 0.41838 0.58537
 C74 C 0.91363 0.58169 0.58545
 N75 N 1.07317 0.46157 0.45560
 N76 N 1.10073 0.43531 0.44817
 N77 N 1.04457 0.54087 0.42774
 N78 N 1.05265 0.56649 0.39982
 N79 N 1.07299 0.54093 0.45574
 N80 N 1.10117 0.56661 0.44760
 N81 N 1.04477 0.46153 0.42761
 N82 N 1.05218 0.43524 0.40033
 Mn83 Mn 1.07342 0.50107 0.49924
 C84 C 1.08684 0.41896 0.41393
 C85 C 1.08767 0.58259 0.41300
 N86 N 0.92805 0.54000 0.45614
 N87 N 0.90025 0.56604 0.44875
 N88 N 0.95678 0.46101 0.42769
 N89 N 0.94915 0.43514 0.40000
 N90 N 0.92837 0.46070 0.45580
 N91 N 0.90063 0.43460 0.44800
 N92 N 0.95650 0.54030 0.42808
 N93 N 0.94886 0.56654 0.40083
 Mn94 Mn 0.92772 0.50017 0.49951
 Mn95 Mn 1.00064 0.50093 0.42739
 Cl96 Cl 1.00057 0.50062 0.49937
 C97 C 0.91406 0.58256 0.41452
 C98 C 0.91441 0.41867 0.41346
 N99 N 0.57168 0.03993 0.54275
 N100 N 0.60006 0.06533 0.55103
 N101 N 0.54364 -0.03950 0.57116
 N102 N 0.55187 -0.06487 0.59921
 N103 N 0.57207 -0.03944 0.54308
 N104 N 0.60043 -0.06478 0.55127
 N105 N 0.54324 0.03985 0.57082
 N106 N 0.55149 0.06518 0.59893
 C107 C 0.58662 0.08116 0.58577
 C108 C 0.58700 -0.08068 0.58600
 N109 N 0.42713 -0.04042 0.54324
 N110 N 0.39918 -0.06624 0.55146
 N111 N 0.45509 0.03923 0.57087
 N112 N 0.44694 0.06489 0.59864
 N113 N 0.42661 0.03890 0.54292
 N114 N 0.39829 0.06436 0.55097
 N115 N 0.45557 -0.04006 0.57122
 N116 N 0.44775 -0.06562 0.59923
 Mn117 Mn 0.49937 -0.00012 0.57137
 C118 C 0.41289 -0.08197 0.58609
 C119 C 0.41180 0.08059 0.58545
 N120 N 0.57196 -0.03979 0.45589
 N121 N 0.60021 -0.06530 0.44797
 N122 N 0.54313 0.03918 0.42747
 N123 N 0.55114 0.06462 0.39936
 N124 N 0.57154 0.03953 0.45549
 N125 N 0.59963 0.06521 0.44719
 N126 N 0.54351 -0.04011 0.42792
 N127 N 0.55161 -0.06585 0.40022
 Mn128 Mn 0.57219 0.00006 0.49929
 C129 C 0.58668 -0.08157 0.41354
 C130 C 0.58608 0.08089 0.41247
 N131 N 0.42660 0.03851 0.45572
 N132 N 0.39848 0.06412 0.44778
 N133 N 0.45533 -0.04078 0.42785
 N134 N 0.44694 -0.06599 0.39963
 N135 N 0.42689 -0.04087 0.45594
 N136 N 0.39839 -0.06615 0.44753
 N137 N 0.45503 0.03857 0.42764
 N138 N 0.44705 0.06422 0.39982
 Mn139 Mn 0.42642 -0.00098 0.49946
 Mn140 Mn 0.49926 -0.00079 0.42736
 Cl141 Cl 0.49931 -0.00046 0.49937
 C142 C 0.41206 0.08016 0.41319
 C143 C 0.41173 -0.08191 0.41270
 N144 N 0.45528 0.56737 -0.04128
 N145 N 0.44664 0.59412 -0.06765
 N146 N 0.42690 0.54162 0.04384
 N147 N 0.39757 0.55082 0.06954
 N148 N 0.45562 0.56761 0.04358
 N149 N 0.44661 0.59505 0.06907
 N150 N 0.42661 0.54135 -0.04107
 N151 N 0.39764 0.54977 -0.06730
 C152 C 0.41107 0.58235 -0.08404
 C153 C 0.41078 0.58381 0.08553
 N154 N 0.45542 0.43380 0.04360
 N155 N 0.44677 0.40689 0.06984
 N156 N 0.42634 0.45973 -0.04101
 N157 N 0.39721 0.45116 -0.06709
 N158 N 0.45491 0.43371 -0.04122
 N159 N 0.44603 0.40684 -0.06741
 N160 N 0.42690 0.45987 0.04387
 N161 N 0.39803 0.45130 0.07030
 Mn162 Mn 0.42632 0.50063 0.00142
 C163 C 0.41138 0.41860 0.08668
 C164 C 0.41043 0.41850 -0.08372
 N165 N 0.54375 0.56727 0.04287
 N166 N 0.55257 0.59402 0.06919
 N167 N 0.57183 0.54122 -0.04222
 N168 N 0.60082 0.54992 -0.06848
 N169 N 0.54331 0.56730 -0.04195
 N170 N 0.55212 0.59434 -0.06801
 N171 N 0.57227 0.54120 0.04266
 N172 N 0.60132 0.54960 0.06885
 Mn173 Mn 0.49950 0.56764 0.00081
 C174 C 0.58809 0.58221 0.08556
 C175 C 0.58759 0.58271 -0.08476
 N176 N 0.54300 0.43349 -0.04193
 N177 N 0.55185 0.40624 -0.06768
 N178 N 0.57215 0.45959 0.04270
 N179 N 0.60144 0.45083 0.06847
 N180 N 0.54345 0.43359 0.04293
 N181 N 0.55242 0.40653 0.06884
 N182 N 0.57169 0.45951 -0.04221
 N183 N 0.60084 0.45054 -0.06815
 Mn184 Mn 0.49918 0.43340 0.00084
 Mn185 Mn 0.57234 0.50040 0.00022
 Cl186 Cl 0.49933 0.50052 0.00083
 C187 C 0.58753 0.41765 -0.08427
 C188 C 0.58820 0.41808 0.08499
 C189 C 1.21813 0.22059 0.21863
 C190 C 1.19762 0.20065 0.19725
 C191 C 1.17371 0.17674 0.17269
 C192 C 1.15350 0.15575 0.15218
 C193 C 1.13017 0.13041 0.12874
 C194 C 1.11064 0.10804 0.10928
 C195 C 1.21664 0.72159 0.71725
 C196 C 1.19537 0.70242 0.69587
 C197 C 1.17103 0.67917 0.67116
 C198 C 1.15075 0.65849 0.65046
 C199 C 1.12765 0.63324 0.62685
 C200 C 1.10847 0.61072 0.60733
 C201 C 0.71829 0.22001 0.71850
 C202 C 0.69729 0.19997 0.69761
 C203 C 0.67307 0.17611 0.67317
 C204 C 0.65272 0.15530 0.65248
 C205 C 0.62927 0.13029 0.62862
 C206 C 0.60960 0.10829 0.60872
 C207 C 0.71943 0.71762 0.22156
 C208 C 0.69905 0.69603 0.20198
 C209 C 0.67541 0.67070 0.17890
 C210 C 0.65533 0.64931 0.15876
 C211 C 0.63190 0.62486 0.13441
 C212 C 0.61190 0.60479 0.11271
 C213 C 0.78161 -0.22120 0.21832
 C214 C 0.80227 -0.20136 0.19689
 C215 C 0.82639 -0.17762 0.17226
 C216 C 0.84682 -0.15679 0.15169
 C217 C 0.87044 -0.13166 0.12819
 C218 C 0.89023 -0.10944 0.10870
 C219 C 0.78320 0.27830 0.71752
 C220 C 0.80430 0.29797 0.69629
 C221 C 0.82850 0.32174 0.67172
 C222 C 0.84874 0.34272 0.65110
 C223 C 0.87194 0.36814 0.62748
 C224 C 0.89131 0.39062 0.60789
 C225 C 0.28193 -0.22106 0.71861
 C226 C 0.30305 -0.20113 0.69777
 C227 C 0.32733 -0.17739 0.67336
 C228 C 0.34766 -0.15660 0.65267
 C229 C 0.37093 -0.13153 0.62883
 C230 C 0.39035 -0.10937 0.60895
 C231 C 0.28030 0.28183 0.22187
 C232 C 0.30070 0.30354 0.20239
 C233 C 0.32434 0.32908 0.17948
 C234 C 0.34439 0.35070 0.15950
 C235 C 0.36775 0.37544 0.13533
 C236 C 0.38768 0.39576 0.11375
 C237 C 0.78191 0.22023 -0.21768
 C238 C 0.80264 0.20019 -0.19656
 C239 C 0.82681 0.17624 -0.17220
 C240 C 0.84725 0.15531 -0.15178
 C241 C 0.87087 0.13014 -0.12830
 C242 C 0.89065 0.10802 -0.10870
 C243 C 0.78334 0.72180 0.28363
 C244 C 0.80460 0.70258 0.30491
 C245 C 0.82894 0.67924 0.32944
 C246 C 0.84926 0.65847 0.34995
 C247 C 0.87244 0.63312 0.37329
 C248 C 0.89174 0.61054 0.39254
 C249 C 0.28128 0.22018 0.28253
 C250 C 0.30228 0.20011 0.30320
 C251 C 0.32646 0.17617 0.32733
 C252 C 0.34674 0.15521 0.34771
 C253 C 0.37000 0.12995 0.37116
 C254 C 0.38945 0.10765 0.39070
 C255 C 0.28041 0.71748 -0.22052
 C256 C 0.30070 0.69595 -0.20086
 C257 C 0.32424 0.67069 -0.17769
 C258 C 0.34423 0.64936 -0.15747
 C259 C 0.36754 0.62496 -0.13304
 C260 C 0.38743 0.60492 -0.11126
 C261 C 1.21843 -0.22136 -0.21756
 C262 C 1.19779 -0.20148 -0.19624
 C263 C 1.17372 -0.17769 -0.17175
 C264 C 1.15336 -0.15681 -0.15126
 C265 C 1.12990 -0.13161 -0.12782
 C266 C 1.11030 -0.10935 -0.10831
 C267 C 1.21624 0.27773 0.28385
 C268 C 1.19504 0.29717 0.30503
 C269 C 1.17085 0.32085 0.32940
 C270 C 1.15072 0.34196 0.34976
 C271 C 1.12782 0.36772 0.37292
 C272 C 1.10880 0.39063 0.39205
 C273 C 0.71823 -0.22080 0.28228
 C274 C 0.69715 -0.20083 0.30304
 C275 C 0.67286 -0.17703 0.32730
 C276 C 0.65249 -0.15622 0.34781
 C277 C 0.62908 -0.13112 0.37140
 C278 C 0.60949 -0.10895 0.39102
 C279 C 0.71923 0.28127 -0.21986
 C280 C 0.69877 0.30267 -0.20002
 C281 C 0.67504 0.32794 -0.17676
 C282 C 0.65492 0.34939 -0.15662
 C283 C 0.63143 0.37409 -0.13243
 C284 C 0.61140 0.39450 -0.11100
 C285 C 1.21849 0.22118 -0.21840
 C286 C 1.19807 0.20110 -0.19693
 C287 C 1.17435 0.17704 -0.17216
 C288 C 1.15430 0.15598 -0.15143
 C289 C 1.13107 0.13061 -0.12771
 C290 C 1.11152 0.10827 -0.10806
 C291 C 1.21860 0.72308 0.28082
 C292 C 1.19751 0.70325 0.30199
 C293 C 1.17331 0.67928 0.32648
 C294 C 1.15307 0.65818 0.34705
 C295 C 1.12981 0.63270 0.37068
 C296 C 1.11036 0.61025 0.39033
 C297 C 0.71832 0.22065 0.28131
 C298 C 0.69705 0.20058 0.30194
 C299 C 0.67253 0.17663 0.32601
 C300 C 0.65198 0.15570 0.34638
 C301 C 0.62842 0.13049 0.36991
 C302 C 0.60879 0.10828 0.38961
 C303 C 0.71917 0.71863 -0.22111
 C304 C 0.69869 0.69717 -0.20132
 C305 C 0.67495 0.67189 -0.17805
 C306 C 0.65484 0.65047 -0.15782
 C307 C 0.63138 0.62588 -0.13346
 C308 C 0.61139 0.60561 -0.11181
 C309 C 0.78181 -0.22034 -0.21856
 C310 C 0.80249 -0.20039 -0.19728
 C311 C 0.82660 -0.17653 -0.17276
 C312 C 0.84699 -0.15566 -0.15221
 C313 C 0.87056 -0.13053 -0.12863
 C314 C 0.89031 -0.10841 -0.10899
 C315 C 0.78360 0.27855 0.28256
 C316 C 0.80482 0.29808 0.30368
 C317 C 0.82920 0.32174 0.32802
 C318 C 0.84956 0.34271 0.34841
 C319 C 0.87281 0.36818 0.37174
 C320 C 0.89212 0.39076 0.39112
 C321 C 0.28003 -0.22142 0.28004
 C322 C 0.30101 -0.20126 0.30090
 C323 C 0.32521 -0.17720 0.32529
 C324 C 0.34553 -0.15625 0.34592
 C325 C 0.36899 -0.13110 0.36977
 C326 C 0.38868 -0.10905 0.38968
 C327 C 0.28068 0.28250 -0.22119
 C328 C 0.30084 0.30408 -0.20129
 C329 C 0.32412 0.32949 -0.17782
 C330 C 0.34385 0.35097 -0.15739
 C331 C 0.36692 0.37559 -0.13277
 C332 C 0.38669 0.39580 -0.11093
 C333 C 1.21976 -0.22157 0.21963
 C334 C 1.19909 -0.20142 0.19848
 C335 C 1.17503 -0.17731 0.17406
 C336 C 1.15471 -0.15629 0.15356
 C337 C 1.13118 -0.13104 0.12995
 C338 C 1.11143 -0.10892 0.11023
 C339 C 1.21692 0.27885 0.71641
 C340 C 1.19592 0.29836 0.69511
 C341 C 1.17192 0.32203 0.67047
 C342 C 1.15190 0.34301 0.64984
 C343 C 1.12896 0.36849 0.62629
 C344 C 1.10978 0.39107 0.60685
 C345 C 0.71837 -0.21999 0.71760
 C346 C 0.69740 -0.19991 0.69684
 C347 C 0.67320 -0.17599 0.67260
 C348 C 0.65287 -0.15511 0.65210
 C349 C 0.62947 -0.13000 0.62847
 C350 C 0.60986 -0.10790 0.60875
 C351 C 0.71990 0.28200 0.22007
 C352 C 0.69955 0.30348 0.20034
 C353 C 0.67590 0.32879 0.17720
 C354 C 0.65579 0.35023 0.15716
 C355 C 0.63228 0.37485 0.13306
 C356 C 0.61218 0.39514 0.11168
 C357 C 0.78224 0.22081 0.21779
 C358 C 0.80302 0.20074 0.19675
 C359 C 0.82726 0.17671 0.17256
 C360 C 0.84773 0.15567 0.15231
 C361 C 0.87134 0.13034 0.12905
 C362 C 0.89104 0.10803 0.10963
 C363 C 0.78320 0.72195 0.71652
 C364 C 0.80434 0.70237 0.69536
 C365 C 0.82857 0.67864 0.67095
 C366 C 0.84880 0.65764 0.65050
 C367 C 0.87195 0.63214 0.62713
 C368 C 0.89125 0.60956 0.60774
 C369 C 0.28180 0.22096 0.71748
 C370 C 0.30262 0.20081 0.69659
 C371 C 0.32653 0.17674 0.67216
 C372 C 0.34658 0.15569 0.65152
 C373 C 0.36966 0.13036 0.62777
 C374 C 0.38906 0.10806 0.60805
 C375 C 0.27920 0.72070 0.22136
 C376 C 0.29964 0.69936 0.20133
 C377 C 0.32330 0.67408 0.17788
 C378 C 0.34335 0.65257 0.15765
 C379 C 0.36678 0.62772 0.13344
 C380 C 0.38680 0.60716 0.11209
   
