data_POSCAR
  _audit_creation_date              2014-09-24
  _audit_creation_method            'ToBaCCo'
  _symmetry_space_group_name_H-M    'P1'
  _symmetry_Int_Tables_number       1
  _symmetry_cell_setting            triclinic
  loop_
  _symmetry_equiv_pos_as_xyz
 x,y,z
_cell_length_a 28.1325
_cell_length_b 28.1666
_cell_length_c 28.2292
_cell_angle_alpha 90.108200
_cell_angle_beta 90.181500
_cell_angle_gamma 89.895900
loop_
  _atom_site_label
  _atom_site_type_symbol
  _atom_site_fract_x
  _atom_site_fract_y
  _atom_site_fract_z
C1 C 0.52294 0.99998 -0.50150
 C2 C 0.47465 0.99976 -0.50151
 C3 C 0.44643 0.99996 -0.54601
 C4 C 0.44670 0.99936 -0.45701
 C5 C 0.55115 1.00030 -0.45699
 C6 C 0.55092 0.99987 -0.54597
 C7 C 0.44994 1.03739 -0.57866
 C8 C 0.41954 1.03915 -0.61801
 C9 C 0.38533 1.00357 -0.62489
 C10 C 0.38239 0.96582 -0.59281
 C11 C 0.41263 0.96413 -0.55359
 C12 C 0.41252 1.03492 -0.44945
 C13 C 0.38271 1.03308 -0.41011
 C14 C 0.38648 0.99553 -0.37796
 C15 C 0.42095 0.96021 -0.38481
 C16 C 0.45095 0.96205 -0.42426
 C17 C 0.58533 0.96469 -0.44958
 C18 C 0.61546 0.96652 -0.41028
 C19 C 0.61200 1.00410 -0.37802
 C20 C 0.57751 1.03946 -0.38470
 C21 C 0.54719 1.03762 -0.42410
 C22 C 0.54726 0.96249 -0.57883
 C23 C 0.57754 0.96078 -0.61809
 C24 C 0.61169 0.99633 -0.62464
 C25 C 0.61479 1.03400 -0.59244
 C26 C 0.58471 1.03570 -0.55329
 H27 H 0.47519 1.06581 -0.57291
 H28 H 0.42212 1.06877 -0.64233
 H29 H 0.35608 0.93808 -0.59745
 H30 H 0.40919 0.93520 -0.52860
 H31 H 0.40848 1.06375 -0.47450
 H32 H 0.35605 1.06046 -0.40528
 H33 H 0.47649 0.93382 -0.42997
 H34 H 0.58914 0.93585 -0.47473
 H35 H 0.64212 0.93910 -0.40558
 H36 H 0.57476 1.06888 -0.36008
 H37 H 0.52165 1.06589 -0.42969
 H38 H 0.52203 0.93405 -0.57330
 H39 H 0.57508 0.93129 -0.64265
 H40 H 0.64119 1.06157 -0.59705
 H41 H 0.58828 1.06460 -0.52816
 H42 H 0.42394 0.93081 -0.36029
 C43 C -0.52464 1.50093 0.00027
 C44 C -0.47642 1.50095 0.00011
 C45 C -0.44850 1.54550 0.00048
 C46 C -0.44833 1.45640 -0.00041
 C47 C -0.55253 1.45637 0.00086
 C48 C -0.55273 1.54548 -0.00014
 C49 C -0.41492 1.55320 -0.03534
 C50 C -0.38508 1.59262 -0.03351
 C51 C -0.38826 1.62464 0.00426
 C52 C -0.42217 1.61768 0.03981
 C53 C -0.45221 1.57816 0.03798
 C54 C -0.45242 1.42369 -0.03784
 C55 C -0.42234 1.38412 -0.03979
 C56 C -0.38799 1.37714 -0.00442
 C57 C -0.38439 1.40923 0.03328
 C58 C -0.41429 1.44871 0.03521
 C59 C -0.54825 1.42383 0.03831
 C60 C -0.57813 1.38422 0.04029
 C61 C -0.61247 1.37704 0.00495
 C62 C -0.61625 1.40897 -0.03276
 C63 C -0.58656 1.44848 -0.03473
 C64 C -0.58636 1.55332 0.03565
 C65 C -0.61632 1.59275 0.03384
 C66 C -0.61322 1.62469 -0.00393
 C67 C -0.57923 1.61755 -0.03947
 C68 C -0.54910 1.57800 -0.03762
 H69 H -0.41137 1.52819 -0.06432
 H70 H -0.35881 1.59757 -0.06105
 H71 H -0.42464 1.64212 0.06938
 H72 H -0.47731 1.57230 0.06637
 H73 H -0.47790 1.42954 -0.06608
 H74 H -0.42514 1.35962 -0.06929
 H75 H -0.41043 1.47374 0.06414
 H76 H -0.52278 1.42984 0.06653
 H77 H -0.57518 1.35985 0.06980
 H78 H -0.64284 1.40384 -0.06014
 H79 H -0.59056 1.47338 -0.06368
 H80 H -0.58985 1.52841 0.06462
 H81 H -0.64257 1.59772 0.06146
 H82 H -0.57668 1.64185 -0.06908
 H83 H -0.52394 1.57202 -0.06598
 H84 H -0.35779 1.40426 0.06068
 C85 C 0.00038 0.52323 0.50100
 C86 C 0.00045 0.47493 0.50096
 C87 C 0.00051 0.44674 0.45640
 C88 C 0.00039 0.44683 0.54547
 C89 C 0.00029 0.55144 0.54554
 C90 C 0.00037 0.55133 0.45649
 C91 C -0.03517 0.41269 0.44907
 C92 C -0.03353 0.38240 0.40992
 C93 C 0.00399 0.38550 0.37761
 C94 C 0.03941 0.41992 0.38421
 C95 C 0.03773 0.45039 0.42349
 C96 C -0.03692 0.45055 0.57829
 C97 C -0.03869 0.42004 0.61742
 C98 C -0.00325 0.38552 0.62395
 C99 C 0.03438 0.38238 0.59175
 C100 C 0.03610 0.41271 0.55275
 C101 C 0.03752 0.54788 0.57868
 C102 C 0.03917 0.57853 0.61783
 C103 C 0.00367 0.61304 0.62406
 C104 C -0.03390 0.61600 0.59155
 C105 C -0.03550 0.58553 0.55253
 C106 C 0.03606 0.58537 0.44950
 C107 C 0.03439 0.61565 0.41045
 C108 C -0.00313 0.61255 0.37795
 C109 C -0.03854 0.57816 0.38418
 C110 C -0.03686 0.54768 0.42335
 H111 H -0.06395 0.40909 0.47422
 H112 H -0.06110 0.35591 0.40545
 H113 H 0.06883 0.42258 0.35967
 H114 H 0.06607 0.47579 0.42899
 H115 H -0.06529 0.47601 0.57282
 H116 H -0.06820 0.42273 0.64187
 H117 H 0.06494 0.40904 0.52766
 H118 H 0.06594 0.52244 0.57344
 H119 H 0.06862 0.57597 0.64253
 H120 H -0.06153 0.64255 0.59575
 H121 H -0.06428 0.58908 0.52720
 H122 H 0.06484 0.58899 0.47484
 H123 H 0.06187 0.64219 0.40614
 H124 H -0.06792 0.57563 0.35941
 H125 H -0.06522 0.52230 0.42858
 H126 H 0.06196 0.35581 0.59618
 O127 O -0.12191 1.00196 -0.06402
 O128 O 0.12256 0.99799 -0.06358
 O129 O -0.00156 1.06448 -0.12201
 O130 O 0.00204 0.93533 -0.12211
 O131 O 0.00209 0.87763 -0.06403
 O132 O -0.00146 1.12232 -0.06384
 O133 O 0.06480 0.99799 -0.12191
 O134 O -0.06432 1.00183 -0.12215
 Zr135 Zr 0.00030 0.99995 -0.08367
 O136 O 0.04333 0.95690 -0.04294
 O137 O -0.04262 1.04309 -0.04304
 C138 C -0.10804 1.00290 -0.10772
 C139 C 0.10857 0.99696 -0.10734
 C140 C -0.00250 1.10827 -0.10758
 C141 C 0.00301 0.89158 -0.10775
 H142 H 0.06353 1.06308 -0.06287
 O143 O 0.04320 1.04287 -0.04277
 H144 H -0.06289 0.93687 -0.06321
 O145 O -0.04250 0.95712 -0.04301
 O146 O 0.12273 1.00173 0.06412
 O147 O -0.12175 0.99848 0.06364
 O148 O 0.06482 1.12209 0.00218
 O149 O 0.06490 0.87781 -0.00184
 O150 O -0.06401 0.87800 0.00175
 O151 O -0.06409 1.12228 -0.00186
 O152 O 0.00231 1.06473 0.12222
 O153 O -0.00120 0.93560 0.12210
 O154 O 0.00218 1.12244 0.06415
 O155 O -0.00121 0.87777 0.06393
 O156 O 0.12259 1.06376 0.00219
 O157 O -0.12182 1.06411 -0.00198
 O158 O -0.12177 0.93634 0.00163
 O159 O 0.12263 0.93597 -0.00164
 O160 O 0.06513 1.00190 0.12225
 O161 O -0.06401 0.99842 0.12200
 Zr162 Zr 0.08375 0.99992 0.00020
 Zr163 Zr -0.08293 1.00017 -0.00011
 Zr164 Zr 0.00038 1.08365 0.00012
 Zr165 Zr 0.00043 0.91643 -0.00002
 Zr166 Zr 0.00051 1.00013 0.08377
 O167 O -0.04248 0.95712 0.04297
 O168 O 0.04341 1.04305 0.04321
 C169 C 0.10886 1.00280 0.10783
 C170 C -0.10778 0.99749 0.10740
 C171 C 0.10857 1.10755 0.00326
 C172 C 0.10864 0.89222 -0.00275
 C173 C -0.10776 0.89256 0.00269
 C174 C -0.10783 1.10786 -0.00296
 C175 C 0.00321 1.10848 0.10787
 C176 C -0.00214 0.89182 0.10767
 H177 H -0.06277 1.06339 0.06307
 O178 O -0.04241 1.04308 0.04295
 H179 H 0.06374 0.93682 0.06320
 O180 O 0.04334 0.95709 0.04303
 C181 C 0.35472 1.00628 0.34026
 C182 C 0.32531 1.00790 0.30914
 C183 C 0.28897 1.00870 0.27316
 C184 C 0.25391 1.04411 0.27373
 C185 C 0.21709 1.04337 0.24031
 C186 C 0.21513 1.00715 0.20627
 C187 C 0.25040 0.97197 0.20548
 C188 C 0.28721 0.97271 0.23888
 C189 C 0.17699 1.00591 0.17221
 C190 C 0.14547 1.00457 0.14322
 H191 H 0.25477 1.07193 0.30027
 H192 H 0.19002 1.07077 0.24121
 H193 H 0.24925 0.94383 0.17928
 H194 H 0.31395 0.94499 0.23830
 C195 C -0.35460 0.99338 0.33724
 C196 C -0.32496 0.99195 0.30652
 C197 C -0.28836 0.99134 0.27103
 C198 C -0.25327 0.95595 0.27179
 C199 C -0.21625 0.95682 0.23883
 C200 C -0.21412 0.99313 0.20506
 C201 C -0.24941 1.02830 0.20408
 C202 C -0.28641 1.02743 0.23702
 C203 C -0.17588 0.99441 0.17137
 C204 C -0.14433 0.99575 0.14261
 H205 H -0.25428 0.92804 0.29812
 H206 H -0.18919 0.92941 0.23986
 H207 H -0.24813 1.05651 0.17808
 H208 H -0.31318 1.05513 0.23630
 C209 C -0.35438 1.00711 -0.33962
 C210 C -0.32484 1.00860 -0.30863
 C211 C -0.28836 1.00928 -0.27279
 C212 C -0.28695 0.97373 -0.23816
 C213 C -0.25007 0.97287 -0.20485
 C214 C -0.21438 1.00748 -0.20607
 C215 C -0.21599 1.04326 -0.24045
 C216 C -0.25289 1.04412 -0.27378
 C217 C -0.17620 1.00613 -0.17206
 C218 C -0.14466 1.00472 -0.14310
 H219 H -0.31403 0.94645 -0.23724
 H220 H -0.24919 0.94507 -0.17837
 H221 H -0.18860 1.07022 -0.24168
 H222 H -0.25348 1.07160 -0.30058
 C223 C 0.35321 0.99254 -0.33948
 C224 C 0.32396 0.99107 -0.30840
 C225 C 0.28782 0.99041 -0.27246
 C226 C 0.25252 0.95537 -0.27329
 C227 C 0.21590 0.95625 -0.23989
 C228 C 0.21440 0.99223 -0.20559
 C229 C 0.24991 1.02704 -0.20452
 C230 C 0.28651 1.02616 -0.23791
 C231 C 0.17645 0.99363 -0.17155
 C232 C 0.14507 0.99507 -0.14261
 H233 H 0.25303 0.92773 -0.30004
 H234 H 0.18865 0.92914 -0.24100
 H235 H 0.24910 1.05500 -0.17812
 H236 H 0.31346 1.05359 -0.23712
 C237 C 0.35431 1.33854 0.00814
 C238 C 0.32499 1.30751 0.00973
 C239 C 0.28870 1.27172 0.01044
 C240 C 0.28729 1.23699 -0.02510
 C241 C 0.25038 1.20387 -0.02610
 C242 C 0.21471 1.20544 0.00837
 C243 C 0.21633 1.23989 0.04418
 C244 C 0.25325 1.27303 0.04518
 C245 C 0.17653 1.17168 0.00685
 C246 C 0.14502 1.14286 0.00527
 H247 H 0.31436 1.23589 -0.05230
 H248 H 0.24946 1.17730 -0.05390
 H249 H 0.18892 1.24134 0.07103
 H250 H 0.25387 1.29997 0.07262
 C251 C 0.35507 0.66107 -0.00686
 C252 C 0.32566 0.69214 -0.00849
 C253 C 0.28925 0.72794 -0.00924
 C254 C 0.28707 0.76182 0.02707
 C255 C 0.25003 0.79493 0.02794
 C256 C 0.21499 0.79419 -0.00742
 C257 C 0.21738 0.76058 -0.04397
 C258 C 0.25444 0.72746 -0.04485
 C259 C 0.17670 0.82796 -0.00606
 C260 C 0.14513 0.85682 -0.00462
 H261 H 0.31364 0.76228 0.05493
 H262 H 0.24851 0.82084 0.05632
 H263 H 0.19048 0.75979 -0.07151
 H264 H 0.25566 0.70118 -0.07290
 C265 C -0.35477 0.66296 0.00735
 C266 C -0.32523 0.69379 0.00887
 C267 C -0.28866 0.72931 0.00952
 C268 C -0.28678 0.76339 -0.02649
 C269 C -0.24963 0.79623 -0.02748
 C270 C -0.21419 0.79503 0.00747
 C271 C -0.21627 0.76122 0.04372
 C272 C -0.25344 0.72836 0.04470
 C273 C -0.17584 0.82858 0.00603
 C274 C -0.14424 0.85729 0.00456
 H275 H -0.31368 0.76421 -0.05403
 H276 H -0.24835 0.82231 -0.05561
 H277 H -0.18906 0.76007 0.07094
 H278 H -0.25443 0.70193 0.07252
 C279 C -0.35454 1.33870 -0.00759
 C280 C -0.32504 1.30772 -0.00918
 C281 C -0.28853 1.27202 -0.00991
 C282 C -0.28734 1.23696 0.02518
 C283 C -0.25027 1.20389 0.02616
 C284 C -0.21422 1.20585 -0.00789
 C285 C -0.21561 1.24064 -0.04325
 C286 C -0.25270 1.27373 -0.04422
 C287 C -0.17591 1.17210 -0.00642
 C288 C -0.14433 1.14325 -0.00490
 H289 H -0.31472 1.23555 0.05205
 H290 H -0.24952 1.17706 0.05361
 H291 H -0.18791 1.24239 -0.06977
 H292 H -0.25315 1.30092 -0.07132
 C293 C 0.00668 1.35360 0.34130
 C294 C 0.00811 1.32415 0.31020
 C295 C 0.00873 1.28785 0.27414
 C296 C 0.04522 1.25390 0.27341
 C297 C 0.04452 1.21725 0.23984
 C298 C 0.00727 1.21433 0.20687
 C299 C -0.02902 1.24848 0.20739
 C300 C -0.02832 1.28511 0.24095
 C301 C 0.00614 1.17638 0.17256
 C302 C 0.00489 1.14500 0.14341
 H303 H 0.07391 1.25548 0.29906
 H304 H 0.07280 1.19109 0.23976
 H305 H -0.05797 1.24663 0.18206
 H306 H -0.05686 1.31098 0.24131
 C307 C -0.00609 1.35350 -0.33997
 C308 C -0.00769 1.32394 -0.30911
 C309 C -0.00855 1.28749 -0.27335
 C310 C -0.03986 1.24905 -0.27776
 C311 C -0.03910 1.21243 -0.24430
 C312 C -0.00696 1.21401 -0.20630
 C313 C 0.02409 1.25262 -0.20170
 C314 C 0.02333 1.28923 -0.23515
 C315 C -0.00565 1.17608 -0.17211
 C316 C -0.00428 1.14473 -0.14304
 H317 H -0.06449 1.24717 -0.30728
 H318 H -0.06331 1.18280 -0.24823
 H319 H 0.04908 1.25426 -0.17246
 H320 H 0.04789 1.31860 -0.23149
 C321 C 0.00637 0.64520 -0.33984
 C322 C 0.00780 0.67488 -0.30896
 C323 C 0.00841 0.71146 -0.27319
 C324 C 0.04477 0.74543 -0.27261
 C325 C 0.04407 0.78230 -0.23929
 C326 C 0.00693 0.78545 -0.20644
 C327 C -0.02925 0.75131 -0.20683
 C328 C -0.02854 0.71446 -0.24013
 C329 C 0.00585 0.82357 -0.17231
 C330 C 0.00464 0.85503 -0.14325
 H331 H 0.07338 0.74365 -0.29816
 H332 H 0.07227 0.80845 -0.23930
 H333 H -0.05812 0.75334 -0.18158
 H334 H -0.05700 0.68859 -0.24040
 C335 C -0.00596 0.64634 0.33977
 C336 C -0.00731 0.67595 0.30893
 C337 C -0.00784 0.71241 0.27316
 C338 C 0.02868 0.71458 0.23960
 C339 C 0.02946 0.75127 0.20626
 C340 C -0.00622 0.78606 0.20634
 C341 C -0.04293 0.78373 0.23969
 C342 C -0.04371 0.74702 0.27305
 C343 C -0.00505 0.82402 0.17218
 C344 C -0.00380 0.85536 0.14313
 H345 H 0.05676 0.68820 0.23949
 H346 H 0.05800 0.75266 0.18062
 H347 H -0.07075 0.81038 0.24008
 H348 H -0.07199 0.74587 0.29899
   
