data_POSCAR
  _audit_creation_date              2014-09-24
  _audit_creation_method            'ToBaCCo'
  _symmetry_space_group_name_H-M    'P1'
  _symmetry_Int_Tables_number       1
  _symmetry_cell_setting            triclinic
  loop_
  _symmetry_equiv_pos_as_xyz
 x,y,z
_cell_length_a 31.8070
_cell_length_b 31.8029
_cell_length_c 31.8390
_cell_angle_alpha 81.550900
_cell_angle_beta 99.185200
_cell_angle_gamma 98.626400
loop_
  _atom_site_label
  _atom_site_type_symbol
  _atom_site_fract_x
  _atom_site_fract_y
  _atom_site_fract_z
C1 C 0.60033 0.60013 -0.00003
 C2 C 0.60902 0.55778 0.00432
 C3 C 0.57533 0.52392 0.00568
 C4 C 0.53214 0.53193 0.00038
 C5 C 0.52407 0.57505 -0.00512
 C6 C 0.55795 0.60877 -0.00417
 C7 C 0.49589 0.49568 0.00058
 C8 C 0.45558 0.50109 0.01103
 C9 C 0.42159 0.46754 0.01012
 C10 C 0.42778 0.42757 0.00091
 C11 C 0.46750 0.42115 -0.00846
 C12 C 0.50103 0.45511 -0.00969
 H13 H 0.62652 0.62632 -0.00018
 H14 H 0.58330 0.49148 0.01115
 H15 H 0.49156 0.58294 -0.01044
 H16 H 0.45011 0.53105 0.02011
 H17 H 0.40160 0.40141 0.00102
 H18 H 0.53076 0.44941 -0.01891
 C19 C -0.00023 0.57354 0.42636
 C20 C -0.00931 0.58020 0.46614
 C21 C -0.01040 0.54636 0.49970
 C22 C -0.00022 0.50577 0.49455
 C23 C 0.00995 0.50013 0.45421
 C24 C 0.00884 0.53350 0.42014
 C25 C -0.00027 0.46970 0.53086
 C26 C -0.00570 0.42648 0.52292
 C27 C -0.00464 0.39298 0.55680
 C28 C -0.00043 0.40184 0.59906
 C29 C 0.00386 0.44422 0.60765
 C30 C 0.00509 0.47792 0.57399
 H31 H -0.00023 0.59961 0.40014
 H32 H -0.01943 0.55210 0.52950
 H33 H 0.01897 0.47010 0.44885
 H34 H -0.01106 0.41826 0.49056
 H35 H -0.00049 0.37580 0.62522
 H36 H 0.01049 0.51034 0.58202
 C37 C 0.57426 -0.00029 0.57258
 C38 C 0.53437 0.00883 0.57890
 C39 C 0.50050 0.00974 0.54493
 C40 C 0.50546 -0.00063 0.50444
 C41 C 0.54593 -0.01083 0.49907
 C42 C 0.58029 -0.00958 0.53264
 C43 C 0.46883 -0.00074 0.46820
 C44 C 0.47641 0.00461 0.42507
 C45 C 0.44223 0.00343 0.39139
 C46 C 0.39999 -0.00083 0.40000
 C47 C 0.39176 -0.00504 0.44231
 C48 C 0.42576 -0.00614 0.47619
 H49 H 0.60061 -0.00015 0.59886
 H50 H 0.47064 0.01876 0.55058
 H51 H 0.55117 -0.02000 0.46911
 H52 H 0.50872 0.01000 0.41704
 H53 H 0.37358 -0.00086 0.37382
 H54 H 0.41803 -0.01145 0.50856
 O55 O 0.46949 0.01048 -0.07821
 O56 O 0.46001 0.00023 0.03650
 O57 O 0.46124 0.06305 -0.02564
 O58 O 0.47020 -0.05238 -0.01614
 O59 O 0.54075 -0.03813 -0.00075
 O60 O 0.53186 0.07694 -0.01046
 O61 O 0.53056 0.01444 0.05193
 O62 O 0.54012 0.02448 -0.06315
 Cu63 Cu 0.45811 0.00383 -0.02229
 Cu64 Cu 0.54295 0.02073 -0.00398
 C65 C 0.50635 0.01913 -0.09006
 C66 C 0.49353 0.00616 0.06353
 C67 C 0.49510 0.08943 -0.01960
 C68 C 0.50715 -0.06464 -0.00734
 O69 O -0.03778 0.54081 1.00176
 O70 O 0.07751 0.53206 1.01252
 O71 O 0.01486 0.53126 0.94930
 O72 O 0.02494 0.53960 1.06496
 O73 O 0.01093 0.46906 1.07826
 O74 O 0.00064 0.46078 0.96296
 O75 O 0.06361 0.46151 1.02593
 O76 O -0.05205 0.47034 1.01539
 Cu77 Cu 0.02118 0.54304 1.00569
 Cu78 Cu 0.00428 0.45831 1.02187
 C79 C -0.06433 0.50722 1.00733
 C80 C 0.09004 0.49535 1.02092
 C81 C 0.00657 0.49445 0.93671
 C82 C 0.01955 0.50568 1.09109
 O83 O -0.02593 -0.06410 0.46026
 O84 O -0.01611 0.05141 0.46923
 O85 O 0.03654 -0.00132 0.45942
 O86 O -0.07852 -0.01142 0.46811
 O87 O -0.06389 -0.02523 0.53866
 O88 O 0.05153 -0.01533 0.52989
 O89 O -0.00117 0.03735 0.53971
 O90 O -0.01119 -0.07780 0.53081
 Cu91 Cu -0.02237 -0.00486 0.45714
 Cu92 Cu -0.00459 -0.02153 0.54189
 C93 C -0.02014 -0.09041 0.49408
 C94 C -0.00750 0.06378 0.50614
 C95 C 0.06341 -0.00718 0.49302
 C96 C -0.09064 -0.01994 0.50481
 C97 C -0.26903 0.53532 1.00645
 C98 C -0.24139 0.53447 1.05064
 C99 C -0.20013 0.52780 1.05020
 C100 C -0.19053 0.52263 1.00560
 C101 C -0.20323 0.56310 0.97670
 C102 C -0.24447 0.56976 0.97714
 C103 C -0.26539 0.49266 0.99095
 C104 C -0.22410 0.48599 0.99051
 C105 C -0.31340 0.54283 1.00669
 C106 C -0.34982 0.54961 1.00610
 C107 C -0.14593 0.51589 1.00528
 C108 C -0.10889 0.51135 1.00569
 H109 H -0.25318 0.53869 1.07972
 H110 H -0.17659 0.52631 1.07893
 H111 H -0.18173 0.58463 0.95753
 H112 H -0.25826 0.59701 0.95837
 H113 H -0.29282 0.46971 0.98122
 H114 H -0.21616 0.45734 0.98039
 C115 C 0.29814 0.48162 1.02231
 C116 C 0.26691 0.44965 0.99693
 C117 C 0.22483 0.45241 0.99801
 C118 C 0.21800 0.48686 1.02437
 C119 C 0.24264 0.52852 1.00486
 C120 C 0.28479 0.52577 1.00377
 C121 C 0.28576 0.47319 1.06776
 C122 C 0.24355 0.47596 1.06885
 C123 C 0.34320 0.47819 1.02027
 C124 C 0.37947 0.47412 1.01669
 C125 C 0.17250 0.48972 1.02480
 C126 C 0.13488 0.49212 1.02373
 H127 H 0.27698 0.42678 0.97963
 H128 H 0.19887 0.43191 0.98165
 H129 H 0.22828 0.55766 0.99302
 H130 H 0.30653 0.55252 0.99102
 H131 H 0.30813 0.46579 1.09651
 H132 H 0.22975 0.47090 1.09853
 C133 C -0.02097 -0.29839 0.47990
 C134 C -0.06345 -0.28232 0.45863
 C135 C -0.06460 -0.24015 0.46149
 C136 C -0.02317 -0.21827 0.48534
 C137 C 0.01283 -0.22581 0.46159
 C138 C 0.01398 -0.26787 0.45874
 C139 C -0.01508 -0.28801 0.52622
 C140 C -0.01624 -0.24585 0.52908
 C141 C -0.01888 -0.34344 0.47637
 C142 C -0.01530 -0.37974 0.47224
 C143 C -0.02370 -0.17279 0.48830
 C144 C -0.02275 -0.13521 0.49077
 H145 H -0.09024 -0.30231 0.44281
 H146 H -0.09239 -0.22398 0.44811
 H147 H 0.03546 -0.20033 0.44816
 H148 H 0.03761 -0.27840 0.44285
 H149 H -0.01051 -0.31167 0.55427
 H150 H -0.01265 -0.23339 0.55960
 C151 C -0.00698 0.26855 0.53415
 C152 C 0.00838 0.26456 0.49172
 C153 C 0.00884 0.22324 0.48510
 C154 C -0.00609 0.18998 0.52156
 C155 C -0.05074 0.20006 0.52621
 C156 C -0.05120 0.24136 0.53283
 C157 C 0.02251 0.24383 0.56891
 C158 C 0.02297 0.20256 0.56229
 C159 C -0.00724 0.31297 0.54160
 C160 C -0.00664 0.34943 0.54827
 C161 C -0.00573 0.14535 0.51485
 C162 C -0.00605 0.10831 0.51031
 H163 H 0.01800 0.29179 0.46889
 H164 H 0.01887 0.21507 0.45661
 H165 H -0.07948 0.17681 0.52442
 H166 H -0.08031 0.25347 0.53671
 H167 H 0.04139 0.25755 0.59632
 H168 H 0.04226 0.18095 0.58403
 C169 C 0.52077 0.02076 -0.29761
 C170 C 0.54695 -0.01058 -0.26668
 C171 C 0.54413 -0.00959 -0.22466
 C172 C 0.51539 0.02266 -0.21760
 C173 C 0.47196 0.01047 -0.24465
 C174 C 0.47479 0.00946 -0.28674
 C175 C 0.53673 0.06481 -0.28253
 C176 C 0.53390 0.06582 -0.24039
 C177 C 0.52421 0.01881 -0.34260
 C178 C 0.52815 0.01531 -0.37888
 C179 C 0.51242 0.02301 -0.17220
 C180 C 0.50985 0.02191 -0.13471
 H181 H 0.56610 -0.03172 -0.27690
 H182 H 0.56084 -0.02985 -0.19890
 H183 H 0.44165 0.00334 -0.23188
 H184 H 0.44692 0.00150 -0.31005
 H185 H 0.54908 0.09273 -0.30312
 H186 H 0.54383 0.09459 -0.22485
 C187 C 0.46464 0.00561 0.26740
 C188 C 0.46338 0.04929 0.23970
 C189 C 0.47015 0.04880 0.19859
 C190 C 0.47752 0.00468 0.18918
 C191 C 0.43816 -0.02595 0.20173
 C192 C 0.43139 -0.02546 0.24283
 C193 C 0.50835 -0.00766 0.26403
 C194 C 0.51512 -0.00815 0.22288
 C195 C 0.45710 0.00590 0.31162
 C196 C 0.45048 0.00535 0.34795
 C197 C 0.48440 0.00431 0.14476
 C198 C 0.48913 0.00465 0.10788
 H199 H 0.45771 0.07807 0.25136
 H200 H 0.47027 0.07719 0.17502
 H201 H 0.41743 -0.04627 0.18024
 H202 H 0.40486 -0.04535 0.25652
 H203 H 0.53190 -0.01592 0.29152
 H204 H 0.54445 -0.01683 0.21513
 C205 C 0.53544 -0.26927 -0.00663
 C206 C 0.49440 -0.25716 -0.03540
 C207 C 0.48769 -0.21587 -0.03503
 C208 C 0.52269 -0.19075 -0.00590
 C209 C 0.56500 -0.19465 -0.02158
 C210 C 0.57169 -0.23589 -0.02195
 C211 C 0.53113 -0.25889 0.03798
 C212 C 0.52443 -0.21762 0.03836
 C213 C 0.54299 -0.31365 -0.00679
 C214 C 0.54978 -0.35007 -0.00609
 C215 C 0.51592 -0.14615 -0.00562
 C216 C 0.51133 -0.10914 -0.00594
 H217 H 0.47253 -0.27908 -0.05437
 H218 H 0.46007 -0.20242 -0.05367
 H219 H 0.58771 -0.16738 -0.03153
 H220 H 0.60012 -0.24395 -0.03223
 H221 H 0.53312 -0.28195 0.06674
 H222 H 0.52068 -0.20534 0.06743
 C223 C 0.48128 0.29745 -0.02052
 C224 C 0.49099 0.28809 -0.06370
 C225 C 0.49375 0.24586 -0.06482
 C226 C 0.48651 0.21728 -0.02263
 C227 C 0.44271 0.22549 -0.01355
 C228 C 0.43996 0.26760 -0.01245
 C229 C 0.51664 0.27966 0.01301
 C230 C 0.51939 0.23753 0.01190
 C231 C 0.47788 0.34253 -0.01848
 C232 C 0.47389 0.37887 -0.01494
 C233 C 0.48938 0.17179 -0.02312
 C234 C 0.49181 0.13421 -0.02217
 H235 H 0.49533 0.31242 -0.09093
 H236 H 0.50045 0.23400 -0.09301
 H237 H 0.41614 0.20043 -0.00851
 H238 H 0.41101 0.27861 -0.00645
 H239 H 0.53774 0.29853 0.03558
 H240 H 0.54284 0.22031 0.03354
 C241 C -0.29852 -0.02116 0.51870
 C242 C -0.26880 -0.01799 0.56145
 C243 C -0.22672 -0.01907 0.55863
 C244 C -0.21843 -0.02321 0.51335
 C245 C -0.23752 0.01434 0.48449
 C246 C -0.27960 0.01542 0.48731
 C247 C -0.29022 -0.06243 0.50352
 C248 C -0.24804 -0.06351 0.50069
 C249 C -0.34353 -0.01914 0.52223
 C250 C -0.37977 -0.01558 0.52641
 C251 C -0.17297 -0.02364 0.51044
 C252 C -0.13541 -0.02262 0.50803
 H253 H -0.27986 -0.01523 0.59135
 H254 H -0.20175 -0.01723 0.58610
 H255 H -0.21958 0.03798 0.46360
 H256 H -0.29771 0.03996 0.46883
 H257 H -0.31521 -0.08844 0.49567
 H258 H -0.23686 -0.09046 0.49043
 C259 C 0.26774 -0.00708 0.46508
 C260 C 0.24072 -0.05137 0.46696
 C261 C 0.19954 -0.05080 0.47359
 C262 C 0.18938 -0.00598 0.47769
 C263 C 0.20117 0.02204 0.43667
 C264 C 0.24233 0.02146 0.43004
 C265 C 0.26442 0.00944 0.50725
 C266 C 0.22320 0.01002 0.51389
 C267 C 0.31203 -0.00745 0.45762
 C268 C 0.34837 -0.00695 0.45090
 C269 C 0.14486 -0.00552 0.48440
 C270 C 0.10789 -0.00577 0.48891
 H271 H 0.25287 -0.08061 0.46345
 H272 H 0.17641 -0.07957 0.47575
 H273 H 0.17913 0.04072 0.41474
 H274 H 0.25553 0.03965 0.40243
 H275 H 0.29200 0.01975 0.52991
 H276 H 0.21548 0.02082 0.54221
 C277 C 0.02048 0.51921 1.29906
 C278 C 0.02327 0.56279 1.27087
 C279 C 0.02441 0.56001 1.22881
 C280 C 0.02265 0.51392 1.21900
 C281 C -0.01804 0.48958 1.23570
 C282 C -0.01918 0.49236 1.27776
 C283 C 0.05897 0.49870 1.29163
 C284 C 0.06011 0.49591 1.24946
 C285 C 0.01840 0.52274 1.34407
 C286 C 0.01483 0.52703 1.38028
 C287 C 0.02316 0.51108 1.17353
 C288 C 0.02220 0.50876 1.13593
 H289 H 0.02435 0.59321 1.28293
 H290 H 0.02646 0.58802 1.20484
 H291 H -0.04369 0.47164 1.21621
 H292 H -0.04579 0.47679 1.29429
 H293 H 0.08312 0.48739 1.31716
 H294 H 0.08527 0.48221 1.23886
 C295 C 0.00603 0.46714 0.73190
 C296 C 0.03867 0.44407 0.76450
 C297 C 0.03819 0.45059 0.80576
 C298 C 0.00511 0.47955 0.81045
 C299 C -0.03794 0.45827 0.78910
 C300 C -0.03745 0.45175 0.74783
 C301 C 0.01623 0.51447 0.73925
 C302 C 0.01575 0.52100 0.78056
 C303 C 0.00632 0.45976 0.68749
 C304 C 0.00578 0.45300 0.65109
 C305 C 0.00475 0.48612 0.85509
 C306 C 0.00507 0.49050 0.89214
 H307 H 0.06028 0.42437 0.75594
 H308 H 0.05941 0.43645 0.83253
 H309 H -0.06632 0.44916 0.80497
 H310 H -0.06544 0.43705 0.72838
 H311 H 0.02321 0.54055 0.71422
 H312 H 0.02231 0.55266 0.79091
   
