data_POSCAR
  _audit_creation_date              2014-09-24
  _audit_creation_method            'ToBaCCo'
  _symmetry_space_group_name_H-M    'P1'
  _symmetry_Int_Tables_number       1
  _symmetry_cell_setting            triclinic
  loop_
  _symmetry_equiv_pos_as_xyz
 x,y,z
_cell_length_a 24.5861
_cell_length_b 23.7354
_cell_length_c 24.6550
_cell_angle_alpha 84.960000
_cell_angle_beta 89.007400
_cell_angle_gamma 89.298400
loop_
  _atom_site_label
  _atom_site_type_symbol
  _atom_site_fract_x
  _atom_site_fract_y
  _atom_site_fract_z
C1 C 0.32936 0.30692 0.23591
 H2 H 0.33496 0.30084 0.27934
 C3 C 0.36337 0.34377 0.20432
 H4 H 0.39429 0.36680 0.22370
 C5 C 0.28488 0.28222 0.15706
 H6 H 0.25553 0.25719 0.13825
 C7 C 0.31778 0.31889 0.12398
 H8 H 0.31257 0.32264 0.08027
 N9 N 0.28974 0.27841 0.21224
 C10 C 0.14337 0.27791 0.29771
 H11 H 0.12423 0.24867 0.27313
 C12 C 0.11078 0.31444 0.32586
 H13 H 0.06698 0.31359 0.32209
 C14 C 0.22304 0.31431 0.33386
 H15 H 0.26663 0.31353 0.33777
 C16 C 0.19197 0.35098 0.36324
 H17 H 0.21192 0.37845 0.38938
 Zn18 Zn 0.24230 0.23259 0.25884
 N19 N 0.19858 0.27931 0.30110
 C20 C 0.28053 0.18066 0.35973
 N21 N 0.28627 0.18353 0.30453
 C22 C 0.32613 0.15399 0.28016
 C23 C 0.36316 0.12088 0.31162
 C24 C 0.31689 0.14821 0.39274
 C25 C 0.16395 0.21863 0.17908
 C26 C 0.13148 0.18883 0.14593
 C27 C 0.16240 0.10178 0.19459
 C28 C 0.19509 0.13319 0.22613
 N29 N 0.19619 0.19051 0.21711
 H30 H 0.24837 0.20421 0.37823
 H31 H 0.32985 0.15731 0.23621
 H32 H 0.39549 0.09841 0.29195
 H33 H 0.31289 0.14699 0.43664
 H34 H 0.16427 0.26436 0.17388
 H35 H 0.10747 0.21153 0.11451
 H36 H 0.16226 0.05609 0.20157
 H37 H 0.21979 0.11175 0.25756
 C38 C 0.13527 0.35221 0.35822
 C39 C 0.35656 0.35117 0.14786
 C40 C 0.13169 0.12969 0.15271
 C41 C 0.35904 0.11859 0.36847
 C42 C 0.83730 0.81523 0.22132
 H43 H 0.84701 0.80509 0.26368
 C44 C 0.87045 0.85213 0.18869
 H45 H 0.90505 0.87087 0.20662
 C46 C 0.78086 0.80285 0.14653
 H47 H 0.74689 0.78284 0.12948
 C48 C 0.81207 0.84059 0.11281
 H49 H 0.80153 0.84901 0.07034
 N50 N 0.79299 0.79192 0.20014
 C51 C 0.64824 0.78020 0.29105
 H52 H 0.62996 0.75118 0.26559
 C53 C 0.61503 0.81034 0.32510
 H54 H 0.57133 0.80522 0.32450
 C55 C 0.72689 0.82215 0.32353
 H56 H 0.77062 0.82617 0.32310
 C57 C 0.69522 0.85217 0.35910
 H58 H 0.71474 0.87943 0.38574
 Zn59 Zn 0.74960 0.74270 0.24770
 N60 N 0.70320 0.78637 0.29092
 C61 C 0.78426 0.69006 0.34872
 N62 N 0.79647 0.69846 0.29457
 C63 C 0.84255 0.67640 0.27315
 C64 C 0.87927 0.64553 0.30690
 C65 C 0.81983 0.65935 0.38390
 C66 C 0.67077 0.71628 0.17153
 C67 C 0.64344 0.68175 0.13833
 C68 C 0.69287 0.60106 0.17993
 C69 C 0.71980 0.63728 0.21196
 N70 N 0.70897 0.69393 0.20674
 H71 H 0.74699 0.70725 0.36469
 H72 H 0.85101 0.68346 0.22990
 H73 H 0.91627 0.62875 0.28971
 H74 H 0.81017 0.65321 0.42703
 H75 H 0.66192 0.76119 0.16879
 H76 H 0.61347 0.70004 0.11005
 H77 H 0.70188 0.55612 0.18412
 H78 H 0.74970 0.62004 0.24060
 C79 C 0.63862 0.84555 0.36088
 C80 C 0.85676 0.86697 0.13411
 C81 C 0.65499 0.62364 0.14204
 C82 C 0.86822 0.63755 0.36295
 C83 C 0.80628 0.33154 0.72316
 H84 H 0.80425 0.33245 0.76694
 C85 C 0.84483 0.36398 0.69288
 H86 H 0.87239 0.39012 0.71325
 C87 C 0.77446 0.29453 0.64339
 H88 H 0.74824 0.26612 0.62445
 C89 C 0.81260 0.32638 0.61145
 H90 H 0.81513 0.32291 0.56797
 N91 N 0.77196 0.29777 0.69826
 C92 C 0.65053 0.27134 0.82880
 H93 H 0.64993 0.22563 0.83444
 C94 C 0.62157 0.30326 0.86484
 H95 H 0.59799 0.28202 0.89790
 C96 C 0.68258 0.35489 0.77940
 H97 H 0.70620 0.37497 0.74595
 C98 C 0.65464 0.38839 0.81478
 H99 H 0.65729 0.43402 0.80858
 Zn100 Zn 0.72666 0.25162 0.74619
 N101 N 0.68142 0.29745 0.78796
 C102 C 0.78517 0.22454 0.84371
 N103 N 0.77599 0.20957 0.79269
 C104 C 0.80672 0.16896 0.77101
 C105 C 0.84720 0.14010 0.80148
 C106 C 0.82688 0.19840 0.87490
 C107 C 0.65246 0.22403 0.66541
 C108 C 0.62486 0.18804 0.63340
 C109 C 0.65682 0.10827 0.69223
 C110 C 0.68387 0.14564 0.72292
 N111 N 0.68304 0.20228 0.70798
 H112 H 0.76124 0.25798 0.85975
 H113 H 0.80021 0.15943 0.72952
 H114 H 0.87119 0.10837 0.78256
 H115 H 0.83248 0.21038 0.91583
 H116 H 0.65104 0.26927 0.65514
 H117 H 0.60232 0.20564 0.59842
 H118 H 0.65903 0.06321 0.70376
 H119 H 0.70602 0.12910 0.75836
 C120 C 0.62500 0.36249 0.85902
 C121 C 0.84864 0.36087 0.63655
 C122 C 0.62833 0.12932 0.64590
 C123 C 0.85946 0.15580 0.85380
 C124 C 0.29925 0.83200 0.73874
 H125 H 0.29257 0.83656 0.78163
 C126 C 0.33719 0.86602 0.70907
 H127 H 0.35982 0.89695 0.72901
 C128 C 0.27982 0.78421 0.66086
 H129 H 0.25863 0.75114 0.64272
 C130 C 0.31754 0.81732 0.62968
 H131 H 0.32496 0.81004 0.58741
 N132 N 0.27163 0.79198 0.71444
 C133 C 0.15602 0.76923 0.84818
 H134 H 0.16495 0.72658 0.86500
 C135 C 0.12501 0.80531 0.87852
 H136 H 0.11141 0.79080 0.91933
 C137 C 0.16335 0.84036 0.77485
 H138 H 0.17863 0.85380 0.73445
 C139 C 0.13041 0.87681 0.80267
 H140 H 0.12042 0.91839 0.78354
 Zn141 Zn 0.22680 0.74403 0.76090
 N142 N 0.17735 0.78858 0.79883
 C143 C 0.28094 0.71232 0.86103
 N144 N 0.27551 0.70179 0.80803
 C145 C 0.30848 0.66358 0.78510
 C146 C 0.34713 0.63239 0.81629
 C147 C 0.31894 0.68205 0.89366
 C148 C 0.15510 0.71888 0.67946
 C149 C 0.12612 0.68436 0.64745
 C150 C 0.15749 0.60276 0.70453
 C151 C 0.18590 0.63877 0.73535
 N152 N 0.18561 0.69552 0.72133
 H153 H 0.25718 0.74527 0.87785
 H154 H 0.30478 0.65749 0.74236
 H155 H 0.37303 0.60199 0.79770
 H156 H 0.32278 0.69060 0.93586
 H157 H 0.15459 0.76426 0.67004
 H158 H 0.10367 0.70297 0.61281
 H159 H 0.15937 0.55746 0.71475
 H160 H 0.20848 0.62122 0.77015
 C161 C 0.11394 0.86071 0.85656
 C162 C 0.34693 0.85821 0.65416
 C163 C 0.12832 0.62564 0.65941
 C164 C 0.35274 0.64191 0.87111
 C165 C 0.00048 0.01705 -0.00259
 C166 C 0.01521 0.49465 0.50532
 C167 C 0.50959 -0.02037 0.50958
 C168 C 0.50483 0.50252 0.01144
 C169 C 0.10901 -0.04387 -0.10395
 C170 C 0.08704 -0.09786 -0.10958
 C171 C 0.03795 -0.11258 -0.08329
 C172 C 0.01115 -0.07589 -0.05063
 C173 C 0.03160 -0.02168 -0.04255
 C174 C 0.07924 -0.00414 -0.07432
 C175 C 0.16112 -0.02905 -0.12569
 C176 C 0.18119 0.02516 -0.12351
 C177 C 0.15028 0.06539 -0.09914
 C178 C 0.10034 0.05079 -0.07478
 H179 H 0.18746 -0.05924 -0.14377
 H180 H 0.22085 0.03598 -0.14085
 H181 H 0.16562 0.10780 -0.09781
 H182 H 0.07953 0.08271 -0.05537
 H183 H 0.01988 -0.15321 -0.08815
 H184 H -0.02712 -0.09054 -0.03285
 C185 C 0.11076 0.45034 0.38444
 C186 C 0.10183 0.39148 0.38863
 C187 C 0.06174 0.36877 0.42420
 C188 C 0.03363 0.40225 0.45872
 C189 C 0.04679 0.45973 0.46283
 C190 C 0.08422 0.48474 0.42190
 C191 C 0.14553 0.47567 0.34324
 C192 C 0.15645 0.53318 0.34026
 C193 C 0.13335 0.56635 0.37828
 C194 C 0.09807 0.54248 0.41849
 H195 H 0.16412 0.45141 0.31258
 H196 H 0.18341 0.55194 0.30869
 H197 H 0.14293 0.61086 0.37682
 H198 H 0.08365 0.56960 0.44766
 H199 H 0.05243 0.32413 0.42590
 H200 H 0.00119 0.38137 0.48208
 C201 C 0.56562 -0.15210 0.43536
 C202 C 0.60417 -0.12414 0.39947
 C203 C 0.60675 -0.06530 0.39643
 C204 C 0.57457 -0.03440 0.43034
 C205 C 0.53800 -0.06051 0.46964
 C206 C 0.52798 -0.11986 0.46544
 C207 C 0.56271 -0.21177 0.44085
 C208 C 0.51920 -0.23893 0.46828
 C209 C 0.47723 -0.20718 0.48897
 C210 C 0.48083 -0.14845 0.48642
 H211 H 0.59357 -0.23790 0.42340
 H212 H 0.51685 -0.28461 0.47132
 H213 H 0.44154 -0.22808 0.50700
 H214 H 0.44504 -0.12684 0.49950
 H215 H 0.63461 -0.04287 0.36789
 H216 H 0.58070 0.01062 0.42753
 C217 C 0.60895 0.39076 -0.04467
 C218 C 0.59776 0.39729 -0.10095
 C219 C 0.55907 0.43710 -0.11994
 C220 C 0.53063 0.46966 -0.08464
 C221 C 0.53778 0.46345 -0.02735
 C222 C 0.57751 0.42147 -0.00737
 C223 C 0.65133 0.35424 -0.02476
 C224 C 0.66035 0.34447 0.03078
 C225 C 0.62707 0.37016 0.06752
 C226 C 0.58607 0.40762 0.04890
 H227 H 0.67815 0.33306 -0.05185
 H228 H 0.69266 0.31599 0.04540
 H229 H 0.63287 0.36089 0.11083
 H230 H 0.56027 0.42336 0.07965
 H231 H 0.55086 0.44345 -0.16312
 H232 H 0.50446 0.50153 -0.10435
 C233 C -0.06218 0.15640 -0.08494
 C234 C -0.10028 0.12855 -0.11636
 C235 C -0.09685 0.06974 -0.11564
 C236 C -0.06362 0.03830 -0.07977
 C237 C -0.02796 0.06253 -0.04403
 C238 C -0.02464 0.12400 -0.04964
 C239 C -0.05690 0.21604 -0.09253
 C240 C -0.01937 0.24429 -0.06390
 C241 C 0.01594 0.21400 -0.02919
 C242 C 0.01433 0.15524 -0.02309
 H243 H -0.08022 0.24169 -0.12231
 H244 H -0.01647 0.28989 -0.07010
 H245 H 0.04642 0.23611 -0.00829
 H246 H 0.04700 0.13664 0.00029
 H247 H -0.12463 0.04652 -0.13884
 H248 H -0.06878 -0.00692 -0.07806
 C249 C -0.05926 0.63389 0.43517
 C250 C -0.09243 0.60658 0.39950
 C251 C -0.08658 0.54892 0.39587
 C252 C -0.05081 0.51710 0.42892
 C253 C -0.01744 0.54075 0.46742
 C254 C -0.01928 0.60214 0.46746
 C255 C -0.06387 0.69314 0.43725
 C256 C -0.02912 0.72186 0.46863
 C257 C 0.01227 0.69275 0.49659
 C258 C 0.01797 0.63446 0.49506
 H259 H -0.09376 0.71818 0.41389
 H260 H -0.03305 0.76724 0.46956
 H261 H 0.04120 0.71570 0.51863
 H262 H 0.05448 0.61766 0.51309
 H263 H -0.11131 0.52778 0.36802
 H264 H -0.05130 0.47190 0.42596
 C265 C 0.44526 0.11385 0.42339
 C266 C 0.40024 0.08703 0.40229
 C267 C 0.39661 0.02850 0.40913
 C268 C 0.43396 -0.00343 0.44054
 C269 C 0.47654 0.02134 0.46798
 C270 C 0.48601 0.08078 0.45299
 C271 C 0.45176 0.17291 0.41301
 C272 C 0.49883 0.19900 0.42795
 C273 C 0.54099 0.16662 0.45136
 C274 C 0.53533 0.10839 0.46248
 H275 H 0.42109 0.19931 0.39216
 H276 H 0.50348 0.24420 0.41930
 H277 H 0.57883 0.18659 0.46014
 H278 H 0.57147 0.08619 0.47593
 H279 H 0.36370 0.00724 0.39085
 H280 H 0.42749 -0.04841 0.44572
 C281 C 0.43585 0.63853 -0.06945
 C282 C 0.39425 0.61065 -0.09499
 C283 C 0.38830 0.55268 -0.08406
 C284 C 0.42330 0.52168 -0.04922
 C285 C 0.46623 0.54660 -0.02219
 C286 C 0.46871 0.60815 -0.02893
 C287 C 0.44430 0.69695 -0.08298
 C288 C 0.47985 0.72696 -0.05361
 C289 C 0.50587 0.69995 -0.00912
 C290 C 0.49942 0.64208 0.00388
 H291 H 0.42310 0.72006 -0.11617
 H292 H 0.48540 0.77181 -0.06396
 H293 H 0.53076 0.72409 0.01607
 H294 H 0.51685 0.62682 0.04183
 H295 H 0.35610 0.53091 -0.10292
 H296 H 0.41775 0.47635 -0.04499
 C297 C -0.13480 -0.04334 0.07411
 C298 C -0.11207 -0.09322 0.10147
 C299 C -0.05587 -0.10142 0.09931
 C300 C -0.02291 -0.06543 0.06648
 C301 C -0.04322 -0.01752 0.03473
 C302 C -0.09987 -0.00304 0.04417
 C303 C -0.19067 -0.02965 0.08111
 C304 C -0.21201 0.02209 0.06048
 C305 C -0.17785 0.06288 0.03586
 C306 C -0.12261 0.05133 0.02967
 H307 H -0.21840 -0.05736 0.10460
 H308 H -0.25474 0.03174 0.06644
 H309 H -0.19386 0.10461 0.02326
 H310 H -0.09877 0.08748 0.01701
 H311 H -0.03716 -0.13803 0.12127
 H312 H 0.01963 -0.07638 0.06528
 C313 C -0.05268 0.37551 0.60854
 C314 C -0.10796 0.39177 0.60456
 C315 C -0.12233 0.44021 0.57211
 C316 C -0.08329 0.47227 0.54259
 C317 C -0.02731 0.45638 0.54145
 C318 C -0.01200 0.40815 0.57821
 C319 C -0.03717 0.32680 0.64217
 C320 C 0.01722 0.31101 0.64748
 C321 C 0.05704 0.34297 0.61923
 C322 C 0.04265 0.39052 0.58513
 H323 H -0.06687 0.30033 0.66460
 H324 H 0.02849 0.27376 0.67355
 H325 H 0.09940 0.33055 0.62326
 H326 H 0.07500 0.41216 0.56375
 H327 H -0.16443 0.45433 0.57063
 H328 H -0.09845 0.51105 0.52189
 C329 C 0.44537 -0.12822 0.62529
 C330 C 0.39052 -0.11014 0.62328
 C331 C 0.37663 -0.06092 0.59170
 C332 C 0.41531 -0.03160 0.55900
 C333 C 0.46970 -0.05160 0.55356
 C334 C 0.48553 -0.09828 0.59170
 C335 C 0.46089 -0.17622 0.65982
 C336 C 0.51488 -0.19422 0.66233
 C337 C 0.55419 -0.16500 0.63056
 C338 C 0.53965 -0.11794 0.59586
 H339 H 0.43152 -0.20019 0.68529
 H340 H 0.52624 -0.23095 0.68905
 H341 H 0.59622 -0.17908 0.63246
 H342 H 0.57122 -0.09802 0.57207
 H343 H 0.33512 -0.04504 0.59209
 H344 H 0.40128 0.00742 0.53773
 C345 C 0.38994 0.45046 0.12009
 C346 C 0.39053 0.39191 0.11374
 C347 C 0.42349 0.37123 0.07356
 C348 C 0.45790 0.40659 0.04158
 C349 C 0.46395 0.46475 0.04966
 C350 C 0.42657 0.48716 0.08851
 C351 C 0.35231 0.47344 0.15644
 C352 C 0.35134 0.53096 0.16314
 C353 C 0.38753 0.56666 0.13385
 C354 C 0.42439 0.54516 0.09721
 H355 H 0.32267 0.44742 0.17944
 H356 H 0.32237 0.54789 0.19120
 H357 H 0.38709 0.61140 0.13946
 H358 H 0.45155 0.57468 0.07695
 H359 H 0.42259 0.32676 0.06667
 H360 H 0.47925 0.38656 0.00984
 C361 C 0.12660 0.05680 0.08397
 C362 C 0.10106 0.09715 0.11506
 C363 C 0.04472 0.10414 0.11324
 C364 C 0.01413 0.07556 0.07773
 C365 C 0.03849 0.03913 0.04157
 C366 C 0.09437 0.02259 0.05250
 C367 C 0.18368 0.04870 0.08467
 C368 C 0.20777 0.00269 0.06214
 C369 C 0.17540 -0.03670 0.04022
 C370 C 0.11942 -0.02771 0.03657
 H371 H 0.21014 0.07725 0.10330
 H372 H 0.25139 -0.00370 0.06384
 H373 H 0.19371 -0.07445 0.02581
 H374 H 0.09711 -0.06176 0.02210
 H375 H 0.02430 0.13326 0.13850
 H376 H -0.02874 0.08540 0.07599
 C377 C 0.13591 0.55804 0.58615
 C378 C 0.10384 0.58793 0.62234
 C379 C 0.04790 0.58068 0.62485
 C380 C 0.02256 0.54789 0.58910
 C381 C 0.05184 0.52007 0.54881
 C382 C 0.11086 0.52020 0.55209
 C383 C 0.19302 0.56493 0.58393
 C384 C 0.22591 0.53202 0.55273
 C385 C 0.20290 0.49056 0.52466
 C386 C 0.14668 0.48389 0.52513
 H387 H 0.21295 0.59541 0.60676
 H388 H 0.26959 0.53735 0.55190
 H389 H 0.22882 0.46281 0.50273
 H390 H 0.13374 0.44780 0.50594
 H391 H 0.02320 0.60263 0.65332
 H392 H -0.02143 0.54823 0.59036
 C393 C 0.63378 0.05117 0.58143
 C394 C 0.60292 0.08974 0.61044
 C395 C 0.54663 0.08956 0.60774
 C396 C 0.52031 0.05271 0.57664
 C397 C 0.54822 0.01293 0.54616
 C398 C 0.60719 0.01027 0.55135
 C399 C 0.69124 0.05324 0.58166
 C400 C 0.72283 0.01416 0.55628
 C401 C 0.69806 -0.02825 0.53097
 C402 C 0.64157 -0.03065 0.52893
 H403 H 0.71247 0.08529 0.60133
 H404 H 0.76677 0.01613 0.55722
 H405 H 0.72283 -0.05995 0.51293
 H406 H 0.62723 -0.06707 0.51132
 H407 H 0.52250 0.11884 0.62976
 H408 H 0.47659 0.05732 0.57480
 C409 C 0.63206 0.59062 0.05042
 C410 C 0.62542 0.58681 0.10758
 C411 C 0.58581 0.55181 0.13242
 C412 C 0.54981 0.52403 0.10167
 C413 C 0.55000 0.53111 0.04390
 C414 C 0.59411 0.56373 0.01793
 C415 C 0.67519 0.62222 0.02500
 C416 C 0.68024 0.62937 -0.03142
 C417 C 0.64182 0.60649 -0.06344
 C418 C 0.59904 0.57490 -0.03929
 H419 H 0.70537 0.64164 0.04861
 H420 H 0.71337 0.65390 -0.05037
 H421 H 0.64458 0.61407 -0.10734
 H422 H 0.56873 0.56263 -0.06638
 H423 H 0.58144 0.54733 0.17641
 H424 H 0.52150 0.49691 0.12484
   
