data_POSCAR
  _audit_creation_date              2014-09-24
  _audit_creation_method            'ToBaCCo'
  _symmetry_space_group_name_H-M    'P1'
  _symmetry_Int_Tables_number       1
  _symmetry_cell_setting            triclinic
  loop_
  _symmetry_equiv_pos_as_xyz
 x,y,z
_cell_length_a 28.3941
_cell_length_b 28.5134
_cell_length_c 28.4147
_cell_angle_alpha 73.293400
_cell_angle_beta 101.845300
_cell_angle_gamma 77.705500
loop_
  _atom_site_label
  _atom_site_type_symbol
  _atom_site_fract_x
  _atom_site_fract_y
  _atom_site_fract_z
O1 O 0.57100 0.46888 0.01173
 O2 O 0.43978 0.48213 0.01482
 O3 O 0.51148 0.41000 0.01248
 O4 O 0.49892 0.54126 0.01380
 O5 O 0.47320 0.57147 -0.07080
 O6 O 0.48637 0.44057 -0.07216
 O7 O 0.41420 0.51249 -0.06976
 O8 O 0.54537 0.49903 -0.07290
 Cu9 Cu 0.50787 0.47259 0.02170
 Cu10 Cu 0.47722 0.50899 -0.07984
 C11 C 0.58047 0.48190 -0.03119
 C12 C 0.40463 0.49902 -0.02695
 C13 C 0.50070 0.40309 -0.03023
 C14 C 0.48418 0.57867 -0.02834
 O15 O -0.03518 0.59917 0.47327
 O16 O -0.05729 0.47538 0.47921
 O17 O -0.05678 0.52921 0.53938
 O18 O -0.03698 0.54557 0.41259
 O19 O 0.04430 0.50753 0.44885
 O20 O 0.02435 0.49062 0.57611
 O21 O 0.02394 0.43681 0.51529
 O22 O 0.04592 0.56043 0.50978
 Cu23 Cu -0.05472 0.54127 0.47247
 Cu24 Cu 0.04279 0.49487 0.51629
 C25 C 0.00912 0.60084 0.49093
 C26 C -0.02028 0.43514 0.49755
 C27 C -0.01961 0.50765 0.57927
 C28 C 0.00688 0.52887 0.40911
 O29 O 0.50736 0.03562 0.56714
 O30 O 0.49195 0.05862 0.42960
 O31 O 0.43149 0.05566 0.48791
 O32 O 0.56725 0.03896 0.50880
 O33 O 0.58061 -0.04378 0.52317
 O34 O 0.44510 -0.02726 0.50336
 O35 O 0.50480 -0.02414 0.44449
 O36 O 0.52099 -0.04718 0.58202
 Cu37 Cu 0.49811 0.05554 0.49686
 Cu38 Cu 0.51415 -0.04388 0.51470
 C39 C 0.51671 -0.00969 0.59805
 C40 C 0.49617 0.02104 0.41371
 C41 C 0.41527 0.01687 0.49266
 C42 C 0.59697 -0.00514 0.51914
 C43 C 0.48839 -0.02211 -0.04265
 C44 C 0.48122 -0.06281 -0.00505
 C45 C 0.47480 -0.05622 0.04067
 C46 C 0.47735 -0.01137 0.05087
 C47 C 0.48521 0.02911 0.01371
 C48 C 0.48987 0.02327 -0.03278
 H49 H 0.49221 0.05544 -0.06276
 H50 H 0.46752 -0.08637 0.06896
 C51 C -0.00934 0.49638 1.05135
 C52 C -0.04564 0.48810 1.01484
 C53 C -0.03431 0.48275 0.97042
 C54 C 0.01243 0.48457 0.96188
 C55 C 0.04951 0.49056 0.99946
 C56 C 0.03793 0.49670 1.04350
 H57 H 0.06605 0.50199 1.07193
 H58 H -0.06235 0.47759 0.94181
 C59 C 0.04492 0.02548 0.48174
 C60 C 0.00913 0.06374 0.48867
 C61 C -0.03818 0.05707 0.49057
 C62 C -0.05101 0.01361 0.48512
 C63 C -0.01581 -0.02386 0.47652
 C64 C 0.03135 -0.01702 0.47431
 H65 H 0.05742 -0.04462 0.46547
 H66 H -0.06529 0.08593 0.49679
 C67 C -0.36752 0.47750 0.96662
 C68 C -0.32801 0.46739 1.00996
 C69 C -0.27585 0.46483 1.00792
 C70 C -0.24386 0.47643 1.04482
 C71 C -0.19457 0.47498 1.04358
 C72 C -0.17618 0.46134 1.00553
 C73 C -0.20768 0.44814 0.96969
 C74 C -0.25705 0.45003 0.97066
 C75 C -0.12433 0.45922 1.00259
 C76 C -0.09642 0.48831 1.02118
 H77 H -0.33617 0.46440 1.04616
 H78 H -0.25722 0.48710 1.07444
 H79 H -0.17091 0.48372 1.07293
 H80 H -0.19416 0.43670 0.94052
 H81 H -0.28003 0.43912 0.94267
 H82 H -0.10840 0.43502 0.98320
 H83 H -0.36090 0.48502 0.92935
 H84 H -0.11230 0.51265 1.04040
 C85 C 0.35501 0.50226 0.97351
 C86 C 0.34183 0.48517 1.01892
 C87 C 0.29019 0.48409 1.02047
 C88 C 0.28393 0.45096 1.06442
 C89 C 0.23604 0.44834 1.06752
 C90 C 0.19318 0.47889 1.02680
 C91 C 0.19924 0.51303 0.98312
 C92 C 0.24724 0.51556 0.97998
 C93 C 0.14318 0.47517 1.03243
 C94 C 0.09913 0.49371 0.99171
 H95 H 0.37124 0.46859 1.05504
 H96 H 0.31629 0.42665 1.09638
 H97 H 0.23250 0.42216 1.10188
 H98 H 0.16720 0.53867 0.95167
 H99 H 0.25026 0.54298 0.94624
 H100 H 0.14145 0.45486 1.07034
 H101 H 0.32656 0.51638 0.93695
 H102 H 0.10102 0.50940 0.95295
 C103 C 0.01804 -0.35304 0.49092
 C104 C -0.02038 -0.30693 0.47248
 C105 C -0.01195 -0.25877 0.47700
 C106 C -0.04612 -0.21198 0.44349
 C107 C -0.03973 -0.16577 0.44721
 C108 C 0.00071 -0.16564 0.48524
 C109 C 0.03473 -0.21247 0.51880
 C110 C 0.02837 -0.25858 0.51506
 C111 C 0.00962 -0.11790 0.49048
 C112 C -0.02716 -0.07059 0.47043
 H113 H -0.05807 -0.30571 0.45343
 H114 H -0.07756 -0.21116 0.41396
 H115 H -0.06608 -0.13052 0.41973
 H116 H 0.06612 -0.21342 0.54848
 H117 H 0.05458 -0.29381 0.54274
 H118 H 0.04633 -0.12071 0.51346
 H119 H 0.05640 -0.35378 0.50661
 H120 H -0.06524 -0.06825 0.45209
 C121 C -0.02917 0.38661 0.49633
 C122 C 0.01023 0.34197 0.51071
 C123 C 0.00306 0.29477 0.50244
 C124 C 0.03920 0.24778 0.53201
 C125 C 0.03408 0.20259 0.52440
 C126 C -0.00710 0.20380 0.48631
 C127 C -0.04297 0.25090 0.45655
 C128 C -0.03792 0.29595 0.46424
 C129 C -0.01530 0.15717 0.47737
 C130 C 0.02113 0.10966 0.49630
 H131 H 0.04799 0.34154 0.52855
 H132 H 0.07125 0.24597 0.56147
 H133 H 0.06203 0.16705 0.54898
 H134 H -0.07499 0.25294 0.42690
 H135 H -0.06569 0.33157 0.43944
 H136 H -0.05181 0.16086 0.45334
 H137 H -0.06757 0.38694 0.48158
 H138 H 0.05936 0.10603 0.51571
 C139 C 0.52183 -0.01898 -0.34992
 C140 C 0.51856 0.02001 -0.32902
 C141 C 0.52110 0.01161 -0.27450
 C142 C 0.53533 0.04675 -0.25292
 C143 C 0.53643 0.04130 -0.20221
 C144 C 0.52232 0.00120 -0.17224
 C145 C 0.50845 -0.03439 -0.19360
 C146 C 0.50771 -0.02916 -0.24428
 C147 C 0.52250 -0.00195 -0.11924
 C148 C 0.49213 -0.02521 -0.09317
 H149 H 0.51526 0.05835 -0.35326
 H150 H 0.54562 0.07859 -0.27540
 H151 H 0.54744 0.06912 -0.18662
 H152 H 0.49843 -0.06649 -0.17138
 H153 H 0.49556 -0.05645 -0.25983
 H154 H 0.54541 0.01750 -0.10122
 H155 H 0.52886 -0.05806 -0.32526
 H156 H 0.46859 -0.04391 -0.11128
 C157 C 0.49202 0.03032 0.35909
 C158 C 0.49453 -0.00908 0.33893
 C159 C 0.49442 -0.00246 0.28524
 C160 C 0.48034 -0.03794 0.26410
 C161 C 0.48164 -0.03446 0.21436
 C162 C 0.49746 0.00456 0.18470
 C163 C 0.51231 0.03962 0.20606
 C164 C 0.51059 0.03640 0.25575
 C165 C 0.50124 0.00795 0.13269
 C166 C 0.47029 -0.00903 0.10049
 H167 H 0.49574 -0.04657 0.36341
 H168 H 0.46858 -0.06874 0.28633
 H169 H 0.47165 -0.06331 0.19995
 H170 H 0.52538 0.06952 0.18425
 H171 H 0.52326 0.06348 0.27127
 H172 H 0.52933 0.02429 0.11959
 H173 H 0.48719 0.06893 0.33462
 H174 H 0.44258 -0.02579 0.11388
 C175 C 0.48009 -0.36881 -0.02875
 C176 C 0.49642 -0.35835 0.01594
 C177 C 0.49585 -0.30642 0.01681
 C178 C 0.52665 -0.30203 0.05979
 C179 C 0.52732 -0.25398 0.06246
 C180 C 0.49713 -0.20904 0.02226
 C181 C 0.46546 -0.21328 -0.02052
 C182 C 0.46486 -0.26145 -0.02322
 C183 C 0.49854 -0.15901 0.02762
 C184 C 0.47992 -0.11206 -0.01290
 H185 H 0.51297 -0.39018 0.05185
 H186 H 0.55055 -0.33596 0.09141
 H187 H 0.55166 -0.25196 0.09613
 H188 H 0.44023 -0.17977 -0.05153
 H189 H 0.43925 -0.26304 -0.05621
 H190 H 0.51716 -0.15957 0.06516
 H191 H 0.46622 -0.33831 -0.06560
 H192 H 0.46603 -0.11173 -0.05129
 C193 C 0.50439 0.35142 -0.03209
 C194 C 0.51028 0.30944 0.01107
 C195 C 0.51176 0.25788 0.00869
 C196 C 0.49627 0.22416 0.04487
 C197 C 0.49650 0.17553 0.04302
 C198 C 0.51276 0.15959 0.00505
 C199 C 0.52973 0.19275 -0.03003
 C200 C 0.52914 0.24138 -0.02842
 C201 C 0.51399 0.10857 0.00132
 C202 C 0.48424 0.07898 0.02072
 H203 H 0.51062 0.31527 0.04717
 H204 H 0.48351 0.23565 0.07437
 H205 H 0.48473 0.15048 0.07181
 H206 H 0.54324 0.18110 -0.05911
 H207 H 0.54305 0.26553 -0.05581
 H208 H 0.53851 0.09445 -0.01929
 H209 H 0.49938 0.34722 -0.06931
 H210 H 0.45968 0.09225 0.04160
 C211 C -0.34907 -0.01189 0.52551
 C212 C -0.32835 0.02853 0.52374
 C213 C -0.27526 0.02448 0.52512
 C214 C -0.25315 0.05893 0.54110
 C215 C -0.20378 0.05773 0.54082
 C216 C -0.17589 0.02281 0.52348
 C217 C -0.19776 -0.01213 0.50793
 C218 C -0.24703 -0.01120 0.50859
 C219 C -0.12432 0.02393 0.52233
 C220 C -0.10124 0.00823 0.48826
 H221 H -0.35189 0.06470 0.52195
 H222 H -0.27419 0.08691 0.55377
 H223 H -0.18764 0.08485 0.55323
 H224 H -0.17698 -0.04043 0.49553
 H225 H -0.26312 -0.03766 0.49499
 H226 H -0.10483 0.04009 0.54768
 H227 H -0.32549 -0.04946 0.53132
 H228 H -0.12091 -0.00708 0.46234
 C229 C 0.36131 0.02339 0.48655
 C230 C 0.34247 -0.01864 0.49760
 C231 C 0.28950 -0.01484 0.49685
 C232 C 0.27843 -0.05827 0.52477
 C233 C 0.22912 -0.05665 0.52537
 C234 C 0.18954 -0.01165 0.49783
 C235 C 0.20039 0.03180 0.46901
 C236 C 0.24992 0.03022 0.46859
 C237 C 0.13788 -0.01274 0.49921
 C238 C 0.09569 0.03020 0.48001
 H239 H 0.36855 -0.05667 0.51077
 H240 H 0.30815 -0.09358 0.54654
 H241 H 0.22189 -0.09084 0.54751
 H242 H 0.17103 0.06684 0.44600
 H243 H 0.25671 0.06400 0.44527
 H244 H 0.13310 -0.04958 0.51794
 H245 H 0.33695 0.06171 0.47632
 H246 H 0.09982 0.06802 0.46537
 C247 C 0.01469 0.53305 1.35872
 C248 C -0.02561 0.54586 1.31532
 C249 C -0.01896 0.54412 1.26555
 C250 C -0.05645 0.53431 1.23234
 C251 C -0.05072 0.53066 1.18573
 C252 C -0.00742 0.53728 1.17129
 C253 C 0.02912 0.54910 1.20358
 C254 C 0.02362 0.55226 1.25042
 C255 C 0.00043 0.53310 1.12266
 C256 C -0.01957 0.50221 1.09887
 H257 H -0.06345 0.55295 1.31912
 H258 H -0.08997 0.52874 1.24284
 H259 H -0.08052 0.52334 1.16095
 H260 H 0.06238 0.55524 1.19282
 H261 H 0.05246 0.56157 1.27433
 H262 H 0.02448 0.55367 1.10625
 H263 H 0.05294 0.52169 1.35686
 H264 H -0.04322 0.48131 1.11554
 C265 C -0.02824 0.50412 0.62922
 C266 C 0.01102 0.48583 0.67447
 C267 C 0.00359 0.48869 0.72376
 C268 C 0.03945 0.45570 0.76975
 C269 C 0.03415 0.45830 0.81690
 C270 C -0.00692 0.49469 0.81879
 C271 C -0.04265 0.52770 0.77275
 C272 C -0.03739 0.52504 0.72575
 C273 C -0.01470 0.49915 0.86747
 C274 C 0.02255 0.47832 0.91446
 H275 H 0.04873 0.46878 0.67384
 H276 H 0.07146 0.42752 0.76922
 H277 H 0.06196 0.43133 0.85145
 H278 H -0.07456 0.55616 0.77306
 H279 H -0.06499 0.55234 0.69119
 H280 H -0.05107 0.52237 0.86562
 H281 H -0.06659 0.51817 0.62968
 H282 H 0.06048 0.45934 0.91637
   
