data_POSCAR
  _audit_creation_date              2014-09-24
  _audit_creation_method            'ToBaCCo'
  _symmetry_space_group_name_H-M    'P1'
  _symmetry_Int_Tables_number       1
  _symmetry_cell_setting            triclinic
  loop_
  _symmetry_equiv_pos_as_xyz
 x,y,z
_cell_length_a 31.6312
_cell_length_b 31.6738
_cell_length_c 31.6501
_cell_angle_alpha 89.960600
_cell_angle_beta 90.059100
_cell_angle_gamma 89.969800
loop_
  _atom_site_label
  _atom_site_type_symbol
  _atom_site_fract_x
  _atom_site_fract_y
  _atom_site_fract_z
C1 C 0.24523 0.90661 -0.04204
 C2 C 0.24525 0.88530 -0.00279
 C3 C 0.24805 0.90764 0.03560
 C4 C 0.25135 0.95185 0.03499
 C5 C 0.25086 0.97382 -0.00404
 C6 C 0.24755 0.95133 -0.04268
 C7 C 0.24666 0.97429 -0.08085
 C8 C 0.24877 1.01825 -0.08099
 C9 C 0.25227 1.04102 -0.04301
 C10 C 0.25363 1.01852 -0.00426
 C11 C 0.25517 0.97467 0.07289
 C12 C 0.25833 1.01810 0.07263
 C13 C 0.25748 1.04068 0.03447
 C14 C 0.26012 1.08497 0.03425
 C15 C 0.25843 1.10701 -0.00392
 C16 C 0.25434 1.08567 -0.04242
 H17 H 0.24408 0.95842 -0.11103
 H18 H 0.24774 1.03432 -0.11119
 H19 H 0.25587 0.95926 0.10341
 H20 H 0.26130 1.03382 0.10286
 H21 H 0.24318 0.85112 -0.00205
 H22 H 0.25993 1.14130 -0.00363
 C23 C 0.74367 0.40452 0.45887
 C24 C 0.74366 0.38359 0.49827
 C25 C 0.74702 0.40631 0.53640
 C26 C 0.75101 0.45045 0.53524
 C27 C 0.75050 0.47192 0.49593
 C28 C 0.74652 0.44907 0.45765
 C29 C 0.74554 0.47146 0.41917
 C30 C 0.74827 0.51539 0.41841
 C31 C 0.75256 0.53848 0.45605
 C32 C 0.75402 0.51648 0.49506
 C33 C 0.75559 0.47370 0.57279
 C34 C 0.75958 0.51706 0.57186
 C35 C 0.75873 0.53903 0.53338
 C36 C 0.76219 0.58314 0.53248
 C37 C 0.76033 0.60476 0.49413
 C38 C 0.75533 0.58300 0.45603
 H39 H 0.74240 0.45524 0.38924
 H40 H 0.74714 0.53113 0.38805
 H41 H 0.75631 0.45867 0.60350
 H42 H 0.76316 0.53317 0.60181
 H43 H 0.74122 0.34946 0.49926
 H44 H 0.76235 0.63898 0.49398
 C45 C 0.74944 1.03354 0.90571
 C46 C 0.75269 0.99507 0.88368
 C47 C 0.75374 0.95619 0.90542
 C48 C 0.75159 0.95584 0.95004
 C49 C 0.74836 0.99456 0.97226
 C50 C 0.74722 1.03336 0.95001
 C51 C 0.74399 1.07142 0.97263
 C52 C 0.74220 1.07148 1.01617
 C53 C 0.74351 1.03349 1.03891
 C54 C 0.74643 0.99464 1.01696
 C55 C 0.75264 0.91783 0.97313
 C56 C 0.75072 0.91793 1.01711
 C57 C 0.74768 0.95607 1.03967
 C58 C 0.74599 0.95699 1.08433
 C59 C 0.74329 0.99566 1.10550
 C60 C 0.74213 1.03361 1.08316
 H61 H 0.74287 1.10180 0.95700
 H62 H 0.73981 1.10178 1.03180
 H63 H 0.75505 0.88759 0.95739
 H64 H 0.75171 0.88784 1.03334
 H65 H 0.75445 0.99540 0.84947
 H66 H 0.74232 0.99635 1.13980
 C67 C 0.24750 0.53457 0.40587
 C68 C 0.24995 0.49581 0.38417
 C69 C 0.25088 0.45705 0.40623
 C70 C 0.24936 0.45723 0.45094
 C71 C 0.24698 0.49624 0.47284
 C72 C 0.24601 0.53484 0.45023
 C73 C 0.24369 0.57317 0.47257
 C74 C 0.24256 0.57369 0.51617
 C75 C 0.24362 0.53593 0.53926
 C76 C 0.24570 0.49683 0.51759
 C77 C 0.25024 0.41947 0.47444
 C78 C 0.24890 0.42008 0.51848
 C79 C 0.24669 0.45847 0.54064
 C80 C 0.24554 0.45977 0.58525
 C81 C 0.24365 0.49862 0.60616
 C82 C 0.24275 0.53648 0.58359
 H83 H 0.24279 0.60341 0.45666
 H84 H 0.24086 0.60416 0.53156
 H85 H 0.25201 0.38904 0.45898
 H86 H 0.24970 0.39017 0.53504
 H87 H 0.25121 0.49580 0.34994
 H88 H 0.24302 0.49941 0.64044
 C89 C 0.90493 0.24632 0.04243
 C90 C 0.88315 0.24770 0.00350
 C91 C 0.90518 0.25066 -0.03510
 C92 C 0.94964 0.25218 -0.03492
 C93 C 0.97191 0.25084 0.00394
 C94 C 0.94963 0.24799 0.04272
 C95 C 0.97272 0.24683 0.08076
 C96 C 1.01674 0.24838 0.08069
 C97 C 1.03939 0.25103 0.04255
 C98 C 1.01671 0.25225 0.00389
 C99 C 0.97243 0.25490 -0.07301
 C100 C 1.01600 0.25610 -0.07303
 C101 C 1.03879 0.25475 -0.03499
 C102 C 1.08318 0.25575 -0.03501
 C103 C 1.10539 0.25468 0.00310
 C104 C 1.08409 0.25244 0.04175
 H105 H 0.95695 0.24471 0.11102
 H106 H 1.03295 0.24738 0.11083
 H107 H 0.95684 0.25607 -0.10345
 H108 H 1.03168 0.25811 -0.10337
 H109 H 0.84888 0.24638 0.00332
 H110 H 1.13975 0.25550 0.00266
 C111 C 0.40604 0.75115 0.46573
 C112 C 0.38436 0.74877 0.50453
 C113 C 0.40652 0.74746 0.54326
 C114 C 0.45124 0.74863 0.54303
 C115 C 0.47308 0.75087 0.50396
 C116 C 0.45041 0.75211 0.46538
 C117 C 0.47271 0.75418 0.42698
 C118 C 0.51632 0.75489 0.42639
 C119 C 0.53946 0.75369 0.46416
 C120 C 0.51784 0.75179 0.50331
 C121 C 0.47481 0.74758 0.58080
 C122 C 0.51886 0.74867 0.58012
 C123 C 0.54095 0.75073 0.54166
 C124 C 0.58556 0.75172 0.54026
 C125 C 0.60644 0.75339 0.50140
 C126 C 0.58379 0.75430 0.46358
 H127 H 0.45676 0.75521 0.39673
 H128 H 0.53169 0.75642 0.39588
 H129 H 0.45939 0.74590 0.61127
 H130 H 0.53549 0.74780 0.61002
 H131 H 0.35010 0.74785 0.50459
 H132 H 0.64075 0.75394 0.50056
 C133 C 0.03478 0.74108 -0.08467
 C134 C -0.00335 0.74255 -0.10683
 C135 C -0.04191 0.74647 -0.08557
 C136 C -0.04262 0.74865 -0.04090
 C137 C -0.00390 0.74747 -0.01830
 C138 C 0.03490 0.74374 -0.04038
 C139 C 0.07305 0.74301 -0.01771
 C140 C 0.07322 0.74615 0.02572
 C141 C 0.03524 0.74986 0.04846
 C142 C -0.00377 0.75028 0.02641
 C143 C -0.08069 0.75207 -0.01822
 C144 C -0.08063 0.75427 0.02578
 C145 C -0.04247 0.75351 0.04883
 C146 C -0.04189 0.75587 0.09357
 C147 C -0.00266 0.75588 0.11499
 C148 C 0.03577 0.75310 0.09269
 H149 H 0.10334 0.74014 -0.03336
 H150 H 0.10374 0.74553 0.04118
 H151 H -0.11087 0.75297 -0.03436
 H152 H -0.11086 0.75679 0.04158
 H153 H -0.00297 0.74099 -0.14114
 H154 H -0.00197 0.75791 0.14919
 C155 C 0.45832 0.25610 0.59574
 C156 C 0.49776 0.25596 0.61675
 C157 C 0.53596 0.25261 0.59406
 C158 C 0.53482 0.24885 0.54986
 C159 C 0.49552 0.24948 0.52830
 C160 C 0.45717 0.25338 0.55112
 C161 C 0.41871 0.25442 0.52861
 C162 C 0.41802 0.25184 0.48462
 C163 C 0.45572 0.24769 0.46156
 C164 C 0.49472 0.24619 0.48367
 C165 C 0.57243 0.24441 0.52663
 C166 C 0.57157 0.24072 0.48322
 C167 C 0.53311 0.24168 0.46115
 C168 C 0.53233 0.23853 0.41699
 C169 C 0.49399 0.24037 0.39526
 C170 C 0.45580 0.24511 0.41695
 H171 H 0.38874 0.25748 0.54481
 H172 H 0.38768 0.25300 0.46880
 H173 H 0.60314 0.24360 0.54170
 H174 H 0.60157 0.23726 0.46714
 H175 H 0.49872 0.25830 0.65091
 H176 H 0.49393 0.23853 0.36101
 C177 C 0.91700 -0.03434 0.26177
 C178 C 0.89473 0.00362 0.26002
 C179 C 0.91594 0.04206 0.25549
 C180 C 0.96052 0.04284 0.25302
 C181 C 0.98318 0.00427 0.25441
 C182 C 0.96119 -0.03443 0.25878
 C183 C 0.98380 -0.07250 0.25967
 C184 C 1.02722 -0.07267 0.25588
 C185 C 1.04989 -0.03474 0.25141
 C186 C 1.02782 0.00418 0.25103
 C187 C 0.98300 0.08088 0.24902
 C188 C 1.02699 0.08091 0.24638
 C189 C 1.05012 0.04283 0.24719
 C190 C 1.09481 0.04227 0.24425
 C191 C 1.11629 0.00316 0.24403
 C192 C 1.09405 -0.03522 0.24731
 H193 H 0.96816 -0.10270 0.26310
 H194 H 1.04272 -0.10313 0.25659
 H195 H 0.96673 0.11095 0.24799
 H196 H 1.04272 0.11111 0.24341
 H197 H 0.86045 0.00319 0.26167
 H198 H 1.15048 0.00251 0.24145
 C199 C 0.41654 0.46729 0.76342
 C200 C 0.39486 0.50563 0.76166
 C201 C 0.41660 0.54377 0.75675
 C202 C 0.46122 0.54379 0.75394
 C203 C 0.48330 0.50482 0.75533
 C204 C 0.46073 0.46648 0.76000
 C205 C 0.48278 0.42806 0.76080
 C206 C 0.52620 0.42717 0.75674
 C207 C 0.54945 0.46470 0.75210
 C208 C 0.52794 0.50398 0.75170
 C209 C 0.48435 0.58141 0.74965
 C210 C 0.52837 0.58068 0.74679
 C211 C 0.55083 0.54225 0.74765
 C212 C 0.59547 0.54104 0.74457
 C213 C 0.61637 0.50164 0.74444
 C214 C 0.59364 0.46354 0.74790
 H215 H 0.46668 0.39812 0.76440
 H216 H 0.54127 0.39649 0.75742
 H217 H 0.46857 0.61174 0.74859
 H218 H 0.54462 0.61058 0.74364
 H219 H 0.36060 0.50573 0.76363
 H220 H 0.65053 0.50063 0.74179
 C221 C 1.04349 0.91705 0.74628
 C222 C 1.00482 0.89574 0.74398
 C223 C 0.96669 0.91784 0.74322
 C224 C 0.96662 0.96211 0.74458
 C225 C 1.00545 0.98429 0.74711
 C226 C 1.04420 0.96172 0.74801
 C227 C 1.08230 0.98443 0.75073
 C228 C 1.08226 1.02839 0.75262
 C229 C 1.04412 1.05144 0.75178
 C230 C 1.00536 1.02904 0.74889
 C231 C 0.92848 0.98463 0.74358
 C232 C 0.92832 1.02817 0.74514
 C233 C 0.96635 1.05113 0.74788
 C234 C 0.96596 1.09554 0.74972
 C235 C 1.00452 1.11769 0.75270
 C236 C 1.04366 1.09616 0.75379
 H237 H 1.11249 0.96831 0.75150
 H238 H 1.11253 1.04419 0.75477
 H239 H 0.89821 0.96880 0.74156
 H240 H 0.89781 1.04362 0.74424
 H241 H 1.00429 0.86146 0.74294
 H242 H 1.00407 1.15192 0.75423
 C243 C 0.54004 0.41469 0.24574
 C244 C 0.50112 0.39392 0.24398
 C245 C 0.46335 0.41662 0.24325
 C246 C 0.46401 0.46087 0.24408
 C247 C 0.50323 0.48238 0.24609
 C248 C 0.54155 0.45923 0.24698
 C249 C 0.58009 0.48119 0.24919
 C250 C 0.58086 0.52517 0.25063
 C251 C 0.54312 0.54877 0.24981
 C252 C 0.50398 0.52705 0.24739
 C253 C 0.42627 0.48404 0.24306
 C254 C 0.42695 0.52758 0.24412
 C255 C 0.46542 0.54976 0.24640
 C256 C 0.46588 0.59406 0.24782
 C257 C 0.50475 0.61562 0.25036
 C258 C 0.54344 0.59340 0.25140
 H259 H 0.60997 0.46452 0.24992
 H260 H 0.61139 0.54050 0.25241
 H261 H 0.39571 0.46875 0.24140
 H262 H 0.39672 0.54357 0.24322
 H263 H 0.50020 0.35967 0.24333
 H264 H 0.50489 0.64982 0.25161
 O265 O 0.26355 0.14249 0.17588
 O266 O 0.31489 0.13454 0.23723
 O267 O 0.15329 0.18513 0.23936
 O268 O 0.13674 0.24099 0.28357
 O269 O 0.20134 0.25118 0.12882
 O270 O 0.26047 0.30091 0.11950
 O271 O 0.25798 0.31179 0.34582
 O272 O 0.20840 0.25119 0.35620
 O273 O 0.36766 0.24970 0.29794
 O274 O 0.37623 0.19820 0.23336
 O275 O 0.31956 0.35730 0.24004
 O276 O 0.25627 0.36736 0.18698
 O277 O 0.25872 0.36086 0.29335
 O278 O 0.21615 0.37454 0.23702
 O279 O 0.36953 0.30555 0.24078
 O280 O 0.38633 0.25133 0.19772
 O281 O 0.31684 0.25307 0.34864
 O282 O 0.26341 0.20872 0.36448
 O283 O 0.26165 0.19512 0.12680
 O284 O 0.30532 0.25266 0.11500
 O285 O 0.14996 0.24653 0.17897
 O286 O 0.13661 0.29269 0.23665
 O287 O 0.20646 0.13665 0.23572
 O288 O 0.26002 0.12586 0.28188
 Zr289 Zr 0.26067 0.17393 0.23533
 O290 O 0.29722 0.21064 0.27717
 Zr291 Zr 0.18393 0.24537 0.23639
 O292 O 0.21936 0.28726 0.27498
 Zr293 Zr 0.25850 0.24979 0.16254
 O294 O 0.29855 0.28774 0.19893
 Zr295 Zr 0.26008 0.25229 0.31383
 O296 O 0.22264 0.20986 0.27721
 Zr297 Zr 0.33480 0.25028 0.24022
 O298 O 0.30022 0.21198 0.19823
 Zr299 Zr 0.26073 0.32481 0.23842
 O300 O 0.21986 0.28841 0.19979
 O301 O 0.22041 0.20850 0.19666
 O302 O 0.30008 0.29093 0.27901
 C303 C 0.26364 0.15641 0.13754
 C304 C 0.16746 0.14673 0.23857
 C305 C 0.16259 0.24971 0.14054
 C306 C 0.25763 0.35034 0.33225
 C307 C 0.35549 0.25113 0.33652
 C308 C 0.35810 0.34408 0.24073
 H309 H 0.31438 0.19163 0.29510
 H310 H 0.31649 0.30489 0.17998
 H311 H 0.20280 0.19020 0.17843
 H312 H 0.19985 0.30483 0.29188
 H313 H 0.19086 0.22641 0.34857
 H314 H 0.14399 0.26131 0.30616
 H315 H 0.37596 0.26423 0.17120
 H316 H 0.32912 0.23489 0.12486
 H317 H 0.27126 0.18117 0.35219
 H318 H 0.24189 0.13615 0.30519
 H319 H 0.28401 0.36806 0.17259
 H320 H 0.23630 0.31958 0.12625
 H321 H 0.30736 0.10665 0.22515
 H322 H 0.37831 0.18380 0.26104
 H323 H 0.14616 0.31510 0.21705
 H324 H 0.18983 0.36344 0.24967
 O325 O 0.74980 0.86986 0.20125
 O326 O 0.69974 0.87904 0.26041
 O327 O 0.85872 0.82198 0.26409
 O328 O 0.87194 0.76589 0.30941
 O329 O 0.81509 0.76098 0.15249
 O330 O 0.75120 0.71246 0.13967
 O331 O 0.75148 0.70149 0.36792
 O332 O 0.80120 0.75797 0.37835
 O333 O 0.64317 0.75918 0.31984
 O334 O 0.63323 0.81241 0.25672
 O335 O 0.68917 0.65276 0.25895
 O336 O 0.74298 0.64241 0.20898
 O337 O 0.74645 0.65094 0.31705
 O338 O 0.79835 0.64075 0.26178
 O339 O 0.64016 0.70548 0.25872
 O340 O 0.62541 0.76187 0.21695
 O341 O 0.69506 0.75682 0.36968
 O342 O 0.74425 0.80428 0.38350
 O343 O 0.75256 0.81985 0.14971
 O344 O 0.71067 0.76195 0.13362
 O345 O 0.86359 0.76204 0.20561
 O346 O 0.87302 0.71496 0.26029
 O347 O 0.80620 0.87121 0.26181
 O348 O 0.74672 0.88543 0.30326
 Zr349 Zr 0.75105 0.83618 0.25835
 O350 O 0.71306 0.80012 0.29866
 Zr351 Zr 0.82668 0.76321 0.26010
 O352 O 0.78978 0.72205 0.29720
 Zr353 Zr 0.75493 0.76263 0.18367
 O354 O 0.71328 0.72471 0.21968
 Zr355 Zr 0.75026 0.75883 0.33492
 O356 O 0.78896 0.80041 0.30021
 Zr357 Zr 0.67564 0.76085 0.26101
 O358 O 0.71195 0.79919 0.21977
 Zr359 Zr 0.74828 0.68539 0.25996
 O360 O 0.79063 0.72158 0.22178
 O361 O 0.79227 0.80215 0.21996
 O362 O 0.70973 0.72029 0.30003
 C363 C 0.75019 0.85823 0.16250
 C364 C 0.84487 0.86029 0.26424
 C365 C 0.85353 0.76058 0.16657
 C366 C 0.74919 0.66301 0.35568
 C367 C 0.65645 0.75758 0.35834
 C368 C 0.65064 0.66653 0.25819
 H369 H 0.69620 0.81911 0.31686
 H370 H 0.69560 0.70788 0.20014
 H371 H 0.81059 0.82047 0.20246
 H372 H 0.80863 0.70380 0.31422
 H373 H 0.81906 0.78286 0.37208
 H374 H 0.86491 0.74382 0.33038
 H375 H 0.63693 0.75093 0.19007
 H376 H 0.68567 0.77774 0.14380
 H377 H 0.76089 0.82908 0.37461
 H378 H 0.76650 0.87853 0.32647
 H379 H 0.76847 0.64618 0.19131
 H380 H 0.77790 0.69629 0.14170
 H381 H 0.68131 0.87269 0.23593
 H382 H 0.63273 0.82678 0.28446
 H383 H 0.86041 0.69053 0.24544
 H384 H 0.78580 0.61222 0.26488
 O385 O 0.75360 0.13549 0.80044
 O386 O 0.71712 0.12070 0.74456
 O387 O 0.86561 0.19992 0.75299
 O388 O 0.87967 0.25590 0.71591
 O389 O 0.80086 0.24739 0.86479
 O390 O 0.74528 0.28449 0.87879
 O391 O 0.74914 0.30146 0.63791
 O392 O 0.78916 0.24795 0.62341
 O393 O 0.63790 0.25095 0.69879
 O394 O 0.62390 0.21070 0.75222
 O395 O 0.69903 0.36252 0.74787
 O396 O 0.75032 0.37328 0.79293
 O397 O 0.74850 0.35478 0.68598
 O398 O 0.80492 0.36471 0.74427
 O399 O 0.64585 0.31414 0.74918
 O400 O 0.63500 0.25003 0.80424
 O401 O 0.68595 0.25101 0.64544
 O402 O 0.74994 0.19590 0.63459
 O403 O 0.74788 0.18234 0.85459
 O404 O 0.69489 0.24500 0.86495
 O405 O 0.85512 0.25305 0.81800
 O406 O 0.86526 0.30605 0.75521
 O407 O 0.81885 0.14567 0.74740
 O408 O 0.75590 0.13530 0.69421
 Zr409 Zr 0.75674 0.17420 0.74852
 O410 O 0.71186 0.20980 0.71408
 Zr411 Zr 0.82649 0.25165 0.75597
 O412 O 0.79030 0.28594 0.71154
 Zr413 Zr 0.74909 0.24414 0.82583
 O414 O 0.71434 0.28840 0.78995
 Zr415 Zr 0.74745 0.24877 0.67543
 O416 O 0.79286 0.21408 0.71096
 Zr417 Zr 0.67574 0.25263 0.75125
 O418 O 0.71163 0.20770 0.78608
 Zr419 Zr 0.75140 0.32461 0.74717
 O420 O 0.78663 0.28910 0.79215
 O421 O 0.79219 0.20867 0.79152
 O422 O 0.70976 0.29026 0.70962
 C423 C 0.74975 0.14435 0.83928
 C424 C 0.85690 0.16103 0.74930
 C425 C 0.83975 0.25118 0.85602
 C426 C 0.74843 0.34022 0.64760
 C427 C 0.64754 0.25128 0.66001
 C428 C 0.66025 0.35261 0.74831
 H429 H 0.69336 0.19057 0.69780
 H430 H 0.69799 0.30688 0.80912
 H431 H 0.81030 0.19066 0.80963
 H432 H 0.80937 0.30250 0.69310
 H433 H 0.81795 0.24695 0.63559
 H434 H 0.86928 0.24914 0.68721
 H435 H 0.63112 0.27912 0.81496
 H436 H 0.68061 0.21738 0.86170
 H437 H 0.72083 0.18511 0.63087
 H438 H 0.78361 0.13854 0.68005
 H439 H 0.76844 0.36356 0.81652
 H440 H 0.74923 0.31345 0.86772
 H441 H 0.68820 0.13096 0.75064
 H442 H 0.63623 0.18203 0.75380
 H443 H 0.86111 0.32074 0.78251
 H444 H 0.79550 0.39232 0.73287
 O445 O 0.23997 0.84734 0.81512
 O446 O 0.28844 0.85953 0.75350
 O447 O 0.12993 0.79946 0.74796
 O448 O 0.11664 0.74639 0.70292
 O449 O 0.17670 0.73725 0.85842
 O450 O 0.23854 0.68805 0.86895
 O451 O 0.23927 0.68037 0.64288
 O452 O 0.18712 0.73978 0.63333
 O453 O 0.34626 0.74109 0.68869
 O454 O 0.35733 0.79064 0.75373
 O455 O 0.29773 0.63225 0.75071
 O456 O 0.23567 0.62121 0.80031
 O457 O 0.24098 0.63073 0.69490
 O458 O 0.19488 0.61633 0.75166
 O459 O 0.34875 0.68281 0.74872
 O460 O 0.36527 0.73954 0.79159
 O461 O 0.29392 0.73973 0.63943
 O462 O 0.24309 0.78364 0.62592
 O463 O 0.23796 0.79438 0.86370
 O464 O 0.28139 0.73785 0.87584
 O465 O 0.12768 0.74037 0.80572
 O466 O 0.11810 0.69288 0.74939
 O467 O 0.18046 0.85043 0.75300
 O468 O 0.23992 0.86657 0.71133
 Zr469 Zr 0.23767 0.81613 0.75506
 O470 O 0.27552 0.78028 0.71304
 Zr471 Zr 0.16325 0.74227 0.75086
 O472 O 0.19916 0.70191 0.71257
 Zr473 Zr 0.23602 0.73989 0.82683
 O474 O 0.27737 0.70289 0.79009
 Zr475 Zr 0.23908 0.73902 0.67548
 O476 O 0.20089 0.78041 0.71177
 Zr477 Zr 0.31428 0.73977 0.74838
 O478 O 0.27818 0.77752 0.79100
 Zr479 Zr 0.24021 0.66544 0.75032
 O480 O 0.19881 0.70055 0.78886
 O481 O 0.19757 0.78027 0.79223
 O482 O 0.27939 0.69970 0.70969
 C483 C 0.24002 0.83336 0.85357
 C484 C 0.14193 0.83809 0.74946
 C485 C 0.13837 0.73782 0.84443
 C486 C 0.24031 0.64191 0.65625
 C487 C 0.33278 0.74100 0.65008
 C488 C 0.33642 0.64423 0.75009
 H489 H 0.29212 0.79977 0.69513
 H490 H 0.29531 0.68584 0.80918
 H491 H 0.17944 0.79817 0.81034
 H492 H 0.18022 0.68429 0.69509
 H493 H 0.17008 0.76513 0.64016
 H494 H 0.12367 0.72559 0.68071
 H495 H 0.35445 0.72725 0.81818
 H496 H 0.30621 0.75378 0.86544
 H497 H 0.24062 0.81168 0.63930
 H498 H 0.22085 0.85891 0.68775
 H499 H 0.26125 0.62398 0.81811
 H500 H 0.21408 0.66971 0.86233
 H501 H 0.30789 0.85157 0.77670
 H502 H 0.35517 0.80773 0.72764
 H503 H 0.12781 0.67101 0.76955
 H504 H 0.17142 0.62458 0.73270
 O505 O 0.24827 0.37140 0.70445
 O506 O 0.19819 0.38085 0.76389
 O507 O 0.35722 0.32412 0.76768
 O508 O 0.37035 0.26826 0.81345
 O509 O 0.31345 0.26170 0.65632
 O510 O 0.25192 0.21362 0.64383
 O511 O 0.24988 0.20336 0.87168
 O512 O 0.29969 0.25997 0.88195
 O513 O 0.14169 0.26113 0.82365
 O514 O 0.13205 0.31478 0.76061
 O515 O 0.18662 0.15563 0.76214
 O516 O 0.25166 0.14411 0.71300
 O517 O 0.24638 0.15275 0.82077
 O518 O 0.28987 0.13645 0.76349
 O519 O 0.13762 0.20817 0.76231
 O520 O 0.12375 0.26441 0.72071
 O521 O 0.19363 0.25886 0.87343
 O522 O 0.24273 0.30596 0.88726
 O523 O 0.25128 0.32110 0.65318
 O524 O 0.20889 0.26263 0.63773
 O525 O 0.36201 0.26436 0.70937
 O526 O 0.37159 0.21698 0.76425
 O527 O 0.30468 0.37328 0.76493
 O528 O 0.24538 0.38746 0.80658
 Zr529 Zr 0.24956 0.33806 0.76182
 O530 O 0.21161 0.30202 0.80225
 Zr531 Zr 0.32525 0.26527 0.76401
 O532 O 0.28841 0.22384 0.80093
 Zr533 Zr 0.25340 0.26407 0.68754
 O534 O 0.21126 0.22623 0.72325
 Zr535 Zr 0.24873 0.26065 0.83855
 O536 O 0.28737 0.30242 0.80392
 Zr537 Zr 0.17401 0.26283 0.76472
 O538 O 0.21045 0.30092 0.72338
 Zr539 Zr 0.24652 0.18729 0.76375
 O540 O 0.28912 0.22355 0.72613
 O541 O 0.29075 0.30385 0.72361
 O542 O 0.20792 0.22204 0.80384
 C543 C 0.24884 0.35957 0.66574
 C544 C 0.34338 0.36244 0.76744
 C545 C 0.35190 0.26198 0.67038
 C546 C 0.24847 0.16483 0.85944
 C547 C 0.15503 0.25959 0.86213
 C548 C 0.14805 0.16928 0.76146
 H549 H 0.19483 0.32105 0.82047
 H550 H 0.19340 0.20974 0.70364
 H551 H 0.30904 0.32208 0.70599
 H552 H 0.30728 0.20586 0.81816
 H553 H 0.31738 0.28501 0.87579
 H554 H 0.36357 0.24595 0.83425
 H555 H 0.13522 0.25369 0.69373
 H556 H 0.18435 0.27943 0.64738
 H557 H 0.25856 0.33114 0.87794
 H558 H 0.26517 0.38057 0.82979
 H559 H 0.22589 0.14685 0.69547
 H560 H 0.27474 0.19387 0.65211
 H561 H 0.17997 0.37475 0.73919
 H562 H 0.13112 0.32866 0.78859
 H563 H 0.36080 0.19415 0.74582
 H564 H 0.31572 0.14642 0.77796
 O565 O 0.76706 0.64224 0.67552
 O566 O 0.81842 0.63412 0.73669
 O567 O 0.65691 0.68525 0.73916
 O568 O 0.64077 0.74116 0.78339
 O569 O 0.70491 0.75085 0.62839
 O570 O 0.76397 0.80054 0.61878
 O571 O 0.76215 0.81156 0.84499
 O572 O 0.71287 0.75101 0.85578
 O573 O 0.87184 0.74957 0.79675
 O574 O 0.88011 0.69789 0.73232
 O575 O 0.82360 0.85708 0.73918
 O576 O 0.76027 0.86711 0.68612
 O577 O 0.76289 0.86059 0.79248
 O578 O 0.72026 0.87439 0.73622
 O579 O 0.87359 0.80534 0.73960
 O580 O 0.89001 0.75077 0.69637
 O581 O 0.82121 0.75312 0.84763
 O582 O 0.76795 0.70861 0.86378
 O583 O 0.76523 0.69481 0.62636
 O584 O 0.80878 0.75224 0.61421
 O585 O 0.65370 0.74646 0.67875
 O586 O 0.64063 0.79280 0.73649
 O587 O 0.70989 0.63657 0.73547
 O588 O 0.76371 0.62580 0.78159
 Zr589 Zr 0.76433 0.67371 0.73488
 O590 O 0.80125 0.71044 0.77637
 Zr591 Zr 0.68781 0.74533 0.73604
 O592 O 0.72349 0.78716 0.77439
 Zr593 Zr 0.76215 0.74951 0.66194
 O594 O 0.80241 0.78749 0.69802
 Zr595 Zr 0.76429 0.75212 0.81310
 O596 O 0.72654 0.70977 0.77679
 Zr597 Zr 0.83875 0.75002 0.73920
 O598 O 0.80385 0.71165 0.69756
 Zr599 Zr 0.76477 0.82460 0.73760
 O600 O 0.72367 0.78824 0.69921
 O601 O 0.72408 0.70833 0.69626
 O602 O 0.80419 0.79071 0.77808
 C603 C 0.76716 0.65614 0.63720
 C604 C 0.67090 0.64680 0.73839
 C605 C 0.66622 0.74947 0.64028
 C606 C 0.76177 0.85005 0.83135
 C607 C 0.85980 0.75118 0.83535
 C608 C 0.86217 0.84390 0.73973
 H609 H 0.81847 0.69145 0.79427
 H610 H 0.82028 0.80461 0.67899
 H611 H 0.70638 0.69002 0.67811
 H612 H 0.70405 0.80477 0.79133
 H613 H 0.69527 0.72625 0.84824
 H614 H 0.64829 0.76134 0.80602
 H615 H 0.87975 0.76425 0.67010
 H616 H 0.83269 0.73463 0.62412
 H617 H 0.77560 0.68101 0.85146
 H618 H 0.74547 0.63609 0.80481
 H619 H 0.78802 0.86786 0.67176
 H620 H 0.73986 0.81926 0.62561
 H621 H 0.81073 0.60620 0.72477
 H622 H 0.88216 0.68347 0.76000
 H623 H 0.65006 0.81507 0.71667
 H624 H 0.69398 0.86337 0.74902
 O625 O 0.25217 0.63619 0.29981
 O626 O 0.21523 0.62169 0.24417
 O627 O 0.36432 0.69991 0.25204
 O628 O 0.37894 0.75559 0.21500
 O629 O 0.30020 0.74793 0.36386
 O630 O 0.24483 0.78535 0.37794
 O631 O 0.24857 0.80202 0.13689
 O632 O 0.28841 0.74830 0.12252
 O633 O 0.13723 0.75250 0.19800
 O634 O 0.12283 0.71253 0.25150
 O635 O 0.19935 0.86363 0.24669
 O636 O 0.25055 0.87410 0.29178
 O637 O 0.24891 0.85540 0.18488
 O638 O 0.30518 0.86497 0.24335
 O639 O 0.14578 0.81569 0.24836
 O640 O 0.13432 0.75176 0.30342
 O641 O 0.18524 0.75167 0.14461
 O642 O 0.24899 0.69645 0.13377
 O643 O 0.24672 0.68317 0.35387
 O644 O 0.19416 0.74631 0.36412
 O645 O 0.35441 0.75320 0.31697
 O646 O 0.36495 0.80590 0.25409
 O647 O 0.31718 0.64599 0.24633
 O648 O 0.25386 0.63581 0.19362
 Zr649 Zr 0.25532 0.67486 0.24781
 O650 O 0.21080 0.71078 0.21330
 Zr651 Zr 0.32570 0.75184 0.25503
 O652 O 0.28985 0.78631 0.21053
 Zr653 Zr 0.24835 0.74496 0.32499
 O654 O 0.21400 0.78946 0.28903
 Zr655 Zr 0.24669 0.74938 0.17453
 O656 O 0.29176 0.71439 0.21015
 Zr657 Zr 0.17508 0.75396 0.25044
 O658 O 0.21055 0.70877 0.28536
 Zr659 Zr 0.25133 0.82531 0.24614
 O660 O 0.28621 0.78961 0.29122
 O661 O 0.29114 0.70913 0.29069
 O662 O 0.20936 0.79124 0.20868
 C663 C 0.24837 0.64512 0.33865
 C664 C 0.35530 0.66115 0.24816
 C665 C 0.33908 0.75152 0.35500
 C666 C 0.24854 0.84082 0.14652
 C667 C 0.14686 0.75232 0.15922
 C668 C 0.16052 0.85401 0.24733
 H669 H 0.19213 0.69164 0.19710
 H670 H 0.19783 0.80811 0.30819
 H671 H 0.30915 0.69102 0.30879
 H672 H 0.30907 0.80267 0.19206
 H673 H 0.31719 0.74703 0.13471
 H674 H 0.36850 0.74896 0.18628
 H675 H 0.13077 0.78087 0.31417
 H676 H 0.17970 0.71876 0.36097
 H677 H 0.21987 0.68558 0.13031
 H678 H 0.28154 0.63873 0.17932
 H679 H 0.26837 0.86420 0.31553
 H680 H 0.24903 0.81427 0.36687
 H681 H 0.18644 0.63221 0.25041
 H682 H 0.13488 0.68374 0.25283
 H683 H 0.36102 0.82066 0.28138
 H684 H 0.29604 0.89263 0.23184
 O685 O 0.73795 0.34392 0.31429
 O686 O 0.78618 0.35651 0.25253
 O687 O 0.62804 0.29539 0.24745
 O688 O 0.61470 0.24223 0.20275
 O689 O 0.67562 0.23365 0.35788
 O690 O 0.73777 0.18465 0.36809
 O691 O 0.73765 0.17717 0.14220
 O692 O 0.68510 0.23628 0.13273
 O693 O 0.84442 0.23866 0.18751
 O694 O 0.85538 0.28815 0.25267
 O695 O 0.79661 0.12944 0.24968
 O696 O 0.73493 0.11800 0.29958
 O697 O 0.73972 0.12758 0.19426
 O698 O 0.69399 0.11286 0.25109
 O699 O 0.84737 0.18027 0.24740
 O700 O 0.86392 0.23691 0.29019
 O701 O 0.79193 0.23689 0.13841
 O702 O 0.74068 0.28041 0.12506
 O703 O 0.73648 0.29094 0.36287
 O704 O 0.78027 0.23474 0.37492
 O705 O 0.62635 0.23646 0.30538
 O706 O 0.61689 0.18874 0.24902
 O707 O 0.67832 0.34664 0.25231
 O708 O 0.73747 0.36335 0.21067
 Zr709 Zr 0.73571 0.31278 0.25426
 O710 O 0.77359 0.27727 0.21207
 Zr711 Zr 0.66166 0.23848 0.25037
 O712 O 0.69766 0.19843 0.21191
 Zr713 Zr 0.73475 0.23653 0.32603
 O714 O 0.77618 0.19987 0.28915
 Zr715 Zr 0.73722 0.23581 0.17468
 O716 O 0.69892 0.27688 0.21114
 Zr717 Zr 0.81267 0.23701 0.24729
 O718 O 0.77655 0.27446 0.29009
 Zr719 Zr 0.73899 0.16226 0.24958
 O720 O 0.69755 0.19701 0.28829
 O721 O 0.69595 0.27668 0.29157
 O722 O 0.77784 0.19674 0.20878
 C723 C 0.73823 0.32989 0.35271
 C724 C 0.63990 0.33405 0.24887
 C725 C 0.63724 0.23405 0.34405
 C726 C 0.73889 0.13876 0.15566
 C727 C 0.83082 0.23851 0.14894
 C728 C 0.83519 0.14167 0.24887
 H729 H 0.79000 0.29688 0.19413
 H730 H 0.79429 0.18292 0.30817
 H731 H 0.67777 0.29449 0.30972
 H732 H 0.67873 0.18070 0.19451
 H733 H 0.66788 0.26147 0.13970
 H734 H 0.62189 0.22168 0.18036
 H735 H 0.85324 0.22479 0.31691
 H736 H 0.80498 0.25076 0.36443
 H737 H 0.73852 0.30846 0.13846
 H738 H 0.71858 0.35551 0.18700
 H739 H 0.76060 0.12085 0.31723
 H740 H 0.71326 0.16630 0.36172
 H741 H 0.80569 0.34878 0.27576
 H742 H 0.85311 0.30524 0.22659
 H743 H 0.62663 0.16709 0.26940
 H744 H 0.67037 0.12099 0.23228
 C745 C 0.26269 0.10731 0.07096
 C746 C 0.26393 0.12775 0.10290
 C747 C 0.76566 0.60698 0.57091
 C748 C 0.76725 0.62750 0.60269
 C749 C 0.74740 0.92127 0.10840
 C750 C 0.74866 0.89130 0.13176
 C751 C 0.24662 0.42221 0.61103
 C752 C 0.24758 0.39248 0.63474
 C753 C 0.74894 0.07354 0.88324
 C754 C 0.74882 0.10743 0.86562
 C755 C 0.24713 0.57442 0.38301
 C756 C 0.24720 0.60822 0.36514
 C757 C 0.24331 0.88343 0.92103
 C758 C 0.24182 0.86233 0.88898
 C759 C 0.74144 0.37983 0.42004
 C760 C 0.73993 0.35876 0.38806
 C761 C 0.10817 0.25147 0.07757
 C762 C 0.13166 0.25068 0.10752
 C763 C 0.61140 0.75094 0.57777
 C764 C 0.63518 0.75031 0.60744
 C765 C 0.07158 0.73865 0.89316
 C766 C 0.10364 0.73752 0.87295
 C767 C 0.57087 0.23532 0.39321
 C768 C 0.60271 0.23389 0.37274
 C769 C 0.92112 0.75772 0.11666
 C770 C 0.88900 0.75908 0.13767
 C771 C 0.41940 0.25848 0.62043
 C772 C 0.38736 0.26013 0.64150
 C773 C 0.88374 0.25152 0.92706
 C774 C 0.86606 0.25193 0.89312
 C775 C 0.38317 0.75203 0.42588
 C776 C 0.36544 0.75233 0.39200
 C777 C 0.11779 0.07920 0.24208
 C778 C 0.13868 0.11131 0.24045
 C779 C 0.62037 0.57978 0.74211
 C780 C 0.64178 0.61156 0.74037
 C781 C 0.92799 0.11689 0.74900
 C782 C 0.89405 0.13467 0.74864
 C783 C 0.42606 0.61695 0.24724
 C784 C 0.39221 0.63472 0.24714
 C785 C 0.07932 0.89295 0.74722
 C786 C 0.10914 0.86927 0.74813
 C787 C 0.57747 0.38882 0.24665
 C788 C 0.60708 0.36502 0.24754
 C789 C 0.89372 0.92682 0.26438
 C790 C 0.87351 0.89482 0.26519
 C791 C 0.39267 0.42879 0.76661
 C792 C 0.37211 0.39698 0.76791
 C793 C 0.10541 0.25732 0.92820
 C794 C 0.12594 0.25847 0.89635
 C795 C 0.60683 0.75560 0.42443
 C796 C 0.62729 0.75656 0.39253
 C797 C 0.92233 0.74852 0.89028
 C798 C 0.89256 0.75007 0.86658
 C799 C 0.41782 0.24779 0.39173
 C800 C 0.38813 0.24969 0.36792
 C801 C 0.07610 0.75321 0.11486
 C802 C 0.11015 0.75289 0.13237
 C803 C 0.57659 0.25258 0.61580
 C804 C 0.61076 0.25208 0.63315
 C805 C 0.88087 0.24324 0.08168
 C806 C 0.85996 0.24087 0.11377
 C807 C 0.38281 0.74492 0.58276
 C808 C 0.36201 0.74295 0.61494
 C809 C 0.25194 0.10975 0.92180
 C810 C 0.25004 0.13346 0.89206
 C811 C 0.75255 0.60804 0.41803
 C812 C 0.75059 0.63167 0.38827
 C813 C 0.74046 0.07254 0.10639
 C814 C 0.73952 0.10446 0.12673
 C815 C 0.24154 0.57564 0.60670
 C816 C 0.24082 0.60757 0.62717
 C817 C 0.75693 0.91707 0.88138
 C818 C 0.75934 0.88509 0.86046
 C819 C 0.25345 0.41761 0.38240
 C820 C 0.25547 0.38550 0.36147
 C821 C 0.24785 0.88545 0.07593
 C822 C 0.24807 0.86776 0.10988
 C823 C 0.74697 0.38459 0.57693
 C824 C 0.74748 0.36713 0.61098
 C825 C 0.08069 0.11914 0.75669
 C826 C 0.11278 0.14014 0.75906
 C827 C 0.58302 0.61695 0.25408
 C828 C 0.61532 0.63756 0.25614
 C829 C 0.11621 0.92458 0.24683
 C830 C 0.13372 0.89062 0.24693
 C831 C 0.61544 0.42303 0.74759
 C832 C 0.63308 0.38907 0.74781
 C833 C 0.89036 0.07962 0.25267
 C834 C 0.86651 0.10915 0.25056
 C835 C 0.39140 0.58173 0.75394
 C836 C 0.36768 0.61147 0.75184
 C837 C 0.92787 0.89418 0.74166
 C838 C 0.89625 0.87324 0.74065
 C839 C 0.42416 0.39368 0.24216
 C840 C 0.39226 0.37323 0.24145
   
