data_POSCAR
  _audit_creation_date              2014-09-24
  _audit_creation_method            'ToBaCCo'
  _symmetry_space_group_name_H-M    'P1'
  _symmetry_Int_Tables_number       1
  _symmetry_cell_setting            triclinic
  loop_
  _symmetry_equiv_pos_as_xyz
 x,y,z
_cell_length_a 31.9877
_cell_length_b 31.4884
_cell_length_c 32.5329
_cell_angle_alpha 88.830600
_cell_angle_beta 90.269500
_cell_angle_gamma 89.869200
loop_
  _atom_site_label
  _atom_site_type_symbol
  _atom_site_fract_x
  _atom_site_fract_y
  _atom_site_fract_z
C1 C 0.29116 0.23029 0.22732
 C2 C 0.27623 0.21536 0.26546
 C3 C 0.24124 0.23374 0.28250
 C4 C 0.22059 0.26718 0.26168
 C5 C 0.23534 0.28189 0.22421
 C6 C 0.27085 0.26335 0.20693
 C7 C 0.32444 0.21873 0.20328
 N8 N 0.32451 0.24357 0.16855
 C9 C 0.29199 0.27131 0.17093
 C10 C 0.20951 0.31451 0.21123
 N11 N 0.17896 0.31966 0.23967
 C12 C 0.18601 0.29115 0.27093
 C13 C 0.23307 0.21218 0.31874
 N14 N 0.26254 0.18138 0.32454
 C15 C 0.28871 0.18283 0.29169
 H16 H 0.34720 0.19419 0.21061
 H17 H 0.28446 0.29615 0.14868
 H18 H 0.21337 0.33360 0.18350
 H19 H 0.16762 0.28844 0.29870
 H20 H 0.20662 0.21766 0.33855
 H21 H 0.31432 0.16104 0.28670
 C22 C 0.71686 -0.22735 0.23066
 C23 C 0.73168 -0.21221 0.26827
 C24 C 0.76465 -0.23248 0.28814
 C25 C 0.78320 -0.26828 0.27076
 C26 C 0.76844 -0.28328 0.23384
 C27 C 0.73515 -0.26259 0.21358
 C28 C 0.68444 -0.21494 0.20515
 N29 N 0.68298 -0.24131 0.17247
 C30 C 0.71361 -0.27104 0.17801
 C31 C 0.79228 -0.31803 0.22422
 N32 N 0.82080 -0.32525 0.25483
 C33 C 0.81584 -0.29420 0.28300
 C34 C 0.77241 -0.21095 0.32375
 N35 N 0.74466 -0.17828 0.32628
 C36 C 0.72001 -0.17864 0.29210
 H37 H 0.66267 -0.18935 0.21073
 H38 H 0.71902 -0.29797 0.15857
 H39 H 0.78956 -0.33608 0.19638
 H40 H 0.83506 -0.29012 0.31010
 H41 H 0.79706 -0.21831 0.34561
 H42 H 0.69551 -0.15585 0.28499
 C43 C 0.71182 0.23193 0.76338
 C44 C 0.72723 0.21746 0.72588
 C45 C 0.75982 0.23853 0.70667
 C46 C 0.77740 0.27452 0.72467
 C47 C 0.76207 0.28884 0.76152
 C48 C 0.72916 0.26731 0.78109
 C49 C 0.67993 0.21823 0.78853
 N50 N 0.67789 0.24394 0.82166
 C51 C 0.70760 0.27456 0.81674
 C52 C 0.78537 0.32362 0.77209
 N53 N 0.81411 0.33151 0.74213
 C54 C 0.80983 0.30086 0.71342
 C55 C 0.76850 0.21726 0.67115
 N56 N 0.74172 0.18391 0.66813
 C57 C 0.71671 0.18368 0.70182
 H58 H 0.65909 0.19199 0.78260
 H59 H 0.71251 0.30111 0.83678
 H60 H 0.78225 0.34114 0.80020
 H61 H 0.82952 0.29719 0.68675
 H62 H 0.79314 0.22526 0.64976
 H63 H 0.69277 0.16032 0.70845
 C64 C 0.28742 -0.23373 0.77493
 C65 C 0.26830 -0.21435 0.74042
 C66 C 0.23086 -0.22988 0.72575
 C67 C 0.21178 -0.26466 0.74555
 C68 C 0.23035 -0.28349 0.77974
 C69 C 0.26858 -0.26803 0.79443
 C70 C 0.32351 -0.22510 0.79632
 N71 N 0.32761 -0.25384 0.82801
 C72 C 0.29353 -0.27969 0.82732
 C73 C 0.20513 -0.31665 0.79217
 N74 N 0.17114 -0.31798 0.76682
 C75 C 0.17567 -0.28664 0.73768
 C76 C 0.21974 -0.20535 0.69199
 N77 N 0.24909 -0.17466 0.68612
 C78 C 0.27930 -0.18051 0.71530
 H79 H 0.34439 -0.19888 0.78976
 H80 H 0.28688 -0.30470 0.84966
 H81 H 0.21174 -0.33885 0.81722
 H82 H 0.15483 -0.28080 0.71187
 H83 H 0.19239 -0.20987 0.67288
 H84 H 0.30751 -0.16181 0.71787
 C85 C 0.70861 -0.22932 0.77072
 C86 C 0.72529 -0.21257 0.73409
 C87 C 0.76207 -0.22880 0.71873
 C88 C 0.78294 -0.26175 0.74002
 C89 C 0.76656 -0.27822 0.77616
 C90 C 0.72903 -0.26195 0.79156
 C91 C 0.67307 -0.22008 0.79243
 N92 N 0.67092 -0.24679 0.82585
 C93 C 0.70560 -0.27200 0.82571
 C94 C 0.79250 -0.31072 0.78923
 N95 N 0.82485 -0.31394 0.76236
 C96 C 0.81856 -0.28447 0.73170
 C97 C 0.77075 -0.20662 0.68294
 N98 N 0.73981 -0.17764 0.67586
 C99 C 0.71225 -0.18072 0.70747
 H100 H 0.65103 -0.19516 0.78441
 H101 H 0.71324 -0.29599 0.84889
 H102 H 0.78728 -0.33137 0.81571
 H103 H 0.83770 -0.28061 0.70453
 H104 H 0.79814 -0.21072 0.66404
 H105 H 0.68497 -0.16079 0.71118
 C106 C 0.28563 0.23167 0.76577
 C107 C 0.26860 0.21441 0.73006
 C108 C 0.23329 0.23233 0.71222
 C109 C 0.21449 0.26782 0.72986
 C110 C 0.23138 0.28492 0.76501
 C111 C 0.26713 0.26658 0.78322
 C112 C 0.31902 0.22005 0.79025
 N113 N 0.32092 0.24646 0.82283
 C114 C 0.28952 0.27555 0.81820
 C115 C 0.20618 0.31830 0.77573
 N116 N 0.17397 0.32155 0.74837
 C117 C 0.17918 0.29091 0.71993
 C118 C 0.22313 0.20833 0.67878
 N119 N 0.25095 0.17576 0.67630
 C120 C 0.27930 0.17979 0.70726
 H121 H 0.34036 0.19402 0.78483
 H122 H 0.28335 0.30176 0.83827
 H123 H 0.21057 0.33854 0.80190
 H124 H 0.15913 0.28559 0.69372
 H125 H 0.19721 0.21406 0.65788
 H126 H 0.30592 0.15921 0.71289
 C127 C 0.29369 -0.23294 0.23819
 C128 C 0.27637 -0.21667 0.27415
 C129 C 0.24134 -0.23541 0.29126
 C130 C 0.22305 -0.27062 0.27265
 C131 C 0.24006 -0.28663 0.23722
 C132 C 0.27558 -0.26755 0.21980
 C133 C 0.32817 -0.22174 0.21532
 N134 N 0.33188 -0.24912 0.18359
 C135 C 0.29923 -0.27675 0.18593
 C136 C 0.21633 -0.32106 0.22640
 N137 N 0.18562 -0.32695 0.25487
 C138 C 0.18919 -0.29546 0.28276
 C139 C 0.23169 -0.21345 0.32606
 N140 N 0.26032 -0.18201 0.33087
 C141 C 0.28739 -0.18350 0.29881
 H142 H 0.34851 -0.19526 0.22154
 H143 H 0.29334 -0.30209 0.16466
 H144 H 0.22096 -0.33984 0.19933
 H145 H 0.16853 -0.29083 0.30856
 H146 H 0.20524 -0.21964 0.34584
 H147 H 0.31316 -0.16183 0.29374
 C148 C 0.71714 0.23241 0.22237
 C149 C 0.73198 0.21754 0.26061
 C150 C 0.76692 0.23568 0.27805
 C151 C 0.78769 0.26885 0.25731
 C152 C 0.77305 0.28357 0.21960
 C153 C 0.73746 0.26522 0.20200
 C154 C 0.68359 0.22110 0.19850
 N155 N 0.68315 0.24589 0.16381
 C156 C 0.71593 0.27327 0.16594
 C157 C 0.79886 0.31615 0.20701
 N158 N 0.82947 0.32115 0.23580
 C159 C 0.82214 0.29271 0.26704
 C160 C 0.77458 0.21437 0.31466
 N161 N 0.74484 0.18395 0.32006
 C162 C 0.71902 0.18545 0.28675
 H163 H 0.66076 0.19686 0.20598
 H164 H 0.72332 0.29798 0.14362
 H165 H 0.79477 0.33537 0.17934
 H166 H 0.84014 0.29003 0.29525
 H167 H 0.80073 0.21986 0.33505
 H168 H 0.69315 0.16409 0.28155
 O169 O 0.29473 0.04004 0.46282
 O170 O 0.28899 -0.04204 0.54498
 O171 O 0.29382 -0.04290 0.46499
 O172 O 0.28915 0.04038 0.54264
 O173 O 0.22024 0.04066 0.53819
 O174 O 0.22495 -0.04192 0.46021
 O175 O 0.22012 -0.04148 0.54017
 O176 O 0.22582 0.04085 0.45852
 Cu177 Cu 0.29862 -0.00122 0.50419
 Cu178 Cu 0.21588 -0.00046 0.49865
 C179 C 0.26121 0.05465 0.44686
 C180 C 0.25353 -0.05543 0.55689
 C181 C 0.26011 -0.05665 0.44940
 C182 C 0.25384 0.05441 0.55396
 O183 O 0.70332 0.04436 0.53588
 O184 O 0.70383 -0.03853 0.45766
 O185 O 0.70268 -0.03838 0.53753
 O186 O 0.70400 0.04428 0.45621
 O187 O 0.77303 0.04382 0.45723
 O188 O 0.77171 -0.03898 0.53864
 O189 O 0.77285 -0.03886 0.45863
 O190 O 0.77234 0.04365 0.53714
 Cu191 Cu 0.69652 0.00295 0.49670
 Cu192 Cu 0.77943 0.00233 0.49801
 C193 C 0.73776 0.05827 0.54973
 C194 C 0.73844 -0.05289 0.44486
 C195 C 0.73694 -0.05284 0.55194
 C196 C 0.73871 0.05834 0.44300
 O197 O 0.46068 0.27421 0.03294
 O198 O 0.54105 0.27435 -0.04775
 O199 O 0.45961 0.27543 -0.04709
 O200 O 0.54198 0.27519 0.03199
 O201 O 0.54261 0.20505 0.03291
 O202 O 0.45921 0.20530 -0.04548
 O203 O 0.54071 0.20422 -0.04675
 O204 O 0.46113 0.20408 0.03440
 Cu205 Cu 0.50077 0.28185 -0.00762
 Cu206 Cu 0.50088 0.19761 -0.00611
 C207 C 0.44717 0.23907 0.04741
 C208 C 0.55476 0.23924 -0.06083
 C209 C 0.44514 0.24046 -0.05960
 C210 C 0.55663 0.24015 0.04568
 O211 O 0.54464 0.71908 0.04481
 O212 O 0.46088 0.71330 -0.03303
 O213 O 0.54176 0.71528 -0.03484
 O214 O 0.46346 0.71490 0.04729
 O215 O 0.45993 0.78489 0.04353
 O216 O 0.53969 0.78537 -0.03794
 O217 O 0.45857 0.78336 -0.03672
 O218 O 0.54125 0.78911 0.04181
 Cu219 Cu 0.50285 0.70861 0.00651
 Cu220 Cu 0.49947 0.79272 0.00240
 C221 C 0.55729 0.75513 0.05651
 C222 C 0.44592 0.74744 -0.04863
 C223 C 0.55407 0.75029 -0.05049
 C224 C 0.44842 0.74971 0.05959
 O225 O 0.04318 0.45678 0.27726
 O226 O -0.03784 0.53936 0.28381
 O227 O -0.03784 0.45721 0.27628
 O228 O 0.04397 0.53883 0.28343
 O229 O 0.04358 0.54646 0.21582
 O230 O -0.03768 0.46457 0.20863
 O231 O -0.03821 0.54655 0.21616
 O232 O 0.04341 0.46434 0.20963
 Cu233 Cu 0.00283 0.49749 0.28701
 Cu234 Cu 0.00275 0.50642 0.20578
 C235 C 0.05706 0.44639 0.24237
 C236 C -0.05221 0.55671 0.25111
 C237 C -0.05147 0.44673 0.24118
 C238 C 0.05809 0.55619 0.25077
 O239 O 0.03834 0.54653 0.72760
 O240 O -0.04363 0.46577 0.71870
 O241 O -0.04269 0.54784 0.72618
 O242 O 0.03791 0.46419 0.72243
 O243 O 0.03506 0.45674 0.78997
 O244 O -0.04396 0.54132 0.79387
 O245 O -0.04631 0.45936 0.78634
 O246 O 0.03720 0.53924 0.79525
 Cu247 Cu -0.00229 0.50666 0.71693
 Cu248 Cu -0.00464 0.49836 0.79815
 C249 C 0.05168 0.55681 0.76282
 C250 C -0.05928 0.44906 0.75093
 C251 C -0.05683 0.55904 0.76077
 C252 C 0.05012 0.44611 0.75565
 C253 C 0.35625 0.24211 0.13598
 C254 C 0.39753 0.26294 0.14870
 C255 C 0.42772 0.26152 0.11939
 C256 C 0.41394 0.23936 0.07995
 C257 C 0.39852 0.19527 0.09460
 C258 C 0.36821 0.19675 0.12380
 C259 C 0.34380 0.26431 0.09502
 C260 C 0.37411 0.26289 0.06586
 H261 H 0.40252 0.27749 0.17827
 H262 H 0.45866 0.27479 0.12394
 H263 H 0.40988 0.16544 0.08273
 H264 H 0.35369 0.16831 0.13654
 H265 H 0.31337 0.27807 0.08839
 H266 H 0.36955 0.27599 0.03503
 C267 C 0.65167 0.75843 0.14245
 C268 C 0.63611 0.80294 0.12889
 C269 C 0.60464 0.80224 0.10057
 C270 C 0.59179 0.75717 0.08798
 C271 C 0.63262 0.73659 0.07354
 C272 C 0.66409 0.73737 0.10184
 C273 C 0.61242 0.73463 0.15705
 C274 C 0.58113 0.73402 0.12859
 H275 H 0.64936 0.83244 0.13961
 H276 H 0.59100 0.83120 0.08771
 H277 H 0.63691 0.72402 0.04301
 H278 H 0.69524 0.72600 0.09486
 H279 H 0.60950 0.71972 0.18727
 H280 H 0.55135 0.71864 0.13453
 C281 C 0.64723 0.24223 -0.14799
 C282 C 0.60651 0.26432 -0.16174
 C283 C 0.57581 0.26289 -0.13292
 C284 C 0.58851 0.23954 -0.09286
 C285 C 0.60340 0.19541 -0.10639
 C286 C 0.63428 0.19679 -0.13504
 C287 C 0.65940 0.26312 -0.10714
 C288 C 0.62852 0.26182 -0.07850
 H289 H 0.60222 0.27965 -0.19165
 H290 H 0.54517 0.27693 -0.13822
 H291 H 0.59154 0.16560 -0.09390
 H292 H 0.64882 0.16818 -0.14641
 H293 H 0.69006 0.27585 -0.10024
 H294 H 0.63279 0.27406 -0.04782
 C295 C 0.35820 0.74597 -0.14123
 C296 C 0.39972 0.76764 -0.15325
 C297 C 0.42847 0.76770 -0.12229
 C298 C 0.41360 0.74591 -0.08230
 C299 C 0.37258 0.76850 -0.07160
 C300 C 0.34362 0.76856 -0.10240
 C301 C 0.37150 0.70113 -0.12628
 C302 C 0.40031 0.70113 -0.09530
 H303 H 0.40715 0.77979 -0.18377
 H304 H 0.45965 0.78057 -0.12644
 H305 H 0.36673 0.78303 -0.04219
 H306 H 0.31307 0.78323 -0.09942
 H307 H 0.36012 0.67194 -0.13948
 H308 H 0.41298 0.67192 -0.08202
 C309 C 0.14651 0.35286 0.23920
 C310 C 0.10456 0.33819 0.25750
 C311 C 0.07503 0.36936 0.25820
 C312 C 0.08989 0.41225 0.24031
 C313 C 0.12969 0.42271 0.26469
 C314 C 0.15926 0.39159 0.26416
 C315 C 0.13493 0.37084 0.19621
 C316 C 0.10540 0.40205 0.19685
 H317 H 0.09824 0.30594 0.26806
 H318 H 0.04365 0.36375 0.26962
 H319 H 0.13430 0.45223 0.28076
 H320 H 0.18915 0.39436 0.27979
 H321 H 0.14736 0.35917 0.16762
 H322 H 0.09346 0.41709 0.16886
 C323 C 0.14050 0.65055 0.76692
 C324 C 0.09795 0.66518 0.74914
 C325 C 0.06884 0.63382 0.74819
 C326 C 0.08442 0.59083 0.76545
 C327 C 0.12394 0.58091 0.74075
 C328 C 0.15323 0.61215 0.74145
 C329 C 0.12968 0.63199 0.80982
 C330 C 0.10044 0.60057 0.80897
 H331 H 0.09053 0.69762 0.73983
 H332 H 0.03707 0.63950 0.73754
 H333 H 0.12860 0.55162 0.72430
 H334 H 0.18288 0.60968 0.72557
 H335 H 0.14263 0.64333 0.83845
 H336 H 0.08916 0.58498 0.83682
 C337 C -0.14736 0.64436 0.25469
 C338 C -0.10765 0.66080 0.23339
 C339 C -0.07601 0.63185 0.23270
 C340 C -0.08685 0.58896 0.25327
 C341 C -0.10105 0.60009 0.29696
 C342 C -0.13286 0.62890 0.29775
 C343 C -0.15873 0.60310 0.23249
 C344 C -0.12694 0.57435 0.23162
 H345 H -0.10467 0.69258 0.22020
 H346 H -0.04588 0.63891 0.21896
 H347 H -0.08812 0.58581 0.32489
 H348 H -0.14714 0.63839 0.32633
 H349 H -0.18946 0.59608 0.22015
 H350 H -0.13053 0.54331 0.21811
 C351 C -0.15419 0.36183 0.74358
 C352 C -0.11499 0.34513 0.76611
 C353 C -0.08348 0.37400 0.76811
 C354 C -0.09392 0.41707 0.74750
 C355 C -0.10698 0.40631 0.70325
 C356 C -0.13865 0.37761 0.70116
 C357 C -0.16625 0.40292 0.76572
 C358 C -0.13459 0.43161 0.76789
 H359 H -0.11225 0.31324 0.77917
 H360 H -0.05371 0.36677 0.78284
 H361 H -0.09346 0.42084 0.67587
 H362 H -0.15221 0.36846 0.67203
 H363 H -0.19729 0.40982 0.77716
 H364 H -0.13859 0.46252 0.78157
 C365 C 0.26287 0.14851 0.35737
 C366 C 0.30692 0.13488 0.37165
 C367 C 0.30692 0.10358 0.40123
 C368 C 0.26282 0.08896 0.41404
 C369 C 0.24050 0.12988 0.42671
 C370 C 0.24059 0.16116 0.39720
 C371 C 0.24151 0.10738 0.34411
 C372 C 0.24150 0.07622 0.37372
 H373 H 0.33556 0.14908 0.36015
 H374 H 0.33565 0.09101 0.41458
 H375 H 0.22706 0.13440 0.45690
 H376 H 0.22769 0.19239 0.40271
 H377 H 0.22773 0.10317 0.31392
 H378 H 0.22777 0.04522 0.36881
 C379 C 0.74074 0.15159 0.63606
 C380 C 0.69628 0.14150 0.62099
 C381 C 0.69482 0.11047 0.59247
 C382 C 0.73806 0.09252 0.58130
 C383 C 0.76358 0.13169 0.56793
 C384 C 0.76504 0.16271 0.59648
 C385 C 0.75877 0.10881 0.65117
 C386 C 0.75740 0.07792 0.62253
 H387 H 0.66844 0.15775 0.63141
 H388 H 0.66561 0.10029 0.57878
 H389 H 0.77817 0.13528 0.53800
 H390 H 0.78045 0.19273 0.59020
 H391 H 0.77154 0.10337 0.68180
 H392 H 0.76890 0.04595 0.62871
 C393 C 0.24962 -0.14283 0.65233
 C394 C 0.20598 -0.12927 0.63665
 C395 C 0.20694 -0.10055 0.60483
 C396 C 0.25142 -0.08761 0.59170
 C397 C 0.27211 -0.07202 0.63136
 C398 C 0.27109 -0.10079 0.66316
 C399 C 0.27264 -0.15856 0.61423
 C400 C 0.27357 -0.12969 0.58249
 H401 H 0.17681 -0.13998 0.65016
 H402 H 0.17856 -0.08751 0.59116
 H403 H 0.28555 -0.04062 0.63446
 H404 H 0.28328 -0.09360 0.69340
 H405 H 0.28682 -0.18981 0.61241
 H406 H 0.28851 -0.13627 0.55340
 C407 C 0.74285 -0.14595 0.35831
 C408 C 0.69804 -0.13487 0.37143
 C409 C 0.69610 -0.10391 0.39999
 C410 C 0.73921 -0.08702 0.41316
 C411 C 0.76353 -0.12682 0.42750
 C412 C 0.76545 -0.15777 0.39893
 C413 C 0.76213 -0.10356 0.34418
 C414 C 0.76026 -0.07275 0.37286
 H415 H 0.67032 -0.15047 0.35978
 H416 H 0.66660 -0.09309 0.41244
 H417 H 0.77690 -0.13089 0.45807
 H418 H 0.77996 -0.18824 0.40578
 H419 H 0.77605 -0.09832 0.31414
 H420 H 0.77249 -0.04103 0.36730
 C421 C 0.64049 0.75255 -0.14352
 C422 C 0.59911 0.77569 -0.15437
 C423 C 0.57069 0.77462 -0.12335
 C424 C 0.58575 0.75050 -0.08451
 C425 C 0.59829 0.70627 -0.09978
 C426 C 0.62670 0.70735 -0.13077
 C427 C 0.65580 0.77280 -0.10362
 C428 C 0.62716 0.77174 -0.07279
 H429 H 0.59132 0.78962 -0.18417
 H430 H 0.53967 0.78832 -0.12675
 H431 H 0.58538 0.67662 -0.08800
 H432 H 0.63764 0.67873 -0.14538
 H433 H 0.68655 0.78678 -0.09999
 H434 H 0.63347 0.78468 -0.04272
 C435 C 0.35164 0.24486 -0.14655
 C436 C 0.39349 0.26320 -0.16144
 C437 C 0.42442 0.26130 -0.13259
 C438 C 0.41086 0.24123 -0.09138
 C439 C 0.37254 0.26712 -0.07830
 C440 C 0.34142 0.26903 -0.10698
 C441 C 0.36188 0.19940 -0.13105
 C442 C 0.39302 0.19750 -0.10240
 H443 H 0.39832 0.27652 -0.19208
 H444 H 0.45579 0.27290 -0.13862
 H445 H 0.36946 0.28129 -0.04832
 H446 H 0.31178 0.28421 -0.10059
 H447 H 0.34545 0.17125 -0.14095
 H448 H 0.40314 0.16767 -0.08828
 C449 C 0.36227 0.75093 0.15289
 C450 C 0.40158 0.77801 0.16105
 C451 C 0.42996 0.77723 0.13000
 C452 C 0.41690 0.74957 0.09378
 C453 C 0.40813 0.70560 0.11349
 C454 C 0.37980 0.70636 0.14452
 C455 C 0.34525 0.76728 0.11123
 C456 C 0.37382 0.76659 0.08036
 H457 H 0.40823 0.79444 0.18926
 H458 H 0.45980 0.79348 0.13179
 H459 H 0.42347 0.67644 0.10458
 H460 H 0.37133 0.67796 0.16200
 H461 H 0.31344 0.77851 0.10651
 H462 H 0.36641 0.77709 0.04917
 C463 C 0.65060 0.24438 0.13179
 C464 C 0.64048 0.19899 0.11829
 C465 C 0.60921 0.19706 0.08985
 C466 C 0.59109 0.24079 0.07720
 C467 C 0.57767 0.26083 0.11772
 C468 C 0.60879 0.26269 0.14628
 C469 C 0.66044 0.26867 0.09139
 C470 C 0.62920 0.26675 0.06293
 H471 H 0.65687 0.17089 0.12970
 H472 H 0.59894 0.16719 0.07719
 H473 H 0.54629 0.27242 0.12350
 H474 H 0.60417 0.27597 0.17644
 H475 H 0.68975 0.28442 0.08458
 H476 H 0.63188 0.28133 0.03253
 C477 C -0.14468 0.65428 0.76276
 C478 C -0.15866 0.61482 0.73942
 C479 C -0.12956 0.58323 0.73917
 C480 C -0.08902 0.59385 0.76221
 C481 C -0.07390 0.63585 0.74260
 C482 C -0.10283 0.66760 0.74303
 C483 C -0.13215 0.63766 0.80601
 C484 C -0.10323 0.60589 0.80566
 H485 H -0.18895 0.61197 0.72456
 H486 H -0.13501 0.55325 0.72414
 H487 H -0.04264 0.64057 0.73053
 H488 H -0.09582 0.69946 0.73179
 H489 H -0.14354 0.65066 0.83449
 H490 H -0.09075 0.59173 0.83384
 C491 C -0.14004 0.35276 0.23603
 C492 C -0.09812 0.33836 0.25537
 C493 C -0.06898 0.36973 0.25682
 C494 C -0.08400 0.41249 0.23851
 C495 C -0.09863 0.40210 0.19467
 C496 C -0.12777 0.37071 0.19327
 C497 C -0.15357 0.39155 0.26059
 C498 C -0.12429 0.42280 0.26183
 H499 H -0.09138 0.30611 0.26584
 H500 H -0.03768 0.36428 0.26887
 H501 H -0.08618 0.41697 0.16695
 H502 H -0.13914 0.35871 0.16429
 H503 H -0.18374 0.39428 0.27546
 H504 H -0.12944 0.45232 0.27773
 C505 C 0.14046 0.35359 0.74990
 C506 C 0.12187 0.35813 0.79309
 C507 C 0.09197 0.38878 0.79537
 C508 C 0.08302 0.41199 0.75409
 C509 C 0.12572 0.42877 0.73983
 C510 C 0.15578 0.39823 0.73769
 C511 C 0.10224 0.34568 0.72200
 C512 C 0.07227 0.37634 0.72430
 H513 H 0.13094 0.33846 0.81944
 H514 H 0.07574 0.39518 0.82381
 H515 H 0.13181 0.46190 0.73219
 H516 H 0.18754 0.40512 0.72812
 H517 H 0.09776 0.31785 0.70347
 H518 H 0.04299 0.37467 0.70739
 C519 C 0.15384 0.64275 0.25417
 C520 C 0.11313 0.66044 0.23528
 C521 C 0.08133 0.63180 0.23463
 C522 C 0.09300 0.58798 0.25291
 C523 C 0.13184 0.57409 0.22898
 C524 C 0.16380 0.60253 0.22968
 C525 C 0.14152 0.62538 0.29708
 C526 C 0.10954 0.59694 0.29641
 H527 H 0.10966 0.69277 0.22351
 H528 H 0.05058 0.63968 0.22240
 H529 H 0.13462 0.54360 0.21422
 H530 H 0.19383 0.59548 0.21606
 H531 H 0.15723 0.63373 0.32543
 H532 H 0.09793 0.58158 0.32425
 C533 C 0.73856 -0.14536 0.64258
 C534 C 0.69412 -0.13353 0.62798
 C535 C 0.69316 -0.10273 0.59802
 C536 C 0.73676 -0.08678 0.58507
 C537 C 0.75756 -0.07266 0.62518
 C538 C 0.75850 -0.10332 0.65526
 C539 C 0.76139 -0.15791 0.60303
 C540 C 0.76049 -0.12713 0.57303
 H541 H 0.66592 -0.14876 0.63931
 H542 H 0.66405 -0.09162 0.58426
 H543 H 0.77031 -0.04114 0.62958
 H544 H 0.77208 -0.09817 0.68537
 H545 H 0.77556 -0.18872 0.59821
 H546 H 0.77430 -0.13160 0.54299
 C547 C 0.26058 -0.14966 0.36287
 C548 C 0.23565 -0.16124 0.40193
 C549 C 0.23600 -0.13030 0.43054
 C550 C 0.26124 -0.09076 0.41779
 C551 C 0.30498 -0.10805 0.40751
 C552 C 0.30460 -0.13902 0.37888
 C553 C 0.24231 -0.10712 0.34745
 C554 C 0.24264 -0.07631 0.37617
 H555 H 0.22077 -0.19163 0.40785
 H556 H 0.22095 -0.13425 0.46022
 H557 H 0.33372 -0.09751 0.42190
 H558 H 0.33289 -0.15493 0.36913
 H559 H 0.23024 -0.10177 0.31654
 H560 H 0.23093 -0.04445 0.36978
 C561 C 0.74306 0.15160 0.35323
 C562 C 0.69833 0.14121 0.36731
 C563 C 0.69646 0.11018 0.39697
 C564 C 0.73957 0.09259 0.41018
 C565 C 0.75994 0.07811 0.37017
 C566 C 0.76175 0.10899 0.34036
 C567 C 0.76632 0.16298 0.39309
 C568 C 0.76448 0.13197 0.42282
 H569 H 0.67061 0.15740 0.35561
 H570 H 0.66703 0.09989 0.41027
 H571 H 0.77180 0.04622 0.36562
 H572 H 0.77521 0.10366 0.31034
 H573 H 0.78130 0.19322 0.39846
 H574 H 0.77835 0.13568 0.45305
 C575 C 0.25124 0.14329 0.64443
 C576 C 0.20739 0.12962 0.63028
 C577 C 0.20786 0.10038 0.60005
 C578 C 0.25216 0.08711 0.58691
 C579 C 0.27403 0.12893 0.57499
 C580 C 0.27353 0.15834 0.60511
 C581 C 0.27302 0.10134 0.65724
 C582 C 0.27355 0.07209 0.62703
 H583 H 0.17849 0.14099 0.64353
 H584 H 0.17928 0.08733 0.58745
 H585 H 0.28844 0.13497 0.54530
 H586 H 0.28758 0.18950 0.60133
 H587 H 0.28534 0.09427 0.68772
 H588 H 0.28687 0.04062 0.63171
   
