data_POSCAR
  _audit_creation_date              2014-09-24
  _audit_creation_method            'ToBaCCo'
  _symmetry_space_group_name_H-M    'P1'
  _symmetry_Int_Tables_number       1
  _symmetry_cell_setting            triclinic
  loop_
  _symmetry_equiv_pos_as_xyz
 x,y,z
_cell_length_a 32.9910
_cell_length_b 34.4722
_cell_length_c 29.7610
_cell_angle_alpha 90.149100
_cell_angle_beta 89.285400
_cell_angle_gamma 118.380600
loop_
  _atom_site_label
  _atom_site_type_symbol
  _atom_site_fract_x
  _atom_site_fract_y
  _atom_site_fract_z
O1 O 0.05209 0.47032 0.00924
 O2 O 0.00368 0.52700 -0.05971
 O3 O 0.05954 0.55193 0.00372
 O4 O -0.00457 0.45302 -0.06339
 O5 O -0.05853 0.42382 -0.01074
 O6 O 0.00091 0.52883 0.05151
 O7 O -0.05723 0.49983 -0.01433
 O8 O -0.00437 0.45163 0.05900
 Cu9 Cu 0.03467 0.50152 -0.03064
 Cu10 Cu -0.03562 0.47358 0.02630
 C11 C 0.03295 0.45274 0.04649
 C12 C -0.03644 0.52100 -0.04959
 C13 C 0.04028 0.55838 0.03798
 C14 C -0.04302 0.42228 -0.04969
 O15 O 0.58346 0.50066 0.01940
 O16 O 0.46986 0.45329 0.07643
 O17 O 0.50547 0.42760 0.01080
 O18 O 0.54666 0.52458 0.08504
 O19 O 0.52796 0.55973 0.03408
 O20 O 0.49263 0.46520 -0.04191
 O21 O 0.44766 0.48565 0.02573
 O22 O 0.56177 0.53604 -0.02823
 Cu23 Cu 0.52844 0.47289 0.05281
 Cu24 Cu 0.50270 0.51354 -0.00650
 C25 C 0.59173 0.52585 -0.01452
 C26 C 0.44009 0.46314 0.06148
 C27 C 0.49516 0.43118 -0.02941
 C28 C 0.54409 0.55845 0.07225
 O29 O 0.51623 1.05080 0.00297
 O30 O 0.55179 0.97949 0.06238
 O31 O 0.58713 1.03982 -0.00397
 O32 O 0.47419 0.98337 0.05621
 O33 O 0.44534 0.93735 -0.00055
 O34 O 0.55471 0.99301 -0.05953
 O35 O 0.52228 0.92968 0.00891
 O36 O 0.48699 1.00214 -0.05184
 Cu37 Cu 0.53537 1.01734 0.03526
 Cu38 Cu 0.50067 0.95892 -0.02966
 C39 C 0.49817 1.04007 -0.03546
 C40 C 0.54125 0.94169 0.04709
 C41 C 0.58724 1.02862 -0.04484
 C42 C 0.44019 0.95139 0.03724
 O43 O 1.05597 0.56782 0.48007
 O44 O 0.98198 0.47182 0.55028
 O45 O 1.04217 0.48641 0.48635
 O46 O 0.99600 0.55148 0.54520
 O47 O 0.93854 0.52776 0.49739
 O48 O 0.99190 0.47269 0.43250
 O49 O 0.92897 0.44851 0.49760
 O50 O 0.99910 0.54989 0.43239
 Cu51 Cu 1.02485 0.52158 0.52031
 Cu52 Cu 0.95891 0.49734 0.46000
 C53 C 1.04022 0.57521 0.44421
 C54 C 0.94281 0.44393 0.53589
 C55 C 1.02591 0.46974 0.44838
 C56 C 0.95851 0.54943 0.53224
 O57 O 0.53097 0.53444 0.46481
 O58 O 0.48772 0.42827 0.52375
 O59 O 0.45867 0.45910 0.45759
 O60 O 0.56103 0.50428 0.52903
 O61 O 0.52555 0.52543 0.57890
 O62 O 0.42165 0.47811 0.50803
 O63 O 0.45255 0.44936 0.57401
 O64 O 0.49390 0.55487 0.51382
 Cu65 Cu 0.51308 0.47923 0.48892
 Cu66 Cu 0.46982 0.50407 0.54868
 C67 C 0.51856 0.56210 0.47857
 C68 C 0.46365 0.42100 0.55951
 C69 C 0.42314 0.46173 0.47012
 C70 C 0.56052 0.52157 0.56658
 O71 O 0.48699 -0.05422 0.48992
 O72 O 0.44781 0.02843 0.51463
 O73 O 0.41346 -0.04879 0.47428
 O74 O 0.50367 0.00463 0.55670
 O75 O 0.54812 0.05269 0.50570
 O76 O 0.45654 -0.00435 0.42017
 O77 O 0.48713 0.06780 0.45628
 O78 O 0.53017 -0.00912 0.43613
 Cu79 Cu 0.45926 -0.02113 0.51389
 Cu80 Cu 0.51181 0.03094 0.45174
 C81 C 0.51402 -0.04587 0.45599
 C82 C 0.46344 0.06391 0.49104
 C83 C 0.41829 -0.03623 0.43377
 C84 C 0.54025 0.03935 0.54674
 C85 C 0.06684 0.37862 0.27807
 C86 C 0.06687 0.37542 0.23204
 C87 C 0.11238 0.39118 0.21870
 N88 N 0.14010 0.40406 0.25480
 C89 C 0.11244 0.39688 0.29112
 C90 C 0.12862 0.40016 0.17389
 C91 C 0.17373 0.40906 0.16149
 C92 C 0.19521 0.42731 0.12080
 C93 C 0.23808 0.42998 0.12178
 C94 C 0.24191 0.41391 0.16331
 N95 N 0.20215 0.40031 0.18694
 C96 C 0.28137 0.41182 0.17813
 C97 C 0.28809 0.40450 0.22338
 C98 C 0.32274 0.39609 0.23843
 C99 C 0.32168 0.39770 0.28450
 C100 C 0.28711 0.40807 0.29598
 N101 N 0.26639 0.41183 0.25857
 C102 C 0.27928 0.41986 0.33950
 C103 C 0.24220 0.42842 0.34902
 C104 C 0.24002 0.45303 0.38495
 C105 C 0.19773 0.45180 0.38312
 C106 C 0.17499 0.42584 0.34653
 N107 N 0.20247 0.41188 0.32586
 C108 C 0.12893 0.41314 0.33450
 H109 H 0.03694 0.37035 0.29930
 H110 H 0.03713 0.36427 0.21065
 H111 H 0.19285 0.38857 0.30029
 H112 H 0.18165 0.43790 0.09327
 H113 H 0.26369 0.44290 0.09508
 H114 H 0.34705 0.39055 0.21835
 H115 H 0.34501 0.39360 0.30683
 H116 H 0.18503 0.46778 0.40645
 H117 H 0.19380 0.38339 0.21745
 H118 H 0.26621 0.47015 0.40982
 C119 C 0.59891 0.66517 0.25662
 C120 C 0.59547 0.66621 0.30246
 C121 C 0.58439 0.69938 0.31242
 N122 N 0.58040 0.71821 0.27415
 C123 C 0.58892 0.69714 0.23995
 C124 C 0.57285 0.70799 0.35581
 C125 C 0.56760 0.74529 0.36710
 C126 C 0.55241 0.75161 0.40878
 C127 C 0.54963 0.78994 0.40604
 C128 C 0.56292 0.80605 0.36265
 N129 N 0.57536 0.77940 0.33960
 C130 C 0.56212 0.84405 0.34577
 C131 C 0.56841 0.85668 0.29986
 C132 C 0.56954 0.89480 0.28353
 C133 C 0.57193 0.89314 0.23757
 C134 C 0.57202 0.85397 0.22709
 N135 N 0.56974 0.83170 0.26526
 C136 C 0.56953 0.83769 0.18287
 C137 C 0.56923 0.79742 0.17240
 C138 C 0.55652 0.77646 0.13115
 C139 C 0.55925 0.73810 0.13453
 C140 C 0.57439 0.73683 0.17749
 N141 N 0.58102 0.77349 0.20020
 C142 C 0.58225 0.70247 0.19401
 H143 H 0.60628 0.64236 0.23767
 H144 H 0.59971 0.64434 0.32565
 H145 H 0.59616 0.78337 0.23142
 H146 H 0.54355 0.73047 0.43808
 H147 H 0.53806 0.80375 0.43283
 H148 H 0.56776 0.92071 0.30266
 H149 H 0.57219 0.91747 0.21448
 H150 H 0.55076 0.71382 0.10823
 H151 H 0.59015 0.78513 0.30776
 H152 H 0.54556 0.78718 0.10173
 C153 C 0.34267 0.88024 0.25273
 C154 C 0.34350 0.87812 0.20677
 C155 C 0.29804 0.85399 0.19357
 N156 N 0.26953 0.84155 0.22966
 C157 C 0.29671 0.85758 0.26583
 C158 C 0.28298 0.84693 0.14879
 C159 C 0.23935 0.81243 0.13674
 C160 C 0.21987 0.80642 0.09459
 C161 C 0.18003 0.76643 0.09581
 C162 C 0.17624 0.74945 0.13877
 N163 N 0.21250 0.77763 0.16336
 C164 C 0.14239 0.70724 0.15321
 C165 C 0.13422 0.69436 0.19886
 C166 C 0.10671 0.65159 0.21404
 C167 C 0.10691 0.65336 0.26009
 C168 C 0.13439 0.69717 0.27147
 N169 N 0.15058 0.72225 0.23401
 C170 C 0.14266 0.71363 0.31578
 C171 C 0.17388 0.75778 0.32592
 C172 C 0.17518 0.77870 0.36609
 C173 C 0.21378 0.81957 0.36405
 C174 C 0.23543 0.82184 0.32311
 N175 N 0.21052 0.78422 0.30000
 C176 C 0.27981 0.85514 0.31001
 H177 H 0.37240 0.89696 0.27400
 H178 H 0.37401 0.89285 0.18550
 H179 H 0.22150 0.77429 0.27142
 H180 H 0.23357 0.82797 0.06567
 H181 H 0.15694 0.75120 0.06805
 H182 H 0.08851 0.62214 0.19404
 H183 H 0.08874 0.62559 0.28258
 H184 H 0.22552 0.84401 0.39044
 H185 H 0.22160 0.77069 0.19444
 H186 H 0.15132 0.76554 0.39420
 C187 C 0.66070 0.55958 0.75334
 C188 C 0.66587 0.56018 0.79911
 C189 C 0.71284 0.58010 0.80682
 N190 N 0.73647 0.59259 0.76745
 C191 C 0.70471 0.57937 0.73468
 C192 C 0.73314 0.58607 0.84959
 C193 C 0.78034 0.59992 0.85579
 C194 C 0.80232 0.61122 0.89687
 C195 C 0.84436 0.61250 0.89077
 C196 C 0.84684 0.60227 0.84610
 N197 N 0.80806 0.59532 0.82497
 C198 C 0.87944 0.59084 0.82823
 C199 C 0.88681 0.58897 0.78167
 C200 C 0.91481 0.57347 0.76252
 C201 C 0.91151 0.57620 0.71683
 C202 C 0.88134 0.59301 0.70969
 N203 N 0.86702 0.60159 0.74938
 C204 C 0.86731 0.59989 0.66708
 C205 C 0.82871 0.60672 0.66098
 C206 C 0.81689 0.61850 0.62063
 C207 C 0.77338 0.61405 0.62659
 C208 C 0.76008 0.60011 0.67052
 N209 N 0.79409 0.59605 0.69125
 C210 C 0.71505 0.58482 0.68816
 H211 H 0.62826 0.54564 0.73583
 H212 H 0.63821 0.54684 0.82381
 H213 H 0.79041 0.57949 0.72131
 H214 H 0.78825 0.61514 0.92857
 H215 H 0.86902 0.61761 0.91679
 H216 H 0.93501 0.56097 0.77963
 H217 H 0.92849 0.56592 0.69180
 H218 H 0.75302 0.61867 0.60100
 H219 H 0.79746 0.57953 0.79433
 H220 H 0.83661 0.62724 0.58952
 C221 C 0.49095 0.11410 0.77749
 C222 C 0.48983 0.11467 0.73138
 C223 C 0.47797 0.14682 0.71998
 N224 N 0.47200 0.16595 0.75750
 C225 C 0.47997 0.14615 0.79279
 C226 C 0.46963 0.15590 0.67588
 C227 C 0.45634 0.18912 0.66602
 C228 C 0.43790 0.19368 0.62560
 C229 C 0.43175 0.22992 0.62872
 C230 C 0.44633 0.24750 0.67066
 N231 N 0.46142 0.22280 0.69342
 C232 C 0.44670 0.28679 0.68500
 C233 C 0.44995 0.30010 0.73019
 C234 C 0.44752 0.33712 0.74488
 C235 C 0.45038 0.33740 0.79063
 C236 C 0.45645 0.30158 0.80244
 N237 N 0.45515 0.27838 0.76538
 C238 C 0.46712 0.29347 0.84627
 C239 C 0.47111 0.25549 0.85828
 C240 C 0.48185 0.24753 0.90097
 C241 C 0.48323 0.20843 0.89920
 C242 C 0.47507 0.19393 0.85501
 N243 N 0.46636 0.22215 0.83060
 C244 C 0.47865 0.15681 0.83869
 H245 H 0.49943 0.09280 0.79743
 H246 H 0.49638 0.09348 0.70891
 H247 H 0.45650 0.21775 0.79736
 H248 H 0.42863 0.17404 0.59581
 H249 H 0.41779 0.24190 0.60273
 H250 H 0.44385 0.36144 0.72499
 H251 H 0.44934 0.36205 0.81249
 H252 H 0.49127 0.19348 0.92723
 H253 H 0.47909 0.23158 0.72352
 H254 H 0.48870 0.26786 0.93055
 C255 C 0.64558 0.11659 0.71723
 C256 C 0.65403 0.11054 0.76092
 C257 C 0.68157 0.15207 0.77846
 N258 N 0.69168 0.18315 0.74621
 C259 C 0.67018 0.16154 0.70850
 C260 C 0.69382 0.16177 0.82427
 C261 C 0.72625 0.20501 0.83640
 C262 C 0.72919 0.22462 0.87778
 C263 C 0.76949 0.26424 0.87688
 C264 C 0.79024 0.26705 0.83526
 N265 N 0.76307 0.23128 0.81059
 C266 C 0.83546 0.29864 0.82230
 C267 C 0.84852 0.30542 0.77632
 C268 C 0.89318 0.32888 0.75964
 C269 C 0.88977 0.33221 0.71397
 C270 C 0.84319 0.31030 0.70430
 N271 N 0.81815 0.29404 0.74241
 C272 C 0.82414 0.30899 0.66169
 C273 C 0.77728 0.28054 0.65199
 C274 C 0.75482 0.28236 0.61360
 C275 C 0.71153 0.24617 0.61496
 C276 C 0.70855 0.22368 0.65446
 N277 N 0.74885 0.24474 0.67656
 C278 C 0.67207 0.18190 0.66650
 H279 H 0.62430 0.09044 0.69455
 H280 H 0.64072 0.07901 0.77779
 H281 H 0.75864 0.23225 0.70363
 H282 H 0.70562 0.21112 0.90603
 H283 H 0.78296 0.28729 0.90443
 H284 H 0.92481 0.34282 0.77849
 H285 H 0.91823 0.34926 0.69061
 H286 H 0.68606 0.23658 0.58888
 H287 H 0.77224 0.22198 0.78036
 H288 H 0.76873 0.30629 0.58660
 C289 C 0.09250 0.44496 0.14947
 C290 C 0.06998 0.45788 0.11858
 C291 C 0.05565 0.43615 0.07746
 C292 C 0.06269 0.39954 0.06789
 C293 C 0.08485 0.38571 0.09987
 C294 C 0.10062 0.40926 0.14067
 C295 C 0.09025 0.34856 0.08996
 N296 N 0.07480 0.32710 0.05046
 N297 N 0.05420 0.34021 0.02040
 C298 C 0.04754 0.37563 0.02777
 H299 H 0.10450 0.46356 0.18030
 H300 H 0.06459 0.48583 0.12644
 H301 H 0.10633 0.33626 0.11335
 H302 H 0.03024 0.38459 0.00240
 C303 C 0.53886 0.62436 0.17011
 C304 C 0.53029 0.58953 0.14137
 C305 C 0.55779 0.59590 0.10310
 C306 C 0.59617 0.63774 0.09480
 C307 C 0.60599 0.67295 0.12506
 C308 C 0.57639 0.66631 0.16255
 C309 C 0.64526 0.71365 0.11672
 N310 N 0.67227 0.71871 0.08012
 N311 N 0.66279 0.68578 0.05151
 C312 C 0.62572 0.64547 0.05762
 H313 H 0.51580 0.61862 0.19852
 H314 H 0.50111 0.55754 0.14840
 H315 H 0.65479 0.74139 0.13903
 H316 H 0.61992 0.61976 0.03366
 C317 C 0.33241 0.85590 0.08228
 C318 C 0.37075 0.88157 0.05558
 C319 C 0.39486 0.92762 0.06034
 C320 C 0.37609 0.94845 0.08852
 C321 C 0.33627 0.92223 0.11500
 C322 C 0.31598 0.87555 0.11354
 C323 C 0.31825 0.94360 0.14271
 N324 N 0.33876 0.98826 0.14350
 N325 N 0.37586 1.01289 0.11832
 C326 C 0.39513 0.99458 0.09078
 H327 H 0.31715 0.82032 0.08042
 H328 H 0.38327 0.86486 0.03299
 H329 H 0.28774 0.92519 0.16328
 H330 H 0.42439 1.01632 0.07025
 C331 C 0.86617 0.55560 0.60121
 C332 C 0.88835 0.54356 0.56834
 C333 C 0.93578 0.56917 0.56019
 C334 C 0.96041 0.60988 0.58293
 C335 C 0.93770 0.62214 0.61641
 C336 C 0.89066 0.59380 0.62666
 C337 C 0.96302 0.66228 0.63897
 N338 N 1.00801 0.68858 0.62815
 N339 N 1.02922 0.67741 0.59630
 C340 C 1.00700 0.63908 0.57327
 H341 H 0.83014 0.53361 0.60865
 H342 H 0.86882 0.51240 0.55128
 H343 H 0.94730 0.67315 0.66473
 H344 H 1.02575 0.63230 0.54709
 C345 C 0.48371 0.33718 0.62089
 C346 C 0.48684 0.36817 0.58945
 C347 C 0.45259 0.38114 0.58671
 C348 C 0.41179 0.35849 0.61322
 C349 C 0.40788 0.32549 0.64412
 C350 C 0.44532 0.31666 0.64952
 C351 C 0.36666 0.30253 0.66889
 N352 N 0.33189 0.31245 0.66342
 N353 N 0.33555 0.34355 0.63471
 C354 C 0.37418 0.36683 0.60946
 H355 H 0.51212 0.32990 0.62373
 H356 H 0.51762 0.38376 0.56871
 H357 H 0.36177 0.27671 0.69237
 H358 H 0.37459 0.39093 0.58622
 C359 C 0.64721 0.12091 0.61165
 C360 C 0.61570 0.08418 0.58663
 C361 C 0.56814 0.06903 0.58410
 C362 C 0.54728 0.09274 0.60676
 C363 C 0.59732 0.15362 0.62515
 C364 C 0.63936 0.15415 0.63155
 C365 C 0.59032 0.21025 0.60951
 N366 N 0.53806 0.20489 0.58132
 N367 N 0.48936 0.15784 0.56912
 C368 C 0.48506 0.08560 0.58360
 H369 H 0.68132 0.12408 0.61518
 H370 H 0.62944 0.06544 0.56886
 H371 H 0.61896 0.24270 0.61488
 H372 H 0.50812 0.07691 0.59747
 C373 C 0.44784 0.08777 0.88306
 C374 C 0.45227 0.05996 0.91410
 C375 C 0.49378 0.07306 0.93656
 C376 C 0.53203 0.11523 0.92709
 C377 C 0.52801 0.14240 0.89374
 C378 C 0.48532 0.12876 0.87242
 C379 C 0.56706 0.18245 0.88236
 N380 N 0.60719 0.19505 0.90410
 N381 N 0.61092 0.17016 0.93615
 C382 C 0.57497 0.13086 0.94835
 H383 H 0.41515 0.07697 0.86654
 H384 H 0.42310 0.02779 0.92049
 H385 H 0.56606 0.20388 0.85642
 H386 H 0.58103 0.11243 0.97403
 C387 C 0.68668 0.59950 0.90736
 C388 C 0.65352 0.58506 0.94146
 C389 C 0.63507 0.54215 0.95906
 C390 C 0.65284 0.51402 0.94357
 C391 C 0.68665 0.52893 0.90867
 C392 C 0.70245 0.57148 0.88982
 C393 C 0.70227 0.49995 0.89224
 N394 N 0.68509 0.45881 0.90967
 N395 N 0.65316 0.44459 0.94213
 C396 C 0.63631 0.47053 0.95949
 H397 H 0.69873 0.63214 0.89323
 H398 H 0.64029 0.60691 0.95256
 H399 H 0.72774 0.50944 0.86552
 H400 H 0.61002 0.45631 0.98516
 C401 C 0.89083 0.37384 0.84831
 C402 C 0.92230 0.40346 0.87821
 C403 C 0.92945 0.38938 0.92008
 C404 C 0.90716 0.34363 0.93015
 C405 C 0.87871 0.31287 0.89735
 C406 C 0.86876 0.32830 0.85674
 C407 C 0.86215 0.26770 0.90601
 N408 N 0.87134 0.25436 0.94564
 N409 N 0.89674 0.28310 0.97687
 C410 C 0.91516 0.32721 0.97042
 H411 H 0.88368 0.38681 0.81806
 H412 H 0.93857 0.43828 0.86982
 H413 H 0.84247 0.24283 0.88152
 H414 H 0.93684 0.34893 0.99634
 C415 C 0.58253 0.90795 0.39672
 C416 C 0.57084 0.93345 0.42511
 C417 C 0.52466 0.92048 0.43623
 C418 C 0.48958 0.88011 0.41899
 C419 C 0.50146 0.85486 0.38907
 C420 C 0.54829 0.86927 0.37763
 C421 C 0.46582 0.81621 0.37065
 N422 N 0.42134 0.80360 0.38190
 N423 N 0.41013 0.82707 0.41014
 C424 C 0.44259 0.86481 0.42891
 H425 H 0.61845 0.91919 0.38835
 H426 H 0.59802 0.96453 0.43719
 H427 H 0.47284 0.79599 0.34732
 H428 H 0.43116 0.88209 0.45157
 C429 C 0.35963 0.46230 0.36667
 C430 C 0.39428 0.47140 0.39757
 C431 C 0.38469 0.44865 0.43851
 C432 C 0.33928 0.41511 0.44793
 C433 C 0.30412 0.40481 0.41579
 C434 C 0.31447 0.42888 0.37484
 C435 C 0.25987 0.37007 0.42551
 N436 N 0.25152 0.34782 0.46499
 N437 N 0.28445 0.35769 0.49516
 C438 C 0.32803 0.39044 0.48790
 H439 H 0.36821 0.48125 0.33576
 H440 H 0.42887 0.49708 0.38976
 H441 H 0.23194 0.36016 0.40207
 H442 H 0.35360 0.39655 0.51309
 C443 C 0.07593 0.67271 0.36721
 C444 C 0.05117 0.63877 0.39775
 C445 C 0.06995 0.61304 0.41507
 C446 C 0.11513 0.62220 0.40159
 C447 C 0.14054 0.65733 0.37115
 C448 C 0.12027 0.68202 0.35332
 C449 C 0.18511 0.66569 0.35805
 N450 N 0.20253 0.63987 0.37375
 N451 N 0.17829 0.60613 0.40135
 C452 C 0.13522 0.59621 0.41555
 H453 H 0.05993 0.69104 0.35328
 H454 H 0.01660 0.63195 0.40732
 H455 H 0.20617 0.69235 0.33531
 H456 H 0.11718 0.56769 0.43693
 C457 C 0.94501 0.59803 0.87434
 C458 C 0.96500 0.58096 0.90393
 C459 C 0.94029 0.53748 0.91983
 C460 C 0.89475 0.51016 0.90462
 C461 C 0.87450 0.52762 0.87462
 C462 C 0.89992 0.57190 0.85970
 C463 C 0.82945 0.49979 0.85966
 N464 N 0.80666 0.45724 0.87357
 N465 N 0.82588 0.44057 0.90119
 C466 C 0.86904 0.46537 0.91700
 H467 H 0.96473 0.63181 0.86280
 H468 H 0.99997 0.60198 0.91481
 H469 H 0.81225 0.51122 0.83670
 H470 H 0.88275 0.44937 0.93842
 C471 C 0.45053 0.32069 0.91903
 C472 C 0.45767 0.35434 0.94928
 C473 C 0.48931 0.39842 0.93937
 C474 C 0.51765 0.40792 0.90011
 C475 C 0.51434 0.37280 0.87272
 C476 C 0.47838 0.32923 0.88045
 C477 C 0.54696 0.38242 0.83776
 N478 N 0.57888 0.42468 0.82916
 N479 N 0.58071 0.45790 0.85344
 C480 C 0.55136 0.45104 0.88844
 H481 H 0.42306 0.28767 0.92578
 H482 H 0.43633 0.34622 0.97938
 H483 H 0.54735 0.35670 0.81717
 H484 H 0.55533 0.47943 0.90693
 C485 C 0.62149 0.10137 0.85689
 C486 C 0.59694 0.06626 0.88578
 C487 C 0.61761 0.05914 0.92360
 C488 C 0.66555 0.08627 0.92962
 C489 C 0.69201 0.11841 0.89623
 C490 C 0.66938 0.12706 0.85995
 C491 C 0.74029 0.13988 0.90001
 N492 N 0.76018 0.13197 0.93597
 N493 N 0.73526 0.10330 0.96797
 C494 C 0.68871 0.08000 0.96590
 H495 H 0.60255 0.10807 0.83130
 H496 H 0.56010 0.04715 0.88073
 H497 H 0.76262 0.16237 0.87455
 H498 H 0.67043 0.05592 0.99193
 C499 C 0.08044 0.44935 0.34906
 C500 C 0.05366 0.46129 0.37618
 C501 C 0.04743 0.45071 0.42211
 C502 C 0.06511 0.42350 0.43979
 C503 C 0.08969 0.40862 0.41103
 C504 C 0.09902 0.42320 0.36563
 C505 C 0.10341 0.37886 0.42853
 N506 N 0.09405 0.36570 0.47203
 N507 N 0.07127 0.37971 0.49903
 C508 C 0.05622 0.40781 0.48442
 H509 H 0.08718 0.46120 0.31467
 H510 H 0.04071 0.48202 0.36166
 H511 H 0.12097 0.36546 0.40794
 H512 H 0.03626 0.41635 0.50755
 C513 C 0.59077 0.66616 0.41338
 C514 C 0.57749 0.63097 0.44325
 C515 C 0.53078 0.60173 0.45128
 C516 C 0.49666 0.60802 0.42888
 C517 C 0.51019 0.64276 0.39732
 C518 C 0.55765 0.67193 0.38964
 C519 C 0.47559 0.64674 0.37371
 N520 N 0.43059 0.61819 0.38198
 N521 N 0.41783 0.58582 0.41201
 C522 C 0.44922 0.57971 0.43565
 H523 H 0.62710 0.68825 0.40765
 H524 H 0.60383 0.62617 0.45983
 H525 H 0.48381 0.67214 0.34866
 H526 H 0.43661 0.55265 0.45923
 C527 C 0.32008 0.86867 0.38265
 C528 C 0.35310 0.89545 0.41298
 C529 C 0.38158 0.94064 0.40427
 C530 C 0.37167 0.96001 0.36659
 C531 C 0.33545 0.93280 0.33727
 C532 C 0.31133 0.88641 0.34415
 C533 C 0.32405 0.95296 0.30213
 N534 N 0.34778 0.99723 0.29630
 N535 N 0.38161 1.02281 0.32367
 C536 C 0.39410 1.00590 0.35870
 H537 H 0.30206 0.83344 0.38877
 H538 H 0.35839 0.87965 0.44205
 H539 H 0.29602 0.93404 0.27963
 H540 H 0.42026 1.02893 0.38065
 C541 C 0.59857 0.89821 0.12602
 C542 C 0.59189 0.92270 0.09238
 C543 C 0.54766 0.91052 0.07642
 C544 C 0.50934 0.87281 0.09497
 C545 C 0.51601 0.84876 0.13007
 C546 C 0.56104 0.86165 0.14557
 C547 C 0.47709 0.81286 0.14925
 N548 N 0.43446 0.80169 0.13384
 N549 N 0.42816 0.82407 0.10072
 C550 C 0.46403 0.85919 0.08090
 H551 H 0.63313 0.90852 0.13780
 H552 H 0.62137 0.95196 0.07933
 H553 H 0.48011 0.79366 0.17643
 H554 H 0.45673 0.87601 0.05435
 C555 C 0.33004 0.39413 0.12605
 C556 C 0.36828 0.40658 0.09772
 C557 C 0.39775 0.45114 0.08804
 C558 C 0.38882 0.48392 0.10770
 C559 C 0.35099 0.47132 0.13776
 C560 C 0.32128 0.42604 0.14661
 C561 C 0.34438 0.50465 0.15861
 N562 N 0.37340 0.54762 0.14922
 N563 N 0.40868 0.55952 0.12062
 C564 C 0.41741 0.52927 0.09965
 H565 H 0.30767 0.35945 0.13285
 H566 H 0.37508 0.38129 0.08337
 H567 H 0.31653 0.49704 0.18238
 H568 H 0.44684 0.54119 0.07724
 C569 C 0.13753 0.65288 0.09643
 C570 C 0.11266 0.61667 0.06903
 C571 C 0.06513 0.60004 0.06328
 C572 C 0.04295 0.62255 0.08331
 C573 C 0.06835 0.65922 0.11163
 C574 C 0.11569 0.67364 0.11890
 C575 C 0.04551 0.68044 0.13182
 N576 N 0.00038 0.66633 0.12333
 N577 N -0.02327 0.63261 0.09594
 C578 C -0.00357 0.61038 0.07552
 H579 H 0.17377 0.66365 0.10175
 H580 H 0.13042 0.60031 0.05375
 H581 H 0.06327 0.70840 0.15382
 H582 H -0.02431 0.58413 0.05275
 C583 C 0.42572 0.10338 0.60547
 C584 C 0.42403 0.09382 0.54950
 C585 C 0.46854 0.10470 0.51369
 C586 C 0.52562 0.13347 0.53036
 C587 C 0.52849 0.14615 0.61287
 C588 C 0.47325 0.12898 0.63784
 C589 C 0.55682 0.15084 0.55900
 N590 N 0.60379 0.17292 0.53669
 N591 N 0.59944 0.17050 0.49025
 C592 C 0.55394 0.14765 0.48213
 H593 H 0.39297 0.09469 0.62171
 H594 H 0.38994 0.07426 0.53600
 H595 H 0.59615 0.16809 0.55633
 H596 H 0.54016 0.14205 0.44861
 C597 C 0.65357 0.59270 0.64774
 C598 C 0.61620 0.57710 0.61872
 C599 C 0.60066 0.53651 0.59675
 C600 C 0.62291 0.51061 0.60521
 C601 C 0.66075 0.52648 0.63489
 C602 C 0.67623 0.56795 0.65596
 C603 C 0.68136 0.49968 0.64353
 N604 N 0.66506 0.45971 0.62373
 N605 N 0.62939 0.44460 0.59615
 C606 C 0.60773 0.46846 0.58640
 H607 H 0.66482 0.62421 0.66410
 H608 H 0.59946 0.59711 0.61308
 H609 H 0.70999 0.50982 0.66616
 H610 H 0.57861 0.45373 0.56452
 C611 C 0.86879 0.38632 0.63588
 C612 C 0.89767 0.41874 0.60577
 C613 C 0.91204 0.40751 0.56565
 C614 C 0.89738 0.36265 0.55582
 C615 C 0.86844 0.32952 0.58690
 C616 C 0.85395 0.34165 0.62716
 C617 C 0.85577 0.28537 0.57693
 N618 N 0.87077 0.27530 0.53821
 N619 N 0.89778 0.30638 0.50901
 C620 C 0.91171 0.34970 0.51652
 H621 H 0.85809 0.39614 0.66652
 H622 H 0.90867 0.45301 0.61370
 H623 H 0.83432 0.25884 0.59962
 H624 H 0.93410 0.37359 0.49194
   
