data_POSCAR
  _audit_creation_date              2014-09-24
  _audit_creation_method            'ToBaCCo'
  _symmetry_space_group_name_H-M    'P1'
  _symmetry_Int_Tables_number       1
  _symmetry_cell_setting            triclinic
  loop_
  _symmetry_equiv_pos_as_xyz
 x,y,z
_cell_length_a 43.4922
_cell_length_b 43.7076
_cell_length_c 43.5342
_cell_angle_alpha 89.972100
_cell_angle_beta 89.969900
_cell_angle_gamma 89.978400
loop_
  _atom_site_label
  _atom_site_type_symbol
  _atom_site_fract_x
  _atom_site_fract_y
  _atom_site_fract_z
N1 N 0.14893 0.16975 0.23415
 N2 N 0.17071 0.14882 0.23405
 C3 C 0.16621 0.12958 0.25787
 C4 C 0.14033 0.13915 0.27347
 C5 C 0.12986 0.16460 0.25799
 H6 H 0.18048 0.11007 0.26339
 H7 H 0.10988 0.17826 0.26356
 Cu8 Cu 0.20230 0.14876 0.20230
 Cu9 Cu 0.14670 0.20199 0.20325
 Cu10 Cu 0.20291 0.20177 0.14655
 N11 N 0.23387 0.14865 0.17052
 N12 N 0.23381 0.16946 0.14864
 C13 C 0.25759 0.16426 0.12950
 C14 C 0.27321 0.13889 0.14002
 C15 C 0.25774 0.12944 0.16601
 H16 H 0.26308 0.17785 0.10947
 H17 H 0.26340 0.11006 0.18040
 N18 N 0.16974 0.23256 0.14840
 N19 N 0.14838 0.23267 0.17002
 C20 C 0.12927 0.25648 0.16517
 C21 C 0.13916 0.27189 0.13940
 C22 C 0.16476 0.25631 0.12927
 H23 H 0.10969 0.26230 0.17933
 H24 H 0.17870 0.26197 0.10949
 H25 H 0.16834 0.17791 0.16865
 H26 H 0.19301 0.20299 0.19294
 N27 N -0.14908 0.83015 0.23314
 N28 N -0.17052 0.85140 0.23275
 C29 C -0.16594 0.87063 0.25653
 C30 C -0.14036 0.86077 0.27239
 C31 C -0.13016 0.83512 0.25710
 H32 H -0.18001 0.89032 0.26190
 H33 H -0.11046 0.82118 0.26294
 Cu34 Cu -0.20206 0.85181 0.20101
 Cu35 Cu -0.14716 0.79771 0.20253
 Cu36 Cu -0.20356 0.79770 0.14621
 N37 N -0.23386 0.85141 0.16954
 N38 N -0.23426 0.83016 0.14813
 C39 C -0.25827 0.83514 0.12924
 C40 C -0.27356 0.86081 0.13947
 C41 C -0.25767 0.87067 0.16501
 H42 H -0.26412 0.82120 0.10956
 H43 H -0.26302 0.89035 0.17908
 N44 N -0.17055 0.76679 0.14815
 N45 N -0.14908 0.76681 0.16962
 C46 C -0.12997 0.74301 0.16478
 C47 C -0.13998 0.72747 0.13917
 C48 C -0.16565 0.74297 0.12911
 H49 H -0.11025 0.73733 0.17879
 H50 H -0.17965 0.73725 0.10941
 H51 H -0.16868 0.82161 0.16768
 H52 H -0.19361 0.79729 0.19262
 N53 N -0.14909 0.17018 -0.23314
 N54 N -0.17046 0.14888 -0.23272
 C55 C -0.16570 0.12953 -0.25637
 C56 C -0.14009 0.13939 -0.27222
 C57 C -0.13005 0.16516 -0.25702
 H58 H -0.17974 0.10984 -0.26175
 H59 H -0.11042 0.17917 -0.26291
 Cu60 Cu -0.20239 0.14886 -0.20132
 Cu61 Cu -0.14742 0.20282 -0.20272
 Cu62 Cu -0.20386 0.20275 -0.14634
 N63 N -0.23383 0.14878 -0.16942
 N64 N -0.23430 0.17006 -0.14803
 C65 C -0.25820 0.16495 -0.12901
 C66 C -0.27333 0.13915 -0.13911
 C67 C -0.25746 0.12935 -0.16471
 H68 H -0.26411 0.17893 -0.10938
 H69 H -0.26278 0.10967 -0.17879
 N70 N -0.17107 0.23387 -0.14848
 N71 N -0.14958 0.23387 -0.16996
 C72 C -0.13050 0.25768 -0.16512
 C73 C -0.14054 0.27319 -0.13949
 C74 C -0.16620 0.25768 -0.12943
 H75 H -0.11072 0.26331 -0.17907
 H76 H -0.18014 0.26331 -0.10965
 H77 H -0.16900 0.17887 -0.16794
 H78 H -0.19386 0.20336 -0.19276
 N79 N 0.14903 0.83026 -0.23291
 N80 N 0.17056 0.85141 -0.23262
 C81 C 0.16595 0.87070 -0.25636
 C82 C 0.14026 0.86098 -0.27212
 C83 C 0.13003 0.83535 -0.25679
 H84 H 0.18013 0.89027 -0.26185
 H85 H 0.11028 0.82147 -0.26258
 Cu86 Cu 0.20250 0.85138 -0.20127
 Cu87 Cu 0.14715 0.79775 -0.20233
 Cu88 Cu 0.20351 0.79774 -0.14594
 N89 N 0.23385 0.85141 -0.16931
 N90 N 0.23413 0.83027 -0.14778
 C91 C 0.25801 0.83535 -0.12876
 C92 C 0.27332 0.86100 -0.13902
 C93 C 0.25759 0.87072 -0.16473
 H94 H 0.26379 0.82147 -0.10901
 H95 H 0.26305 0.89029 -0.17892
 N96 N 0.17057 0.76677 -0.14794
 N97 N 0.14912 0.76678 -0.16943
 C98 C 0.13001 0.74299 -0.16457
 C99 C 0.13999 0.72747 -0.13892
 C100 C 0.16566 0.74296 -0.12887
 H101 H 0.11028 0.73733 -0.17857
 H102 H 0.17961 0.73727 -0.10912
 H103 H 0.16885 0.82176 -0.16772
 H104 H 0.19358 0.79697 -0.19237
 N105 N 0.16974 1.14880 0.76669
 N106 N 0.14799 1.16972 0.76734
 C107 C 0.12803 1.16432 0.74430
 C108 C 0.13799 1.13876 0.72864
 C109 C 0.16443 1.12942 0.74327
 H110 H 0.10812 1.17814 0.73895
 H111 H 0.17898 1.11034 0.73702
 Cu112 Cu 0.14851 1.20254 0.79759
 Cu113 Cu 0.20419 1.14937 0.79503
 Cu114 Cu 0.20194 1.20282 0.85368
 N115 N 0.14878 1.23365 0.82956
 N116 N 0.16967 1.23354 0.85141
 C117 C 0.16454 1.25723 0.87048
 C118 C 0.13913 1.27283 0.85997
 C119 C 0.12958 1.25745 0.83406
 H120 H 0.17822 1.26272 0.89048
 H121 H 0.11014 1.26318 0.81969
 N122 N 0.23278 1.16987 0.85166
 N123 N 0.23362 1.14946 0.82930
 C124 C 0.25729 1.13020 0.83423
 C125 C 0.27190 1.13910 0.86079
 C126 C 0.25599 1.16422 0.87134
 H127 H 0.26357 1.11123 0.81956
 H128 H 0.26113 1.17744 0.89169
 H129 H 0.17871 1.16870 0.83011
 H130 H 0.20338 1.19543 0.80742
 N131 N 0.83082 0.85129 0.76694
 N132 N 0.85198 0.82978 0.76708
 C133 C 0.87137 0.83446 0.74338
 C134 C 0.86166 0.86017 0.72782
 C135 C 0.83597 0.87036 0.74320
 H136 H 0.89096 0.82027 0.73774
 H137 H 0.82204 0.89006 0.73749
 Cu138 Cu 0.85178 0.79772 0.79810
 Cu139 Cu 0.79809 0.85303 0.79733
 Cu140 Cu 0.79767 0.79652 0.85326
 N141 N 0.85166 0.76650 0.82995
 N142 N 0.83030 0.76612 0.85136
 C143 C 0.83534 0.74233 0.87034
 C144 C 0.86118 0.72718 0.86022
 C145 C 0.87108 0.74292 0.83463
 H146 H 0.82131 0.73649 0.89001
 H147 H 0.89086 0.73754 0.82057
 N148 N 0.76668 0.82931 0.85129
 N149 N 0.76690 0.85088 0.83002
 C150 C 0.74310 0.86999 0.83496
 C151 C 0.72739 0.85986 0.86045
 C152 C 0.74273 0.83413 0.87033
 H153 H 0.73761 0.88984 0.82118
 H154 H 0.73689 0.82011 0.88995
 H155 H 0.82210 0.83099 0.83185
 H156 H 0.79713 0.80671 0.80691
 N157 N 0.16970 0.85056 1.23332
 N158 N 0.14871 0.82888 1.23333
 C159 C 0.12960 0.83324 1.25732
 C160 C 0.13929 0.85895 1.27286
 C161 C 0.16469 0.86943 1.25721
 H162 H 0.10999 0.81910 1.26292
 H163 H 0.17840 0.88932 1.26274
 Cu164 Cu 0.14813 0.79792 1.20128
 Cu165 Cu 0.20189 0.85306 1.20233
 Cu166 Cu 0.20410 0.79458 1.14863
 N167 N 0.14798 0.76679 1.16934
 N168 N 0.16981 0.76600 1.14839
 C169 C 0.16461 0.74247 1.12917
 C170 C 0.13820 0.72789 1.13866
 C171 C 0.12814 0.74369 1.16415
 H172 H 0.17917 0.73616 1.11004
 H173 H 0.10808 0.73857 1.17789
 N174 N 0.23346 0.82884 1.14859
 N175 N 0.23260 0.85111 1.16911
 C176 C 0.25576 0.87076 1.16344
 C177 C 0.27168 0.86031 1.13823
 C178 C 0.25713 0.83382 1.12925
 H179 H 0.26089 0.89099 1.17677
 H180 H 0.26348 0.81921 1.11024
 H181 H 0.17903 0.82989 1.16768
 H182 H 0.20306 0.80699 1.19479
 N183 N 0.83019 1.14886 1.23301
 N184 N 0.85088 1.17081 1.23335
 C185 C 0.86954 1.16677 1.25773
 C186 C 0.85985 1.14100 1.27321
 C187 C 0.83494 1.13011 1.25707
 H188 H 0.88887 1.18117 1.26365
 H189 H 0.82159 1.10987 1.26219
 Cu190 Cu 0.85163 1.20213 1.20155
 Cu191 Cu 0.79990 1.14533 1.20043
 Cu192 Cu 0.79726 1.20355 1.14648
 N193 N 0.85168 1.23307 1.16942
 N194 N 0.83019 1.23361 1.14816
 C195 C 0.83526 1.25740 1.12918
 C196 C 0.86120 1.27242 1.13920
 C197 C 0.87115 1.25660 1.16470
 H198 H 0.82113 1.26339 1.10966
 H199 H 0.89094 1.26199 1.17873
 N200 N 0.76626 1.17074 1.14876
 N201 N 0.76725 1.14853 1.16935
 C202 C 0.74328 1.12958 1.16475
 C203 C 0.72672 1.14041 1.14010
 C204 C 0.74171 1.16641 1.13042
 H205 H 0.73834 1.10930 1.17811
 H206 H 0.73534 1.18087 1.11129
 H207 H 0.82283 1.16967 1.16615
 H208 H 0.79744 1.19190 1.19256
 N209 N 0.46760 0.96695 1.05442
 N210 N 0.44411 0.96310 1.07323
 N211 N 0.53238 0.94586 1.03317
 N212 N 0.55584 0.92706 1.03702
 N213 N 0.53231 0.96708 1.05450
 N214 N 0.55572 0.96330 1.07343
 N215 N 0.46771 0.94576 1.03307
 N216 N 0.44432 0.92691 1.03676
 C217 C 0.42981 0.93799 1.06192
 C218 C 0.57021 0.93821 1.06225
 N219 N 0.53238 0.96712 0.94572
 N220 N 0.55586 0.96334 0.92688
 N221 N 0.46766 0.94580 0.96695
 N222 N 0.44424 0.92697 0.96311
 N223 N 0.46766 0.96705 0.94563
 N224 N 0.44425 0.96326 0.92672
 N225 N 0.53236 0.94589 0.96706
 N226 N 0.55579 0.92709 0.96333
 Mn227 Mn 0.50003 0.94546 1.00006
 C228 C 0.57025 0.93824 0.93815
 C229 C 0.42982 0.93813 0.93789
 N230 N 0.53209 1.03296 1.05451
 N231 N 0.55551 1.03676 1.07338
 N232 N 0.46733 1.05411 1.03315
 N233 N 0.44386 1.07290 1.03701
 N234 N 0.46736 1.03284 1.05446
 N235 N 0.44393 1.03659 1.07338
 N236 N 0.53206 1.05420 1.03319
 N237 N 0.55546 1.07303 1.03696
 Mn238 Mn 0.49984 0.99996 1.05486
 C239 C 0.56989 1.06188 1.06215
 C240 C 0.42944 1.06169 1.06223
 N241 N 0.46767 1.03294 0.94565
 N242 N 0.44424 1.03669 0.92677
 N243 N 0.53231 1.05424 0.96704
 N244 N 0.55576 1.07305 0.96325
 N245 N 0.53238 1.03299 0.94572
 N246 N 0.55585 1.03678 0.92687
 N247 N 0.46760 1.05415 0.96698
 N248 N 0.44413 1.07291 0.96320
 Mn249 Mn 0.50002 1.00003 0.94530
 Mn250 Mn 0.49982 1.05455 1.00009
 Cl251 Cl 0.49993 1.00001 1.00008
 C252 C 0.42977 1.06175 0.93799
 C253 C 0.57025 1.06190 0.93806
 N254 N 0.03307 0.46761 0.05456
 N255 N 0.03678 0.44424 0.07342
 N256 N 0.05454 0.53196 0.03323
 N257 N 0.07334 0.55536 0.03695
 N258 N 0.03316 0.53198 0.05452
 N259 N 0.03682 0.55537 0.07330
 N260 N 0.05443 0.46756 0.03324
 N261 N 0.07326 0.44416 0.03703
 C262 C 0.06198 0.42981 0.06222
 C263 C 0.06202 0.56974 0.06209
 N264 N 0.03326 0.53207 -0.05425
 N265 N 0.03699 0.55553 -0.07300
 N266 N 0.05448 0.46761 -0.03293
 N267 N 0.07329 0.44422 -0.03674
 N268 N 0.03313 0.46770 -0.05423
 N269 N 0.03683 0.44439 -0.07311
 N270 N 0.05460 0.53202 -0.03292
 N271 N 0.07340 0.55544 -0.03659
 Mn272 Mn 0.05490 0.49978 0.00016
 C273 C 0.06216 0.56991 -0.06172
 C274 C 0.06200 0.42993 -0.06194
 N275 N -0.03304 0.53222 0.05449
 N276 N -0.03682 0.55559 0.07332
 N277 N -0.05446 0.46788 0.03321
 N278 N -0.07333 0.44454 0.03698
 N279 N -0.03312 0.46786 0.05452
 N280 N -0.03688 0.44452 0.07337
 N281 N -0.05436 0.53225 0.03315
 N282 N -0.07321 0.55562 0.03689
 Mn283 Mn 0.00002 0.49992 0.05490
 C284 C -0.06201 0.56999 0.06207
 C285 C -0.06208 0.43018 0.06217
 N286 N -0.03305 0.46774 -0.05423
 N287 N -0.03682 0.44434 -0.07302
 N288 N -0.05429 0.53220 -0.03298
 N289 N -0.07306 0.55563 -0.03676
 N290 N -0.03292 0.53212 -0.05427
 N291 N -0.03656 0.55549 -0.07312
 N292 N -0.05441 0.46780 -0.03291
 N293 N -0.07328 0.44445 -0.03661
 Mn294 Mn 0.00011 0.49991 -0.05462
 Mn295 Mn -0.05477 0.50003 0.00012
 Cl296 Cl 0.00007 0.49991 0.00014
 C297 C -0.06205 0.43001 -0.06176
 C298 C -0.06172 0.56995 -0.06193
 N299 N 1.05467 0.03306 0.46727
 N300 N 1.07355 0.03676 0.44380
 N301 N 1.03341 0.05441 0.53189
 N302 N 1.03716 0.07326 0.55525
 N303 N 1.05477 0.03319 0.53192
 N304 N 1.07365 0.03703 0.55534
 N305 N 1.03335 0.05432 0.46725
 N306 N 1.03715 0.07307 0.44376
 C307 C 1.06236 0.06184 0.42933
 C308 C 1.06238 0.06216 0.56968
 N309 N 0.94585 0.03320 0.53220
 N310 N 0.92696 0.03697 0.55563
 N311 N 0.96715 0.05437 0.46751
 N312 N 0.96340 0.07316 0.44409
 N313 N 0.94577 0.03318 0.46756
 N314 N 0.92688 0.03698 0.44415
 N315 N 0.96718 0.05444 0.53215
 N316 N 0.96337 0.07325 0.55558
 Mn317 Mn 1.00027 0.05476 0.49970
 C318 C 0.93815 0.06207 0.57003
 C319 C 0.93816 0.06205 0.42972
 N320 N 1.05473 -0.03272 0.53209
 N321 N 1.07366 -0.03648 0.55548
 N322 N 1.03321 -0.05401 0.46757
 N323 N 1.03682 -0.07286 0.44420
 N324 N 1.05460 -0.03284 0.46743
 N325 N 1.07338 -0.03671 0.44391
 N326 N 1.03338 -0.05394 0.53218
 N327 N 1.03721 -0.07271 0.55563
 Mn328 Mn 1.05508 0.00017 0.49968
 C329 C 1.06247 -0.06155 0.56998
 C330 C 1.06199 -0.06181 0.42964
 N331 N 0.94572 -0.03269 0.46761
 N332 N 0.92678 -0.03643 0.44423
 N333 N 0.96720 -0.05390 0.53219
 N334 N 0.96348 -0.07277 0.55555
 N335 N 0.94583 -0.03269 0.53227
 N336 N 0.92697 -0.03656 0.55571
 N337 N 0.96705 -0.05394 0.46758
 N338 N 0.96319 -0.07274 0.44416
 Mn339 Mn 0.94541 0.00025 0.49991
 Mn340 Mn 1.00021 -0.05431 0.49988
 Cl341 Cl 1.00025 0.00022 0.49980
 C342 C 0.93795 -0.06154 0.42979
 C343 C 0.93828 -0.06169 0.57003
 C344 C 1.10236 0.10115 0.34822
 C345 C 1.07611 0.11431 0.36137
 C346 C 1.06298 0.10145 0.38773
 C347 C 1.12754 0.12609 0.29881
 C348 C 1.10223 0.06207 0.38780
 C349 C 1.11533 0.07496 0.36145
 C350 C 1.11608 0.11465 0.32130
 C351 C 1.07598 0.07526 0.40126
 H352 H 1.06585 0.13456 0.35131
 H353 H 1.04273 0.11206 0.39754
 H354 H 1.11269 0.04185 0.39768
 H355 H 1.13561 0.06455 0.35146
 C356 C 0.89802 -0.10083 0.34878
 C357 C 0.88499 -0.07469 0.36202
 C358 C 0.89804 -0.06181 0.38837
 C359 C 0.87305 -0.12557 0.29925
 C360 C 0.93733 -0.10117 0.38828
 C361 C 0.92424 -0.11401 0.36194
 C362 C 0.88441 -0.11424 0.32181
 C363 C 0.92430 -0.07499 0.40180
 H364 H 0.86471 -0.06429 0.35203
 H365 H 0.88756 -0.04161 0.39825
 H366 H 0.95759 -0.11176 0.39810
 H367 H 0.93453 -0.13424 0.35187
 C368 C 0.89829 0.10123 0.65121
 C369 C 0.92448 0.11444 0.63801
 C370 C 0.93755 0.10166 0.61160
 C371 C 0.87335 0.12580 0.70088
 C372 C 0.89829 0.06231 0.61152
 C373 C 0.88526 0.07511 0.63793
 C374 C 0.88471 0.11454 0.67827
 C375 C 0.92453 0.07551 0.59806
 H376 H 0.93476 0.13465 0.64810
 H377 H 0.95777 0.11228 0.60175
 H378 H 0.88780 0.04213 0.60163
 H379 H 0.86500 0.06469 0.64795
 C380 C 1.10220 -0.10078 0.65118
 C381 C 1.07598 -0.11392 0.63801
 C382 C 1.06296 -0.10111 0.61159
 C383 C 1.12694 -0.12541 0.70092
 C384 C 1.10234 -0.06187 0.61143
 C385 C 1.11532 -0.07471 0.63785
 C386 C 1.11568 -0.11412 0.67827
 C387 C 1.07607 -0.07499 0.59801
 H388 H 1.06562 -0.13409 0.64813
 H389 H 1.04270 -0.11167 0.60178
 H390 H 1.11289 -0.04172 0.60150
 H391 H 1.13560 -0.06435 0.64785
 C392 C 0.34825 1.10106 1.10224
 C393 C 0.36153 1.07489 1.11522
 C394 C 0.38792 1.06199 1.10214
 C395 C 0.29865 1.12589 1.12729
 C396 C 0.38782 1.10135 1.06290
 C397 C 0.36143 1.11421 1.07602
 C398 C 0.32124 1.11451 1.11590
 C399 C 0.40137 1.07515 1.07589
 H400 H 0.35154 1.06449 1.13550
 H401 H 0.39781 1.04178 1.11261
 H402 H 0.39763 1.11194 1.04266
 H403 H 0.35135 1.13444 1.06575
 C404 C 0.34859 0.89869 0.89824
 C405 C 0.36185 0.88559 0.92443
 C406 C 0.38827 0.89846 0.93741
 C407 C 0.29884 0.87392 0.87357
 C408 C 0.38826 0.93772 0.89807
 C409 C 0.36184 0.92481 0.88512
 C410 C 0.32150 0.88527 0.88479
 C411 C 0.40177 0.92463 0.92431
 H412 H 0.35180 0.86538 0.93479
 H413 H 0.39814 0.88792 0.95765
 H414 H 0.39812 0.95791 0.88752
 H415 H 0.35178 0.93516 0.86487
 C416 C 0.65135 0.89870 1.10204
 C417 C 0.63814 0.88563 1.07582
 C418 C 0.61176 0.89854 1.06279
 C419 C 0.70097 0.87379 1.12684
 C420 C 0.61172 0.93778 1.10211
 C421 C 0.63811 0.92483 1.11511
 C422 C 0.67837 0.88520 1.11556
 C423 C 0.59825 0.92471 1.07586
 H424 H 0.64820 0.86541 1.06549
 H425 H 0.60192 0.88801 1.04254
 H426 H 0.60184 0.95797 1.11263
 H427 H 0.64814 0.93516 1.13538
 C428 C 0.65152 1.10133 0.89837
 C429 C 0.63822 1.11446 0.92453
 C430 C 0.61180 1.10158 0.93753
 C431 C 0.70120 1.12617 0.87355
 C432 C 0.61190 1.06226 0.89829
 C433 C 0.63832 1.07518 0.88532
 C434 C 0.67858 1.11479 0.88485
 C435 C 0.59833 1.07540 0.92449
 H436 H 0.64823 1.13470 0.93483
 H437 H 0.60188 1.11215 0.95774
 H438 H 0.60207 1.04206 0.88779
 H439 H 0.64841 1.06480 0.86509
 C440 C 0.10119 0.34861 0.10154
 C441 C 0.11444 0.36185 0.07541
 C442 C 0.10165 0.38828 0.06255
 C443 C 0.12573 0.29885 0.12604
 C444 C 0.06219 0.38831 0.10190
 C445 C 0.07502 0.36188 0.11472
 C446 C 0.11451 0.32150 0.11486
 C447 C 0.07542 0.40179 0.07571
 H448 H 0.13469 0.35179 0.06501
 H449 H 0.11230 0.39814 0.04235
 H450 H 0.04196 0.39819 0.11249
 H451 H 0.06457 0.35183 0.13494
 C452 C -0.10179 0.34917 -0.10110
 C453 C -0.11487 0.36238 -0.07488
 C454 C -0.10186 0.38866 -0.06197
 C455 C -0.12689 0.29990 -0.12592
 C456 C -0.06250 0.38855 -0.10142
 C457 C -0.07554 0.36227 -0.11430
 C458 C -0.11542 0.32233 -0.11458
 C459 C -0.07560 0.40205 -0.07519
 H460 H -0.13516 0.35243 -0.06446
 H461 H -0.11239 0.39852 -0.04172
 H462 H -0.04223 0.39833 -0.11204
 H463 H -0.06521 0.35223 -0.13458
 C464 C 0.10155 0.65112 -0.10081
 C465 C 0.07537 0.63796 -0.11403
 C466 C 0.06245 0.61155 -0.10125
 C467 C 0.12643 0.70065 -0.12544
 C468 C 0.10181 0.61142 -0.06185
 C469 C 0.11469 0.63782 -0.07466
 C470 C 0.11506 0.67810 -0.11418
 C471 C 0.07561 0.59798 -0.07508
 H472 H 0.06499 0.64806 -0.13425
 H473 H 0.04222 0.60174 -0.11189
 H474 H 0.11239 0.60150 -0.04165
 H475 H 0.13494 0.64782 -0.06422
 C476 C -0.10160 0.65102 0.10126
 C477 C -0.11470 0.63778 0.07509
 C478 C -0.10176 0.61141 0.06226
 C479 C -0.12645 0.70060 0.12577
 C480 C -0.06245 0.61148 0.10172
 C481 C -0.07543 0.63785 0.11451
 C482 C -0.11510 0.67803 0.11458
 C483 C -0.07555 0.59797 0.07551
 H484 H -0.13494 0.64779 0.06463
 H485 H -0.11230 0.60154 0.04204
 H486 H -0.04222 0.60166 0.11236
 H487 H -0.06508 0.64792 0.13476
 C488 C 1.10072 0.10124 0.65142
 C489 C 1.07471 0.11437 0.63786
 C490 C 1.06221 0.10163 0.61121
 C491 C 1.12461 0.12556 0.70159
 C492 C 1.10178 0.06253 0.61155
 C493 C 1.11424 0.07531 0.63821
 C494 C 1.11365 0.11446 0.67876
 C495 C 1.07564 0.07559 0.59781
 H496 H 1.06410 0.13447 0.64787
 H497 H 1.04209 0.11219 0.60108
 H498 H 1.11261 0.04250 0.60169
 H499 H 1.13442 0.06501 0.64850
 C500 C 0.89946 -0.10162 0.65117
 C501 C 0.88604 -0.07554 0.63818
 C502 C 0.89869 -0.06244 0.61174
 C503 C 0.87519 -0.12651 0.70090
 C504 C 0.93831 -0.10149 0.61127
 C505 C 0.92562 -0.11454 0.63769
 C506 C 0.88632 -0.11518 0.67825
 C507 C 0.92492 -0.07534 0.59802
 H508 H 0.86577 -0.06536 0.64845
 H509 H 0.88794 -0.04228 0.60204
 H510 H 0.95855 -0.11188 0.60120
 H511 H 0.93618 -0.13473 0.64757
 C512 C 1.10085 -0.10210 0.34876
 C513 C 1.07461 -0.11488 0.36221
 C514 C 1.06186 -0.10166 0.38851
 C515 C 1.12555 -0.12754 0.29956
 C516 C 1.10152 -0.06268 0.38790
 C517 C 1.11423 -0.07593 0.36158
 C518 C 1.11422 -0.11598 0.32197
 C519 C 1.07528 -0.07551 0.40166
 H520 H 1.06407 -0.13511 0.35243
 H521 H 1.04158 -0.11197 0.39859
 H522 H 1.11226 -0.04248 0.39750
 H523 H 1.13455 -0.06586 0.35131
 C524 C 0.89856 0.10217 0.34908
 C525 C 0.88536 0.07598 0.36207
 C526 C 0.89833 0.06276 0.38829
 C527 C 0.87357 0.12750 0.29995
 C528 C 0.93791 0.10182 0.38846
 C529 C 0.92491 0.11500 0.36226
 C530 C 0.88500 0.11598 0.32235
 C531 C 0.92466 0.07566 0.40179
 H532 H 0.86500 0.06584 0.35200
 H533 H 0.88771 0.04255 0.39802
 H534 H 0.95825 0.11217 0.39833
 H535 H 0.93533 0.13523 0.35234
 C536 C 0.10089 0.34897 -0.10167
 C537 C 0.11422 0.36197 -0.07549
 C538 C 0.10151 0.38832 -0.06244
 C539 C 0.12549 0.29959 -0.12665
 C540 C 0.06197 0.38867 -0.10169
 C541 C 0.07471 0.36232 -0.11470
 C542 C 0.11420 0.32207 -0.11528
 C543 C 0.07531 0.40195 -0.07548
 H544 H 0.13448 0.35179 -0.06522
 H545 H 0.11224 0.39806 -0.04225
 H546 H 0.04176 0.39868 -0.11220
 H547 H 0.06421 0.35243 -0.13495
 C548 C -0.10096 0.34905 0.10148
 C549 C -0.07485 0.36235 0.11464
 C550 C -0.06213 0.38878 0.10179
 C551 C -0.12529 0.29932 0.12599
 C552 C -0.10163 0.38866 0.06249
 C553 C -0.11431 0.36222 0.07538
 C554 C -0.11414 0.32197 0.11482
 C555 C -0.07545 0.40220 0.07563
 H556 H -0.06435 0.35233 0.13484
 H557 H -0.04193 0.39872 0.11235
 H558 H -0.11232 0.39849 0.04231
 H559 H -0.13453 0.35208 0.06502
 C560 C -0.10060 0.65097 -0.10155
 C561 C -0.07440 0.63767 -0.11459
 C562 C -0.06165 0.61131 -0.10162
 C563 C -0.12517 0.70042 -0.12641
 C564 C -0.10126 0.61152 -0.06240
 C565 C -0.11397 0.63789 -0.07541
 C566 C -0.11389 0.67791 -0.11509
 C567 C -0.07503 0.59794 -0.07545
 H568 H -0.06387 0.64764 -0.13482
 H569 H -0.04140 0.60136 -0.11211
 H570 H -0.11199 0.60174 -0.04220
 H571 H -0.13425 0.64803 -0.06513
 C572 C 0.10050 0.65120 0.10103
 C573 C 0.07445 0.63781 0.11427
 C574 C 0.06188 0.61126 0.10157
 C575 C 0.12471 0.70101 0.12542
 C576 C 0.10141 0.61142 0.06226
 C577 C 0.11395 0.63798 0.07501
 C578 C 0.11359 0.67835 0.11429
 C579 C 0.07528 0.59780 0.07547
 H580 H 0.06390 0.64786 0.13443
 H581 H 0.04171 0.60128 0.11218
 H582 H 0.11217 0.60155 0.04213
 H583 H 0.13415 0.64815 0.06462
 C584 C 0.34840 1.10085 0.89882
 C585 C 0.36167 1.11400 0.92494
 C586 C 0.38818 1.10122 0.93777
 C587 C 0.29871 1.12551 0.87426
 C588 C 0.38818 1.06202 0.89836
 C589 C 0.36167 1.07484 0.88558
 C590 C 0.32132 1.11421 0.88549
 C591 C 0.40170 1.07515 0.92455
 H592 H 0.35157 1.13415 0.93535
 H593 H 0.39808 1.11176 0.95797
 H594 H 0.39809 1.04189 0.88776
 H595 H 0.35156 1.06450 0.86534
 C596 C 0.34838 0.89849 1.10056
 C597 C 0.36147 0.92450 1.11398
 C598 C 0.38801 0.93745 1.10138
 C599 C 0.29856 0.87376 1.12477
 C600 C 0.38840 0.89838 1.06184
 C601 C 0.36187 0.88547 1.07447
 C602 C 0.32123 0.88506 1.11366
 C603 C 0.40173 0.92446 1.07521
 H604 H 0.35120 0.93472 1.13420
 H605 H 0.39780 0.95755 1.11212
 H606 H 0.39848 0.88793 1.04165
 H607 H 0.35191 0.86533 1.06394
 C608 C 0.65063 1.10172 1.10178
 C609 C 0.63760 1.07553 1.11492
 C610 C 0.61134 1.06242 1.10193
 C611 C 0.69991 1.12683 1.12667
 C612 C 0.61120 1.10162 1.06249
 C613 C 0.63746 1.11468 1.07551
 C614 C 0.67744 1.11537 1.11533
 C615 C 0.59784 1.07543 1.07566
 H616 H 0.64768 1.06529 1.13523
 H617 H 0.60157 1.04220 1.11249
 H618 H 0.60133 1.11206 1.04220
 H619 H 0.64742 1.13493 1.06514
 C620 C 0.65125 0.89852 0.89881
 C621 C 0.63820 0.92467 0.88560
 C622 C 0.61184 0.93773 0.89848
 C623 C 0.70063 0.87346 0.87401
 C624 C 0.61162 0.89853 0.93793
 C625 C 0.63796 0.88552 0.92502
 C626 C 0.67814 0.88491 0.88535
 C627 C 0.59826 0.92471 0.92471
 H628 H 0.64833 0.93491 0.86532
 H629 H 0.60206 0.95792 0.88788
 H630 H 0.60166 0.88807 0.95818
 H631 H 0.64792 0.86528 0.93541
   
