data_POSCAR
  _audit_creation_date              2014-09-24
  _audit_creation_method            'ToBaCCo'
  _symmetry_space_group_name_H-M    'P1'
  _symmetry_Int_Tables_number       1
  _symmetry_cell_setting            triclinic
  loop_
  _symmetry_equiv_pos_as_xyz
 x,y,z
_cell_length_a 24.2564
_cell_length_b 23.6533
_cell_length_c 23.7482
_cell_angle_alpha 91.027700
_cell_angle_beta 89.368300
_cell_angle_gamma 89.844900
loop_
  _atom_site_label
  _atom_site_type_symbol
  _atom_site_fract_x
  _atom_site_fract_y
  _atom_site_fract_z
C1 C 0.17153 0.16036 0.23874
 N2 N 0.21615 0.13173 0.21958
 C3 C 0.24428 0.14808 0.17388
 N4 N 0.22732 0.19459 0.14570
 C5 C 0.18205 0.22445 0.16325
 N6 N 0.15379 0.20727 0.21061
 C7 C -0.18920 0.81736 0.25969
 N8 N -0.23508 0.84228 0.23978
 C9 C -0.25991 0.82215 0.19321
 N10 N -0.23890 0.77569 0.16625
 C11 C -0.19335 0.74947 0.18577
 N12 N -0.16789 0.77058 0.23270
 C13 C -0.18782 0.20012 -0.26139
 N14 N -0.17103 0.24636 -0.23131
 C15 C -0.19881 0.26261 -0.18338
 N16 N -0.24283 0.23209 -0.16593
 C17 C -0.25967 0.18598 -0.19609
 N18 N -0.23221 0.17066 -0.24343
 C19 C 0.16607 0.83148 -0.23683
 N20 N 0.15212 0.78548 -0.20547
 C21 C 0.18512 0.76857 -0.16227
 N22 N 0.23200 0.79797 -0.15164
 C23 C 0.24617 0.84386 -0.18268
 N24 N 0.21299 0.86013 -0.22477
 C25 C 0.17980 1.16775 0.74615
 N26 N 0.16016 1.21494 0.77275
 C27 C 0.18729 1.23881 0.82150
 N28 N 0.23569 1.20873 0.83881
 C29 C 0.25393 1.16178 0.81084
 N30 N 0.22610 1.14203 0.76528
 C31 C 0.86141 0.84304 0.78018
 N32 N 0.89080 0.80782 0.81216
 C33 C 0.86889 0.78553 0.85886
 N34 N 0.81703 0.80025 0.87546
 C35 C 0.78685 0.83714 0.84546
 N36 N 0.80869 0.85813 0.79653
 C37 C 0.18207 0.81602 1.25534
 N38 N 0.22661 0.84536 1.23534
 C39 C 0.25467 0.82644 1.18833
 N40 N 0.23767 0.77840 1.16158
 C41 C 0.19370 0.74923 1.18121
 N42 N 0.16626 0.76815 1.22794
 C43 C 0.84054 1.15742 1.22669
 N44 N 0.86971 1.19745 1.20024
 C45 C 0.85055 1.22198 1.15393
 N46 N 0.80143 1.20541 1.13242
 C47 C 0.77172 1.16404 1.15730
 N48 N 0.79099 1.14012 1.20542
 N49 N 0.56156 1.04687 1.10296
 N50 N 0.60286 1.04732 1.13865
 N51 N 0.45135 1.09321 1.06261
 N52 N 0.40965 1.12834 1.06508
 N53 N 0.44487 1.05110 1.09718
 N54 N 0.39721 1.05695 1.12471
 N55 N 0.56639 1.08798 1.06684
 N56 N 0.61141 1.11780 1.07737
 C57 C 0.63355 1.09185 1.12261
 C58 C 0.37641 1.10589 1.10374
 N59 N 0.44893 1.06429 0.90248
 N60 N 0.40649 1.07480 0.86975
 N61 N 0.56670 1.09818 0.94626
 N62 N 0.60447 1.13739 0.94216
 N63 N 0.56510 1.06580 0.90085
 N64 N 0.60317 1.08223 0.86431
 N65 N 0.45160 1.10163 0.94400
 N66 N 0.41064 1.13830 0.94078
 Mn67 Mn 0.50953 1.09555 1.00500
 C68 C 0.38291 1.12114 0.89437
 C69 C 0.62718 1.12682 0.89144
 N70 N 0.44502 0.92798 1.08659
 N71 N 0.40282 0.91704 1.12033
 N72 N 0.56460 0.89292 1.04611
 N73 N 0.60375 0.85502 1.05152
 N74 N 0.56085 0.92632 1.09074
 N75 N 0.59858 0.91234 1.12776
 N76 N 0.44885 0.89029 1.04534
 N77 N 0.40857 0.85291 1.04989
 Mn78 Mn 0.50254 0.98807 1.09524
 C79 C 0.38016 0.87019 1.09680
 C80 C 0.62479 0.86780 1.10224
 N81 N 0.56653 0.94473 0.88807
 N82 N 0.61006 0.94539 0.85423
 N83 N 0.45428 0.89864 0.92554
 N84 N 0.41318 0.86321 0.92101
 N85 N 0.44933 0.94084 0.89080
 N86 N 0.40337 0.93470 0.86126
 N87 N 0.57020 0.90361 0.92440
 N88 N 0.61691 0.87513 0.91574
 Mn89 Mn 0.50696 1.00387 0.89455
 Mn90 Mn 0.51000 0.89583 0.98520
 Cl91 Cl 0.50722 0.99570 0.99496
 C92 C 0.64114 0.90166 0.87134
 C93 C 0.38190 0.88541 0.88095
 N94 N -0.06596 0.45645 -0.10187
 N95 N -0.07166 0.41917 -0.14315
 N96 N -0.10279 0.56866 -0.04348
 N97 N -0.13100 0.61566 -0.03572
 N98 N -0.06416 0.57428 -0.08198
 N99 N -0.06490 0.62616 -0.10140
 N100 N -0.10530 0.45157 -0.06403
 N101 N -0.13907 0.40997 -0.07869
 C102 C -0.11725 0.39044 -0.12840
 C103 C -0.10703 0.65096 -0.07203
 N104 N -0.06390 0.54751 0.11237
 N105 N -0.06753 0.58650 0.15265
 N106 N -0.10610 0.43712 0.05477
 N107 N -0.13786 0.39261 0.04896
 N108 N -0.06822 0.42945 0.09287
 N109 N -0.07318 0.37854 0.11409
 N110 N -0.10284 0.55396 0.07514
 N111 N -0.13408 0.59807 0.08918
 Mn112 Mn -0.10483 0.50279 0.00562
 C113 C -0.11146 0.61775 0.13782
 C114 C -0.11703 0.35664 0.08618
 N115 N 0.05298 0.57023 -0.08622
 N116 N 0.05866 0.61389 -0.11901
 N117 N 0.09052 0.44613 -0.06527
 N118 N 0.12199 0.40184 -0.07740
 N119 N 0.05197 0.45295 -0.10326
 N120 N 0.05499 0.41371 -0.14340
 N121 N 0.09386 0.56618 -0.05065
 N122 N 0.12912 0.60874 -0.05944
 Mn123 Mn -0.00629 0.51348 -0.09367
 C124 C 0.10570 0.63823 -0.10255
 C125 C 0.10029 0.37928 -0.12841
 N126 N 0.04961 0.42618 0.09434
 N127 N 0.05461 0.38297 0.12795
 N128 N 0.09318 0.54814 0.07212
 N129 N 0.12702 0.59035 0.08338
 N130 N 0.05448 0.54358 0.11118
 N131 N 0.05982 0.58246 0.15128
 N132 N 0.09058 0.42837 0.05770
 N133 N 0.12501 0.38516 0.06649
 Mn134 Mn -0.00702 0.48664 0.10315
 Mn135 Mn 0.09327 0.49717 0.00345
 Cl136 Cl -0.00572 0.49995 0.00468
 C137 C 0.10119 0.35703 0.11065
 C138 C 0.10677 0.61407 0.13506
 N139 N 0.91889 0.08958 0.43349
 N140 N 0.90642 0.11938 0.38884
 N141 N 0.88291 0.05401 0.55129
 N142 N 0.84489 0.05976 0.59105
 N143 N 0.91607 0.09772 0.55184
 N144 N 0.90167 0.13454 0.59163
 N145 N 0.88858 0.04376 0.43452
 N146 N 0.85422 0.04133 0.39207
 C147 C 0.86588 0.08848 0.36375
 C148 C 0.85730 0.11005 0.61568
 N149 N 0.94235 -0.09705 0.56514
 N150 N 0.93710 -0.12231 0.61447
 N151 N 0.90706 -0.07546 0.44144
 N152 N 0.87531 -0.09269 0.40006
 N153 N 0.94999 -0.10893 0.44565
 N154 N 0.94874 -0.14980 0.40694
 N155 N 0.89931 -0.06438 0.55757
 N156 N 0.86391 -0.06680 0.59956
 Mn157 Mn 0.89428 -0.01066 0.49592
 C158 C 0.88735 -0.10284 0.63476
 C159 C 0.90181 -0.13896 0.37879
 N160 N 1.03406 0.11624 0.55552
 N161 N 1.03662 0.15285 0.59851
 N162 N 1.07898 0.07701 0.43726
 N163 N 1.11177 0.08886 0.39416
 N164 N 1.03538 0.11000 0.43672
 N165 N 1.03709 0.14483 0.39397
 N166 N 1.07708 0.08246 0.55588
 N167 N 1.10960 0.09462 0.59820
 Mn168 Mn 0.97598 0.10418 0.49461
 C169 C 1.08434 0.13851 0.62463
 C170 C 1.08485 0.13134 0.36758
 N171 N 1.06814 -0.09019 0.44696
 N172 N 1.08451 -0.12611 0.40637
 N173 N 1.09473 -0.03722 0.56362
 N174 N 1.12958 -0.03765 0.60608
 N175 N 1.06166 -0.08102 0.56641
 N176 N 1.07319 -0.11238 0.61035
 N177 N 1.09820 -0.04405 0.44508
 N178 N 1.13561 -0.04735 0.40461
 Mn179 Mn 1.00568 -0.09536 0.50631
 Mn180 Mn 1.08779 0.01961 0.50020
 Cl181 Cl 0.99118 0.00436 0.49920
 C182 C 1.12690 -0.09840 0.38052
 C183 C 1.11555 -0.08466 0.63495
 C184 C 1.14779 0.13922 0.28788
 C185 C 1.10401 0.15949 0.31570
 H186 H 1.16778 0.10216 0.30480
 H187 H 1.08168 0.19574 0.30040
 C188 C 0.83444 -0.15730 0.30668
 C189 C 0.88145 -0.17285 0.33074
 H190 H 0.81259 -0.12066 0.32384
 H191 H 0.90503 -0.20887 0.31502
 C192 C 0.84128 0.18124 0.69095
 C193 C 0.82629 0.13377 0.66333
 H194 H 0.87731 0.20454 0.67734
 H195 H 0.79071 0.10965 0.67670
 C196 C 1.13199 -0.15014 0.71496
 C197 C 1.14515 -0.10369 0.68543
 H198 H 1.09669 -0.17542 0.70301
 H199 H 1.18011 -0.07822 0.69796
 C200 C 0.29136 1.11756 1.15884
 C201 C 0.32387 1.13313 1.11699
 H202 H 0.30279 1.08144 1.18375
 H203 H 0.31344 1.16967 1.09225
 C204 C 0.29474 0.87412 0.82750
 C205 C 0.32977 0.85784 0.86677
 H206 H 0.30422 0.91081 0.80249
 H207 H 0.32057 0.82067 0.89120
 C208 C 0.69457 0.85083 1.17312
 C209 C 0.67027 0.83564 1.12531
 H210 H 0.67976 0.88774 1.19653
 H211 H 0.68496 0.79947 1.10073
 C212 C 0.69677 1.15255 0.82157
 C213 C 0.67077 1.16279 0.87004
 H214 H 0.68516 1.11625 0.79581
 H215 H 0.68246 1.19834 0.89674
 C216 C 0.16594 0.27529 0.12998
 C217 C 0.12068 0.30605 0.14128
 H218 H 0.19210 0.28715 0.09489
 H219 H 0.09475 0.29322 0.17621
 C220 C -0.18112 0.31166 -0.14877
 C221 C -0.13760 0.34284 -0.16293
 H222 H -0.20395 0.32164 -0.11037
 H223 H -0.11471 0.33277 -0.20125
 C224 C 0.17170 0.71833 -0.12672
 C225 C 0.12459 0.68972 -0.13269
 H226 H 0.20106 0.70499 -0.09556
 H227 H 0.09613 0.70440 -0.16415
 C228 C -0.17304 0.69902 0.15443
 C229 C -0.13028 0.66791 0.17053
 H230 H -0.19483 0.68692 0.11649
 H231 H -0.10822 0.67932 0.20846
 C232 C 1.15359 0.14494 0.69879
 C233 C 1.10728 0.16585 0.67577
 H234 H 1.17271 0.10767 0.67973
 H235 H 1.08655 0.20257 0.69395
 C236 C 0.88613 -0.14213 0.72926
 C237 C 0.86053 -0.11501 0.68899
 H238 H 0.92816 -0.15627 0.72127
 H239 H 0.81855 -0.10028 0.69562
 C240 C 1.15104 -0.16622 0.30288
 C241 C 1.16098 -0.11859 0.33201
 H242 H 1.11652 -0.19219 0.31577
 H243 H 1.19478 -0.09165 0.31925
 C244 C 0.86229 0.13910 0.27690
 C245 C 0.83868 0.10246 0.31097
 H246 H 0.90140 0.15752 0.28930
 H247 H 0.80060 0.08145 0.29975
 C248 C 0.16601 0.29402 -0.14582
 C249 C 0.12253 0.32206 -0.16358
 H250 H 0.17620 0.26605 -0.16294
 H251 H 0.11142 0.35132 -0.14530
 C252 C -0.12089 0.26796 0.13407
 C253 C -0.14134 0.30161 0.09553
 H254 H -0.08300 0.27962 0.15517
 H255 H -0.17920 0.29131 0.07382
 C256 C -0.10335 0.74109 -0.11735
 C257 C -0.12751 0.70782 -0.08022
 H258 H -0.06386 0.72880 -0.13580
 H259 H -0.16668 0.71910 -0.06059
 C260 C 0.17498 0.69843 0.15094
 C261 C 0.13145 0.67011 0.16972
 H262 H 0.19610 0.68514 0.11241
 H263 H 0.11945 0.64148 0.15132
 C264 C 0.30416 1.13204 0.82962
 C265 C 0.33289 1.14989 0.87452
 H266 H 0.31764 1.09477 0.80606
 H267 H 0.31937 1.18699 0.89828
 C268 C 0.30325 0.85773 1.16622
 C269 C 0.33118 0.84051 1.11950
 H270 H 0.31630 0.89543 1.18889
 H271 H 0.31807 0.80293 1.09669
 C272 C 0.71850 1.14818 1.13154
 C273 C 0.68569 1.10744 1.15067
 H274 H 0.70633 1.17099 1.09446
 H275 H 0.69762 1.08380 1.18725
 C276 C 0.73030 0.85021 0.86710
 C277 C 0.69601 0.88825 0.84556
 H278 H 0.71696 0.82786 0.90429
 H279 H 0.70899 0.91191 0.80913
   
