data_POSCAR
  _audit_creation_date              2014-09-24
  _audit_creation_method            'ToBaCCo'
  _symmetry_space_group_name_H-M    'P1'
  _symmetry_Int_Tables_number       1
  _symmetry_cell_setting            triclinic
  loop_
  _symmetry_equiv_pos_as_xyz
 x,y,z
_cell_length_a 39.3107
_cell_length_b 39.1978
_cell_length_c 43.2259
_cell_angle_alpha 89.772900
_cell_angle_beta 90.187500
_cell_angle_gamma 120.278300
loop_
  _atom_site_label
  _atom_site_type_symbol
  _atom_site_fract_x
  _atom_site_fract_y
  _atom_site_fract_z
C1 C 0.03616 0.52692 1.31670
 C2 C -0.00044 0.51001 1.33158
 C3 C -0.03639 0.49027 1.31567
 C4 C -0.03580 0.48862 1.28279
 C5 C 0.00089 0.50557 1.26694
 C6 C 0.03701 0.52443 1.28388
 C7 C 0.07245 0.53738 1.26759
 C8 C 0.07291 0.53426 1.23568
 C9 C 0.03793 0.51725 1.21847
 C10 C 0.00147 0.50278 1.23401
 C11 C -0.07059 0.47200 1.26513
 C12 C -0.06997 0.46892 1.23321
 C13 C -0.03435 0.48467 1.21677
 C14 C -0.03331 0.48069 1.18396
 C15 C 0.00328 0.49339 1.16975
 C16 C 0.03852 0.51265 1.18621
 H17 H 0.10045 0.54871 1.27905
 H18 H 0.10112 0.54435 1.22467
 H19 H -0.09915 0.46125 1.27541
 H20 H -0.09830 0.45271 1.22213
 H21 H -0.00090 0.51162 1.35662
 H22 H 0.00496 0.49099 1.14487
 C23 C 0.51871 0.48052 1.18579
 C24 C 0.50188 0.49896 1.16917
 C25 C 0.48448 0.51785 1.18409
 C26 C 0.48413 0.51889 1.21680
 C27 C 0.50106 0.50025 1.23412
 C28 C 0.51806 0.48067 1.21852
 C29 C 0.53393 0.46183 1.23603
 C30 C 0.53319 0.46208 1.26820
 C31 C 0.51805 0.48265 1.28449
 C32 C 0.50067 0.50092 1.26706
 C33 C 0.46652 0.53723 1.23264
 C34 C 0.46594 0.53776 1.26477
 C35 C 0.48240 0.51946 1.28240
 C36 C 0.48127 0.51946 1.31501
 C37 C 0.49797 0.50116 1.33186
 C38 C 0.51722 0.48341 1.31754
 H39 H 0.54667 0.44613 1.22504
 H40 H 0.54363 0.44468 1.27972
 H41 H 0.45270 0.55116 1.22040
 H42 H 0.45226 0.55264 1.27562
 H43 H 0.50231 0.49857 1.14407
 H44 H 0.49712 0.50230 1.35691
 C45 C 0.47022 0.96593 1.31606
 C46 C 0.48154 1.00247 1.32998
 C47 C 0.50322 1.03847 1.31416
 C48 C 0.50936 1.03779 1.28181
 C49 C 0.49560 1.00109 1.26648
 C50 C 0.47624 0.96505 1.28361
 C51 C 0.46035 0.92919 1.26725
 C52 C 0.46440 0.92848 1.23543
 C53 C 0.48315 0.96350 1.21812
 C54 C 0.49954 1.00031 1.23364
 C55 C 0.52493 1.07239 1.26380
 C56 C 0.52923 1.07164 1.23200
 C57 C 0.51809 1.03620 1.21625
 C58 C 0.52108 1.03491 1.18337
 C59 C 0.50394 0.99783 1.16892
 C60 C 0.48519 0.96255 1.18557
 H61 H 0.44267 0.90090 1.27828
 H62 H 0.45169 0.89986 1.22446
 H63 H 0.53190 1.10046 1.27363
 H64 H 0.53922 1.09924 1.22004
 H65 H 0.47729 1.00325 1.35469
 H66 H 0.50548 0.99605 1.14395
 C67 C 0.96507 0.47143 0.68336
 C68 C 1.00081 0.48447 0.66811
 C69 C 1.03719 0.50537 0.68349
 C70 C 1.03732 0.50987 0.71625
 C71 C 1.00106 0.49543 0.73231
 C72 C 0.96489 0.47667 0.71569
 C73 C 0.92935 0.46200 0.73201
 C74 C 0.92907 0.46506 0.76397
 C75 C 0.96426 0.48222 0.78106
 C76 C 1.00078 0.49840 0.76521
 C77 C 1.07213 0.52471 0.73380
 C78 C 1.07188 0.52770 0.76584
 C79 C 1.03681 0.51605 0.78223
 C80 C 1.03595 0.51785 0.81524
 C81 C 0.99915 0.50077 0.83003
 C82 C 0.96377 0.48335 0.81365
 H83 H 0.90115 0.44699 0.72040
 H84 H 0.90075 0.45321 0.77518
 H85 H 1.09995 0.53222 0.72334
 H86 H 1.09958 0.53733 0.77740
 H87 H 1.00011 0.48072 0.64321
 H88 H 0.99766 0.50158 0.85507
 C89 C 0.51693 0.47985 0.68459
 C90 C 0.49909 0.49762 0.66841
 C91 C 0.48091 0.51547 0.68379
 C92 C 0.48045 0.51570 0.71653
 C93 C 0.49843 0.49771 0.73332
 C94 C 0.51671 0.47967 0.71730
 C95 C 0.53484 0.46259 0.73440
 C96 C 0.53462 0.46271 0.76658
 C97 C 0.51680 0.48045 0.78297
 C98 C 0.49821 0.49783 0.76619
 C99 C 0.46197 0.53276 0.73293
 C100 C 0.46176 0.53290 0.76512
 C101 C 0.47946 0.51538 0.78222
 C102 C 0.47960 0.51554 0.81494
 C103 C 0.49794 0.49824 0.83110
 C104 C 0.51644 0.48076 0.81569
 H105 H 0.54956 0.44903 0.72311
 H106 H 0.54852 0.44858 0.77844
 H107 H 0.44730 0.54612 0.72108
 H108 H 0.44761 0.54702 0.77643
 H109 H 0.49947 0.49765 0.64330
 H110 H 0.49790 0.49850 0.85620
 C111 C 0.51427 0.03589 0.68497
 C112 C 0.49184 -0.00008 0.66975
 C113 C 0.47640 -0.03641 0.68531
 C114 C 0.48060 -0.03634 0.71809
 C115 C 0.50179 0.00029 0.73404
 C116 C 0.51925 0.03644 0.71734
 C117 C 0.53978 0.07226 0.73359
 C118 C 0.54261 0.07275 0.76566
 C119 C 0.52451 0.03748 0.78282
 C120 C 0.50451 0.00087 0.76689
 C121 C 0.46142 -0.07138 0.73571
 C122 C 0.46457 -0.07079 0.76777
 C123 C 0.48623 -0.03508 0.78383
 C124 C 0.48854 -0.03420 0.81650
 C125 C 0.50834 0.00204 0.83179
 C126 C 0.52596 0.03775 0.81553
 H127 H 0.55321 0.10043 0.72174
 H128 H 0.55891 0.10120 0.77686
 H129 H 0.44222 -0.09974 0.72532
 H130 H 0.44873 -0.09871 0.77987
 H131 H 0.48894 0.00043 0.64480
 H132 H 0.50944 0.00247 0.85688
 O133 O 0.39190 0.65603 0.97347
 O134 O 0.39034 0.72117 0.96403
 C135 C 0.37245 0.74010 0.95953
 O136 O 0.34273 0.73436 0.97529
 O137 O 0.27724 0.66776 0.96506
 C138 C 0.25818 0.63097 0.95971
 O139 O 0.26406 0.60627 0.97440
 O140 O 0.33057 0.60864 0.96247
 C141 C 0.36735 0.62659 0.95757
 O142 O 0.39081 0.66654 1.03488
 O143 O 0.39319 0.73363 1.02541
 C144 C 0.36927 0.73901 1.04142
 O145 O 0.33241 0.72034 1.03672
 O146 O 0.26567 0.65532 1.02688
 C147 C 0.26019 0.62466 1.04143
 O148 O 0.27825 0.60640 1.03510
 O149 O 0.34306 0.60531 1.02356
 C150 C 0.37292 0.62952 1.03930
 Cr151 Cr 0.38943 0.69328 0.99945
 Cr152 Cr 0.30552 0.69335 1.00092
 Cr153 Cr 0.30509 0.60882 0.99890
 O154 O 0.33330 0.66516 0.99980
 O155 O 0.60863 0.34324 0.97582
 O156 O 0.61181 0.27926 0.96449
 C157 C 0.63011 0.26083 0.95972
 O158 O 0.65975 0.26651 0.97561
 O159 O 0.72371 0.33394 0.96413
 C160 C 0.74201 0.37086 0.95900
 O161 O 0.73658 0.39506 0.97476
 O162 O 0.66939 0.39208 0.96504
 C163 C 0.63254 0.37350 0.96028
 O164 O 0.61111 0.33116 1.03695
 O165 O 0.61071 0.26506 1.02560
 C166 C 0.63547 0.26023 1.04119
 O167 O 0.67234 0.28056 1.03674
 O168 O 0.73845 0.34621 1.02498
 C169 C 0.74394 0.37595 1.04057
 O170 O 0.72419 0.39301 1.03636
 O171 O 0.65847 0.39303 1.02653
 C172 C 0.62884 0.36805 1.04210
 Cr173 Cr 0.61265 0.30577 1.00074
 Cr174 Cr 0.69748 0.30781 1.00041
 Cr175 Cr 0.69613 0.39121 1.00068
 O176 O 0.66876 0.33499 1.00063
 O177 O 0.65960 0.39317 0.52715
 O178 O 0.72327 0.38844 0.53547
 C179 C 0.74110 0.36924 0.53898
 O180 O 0.73436 0.33977 0.52225
 O181 O 0.66701 0.27463 0.53136
 C182 C 0.63061 0.25730 0.53786
 O183 O 0.60647 0.26489 0.52435
 O184 O 0.61148 0.33206 0.53773
 C185 C 0.63005 0.36882 0.54298
 O186 O 0.66943 0.39330 0.46553
 O187 O 0.73542 0.39321 0.47425
 C188 C 0.73985 0.36946 0.45722
 O189 O 0.71988 0.33234 0.46058
 O190 O 0.65406 0.26620 0.46954
 C191 C 0.62298 0.26143 0.45634
 O192 O 0.60570 0.28005 0.46401
 O193 O 0.60790 0.34646 0.47711
 C194 C 0.63245 0.37644 0.46156
 Cr195 Cr 0.69579 0.38987 0.50054
 Cr196 Cr 0.69280 0.30432 0.49606
 Cr197 Cr 0.61007 0.30693 0.50071
 O198 O 0.66619 0.33358 0.49906
 O199 O 0.34382 0.60752 0.52279
 O200 O 0.27796 0.60687 0.53370
 C201 C 0.25951 0.62458 0.54059
 O202 O 0.26525 0.65601 0.52715
 O203 O 0.33092 0.72156 0.53781
 C204 C 0.36745 0.74015 0.54363
 O205 O 0.39238 0.73515 0.52867
 O206 O 0.39121 0.66837 0.53538
 C207 C 0.37332 0.63124 0.53906
 O208 O 0.33324 0.61341 0.46176
 O209 O 0.26581 0.60922 0.47305
 C210 C 0.25952 0.63413 0.45921
 O211 O 0.27786 0.67060 0.46552
 O212 O 0.34215 0.73726 0.47711
 C213 C 0.37286 0.74480 0.46201
 O214 O 0.39176 0.72686 0.46648
 O215 O 0.39404 0.66154 0.47347
 C216 C 0.37008 0.63221 0.45712
 Cr217 Cr 0.30636 0.61151 0.49790
 Cr218 Cr 0.30511 0.69520 0.50182
 Cr219 Cr 0.39017 0.69687 0.50096
 O220 O 0.33388 0.66791 0.50036
 C221 C 0.43346 0.57319 0.36933
 N222 N 0.41016 0.54368 0.34949
 N223 N 0.42540 0.52716 0.33152
 C224 C 0.46448 0.53958 0.33281
 N225 N 0.48768 0.56898 0.35268
 N226 N 0.47250 0.58560 0.37049
 C227 C 0.41670 0.59010 0.39052
 N228 N 0.44075 0.62092 0.40900
 N229 N 0.42582 0.63491 0.42964
 C230 C 0.38626 0.61854 0.43268
 N231 N 0.36215 0.58789 0.41401
 N232 N 0.37710 0.57398 0.39326
 C233 C 0.42855 0.87033 0.37576
 N234 N 0.42222 0.90067 0.38145
 N235 N 0.43542 0.93114 0.36203
 C236 C 0.45483 0.93234 0.33569
 N237 N 0.46148 0.90200 0.33029
 N238 N 0.44861 0.87161 0.34988
 C239 C 0.41390 0.83703 0.39755
 N240 N 0.42759 0.81137 0.39705
 N241 N 0.41464 0.78185 0.41753
 C242 C 0.38727 0.77677 0.43899
 N243 N 0.37347 0.80228 0.43926
 N244 N 0.38667 0.83193 0.41905
 C245 C 0.13342 0.57536 0.37433
 N246 N 0.13517 0.59252 0.34658
 N247 N 0.10403 0.57697 0.32770
 C248 C 0.06994 0.54384 0.33589
 N249 N 0.06821 0.52764 0.36413
 N250 N 0.09935 0.54277 0.38277
 C251 C 0.16747 0.59100 0.39514
 N252 N 0.16979 0.56678 0.41645
 N253 N 0.19969 0.58056 0.43632
 C254 C 0.22816 0.61921 0.43590
 N255 N 0.22592 0.64359 0.41458
 N256 N 0.19620 0.62964 0.39436
 C257 C 0.56875 0.43941 0.37687
 N258 N 0.53550 0.43946 0.38491
 N259 N 0.51918 0.45369 0.36568
 C260 C 0.53482 0.46771 0.33724
 N261 N 0.56854 0.46812 0.32947
 N262 N 0.58523 0.45428 0.34888
 C263 C 0.58585 0.42294 0.39826
 N264 N 0.62406 0.43227 0.39591
 N265 N 0.63921 0.41760 0.41606
 C266 C 0.61650 0.39275 0.43896
 N267 N 0.57830 0.38327 0.44105
 N268 N 0.56333 0.39826 0.42121
 C269 C 0.55306 0.13827 0.36904
 N270 N 0.51687 0.10727 0.37557
 N271 N 0.50069 0.07539 0.35760
 C272 C 0.51955 0.07351 0.33189
 N273 N 0.55587 0.10473 0.32547
 N274 N 0.57240 0.13639 0.34375
 C275 C 0.57159 0.17223 0.39001
 N276 N 0.61128 0.19269 0.39392
 N277 N 0.62781 0.22162 0.41471
 C278 C 0.60528 0.23155 0.43194
 N279 N 0.56567 0.21151 0.42765
 N280 N 0.54910 0.18217 0.40724
 C281 C 0.86498 0.43773 0.37162
 N282 N 0.89704 0.47257 0.37950
 N283 N 0.92845 0.48939 0.36121
 C284 C 0.92899 0.47262 0.33388
 N285 N 0.89682 0.43746 0.32618
 N286 N 0.86542 0.42029 0.34468
 C287 C 0.83103 0.41957 0.39253
 N288 N 0.80356 0.38052 0.39086
 N289 N 0.77408 0.36427 0.41124
 C290 C 0.77093 0.38666 0.43373
 N291 N 0.79815 0.42569 0.43506
 N292 N 0.82772 0.44178 0.41496
 C293 C 0.56933 0.43063 1.13031
 N294 N 0.53916 0.40743 1.14967
 N295 N 0.52361 0.42328 1.16805
 C296 C 0.53773 0.46286 1.16771
 N297 N 0.56776 0.48593 1.14830
 N298 N 0.58339 0.47015 1.13008
 C299 C 0.58565 0.41362 1.10878
 N300 N 0.61711 0.43788 1.09099
 N301 N 0.63109 0.42312 1.07024
 C302 C 0.61410 0.38350 1.06634
 N303 N 0.58272 0.35909 1.08426
 N304 N 0.56877 0.37391 1.10515
 C305 C 0.87088 0.43755 1.12495
 N306 N 0.90202 0.43291 1.11855
 N307 N 0.93269 0.44686 1.13767
 C308 C 0.93329 0.46534 1.16439
 N309 N 0.90224 0.47054 1.17041
 N310 N 0.87161 0.45691 1.15112
 C311 C 0.83712 0.42140 1.10377
 N312 N 0.80998 0.43313 1.10488
 N313 N 0.77998 0.41867 1.08488
 C314 C 0.77596 0.39168 1.06338
 N315 N 0.80294 0.37983 1.06254
 N316 N 0.83302 0.39453 1.08225
 C317 C 0.57333 0.13215 1.12519
 N318 N 0.58798 0.13435 1.15407
 N319 N 0.57122 0.10320 1.17305
 C320 C 0.53928 0.06863 1.16391
 N321 N 0.52566 0.06645 1.13460
 N322 N 0.54199 0.09760 1.11581
 C323 C 0.58998 0.16641 1.10429
 N324 N 0.56740 0.16792 1.08116
 N325 N 0.58195 0.19825 1.06155
 C326 C 0.61982 0.22806 1.06405
 N327 N 0.64261 0.22663 1.08715
 N328 N 0.62784 0.19643 1.10710
 C329 C 0.43433 0.56634 1.12595
 N330 N 0.42181 0.52715 1.12520
 N331 N 0.43755 0.51181 1.14399
 C332 C 0.46613 0.53502 1.16443
 N333 N 0.47881 0.57429 1.16515
 N334 N 0.46317 0.58968 1.14623
 C335 C 0.41759 0.58307 1.10442
 N336 N 0.43316 0.62275 1.10191
 N337 N 0.41870 0.63768 1.08142
 C338 C 0.38804 0.61343 1.06283
 N339 N 0.37232 0.57378 1.06557
 N340 N 0.38687 0.55889 1.08593
 C341 C 0.13945 0.56138 1.13097
 N342 N 0.12994 0.58503 1.14712
 N343 N 0.09851 0.56946 1.16552
 C344 C 0.07537 0.52969 1.16830
 N345 N 0.08481 0.50600 1.15214
 N346 N 0.11647 0.52159 1.13396
 C347 C 0.17252 0.57849 1.10915
 N348 N 0.18668 0.55613 1.09718
 N349 N 0.21529 0.57115 1.07612
 C350 C 0.23046 0.60892 1.06602
 N351 N 0.21638 0.63130 1.07807
 N352 N 0.18806 0.61641 1.09936
 C353 C 0.43488 0.86142 1.12997
 N354 N 0.47429 0.88719 1.12950
 N355 N 0.49033 0.91875 1.14781
 C356 C 0.46763 0.92551 1.16756
 N357 N 0.42818 0.89972 1.16812
 N358 N 0.41209 0.86821 1.14967
 C359 C 0.41733 0.82806 1.10829
 N360 N 0.37762 0.80518 1.10518
 N361 N 0.36209 0.77636 1.08420
 C362 C 0.38574 0.76936 1.06566
 N363 N 0.42538 0.79201 1.06902
 N364 N 0.44087 0.82084 1.08988
 C365 C 0.56963 0.43160 0.62979
 N366 N 0.54005 0.40823 0.64952
 N367 N 0.52367 0.42360 0.66747
 C368 C 0.53629 0.46284 0.66624
 N369 N 0.56568 0.48610 0.64641
 N370 N 0.58217 0.47079 0.62862
 C371 C 0.58673 0.41485 0.60889
 N372 N 0.61806 0.43909 0.59097
 N373 N 0.63240 0.42426 0.57060
 C374 C 0.61590 0.38461 0.56728
 N375 N 0.58474 0.36027 0.58539
 N376 N 0.57046 0.37514 0.60591
 C377 C 0.56580 0.13458 0.62651
 N378 N 0.58858 0.12693 0.64570
 N379 N 0.57217 0.09612 0.66496
 C380 C 0.53244 0.07198 0.66574
 N381 N 0.50975 0.07956 0.64645
 N382 N 0.52611 0.11042 0.62734
 C383 C 0.58340 0.16748 0.60437
 N384 N 0.55983 0.17621 0.58724
 N385 N 0.57515 0.20507 0.56632
 C386 C 0.61463 0.22620 0.56158
 N387 N 0.63836 0.21761 0.57876
 N388 N 0.62299 0.18874 0.59983
 C389 C 0.86539 0.42388 0.62594
 N390 N 0.87306 0.45382 0.64566
 N391 N 0.90425 0.46841 0.66441
 C392 C 0.92884 0.45349 0.66422
 N393 N 0.92131 0.42377 0.64433
 N394 N 0.89007 0.40911 0.62566
 C395 C 0.83188 0.40866 0.60437
 N396 N 0.82365 0.37781 0.58552
 N397 N 0.79431 0.36489 0.56510
 C398 C 0.77212 0.38237 0.56268
 N399 N 0.78019 0.41312 0.58165
 N400 N 0.80950 0.42598 0.60216
 C401 C 0.43172 0.56532 0.62601
 N402 N 0.41978 0.52630 0.62430
 N403 N 0.43502 0.51045 0.64307
 C404 C 0.46247 0.53292 0.66451
 N405 N 0.47452 0.57200 0.66625
 N406 N 0.45939 0.58792 0.64733
 C407 C 0.41578 0.58273 0.60434
 N408 N 0.43126 0.62246 0.60264
 N409 N 0.41758 0.63804 0.58204
 C410 C 0.38783 0.61441 0.56251
 N411 N 0.37221 0.57470 0.56441
 N412 N 0.38599 0.55917 0.58488
 C413 C 0.42702 0.86463 0.62973
 N414 N 0.44753 0.86597 0.65545
 N415 N 0.46274 0.89749 0.67387
 C416 C 0.45840 0.92903 0.66714
 N417 N 0.43861 0.92777 0.64091
 N418 N 0.42278 0.89604 0.62282
 C419 C 0.41039 0.83043 0.60909
 N420 N 0.37675 0.82011 0.59323
 N421 N 0.36250 0.79044 0.57311
 C422 C 0.38174 0.77045 0.56772
 N423 N 0.41546 0.78077 0.58355
 N424 N 0.42936 0.81005 0.60412
 C425 C 0.13550 0.55555 0.62718
 N426 N 0.10370 0.52009 0.62012
 N427 N 0.07226 0.50390 0.63849
 C428 C 0.07162 0.52193 0.66513
 N429 N 0.10362 0.55756 0.67207
 N430 N 0.13485 0.57415 0.65340
 C431 C 0.16928 0.57383 0.60609
 N432 N 0.19054 0.61367 0.60252
 N433 N 0.21961 0.62998 0.58185
 C434 C 0.22886 0.60705 0.56442
 N435 N 0.20797 0.56727 0.56834
 N436 N 0.17849 0.55094 0.58860
 C437 C 0.43034 0.56668 0.87041
 N438 N 0.46953 0.57975 0.87141
 N439 N 0.48514 0.56380 0.85336
 C440 C 0.46221 0.53446 0.83338
 N441 N 0.42296 0.52131 0.83230
 N442 N 0.40728 0.53715 0.85052
 C443 C 0.41340 0.58332 0.89158
 N444 N 0.37378 0.56693 0.89455
 N445 N 0.35886 0.58103 0.91519
 C446 C 0.38307 0.61211 0.93345
 N447 N 0.42261 0.62866 0.93018
 N448 N 0.43748 0.61451 0.90969
 C449 C 0.13274 0.56843 0.87362
 N450 N 0.13513 0.58385 0.84497
 N451 N 0.10425 0.56743 0.82580
 C452 C 0.06974 0.53512 0.83455
 N453 N 0.06748 0.52056 0.86356
 N454 N 0.09835 0.53652 0.88251
 C455 C 0.16645 0.58516 0.89497
 N456 N 0.16808 0.56214 0.91775
 N457 N 0.19768 0.57683 0.93794
 C458 C 0.22656 0.61529 0.93645
 N459 N 0.22499 0.63851 0.91370
 N460 N 0.19555 0.62362 0.89317
 C461 C 0.43541 0.86561 0.87336
 N462 N 0.42532 0.89392 0.87546
 N463 N 0.44202 0.92554 0.85712
 C464 C 0.46914 0.92983 0.83578
 N465 N 0.47931 0.90156 0.83363
 N466 N 0.46275 0.87000 0.85214
 C467 C 0.41791 0.83168 0.89453
 N468 N 0.43229 0.80668 0.89646
 N469 N 0.41745 0.77706 0.91685
 C470 C 0.38757 0.77127 0.93589
 N471 N 0.37297 0.79604 0.93371
 N472 N 0.38792 0.82574 0.91346
 C473 C 0.56708 0.43208 0.87313
 N474 N 0.52789 0.41896 0.87433
 N475 N 0.51183 0.43411 0.85569
 C476 C 0.53428 0.46265 0.83490
 N477 N 0.57353 0.47588 0.83367
 N478 N 0.58966 0.46085 0.85247
 C479 C 0.58457 0.41611 0.89469
 N480 N 0.62426 0.43269 0.89726
 N481 N 0.63975 0.41894 0.91789
 C482 C 0.61606 0.38803 0.93657
 N483 N 0.57643 0.37132 0.93375
 N484 N 0.56098 0.38515 0.91327
 C485 C 0.86344 0.43484 0.86982
 N486 N 0.89004 0.47413 0.87049
 N487 N 0.92140 0.48961 0.85204
 C488 C 0.92710 0.46647 0.83194
 N489 N 0.90046 0.42715 0.83116
 N490 N 0.86916 0.41161 0.84977
 C491 C 0.83030 0.41781 0.89164
 N492 N 0.80701 0.37805 0.89486
 N493 N 0.77843 0.36292 0.91600
 C494 C 0.77207 0.38702 0.93458
 N495 N 0.79511 0.42671 0.93110
 N496 N 0.82374 0.44181 0.91010
 C497 C 0.57443 0.13817 0.87168
 N498 N 0.54607 0.13179 0.85067
 N499 N 0.53137 0.10042 0.83210
 C500 C 0.54454 0.07440 0.83391
 N501 N 0.57275 0.08074 0.85499
 N502 N 0.58758 0.11217 0.87339
 C503 C 0.58968 0.17150 0.89328
 N504 N 0.62020 0.17890 0.91222
 N505 N 0.63324 0.20779 0.93295
 C506 C 0.61617 0.23030 0.93570
 N507 N 0.58570 0.22310 0.91666
 N508 N 0.57272 0.19421 0.89576
   
