data_POSCAR
  _audit_creation_date              2014-09-24
  _audit_creation_method            'ToBaCCo'
  _symmetry_space_group_name_H-M    'P1'
  _symmetry_Int_Tables_number       1
  _symmetry_cell_setting            triclinic
  loop_
  _symmetry_equiv_pos_as_xyz
 x,y,z
_cell_length_a 31.5859
_cell_length_b 30.8707
_cell_length_c 31.2728
_cell_angle_alpha 92.995700
_cell_angle_beta 87.787300
_cell_angle_gamma 89.312900
loop_
  _atom_site_label
  _atom_site_type_symbol
  _atom_site_fract_x
  _atom_site_fract_y
  _atom_site_fract_z
C1 C 0.28783 0.48849 1.01312
 C2 C 0.26460 0.52680 1.00952
 C3 C 0.28540 0.56595 1.00396
 C4 C 0.32985 0.56758 1.00333
 C5 C 0.35305 0.52826 1.00580
 C6 C 0.33218 0.48875 1.01069
 C7 C 0.21826 0.52532 1.01134
 C8 C 0.19678 0.51868 1.05030
 C9 C 0.15277 0.51308 1.05230
 C10 C 0.13044 0.51529 1.01405
 C11 C 0.15190 0.52208 0.97472
 C12 C 0.19596 0.52750 0.97379
 H13 H 0.27104 0.45831 1.01594
 H14 H 0.26669 0.59532 1.00137
 H15 H 0.21485 0.51679 1.07897
 H16 H 0.21321 0.53331 0.94409
 H17 H 0.38726 0.52749 1.00270
 H18 H 0.09634 0.51255 1.01433
 C19 C 0.68834 0.46733 -0.00076
 C20 C 0.71732 0.50109 -0.00276
 C21 C 0.70347 0.54326 -0.00957
 C22 C 0.66058 0.55204 -0.01499
 C23 C 0.63142 0.51798 -0.01285
 C24 C 0.64495 0.47548 -0.00560
 C25 C 0.76261 0.49206 0.00049
 C26 C 0.78924 0.49303 -0.03608
 C27 C 0.83293 0.48504 -0.03415
 C28 C 0.84980 0.47822 0.00634
 C29 C 0.82290 0.47803 0.04345
 C30 C 0.77922 0.48359 0.03995
 H31 H 0.70036 0.43501 0.00356
 H32 H 0.72627 0.56919 -0.01099
 H33 H 0.77539 0.49941 -0.06639
 H34 H 0.75832 0.48343 0.06828
 H35 H 0.59793 0.52466 -0.01566
 H36 H 0.88342 0.47358 0.00978
 C37 C 0.04823 0.20369 0.49541
 C38 C 0.00789 0.22244 0.49295
 C39 C -0.02754 0.19599 0.48818
 C40 C -0.02297 0.15055 0.48653
 C41 C 0.01785 0.13212 0.48838
 C42 C 0.05364 0.15856 0.49322
 C43 C 0.00291 0.26995 0.49568
 C44 C -0.00923 0.29182 0.45986
 C45 C -0.01240 0.33752 0.46168
 C46 C -0.00497 0.36032 0.50086
 C47 C 0.00694 0.33863 0.53701
 C48 C 0.01148 0.29330 0.53387
 H49 H 0.07550 0.22440 0.49890
 H50 H -0.05837 0.21110 0.48553
 H51 H -0.01596 0.27265 0.43107
 H52 H 0.02203 0.27586 0.56075
 H53 H 0.02161 0.09716 0.48561
 H54 H -0.00764 0.39544 0.50314
 C55 C 1.04900 0.77552 0.50554
 C56 C 1.00807 0.75931 0.51084
 C57 C 0.97290 0.78732 0.51124
 C58 C 0.97833 0.83185 0.50592
 C59 C 1.01959 0.84775 0.49984
 C60 C 1.05543 0.81969 0.49921
 C61 C 1.00210 0.71258 0.51475
 C62 C 0.99967 0.69517 0.55519
 C63 C 0.99445 0.65039 0.55927
 C64 C 0.99271 0.62324 0.52146
 C65 C 0.99548 0.64048 0.48072
 C66 C 1.00016 0.68539 0.47773
 H67 H 1.07584 0.75324 0.50539
 H68 H 0.94160 0.77426 0.51663
 H69 H 1.00172 0.71680 0.58349
 H70 H 1.00371 0.69941 0.44680
 H71 H 1.02330 0.88230 0.49714
 H72 H 0.99081 0.58841 0.52294
 C73 C 0.50978 0.05302 0.20475
 C74 C 0.51795 0.01472 0.22521
 C75 C 0.52073 -0.02499 0.20157
 C76 C 0.51569 -0.02691 0.15730
 C77 C 0.50729 0.01164 0.13683
 C78 C 0.50443 0.05178 0.16028
 C79 C 0.52012 0.01520 0.27193
 C80 C 0.48291 0.01036 0.29682
 C81 C 0.48447 0.00679 0.34132
 C82 C 0.52420 0.00719 0.36027
 C83 C 0.56188 0.01177 0.33527
 C84 C 0.55937 0.01648 0.29114
 H85 H 0.50602 0.08316 0.22390
 H86 H 0.52613 -0.05458 0.21792
 H87 H 0.45319 0.00772 0.28085
 H88 H 0.58806 0.01955 0.27141
 H89 H 0.50169 0.01042 0.10283
 H90 H 0.52562 0.00433 0.39456
 C91 C 0.50518 0.05806 0.78915
 C92 C 0.50229 0.01824 0.76615
 C93 C 0.49480 -0.01972 0.78767
 C94 C 0.49023 -0.01844 0.83276
 C95 C 0.49168 0.02223 0.85534
 C96 C 0.49892 0.06051 0.83372
 C97 C 0.50262 0.01655 0.71921
 C98 C 0.54083 0.01520 0.69490
 C99 C 0.54058 0.01178 0.64981
 C100 C 0.50137 0.00984 0.62976
 C101 C 0.46305 0.01165 0.65430
 C102 C 0.46401 0.01534 0.69891
 H103 H 0.51034 0.08737 0.77213
 H104 H 0.49160 -0.04950 0.76844
 H105 H 0.57030 0.01754 0.71135
 H106 H 0.43457 0.01676 0.71801
 H107 H 0.48808 0.02409 0.89001
 H108 H 0.50063 0.00783 0.59509
 C109 C 0.29711 0.02023 0.41118
 H110 H 0.26929 0.04052 0.40997
 C111 C 0.33166 0.02672 0.38283
 H112 H 0.33042 0.05283 0.36107
 C113 C 0.33217 -0.03986 0.43843
 H114 H 0.33219 -0.06635 0.45949
 C115 C 0.36726 -0.03448 0.41099
 H116 H 0.39349 -0.05733 0.41121
 N117 N 0.29904 -0.01115 0.44012
 C118 C 0.18889 0.01786 0.52786
 H119 H 0.19070 -0.01249 0.54340
 C120 C 0.15171 0.04259 0.53252
 H121 H 0.12537 0.03085 0.55170
 C122 C 0.22056 0.06903 0.48344
 H123 H 0.24773 0.08004 0.46543
 C124 C 0.18368 0.09495 0.48714
 H125 H 0.18315 0.12462 0.47033
 Zn126 Zn 0.26149 -0.01664 0.48913
 N127 N 0.22151 0.02990 0.50159
 C128 C 0.31036 0.01759 0.55398
 N129 N 0.29741 -0.02086 0.53607
 C130 C 0.31806 -0.05866 0.54305
 C131 C 0.35467 -0.05829 0.56675
 C132 C 0.34645 0.01935 0.57840
 C133 C 0.20187 -0.06209 0.44550
 C134 C 0.16407 -0.08480 0.44297
 C135 C 0.17953 -0.11744 0.50926
 C136 C 0.21678 -0.09339 0.51099
 N137 N 0.22645 -0.06537 0.47995
 H138 H 0.29454 0.04739 0.54659
 H139 H 0.30844 -0.08869 0.52721
 H140 H 0.37207 -0.08830 0.57008
 H141 H 0.35747 0.05067 0.59011
 H142 H 0.20946 -0.03843 0.42215
 H143 H 0.14332 -0.07935 0.41694
 H144 H 0.17067 -0.13702 0.53582
 H145 H 0.23519 -0.09373 0.53936
 C146 C 0.14791 0.08075 0.51064
 C147 C 0.36815 0.00050 0.38417
 C148 C 0.15185 -0.11175 0.47577
 C149 C 0.36981 -0.01886 0.58390
 C150 C 0.69742 0.03252 0.54888
 H151 H 0.69992 0.05526 0.52376
 C152 C 0.66222 0.03438 0.57724
 H153 H 0.63862 0.05972 0.57465
 C154 C 0.72456 -0.02919 0.58126
 H155 H 0.74801 -0.05498 0.58142
 C156 C 0.68990 -0.02824 0.61068
 H157 H 0.68739 -0.05286 0.63405
 N158 N 0.72714 0.00049 0.55064
 C159 C 0.82971 0.03904 0.46358
 H160 H 0.82900 0.01224 0.43991
 C161 C 0.86255 0.06889 0.46187
 H162 H 0.88624 0.06551 0.43593
 C163 C 0.80016 0.07490 0.52685
 H164 H 0.77670 0.07617 0.55299
 C165 C 0.83220 0.10577 0.52608
 H166 H 0.83269 0.13113 0.55134
 Zn167 Zn 0.76415 -0.00637 0.50169
 N168 N 0.79990 0.04199 0.49620
 C169 C 0.72127 0.01895 0.42818
 N170 N 0.72684 -0.01279 0.45608
 C171 C 0.69903 -0.04584 0.45914
 C172 C 0.66294 -0.04696 0.43487
 C173 C 0.68536 0.01914 0.40323
 C174 C 0.83117 -0.05159 0.53411
 C175 C 0.86435 -0.08193 0.53377
 C176 C 0.83401 -0.11997 0.47308
 C177 C 0.80168 -0.08848 0.47416
 N178 N 0.80111 -0.05491 0.50417
 H179 H 0.74293 0.04579 0.42753
 H180 H 0.70344 -0.06978 0.48269
 H181 H 0.64031 -0.07263 0.43916
 H182 H 0.68047 0.04613 0.38324
 H183 H 0.83025 -0.02427 0.55727
 H184 H 0.88813 -0.07838 0.55766
 H185 H 0.83457 -0.14609 0.44854
 H186 H 0.77809 -0.09003 0.45003
 C187 C 0.86472 0.10210 0.49417
 C188 C 0.65740 0.00277 0.60769
 C189 C 0.86656 -0.11613 0.50228
 C190 C 0.65503 -0.01368 0.40729
 C191 C 0.44859 0.20393 1.07555
 H192 H 0.42050 0.20421 1.05702
 C193 C 0.45456 0.17089 1.10354
 H194 H 0.43066 0.14626 1.10656
 C195 C 0.51394 0.23531 1.09393
 H196 H 0.53749 0.25988 1.08942
 C197 C 0.52095 0.20306 1.12274
 H198 H 0.54985 0.20314 1.14031
 N199 N 0.47905 0.23405 1.06968
 C200 C 0.41720 0.32158 0.98623
 H201 H 0.43486 0.31200 0.95686
 C202 C 0.38939 0.35701 0.98724
 H203 H 0.38459 0.37367 0.95815
 C204 C 0.40459 0.31357 1.06068
 H205 H 0.41244 0.29790 1.08954
 C206 C 0.37576 0.34847 1.06294
 H207 H 0.36062 0.35894 1.09346
 Zn208 Zn 0.47565 0.26792 1.02098
 N209 N 0.42554 0.30190 1.02293
 C210 C 0.43835 0.20604 0.96735
 N211 N 0.47496 0.22813 0.97243
 C212 C 0.51031 0.21743 0.94767
 C213 C 0.51052 0.18123 0.91879
 C214 C 0.43723 0.16957 0.93921
 C215 C 0.51164 0.35033 1.02271
 C216 C 0.54280 0.38159 1.02034
 C217 C 0.59548 0.32433 1.01091
 C218 C 0.56308 0.29390 1.01360
 N219 N 0.52183 0.30730 1.01829
 H220 H 0.41029 0.21567 0.98652
 H221 H 0.53900 0.23548 0.95148
 H222 H 0.53974 0.17191 0.90137
 H223 H 0.40828 0.15125 0.93711
 H224 H 0.47929 0.36098 1.02884
 H225 H 0.53342 0.41538 1.02494
 H226 H 0.62812 0.31326 1.00673
 H227 H 0.57096 0.25967 1.01232
 C228 C 0.36968 0.37184 1.02634
 C229 C 0.49208 0.16918 1.12604
 C230 C 0.58532 0.36879 1.01327
 C231 C 0.47386 0.15608 0.91531
 C232 C 0.46047 0.83197 -0.06833
 H233 H 0.44136 0.83320 -0.03881
 C234 C 0.45736 0.86541 -0.09643
 H235 H 0.43475 0.89163 -0.08904
 C236 C 0.51528 0.79771 -0.11227
 H237 H 0.53938 0.77262 -0.11714
 C238 C 0.51272 0.83015 -0.14160
 H239 H 0.53429 0.82918 -0.16944
 N240 N 0.49005 0.79986 -0.07596
 C241 C 0.46774 0.70586 0.02084
 H242 H 0.49594 0.71232 0.03854
 C243 C 0.44403 0.66929 0.02891
 H244 H 0.45358 0.64826 0.05359
 C245 C 0.42377 0.72314 -0.03583
 H246 H 0.41771 0.74283 -0.06259
 C247 C 0.39877 0.68685 -0.02852
 H248 H 0.37317 0.67933 -0.04959
 Zn249 Zn 0.50264 0.76712 -0.02882
 N250 N 0.45806 0.73117 -0.01178
 C251 C 0.49038 0.81441 0.05112
 N252 N 0.51564 0.80837 0.01506
 C253 C 0.54678 0.83669 0.00546
 C254 C 0.55246 0.87386 0.03182
 C255 C 0.49518 0.85103 0.07859
 C256 C 0.54003 0.69621 -0.07234
 C257 C 0.56383 0.65784 -0.07503
 C258 C 0.60454 0.68587 -0.01608
 C259 C 0.58001 0.72396 -0.01469
 N260 N 0.54767 0.72770 -0.04174
 H261 H 0.46485 0.79231 0.05728
 H262 H 0.56564 0.83158 -0.02403
 H263 H 0.57628 0.89701 0.02282
 H264 H 0.47320 0.85633 0.10580
 H265 H 0.51309 0.69941 -0.09233
 H266 H 0.55565 0.63214 -0.09804
 H267 H 0.62791 0.68260 0.00790
 H268 H 0.58434 0.74872 0.01045
 C269 C 0.40977 0.65875 0.00346
 C270 C 0.48494 0.86551 -0.13272
 C271 C 0.59545 0.65152 -0.04567
 C272 C 0.52610 0.88176 0.06853
 C273 C 1.02010 0.44976 0.18322
 H274 H 0.99501 0.42635 0.18538
 C275 C 1.04428 0.45167 0.14521
 H276 H 1.03840 0.42889 0.11864
 C277 C 1.05482 0.51106 0.21354
 H278 H 1.05677 0.53578 0.23916
 C279 C 1.08025 0.51377 0.17612
 H280 H 1.10216 0.54030 0.17371
 N281 N 1.02475 0.48002 0.21582
 C282 C 0.94254 0.43842 0.32025
 H283 H 0.92085 0.46590 0.32338
 C284 C 0.94276 0.40842 0.35212
 H285 H 0.92046 0.41236 0.37927
 C286 C 1.00002 0.40163 0.28254
 H287 H 1.02359 0.40028 0.25651
 C288 C 1.00072 0.37032 0.31325
 H289 H 1.02444 0.34460 0.31023
 Zn290 Zn 0.97784 0.48510 0.25492
 N291 N 0.97176 0.43532 0.28711
 C292 C 0.90548 0.46089 0.20819
 N293 N 0.93263 0.49329 0.21856
 C294 C 0.93729 0.52808 0.19399
 C295 C 0.91600 0.53020 0.15602
 C296 C 0.88335 0.46175 0.17025
 C297 C 1.01399 0.52863 0.32404
 C298 C 1.01578 0.55798 0.35940
 C299 C 0.95465 0.59550 0.33441
 C300 C 0.95368 0.56505 0.29977
 N301 N 0.98292 0.53223 0.29548
 H302 H 0.90386 0.43263 0.22720
 H303 H 0.96051 0.55237 0.20199
 H304 H 0.92186 0.55713 0.13581
 H305 H 0.86411 0.43429 0.16115
 H306 H 1.03648 0.50187 0.32013
 H307 H 1.04061 0.55429 0.38188
 H308 H 0.93073 0.62101 0.33793
 H309 H 0.92857 0.56672 0.27739
 C310 C 0.97310 0.37470 0.34944
 C311 C 1.07395 0.48459 0.14089
 C312 C 0.98517 0.59138 0.36540
 C313 C 0.88968 0.49622 0.14298
 C314 C -0.01936 0.44848 0.83357
 H315 H 0.00865 0.42817 0.82794
 C316 C -0.04359 0.44603 0.87157
 H317 H -0.03465 0.42301 0.89472
 C318 C -0.06317 0.50536 0.81142
 H319 H -0.06932 0.52979 0.78882
 C320 C -0.08841 0.50392 0.84902
 H321 H -0.11403 0.52734 0.85459
 N322 N -0.02918 0.47812 0.80471
 C323 C 0.04861 0.44083 0.69090
 H324 H 0.06873 0.46891 0.69003
 C325 C 0.04822 0.41144 0.65551
 H326 H 0.06931 0.41630 0.62812
 C327 C -0.00531 0.40216 0.72674
 H328 H -0.02765 0.39999 0.75357
 C329 C -0.00638 0.37165 0.69213
 H330 H -0.02896 0.34554 0.69303
 Zn331 Zn 0.01270 0.48658 0.76159
 N332 N 0.02112 0.43654 0.72489
 C333 C 0.09506 0.47374 0.79287
 N334 N 0.06109 0.50114 0.79215
 C335 C 0.05569 0.53536 0.82108
 C336 C 0.08348 0.54138 0.85435
 C337 C 0.12397 0.47888 0.82548
 C338 C -0.03620 0.52009 0.70003
 C339 C -0.04334 0.54283 0.66358
 C340 C 0.01646 0.58793 0.68026
 C341 C 0.02276 0.56393 0.71633
 N342 N -0.00287 0.53006 0.72475
 H343 H 0.09803 0.44612 0.77018
 H344 H 0.02791 0.55608 0.82013
 H345 H 0.07774 0.56790 0.87797
 H346 H 0.14977 0.45566 0.82709
 H347 H -0.05530 0.49223 0.70684
 H348 H -0.06855 0.53280 0.64289
 H349 H 0.03885 0.61286 0.67249
 H350 H 0.04993 0.57028 0.73558
 C351 C 0.01913 0.37737 0.65519
 C352 C -0.07838 0.47415 0.87990
 C353 C -0.01621 0.57643 0.65266
 C354 C 0.11704 0.51172 0.85785
 C355 C 0.09718 0.14021 0.49427
 C356 C 0.10545 0.10218 0.51118
 H357 H 0.12276 0.15958 0.48206
 H358 H 0.07943 0.08520 0.52609
 C359 C 0.64691 0.59734 -0.02048
 C360 C 0.61366 0.60720 -0.04358
 H361 H 0.66550 0.62279 -0.00574
 H362 H 0.59801 0.58122 -0.06117
 C363 C 0.94193 -0.13708 0.50897
 C364 C 0.90226 -0.14793 0.49918
 H365 H 0.94858 -0.10356 0.51797
 H366 H 0.89604 -0.18021 0.48589
 C367 C 0.35717 0.44781 1.00976
 C368 C 0.34429 0.41243 1.02956
 H369 H 0.38775 0.44708 0.99273
 H370 H 0.31616 0.41390 1.05052
 C371 C 0.94018 0.12145 0.48190
 C372 C 0.90061 0.13264 0.49600
 H373 H 0.94659 0.08864 0.46914
 H374 H 0.89480 0.16383 0.51279
 C375 C 0.34918 0.60824 -0.00045
 C376 C 0.38974 0.61608 0.00813
 H377 H 0.32944 0.63538 -0.00853
 H378 H 0.40908 0.59133 0.02134
 C379 C 0.09740 -0.16578 0.49398
 C380 C 0.10792 -0.12788 0.47761
 H381 H 0.12291 -0.18731 0.50212
 H382 H 0.08413 -0.10804 0.46373
 C383 C 0.61266 0.44103 0.99630
 C384 C 0.61942 0.40112 1.01018
 H385 H 0.58148 0.44949 0.98590
 H386 H 0.65047 0.39111 1.01948
 C387 C 0.49291 0.09098 1.13773
 C388 C 0.50249 0.13153 1.15126
 H389 H 0.47771 0.08591 1.10742
 H390 H 0.52158 0.13702 1.17899
 C391 C -0.00677 0.63436 0.60077
 C392 C -0.01935 0.59435 0.60984
 H393 H 0.00202 0.65616 0.62717
 H394 H -0.03345 0.57353 0.58559
 C395 C 0.48416 0.94414 -0.14376
 C396 C 0.48728 0.90298 -0.16026
 H397 H 0.47878 0.94899 -0.10938
 H398 H 0.49644 0.89582 -0.19351
 C399 C 0.97804 0.36159 0.42605
 C400 C 0.97840 0.34572 0.38511
 H401 H 0.97283 0.39625 0.43179
 H402 H 0.98792 0.31256 0.37658
 C403 C 0.51593 0.93010 0.13408
 C404 C 0.52881 0.92399 0.09291
 H405 H 0.50634 0.90256 0.15203
 H406 H 0.54233 0.95083 0.07632
 C407 C 0.01604 0.36458 0.57678
 C408 C 0.01311 0.34919 0.61617
 H409 H 0.02285 0.39860 0.57356
 H410 H 0.00201 0.31660 0.62040
 C411 C 0.50019 0.10335 0.85708
 C412 C 0.47347 0.11399 0.89035
 H413 H 0.52165 0.12724 0.84482
 H414 H 0.44936 0.09109 0.89932
 C415 C 0.99623 0.61044 0.44205
 C416 C 0.98430 0.62206 0.40347
 H417 H 1.00543 0.57702 0.44606
 H418 H 0.97088 0.65407 0.40005
 C419 C 1.13312 0.50596 0.09252
 C420 C 1.09393 0.49051 0.09808
 H421 H 1.15168 0.51134 0.12073
 H422 H 1.07612 0.47957 0.07082
 C423 C 0.58022 0.01269 0.62275
 C424 C 0.61862 0.00117 0.63586
 H425 H 0.57722 0.02192 0.59005
 H426 H 0.62162 -0.01239 0.66683
 C427 C -0.14273 0.48501 0.92709
 C428 C -0.10175 0.47333 0.92191
 H429 H -0.15907 0.49357 0.89882
 H430 H -0.08483 0.46070 0.94803
 C431 C 0.44573 -0.00044 0.36829
 C432 C 0.40622 0.00958 0.35704
 H433 H 0.45025 -0.01371 0.39919
 H434 H 0.40144 0.02687 0.32838
 C435 C 0.12731 0.52402 0.93542
 C436 C 0.14347 0.51287 0.89593
 H437 H 0.09387 0.53206 0.93963
 H438 H 0.17557 0.50023 0.89179
 C439 C 0.60421 0.01173 0.35418
 C440 C 0.61333 -0.01270 0.38689
 H441 H 0.62883 0.03017 0.33882
 H442 H 0.58915 -0.03391 0.39912
 C443 C 0.83962 0.47369 0.08652
 C444 C 0.87304 0.49641 0.09932
 H445 H 0.82136 0.45539 0.10916
 H446 H 0.88809 0.51784 0.07710
 C447 C 0.42152 0.01158 0.63433
 C448 C 0.41169 -0.01794 0.60364
 H449 H 0.39745 0.03413 0.64786
 H450 H 0.43466 -0.04318 0.59357
   
