data_POSCAR
  _audit_creation_date              2014-09-24
  _audit_creation_method            'ToBaCCo'
  _symmetry_space_group_name_H-M    'P1'
  _symmetry_Int_Tables_number       1
  _symmetry_cell_setting            triclinic
  loop_
  _symmetry_equiv_pos_as_xyz
 x,y,z
_cell_length_a 42.1537
_cell_length_b 42.2610
_cell_length_c 46.0440
_cell_angle_alpha 89.888200
_cell_angle_beta 90.077000
_cell_angle_gamma 120.186900
loop_
  _atom_site_label
  _atom_site_type_symbol
  _atom_site_fract_x
  _atom_site_fract_y
  _atom_site_fract_z
C1 C 0.03286 0.51872 1.31196
 C2 C -0.00054 0.50207 1.32686
 C3 C -0.03394 0.48511 1.31194
 C4 C -0.03430 0.48459 1.28121
 C5 C -0.00055 0.50145 1.26581
 C6 C 0.03321 0.51862 1.28122
 C7 C 0.06632 0.53520 1.26548
 C8 C 0.06630 0.53493 1.23525
 C9 C 0.03319 0.51805 1.21957
 C10 C -0.00055 0.50113 1.23496
 C11 C -0.06741 0.46770 1.26545
 C12 C -0.06740 0.46734 1.23523
 C13 C -0.03428 0.48390 1.21952
 C14 C -0.03388 0.48376 1.18878
 C15 C -0.00044 0.50057 1.17392
 C16 C 0.03288 0.51762 1.18889
 H17 H 0.09261 0.54857 1.27645
 H18 H 0.09255 0.54809 1.22425
 H19 H -0.09370 0.45454 1.27641
 H20 H -0.09368 0.45394 1.22424
 H21 H -0.00053 0.50230 1.35047
 H22 H -0.00027 0.50042 1.15033
 C23 C 0.48132 0.51425 1.31183
 C24 C 0.49782 0.49757 1.32685
 C25 C 0.51468 0.48110 1.31205
 C26 C 0.51522 0.48122 1.28131
 C27 C 0.49848 0.49806 1.26584
 C28 C 0.48142 0.51463 1.28114
 C29 C 0.46496 0.53113 1.26538
 C30 C 0.46521 0.53136 1.23514
 C31 C 0.48198 0.51513 1.21953
 C32 C 0.49878 0.49835 1.23500
 C33 C 0.53201 0.46501 1.26563
 C34 C 0.53234 0.46534 1.23539
 C35 C 0.51589 0.48186 1.21966
 C36 C 0.51605 0.48236 1.18897
 C37 C 0.49938 0.49892 1.17400
 C38 C 0.48243 0.51520 1.18885
 H39 H 0.45168 0.54402 1.27632
 H40 H 0.45213 0.54441 1.22408
 H41 H 0.54508 0.45191 1.27665
 H42 H 0.54564 0.45249 1.22443
 H43 H 0.49752 0.49745 1.35045
 H44 H 0.49961 0.49914 1.15042
 C45 C 0.48521 0.96701 1.31207
 C46 C 0.50170 1.00030 1.32699
 C47 C 0.51813 1.03367 1.31209
 C48 C 0.51820 1.03408 1.28135
 C49 C 0.50158 1.00045 1.26593
 C50 C 0.48502 0.96674 1.28133
 C51 C 0.46875 0.93376 1.26556
 C52 C 0.46874 0.93385 1.23533
 C53 C 0.48495 0.96691 1.21966
 C54 C 0.50151 1.00053 1.23506
 C55 C 0.53440 1.06714 1.26561
 C56 C 0.53429 1.06720 1.23538
 C57 C 0.51800 1.03421 1.21964
 C58 C 0.51770 1.03388 1.18889
 C59 C 0.50132 1.00055 1.17402
 C60 C 0.48507 0.96727 1.18897
 H61 H 0.45585 0.90751 1.27651
 H62 H 0.45584 0.90769 1.22431
 H63 H 0.54734 1.09333 1.27658
 H64 H 0.54714 1.09343 1.22440
 H65 H 0.50175 1.00025 1.35060
 H66 H 0.50119 1.00044 1.15043
 C67 C 0.96753 0.48273 0.68840
 C68 C 1.00084 0.49918 0.67341
 C69 C 1.03432 0.51596 0.68823
 C70 C 1.03479 0.51641 0.71898
 C71 C 1.00108 0.49980 0.73443
 C72 C 0.96730 0.48289 0.71908
 C73 C 0.93422 0.46663 0.73480
 C74 C 0.93428 0.46695 0.76503
 C75 C 0.96741 0.48352 0.78070
 C76 C 1.00114 0.50008 0.76529
 C77 C 1.06793 0.53296 0.73469
 C78 C 1.06799 0.53319 0.76492
 C79 C 1.03490 0.51691 0.78069
 C80 C 1.03455 0.51695 0.81143
 C81 C 1.00113 0.50057 0.82631
 C82 C 0.96777 0.48398 0.81138
 H83 H 0.90794 0.45350 0.72382
 H84 H 0.90804 0.45405 0.77605
 H85 H 1.09419 0.54590 0.72368
 H86 H 1.09429 0.54630 0.77588
 H87 H 1.00061 0.49888 0.64981
 H88 H 1.00100 0.50069 0.84991
 C89 C 0.51755 0.48425 0.68837
 C90 C 0.50129 0.50125 0.67344
 C91 C 0.48481 0.51800 0.68833
 C92 C 0.48447 0.51796 0.71902
 C93 C 0.50086 0.50074 0.73443
 C94 C 0.51747 0.48378 0.71906
 C95 C 0.53351 0.46682 0.73477
 C96 C 0.53324 0.46651 0.76502
 C97 C 0.51695 0.48318 0.78068
 C98 C 0.50064 0.50048 0.76527
 C99 C 0.46820 0.53465 0.73468
 C100 C 0.46804 0.53445 0.76493
 C101 C 0.48410 0.51751 0.78064
 C102 C 0.48409 0.51712 0.81133
 C103 C 0.50019 0.49996 0.82627
 C104 C 0.51651 0.48305 0.81138
 H105 H 0.54643 0.45361 0.72377
 H106 H 0.54596 0.45308 0.77604
 H107 H 0.45544 0.54805 0.72366
 H108 H 0.45516 0.54770 0.77592
 H109 H 0.50145 0.50144 0.64986
 H110 H 0.50002 0.49976 0.84984
 C111 C 0.48305 -0.03386 0.81194
 C112 C 0.50004 -0.00053 0.82681
 C113 C 0.51670 0.03274 0.81185
 C114 C 0.51655 0.03312 0.78117
 C115 C 0.49943 -0.00051 0.76579
 C116 C 0.48260 -0.03420 0.78120
 C117 C 0.46582 -0.06721 0.76545
 C118 C 0.46560 -0.06712 0.73521
 C119 C 0.48209 -0.03405 0.71955
 C120 C 0.49914 -0.00045 0.73496
 C121 C 0.53303 0.06618 0.76548
 C122 C 0.53270 0.06624 0.73525
 C123 C 0.51591 0.03324 0.71957
 C124 C 0.51541 0.03294 0.68888
 C125 C 0.49858 -0.00030 0.67396
 C126 C 0.48202 -0.03362 0.68887
 H127 H 0.45271 -0.09345 0.77641
 H128 H 0.45232 -0.09328 0.72418
 H129 H 0.54633 0.09235 0.77648
 H130 H 0.54577 0.09245 0.72424
 H131 H 0.50033 -0.00041 0.85040
 H132 H 0.49836 -0.00025 0.65038
 O133 O 0.38766 0.66877 0.96662
 O134 O 0.38941 0.73063 0.97547
 C135 C 0.36657 0.73594 0.96138
 O136 O 0.33248 0.71919 0.96654
 O137 O 0.27029 0.65883 0.97537
 C138 C 0.26491 0.63075 0.96128
 O139 O 0.28163 0.61350 0.96647
 O140 O 0.34199 0.61190 0.97541
 C141 C 0.37028 0.63477 0.96141
 O142 O 0.38903 0.65865 1.02437
 O143 O 0.38780 0.71903 1.03323
 C144 C 0.37064 0.73582 1.03838
 O145 O 0.34249 0.73058 1.02429
 O146 O 0.28183 0.66869 1.03313
 C147 C 0.26491 0.63467 1.03830
 O148 O 0.27006 0.61184 1.02421
 O149 O 0.33194 0.61325 1.03314
 C150 C 0.36602 0.63047 1.03838
 Cr151 Cr 0.38641 0.69324 0.99992
 Cr152 Cr 0.30780 0.69329 0.99983
 Cr153 Cr 0.30744 0.61469 0.99981
 O154 O 0.33389 0.66707 0.99986
 O155 O 0.61275 0.33089 0.96728
 O156 O 0.61148 0.26924 0.97627
 C157 C 0.63444 0.26415 0.96223
 O158 O 0.66853 0.28106 0.96742
 O159 O 0.73050 0.34164 0.97621
 C160 C 0.73569 0.36968 0.96206
 O161 O 0.71879 0.38673 0.96717
 O162 O 0.65819 0.38787 0.97600
 C163 C 0.62995 0.36489 0.96201
 O164 O 0.61133 0.34088 1.02501
 O165 O 0.61302 0.28071 1.03400
 C166 C 0.63036 0.26410 1.03922
 O167 O 0.65859 0.26956 1.02517
 O168 O 0.71901 0.33167 1.03397
 C169 C 0.73574 0.36569 1.03908
 O170 O 0.73039 0.38841 1.02493
 O171 O 0.66830 0.38653 1.03375
 C172 C 0.63422 0.36911 1.03899
 Cr173 Cr 0.61421 0.30647 1.00064
 Cr174 Cr 0.69312 0.30701 1.00069
 Cr175 Cr 0.69289 0.38532 1.00047
 O176 O 0.66674 0.33293 1.00060
 O177 O 0.66771 0.38657 0.53275
 O178 O 0.72979 0.38843 0.52384
 C179 C 0.73514 0.36563 0.53787
 O180 O 0.71837 0.33164 0.53266
 O181 O 0.65786 0.26965 0.52385
 C182 C 0.62969 0.26427 0.53794
 O183 O 0.61235 0.28089 0.53274
 O184 O 0.61072 0.34109 0.52384
 C185 C 0.63361 0.36922 0.53791
 O186 O 0.65761 0.38813 0.47501
 O187 O 0.71819 0.38698 0.46610
 C188 C 0.73503 0.36988 0.46089
 O189 O 0.72976 0.34173 0.47491
 O190 O 0.66774 0.28119 0.46608
 C191 C 0.63363 0.26425 0.46095
 O192 O 0.61074 0.26942 0.47501
 O193 O 0.61219 0.33119 0.46611
 C194 C 0.62941 0.36522 0.46095
 Cr195 Cr 0.69229 0.38546 0.49942
 Cr196 Cr 0.69240 0.30708 0.49937
 Cr197 Cr 0.61357 0.30669 0.49942
 O198 O 0.66609 0.33308 0.49940
 O199 O 0.34127 0.61174 0.52391
 O200 O 0.28089 0.61324 0.53283
 C201 C 0.26412 0.63043 0.53798
 O202 O 0.26942 0.65851 0.52385
 O203 O 0.33156 0.71887 0.53269
 C204 C 0.36566 0.73564 0.53787
 O205 O 0.38852 0.73045 0.52378
 O206 O 0.38688 0.66861 0.53268
 C207 C 0.36956 0.63461 0.53790
 O208 O 0.33114 0.61323 0.46618
 O209 O 0.26921 0.61171 0.47509
 C210 C 0.26400 0.63455 0.46099
 O211 O 0.28094 0.66857 0.46610
 O212 O 0.34156 0.73050 0.47494
 C213 C 0.36974 0.73585 0.46089
 O214 O 0.38690 0.71903 0.46603
 O215 O 0.38822 0.65864 0.47494
 C216 C 0.36522 0.63046 0.46096
 Cr217 Cr 0.30666 0.61454 0.49950
 Cr218 Cr 0.30690 0.69308 0.49939
 Cr219 Cr 0.38556 0.69315 0.49936
 O220 O 0.33305 0.66692 0.49941
 C221 C 0.46461 0.53076 0.32874
 C222 C 0.45093 0.54435 0.34340
 C223 C 0.43494 0.56032 0.36155
 C224 C 0.39866 0.53900 0.37119
 C225 C 0.38379 0.55391 0.39020
 C226 C 0.40515 0.59019 0.39963
 C227 C 0.44126 0.61167 0.38964
 C228 C 0.45613 0.59676 0.37063
 C229 C 0.39065 0.60479 0.42060
 C230 C 0.37884 0.61670 0.43873
 H231 H 0.38209 0.51075 0.36440
 H232 H 0.35590 0.53701 0.39790
 H233 H 0.45808 0.63970 0.39691
 H234 H 0.48426 0.61343 0.36340
 C235 C 0.46961 0.93550 0.32816
 C236 C 0.45606 0.90817 0.34290
 C237 C 0.44014 0.87616 0.36116
 C238 C 0.46186 0.86212 0.37154
 C239 C 0.44695 0.83231 0.39065
 C240 C 0.41026 0.81640 0.39945
 C241 C 0.38839 0.83011 0.38874
 C242 C 0.40330 0.85993 0.36963
 C243 C 0.39558 0.78719 0.42048
 C244 C 0.38359 0.76338 0.43863
 H245 H 0.49042 0.87456 0.36524
 H246 H 0.46416 0.82204 0.39890
 H247 H 0.36004 0.81814 0.39550
 H248 H 0.38630 0.87066 0.36184
 C249 C 0.06441 0.53465 0.32806
 C250 C 0.09177 0.54842 0.34279
 C251 C 0.12381 0.56452 0.36106
 C252 C 0.13944 0.54367 0.37004
 C253 C 0.16925 0.55860 0.38918
 C254 C 0.18355 0.59443 0.39942
 C255 C 0.16826 0.61546 0.39011
 C256 C 0.13845 0.60054 0.37096
 C257 C 0.21271 0.60899 0.42050
 C258 C 0.23650 0.62084 0.43870
 H259 H 0.12823 0.51574 0.36261
 H260 H 0.18076 0.54203 0.39635
 H261 H 0.17899 0.64314 0.39800
 H262 H 0.12647 0.61684 0.36426
 C263 C 0.53021 0.46525 0.32823
 C264 C 0.54367 0.45146 0.34299
 C265 C 0.55943 0.43528 0.36125
 C266 C 0.53735 0.39978 0.37214
 C267 C 0.55214 0.38479 0.39123
 C268 C 0.58908 0.40525 0.39950
 C269 C 0.61130 0.44056 0.38828
 C270 C 0.59651 0.45554 0.36919
 C271 C 0.60368 0.39071 0.42052
 C272 C 0.61560 0.37887 0.43869
 H273 H 0.50861 0.38393 0.36624
 H274 H 0.53467 0.35754 0.39988
 H275 H 0.63986 0.45668 0.39464
 H276 H 0.61378 0.48308 0.36099
 C277 C 0.53377 0.06511 0.32821
 C278 C 0.54736 0.09237 0.34295
 C279 C 0.56331 0.12430 0.36122
 C280 C 0.60011 0.14040 0.36980
 C281 C 0.61503 0.17014 0.38891
 C282 C 0.59321 0.18391 0.39952
 C283 C 0.55656 0.16815 0.39061
 C284 C 0.54164 0.13841 0.37150
 C285 C 0.60789 0.21304 0.42055
 C286 C 0.61985 0.23679 0.43870
 H287 H 0.61706 0.12961 0.36209
 H288 H 0.64335 0.18200 0.39576
 H289 H 0.53939 0.17846 0.39878
 H290 H 0.51311 0.12607 0.36511
 C291 C 0.93451 0.46945 0.32802
 C292 C 0.90715 0.45589 0.34274
 C293 C 0.87511 0.44002 0.36098
 C294 C 0.86119 0.46175 0.37140
 C295 C 0.83137 0.44690 0.39052
 C296 C 0.81537 0.41027 0.39929
 C297 C 0.82894 0.38839 0.38852
 C298 C 0.85876 0.40323 0.36940
 C299 C 0.78622 0.39566 0.42037
 C300 C 0.76247 0.38372 0.43858
 H301 H 0.87373 0.49027 0.36513
 H302 H 0.82120 0.46411 0.39883
 H303 H 0.81688 0.36007 0.39527
 H304 H 0.86941 0.38624 0.36157
 C305 C 0.53303 0.46617 1.17200
 C306 C 0.54698 0.45293 1.15726
 C307 C 0.56331 0.43742 1.13898
 C308 C 0.59945 0.45923 1.12918
 C309 C 0.61462 0.44478 1.11002
 C310 C 0.59369 0.40845 1.10060
 C311 C 0.55773 0.38647 1.11075
 C312 C 0.54257 0.40093 1.12990
 C313 C 0.60847 0.39427 1.07951
 C314 C 0.62045 0.38264 1.06129
 H315 H 0.61567 0.48753 1.13597
 H316 H 0.64239 0.46206 1.10221
 H317 H 0.54125 0.35840 1.10349
 H318 H 0.51453 0.38387 1.13725
 C319 C 0.93462 0.46757 1.17263
 C320 C 0.90732 0.45352 1.15783
 C321 C 0.87537 0.43707 1.13948
 C322 C 0.85946 0.45759 1.13028
 C323 C 0.82977 0.44234 1.11103
 C324 C 0.81586 0.40651 1.10090
 C325 C 0.83142 0.38580 1.11043
 C326 C 0.86112 0.40106 1.12969
 C327 C 0.78683 0.39164 1.07971
 C328 C 0.76314 0.37957 1.06143
 H329 H 0.87038 0.48552 1.13762
 H330 H 0.81805 0.45864 1.10369
 H331 H 0.82099 0.35814 1.10263
 H332 H 0.87332 0.38502 1.13656
 C333 C 0.53300 0.06535 1.17275
 C334 C 0.54625 0.09261 1.15795
 C335 C 0.56175 0.12452 1.13958
 C336 C 0.53962 0.13808 1.12918
 C337 C 0.55410 0.16775 1.10993
 C338 C 0.59078 0.18398 1.10101
 C339 C 0.61305 0.17076 1.11175
 C340 C 0.59857 0.14109 1.13099
 C341 C 0.60505 0.21303 1.07985
 C342 C 0.61674 0.23671 1.06158
 H343 H 0.51107 0.12537 1.13557
 H344 H 0.53658 0.17764 1.10167
 H345 H 0.64140 0.18299 1.10490
 H346 H 0.61588 0.13072 1.13880
 C347 C 0.46575 0.53168 1.17176
 C348 C 0.45206 0.54518 1.15694
 C349 C 0.43601 0.56099 1.13858
 C350 C 0.45719 0.59732 1.12915
 C351 C 0.44225 0.61205 1.10994
 C352 C 0.40608 0.59050 1.10010
 C353 C 0.38473 0.55433 1.10987
 C354 C 0.39966 0.53961 1.12908
 C355 C 0.39149 0.60492 1.07897
 C356 C 0.37964 0.61673 1.06072
 H357 H 0.48537 0.61404 1.13627
 H358 H 0.45906 0.63998 1.10242
 H359 H 0.35678 0.53738 1.10229
 H360 H 0.38310 0.51144 1.13614
 C361 C 0.06621 0.53442 1.17189
 C362 C 0.09349 0.54819 1.15710
 C363 C 0.12542 0.56432 1.13874
 C364 C 0.14046 0.60061 1.12930
 C365 C 0.17012 0.61560 1.11004
 C366 C 0.18486 0.59436 1.10013
 C367 C 0.17017 0.55824 1.10990
 C368 C 0.14051 0.54325 1.12917
 C369 C 0.21387 0.60901 1.07894
 C370 C 0.23753 0.62093 1.06065
 H371 H 0.12889 0.61708 1.13646
 H372 H 0.18117 0.64350 1.10251
 H373 H 0.18125 0.54152 1.10228
 H374 H 0.12898 0.51511 1.13623
 C375 C 0.46880 0.93406 1.17194
 C376 C 0.45550 0.90688 1.15712
 C377 C 0.43993 0.87506 1.13872
 C378 C 0.40287 0.85805 1.13072
 C379 C 0.38827 0.82846 1.11146
 C380 C 0.41067 0.81576 1.10014
 C381 C 0.44760 0.83243 1.10848
 C382 C 0.46220 0.86202 1.12773
 C383 C 0.39623 0.78679 1.07898
 C384 C 0.38440 0.76316 1.06072
 H385 H 0.38545 0.86801 1.13898
 H386 H 0.35972 0.81588 1.10506
 H387 H 0.46521 0.82295 1.09976
 H388 H 0.49093 0.87507 1.13367
 C389 C 0.53407 0.46762 0.67134
 C390 C 0.54762 0.45404 0.65653
 C391 C 0.56352 0.43816 0.63816
 C392 C 0.54177 0.40242 0.62768
 C393 C 0.55664 0.38774 0.60845
 C394 C 0.59331 0.40873 0.59962
 C395 C 0.61521 0.44427 0.61043
 C396 C 0.60034 0.45896 0.62966
 C397 C 0.60794 0.39443 0.57848
 C398 C 0.61986 0.38276 0.56024
 H399 H 0.51322 0.38616 0.63401
 H400 H 0.53941 0.36029 0.60013
 H401 H 0.64355 0.46080 0.60364
 H402 H 0.61735 0.48667 0.63753
 C403 C 0.53184 0.06618 0.67185
 C404 C 0.54527 0.09340 0.65703
 C405 C 0.56096 0.12524 0.63863
 C406 C 0.59745 0.14093 0.62938
 C407 C 0.61204 0.17051 0.61007
 C408 C 0.59018 0.18451 0.59993
 C409 C 0.55385 0.16918 0.60952
 C410 C 0.53927 0.13960 0.62884
 C411 C 0.60446 0.21341 0.57868
 C412 C 0.61614 0.23699 0.56035
 H413 H 0.61441 0.12993 0.63672
 H414 H 0.64011 0.18205 0.60268
 H415 H 0.53667 0.17969 0.60172
 H416 H 0.51096 0.12757 0.63575
 C417 C 0.93416 0.46593 0.67141
 C418 C 0.90685 0.45217 0.65662
 C419 C 0.87489 0.43605 0.63825
 C420 C 0.85985 0.45715 0.62854
 C421 C 0.83015 0.44215 0.60928
 C422 C 0.81537 0.40600 0.59965
 C423 C 0.83007 0.38474 0.60970
 C424 C 0.85977 0.39973 0.62896
 C425 C 0.78630 0.39133 0.57848
 C426 C 0.76259 0.37939 0.56021
 H427 H 0.87143 0.48531 0.63548
 H428 H 0.81910 0.45890 0.60155
 H429 H 0.81897 0.35681 0.60229
 H430 H 0.87130 0.38323 0.63622
 C431 C 0.46849 0.53487 0.67126
 C432 C 0.45509 0.54866 0.65644
 C433 C 0.43935 0.56478 0.63806
 C434 C 0.46137 0.60035 0.62728
 C435 C 0.44661 0.61525 0.60806
 C436 C 0.40977 0.59463 0.59954
 C437 C 0.38761 0.55926 0.61066
 C438 C 0.40237 0.54436 0.62988
 C439 C 0.39520 0.60912 0.57843
 C440 C 0.38331 0.62094 0.56020
 H441 H 0.49004 0.61632 0.63336
 H442 H 0.46404 0.64256 0.59950
 H443 H 0.35914 0.54301 0.60412
 H444 H 0.38514 0.51677 0.63799
 C445 C 0.46530 0.93322 0.67181
 C446 C 0.45163 0.90607 0.65697
 C447 C 0.43567 0.87432 0.63855
 C448 C 0.39911 0.85883 0.62947
 C449 C 0.38425 0.82933 0.61014
 C450 C 0.40589 0.81522 0.59982
 C451 C 0.44228 0.83035 0.60925
 C452 C 0.45714 0.85985 0.62857
 C453 C 0.39132 0.78639 0.57858
 C454 C 0.37943 0.76287 0.56025
 H455 H 0.38232 0.86992 0.63695
 H456 H 0.35613 0.81794 0.60289
 H457 H 0.45930 0.81976 0.60130
 H458 H 0.48549 0.87173 0.63536
 C459 C 0.06579 0.53156 0.67205
 C460 C 0.09303 0.54508 0.65719
 C461 C 0.12489 0.56091 0.63873
 C462 C 0.13915 0.53934 0.62861
 C463 C 0.16873 0.55408 0.60926
 C464 C 0.18418 0.59047 0.59994
 C465 C 0.17026 0.61220 0.61039
 C466 C 0.14068 0.59745 0.62974
 C467 C 0.21313 0.60495 0.57869
 C468 C 0.23676 0.61676 0.56037
 H469 H 0.12704 0.51100 0.63531
 H470 H 0.17917 0.53699 0.60122
 H471 H 0.18188 0.64031 0.60323
 H472 H 0.12975 0.61432 0.63732
 C473 C 0.46789 0.53406 0.82835
 C474 C 0.45464 0.54797 0.84313
 C475 C 0.43913 0.56428 0.86145
 C476 C 0.40219 0.54403 0.86975
 C477 C 0.38766 0.55912 0.88892
 C478 C 0.41001 0.59452 0.89985
 C479 C 0.44680 0.61497 0.89121
 C480 C 0.46133 0.59988 0.87205
 C481 C 0.39567 0.60919 0.92093
 C482 C 0.38393 0.62109 0.93912
 H483 H 0.38482 0.51642 0.86179
 H484 H 0.35922 0.54300 0.89556
 H485 H 0.46437 0.64230 0.89963
 H486 H 0.48997 0.61572 0.86587
 C487 C 0.06609 0.53257 0.82756
 C488 C 0.09340 0.54607 0.84237
 C489 C 0.12534 0.56184 0.86075
 C490 C 0.14017 0.54046 0.87024
 C491 C 0.16984 0.55510 0.88953
 C492 C 0.18480 0.59117 0.89941
 C493 C 0.17032 0.61272 0.88958
 C494 C 0.14065 0.59808 0.87029
 C495 C 0.21383 0.60549 0.92062
 C496 C 0.23751 0.61718 0.93891
 H497 H 0.12843 0.51235 0.86311
 H498 H 0.18071 0.53814 0.89709
 H499 H 0.18157 0.64059 0.89717
 H500 H 0.12929 0.61479 0.86319
 C501 C 0.46722 0.93468 0.82806
 C502 C 0.45346 0.90740 0.84282
 C503 C 0.43733 0.87547 0.86113
 C504 C 0.45870 0.86090 0.87122
 C505 C 0.44365 0.83121 0.89043
 C506 C 0.40717 0.81599 0.89962
 C507 C 0.38564 0.83022 0.88919
 C508 C 0.40069 0.85991 0.86998
 C509 C 0.39242 0.78697 0.92078
 C510 C 0.38041 0.76331 0.93904
 H511 H 0.48711 0.87284 0.86462
 H512 H 0.46059 0.82053 0.89848
 H513 H 0.35745 0.81876 0.89627
 H514 H 0.38398 0.87108 0.86240
 C515 C 0.53248 0.46583 0.82844
 C516 C 0.54552 0.45170 0.84328
 C517 C 0.56078 0.43514 0.86169
 C518 C 0.59850 0.45366 0.86763
 C519 C 0.61298 0.43851 0.88688
 C520 C 0.58979 0.40478 0.90026
 C521 C 0.55216 0.38602 0.89398
 C522 C 0.53769 0.40116 0.87474
 C523 C 0.60428 0.39024 0.92140
 C524 C 0.61615 0.37844 0.93966
 H525 H 0.61658 0.48003 0.85776
 H526 H 0.64209 0.45334 0.89168
 H527 H 0.53396 0.36000 0.90430
 H528 H 0.50847 0.38669 0.87039
 C529 C 0.93446 0.46771 0.82842
 C530 C 0.90720 0.45442 0.84324
 C531 C 0.87529 0.43886 0.86164
 C532 C 0.86221 0.46106 0.87264
 C533 C 0.83254 0.44648 0.89191
 C534 C 0.81583 0.40964 0.90026
 C535 C 0.82857 0.38731 0.88893
 C536 C 0.85825 0.40189 0.86966
 C537 C 0.78679 0.39522 0.92144
 C538 C 0.76310 0.38342 0.93971
 H539 H 0.87529 0.48972 0.86669
 H540 H 0.82302 0.46403 0.90063
 H541 H 0.81597 0.35883 0.89534
 H542 H 0.86825 0.38453 0.86139
 C543 C 0.53368 0.06595 0.82885
 C544 C 0.54760 0.09315 0.84363
 C545 C 0.56389 0.12499 0.86196
 C546 C 0.59987 0.13915 0.87211
 C547 C 0.61496 0.16875 0.89133
 C548 C 0.59413 0.18430 0.90048
 C549 C 0.55834 0.17049 0.89000
 C550 C 0.54325 0.14089 0.87077
 C551 C 0.60882 0.21324 0.92164
 C552 C 0.62074 0.23684 0.93990
 H553 H 0.61600 0.12695 0.86553
 H554 H 0.64260 0.17911 0.89941
 H555 H 0.54194 0.18221 0.89705
 H556 H 0.51535 0.13004 0.86316
   
