data_POSCAR
  _audit_creation_date              2014-09-24
  _audit_creation_method            'ToBaCCo'
  _symmetry_space_group_name_H-M    'P1'
  _symmetry_Int_Tables_number       1
  _symmetry_cell_setting            triclinic
  loop_
  _symmetry_equiv_pos_as_xyz
 x,y,z
_cell_length_a 37.0789
_cell_length_b 20.3309
_cell_length_c 13.4397
_cell_angle_alpha 91.335100
_cell_angle_beta 90.015900
_cell_angle_gamma 90.326400
loop_
  _atom_site_label
  _atom_site_type_symbol
  _atom_site_fract_x
  _atom_site_fract_y
  _atom_site_fract_z
C1 C 0.74082 0.22498 0.44607
 C2 C 0.74657 0.23612 0.54484
 C3 C 0.71936 0.26855 0.60939
 C4 C 0.77938 0.21165 0.59402
 C5 C 0.76809 0.19105 0.38416
 C6 C 0.70836 0.24919 0.39457
 C7 C 0.72832 0.32504 0.66606
 C8 C 0.70233 0.35629 0.72573
 C9 C 0.66671 0.33182 0.72973
 C10 C 0.65872 0.27264 0.67594
 C11 C 0.68472 0.24180 0.61679
 C12 C 0.81287 0.24224 0.57979
 C13 C 0.84374 0.21787 0.62557
 C14 C 0.84162 0.16280 0.68667
 C15 C 0.80787 0.13178 0.69941
 C16 C 0.77704 0.15648 0.65413
 C17 C 0.77101 0.12232 0.38406
 C18 C 0.79864 0.09114 0.33051
 C19 C 0.82406 0.12855 0.27868
 C20 C 0.82042 0.19734 0.27706
 C21 C 0.79250 0.22827 0.32907
 C22 C 0.68277 0.20442 0.35577
 C23 C 0.65203 0.22705 0.30703
 C24 C 0.64708 0.29462 0.29352
 C25 C 0.67285 0.33938 0.33248
 C26 C 0.70315 0.31680 0.38297
 H27 H 0.75529 0.34563 0.66269
 H28 H 0.71000 0.40072 0.76683
 H29 H 0.63296 0.24801 0.67935
 H30 H 0.67782 0.19655 0.57688
 H31 H 0.81502 0.28493 0.53339
 H32 H 0.86935 0.24240 0.61377
 H33 H 0.75136 0.13191 0.66458
 H34 H 0.75222 0.09314 0.42647
 H35 H 0.80082 0.03805 0.33182
 H36 H 0.83911 0.22719 0.23543
 H37 H 0.79040 0.28139 0.32849
 H38 H 0.68640 0.15203 0.36438
 H39 H 0.63240 0.19178 0.27840
 H40 H 0.66928 0.39187 0.32523
 H41 H 0.72267 0.35193 0.41260
 H42 H 0.80501 0.08788 0.74257
 C43 C 0.26303 0.79234 0.55064
 C44 C 0.26120 0.78780 0.45007
 C45 C 0.29169 0.76017 0.39211
 C46 C 0.22779 0.80436 0.39655
 C47 C 0.23291 0.81820 0.61128
 C48 C 0.29351 0.76340 0.60438
 C49 C 0.31960 0.80144 0.36015
 C50 C 0.35086 0.77460 0.31757
 C51 C 0.35446 0.70619 0.30531
 C52 C 0.32627 0.66505 0.33769
 C53 C 0.29515 0.69190 0.38034
 C54 C 0.22133 0.86901 0.36802
 C55 C 0.18879 0.88493 0.32201
 C56 C 0.16213 0.83627 0.30427
 C57 C 0.16863 0.77180 0.33427
 C58 C 0.20138 0.75579 0.37904
 C59 C 0.20275 0.77864 0.62989
 C60 C 0.17461 0.80264 0.68907
 C61 C 0.17614 0.86700 0.73035
 C62 C 0.20694 0.90568 0.71341
 C63 C 0.23509 0.88153 0.65411
 C64 C 0.28984 0.69992 0.64128
 C65 C 0.31928 0.66871 0.68350
 C66 C 0.35291 0.70105 0.69084
 C67 C 0.35640 0.76482 0.65374
 C68 C 0.32685 0.79594 0.61105
 H69 H 0.31758 0.85426 0.37086
 H70 H 0.37224 0.80727 0.29405
 H71 H 0.32856 0.61205 0.33272
 H72 H 0.27427 0.65940 0.40733
 H73 H 0.24128 0.90718 0.38258
 H74 H 0.18421 0.93556 0.30249
 H75 H 0.20590 0.70575 0.40182
 H76 H 0.20118 0.72898 0.59917
 H77 H 0.15216 0.77005 0.70332
 H78 H 0.20912 0.95486 0.74562
 H79 H 0.25856 0.91220 0.64147
 H80 H 0.26441 0.67371 0.63432
 H81 H 0.31570 0.61869 0.70739
 H82 H 0.38206 0.79049 0.65759
 H83 H 0.33007 0.84474 0.58153
 H84 H 0.14844 0.73372 0.32228
 C85 C 0.25120 0.23077 -0.45081
 C86 C 0.25690 0.22392 -0.55037
 C87 C 0.29039 0.24859 -0.59841
 C88 C 0.22766 0.19897 -0.61674
 C89 C 0.21948 0.20082 -0.40237
 C90 C 0.27546 0.27056 -0.38600
 C91 C 0.28765 0.28900 -0.68081
 C92 C 0.31843 0.31427 -0.72580
 C93 C 0.35331 0.30027 -0.68902
 C94 C 0.35590 0.25752 -0.60836
 C95 C 0.32484 0.23197 -0.56360
 C96 C 0.19504 0.23312 -0.62124
 C97 C 0.16756 0.21159 -0.68507
 C98 C 0.17201 0.15475 -0.74643
 C99 C 0.20527 0.12157 -0.74270
 C100 C 0.23288 0.14369 -0.67900
 C101 C 0.21616 0.13234 -0.39746
 C102 C 0.18720 0.10434 -0.34685
 C103 C 0.16048 0.14416 -0.30226
 C104 C 0.16384 0.21317 -0.30882
 C105 C 0.19331 0.24100 -0.35740
 C106 C 0.29365 0.24091 -0.30764
 C107 C 0.31755 0.27769 -0.24833
 C108 C 0.32304 0.34496 -0.26554
 C109 C 0.30337 0.37538 -0.34050
 C110 C 0.27992 0.33823 -0.40110
 H111 H 0.26146 0.30175 -0.71019
 H112 H 0.31392 0.34360 -0.79035
 H113 H 0.38202 0.24442 -0.57881
 H114 H 0.32769 0.19930 -0.50164
 H115 H 0.19097 0.27704 -0.57551
 H116 H 0.14320 0.24029 -0.68442
 H117 H 0.25817 0.11734 -0.67742
 H118 H 0.23637 0.10070 -0.43121
 H119 H 0.18552 0.05123 -0.34348
 H120 H 0.14484 0.24634 -0.27353
 H121 H 0.19577 0.29406 -0.35987
 H122 H 0.29004 0.18894 -0.29425
 H123 H 0.33211 0.25354 -0.18976
 H124 H 0.30721 0.42720 -0.35453
 H125 H 0.26548 0.36194 -0.46032
 H126 H 0.20991 0.07789 -0.78860
 C127 C -0.25510 0.76298 -0.44730
 C128 C -0.25655 0.77101 -0.54748
 C129 C -0.22549 0.79932 -0.60281
 C130 C -0.28871 0.74896 -0.60603
 C131 C -0.28259 0.72401 -0.39445
 C132 C -0.22625 0.79308 -0.38486
 C133 C -0.23091 0.85027 -0.66955
 C134 C -0.20186 0.87663 -0.72211
 C135 C -0.16657 0.85264 -0.70971
 C136 C -0.16142 0.80063 -0.64331
 C137 C -0.19057 0.77423 -0.59126
 C138 C -0.32349 0.77018 -0.58000
 C139 C -0.35372 0.74597 -0.63167
 C140 C -0.35001 0.70054 -0.71168
 C141 C -0.31464 0.68174 -0.73997
 C142 C -0.28455 0.70576 -0.68771
 C143 C -0.28462 0.65552 -0.40818
 C144 C -0.31009 0.61894 -0.35573
 C145 C -0.33482 0.65050 -0.29139
 C146 C -0.33188 0.71942 -0.27657
 C147 C -0.30579 0.75544 -0.32683
 C148 C -0.20504 0.75329 -0.32460
 C149 C -0.17812 0.78124 -0.26431
 C150 C -0.17238 0.84966 -0.26230
 C151 C -0.19435 0.88962 -0.32036
 C152 C -0.22092 0.86149 -0.38193
 H153 H -0.25765 0.87006 -0.68035
 H154 H -0.20711 0.91629 -0.77257
 H155 H -0.13534 0.77886 -0.63153
 H156 H -0.18587 0.73358 -0.54231
 H157 H -0.32729 0.80505 -0.51884
 H158 H -0.38018 0.76244 -0.60802
 H159 H -0.25793 0.68926 -0.70967
 H160 H -0.26631 0.63049 -0.45893
 H161 H -0.31117 0.56609 -0.36797
 H162 H -0.34879 0.74596 -0.22407
 H163 H -0.30391 0.80814 -0.31382
 H164 H -0.20915 0.70050 -0.32497
 H165 H -0.16215 0.74945 -0.21841
 H166 H -0.19055 0.94252 -0.31919
 H167 H -0.23754 0.89300 -0.42665
 H168 H -0.30930 0.64773 -0.80081
 O169 O -0.04172 0.88669 0.20077
 O170 O -0.08595 0.93591 0.10930
 C171 C -0.07537 0.89838 0.18026
 O172 O 0.04908 1.13189 0.16211
 O173 O 0.08927 1.07146 0.06836
 C174 C 0.08153 1.11717 0.13375
 O175 O -0.05077 1.11393 0.18827
 O176 O -0.08992 1.04449 0.10486
 C177 C -0.08280 1.09091 0.16979
 O178 O 0.06004 0.89550 0.17339
 O179 O 0.09403 0.96088 0.07195
 C180 C 0.09078 0.91796 0.14094
 Zr181 Zr 0.00638 0.92107 0.13204
 O182 O 0.01353 0.92238 0.28827
 O183 O 0.00901 0.81731 0.12461
 Zr184 Zr -0.00083 1.08717 0.12366
 O185 O 0.00645 1.09578 0.27967
 O186 O -0.00912 1.18989 0.11511
 O187 O -0.02859 1.00029 0.15370
 O188 O 0.03407 1.00945 0.14037
 O189 O 0.05078 0.87992 -0.17375
 O190 O 0.08972 0.95237 -0.09556
 C191 C 0.08279 0.90341 -0.15640
 O192 O -0.06029 1.09745 -0.17449
 O193 O -0.09474 1.03661 -0.06802
 C194 C -0.09112 1.07653 -0.14113
 O195 O 0.04058 1.12079 -0.18346
 O196 O 0.08490 1.06538 -0.10101
 C197 C 0.07413 1.10779 -0.16499
 O198 O -0.04949 0.87098 -0.16516
 O199 O -0.08943 0.92910 -0.06740
 C200 C -0.08186 0.88587 -0.13665
 Zr201 Zr 0.00040 0.91140 -0.11755
 O202 O 0.00062 0.90395 -0.27490
 O203 O 0.00143 0.80766 -0.10742
 Zr204 Zr -0.00698 1.07719 -0.12630
 O205 O -0.00641 1.07119 -0.28381
 O206 O -0.01589 1.17983 -0.13077
 Zr207 Zr -0.05374 0.99136 0.01327
 Zr208 Zr 0.05316 1.00733 -0.00724
 O209 O 0.02732 0.99821 -0.14634
 O210 O -0.03560 0.98877 -0.13545
 O211 O 0.03620 0.90856 0.00179
 O212 O -0.03572 1.08937 0.00413
 O213 O -0.02767 0.89977 0.01382
 O214 O 0.02774 1.09982 -0.00794
 H215 H 0.05121 1.01403 0.19669
 H216 H -0.05367 1.12530 0.00518
 H217 H 0.04200 0.99830 -0.20793
 H218 H -0.04264 0.85941 0.01854
 H219 H 0.01117 1.20860 0.07704
 H220 H 0.00369 1.20171 -0.09231
 H221 H -0.02649 1.04188 -0.30515
 H222 H -0.01948 0.93102 -0.29914
 H223 H 0.02212 0.79644 -0.06461
 H224 H 0.01139 0.80306 0.19428
 H225 H -0.00351 0.95507 0.31640
 H226 H -0.01091 1.06545 0.31088
 O227 O 0.44987 0.38378 0.17755
 O228 O 0.41008 0.44206 0.08335
 C229 C 0.41735 0.40113 0.15248
 O230 O 0.55347 0.61786 0.15562
 O231 O 0.59095 0.55264 0.05992
 C232 C 0.58531 0.59929 0.12507
 O233 O 0.45083 0.61353 0.17506
 O234 O 0.41041 0.55005 0.08531
 C235 C 0.41816 0.59441 0.15242
 O236 O 0.55206 0.37896 0.16065
 O237 O 0.59030 0.43976 0.06417
 C238 C 0.58408 0.39639 0.13123
 Zr239 Zr 0.50059 0.41415 0.11690
 O240 O 0.50633 0.41787 0.27368
 O241 O 0.49661 0.31020 0.11742
 Zr242 Zr 0.50134 0.58067 0.11525
 O243 O 0.50664 0.58204 0.27216
 O244 O 0.50369 0.68490 0.11602
 O245 O 0.46911 0.49793 0.13874
 O246 O 0.53257 0.49767 0.12999
 O247 O 0.54568 0.36949 -0.18610
 O248 O 0.58756 0.43452 -0.10507
 C249 C 0.57856 0.38697 -0.16675
 O250 O 0.44618 0.60692 -0.18630
 O251 O 0.40808 0.54792 -0.08746
 C252 C 0.41424 0.58988 -0.15643
 O253 O 0.54666 0.61644 -0.18267
 O254 O 0.58793 0.55126 -0.10504
 C255 C 0.57937 0.59889 -0.16317
 O256 O 0.44591 0.37505 -0.18204
 O257 O 0.40757 0.43863 -0.08683
 C258 C 0.41401 0.39323 -0.15395
 Zr259 Zr 0.49696 0.40946 -0.13458
 O260 O 0.49840 0.40902 -0.29213
 O261 O 0.49305 0.30554 -0.13566
 Zr262 Zr 0.49733 0.57529 -0.13663
 O263 O 0.49971 0.56858 -0.29398
 O264 O 0.49385 0.67894 -0.14173
 Zr265 Zr 0.44568 0.49510 -0.00444
 Zr266 Zr 0.55286 0.49449 -0.01667
 O267 O 0.52841 0.49205 -0.15781
 O268 O 0.46469 0.49198 -0.15195
 O269 O 0.53095 0.39871 -0.01234
 O270 O 0.46807 0.59021 -0.00730
 O271 O 0.46759 0.39989 -0.00537
 O272 O 0.53134 0.59037 -0.01451
 H273 H 0.54963 0.49906 0.18677
 H274 H 0.45152 0.62825 -0.00641
 H275 H 0.54413 0.49130 -0.21745
 H276 H 0.45132 0.36113 -0.00309
 H277 H 0.48114 0.70172 0.08696
 H278 H 0.50669 0.69671 -0.08231
 H279 H 0.47748 0.54597 -0.31742
 H280 H 0.47660 0.43195 -0.31532
 H281 H 0.51108 0.28948 -0.08797
 H282 H 0.51750 0.29230 0.08026
 H283 H 0.48593 0.44360 0.30113
 H284 H 0.48622 0.55662 0.29935
 C285 C 0.38530 0.32663 0.26960
 C286 C 0.38532 0.37397 0.20166
 H287 H 0.41109 0.30858 0.29510
 H288 H 0.36045 0.39606 0.17838
 C289 C -0.13840 0.88119 0.23470
 C290 C -0.10311 0.86641 0.24199
 H291 H -0.14593 0.91861 0.18251
 H292 H -0.09352 0.83148 0.29499
 C293 C 0.61834 0.67482 0.24242
 C294 C 0.61815 0.63072 0.16643
 H295 H 0.59250 0.69046 0.27216
 H296 H 0.64294 0.61366 0.13320
 C297 C 0.14446 1.12847 0.19151
 C298 C 0.11097 1.15306 0.18475
 H299 H 0.15024 1.08328 0.15016
 H300 H 0.10306 1.19694 0.22548
 C301 C 0.64175 0.36583 -0.21645
 C302 C 0.60476 0.35137 -0.21833
 H303 H 0.65040 0.40884 -0.17321
 H304 H 0.59435 0.31271 -0.26678
 C305 C 0.14653 0.89520 -0.20820
 C306 C 0.11254 0.87259 -0.21237
 H307 H 0.15265 0.93818 -0.16186
 H308 H 0.10543 0.83203 -0.26214
 C309 C 0.38493 0.66916 -0.26602
 C310 C 0.38250 0.62027 -0.20125
 H311 H 0.41127 0.68836 -0.28545
 H312 H 0.35643 0.60313 -0.17634
 C313 C -0.12486 1.13881 -0.26612
 C314 C -0.12462 1.09924 -0.18769
 H315 H -0.09940 1.15613 -0.29558
 H316 H -0.14961 1.08316 -0.15448
 C317 C 0.63851 0.61264 -0.24430
 C318 C 0.60796 0.63850 -0.20769
 H319 H 0.64144 0.55955 -0.24422
 H320 H 0.60152 0.68962 -0.21877
 C321 C 0.13233 1.11353 -0.25012
 C322 C 0.10170 1.14329 -0.22122
 H323 H 0.13504 1.06152 -0.23523
 H324 H 0.09526 1.19247 -0.24405
 C325 C 0.35095 0.38251 -0.21028
 C326 C 0.38389 0.35735 -0.20051
 H327 H 0.34559 0.43280 -0.18644
 H328 H 0.38978 0.30951 -0.23384
 C329 C -0.14374 0.88037 -0.20036
 C330 C -0.11165 0.85185 -0.18838
 H331 H -0.14801 0.92996 -0.17147
 H332 H -0.10592 0.80524 -0.22562
 C333 C 0.38773 0.67874 0.25941
 C334 C 0.38686 0.62315 0.20428
 H335 H 0.41266 0.70659 0.26601
 H336 H 0.36126 0.59852 0.19117
 C337 C -0.14597 1.09531 0.22618
 C338 C -0.11280 1.12157 0.22453
 H339 H -0.15101 1.04737 0.19186
 H340 H -0.10722 1.16698 0.26565
 C341 C 0.61457 0.31779 0.24111
 C342 C 0.61604 0.36840 0.17926
 H343 H 0.58935 0.29170 0.25171
 H344 H 0.64188 0.39107 0.16353
 C345 C 0.12717 0.85212 0.25715
 C346 C 0.12485 0.89695 0.18626
 H347 H 0.10329 0.82517 0.27924
 H348 H 0.14924 0.92063 0.16028
   
