data_POSCAR
  _audit_creation_date              2014-09-24
  _audit_creation_method            'ToBaCCo'
  _symmetry_space_group_name_H-M    'P1'
  _symmetry_Int_Tables_number       1
  _symmetry_cell_setting            triclinic
  loop_
  _symmetry_equiv_pos_as_xyz
 x,y,z
_cell_length_a 44.7430
_cell_length_b 36.7017
_cell_length_c 38.1834
_cell_angle_alpha 89.799200
_cell_angle_beta 89.935800
_cell_angle_gamma 89.738900
loop_
  _atom_site_label
  _atom_site_type_symbol
  _atom_site_fract_x
  _atom_site_fract_y
  _atom_site_fract_z
C1 C 0.23853 0.25475 0.26865
 C2 C 0.23641 0.21761 0.26929
 C3 C 0.21399 0.19771 0.24808
 C4 C 0.25756 0.19449 0.28972
 C5 C 0.26353 0.27388 0.28640
 C6 C 0.21634 0.27788 0.24970
 C7 C 0.19556 0.17180 0.26413
 C8 C 0.17544 0.15152 0.24431
 C9 C 0.17326 0.15642 0.20776
 C10 C 0.19208 0.18262 0.19177
 C11 C 0.21225 0.20274 0.21174
 C12 C 0.26229 0.20019 0.32566
 C13 C 0.28321 0.17904 0.34395
 C14 C 0.29940 0.15150 0.32664
 C15 C 0.29369 0.14493 0.29112
 C16 C 0.27308 0.16629 0.27281
 C17 C 0.29341 0.26416 0.27977
 C18 C 0.31653 0.27986 0.29901
 C19 C 0.31032 0.30649 0.32428
 C20 C 0.28052 0.31749 0.32973
 C21 C 0.25734 0.30131 0.31089
 C22 C 0.22622 0.30437 0.22578
 C23 C 0.20569 0.32462 0.20604
 C24 C 0.17482 0.31876 0.20997
 C25 C 0.16495 0.29301 0.23460
 C26 C 0.18547 0.27317 0.25469
 H27 H 0.19680 0.16724 0.29214
 H28 H 0.16159 0.13175 0.25779
 H29 H 0.19209 0.18779 0.16396
 H30 H 0.22686 0.22198 0.19873
 H31 H 0.24994 0.22117 0.33943
 H32 H 0.28633 0.18404 0.37160
 H33 H 0.26961 0.16121 0.24518
 H34 H 0.29877 0.24369 0.26037
 H35 H 0.33931 0.27103 0.29431
 H36 H 0.27493 0.33749 0.34947
 H37 H 0.23447 0.30932 0.31627
 H38 H 0.24990 0.30854 0.22154
 H39 H 0.21410 0.34372 0.18681
 H40 H 0.14129 0.28806 0.23812
 H41 H 0.17727 0.25356 0.27360
 H42 H 0.30564 0.12364 0.27730
 C43 C 0.75280 0.25084 0.23975
 C44 C 0.74795 0.28732 0.23564
 C45 C 0.76474 0.30876 0.20917
 C46 C 0.72667 0.30782 0.25814
 C47 C 0.73496 0.22872 0.26462
 C48 C 0.77592 0.23125 0.21903
 C49 C 0.78312 0.33735 0.22010
 C50 C 0.80174 0.35507 0.19618
 C51 C 0.80198 0.34475 0.16068
 C52 C 0.78264 0.31706 0.14962
 C53 C 0.76398 0.29941 0.17357
 C54 C 0.72883 0.30643 0.29481
 C55 C 0.70885 0.32613 0.31566
 C56 C 0.68648 0.34790 0.30016
 C57 C 0.68498 0.35012 0.26351
 C58 C 0.70484 0.33022 0.24269
 C59 C 0.70385 0.22588 0.26098
 C60 C 0.68723 0.20543 0.28500
 C61 C 0.70151 0.18762 0.31310
 C62 C 0.73261 0.19059 0.31664
 C63 C 0.74926 0.21054 0.29232
 C64 C 0.76759 0.20215 0.19750
 C65 C 0.78855 0.18558 0.17548
 C66 C 0.81836 0.19768 0.17486
 C67 C 0.82679 0.22623 0.19708
 C68 C 0.80587 0.24256 0.21931
 H69 H 0.78404 0.34483 0.24749
 H70 H 0.81670 0.37563 0.20607
 H71 H 0.78239 0.30856 0.12248
 H72 H 0.74966 0.27765 0.16460
 H73 H 0.74621 0.29039 0.30728
 H74 H 0.71145 0.32482 0.34380
 H75 H 0.70307 0.33209 0.21445
 H76 H 0.69249 0.23968 0.23966
 H77 H 0.66320 0.20433 0.28200
 H78 H 0.74405 0.17727 0.33818
 H79 H 0.77325 0.21248 0.29550
 H80 H 0.74458 0.19314 0.19683
 H81 H 0.78105 0.16424 0.15818
 H82 H 0.84959 0.23601 0.19710
 H83 H 0.81285 0.26463 0.23614
 H84 H 0.66820 0.36702 0.25095
 C85 C 0.74398 0.75656 0.76189
 C86 C 0.74534 0.71953 0.75861
 C87 C 0.72158 0.69866 0.74021
 C88 C 0.77112 0.69875 0.77328
 C89 C 0.76413 0.77623 0.78634
 C90 C 0.72357 0.77936 0.74012
 C91 C 0.69119 0.70643 0.74608
 C92 C 0.66906 0.68806 0.72750
 C93 C 0.67675 0.66059 0.70368
 C94 C 0.70706 0.65176 0.69870
 C95 C 0.72927 0.67067 0.71680
 C96 C 0.76644 0.66956 0.79645
 C97 C 0.79073 0.65258 0.81297
 C98 C 0.82006 0.66454 0.80639
 C99 C 0.82467 0.69274 0.78216
 C100 C 0.80050 0.70930 0.76535
 C101 C 0.78138 0.80540 0.77415
 C102 C 0.80113 0.82326 0.79651
 C103 C 0.80400 0.81240 0.83192
 C104 C 0.78616 0.78347 0.84405
 C105 C 0.76632 0.76580 0.82164
 C106 C 0.72279 0.77540 0.70356
 C107 C 0.70491 0.79838 0.68305
 C108 C 0.68754 0.82592 0.69877
 C109 C 0.68857 0.82994 0.73530
 C110 C 0.70638 0.80692 0.75577
 H111 H 0.68456 0.72706 0.76478
 H112 H 0.64584 0.69524 0.73182
 H113 H 0.71371 0.63114 0.68002
 H114 H 0.75250 0.66402 0.71190
 H115 H 0.74396 0.66095 0.80282
 H116 H 0.78637 0.63130 0.83196
 H117 H 0.80464 0.73126 0.74697
 H118 H 0.78001 0.81390 0.74700
 H119 H 0.81417 0.84500 0.78527
 H120 H 0.78754 0.77437 0.87104
 H121 H 0.75281 0.74372 0.83177
 H122 H 0.73655 0.75502 0.69082
 H123 H 0.70554 0.79505 0.65495
 H124 H 0.67563 0.85110 0.74806
 H125 H 0.70688 0.81072 0.78389
 H126 H 0.84705 0.70234 0.77660
 C127 C 0.24712 0.74671 0.73441
 C128 C 0.24608 0.78381 0.73133
 C129 C 0.26636 0.80351 0.70700
 C130 C 0.22539 0.80671 0.75247
 C131 C 0.22474 0.72587 0.75529
 C132 C 0.27103 0.72507 0.71685
 C133 C 0.28555 0.83036 0.71997
 C134 C 0.30601 0.84755 0.69780
 C135 C 0.30733 0.83852 0.66199
 C136 C 0.28753 0.81224 0.64900
 C137 C 0.26712 0.79503 0.67121
 C138 C 0.20757 0.83312 0.73590
 C139 C 0.18825 0.85511 0.75541
 C140 C 0.18624 0.85135 0.79203
 C141 C 0.20470 0.82515 0.80865
 C142 C 0.22413 0.80330 0.78904
 C143 C 0.19396 0.73261 0.75191
 C144 C 0.17336 0.71306 0.77200
 C145 C 0.18288 0.68527 0.79496
 C146 C 0.21378 0.67796 0.79761
 C147 C 0.23437 0.69813 0.77809
 C148 C 0.26343 0.69584 0.69506
 C149 C 0.28567 0.67605 0.67766
 C150 C 0.31595 0.68518 0.68186
 C151 C 0.32353 0.71410 0.70400
 C152 C 0.30133 0.73349 0.72181
 H153 H 0.28530 0.83720 0.74754
 H154 H 0.32110 0.86703 0.70925
 H155 H 0.28802 0.80473 0.62159
 H156 H 0.25221 0.77469 0.66063
 H157 H 0.20841 0.83648 0.70772
 H158 H 0.17463 0.87500 0.74163
 H159 H 0.23830 0.78376 0.80245
 H160 H 0.18581 0.75304 0.73372
 H161 H 0.14981 0.71940 0.76912
 H162 H 0.22255 0.65762 0.81540
 H163 H 0.25798 0.69233 0.78113
 H164 H 0.24021 0.68884 0.69096
 H165 H 0.27904 0.65438 0.66021
 H166 H 0.34671 0.72159 0.70766
 H167 H 0.30777 0.75536 0.73916
 H168 H 0.20478 0.82126 0.83666
 O169 O 1.02721 -0.04352 -0.00822
 O170 O 0.96579 0.00175 0.03779
 O171 O 0.96907 -0.04339 -0.01433
 O172 O 1.02398 0.00608 0.04040
 O173 O 1.02555 0.04960 0.00032
 O174 O 0.96972 0.00236 -0.05207
 O175 O 0.96743 0.04781 0.00043
 O176 O 1.02774 0.00013 -0.04821
 Cu177 Cu 0.99644 -0.02424 0.01779
 Cu178 Cu 0.99766 0.02943 -0.02875
 C179 C 1.03781 -0.02985 -0.03606
 C180 C 0.95628 0.03245 0.02736
 C181 C 0.96002 -0.02848 -0.04257
 C182 C 1.03420 0.03630 0.02922
 O183 O 0.52292 0.42654 0.50978
 O184 O 0.46409 0.47211 0.56092
 O185 O 0.46524 0.43286 0.50412
 O186 O 0.52235 0.46717 0.56534
 O187 O 0.52735 0.51645 0.53252
 O188 O 0.46952 0.48312 0.47254
 O189 O 0.46972 0.52208 0.52922
 O190 O 0.52752 0.47559 0.47656
 Cu191 Cu 0.49312 0.44473 0.53834
 Cu192 Cu 0.49909 0.50423 0.49938
 C193 C 0.53510 0.44314 0.48438
 C194 C 0.45700 0.50486 0.55397
 C195 C 0.45759 0.45234 0.47800
 C196 C 0.53454 0.49775 0.55927
 O197 O 0.04520 0.49138 -0.04597
 O198 O -0.01550 0.45974 0.01204
 O199 O -0.01323 0.49052 -0.04876
 O200 O 0.04248 0.45843 0.01512
 O201 O 0.04273 0.51261 0.04009
 O202 O -0.01469 0.54407 -0.02256
 O203 O -0.01559 0.51311 0.03862
 O204 O 0.04313 0.54550 -0.02096
 Cu205 Cu 0.01506 0.46962 -0.01952
 Cu206 Cu 0.01396 0.53419 0.01144
 C207 C 0.05401 0.52416 -0.04378
 C208 C -0.02593 0.48121 0.03512
 C209 C -0.02379 0.52253 -0.04623
 C210 C 0.05191 0.47985 0.03865
 O211 O 0.49124 1.05592 0.49552
 O212 O 0.54911 0.99625 0.53387
 O213 O 0.54793 1.04482 0.48325
 O214 O 0.49264 1.00790 0.54540
 O215 O 0.48162 0.96445 0.50773
 O216 O 0.53598 1.00222 0.44511
 O217 O 0.53819 0.95346 0.49550
 O218 O 0.47961 1.01247 0.45812
 Cu219 Cu 0.52158 1.03055 0.51826
 Cu220 Cu 0.50790 0.97878 0.47277
 C221 C 0.47530 1.04411 0.47057
 C222 C 0.55323 0.96454 0.52150
 C223 C 0.55100 1.03015 0.45336
 C224 C 0.47760 0.98001 0.53704
 C225 C 1.15359 0.13564 0.18981
 C226 C 1.14837 0.13762 0.15368
 C227 C 1.12685 0.11383 0.13585
 N228 N 1.12103 0.11937 0.10142
 N229 N 1.10158 0.09841 0.08464
 C230 C 1.08723 0.07099 0.10159
 N231 N 1.09317 0.06523 0.13603
 N232 N 1.11261 0.08631 0.15288
 C233 C 1.06535 0.04818 0.08306
 C234 C 1.05646 0.05690 0.04910
 H235 H 1.15956 0.15728 0.13727
 H236 H 1.05561 0.02505 0.09648
 H237 H 1.14058 0.11583 0.20439
 H238 H 1.06567 0.08082 0.03643
 C239 C 0.65286 0.64324 0.68302
 C240 C 0.65450 0.60741 0.67109
 C241 C 0.63092 0.59186 0.64892
 N242 N 0.62903 0.55525 0.64454
 N243 N 0.60800 0.54106 0.62404
 C244 C 0.58829 0.56304 0.60693
 N245 N 0.59035 0.59962 0.61110
 N246 N 0.61119 0.61377 0.63181
 C247 C 0.56548 0.54817 0.58337
 C248 C 0.55729 0.51158 0.58356
 H249 H 0.67301 0.59009 0.67882
 H250 H 0.55410 0.56702 0.56595
 H251 H 0.63272 0.65894 0.67810
 H252 H 0.56697 0.49303 0.60258
 C253 C -0.17651 0.36018 0.13516
 C254 C -0.16081 0.39245 0.14056
 C255 C -0.13662 0.40425 0.11707
 N256 N -0.12224 0.43602 0.12335
 N257 N -0.09960 0.44652 0.10308
 C258 C -0.09041 0.42556 0.07583
 N259 N -0.10481 0.39380 0.06952
 N260 N -0.12748 0.38331 0.08978
 C261 C -0.06526 0.43661 0.05342
 C262 C -0.05044 0.46954 0.05813
 H263 H -0.16585 0.40954 0.16282
 H264 H -0.05851 0.41854 0.03244
 H265 H -0.17250 0.34503 0.11129
 H266 H -0.05752 0.48791 0.07870
 C267 C 0.32963 0.85454 0.63768
 C268 C 0.34729 0.88473 0.64548
 C269 C 0.37040 0.89820 0.62129
 N270 N 0.38725 0.92732 0.63034
 N271 N 0.40852 0.93960 0.60896
 C272 C 0.41374 0.92316 0.57771
 N273 N 0.39687 0.89407 0.56864
 N274 N 0.37562 0.88178 0.59004
 C275 C 0.43703 0.93642 0.55370
 C276 C 0.45513 0.96605 0.56173
 H277 H 0.34442 0.89924 0.66983
 H278 H 0.43978 0.92262 0.52886
 H279 H 0.33225 0.84182 0.61229
 H280 H 0.45245 0.97991 0.58654
 C281 C -0.15398 0.65031 -0.17388
 C282 C -0.15271 0.61544 -0.15936
 C283 C -0.12724 0.60366 -0.13771
 N284 N -0.12311 0.56782 -0.13026
 N285 N -0.10038 0.55701 -0.11017
 C286 C -0.08110 0.58170 -0.09656
 N287 N -0.08537 0.61755 -0.10380
 N288 N -0.10795 0.62832 -0.12409
 C289 C -0.05642 0.57038 -0.07352
 C290 C -0.04723 0.53418 -0.07080
 H291 H -0.17035 0.59610 -0.16447
 H292 H -0.04499 0.59116 -0.05864
 H293 H -0.13473 0.66791 -0.17132
 H294 H -0.05743 0.51371 -0.08724
 C295 C 0.32207 1.12875 0.34456
 C296 C 0.33817 1.14021 0.37378
 C297 C 0.36242 1.11788 0.38874
 N298 N 0.37939 1.13110 0.41522
 N299 N 0.40178 1.11135 0.42846
 C300 C 0.40801 1.07765 0.41567
 N301 N 0.39097 1.06441 0.38932
 N302 N 0.36863 1.08415 0.37608
 C303 C 0.43260 1.05535 0.42975
 C304 C 0.45142 1.06744 0.45630
 H305 H 0.33408 1.16682 0.38495
 H306 H 0.43586 1.02841 0.41884
 H307 H 0.32790 1.10294 0.33260
 H308 H 0.44832 1.09436 0.46729
 C309 C 1.16594 -0.12608 -0.18979
 C310 C 1.16010 -0.12798 -0.15382
 C311 C 1.13776 -0.10443 -0.13668
 N312 N 1.13071 -0.11033 -0.10260
 N313 N 1.11018 -0.08988 -0.08670
 C314 C 1.09595 -0.06261 -0.10422
 N315 N 1.10317 -0.05645 -0.13826
 N316 N 1.12367 -0.07702 -0.15422
 C317 C 1.07268 -0.04049 -0.08694
 C318 C 1.06201 -0.04969 -0.05379
 H319 H 1.17105 -0.14787 -0.13732
 H320 H 1.06309 -0.01755 -0.10095
 H321 H 1.15337 -0.10620 -0.20490
 H322 H 1.07104 -0.07343 -0.04050
 C323 C 0.66494 0.36928 0.32130
 C324 C 0.65671 0.35960 0.35532
 C325 C 0.63457 0.38051 0.37557
 N326 N 0.62505 0.36761 0.40696
 N327 N 0.60484 0.38596 0.42558
 C328 C 0.59344 0.41801 0.41356
 N329 N 0.60309 0.43106 0.38225
 N330 N 0.62326 0.41263 0.36357
 C331 C 0.57087 0.43832 0.43378
 C332 C 0.55822 0.42394 0.46416
 H333 H 0.66574 0.33512 0.36720
 H334 H 0.56360 0.46470 0.42414
 H335 H 0.65393 0.39228 0.30888
 H336 H 0.56499 0.39714 0.47322
 C337 C 0.82402 -0.17116 -0.14447
 C338 C 0.84213 -0.14125 -0.15237
 C339 C 0.86323 -0.12561 -0.12710
 N340 N 0.87849 -0.09513 -0.13597
 N341 N 0.89786 -0.08042 -0.11379
 C342 C 0.90284 -0.09565 -0.08185
 N343 N 0.88765 -0.12627 -0.07294
 N344 N 0.86817 -0.14098 -0.09516
 C345 C 0.92434 -0.07928 -0.05735
 C346 C 0.93823 -0.04638 -0.06538
 H347 H 0.84101 -0.12788 -0.17753
 H348 H 0.92908 -0.09298 -0.03279
 H349 H 0.82544 -0.18232 -0.11819
 H350 H 0.93278 -0.03260 -0.08970
 C351 C 0.33502 0.32056 0.34597
 C352 C 0.33487 0.35534 0.36053
 C353 C 0.35884 0.36774 0.38390
 N354 N 0.36185 0.40375 0.39092
 N355 N 0.38317 0.41527 0.41249
 C356 C 0.40209 0.39116 0.42811
 N357 N 0.39891 0.35512 0.42134
 N358 N 0.37775 0.34363 0.39954
 C359 C 0.42543 0.40346 0.45240
 C360 C 0.43446 0.43969 0.45368
 H361 H 0.31716 0.37438 0.35399
 H362 H 0.43640 0.38334 0.46883
 H363 H 0.35443 0.30322 0.34977
 H364 H 0.42497 0.45930 0.43551
 C365 C 0.16128 0.66669 -0.18506
 C366 C 0.16672 0.63499 -0.16554
 C367 C 0.14367 0.61897 -0.14276
 N368 N 0.14647 0.58405 -0.13132
 N369 N 0.12611 0.56961 -0.10993
 C370 C 0.10237 0.58975 -0.09894
 N371 N 0.09970 0.62472 -0.11017
 N372 N 0.11989 0.63903 -0.13178
 C373 C 0.08014 0.57488 -0.07447
 C374 C 0.07690 0.53766 -0.06819
 H375 H 0.18773 0.62052 -0.16758
 H376 H 0.06504 0.59395 -0.06190
 H377 H 0.13857 0.67715 -0.18540
 H378 H 0.09026 0.51816 -0.08267
 C379 C 0.68451 1.16702 0.33977
 C380 C 0.65823 1.14841 0.33211
 C381 C 0.64133 1.12853 0.35912
 N382 N 0.61940 1.10518 0.34959
 N383 N 0.60355 1.08747 0.37376
 C384 C 0.60893 1.09263 0.40839
 N385 N 0.63076 1.11613 0.41793
 N386 N 0.64675 1.13365 0.39376
 C387 C 0.59084 1.07434 0.43538
 C388 C 0.57148 1.04593 0.42733
 H389 H 0.65022 1.14735 0.30539
 H390 H 0.59262 1.08371 0.46216
 H391 H 0.69385 1.16489 0.36587
 H392 H 0.57082 1.03533 0.40090
 C393 C 0.15262 0.33705 0.18715
 C394 C 0.15726 0.37102 0.17157
 C395 C 0.13598 0.38651 0.14611
 N396 N 0.13786 0.42209 0.13654
 N397 N 0.11916 0.43608 0.11281
 C398 C 0.09809 0.41485 0.09756
 N399 N 0.09636 0.37925 0.10698
 N400 N 0.11488 0.36536 0.13087
 C401 C 0.07763 0.42934 0.07076
 C402 C 0.07349 0.46654 0.06485
 H403 H 0.17676 0.38685 0.17832
 H404 H 0.06446 0.40995 0.05610
 H405 H 0.13156 0.32331 0.18279
 H406 H 0.08502 0.48619 0.08098
 C407 C 0.66920 0.85195 0.67812
 C408 C 0.65998 0.84585 0.64371
 C409 C 0.64195 0.87275 0.62422
 N410 N 0.63135 0.86449 0.59193
 N411 N 0.61474 0.88843 0.57415
 C412 C 0.60823 0.92160 0.58796
 N413 N 0.61899 0.92994 0.62014
 N414 N 0.63554 0.90598 0.63794
 C415 C 0.58917 0.94799 0.56926
 C416 C 0.57511 0.93970 0.53773
 H417 H 0.66522 0.82044 0.63081
 H418 H 0.58496 0.97406 0.58158
 H419 H 0.66192 0.87668 0.69105
 H420 H 0.57882 0.91340 0.52567
 C421 C 0.84075 0.18221 0.15045
 C422 C 0.83901 0.14683 0.13744
 C423 C 0.86135 0.13177 0.11312
 N424 N 0.86191 0.09544 0.10690
 N425 N 0.88215 0.08112 0.08532
 C426 C 0.90246 0.10264 0.06887
 N427 N 0.90166 0.13909 0.07470
 N428 N 0.88151 0.15340 0.09651
 C429 C 0.92550 0.08668 0.04590
 C430 C 0.93192 0.04955 0.04724
 H431 H 0.82154 0.12880 0.14650
 H432 H 0.93879 0.10453 0.02954
 H433 H 0.85993 0.19873 0.14367
 H434 H 0.91990 0.03241 0.06557
 C435 C 0.33993 0.66616 0.66242
 C436 C 0.33798 0.62977 0.65235
 C437 C 0.36183 0.61177 0.63219
 N438 N 0.36205 0.57497 0.62890
 N439 N 0.38339 0.55836 0.61045
 C440 C 0.40516 0.57798 0.59440
 N441 N 0.40480 0.61479 0.59746
 N442 N 0.38358 0.63139 0.61610
 C443 C 0.42865 0.56013 0.57356
 C444 C 0.43359 0.52264 0.57494
 H445 H 0.31896 0.61360 0.66034
 H446 H 0.44290 0.57708 0.55743
 H447 H 0.36038 0.68094 0.65720
 H448 H 0.42049 0.50590 0.59256
   
