data_POSCAR
  _audit_creation_date              2014-09-24
  _audit_creation_method            'ToBaCCo'
  _symmetry_space_group_name_H-M    'P1'
  _symmetry_Int_Tables_number       1
  _symmetry_cell_setting            triclinic
  loop_
  _symmetry_equiv_pos_as_xyz
 x,y,z
_cell_length_a 46.6504
_cell_length_b 47.1207
_cell_length_c 32.4080
_cell_angle_alpha 89.818200
_cell_angle_beta 90.099900
_cell_angle_gamma 89.983800
loop_
  _atom_site_label
  _atom_site_type_symbol
  _atom_site_fract_x
  _atom_site_fract_y
  _atom_site_fract_z
Si1 Si 1.24905 0.25202 0.24484
 Si2 Si 0.74934 -0.25139 0.25389
 Si3 Si 0.74941 0.25251 -0.25521
 Si4 Si 1.24924 -0.25165 -0.24696
 Si5 Si 0.25033 0.25144 0.75448
 Si6 Si 0.75027 0.74703 0.74412
 Si7 Si 0.75056 0.25138 0.25384
 Si8 Si 0.25059 0.74864 0.24448
 O9 O 1.04941 -0.04066 0.07278
 O10 O 1.02359 -0.07287 0.03475
 C11 C 1.04287 -0.06639 0.06224
 O12 O 0.94497 0.03741 0.06982
 O13 O 0.97170 0.06994 0.03359
 C14 C 0.95142 0.06320 0.05936
 O15 O 0.94868 -0.04087 0.07506
 O16 O 0.97368 -0.07298 0.03584
 C17 C 0.95513 -0.06655 0.06426
 O18 O 1.05213 0.03770 0.06773
 O19 O 1.02446 0.07008 0.03252
 C20 C 1.04526 0.06345 0.05757
 Zr21 Zr 1.03410 -0.00140 0.05063
 O22 O 1.02929 -0.00050 0.11544
 O23 O 1.07924 -0.00206 0.05667
 Zr24 Zr 0.96304 -0.00157 0.05216
 O25 O 0.96931 -0.00048 0.11673
 O26 O 0.91808 -0.00266 0.06020
 O27 O 0.99874 -0.02741 0.05934
 O28 O 0.99857 0.02404 0.05883
 O29 O 1.04980 0.03805 -0.07300
 O30 O 1.02362 0.07020 -0.03553
 C31 C 1.04349 0.06372 -0.06201
 O32 O 0.94706 -0.04067 -0.07466
 O33 O 0.97300 -0.07290 -0.03657
 C34 C 0.95384 -0.06639 -0.06424
 O35 O 0.94421 0.03780 -0.07062
 O36 O 0.97121 0.07012 -0.03459
 C37 C 0.95073 0.06353 -0.06015
 O38 O 1.04731 -0.04048 -0.07681
 O39 O 1.02243 -0.07277 -0.03752
 C40 C 1.04094 -0.06621 -0.06594
 Zr41 Zr 1.03309 -0.00123 -0.05357
 O42 O 1.03086 0.00218 -0.11870
 O43 O 1.07837 -0.00382 -0.05591
 Zr44 Zr 0.96158 -0.00140 -0.05197
 O45 O 0.96220 0.00204 -0.11716
 O46 O 0.91629 -0.00427 -0.05226
 Zr47 Zr 0.99809 -0.04444 -0.00084
 Zr48 Zr 0.99782 0.04163 -0.00086
 O49 O 0.99718 0.02389 -0.06033
 O50 O 0.99732 -0.02703 -0.06094
 O51 O 1.03935 0.02386 -0.00164
 O52 O 0.95690 -0.02621 0.00020
 O53 O 1.03916 -0.02598 -0.00160
 O54 O 0.95640 0.02366 0.00016
 H55 H 0.99878 0.03727 0.08256
 H56 H 0.93986 -0.03873 0.00047
 H57 H 0.99687 0.03696 -0.08435
 H58 H 1.05629 -0.03840 -0.00210
 H59 H 0.90957 -0.00673 0.03294
 H60 H 0.90895 0.01010 -0.03273
 H61 H 0.97193 -0.01498 -0.12816
 H62 H 1.02110 -0.01497 -0.12925
 H63 H 1.08607 0.01046 -0.03651
 H64 H 1.08713 -0.00645 0.02917
 H65 H 1.04895 0.00047 0.12695
 H66 H 0.94991 0.00035 0.12907
 O67 O 1.04269 0.54810 0.57493
 O68 O 1.07524 0.52443 0.53454
 C69 C 1.06864 0.54218 0.56361
 O70 O 0.96433 0.44524 0.56408
 O71 O 0.93138 0.47307 0.53011
 C72 C 0.93829 0.45194 0.55408
 O73 O 1.04340 0.44950 0.56982
 O74 O 1.07576 0.47511 0.53141
 C75 C 1.06930 0.45610 0.55905
 O76 O 0.96349 0.55120 0.56999
 O77 O 0.93103 0.52529 0.53238
 C78 C 0.93759 0.54500 0.55872
 Zr79 Zr 1.00310 0.53437 0.55127
 O80 O 1.00170 0.52826 0.61587
 O81 O 1.00563 0.57895 0.55808
 Zr82 Zr 1.00357 0.46411 0.54815
 O83 O 1.00225 0.46824 0.61303
 O84 O 1.00525 0.41942 0.55366
 O85 O 1.02948 0.49919 0.55762
 O86 O 0.97754 0.49888 0.55716
 O87 O 0.96336 0.55454 0.42997
 O88 O 0.93093 0.52677 0.46484
 C89 C 0.93748 0.54775 0.44048
 O90 O 1.04306 0.45336 0.41978
 O91 O 1.07543 0.47736 0.46018
 C92 C 1.06896 0.45960 0.43104
 O93 O 0.96387 0.44961 0.42433
 O94 O 0.93125 0.47485 0.46248
 C95 C 0.93794 0.45541 0.43582
 O96 O 1.04262 0.55180 0.42484
 O97 O 1.07532 0.52665 0.46343
 C98 C 1.06862 0.54565 0.43585
 Zr99 Zr 1.00304 0.53686 0.44691
 O100 O 1.00134 0.53408 0.38189
 O101 O 1.00557 0.58166 0.44423
 Zr102 Zr 1.00337 0.46636 0.44382
 O103 O 1.00016 0.46930 0.37875
 O104 O 1.00658 0.42161 0.44032
 Zr105 Zr 1.04659 0.50069 0.49743
 Zr106 Zr 0.95986 0.50017 0.49749
 O107 O 0.97758 0.50170 0.43789
 O108 O 1.02925 0.50198 0.43734
 O109 O 0.97772 0.54129 0.49933
 O110 O 1.02835 0.45987 0.49568
 O111 O 1.02782 0.54128 0.49937
 O112 O 0.97821 0.45927 0.49571
 H113 H 0.96414 0.49818 0.58085
 H114 H 1.04101 0.44301 0.49472
 H115 H 0.96428 0.50223 0.41401
 H116 H 1.04007 0.55843 0.50025
 H117 H 1.00775 0.41187 0.52552
 H118 H 0.99216 0.41353 0.45938
 H119 H 1.01578 0.48186 0.36906
 H120 H 1.00104 0.55389 0.37155
 H121 H 0.99389 0.58909 0.46721
 H122 H 0.99382 0.58746 0.53592
 H123 H 1.00119 0.54748 0.62814
 H124 H 1.00155 0.44866 0.62417
 O125 O 0.54832 -0.04067 0.57269
 O126 O 0.52315 -0.07269 0.53337
 C127 C 0.54202 -0.06633 0.56149
 O128 O 0.44442 0.03799 0.56877
 O129 O 0.47153 0.07047 0.53304
 C130 C 0.45107 0.06377 0.55854
 O131 O 0.44777 -0.04026 0.57394
 O132 O 0.47290 -0.07240 0.53498
 C133 C 0.45419 -0.06595 0.56316
 O134 O 0.55175 0.03782 0.56803
 O135 O 0.52442 0.07035 0.53255
 C136 C 0.54510 0.06361 0.55777
 Zr137 Zr 0.53346 -0.00118 0.55077
 O138 O 0.52822 -0.00026 0.61550
 O139 O 0.57853 -0.00227 0.55762
 Zr140 Zr 0.46245 -0.00100 0.55129
 O141 O 0.46832 0.00005 0.61594
 O142 O 0.41746 -0.00214 0.55878
 O143 O 0.49796 -0.02705 0.55891
 O144 O 0.49803 0.02446 0.55850
 O145 O 0.55016 0.03838 0.42740
 O146 O 0.52386 0.07059 0.46456
 C147 C 0.54389 0.06406 0.43837
 O148 O 0.44697 -0.04018 0.42452
 O149 O 0.47212 -0.07246 0.46363
 C150 C 0.45329 -0.06593 0.43548
 O151 O 0.44462 0.03847 0.42825
 O152 O 0.47141 0.07066 0.46486
 C153 C 0.45112 0.06415 0.43897
 O154 O 0.54731 -0.04010 0.42323
 O155 O 0.52204 -0.07231 0.46211
 C156 C 0.54075 -0.06581 0.43394
 Zr157 Zr 0.53311 -0.00085 0.44641
 O158 O 0.53122 0.00269 0.38127
 O159 O 0.57839 -0.00366 0.44446
 Zr160 Zr 0.46169 -0.00082 0.44694
 O161 O 0.46321 0.00257 0.38177
 O162 O 0.41640 -0.00346 0.44528
 Zr163 Zr 0.49761 -0.04392 0.49863
 Zr164 Zr 0.49773 0.04208 0.49881
 O165 O 0.49739 0.02443 0.43925
 O166 O 0.49733 -0.02660 0.43849
 O167 O 0.53917 0.02409 0.49856
 O168 O 0.45651 -0.02549 0.49917
 O169 O 0.53877 -0.02562 0.49844
 O170 O 0.45624 0.02422 0.49915
 H171 H 0.49817 0.03768 0.58223
 H172 H 0.43932 -0.03782 0.49936
 H173 H 0.49731 0.03754 0.41527
 H174 H 0.55590 -0.03802 0.49804
 H175 H 0.40910 -0.00436 0.53097
 H176 H 0.40886 0.01077 0.46485
 H177 H 0.47204 -0.01499 0.37096
 H178 H 0.52140 -0.01438 0.37057
 H179 H 0.58608 0.01053 0.46401
 H180 H 0.58661 -0.00562 0.52993
 H181 H 0.54781 0.00041 0.62729
 H182 H 0.44885 0.00091 0.62803
 O183 O 0.54173 0.55040 0.07433
 O184 O 0.57412 0.52490 0.03608
 C185 C 0.56764 0.54373 0.06376
 O186 O 0.46231 0.44798 0.07089
 O187 O 0.42968 0.47489 0.03477
 C188 C 0.43636 0.45453 0.06019
 O189 O 0.54150 0.45121 0.07598
 O190 O 0.57407 0.47545 0.03607
 C191 C 0.56746 0.45719 0.06467
 O192 O 0.46276 0.55470 0.06825
 O193 O 0.42987 0.52731 0.03373
 C194 C 0.43672 0.54817 0.05805
 Zr195 Zr 0.50203 0.53602 0.05205
 O196 O 0.50056 0.53110 0.11684
 O197 O 0.50367 0.58064 0.05837
 Zr198 Zr 0.50176 0.46573 0.05353
 O199 O 0.50060 0.47169 0.11809
 O200 O 0.50273 0.42121 0.06177
 O201 O 0.52806 0.50081 0.06078
 O202 O 0.47606 0.50106 0.06027
 O203 O 0.46240 0.55246 -0.07109
 O204 O 0.42976 0.52646 -0.03384
 C205 C 0.43647 0.54639 -0.05989
 O206 O 0.54109 0.45059 -0.07394
 O207 O 0.57378 0.47543 -0.03520
 C208 C 0.56708 0.45688 -0.06322
 O209 O 0.46196 0.44798 -0.06931
 O210 O 0.42951 0.47462 -0.03290
 C211 C 0.43607 0.45439 -0.05839
 O212 O 0.54160 0.54889 -0.07592
 O213 O 0.57401 0.52427 -0.03613
 C214 C 0.56752 0.54252 -0.06482
 Zr215 Zr 0.50198 0.53535 -0.05229
 O216 O 0.50030 0.53115 -0.11716
 O217 O 0.50484 0.58012 -0.05625
 Zr218 Zr 0.50159 0.46477 -0.05072
 O219 O 0.49852 0.46562 -0.11593
 O220 O 0.50424 0.41991 -0.05108
 Zr221 Zr 0.54521 0.50028 0.00056
 Zr222 Zr 0.45841 0.50069 0.00057
 O223 O 0.47620 0.50016 -0.05901
 O224 O 0.52778 0.49989 -0.05949
 O225 O 0.47674 0.54162 -0.00030
 O226 O 0.52652 0.45964 0.00144
 O227 O 0.52692 0.54107 -0.00025
 O228 O 0.47631 0.45956 0.00149
 H229 H 0.46259 0.50134 0.08390
 H230 H 0.53898 0.44262 0.00150
 H231 H 0.46298 0.50006 -0.08299
 H232 H 0.53958 0.55795 -0.00074
 H233 H 0.50588 0.41281 0.03427
 H234 H 0.48961 0.41263 -0.03168
 H235 H 0.51392 0.47818 -0.12633
 H236 H 0.50019 0.55072 -0.12846
 H237 H 0.49127 0.58805 -0.03588
 H238 H 0.50608 0.58856 0.03036
 H239 H 0.49979 0.55054 0.12832
 H240 H 0.49980 0.45244 0.13040
 C241 C 1.18414 0.19691 0.17664
 N242 N 1.18447 0.22545 0.17055
 N243 N 1.20392 0.24158 0.18958
 C244 C 1.22369 0.22972 0.21520
 N245 N 1.22344 0.20126 0.22095
 N246 N 1.20408 0.18516 0.20201
 C247 C 1.16225 0.17866 0.15766
 N248 N 1.16198 0.15060 0.16688
 N249 N 1.14217 0.13361 0.15092
 C250 C 1.12176 0.14391 0.12506
 N251 N 1.12193 0.17204 0.11559
 N252 N 1.14183 0.18916 0.13173
 C253 C 1.10044 0.12417 0.10793
 N254 N 1.08027 0.13234 0.07987
 N255 N 1.06199 0.11336 0.06407
 C256 C 1.06331 0.08567 0.07595
 N257 N 1.08330 0.07781 0.10416
 N258 N 1.10142 0.09662 0.11983
 C259 C 1.19782 0.68374 0.68070
 N260 N 1.22687 0.68396 0.67789
 N261 N 1.24211 0.70374 0.69749
 C262 C 1.22877 0.72398 0.72018
 N263 N 1.19981 0.72402 0.72233
 N264 N 1.18461 0.70427 0.70294
 C265 C 1.18063 0.66078 0.66296
 N266 N 1.15267 0.65853 0.67364
 N267 N 1.13669 0.63744 0.65927
 C268 C 1.14797 0.61777 0.63355
 N269 N 1.17599 0.61998 0.62254
 N270 N 1.19213 0.64107 0.63726
 C271 C 1.12923 0.59541 0.61750
 N272 N 1.13708 0.57837 0.58565
 N273 N 1.11831 0.56017 0.56926
 C274 C 1.09120 0.55838 0.58442
 N275 N 1.08378 0.57498 0.61675
 N276 N 1.10239 0.59308 0.63297
 C277 C 0.68434 0.19720 0.67680
 N278 N 0.68452 0.22576 0.67087
 N279 N 0.70399 0.24195 0.68981
 C280 C 0.72395 0.23013 0.71518
 N281 N 0.72383 0.20164 0.72076
 N282 N 0.70446 0.18549 0.70193
 C283 C 0.66244 0.17886 0.65783
 N284 N 0.66233 0.15076 0.66680
 N285 N 0.64254 0.13371 0.65083
 C286 C 0.62198 0.14400 0.62518
 N287 N 0.62200 0.17218 0.61597
 N288 N 0.64187 0.18934 0.63211
 C289 C 0.60063 0.12423 0.60803
 N290 N 0.58031 0.13246 0.58024
 N291 N 0.56196 0.11352 0.56447
 C292 C 0.56333 0.08578 0.57612
 N293 N 0.58348 0.07785 0.60406
 N294 N 0.60169 0.09662 0.61969
 C295 C 0.69802 0.68484 0.17983
 N296 N 0.68484 0.70577 0.20130
 N297 N 0.70007 0.72522 0.22126
 C298 C 0.72905 0.72446 0.22046
 N299 N 0.74240 0.70383 0.19852
 N300 N 0.72711 0.68433 0.17839
 C301 C 0.68064 0.66220 0.16161
 N302 N 0.69221 0.64173 0.13726
 N303 N 0.67585 0.62085 0.12239
 C304 C 0.64750 0.61966 0.13188
 N305 N 0.63614 0.64011 0.15619
 N306 N 0.65235 0.66097 0.17071
 C307 C 0.62854 0.59738 0.11611
 N308 N 0.60144 0.59598 0.13083
 N309 N 0.58271 0.57783 0.11505
 C310 C 0.59026 0.56024 0.08392
 N311 N 0.61761 0.56111 0.06949
 N312 N 0.63651 0.57938 0.08545
 C313 C 0.81581 -0.19748 0.18692
 N314 N 0.79616 -0.18539 0.21221
 N315 N 0.77613 -0.20107 0.23050
 C316 C 0.77493 -0.22943 0.22414
 N317 N 0.79446 -0.24162 0.19870
 N318 N 0.81451 -0.22590 0.18023
 C319 C 0.83857 -0.17985 0.16878
 N320 N 0.85745 -0.19036 0.14076
 N321 N 0.87801 -0.17385 0.12500
 C322 C 0.88049 -0.14635 0.13705
 N323 N 0.86167 -0.13603 0.16512
 N324 N 0.84114 -0.15242 0.18064
 C325 C 0.90222 -0.12716 0.11962
 N326 N 0.90399 -0.10034 0.13430
 N327 N 0.92179 -0.08167 0.11740
 C328 C 0.93872 -0.08900 0.08518
 N329 N 0.93743 -0.11604 0.07071
 N330 N 0.91949 -0.13485 0.08773
 C331 C 0.80385 0.31169 0.66664
 N332 N 0.77486 0.31428 0.66649
 N333 N 0.75868 0.29616 0.68794
 C334 C 0.77097 0.27491 0.71015
 N335 N 0.79984 0.27211 0.70985
 N336 N 0.81598 0.29013 0.68841
 C337 C 0.82232 0.33274 0.64641
 N338 N 0.85113 0.33035 0.65022
 N339 N 0.86838 0.35002 0.63455
 C340 C 0.85756 0.37292 0.61441
 N341 N 0.82867 0.37532 0.61011
 N342 N 0.81132 0.35556 0.62599
 C343 C 0.87746 0.39458 0.59890
 N344 N 0.86876 0.41686 0.57512
 N345 N 0.88782 0.43576 0.56107
 C346 C 0.91609 0.43302 0.57067
 N347 N 0.92448 0.41089 0.59462
 N348 N 0.90561 0.39210 0.60844
 C349 C 0.31495 -0.19741 0.68504
 N350 N 0.31395 -0.22588 0.67869
 N351 N 0.29409 -0.24172 0.69740
 C352 C 0.27447 -0.22960 0.72278
 N353 N 0.27536 -0.20119 0.72876
 N354 N 0.29518 -0.18540 0.71023
 C355 C 0.33754 -0.17964 0.66678
 N356 N 0.33971 -0.15209 0.67823
 N357 N 0.36015 -0.13558 0.66274
 C358 C 0.37927 -0.14589 0.63509
 N359 N 0.37718 -0.17350 0.62342
 N360 N 0.35671 -0.19014 0.63916
 C361 C 0.40097 -0.12660 0.61781
 N362 N 0.41863 -0.13433 0.58639
 N363 N 0.43663 -0.11548 0.56957
 C364 C 0.43759 -0.08837 0.58380
 N365 N 0.42025 -0.08100 0.61555
 N366 N 0.40239 -0.09969 0.63223
 C367 C 0.30334 0.31171 0.16776
 N368 N 0.31560 0.29050 0.19006
 N369 N 0.29953 0.27216 0.21099
 C370 C 0.27061 0.27432 0.21027
 N371 N 0.25820 0.29519 0.18744
 N372 N 0.27431 0.31360 0.16645
 C373 C 0.32159 0.33339 0.14874
 N374 N 0.31042 0.35551 0.12692
 N375 N 0.32747 0.37596 0.11231
 C376 C 0.35617 0.37502 0.11942
 N377 N 0.36717 0.35283 0.14097
 N378 N 0.35025 0.33243 0.15532
 C379 C 0.37566 0.39733 0.10509
 N380 N 0.40326 0.39663 0.11799
 N381 N 0.42201 0.41562 0.10447
 C382 C 0.41400 0.43620 0.07751
 N383 N 0.38623 0.43727 0.06474
 N384 N 0.36730 0.41817 0.07848
 C385 C 0.81300 0.19750 -0.18335
 N386 N 0.81380 0.22622 -0.17983
 N387 N 0.79474 0.24236 -0.19983
 C388 C 0.77419 0.23035 -0.22388
 N389 N 0.77330 0.20171 -0.22704
 N390 N 0.79229 0.18561 -0.20714
 C391 C 0.83455 0.17914 -0.16341
 N392 N 0.83385 0.15082 -0.17048
 N393 N 0.85338 0.13373 -0.15382
 C394 C 0.87448 0.14416 -0.12933
 N395 N 0.87525 0.17256 -0.12198
 N396 N 0.85564 0.18977 -0.13884
 C397 C 0.89564 0.12433 -0.11163
 N398 N 0.91621 0.13261 -0.08431
 N399 N 0.93440 0.11361 -0.06810
 C400 C 0.93264 0.08577 -0.07886
 N401 N 0.91224 0.07779 -0.10633
 N402 N 0.89419 0.09662 -0.12236
 C403 C 0.80253 0.68948 0.33383
 N404 N 0.77360 0.68638 0.33216
 N405 N 0.75767 0.70455 0.31033
 C406 C 0.77016 0.72633 0.28956
 N407 N 0.79893 0.72965 0.29177
 N408 N 0.81481 0.71160 0.31358
 C409 C 0.82089 0.66821 0.35372
 N410 N 0.84971 0.67090 0.35068
 N411 N 0.86696 0.65088 0.36543
 C412 C 0.85616 0.62735 0.38385
 N413 N 0.82727 0.62468 0.38751
 N414 N 0.80989 0.64477 0.37251
 C415 C 0.87610 0.60530 0.39794
 N416 N 0.86772 0.58293 0.42170
 N417 N 0.88694 0.56385 0.43483
 C418 C 0.91501 0.56647 0.42420
 N419 N 0.92306 0.58863 0.40013
 N420 N 0.90403 0.60762 0.38728
 C421 C 0.31260 0.19745 0.31708
 N422 N 0.31324 0.22617 0.32061
 N423 N 0.29412 0.24219 0.30054
 C424 C 0.27370 0.23004 0.27644
 N425 N 0.27295 0.20141 0.27330
 N426 N 0.29199 0.18543 0.29326
 C427 C 0.33430 0.17925 0.33683
 N428 N 0.33398 0.15099 0.32928
 N429 N 0.35374 0.13404 0.34566
 C430 C 0.37467 0.14458 0.37034
 N431 N 0.37505 0.17290 0.37821
 N432 N 0.35522 0.18998 0.36160
 C433 C 0.39604 0.12489 0.38770
 N434 N 0.41620 0.13309 0.41567
 N435 N 0.43447 0.11413 0.43175
 C436 C 0.43319 0.08642 0.42018
 N437 N 0.41322 0.07854 0.39202
 N438 N 0.39509 0.09733 0.37612
 C439 C 0.30305 0.68879 -0.16863
 N440 N 0.31534 0.71031 -0.19016
 N441 N 0.29934 0.72859 -0.21140
 C442 C 0.27045 0.72608 -0.21176
 N443 N 0.25798 0.70490 -0.18969
 N444 N 0.27403 0.68654 -0.16839
 C445 C 0.32134 0.66718 -0.14937
 N446 N 0.31021 0.64484 -0.12808
 N447 N 0.32734 0.62447 -0.11330
 C448 C 0.35609 0.62572 -0.11973
 N449 N 0.36705 0.64814 -0.14075
 N450 N 0.35005 0.66845 -0.15525
 C451 C 0.37568 0.60347 -0.10527
 N452 N 0.40330 0.60428 -0.11792
 N453 N 0.42210 0.58532 -0.10427
 C454 C 0.41412 0.56471 -0.07741
 N455 N 0.38633 0.56356 -0.06488
 N456 N 0.36735 0.58260 -0.07877
 C457 C 1.18162 -0.19721 -0.18378
 N458 N 1.18383 -0.22528 -0.17459
 N459 N 1.20422 -0.24111 -0.19195
 C460 C 1.22320 -0.22935 -0.21876
 N461 N 1.22110 -0.20133 -0.22760
 N462 N 1.20073 -0.18555 -0.21041
 C463 C 1.15854 -0.17956 -0.16671
 N464 N 1.15535 -0.15251 -0.18033
 N465 N 1.13457 -0.13612 -0.16565
 C466 C 1.11610 -0.14605 -0.13673
 N467 N 1.11918 -0.17317 -0.12297
 N468 N 1.14000 -0.18969 -0.13786
 C469 C 1.09420 -0.12683 -0.12000
 N470 N 1.07698 -0.13437 -0.08793
 N471 N 1.05890 -0.11555 -0.07142
 C472 C 1.05742 -0.08864 -0.08656
 N473 N 1.07430 -0.08144 -0.11896
 N474 N 1.09224 -0.10013 -0.13538
 C475 C 1.19737 0.31742 0.31503
 N476 N 1.18421 0.29732 0.29185
 N477 N 1.19939 0.27728 0.27310
 C478 C 1.22827 0.27660 0.27686
 N479 N 1.24153 0.29641 0.30048
 N480 N 1.22631 0.31646 0.31944
 C481 C 1.18038 0.34070 0.33220
 N482 N 1.19176 0.35980 0.35899
 N483 N 1.17585 0.38116 0.37336
 C484 C 1.14819 0.38425 0.36090
 N485 N 1.13702 0.36521 0.33405
 N486 N 1.15277 0.34386 0.32001
 C487 C 1.12962 0.40676 0.37686
 N488 N 1.10303 0.40975 0.36058
 N489 N 1.08444 0.42782 0.37687
 C490 C 1.09165 0.44375 0.41004
 N491 N 1.11853 0.44136 0.42596
 N492 N 1.13727 0.42317 0.40954
 C493 C 0.68143 -0.19692 0.31638
 N494 N 0.68358 -0.22500 0.32554
 N495 N 0.70403 -0.24083 0.30834
 C496 C 0.72314 -0.22908 0.28173
 N497 N 0.72110 -0.20104 0.27289
 N498 N 0.70067 -0.18526 0.28993
 C499 C 0.65832 -0.17926 0.33335
 N500 N 0.65518 -0.15221 0.31976
 N501 N 0.63439 -0.13580 0.33440
 C502 C 0.61586 -0.14574 0.36324
 N503 N 0.61889 -0.17287 0.37697
 N504 N 0.63972 -0.18940 0.36212
 C505 C 0.59396 -0.12650 0.37995
 N506 N 0.57669 -0.13403 0.41196
 N507 N 0.55861 -0.11520 0.42845
 C508 C 0.55721 -0.08827 0.41335
 N509 N 0.57414 -0.08108 0.38100
 N510 N 0.59207 -0.09979 0.36460
 C511 C 0.69708 0.31651 -0.18281
 N512 N 0.68413 0.29617 -0.20578
 N513 N 0.69954 0.27669 -0.22537
 C514 C 0.72850 0.27681 -0.22269
 N515 N 0.74158 0.29689 -0.19933
 N516 N 0.72612 0.31639 -0.17956
 C517 C 0.67964 0.33906 -0.16436
 N518 N 0.69106 0.35882 -0.13862
 N519 N 0.67470 0.37951 -0.12322
 C520 C 0.64649 0.38123 -0.13349
 N521 N 0.63527 0.36150 -0.15923
 N522 N 0.65148 0.34083 -0.17431
 C523 C 0.62754 0.40329 -0.11693
 N524 N 0.60037 0.40496 -0.13147
 N525 N 0.58178 0.42304 -0.11519
 C526 C 0.58953 0.44030 -0.08373
 N527 N 0.61694 0.43913 -0.06943
 N528 N 0.63569 0.42093 -0.08587
 C529 C 1.18411 0.19646 -0.17931
 N530 N 1.20398 0.18473 -0.20460
 N531 N 1.22379 0.20073 -0.22281
 C532 C 1.22456 0.22911 -0.21641
 N533 N 1.20484 0.24095 -0.19090
 N534 N 1.18498 0.22490 -0.17256
 C535 C 1.16167 0.17837 -0.16116
 N536 N 1.14188 0.18873 -0.13432
 N537 N 1.12156 0.17181 -0.11878
 C538 C 1.12028 0.14401 -0.12978
 N539 N 1.14005 0.13384 -0.15659
 N540 N 1.16030 0.15064 -0.17194
 C541 C 1.09857 0.12445 -0.11303
 N542 N 1.09819 0.09731 -0.12665
 N543 N 1.07996 0.07856 -0.11095
 C544 C 1.06119 0.08608 -0.08101
 N545 N 1.06119 0.11339 -0.06748
 N546 N 1.07957 0.13229 -0.08331
 C547 C 1.19961 0.68704 0.31855
 N548 N 1.22872 0.68602 0.31947
 N549 N 1.24417 0.70520 0.29883
 C550 C 1.23103 0.72608 0.27680
 N551 N 1.20203 0.72733 0.27653
 N552 N 1.18663 0.70820 0.29703
 C553 C 1.18195 0.66479 0.33762
 N554 N 1.15339 0.66450 0.33005
 N555 N 1.13692 0.64401 0.34522
 C556 C 1.14827 0.62294 0.36870
 N557 N 1.17690 0.62319 0.37668
 N558 N 1.19350 0.64373 0.36119
 C559 C 1.12910 0.60078 0.38475
 N560 N 1.13747 0.58170 0.41402
 N561 N 1.11867 0.56315 0.42970
 C562 C 1.09100 0.56303 0.41635
 N563 N 1.08302 0.58179 0.38669
 N564 N 1.10164 0.60022 0.37122
 C565 C 0.68518 0.19649 0.32189
 N566 N 0.70503 0.18469 0.29664
 N567 N 0.72465 0.20068 0.27799
 C568 C 0.72527 0.22910 0.28391
 N569 N 0.70561 0.24102 0.30945
 N570 N 0.68592 0.22498 0.32822
 C571 C 0.66282 0.17842 0.34028
 N572 N 0.64280 0.18890 0.36667
 N573 N 0.62245 0.17200 0.38220
 C574 C 0.62137 0.14412 0.37163
 N575 N 0.64139 0.13383 0.34529
 N576 N 0.66167 0.15060 0.32996
 C577 C 0.59955 0.12461 0.38819
 N578 N 0.59931 0.09742 0.37478
 N579 N 0.58091 0.07873 0.39022
 C580 C 0.56183 0.08635 0.41969
 N581 N 0.56171 0.11371 0.43303
 N582 N 0.58025 0.13256 0.41745
 C583 C 0.69802 0.68301 -0.18310
 N584 N 0.72706 0.68302 -0.17995
 N585 N 0.74254 0.70260 -0.19971
 C586 C 0.72945 0.72286 -0.22292
 N587 N 0.70049 0.72311 -0.22544
 N588 N 0.68507 0.70356 -0.20588
 C589 C 0.68057 0.66030 -0.16500
 N590 N 0.65252 0.65842 -0.17553
 N591 N 0.63631 0.63757 -0.16083
 C592 C 0.64743 0.61776 -0.13494
 N593 N 0.67552 0.61959 -0.12409
 N594 N 0.69189 0.64045 -0.13911
 C595 C 0.62845 0.59559 -0.11867
 N596 N 0.63629 0.57819 -0.08701
 N597 N 0.61740 0.56007 -0.07060
 C598 C 0.59017 0.55873 -0.08554
 N599 N 0.58274 0.57570 -0.11766
 N600 N 0.60147 0.59371 -0.13390
 C601 C 0.81558 -0.19849 -0.18735
 N602 N 0.79580 -0.18654 -0.21278
 N603 N 0.77615 -0.20241 -0.23152
 C604 C 0.77543 -0.23085 -0.22550
 N605 N 0.79507 -0.24292 -0.19988
 N606 N 0.81476 -0.22700 -0.18098
 C607 C 0.83795 -0.18057 -0.16875
 N608 N 0.85732 -0.19108 -0.14121
 N609 N 0.87756 -0.17431 -0.12519
 C610 C 0.87922 -0.14653 -0.13646
 N611 N 0.85990 -0.13623 -0.16401
 N612 N 0.83969 -0.15287 -0.17980
 C613 C 0.90072 -0.12711 -0.11894
 N614 N 0.90159 -0.09998 -0.13284
 N615 N 0.91936 -0.08125 -0.11610
 C616 C 0.93716 -0.08879 -0.08481
 N617 N 0.93674 -0.11610 -0.07108
 N618 N 0.91882 -0.13498 -0.08795
 C619 C 0.80528 0.31235 0.32807
 N620 N 0.81746 0.29131 0.30561
 N621 N 0.80131 0.27258 0.28562
 C622 C 0.77237 0.27416 0.28747
 N623 N 0.76005 0.29488 0.31045
 N624 N 0.77624 0.31366 0.33053
 C625 C 0.82353 0.33438 0.34627
 N626 N 0.81248 0.35580 0.36937
 N627 N 0.82944 0.37640 0.38365
 C628 C 0.85793 0.37634 0.37491
 N629 N 0.86881 0.35488 0.35199
 N630 N 0.85197 0.33431 0.33797
 C631 C 0.87733 0.39871 0.38942
 N632 N 0.90467 0.39890 0.37552
 N633 N 0.92338 0.41779 0.38946
 C634 C 0.91557 0.43737 0.41785
 N635 N 0.88803 0.43756 0.43159
 N636 N 0.86916 0.41857 0.41745
 C637 C 0.31543 -0.19812 0.31057
 N638 N 0.29703 -0.18644 0.28282
 N639 N 0.27720 -0.20220 0.26428
 C640 C 0.27478 -0.23026 0.27283
 N641 N 0.29316 -0.24207 0.30061
 N642 N 0.31306 -0.22625 0.31931
 C643 C 0.33782 -0.18025 0.32941
 N644 N 0.35605 -0.19038 0.35881
 N645 N 0.37616 -0.17361 0.37519
 C646 C 0.37883 -0.14619 0.36252
 N647 N 0.36066 -0.13626 0.33310
 N648 N 0.34060 -0.15291 0.31691
 C649 C 0.40015 -0.12669 0.38050
 N650 N 0.40154 -0.09971 0.36606
 N651 N 0.41924 -0.08096 0.38297
 C652 C 0.43648 -0.08834 0.41499
 N653 N 0.43552 -0.11550 0.42931
 N654 N 0.41766 -0.13438 0.41230
 C655 C 0.30370 0.31181 -0.16825
 N656 N 0.31623 0.29060 -0.18998
 N657 N 0.30042 0.27210 -0.21096
 C658 C 0.27148 0.27408 -0.21087
 N659 N 0.25879 0.29497 -0.18864
 N660 N 0.27464 0.31354 -0.16759
 C661 C 0.32174 0.33357 -0.14900
 N662 N 0.31037 0.35551 -0.12726
 N663 N 0.32726 0.37595 -0.11228
 C664 C 0.35601 0.37517 -0.11894
 N665 N 0.36719 0.35316 -0.14043
 N666 N 0.35043 0.33278 -0.15513
 C667 C 0.37541 0.39746 -0.10420
 N668 N 0.40300 0.39699 -0.11699
 N669 N 0.42170 0.41589 -0.10314
 C670 C 0.41368 0.43616 -0.07592
 N671 N 0.38590 0.43701 -0.06325
 N672 N 0.36701 0.41799 -0.07733
 C673 C 1.18431 -0.19805 0.18098
 N674 N 1.18725 -0.22592 0.17114
 N675 N 1.20763 -0.24171 0.18897
 C676 C 1.22593 -0.23012 0.21695
 N677 N 1.22295 -0.20231 0.22655
 N678 N 1.20265 -0.18659 0.20887
 C679 C 1.16133 -0.18029 0.16322
 N680 N 1.15807 -0.15328 0.17668
 N681 N 1.13747 -0.13675 0.16150
 C682 C 1.11918 -0.14650 0.13219
 N683 N 1.12233 -0.17359 0.11856
 N684 N 1.14300 -0.19024 0.13392
 C685 C 1.09728 -0.12711 0.11521
 N686 N 1.07956 -0.13464 0.08367
 N687 N 1.06123 -0.11580 0.06741
 C688 C 1.05999 -0.08885 0.08227
 N689 N 1.07745 -0.08165 0.11406
 N690 N 1.09561 -0.10035 0.13024
 C691 C 1.19878 0.31499 0.67947
 N692 N 1.18559 0.29463 0.70225
 N693 N 1.20080 0.27528 0.72267
 C694 C 1.22978 0.27556 0.72102
 N695 N 1.24311 0.29564 0.69784
 N696 N 1.22785 0.31503 0.67726
 C697 C 1.18150 0.33747 0.66035
 N698 N 1.19317 0.35741 0.63499
 N699 N 1.17694 0.37818 0.61924
 C700 C 1.14863 0.37977 0.62879
 N701 N 1.13717 0.35984 0.65409
 N702 N 1.15325 0.33911 0.66952
 C703 C 1.12980 0.40200 0.61222
 N704 N 1.10272 0.40374 0.62688
 N705 N 1.08416 0.42196 0.61071
 C706 C 1.09183 0.43932 0.57921
 N707 N 1.11917 0.43811 0.56478
 N708 N 1.13792 0.41975 0.58114
 C709 C 0.68339 -0.19819 0.67880
 N710 N 0.68512 -0.22640 0.67061
 N711 N 0.70528 -0.24235 0.68855
 C712 C 0.72450 -0.23060 0.71501
 N713 N 0.72288 -0.20243 0.72283
 N714 N 0.70276 -0.18653 0.70505
 C715 C 0.66050 -0.18034 0.66122
 N716 N 0.65788 -0.15309 0.67393
 N717 N 0.63721 -0.13653 0.65902
 C718 C 0.61829 -0.14649 0.63074
 N719 N 0.62082 -0.17381 0.61783
 N720 N 0.64152 -0.19049 0.63296
 C721 C 0.59632 -0.12714 0.61408
 N722 N 0.57854 -0.13463 0.58259
 N723 N 0.56022 -0.11576 0.56645
 C724 C 0.55905 -0.08884 0.58141
 N725 N 0.57653 -0.08170 0.61320
 N726 N 0.59470 -0.10043 0.62923
 C727 C 0.69767 0.31529 0.18148
 N728 N 0.68488 0.29491 0.20469
 N729 N 0.70045 0.27539 0.22420
 C730 C 0.72938 0.27551 0.22118
 N731 N 0.74228 0.29561 0.19754
 N732 N 0.72667 0.31516 0.17786
 C733 C 0.68013 0.33798 0.16336
 N734 N 0.69141 0.35786 0.13756
 N735 N 0.67503 0.37877 0.12259
 C736 C 0.64695 0.38060 0.13338
 N737 N 0.63586 0.36073 0.15915
 N738 N 0.65210 0.33985 0.17381
 C739 C 0.62801 0.40291 0.11730
 N740 N 0.60104 0.40477 0.13241
 N741 N 0.58242 0.42309 0.11651
 C742 C 0.58997 0.44040 0.08488
 N743 N 0.61718 0.43904 0.07003
 N744 N 0.63596 0.42060 0.08610
 C745 C 0.81378 0.19643 0.18218
 N746 N 0.81424 0.22513 0.17788
 N747 N 0.79524 0.24123 0.19781
 C748 C 0.77511 0.22920 0.22257
 N749 N 0.77456 0.20060 0.22652
 N750 N 0.79348 0.18453 0.20669
 C751 C 0.83529 0.17816 0.16234
 N752 N 0.83497 0.14989 0.17011
 N753 N 0.85453 0.13289 0.15354
 C754 C 0.87525 0.14339 0.12847
 N755 N 0.87564 0.17173 0.12043
 N756 N 0.85601 0.18884 0.13719
 C757 C 0.89642 0.12368 0.11084
 N758 N 0.91664 0.13204 0.08308
 N759 N 0.93482 0.11314 0.06689
 C760 C 0.93339 0.08533 0.07811
 N761 N 0.91335 0.07726 0.10602
 N762 N 0.89530 0.09599 0.12205
 C763 C 0.80425 0.68672 0.66791
 N764 N 0.81657 0.70799 0.68981
 N765 N 0.80057 0.72647 0.71041
 C766 C 0.77163 0.72444 0.70976
 N767 N 0.75915 0.70350 0.68734
 N768 N 0.77521 0.68494 0.66665
 C769 C 0.82250 0.66496 0.64912
 N770 N 0.81138 0.64316 0.62679
 N771 N 0.82843 0.62278 0.61212
 C772 C 0.85709 0.62345 0.61970
 N773 N 0.86803 0.64531 0.64182
 N774 N 0.85111 0.66564 0.65620
 C775 C 0.87663 0.60128 0.60505
 N776 N 0.90413 0.60160 0.61842
 N777 N 0.92295 0.58286 0.60447
 C778 C 0.91512 0.56294 0.57657
 N779 N 0.88744 0.56224 0.56334
 N780 N 0.86844 0.58108 0.57751
 C781 C 0.31423 0.19682 0.68353
 N782 N 0.29383 0.18480 0.70776
 N783 N 0.27480 0.20077 0.72753
 C784 C 0.27535 0.22940 0.72382
 N785 N 0.29561 0.24154 0.69941
 N786 N 0.31472 0.22553 0.67952
 C787 C 0.33572 0.17863 0.66349
 N788 N 0.35642 0.18941 0.63839
 N789 N 0.37594 0.17234 0.62128
 C790 C 0.37544 0.14395 0.62888
 N791 N 0.35474 0.13336 0.65391
 N792 N 0.33530 0.15031 0.67083
 C793 C 0.39645 0.12425 0.61084
 N794 N 0.39510 0.09649 0.62154
 N795 N 0.41301 0.07777 0.60520
 C796 C 0.43313 0.08590 0.57744
 N797 N 0.43478 0.11380 0.56670
 N798 N 0.41673 0.13269 0.58322
 C799 C 0.30282 0.68967 0.16823
 N800 N 0.31521 0.71163 0.18856
 N801 N 0.29937 0.72995 0.20977
 C802 C 0.27051 0.72710 0.21134
 N803 N 0.25794 0.70544 0.19046
 N804 N 0.27383 0.68702 0.16921
 C805 C 0.32110 0.66825 0.14849
 N806 N 0.30995 0.64526 0.12888
 N807 N 0.32719 0.62526 0.11347
 C808 C 0.35611 0.62756 0.11748
 N809 N 0.36707 0.65062 0.13683
 N810 N 0.34995 0.67054 0.15199
 C811 C 0.37592 0.60566 0.10246
 N812 N 0.40403 0.60784 0.11241
 N813 N 0.42286 0.58896 0.09883
 C814 C 0.41448 0.56703 0.07469
 N815 N 0.38625 0.56457 0.06471
 N816 N 0.36723 0.58355 0.07855
   
