data_POSCAR
  _audit_creation_date              2014-09-24
  _audit_creation_method            'ToBaCCo'
  _symmetry_space_group_name_H-M    'P1'
  _symmetry_Int_Tables_number       1
  _symmetry_cell_setting            triclinic
  loop_
  _symmetry_equiv_pos_as_xyz
 x,y,z
_cell_length_a 10.1749
_cell_length_b 10.2788
_cell_length_c 16.8634
_cell_angle_alpha 85.808800
_cell_angle_beta 88.858200
_cell_angle_gamma 82.267200
loop_
  _atom_site_label
  _atom_site_type_symbol
  _atom_site_fract_x
  _atom_site_fract_y
  _atom_site_fract_z
O1 O -0.04990 0.34050 1.07479
 O2 O -0.05844 0.62592 0.92626
 O3 O -0.06274 0.37042 0.91966
 O4 O -0.09848 0.59589 1.07942
 O5 O 0.11917 0.58684 1.08441
 O6 O 0.15577 0.35894 0.92284
 O7 O 0.16094 0.60529 0.92904
 O8 O 0.16905 0.32484 1.07519
 Cu9 Cu -0.08831 0.48407 0.99944
 Cu10 Cu 0.17048 0.46930 1.00527
 C11 C 0.06245 0.28377 1.09977
 C12 C 0.05163 0.66501 0.90292
 C13 C 0.05129 0.32586 0.89405
 C14 C 0.00332 0.63157 1.10867
 O15 O 0.33876 -0.06661 0.43068
 O16 O 0.61206 -0.12205 0.57305
 O17 O 0.35428 -0.09292 0.58405
 O18 O 0.59958 -0.08193 0.41835
 O19 O 0.58478 0.13366 0.42448
 O20 O 0.35530 0.12058 0.59309
 O21 O 0.60866 0.09297 0.57764
 O22 O 0.32754 0.14843 0.43873
 Cu23 Cu 0.47727 -0.11226 0.50044
 Cu24 Cu 0.46814 0.14516 0.50887
 C25 C 0.28466 0.04986 0.41167
 C26 C 0.65699 -0.02474 0.60013
 C27 C 0.31519 0.01300 0.61712
 C28 C 0.63364 0.02901 0.39363
 Si29 Si -0.01940 -0.03712 0.25759
 Si30 Si -0.03663 0.01032 0.75372
 C31 C -0.01721 -0.27178 0.16917
 C32 C 0.06016 -0.18132 0.19080
 H33 H 0.08161 -0.24233 0.16912
 H34 H 0.02497 -0.10006 0.22601
 C35 C 0.07157 0.16728 0.15640
 C36 C -0.03507 0.12542 0.19179
 H37 H 0.16895 0.11329 0.16867
 H38 H -0.13330 0.17852 0.18103
 C39 C 0.22139 0.01487 0.68408
 C40 C 0.10491 -0.02866 0.67898
 H41 H 0.24420 0.06537 0.73472
 H42 H 0.08276 -0.07890 0.62729
 C43 C -0.23982 -0.04907 0.65474
 C44 C -0.18569 0.04778 0.68536
 H45 H -0.20125 -0.15099 0.67215
 H46 H -0.21884 0.15033 0.66763
 C47 C 0.05562 -0.22520 0.84984
 C48 C -0.05300 -0.15036 0.82200
 H49 H 0.15188 -0.19687 0.83330
 H50 H -0.04472 -0.06854 0.78723
 C51 C 0.06345 0.23424 0.83081
 C52 C -0.03432 0.16326 0.81858
 H53 H 0.15318 0.22553 0.79563
 H54 H -0.02585 0.11412 0.76727
 C55 C -0.26999 0.04104 0.32830
 C56 C -0.19765 -0.06137 0.29783
 H57 H -0.25639 0.13983 0.30553
 H58 H -0.17169 -0.04955 0.23589
 C59 C 0.17097 0.07103 0.35757
 C60 C 0.10116 -0.02689 0.34678
 H61 H 0.14234 0.16785 0.32831
 H62 H 0.01161 0.00106 0.31825
   
