data_POSCAR
  _audit_creation_date              2014-09-24
  _audit_creation_method            'ToBaCCo'
  _symmetry_space_group_name_H-M    'P1'
  _symmetry_Int_Tables_number       1
  _symmetry_cell_setting            triclinic
  loop_
  _symmetry_equiv_pos_as_xyz
 x,y,z
_cell_length_a 36.6496
_cell_length_b 36.9111
_cell_length_c 36.9311
_cell_angle_alpha 89.338700
_cell_angle_beta 88.621300
_cell_angle_gamma 89.125800
loop_
  _atom_site_label
  _atom_site_type_symbol
  _atom_site_fract_x
  _atom_site_fract_y
  _atom_site_fract_z
C1 C 0.19103 0.53640 1.03351
 H2 H 0.19534 0.55663 1.01247
 C3 C 0.16099 0.53952 1.05721
 H4 H 0.14400 0.56354 1.05482
 C5 C 0.20962 0.48151 1.06173
 H6 H 0.22817 0.45850 1.06277
 C7 C 0.17975 0.48341 1.08593
 H8 H 0.17652 0.46215 1.10616
 N9 N 0.21407 0.50736 1.03560
 C10 C 0.30492 0.53897 0.96463
 H11 H 0.30405 0.51719 0.94533
 C12 C 0.33365 0.56334 0.96293
 H13 H 0.35462 0.55942 0.94226
 C14 C 0.28051 0.56683 1.01750
 H15 H 0.26078 0.56694 1.03972
 C16 C 0.30876 0.59183 1.01683
 H17 H 0.31021 0.61104 1.03865
 Zn18 Zn 0.24743 0.50137 0.99640
 N19 N 0.27931 0.54090 0.99176
 C20 C 0.21708 0.52298 0.92908
 N21 N 0.21818 0.49700 0.95543
 C22 C 0.19345 0.46999 0.95709
 C23 C 0.16548 0.46893 0.93226
 C24 C 0.18949 0.52293 0.90355
 C25 C 0.30084 0.46178 1.03122
 C26 C 0.32908 0.43636 1.03469
 C27 C 0.30882 0.40744 0.98056
 C28 C 0.28098 0.43360 0.97806
 N29 N 0.27784 0.46029 1.00303
 H30 H 0.23610 0.54506 0.92921
 H31 H 0.19419 0.45047 0.97915
 H32 H 0.14487 0.44839 0.93567
 H33 H 0.18795 0.54531 0.88453
 H34 H 0.29845 0.48409 1.04993
 H35 H 0.34821 0.44008 1.05607
 H36 H 0.31207 0.38762 0.95931
 H37 H 0.26325 0.43373 0.95508
 C38 C 0.33599 0.59044 0.98927
 C39 C 0.15337 0.51158 1.08266
 C40 C 0.33359 0.40855 1.00911
 C41 C 0.16292 0.49569 0.90496
 C42 C 0.80255 0.52911 -0.03259
 H43 H 0.80081 0.54719 -0.00974
 C44 C 0.83110 0.53240 -0.05798
 H45 H 0.85114 0.55298 -0.05371
 C46 C 0.78060 0.47759 -0.06233
 H47 H 0.76187 0.45529 -0.06287
 C48 C 0.80874 0.47996 -0.08846
 H49 H 0.81120 0.45923 -0.10891
 N50 N 0.77830 0.50185 -0.03493
 C51 C 0.68958 0.53217 0.03958
 H52 H 0.69098 0.50925 0.05805
 C53 C 0.66066 0.55703 0.04264
 H54 H 0.64014 0.55227 0.06352
 C55 C 0.71301 0.56271 -0.01249
 H56 H 0.73255 0.56384 -0.03485
 C57 C 0.68456 0.58829 -0.01040
 H58 H 0.68271 0.60904 -0.03126
 Zn59 Zn 0.74692 0.49524 0.00578
 N60 N 0.71473 0.53515 0.01214
 C61 C 0.77847 0.51372 0.07266
 N62 N 0.77789 0.48924 0.04550
 C63 C 0.80357 0.46246 0.04257
 C64 C 0.83201 0.46010 0.06693
 C65 C 0.80640 0.51229 0.09776
 C66 C 0.69204 0.45716 -0.02614
 C67 C 0.66395 0.43224 -0.02767
 C68 C 0.68778 0.40219 0.02537
 C69 C 0.71547 0.42780 0.02590
 N70 N 0.71676 0.45481 0.00061
 H71 H 0.75853 0.53558 0.07372
 H72 H 0.80307 0.44413 0.01994
 H73 H 0.85314 0.43993 0.06209
 H74 H 0.80747 0.53322 0.11798
 H75 H 0.69297 0.47971 -0.04510
 H76 H 0.64340 0.43610 -0.04797
 H77 H 0.68614 0.38255 0.04724
 H78 H 0.73451 0.42734 0.04780
 C79 C 0.65763 0.58570 0.01735
 C80 C 0.83462 0.50768 -0.08664
 C81 C 0.66132 0.40415 -0.00169
 C82 C 0.83396 0.48536 0.09507
 C83 C -0.03852 0.30947 0.46069
 H84 H -0.05808 0.30827 0.48307
 C85 C -0.03998 0.33824 0.43594
 H86 H -0.06082 0.35893 0.44025
 C87 C 0.01504 0.28609 0.43191
 H88 H 0.03754 0.26681 0.43170
 C89 C 0.01471 0.31444 0.40654
 H90 H 0.03747 0.31624 0.38744
 N91 N -0.01112 0.28438 0.45850
 C92 C -0.04415 0.19765 0.53241
 H93 H -0.02167 0.19868 0.55081
 C94 C -0.06852 0.16907 0.53486
 H95 H -0.06393 0.14834 0.55521
 C96 C -0.07344 0.22121 0.48056
 H97 H -0.07397 0.24050 0.45833
 C98 C -0.09856 0.19306 0.48208
 H99 H -0.11821 0.19122 0.46080
 Zn100 Zn -0.00595 0.25287 0.49868
 N101 N -0.04662 0.22262 0.50526
 C102 C -0.02421 0.28499 0.56690
 N103 N 0.00027 0.28322 0.53873
 C104 C 0.02789 0.30719 0.53520
 C105 C 0.03138 0.33484 0.56018
 C106 C -0.02165 0.31222 0.59270
 C107 C 0.03193 0.19684 0.46487
 C108 C 0.05717 0.16836 0.46155
 C109 C 0.08762 0.19068 0.51390
 C110 C 0.06168 0.21874 0.51627
 N111 N 0.03438 0.22108 0.49206
 H112 H -0.04679 0.26649 0.56840
 H113 H 0.04617 0.30589 0.51179
 H114 H 0.05226 0.35472 0.55503
 H115 H -0.04254 0.31428 0.61381
 H116 H 0.00915 0.19865 0.44680
 H117 H 0.05284 0.14847 0.44094
 H118 H 0.10807 0.18829 0.53449
 H119 H 0.06232 0.23748 0.53850
 C120 C -0.09632 0.16624 0.50943
 C121 C -0.01326 0.34129 0.40785
 C122 C 0.08572 0.16485 0.48624
 C123 C 0.00654 0.33771 0.58972
 C124 C 0.97758 0.69548 0.54151
 H125 H 0.95794 0.69714 0.52012
 C126 C 0.97617 0.66695 0.56649
 H127 H 0.95530 0.64678 0.56387
 C128 C 1.03096 0.71773 0.56785
 H129 H 1.05325 0.73659 0.56707
 C130 C 1.03056 0.68955 0.59353
 H131 H 1.05293 0.68736 0.61198
 N132 N 1.00490 0.71985 0.54231
 C133 C 0.96835 0.80646 0.47043
 H134 H 0.99013 0.80512 0.45016
 C135 C 0.94269 0.83468 0.46930
 H136 H 0.94510 0.85493 0.44797
 C137 C 0.94156 0.78369 0.52489
 H138 H 0.94237 0.76476 0.54741
 C139 C 0.91527 0.81154 0.52483
 H140 H 0.89644 0.81334 0.54769
 Zn141 Zn 1.00883 0.75098 0.50162
 N142 N 0.96762 0.78196 0.49813
 C143 C 0.98714 0.71831 0.43626
 N144 N 1.01348 0.72006 0.46142
 C145 C 1.04142 0.69550 0.46220
 C146 C 1.04324 0.66713 0.43759
 C147 C 0.98793 0.69038 0.41102
 C148 C 1.04751 0.80638 0.53173
 C149 C 1.07182 0.83503 0.53198
 C150 C 1.09975 0.81239 0.47667
 C151 C 1.07477 0.78411 0.47746
 N152 N 1.04906 0.78196 0.50450
 H153 H 0.96440 0.73730 0.43699
 H154 H 1.06125 0.69685 0.48336
 H155 H 1.06458 0.64695 0.44073
 H156 H 0.96567 0.68840 0.39244
 H157 H 1.02591 0.80475 0.55215
 H158 H 1.06843 0.85530 0.55277
 H159 H 1.11822 0.81469 0.45354
 H160 H 1.07453 0.76528 0.45528
 C161 C 0.91560 0.83778 0.49678
 C162 C 1.00290 0.66345 0.59307
 C163 C 1.09852 0.83856 0.50418
 C164 C 1.01617 0.66406 0.41142
 C165 C 0.46672 -0.03199 0.30514
 H166 H 0.48780 -0.05281 0.30398
 C167 C 0.44101 -0.03198 0.33357
 H168 H 0.44280 -0.05295 0.35420
 C169 C 0.44181 0.02271 0.28161
 H170 H 0.44340 0.04488 0.26228
 C171 C 0.41549 0.02378 0.30963
 H172 H 0.39743 0.04713 0.31125
 N173 N 0.46692 -0.00474 0.28013
 C174 C 0.53872 -0.04506 0.19361
 H175 H 0.55998 -0.02511 0.19454
 C176 C 0.53874 -0.06989 0.16543
 H177 H 0.56028 -0.06820 0.14494
 C178 C 0.48257 -0.06730 0.21688
 H179 H 0.45975 -0.06478 0.23582
 C180 C 0.48139 -0.09260 0.18910
 H181 H 0.45717 -0.10880 0.18743
 Zn182 Zn 0.50809 -0.00303 0.24852
 N183 N 0.51074 -0.04393 0.21833
 C184 C 0.57367 -0.02797 0.28130
 N185 N 0.54863 -0.00056 0.27887
 C186 C 0.54794 0.02724 0.30264
 C187 C 0.57245 0.02779 0.33088
 C188 C 0.59886 -0.02847 0.30919
 C189 C 0.47786 0.03677 0.19286
 C190 C 0.47682 0.06171 0.16431
 C191 C 0.53211 0.08794 0.18586
 C192 C 0.53214 0.06230 0.21406
 N193 N 0.50541 0.03723 0.21676
 H194 H 0.57275 -0.05057 0.26300
 H195 H 0.52686 0.04798 0.30083
 H196 H 0.56968 0.04911 0.35066
 H197 H 0.61681 -0.05180 0.31177
 H198 H 0.45761 0.01577 0.19501
 H199 H 0.45561 0.05949 0.14459
 H200 H 0.55489 0.10608 0.18329
 H201 H 0.55454 0.06128 0.23258
 C202 C 0.50987 -0.09460 0.16258
 C203 C 0.41475 -0.00387 0.33627
 C204 C 0.50415 0.08790 0.16030
 C205 C 0.59851 -0.00031 0.33466
 C206 C 0.53286 -0.03580 0.69331
 H207 H 0.50946 -0.05331 0.69524
 C208 C 0.55806 -0.03970 0.66467
 H209 H 0.55312 -0.06021 0.64485
 C210 C 0.56418 0.01493 0.71493
 H211 H 0.56545 0.03720 0.73358
 C212 C 0.59011 0.01198 0.68672
 H213 H 0.61120 0.03212 0.68417
 N214 N 0.53607 -0.00860 0.71743
 C215 C 0.46065 -0.03593 0.80600
 H216 H 0.44253 -0.01258 0.80446
 C217 C 0.45738 -0.06014 0.83513
 H218 H 0.43667 -0.05451 0.85566
 C219 C 0.51237 -0.06805 0.78284
 H220 H 0.53479 -0.06996 0.76338
 C221 C 0.51007 -0.09299 0.81153
 H222 H 0.53086 -0.11401 0.81360
 Zn223 Zn 0.49561 -0.00043 0.74896
 N224 N 0.48807 -0.03997 0.78092
 C225 C 0.42748 -0.01623 0.71765
 N226 N 0.45559 0.00729 0.71857
 C227 C 0.45949 0.03408 0.69334
 C228 C 0.43516 0.03744 0.66504
 C229 C 0.40235 -0.01378 0.68981
 C230 C 0.53006 0.03555 0.80315
 C231 C 0.53363 0.06034 0.83096
 C232 C 0.48195 0.09389 0.80784
 C233 C 0.47928 0.06828 0.78047
 N234 N 0.50299 0.03964 0.77893
 H235 H 0.42575 -0.03821 0.73717
 H236 H 0.48292 0.05153 0.69403
 H237 H 0.44076 0.05745 0.64415
 H238 H 0.38149 -0.03411 0.68839
 H239 H 0.54766 0.01176 0.80203
 H240 H 0.55390 0.05472 0.85111
 H241 H 0.46150 0.11528 0.80980
 H242 H 0.45707 0.07021 0.76178
 C243 C 0.48240 -0.08925 0.83844
 C244 C 0.58733 -0.01556 0.66088
 C245 C 0.50943 0.09022 0.83372
 C246 C 0.40595 0.01329 0.66279
 C247 C 0.21260 -0.02884 0.49656
 C248 C 0.23152 0.00375 0.49612
 C249 C 0.21252 0.03681 0.49410
 C250 C 0.17417 0.03778 0.49350
 C251 C 0.15555 0.00463 0.49300
 C252 C 0.17442 -0.02896 0.49375
 C253 C 0.27149 0.00342 0.49789
 C254 C 0.29269 0.00275 0.46593
 C255 C 0.33089 0.00490 0.46691
 C256 C 0.34740 0.00517 0.50101
 C257 C 0.32646 0.00470 0.53356
 C258 C 0.28820 0.00486 0.53147
 H259 H 0.22783 -0.05408 0.49913
 H260 H 0.22820 0.06131 0.49282
 H261 H 0.27919 0.00090 0.44026
 H262 H 0.27092 0.00662 0.55549
 H263 H 0.12609 0.00544 0.49276
 H264 H 0.37676 0.00516 0.50270
 C265 C 0.79392 -0.03348 0.49691
 C266 C 0.77238 -0.00191 0.49681
 C267 C 0.78871 0.03205 0.49792
 C268 C 0.82692 0.03488 0.49826
 C269 C 0.84817 0.00271 0.49961
 C270 C 0.83203 -0.03173 0.49958
 C271 C 0.73244 -0.00457 0.49774
 C272 C 0.71378 -0.00689 0.53113
 C273 C 0.67549 -0.00862 0.53282
 C274 C 0.65656 -0.00958 0.50005
 C275 C 0.67508 -0.00851 0.46612
 C276 C 0.71323 -0.00487 0.46551
 H277 H 0.78076 -0.05950 0.49560
 H278 H 0.77120 0.05581 0.49934
 H279 H 0.72973 -0.00742 0.55529
 H280 H 0.72815 -0.00222 0.43997
 H281 H 0.87744 0.00500 0.50031
 H282 H 0.62713 -0.01034 0.50150
 C283 C 0.53132 0.28651 1.00085
 C284 C 0.49899 0.26699 1.00000
 C285 C 0.46519 0.28511 1.00111
 C286 C 0.46335 0.32318 1.00223
 C287 C 0.49623 0.34236 1.00413
 C288 C 0.53044 0.32438 1.00419
 C289 C 0.50070 0.22729 0.99817
 C290 C 0.50255 0.20671 1.03010
 C291 C 0.50623 0.16880 1.02894
 C292 C 0.50587 0.15195 0.99489
 C293 C 0.50310 0.17225 0.96245
 C294 C 0.50136 0.21025 0.96454
 H295 H 0.55714 0.27193 0.99881
 H296 H 0.44081 0.26906 1.00146
 H297 H 0.50127 0.22042 1.05589
 H298 H 0.50103 0.22710 0.94047
 H299 H 0.49484 0.37160 1.00496
 H300 H 0.50702 0.12280 0.99312
 C301 C 0.52917 0.71191 0.00768
 C302 C 0.49615 0.73090 0.00385
 C303 C 0.46353 0.71215 0.00073
 C304 C 0.46322 0.67411 0.00286
 C305 C 0.49688 0.65536 0.00525
 C306 C 0.53018 0.67380 0.00712
 C307 C 0.49573 0.77070 0.00254
 C308 C 0.49190 0.78884 -0.03061
 C309 C 0.49247 0.82689 -0.03251
 C310 C 0.49399 0.84628 0.00011
 C311 C 0.49610 0.82839 0.03405
 C312 C 0.49875 0.79031 0.03444
 H313 H 0.55362 0.72734 0.01090
 H314 H 0.43874 0.72766 -0.00356
 H315 H 0.48855 0.77277 -0.05449
 H316 H 0.50262 0.77564 0.05966
 H317 H 0.49727 0.62602 0.00540
 H318 H 0.49417 0.87553 -0.00139
 C319 C 1.00210 0.53702 0.28967
 C320 C 0.99781 0.50452 0.27131
 C321 C 0.99505 0.47185 0.29060
 C322 C 0.99855 0.47083 0.32847
 C323 C 1.00099 0.50411 0.34670
 C324 C 1.00212 0.53748 0.32773
 C325 C 0.99660 0.50466 0.23158
 C326 C 1.02893 0.50830 0.21101
 C327 C 1.02849 0.50771 0.17291
 C328 C 0.99474 0.50250 0.15629
 C329 C 0.96176 0.50039 0.17653
 C330 C 0.96327 0.50064 0.21451
 H331 H 1.00536 0.56157 0.27382
 H332 H 0.99056 0.44727 0.27575
 H333 H 1.05418 0.51024 0.22529
 H334 H 0.93906 0.49711 0.23132
 H335 H 1.00166 0.50429 0.37595
 H336 H 0.99410 0.50023 0.12709
 C337 C 0.00299 0.53149 0.71068
 C338 C 0.00125 0.49901 0.73045
 C339 C 0.00129 0.46584 0.71252
 C340 C 0.00220 0.46478 0.67445
 C341 C 0.00497 0.49776 0.65497
 C342 C 0.00608 0.53134 0.67269
 C343 C -0.00021 0.49983 0.77020
 C344 C -0.03394 0.50069 0.78872
 C345 C -0.03567 0.50107 0.82681
 C346 C -0.00271 0.50249 0.84565
 C347 C 0.03148 0.50282 0.82729
 C348 C 0.03220 0.50023 0.78936
 H349 H 0.00193 0.55687 0.72512
 H350 H 0.00105 0.44130 0.72869
 H351 H -0.05837 0.50152 0.77297
 H352 H 0.05798 0.49855 0.77446
 H353 H 0.00562 0.49690 0.62575
 H354 H -0.00405 0.50274 0.87489
 C355 C 0.11071 0.13147 0.48688
 C356 C 0.15066 0.13923 0.49571
 C357 C 0.17224 0.10898 0.49865
 C358 C 0.15217 0.07321 0.49179
 C359 C 0.11976 0.07424 0.51904
 C360 C 0.09816 0.10433 0.51630
 C361 C 0.11377 0.10926 0.45178
 C362 C 0.13509 0.07893 0.45454
 H363 H 0.16112 0.16619 0.49977
 H364 H 0.20036 0.11109 0.50656
 H365 H 0.11462 0.05335 0.53938
 H366 H 0.07451 0.10879 0.53404
 H367 H 0.10281 0.11769 0.42598
 H368 H 0.14104 0.06159 0.43153
 C369 C 0.62394 0.61039 0.01618
 C370 C 0.59895 0.61146 0.05041
 C371 C 0.56863 0.63280 0.04690
 C372 C 0.56565 0.65182 0.00987
 C373 C 0.60209 0.67211 0.00483
 C374 C 0.63231 0.65052 0.00848
 C375 C 0.59883 0.59957 -0.01449
 C376 C 0.56876 0.62117 -0.01797
 H377 H 0.60543 0.59917 0.07629
 H378 H 0.54945 0.63741 0.06929
 H379 H 0.60471 0.70044 -0.00253
 H380 H 0.65973 0.66105 0.00549
 H381 H 0.60463 0.57705 -0.03250
 H382 H 0.54928 0.61718 -0.03919
 C383 C 0.89172 -0.12809 0.49833
 C384 C 0.85731 -0.12902 0.52324
 C385 C 0.83835 -0.09699 0.52449
 C386 C 0.85470 -0.06679 0.50016
 C387 C 0.89427 -0.06406 0.51309
 C388 C 0.91340 -0.09585 0.51183
 C389 C 0.87711 -0.11564 0.46141
 C390 C 0.85811 -0.08371 0.46238
 H391 H 0.84748 -0.15281 0.53766
 H392 H 0.81365 -0.09369 0.54100
 H393 H 0.90579 -0.04041 0.52530
 H394 H 0.94099 -0.09834 0.52176
 H395 H 0.88053 -0.13110 0.43671
 H396 H 0.84582 -0.07189 0.43845
 C397 C 0.36752 0.38413 1.00836
 C398 C 0.36101 0.34475 0.99711
 C399 C 0.39205 0.32399 0.99426
 C400 C 0.42719 0.34426 1.00357
 C401 C 0.42683 0.37743 0.97795
 C402 C 0.39602 0.39821 0.98068
 C403 C 0.38810 0.38005 1.04416
 C404 C 0.41918 0.35959 1.04147
 H405 H 0.33434 0.33409 0.99142
 H406 H 0.39107 0.29638 0.98481
 H407 H 0.44864 0.38361 0.95855
 H408 H 0.39189 0.42221 0.96391
 H409 H 0.37801 0.38966 1.07020
 H410 H 0.43553 0.35305 1.06485
 C411 C 0.88133 0.13188 0.50722
 C412 C 0.84199 0.13726 0.49411
 C413 C 0.82353 0.10577 0.49023
 C414 C 0.84576 0.07136 0.50050
 C415 C 0.88050 0.07398 0.47642
 C416 C 0.89905 0.10523 0.48017
 C417 C 0.87657 0.10998 0.54277
 C418 C 0.85838 0.07846 0.53910
 H419 H 0.82967 0.16349 0.48806
 H420 H 0.79630 0.10590 0.47945
 H421 H 0.88923 0.05348 0.45710
 H422 H 0.92372 0.11098 0.46441
 H423 H 0.88426 0.11937 0.56918
 H424 H 0.85173 0.06103 0.56213
 C425 C 0.36958 0.61406 -0.00827
 C426 C 0.39336 0.61830 -0.04305
 C427 C 0.42381 0.63825 -0.03873
 C428 C 0.42805 0.65291 -0.00035
 C429 C 0.39180 0.67352 0.00786
 C430 C 0.36143 0.65338 0.00328
 C431 C 0.39573 0.59911 0.02037
 C432 C 0.42593 0.61937 0.02472
 H433 H 0.38595 0.60901 -0.06957
 H434 H 0.44230 0.64472 -0.06121
 H435 H 0.38964 0.70089 0.01805
 H436 H 0.33414 0.66436 0.00814
 H437 H 0.39040 0.57499 0.03664
 H438 H 0.44589 0.61264 0.04507
 C439 C 0.12046 -0.12676 0.50099
 C440 C 0.13236 -0.11132 0.53735
 C441 C 0.14963 -0.07904 0.53430
 C442 C 0.15421 -0.06481 0.49523
 C443 C 0.17347 -0.09616 0.47470
 C444 C 0.15617 -0.12851 0.47804
 C445 C 0.09789 -0.09624 0.48334
 C446 C 0.11539 -0.06415 0.48002
 H447 H 0.12884 -0.12519 0.56324
 H448 H 0.16017 -0.06533 0.55762
 H449 H 0.19865 -0.09334 0.45892
 H450 H 0.16774 -0.15301 0.46624
 H451 H 0.07102 -0.10017 0.47241
 H452 H 0.10340 -0.04160 0.46522
 C453 C 0.62718 0.38112 1.00029
 C454 C 0.61255 0.37042 0.96323
 C455 C 0.58064 0.35211 0.96522
 C456 C 0.56596 0.34541 1.00398
 C457 C 0.59788 0.32646 1.02354
 C458 C 0.62988 0.34480 1.02123
 C459 C 0.59546 0.40170 1.01913
 C460 C 0.56374 0.38315 1.02138
 H461 H 0.62671 0.37556 0.93758
 H462 H 0.56751 0.34225 0.94128
 H463 H 0.59569 0.30086 1.03811
 H464 H 0.65471 0.33364 1.03252
 H465 H 0.59831 0.42801 1.03153
 H466 H 0.54033 0.39363 1.03665
 C467 C 0.50563 0.11113 1.12594
 C468 C 0.46820 0.12602 1.11427
 C469 C 0.46904 0.14438 1.08215
 C470 C 0.50721 0.14697 1.06428
 C471 C 0.53100 0.16333 1.09367
 C472 C 0.52990 0.14495 1.12592
 C473 C 0.52014 0.08894 1.09361
 C474 C 0.52129 0.10748 1.06163
 H475 H 0.44322 0.12331 1.13041
 H476 H 0.44474 0.15680 1.07084
 H477 H 0.54710 0.18756 1.08969
 H478 H 0.54404 0.15472 1.14923
 H479 H 0.53084 0.06146 1.09614
 H480 H 0.53420 0.09559 1.03780
 C481 C 0.00449 0.62896 0.61609
 C482 C 0.02102 0.59739 0.59415
 C483 C 0.02254 0.56533 0.61251
 C484 C 0.00675 0.56710 0.65153
 C485 C 0.02879 0.59741 0.66886
 C486 C 0.02729 0.62975 0.65066
 C487 C -0.03304 0.61558 0.62971
 C488 C -0.03182 0.58336 0.64786
 H489 H 0.03266 0.60053 0.56699
 H490 H 0.03657 0.54198 0.60092
 H491 H 0.04424 0.59393 0.69338
 H492 H 0.04030 0.65360 0.66091
 H493 H -0.05839 0.63073 0.62645
 H494 H -0.05614 0.57097 0.65953
 C495 C 0.48363 0.88712 -0.12746
 C496 C 0.51405 0.89915 -0.10255
 C497 C 0.51750 0.87863 -0.07203
 C498 C 0.48987 0.84776 -0.06833
 C499 C 0.45233 0.86625 -0.07229
 C500 C 0.44886 0.88650 -0.10306
 C501 C 0.49206 0.84679 -0.13447
 C502 C 0.49571 0.82630 -0.10381
 H503 H 0.53197 0.92165 -0.10883
 H504 H 0.53862 0.88349 -0.05264
 H505 H 0.42961 0.86206 -0.05337
 H506 H 0.42273 0.89832 -0.11021
 H507 H 0.49553 0.83533 -0.16129
 H508 H 0.50370 0.79800 -0.10547
 C509 C 0.98939 0.37417 0.38590
 C510 C 0.95456 0.39268 0.37866
 C511 C 0.95846 0.42609 0.35904
 C512 C 0.99623 0.43484 0.34953
 C513 C 1.01563 0.43405 0.38371
 C514 C 1.01160 0.40097 0.40371
 C515 C 1.00637 0.36966 0.34979
 C516 C 1.01069 0.40307 0.33008
 H517 H 0.92793 0.38076 0.38331
 H518 H 0.93507 0.44156 0.34950
 H519 H 1.03498 0.45429 0.39165
 H520 H 1.02644 0.39559 0.42838
 H521 H 1.01373 0.34381 0.33773
 H522 H 1.02450 0.40401 0.30378
 C523 C 0.50631 0.88408 0.12999
 C524 C 0.48842 0.90544 0.10174
 C525 C 0.48402 0.88641 0.06873
 C526 C 0.49880 0.84934 0.06951
 C527 C 0.53670 0.85253 0.08024
 C528 C 0.54091 0.87125 0.11355
 C529 C 0.48463 0.85108 0.13406
 C530 C 0.48002 0.83237 0.10071
 H531 H 0.47609 0.93205 0.10614
 H532 H 0.46646 0.89729 0.04790
 H533 H 0.55961 0.83964 0.06600
 H534 H 0.56708 0.87201 0.12667
 H535 H 0.47502 0.83969 0.15971
 H536 H 0.46414 0.80785 0.09944
 C537 C 0.00617 0.37079 0.61406
 C538 C -0.00565 0.36375 0.65381
 C539 C -0.00784 0.39421 0.67439
 C540 C 0.00266 0.42930 0.65359
 C541 C 0.04076 0.42096 0.63728
 C542 C 0.04278 0.39046 0.61702
 C543 C -0.02086 0.39981 0.60054
 C544 C -0.02293 0.43004 0.62116
 H545 H -0.01203 0.33719 0.66492
 H546 H -0.01752 0.39290 0.70230
 H547 H 0.06472 0.43667 0.64298
 H548 H 0.06878 0.38016 0.60660
 H549 H -0.03775 0.39644 0.57709
 H550 H -0.04191 0.45211 0.61539
 C551 C 0.50861 0.11395 0.86721
 C552 C 0.49732 0.15386 0.86084
 C553 C 0.49467 0.17382 0.89169
 C554 C 0.50421 0.15228 0.92647
 C555 C 0.47833 0.11986 0.92622
 C556 C 0.48085 0.09987 0.89561
 C557 C 0.54482 0.11645 0.88738
 C558 C 0.54234 0.13610 0.91826
 H559 H 0.49176 0.16555 0.83442
 H560 H 0.48546 0.20181 0.89076
 H561 H 0.45891 0.11361 0.94798
 H562 H 0.46386 0.07648 0.89157
 H563 H 0.57090 0.10615 0.87718
 H564 H 0.56601 0.14145 0.93439
 C565 C 1.01373 0.63066 0.38775
 C566 C 0.98470 0.60457 0.40286
 C567 C 0.98023 0.57459 0.38254
 C568 C 1.00556 0.57258 0.34876
 C569 C 0.99756 0.60857 0.32837
 C570 C 1.00224 0.63872 0.34861
 C571 C 1.04868 0.60718 0.38307
 C572 C 1.04422 0.57693 0.36306
 H573 H 0.96834 0.60972 0.42721
 H574 H 0.95971 0.55459 0.38945
 H575 H 0.98733 0.61079 0.30116
 H576 H 0.99740 0.66581 0.33786
 H577 H 1.07546 0.61463 0.39201
 H578 H 1.06683 0.55871 0.35623
 C579 C 1.12047 0.51153 0.10559
 C580 C 1.09041 0.53564 0.09421
 C581 C 1.05937 0.53520 0.11843
 C582 C 1.06325 0.51008 0.14908
 C583 C 1.07248 0.47507 0.13293
 C584 C 1.10356 0.47586 0.10885
 C585 C 1.12797 0.52214 0.14265
 C586 C 1.09662 0.52158 0.16654
 H587 H 1.08841 0.54875 0.06791
 H588 H 1.03461 0.55056 0.11279
 H589 H 1.05654 0.45077 0.13733
 H590 H 1.11196 0.45238 0.09307
 H591 H 1.15379 0.53320 0.15081
 H592 H 1.09758 0.53413 0.19286
 C593 C 0.61221 -0.01517 0.62721
 C594 C 0.61394 -0.04999 0.60447
 C595 C 0.63531 -0.04733 0.57396
 C596 C 0.65371 -0.01046 0.56858
 C597 C 0.62226 0.01758 0.57037
 C598 C 0.60065 0.01496 0.60064
 C599 C 0.65251 -0.00757 0.63464
 C600 C 0.67414 -0.00478 0.60422
 H601 H 0.60206 -0.07560 0.61264
 H602 H 0.64041 -0.07022 0.55625
 H603 H 0.61770 0.03824 0.54974
 H604 H 0.57757 0.03319 0.60557
 H605 H 0.66321 -0.00445 0.66156
 H606 H 0.70266 0.00185 0.60625
 C607 C -0.13146 0.50690 0.88864
 C608 C -0.11038 0.54264 0.88482
 C609 C -0.07932 0.54005 0.86410
 C610 C -0.07181 0.50230 0.84826
 C611 C -0.07254 0.47627 0.88111
 C612 C -0.10335 0.47889 0.90216
 C613 C -0.13810 0.49616 0.84918
 C614 C -0.10707 0.49340 0.82817
 H615 H -0.12012 0.56858 0.89494
 H616 H -0.06260 0.56342 0.85776
 H617 H -0.05101 0.45668 0.88688
 H618 H -0.10775 0.46183 0.92597
 H619 H -0.16484 0.49081 0.83862
 H620 H -0.10816 0.48428 0.80047
 C621 C 0.39079 -0.00094 0.37043
 C622 C 0.35619 0.02328 0.36820
 C623 C 0.33704 0.02612 0.40017
 C624 C 0.35344 0.00389 0.43163
 C625 C 0.35723 -0.03481 0.41700
 C626 C 0.37639 -0.03735 0.38512
 C627 C 0.41218 0.01488 0.40165
 C628 C 0.39285 0.01772 0.43335
 H629 H 0.34654 0.03619 0.34364
 H630 H 0.31231 0.04254 0.40263
 H631 H 0.34493 -0.05822 0.43021
 H632 H 0.37982 -0.06288 0.37106
 H633 H 0.43972 0.02509 0.39843
 H634 H 0.40408 0.03146 0.45625
 C635 C 0.12866 0.49814 0.88244
 C636 C 0.11416 0.46131 0.87053
 C637 C 0.08210 0.46353 0.85281
 C638 C 0.06713 0.50231 0.84783
 C639 C 0.06510 0.51821 0.88625
 C640 C 0.09697 0.51571 0.90420
 C641 C 0.13094 0.52053 0.84694
 C642 C 0.09879 0.52305 0.82917
 H643 H 0.12851 0.43568 0.87450
 H644 H 0.06904 0.43979 0.84225
 H645 H 0.04176 0.53286 0.89766
 H646 H 0.09997 0.52721 0.93089
 H647 H 0.15563 0.53259 0.83584
 H648 H 0.09631 0.53846 0.80413
 C649 C 0.62061 -0.00298 0.36905
 C650 C 0.65587 -0.02635 0.36735
 C651 C 0.67330 -0.02910 0.39951
 C652 C 0.65458 -0.00766 0.43061
 C653 C 0.65070 0.03113 0.41553
 C654 C 0.63333 0.03361 0.38346
 C655 C 0.59785 -0.01968 0.40026
 C656 C 0.61543 -0.02245 0.43214
 H657 H 0.66706 -0.03881 0.34299
 H658 H 0.69828 -0.04493 0.40237
 H659 H 0.66179 0.05465 0.42851
 H660 H 0.63030 0.05922 0.36903
 H661 H 0.57076 -0.03050 0.39694
 H662 H 0.60326 -0.03677 0.45508
 C663 C 0.86761 0.48785 0.11831
 C664 C 0.89245 0.51847 0.10458
 C665 C 0.92262 0.52308 0.12451
 C666 C 0.92613 0.49632 0.15653
 C667 C 0.88986 0.50154 0.17826
 C668 C 0.85947 0.49678 0.15835
 C669 C 0.89275 0.45399 0.12014
 C670 C 0.92321 0.45861 0.13979
 H671 H 0.88637 0.53567 0.08137
 H672 H 0.94194 0.54444 0.11840
 H673 H 0.88749 0.50967 0.20630
 H674 H 0.83214 0.49961 0.17003
 H675 H 0.88622 0.42763 0.10965
 H676 H 0.94253 0.43662 0.14478
 C677 C 0.38299 0.01201 0.62899
 C678 C 0.38052 0.04736 0.60647
 C679 C 0.36152 0.04430 0.57552
 C680 C 0.34591 0.00651 0.56957
 C681 C 0.37888 -0.01966 0.57185
 C682 C 0.39823 -0.01657 0.60252
 C683 C 0.34282 0.00160 0.63559
 C684 C 0.32352 -0.00164 0.60469
 H685 H 0.39026 0.07340 0.61510
 H686 H 0.35623 0.06738 0.55781
 H687 H 0.38591 -0.03970 0.55146
 H688 H 0.42188 -0.03367 0.60794
 H689 H 0.33053 -0.00316 0.66221
 H690 H 0.29553 -0.01061 0.60582
   
