data_POSCAR
  _audit_creation_date              2014-09-24
  _audit_creation_method            'ToBaCCo'
  _symmetry_space_group_name_H-M    'P1'
  _symmetry_Int_Tables_number       1
  _symmetry_cell_setting            triclinic
  loop_
  _symmetry_equiv_pos_as_xyz
 x,y,z
_cell_length_a 18.7014
_cell_length_b 18.2978
_cell_length_c 33.0153
_cell_angle_alpha 86.155000
_cell_angle_beta 97.309900
_cell_angle_gamma 121.718900
loop_
  _atom_site_label
  _atom_site_type_symbol
  _atom_site_fract_x
  _atom_site_fract_y
  _atom_site_fract_z
C1 C 0.09179 0.18726 0.55747
 H2 H 0.14988 0.18696 0.56339
 C3 C 0.08542 0.25009 0.57505
 H4 H 0.13878 0.29785 0.59466
 C5 C -0.04739 0.12586 0.52386
 H6 H -0.09793 0.07852 0.50309
 C7 C -0.05733 0.18693 0.54186
 H8 H -0.11593 0.18611 0.53503
 N9 N 0.02662 0.12745 0.53207
 C10 C 0.07948 -0.07780 0.54063
 H11 H 0.10557 -0.07240 0.51238
 C12 C 0.05282 -0.15224 0.56444
 H13 H 0.06020 -0.20305 0.55474
 C14 C 0.02754 -0.02365 0.58484
 H15 H 0.01313 0.02379 0.59165
 C16 C -0.00107 -0.09713 0.60895
 H17 H -0.03510 -0.10407 0.63457
 Zn18 Zn 0.05761 0.05720 0.50929
 N19 N 0.06338 -0.01708 0.55036
 C20 C 0.23621 0.14279 0.49533
 N21 N 0.15978 0.13622 0.48766
 C22 C 0.14919 0.19282 0.46284
 C23 C 0.21692 0.26082 0.44536
 C24 C 0.30619 0.20953 0.47733
 C25 C -0.10182 -0.07271 0.47141
 C26 C -0.15155 -0.14171 0.44434
 C27 C -0.02995 -0.09231 0.40776
 C28 C 0.01626 -0.02329 0.43463
 N29 N -0.01923 -0.01591 0.46639
 H30 H 0.24294 0.09699 0.51533
 H31 H 0.08754 0.18561 0.45718
 H32 H 0.20670 0.30540 0.42600
 H33 H 0.36706 0.21494 0.48340
 H34 H -0.12774 -0.06772 0.49784
 H35 H -0.21617 -0.18720 0.45012
 H36 H 0.00182 -0.09798 0.38398
 H37 H 0.08262 0.02063 0.43178
 C38 C 0.00804 -0.16399 0.59777
 C39 C 0.01051 0.25072 0.56724
 C40 C -0.11452 -0.15470 0.41298
 C41 C 0.29658 0.27006 0.45250
 C42 C 1.10933 0.06819 0.09062
 H43 H 1.07398 0.09991 0.08511
 C44 C 1.16899 0.08417 0.06449
 H45 H 1.17677 0.12578 0.03836
 C46 C 1.14767 -0.01802 0.13320
 H47 H 1.14158 -0.05453 0.16106
 C48 C 1.20783 -0.00414 0.10772
 H49 H 1.24651 -0.03180 0.11596
 N50 N 1.09925 0.01728 0.12406
 C51 C 0.93634 0.09284 0.16139
 H52 H 0.97091 0.11944 0.19080
 C53 C 0.86640 0.09974 0.14712
 H54 H 0.84787 0.13288 0.16535
 C55 C 0.91198 0.00890 0.10372
 H56 H 0.92701 -0.03081 0.08822
 C57 C 0.84397 0.01694 0.08765
 H58 H 0.80762 -0.01582 0.05945
 Zn59 Zn 1.03145 0.01210 0.16325
 N60 N 0.95667 0.04671 0.13986
 C61 C 1.16287 0.16846 0.19816
 N62 N 1.10825 0.08428 0.20637
 C63 C 1.11753 0.04846 0.24256
 C64 C 1.18546 0.09699 0.27165
 C65 C 1.23204 0.21947 0.22647
 C66 C 0.95519 -0.17258 0.17190
 C67 C 0.89989 -0.25178 0.18938
 C68 C 0.85577 -0.17948 0.22937
 C69 C 0.91172 -0.10227 0.21140
 N70 N 0.96090 -0.09969 0.18372
 H71 H 1.15509 0.19478 0.16876
 H72 H 1.07522 -0.01911 0.24808
 H73 H 1.19304 0.06632 0.29969
 H74 H 1.27632 0.28545 0.21874
 H75 H 0.99311 -0.16964 0.14902
 H76 H 0.89672 -0.30920 0.18017
 H77 H 0.81888 -0.17859 0.25180
 H78 H 0.91689 -0.04350 0.21994
 C79 C 0.81905 0.06055 0.11006
 C80 C 1.21960 0.04838 0.07307
 C81 C 0.84963 -0.25567 0.21872
 C82 C 1.24510 0.18297 0.26336
 C83 C 0.04748 0.95795 0.89144
 H84 H -0.00553 0.91692 0.90840
 C85 C 0.12748 0.97299 0.90640
 H86 H 0.13468 0.94445 0.93519
 C87 C 0.10132 1.04084 0.83247
 H88 H 0.09038 1.06408 0.80280
 C89 C 0.18226 1.05721 0.84620
 H90 H 0.23312 1.09516 0.82735
 N91 N 0.03557 0.99140 0.85495
 C92 C -0.17239 0.88998 0.90002
 H93 H -0.15037 0.84569 0.90455
 C94 C -0.22617 0.88794 0.92666
 H95 H -0.24357 0.84266 0.95178
 C96 C -0.17895 1.00018 0.86131
 H97 H -0.16163 1.04376 0.83576
 C98 C -0.23244 1.00040 0.88700
 H99 H -0.25404 1.04474 0.88029
 Zn100 Zn -0.07660 0.95186 0.83025
 N101 N -0.14929 0.94608 0.86812
 C102 C -0.18707 0.76898 0.81535
 N103 N -0.11513 0.84358 0.80741
 C104 C -0.06296 0.84558 0.78168
 C105 C -0.08119 0.77082 0.76311
 C106 C -0.20817 0.69210 0.79708
 C107 C -0.02977 1.11250 0.79178
 C108 C -0.04356 1.16571 0.76371
 C109 C -0.15179 1.03950 0.72566
 C110 C -0.13563 0.98883 0.75424
 N111 N -0.07666 1.02565 0.78695
 H112 H -0.22818 0.76897 0.83558
 H113 H -0.00682 0.90587 0.77546
 H114 H -0.03859 0.77519 0.74248
 H115 H -0.26564 0.63309 0.80348
 H116 H 0.01483 1.14014 0.81871
 H117 H -0.00801 1.23425 0.76909
 H118 H -0.20126 1.00861 0.70071
 H119 H -0.17367 0.91965 0.75153
 C120 C -0.25701 0.94391 0.92041
 C121 C 0.19592 1.02192 0.88329
 C122 C -0.10711 1.12892 0.73079
 C123 C -0.15441 0.69252 0.77080
 C124 C 0.44566 0.03400 -0.03467
 C125 C 0.44365 0.04943 0.00633
 C126 C 0.50110 0.04620 0.03679
 C127 C 0.56078 0.02707 0.02776
 C128 C 0.55911 0.00560 -0.01301
 C129 C 0.50363 0.01250 -0.04390
 H130 H 0.50285 -0.00279 -0.07514
 H131 H 0.50074 0.06160 0.06784
 C132 C -0.07830 0.42064 0.63555
 C133 C -0.13011 0.37010 0.66595
 C134 C -0.16404 0.40401 0.68891
 C135 C -0.14641 0.48816 0.68232
 C136 C -0.09845 0.53737 0.65006
 C137 C -0.06391 0.50317 0.62759
 H138 H -0.02590 0.54049 0.60338
 H139 H -0.20053 0.36628 0.71354
 C140 C 0.65638 0.52698 0.31357
 C141 C 0.67301 0.56674 0.35197
 C142 C 0.61302 0.52582 0.38013
 C143 C 0.53803 0.44731 0.37118
 C144 C 0.52245 0.40707 0.33342
 C145 C 0.58214 0.44691 0.30518
 H146 H 0.56913 0.41694 0.27577
 H147 H 0.62342 0.55565 0.40924
 N148 N 0.04894 0.44130 0.61240
 N149 N 0.07502 0.39829 0.59445
 C150 C 0.00649 0.31995 0.58510
 C151 C -0.06280 0.31617 0.59793
 N152 N -0.03329 0.39301 0.61514
 H153 H -0.12744 0.26257 0.59574
 N154 N 0.74137 0.53275 0.26155
 N155 N 0.79242 0.58858 0.23550
 C156 C 0.79380 0.66237 0.23927
 C157 C 0.74078 0.64925 0.26816
 N158 N 0.71113 0.56865 0.28195
 H159 H 0.72688 0.69421 0.27934
 N160 N 0.41338 0.08177 -0.10149
 N161 N 0.34880 0.08071 -0.12394
 C162 C 0.28072 0.03533 -0.10300
 C163 C 0.30577 0.00746 -0.06713
 N164 N 0.38907 0.03897 -0.06705
 H165 H 0.26799 -0.03029 -0.04296
 N166 N -0.14319 0.64177 0.64329
 N167 N -0.11591 0.72135 0.63055
 C168 C -0.04004 0.75125 0.61720
 C169 C -0.02178 0.68703 0.62201
 N170 N -0.08724 0.62008 0.63903
 H171 H 0.03386 0.68928 0.61429
 N172 N 0.41546 0.25666 0.34356
 N173 N 0.34134 0.19613 0.32600
 C174 C 0.32216 0.23118 0.29231
 C175 C 0.38781 0.31562 0.28969
 N176 N 0.44403 0.32889 0.32243
 H177 H 0.39434 0.36306 0.26666
 N178 N 0.61349 -0.09101 -0.00313
 N179 N 0.66234 -0.10934 -0.02053
 C180 C 0.68902 -0.05688 -0.05318
 C181 C 0.65415 -0.00579 -0.05513
 N182 N 0.60853 -0.02844 -0.02323
 H183 H 0.66133 0.04367 -0.07705
 N184 N 0.37131 0.12948 0.00058
 N185 N 0.31125 0.13031 0.01757
 C186 C 0.28607 0.06889 0.04673
 C187 C 0.33298 0.03064 0.04715
 N188 N 0.38457 0.06960 0.01777
 H189 H 0.32907 -0.02167 0.06611
 N190 N 0.82305 0.67546 0.34889
 N191 N 0.88116 0.75180 0.36437
 C192 C 0.84401 0.77331 0.38985
 C193 C 0.76034 0.70698 0.38905
 N194 N 0.74964 0.64767 0.36285
 H195 H 0.71147 0.70270 0.40521
 N196 N -0.21029 0.21393 0.66252
 N197 N -0.20541 0.14832 0.67881
 C198 C -0.13240 0.18143 0.70388
 C199 C -0.09250 0.26999 0.70234
 N200 N -0.14294 0.28719 0.67615
 H201 H -0.03382 0.31746 0.71904
 N202 N 0.61325 0.02946 0.09956
 N203 N 0.68209 0.04211 0.12268
 C204 C 0.73854 0.05583 0.09707
 C205 C 0.70224 0.05145 0.05757
 N206 N 0.62327 0.03341 0.06026
 H207 H 0.73174 0.06210 0.02990
 N208 N 0.43225 0.46020 0.39937
 N209 N 0.36773 0.41525 0.42113
 C210 C 0.36702 0.34296 0.43321
 C211 C 0.43401 0.34534 0.41838
 N212 N 0.47208 0.41892 0.39692
 H213 H 0.45046 0.29655 0.42097
 N214 N -0.24785 0.48718 0.72301
 N215 N -0.25204 0.53964 0.74720
 C216 C -0.17542 0.61302 0.75023
 C217 C -0.12390 0.60298 0.72768
 N218 N -0.17179 0.52489 0.71040
 H219 H -0.05856 0.64860 0.72307
   
