data_POSCAR
  _audit_creation_date              2014-09-24
  _audit_creation_method            'ToBaCCo'
  _symmetry_space_group_name_H-M    'P1'
  _symmetry_Int_Tables_number       1
  _symmetry_cell_setting            triclinic
  loop_
  _symmetry_equiv_pos_as_xyz
 x,y,z
_cell_length_a 48.7673
_cell_length_b 48.6606
_cell_length_c 48.7757
_cell_angle_alpha 90.003200
_cell_angle_beta 90.013800
_cell_angle_gamma 89.918200
loop_
  _atom_site_label
  _atom_site_type_symbol
  _atom_site_fract_x
  _atom_site_fract_y
  _atom_site_fract_z
C1 C 0.17046 0.17153 0.20360
 N2 N 0.19322 0.16017 0.19213
 C3 C 0.20478 0.17113 0.16923
 N4 N 0.19315 0.19381 0.15777
 C5 C 0.17038 0.20544 0.16886
 N6 N 0.15919 0.19418 0.19175
 C7 C -0.16811 0.83119 0.20571
 N8 N -0.19104 0.84269 0.19470
 C9 C -0.20328 0.83163 0.17221
 N10 N -0.19223 0.80868 0.16072
 C11 C -0.16934 0.79687 0.17141
 N12 N -0.15743 0.80827 0.19386
 C13 C -0.17208 0.16762 -0.20589
 N14 N -0.16141 0.19086 -0.19469
 C15 C -0.17288 0.20248 -0.17210
 N16 N -0.19531 0.19060 -0.16065
 C17 C -0.20633 0.16733 -0.17145
 N18 N -0.19451 0.15604 -0.19406
 C19 C 0.17229 0.83051 -0.20414
 N20 N 0.16034 0.80793 -0.19297
 C21 C 0.17084 0.79606 -0.17005
 N22 N 0.19353 0.80709 -0.15824
 C23 C 0.20584 0.82967 -0.16909
 N24 N 0.19502 0.84122 -0.19209
 C25 C 0.17163 1.17073 0.79553
 N26 N 0.19425 1.15959 0.80748
 C27 C 0.20549 1.17103 0.83025
 N28 N 0.19383 1.19390 0.84117
 C29 C 0.17115 1.20539 0.82965
 N30 N 0.16024 1.19362 0.80682
 C31 C 0.83103 0.83302 0.79386
 N32 N 0.84229 0.80994 0.80489
 C33 C 0.83117 0.79783 0.82742
 N34 N 0.80843 0.80917 0.83894
 C35 C 0.79686 0.83222 0.82824
 N36 N 0.80830 0.84398 0.80574
 C37 C 0.16910 0.82890 1.20434
 N38 N 0.15728 0.80637 1.19285
 C39 C 0.16799 0.79461 1.16997
 N40 N 0.19086 0.80562 1.15850
 C41 C 0.20301 0.82810 1.16965
 N42 N 0.19199 0.83961 1.19253
 C43 C 0.83117 1.17083 1.20494
 N44 N 0.80833 1.15923 1.19395
 C45 C 0.79611 1.17019 1.17143
 N46 N 0.80703 1.19304 1.15977
 C47 C 0.82992 1.20498 1.17034
 N48 N 0.84178 1.19370 1.19295
 O49 O 0.46198 0.94836 0.95455
 O50 O 0.43182 0.97491 0.97913
 C51 C 0.43728 0.95566 0.96155
 O52 O 0.53889 0.95141 1.05235
 O53 O 0.56881 0.97642 1.02607
 C54 C 0.56352 0.95874 1.04524
 O55 O 0.46169 0.94830 1.04922
 O56 O 0.43170 0.97482 1.02442
 C57 C 0.43704 0.95557 1.04202
 O58 O 0.53915 0.95137 0.95192
 O59 O 0.56890 0.97638 0.97838
 C60 C 0.56374 0.95867 0.95921
 Zr61 Zr 0.50047 0.96408 0.96737
 O62 O 0.50329 0.92068 0.96766
 O63 O 0.49751 0.96400 0.92407
 Zr64 Zr 0.50026 0.96389 1.03648
 O65 O 0.50189 0.92059 1.03348
 O66 O 0.49740 0.96222 1.07974
 O67 O 0.47590 0.95871 1.00187
 O68 O 0.52435 0.95908 1.00202
 O69 O 0.53877 1.04660 0.95207
 O70 O 0.56877 1.02173 0.97848
 C71 C 0.56342 1.03943 0.95933
 O72 O 0.46130 1.04886 1.04969
 O73 O 0.43155 1.02207 1.02506
 C74 C 0.43672 1.04133 1.04267
 O75 O 0.53848 1.04653 1.05234
 O76 O 0.56859 1.02169 1.02607
 C77 C 0.56316 1.03938 1.04519
 O78 O 0.46159 1.04906 0.95436
 O79 O 0.43169 1.02221 0.97872
 C80 C 0.43696 1.04154 0.96122
 Zr81 Zr 0.50016 1.03371 0.96743
 O82 O 0.50314 1.07711 0.96774
 O83 O 0.49719 1.03388 0.92413
 Zr84 Zr 0.49996 1.03356 1.03677
 O85 O 0.50288 1.07697 1.03671
 O86 O 0.49679 1.03345 1.08006
 Zr87 Zr 0.45954 0.99880 1.00191
 Zr88 Zr 0.54087 0.99897 1.00215
 O89 O 0.52386 1.03872 1.00218
 O90 O 0.47557 1.03900 1.00204
 O91 O 0.52471 0.99897 0.96207
 O92 O 0.47638 0.99864 1.04162
 O93 O 0.47658 0.99882 0.96228
 O94 O 0.52444 0.99879 1.04211
 H95 H 0.53697 0.94310 1.00205
 H96 H 0.46396 0.99847 1.05769
 H97 H 0.53631 1.05480 1.00223
 H98 H 0.46420 0.99874 0.94618
 H99 H 0.51077 0.97557 1.08713
 H100 H 0.51221 1.02239 1.08726
 H101 H 0.48744 1.08413 1.02566
 H102 H 0.48759 1.08423 0.97866
 H103 H 0.51240 1.02249 0.91696
 H104 H 0.51259 0.97552 0.91693
 H105 H 0.49012 0.91393 0.98154
 H106 H 0.50185 0.91363 1.05257
 O107 O 0.04746 0.46136 -0.05006
 O108 O 0.02073 0.43123 -0.02578
 C109 C 0.04006 0.43663 -0.04320
 O110 O 0.04449 0.53842 0.04738
 O111 O 0.01948 0.56857 0.02127
 C112 C 0.03722 0.56315 0.04033
 O113 O 0.04738 0.46118 0.04437
 O114 O 0.02044 0.43121 0.02011
 C115 C 0.03983 0.43651 0.03753
 O116 O 0.04462 0.53871 -0.05277
 O117 O 0.01963 0.56863 -0.02636
 C118 C 0.03741 0.56338 -0.04543
 Zr119 Zr 0.03147 0.50006 -0.03768
 O120 O 0.07480 0.50185 -0.03860
 O121 O 0.02998 0.50162 -0.08111
 Zr122 Zr 0.03184 0.49982 0.03161
 O123 O 0.07505 0.50123 0.02881
 O124 O 0.03331 0.49691 0.07488
 O125 O 0.03695 0.47544 -0.00310
 O126 O 0.03667 0.52387 -0.00293
 O127 O -0.05035 0.53878 -0.05299
 O128 O -0.02565 0.56874 -0.02637
 C129 C -0.04320 0.56347 -0.04564
 O130 O -0.05280 0.46110 0.04496
 O131 O -0.02620 0.43117 0.02024
 C132 C -0.04531 0.43643 0.03795
 O133 O -0.05053 0.53844 0.04755
 O134 O -0.02620 0.56850 0.02082
 C135 C -0.04365 0.56315 0.04014
 O136 O -0.05336 0.46137 -0.05040
 O137 O -0.02694 0.43128 -0.02564
 C138 C -0.04608 0.43665 -0.04330
 Zr139 Zr -0.03790 0.50000 -0.03736
 O140 O -0.08120 0.50321 -0.03691
 O141 O -0.03815 0.49757 -0.08066
 Zr142 Zr -0.03764 0.49982 0.03193
 O143 O -0.08095 0.50290 0.03172
 O144 O -0.03764 0.49665 0.07522
 Zr145 Zr -0.00304 0.45913 -0.00302
 Zr146 Zr -0.00306 0.54066 -0.00265
 O147 O -0.04277 0.52380 -0.00265
 O148 O -0.04313 0.47539 -0.00276
 O149 O -0.00326 0.52447 -0.04268
 O150 O -0.00284 0.47604 0.03670
 O151 O -0.00318 0.47607 -0.04266
 O152 O -0.00291 0.52422 0.03731
 H153 H 0.05270 0.53636 -0.00287
 H154 H -0.00271 0.46370 0.05285
 H155 H -0.05882 0.53631 -0.00267
 H156 H -0.00333 0.46336 -0.05851
 H157 H 0.02038 0.51072 0.08224
 H158 H -0.02637 0.51190 0.08243
 H159 H -0.08811 0.48719 0.02104
 H160 H -0.08831 0.48765 -0.02600
 H161 H -0.02324 0.50960 -0.08735
 H162 H 0.02521 0.48320 -0.08822
 H163 H 0.08154 0.49089 -0.02290
 H164 H 0.08194 0.50113 0.04793
 O165 O 1.05312 -0.04538 0.53847
 O166 O 1.02634 -0.02065 0.56826
 C167 C 1.04568 -0.03822 0.56307
 O168 O 1.04969 0.05251 0.46104
 O169 O 1.02600 0.02502 0.43113
 C170 C 1.04312 0.04469 0.43641
 O171 O 1.05230 0.05008 0.53815
 O172 O 1.02627 0.02484 0.56810
 C173 C 1.04516 0.04279 0.56279
 O174 O 1.05061 -0.04842 0.46126
 O175 O 1.02604 -0.02179 0.43122
 C176 C 1.04366 -0.04103 0.43659
 Zr177 Zr 1.03747 -0.03294 0.49979
 O178 O 1.08079 -0.03307 0.49724
 O179 O 1.03717 -0.07633 0.50304
 Zr180 Zr 1.03751 0.03641 0.49958
 O181 O 1.08062 0.03212 0.49868
 O182 O 1.04130 0.07969 0.50018
 O183 O 1.04270 0.00186 0.52417
 O184 O 1.04247 0.00171 0.47579
 O185 O 0.95526 -0.04845 0.46102
 O186 O 0.98021 -0.02221 0.43102
 C187 C 0.96248 -0.04129 0.43637
 O188 O 0.95244 0.04964 0.53790
 O189 O 0.97865 0.02471 0.56799
 C190 C 0.95951 0.04240 0.56257
 O191 O 0.95520 0.05196 0.46071
 O192 O 0.98015 0.02545 0.43092
 C193 C 0.96242 0.04461 0.43612
 O194 O 0.95248 -0.04564 0.53815
 O195 O 0.97868 -0.02059 0.56810
 C196 C 0.95958 -0.03832 0.56278
 Zr197 Zr 0.96819 -0.03302 0.49961
 O198 O 0.92490 -0.03352 0.49645
 O199 O 0.96883 -0.07641 0.50289
 Zr200 Zr 0.96807 0.03667 0.49940
 O201 O 0.92478 0.03684 0.49625
 O202 O 0.96826 0.08010 0.50205
 Zr203 Zr 1.00261 0.00199 0.54025
 Zr204 Zr 1.00275 0.00169 0.45891
 O205 O 0.96307 0.00176 0.47577
 O206 O 0.96263 0.00191 0.52382
 O207 O 1.00288 -0.03843 0.47524
 O208 O 1.00270 0.04170 0.52328
 O209 O 1.00278 -0.03789 0.52357
 O210 O 1.00282 0.04189 0.47512
 H211 H 1.05857 0.00174 0.46340
 H212 H 1.00254 0.05775 0.53578
 H213 H 0.94704 0.00173 0.46327
 H214 H 1.00279 -0.05387 0.53617
 H215 H 1.02297 0.08722 0.50436
 H216 H 0.97936 0.08709 0.48656
 H217 H 0.91756 0.02542 0.51137
 H218 H 0.91762 -0.02149 0.51108
 H219 H 0.97937 -0.08360 0.48712
 H220 H 1.02646 -0.08354 0.48740
 H221 H 1.08759 -0.01927 0.51049
 H222 H 1.08808 0.05104 0.49819
 C223 C 1.13414 0.13569 0.27407
 C224 C 1.12297 0.15957 0.26237
 C225 C 1.13497 0.17147 0.23922
 C226 C 1.15857 0.15982 0.22719
 C227 C 1.16985 0.13600 0.23923
 C228 C 1.15776 0.12411 0.26231
 C229 C 1.12098 0.12266 0.29823
 C230 C 1.11821 0.09395 0.29964
 C231 C 1.10552 0.08163 0.32216
 C232 C 1.09537 0.09772 0.34384
 C233 C 1.09830 0.12642 0.34254
 C234 C 1.11090 0.13876 0.31994
 C235 C 1.08167 0.08455 0.36761
 C236 C 1.08697 0.09351 0.39448
 C237 C 1.07439 0.08070 0.41685
 C238 C 1.05614 0.05872 0.41280
 C239 C 1.05065 0.04999 0.38586
 C240 C 1.06329 0.06272 0.36356
 H241 H 1.10460 0.16879 0.27081
 H242 H 1.12553 0.18975 0.23073
 H243 H 1.18803 0.12635 0.23083
 H244 H 1.16704 0.10590 0.27111
 H245 H 1.12552 0.08102 0.28311
 H246 H 1.10383 0.05945 0.32271
 H247 H 1.09049 0.13936 0.35884
 H248 H 1.11297 0.16091 0.31954
 H249 H 1.10124 0.11011 0.39824
 H250 H 1.07910 0.08794 0.43731
 H251 H 1.03665 0.03318 0.38193
 H252 H 1.05849 0.05562 0.34307
 C253 C 0.87040 -0.13294 0.27501
 C254 C 0.84628 -0.12150 0.26415
 C255 C 0.83353 -0.13332 0.24137
 C256 C 0.84455 -0.15701 0.22886
 C257 C 0.86867 -0.16852 0.23999
 C258 C 0.88142 -0.15659 0.26271
 C259 C 0.88413 -0.12013 0.29896
 C260 C 0.91282 -0.11745 0.29967
 C261 C 0.92573 -0.10508 0.32206
 C262 C 0.91026 -0.09523 0.34430
 C263 C 0.88159 -0.09807 0.34368
 C264 C 0.86866 -0.11033 0.32123
 C265 C 0.92394 -0.08179 0.36794
 C266 C 0.91544 -0.08736 0.39489
 C267 C 0.92808 -0.07442 0.41712
 C268 C 0.94945 -0.05552 0.41289
 C269 C 0.95804 -0.05008 0.38590
 C270 C 0.94546 -0.06310 0.36370
 H271 H 0.83749 -0.10309 0.27302
 H272 H 0.81507 -0.12370 0.23357
 H273 H 0.87788 -0.18675 0.23118
 H274 H 0.89981 -0.16606 0.27085
 H275 H 0.92525 -0.12457 0.28270
 H276 H 0.94787 -0.10341 0.32208
 H277 H 0.86911 -0.09043 0.36039
 H278 H 0.84655 -0.11234 0.32138
 H279 H 0.89913 -0.10192 0.39880
 H280 H 0.92097 -0.07913 0.43762
 H281 H 0.97445 -0.03565 0.38186
 H282 H 0.95226 -0.05818 0.34315
 C283 C 0.86478 0.13098 0.72427
 C284 C 0.87541 0.15536 0.73539
 C285 C 0.86326 0.16749 0.75835
 C286 C 0.84004 0.15558 0.77079
 C287 C 0.82934 0.13121 0.75939
 C288 C 0.84160 0.11908 0.73649
 C289 C 0.87800 0.11787 0.70017
 C290 C 0.88152 0.08921 0.69913
 C291 C 0.89433 0.07687 0.67665
 C292 C 0.90383 0.09290 0.65466
 C293 C 0.90012 0.12153 0.65559
 C294 C 0.88740 0.13389 0.67812
 C295 C 0.91785 0.07982 0.63099
 C296 C 0.91234 0.08850 0.60406
 C297 C 0.92573 0.07629 0.58183
 C298 C 0.94503 0.05522 0.58604
 C299 C 0.95048 0.04653 0.61301
 C300 C 0.93701 0.05866 0.63520
 H301 H 0.89347 0.16484 0.72661
 H302 H 0.87226 0.18619 0.76636
 H303 H 0.81149 0.12132 0.76813
 H304 H 0.83273 0.10048 0.72815
 H305 H 0.87473 0.07635 0.71592
 H306 H 0.89665 0.05474 0.67640
 H307 H 0.90746 0.13444 0.63906
 H308 H 0.88474 0.15598 0.67822
 H309 H 0.89743 0.10454 0.60017
 H310 H 0.92100 0.08345 0.56134
 H311 H 0.96522 0.03036 0.61704
 H312 H 0.94194 0.05176 0.65573
 C313 C 1.13654 -0.13063 0.72488
 C314 C 1.12411 -0.15374 0.73682
 C315 C 1.13585 -0.16649 0.75965
 C316 C 1.16029 -0.15638 0.77115
 C317 C 1.17286 -0.13340 0.75903
 C318 C 1.16114 -0.12070 0.73612
 C319 C 1.12366 -0.11675 0.70102
 C320 C 1.13969 -0.10747 0.67895
 C321 C 1.12745 -0.09444 0.65651
 C322 C 1.09893 -0.09028 0.65574
 C323 C 1.08293 -0.09951 0.67784
 C324 C 1.09514 -0.11262 0.70021
 C325 C 1.08583 -0.07646 0.63196
 C326 C 1.06472 -0.05721 0.63603
 C327 C 1.05190 -0.04464 0.61369
 C328 C 1.05984 -0.05109 0.58672
 C329 C 1.08115 -0.07016 0.58266
 C330 C 1.09402 -0.08267 0.60504
 H331 H 1.10535 -0.16210 0.72838
 H332 H 1.12563 -0.18419 0.76837
 H333 H 1.19168 -0.12504 0.76733
 H334 H 1.17105 -0.10276 0.72752
 H335 H 1.16169 -0.11056 0.67891
 H336 H 1.14033 -0.08734 0.63988
 H337 H 1.06088 -0.09686 0.67770
 H338 H 1.08228 -0.11927 0.71703
 H339 H 1.05823 -0.05171 0.65654
 H340 H 1.03566 -0.02996 0.61763
 H341 H 1.08778 -0.07561 0.56218
 H342 H 1.11004 -0.09763 0.60127
 C343 C 0.27468 1.13397 1.13299
 C344 C 0.26326 1.15793 1.12169
 C345 C 0.24030 1.17026 1.13367
 C346 C 0.22818 1.15898 1.15738
 C347 C 0.23994 1.13508 1.16879
 C348 C 0.26283 1.12274 1.15670
 C349 C 0.29870 1.12055 1.11991
 C350 C 0.29981 1.09182 1.11724
 C351 C 0.32224 1.07916 1.10465
 C352 C 0.34413 1.09494 1.09454
 C353 C 0.34310 1.12367 1.09733
 C354 C 0.32060 1.13634 1.10982
 C355 C 0.36788 1.08144 1.08107
 C356 C 0.39477 1.09020 1.08653
 C357 C 0.41713 1.07725 1.07406
 C358 C 0.41308 1.05530 1.05575
 C359 C 0.38613 1.04669 1.05015
 C360 C 0.36381 1.05958 1.06270
 H361 H 0.27178 1.16688 1.10325
 H362 H 0.23203 1.18858 1.12413
 H363 H 0.23146 1.12569 1.18704
 H364 H 0.27142 1.10448 1.16608
 H365 H 0.28312 1.07913 1.12457
 H366 H 0.32258 1.05696 1.10305
 H367 H 0.35955 1.13637 1.08952
 H368 H 0.32043 1.15851 1.11180
 H369 H 0.39855 1.10681 1.10081
 H370 H 0.43759 1.08441 1.07885
 H371 H 0.38221 1.02991 1.03611
 H372 H 0.34330 1.05262 1.05780
 C373 C 0.27572 0.86454 0.86929
 C374 C 0.26301 0.84119 0.88041
 C375 C 0.24012 0.82957 0.86768
 C376 C 0.22921 0.84110 0.84349
 C377 C 0.24215 0.86446 0.83235
 C378 C 0.26510 0.87597 0.84507
 C379 C 0.29979 0.87709 0.88305
 C380 C 0.32223 0.88653 0.86764
 C381 C 0.34474 0.89864 0.88060
 C382 C 0.34526 0.90169 0.90925
 C383 C 0.32287 0.89216 0.92467
 C384 C 0.30042 0.87994 0.91172
 C385 C 0.36891 0.91509 0.92295
 C386 C 0.36462 0.93397 0.94433
 C387 C 0.38681 0.94701 0.95692
 C388 C 0.41383 0.94140 0.94849
 C389 C 0.41811 0.92231 0.92727
 C390 C 0.39589 0.90936 0.91460
 H391 H 0.27095 0.83171 0.89887
 H392 H 0.23099 0.81157 0.87699
 H393 H 0.23453 0.87408 0.81381
 H394 H 0.27428 0.89416 0.83619
 H395 H 0.32245 0.88438 0.84554
 H396 H 0.36157 0.90603 0.86815
 H397 H 0.32280 0.89399 0.94679
 H398 H 0.28332 0.87310 0.92413
 H399 H 0.34406 0.93905 0.95100
 H400 H 0.38272 0.96159 0.97320
 H401 H 0.43863 0.91747 0.92028
 H402 H 0.39983 0.89466 0.89840
 C403 C 0.72617 0.86906 1.13744
 C404 C 0.73877 0.88045 1.16068
 C405 C 0.76190 0.86804 1.17227
 C406 C 0.77314 0.84392 1.16082
 C407 C 0.76030 0.83252 1.13755
 C408 C 0.73712 0.84491 1.12607
 C409 C 0.70184 0.88246 1.12488
 C410 C 0.67966 0.86664 1.11547
 C411 C 0.65698 0.87924 1.10324
 C412 C 0.65602 0.90793 1.10004
 C413 C 0.67813 0.92376 1.10959
 C414 C 0.70076 0.91117 1.12192
 C415 C 0.63224 0.92124 1.08641
 C416 C 0.63630 0.94260 1.06747
 C417 C 0.61400 0.95481 1.05421
 C418 C 0.58708 0.94601 1.05966
 C419 C 0.58301 0.92480 1.07880
 C420 C 0.60535 0.91251 1.09197
 H421 H 0.73058 0.89887 1.17010
 H422 H 0.77094 0.87754 1.19020
 H423 H 0.76816 0.81403 1.12797
 H424 H 0.72804 0.83584 1.10795
 H425 H 0.67979 0.84450 1.11772
 H426 H 0.64037 0.86648 1.09586
 H427 H 0.67786 0.94593 1.10764
 H428 H 0.71765 0.92389 1.12874
 H429 H 0.65679 0.94955 1.06251
 H430 H 0.61793 0.97109 1.03960
 H431 H 0.56257 0.91754 1.08352
 H432 H 0.60157 0.89631 1.10671
 C433 C 0.72457 1.12970 0.86562
 C434 C 0.73675 1.11809 0.84224
 C435 C 0.75940 1.13055 0.82991
 C436 C 0.77058 1.15497 0.84073
 C437 C 0.75819 1.16658 0.86414
 C438 C 0.73548 1.15411 0.87637
 C439 C 0.70067 1.11628 0.87885
 C440 C 0.67850 1.13206 0.88845
 C441 C 0.65611 1.11944 0.90111
 C442 C 0.65544 1.09077 0.90454
 C443 C 0.67758 1.07499 0.89489
 C444 C 0.69992 1.08760 0.88215
 C445 C 0.63182 1.07741 0.91832
 C446 C 0.63608 1.05609 0.93728
 C447 C 0.61390 1.04374 0.95053
 C448 C 0.58690 1.05237 0.94505
 C449 C 0.58265 1.07358 0.92592
 C450 C 0.60486 1.08599 0.91276
 H451 H 0.72856 1.09946 0.83328
 H452 H 0.76812 1.12088 0.81191
 H453 H 0.76604 1.18529 0.87324
 H454 H 0.72671 1.16337 0.89456
 H455 H 0.67838 1.15418 0.88597
 H456 H 0.63947 1.13216 0.90856
 H457 H 0.67752 1.05284 0.89701
 H458 H 0.71682 1.07493 0.87520
 H459 H 0.65664 1.04925 0.94221
 H460 H 0.61795 1.02745 0.96511
 H461 H 0.56214 1.08070 0.92117
 H462 H 0.60093 1.10214 0.89799
 C463 C 0.13252 0.27558 0.13024
 C464 C 0.15703 0.26453 0.11984
 C465 C 0.16940 0.24190 0.13245
 C466 C 0.15757 0.22982 0.15582
 C467 C 0.13317 0.24106 0.16635
 C468 C 0.12078 0.26365 0.15369
 C469 C 0.11911 0.29930 0.11654
 C470 C 0.09050 0.29996 0.11312
 C471 C 0.07787 0.32218 0.10006
 C472 C 0.09354 0.34427 0.09019
 C473 C 0.12215 0.34365 0.09366
 C474 C 0.13480 0.32138 0.10664
 C475 C 0.08007 0.36790 0.07640
 C476 C 0.08849 0.39494 0.08193
 C477 C 0.07554 0.41721 0.06924
 C478 C 0.05390 0.41292 0.05067
 C479 C 0.04563 0.38583 0.04500
 C480 C 0.05854 0.36359 0.05775
 H481 H 0.16640 0.27308 0.10162
 H482 H 0.18816 0.23378 0.12374
 H483 H 0.12351 0.23236 0.18435
 H484 H 0.10209 0.27194 0.16239
 H485 H 0.07790 0.28312 0.12026
 H486 H 0.05576 0.32220 0.09795
 H487 H 0.13479 0.36026 0.08605
 H488 H 0.15686 0.32157 0.10919
 H489 H 0.10482 0.39892 0.09644
 H490 H 0.08242 0.43778 0.07412
 H491 H 0.02909 0.38174 0.03076
 H492 H 0.05184 0.34297 0.05280
 C493 C -0.13677 0.27446 -0.13538
 C494 C -0.12470 0.26211 -0.15846
 C495 C -0.13655 0.23895 -0.17054
 C496 C -0.16073 0.22753 -0.15976
 C497 C -0.17293 0.24006 -0.13681
 C498 C -0.16111 0.26327 -0.12479
 C499 C -0.12377 0.29862 -0.12212
 C500 C -0.13978 0.32073 -0.11271
 C501 C -0.12749 0.34330 -0.09993
 C502 C -0.09893 0.34416 -0.09615
 C503 C -0.08293 0.32208 -0.10563
 C504 C -0.09520 0.29959 -0.11850
 C505 C -0.08582 0.36790 -0.08227
 C506 C -0.06458 0.36370 -0.06327
 C507 C -0.05189 0.38598 -0.05047
 C508 C -0.06010 0.41306 -0.05643
 C509 C -0.08152 0.41726 -0.07529
 C510 C -0.09426 0.39492 -0.08803
 H511 H -0.10613 0.27048 -0.16730
 H512 H -0.12662 0.22991 -0.18824
 H513 H -0.19155 0.23183 -0.12794
 H514 H -0.17073 0.27215 -0.10684
 H515 H -0.16182 0.32068 -0.11543
 H516 H -0.14037 0.35990 -0.09264
 H517 H -0.06084 0.32229 -0.10329
 H518 H -0.08234 0.28274 -0.12526
 H519 H -0.05789 0.34310 -0.05811
 H520 H -0.03554 0.38193 -0.03600
 H521 H -0.08835 0.43783 -0.08037
 H522 H -0.11041 0.39881 -0.10278
 C523 C 0.13146 0.72541 -0.13420
 C524 C 0.12179 0.73661 -0.15893
 C525 C 0.13460 0.75946 -0.17060
 C526 C 0.15746 0.77158 -0.15786
 C527 C 0.16726 0.76020 -0.13323
 C528 C 0.15438 0.73741 -0.12152
 C529 C 0.11754 0.70146 -0.12153
 C530 C 0.11306 0.70059 -0.09308
 C531 C 0.09977 0.67818 -0.08113
 C532 C 0.09072 0.65609 -0.09733
 C533 C 0.09529 0.65690 -0.12576
 C534 C 0.10849 0.67938 -0.13775
 C535 C 0.07662 0.63232 -0.08454
 C536 C 0.08281 0.60532 -0.09274
 C537 C 0.06996 0.58293 -0.08022
 C538 C 0.05057 0.58705 -0.05927
 C539 C 0.04416 0.61410 -0.05134
 C540 C 0.05707 0.63645 -0.06380
 H541 H 0.10398 0.72800 -0.16901
 H542 H 0.12648 0.76768 -0.18958
 H543 H 0.18485 0.76894 -0.12288
 H544 H 0.16252 0.72901 -0.10263
 H545 H 0.11954 0.71742 -0.08009
 H546 H 0.09681 0.67801 -0.05912
 H547 H 0.08835 0.64029 -0.13880
 H548 H 0.11188 0.67936 -0.15969
 H549 H 0.09799 0.60150 -0.10848
 H550 H 0.07540 0.56239 -0.08683
 H551 H 0.02926 0.61808 -0.03536
 H552 H 0.05159 0.65703 -0.05733
 C553 C -0.13355 0.72534 0.13336
 C554 C -0.12248 0.73607 0.15771
 C555 C -0.13416 0.75918 0.17011
 C556 C -0.15725 0.77205 0.15850
 C557 C -0.16846 0.76114 0.13427
 C558 C -0.15671 0.73808 0.12183
 C559 C -0.12073 0.70118 0.11986
 C560 C -0.11751 0.70050 0.09124
 C561 C -0.10503 0.67801 0.07852
 C562 C -0.09557 0.65564 0.09413
 C563 C -0.09897 0.65621 0.12273
 C564 C -0.11136 0.67878 0.13547
 C565 C -0.08206 0.63189 0.08058
 C566 C -0.08797 0.60486 0.08879
 C567 C -0.07546 0.58252 0.07576
 C568 C -0.05671 0.58674 0.05428
 C569 C -0.05066 0.61383 0.04625
 C570 C -0.06322 0.63612 0.05922
 H571 H -0.10445 0.72689 0.16690
 H572 H -0.12496 0.76701 0.18873
 H573 H -0.18626 0.77046 0.12478
 H574 H -0.16589 0.73007 0.10327
 H575 H -0.12427 0.71757 0.07869
 H576 H -0.10296 0.67802 0.05642
 H577 H -0.09168 0.63938 0.13531
 H578 H -0.11380 0.67860 0.15753
 H579 H -0.10261 0.60096 0.10501
 H580 H -0.08061 0.56195 0.08246
 H581 H -0.03624 0.61789 0.02986
 H582 H -0.05796 0.65672 0.05271
 C583 C 1.13629 0.13359 0.72521
 C584 C 1.15973 0.12224 0.73752
 C585 C 1.17148 0.13455 0.76057
 C586 C 1.16002 0.15857 0.77203
 C587 C 1.13657 0.16997 0.75948
 C588 C 1.12491 0.15765 0.73637
 C589 C 1.12357 0.12021 0.70101
 C590 C 1.11383 0.13602 0.67894
 C591 C 1.10161 0.12338 0.65629
 C592 C 1.09875 0.09466 0.65528
 C593 C 1.10858 0.07885 0.67731
 C594 C 1.12088 0.09147 0.69990
 C595 C 1.08528 0.08124 0.63150
 C596 C 1.06673 0.05956 0.63557
 C597 C 1.05379 0.04708 0.61327
 C598 C 1.05916 0.05593 0.58635
 C599 C 1.07785 0.07752 0.58228
 C600 C 1.09072 0.09008 0.60462
 H601 H 1.16917 0.10390 0.72916
 H602 H 1.18955 0.12506 0.76939
 H603 H 1.12700 0.18838 0.76751
 H604 H 1.10665 0.16670 0.72750
 H605 H 1.11585 0.15818 0.67909
 H606 H 1.09401 0.13611 0.63974
 H607 H 1.10691 0.05666 0.67700
 H608 H 1.12794 0.07876 0.71670
 H609 H 1.06187 0.05252 0.65606
 H610 H 1.03953 0.03050 0.61720
 H611 H 1.08249 0.08483 0.56183
 H612 H 1.10516 0.10653 0.60085
 C613 C 0.86707 -0.12896 0.72440
 C614 C 0.87828 -0.15319 0.73533
 C615 C 0.86641 -0.16578 0.75817
 C616 C 0.84288 -0.15448 0.77067
 C617 C 0.83161 -0.13024 0.75947
 C618 C 0.84360 -0.11765 0.73669
 C619 C 0.87994 -0.11542 0.70038
 C620 C 0.88288 -0.08670 0.69956
 C621 C 0.89535 -0.07397 0.67711
 C622 C 0.90504 -0.08967 0.65495
 C623 C 0.90193 -0.11837 0.65568
 C624 C 0.88957 -0.13111 0.67818
 C625 C 0.91863 -0.07620 0.63128
 C626 C 0.91302 -0.08478 0.60435
 C627 C 0.92612 -0.07236 0.58209
 C628 C 0.94523 -0.05115 0.58629
 C629 C 0.95071 -0.04249 0.61325
 C630 C 0.93752 -0.05484 0.63548
 H631 H 0.89656 -0.16220 0.72647
 H632 H 0.87585 -0.18434 0.76602
 H633 H 0.81351 -0.12081 0.76827
 H634 H 0.83430 -0.09917 0.72850
 H635 H 0.87590 -0.07409 0.71647
 H636 H 0.89724 -0.05180 0.67701
 H637 H 0.90943 -0.13102 0.63902
 H638 H 0.88735 -0.15325 0.67812
 H639 H 0.89831 -0.10097 0.60047
 H640 H 0.92137 -0.07950 0.56161
 H641 H 0.96530 -0.02622 0.61726
 H642 H 0.94248 -0.04800 0.65601
 C643 C 1.13399 -0.13380 0.27472
 C644 C 1.15766 -0.12276 0.26262
 C645 C 1.16938 -0.13514 0.23956
 C646 C 1.15763 -0.15888 0.22789
 C647 C 1.13396 -0.16996 0.24025
 C648 C 1.12235 -0.15760 0.26337
 C649 C 1.12123 -0.12033 0.29888
 C650 C 1.11117 -0.13611 0.32081
 C651 C 1.09879 -0.12340 0.34335
 C652 C 1.09608 -0.09467 0.34437
 C653 C 1.10625 -0.07890 0.32249
 C654 C 1.11873 -0.09159 0.30002
 C655 C 1.08251 -0.08115 0.36805
 C656 C 1.06414 -0.05930 0.36385
 C657 C 1.05144 -0.04642 0.38608
 C658 C 1.05689 -0.05505 0.41307
 C659 C 1.07521 -0.07699 0.41726
 C660 C 1.08783 -0.08994 0.39498
 H661 H 1.16727 -0.10462 0.27113
 H662 H 1.18762 -0.12591 0.23089
 H663 H 1.12416 -0.18816 0.23206
 H664 H 1.10392 -0.16639 0.27207
 H665 H 1.11304 -0.15828 0.32062
 H666 H 1.09095 -0.13610 0.35980
 H667 H 1.10471 -0.05670 0.32283
 H668 H 1.12605 -0.07891 0.28331
 H669 H 1.05935 -0.05232 0.34332
 H670 H 1.03740 -0.02964 0.38205
 H671 H 1.07988 -0.08416 0.43775
 H672 H 1.10210 -0.10656 0.39885
 C673 C 0.86964 0.13515 0.27440
 C674 C 0.84603 0.12324 0.26303
 C675 C 0.83323 0.13509 0.24028
 C676 C 0.84380 0.15916 0.22818
 C677 C 0.86742 0.17113 0.23980
 C678 C 0.88011 0.15928 0.26263
 C679 C 0.88345 0.12224 0.29827
 C680 C 0.89338 0.13841 0.31998
 C681 C 0.90638 0.12616 0.34243
 C682 C 0.90987 0.09751 0.34356
 C683 C 0.89998 0.08137 0.32182
 C684 C 0.88687 0.09359 0.29946
 C685 C 0.92375 0.08443 0.36730
 C686 C 0.94256 0.06292 0.36322
 C687 C 0.95526 0.05020 0.38553
 C688 C 0.94938 0.05863 0.41249
 C689 C 0.93073 0.08031 0.41655
 C690 C 0.91809 0.09310 0.39419
 H691 H 0.83727 0.10484 0.27189
 H692 H 0.81507 0.12518 0.23219
 H693 H 0.87633 0.18961 0.23125
 H694 H 0.89846 0.16876 0.27080
 H695 H 0.89082 0.16051 0.31974
 H696 H 0.91399 0.13914 0.35878
 H697 H 0.90211 0.05922 0.32225
 H698 H 0.87969 0.08062 0.28291
 H699 H 0.94761 0.05605 0.34271
 H700 H 0.96959 0.03364 0.38160
 H701 H 0.92572 0.08733 0.43702
 H702 H 0.90349 0.10945 0.39796
 C703 C 0.13372 0.27532 -0.13421
 C704 C 0.12255 0.26333 -0.15789
 C705 C 0.13499 0.24045 -0.16997
 C706 C 0.15893 0.22884 -0.15858
 C707 C 0.17016 0.24111 -0.13492
 C708 C 0.15773 0.26405 -0.12295
 C709 C 0.12018 0.29927 -0.12107
 C710 C 0.13579 0.32131 -0.11095
 C711 C 0.12301 0.34371 -0.09832
 C712 C 0.09435 0.34448 -0.09540
 C713 C 0.07874 0.32246 -0.10556
 C714 C 0.09151 0.30014 -0.11830
 C715 C 0.08075 0.36811 -0.08176
 C716 C 0.05903 0.36378 -0.06335
 C717 C 0.04600 0.38598 -0.05070
 C718 C 0.05432 0.41309 -0.05623
 C719 C 0.07615 0.41741 -0.07455
 C720 C 0.08925 0.39516 -0.08713
 H721 H 0.10424 0.27180 -0.16723
 H722 H 0.12564 0.23185 -0.18819
 H723 H 0.18852 0.23296 -0.12539
 H724 H 0.16664 0.27267 -0.10453
 H725 H 0.15790 0.32133 -0.11301
 H726 H 0.13559 0.36027 -0.09049
 H727 H 0.05660 0.32262 -0.10387
 H728 H 0.07895 0.28334 -0.12564
 H729 H 0.05227 0.34315 -0.05852
 H730 H 0.02931 0.38186 -0.03665
 H731 H 0.08308 0.43800 -0.07931
 H732 H 0.10575 0.39915 -0.10144
 C733 C -0.13478 0.27476 0.13203
 C734 C -0.15896 0.26306 0.12167
 C735 C -0.17071 0.24017 0.13435
 C736 C -0.15859 0.22839 0.15784
 C737 C -0.13449 0.24044 0.16833
 C738 C -0.12275 0.26327 0.15554
 C739 C -0.12193 0.29865 0.11816
 C740 C -0.09336 0.29981 0.11467
 C741 C -0.08123 0.32216 0.10143
 C742 C -0.09739 0.34391 0.09146
 C743 C -0.12596 0.34281 0.09503
 C744 C -0.13811 0.32039 0.10818
 C745 C -0.08443 0.36763 0.07741
 C746 C -0.09323 0.39460 0.08280
 C747 C -0.08066 0.41694 0.06992
 C748 C -0.05906 0.41280 0.05127
 C749 C -0.05045 0.38576 0.04570
 C750 C -0.06296 0.36346 0.05865
 H751 H -0.16854 0.27130 0.10340
 H752 H -0.18923 0.23167 0.12552
 H753 H -0.12448 0.23224 0.18639
 H754 H -0.10431 0.27208 0.16422
 H755 H -0.08038 0.28325 0.12188
 H756 H -0.05913 0.32256 0.09925
 H757 H -0.13896 0.35915 0.08735
 H758 H -0.16016 0.32018 0.11078
 H759 H -0.10954 0.39846 0.09737
 H760 H -0.08780 0.43747 0.07470
 H761 H -0.03393 0.38176 0.03141
 H762 H -0.05598 0.34289 0.05380
 C763 C -0.13211 0.72682 -0.13777
 C764 C -0.15608 0.73804 -0.12639
 C765 C -0.16825 0.76136 -0.13789
 C766 C -0.15679 0.77408 -0.16119
 C767 C -0.13285 0.76257 -0.17267
 C768 C -0.12067 0.73930 -0.16106
 C769 C -0.11889 0.70238 -0.12517
 C770 C -0.09025 0.70112 -0.12225
 C771 C -0.07782 0.67839 -0.10988
 C772 C -0.09375 0.65636 -0.10025
 C773 C -0.12237 0.65750 -0.10341
 C774 C -0.13481 0.68029 -0.11568
 C775 C -0.08058 0.63248 -0.08660
 C776 C -0.08944 0.60557 -0.09212
 C777 C -0.07721 0.58313 -0.07900
 C778 C -0.05594 0.58713 -0.05995
 C779 C -0.04704 0.61408 -0.05452
 C780 C -0.05919 0.63646 -0.06772
 H781 H -0.16519 0.72905 -0.10824
 H782 H -0.18661 0.76943 -0.12830
 H783 H -0.12332 0.77152 -0.19062
 H784 H -0.10238 0.73090 -0.17049
 H785 H -0.07746 0.71793 -0.12913
 H786 H -0.05570 0.67797 -0.10797
 H787 H -0.13520 0.64096 -0.09597
 H788 H -0.15691 0.68057 -0.11789
 H789 H -0.10568 0.60185 -0.10680
 H790 H -0.08455 0.56267 -0.08370
 H791 H -0.03070 0.61794 -0.03999
 H792 H -0.05214 0.65697 -0.06280
 C793 C 0.12886 0.72431 0.13314
 C794 C 0.15339 0.73478 0.12227
 C795 C 0.16613 0.75751 0.13425
 C796 C 0.15467 0.77027 0.15745
 C797 C 0.13020 0.75967 0.16842
 C798 C 0.11743 0.73698 0.15637
 C799 C 0.11515 0.70039 0.12017
 C800 C 0.08652 0.69998 0.11690
 C801 C 0.07364 0.67762 0.10436
 C802 C 0.08911 0.65515 0.09491
 C803 C 0.11772 0.65549 0.09833
 C804 C 0.13060 0.67789 0.11078
 C805 C 0.07549 0.63154 0.08130
 C806 C 0.08377 0.60447 0.08701
 C807 C 0.07123 0.58226 0.07390
 C808 C 0.05016 0.58663 0.05469
 C809 C 0.04177 0.61373 0.04911
 C810 C 0.05427 0.63591 0.06230
 H811 H 0.16252 0.72565 0.10418
 H812 H 0.18493 0.76513 0.12522
 H813 H 0.12080 0.76892 0.18629
 H814 H 0.09872 0.72917 0.16541
 H815 H 0.07409 0.71713 0.12369
 H816 H 0.05154 0.67782 0.10225
 H817 H 0.13021 0.63860 0.09101
 H818 H 0.15267 0.67750 0.11325
 H819 H 0.09983 0.60044 0.10182
 H820 H 0.07816 0.56167 0.07873
 H821 H 0.02561 0.61787 0.03444
 H822 H 0.04765 0.65655 0.05725
 C823 C 0.27586 1.13370 0.86874
 C824 C 0.26386 1.12170 0.84545
 C825 C 0.24119 1.13392 0.83285
 C826 C 0.22993 1.15840 0.84328
 C827 C 0.24207 1.17049 0.86649
 C828 C 0.26480 1.15829 0.87904
 C829 C 0.29965 1.12043 0.88239
 C830 C 0.32174 1.13626 0.89199
 C831 C 0.34408 1.12371 0.90490
 C832 C 0.34475 1.09507 0.90860
 C833 C 0.32264 1.07925 0.89901
 C834 C 0.30037 1.09178 0.88602
 C835 C 0.36839 1.08169 0.92238
 C836 C 0.36416 1.06032 0.94126
 C837 C 0.38639 1.04743 0.95398
 C838 C 0.41341 1.05558 0.94804
 C839 C 0.41763 1.07708 0.92926
 C840 C 0.39536 1.09001 0.91660
 H841 H 0.27216 1.10295 0.83683
 H842 H 0.23244 1.12407 0.81497
 H843 H 0.23394 1.18932 0.87511
 H844 H 0.27342 1.16785 0.89714
 H845 H 0.32187 1.15834 0.88927
 H846 H 0.36070 1.13645 0.91229
 H847 H 0.32271 1.05712 0.90130
 H848 H 0.28352 1.07907 0.87910
 H849 H 0.34360 1.05371 0.94641
 H850 H 0.38234 1.03102 0.96841
 H851 H 0.43814 1.08387 0.92420
 H852 H 0.39926 1.10623 0.90191
 C853 C 0.27457 0.86362 1.13179
 C854 C 0.26408 0.87450 1.15634
 C855 C 0.24095 0.86293 1.16868
 C856 C 0.22780 0.84015 1.15679
 C857 C 0.23844 0.82915 1.13233
 C858 C 0.26153 0.84078 1.11997
 C859 C 0.29883 0.87624 1.11842
 C860 C 0.29956 0.87980 1.08983
 C861 C 0.32216 0.89213 1.07727
 C862 C 0.34458 0.90110 1.09300
 C863 C 0.34396 0.89733 1.12156
 C864 C 0.32131 0.88508 1.13414
 C865 C 0.36835 0.91469 1.07970
 C866 C 0.39528 0.90865 1.08802
 C867 C 0.41761 0.92174 1.07569
 C868 C 0.41348 0.94126 1.05484
 C869 C 0.38651 0.94720 1.04646
 C870 C 0.36423 0.93405 1.05872
 H871 H 0.27349 0.89229 1.16577
 H872 H 0.23332 0.87197 1.18748
 H873 H 0.22891 0.81158 1.12262
 H874 H 0.26933 0.83173 1.10124
 H875 H 0.28244 0.87345 1.07720
 H876 H 0.32217 0.89451 1.05520
 H877 H 0.36081 0.90426 1.13424
 H878 H 0.32145 0.88237 1.15617
 H879 H 0.39911 0.89359 1.10392
 H880 H 0.43809 0.91664 1.08262
 H881 H 0.38254 0.96213 1.03047
 H882 H 0.34371 0.93938 1.05209
 C883 C 0.72488 1.13146 1.13620
 C884 C 0.73792 1.11997 1.15920
 C885 C 0.76089 1.13264 1.17073
 C886 C 0.77141 1.15706 1.15949
 C887 C 0.75823 1.16863 1.13657
 C888 C 0.73522 1.15599 1.12509
 C889 C 0.70077 1.11773 1.12367
 C890 C 0.67817 1.13321 1.11458
 C891 C 0.65563 1.12027 1.10249
 C892 C 0.65524 1.09159 1.09913
 C893 C 0.67778 1.07611 1.10833
 C894 C 0.70027 1.08902 1.12050
 C895 C 0.63157 1.07791 1.08573
 C896 C 0.63584 1.05665 1.06671
 C897 C 0.61365 1.04407 1.05369
 C898 C 0.58662 1.05242 1.05945
 C899 C 0.58235 1.07353 1.07867
 C900 C 0.60459 1.08617 1.09162
 H901 H 0.73022 1.10128 1.16843
 H902 H 0.77044 1.12317 1.18842
 H903 H 0.76577 1.18740 1.12735
 H904 H 0.72579 1.16516 1.10718
 H905 H 0.67785 1.15533 1.11698
 H906 H 0.63869 1.13277 1.09536
 H907 H 0.67795 1.05395 1.10626
 H908 H 0.71748 1.07657 1.12706
 H909 H 0.65641 1.05005 1.06151
 H910 H 0.61773 1.02789 1.03900
 H911 H 0.56182 1.08043 1.08363
 H912 H 0.60065 1.10227 1.10643
 C913 C 0.72589 0.86884 0.86631
 C914 C 0.73852 0.84566 0.87798
 C915 C 0.76140 0.83365 0.86554
 C916 C 0.77225 0.84462 0.84118
 C917 C 0.75950 0.86775 0.82945
 C918 C 0.73657 0.87968 0.84185
 C919 C 0.70185 0.88187 0.87975
 C920 C 0.67946 0.89111 0.86410
 C921 C 0.65695 0.90358 0.87678
 C922 C 0.65640 0.90720 0.90536
 C923 C 0.67878 0.89792 0.92100
 C924 C 0.70123 0.88535 0.90834
 C925 C 0.63263 0.92065 0.91884
 C926 C 0.63671 0.93971 0.94008
 C927 C 0.61438 0.95217 0.95302
 C928 C 0.58739 0.94579 0.94508
 C929 C 0.58332 0.92683 0.92371
 C930 C 0.60570 0.91444 0.91071
 H931 H 0.73055 0.83665 0.89664
 H932 H 0.77064 0.81582 0.87513
 H933 H 0.76730 0.87677 0.81072
 H934 H 0.72746 0.89773 0.83255
 H935 H 0.67925 0.88848 0.84206
 H936 H 0.64011 0.91073 0.86417
 H937 H 0.67882 0.90016 0.94309
 H938 H 0.71829 0.87869 0.92091
 H939 H 0.65724 0.94520 0.94653
 H940 H 0.61831 0.96675 0.96933
 H941 H 0.56283 0.92142 0.91707
 H942 H 0.60191 0.89962 0.89459
   
