data_POSCAR
  _audit_creation_date              2014-09-24
  _audit_creation_method            'ToBaCCo'
  _symmetry_space_group_name_H-M    'P1'
  _symmetry_Int_Tables_number       1
  _symmetry_cell_setting            triclinic
  loop_
  _symmetry_equiv_pos_as_xyz
 x,y,z
_cell_length_a 60.0632
_cell_length_b 61.1301
_cell_length_c 58.9997
_cell_angle_alpha 92.576200
_cell_angle_beta 89.956600
_cell_angle_gamma 93.138100
loop_
  _atom_site_label
  _atom_site_type_symbol
  _atom_site_fract_x
  _atom_site_fract_y
  _atom_site_fract_z
C1 C 0.21579 0.52560 1.03243
 H2 H 0.21572 0.53818 1.02010
 C3 C 0.20073 0.52591 1.05045
 H4 H 0.18990 0.53945 1.05191
 C5 C 0.23087 0.49341 1.04518
 H6 H 0.24218 0.48038 1.04270
 C7 C 0.21614 0.49305 1.06350
 H8 H 0.21646 0.47930 1.07435
 N9 N 0.23050 0.50956 1.03015
 C10 C 0.28381 0.53611 0.98736
 H11 H 0.28401 0.52321 0.97421
 C12 C 0.29904 0.55415 0.98673
 H13 H 0.31110 0.55491 0.97310
 C14 C 0.26830 0.55028 1.02155
 H15 H 0.25647 0.54859 1.03524
 C16 C 0.28326 0.56860 1.02160
 H17 H 0.28250 0.58104 1.03519
 Zn18 Zn 0.24894 0.50936 1.00412
 N19 N 0.26870 0.53460 1.00447
 C20 C 0.23130 0.52469 0.96333
 N21 N 0.22976 0.50870 0.97865
 C22 C 0.21356 0.49228 0.97695
 C23 C 0.19823 0.49131 0.95911
 C24 C 0.21631 0.52435 0.94521
 C25 C 0.28179 0.48300 1.01984
 C26 C 0.29516 0.46503 1.02005
 C27 C 0.27713 0.45066 0.98551
 C28 C 0.26408 0.46889 0.98598
 N29 N 0.26642 0.48447 1.00315
 H30 H 0.24388 0.53794 0.96529
 H31 H 0.21252 0.47996 0.98956
 H32 H 0.18561 0.47797 0.95793
 H33 H 0.21757 0.53741 0.93340
 H34 H 0.28358 0.49582 1.03307
 H35 H 0.30737 0.46424 1.03343
 H36 H 0.27474 0.43825 0.97192
 H37 H 0.25213 0.47055 0.97259
 C38 C 0.29889 0.57073 1.00400
 C39 C 0.20045 0.50935 1.06644
 C40 C 0.29286 0.44850 1.00276
 C41 C 0.19946 0.50753 0.94297
 C42 C 0.78519 0.50775 -0.03256
 H43 H 0.78648 0.52023 -0.01896
 C44 C 0.79988 0.50874 -0.05083
 H45 H 0.81258 0.52200 -0.05110
 C46 C 0.76750 0.47487 -0.04817
 H47 H 0.75503 0.46157 -0.04690
 C48 C 0.78193 0.47519 -0.06677
 H49 H 0.78016 0.46225 -0.07990
 N50 N 0.76925 0.49115 -0.03166
 C51 C 0.71836 0.51857 0.01226
 H52 H 0.71712 0.50660 0.02524
 C53 C 0.70480 0.53644 0.01331
 H54 H 0.69302 0.53804 0.02710
 C55 C 0.73474 0.53053 -0.02189
 H56 H 0.74618 0.52805 -0.03576
 C57 C 0.72149 0.54859 -0.02153
 H58 H 0.72328 0.56007 -0.03495
 Zn59 Zn 0.75078 0.49128 -0.00569
 N60 N 0.73314 0.51608 -0.00501
 C61 C 0.76988 0.50850 0.03616
 N62 N 0.77001 0.49215 0.01976
 C63 C 0.78489 0.47620 0.02030
 C64 C 0.80024 0.47609 0.03801
 C65 C 0.78495 0.50901 0.05424
 C66 C 0.71563 0.46316 -0.02261
 C67 C 0.70029 0.44513 -0.02306
 C68 C 0.71718 0.43313 0.01105
 C69 C 0.73219 0.45138 0.01085
 N70 N 0.73124 0.46589 -0.00590
 H71 H 0.75833 0.52136 0.03514
 H72 H 0.78481 0.46356 0.00686
 H73 H 0.81173 0.46306 0.03826
 H74 H 0.78480 0.52229 0.06700
 H75 H 0.71499 0.47517 -0.03549
 H76 H 0.68775 0.44347 -0.03629
 H77 H 0.71833 0.42169 0.02443
 H78 H 0.74439 0.45402 0.02425
 C79 C 0.70629 0.55177 -0.00375
 C80 C 0.79833 0.49234 -0.06829
 C81 C 0.70088 0.42985 -0.00600
 C82 C 0.80044 0.49267 0.05528
 C83 C -0.02956 0.27534 0.48743
 H84 H -0.04209 0.27703 0.50048
 C85 C -0.02974 0.28838 0.46862
 H86 H -0.04233 0.30032 0.46812
 C87 C 0.00280 0.25867 0.47397
 H88 H 0.01561 0.24722 0.47619
 C89 C 0.00334 0.27141 0.45490
 H90 H 0.01623 0.26857 0.44249
 N91 N -0.01358 0.26071 0.48967
 C92 C -0.04264 0.21187 0.53439
 H93 H -0.03017 0.21240 0.54766
 C94 C -0.06095 0.19679 0.53497
 H95 H -0.06236 0.18564 0.54871
 C96 C -0.05524 0.22506 0.49976
 H97 H -0.05279 0.23579 0.48584
 C98 C -0.07379 0.21028 0.49968
 H99 H -0.08564 0.21017 0.48586
 Zn100 Zn -0.01413 0.24453 0.51630
 N101 N -0.04014 0.22563 0.51698
 C102 C -0.02945 0.26531 0.55734
 N103 N -0.01336 0.26524 0.54109
 C104 C 0.00352 0.28098 0.54119
 C105 C 0.00482 0.29760 0.55817
 C106 C -0.02879 0.28167 0.57470
 C107 C 0.01236 0.21066 0.50087
 C108 C 0.03068 0.19754 0.50029
 C109 C 0.04523 0.21773 0.53369
 C110 C 0.02665 0.23048 0.53361
 N111 N 0.01087 0.22700 0.51712
 H112 H -0.04301 0.25294 0.55667
 H113 H 0.01593 0.28066 0.52789
 H114 H 0.01852 0.30986 0.55801
 H115 H -0.04192 0.28174 0.58728
 H116 H -0.00063 0.20800 0.48820
 H117 H 0.03157 0.18464 0.48719
 H118 H 0.05787 0.22110 0.54665
 H119 H 0.02495 0.24322 0.54668
 C120 C -0.07675 0.19575 0.51735
 C121 C -0.01307 0.28672 0.45180
 C122 C 0.04752 0.20112 0.51675
 C123 C -0.01156 0.29819 0.57515
 C124 C 0.99899 0.72135 0.50905
 H125 H 0.98639 0.71883 0.49596
 C126 C 0.99844 0.70804 0.52766
 H127 H 0.98542 0.69515 0.52868
 C128 C 1.03165 0.74084 0.52315
 H129 H 1.04471 0.75346 0.52121
 C130 C 1.03176 0.72787 0.54204
 H131 H 1.04473 0.73095 0.55469
 N132 N 1.01523 0.73756 0.50729
 C133 C 0.98537 0.78452 0.46461
 H134 H 0.99747 0.78563 0.45105
 C135 C 0.96669 0.79717 0.46449
 H136 H 0.96459 0.80813 0.45083
 C137 C 0.97390 0.76944 0.49930
 H138 H 0.97689 0.75889 0.51304
 C139 C 0.95504 0.78179 0.49988
 H140 H 0.94348 0.78020 0.51388
 Zn141 Zn 1.01448 0.75459 0.48133
 N142 N 0.98851 0.77084 0.48173
 C143 C 0.99743 0.73312 0.44061
 N144 N 1.01452 0.73474 0.45580
 C145 C 1.03150 0.72093 0.45426
 C146 C 1.03175 0.70467 0.43691
 C147 C 0.99699 0.71705 0.42298
 C148 C 1.04101 0.79065 0.49789
 C149 C 1.05907 0.80602 0.49882
 C150 C 1.07341 0.78889 0.46453
 C151 C 1.05507 0.77381 0.46428
 N152 N 1.03948 0.77478 0.48099
 H153 H 0.98378 0.74384 0.44247
 H154 H 1.04471 0.72237 0.46679
 H155 H 1.04545 0.69388 0.43598
 H156 H 0.98293 0.71562 0.41143
 H157 H 1.02816 0.79127 0.51074
 H158 H 1.05989 0.81860 0.51236
 H159 H 1.08584 0.78765 0.45130
 H160 H 1.05334 0.76137 0.45072
 C161 C 0.95123 0.79591 0.48233
 C162 C 1.01492 0.71128 0.54453
 C163 C 1.07565 0.80520 0.48205
 C164 C 1.01420 0.70241 0.42111
 C165 C 0.47500 -0.00643 0.28065
 H166 H 0.48699 -0.01900 0.28060
 C167 C 0.45753 -0.00676 0.29630
 H168 H 0.45627 -0.01964 0.30832
 C169 C 0.46283 0.02624 0.26573
 H170 H 0.46517 0.03931 0.25411
 C171 C 0.44515 0.02655 0.28109
 H172 H 0.43376 0.03966 0.28074
 N173 N 0.47728 0.00986 0.26573
 C174 C 0.51760 -0.01572 0.21017
 H175 H 0.53060 -0.00276 0.20990
 C176 C 0.51788 -0.03342 0.19442
 H177 H 0.53179 -0.03385 0.18282
 C178 C 0.48467 -0.03065 0.22680
 H179 H 0.47148 -0.02926 0.23915
 C180 C 0.48428 -0.04872 0.21141
 H181 H 0.47030 -0.06057 0.21220
 Zn182 Zn 0.50245 0.01017 0.24637
 N183 N 0.50132 -0.01475 0.22608
 C184 C 0.54212 -0.00633 0.26333
 N185 N 0.52795 0.01026 0.26523
 C186 C 0.53063 0.02635 0.28184
 C187 C 0.54809 0.02611 0.29744
 C188 C 0.55979 -0.00721 0.27855
 C189 C 0.48644 0.03616 0.21317
 C190 C 0.48589 0.05382 0.19905
 C191 C 0.52012 0.06897 0.21637
 C192 C 0.51998 0.05100 0.23024
 N193 N 0.50317 0.03517 0.22854
 H194 H 0.53948 -0.01923 0.25035
 H195 H 0.51886 0.03911 0.28325
 H196 H 0.54960 0.03875 0.31089
 H197 H 0.57086 -0.02056 0.27674
 H198 H 0.47351 0.02313 0.21190
 H199 H 0.47252 0.05416 0.18679
 H200 H 0.53347 0.08156 0.21813
 H201 H 0.53335 0.04970 0.24225
 C202 C 0.50108 -0.05053 0.19472
 C203 C 0.44239 0.00997 0.29675
 C204 C 0.50285 0.07057 0.20057
 C205 C 0.56282 0.00902 0.29606
 C206 C 0.52544 -0.02568 0.72020
 H207 H 0.51220 -0.03840 0.71895
 C208 C 0.54339 -0.02622 0.70520
 H209 H 0.54376 -0.03939 0.69233
 C210 C 0.54041 0.00744 0.73793
 H211 H 0.53901 0.02072 0.75047
 C212 C 0.55867 0.00758 0.72322
 H213 H 0.57139 0.02080 0.72492
 N214 N 0.52434 -0.00912 0.73626
 C215 C 0.48023 -0.03614 0.78813
 H216 H 0.46766 -0.02410 0.78889
 C217 C 0.47892 -0.05358 0.80266
 H218 H 0.46508 -0.05503 0.81436
 C219 C 0.51358 -0.04870 0.77196
 H220 H 0.52734 -0.04649 0.76036
 C221 C 0.51292 -0.06640 0.78616
 H222 H 0.52627 -0.07761 0.78528
 Zn223 Zn 0.49862 -0.00929 0.75486
 N224 N 0.49729 -0.03408 0.77308
 C225 C 0.45716 -0.02590 0.73528
 N226 N 0.47372 -0.00980 0.73513
 C227 C 0.47356 0.00640 0.72009
 C228 C 0.45597 0.00719 0.70477
 C229 C 0.43924 -0.02576 0.72019
 C230 C 0.51549 0.01875 0.79055
 C231 C 0.51613 0.03680 0.80598
 C232 C 0.48271 0.04876 0.78871
 C233 C 0.48272 0.03051 0.77362
 N234 N 0.49906 0.01603 0.77466
 H235 H 0.45782 -0.03889 0.74703
 H236 H 0.48716 0.01875 0.72005
 H237 H 0.45627 0.02016 0.69285
 H238 H 0.42603 -0.03850 0.72077
 H239 H 0.52804 0.00676 0.79130
 H240 H 0.52920 0.03853 0.81866
 H241 H 0.46969 0.06021 0.78740
 H242 H 0.46950 0.02787 0.76124
 C243 C 0.49545 -0.06899 0.80183
 C244 C 0.56032 -0.00942 0.70656
 C245 C 0.49955 0.05209 0.80520
 C246 C 0.43844 -0.00897 0.70475
 C247 C 0.23758 0.04510 0.50505
 C248 C 0.25201 0.04113 0.52578
 C249 C 0.26371 0.02262 0.52384
 C250 C 0.26026 0.00996 0.50076
 C251 C 0.25429 0.04539 0.48536
 C252 C 0.26598 0.02693 0.48274
 C253 C 0.22324 0.02385 0.50098
 C254 C 0.23492 0.00547 0.49870
 H255 H 0.25402 0.05276 0.54008
 H256 H 0.26947 -0.00521 0.49874
 H257 H 0.25723 0.05940 0.47498
 H258 H 0.20519 0.02347 0.50051
 C259 C 0.76293 -0.04624 0.49750
 C260 C 0.74784 -0.04510 0.51851
 C261 C 0.73629 -0.02652 0.52078
 C262 C 0.74052 -0.01088 0.50120
 C263 C 0.74688 -0.04362 0.47771
 C264 C 0.73534 -0.02502 0.47930
 C265 C 0.77745 -0.02489 0.49895
 C266 C 0.76592 -0.00639 0.50085
 H267 H 0.74527 -0.05851 0.52974
 H268 H 0.73140 0.00439 0.50261
 H269 H 0.74433 -0.05590 0.46404
 H270 H 0.79550 -0.02461 0.49899
 C271 C 0.45815 0.26732 1.00263
 C272 C 0.46053 0.25119 0.98216
 C273 C 0.47973 0.24020 0.98193
 C274 C 0.49464 0.24607 1.00291
 C275 C 0.46023 0.25293 1.02309
 C276 C 0.47939 0.24197 1.02356
 C277 C 0.47956 0.28202 1.00285
 C278 C 0.49864 0.27110 1.00303
 H279 H 0.44734 0.24758 0.96988
 H280 H 0.51041 0.23753 1.00330
 H281 H 0.44709 0.25071 1.03547
 H282 H 0.47947 0.29971 1.00233
 C283 C 0.54124 0.73338 -0.00170
 C284 C 0.53809 0.74693 -0.02265
 C285 C 0.51896 0.75804 -0.02261
 C286 C 0.50491 0.75490 -0.00091
 C287 C 0.54007 0.75030 0.01821
 C288 C 0.52102 0.76145 0.01893
 C289 C 0.51979 0.71890 -0.00011
 C290 C 0.50079 0.72997 0.00037
 H291 H 0.55087 0.74906 -0.03539
 H292 H 0.48920 0.76356 -0.00021
 H293 H 0.55367 0.75387 0.03007
 H294 H 0.51978 0.70119 0.00017
 C295 C 0.99496 0.45439 0.26804
 C296 C 0.97541 0.45536 0.25146
 C297 C 0.97574 0.47389 0.23942
 C298 C 0.99620 0.48967 0.24470
 C299 C 1.01562 0.45710 0.25285
 C300 C 1.01661 0.47569 0.24085
 C301 C 0.99475 0.47576 0.28253
 C302 C 0.99542 0.49422 0.27049
 H303 H 0.96295 0.44204 0.24873
 H304 H 0.99648 0.50488 0.23518
 H305 H 1.02770 0.44470 0.25067
 H306 H 0.99485 0.47614 0.30091
 C307 C 0.00463 0.54458 0.73004
 C308 C -0.01627 0.54183 0.74492
 C309 C -0.01734 0.52330 0.75702
 C310 C 0.00319 0.50942 0.75359
 C311 C 0.02393 0.54377 0.74693
 C312 C 0.02351 0.52532 0.75909
 C313 C 0.00514 0.52313 0.71570
 C314 C 0.00435 0.50474 0.72785
 H315 H -0.02842 0.55416 0.74696
 H316 H 0.00284 0.49427 0.76322
 H317 H 0.03638 0.55712 0.74961
 H318 H 0.00520 0.52266 0.69732
 C319 C 0.09527 0.16800 0.53573
 C320 C 0.10523 0.16244 0.51496
 C321 C 0.09637 0.16952 0.49480
 C322 C 0.07760 0.18207 0.49537
 C323 C 0.06743 0.18772 0.51616
 C324 C 0.07651 0.18057 0.53635
 C325 C 0.12429 0.14914 0.51426
 C326 C 0.14005 0.13775 0.51354
 C327 C 0.15819 0.12402 0.51254
 C328 C 0.17335 0.11189 0.51155
 C329 C 0.19093 0.09681 0.51019
 C330 C 0.19934 0.09012 0.48905
 C331 C 0.21504 0.07408 0.48751
 C332 C 0.22298 0.06471 0.50716
 C333 C 0.21420 0.07154 0.52834
 C334 C 0.19849 0.08759 0.52983
 H335 H 0.10193 0.16250 0.55143
 H336 H 0.10395 0.16531 0.47863
 H337 H 0.07120 0.18758 0.47958
 H338 H 0.06890 0.18442 0.55258
 H339 H 0.19325 0.09681 0.47368
 H340 H 0.22033 0.06848 0.47080
 H341 H 0.21871 0.06394 0.54376
 H342 H 0.19172 0.09230 0.54625
 C343 C 0.66894 0.59565 -0.02274
 C344 C 0.66480 0.60699 -0.00217
 C345 C 0.67420 0.60031 0.01791
 C346 C 0.68768 0.58234 0.01744
 C347 C 0.69194 0.57083 -0.00316
 C348 C 0.68242 0.57770 -0.02325
 C349 C 0.65061 0.62524 -0.00170
 C350 C 0.63847 0.64031 -0.00149
 C351 C 0.62388 0.65765 -0.00139
 C352 C 0.61103 0.67213 -0.00141
 C353 C 0.59513 0.68891 -0.00149
 C354 C 0.58639 0.69709 0.01895
 C355 C 0.56963 0.71207 0.01884
 C356 C 0.56156 0.71948 -0.00174
 C357 C 0.57045 0.71094 -0.02223
 C358 C 0.58721 0.69596 -0.02206
 H359 H 0.66165 0.60060 -0.03837
 H360 H 0.67110 0.60897 0.03393
 H361 H 0.69498 0.57762 0.03314
 H362 H 0.68511 0.56900 -0.03933
 H363 H 0.59207 0.69141 0.03498
 H364 H 0.56248 0.71726 0.03491
 H365 H 0.56394 0.71508 -0.03847
 H366 H 0.59352 0.68937 -0.03801
 C367 C 0.90072 -0.17473 0.46353
 C368 C 0.89386 -0.16493 0.48408
 C369 C 0.90572 -0.16791 0.50400
 C370 C 0.92436 -0.18063 0.50343
 C371 C 0.93142 -0.19056 0.48287
 C372 C 0.91939 -0.18746 0.46291
 C373 C 0.87491 -0.15149 0.48478
 C374 C 0.85927 -0.13995 0.48570
 C375 C 0.84130 -0.12602 0.48712
 C376 C 0.82631 -0.11370 0.48857
 C377 C 0.80895 -0.09841 0.49054
 C378 C 0.80015 -0.09284 0.51184
 C379 C 0.78466 -0.07663 0.51411
 C380 C 0.77737 -0.06595 0.49497
 C381 C 0.78653 -0.07168 0.47364
 C382 C 0.80201 -0.08789 0.47144
 H383 H 0.89166 -0.17252 0.44800
 H384 H 0.90063 -0.16029 0.51998
 H385 H 0.93344 -0.18242 0.51902
 H386 H 0.92426 -0.19509 0.44688
 H387 H 0.80578 -0.10055 0.52683
 H388 H 0.77921 -0.07196 0.53101
 H389 H 0.78232 -0.06311 0.45870
 H390 H 0.80907 -0.09174 0.45492
 C391 C 0.32908 0.40264 0.98219
 C392 C 0.33375 0.39287 1.00253
 C393 C 0.32494 0.40117 1.02292
 C394 C 0.31159 0.41920 1.02301
 C395 C 0.30687 0.42920 1.00265
 C396 C 0.31572 0.42066 0.98222
 C397 C 0.34800 0.37469 1.00254
 C398 C 0.36022 0.35968 1.00255
 C399 C 0.37492 0.34245 1.00258
 C400 C 0.38789 0.32808 1.00261
 C401 C 0.40394 0.31142 1.00265
 C402 C 0.41294 0.30537 1.02314
 C403 C 0.42982 0.29051 1.02315
 C404 C 0.43773 0.28108 1.00263
 C405 C 0.42860 0.28752 0.98210
 C406 C 0.41172 0.30238 0.98215
 H407 H 0.33592 0.39643 0.96632
 H408 H 0.32844 0.39374 1.03877
 H409 H 0.30478 0.42520 1.03896
 H410 H 0.31265 0.42816 0.96632
 H411 H 0.40738 0.31262 1.03911
 H412 H 0.43718 0.28704 1.03924
 H413 H 0.43500 0.28178 0.96589
 H414 H 0.40521 0.30732 0.96615
 C415 C 0.88051 0.15170 0.49589
 C416 C 0.86959 0.14615 0.51595
 C417 C 0.87580 0.15718 0.53647
 C418 C 0.89305 0.17354 0.53695
 C419 C 0.90432 0.17904 0.51688
 C420 C 0.89774 0.16801 0.49632
 C421 C 0.85287 0.12835 0.51544
 C422 C 0.83951 0.11289 0.51443
 C423 C 0.82473 0.09414 0.51257
 C424 C 0.81299 0.07755 0.51045
 C425 C 0.80020 0.05704 0.50729
 C426 C 0.78039 0.05294 0.51931
 C427 C 0.76886 0.03241 0.51686
 C428 C 0.77716 0.01579 0.50248
 C429 C 0.79679 0.02027 0.49014
 C430 C 0.80821 0.04073 0.49256
 H431 H 0.87598 0.14313 0.47994
 H432 H 0.86750 0.15297 0.55211
 H433 H 0.89757 0.18190 0.55300
 H434 H 0.90629 0.17157 0.48065
 H435 H 0.77408 0.06544 0.53082
 H436 H 0.75390 0.02934 0.52672
 H437 H 0.80338 0.00792 0.47864
 H438 H 0.82348 0.04374 0.48312
 C439 C 0.33729 0.61704 -0.01679
 C440 C 0.34773 0.62485 0.00341
 C441 C 0.34174 0.61543 0.02388
 C442 C 0.32561 0.59807 0.02414
 C443 C 0.31528 0.58984 0.00388
 C444 C 0.32115 0.59966 -0.01657
 C445 C 0.36546 0.64166 0.00300
 C446 C 0.38086 0.65515 0.00278
 C447 C 0.39958 0.67014 0.00269
 C448 C 0.41621 0.68213 0.00282
 C449 C 0.43684 0.69528 0.00324
 C450 C 0.45474 0.68862 0.01590
 C451 C 0.47537 0.70021 0.01534
 C452 C 0.47844 0.71867 0.00206
 C453 C 0.46024 0.72567 -0.01014
 C454 C 0.43954 0.71396 -0.00962
 H455 H 0.34183 0.62417 -0.03274
 H456 H 0.34985 0.62123 0.03959
 H457 H 0.32169 0.59069 0.04010
 H458 H 0.31329 0.59389 -0.03240
 H459 H 0.45284 0.67422 0.02594
 H460 H 0.48898 0.69466 0.02523
 H461 H 0.46218 0.73972 -0.02066
 H462 H 0.42580 0.71920 -0.01955
 C463 C 0.12044 -0.15316 0.46349
 C464 C 0.13030 -0.14631 0.48428
 C465 C 0.12277 -0.15577 0.50424
 C466 C 0.10523 -0.17178 0.50348
 C467 C 0.09494 -0.17852 0.48271
 C468 C 0.10290 -0.16919 0.46268
 C469 C 0.14721 -0.12868 0.48532
 C470 C 0.16075 -0.11337 0.48629
 C471 C 0.17575 -0.09478 0.48750
 C472 C 0.18772 -0.07828 0.48856
 C473 C 0.20080 -0.05783 0.48981
 C474 C 0.22023 -0.05532 0.50301
 C475 C 0.23178 -0.03481 0.50544
 C476 C 0.22387 -0.01662 0.49483
 C477 C 0.20468 -0.01947 0.48114
 C478 C 0.19324 -0.03992 0.47868
 H479 H 0.12602 -0.14581 0.44796
 H480 H 0.13025 -0.15055 0.52044
 H481 H 0.09969 -0.17888 0.51914
 H482 H 0.09516 -0.17383 0.44648
 H483 H 0.22616 -0.06906 0.51180
 H484 H 0.24639 -0.03303 0.51625
 H485 H 0.19841 -0.00583 0.47245
 H486 H 0.17824 -0.04167 0.46842
 C487 C 0.66087 0.38240 0.97458
 C488 C 0.65138 0.37634 0.99521
 C489 C 0.65843 0.38739 1.01543
 C490 C 0.67472 0.40459 1.01506
 C491 C 0.68419 0.41101 0.99440
 C492 C 0.67718 0.39962 0.97417
 C493 C 0.63359 0.35959 0.99562
 C494 C 0.61818 0.34615 0.99633
 C495 C 0.59949 0.33122 0.99756
 C496 C 0.58292 0.31930 0.99895
 C497 C 0.56240 0.30624 1.00097
 C498 C 0.54516 0.31452 1.01416
 C499 C 0.52462 0.30282 1.01523
 C500 C 0.52098 0.28263 1.00307
 C501 C 0.53855 0.27408 0.99032
 C502 C 0.55916 0.28589 0.98921
 H503 H 0.65549 0.37399 0.95881
 H504 H 0.65106 0.38296 1.03147
 H505 H 0.67948 0.41323 1.03089
 H506 H 0.68433 0.40400 0.95803
 H507 H 0.54749 0.33022 1.02338
 H508 H 0.51152 0.30965 1.02550
 H509 H 0.53615 0.25867 0.98062
 H510 H 0.57238 0.27936 0.97888
 C511 C 0.48190 0.11592 1.16570
 C512 C 0.50156 0.12382 1.15544
 C513 C 0.52180 0.11476 1.16042
 C514 C 0.52233 0.09767 1.17539
 C515 C 0.50257 0.08938 1.18550
 C516 C 0.48238 0.09884 1.18063
 C517 C 0.50072 0.14068 1.13924
 C518 C 0.49955 0.15450 1.12540
 C519 C 0.49766 0.17032 1.10889
 C520 C 0.49561 0.18351 1.09455
 C521 C 0.49265 0.19886 1.07713
 C522 C 0.50099 0.19467 1.05532
 C523 C 0.49705 0.20887 1.03802
 C524 C 0.48458 0.22743 1.04221
 C525 C 0.47671 0.23176 1.06438
 C526 C 0.48067 0.21754 1.08167
 H527 H 0.46614 0.12282 1.16200
 H528 H 0.53711 0.12068 1.15249
 H529 H 0.53809 0.09057 1.17859
 H530 H 0.46694 0.09304 1.18839
 H531 H 0.51024 0.18021 1.05158
 H532 H 0.50328 0.20488 1.02132
 H533 H 0.46748 0.24615 1.06842
 H534 H 0.47419 0.22101 1.09852
 C535 C 0.03399 0.67598 0.59134
 C536 C 0.01369 0.66996 0.60160
 C537 C -0.00614 0.67774 0.59348
 C538 C -0.00572 0.69133 0.57506
 C539 C 0.01457 0.69732 0.56448
 C540 C 0.03446 0.68960 0.57292
 C541 C 0.01307 0.65527 0.61999
 C542 C 0.01236 0.64266 0.63511
 C543 C 0.01134 0.62751 0.65247
 C544 C 0.01032 0.61422 0.66696
 C545 C 0.00897 0.59791 0.68380
 C546 C -0.01176 0.59081 0.69236
 C547 C -0.01328 0.57402 0.70769
 C548 C 0.00605 0.56430 0.71510
 C549 C 0.02679 0.57143 0.70601
 C550 C 0.02824 0.58821 0.69068
 H551 H 0.04943 0.66995 0.59743
 H552 H -0.02195 0.67318 0.60131
 H553 H -0.02126 0.69725 0.56916
 H554 H 0.05030 0.69371 0.56497
 H555 H -0.02685 0.59788 0.68674
 H556 H -0.02971 0.56829 0.71301
 H557 H 0.04189 0.56367 0.71034
 H558 H 0.04435 0.59328 0.68381
 C559 C 0.48882 0.89913 -0.14456
 C560 C 0.49524 0.87838 -0.15210
 C561 C 0.50124 0.87466 -0.17482
 C562 C 0.50105 0.89168 -0.18988
 C563 C 0.49486 0.91268 -0.18241
 C564 C 0.48861 0.91616 -0.15959
 C565 C 0.49636 0.86115 -0.13633
 C566 C 0.49765 0.84697 -0.12290
 C567 C 0.49960 0.83069 -0.10687
 C568 C 0.50165 0.81712 -0.09291
 C569 C 0.50462 0.80136 -0.07588
 C570 C 0.51791 0.78360 -0.08034
 C571 C 0.52205 0.76919 -0.06326
 C572 C 0.51315 0.77244 -0.04130
 C573 C 0.49909 0.78991 -0.03738
 C574 C 0.49498 0.80429 -0.05447
 H575 H 0.48426 0.90223 -0.12699
 H576 H 0.50624 0.85866 -0.18084
 H577 H 0.50569 0.88839 -0.20740
 H578 H 0.48406 0.93220 -0.15322
 H579 H 0.52533 0.78104 -0.09692
 H580 H 0.53229 0.75556 -0.06738
 H581 H 0.49159 0.79300 -0.02107
 H582 H 0.48458 0.81795 -0.05084
 C583 C 0.96832 0.32310 0.40665
 C584 C 0.98839 0.32800 0.39554
 C585 C 1.00789 0.31893 0.40266
 C586 C 1.00743 0.30517 0.42097
 C587 C 0.98735 0.30020 0.43272
 C588 C 0.96774 0.30939 0.42498
 C589 C 0.98908 0.34285 0.37729
 C590 C 0.98971 0.35561 0.36229
 C591 C 0.99050 0.37093 0.34509
 C592 C 0.99122 0.38436 0.33073
 C593 C 0.99212 0.40081 0.31402
 C594 C 1.01273 0.40923 0.30630
 C595 C 1.01370 0.42611 0.29106
 C596 C 0.99401 0.43457 0.28287
 C597 C 0.97339 0.42619 0.29119
 C598 C 0.97247 0.40932 0.30643
 H599 H 0.95305 0.32993 0.40115
 H600 H 1.02360 0.32280 0.39430
 H601 H 1.02319 0.29944 0.42638
 H602 H 0.95165 0.30558 0.43247
 H603 H 1.02808 0.40310 0.31248
 H604 H 1.02996 0.43289 0.28632
 H605 H 0.95793 0.43304 0.28641
 H606 H 0.95643 0.40325 0.31269
 C607 C 0.49084 0.89273 0.16827
 C608 C 0.50194 0.89467 0.14759
 C609 C 0.51248 0.91472 0.14234
 C610 C 0.51212 0.93275 0.15771
 C611 C 0.50113 0.93119 0.17888
 C612 C 0.49036 0.91073 0.18373
 C613 C 0.50279 0.87611 0.13177
 C614 C 0.50387 0.86079 0.11828
 C615 C 0.50555 0.84315 0.10220
 C616 C 0.50731 0.82835 0.08822
 C617 C 0.50981 0.81102 0.07122
 C618 C 0.50104 0.81280 0.04947
 C619 C 0.50438 0.79654 0.03258
 C620 C 0.51663 0.77829 0.03713
 C621 C 0.52502 0.77646 0.05923
 C622 C 0.52166 0.79273 0.07612
 H623 H 0.48273 0.87720 0.17259
 H624 H 0.52097 0.91647 0.12625
 H625 H 0.51985 0.94805 0.15238
 H626 H 0.48232 0.90807 0.19984
 H627 H 0.49190 0.82693 0.04546
 H628 H 0.49784 0.79866 0.01589
 H629 H 0.53414 0.76242 0.06352
 H630 H 0.52848 0.79115 0.09292
 C631 C -0.01503 0.32943 0.63211
 C632 C -0.00895 0.35082 0.62606
 C633 C -0.00400 0.35500 0.60344
 C634 C -0.00497 0.33790 0.58693
 C635 C -0.01089 0.31630 0.59280
 C636 C -0.01603 0.31225 0.61556
 C637 C -0.00761 0.36867 0.64283
 C638 C -0.00615 0.38427 0.65608
 C639 C -0.00410 0.40326 0.67058
 C640 C -0.00210 0.42006 0.68206
 C641 C 0.00051 0.44078 0.69458
 C642 C 0.01432 0.45759 0.68594
 C643 C 0.01593 0.47826 0.69704
 C644 C 0.00371 0.48242 0.71696
 C645 C -0.00972 0.46531 0.72586
 C646 C -0.01136 0.44460 0.71468
 H647 H -0.01887 0.32602 0.64959
 H648 H 0.00062 0.37151 0.59856
 H649 H -0.00129 0.34162 0.56950
 H650 H -0.02046 0.29577 0.62062
 H651 H 0.02360 0.45480 0.67042
 H652 H 0.02666 0.49103 0.68997
 H653 H -0.01953 0.46812 0.74101
 H654 H -0.02220 0.43173 0.72144
 C655 C 0.47934 0.09595 0.84668
 C656 C 0.49935 0.10742 0.85292
 C657 C 0.51949 0.10082 0.84362
 C658 C 0.51961 0.08281 0.82812
 C659 C 0.49955 0.07119 0.82170
 C660 C 0.47941 0.07797 0.83119
 C661 C 0.49908 0.12585 0.86899
 C662 C 0.49838 0.14115 0.88256
 C663 C 0.49699 0.15886 0.89862
 C664 C 0.49533 0.17376 0.91251
 C665 C 0.49274 0.19123 0.92935
 C666 C 0.50270 0.19041 0.95068
 C667 C 0.49897 0.20658 0.96757
 C668 C 0.48502 0.22376 0.96350
 C669 C 0.47573 0.22480 0.94165
 C670 C 0.47949 0.20862 0.92478
 H671 H 0.46366 0.10084 0.85385
 H672 H 0.53508 0.10960 0.84832
 H673 H 0.53534 0.07816 0.82093
 H674 H 0.46374 0.06919 0.82689
 H675 H 0.51305 0.17705 0.95441
 H676 H 0.50666 0.20514 0.98385
 H677 H 0.46551 0.23808 0.93746
 H678 H 0.47181 0.20953 0.90826
 C679 C 1.01808 0.64589 0.39264
 C680 C 1.01030 0.64922 0.37079
 C681 C 1.00419 0.67007 0.36516
 C682 C 1.00569 0.68750 0.38140
 C683 C 1.01332 0.68424 0.40349
 C684 C 1.01959 0.66324 0.40888
 C685 C 1.00803 0.63095 0.35456
 C686 C 1.00607 0.61509 0.34169
 C687 C 1.00370 0.59589 0.32753
 C688 C 1.00163 0.57897 0.31624
 C689 C 0.99909 0.55819 0.30381
 C690 C 1.01077 0.55446 0.28358
 C691 C 1.00922 0.53373 0.27242
 C692 C 0.99607 0.51651 0.28148
 C693 C 0.98408 0.52056 0.30158
 C694 C 0.98560 0.54125 0.31265
 H695 H 1.02272 0.62979 0.39723
 H696 H 0.99813 0.67282 0.34829
 H697 H 1.00095 0.70351 0.37668
 H698 H 1.02516 0.66008 0.42581
 H699 H 1.02136 0.56743 0.27666
 H700 H 1.01886 0.53103 0.25713
 H701 H 0.97356 0.50770 0.30878
 H702 H 0.97649 0.54395 0.32829
 C703 C 1.17271 0.49639 0.12170
 C704 C 1.15238 0.50610 0.11942
 C705 C 1.14815 0.51743 0.10000
 C706 C 1.16404 0.51883 0.08274
 C707 C 1.18463 0.50877 0.08444
 C708 C 1.18867 0.49769 0.10449
 C709 C 1.13552 0.50378 0.13662
 C710 C 1.12115 0.50148 0.15072
 C711 C 1.10408 0.49840 0.16689
 C712 C 1.08929 0.49541 0.18041
 C713 C 1.07139 0.49141 0.19618
 C714 C 1.05034 0.49913 0.19210
 C715 C 1.03264 0.49434 0.20677
 C716 C 1.03564 0.48159 0.22568
 C717 C 1.05708 0.47437 0.22991
 C718 C 1.07477 0.47919 0.21522
 H719 H 1.17623 0.48769 0.13679
 H720 H 1.13234 0.52486 0.09797
 H721 H 1.15942 0.52689 0.06765
 H722 H 1.20437 0.49044 0.10742
 H723 H 1.04753 0.50862 0.17739
 H724 H 1.01659 0.50027 0.20287
 H725 H 1.06030 0.46506 0.24462
 H726 H 1.09104 0.47323 0.21863
 C727 C 0.60464 0.00990 0.66489
 C728 C 0.61405 -0.00984 0.65832
 C729 C 0.60629 -0.02934 0.66793
 C730 C 0.58904 -0.02916 0.68384
 C731 C 0.57926 -0.00945 0.69035
 C732 C 0.58738 0.01013 0.68082
 C733 C 0.63119 -0.01028 0.64126
 C734 C 0.64530 -0.01099 0.62673
 C735 C 0.66153 -0.01222 0.60947
 C736 C 0.67515 -0.01365 0.59453
 C737 C 0.69112 -0.01584 0.57646
 C738 C 0.70991 -0.02796 0.57936
 C739 C 0.72478 -0.03110 0.56142
 C740 C 0.72101 -0.02225 0.54018
 C741 C 0.70237 -0.00961 0.53770
 C742 C 0.68750 -0.00650 0.55566
 H743 H 0.61044 0.02508 0.65749
 H744 H 0.61347 -0.04472 0.66300
 H745 H 0.58337 -0.04445 0.69108
 H746 H 0.58002 0.02552 0.68527
 H747 H 0.71295 -0.03518 0.59543
 H748 H 0.73924 -0.04043 0.56425
 H749 H 0.69882 -0.00252 0.52180
 H750 H 0.67300 0.00292 0.55321
 C751 C -0.16431 0.51413 0.88507
 C752 C -0.15458 0.49506 0.87691
 C753 C -0.16078 0.47492 0.88612
 C754 C -0.17643 0.47392 0.90367
 C755 C -0.18598 0.49309 0.91228
 C756 C -0.17991 0.51318 0.90261
 C757 C -0.13762 0.49643 0.85972
 C758 C -0.12313 0.49814 0.84568
 C759 C -0.10586 0.50077 0.82964
 C760 C -0.09089 0.50352 0.81629
 C761 C -0.07278 0.50740 0.80075
 C762 C -0.05172 0.49998 0.80536
 C763 C -0.03378 0.50482 0.79099
 C764 C -0.03658 0.51733 0.77186
 C765 C -0.05802 0.52425 0.76710
 C766 C -0.07594 0.51937 0.78148
 H767 H -0.15964 0.52981 0.87804
 H768 H -0.15327 0.46006 0.87999
 H769 H -0.18059 0.45826 0.91093
 H770 H -0.18720 0.52817 0.90865
 H771 H -0.04907 0.49071 0.82026
 H772 H -0.01773 0.49915 0.79529
 H773 H -0.06106 0.53337 0.75221
 H774 H -0.09221 0.52513 0.77768
 C775 C 0.39569 -0.00839 0.33625
 C776 C 0.39048 0.01158 0.34696
 C777 C 0.40205 0.03100 0.34111
 C778 C 0.41881 0.03049 0.32469
 C779 C 0.42426 0.01050 0.31387
 C780 C 0.41247 -0.00894 0.31981
 C781 C 0.37350 0.01221 0.36417
 C782 C 0.35943 0.01308 0.37872
 C783 C 0.34314 0.01446 0.39591
 C784 C 0.32938 0.01595 0.41070
 C785 C 0.31312 0.01809 0.42848
 C786 C 0.29458 0.03051 0.42540
 C787 C 0.27917 0.03322 0.44294
 C788 C 0.28214 0.02360 0.46392
 C789 C 0.30065 0.01084 0.46665
 C790 C 0.31605 0.00817 0.44909
 H791 H 0.38681 -0.02352 0.34063
 H792 H 0.39822 0.04653 0.34937
 H793 H 0.42779 0.04569 0.32077
 H794 H 0.41611 -0.02455 0.31161
 H795 H 0.29206 0.03819 0.40947
 H796 H 0.26485 0.04270 0.43994
 H797 H 0.30360 0.00325 0.48241
 H798 H 0.33037 -0.00147 0.45168
 C799 C 0.14467 0.50176 0.91068
 C800 C 0.15145 0.50753 0.88896
 C801 C 0.17396 0.51299 0.88476
 C802 C 0.18963 0.51283 0.90226
 C803 C 0.18296 0.50720 0.92421
 C804 C 0.16030 0.50158 0.92820
 C805 C 0.13521 0.50836 0.87115
 C806 C 0.12147 0.50933 0.85641
 C807 C 0.10524 0.51082 0.83935
 C808 C 0.09129 0.51242 0.82495
 C809 C 0.07452 0.51477 0.80795
 C810 C 0.07983 0.52615 0.78846
 C811 C 0.06333 0.52931 0.77243
 C812 C 0.04120 0.52120 0.77572
 C813 C 0.03619 0.50941 0.79517
 C814 C 0.05272 0.50628 0.81120
 H815 H 0.12727 0.49762 0.91415
 H816 H 0.17939 0.51747 0.86799
 H817 H 0.20698 0.51697 0.89859
 H818 H 0.15459 0.49748 0.94497
 H819 H 0.09669 0.53272 0.78572
 H820 H 0.06795 0.53803 0.75742
 H821 H 0.01946 0.50304 0.79838
 H822 H 0.04841 0.49748 0.82626
 C823 C 0.60179 -0.01421 0.33830
 C824 C 0.61382 0.00472 0.34658
 C825 C 0.60937 0.02510 0.33821
 C826 C 0.59288 0.02656 0.32167
 C827 C 0.58066 0.00760 0.31329
 C828 C 0.58533 -0.01280 0.32179
 C829 C 0.63053 0.00306 0.36380
 C830 C 0.64434 0.00112 0.37828
 C831 C 0.66032 -0.00178 0.39527
 C832 C 0.67381 -0.00477 0.40978
 C833 C 0.68973 -0.00892 0.42708
 C834 C 0.68608 -0.00207 0.44965
 C835 C 0.70104 -0.00702 0.46660
 C836 C 0.71979 -0.01904 0.46125
 C837 C 0.72352 -0.02547 0.43839
 C838 C 0.70857 -0.02049 0.42147
 H839 H 0.60502 -0.03006 0.34473
 H840 H 0.61860 0.03986 0.34448
 H841 H 0.58981 0.04246 0.31531
 H842 H 0.57598 -0.02764 0.31599
 H843 H 0.67152 0.00686 0.45421
 H844 H 0.69753 -0.00184 0.48387
 H845 H 0.73805 -0.03426 0.43348
 H846 H 0.71162 -0.02581 0.40403
 C847 C 0.82608 0.49825 0.11422
 C848 C 0.84800 0.49270 0.10970
 C849 C 0.85444 0.48748 0.08740
 C850 C 0.83902 0.48763 0.06970
 C851 C 0.81689 0.49300 0.07407
 C852 C 0.81062 0.49844 0.09652
 C853 C 0.86385 0.49191 0.12787
 C854 C 0.87737 0.49088 0.14282
 C855 C 0.89346 0.48925 0.15998
 C856 C 0.90741 0.48751 0.17437
 C857 C 0.92427 0.48499 0.19121
 C858 C 0.91913 0.47343 0.21063
 C859 C 0.93578 0.47008 0.22644
 C860 C 0.95789 0.47817 0.22301
 C861 C 0.96273 0.49014 0.20365
 C862 C 0.94607 0.49346 0.18784
 H863 H 0.82090 0.50225 0.13144
 H864 H 0.87137 0.48320 0.08370
 H865 H 0.84446 0.48369 0.05257
 H866 H 0.79365 0.50242 0.10045
 H867 H 0.90229 0.46685 0.21346
 H868 H 0.93128 0.46121 0.24140
 H869 H 0.97943 0.49650 0.20031
 H870 H 0.95026 0.50239 0.17282
 C871 C 0.39329 -0.02672 0.66163
 C872 C 0.38479 -0.00655 0.65684
 C873 C 0.39345 0.01269 0.66808
 C874 C 0.41069 0.01185 0.68384
 C875 C 0.41956 -0.00828 0.68859
 C876 C 0.41054 -0.02760 0.67744
 C877 C 0.36763 -0.00537 0.63998
 C878 C 0.35352 -0.00380 0.62570
 C879 C 0.33731 -0.00128 0.60883
 C880 C 0.32375 0.00143 0.59431
 C881 C 0.30791 0.00537 0.57685
 C882 C 0.28877 0.01654 0.58225
 C883 C 0.27416 0.02171 0.56510
 C884 C 0.27856 0.01592 0.54220
 C885 C 0.29751 0.00410 0.53710
 C886 C 0.31211 -0.00105 0.55427
 H887 H 0.38677 -0.04171 0.65296
 H888 H 0.38697 0.02838 0.66454
 H889 H 0.41704 0.02696 0.69238
 H890 H 0.41717 -0.04331 0.68054
 H891 H 0.28528 0.02151 0.59970
 H892 H 0.25945 0.03029 0.56983
 H893 H 0.30153 -0.00070 0.51986
 H894 H 0.32690 -0.00969 0.54988
   
