data_POSCAR
  _audit_creation_date              2014-09-24
  _audit_creation_method            'ToBaCCo'
  _symmetry_space_group_name_H-M    'P1'
  _symmetry_Int_Tables_number       1
  _symmetry_cell_setting            triclinic
  loop_
  _symmetry_equiv_pos_as_xyz
 x,y,z
_cell_length_a 23.4430
_cell_length_b 23.8426
_cell_length_c 23.8743
_cell_angle_alpha 89.164200
_cell_angle_beta 89.302800
_cell_angle_gamma 89.245100
loop_
  _atom_site_label
  _atom_site_type_symbol
  _atom_site_fract_x
  _atom_site_fract_y
  _atom_site_fract_z
N1 N 0.25657 0.25172 0.25262
 N2 N 0.75251 -0.24156 0.24962
 N3 N 0.75310 0.25550 0.73978
 N4 N 0.24600 -0.24347 0.75835
 N5 N 0.75122 -0.25494 0.75336
 N6 N 0.25933 0.24453 0.74451
 N7 N 0.24041 -0.24990 0.25066
 N8 N 0.74967 0.24408 0.25027
 O9 O 0.29721 0.04924 0.44038
 O10 O 0.29897 -0.05949 0.55132
 O11 O 0.29392 -0.05975 0.44222
 O12 O 0.30195 0.04992 0.54902
 O13 O 0.20787 0.05416 0.55362
 O14 O 0.19985 -0.05609 0.44766
 O15 O 0.20492 -0.05511 0.55675
 O16 O 0.20308 0.05274 0.44500
 Cu17 Cu 0.30748 -0.00551 0.49531
 Cu18 Cu 0.19448 -0.00080 0.50137
 C19 C 0.24985 0.06948 0.42377
 C20 C 0.25224 -0.07575 0.57302
 C21 C 0.24544 -0.07640 0.42656
 C22 C 0.25628 0.07106 0.56916
 O23 O 0.70828 0.05325 0.55977
 O24 O 0.70354 -0.05723 0.45385
 O25 O 0.70804 -0.05575 0.56336
 O26 O 0.70344 0.05222 0.45145
 O27 O 0.79761 0.05197 0.44739
 O28 O 0.80210 -0.05829 0.55728
 O29 O 0.79760 -0.05736 0.44795
 O30 O 0.80246 0.05098 0.55591
 Cu31 Cu 0.69637 -0.00199 0.50755
 Cu32 Cu 0.80939 -0.00352 0.50159
 C33 C 0.75619 0.07102 0.57578
 C34 C 0.74977 -0.07575 0.43245
 C35 C 0.75588 -0.07522 0.57960
 C36 C 0.74970 0.07107 0.43091
 O37 O 0.44848 0.29147 0.05167
 O38 O 0.55907 0.29609 -0.05830
 O39 O 0.44836 0.29119 -0.05747
 O40 O 0.55958 0.29145 0.05088
 O41 O 0.56328 0.19888 0.04906
 O42 O 0.45122 0.19854 -0.05681
 O43 O 0.56198 0.20349 -0.05992
 O44 O 0.45204 0.19888 0.05201
 Cu45 Cu 0.50356 0.30185 -0.00320
 Cu46 Cu 0.50751 0.19067 -0.00391
 C47 C 0.43136 0.24455 0.07069
 C48 C 0.57916 0.25082 -0.07814
 C49 C 0.43087 0.24456 -0.07546
 C50 C 0.58044 0.24492 0.06822
 O51 O 0.55464 0.70784 0.05989
 O52 O 0.44942 0.70670 -0.05297
 O53 O 0.56075 0.71279 -0.04853
 O54 O 0.44412 0.70507 0.05629
 O55 O 0.44050 0.79759 0.05874
 O56 O 0.55286 0.80524 -0.05005
 O57 O 0.44218 0.79905 -0.05025
 O58 O 0.55164 0.80048 0.05956
 Cu59 Cu 0.50266 0.69883 0.00338
 Cu60 Cu 0.49633 0.80989 0.00462
 C61 C 0.57139 0.75419 0.07872
 C62 C 0.42740 0.75248 -0.07049
 C63 C 0.57647 0.76041 -0.06723
 C64 C 0.42286 0.75010 0.07581
 O65 O 0.05247 0.44065 0.29828
 O66 O -0.05951 0.55064 0.30188
 O67 O -0.05862 0.44121 0.30182
 O68 O 0.05162 0.54949 0.30116
 O69 O 0.05148 0.55194 0.20865
 O70 O -0.05953 0.44362 0.20934
 O71 O -0.05965 0.55324 0.20940
 O72 O 0.05137 0.44292 0.20578
 Cu73 Cu -0.00355 0.49525 0.31006
 Cu74 Cu -0.00428 0.49824 0.19901
 C75 C 0.07101 0.42312 0.25133
 C76 C -0.07843 0.57090 0.25614
 C77 C -0.07768 0.42372 0.25584
 C78 C 0.07055 0.56900 0.25495
 O79 O 0.06250 0.55433 0.69638
 O80 O -0.04601 0.44355 0.69427
 O81 O -0.04848 0.55313 0.69293
 O82 O 0.06496 0.44524 0.69296
 O83 O 0.06377 0.44330 0.78548
 O84 O -0.05252 0.54911 0.78539
 O85 O -0.04657 0.44056 0.78681
 O86 O 0.05911 0.55272 0.78884
 Cu87 Cu 0.00844 0.49938 0.68486
 Cu88 Cu 0.00590 0.49645 0.79592
 C89 C 0.07920 0.57241 0.74312
 C90 C -0.06441 0.42296 0.74042
 C91 C -0.07040 0.56892 0.73897
 C92 C 0.08364 0.42576 0.73902
 C93 C 0.29861 0.24633 0.20831
 C94 C 0.31967 0.29130 0.18114
 C95 C 0.36411 0.28947 0.13660
 C96 C 0.38703 0.24254 0.11490
 H97 H 0.30477 0.33268 0.19295
 H98 H 0.37835 0.32985 0.12092
 H99 H 0.31477 0.20482 0.19906
 H100 H 0.37357 0.20153 0.12905
 C101 C 0.70847 0.75478 0.20814
 C102 C 0.68098 0.80041 0.18790
 C103 C 0.63693 0.79965 0.14383
 C104 C 0.61433 0.75298 0.12322
 H105 H 0.69246 0.84135 0.20280
 H106 H 0.62250 0.84014 0.12797
 H107 H 0.69985 0.71390 0.19158
 H108 H 0.62704 0.71200 0.13874
 C109 C 0.70947 0.25711 -0.21718
 C110 C 0.68971 0.21027 -0.19220
 C111 C 0.64609 0.20890 -0.14675
 C112 C 0.62268 0.25443 -0.12291
 H113 H 0.70653 0.16998 -0.20531
 H114 H 0.63304 0.16769 -0.13231
 H115 H 0.69526 0.29791 -0.20332
 H116 H 0.63496 0.29614 -0.13588
 C117 C 0.28824 0.75239 -0.19821
 C118 C 0.31380 0.79791 -0.17820
 C119 C 0.35714 0.79697 -0.13358
 C120 C 0.38427 0.75066 -0.11477
 H121 H 0.30121 0.83899 -0.19393
 H122 H 0.36788 0.83726 -0.11647
 H123 H 0.29746 0.71143 -0.18030
 H124 H 0.37555 0.71007 -0.13204
 C125 C 0.21322 0.29516 0.24921
 C126 C 0.18573 0.31414 0.29500
 C127 C 0.14095 0.35851 0.29485
 C128 C 0.11575 0.37930 0.24875
 H129 H 0.19747 0.29748 0.33574
 H130 H 0.12753 0.37378 0.33550
 H131 H 0.20472 0.31383 0.20861
 H132 H 0.12732 0.36414 0.20769
 C133 C 0.20586 0.71185 0.75142
 C134 C 0.18455 0.68277 0.79526
 C135 C 0.14153 0.63805 0.79149
 C136 C 0.12240 0.61671 0.74359
 H137 H 0.19771 0.69327 0.83709
 H138 H 0.12519 0.62182 0.83106
 H139 H 0.19098 0.70406 0.70965
 H140 H 0.13841 0.63116 0.70339
 C141 C -0.20558 0.71376 0.25463
 C142 C -0.18592 0.68588 0.20975
 C143 C -0.14216 0.64056 0.21126
 C144 C -0.12247 0.61551 0.25800
 H145 H -0.20114 0.69796 0.16862
 H146 H -0.12606 0.62689 0.17092
 H147 H -0.18830 0.70466 0.29556
 H148 H -0.13844 0.62735 0.29885
 C149 C -0.20559 0.29972 0.73990
 C150 C -0.17186 0.31182 0.69555
 C151 C -0.12925 0.35713 0.69498
 C152 C -0.10690 0.37814 0.74150
 H153 H -0.17686 0.28947 0.65685
 H154 H -0.11447 0.37210 0.65435
 H155 H -0.20391 0.32550 0.77676
 H156 H -0.11903 0.36170 0.78232
 C157 C 0.25170 0.20792 0.29466
 C158 C 0.29746 0.17899 0.31304
 C159 C 0.29601 0.13472 0.35709
 C160 C 0.24829 0.11300 0.37951
 H161 H 0.33923 0.18928 0.29636
 H162 H 0.33708 0.11916 0.37123
 H163 H 0.21011 0.20051 0.31301
 H164 H 0.20664 0.12681 0.36575
 C165 C 0.75774 0.21028 0.70039
 C166 C 0.71126 0.18729 0.67848
 C167 C 0.71182 0.14153 0.63726
 C168 C 0.75890 0.11559 0.61760
 H169 H 0.66962 0.20338 0.69077
 H170 H 0.67049 0.12892 0.62245
 H171 H 0.79994 0.19706 0.68714
 H172 H 0.80082 0.12705 0.63136
 C173 C 0.25053 -0.20028 0.71560
 C174 C 0.20479 -0.18154 0.68730
 C175 C 0.20615 -0.13735 0.64320
 C176 C 0.25373 -0.11917 0.61745
 H177 H 0.16319 -0.19800 0.69804
 H178 H 0.16516 -0.12036 0.63045
 H179 H 0.29168 -0.18144 0.70827
 H180 H 0.29504 -0.13665 0.62804
 C181 C 0.74856 -0.19926 0.29220
 C182 C 0.79479 -0.18175 0.31925
 C183 C 0.79423 -0.13835 0.36292
 C184 C 0.74718 -0.11894 0.38909
 H185 H 0.83632 -0.19859 0.30765
 H186 H 0.83551 -0.12275 0.37473
 H187 H 0.70735 -0.18008 0.30050
 H188 H 0.70555 -0.13479 0.37930
 C189 C 0.70447 0.74276 -0.20656
 C190 C 0.71251 0.73049 -0.15223
 C191 C 0.66487 0.72620 -0.11164
 C192 C 0.62246 0.76421 -0.10947
 H193 H 0.75481 0.72012 -0.13732
 H194 H 0.66716 0.69307 -0.08018
 H195 H 0.66161 0.75185 -0.22085
 H196 H 0.62323 0.80062 -0.13716
 C197 C 0.30191 0.24220 -0.21235
 C198 C 0.32218 0.28853 -0.18856
 C199 C 0.36639 0.28865 -0.14470
 C200 C 0.38653 0.24256 -0.11842
 H201 H 0.30686 0.32928 -0.20268
 H202 H 0.38247 0.32928 -0.13339
 H203 H 0.31972 0.20149 -0.20168
 H204 H 0.37085 0.20150 -0.12811
 C205 C 0.28618 0.74631 0.20980
 C206 C 0.30690 0.79224 0.18409
 C207 C 0.35280 0.79243 0.14089
 C208 C 0.37731 0.74649 0.11876
 H209 H 0.28920 0.83282 0.19518
 H210 H 0.36654 0.83342 0.12645
 H211 H 0.30154 0.70504 0.19861
 H212 H 0.36422 0.70496 0.13163
 C213 C 0.70807 0.24212 0.20631
 C214 C 0.68665 0.28862 0.18147
 C215 C 0.64254 0.28890 0.13746
 C216 C 0.62506 0.24305 0.11105
 H217 H 0.70045 0.32928 0.19513
 H218 H 0.62421 0.32939 0.12619
 H219 H 0.69151 0.20149 0.19619
 H220 H 0.64334 0.20226 0.12051
 C221 C -0.20072 0.70649 0.75537
 C222 C -0.20405 0.65472 0.77794
 C223 C -0.15498 0.61537 0.77987
 C224 C -0.11711 0.61068 0.73774
 H225 H -0.24327 0.64070 0.79751
 H226 H -0.15270 0.58657 0.81531
 H227 H -0.16087 0.71950 0.73602
 H228 H -0.12242 0.63562 0.69983
 C229 C -0.21065 0.28953 0.25496
 C230 C -0.18374 0.31116 0.20980
 C231 C -0.14129 0.35665 0.21085
 C232 C -0.12107 0.37957 0.25748
 H233 H -0.19298 0.29445 0.16902
 H234 H -0.12538 0.37112 0.17045
 H235 H -0.20115 0.30384 0.29647
 H236 H -0.13526 0.36552 0.29846
 C237 C 0.21842 0.29009 0.73979
 C238 C 0.19170 0.31106 0.78507
 C239 C 0.14785 0.35638 0.78403
 C240 C 0.12859 0.38210 0.73751
 H241 H 0.20187 0.29355 0.82590
 H242 H 0.13027 0.36846 0.82432
 H243 H 0.20762 0.30475 0.69822
 H244 H 0.14482 0.37086 0.69662
 C245 C 0.19593 0.70890 0.25268
 C246 C 0.18385 0.67650 0.20890
 C247 C 0.13813 0.63423 0.20933
 C248 C 0.11523 0.61176 0.25611
 H249 H 0.20667 0.68236 0.16964
 H250 H 0.12451 0.61971 0.16890
 H251 H 0.16994 0.70622 0.29036
 H252 H 0.13010 0.62370 0.29688
 C253 C 0.75067 -0.21510 0.70714
 C254 C 0.71414 -0.17126 0.70418
 C255 C 0.71287 -0.13054 0.65682
 C256 C 0.75852 -0.11778 0.62495
 H257 H 0.68221 -0.16504 0.73659
 H258 H 0.67305 -0.10795 0.65030
 H259 H 0.78137 -0.22115 0.67343
 H260 H 0.79964 -0.13697 0.63355
 C261 C 0.23846 -0.20727 0.29297
 C262 C 0.28599 -0.18548 0.31420
 C263 C 0.28728 -0.14270 0.35862
 C264 C 0.24110 -0.11947 0.38321
 H265 H 0.32712 -0.20013 0.29888
 H266 H 0.32926 -0.12969 0.37125
 H267 H 0.19707 -0.19545 0.30963
 H268 H 0.19859 -0.13127 0.37163
 C269 C 0.74823 0.19947 0.29174
 C270 C 0.79291 0.18664 0.32445
 C271 C 0.79368 0.14029 0.36644
 C272 C 0.74682 0.11590 0.38785
 H273 H 0.83227 0.20939 0.31897
 H274 H 0.83520 0.12738 0.38175
 H275 H 0.71050 0.17386 0.29409
 H276 H 0.70479 0.12991 0.37523
 C277 C 0.26055 0.20004 0.70417
 C278 C 0.21523 0.18782 0.67289
 C279 C 0.21386 0.14165 0.63214
 C280 C 0.26028 0.11586 0.61076
 H281 H 0.17568 0.21104 0.67871
 H282 H 0.17204 0.12994 0.61784
 H283 H 0.29867 0.17410 0.70153
 H284 H 0.30259 0.12841 0.62247
   
