data_POSCAR
  _audit_creation_date              2014-09-24
  _audit_creation_method            'ToBaCCo'
  _symmetry_space_group_name_H-M    'P1'
  _symmetry_Int_Tables_number       1
  _symmetry_cell_setting            triclinic
  loop_
  _symmetry_equiv_pos_as_xyz
 x,y,z
_cell_length_a 21.3427
_cell_length_b 20.3126
_cell_length_c 27.5967
_cell_angle_alpha 91.191000
_cell_angle_beta 89.537400
_cell_angle_gamma 117.584600
loop_
  _atom_site_label
  _atom_site_type_symbol
  _atom_site_fract_x
  _atom_site_fract_y
  _atom_site_fract_z
C1 C 0.02114 0.50832 1.29598
 C2 C -0.04778 0.45105 1.28354
 C3 C -0.07020 0.44221 1.23475
 C4 C -0.03003 0.49318 1.19920
 C5 C 0.03799 0.54976 1.21176
 C6 C 0.06169 0.55824 1.25978
 H7 H 0.11519 0.60037 1.26747
 H8 H -0.12305 0.39985 1.22557
 C9 C 0.52862 0.49042 1.20283
 C10 C 0.47769 0.51547 1.20999
 C11 C 0.46483 0.53442 1.25645
 C12 C 0.50060 0.52717 1.29669
 C13 C 0.54575 0.49393 1.29016
 C14 C 0.56089 0.47773 1.24321
 H15 H 0.59561 0.45256 1.23826
 H16 H 0.42700 0.55574 1.26066
 C17 C 0.52536 1.03279 1.21047
 C18 C 0.48268 0.95505 1.21484
 C19 C 0.45972 0.92450 1.26086
 C20 C 0.46861 0.97052 1.30201
 C21 C 0.50415 1.04873 1.29599
 C22 C 0.53406 1.07856 1.25123
 H23 H 0.56391 1.13837 1.24851
 H24 H 0.42627 0.86506 1.26314
 C25 C 1.02280 0.51937 0.79358
 C26 C 0.95064 0.47604 0.78170
 C27 C 0.92947 0.46432 0.73312
 C28 C 0.97900 0.48659 0.69547
 C29 C 1.05207 0.52497 0.70712
 C30 C 1.07216 0.54459 0.75596
 H31 H 1.12780 0.57484 0.76527
 H32 H 0.87393 0.42977 0.72468
 C33 C 0.56478 0.52926 0.71395
 C34 C 0.51108 0.55062 0.70682
 C35 C 0.46920 0.55036 0.74656
 C36 C 0.47674 0.52434 0.79195
 C37 C 0.52745 0.49844 0.79785
 C38 C 0.57247 0.50378 0.75915
 H39 H 0.61138 0.48402 0.76321
 H40 H 0.42760 0.56604 0.74150
 C41 C 0.48545 -0.03565 0.79747
 C42 C 0.54122 0.03672 0.78941
 C43 C 0.55283 0.06705 0.74304
 C44 C 0.50811 0.02834 0.70417
 C45 C 0.45048 -0.04258 0.71255
 C46 C 0.43928 -0.07299 0.75892
 H47 H 0.39633 -0.12838 0.76385
 H48 H 0.59496 0.12291 0.73797
 O49 O 0.41530 0.63878 0.95334
 O50 O 0.43649 0.77662 0.96590
 C51 C 0.40220 0.79216 0.93471
 O52 O 0.33534 0.76312 0.93505
 O53 O 0.20406 0.66211 0.95188
 C54 C 0.18044 0.59497 0.93776
 O55 O 0.20499 0.55334 0.95236
 O56 O 0.31454 0.53335 0.96631
 C57 C 0.37123 0.57186 0.94216
 O58 O 0.41125 0.62242 1.04959
 O59 O 0.41824 0.75415 1.06204
 C60 C 0.39123 0.79831 1.06428
 O61 O 0.35247 0.80181 1.03054
 O62 O 0.22629 0.69707 1.04712
 C63 C 0.19191 0.63365 1.06578
 O64 O 0.19205 0.57469 1.04859
 O65 O 0.29806 0.55061 1.06376
 C66 C 0.36204 0.57279 1.07358
 Cr67 Cr 0.41676 0.69668 1.00741
 Cr68 Cr 0.28077 0.72842 0.99128
 Cr69 Cr 0.25493 0.55678 1.00745
 O70 O 0.31674 0.65971 1.00156
 O71 O 0.56153 0.33290 0.96123
 O72 O 0.57981 0.21396 0.94929
 C73 C 0.62126 0.18540 0.94220
 O74 O 0.66942 0.19360 0.97219
 O75 O 0.77873 0.31332 0.94728
 C76 C 0.80054 0.37544 0.92716
 O77 O 0.78987 0.42791 0.94420
 O78 O 0.66399 0.41493 0.93151
 C79 C 0.59724 0.38233 0.93103
 O80 O 0.57875 0.33099 1.05643
 O81 O 0.58220 0.20186 1.04635
 C82 C 0.62900 0.19820 1.07245
 O83 O 0.69416 0.23955 1.06608
 O84 O 0.80638 0.35847 1.04131
 C85 C 0.81595 0.42226 1.05562
 O86 O 0.78133 0.45371 1.03952
 O87 O 0.65528 0.44230 1.02699
 C88 C 0.60748 0.40194 1.05684
 Cr89 Cr 0.57899 0.27151 1.00338
 Cr90 Cr 0.73548 0.27831 1.00651
 Cr91 Cr 0.72114 0.43092 0.98619
 O92 O 0.67922 0.32763 0.99940
 O93 O 0.70229 0.47880 0.53952
 O94 O 0.80275 0.43876 0.54483
 C95 C 0.82053 0.38838 0.55367
 O96 O 0.79110 0.32341 0.53385
 O97 O 0.66048 0.22647 0.55805
 C98 C 0.59594 0.20670 0.56713
 O99 O 0.56246 0.23589 0.54665
 O100 O 0.61134 0.37814 0.56987
 C101 C 0.65568 0.44678 0.57240
 O102 O 0.69812 0.45181 0.43994
 O103 O 0.80399 0.42181 0.44818
 C104 C 0.79406 0.36293 0.42520
 O105 O 0.75084 0.29885 0.43923
 O106 O 0.62280 0.20438 0.46191
 C107 C 0.57664 0.21737 0.44054
 O108 O 0.56064 0.26767 0.45460
 O109 O 0.59718 0.40638 0.47866
 C110 C 0.63232 0.43094 0.44046
 Cr111 Cr 0.74940 0.44488 0.49356
 Cr112 Cr 0.70576 0.26598 0.49863
 Cr113 Cr 0.58577 0.32258 0.51222
 O114 O 0.68121 0.34404 0.50240
 O115 O 0.36989 0.56638 0.53028
 O116 O 0.24298 0.54532 0.55012
 C117 C 0.20055 0.57052 0.56188
 O118 O 0.18809 0.61345 0.53493
 O119 O 0.28566 0.74671 0.55662
 C120 C 0.34830 0.79088 0.56931
 O121 O 0.40209 0.79532 0.54649
 O122 O 0.42607 0.68131 0.56030
 C123 C 0.41154 0.61333 0.56096
 O124 O 0.34571 0.57382 0.43619
 O125 O 0.21157 0.53822 0.45566
 C126 C 0.18974 0.57660 0.43207
 O127 O 0.21427 0.64586 0.43920
 O128 O 0.31070 0.78128 0.46209
 C129 C 0.37005 0.80401 0.44054
 O130 O 0.41399 0.77996 0.44970
 O131 O 0.44471 0.67048 0.46368
 C132 C 0.41218 0.61542 0.43465
 Cr133 Cr 0.29301 0.55911 0.49297
 Cr134 Cr 0.25201 0.69578 0.49804
 Cr135 Cr 0.41845 0.72966 0.50469
 O136 O 0.32128 0.66211 0.49800
 N137 N 0.51438 0.59863 0.41486
 N138 N 0.53858 0.57264 0.37898
 C139 C 0.49132 0.55309 0.34240
 C140 C 0.43691 0.56793 0.35726
 N141 N 0.45361 0.59611 0.40241
 H142 H 0.38942 0.55834 0.33794
 N143 N 0.38738 0.92524 0.41657
 N144 N 0.41552 0.97224 0.38070
 C145 C 0.43658 0.93830 0.34640
 C146 C 0.41992 0.86794 0.36282
 N147 N 0.38979 0.86255 0.40664
 H148 H 0.43066 0.82587 0.34558
 N149 N 0.08484 0.46846 0.40263
 N150 N 0.03708 0.44909 0.36766
 C151 C 0.05460 0.50950 0.34028
 C152 C 0.11568 0.56698 0.36007
 N153 N 0.13249 0.53886 0.39864
 H154 H 0.14537 0.62342 0.34775
 N155 N 0.52626 0.38603 0.39320
 N156 N 0.50180 0.39930 0.35284
 C157 C 0.55684 0.45491 0.33090
 C158 C 0.61669 0.47586 0.35931
 N159 N 0.59463 0.43138 0.39804
 H160 H 0.66891 0.52175 0.35428
 N161 N 0.49606 0.18725 0.37274
 N162 N 0.47613 0.14398 0.33347
 C163 C 0.50983 0.10205 0.33469
 C164 C 0.55155 0.12103 0.37572
 N165 N 0.54105 0.17425 0.39856
 H166 H 0.58721 0.09994 0.38703
 N167 N 0.80705 0.31651 0.34616
 N168 N 0.84814 0.33844 0.30746
 C169 C 0.90181 0.40636 0.31797
 C170 C 0.89099 0.42595 0.36472
 N171 N 0.83143 0.36826 0.38081
 H172 H 0.92078 0.47830 0.38394
 N173 N 0.58678 0.50488 1.08081
 N174 N 0.56592 0.53020 1.11878
 C175 C 0.54926 0.47936 1.15362
 C176 C 0.56062 0.42160 1.13592
 N177 N 0.58360 0.43983 1.09025
 H178 H 0.55486 0.37278 1.15461
 N179 N 0.91539 0.53237 1.08844
 N180 N 0.95878 0.55250 1.12606
 C181 C 0.93945 0.49197 1.15375
 C182 C 0.88210 0.43362 1.13145
 N183 N 0.86938 0.46129 1.09100
 H184 H 0.85238 0.37683 1.14315
 N185 N 0.59363 0.07095 1.09228
 N186 N 0.56366 0.02444 1.12809
 C187 C 0.55688 0.06410 1.16581
 C188 C 0.58508 0.13769 1.15173
 N189 N 0.60728 0.13904 1.10583
 H190 H 0.58592 0.18470 1.17144
 N191 N 0.33079 0.47920 1.13483
 N192 N 0.36011 0.46144 1.17092
 C193 C 0.42906 0.51155 1.17144
 C194 C 0.44121 0.56159 1.13505
 N195 N 0.37850 0.53894 1.11293
 H196 H 0.48972 0.61082 1.12671
 N197 N 0.16244 0.68937 1.13522
 N198 N 0.12381 0.66977 1.17522
 C199 C 0.08882 0.59502 1.17438
 C200 C 0.10759 0.56919 1.13278
 N201 N 0.15325 0.62995 1.10922
 H202 H 0.09000 0.51215 1.12104
 N203 N 0.37331 0.89016 1.11048
 N204 N 0.39458 0.93061 1.15077
 C205 C 0.44072 0.91252 1.17237
 C206 C 0.44766 0.85945 1.14365
 N207 N 0.40471 0.84756 1.10520
 H208 H 0.48225 0.83461 1.14903
 N209 N 0.67968 0.56438 0.61235
 N210 N 0.65646 0.58882 0.64983
 C211 C 0.61051 0.52830 0.67383
 C212 C 0.60581 0.46602 0.64982
 N213 N 0.64966 0.49086 0.61163
 H214 H 0.57055 0.40844 0.65755
 N215 N 0.48691 0.10558 0.59430
 N216 N 0.46152 0.05686 0.62938
 C217 C 0.51662 0.06661 0.65745
 C218 C 0.57745 0.12386 0.63810
 N219 N 0.55619 0.14630 0.59872
 H220 H 0.63083 0.14859 0.65223
 N221 N 0.91617 0.37142 0.58971
 N222 N 0.96180 0.39902 0.62613
 C223 C 0.95141 0.45376 0.64720
 C224 C 0.89716 0.45796 0.62304
 N225 N 0.87686 0.40604 0.58745
 H226 H 0.87208 0.49226 0.63228
 N227 N 0.46422 0.53534 0.58159
 N228 N 0.49120 0.51771 0.61903
 C229 C 0.49114 0.56059 0.65698
 C230 C 0.46248 0.60559 0.64127
 N231 N 0.44700 0.58811 0.59389
 H232 H 0.45156 0.64460 0.66237
 N233 N 0.30586 0.83250 0.63945
 N234 N 0.33100 0.87675 0.67803
 C235 C 0.40199 0.91132 0.67378
 C236 C 0.41980 0.88618 0.63165
 N237 N 0.35823 0.83718 0.61131
 H238 H 0.47213 0.89915 0.61854
 N239 N 0.20620 0.55174 0.64683
 N240 N 0.16892 0.54279 0.68674
 C241 C 0.10618 0.53815 0.67357
 C242 C 0.10679 0.54580 0.62370
 N243 N 0.16990 0.55350 0.60880
 H244 H 0.06713 0.54821 0.60068
 N245 N 0.33599 0.47870 0.87696
 N246 N 0.36119 0.46586 0.83573
 C247 C 0.42821 0.52023 0.83172
 C248 C 0.44360 0.56662 0.87202
 N249 N 0.38462 0.53872 0.89942
 H250 H 0.49241 0.61610 0.88027
 N251 N 0.06927 0.49347 0.91281
 N252 N 0.02553 0.47131 0.87544
 C253 C 0.04971 0.52750 0.84388
 C254 C 0.11063 0.58537 0.86336
 N255 N 0.12043 0.56168 0.90641
 H256 H 0.14666 0.63692 0.84655
 N257 N 0.50817 0.89920 0.90948
 N258 N 0.53163 0.94749 0.87410
 C259 C 0.47858 0.92782 0.84174
 C260 C 0.42105 0.86453 0.85885
 N261 N 0.44204 0.84913 0.90112
 H262 H 0.36912 0.83330 0.84285
 N263 N 0.49074 0.38098 0.90013
 N264 N 0.47045 0.41245 0.86643
 C265 C 0.52877 0.45783 0.84160
 C266 C 0.58583 0.45233 0.86102
 N267 N 0.55965 0.40391 0.89743
 H268 H 0.64064 0.48058 0.84990
 N269 N 0.83184 0.32900 0.85462
 N270 N 0.86921 0.35382 0.81463
 C271 C 0.89877 0.42853 0.81723
 C272 C 0.87831 0.44918 0.86001
 N273 N 0.83697 0.38522 0.88230
 H274 H 0.89344 0.50466 0.87409
 N275 N 0.66850 0.13300 0.88128
 N276 N 0.65079 0.09648 0.83920
 C277 C 0.58454 0.08434 0.82954
 C278 C 0.56178 0.11410 0.86702
 N279 N 0.61576 0.14365 0.89865
 H280 H 0.51078 0.11285 0.87135
   
