data_POSCAR
  _audit_creation_date              2014-09-24
  _audit_creation_method            'ToBaCCo'
  _symmetry_space_group_name_H-M    'P1'
  _symmetry_Int_Tables_number       1
  _symmetry_cell_setting            triclinic
  loop_
  _symmetry_equiv_pos_as_xyz
 x,y,z
_cell_length_a 34.3952
_cell_length_b 33.7272
_cell_length_c 34.5120
_cell_angle_alpha 90.092100
_cell_angle_beta 90.079800
_cell_angle_gamma 89.984900
loop_
  _atom_site_label
  _atom_site_type_symbol
  _atom_site_fract_x
  _atom_site_fract_y
  _atom_site_fract_z
C1 C 0.56714 0.62478 0.60484
 C2 C 0.59703 0.62064 0.57766
 C3 C 0.62535 0.59104 0.58203
 C4 C 0.62331 0.56506 0.61362
 C5 C 0.59355 0.56884 0.64158
 C6 C 0.56525 0.59853 0.63636
 H7 H 0.59814 0.64042 0.55296
 H8 H 0.64483 0.54178 0.61553
 H9 H 0.54168 0.60136 0.65701
 C10 C 0.93000 0.37062 0.10674
 C11 C 0.93247 0.39860 0.13715
 C12 C 0.90614 0.43029 0.13955
 C13 C 0.87738 0.43460 0.11093
 C14 C 0.87428 0.40707 0.08070
 C15 C 0.90095 0.37561 0.07843
 H16 H 0.95509 0.39671 0.15884
 H17 H 0.85736 0.45938 0.11202
 H18 H 0.89892 0.35483 0.05451
 C19 C 0.37562 0.18400 -0.14485
 C20 C 0.34838 0.18691 -0.11464
 C21 C 0.31822 0.15915 -0.11128
 C22 C 0.31484 0.12875 -0.13902
 C23 C 0.34187 0.12544 -0.16921
 C24 C 0.37194 0.15345 -0.17219
 H25 H 0.35041 0.21089 -0.09381
 H26 H 0.29112 0.10771 -0.13734
 H27 H 0.39245 0.15171 -0.19595
 C28 C 0.11883 0.81685 0.35724
 C29 C 0.12447 0.84601 0.32870
 C30 C 0.15605 0.87234 0.33070
 C31 C 0.18301 0.86870 0.36088
 C32 C 0.17809 0.83978 0.38969
 C33 C 0.14630 0.81381 0.38757
 H34 H 0.10408 0.84844 0.30483
 H35 H 0.20785 0.88844 0.36182
 H36 H 0.14388 0.79102 0.40942
 N37 N 0.08484 0.19066 0.12421
 N38 N 0.07176 0.17603 0.15700
 C39 C 0.04610 0.20168 0.17256
 C40 C 0.04247 0.23362 0.14789
 C41 C 0.06745 0.22575 0.11746
 H42 H 0.03074 0.19736 0.19954
 H43 H 0.07315 0.24450 0.09272
 Cu44 Cu 0.08862 0.12428 0.17518
 Cu45 Cu 0.12476 0.16402 0.09374
 Cu46 Cu 0.15712 0.07284 0.12752
 N47 N 0.10613 0.07277 0.19342
 N48 N 0.13375 0.05327 0.17523
 C49 C 0.14054 0.01887 0.19381
 C50 C 0.11554 0.01664 0.22510
 C51 C 0.09403 0.05115 0.22388
 H52 H 0.16126 -0.00333 0.18458
 H53 H 0.07119 0.05967 0.24373
 N54 N 0.17705 0.09765 0.07980
 N55 N 0.16507 0.13253 0.06719
 C56 C 0.18447 0.14157 0.03449
 C57 C 0.20963 0.11076 0.02607
 C58 C 0.20404 0.08340 0.05519
 H59 H 0.18026 0.16831 0.01779
 H60 H 0.21884 0.05528 0.05821
 H61 H 0.11039 0.10696 0.11011
 H62 H 0.14888 0.13244 0.13903
 N63 N 0.41938 0.81292 0.61968
 N64 N 0.43668 0.83086 0.64883
 C65 C 0.46375 0.80652 0.66393
 C66 C 0.46382 0.77177 0.64276
 C67 C 0.43526 0.77674 0.61488
 H68 H 0.48247 0.81372 0.68815
 H69 H 0.42642 0.75556 0.59303
 Cu70 Cu 0.42360 0.88483 0.66351
 Cu71 Cu 0.37725 0.83764 0.59070
 Cu72 Cu 0.34478 0.92847 0.62452
 N73 N 0.40149 0.93284 0.68542
 N74 N 0.37009 0.94926 0.67076
 C75 C 0.36113 0.98183 0.69153
 C76 C 0.38860 0.98606 0.72059
 C77 C 0.41383 0.95461 0.71577
 H78 H 0.33712 1.00150 0.68527
 H79 H 0.43928 0.94815 0.73308
 N80 N 0.32308 0.90256 0.57811
 N81 N 0.33499 0.86762 0.56556
 C82 C 0.31467 0.85790 0.53352
 C83 C 0.28899 0.88838 0.52548
 C84 C 0.29522 0.91621 0.55414
 H85 H 0.31889 0.83113 0.51677
 H86 H 0.28054 0.94440 0.55710
 H87 H 0.39075 0.89632 0.60179
 H88 H 0.35926 0.87049 0.63801
 N89 N 0.92389 0.67923 0.40996
 N90 N 0.93749 0.66510 0.37713
 C91 C 0.97231 0.68182 0.36990
 C92 C 0.98099 0.70740 0.40007
 C93 C 0.94983 0.70485 0.42506
 H94 H 0.99036 0.67534 0.34506
 H95 H 0.94616 0.72085 0.45199
 Cu96 Cu 0.90893 0.62502 0.34815
 Cu97 Cu 0.87308 0.66437 0.43009
 Cu98 Cu 0.82109 0.59407 0.37795
 N99 N 0.87958 0.58563 0.31905
 N100 N 0.84497 0.57412 0.33061
 C101 C 0.83075 0.54747 0.30522
 C102 C 0.85804 0.54161 0.27650
 C103 C 0.88873 0.56632 0.28609
 H104 H 0.80276 0.53308 0.30758
 H105 H 0.91542 0.57026 0.27006
 N106 N 0.80190 0.61790 0.42651
 N107 N 0.82119 0.64553 0.44569
 C108 C 0.79972 0.65740 0.47619
 C109 C 0.76569 0.63581 0.47655
 C110 C 0.76794 0.61100 0.44471
 H111 H 0.80810 0.68006 0.49677
 H112 H 0.74598 0.59032 0.43498
 H113 H 0.87220 0.60816 0.40622
 H114 H 0.84873 0.64846 0.37747
 N115 N 0.57413 0.31936 -0.09016
 N116 N 0.55997 0.33405 -0.12251
 C117 C 0.52518 0.31721 -0.12974
 C118 C 0.51716 0.29079 -0.10015
 C119 C 0.54868 0.29309 -0.07548
 H120 H 0.50701 0.32375 -0.15450
 H121 H 0.55304 0.27627 -0.04917
 Cu122 Cu 0.58876 0.37355 -0.15182
 Cu123 Cu 0.62518 0.33404 -0.07029
 Cu124 Cu 0.67693 0.40421 -0.12251
 N125 N 0.61755 0.41347 -0.18059
 N126 N 0.65257 0.42435 -0.16955
 C127 C 0.66700 0.45031 -0.19538
 C128 C 0.63938 0.45645 -0.22377
 C129 C 0.60829 0.43264 -0.21357
 H130 H 0.69550 0.46376 -0.19372
 H131 H 0.58151 0.42877 -0.22958
 N132 N 0.69650 0.38028 -0.07417
 N133 N 0.67725 0.35279 -0.05491
 C134 C 0.69884 0.34105 -0.02443
 C135 C 0.73292 0.36256 -0.02417
 C136 C 0.73058 0.38719 -0.05607
 H137 H 0.69048 0.31857 -0.00374
 H138 H 0.75248 0.40786 -0.06583
 H139 H 0.62602 0.39028 -0.09397
 H140 H 0.64918 0.34991 -0.12291
 C141 C -0.04436 0.33822 0.10304
 C142 C -0.02093 0.32481 0.13124
 C143 C 0.00462 0.29049 0.12440
 C144 C 0.01759 0.26856 0.15390
 H145 H -0.02161 0.33733 0.16009
 H146 H 0.01174 0.28229 0.09487
 H147 H -0.04483 0.32173 0.07600
 H148 H 0.00825 0.27526 0.18317
 C149 C 0.53794 0.65644 0.59926
 C150 C 0.52337 0.67735 0.62880
 C151 C 0.49612 0.71025 0.62186
 C152 C 0.48948 0.73746 0.64923
 H153 H 0.53296 0.67143 0.65816
 H154 H 0.48262 0.71304 0.59361
 H155 H 0.53040 0.66469 0.56984
 H156 H 0.50475 0.73564 0.67667
 C157 C 1.08626 0.79170 0.35389
 C158 C 1.07243 0.76869 0.38239
 C159 C 1.03791 0.74373 0.37595
 C160 C 1.01605 0.73175 0.40565
 H161 H 1.08480 0.76942 0.41120
 H162 H 1.02956 0.73628 0.34652
 H163 H 1.07003 0.79235 0.32689
 H164 H 1.02301 0.74150 0.43479
 C165 C 0.40762 0.21293 -0.14914
 C166 C 0.42611 0.22889 -0.11879
 C167 C 0.45903 0.25613 -0.12447
 C168 C 0.48305 0.26491 -0.09525
 H169 H 0.41804 0.22057 -0.08957
 H170 H 0.46438 0.26797 -0.15315
 H171 H 0.41791 0.21933 -0.17816
 H172 H 0.47859 0.25137 -0.06713
 C173 C 0.16158 -0.09636 0.30131
 C174 C 0.13182 -0.07519 0.28743
 C175 C 0.13807 -0.04319 0.25919
 C176 C 0.11063 -0.01589 0.25303
 H177 H 0.10263 -0.08055 0.29802
 H178 H 0.16562 -0.04146 0.24409
 H179 H 0.19101 -0.08877 0.29290
 H180 H 0.08404 -0.01664 0.26984
 C181 C 0.59059 0.54390 -0.32579
 C182 C 0.61918 0.52037 -0.31268
 C183 C 0.61343 0.49544 -0.27818
 C184 C 0.64386 0.48158 -0.25829
 H185 H 0.64770 0.52046 -0.32582
 H186 H 0.58410 0.48920 -0.26849
 H187 H 0.56396 0.54513 -0.30898
 H188 H 0.67306 0.48992 -0.26679
 C189 C 0.33751 1.09314 0.80210
 C190 C 0.36809 1.07426 0.78689
 C191 C 0.36287 1.04215 0.75843
 C192 C 0.39231 1.01799 0.74948
 H193 H 0.39728 1.08191 0.79612
 H194 H 0.33461 1.03800 0.74512
 H195 H 0.30838 1.08332 0.79482
 H196 H 0.41993 1.02115 0.76435
 C197 C 0.91000 0.45902 0.17177
 C198 C 0.87932 0.47631 0.18854
 C199 C 0.88440 0.50374 0.22138
 C200 C 0.85407 0.51480 0.24300
 H201 H 0.85014 0.46919 0.17892
 H202 H 0.91337 0.51412 0.22845
 H203 H 0.93879 0.46430 0.18354
 H204 H 0.82548 0.50285 0.23675
 C205 C 0.29009 0.16324 -0.07913
 C206 C 0.27399 0.13198 -0.06157
 C207 C 0.24680 0.13731 -0.02907
 C208 C 0.23650 0.10663 -0.00689
 H209 H 0.28177 0.10216 -0.07038
 H210 H 0.23582 0.16674 -0.02283
 H211 H 0.28412 0.19278 -0.06819
 H212 H 0.24898 0.07764 -0.01233
 C213 C 0.65684 0.58618 0.55336
 C214 C 0.67585 0.61719 0.53854
 C215 C 0.70765 0.61155 0.51061
 C216 C 0.73357 0.64031 0.50432
 H217 H 0.66872 0.64698 0.54802
 H218 H 0.71042 0.58331 0.49584
 H219 H 0.66619 0.55637 0.54611
 H220 H 0.73202 0.66755 0.52097
 C221 C 0.84325 0.41194 0.05144
 C222 C 0.82309 0.38107 0.03772
 C223 C 0.79149 0.38663 0.00946
 C224 C 0.76503 0.35824 0.00372
 H225 H 0.82903 0.35147 0.04843
 H226 H 0.78934 0.41451 -0.00598
 H227 H 0.83511 0.44175 0.04295
 H228 H 0.76611 0.33140 0.02094
 C229 C 0.20628 0.83546 0.42182
 C230 C 0.22345 0.86662 0.43864
 C231 C 0.25079 0.86133 0.47108
 C232 C 0.26167 0.89222 0.49281
 H233 H 0.21647 0.89642 0.42921
 H234 H 0.26145 0.83186 0.47762
 H235 H 0.21136 0.80602 0.43335
 H236 H 0.24943 0.92127 0.48713
   
