data_POSCAR
  _audit_creation_date              2014-09-24
  _audit_creation_method            'ToBaCCo'
  _symmetry_space_group_name_H-M    'P1'
  _symmetry_Int_Tables_number       1
  _symmetry_cell_setting            triclinic
  loop_
  _symmetry_equiv_pos_as_xyz
 x,y,z
_cell_length_a 37.5284
_cell_length_b 37.5522
_cell_length_c 37.6607
_cell_angle_alpha 89.976400
_cell_angle_beta 89.998300
_cell_angle_gamma 89.925000
loop_
  _atom_site_label
  _atom_site_type_symbol
  _atom_site_fract_x
  _atom_site_fract_y
  _atom_site_fract_z
C1 C 0.19633 0.15309 0.19565
 C2 C 0.18118 0.13892 0.22666
 C3 C 0.15024 0.15404 0.24201
 C4 C 0.13513 0.18423 0.22528
 C5 C 0.15009 0.19866 0.19434
 C6 C 0.18082 0.18308 0.17949
 C7 C 0.22670 0.13739 0.18049
 C8 C 0.24223 0.15116 0.14913
 C9 C 0.22632 0.18155 0.13351
 C10 C 0.19594 0.19743 0.14838
 C11 C 0.18014 0.22722 0.13225
 C12 C 0.14945 0.24294 0.14687
 C13 C 0.13469 0.22854 0.17802
 H14 H 0.19285 0.11495 0.23762
 H15 H 0.11237 0.19765 0.23680
 H16 H 0.23880 0.11516 0.19427
 H17 H 0.23633 0.19224 0.10877
 H18 H 0.19142 0.23786 0.10797
 H19 H 0.11129 0.24077 0.18972
 C20 C -0.19308 0.85060 0.19908
 C21 C -0.17702 0.86577 0.22913
 C22 C -0.14572 0.85106 0.24415
 C23 C -0.13109 0.82033 0.22801
 C24 C -0.14695 0.80489 0.19802
 C25 C -0.17810 0.82002 0.18355
 C26 C -0.22389 0.86583 0.18430
 C27 C -0.24043 0.85095 0.15398
 C28 C -0.22500 0.82001 0.13898
 C29 C -0.19418 0.80462 0.15347
 C30 C -0.17894 0.77423 0.13796
 C31 C -0.14785 0.75891 0.15221
 C32 C -0.13210 0.77439 0.18234
 H33 H -0.18834 0.89012 0.23960
 H34 H -0.10803 0.80724 0.23933
 H35 H -0.23554 0.88857 0.19760
 H36 H -0.23578 0.80846 0.11496
 H37 H -0.19097 0.76278 0.11443
 H38 H -0.10839 0.76251 0.19377
 C39 C -0.19787 0.14710 -0.19601
 C40 C -0.18198 0.13221 -0.22630
 C41 C -0.15165 0.14788 -0.24167
 C42 C -0.13738 0.17894 -0.22644
 C43 C -0.15305 0.19420 -0.19623
 C44 C -0.18343 0.17823 -0.18098
 C45 C -0.22801 0.13129 -0.18066
 C46 C -0.24435 0.14596 -0.15012
 C47 C -0.22942 0.17729 -0.13551
 C48 C -0.19927 0.19332 -0.15060
 C49 C -0.18450 0.22409 -0.13547
 C50 C -0.15410 0.24008 -0.15035
 C51 C -0.13860 0.22499 -0.18085
 H52 H -0.19340 0.10851 -0.23813
 H53 H -0.11370 0.19092 -0.23777
 H54 H -0.23930 0.10821 -0.19365
 H55 H -0.24002 0.18867 -0.11131
 H56 H -0.19689 0.23583 -0.11225
 H57 H -0.11490 0.23685 -0.19224
 C58 C 0.19700 0.84993 -0.19553
 C59 C 0.18278 0.86590 -0.22609
 C60 C 0.15224 0.85185 -0.24308
 C61 C 0.13651 0.82093 -0.22840
 C62 C 0.15048 0.80474 -0.19784
 C63 C 0.18084 0.81924 -0.18134
 C64 C 0.22723 0.86426 -0.17894
 C65 C 0.24142 0.84848 -0.14815
 C66 C 0.22512 0.81783 -0.13416
 C67 C 0.19496 0.80313 -0.15053
 C68 C 0.17848 0.77279 -0.13635
 C69 C 0.14801 0.75827 -0.15253
 C70 C 0.13424 0.77441 -0.18332
 H71 H 0.19662 0.88861 -0.23713
 H72 H 0.11229 0.81004 -0.23954
 H73 H 0.23990 0.88763 -0.19015
 H74 H 0.23557 0.80577 -0.11016
 H75 H 0.18900 0.76083 -0.11233
 H76 H 0.11104 0.76310 -0.19620
 C77 C 0.15200 1.19610 0.80511
 C78 C 0.13760 1.18074 0.77435
 C79 C 0.15274 1.14984 0.75898
 C80 C 0.18329 1.13505 0.77537
 C81 C 0.19801 1.15028 0.80606
 C82 C 0.18230 1.18090 0.82099
 C83 C 0.13646 1.22663 0.82006
 C84 C 0.15049 1.24242 0.85116
 C85 C 0.18103 1.22669 0.86665
 C86 C 0.19683 1.19622 0.85190
 C87 C 0.22679 1.18062 0.86789
 C88 C 0.24251 1.14992 0.85335
 C89 C 0.22797 1.13496 0.82236
 H90 H 0.11520 1.19393 0.76191
 H91 H 0.19503 1.11067 0.76547
 H92 H 0.11408 1.23857 0.80639
 H93 H 0.19191 1.23690 0.89123
 H94 H 0.23812 1.19260 0.89151
 H95 H 0.23965 1.11102 0.81123
 C96 C 0.85026 0.80686 0.80084
 C97 C 0.86547 0.82290 0.77078
 C98 C 0.85083 0.85426 0.75582
 C99 C 0.82014 0.86895 0.77201
 C100 C 0.80466 0.85311 0.80199
 C101 C 0.81972 0.82191 0.81641
 C102 C 0.86541 0.77601 0.81558
 C103 C 0.85049 0.75950 0.84591
 C104 C 0.81959 0.77499 0.86095
 C105 C 0.80428 0.80585 0.84650
 C106 C 0.77394 0.82117 0.86206
 C107 C 0.75871 0.85230 0.84786
 C108 C 0.77422 0.86803 0.81772
 H109 H 0.88978 0.81153 0.76027
 H110 H 0.80711 0.89206 0.76072
 H111 H 0.88812 0.76431 0.80224
 H112 H 0.80802 0.76423 0.88498
 H113 H 0.76246 0.80915 0.88560
 H114 H 0.76239 0.89178 0.80633
 C115 C 0.14699 0.80199 1.19563
 C116 C 0.13218 0.81776 1.22601
 C117 C 0.14799 0.84793 1.24149
 C118 C 0.17910 0.86215 1.22630
 C119 C 0.19428 0.84660 1.19600
 C120 C 0.17817 0.81638 1.18061
 C121 C 0.13104 0.77201 1.18016
 C122 C 0.14563 0.75580 1.14950
 C123 C 0.17701 0.77069 1.13491
 C124 C 0.19318 0.80068 1.15013
 C125 C 0.22400 0.81542 1.13503
 C126 C 0.24013 0.84566 1.15005
 C127 C 0.22511 0.86102 1.18065
 H128 H 0.10843 0.80638 1.23782
 H129 H 0.19118 0.88571 1.23773
 H130 H 0.10793 0.76074 1.19313
 H131 H 0.18833 0.76018 1.11065
 H132 H 0.23568 0.80314 1.11172
 H133 H 0.23706 0.88461 1.19215
 C134 C 0.85002 1.19683 1.19602
 C135 C 0.86605 1.18228 1.22642
 C136 C 0.85217 1.15141 1.24294
 C137 C 0.82129 1.13578 1.22807
 C138 C 0.80504 1.15008 1.19771
 C139 C 0.81941 1.18070 1.18160
 C140 C 0.86445 1.22709 1.17957
 C141 C 0.84865 1.24153 1.14890
 C142 C 0.81795 1.22540 1.13483
 C143 C 0.80325 1.19511 1.15095
 C144 C 0.77287 1.17879 1.13668
 C145 C 0.75834 1.14820 1.15260
 C146 C 0.77456 1.13411 1.18321
 H147 H 0.89039 1.19439 1.23594
 H148 H 0.80876 1.11311 1.24063
 H149 H 0.88785 1.23965 1.19085
 H150 H 0.80585 1.23604 1.11094
 H151 H 0.76086 1.18955 1.11278
 H152 H 0.76327 1.11078 1.19588
 O153 O 0.44990 0.93169 0.94191
 O154 O 0.41079 0.96597 0.97414
 C155 C 0.41801 0.94128 0.95125
 O156 O 0.55031 0.93538 1.06855
 O157 O 0.58934 0.96753 1.03416
 C158 C 0.58218 0.94473 1.05895
 O159 O 0.45007 0.93187 1.06541
 O160 O 0.41087 0.96605 1.03318
 C161 C 0.41816 0.94135 1.05606
 O162 O 0.55013 0.93515 0.93851
 O163 O 0.58924 0.96747 0.97260
 C164 C 0.58201 0.94462 0.94791
 Zr165 Zr 0.49999 0.95176 0.95871
 O166 O 0.50416 0.89553 0.95934
 O167 O 0.49589 0.95146 0.90265
 Zr168 Zr 0.50008 0.95207 1.04853
 O169 O 0.50423 0.89584 1.04865
 O170 O 0.49613 0.95243 1.10461
 O171 O 0.46828 0.94492 1.00368
 O172 O 0.53101 0.94544 1.00360
 O173 O 0.54933 1.05897 0.93788
 O174 O 0.58855 1.02706 0.97220
 C175 C 0.58123 1.04977 0.94737
 O176 O 0.44981 1.06230 1.06500
 O177 O 0.41073 1.02785 1.03303
 C178 C 0.41793 1.05270 1.05575
 O179 O 0.55004 1.05910 1.06810
 O180 O 0.58918 1.02669 1.03402
 C181 C 0.58194 1.04973 1.05857
 O182 O 0.44956 1.06183 0.94160
 O183 O 0.41061 1.02769 0.97404
 C184 C 0.41773 1.05231 0.95104
 Zr185 Zr 0.49970 1.04189 0.95846
 O186 O 0.50358 1.09814 0.95882
 O187 O 0.49553 1.04172 0.90239
 Zr188 Zr 0.49993 1.04211 1.04828
 O189 O 0.50382 1.09835 1.04812
 O190 O 0.49600 1.04190 1.10437
 Zr191 Zr 0.44698 0.99692 1.00356
 Zr192 Zr 0.55296 0.99698 1.00340
 O193 O 0.53076 1.04849 1.00328
 O194 O 0.46804 1.04895 1.00341
 O195 O 0.53160 0.99685 0.95160
 O196 O 0.46906 0.99709 1.05493
 O197 O 0.46893 0.99678 0.95214
 O198 O 0.53180 0.99713 1.05529
 H199 H 0.54724 0.92461 1.00362
 H200 H 0.45290 0.99712 1.07574
 H201 H 0.54684 1.06940 1.00319
 H202 H 0.45277 0.99673 0.93134
 H203 H 0.51610 0.96689 1.11381
 H204 H 0.51622 1.02777 1.11364
 H205 H 0.48405 1.10762 1.03341
 H206 H 0.48325 1.10743 0.97276
 H207 H 0.51517 1.02682 0.89309
 H208 H 0.51557 0.96619 0.89323
 H209 H 0.48387 0.88626 0.97330
 H210 H 0.48449 0.88647 1.03400
 O211 O 0.06168 0.45005 -0.06514
 O212 O 0.02735 0.41097 -0.03302
 C213 C 0.05215 0.41819 -0.05581
 O214 O 0.05825 0.54996 0.06158
 O215 O 0.02594 0.58911 0.02744
 C216 C 0.04885 0.58184 0.05211
 O217 O 0.06158 0.44988 0.05823
 O218 O 0.02734 0.41090 0.02596
 C219 C 0.05205 0.41805 0.04886
 O220 O 0.05837 0.55016 -0.06833
 O221 O 0.02598 0.58919 -0.03416
 C222 C 0.04898 0.58201 -0.05877
 Zr223 Zr 0.04144 0.50010 -0.04841
 O224 O 0.09771 0.50405 -0.04846
 O225 O 0.04105 0.49614 -0.10449
 Zr226 Zr 0.04147 0.49996 0.04144
 O227 O 0.09774 0.50395 0.04117
 O228 O 0.04142 0.49587 0.09751
 O229 O 0.04844 0.46830 -0.00351
 O230 O 0.04795 0.53093 -0.00345
 O231 O -0.06545 0.55030 -0.06848
 O232 O -0.03320 0.58926 -0.03419
 C233 C -0.05606 0.58213 -0.05893
 O234 O -0.06862 0.44998 0.05845
 O235 O -0.03442 0.41097 0.02605
 C236 C -0.05901 0.41813 0.04909
 O237 O -0.06532 0.55011 0.06176
 O238 O -0.03315 0.58918 0.02749
 C239 C -0.05592 0.58197 0.05229
 O240 O -0.06879 0.45013 -0.06526
 O241 O -0.03448 0.41102 -0.03305
 C242 C -0.05921 0.41825 -0.05593
 Zr243 Zr -0.04873 0.50017 -0.04838
 O244 O -0.10500 0.50426 -0.04801
 O245 O -0.04875 0.49623 -0.10445
 Zr246 Zr -0.04874 0.50005 0.04143
 O247 O -0.10502 0.50414 0.04074
 O248 O -0.04909 0.49600 0.09750
 Zr249 Zr -0.00359 0.44716 -0.00351
 Zr250 Zr -0.00364 0.55297 -0.00341
 O251 O -0.05523 0.53107 -0.00344
 O252 O -0.05566 0.46834 -0.00349
 O253 O -0.00365 0.53187 -0.05530
 O254 O -0.00361 0.46912 0.04789
 O255 O -0.00362 0.46922 -0.05489
 O256 O -0.00364 0.53169 0.04842
 H257 H 0.06882 0.54706 -0.00341
 H258 H -0.00357 0.45299 0.06872
 H259 H -0.07605 0.54732 -0.00340
 H260 H -0.00360 0.45309 -0.07570
 H261 H 0.02692 0.51578 0.10685
 H262 H -0.03382 0.51528 0.10684
 H263 H -0.11427 0.48365 0.02710
 H264 H -0.11427 0.48420 -0.03372
 H265 H -0.03392 0.51589 -0.11373
 H266 H 0.02695 0.51639 -0.11374
 H267 H 0.10705 0.48436 -0.03369
 H268 H 0.10707 0.48386 0.02694
 O269 O 1.06529 -0.06203 0.44974
 O270 O 1.03307 -0.02749 0.41085
 C271 C 1.05587 -0.05239 0.41799
 O272 O 0.93842 -0.05873 0.54981
 O273 O 0.97272 -0.02663 0.58884
 C274 C 0.94796 -0.04947 0.58160
 O275 O 0.94138 -0.06191 0.45033
 O276 O 0.97347 -0.02752 0.41139
 C277 C 0.95061 -0.05228 0.41858
 O278 O 1.06874 -0.05915 0.54967
 O279 O 1.03449 -0.02694 0.58878
 C280 C 1.05918 -0.04992 0.58149
 Zr281 Zr 1.04869 -0.04200 0.49981
 O282 O 1.04863 -0.09825 0.50362
 O283 O 1.10496 -0.04183 0.49573
 Zr284 Zr 0.95858 -0.04173 0.49998
 O285 O 0.95870 -0.09798 0.50387
 O286 O 0.90229 -0.04128 0.49604
 O287 O 1.00358 -0.04871 0.46819
 O288 O 1.00364 -0.04850 0.53070
 O289 O 1.06893 0.06469 0.55020
 O290 O 1.03465 0.03225 0.58900
 C291 C 1.05939 0.05518 0.58193
 O292 O 0.94168 0.06848 0.45023
 O293 O 0.97406 0.03438 0.41112
 C294 C 0.95103 0.05902 0.41842
 O295 O 0.93844 0.06486 0.55016
 O296 O 0.97284 0.03247 0.58903
 C297 C 0.94800 0.05536 0.58191
 O298 O 1.06589 0.06862 0.45070
 O299 O 1.03376 0.03450 0.41158
 C300 C 1.05662 0.05922 0.41889
 Zr301 Zr 1.04876 0.04805 0.50025
 O302 O 1.04867 0.10426 0.50449
 O303 O 1.10504 0.04756 0.49627
 Zr304 Zr 0.95868 0.04836 0.50015
 O305 O 0.95934 0.10459 0.50435
 O306 O 0.90241 0.04879 0.49620
 Zr307 Zr 1.00364 0.00335 0.44711
 Zr308 Zr 1.00368 0.00295 0.55280
 O309 O 1.00372 0.05458 0.53107
 O310 O 1.00373 0.05526 0.46850
 O311 O 1.05571 0.00286 0.53168
 O312 O 0.95212 0.00342 0.46923
 O313 O 1.05519 0.00313 0.46914
 O314 O 0.95164 0.00322 0.53169
 H315 H 1.00359 -0.06943 0.54672
 H316 H 0.93117 0.00351 0.45322
 H317 H 1.00374 0.07536 0.54728
 H318 H 1.07608 0.00312 0.45306
 H319 H 0.89301 -0.02705 0.51611
 H320 H 0.89304 0.03369 0.51557
 H321 H 0.97295 0.11392 0.48388
 H322 H 1.03383 0.11368 0.48492
 H323 H 1.11430 0.03312 0.51622
 H324 H 1.11430 -0.02775 0.51586
 H325 H 1.03402 -0.10749 0.48381
 H326 H 0.97328 -0.10728 0.48405
 C327 C 1.10313 0.10818 0.33411
 C328 C 1.08232 0.12782 0.31040
 C329 C 1.09776 0.14316 0.28030
 C330 C 1.13459 0.13909 0.27308
 C331 C 1.15517 0.11929 0.29768
 C332 C 1.13956 0.10407 0.32776
 C333 C 1.08692 0.09148 0.36447
 C334 C 1.07317 0.07703 0.38955
 H335 H 1.05396 0.13084 0.31489
 H336 H 1.08012 0.15670 0.26204
 H337 H 1.18367 0.11636 0.29470
 H338 H 1.15600 0.08908 0.34613
 C339 C 0.90332 -0.10119 0.33423
 C340 C 0.92365 -0.12130 0.31051
 C341 C 0.90760 -0.13717 0.28100
 C342 C 0.87065 -0.13318 0.27443
 C343 C 0.85060 -0.11278 0.29896
 C344 C 0.86681 -0.09704 0.32844
 C345 C 0.92001 -0.08436 0.36424
 C346 C 0.93398 -0.06992 0.38919
 H347 H 0.95208 -0.12439 0.31456
 H348 H 0.92484 -0.15116 0.26270
 H349 H 0.82205 -0.10983 0.29649
 H350 H 0.85075 -0.08170 0.34684
 C351 C 0.89801 0.10074 0.66676
 C352 C 0.89406 0.13774 0.66893
 C353 C 0.87782 0.15310 0.69863
 C354 C 0.86531 0.13161 0.72659
 C355 C 0.86933 0.09442 0.72410
 C356 C 0.88558 0.07913 0.69438
 C357 C 0.91528 0.08494 0.63649
 C358 C 0.93004 0.07154 0.61139
 H359 H 0.90356 0.15471 0.64768
 H360 H 0.87472 0.18176 0.69959
 H361 H 0.86042 0.07721 0.74538
 H362 H 0.88866 0.05046 0.69305
 C363 C 1.10726 -0.09818 0.66586
 C364 C 1.10247 -0.13461 0.67146
 C365 C 1.11740 -0.15114 0.70121
 C366 C 1.13758 -0.13152 0.72621
 C367 C 1.14234 -0.09467 0.71975
 C368 C 1.12728 -0.07829 0.68997
 C369 C 1.09091 -0.08108 0.63577
 C370 C 1.07672 -0.06682 0.61082
 H371 H 1.08720 -0.15034 0.65277
 H372 H 1.11395 -0.17962 0.70359
 H373 H 1.15622 -0.07773 0.73835
 H374 H 1.13084 -0.04993 0.68605
 C375 C 0.33299 1.10196 1.10218
 C376 C 0.32640 1.13814 1.09667
 C377 C 0.29668 1.15442 1.11213
 C378 C 0.27275 1.13478 1.13361
 C379 C 0.28012 1.09817 1.13890
 C380 C 0.30984 1.08206 1.12333
 C381 C 0.36328 1.08506 1.08585
 C382 C 0.38840 1.07052 1.07214
 H383 H 0.34435 1.15388 1.08052
 H384 H 0.29358 1.18276 1.10810
 H385 H 0.26228 1.08117 1.15374
 H386 H 0.31452 1.05388 1.12749
 C387 C 0.33276 0.89445 0.90320
 C388 C 0.33008 0.85745 0.89966
 C389 C 0.30038 0.84243 0.88298
 C390 C 0.27300 0.86428 0.86960
 C391 C 0.27595 0.90144 0.87336
 C392 C 0.30563 0.91638 0.89004
 C393 C 0.36324 0.91010 0.92029
 C394 C 0.38846 0.92392 0.93449
 H395 H 0.35097 0.84024 0.90970
 H396 H 0.29905 0.81377 0.88014
 H397 H 0.25509 0.91893 0.86380
 H398 H 0.30738 0.94505 0.89276
 C399 C 0.66747 0.89841 1.10777
 C400 C 0.67388 0.86202 1.10361
 C401 C 0.70398 0.84631 1.11891
 C402 C 0.72855 0.86675 1.13886
 C403 C 0.72129 0.90355 1.14295
 C404 C 0.69117 0.91909 1.12752
 C405 C 0.63701 0.91466 1.09109
 C406 C 0.61177 0.92833 1.07669
 H407 H 0.65553 0.84567 1.08854
 H408 H 0.70696 0.81783 1.11594
 H409 H 0.73953 0.92108 1.15662
 H410 H 0.68664 0.94743 1.13060
 C411 C 0.66549 1.09687 0.89784
 C412 C 0.68935 1.07655 0.87785
 C413 C 0.71886 1.09262 0.86186
 C414 C 0.72529 1.12959 0.86562
 C415 C 0.70058 1.14963 0.88585
 C416 C 0.67111 1.13341 0.90170
 C417 C 0.63554 1.08018 0.91488
 C418 C 0.61062 1.06627 0.92951
 H419 H 0.68542 1.04812 0.87497
 H420 H 0.73729 1.07541 0.84798
 H421 H 0.70293 1.17819 0.88860
 H422 H 0.65259 1.14947 0.91693
 C423 C 0.10051 0.33329 0.09634
 C424 C 0.13765 0.33128 0.09914
 C425 C 0.15362 0.30191 0.11556
 C426 C 0.13260 0.27418 0.12943
 C427 C 0.09529 0.27647 0.12644
 C428 C 0.07939 0.30583 0.11000
 C429 C 0.08397 0.36346 0.07949
 C430 C 0.06967 0.38853 0.06545
 H431 H 0.15424 0.35243 0.08872
 H432 H 0.18237 0.30109 0.11783
 H433 H 0.07842 0.25533 0.13640
 H434 H 0.05062 0.30708 0.10787
 C435 C -0.10762 0.33294 -0.10227
 C436 C -0.11053 0.33064 -0.13925
 C437 C -0.12577 0.30054 -0.15493
 C438 C -0.13831 0.27231 -0.13377
 C439 C -0.13540 0.27496 -0.09661
 C440 C -0.12014 0.30507 -0.08100
 C441 C -0.09111 0.36348 -0.08613
 C442 C -0.07683 0.38872 -0.07243
 H443 H -0.10093 0.35207 -0.15597
 H444 H -0.12803 0.29947 -0.18357
 H445 H -0.14434 0.25348 -0.07964
 H446 H -0.11783 0.30648 -0.05236
 C447 C 0.09694 0.66669 -0.10673
 C448 C 0.07639 0.69486 -0.11992
 C449 C 0.09297 0.72456 -0.13502
 C450 C 0.13037 0.72647 -0.13706
 C451 C 0.15077 0.69790 -0.12388
 C452 C 0.13413 0.66823 -0.10882
 C453 C 0.07990 0.63655 -0.09037
 C454 C 0.06573 0.61151 -0.07622
 H455 H 0.04758 0.69402 -0.11827
 H456 H 0.07656 0.74631 -0.14450
 H457 H 0.17957 0.69840 -0.12548
 H458 H 0.15028 0.64655 -0.09870
 C459 C -0.10099 0.66694 0.10265
 C460 C -0.13799 0.66918 0.10676
 C461 C -0.15325 0.69899 0.12302
 C462 C -0.13166 0.72698 0.13540
 C463 C -0.09448 0.72437 0.13129
 C464 C -0.07928 0.69455 0.11500
 C465 C -0.08532 0.63662 0.08525
 C466 C -0.07202 0.61148 0.07038
 H467 H -0.15504 0.64794 0.09732
 H468 H -0.18191 0.70002 0.12620
 H469 H -0.07719 0.74567 0.14010
 H470 H -0.05061 0.69315 0.11182
 C471 C 1.10684 0.10204 0.66730
 C472 C 1.14306 0.09751 0.67451
 C473 C 1.15827 0.11322 0.70456
 C474 C 1.13749 0.13399 0.72818
 C475 C 1.10085 0.13823 0.72020
 C476 C 1.08583 0.12242 0.69017
 C477 C 1.09095 0.08548 0.63672
 C478 C 1.07694 0.07165 0.61146
 H479 H 1.15965 0.08194 0.65680
 H480 H 1.18666 0.10999 0.70819
 H481 H 1.08302 0.15241 0.73777
 H482 H 1.05761 0.12579 0.68502
 C483 C 0.89874 -0.09669 0.66582
 C484 C 0.90275 -0.13321 0.67151
 C485 C 0.88695 -0.14943 0.70097
 C486 C 0.86664 -0.12938 0.72556
 C487 C 0.86279 -0.09241 0.71908
 C488 C 0.87872 -0.07636 0.68960
 C489 C 0.91566 -0.08000 0.63585
 C490 C 0.93019 -0.06604 0.61094
 H491 H 0.91802 -0.14928 0.65306
 H492 H 0.88979 -0.17798 0.70338
 H493 H 0.84888 -0.07518 0.73744
 H494 H 0.87575 -0.04793 0.68562
 C495 C 1.10107 -0.10250 0.33318
 C496 C 1.07938 -0.11472 0.30554
 C497 C 1.09461 -0.13098 0.27579
 C498 C 1.13179 -0.13520 0.27330
 C499 C 1.15336 -0.12294 0.30130
 C500 C 1.13807 -0.10670 0.33103
 C501 C 1.08537 -0.08518 0.36344
 C502 C 1.07202 -0.07038 0.38853
 H503 H 1.05072 -0.11145 0.30686
 H504 H 1.07734 -0.13970 0.25447
 H505 H 1.18201 -0.12621 0.30034
 H506 H 1.15510 -0.09736 0.35231
 C507 C 0.90251 0.10604 0.33363
 C508 C 0.88218 0.08477 0.31101
 C509 C 0.86555 0.09961 0.28130
 C510 C 0.86891 0.13633 0.27339
 C511 C 0.88967 0.15737 0.29674
 C512 C 0.90621 0.14234 0.32647
 C513 C 0.91978 0.09036 0.36396
 C514 C 0.93411 0.07648 0.38905
 H515 H 0.87945 0.05650 0.31613
 H516 H 0.85143 0.08161 0.26390
 H517 H 0.89227 0.18581 0.29316
 H518 H 0.92173 0.15913 0.34400
 C519 C 0.10142 0.33332 -0.10217
 C520 C 0.13770 0.32690 -0.09697
 C521 C 0.15394 0.29714 -0.11235
 C522 C 0.13416 0.27299 -0.13343
 C523 C 0.09746 0.28020 -0.13843
 C524 C 0.08139 0.30996 -0.12294
 C525 C 0.08455 0.36361 -0.08589
 C526 C 0.07000 0.38871 -0.07219
 H527 H 0.15354 0.34501 -0.08111
 H528 H 0.18235 0.29414 -0.10857
 H529 H 0.08036 0.26220 -0.15295
 H530 H 0.05314 0.31451 -0.12685
 C531 C -0.10545 0.33295 0.09763
 C532 C -0.14245 0.33030 0.10135
 C533 C -0.15744 0.30062 0.11807
 C534 C -0.13554 0.27320 0.13132
 C535 C -0.09837 0.27615 0.12745
 C536 C -0.08346 0.30583 0.11071
 C537 C -0.08988 0.36338 0.08038
 C538 C -0.07619 0.38858 0.06602
 H539 H -0.15971 0.35119 0.09139
 H540 H -0.18611 0.29930 0.12102
 H541 H -0.08085 0.25527 0.13691
 H542 H -0.05479 0.30756 0.10787
 C543 C -0.10225 0.66738 -0.10785
 C544 C -0.13865 0.67385 -0.10371
 C545 C -0.15429 0.70395 -0.11904
 C546 C -0.13378 0.72845 -0.13899
 C547 C -0.09697 0.72112 -0.14309
 C548 C -0.08149 0.69100 -0.12763
 C549 C -0.08605 0.63693 -0.09113
 C550 C -0.07242 0.61171 -0.07669
 H551 H -0.15505 0.65554 -0.08863
 H552 H -0.18279 0.70698 -0.11607
 H553 H -0.07939 0.73931 -0.15678
 H554 H -0.05314 0.68642 -0.13070
 C555 C 0.09615 0.66603 0.10141
 C556 C 0.07592 0.68989 0.12147
 C557 C 0.09211 0.71929 0.13748
 C558 C 0.12912 0.72560 0.13367
 C559 C 0.14907 0.70092 0.11333
 C560 C 0.13272 0.67155 0.09746
 C561 C 0.07935 0.63614 0.08443
 C562 C 0.06537 0.61124 0.06987
 H563 H 0.04746 0.68604 0.12441
 H564 H 0.07496 0.73773 0.15143
 H565 H 0.17764 0.70318 0.11053
 H566 H 0.14870 0.65303 0.08217
 C567 C 0.33317 1.10126 0.90364
 C568 C 0.33193 1.10444 0.86663
 C569 C 0.30251 1.12035 0.85025
 C570 C 0.27393 1.13331 0.87071
 C571 C 0.27551 1.13008 0.90792
 C572 C 0.30494 1.11414 0.92424
 C573 C 0.36319 1.08436 0.92043
 C574 C 0.38819 1.06991 0.93445
 H575 H 0.35367 1.09458 0.85044
 H576 H 0.30227 1.12284 0.82160
 H577 H 0.25372 1.13937 0.92435
 H578 H 0.30557 1.11168 0.95290
 C579 C 0.33296 0.89244 1.10217
 C580 C 0.30506 0.88010 1.08085
 C581 C 0.27497 0.86468 1.09639
 C582 C 0.27238 0.86145 1.13353
 C583 C 0.30067 0.87378 1.15473
 C584 C 0.33076 0.88917 1.13912
 C585 C 0.36346 0.90916 1.08612
 C586 C 0.38866 0.92359 1.07250
 H587 H 0.30641 0.88267 1.05222
 H588 H 0.25344 0.85589 1.07939
 H589 H 0.29965 0.87127 1.18336
 H590 H 0.35222 0.89864 1.15587
 C591 C 0.66665 1.09755 1.10657
 C592 C 0.66817 1.13470 1.10898
 C593 C 0.69788 1.15121 1.12411
 C594 C 0.72650 1.13071 1.13703
 C595 C 0.72462 1.09336 1.13465
 C596 C 0.69489 1.07692 1.11949
 C597 C 0.63648 1.08063 1.09017
 C598 C 0.61142 1.06649 1.07600
 H599 H 0.64644 1.15092 1.09907
 H600 H 0.69836 1.17998 1.12597
 H601 H 0.74643 1.07689 1.14392
 H602 H 0.69406 1.04814 1.11759
 C603 C 0.66692 0.89938 0.89757
 C604 C 0.66900 0.86241 0.89339
 C605 C 0.69876 0.84707 0.87708
 C606 C 0.72684 0.86857 0.86473
 C607 C 0.72440 0.90573 0.86891
 C608 C 0.69463 0.92100 0.88524
 C609 C 0.63664 0.91512 0.91499
 C610 C 0.61152 0.92847 0.92986
 H611 H 0.64767 0.84544 0.90281
 H612 H 0.69967 0.81843 0.87385
 H613 H 0.74578 0.92293 0.86011
 H614 H 0.69334 0.94964 0.88848
   
