data_POSCAR
  _audit_creation_date              2014-09-24
  _audit_creation_method            'ToBaCCo'
  _symmetry_space_group_name_H-M    'P1'
  _symmetry_Int_Tables_number       1
  _symmetry_cell_setting            triclinic
  loop_
  _symmetry_equiv_pos_as_xyz
 x,y,z
_cell_length_a 22.1171
_cell_length_b 22.0430
_cell_length_c 21.7545
_cell_angle_alpha 91.749800
_cell_angle_beta 91.069900
_cell_angle_gamma 90.220200
loop_
  _atom_site_label
  _atom_site_type_symbol
  _atom_site_fract_x
  _atom_site_fract_y
  _atom_site_fract_z
Si1 Si 0.00278 0.51808 0.25619
 Si2 Si 0.01136 0.50233 0.75128
 Si3 Si 0.26006 -0.00416 0.51905
 Si4 Si 0.74324 -0.00112 0.51161
 Si5 Si 0.48842 0.23768 0.98287
 Si6 Si 0.48934 0.75863 0.99641
 B7 B 0.99250 1.07194 0.05642
 B8 B 1.03336 1.00887 0.07811
 B9 B 0.95588 1.00801 0.08089
 B10 B 0.92834 1.04610 0.01772
 B11 B 0.99021 1.07165 -0.02333
 B12 B 1.05401 1.04830 0.01400
 B13 B 0.99005 0.94373 -0.02634
 B14 B 0.94958 1.00675 -0.04767
 B15 B 1.02757 1.00786 -0.05088
 B16 B 1.05545 0.97016 0.01128
 B17 B 0.99453 0.94479 0.05292
 B18 B 0.92816 0.96756 0.01548
 B19 B 0.56895 0.49431 0.44797
 B20 B 0.57344 0.49649 0.52707
 B21 B 0.54719 0.55892 0.48766
 B22 B 0.50484 0.53309 0.42502
 B23 B 0.50375 0.45522 0.42457
 B24 B 0.54559 0.43170 0.48818
 B25 B 0.44582 0.49729 0.53169
 B26 B 0.44249 0.49439 0.45209
 B27 B 0.46804 0.43233 0.49039
 B28 B 0.50997 0.45798 0.55387
 B29 B 0.51102 0.53664 0.55411
 B30 B 0.46904 0.55946 0.49134
 C31 C 0.99791 1.32771 0.15994
 C32 C 1.05235 1.34896 0.18814
 C33 C 1.05565 1.40818 0.21311
 C34 C 1.00519 1.44627 0.21026
 C35 C 0.95349 1.42731 0.17710
 C36 C 0.94973 1.36855 0.15197
 C37 C 0.99396 1.26260 0.13985
 C38 C 0.93982 1.23503 0.12050
 C39 C 0.93865 1.17470 0.10013
 C40 C 0.99092 1.13824 0.09627
 C41 C 1.04362 1.16572 0.12252
 C42 C 1.04588 1.22639 0.14386
 C43 C 1.10252 1.31056 0.19222
 C44 C 1.09967 1.25075 0.16946
 H45 H 1.14456 1.32699 0.21317
 H46 H 1.13979 1.22287 0.17297
 H47 H 1.09683 1.42346 0.23643
 H48 H 0.91477 1.45701 0.17328
 H49 H 0.89496 1.15923 0.08860
 H50 H 1.08342 1.14079 0.12791
 H51 H 0.90853 1.35566 0.12756
 H52 H 0.89741 1.25910 0.12132
 C53 C 0.98800 0.69580 0.15133
 C54 C 1.03692 0.65655 0.13888
 C55 C 1.03708 0.59811 0.16267
 C56 C 0.99095 0.58078 0.20179
 C57 C 0.93780 0.61489 0.20340
 C58 C 0.93633 0.67232 0.17890
 C59 C 0.99291 0.76031 0.13403
 C60 C 0.95074 0.80409 0.15205
 C61 C 0.95401 0.86244 0.13004
 C62 C 0.99968 0.88081 0.09038
 C63 C 1.04557 0.83767 0.07850
 C64 C 1.04248 0.77820 0.09932
 C65 C 1.08585 0.67691 0.10500
 C66 C 1.08798 0.73630 0.08452
 H67 H 1.12303 0.64669 0.09446
 H68 H 1.12631 0.74993 0.05775
 H69 H 1.07516 0.56825 0.15479
 H70 H 0.89777 0.59857 0.22522
 H71 H 0.91551 0.89076 0.13920
 H72 H 1.08227 0.84747 0.04990
 H73 H 0.89517 0.69808 0.18335
 H74 H 0.91332 0.79365 0.18110
 C75 C 1.00053 1.31296 -0.15207
 C76 C 1.01838 1.36525 -0.11670
 C77 C 1.02009 1.42281 -0.14411
 C78 C 1.00356 1.42889 -0.20642
 C79 C 0.98595 1.37662 -0.24059
 C80 C 0.98369 1.31991 -0.21404
 C81 C 1.00060 1.25225 -0.12212
 C82 C 0.98875 1.19741 -0.15439
 C83 C 0.98824 1.14236 -0.12418
 C84 C 0.99636 1.13794 -0.06007
 C85 C 1.01592 1.19302 -0.03016
 C86 C 1.01636 1.24946 -0.05941
 C87 C 1.03491 1.35928 -0.05458
 C88 C 1.03380 1.30282 -0.02660
 H89 H 1.04877 1.39889 -0.02705
 H90 H 1.04682 1.30099 0.02156
 H91 H 1.03587 1.46220 -0.11746
 H92 H 0.97458 1.37867 -0.28877
 H93 H 0.97984 1.10396 -0.15301
 H94 H 1.03560 1.19293 0.01447
 H95 H 0.96901 1.28203 -0.24318
 H96 H 0.98020 1.19562 -0.20338
 C97 C 1.00531 0.69650 -0.15412
 C98 C 0.98650 0.64574 -0.12063
 C99 C 0.99106 0.58642 -0.14657
 C100 C 1.01559 0.57702 -0.20504
 C101 C 1.03578 0.62734 -0.23699
 C102 C 1.03118 0.68609 -0.21197
 C103 C 0.99712 0.75915 -0.12631
 C104 C 1.00933 0.81263 -0.15736
 C105 C 1.00385 0.86964 -0.12774
 C106 C 0.98763 0.87682 -0.06541
 C107 C 0.96925 0.82267 -0.03804
 C108 C 0.97455 0.76489 -0.06655
 C109 C 0.96270 0.65480 -0.06185
 C110 C 0.95748 0.71295 -0.03517
 H111 H 0.94841 0.61632 -0.03580
 H112 H 0.93951 0.71730 0.01075
 H113 H 0.97342 0.54822 -0.12235
 H114 H 1.05356 0.62169 -0.28277
 H115 H 1.01429 0.90702 -0.15458
 H116 H 0.95178 0.82346 0.00648
 H117 H 1.04750 0.72274 -0.23900
 H118 H 1.02344 0.81159 -0.20458
 C119 C 1.16259 0.99793 0.32441
 C120 C 1.14559 1.04045 0.37106
 C121 C 1.17330 1.03925 0.43009
 C122 C 1.21849 0.99668 0.44278
 C123 C 1.23761 0.95750 0.39495
 C124 C 1.20978 0.95747 0.33699
 C125 C 1.13120 0.99926 0.26272
 C126 C 1.13823 0.95378 0.21680
 C127 C 1.10746 0.95681 0.16028
 C128 C 1.07086 1.00663 0.14503
 C129 C 1.06050 1.04921 0.19387
 C130 C 1.08982 1.04610 0.25161
 C131 C 1.10218 1.08455 0.35779
 C132 C 1.07564 1.08791 0.29913
 H133 H 1.08919 1.11757 0.39299
 H134 H 1.04290 1.12340 0.29105
 H135 H 1.16056 1.07199 0.46565
 H136 H 1.27534 0.92721 0.40146
 H137 H 1.11319 0.91922 0.12868
 H138 H 1.02425 1.08111 0.19045
 H139 H 1.22694 0.92654 0.30215
 H140 H 1.16591 0.91438 0.22429
 C141 C 1.15270 0.99986 -0.29659
 C142 C 1.21615 0.99345 -0.29629
 C143 C 1.24691 0.99051 -0.35228
 C144 C 1.21556 0.99539 -0.40877
 C145 C 1.15278 1.00080 -0.40922
 C146 C 1.12153 1.00304 -0.35388
 C147 C 1.12162 1.00308 -0.23581
 C148 C 1.05919 1.00853 -0.23155
 C149 C 1.03170 1.01015 -0.17484
 C150 C 1.06358 1.00738 -0.11809
 C151 C 1.12728 1.00235 -0.12300
 C152 C 1.15611 0.99992 -0.18069
 C153 C 1.24840 0.99073 -0.24019
 C154 C 1.21910 0.99410 -0.18369
 H155 H 1.29717 0.98607 -0.23994
 H156 H 1.24614 0.99179 -0.14176
 H157 H 1.29572 0.98598 -0.35194
 H158 H 1.12777 1.00371 -0.45222
 H159 H 0.98409 1.00982 -0.17844
 H160 H 1.15563 1.00175 -0.08231
 H161 H 1.07312 1.00773 -0.35723
 H162 H 1.02993 1.01019 -0.27165
 C163 C 0.86145 1.02265 0.33973
 C164 C 0.81408 1.06388 0.35157
 C165 C 0.78369 1.06234 0.40742
 C166 C 0.79732 1.01771 0.45009
 C167 C 0.84836 0.98160 0.44124
 C168 C 0.88026 0.98386 0.38671
 C169 C 0.88732 1.02020 0.27678
 C170 C 0.93277 0.97978 0.25990
 C171 C 0.95274 0.97660 0.19986
 C172 C 0.92789 1.01145 0.15193
 C173 C 0.88562 1.05534 0.17154
 C174 C 0.86431 1.05923 0.23205
 C175 C 0.79515 1.10400 0.30636
 C176 C 0.81980 1.10176 0.24779
 H177 H 0.75931 1.13620 0.31570
 H178 H 0.80254 1.13258 0.21384
 H179 H 0.74757 1.09403 0.41538
 H180 H 0.86266 0.94997 0.47549
 H181 H 0.99037 0.94702 0.19308
 H182 H 0.86882 1.08793 0.14124
 H183 H 0.91780 0.95322 0.38153
 H184 H 0.95435 0.95042 0.29233
 C185 C 0.83142 1.00052 -0.29273
 C186 C 0.80574 0.94620 -0.31692
 C187 C 0.77891 0.94545 -0.37566
 C188 C 0.78376 0.99615 -0.41297
 C189 C 0.81675 1.04702 -0.39149
 C190 C 0.83906 1.05000 -0.33117
 C191 C 0.85180 1.00239 -0.22761
 C192 C 0.85855 1.05685 -0.19404
 C193 C 0.88196 1.05671 -0.13450
 C194 C 0.90517 1.00376 -0.10873
 C195 C 0.88726 0.94835 -0.13856
 C196 C 0.85952 0.94754 -0.19716
 C197 C 0.80832 0.89330 -0.28254
 C198 C 0.83771 0.89332 -0.22494
 H199 H 0.78982 0.85100 -0.30149
 H200 H 0.84161 0.85100 -0.20113
 H201 H 0.75378 0.90563 -0.39115
 H202 H 0.82216 1.08587 -0.42024
 H203 H 0.88615 1.09974 -0.11201
 H204 H 0.89164 0.90604 -0.11571
 H205 H 0.86252 1.09077 -0.31512
 H206 H 0.84591 1.09974 -0.21334
 C207 C 1.30254 1.14430 -0.00735
 C208 C 1.31893 1.17138 -0.06243
 C209 C 1.37767 1.19381 -0.06822
 C210 C 1.42051 1.18823 -0.02018
 C211 C 1.40610 1.15475 0.03102
 C212 C 1.34760 1.13262 0.03741
 C213 C 1.23778 1.12950 0.00113
 C214 C 1.21572 1.11390 0.05798
 C215 C 1.15692 1.09354 0.06270
 C216 C 1.11704 1.08791 0.01160
 C217 C 1.13672 1.11413 -0.04305
 C218 C 1.19683 1.13384 -0.04893
 C219 C 1.27608 1.17736 -0.11029
 C220 C 1.21654 1.15724 -0.10430
 H221 H 1.28891 1.19727 -0.15310
 H222 H 1.18530 1.16123 -0.14293
 H223 H 1.38801 1.21899 -0.10855
 H224 H 1.43842 1.15001 0.06851
 H225 H 1.14644 1.07684 0.10683
 H226 H 1.10729 1.11575 -0.08294
 H227 H 1.33804 1.10824 0.07842
 H228 H 1.24377 1.11505 0.09915
 C229 C 0.68358 1.15909 0.00201
 C230 C 0.63500 1.12789 0.02889
 C231 C 0.57542 1.14950 0.02219
 C232 C 0.56427 1.20219 -0.01041
 C233 C 0.61275 1.23310 -0.03594
 C234 C 0.67132 1.21180 -0.03044
 C235 C 0.74615 1.13481 0.00913
 C236 C 0.79678 1.16199 -0.01695
 C237 C 0.85359 1.13563 -0.01215
 C238 C 0.86275 1.08077 0.01802
 C239 C 0.81270 1.05767 0.04959
 C240 C 0.75474 1.08246 0.04359
 C241 C 0.64656 1.07596 0.06266
 C242 C 0.70527 1.05403 0.07033
 H243 H 0.60972 1.05198 0.08353
 H244 H 0.71191 1.01350 0.09657
 H245 H 0.53835 1.12591 0.04289
 H246 H 0.60597 1.27495 -0.05980
 H247 H 0.89060 1.16029 -0.03069
 H248 H 0.81786 1.01792 0.07705
 H249 H 0.70612 1.23796 -0.05146
 H250 H 0.79394 1.20355 -0.04160
 C251 C 1.30013 0.85279 -0.00918
 C252 C 1.34980 0.88365 0.01991
 C253 C 1.40795 0.85788 0.01853
 C254 C 1.41555 0.79923 -0.00633
 C255 C 1.36491 0.76647 -0.02902
 C256 C 1.30829 0.79347 -0.03249
 C257 C 1.23944 0.88213 -0.00849
 C258 C 1.19012 0.86169 -0.04508
 C259 C 1.13360 0.88965 -0.04005
 C260 C 1.12251 0.93671 0.00391
 C261 C 1.17362 0.95655 0.03865
 C262 C 1.23154 0.93287 0.03067
 C263 C 1.33995 0.93771 0.05362
 C264 C 1.28155 0.96013 0.06139
 H265 H 1.37733 0.96109 0.07707
 H266 H 1.27564 1.00013 0.09078
 H267 H 1.44628 0.88171 0.03974
 H268 H 1.36941 0.71977 -0.04523
 H269 H 1.09938 0.87273 -0.07059
 H270 H 1.16950 0.98878 0.07472
 H271 H 1.27088 0.76661 -0.05104
 H272 H 1.19491 0.82513 -0.07885
 C273 C 0.67625 0.85645 0.01428
 C274 C 0.63259 0.87772 -0.02806
 C275 C 0.57439 0.85127 -0.03095
 C276 C 0.55876 0.80608 0.01011
 C277 C 0.60010 0.79089 0.05669
 C278 C 0.65833 0.81527 0.05853
 C279 C 0.73965 0.87958 0.01108
 C280 C 0.78821 0.85202 0.04075
 C281 C 0.84650 0.87593 0.03766
 C282 C 0.86014 0.93078 0.00905
 C283 C 0.81057 0.95349 -0.02659
 C284 C 0.75197 0.92819 -0.02675
 C285 C 0.64788 0.92481 -0.06693
 C286 C 0.70575 0.95100 -0.06470
 H287 H 0.61442 0.94236 -0.09869
 H288 H 0.71498 0.98831 -0.09450
 H289 H 0.54206 0.86437 -0.06613
 H290 H 0.58880 0.75829 0.09067
 H291 H 0.87894 0.84749 0.05638
 H292 H 0.81443 0.99430 -0.05163
 H293 H 0.68895 0.80118 0.09458
 H294 H 0.78234 0.81024 0.06475
 C295 C 0.82162 0.50938 0.35797
 C296 C 0.85244 0.45481 0.34426
 C297 C 0.91004 0.45703 0.31868
 C298 C 0.93807 0.51310 0.30960
 C299 C 0.91244 0.56596 0.33503
 C300 C 0.85359 0.56460 0.35722
 C301 C 0.75656 0.50574 0.37381
 C302 C 0.71730 0.55514 0.36947
 C303 C 0.65677 0.54933 0.38565
 C304 C 0.63436 0.49604 0.41184
 C305 C 0.67267 0.44503 0.40771
 C306 C 0.73226 0.44893 0.38766
 C307 C 0.82500 0.39893 0.35545
 C308 C 0.76696 0.39625 0.37949
 H309 H 0.84902 0.35691 0.34652
 H310 H 0.74802 0.35220 0.38914
 H311 H 0.93187 0.41529 0.30397
 H312 H 0.93547 0.60921 0.33230
 H313 H 0.62845 0.58826 0.37911
 H314 H 0.65634 0.40105 0.41836
 H315 H 0.83309 0.60677 0.37245
 H316 H 0.73257 0.59810 0.35257
 C317 C 0.19212 0.50537 0.34954
 C318 C 0.18226 0.54707 0.30238
 C319 C 0.12340 0.55839 0.28118
 C320 C 0.07459 0.52445 0.30185
 C321 C 0.08392 0.48456 0.34983
 C322 C 0.14184 0.47581 0.37433
 C323 C 0.25576 0.49414 0.37025
 C324 C 0.27042 0.45585 0.41836
 C325 C 0.32958 0.45283 0.44063
 C326 C 0.37652 0.48810 0.41661
 C327 C 0.36323 0.51555 0.36056
 C328 C 0.30330 0.52330 0.34022
 C329 C 0.23131 0.57490 0.27442
 C330 C 0.29069 0.56212 0.29197
 H331 H 0.22370 0.60618 0.23759
 H332 H 0.32716 0.58464 0.26892
 H333 H 0.11695 0.59141 0.24637
 H334 H 0.04682 0.45765 0.36629
 H335 H 0.33577 0.42764 0.48130
 H336 H 0.39837 0.53086 0.33210
 H337 H 0.14641 0.44371 0.41050
 H338 H 0.23662 0.43064 0.44206
 C339 C 0.82970 0.50717 0.63523
 C340 C 0.84164 0.55177 0.68188
 C341 C 0.89721 0.55178 0.71442
 C342 C 0.94280 0.50992 0.69903
 C343 C 0.93344 0.47094 0.64762
 C344 C 0.87723 0.46862 0.61670
 C345 C 0.76699 0.50366 0.60750
 C346 C 0.74712 0.45567 0.56884
 C347 C 0.68769 0.45357 0.54590
 C348 C 0.64394 0.49851 0.55916
 C349 C 0.66703 0.54862 0.59498
 C350 C 0.72542 0.54975 0.62218
 C351 C 0.79792 0.59583 0.69574
 C352 C 0.74193 0.59617 0.66481
 H353 H 0.80740 0.63102 0.73051
 H354 H 0.71002 0.63168 0.67658
 H355 H 0.90390 0.58367 0.75274
 H356 H 0.96907 0.44097 0.63220
 H357 H 0.67870 0.41626 0.51560
 H358 H 0.64083 0.58945 0.59965
 H359 H 0.87171 0.43653 0.57850
 H360 H 0.77671 0.41862 0.55630
 C361 C 0.20439 0.50132 0.66362
 C362 C 0.15396 0.52249 0.62935
 C363 C 0.09523 0.51948 0.65355
 C364 C 0.08628 0.49726 0.71243
 C365 C 0.13635 0.47734 0.74654
 C366 C 0.19449 0.47874 0.72248
 C367 C 0.26612 0.50431 0.63569
 C368 C 0.31816 0.47987 0.66278
 C369 C 0.37325 0.47890 0.63198
 C370 C 0.38101 0.50259 0.57284
 C371 C 0.32853 0.53101 0.54938
 C372 C 0.27188 0.53012 0.57791
 C373 C 0.16282 0.54771 0.57184
 C374 C 0.22047 0.55214 0.54708
 H375 H 0.12461 0.56449 0.54559
 H376 H 0.22464 0.57178 0.50225
 H377 H 0.05692 0.53652 0.62765
 H378 H 0.13077 0.46149 0.79271
 H379 H 0.40594 0.45175 0.65307
 H380 H 0.32841 0.54858 0.50516
 H381 H 0.23116 0.46318 0.75124
 H382 H 0.31664 0.45784 0.70634
 C383 C 0.48285 0.64784 0.17650
 C384 C 0.52422 0.63016 0.13059
 C385 C 0.52329 0.65907 0.07351
 C386 C 0.48136 0.70536 0.06192
 C387 C 0.43740 0.71853 0.10599
 C388 C 0.43769 0.68997 0.16209
 C389 C 0.48941 0.62178 0.23900
 C390 C 0.45674 0.64327 0.28947
 C391 C 0.46394 0.61746 0.34667
 C392 C 0.50318 0.56862 0.35782
 C393 C 0.53866 0.55043 0.30694
 C394 C 0.53252 0.57623 0.24860
 C395 C 0.56695 0.58502 0.14293
 C396 C 0.57022 0.55780 0.20027
 H397 H 0.59834 0.57055 0.10782
 H398 H 0.60377 0.52286 0.20733
 H399 H 0.55743 0.64818 0.04006
 H400 H 0.40395 0.75335 0.09918
 H401 H 0.43603 0.63578 0.38087
 H402 H 0.57313 0.51750 0.31178
 H403 H 0.40296 0.70274 0.19408
 H404 H 0.42522 0.68029 0.28610
 C405 C 0.50418 0.67314 0.79749
 C406 C 0.54659 0.65664 0.84341
 C407 C 0.54217 0.68150 0.90356
 C408 C 0.49752 0.72454 0.91723
 C409 C 0.46139 0.74638 0.86896
 C410 C 0.46351 0.72010 0.81025
 C411 C 0.50548 0.64141 0.73623
 C412 C 0.45591 0.64101 0.69519
 C413 C 0.45754 0.60733 0.63996
 C414 C 0.51043 0.57724 0.61996
 C415 C 0.55683 0.57334 0.66535
 C416 C 0.55487 0.60406 0.72257
 C417 C 0.59344 0.61664 0.82819
 C418 C 0.59866 0.59250 0.76834
 H419 H 0.62696 0.60463 0.86263
 H420 H 0.63604 0.56231 0.75845
 H421 H 0.57393 0.66818 0.93901
 H422 H 0.43133 0.78436 0.87573
 H423 H 0.41632 0.60620 0.61304
 H424 H 0.58747 0.53594 0.66276
 H425 H 0.43410 0.73783 0.77491
 H426 H 0.41431 0.66395 0.70658
 C427 C 0.48683 0.35361 0.16494
 C428 C 0.43270 0.32512 0.14427
 C429 C 0.43073 0.29450 0.08653
 C430 C 0.48226 0.29251 0.04953
 C431 C 0.53300 0.32720 0.06725
 C432 C 0.53533 0.35774 0.12420
 C433 C 0.49095 0.37697 0.22990
 C434 C 0.54626 0.39169 0.25806
 C435 C 0.54909 0.41167 0.31893
 C436 C 0.49776 0.42090 0.35522
 C437 C 0.44226 0.40066 0.32758
 C438 C 0.43875 0.37807 0.26604
 C439 C 0.38194 0.32635 0.18219
 C440 C 0.38447 0.35380 0.24122
 H441 H 0.33980 0.30564 0.16611
 H442 H 0.34408 0.35382 0.26866
 H443 H 0.38992 0.27062 0.07178
 H444 H 0.57222 0.32860 0.03837
 H445 H 0.59311 0.41993 0.33616
 H446 H 0.40215 0.39777 0.35439
 H447 H 0.57590 0.38317 0.13615
 H448 H 0.58846 0.38646 0.23435
 C449 C 0.50398 0.32525 0.79233
 C450 C 0.49665 0.36240 0.84616
 C451 C 0.48981 0.33620 0.90329
 C452 C 0.49191 0.27348 0.90773
 C453 C 0.50138 0.23655 0.85527
 C454 C 0.50703 0.26202 0.79792
 C455 C 0.50819 0.35511 0.73189
 C456 C 0.50538 0.32345 0.67484
 C457 C 0.50518 0.35486 0.61981
 C458 C 0.51051 0.41886 0.61855
 C459 C 0.50928 0.44831 0.67663
 C460 C 0.50894 0.41863 0.73200
 C461 C 0.49678 0.42547 0.84280
 C462 C 0.50341 0.45304 0.78693
 H463 H 0.49168 0.45394 0.88388
 H464 H 0.50261 0.50216 0.78654
 H465 H 0.48393 0.36461 0.94427
 H466 H 0.50451 0.18773 0.85881
 H467 H 0.50118 0.32742 0.57825
 H468 H 0.49201 0.49251 0.68055
 H469 H 0.51459 0.23180 0.75888
 H470 H 0.50139 0.27465 0.67161
 C471 C 0.67122 0.80125 0.47483
 C472 C 0.63207 0.85099 0.46540
 C473 C 0.65327 0.91063 0.47568
 C474 C 0.71397 0.92127 0.49169
 C475 C 0.75379 0.87203 0.49464
 C476 C 0.73270 0.81271 0.48745
 C477 C 0.64505 0.73866 0.47221
 C478 C 0.67718 0.68689 0.48949
 C479 C 0.64795 0.63068 0.49184
 C480 C 0.58539 0.62358 0.47964
 C481 C 0.55808 0.67377 0.45175
 C482 C 0.58464 0.73135 0.45260
 C483 C 0.57220 0.84066 0.44588
 C484 C 0.54967 0.78186 0.43726
 H485 H 0.54242 0.87847 0.43703
 H486 H 0.50298 0.77605 0.42208
 H487 H 0.62233 0.94826 0.47197
 H488 H 0.80090 0.87881 0.50682
 H489 H 0.67672 0.59226 0.49729
 H490 H 0.51353 0.67077 0.43354
 H491 H 0.76502 0.77660 0.49261
 H492 H 0.72473 0.68862 0.50140
 C493 C 0.63112 0.17474 0.50650
 C494 C 0.65964 0.15841 0.56218
 C495 C 0.68443 0.10034 0.56739
 C496 C 0.68437 0.05965 0.51655
 C497 C 0.64857 0.07259 0.46490
 C498 C 0.62197 0.12965 0.45980
 C499 C 0.61391 0.23971 0.49917
 C500 C 0.59279 0.26216 0.44338
 C501 C 0.57613 0.32271 0.43911
 C502 C 0.57818 0.36392 0.48986
 C503 C 0.60632 0.34214 0.54375
 C504 C 0.62283 0.28102 0.54927
 C505 C 0.66637 0.20117 0.61088
 C506 C 0.64783 0.26113 0.60472
 H507 H 0.68749 0.18844 0.65392
 H508 H 0.65429 0.29265 0.64353
 H509 H 0.70771 0.08921 0.60959
 H510 H 0.64647 0.04122 0.42563
 H511 H 0.56071 0.33539 0.39514
 H512 H 0.61336 0.37230 0.58333
 H513 H 0.59733 0.13855 0.41779
 H514 H 0.58870 0.23373 0.40224
 C515 C 0.34546 0.80238 0.51649
 C516 C 0.38154 0.85230 0.53760
 C517 C 0.35753 0.91152 0.53766
 C518 C 0.29673 0.92014 0.52122
 C519 C 0.25966 0.86959 0.50764
 C520 C 0.28382 0.81153 0.50383
 C521 C 0.37385 0.74125 0.51043
 C522 C 0.34707 0.69299 0.47626
 C523 C 0.37671 0.63750 0.46932
 C524 C 0.43286 0.62585 0.49834
 C525 C 0.45901 0.67587 0.53230
 C526 C 0.43185 0.73321 0.53597
 C527 C 0.44031 0.84200 0.55998
 C528 C 0.46389 0.78325 0.56176
 H529 H 0.46789 0.87960 0.57764
 H530 H 0.50914 0.77738 0.58057
 H531 H 0.38539 0.95029 0.55155
 H532 H 0.21185 0.87525 0.49775
 H533 H 0.35648 0.60538 0.43714
 H534 H 0.50301 0.67169 0.55395
 H535 H 0.25363 0.77419 0.49190
 H536 H 0.30471 0.69846 0.45157
 C537 C 0.35746 0.18426 0.51455
 C538 C 0.36824 0.13988 0.46765
 C539 C 0.34341 0.08107 0.47160
 C540 C 0.30764 0.06624 0.52165
 C541 C 0.29960 0.10966 0.56914
 C542 C 0.32458 0.16749 0.56612
 C543 C 0.38080 0.24749 0.50696
 C544 C 0.36917 0.29526 0.54891
 C545 C 0.39401 0.35257 0.54125
 C546 C 0.43152 0.36624 0.49197
 C547 C 0.43900 0.31870 0.44770
 C548 C 0.41506 0.26003 0.45494
 C549 C 0.40234 0.15519 0.41663
 C550 C 0.42563 0.21379 0.41066
 H551 H 0.41105 0.12141 0.38068
 H552 H 0.45201 0.22314 0.37050
 H553 H 0.34936 0.04790 0.43440
 H554 H 0.27166 0.10053 0.60794
 H555 H 0.38572 0.38484 0.57667
 H556 H 0.46471 0.32531 0.40773
 H557 H 0.31612 0.19871 0.60404
 H558 H 0.34190 0.28943 0.58887
   
