data_POSCAR
  _audit_creation_date              2014-09-24
  _audit_creation_method            'ToBaCCo'
  _symmetry_space_group_name_H-M    'P1'
  _symmetry_Int_Tables_number       1
  _symmetry_cell_setting            triclinic
  loop_
  _symmetry_equiv_pos_as_xyz
 x,y,z
_cell_length_a 34.5590
_cell_length_b 34.6789
_cell_length_c 64.1747
_cell_angle_alpha 85.839700
_cell_angle_beta 91.909100
_cell_angle_gamma 119.425900
loop_
  _atom_site_label
  _atom_site_type_symbol
  _atom_site_fract_x
  _atom_site_fract_y
  _atom_site_fract_z
C1 C 0.03043 0.08177 0.52455
 H2 H 0.06184 0.08229 0.52338
 C3 C 0.02760 0.11304 0.53592
 H4 H 0.05688 0.13730 0.54372
 C5 C -0.04569 0.04992 0.51541
 H6 H -0.07384 0.02601 0.50695
 C7 C -0.05015 0.08034 0.52688
 H8 H -0.08188 0.07946 0.52727
 N9 N -0.00581 0.05114 0.51454
 C10 C 0.02014 -0.05726 0.50558
 H11 H 0.01895 -0.05730 0.48872
 C12 C 0.02290 -0.09120 0.51744
 H13 H 0.02369 -0.11729 0.50950
 C14 C 0.01699 -0.02487 0.53630
 H15 H 0.01347 0.00035 0.54359
 C16 C 0.02000 -0.05801 0.54876
 H17 H 0.01987 -0.05720 0.56559
 Zn18 Zn 0.00459 0.01414 0.49800
 N19 N 0.01670 -0.02533 0.51512
 C20 C 0.09108 0.04956 0.47984
 N21 N 0.05328 0.05240 0.48053
 C22 C 0.04942 0.08525 0.46947
 C23 C 0.08454 0.11729 0.45719
 C24 C 0.12705 0.08082 0.46757
 C25 C -0.08381 -0.05115 0.49117
 C26 C -0.11913 -0.08231 0.47976
 C27 C -0.07395 -0.05180 0.44864
 C28 C -0.03997 -0.02080 0.46062
 N29 N -0.04515 -0.02140 0.48152
 H30 H 0.09360 0.02345 0.48897
 H31 H 0.01916 0.08702 0.47058
 H32 H 0.08103 0.14388 0.44909
 H33 H 0.15678 0.07790 0.46708
 H34 H -0.08659 -0.05188 0.50796
 H35 H -0.14799 -0.10659 0.48857
 H36 H -0.06815 -0.04891 0.43201
 H37 H -0.00879 0.00279 0.45322
 C38 C 0.02209 -0.09233 0.53937
 C39 C -0.01300 0.11272 0.53709
 C40 C -0.11452 -0.08440 0.45806
 C41 C 0.12418 0.11553 0.45614
 C42 C 1.10012 0.06314 0.13976
 H43 H 1.10084 0.09445 0.14094
 C44 C 1.13159 0.06112 0.12753
 H45 H 1.15617 0.09097 0.11907
 C46 C 1.06756 -0.01362 0.14975
 H47 H 1.04325 -0.04237 0.15886
 C48 C 1.09827 -0.01722 0.13753
 H49 H 1.09724 -0.04890 0.13727
 N50 N 1.06909 0.02619 0.15062
 C51 C 0.96190 0.05298 0.16321
 H52 H 0.96212 0.05092 0.18011
 C53 C 0.92791 0.05654 0.15245
 H54 H 0.90249 0.05811 0.16118
 C55 C 0.99364 0.05120 0.13136
 H56 H 1.01833 0.04743 0.12324
 C57 C 0.96034 0.05491 0.11997
 H58 H 0.95994 0.05412 0.10312
 Zn59 Zn 1.03190 0.03482 0.16841
 N60 N 0.99346 0.04972 0.15260
 C61 C 1.06760 0.11816 0.18714
 N62 N 1.06993 0.08044 0.18564
 C63 C 1.10193 0.07442 0.19572
 C64 C 1.13343 0.10707 0.20792
 C65 C 1.09835 0.15167 0.19936
 C66 C 0.96405 -0.05316 0.17524
 C67 C 0.93165 -0.09001 0.18682
 C68 C 0.96362 -0.05240 0.21837
 C69 C 0.99560 -0.01642 0.20621
 N70 N 0.99494 -0.01722 0.18504
 H71 H 1.04222 0.12249 0.17876
 H72 H 1.10334 0.04434 0.19397
 H73 H 1.15928 0.10190 0.21530
 H74 H 1.09575 0.18129 0.20056
 H75 H 0.96358 -0.05245 0.15836
 H76 H 0.90639 -0.11772 0.17873
 H77 H 0.96405 -0.05086 0.23518
 H78 H 1.01974 0.01282 0.21368
 C79 C 0.92630 0.05656 0.13055
 C80 C 1.13115 0.02065 0.12645
 C81 C 0.93064 -0.08947 0.20865
 C82 C 1.13203 0.14645 0.20988
 C83 C 0.01764 0.92739 0.86216
 H84 H -0.01263 0.89579 0.86192
 C85 C 0.05409 0.93079 0.87357
 H86 H 0.05151 0.90173 0.88234
 C87 C 0.05778 1.00352 0.85072
 H88 H 0.05934 1.03148 0.84141
 C89 C 0.09500 1.00853 0.86213
 H90 H 0.12502 1.04048 0.86157
 N91 N 0.02010 0.96337 0.85099
 C92 C -0.11773 0.93218 0.84324
 H93 H -0.12138 0.93073 0.82646
 C94 C -0.15210 0.92909 0.85537
 H95 H -0.18148 0.92575 0.84733
 C96 C -0.07257 0.94291 0.87316
 H97 H -0.04118 0.94923 0.88001
 C98 C -0.10579 0.94048 0.88586
 H99 H -0.09950 0.94293 0.90246
 Zn100 Zn -0.03035 0.95274 0.83469
 N101 N -0.07878 0.93948 0.85223
 C102 C -0.08125 0.86676 0.81839
 N103 N -0.04175 0.90520 0.81828
 C104 C -0.00633 0.91057 0.80727
 C105 C -0.00952 0.87637 0.79594
 C106 C -0.08606 0.83169 0.80703
 C107 C -0.01338 1.04000 0.82675
 C108 C -0.01042 1.07666 0.81482
 C109 C -0.02141 1.03714 0.78372
 C110 C -0.02399 1.00130 0.79624
 N111 N -0.02018 1.00328 0.81736
 H112 H -0.10872 0.86288 0.82758
 H113 H 0.02478 0.94137 0.80764
 H114 H 0.01917 0.88120 0.78738
 H115 H -0.11738 0.80095 0.80749
 H116 H -0.01150 1.04027 0.84360
 H117 H -0.00622 1.10511 0.82263
 H118 H -0.02484 1.03488 0.76696
 H119 H -0.03033 0.97149 0.78910
 C120 C -0.14620 0.93461 0.87707
 C121 C 0.09349 0.97168 0.87355
 C122 C -0.01505 1.07527 0.79302
 C123 C -0.04962 0.83616 0.79589
 C124 C 0.46900 -0.00304 -0.01040
 C125 C 0.47272 0.00264 0.01136
 C126 C 0.50994 0.00538 0.02211
 C127 C 0.54348 0.00250 0.01176
 C128 C 0.53915 -0.00431 -0.00985
 C129 C 0.50242 -0.00622 -0.02071
 H130 H 0.49904 -0.01178 -0.03724
 H131 H 0.51338 0.01097 0.03864
 C132 C -0.02727 0.44433 0.65491
 C133 C -0.02964 0.43947 0.67702
 C134 C -0.03177 0.47182 0.68807
 C135 C -0.03131 0.50902 0.67768
 C136 C -0.02730 0.51479 0.65565
 C137 C -0.02620 0.48192 0.64455
 H138 H -0.02280 0.48642 0.62768
 H139 H -0.03478 0.46749 0.70495
 C140 C 0.55789 0.55858 0.32300
 C141 C 0.55562 0.55738 0.34508
 C142 C 0.51968 0.52142 0.35568
 C143 C 0.48587 0.48689 0.34491
 C144 C 0.48807 0.48824 0.32284
 C145 C 0.52407 0.52402 0.31224
 H146 H 0.52577 0.52499 0.29535
 H147 H 0.51793 0.52032 0.37257
 C148 C -0.01933 0.21204 0.57114
 C149 C 0.01494 0.22383 0.55664
 C150 C 0.01674 0.19157 0.54555
 C151 C -0.01595 0.14681 0.54850
 C152 C -0.05078 0.13493 0.56261
 C153 C -0.05232 0.16716 0.57392
 C154 C -0.02028 0.24640 0.58341
 C155 C -0.06077 0.24398 0.58837
 C156 C -0.06147 0.27635 0.59988
 C157 C -0.02169 0.31222 0.60657
 C158 C 0.01879 0.31465 0.60158
 C159 C 0.01947 0.28206 0.59026
 C160 C -0.02240 0.34686 0.61871
 C161 C 0.00852 0.36638 0.63479
 C162 C 0.00763 0.39868 0.64626
 C163 C -0.02478 0.41147 0.64222
 C164 C -0.05522 0.39262 0.62600
 C165 C -0.05401 0.36073 0.61434
 H166 H 0.04028 0.25812 0.55370
 H167 H 0.04356 0.20167 0.53450
 H168 H -0.07618 0.10055 0.56526
 H169 H -0.07884 0.15674 0.58516
 H170 H -0.09200 0.21732 0.58317
 H171 H -0.09331 0.27300 0.60369
 H172 H 0.05011 0.34203 0.60622
 H173 H 0.05125 0.28468 0.58705
 H174 H 0.03304 0.35625 0.63876
 H175 H 0.03197 0.41336 0.65846
 H176 H -0.08030 0.40225 0.62251
 H177 H -0.07769 0.34717 0.60180
 C178 C 0.82069 0.80505 0.24347
 C179 C 0.84245 0.79532 0.22827
 C180 C 0.87846 0.82949 0.21708
 C181 C 0.89372 0.87400 0.22104
 C182 C 0.87237 0.88364 0.23647
 C183 C 0.83613 0.84954 0.24750
 C184 C 0.78167 0.76900 0.25492
 C185 C 0.74364 0.77287 0.25784
 C186 C 0.70673 0.73884 0.26855
 C187 C 0.70715 0.70031 0.27672
 C188 C 0.74539 0.69666 0.27386
 C189 C 0.78214 0.73052 0.26299
 C190 C 0.66793 0.66406 0.28816
 C191 C 0.65558 0.61941 0.28594
 C192 C 0.61956 0.58535 0.29709
 C193 C 0.59499 0.59511 0.31066
 C194 C 0.60633 0.63953 0.31247
 C195 C 0.64267 0.67370 0.30147
 H196 H 0.83102 0.76130 0.22477
 H197 H 0.89444 0.82115 0.20533
 H198 H 0.88308 0.91767 0.23967
 H199 H 0.82021 0.85794 0.25925
 H200 H 0.74218 0.80194 0.25152
 H201 H 0.67760 0.74245 0.27013
 H202 H 0.74723 0.66786 0.28029
 H203 H 0.81126 0.72696 0.26120
 H204 H 0.67366 0.61072 0.27550
 H205 H 0.61121 0.55128 0.29536
 H206 H 0.58744 0.64777 0.32265
 H207 H 0.65145 0.70768 0.30371
 C208 C 0.20686 -0.01943 -0.09241
 C209 C 0.18204 -0.05464 -0.10527
 C210 C 0.14542 -0.05732 -0.11633
 C211 C 0.13295 -0.02467 -0.11498
 C212 C 0.15807 0.01097 -0.10245
 C213 C 0.19452 0.01345 -0.09119
 C214 C 0.24525 -0.01728 -0.08028
 C215 C 0.28372 0.02361 -0.07757
 C216 C 0.31982 0.02546 -0.06627
 C217 C 0.31849 -0.01356 -0.05753
 C218 C 0.28001 -0.05443 -0.06023
 C219 C 0.24380 -0.05625 -0.07138
 C220 C 0.35706 -0.01163 -0.04565
 C221 C 0.35052 -0.04034 -0.02783
 C222 C 0.38679 -0.03823 -0.01661
 C223 C 0.43031 -0.00683 -0.02272
 C224 C 0.43699 0.02136 -0.04067
 C225 C 0.40078 0.01898 -0.05203
 H226 H 0.19116 -0.07998 -0.10697
 H227 H 0.12706 -0.08476 -0.12617
 H228 H 0.14889 0.03635 -0.10099
 H229 H 0.21248 0.04068 -0.08122
 H230 H 0.28620 0.05422 -0.08440
 H231 H 0.34865 0.05757 -0.06425
 H232 H 0.27800 -0.08518 -0.05393
 H233 H 0.21448 -0.08826 -0.07287
 H234 H 0.31737 -0.06401 -0.02235
 H235 H 0.38087 -0.06078 -0.00299
 H236 H 0.47032 0.04563 -0.04574
 H237 H 0.40706 0.04095 -0.06590
 C238 C 0.01382 0.79403 0.57555
 C239 C -0.00948 0.81495 0.58177
 C240 C -0.00619 0.85218 0.57023
 C241 C 0.02074 0.86960 0.55226
 C242 C 0.04473 0.84911 0.54628
 C243 C 0.04119 0.81166 0.55775
 C244 C 0.00872 0.75337 0.58733
 C245 C 0.00292 0.71688 0.57669
 C246 C -0.00317 0.67808 0.58777
 C247 C -0.00322 0.67510 0.60972
 C248 C 0.00295 0.71172 0.62036
 C249 C 0.00868 0.75039 0.60928
 C250 C -0.00957 0.63398 0.62150
 C251 C 0.01714 0.63634 0.63888
 C252 C 0.01144 0.59767 0.64990
 C253 C -0.02154 0.55586 0.64397
 C254 C -0.04812 0.55341 0.62655
 C255 C -0.04218 0.59211 0.61540
 H256 H -0.03130 0.80172 0.59525
 H257 H -0.02585 0.86650 0.57507
 H258 H 0.06630 0.86206 0.53272
 H259 H 0.06001 0.79656 0.55277
 H260 H 0.00237 0.71810 0.55978
 H261 H -0.00744 0.65051 0.57918
 H262 H 0.00272 0.71022 0.63728
 H263 H 0.01338 0.77811 0.61788
 H264 H 0.04299 0.66812 0.64372
 H265 H 0.03309 0.60037 0.66297
 H266 H -0.07372 0.52152 0.62169
 H267 H -0.06348 0.58934 0.60217
 C268 C 0.23574 0.24937 0.24459
 C269 C 0.21809 0.20460 0.25155
 C270 C 0.18365 0.17137 0.24062
 C271 C 0.16640 0.18210 0.22233
 C272 C 0.18360 0.22707 0.21561
 C273 C 0.21776 0.26035 0.22669
 C274 C 0.27342 0.28440 0.25576
 C275 C 0.27310 0.32323 0.26030
 C276 C 0.30869 0.35618 0.27087
 C277 C 0.34565 0.35127 0.27690
 C278 C 0.34594 0.31241 0.27221
 C279 C 0.31013 0.27927 0.26186
 C280 C 0.38356 0.38641 0.28812
 C281 C 0.40610 0.37523 0.30400
 C282 C 0.44092 0.40826 0.31487
 C283 C 0.45334 0.45308 0.31041
 C284 C 0.43168 0.46443 0.29426
 C285 C 0.39724 0.43149 0.28320
 H286 H 0.23087 0.19531 0.26551
 H287 H 0.17056 0.13719 0.24652
 H288 H 0.17161 0.23654 0.20144
 H289 H 0.23107 0.29464 0.22091
 H290 H 0.24496 0.32775 0.25598
 H291 H 0.30689 0.38521 0.27458
 H292 H 0.37413 0.30783 0.27626
 H293 H 0.31145 0.24990 0.25827
 H294 H 0.39624 0.34090 0.30836
 H295 H 0.45762 0.39880 0.32708
 H296 H 0.44091 0.49883 0.29046
 H297 H 0.38136 0.44140 0.27077
 C298 C 0.75796 -0.05431 -0.08750
 C299 C 0.80254 -0.03433 -0.08130
 C300 C 0.83371 -0.03900 -0.09256
 C301 C 0.82137 -0.06342 -0.11065
 C302 C 0.77609 -0.08414 -0.11649
 C303 C 0.74489 -0.07983 -0.10499
 C304 C 0.72554 -0.04743 -0.07604
 C305 C 0.68355 -0.08326 -0.07054
 C306 C 0.65317 -0.07650 -0.05968
 C307 C 0.66401 -0.03372 -0.05440
 C308 C 0.70589 0.00211 -0.06003
 C309 C 0.73643 -0.00471 -0.07064
 C310 C 0.63179 -0.02637 -0.04306
 C311 C 0.62398 0.00878 -0.04958
 C312 C 0.59364 0.01577 -0.03887
 C313 C 0.57115 -0.01183 -0.02126
 C314 C 0.57882 -0.04701 -0.01473
 C315 C 0.60878 -0.05432 -0.02558
 H316 H 0.81344 -0.01464 -0.06777
 H317 H 0.86790 -0.02110 -0.08754
 H318 H 0.76410 -0.10469 -0.12967
 H319 H 0.71059 -0.09573 -0.11007
 H320 H 0.67446 -0.11653 -0.07443
 H321 H 0.62097 -0.10462 -0.05564
 H322 H 0.71517 0.03536 -0.05601
 H323 H 0.76843 0.02353 -0.07488
 H324 H 0.64100 0.03053 -0.06312
 H325 H 0.58802 0.04299 -0.04416
 H326 H 0.56146 -0.06887 -0.00127
 H327 H 0.61444 -0.08144 -0.02015
 C328 C 0.23225 0.01532 0.09123
 C329 C 0.18747 -0.01781 0.08984
 C330 C 0.15462 -0.01634 0.10136
 C331 C 0.16578 0.01851 0.11436
 C332 C 0.21045 0.05156 0.11578
 C333 C 0.24330 0.04990 0.10443
 C334 C 0.26740 0.01384 0.07910
 C335 C 0.30332 0.05315 0.07048
 C336 C 0.33695 0.05193 0.05955
 C337 C 0.33537 0.01133 0.05681
 C338 C 0.29917 -0.02803 0.06519
 C339 C 0.26569 -0.02678 0.07626
 C340 C 0.37141 0.01002 0.04538
 C341 C 0.38588 -0.02035 0.05203
 C342 C 0.41910 -0.02225 0.04109
 C343 C 0.43867 0.00620 0.02329
 C344 C 0.42521 0.03739 0.01691
 C345 C 0.39167 0.03904 0.02773
 H346 H 0.17768 -0.04456 0.07960
 H347 H 0.12036 -0.04200 0.09983
 H348 H 0.22009 0.07839 0.12597
 H349 H 0.27751 0.07541 0.10625
 H350 H 0.30538 0.08497 0.07210
 H351 H 0.36454 0.08292 0.05350
 H352 H 0.29652 -0.05994 0.06311
 H353 H 0.23880 -0.05765 0.08286
 H354 H 0.37170 -0.04253 0.06580
 H355 H 0.42915 -0.04640 0.04636
 H356 H 0.44031 0.06010 0.00338
 H357 H 0.38112 0.06256 0.02205
 C358 C 0.78673 0.81146 0.42466
 C359 C 0.77565 0.82416 0.44275
 C360 C 0.80818 0.85882 0.45381
 C361 C 0.85300 0.88268 0.44688
 C362 C 0.86305 0.87003 0.42812
 C363 C 0.83057 0.83475 0.41742
 C364 C 0.75278 0.77354 0.41347
 C365 C 0.76068 0.73922 0.40860
 C366 C 0.72863 0.70324 0.39809
 C367 C 0.68825 0.70120 0.39187
 C368 C 0.68068 0.73596 0.39668
 C369 C 0.71243 0.77149 0.40755
 C370 C 0.65430 0.66322 0.38033
 C371 C 0.60869 0.64770 0.38326
 C372 C 0.57689 0.61321 0.37191
 C373 C 0.58982 0.59301 0.35754
 C374 C 0.63519 0.60719 0.35514
 C375 C 0.66710 0.64231 0.36618
 H376 H 0.74179 0.80677 0.44853
 H377 H 0.79708 0.86762 0.46732
 H378 H 0.89651 0.88496 0.42211
 H379 H 0.83982 0.82545 0.40343
 H380 H 0.79144 0.73994 0.41324
 H381 H 0.73537 0.67679 0.39510
 H382 H 0.65052 0.73617 0.39178
 H383 H 0.70586 0.79787 0.41098
 H384 H 0.59739 0.66207 0.39438
 H385 H 0.54208 0.60263 0.37416
 H386 H 0.64598 0.59154 0.34448
 H387 H 0.70181 0.65352 0.36329
 C388 C -0.01837 0.18317 0.75677
 C389 C -0.04806 0.13896 0.75251
 C390 C -0.04649 0.10403 0.76407
 C391 C -0.01531 0.11251 0.78019
 C392 C 0.01461 0.15673 0.78434
 C393 C 0.01318 0.19169 0.77271
 C394 C -0.02070 0.22024 0.74480
 C395 C 0.01832 0.25880 0.73814
 C396 C 0.01613 0.29394 0.72713
 C397 C -0.02512 0.29143 0.72262
 C398 C -0.06416 0.25273 0.72919
 C399 C -0.06197 0.21751 0.74014
 C400 C -0.02729 0.32919 0.71124
 C401 C -0.06012 0.32176 0.69604
 C402 C -0.06152 0.35746 0.68514
 C403 C -0.02987 0.40123 0.68909
 C404 C 0.00235 0.40872 0.70452
 C405 C 0.00367 0.37310 0.71547
 H406 H -0.07244 0.13140 0.74019
 H407 H -0.07032 0.07030 0.76066
 H408 H 0.03920 0.16428 0.79656
 H409 H 0.03623 0.22541 0.77646
 H410 H 0.05055 0.26156 0.74122
 H411 H 0.04679 0.32294 0.72195
 H412 H -0.09641 0.25000 0.72623
 H413 H -0.09258 0.18847 0.74534
 H414 H -0.08424 0.28836 0.69230
 H415 H -0.08697 0.35097 0.67345
 H416 H 0.02695 0.44224 0.70786
 H417 H 0.02883 0.37996 0.72734
 C418 C 0.81320 0.04598 0.09564
 C419 C 0.80756 0.02237 0.11506
 C420 C 0.84433 0.02674 0.12659
 C421 C 0.88763 0.05472 0.11892
 C422 C 0.89335 0.07892 0.09965
 C423 C 0.85650 0.07473 0.08816
 C424 C 0.77395 0.03973 0.08307
 C425 C 0.77257 0.07619 0.07278
 C426 C 0.73534 0.07011 0.06108
 C427 C 0.69877 0.02740 0.05932
 C428 C 0.70040 -0.00906 0.06949
 C429 C 0.73750 -0.00295 0.08126
 C430 C 0.65899 0.02085 0.04702
 C431 C 0.61606 -0.01052 0.05412
 C432 C 0.57864 -0.01662 0.04261
 C433 C 0.58333 0.00844 0.02375
 C434 C 0.62611 0.04003 0.01670
 C435 C 0.66356 0.04601 0.02814
 H436 H 0.77460 0.00036 0.12133
 H437 H 0.83880 0.00722 0.14125
 H438 H 0.92633 0.10091 0.09342
 H439 H 0.86184 0.09314 0.07319
 H440 H 0.79998 0.10951 0.07409
 H441 H 0.73488 0.09898 0.05371
 H442 H 0.67320 -0.04247 0.06813
 H443 H 0.73795 -0.03176 0.08871
 H444 H 0.61131 -0.02993 0.06876
 H445 H 0.54595 -0.04103 0.04840
 H446 H 0.63053 0.06030 0.00237
 H447 H 0.69612 0.07010 0.02212
 C448 C 0.23480 0.22216 0.42175
 C449 C 0.24195 0.20206 0.44021
 C450 C 0.20625 0.16690 0.45113
 C451 C 0.16254 0.15072 0.44378
 C452 C 0.15559 0.16991 0.42498
 C453 C 0.19118 0.20532 0.41419
 C454 C 0.27239 0.26127 0.41074
 C455 C 0.27305 0.26725 0.38880
 C456 C 0.30751 0.30482 0.37853
 C457 C 0.34236 0.33697 0.38994
 C458 C 0.34217 0.33088 0.41180
 C459 C 0.30744 0.29359 0.42210
 C460 C 0.37899 0.37660 0.37902
 C461 C 0.42340 0.38998 0.38425
 C462 C 0.45801 0.42628 0.37337
 C463 C 0.44884 0.45001 0.35715
 C464 C 0.40443 0.43768 0.35244
 C465 C 0.36980 0.40096 0.36310
 H466 H 0.27515 0.21363 0.44631
 H467 H 0.21286 0.15325 0.46564
 H468 H 0.12248 0.15783 0.41866
 H469 H 0.18426 0.22018 0.40017
 H470 H 0.24713 0.24270 0.37951
 H471 H 0.30728 0.30846 0.36163
 H472 H 0.36848 0.35544 0.42095
 H473 H 0.30764 0.29061 0.43901
 H474 H 0.43132 0.37162 0.39640
 H475 H 0.49202 0.43524 0.37727
 H476 H 0.39659 0.45607 0.34027
 H477 H 0.33581 0.39168 0.35900
 C478 C -0.05562 0.73009 0.76257
 C479 C -0.01999 0.75389 0.77597
 C480 C -0.01838 0.78802 0.78687
 C481 C -0.05255 0.79887 0.78476
 C482 C -0.08868 0.77455 0.77168
 C483 C -0.09004 0.74064 0.76055
 C484 C -0.05599 0.69515 0.75043
 C485 C -0.06590 0.69343 0.72900
 C486 C -0.06318 0.66240 0.71727
 C487 C -0.05084 0.63218 0.72676
 C488 C -0.04213 0.63324 0.74834
 C489 C -0.04449 0.66448 0.76001
 C490 C -0.04613 0.60033 0.71419
 C491 C -0.01176 0.59025 0.71846
 C492 C -0.00714 0.56044 0.70666
 C493 C -0.03644 0.54050 0.69020
 C494 C -0.07084 0.55035 0.68589
 C495 C -0.07566 0.57997 0.69776
 H496 H 0.00717 0.74672 0.77768
 H497 H 0.00963 0.80598 0.79702
 H498 H -0.11533 0.78242 0.76973
 H499 H -0.11801 0.72258 0.75040
 H500 H -0.07434 0.71705 0.72118
 H501 H -0.06952 0.66292 0.70064
 H502 H -0.03352 0.60984 0.75625
 H503 H -0.03730 0.66470 0.77657
 H504 H 0.01205 0.60591 0.73073
 H505 H 0.01974 0.55341 0.71016
 H506 H -0.09414 0.53483 0.67341
 H507 H -0.10287 0.58645 0.69426
   
