data_POSCAR
  _audit_creation_date              2014-09-24
  _audit_creation_method            'ToBaCCo'
  _symmetry_space_group_name_H-M    'P1'
  _symmetry_Int_Tables_number       1
  _symmetry_cell_setting            triclinic
  loop_
  _symmetry_equiv_pos_as_xyz
 x,y,z
_cell_length_a 45.5263
_cell_length_b 46.0056
_cell_length_c 36.1727
_cell_angle_alpha 89.930500
_cell_angle_beta 89.894400
_cell_angle_gamma 89.985300
loop_
  _atom_site_label
  _atom_site_type_symbol
  _atom_site_fract_x
  _atom_site_fract_y
  _atom_site_fract_z
C1 C 1.27344 0.21850 0.26688
 C2 C 1.25059 0.23480 0.25131
 C3 C 1.22661 0.22060 0.23529
 C4 C 1.22548 0.19015 0.23417
 C5 C 1.24843 0.17401 0.25022
 C6 C 1.27271 0.18781 0.26713
 C7 C 1.25181 0.26686 0.25232
 C8 C 1.27577 0.28154 0.23659
 C9 C 1.27794 0.31215 0.23813
 C10 C 1.25546 0.32745 0.25681
 C11 C 1.23157 0.31293 0.27310
 C12 C 1.22969 0.28261 0.27024
 H13 H 1.29084 0.23026 0.28064
 H14 H 1.20893 0.23336 0.22351
 H15 H 1.29301 0.26863 0.22416
 H16 H 1.21161 0.27108 0.28312
 H17 H 1.24788 0.15061 0.24753
 H18 H 1.25537 0.35095 0.25725
 C19 C 0.77165 -0.28310 0.26779
 C20 C 0.74921 -0.26701 0.25090
 C21 C 0.72528 -0.28139 0.23504
 C22 C 0.72370 -0.31178 0.23549
 C23 C 0.74612 -0.32771 0.25280
 C24 C 0.77027 -0.31377 0.26973
 C25 C 0.75004 -0.23496 0.25126
 C26 C 0.77333 -0.21992 0.23455
 C27 C 0.77361 -0.18936 0.23388
 C28 C 0.75063 -0.17407 0.25124
 C29 C 0.72738 -0.18894 0.26853
 C30 C 0.72713 -0.21943 0.26796
 H31 H 0.78904 -0.27119 0.28137
 H32 H 0.70787 -0.26880 0.22237
 H33 H 0.79063 -0.23208 0.22096
 H34 H 0.70909 -0.23122 0.28056
 H35 H 0.74522 -0.35116 0.25118
 H36 H 0.75120 -0.15055 0.25201
 C37 C 0.77441 0.22003 -0.23516
 C38 C 0.75036 0.23419 -0.25133
 C39 C 0.72764 0.21778 -0.26692
 C40 C 0.72877 0.18730 -0.26681
 C41 C 0.75282 0.17334 -0.25011
 C42 C 0.77569 0.18950 -0.23400
 C43 C 0.74883 0.26623 -0.25212
 C44 C 0.77099 0.28241 -0.26954
 C45 C 0.76908 0.31302 -0.27230
 C46 C 0.74465 0.32682 -0.25572
 C47 C 0.72249 0.31082 -0.23790
 C48 C 0.72462 0.28047 -0.23661
 H49 H 0.79199 0.23284 -0.22331
 H50 H 0.70948 0.22890 -0.28014
 H51 H 0.78863 0.27059 -0.28281
 H52 H 0.70744 0.26782 -0.22346
 H53 H 0.75331 0.14982 -0.24879
 H54 H 0.74335 0.35028 -0.25473
 C55 C 1.27434 -0.28356 -0.23537
 C56 C 1.25088 -0.26794 -0.25074
 C57 C 1.22755 -0.28282 -0.26724
 C58 C 1.22770 -0.31323 -0.26908
 C59 C 1.25118 -0.32868 -0.25337
 C60 C 1.27474 -0.31427 -0.23583
 C61 C 1.25102 -0.23589 -0.24996
 C62 C 1.27436 -0.22064 -0.26614
 C63 C 1.27478 -0.19014 -0.26607
 C64 C 1.25180 -0.17502 -0.24858
 C65 C 1.22842 -0.19004 -0.23173
 C66 C 1.22803 -0.22057 -0.23303
 H67 H 1.29133 -0.27137 -0.22142
 H68 H 1.20947 -0.27063 -0.27904
 H69 H 1.29214 -0.23263 -0.27899
 H70 H 1.21036 -0.23254 -0.21989
 H71 H 1.25161 -0.35202 -0.25688
 H72 H 1.25171 -0.15147 -0.24892
 C73 C 0.21872 0.27384 0.73367
 C74 C 0.23378 0.25088 0.75045
 C75 C 0.21802 0.22859 0.76802
 C76 C 0.18695 0.22921 0.76975
 C77 C 0.17235 0.25250 0.75193
 C78 C 0.18799 0.27470 0.73385
 C79 C 0.26621 0.25094 0.75062
 C80 C 0.28132 0.27416 0.76689
 C81 C 0.31231 0.27562 0.76617
 C82 C 0.32759 0.25312 0.74775
 C83 C 0.31266 0.22991 0.73087
 C84 C 0.28190 0.22877 0.73299
 H85 H 0.23109 0.29112 0.72049
 H86 H 0.23046 0.21193 0.78217
 H87 H 0.26843 0.29151 0.77892
 H88 H 0.27002 0.21129 0.71963
 H89 H 0.14864 0.25289 0.75023
 H90 H 0.35133 0.25257 0.74781
 C91 C 0.71707 0.77304 0.73328
 C92 C 0.73281 0.75070 0.75053
 C93 C 0.71784 0.72723 0.76636
 C94 C 0.68693 0.72568 0.76574
 C95 C 0.67152 0.74835 0.74786
 C96 C 0.68613 0.77203 0.73090
 C97 C 0.76525 0.75084 0.75014
 C98 C 0.78100 0.77316 0.76750
 C99 C 0.81190 0.77266 0.76818
 C100 C 0.82681 0.74979 0.75040
 C101 C 0.81125 0.72752 0.73246
 C102 C 0.78044 0.72812 0.73284
 H103 H 0.72948 0.79003 0.71969
 H104 H 0.73080 0.70977 0.77801
 H105 H 0.76912 0.79073 0.78073
 H106 H 0.76812 0.71081 0.71975
 H107 H 0.64785 0.74878 0.74968
 H108 H 0.85059 0.74926 0.75061
 C109 C 0.71868 0.27343 0.23239
 C110 C 0.73369 0.25013 0.24867
 C111 C 0.71781 0.22783 0.26603
 C112 C 0.68697 0.22899 0.26779
 C113 C 0.67222 0.25232 0.25083
 C114 C 0.68788 0.27460 0.23298
 C115 C 0.76607 0.25003 0.24902
 C116 C 0.78113 0.27289 0.26610
 C117 C 0.81192 0.27374 0.26611
 C118 C 0.82758 0.25161 0.24797
 C119 C 0.81280 0.22869 0.23022
 C120 C 0.78191 0.22785 0.23142
 H121 H 0.73111 0.29080 0.21949
 H122 H 0.72959 0.21028 0.27944
 H123 H 0.76872 0.29013 0.27928
 H124 H 0.77010 0.21061 0.21750
 H125 H 0.64843 0.25283 0.25092
 H126 H 0.85137 0.25189 0.24832
 C127 C 0.21846 0.77226 0.23333
 C128 C 0.23422 0.75011 0.25093
 C129 C 0.21927 0.72703 0.26766
 C130 C 0.18837 0.72568 0.26763
 C131 C 0.17289 0.74812 0.24932
 C132 C 0.18748 0.77143 0.23149
 C133 C 0.26665 0.75014 0.25053
 C134 C 0.28239 0.77235 0.26811
 C135 C 0.31324 0.77137 0.26972
 C136 C 0.32814 0.74829 0.25243
 C137 C 0.31262 0.72609 0.23434
 C138 C 0.28181 0.72709 0.23386
 H139 H 0.23086 0.78898 0.21918
 H140 H 0.23224 0.70971 0.27963
 H141 H 0.27050 0.78970 0.28178
 H142 H 0.26948 0.70980 0.22075
 H143 H 0.14925 0.74869 0.25149
 H144 H 0.35193 0.74792 0.25242
 N145 N 1.05276 0.03039 0.04025
 N146 N 1.07357 0.04933 0.04821
 N147 N 1.03252 -0.03081 0.06606
 N148 N 1.03820 -0.05078 0.09133
 N149 N 1.05298 -0.03070 0.04039
 N150 N 1.07312 -0.05059 0.04749
 N151 N 1.03240 0.03030 0.06605
 N152 N 1.03890 0.04920 0.09229
 C153 C 1.06432 0.06120 0.08033
 C154 C 1.06337 -0.06308 0.07906
 N155 N 0.94884 -0.03106 0.03996
 N156 N 0.92793 -0.04993 0.04788
 N157 N 0.96890 0.03012 0.06569
 N158 N 0.96308 0.05014 0.09081
 N159 N 0.94864 0.03003 0.03987
 N160 N 0.92849 0.04998 0.04671
 N161 N 0.96900 -0.03098 0.06592
 N162 N 0.96225 -0.04981 0.09223
 Mn163 Mn 1.00070 -0.00034 0.06627
 C164 C 0.93689 -0.06178 0.08012
 C165 C 0.93803 0.06247 0.07829
 N166 N 1.05330 -0.03066 -0.03936
 N167 N 1.07431 -0.04946 -0.04710
 N168 N 1.03274 0.03034 -0.06537
 N169 N 1.03841 0.05035 -0.09060
 N170 N 1.05300 0.03043 -0.03954
 N171 N 1.07300 0.05050 -0.04649
 N172 N 1.03314 -0.03077 -0.06531
 N173 N 1.03998 -0.04966 -0.09145
 Mn174 Mn 1.05324 -0.00013 0.00043
 C175 C 1.06540 -0.06146 -0.07924
 C176 C 1.06337 0.06289 -0.07815
 N177 N 0.94888 0.02994 -0.03992
 N178 N 0.92797 0.04879 -0.04790
 N179 N 0.96962 -0.03111 -0.06549
 N180 N 0.96400 -0.05100 -0.09082
 N181 N 0.94917 -0.03115 -0.03981
 N182 N 0.92909 -0.05107 -0.04697
 N183 N 0.96925 0.03001 -0.06571
 N184 N 0.96266 0.04891 -0.09196
 Mn185 Mn 0.94865 -0.00056 0.00003
 Mn186 Mn 1.00119 -0.00039 -0.06581
 Cl187 Cl 1.00095 -0.00036 0.00023
 C188 C 0.93716 0.06075 -0.08002
 C189 C 0.93888 -0.06344 -0.07856
 N190 N 1.02962 0.53152 0.56534
 N191 N 1.04954 0.53726 0.59078
 N192 N 0.96814 0.55168 0.53884
 N193 N 0.94952 0.57274 0.54685
 N194 N 0.96795 0.53172 0.56486
 N195 N 0.94918 0.53877 0.59130
 N196 N 1.02979 0.55159 0.53947
 N197 N 1.04983 0.57153 0.54657
 C198 C 1.06211 0.56203 0.57835
 C199 C 0.93750 0.56407 0.57918
 N200 N 0.96896 0.53123 0.43349
 N201 N 0.94895 0.53678 0.40807
 N202 N 1.03041 0.55150 0.45983
 N203 N 1.04923 0.57239 0.45182
 N204 N 1.03065 0.53142 0.43403
 N205 N 1.04964 0.53820 0.40773
 N206 N 0.96875 0.55141 0.45917
 N207 N 0.94859 0.57123 0.45194
 Mn208 Mn 0.99927 0.55177 0.49932
 C209 C 0.93630 0.56156 0.42029
 C210 C 1.06140 0.56348 0.41970
 N211 N 0.96788 0.46892 0.56500
 N212 N 0.94749 0.46334 0.59003
 N213 N 1.02979 0.44867 0.54001
 N214 N 1.04859 0.42786 0.54834
 N215 N 1.02956 0.46875 0.56582
 N216 N 1.04823 0.46205 0.59244
 N217 N 0.96812 0.44874 0.53934
 N218 N 0.94792 0.42888 0.54617
 Mn219 Mn 0.99875 0.50023 0.56560
 C220 C 0.93509 0.43852 0.57756
 C221 C 1.06026 0.43681 0.58067
 N222 N 1.03077 0.46864 0.43450
 N223 N 1.05121 0.46298 0.40960
 N224 N 0.96886 0.44850 0.45969
 N225 N 0.95011 0.42763 0.45153
 N226 N 0.96908 0.46846 0.43368
 N227 N 0.95048 0.46163 0.40708
 N228 N 1.03052 0.44857 0.46037
 N229 N 1.05079 0.42872 0.45380
 Mn230 Mn 0.99987 0.49994 0.43358
 Mn231 Mn 0.99932 0.44839 0.49985
 Cl232 Cl 0.99930 0.50008 0.49959
 C233 C 1.06365 0.43824 0.42235
 C234 C 0.93847 0.43643 0.41908
 N235 N 0.55198 0.03133 0.53982
 N236 N 0.57327 0.04966 0.54802
 N237 N 0.53178 -0.02971 0.56607
 N238 N 0.53752 -0.04962 0.59138
 N239 N 0.55210 -0.02972 0.54023
 N240 N 0.57222 -0.04965 0.54724
 N241 N 0.53177 0.03135 0.56581
 N242 N 0.53888 0.04970 0.59242
 C243 C 0.56446 0.06133 0.58043
 C244 C 0.56259 -0.06202 0.57894
 N245 N 0.44805 -0.02992 0.54066
 N246 N 0.42717 -0.04875 0.54885
 N247 N 0.46827 0.03130 0.56592
 N248 N 0.46255 0.05133 0.59105
 N249 N 0.44787 0.03113 0.54027
 N250 N 0.42772 0.05104 0.54723
 N251 N 0.46834 -0.02977 0.56644
 N252 N 0.46174 -0.04849 0.59290
 Mn253 Mn 0.50004 0.00080 0.56640
 C254 C 0.43632 -0.06047 0.58108
 C255 C 0.43741 0.06360 0.57870
 N256 N 0.55203 -0.02987 0.46052
 N257 N 0.57318 -0.04843 0.45245
 N258 N 0.53138 0.03105 0.43443
 N259 N 0.53699 0.05093 0.40902
 N260 N 0.55177 0.03117 0.46009
 N261 N 0.57181 0.05113 0.45285
 N262 N 0.53176 -0.03001 0.43471
 N263 N 0.53866 -0.04867 0.40834
 Mn264 Mn 0.55219 0.00073 0.50016
 C265 C 0.56422 -0.06032 0.42028
 C266 C 0.56205 0.06342 0.42121
 N267 N 0.44768 0.03076 0.46053
 N268 N 0.42637 0.04907 0.45220
 N269 N 0.46829 -0.03032 0.43510
 N270 N 0.46261 -0.05034 0.40998
 N271 N 0.44796 -0.03029 0.46093
 N272 N 0.42790 -0.05029 0.45410
 N273 N 0.46789 0.03074 0.43455
 N274 N 0.46079 0.04903 0.40782
 Mn275 Mn 0.44766 0.00042 0.50061
 Mn276 Mn 0.49983 0.00037 0.43436
 Cl277 Cl 0.49993 0.00059 0.50038
 C278 C 0.43518 0.06066 0.41970
 C279 C 0.43758 -0.06276 0.42252
 N280 N 0.46798 0.55146 -0.03944
 N281 N 0.46162 0.57176 -0.06399
 N282 N 0.44790 0.53171 0.03856
 N283 N 0.42720 0.53840 0.06275
 N284 N 0.46846 0.55175 0.03819
 N285 N 0.46234 0.57252 0.06210
 N286 N 0.44763 0.53122 -0.03909
 N287 N 0.42690 0.53719 -0.06339
 C288 C 0.43625 0.56221 -0.07906
 C289 C 0.43689 0.56359 0.07762
 N290 N 0.46830 0.44872 0.03895
 N291 N 0.46204 0.42825 0.06335
 N292 N 0.44752 0.46851 -0.03862
 N293 N 0.42666 0.46195 -0.06256
 N294 N 0.46807 0.44846 -0.03869
 N295 N 0.46180 0.42779 -0.06265
 N296 N 0.44794 0.46896 0.03904
 N297 N 0.42729 0.46281 0.06349
 Mn298 Mn 0.44748 0.50010 -0.00002
 C299 C 0.43673 0.43770 0.07881
 C300 C 0.43625 0.43680 -0.07772
 N301 N 0.53176 0.55172 0.03758
 N302 N 0.53816 0.57225 0.06173
 N303 N 0.55184 0.53140 -0.04011
 N304 N 0.57265 0.53799 -0.06423
 N305 N 0.53129 0.55145 -0.04006
 N306 N 0.53752 0.57214 -0.06412
 N307 N 0.55212 0.53147 0.03754
 N308 N 0.57290 0.53768 0.06166
 Mn309 Mn 0.49987 0.55183 -0.00093
 C310 C 0.56356 0.56284 0.07690
 C311 C 0.56302 0.56312 -0.07940
 N312 N 0.53136 0.44844 -0.03931
 N313 N 0.53757 0.42784 -0.06348
 N314 N 0.55215 0.46875 0.03797
 N315 N 0.57303 0.46230 0.06195
 N316 N 0.53159 0.44873 0.03832
 N317 N 0.53787 0.42819 0.06252
 N318 N 0.55174 0.46865 -0.03968
 N319 N 0.57234 0.46235 -0.06411
 Mn320 Mn 0.49983 0.44836 -0.00018
 Mn321 Mn 0.55223 0.50007 -0.00107
 Cl322 Cl 0.49985 0.50009 -0.00055
 C323 C 0.56286 0.43717 -0.07911
 C324 C 0.56343 0.43727 0.07745
 C325 C 1.16781 0.17044 0.16267
 C326 C 1.15600 0.14496 0.17777
 C327 C 1.16624 0.13475 0.21187
 C328 C 1.18846 0.14969 0.23054
 C329 C 1.20082 0.17507 0.21530
 C330 C 1.19002 0.18544 0.18130
 C331 C 1.13447 0.12850 0.15748
 C332 C 1.11711 0.11414 0.14019
 C333 C 1.09764 0.09658 0.11961
 C334 C 1.08188 0.08087 0.10179
 H335 H 1.16021 0.17845 0.13618
 H336 H 1.15730 0.11503 0.22381
 H337 H 1.19605 0.14137 0.25686
 H338 H 1.19932 0.20469 0.16862
 C339 C 1.17213 0.66515 0.65801
 C340 C 1.16122 0.63916 0.67274
 C341 C 1.17126 0.62924 0.70703
 C342 C 1.19248 0.64502 0.72632
 C343 C 1.20394 0.67094 0.71148
 C344 C 1.19335 0.68099 0.67727
 C345 C 1.14009 0.62240 0.65241
 C346 C 1.12249 0.60827 0.63533
 C347 C 1.10180 0.59181 0.61537
 C348 C 1.08389 0.57800 0.59840
 H349 H 1.16451 0.67298 0.63144
 H350 H 1.16286 0.60920 0.71873
 H351 H 1.19999 0.63695 0.75280
 H352 H 1.20203 0.70067 0.66496
 C353 C 0.65343 0.16320 0.70032
 C354 C 0.66065 0.13925 0.67831
 C355 C 0.69000 0.13051 0.67508
 C356 C 0.71210 0.14584 0.69340
 C357 C 0.70513 0.17019 0.71520
 C358 C 0.67551 0.17859 0.71867
 C359 C 0.63817 0.12384 0.65844
 C360 C 0.61993 0.11056 0.64124
 C361 C 0.59944 0.09437 0.62052
 C362 C 0.58286 0.07979 0.60240
 H363 H 0.63078 0.17010 0.70310
 H364 H 0.69584 0.11203 0.65804
 H365 H 0.73470 0.13907 0.68979
 H366 H 0.66942 0.19702 0.73563
 C367 C 0.66381 0.63309 0.21562
 C368 C 0.65426 0.64215 0.18072
 C369 C 0.66664 0.66684 0.16430
 C370 C 0.68884 0.68217 0.18241
 C371 C 0.69900 0.67292 0.21719
 C372 C 0.68602 0.64839 0.23379
 C373 C 0.63292 0.62531 0.16081
 C374 C 0.61577 0.61102 0.14322
 C375 C 0.59659 0.59418 0.12145
 C376 C 0.58103 0.57981 0.10175
 H377 H 0.65439 0.61398 0.22854
 H378 H 0.65954 0.67391 0.13717
 H379 H 0.69865 0.70075 0.16875
 H380 H 0.69313 0.64098 0.26076
 C381 C 0.81289 -0.13382 0.17397
 C382 C 0.84206 -0.14319 0.17633
 C383 C 0.84900 -0.16764 0.19769
 C384 C 0.82682 -0.18267 0.21656
 C385 C 0.79740 -0.17337 0.21433
 C386 C 0.79072 -0.14876 0.19278
 C387 C 0.86463 -0.12755 0.15665
 C388 C 0.88270 -0.11372 0.13970
 C389 C 0.90283 -0.09663 0.11936
 C390 C 0.91900 -0.08121 0.10163
 H391 H 0.80724 -0.11499 0.15742
 H392 H 0.87153 -0.17506 0.19979
 H393 H 0.83270 -0.20136 0.23321
 H394 H 0.76827 -0.14132 0.19000
 C395 C 0.80508 0.37280 0.67350
 C396 C 0.83364 0.36217 0.66988
 C397 C 0.84102 0.33534 0.68540
 C398 C 0.81990 0.31911 0.70448
 C399 C 0.79079 0.32946 0.70856
 C400 C 0.78389 0.35673 0.69257
 C401 C 0.85528 0.37880 0.65005
 C402 C 0.87333 0.39279 0.63337
 C403 C 0.89453 0.40906 0.61384
 C404 C 0.91285 0.42273 0.59721
 H405 H 0.79905 0.39346 0.66124
 H406 H 0.86320 0.32700 0.68296
 H407 H 0.82701 0.29900 0.71711
 H408 H 0.76183 0.36542 0.69315
 C409 C 0.33340 -0.13380 0.71275
 C410 C 0.34358 -0.14331 0.67829
 C411 C 0.33163 -0.16831 0.66231
 C412 C 0.30944 -0.18366 0.68056
 C413 C 0.29886 -0.17416 0.71508
 C414 C 0.31118 -0.14912 0.73107
 C415 C 0.36534 -0.12675 0.65852
 C416 C 0.38294 -0.11251 0.64141
 C417 C 0.40267 -0.09524 0.62081
 C418 C 0.41861 -0.07981 0.60283
 H419 H 0.34246 -0.11441 0.72532
 H420 H 0.33918 -0.17573 0.63551
 H421 H 0.30011 -0.20261 0.66729
 H422 H 0.30373 -0.14147 0.75779
 C423 C 0.33275 0.37041 0.21524
 C424 C 0.34673 0.35845 0.18444
 C425 C 0.33888 0.33073 0.17225
 C426 C 0.31672 0.31519 0.19031
 C427 C 0.30165 0.32719 0.22098
 C428 C 0.31054 0.35501 0.23338
 C429 C 0.36794 0.37525 0.16408
 C430 C 0.38495 0.38953 0.14613
 C431 C 0.40397 0.40638 0.12398
 C432 C 0.41940 0.42075 0.10399
 H433 H 0.33882 0.39181 0.22508
 H434 H 0.34940 0.32138 0.14814
 H435 H 0.31050 0.29449 0.17857
 H436 H 0.30101 0.36491 0.25770
 C437 C 0.83349 0.16990 -0.16259
 C438 C 0.84530 0.14441 -0.17761
 C439 C 0.83503 0.13417 -0.21165
 C440 C 0.81277 0.14909 -0.23033
 C441 C 0.80041 0.17447 -0.21517
 C442 C 0.81124 0.18487 -0.18124
 C443 C 0.86685 0.12797 -0.15729
 C444 C 0.88423 0.11362 -0.13995
 C445 C 0.90373 0.09608 -0.11933
 C446 C 0.91952 0.08039 -0.10149
 H447 H 0.84112 0.17792 -0.13615
 H448 H 0.84397 0.11445 -0.22352
 H449 H 0.80517 0.14074 -0.25660
 H450 H 0.80193 0.20411 -0.16861
 C451 C 0.84227 0.66448 0.31206
 C452 C 0.83521 0.63735 0.32699
 C453 C 0.80688 0.62629 0.32284
 C454 C 0.78559 0.64225 0.30391
 C455 C 0.79215 0.66984 0.28857
 C456 C 0.82104 0.68061 0.29311
 C457 C 0.85691 0.62088 0.34686
 C458 C 0.87494 0.60701 0.36365
 C459 C 0.89604 0.59084 0.38340
 C460 C 0.91424 0.57727 0.40027
 H461 H 0.86428 0.67316 0.31491
 H462 H 0.80111 0.60539 0.33464
 H463 H 0.76369 0.63320 0.30296
 H464 H 0.82790 0.70100 0.28098
 C465 C 0.34603 0.16722 0.30687
 C466 C 0.33999 0.13969 0.32123
 C467 C 0.31205 0.12767 0.31681
 C468 C 0.29005 0.14323 0.29855
 C469 C 0.29545 0.17141 0.28433
 C470 C 0.32411 0.18292 0.28861
 C471 C 0.36217 0.12394 0.34131
 C472 C 0.38017 0.11041 0.35865
 C473 C 0.40044 0.09397 0.37950
 C474 C 0.41687 0.07924 0.39768
 H475 H 0.36771 0.17664 0.30983
 H476 H 0.30707 0.10640 0.32810
 H477 H 0.26847 0.13345 0.29747
 H478 H 0.33022 0.20372 0.27699
 C479 C 0.34856 0.66633 -0.19662
 C480 C 0.34326 0.63823 -0.18357
 C481 C 0.31564 0.62566 -0.18834
 C482 C 0.29323 0.64113 -0.20579
 C483 C 0.29790 0.66975 -0.21895
 C484 C 0.32619 0.68196 -0.21413
 C485 C 0.36557 0.62257 -0.16375
 C486 C 0.38334 0.60905 -0.14610
 C487 C 0.40300 0.59288 -0.12416
 C488 C 0.41877 0.57890 -0.10423
 H489 H 0.36997 0.67622 -0.19316
 H490 H 0.31120 0.60403 -0.17785
 H491 H 0.27190 0.63085 -0.20707
 H492 H 0.33166 0.70325 -0.22478
 C493 C 1.15310 -0.16729 -0.19648
 C494 C 1.16028 -0.14329 -0.17452
 C495 C 1.18961 -0.13454 -0.17144
 C496 C 1.21169 -0.14968 -0.19014
 C497 C 1.20476 -0.17384 -0.21226
 C498 C 1.17520 -0.18250 -0.21523
 C499 C 1.13779 -0.12747 -0.15501
 C500 C 1.11973 -0.11355 -0.13823
 C501 C 1.09958 -0.09638 -0.11810
 C502 C 1.08336 -0.08092 -0.10054
 H503 H 1.13046 -0.17421 -0.19915
 H504 H 1.19544 -0.11605 -0.15443
 H505 H 1.23426 -0.14274 -0.18683
 H506 H 1.16913 -0.20082 -0.23236
 C507 C 1.19565 0.36862 0.33578
 C508 C 1.16590 0.36183 0.33163
 C509 C 1.15752 0.33890 0.30854
 C510 C 1.17883 0.32286 0.28955
 C511 C 1.20879 0.32964 0.29341
 C512 C 1.21697 0.35265 0.31683
 C513 C 1.14405 0.37846 0.35107
 C514 C 1.12584 0.39246 0.36744
 C515 C 1.10448 0.40875 0.38662
 C516 C 1.08602 0.42243 0.40298
 H517 H 1.20238 0.38626 0.35370
 H518 H 1.13452 0.33350 0.30511
 H519 H 1.17187 0.30545 0.27144
 H520 H 1.23989 0.35810 0.32078
 C521 C 0.66933 -0.13207 0.28997
 C522 C 0.65867 -0.14193 0.32408
 C523 C 0.67028 -0.16721 0.33986
 C524 C 0.69253 -0.18253 0.32172
 C525 C 0.70351 -0.17275 0.28751
 C526 C 0.69161 -0.14737 0.27177
 C527 C 0.63662 -0.12557 0.34359
 C528 C 0.61871 -0.11155 0.36047
 C529 C 0.59858 -0.09457 0.38082
 C530 C 0.58230 -0.07939 0.39864
 H531 H 0.66054 -0.11248 0.27755
 H532 H 0.66236 -0.17490 0.36639
 H533 H 0.70152 -0.20175 0.33480
 H534 H 0.69937 -0.13950 0.24528
 C535 C 0.66205 0.36557 -0.21858
 C536 C 0.65286 0.35699 -0.18329
 C537 C 0.66558 0.33265 -0.16648
 C538 C 0.68779 0.31723 -0.18457
 C539 C 0.69762 0.32605 -0.21972
 C540 C 0.68426 0.35018 -0.23673
 C541 C 0.63163 0.37403 -0.16337
 C542 C 0.61459 0.38850 -0.14573
 C543 C 0.59557 0.40554 -0.12388
 C544 C 0.58016 0.42006 -0.10409
 H545 H 0.65237 0.38441 -0.23181
 H546 H 0.65876 0.32595 -0.13904
 H547 H 0.69789 0.29897 -0.17058
 H548 H 0.69113 0.35725 -0.26398
 C549 C 1.16667 0.15805 -0.18573
 C550 C 1.13885 0.16441 -0.17150
 C551 C 1.12688 0.19204 -0.17679
 C552 C 1.14257 0.21327 -0.19618
 C553 C 1.17084 0.20740 -0.21084
 C554 C 1.18253 0.17923 -0.20511
 C555 C 1.12256 0.14268 -0.15134
 C556 C 1.10883 0.12458 -0.13443
 C557 C 1.09277 0.10334 -0.11467
 C558 C 1.07920 0.08504 -0.09790
 H559 H 1.17609 0.13662 -0.18204
 H560 H 1.10544 0.19731 -0.16559
 H561 H 1.13275 0.23462 -0.19803
 H562 H 1.20347 0.17283 -0.21666
 C563 C 1.12987 0.67159 0.29278
 C564 C 1.14288 0.65730 0.32265
 C565 C 1.17104 0.66524 0.33403
 C566 C 1.18612 0.68752 0.31583
 C567 C 1.17328 0.70257 0.28573
 C568 C 1.14482 0.69393 0.27449
 C569 C 1.12685 0.63532 0.34255
 C570 C 1.11295 0.61751 0.35966
 C571 C 1.09596 0.59752 0.38017
 C572 C 1.08068 0.58137 0.39805
 H573 H 1.10808 0.66550 0.28362
 H574 H 1.18118 0.65454 0.35746
 H575 H 1.20728 0.69366 0.32686
 H576 H 1.13417 0.70361 0.25078
 C577 C 0.63021 0.19329 0.32992
 C578 C 0.63805 0.16398 0.32723
 C579 C 0.66192 0.15580 0.30509
 C580 C 0.67789 0.17688 0.28569
 C581 C 0.67011 0.20642 0.28817
 C582 C 0.64611 0.21438 0.31057
 C583 C 0.62160 0.14238 0.34732
 C584 C 0.60774 0.12444 0.36428
 C585 C 0.59155 0.10343 0.38420
 C586 C 0.57791 0.08534 0.40116
 H587 H 0.61186 0.19988 0.34710
 H588 H 0.66815 0.13315 0.30277
 H589 H 0.69607 0.17006 0.26841
 H590 H 0.63987 0.23697 0.31353
 C591 C 0.66899 0.66411 -0.16984
 C592 C 0.64090 0.65643 -0.18175
 C593 C 0.62822 0.67113 -0.21151
 C594 C 0.64340 0.69368 -0.22907
 C595 C 0.67174 0.70216 -0.21714
 C596 C 0.68431 0.68660 -0.18729
 C597 C 0.62455 0.63445 -0.16222
 C598 C 0.61071 0.61670 -0.14492
 C599 C 0.59431 0.59684 -0.12347
 C600 C 0.58012 0.58083 -0.10402
 H601 H 0.67888 0.65308 -0.14648
 H602 H 0.60648 0.66526 -0.22109
 H603 H 0.63299 0.70372 -0.25271
 H604 H 0.70537 0.69253 -0.17581
 C605 C 0.87101 -0.17230 -0.20746
 C606 C 0.86146 -0.16268 -0.17276
 C607 C 0.83538 -0.17371 -0.15774
 C608 C 0.81906 -0.19444 -0.17713
 C609 C 0.82864 -0.20447 -0.21187
 C610 C 0.85475 -0.19304 -0.22689
 C611 C 0.87848 -0.14165 -0.15249
 C612 C 0.89267 -0.12403 -0.13546
 C613 C 0.90913 -0.10326 -0.11553
 C614 C 0.92291 -0.08528 -0.09858
 H615 H 0.89110 -0.16383 -0.21945
 H616 H 0.82778 -0.16647 -0.13088
 H617 H 0.79929 -0.20308 -0.16459
 H618 H 0.86251 -0.20002 -0.25376
 C619 C 0.83271 0.32986 0.33822
 C620 C 0.85759 0.34250 0.32216
 C621 C 0.86747 0.33288 0.28760
 C622 C 0.85258 0.31059 0.26924
 C623 C 0.82762 0.29763 0.28527
 C624 C 0.81780 0.30760 0.31992
 C625 C 0.87364 0.36451 0.34183
 C626 C 0.88747 0.38234 0.35885
 C627 C 0.90431 0.40236 0.37934
 C628 C 0.91943 0.41853 0.39728
 H629 H 0.82502 0.33699 0.36509
 H630 H 0.88676 0.34247 0.27497
 H631 H 0.86046 0.30362 0.24241
 H632 H 0.79890 0.29779 0.33320
 C633 C 0.33778 -0.15551 0.30751
 C634 C 0.36176 -0.16365 0.32941
 C635 C 0.36983 -0.19293 0.33178
 C636 C 0.35407 -0.21400 0.31236
 C637 C 0.32996 -0.20608 0.29021
 C638 C 0.32194 -0.17658 0.28806
 C639 C 0.37811 -0.14203 0.34948
 C640 C 0.39191 -0.12405 0.36636
 C641 C 0.40804 -0.10296 0.38610
 C642 C 0.42167 -0.08478 0.40284
 H643 H 0.33136 -0.13289 0.30542
 H644 H 0.38828 -0.19949 0.34875
 H645 H 0.36050 -0.23656 0.31508
 H646 H 0.30368 -0.16978 0.27097
 C647 C 0.33039 0.33652 -0.16876
 C648 C 0.35855 0.34417 -0.18060
 C649 C 0.37125 0.32965 -0.21050
 C650 C 0.35603 0.30731 -0.22828
 C651 C 0.32759 0.29889 -0.21647
 C652 C 0.31503 0.31424 -0.18644
 C653 C 0.37489 0.36597 -0.16090
 C654 C 0.38870 0.38358 -0.14347
 C655 C 0.40505 0.40330 -0.12189
 C656 C 0.41919 0.41920 -0.10236
 H657 H 0.32047 0.34741 -0.14529
 H658 H 0.39305 0.33551 -0.22002
 H659 H 0.36647 0.29743 -0.25201
 H660 H 0.29391 0.30831 -0.17499
 C661 C 1.16688 -0.15746 0.18712
 C662 C 1.13924 -0.16404 0.17263
 C663 C 1.12752 -0.19179 0.17767
 C664 C 1.14327 -0.21293 0.19708
 C665 C 1.17134 -0.20684 0.21204
 C666 C 1.18280 -0.17854 0.20654
 C667 C 1.12289 -0.14239 0.15246
 C668 C 1.10908 -0.12439 0.13554
 C669 C 1.09293 -0.10327 0.11574
 C670 C 1.07929 -0.08509 0.09892
 H671 H 1.17611 -0.13592 0.18361
 H672 H 1.10623 -0.19724 0.16626
 H673 H 1.13367 -0.23439 0.19875
 H674 H 1.20358 -0.17200 0.21829
 C675 C 1.16685 0.33080 0.66163
 C676 C 1.14199 0.34342 0.67778
 C677 C 1.13231 0.33383 0.71246
 C678 C 1.14732 0.31159 0.73084
 C679 C 1.17223 0.29864 0.71471
 C680 C 1.18190 0.30859 0.67994
 C681 C 1.12577 0.36534 0.65807
 C682 C 1.11176 0.38308 0.64104
 C683 C 1.09472 0.40299 0.62052
 C684 C 1.07945 0.41905 0.60255
 H685 H 1.17440 0.33790 0.63466
 H686 H 1.11303 0.34340 0.72518
 H687 H 1.13956 0.30463 0.75775
 H688 H 1.20076 0.29879 0.66659
 C689 C 0.62662 -0.19099 0.67661
 C690 C 0.63819 -0.16309 0.67242
 C691 C 0.66554 -0.15646 0.68770
 C692 C 0.68135 -0.17765 0.70703
 C693 C 0.67006 -0.20611 0.71165
 C694 C 0.64227 -0.21225 0.69593
 C695 C 0.62196 -0.14137 0.65229
 C696 C 0.60823 -0.12332 0.63537
 C697 C 0.59214 -0.10219 0.61556
 C698 C 0.57852 -0.08401 0.59875
 H699 H 0.60556 -0.19646 0.66458
 H700 H 0.67463 -0.13480 0.68485
 H701 H 0.70191 -0.17111 0.71939
 H702 H 0.63284 -0.23381 0.69691
 C703 C 0.66637 0.33193 0.16262
 C704 C 0.64158 0.34424 0.17932
 C705 C 0.63216 0.33417 0.21388
 C706 C 0.64734 0.31169 0.23155
 C707 C 0.67213 0.29897 0.21480
 C708 C 0.68157 0.30947 0.18022
 C709 C 0.62513 0.36623 0.16007
 C710 C 0.61123 0.38397 0.14291
 C711 C 0.59479 0.40378 0.12154
 C712 C 0.58058 0.41971 0.10209
 H713 H 0.67370 0.33940 0.13573
 H714 H 0.61294 0.34351 0.22700
 H715 H 0.63977 0.30432 0.25837
 H716 H 0.70032 0.29988 0.16639
 C717 C 0.83740 0.15557 0.19231
 C718 C 0.86174 0.16362 0.17090
 C719 C 0.87004 0.19286 0.16889
 C720 C 0.85414 0.21396 0.18819
 C721 C 0.82966 0.20612 0.20985
 C722 C 0.82143 0.17667 0.21164
 C723 C 0.87823 0.14196 0.15095
 C724 C 0.89211 0.12393 0.13419
 C725 C 0.90834 0.10277 0.11456
 C726 C 0.92204 0.08454 0.09791
 H727 H 0.83080 0.13299 0.19412
 H728 H 0.88877 0.19936 0.15231
 H729 H 0.86076 0.23649 0.18576
 H730 H 0.80289 0.16990 0.22835
 C731 C 0.86698 0.66850 0.71053
 C732 C 0.85706 0.65883 0.67606
 C733 C 0.83211 0.67143 0.66019
 C734 C 0.81718 0.69368 0.67859
 C735 C 0.82704 0.70367 0.71317
 C736 C 0.85208 0.69078 0.72900
 C737 C 0.87305 0.63674 0.65632
 C738 C 0.88680 0.61880 0.63928
 C739 C 0.90353 0.59860 0.61880
 C740 C 0.91855 0.58224 0.60089
 H741 H 0.88631 0.65893 0.72303
 H742 H 0.82438 0.66427 0.63339
 H743 H 0.79822 0.70343 0.66547
 H744 H 0.85998 0.69775 0.75578
 C745 C 0.33748 0.15656 0.69391
 C746 C 0.36123 0.16464 0.67148
 C747 C 0.36901 0.19396 0.66843
 C748 C 0.35321 0.21512 0.68773
 C749 C 0.32934 0.20725 0.71043
 C750 C 0.32160 0.17772 0.71324
 C751 C 0.37765 0.14295 0.65157
 C752 C 0.39152 0.12492 0.63479
 C753 C 0.40775 0.10380 0.61513
 C754 C 0.42145 0.08562 0.59842
 H755 H 0.33128 0.13392 0.69652
 H756 H 0.38727 0.20048 0.65105
 H757 H 0.35943 0.23770 0.68453
 H758 H 0.30353 0.17097 0.73076
 C759 C 0.33442 0.66941 0.16329
 C760 C 0.35924 0.65704 0.17978
 C761 C 0.36863 0.66691 0.21437
 C762 C 0.35338 0.68922 0.23231
 C763 C 0.32853 0.70196 0.21580
 C764 C 0.31914 0.69169 0.18115
 C765 C 0.37566 0.63509 0.16036
 C766 C 0.38950 0.61733 0.14312
 C767 C 0.40583 0.59743 0.12169
 C768 C 0.41992 0.58137 0.10225
 H769 H 0.32709 0.66208 0.13639
 H770 H 0.38786 0.65752 0.22735
 H771 H 0.36091 0.69641 0.25916
 H772 H 0.30035 0.70131 0.16750
   
