data_POSCAR
  _audit_creation_date              2014-09-24
  _audit_creation_method            'ToBaCCo'
  _symmetry_space_group_name_H-M    'P1'
  _symmetry_Int_Tables_number       1
  _symmetry_cell_setting            triclinic
  loop_
  _symmetry_equiv_pos_as_xyz
 x,y,z
_cell_length_a 21.0389
_cell_length_b 21.0376
_cell_length_c 21.0376
_cell_angle_alpha 89.557600
_cell_angle_beta 90.000100
_cell_angle_gamma 89.999900
loop_
  _atom_site_label
  _atom_site_type_symbol
  _atom_site_fract_x
  _atom_site_fract_y
  _atom_site_fract_z
N1 N 0.17297 0.17044 0.17039
 N2 N -0.17211 0.82536 0.17467
 N3 N -0.17211 0.17473 -0.17470
 N4 N 0.17297 0.82964 -0.17042
 N5 N 0.17539 1.17649 0.82354
 N6 N 0.82348 0.82458 0.82452
 N7 N 0.17539 0.82359 1.17643
 N8 N 0.82348 1.17550 1.17544
 N9 N 0.56828 1.11288 0.93114
 N10 N 0.61978 1.14847 0.92665
 N11 N 0.43438 1.06895 0.88708
 N12 N 0.38319 1.07391 0.85104
 N13 N 0.43438 1.11294 0.93108
 N14 N 0.38319 1.14898 0.92612
 N15 N 0.56828 1.06889 0.88715
 N16 N 0.61978 1.07337 0.85156
 C17 C 0.65078 1.12366 0.87637
 C18 C 0.35232 1.12445 0.87558
 N19 N 0.43447 0.88771 0.93198
 N20 N 0.38265 0.85255 0.92816
 N21 N 0.56842 0.93196 0.88757
 N22 N 0.61944 0.92707 0.85134
 N23 N 0.56842 0.88763 0.93190
 N24 N 0.61944 0.85140 0.92701
 N25 N 0.43447 0.93204 0.88765
 N26 N 0.38265 0.92821 0.85250
 Mn27 Mn 0.50139 1.00046 0.88657
 C28 C 0.35148 0.87794 0.87788
 C29 C 0.65022 0.87621 0.87615
 N30 N 0.43447 1.11237 1.06798
 N31 N 0.38265 1.14753 1.07181
 N32 N 0.56842 1.06813 1.11240
 N33 N 0.61944 1.07302 1.14862
 N34 N 0.56842 1.11246 1.06807
 N35 N 0.61944 1.14868 1.07296
 N36 N 0.43447 1.06804 1.11232
 N37 N 0.38265 1.07187 1.14747
 Mn38 Mn 0.50139 1.11346 0.99956
 C39 C 0.35148 1.12214 1.12209
 C40 C 0.65022 1.12388 1.12382
 N41 N 0.56828 0.88720 1.06883
 N42 N 0.61979 0.85162 1.07331
 N43 N 0.43438 0.93113 1.11288
 N44 N 0.38319 0.92618 1.14893
 N45 N 0.43438 0.88714 1.06889
 N46 N 0.38319 0.85110 1.07385
 N47 N 0.56828 0.93120 1.11282
 N48 N 0.61979 0.92671 1.14841
 Mn49 Mn 0.50139 0.88662 1.00040
 Mn50 Mn 0.50139 0.99962 1.11340
 Cl51 Cl 0.50140 1.00004 0.99998
 C52 C 0.65078 0.87643 1.12360
 C53 C 0.35232 0.87563 1.12439
 N54 N -0.06905 0.43500 -0.11325
 N55 N -0.07308 0.38392 -0.14908
 N56 N -0.11331 0.56826 -0.06802
 N57 N -0.14959 0.61934 -0.07284
 N58 N -0.06913 0.56889 -0.11217
 N59 N -0.07419 0.62035 -0.14817
 N60 N -0.11322 0.43419 -0.06909
 N61 N -0.14845 0.38248 -0.07372
 C62 C -0.12328 0.35229 -0.12431
 C63 C -0.12497 0.65080 -0.12345
 N64 N -0.06905 0.56509 0.11321
 N65 N -0.07307 0.61616 0.14905
 N66 N -0.11331 0.43183 0.06799
 N67 N -0.14959 0.38075 0.07280
 N68 N -0.06913 0.43120 0.11213
 N69 N -0.07419 0.37973 0.14813
 N70 N -0.11322 0.56590 0.06905
 N71 N -0.14845 0.61760 0.07369
 Mn72 Mn -0.11409 0.50004 -0.00002
 C73 C -0.12328 0.64780 0.12427
 C74 C -0.12497 0.34928 0.12341
 N75 N 0.06779 0.56881 -0.11195
 N76 N 0.07207 0.62105 -0.14685
 N77 N 0.11199 0.43422 -0.06900
 N78 N 0.14798 0.38309 -0.07405
 N79 N 0.06785 0.43485 -0.11317
 N80 N 0.07264 0.38410 -0.14945
 N81 N 0.11194 0.56799 -0.06778
 N82 N 0.14744 0.61961 -0.07146
 Mn83 Mn -0.00063 0.50190 -0.11343
 C84 C 0.12241 0.65158 -0.12143
 C85 C 0.12327 0.35291 -0.12484
 N86 N 0.06779 0.43128 0.11191
 N87 N 0.07207 0.37904 0.14682
 N88 N 0.11199 0.56586 0.06897
 N89 N 0.14798 0.61699 0.07402
 N90 N 0.06785 0.56523 0.11314
 N91 N 0.07264 0.61598 0.14942
 N92 N 0.11194 0.43209 0.06775
 N93 N 0.14744 0.38048 0.07143
 Mn94 Mn -0.00063 0.49818 0.11340
 Mn95 Mn 0.11272 0.50004 -0.00002
 Cl96 Cl -0.00070 0.50004 -0.00002
 C97 C 0.12241 0.34850 0.12139
 C98 C 0.12327 0.64717 0.12481
 N99 N 1.06785 0.11320 0.56518
 N100 N 1.07264 0.14947 0.61592
 N101 N 1.11194 0.06781 0.43203
 N102 N 1.14744 0.07149 0.38042
 N103 N 1.06779 0.11197 0.43122
 N104 N 1.07207 0.14688 0.37898
 N105 N 1.11199 0.06903 0.56580
 N106 N 1.14798 0.07408 0.61693
 C107 C 1.12327 0.12487 0.64711
 C108 C 1.12242 0.12145 0.34844
 N109 N 1.06785 -0.11311 0.43479
 N110 N 1.07264 -0.14939 0.38405
 N111 N 1.11193 -0.06773 0.56794
 N112 N 1.14744 -0.07140 0.61955
 N113 N 1.06779 -0.11189 0.56875
 N114 N 1.07207 -0.14679 0.62099
 N115 N 1.11199 -0.06894 0.43416
 N116 N 1.14798 -0.07399 0.38304
 Mn117 Mn 1.11272 0.00004 0.49998
 C118 C 1.12327 -0.12478 0.35285
 C119 C 1.12241 -0.12137 0.65152
 N120 N 0.93087 0.11219 0.43114
 N121 N 0.92581 0.14819 0.37967
 N122 N 0.88678 0.06911 0.56584
 N123 N 0.85155 0.07375 0.61754
 N124 N 0.93095 0.11327 0.56503
 N125 N 0.92692 0.14911 0.61610
 N126 N 0.88669 0.06805 0.43177
 N127 N 0.85041 0.07286 0.38069
 Mn128 Mn 0.99937 0.11346 0.49812
 C129 C 0.87503 0.12347 0.34922
 C130 C 0.87672 0.12433 0.64774
 N131 N 0.93087 -0.11211 0.56883
 N132 N 0.92581 -0.14811 0.62029
 N133 N 0.88678 -0.06903 0.43413
 N134 N 0.85155 -0.07366 0.38242
 N135 N 0.93095 -0.11319 0.43494
 N136 N 0.92693 -0.14902 0.38386
 N137 N 0.88669 -0.06796 0.56820
 N138 N 0.85041 -0.07278 0.61928
 Mn139 Mn 0.99937 -0.11337 0.50184
 Mn140 Mn 0.88591 0.00004 0.49998
 Cl141 Cl 0.99930 0.00004 0.49998
 C142 C 0.87503 -0.12339 0.65074
 C143 C 0.87672 -0.12425 0.35223
 C144 C 1.15675 0.15439 0.23227
 C145 C 1.14173 0.13993 0.28571
 C146 C 0.84364 -0.15872 0.23652
 C147 C 0.85806 -0.14375 0.28980
 C148 C 0.84364 0.15881 0.76345
 C149 C 0.85805 0.14384 0.71016
 C150 C 1.15675 -0.15431 0.76769
 C151 C 1.14173 -0.13985 0.71426
 C152 C 0.23508 1.15497 1.15491
 C153 C 0.28865 1.14068 1.14062
 C154 C 0.23508 0.84511 0.84505
 C155 C 0.28865 0.85940 0.85934
 C156 C 0.76627 0.84185 1.15818
 C157 C 0.71312 0.85698 1.14304
 C158 C 0.76626 1.15824 0.84179
 C159 C 0.71311 1.14310 0.85692
 C160 C 0.15675 0.23233 0.15433
 C161 C 0.14173 0.28577 0.13988
 C162 C -0.15636 0.23658 -0.15878
 C163 C -0.14195 0.28986 -0.14381
 C164 C 0.15675 0.76775 -0.15437
 C165 C 0.14173 0.71432 -0.13991
 C166 C -0.15636 0.76351 0.15875
 C167 C -0.14194 0.71022 0.14378
 C168 C 1.15872 0.16017 0.76198
 C169 C 1.14320 0.14491 0.70905
 C170 C 0.83914 -0.15943 0.76605
 C171 C 0.85466 -0.14365 0.71290
 C172 C 1.15872 -0.16009 0.23799
 C173 C 1.14320 -0.14483 0.29092
 C174 C 0.83914 0.15952 0.23392
 C175 C 0.85466 0.14373 0.28706
 C176 C 0.15872 0.23804 -0.16015
 C177 C 0.14320 0.29097 -0.14489
 C178 C -0.16086 0.23398 0.15946
 C179 C -0.14534 0.28712 0.14367
 C180 C -0.16086 0.76611 -0.15949
 C181 C -0.14534 0.71296 -0.14371
 C182 C 0.15872 0.76204 0.16012
 C183 C 0.14320 0.70911 0.14486
 C184 C 0.23710 1.15995 0.84008
 C185 C 0.29018 1.14450 0.85553
 C186 C 0.23711 0.84013 1.15989
 C187 C 0.29018 0.85558 1.14444
 C188 C 0.76516 1.15972 1.15966
 C189 C 0.71217 1.14413 1.14407
 C190 C 0.76516 0.84036 0.84030
 C191 C 0.71217 0.85595 0.85590
   
