data_POSCAR
  _audit_creation_date              2014-09-24
  _audit_creation_method            'ToBaCCo'
  _symmetry_space_group_name_H-M    'P1'
  _symmetry_Int_Tables_number       1
  _symmetry_cell_setting            triclinic
  loop_
  _symmetry_equiv_pos_as_xyz
 x,y,z
_cell_length_a 51.8847
_cell_length_b 52.1122
_cell_length_c 52.1412
_cell_angle_alpha 89.975900
_cell_angle_beta 90.012700
_cell_angle_gamma 89.976000
loop_
  _atom_site_label
  _atom_site_type_symbol
  _atom_site_fract_x
  _atom_site_fract_y
  _atom_site_fract_z
N1 N 0.26607 0.21770 0.19475
 N2 N 0.25429 0.23748 0.18436
 C3 C 0.26795 0.24558 0.16390
 C4 C 0.28937 0.23001 0.16146
 C5 C 0.28757 0.21251 0.18129
 H6 H 0.26301 0.26182 0.15190
 H7 H 0.30108 0.19737 0.18579
 Cu8 Cu 0.22280 0.25121 0.19925
 Cu9 Cu 0.25314 0.20063 0.22536
 Cu10 Cu 0.19704 0.22496 0.25223
 N11 N 0.19133 0.26467 0.21440
 N12 N 0.18141 0.25441 0.23523
 C13 C 0.16050 0.26800 0.24228
 C14 C 0.15721 0.28781 0.22496
 C15 C 0.17704 0.28513 0.20749
 H16 H 0.14889 0.26411 0.25905
 H17 H 0.18109 0.29762 0.19139
 N18 N 0.21572 0.19524 0.26655
 N19 N 0.23706 0.18598 0.25632
 C20 C 0.24544 0.16618 0.27071
 C21 C 0.22858 0.16289 0.29092
 C22 C 0.20997 0.18157 0.28772
 H23 H 0.26269 0.15512 0.26703
 H24 H 0.19366 0.18507 0.30014
 H25 H 0.21482 0.21010 0.22012
 H26 H 0.23433 0.23225 0.24042
 N27 N 0.73369 -0.21732 0.19437
 N28 N 0.74609 -0.23628 0.18321
 C29 C 0.73240 -0.24432 0.16276
 C30 C 0.71028 -0.22958 0.16112
 C31 C 0.71175 -0.21261 0.18144
 H32 H 0.73785 -0.25995 0.15023
 H33 H 0.69772 -0.19816 0.18662
 Cu34 Cu 0.77835 -0.24946 0.19696
 Cu35 Cu 0.74646 -0.20067 0.22520
 Cu36 Cu 0.80265 -0.22476 0.25168
 N37 N 0.80922 -0.26337 0.21298
 N38 N 0.81858 -0.25377 0.23436
 C39 C 0.83918 -0.26769 0.24168
 C40 C 0.84281 -0.28712 0.22399
 C41 C 0.82353 -0.28377 0.20598
 H42 H 0.85031 -0.26433 0.25889
 H43 H 0.81986 -0.29571 0.18941
 N44 N 0.78376 -0.19547 0.26641
 N45 N 0.76231 -0.18629 0.25633
 C46 C 0.75380 -0.16672 0.27093
 C47 C 0.77069 -0.16348 0.29113
 C48 C 0.78945 -0.18197 0.28770
 H49 H 0.73648 -0.15573 0.26734
 H50 H 0.80587 -0.18542 0.30000
 H51 H 0.78505 -0.20908 0.21976
 H52 H 0.76581 -0.23268 0.23878
 N53 N 0.73361 0.21918 0.80396
 N54 N 0.74319 0.24109 0.81204
 C55 C 0.72943 0.24929 0.83236
 C56 C 0.71024 0.23156 0.83715
 C57 C 0.71345 0.21269 0.81884
 H58 H 0.73282 0.26700 0.84262
 H59 H 0.70164 0.19579 0.81622
 Cu60 Cu 0.77196 0.25752 0.79481
 Cu61 Cu 0.74702 0.20153 0.77395
 Cu62 Cu 0.80222 0.22665 0.74657
 N63 N 0.80501 0.26897 0.78162
 N64 N 0.81676 0.25699 0.76277
 C65 C 0.83860 0.26964 0.75688
 C66 C 0.84055 0.29068 0.77293
 C67 C 0.81898 0.28962 0.78846
 H68 H 0.85179 0.26426 0.74174
 H69 H 0.81363 0.30315 0.80326
 N70 N 0.78455 0.19610 0.73299
 N71 N 0.76347 0.18652 0.74344
 C72 C 0.75550 0.16634 0.72938
 C73 C 0.77238 0.16312 0.70918
 C74 C 0.79057 0.18224 0.71204
 H75 H 0.73843 0.15508 0.73322
 H76 H 0.80669 0.18603 0.69945
 H77 H 0.78409 0.21499 0.77996
 H78 H 0.76393 0.23265 0.75594
 N79 N 0.26612 -0.21825 0.80553
 N80 N 0.25448 -0.23818 0.81579
 C81 C 0.26820 -0.24628 0.83620
 C82 C 0.28946 -0.23054 0.83881
 C83 C 0.28754 -0.21296 0.81907
 H84 H 0.26327 -0.26248 0.84817
 H85 H 0.30096 -0.19768 0.81472
 Cu86 Cu 0.22290 -0.25179 0.80103
 Cu87 Cu 0.25311 -0.20107 0.77501
 Cu88 Cu 0.19700 -0.22541 0.74810
 N89 N 0.19172 -0.26552 0.78558
 N90 N 0.18159 -0.25506 0.76494
 C91 C 0.16064 -0.26859 0.75790
 C92 C 0.15759 -0.28864 0.77502
 C93 C 0.17758 -0.28609 0.79236
 H94 H 0.14882 -0.26449 0.74130
 H95 H 0.18170 -0.29854 0.80843
 N96 N 0.21556 -0.19557 0.73392
 N97 N 0.23696 -0.18638 0.74410
 C98 C 0.24537 -0.16664 0.72966
 C99 C 0.22846 -0.16329 0.70950
 C100 C 0.20979 -0.18188 0.71276
 H101 H 0.26268 -0.15567 0.73329
 H102 H 0.19346 -0.18536 0.70036
 H103 H 0.21479 -0.21059 0.78022
 H104 H 0.23431 -0.23261 0.75982
 N105 N 0.73704 -0.21229 0.80869
 N106 N 0.74703 -0.23369 0.81765
 C107 C 0.73301 -0.24164 0.83791
 C108 C 0.71323 -0.22429 0.84176
 C109 C 0.71636 -0.20590 0.82292
 H110 H 0.73652 -0.25898 0.84876
 H111 H 0.70419 -0.18939 0.81954
 Cu112 Cu 0.77667 -0.24948 0.80107
 Cu113 Cu 0.75088 -0.19485 0.77858
 Cu114 Cu 0.80386 -0.22292 0.74910
 N115 N 0.80637 -0.26516 0.78452
 N116 N 0.81688 -0.25463 0.76412
 C117 C 0.83662 -0.26935 0.75609
 C118 C 0.83856 -0.29024 0.77233
 C119 C 0.81910 -0.28699 0.79018
 H120 H 0.84853 -0.26529 0.73955
 H121 H 0.81446 -0.29973 0.80590
 N122 N 0.78790 -0.19086 0.73681
 N123 N 0.76769 -0.18020 0.74795
 C124 C 0.76076 -0.15922 0.73448
 C125 C 0.77738 -0.15662 0.71397
 C126 C 0.79436 -0.17692 0.71603
 H127 H 0.74449 -0.14702 0.73887
 H128 H 0.80986 -0.18147 0.70294
 H129 H 0.76615 -0.22712 0.76132
 H130 H 0.78812 -0.20818 0.78236
 N131 N 0.26376 0.21146 0.80816
 N132 N 0.25391 0.23295 0.81706
 C133 C 0.26806 0.24092 0.83721
 C134 C 0.28777 0.22349 0.84106
 C135 C 0.28447 0.20504 0.82233
 H136 H 0.26467 0.25831 0.84801
 H137 H 0.29653 0.18844 0.81900
 Cu138 Cu 0.22415 0.24867 0.80061
 Cu139 Cu 0.24980 0.19397 0.77819
 Cu140 Cu 0.19653 0.22184 0.74901
 N141 N 0.19429 0.26424 0.78421
 N142 N 0.18354 0.25351 0.76404
 C143 C 0.16373 0.26818 0.75608
 C144 C 0.16200 0.28919 0.77210
 C145 C 0.18165 0.28613 0.78975
 H146 H 0.15164 0.26404 0.73969
 H147 H 0.18648 0.29908 0.80522
 N148 N 0.21252 0.18983 0.73667
 N149 N 0.23285 0.17926 0.74768
 C150 C 0.23983 0.15836 0.73414
 C151 C 0.22310 0.15572 0.71371
 C152 C 0.20602 0.17591 0.71589
 H153 H 0.25620 0.14625 0.73841
 H154 H 0.19044 0.18042 0.70288
 H155 H 0.23438 0.22620 0.76087
 H156 H 0.21263 0.20729 0.78218
 N157 N 0.26372 -0.21135 0.19184
 N158 N 0.25371 -0.23273 0.18288
 C159 C 0.26778 -0.24071 0.16267
 C160 C 0.28759 -0.22340 0.15886
 C161 C 0.28444 -0.20500 0.17767
 H162 H 0.26425 -0.25802 0.15180
 H163 H 0.29663 -0.18852 0.18107
 Cu164 Cu 0.22392 -0.24836 0.19931
 Cu165 Cu 0.24983 -0.19385 0.22184
 Cu166 Cu 0.19650 -0.22153 0.25105
 N167 N 0.19401 -0.26381 0.21571
 N168 N 0.18336 -0.25315 0.23597
 C169 C 0.16352 -0.26779 0.24389
 C170 C 0.16167 -0.28872 0.22773
 C171 C 0.18128 -0.28562 0.21006
 H172 H 0.15150 -0.26371 0.26033
 H173 H 0.18601 -0.29847 0.19449
 N174 N 0.21265 -0.18959 0.26341
 N175 N 0.23298 -0.17909 0.25236
 C176 C 0.24002 -0.15817 0.26583
 C177 C 0.22335 -0.15545 0.28628
 C178 C 0.20622 -0.17560 0.28417
 H179 H 0.25641 -0.14611 0.26151
 H180 H 0.19065 -0.18004 0.29720
 H181 H 0.23423 -0.22601 0.23909
 H182 H 0.21251 -0.20696 0.21784
 N183 N 0.73663 0.21105 0.19223
 N184 N 0.74652 0.23253 0.18336
 C185 C 0.73250 0.24045 0.16308
 C186 C 0.71285 0.22299 0.15912
 C187 C 0.71604 0.20458 0.17793
 H188 H 0.73596 0.25781 0.15225
 H189 H 0.70397 0.18799 0.18122
 Cu190 Cu 0.77613 0.24833 0.19997
 Cu191 Cu 0.75048 0.19359 0.22230
 Cu192 Cu 0.80336 0.22167 0.25192
 N193 N 0.80586 0.26393 0.21653
 N194 N 0.81642 0.25337 0.23689
 C195 C 0.83619 0.26808 0.24487
 C196 C 0.83806 0.28897 0.22866
 C197 C 0.81855 0.28577 0.21089
 H198 H 0.84813 0.26407 0.26140
 H199 H 0.81388 0.29856 0.19523
 N200 N 0.78737 0.18961 0.26418
 N201 N 0.76726 0.17891 0.25292
 C202 C 0.76036 0.15786 0.26629
 C203 C 0.77691 0.15526 0.28686
 C204 C 0.79379 0.17563 0.28495
 H205 H 0.74419 0.14559 0.26177
 H206 H 0.80922 0.18020 0.29812
 H207 H 0.76568 0.22585 0.23964
 H208 H 0.78774 0.20701 0.21859
 C209 C 0.23915 0.01432 0.47725
 C210 C 0.23922 -0.01282 0.47618
 C211 C 0.23929 -0.02688 0.49915
 C212 C 0.23902 -0.01473 0.52319
 C213 C 0.23906 0.01241 0.52426
 C214 C 0.23927 0.02646 0.50128
 H215 H 0.23915 0.04726 0.50211
 H216 H 0.23921 -0.04768 0.49831
 C217 C 0.76136 0.01399 0.52346
 C218 C 0.76099 -0.01316 0.52452
 C219 C 0.76058 -0.02718 0.50153
 C220 C 0.76086 -0.01500 0.47750
 C221 C 0.76107 0.01214 0.47645
 C222 C 0.76117 0.02617 0.49943
 H223 H 0.76148 0.04696 0.49860
 H224 H 0.76046 -0.04797 0.50235
 C225 C 0.47653 0.23976 -0.01319
 C226 C 0.47701 0.23978 0.01396
 C227 C 0.50089 0.23993 0.02666
 C228 C 0.52430 0.23971 0.01317
 C229 C 0.52380 0.23973 -0.01398
 C230 C 0.49994 0.23993 -0.02667
 H231 H 0.49957 0.23985 -0.04747
 H232 H 0.50126 0.23984 0.04746
 C233 C 0.47652 0.75884 0.01359
 C234 C 0.47704 0.75891 -0.01355
 C235 C 0.50093 0.75865 -0.02622
 C236 C 0.52433 0.75875 -0.01268
 C237 C 0.52380 0.75877 0.01447
 C238 C 0.49990 0.75858 0.02712
 H239 H 0.49949 0.75867 0.04792
 H240 H 0.50133 0.75878 -0.04701
 C241 C 0.01200 0.47663 0.23830
 C242 C -0.01527 0.47757 0.23811
 C243 C -0.02757 0.50158 0.23815
 C244 C -0.01355 0.52463 0.23791
 C245 C 0.01372 0.52367 0.23783
 C246 C 0.02602 0.49967 0.23828
 H247 H 0.04691 0.49888 0.23826
 H248 H -0.04846 0.50234 0.23803
 C249 C -0.01277 0.47621 0.76214
 C250 C 0.01450 0.47709 0.76236
 C251 C 0.02683 0.50106 0.76230
 C252 C 0.01285 0.52414 0.76246
 C253 C -0.01442 0.52325 0.76254
 C254 C -0.02675 0.49928 0.76216
 H255 H -0.04764 0.49854 0.76217
 H256 H 0.04772 0.50179 0.76242
 N257 N 0.32889 0.25232 0.10711
 C258 C 0.34900 0.23570 0.10793
 N259 N 0.34938 0.21719 0.12619
 N260 N 0.33028 0.21532 0.14314
 C261 C 0.31014 0.23194 0.14242
 N262 N 0.30976 0.25046 0.12408
 C263 C 0.37000 0.23782 0.09018
 C264 C 0.38826 0.23891 0.07594
 C265 C 0.41070 0.23934 0.05988
 N266 N 0.41141 0.25378 0.03823
 N267 N 0.43242 0.25395 0.02349
 C268 C 0.45335 0.23957 0.02983
 N269 N 0.45258 0.22538 0.05167
 N270 N 0.43163 0.22522 0.06639
 N271 N 0.67205 0.74822 0.10758
 C272 C 0.65129 0.76397 0.10910
 N273 N 0.65037 0.78191 0.12788
 N274 N 0.66958 0.78405 0.14468
 C275 C 0.69040 0.76830 0.14330
 N276 N 0.69129 0.75035 0.12440
 C277 C 0.63030 0.76164 0.09136
 C278 C 0.61210 0.76034 0.07705
 C279 C 0.58978 0.75970 0.06084
 N280 N 0.56881 0.77387 0.06705
 N281 N 0.54797 0.77356 0.05217
 C282 C 0.54738 0.75918 0.03046
 N283 N 0.56836 0.74476 0.02442
 N284 N 0.58925 0.74507 0.03933
 N285 N 0.66928 0.25511 -0.11017
 C286 C 0.65126 0.23633 -0.10859
 N287 N 0.65282 0.21591 -0.12460
 N288 N 0.67178 0.21430 -0.14173
 C289 C 0.68982 0.23308 -0.14343
 N290 N 0.68827 0.25350 -0.12731
 C291 C 0.63030 0.23823 -0.09079
 C292 C 0.61212 0.23920 -0.07646
 C293 C 0.58983 0.23950 -0.06023
 N294 N 0.58920 0.25392 -0.03859
 N295 N 0.56830 0.25398 -0.02371
 C296 C 0.54741 0.23950 -0.02990
 N297 N 0.54811 0.22532 -0.05173
 N298 N 0.56895 0.22526 -0.06659
 N299 N 0.34935 0.78248 -0.12581
 C300 C 0.34920 0.76375 -0.10777
 N301 N 0.32929 0.74691 -0.10712
 N302 N 0.31010 0.74877 -0.12404
 C303 C 0.31024 0.76753 -0.14216
 N304 N 0.33020 0.78434 -0.14270
 C305 C 0.37021 0.76166 -0.09001
 C306 C 0.38844 0.76052 -0.07572
 C307 C 0.41082 0.75997 -0.05957
 N308 N 0.41148 0.74529 -0.03810
 N309 N 0.43246 0.74494 -0.02331
 C310 C 0.45340 0.75936 -0.02946
 N311 N 0.45267 0.77381 -0.05113
 N312 N 0.43174 0.77415 -0.06588
 N313 N 0.10323 0.32848 0.24626
 C314 C 0.10316 0.34716 0.22816
 N315 N 0.12059 0.34613 0.20882
 N316 N 0.13761 0.32702 0.20764
 C317 C 0.13781 0.30833 0.22579
 N318 N 0.12025 0.30935 0.24508
 C319 C 0.08572 0.36845 0.23008
 C320 C 0.07166 0.38678 0.23183
 C321 C 0.05570 0.40916 0.23409
 N322 N 0.06240 0.42822 0.25044
 N323 N 0.04821 0.44945 0.25201
 C324 C 0.02673 0.45233 0.23740
 N325 N 0.02016 0.43325 0.22088
 N326 N 0.03438 0.41199 0.21929
 N327 N 0.12205 0.65403 0.79116
 C328 C 0.10416 0.65339 0.77223
 N329 N 0.10389 0.67235 0.75442
 N330 N 0.12104 0.69135 0.75548
 C331 C 0.13909 0.69200 0.77435
 N332 N 0.13920 0.67302 0.79223
 C333 C 0.08660 0.63223 0.77043
 C334 C 0.07250 0.61393 0.76881
 C335 C 0.05658 0.59154 0.76668
 N336 N 0.03520 0.58881 0.78138
 N337 N 0.02099 0.56755 0.77984
 C338 C 0.02763 0.54838 0.76346
 N339 N 0.04919 0.55116 0.74895
 N340 N 0.06338 0.57238 0.75049
 N341 N -0.10472 0.67266 0.24554
 C342 C -0.10432 0.65436 0.22708
 N343 N -0.12134 0.65584 0.20741
 N344 N -0.13830 0.67501 0.20625
 C345 C -0.13887 0.69333 0.22477
 N346 N -0.12168 0.69185 0.24439
 C347 C -0.08700 0.63297 0.22896
 C348 C -0.07304 0.61456 0.23073
 C349 C -0.05718 0.59211 0.23307
 N350 N -0.06389 0.57320 0.24960
 N351 N -0.04973 0.55195 0.25135
 C352 C -0.02829 0.54891 0.23673
 N353 N -0.02172 0.56784 0.22002
 N354 N -0.03590 0.58911 0.21826
 N355 N -0.10340 0.32753 0.75470
 C356 C -0.10487 0.34758 0.77120
 N357 N -0.12433 0.34837 0.78851
 N358 N -0.14185 0.32971 0.78928
 C359 C -0.14056 0.30965 0.77270
 N360 N -0.12092 0.30885 0.75548
 C361 C -0.08697 0.36846 0.76949
 C362 C -0.07266 0.38659 0.76790
 C363 C -0.05657 0.40885 0.76580
 N364 N -0.06307 0.42796 0.74941
 N365 N -0.04884 0.44917 0.74802
 C366 C -0.02753 0.45196 0.76289
 N367 N -0.02117 0.43283 0.77945
 N368 N -0.03542 0.41160 0.78084
 N369 N 0.21436 0.12694 0.35002
 C370 C 0.23428 0.11012 0.35103
 N371 N 0.25228 0.11050 0.33218
 N372 N 0.25040 0.12723 0.31292
 C373 C 0.23048 0.14413 0.31189
 N374 N 0.21249 0.14366 0.33078
 C375 C 0.23637 0.09249 0.37208
 C376 C 0.23759 0.07815 0.39019
 C377 C 0.23827 0.06171 0.41226
 N378 N 0.25300 0.04020 0.41253
 N379 N 0.25334 0.02502 0.43312
 C380 C 0.23884 0.03076 0.45407
 N381 N 0.22436 0.05248 0.45375
 N382 N 0.22404 0.06764 0.43320
 N383 N 0.74916 0.11037 0.66821
 C384 C 0.76727 0.10991 0.64947
 N385 N 0.78714 0.12678 0.65048
 N386 N 0.78884 0.14362 0.66961
 C387 C 0.77073 0.14417 0.68839
 N388 N 0.75087 0.12722 0.68736
 C389 C 0.76527 0.09223 0.62848
 C390 C 0.76403 0.07783 0.61043
 C391 C 0.76318 0.06133 0.58843
 N392 N 0.74812 0.04006 0.58820
 N393 N 0.74752 0.02487 0.56763
 C394 C 0.76206 0.03038 0.54665
 N395 N 0.77689 0.05185 0.54693
 N396 N 0.77749 0.06701 0.56746
 N397 N 0.21400 -0.12707 0.65062
 C398 C 0.23426 -0.11070 0.64927
 N399 N 0.25258 -0.11148 0.66781
 N400 N 0.25067 -0.12816 0.68711
 C401 C 0.23041 -0.14460 0.68849
 N402 N 0.21210 -0.14374 0.66990
 C403 C 0.23635 -0.09309 0.62821
 C404 C 0.23753 -0.07873 0.61012
 C405 C 0.23817 -0.06224 0.58809
 N406 N 0.25288 -0.04072 0.58786
 N407 N 0.25317 -0.02548 0.56731
 C408 C 0.23865 -0.03117 0.54636
 N409 N 0.22419 -0.05289 0.54664
 N410 N 0.22390 -0.06811 0.56715
 N411 N 0.74712 -0.11119 0.33254
 C412 C 0.76524 -0.11077 0.35128
 N413 N 0.78516 -0.12758 0.35018
 N414 N 0.78693 -0.14431 0.33095
 C415 C 0.76882 -0.14481 0.31216
 N416 N 0.74888 -0.12793 0.31329
 C417 C 0.76329 -0.09309 0.37229
 C418 C 0.76219 -0.07871 0.39037
 C419 C 0.76161 -0.06226 0.41243
 N420 N 0.77574 -0.06833 0.43342
 N421 N 0.77545 -0.05321 0.45399
 C422 C 0.76112 -0.03140 0.45429
 N423 N 0.74674 -0.02550 0.43330
 N424 N 0.74704 -0.04064 0.41268
 N425 N 0.65434 0.79057 -0.12170
 C426 C 0.65335 0.77079 -0.10482
 N427 N 0.67220 0.75277 -0.10529
 N428 N 0.69145 0.75446 -0.12214
 C429 C 0.69245 0.77421 -0.13912
 N430 N 0.67358 0.79227 -0.13854
 C431 C 0.63203 0.76847 -0.08741
 C432 C 0.61372 0.76645 -0.07330
 C433 C 0.59142 0.76392 -0.05718
 N434 N 0.58902 0.77809 -0.03550
 N435 N 0.56790 0.77621 -0.02106
 C436 C 0.54851 0.76000 -0.02774
 N437 N 0.55095 0.74602 -0.04959
 N438 N 0.57205 0.74789 -0.06401
 N439 N 0.32916 0.24628 -0.10624
 C440 C 0.34772 0.22796 -0.10559
 N441 N 0.34643 0.20806 -0.12228
 N442 N 0.32718 0.20653 -0.13913
 C443 C 0.30859 0.22487 -0.13987
 N444 N 0.30990 0.24475 -0.12309
 C445 C 0.36904 0.23008 -0.08817
 C446 C 0.38734 0.23198 -0.07405
 C447 C 0.40962 0.23445 -0.05792
 N448 N 0.41193 0.22036 -0.03616
 N449 N 0.43301 0.22227 -0.02166
 C450 C 0.45242 0.23846 -0.02834
 N451 N 0.45006 0.25236 -0.05026
 N452 N 0.42902 0.25044 -0.06475
 N453 N 0.34633 0.79161 0.12220
 C454 C 0.34755 0.77164 0.10559
 N455 N 0.32889 0.75344 0.10626
 N456 N 0.30961 0.75514 0.12307
 C457 C 0.30839 0.77509 0.13979
 N458 N 0.32707 0.79332 0.13900
 C459 C 0.36890 0.76928 0.08825
 C460 C 0.38722 0.76718 0.07417
 C461 C 0.40950 0.76451 0.05809
 N462 N 0.41203 0.77873 0.03644
 N463 N 0.43314 0.77669 0.02200
 C464 C 0.45237 0.76026 0.02865
 N465 N 0.44980 0.74623 0.05046
 N466 N 0.42872 0.74826 0.06488
 N467 N 0.67193 0.24566 0.10596
 C468 C 0.65327 0.22745 0.10533
 N469 N 0.65436 0.20766 0.12218
 N470 N 0.67350 0.20611 0.13915
 C471 C 0.69218 0.22435 0.13989
 N472 N 0.69108 0.24412 0.12294
 C473 C 0.63200 0.22966 0.08785
 C474 C 0.61371 0.23165 0.07372
 C475 C 0.59140 0.23422 0.05763
 N476 N 0.57205 0.25026 0.06453
 N477 N 0.55093 0.25222 0.05014
 C478 C 0.54846 0.23832 0.02824
 N479 N 0.56783 0.22210 0.02148
 N480 N 0.58897 0.22014 0.03590
 N481 N -0.10935 0.66934 0.75025
 C482 C -0.11011 0.64998 0.76761
 N483 N -0.12796 0.65067 0.78658
 N484 N -0.14456 0.67012 0.78816
 C485 C -0.14390 0.68955 0.77080
 N486 N -0.12595 0.68880 0.75183
 C487 C -0.09256 0.62876 0.76579
 C488 C -0.07823 0.61059 0.76466
 C489 C -0.06175 0.58847 0.76393
 N490 N -0.06785 0.56738 0.77785
 N491 N -0.05269 0.54677 0.77738
 C492 C -0.03081 0.54653 0.76308
 N493 N -0.02490 0.56762 0.74890
 N494 N -0.04008 0.58828 0.74937
 N495 N -0.12850 0.34975 0.21497
 C496 C -0.11028 0.35031 0.23361
 N497 N -0.10893 0.33063 0.25058
 N498 N -0.12534 0.31101 0.24897
 C499 C -0.14362 0.31042 0.23033
 N500 N -0.14488 0.33014 0.21335
 C501 C -0.09291 0.37167 0.23541
 C502 C -0.07872 0.38997 0.23649
 C503 C -0.06238 0.41219 0.23714
 N504 N -0.06846 0.43311 0.22294
 N505 N -0.05340 0.45378 0.22330
 C506 C -0.03164 0.45427 0.23778
 N507 N -0.02574 0.43335 0.25223
 N508 N -0.04083 0.41264 0.25187
 N509 N 0.10895 0.33063 0.74987
 C510 C 0.10998 0.35022 0.76696
 N511 N 0.12804 0.34970 0.78575
 N512 N 0.14457 0.33020 0.78744
 C513 C 0.14360 0.31057 0.77037
 N514 N 0.12549 0.31112 0.75156
 C515 C 0.09245 0.37144 0.76509
 C516 C 0.07814 0.38963 0.76398
 C517 C 0.06173 0.41179 0.76333
 N518 N 0.06793 0.43281 0.77728
 N519 N 0.05281 0.45345 0.77693
 C520 C 0.03086 0.45379 0.76272
 N521 N 0.02485 0.43275 0.74852
 N522 N 0.03999 0.41207 0.74888
 N523 N 0.12765 0.65090 0.21370
 C524 C 0.10964 0.65025 0.23253
 N525 N 0.10865 0.66971 0.24976
 N526 N 0.12519 0.68922 0.24820
 C527 C 0.14326 0.68991 0.22936
 N528 N 0.14417 0.67040 0.21213
 C529 C 0.09210 0.62902 0.23429
 C530 C 0.07774 0.61086 0.23540
 C531 C 0.06120 0.58879 0.23618
 N532 N 0.03943 0.58876 0.25059
 N533 N 0.02421 0.56815 0.25115
 C534 C 0.03016 0.54693 0.23719
 N535 N 0.05212 0.54701 0.22302
 N536 N 0.06733 0.56758 0.22247
 N537 N 0.79226 -0.12107 0.65477
 C538 C 0.77316 -0.10332 0.65423
 N539 N 0.75565 -0.10281 0.67352
 N540 N 0.75718 -0.11959 0.69277
 C541 C 0.77624 -0.13746 0.69331
 N542 N 0.79378 -0.13785 0.67400
 C543 C 0.77086 -0.08610 0.63286
 C544 C 0.76881 -0.07221 0.61448
 C545 C 0.76621 -0.05643 0.59207
 N546 N 0.78078 -0.03503 0.58909
 N547 N 0.77886 -0.02096 0.56782
 C548 C 0.76223 -0.02774 0.54885
 N549 N 0.74783 -0.04930 0.55188
 N550 N 0.74974 -0.06335 0.57313
 N551 N 0.20886 -0.12014 0.34566
 C552 C 0.22782 -0.10227 0.34604
 N553 N 0.24511 -0.10157 0.32655
 N554 N 0.24350 -0.11831 0.30729
 C555 C 0.22458 -0.13632 0.30693
 N556 N 0.20725 -0.13687 0.32643
 C557 C 0.23019 -0.08512 0.36743
 C558 C 0.23219 -0.07134 0.38588
 C559 C 0.23460 -0.05571 0.40839
 N560 N 0.25078 -0.06286 0.42751
 N561 N 0.25246 -0.04896 0.44886
 C562 C 0.23812 -0.02735 0.45182
 N563 N 0.22176 -0.02036 0.43269
 N564 N 0.22007 -0.03428 0.41131
 N565 N 0.75536 0.10120 0.32704
 C566 C 0.77284 0.10171 0.34637
 N567 N 0.79186 0.11953 0.34592
 N568 N 0.79333 0.13638 0.32676
 C569 C 0.77581 0.13600 0.30742
 N570 N 0.75684 0.11805 0.30785
 C571 C 0.77056 0.08451 0.36774
 C572 C 0.76857 0.07071 0.38618
 C573 C 0.76608 0.05508 0.40870
 N574 N 0.78057 0.03362 0.41169
 N575 N 0.77877 0.01969 0.43306
 C576 C 0.76232 0.02668 0.45211
 N577 N 0.74802 0.04831 0.44908
 N578 N 0.74983 0.06223 0.42773
 N579 N 0.20810 0.12032 0.65449
 C580 C 0.22711 0.10248 0.65396
 N581 N 0.24463 0.10189 0.67325
 N582 N 0.24318 0.11866 0.69250
 C583 C 0.22421 0.13661 0.69303
 N584 N 0.20666 0.13709 0.67371
 C585 C 0.22930 0.08526 0.63261
 C586 C 0.23127 0.07137 0.61423
 C587 C 0.23382 0.05564 0.59180
 N588 N 0.21951 0.03405 0.58897
 N589 N 0.22142 0.01999 0.56770
 C590 C 0.23780 0.02698 0.54859
 N591 N 0.25193 0.04873 0.55147
 N592 N 0.25002 0.06277 0.57272
   
