data_POSCAR
  _audit_creation_date              2014-09-24
  _audit_creation_method            'ToBaCCo'
  _symmetry_space_group_name_H-M    'P1'
  _symmetry_Int_Tables_number       1
  _symmetry_cell_setting            triclinic
  loop_
  _symmetry_equiv_pos_as_xyz
 x,y,z
_cell_length_a 43.9811
_cell_length_b 44.0956
_cell_length_c 44.2369
_cell_angle_alpha 89.987500
_cell_angle_beta 89.992000
_cell_angle_gamma 90.009600
loop_
  _atom_site_label
  _atom_site_type_symbol
  _atom_site_fract_x
  _atom_site_fract_y
  _atom_site_fract_z
N1 N 0.29837 0.23760 0.21391
 N2 N 0.28588 0.26187 0.20196
 C3 C 0.30204 0.27021 0.17747
 C4 C 0.32605 0.25012 0.17382
 C5 C 0.32287 0.22972 0.19749
 H6 H 0.29672 0.28953 0.16343
 H7 H 0.33729 0.21056 0.20258
 Cu8 Cu 0.24996 0.28027 0.21997
 Cu9 Cu 0.28210 0.21802 0.24996
 Cu10 Cu 0.21772 0.25009 0.28190
 N11 N 0.21358 0.29789 0.23785
 N12 N 0.20120 0.28600 0.26214
 C13 C 0.17673 0.30251 0.27004
 C14 C 0.17344 0.32614 0.24960
 C15 C 0.19734 0.32238 0.22946
 H16 H 0.16252 0.29760 0.28935
 H17 H 0.20262 0.33643 0.21016
 N18 N 0.23776 0.21375 0.29854
 N19 N 0.26225 0.20155 0.28640
 C20 C 0.27034 0.17707 0.30274
 C21 C 0.24997 0.17360 0.32642
 C22 C 0.22962 0.19736 0.32292
 H23 H 0.28965 0.16284 0.29767
 H24 H 0.21023 0.20239 0.33702
 H25 H 0.23779 0.23205 0.24374
 H26 H 0.26230 0.25649 0.26818
 N27 N 0.70133 -0.23775 0.21316
 N28 N 0.71413 -0.26170 0.20093
 C29 C 0.69800 -0.27007 0.17642
 C30 C 0.67360 -0.25028 0.17299
 C31 C 0.67666 -0.23006 0.19691
 H32 H 0.70366 -0.28922 0.16229
 H33 H 0.66210 -0.21111 0.20237
 Cu34 Cu 0.75030 -0.27969 0.21889
 Cu35 Cu 0.71745 -0.21826 0.24938
 Cu36 Cu 0.78191 -0.25036 0.28138
 N37 N 0.78644 -0.29771 0.23685
 N38 N 0.79852 -0.28615 0.26143
 C39 C 0.82280 -0.30281 0.26950
 C40 C 0.82634 -0.32633 0.24887
 C41 C 0.80267 -0.32219 0.22842
 H42 H 0.83666 -0.29801 0.28907
 H43 H 0.79746 -0.33594 0.20891
 N44 N 0.76172 -0.21412 0.29812
 N45 N 0.73722 -0.20191 0.28597
 C46 C 0.72910 -0.17748 0.30235
 C47 C 0.74946 -0.17401 0.32604
 C48 C 0.76981 -0.19776 0.32253
 H49 H 0.70980 -0.16323 0.29729
 H50 H 0.78920 -0.20279 0.33664
 H51 H 0.76201 -0.23172 0.24352
 H52 H 0.73755 -0.25668 0.26736
 N53 N 0.70156 0.23819 0.78568
 N54 N 0.71367 0.26284 0.79721
 C55 C 0.69745 0.27125 0.82165
 C56 C 0.67385 0.25074 0.82573
 C57 C 0.67730 0.23008 0.80234
 H58 H 0.70257 0.29078 0.83547
 H59 H 0.66332 0.21048 0.79771
 Cu60 Cu 0.74981 0.28087 0.77920
 Cu61 Cu 0.71811 0.21823 0.74993
 Cu62 Cu 0.78259 0.25036 0.71790
 N63 N 0.78602 0.29889 0.76129
 N64 N 0.79880 0.28666 0.73740
 C65 C 0.82351 0.30295 0.72976
 C66 C 0.82660 0.32690 0.74997
 C67 C 0.80218 0.32344 0.76969
 H68 H 0.83806 0.29751 0.71085
 H69 H 0.79653 0.33757 0.78880
 N70 N 0.76274 0.21370 0.70154
 N71 N 0.73824 0.20151 0.71372
 C72 C 0.73009 0.17705 0.69738
 C73 C 0.75041 0.17356 0.67367
 C74 C 0.77081 0.19730 0.67714
 H75 H 0.71069 0.16292 0.70239
 H76 H 0.79009 0.20239 0.66292
 H77 H 0.76252 0.23226 0.75616
 H78 H 0.73805 0.25623 0.73134
 N79 N 0.29846 -0.23802 0.78648
 N80 N 0.28595 -0.26226 0.79847
 C81 C 0.30214 -0.27060 0.82294
 C82 C 0.32619 -0.25052 0.82654
 C83 C 0.32298 -0.23013 0.80287
 H84 H 0.29684 -0.28993 0.83698
 H85 H 0.33738 -0.21096 0.79778
 Cu86 Cu 0.25001 -0.28069 0.78044
 Cu87 Cu 0.28219 -0.21842 0.75045
 Cu88 Cu 0.21781 -0.25051 0.71851
 N89 N 0.21360 -0.29834 0.76254
 N90 N 0.20126 -0.28646 0.73824
 C91 C 0.17681 -0.30297 0.73029
 C92 C 0.17343 -0.32671 0.75070
 C93 C 0.19737 -0.32287 0.77090
 H94 H 0.16271 -0.29789 0.71096
 H95 H 0.20278 -0.33684 0.79022
 N96 N 0.23785 -0.21413 0.70188
 N97 N 0.26235 -0.20193 0.71403
 C98 C 0.27045 -0.17744 0.69771
 C99 C 0.25009 -0.17395 0.67403
 C100 C 0.22973 -0.19771 0.67750
 H101 H 0.28976 -0.16321 0.70279
 H102 H 0.21035 -0.20274 0.66339
 H103 H 0.23788 -0.23240 0.75664
 H104 H 0.26236 -0.25681 0.73224
 N105 N 0.70206 -0.23774 0.78645
 N106 N 0.71489 -0.26167 0.79869
 C107 C 0.69881 -0.27002 0.82323
 C108 C 0.67449 -0.25025 0.82661
 C109 C 0.67741 -0.23006 0.80273
 H110 H 0.70437 -0.28912 0.83747
 H111 H 0.66274 -0.21116 0.79741
 Cu112 Cu 0.75100 -0.27967 0.78070
 Cu113 Cu 0.71809 -0.21826 0.75022
 Cu114 Cu 0.78251 -0.25037 0.71814
 N115 N 0.78709 -0.29767 0.76271
 N116 N 0.79913 -0.28614 0.73810
 C117 C 0.82339 -0.30282 0.73001
 C118 C 0.82694 -0.32631 0.75067
 C119 C 0.80331 -0.32215 0.77115
 H120 H 0.83723 -0.29804 0.71042
 H121 H 0.79810 -0.33588 0.79069
 N122 N 0.76229 -0.21415 0.70143
 N123 N 0.73780 -0.20195 0.71362
 C124 C 0.72965 -0.17753 0.69724
 C125 C 0.74996 -0.17407 0.67352
 C126 C 0.77034 -0.19781 0.67700
 H127 H 0.71035 -0.16329 0.70234
 H128 H 0.78970 -0.20283 0.66286
 H129 H 0.73816 -0.25668 0.73225
 H130 H 0.76266 -0.23170 0.75603
 N131 N 0.29883 0.23790 0.78583
 N132 N 0.28672 0.26257 0.79734
 C133 C 0.30290 0.27100 0.82177
 C134 C 0.32649 0.25051 0.82587
 C135 C 0.32308 0.22982 0.80250
 H136 H 0.29778 0.29054 0.83557
 H137 H 0.33706 0.21022 0.79789
 Cu138 Cu 0.25062 0.28057 0.77939
 Cu139 Cu 0.28230 0.21793 0.75011
 Cu140 Cu 0.21783 0.25007 0.71811
 N141 N 0.21449 0.29858 0.76147
 N142 N 0.20168 0.28631 0.73759
 C143 C 0.17700 0.30260 0.72995
 C144 C 0.17401 0.32649 0.75013
 C145 C 0.19833 0.32313 0.76983
 H146 H 0.16233 0.29727 0.71110
 H147 H 0.20386 0.33738 0.78890
 N148 N 0.23764 0.21345 0.70179
 N149 N 0.26214 0.20124 0.71394
 C150 C 0.27025 0.17680 0.69758
 C151 C 0.24990 0.17336 0.67389
 C152 C 0.22954 0.19709 0.67739
 H153 H 0.28965 0.16264 0.70255
 H154 H 0.21025 0.20222 0.66319
 H155 H 0.26237 0.25595 0.73155
 H156 H 0.23789 0.23197 0.75638
 N157 N 0.29875 -0.23755 0.21410
 N158 N 0.28623 -0.26178 0.20214
 C159 C 0.30240 -0.27018 0.17767
 C160 C 0.32641 -0.25011 0.17403
 C161 C 0.32325 -0.22969 0.19767
 H162 H 0.29706 -0.28949 0.16360
 H163 H 0.33769 -0.21057 0.20278
 Cu164 Cu 0.25032 -0.28018 0.22009
 Cu165 Cu 0.28244 -0.21797 0.25009
 Cu166 Cu 0.21798 -0.24998 0.28195
 N167 N 0.21391 -0.29770 0.23790
 N168 N 0.20152 -0.28583 0.26218
 C169 C 0.17702 -0.30228 0.27002
 C170 C 0.17376 -0.32590 0.24958
 C171 C 0.19769 -0.32219 0.22948
 H172 H 0.16281 -0.29737 0.28930
 H173 H 0.20295 -0.33625 0.21018
 N174 N 0.23802 -0.21370 0.29858
 N175 N 0.26255 -0.20151 0.28648
 C176 C 0.27062 -0.17706 0.30284
 C177 C 0.25020 -0.17360 0.32647
 C178 C 0.22985 -0.19734 0.32294
 H179 H 0.28995 -0.16283 0.29780
 H180 H 0.21043 -0.20238 0.33699
 H181 H 0.26249 -0.25641 0.26829
 H182 H 0.23808 -0.23201 0.24383
 N183 N 0.70118 0.23755 0.21403
 N184 N 0.71364 0.26185 0.20214
 C185 C 0.69748 0.27028 0.17769
 C186 C 0.67348 0.25019 0.17402
 C187 C 0.67667 0.22972 0.19762
 H188 H 0.70285 0.28959 0.16365
 H189 H 0.66234 0.21045 0.20258
 Cu190 Cu 0.75000 0.27976 0.21962
 Cu191 Cu 0.71757 0.21780 0.24990
 Cu192 Cu 0.78194 0.24988 0.28188
 N193 N 0.78582 0.29782 0.23801
 N194 N 0.79825 0.28591 0.26226
 C195 C 0.82267 0.30245 0.27017
 C196 C 0.82589 0.32611 0.24976
 C197 C 0.80200 0.32235 0.22964
 H198 H 0.83699 0.29746 0.28936
 H199 H 0.79672 0.33638 0.21032
 N200 N 0.76203 0.21344 0.29834
 N201 N 0.73754 0.20122 0.28619
 C202 C 0.72946 0.17676 0.30253
 C203 C 0.74983 0.17331 0.32621
 C204 C 0.77017 0.19707 0.32271
 H205 H 0.71011 0.16255 0.29751
 H206 H 0.78951 0.20217 0.33686
 H207 H 0.73759 0.25623 0.26788
 H208 H 0.76210 0.23155 0.24372
 O209 O 0.27517 0.02940 0.47072
 O210 O 0.27528 -0.02966 0.52966
 O211 O 0.27520 -0.02966 0.47077
 O212 O 0.27520 0.02940 0.52958
 O213 O 0.22491 0.02935 0.52964
 O214 O 0.22491 -0.02970 0.47083
 O215 O 0.22500 -0.02971 0.52971
 O216 O 0.22488 0.02934 0.47078
 Cu217 Cu 0.28029 -0.00013 0.50018
 Cu218 Cu 0.21985 -0.00019 0.50025
 C219 C 0.25001 0.03934 0.46080
 C220 C 0.25016 -0.03965 0.53964
 C221 C 0.25006 -0.03963 0.46086
 C222 C 0.25006 0.03935 0.53953
 O223 O 0.72464 0.02927 0.52942
 O224 O 0.72450 -0.02979 0.47046
 O225 O 0.72461 -0.02982 0.52938
 O226 O 0.72463 0.02928 0.47053
 O227 O 0.77491 0.02922 0.47048
 O228 O 0.77489 -0.02986 0.52931
 O229 O 0.77478 -0.02984 0.47040
 O230 O 0.77492 0.02921 0.52934
 Cu231 Cu 0.71952 -0.00027 0.49996
 Cu232 Cu 0.77995 -0.00034 0.49988
 C233 C 0.74981 0.03922 0.53932
 C234 C 0.74962 -0.03976 0.46046
 C235 C 0.74975 -0.03980 0.53929
 C236 C 0.74977 0.03921 0.46057
 O237 O 0.47045 0.27615 0.02934
 O238 O 0.52970 0.27607 -0.02953
 O239 O 0.47046 0.27612 -0.02950
 O240 O 0.52966 0.27610 0.02932
 O241 O 0.52961 0.22594 0.02934
 O242 O 0.47042 0.22596 -0.02947
 O243 O 0.52966 0.22592 -0.02951
 O244 O 0.47041 0.22599 0.02937
 Cu245 Cu 0.50008 0.28117 -0.00011
 Cu246 Cu 0.50003 0.22088 -0.00007
 C247 C 0.46043 0.25108 0.03929
 C248 C 0.53970 0.25099 -0.03944
 C249 C 0.46043 0.25104 -0.03938
 C250 C 0.53962 0.25102 0.03925
 O251 O 0.53003 0.72382 0.02976
 O252 O 0.47078 0.72382 -0.02912
 O253 O 0.53001 0.72384 -0.02911
 O254 O 0.47080 0.72379 0.02973
 O255 O 0.47080 0.77394 0.02974
 O256 O 0.53002 0.77400 -0.02912
 O257 O 0.47077 0.77398 -0.02912
 O258 O 0.53004 0.77397 0.02978
 Cu259 Cu 0.50041 0.71877 0.00031
 Cu260 Cu 0.50041 0.77904 0.00032
 C261 C 0.54003 0.74888 0.03972
 C262 C 0.46076 0.74890 -0.03905
 C263 C 0.54001 0.74892 -0.03904
 C264 C 0.46080 0.74885 0.03966
 O265 O 0.02901 0.47104 0.27368
 O266 O -0.03029 0.53003 0.27355
 O267 O -0.03015 0.47102 0.27369
 O268 O 0.02894 0.53004 0.27362
 O269 O 0.02899 0.52998 0.22362
 O270 O -0.03012 0.47094 0.22369
 O271 O -0.03026 0.52996 0.22356
 O272 O 0.02904 0.47097 0.22368
 Cu273 Cu -0.00063 0.50056 0.27869
 Cu274 Cu -0.00059 0.50048 0.21858
 C275 C 0.03903 0.46105 0.24870
 C276 C -0.04031 0.53992 0.24853
 C277 C -0.04008 0.46100 0.24871
 C278 C 0.03898 0.53992 0.24861
 O279 O 0.02940 0.52999 0.72630
 O280 O -0.02991 0.47089 0.72612
 O281 O -0.02988 0.52997 0.72617
 O282 O 0.02932 0.47094 0.72618
 O283 O 0.02924 0.47088 0.77618
 O284 O -0.02995 0.52991 0.77616
 O285 O -0.02998 0.47084 0.77611
 O286 O 0.02933 0.52993 0.77628
 Cu287 Cu -0.00026 0.50047 0.72115
 Cu288 Cu -0.00036 0.50040 0.78122
 C289 C 0.03942 0.53989 0.75131
 C290 C -0.03994 0.46086 0.75110
 C291 C -0.03993 0.53987 0.75116
 C292 C 0.03927 0.46095 0.75119
 C293 C 0.39501 0.25087 0.10467
 C294 C 0.39522 0.22842 0.12699
 C295 C 0.37289 0.22817 0.14948
 C296 C 0.34990 0.25042 0.14998
 C297 C 0.35000 0.27296 0.12739
 C298 C 0.37237 0.27314 0.10492
 C299 C 0.41803 0.25104 0.08154
 C300 C 0.43737 0.25109 0.06222
 H301 H 0.41266 0.21106 0.12701
 H302 H 0.37378 0.21048 0.16636
 H303 H 0.33287 0.29052 0.12689
 H304 H 0.37199 0.29065 0.08774
 C305 C 0.60547 0.74891 0.10514
 C306 C 0.62837 0.72693 0.10508
 C307 C 0.65084 0.72709 0.12746
 C308 C 0.65085 0.74936 0.15042
 C309 C 0.62745 0.77131 0.15016
 C310 C 0.60505 0.77103 0.12774
 C311 C 0.58242 0.74883 0.08201
 C312 C 0.56308 0.74885 0.06269
 H313 H 0.62888 0.70963 0.08769
 H314 H 0.66807 0.70966 0.12648
 H315 H 0.62616 0.78887 0.16712
 H316 H 0.58738 0.78815 0.12803
 C317 C 0.60527 0.25086 -0.10470
 C318 C 0.60538 0.22818 -0.12679
 C319 C 0.62764 0.22811 -0.14935
 C320 C 0.65022 0.25077 -0.15019
 C321 C 0.64989 0.27345 -0.12775
 C322 C 0.62759 0.27346 -0.10521
 C323 C 0.58220 0.25095 -0.08161
 C324 C 0.56281 0.25098 -0.06234
 H325 H 0.58821 0.21056 -0.12661
 H326 H 0.62698 0.21024 -0.16605
 H327 H 0.66677 0.29126 -0.12745
 H328 H 0.62772 0.29113 -0.08819
 C329 C 0.39524 0.74897 -0.10436
 C330 C 0.37264 0.72665 -0.10456
 C331 C 0.35023 0.72675 -0.12700
 C332 C 0.35007 0.74924 -0.14963
 C333 C 0.37301 0.77155 -0.14918
 C334 C 0.39538 0.77139 -0.12672
 C335 C 0.41830 0.74889 -0.08126
 C336 C 0.43767 0.74889 -0.06197
 H337 H 0.37232 0.70916 -0.08736
 H338 H 0.33313 0.70915 -0.12646
 H339 H 0.37386 0.78922 -0.16609
 H340 H 0.41279 0.78877 -0.12681
 C341 C 0.10459 0.39562 0.24907
 C342 C 0.12720 0.39537 0.22684
 C343 C 0.14959 0.37286 0.22699
 C344 C 0.14970 0.35017 0.24944
 C345 C 0.12682 0.35075 0.27174
 C346 C 0.10447 0.37329 0.27151
 C347 C 0.08150 0.41875 0.24886
 C348 C 0.06211 0.43808 0.24876
 H349 H 0.12752 0.41257 0.20934
 H350 H 0.16670 0.37337 0.20947
 H351 H 0.12600 0.33387 0.28943
 H352 H 0.08706 0.37328 0.28885
 C353 C 0.10542 0.60503 0.75113
 C354 C 0.10544 0.62737 0.72872
 C355 C 0.12786 0.64985 0.72850
 C356 C 0.15083 0.65046 0.75082
 C357 C 0.15051 0.62765 0.77324
 C358 C 0.12802 0.60520 0.77334
 C359 C 0.08218 0.58200 0.75131
 C360 C 0.06266 0.56277 0.75136
 H361 H 0.08805 0.62744 0.71136
 H362 H 0.12688 0.66662 0.71073
 H363 H 0.16750 0.62685 0.79087
 H364 H 0.12827 0.58796 0.79080
 C365 C -0.10604 0.60517 0.24864
 C366 C -0.12830 0.60568 0.22611
 C367 C -0.15066 0.62823 0.22614
 C368 C -0.15118 0.65078 0.24881
 C369 C -0.12853 0.64981 0.27144
 C370 C -0.10624 0.62723 0.27129
 C371 C -0.08291 0.58208 0.24851
 C372 C -0.06347 0.56281 0.24849
 H373 H -0.12837 0.58866 0.20845
 H374 H -0.16739 0.62772 0.20826
 H375 H -0.12772 0.66637 0.28941
 H376 H -0.08910 0.62702 0.28889
 C377 C -0.10526 0.39504 0.75093
 C378 C -0.10483 0.37241 0.72882
 C379 C -0.12722 0.34989 0.72850
 C380 C -0.15063 0.34955 0.75039
 C381 C -0.15060 0.37252 0.77265
 C382 C -0.12814 0.39499 0.77286
 C383 C -0.08226 0.41831 0.75104
 C384 C -0.06296 0.43776 0.75107
 H385 H -0.08717 0.37218 0.71174
 H386 H -0.12593 0.33291 0.71095
 H387 H -0.16782 0.37344 0.79005
 H388 H -0.12867 0.41239 0.79015
 C389 C 0.24996 0.10465 0.39545
 C390 C 0.27239 0.10464 0.37304
 C391 C 0.27242 0.12698 0.35061
 C392 C 0.24994 0.14975 0.35023
 C393 C 0.22746 0.14947 0.37293
 C394 C 0.22750 0.12709 0.39533
 C395 C 0.24996 0.08162 0.41852
 C396 C 0.24997 0.06232 0.43784
 H397 H 0.28990 0.08735 0.37292
 H398 H 0.29011 0.12626 0.33367
 H399 H 0.20976 0.16645 0.37357
 H400 H 0.21001 0.12732 0.41258
 C401 C 0.75000 0.10467 0.60457
 C402 C 0.72761 0.10473 0.62701
 C403 C 0.72770 0.12708 0.64944
 C404 C 0.75025 0.14978 0.64978
 C405 C 0.77265 0.14946 0.62700
 C406 C 0.77250 0.12708 0.60461
 C407 C 0.74991 0.08158 0.58153
 C408 C 0.74987 0.06225 0.56225
 H409 H 0.71006 0.08748 0.62719
 H410 H 0.71004 0.12639 0.66641
 H411 H 0.79039 0.16642 0.62632
 H412 H 0.78996 0.12727 0.58733
 C413 C 0.25017 -0.10494 0.60504
 C414 C 0.22771 -0.12738 0.60514
 C415 C 0.22763 -0.14977 0.62753
 C416 C 0.25009 -0.15007 0.65024
 C417 C 0.27258 -0.12731 0.64988
 C418 C 0.27259 -0.10495 0.62745
 C419 C 0.25020 -0.08191 0.58196
 C420 C 0.25020 -0.06262 0.56263
 H421 H 0.21022 -0.12759 0.58788
 H422 H 0.20992 -0.16674 0.62688
 H423 H 0.29026 -0.12660 0.66683
 H424 H 0.29011 -0.08767 0.62760
 C425 C 0.74959 -0.10494 0.39496
 C426 C 0.77204 -0.12740 0.39484
 C427 C 0.77204 -0.14981 0.37248
 C428 C 0.74953 -0.15012 0.34981
 C429 C 0.72709 -0.12732 0.35016
 C430 C 0.72715 -0.10494 0.37256
 C431 C 0.74957 -0.08193 0.41806
 C432 C 0.74959 -0.06268 0.43742
 H433 H 0.78955 -0.12761 0.41206
 H434 H 0.78974 -0.16680 0.37312
 H435 H 0.70939 -0.12661 0.33323
 H436 H 0.70966 -0.08764 0.37241
 C437 C 0.60542 0.74898 -0.10439
 C438 C 0.62831 0.72697 -0.10432
 C439 C 0.65073 0.72714 -0.12674
 C440 C 0.65059 0.74939 -0.14960
 C441 C 0.62733 0.77135 -0.14944
 C442 C 0.60496 0.77112 -0.12701
 C443 C 0.58239 0.74889 -0.08128
 C444 C 0.56306 0.74890 -0.06197
 H445 H 0.62885 0.70969 -0.08692
 H446 H 0.66809 0.70980 -0.12599
 H447 H 0.62625 0.78882 -0.16655
 H448 H 0.58730 0.78825 -0.12730
 C449 C 0.39491 0.25079 -0.10454
 C450 C 0.39487 0.22808 -0.12658
 C451 C 0.37264 0.22794 -0.14916
 C452 C 0.35006 0.25058 -0.15004
 C453 C 0.35032 0.27329 -0.12763
 C454 C 0.37258 0.27336 -0.10508
 C455 C 0.41794 0.25097 -0.08147
 C456 C 0.43732 0.25103 -0.06223
 H457 H 0.41205 0.21048 -0.12635
 H458 H 0.37334 0.21005 -0.16583
 H459 H 0.33342 0.29108 -0.12737
 H460 H 0.37240 0.29105 -0.08808
 C461 C 0.39542 0.74903 0.10500
 C462 C 0.37277 0.72678 0.10524
 C463 C 0.35038 0.72698 0.12767
 C464 C 0.35030 0.74952 0.15024
 C465 C 0.37331 0.77175 0.14977
 C466 C 0.39566 0.77148 0.12731
 C467 C 0.41843 0.74888 0.08188
 C468 C 0.43776 0.74884 0.06257
 H469 H 0.37239 0.70927 0.08806
 H470 H 0.33323 0.70945 0.12717
 H471 H 0.37422 0.78945 0.16665
 H472 H 0.41313 0.78881 0.12734
 C473 C 0.60488 0.25075 0.10464
 C474 C 0.60462 0.22829 0.12694
 C475 C 0.62687 0.22809 0.14949
 C476 C 0.64978 0.25041 0.15006
 C477 C 0.64977 0.27292 0.12745
 C478 C 0.62748 0.27305 0.10493
 C479 C 0.58192 0.25092 0.08151
 C480 C 0.56262 0.25099 0.06219
 H481 H 0.58721 0.21091 0.12692
 H482 H 0.62596 0.21039 0.16637
 H483 H 0.66689 0.29050 0.12698
 H484 H 0.62788 0.29055 0.08774
 C485 C -0.10554 0.60516 0.75095
 C486 C -0.10573 0.62719 0.72825
 C487 C -0.12800 0.64978 0.72809
 C488 C -0.15061 0.65079 0.75075
 C489 C -0.15011 0.62827 0.77346
 C490 C -0.12777 0.60572 0.77351
 C491 C -0.08245 0.58206 0.75110
 C492 C -0.06304 0.56278 0.75115
 H493 H -0.08860 0.62693 0.71064
 H494 H -0.12718 0.66632 0.71009
 H495 H -0.16682 0.62780 0.79136
 H496 H -0.12784 0.58871 0.79119
 C497 C -0.10523 0.39538 0.24902
 C498 C -0.10504 0.37305 0.27145
 C499 C -0.12739 0.35053 0.27171
 C500 C -0.15031 0.35002 0.24947
 C501 C -0.15019 0.37264 0.22697
 C502 C -0.12781 0.39513 0.22679
 C503 C -0.08227 0.41855 0.24885
 C504 C -0.06301 0.43796 0.24876
 H505 H -0.08762 0.37305 0.28877
 H506 H -0.12654 0.33364 0.28939
 H507 H -0.16731 0.37314 0.20945
 H508 H -0.12812 0.41234 0.20930
 C509 C 0.10473 0.39549 0.75109
 C510 C 0.12761 0.39554 0.77304
 C511 C 0.15009 0.37312 0.77281
 C512 C 0.15003 0.35027 0.75055
 C513 C 0.12679 0.35045 0.72864
 C514 C 0.10435 0.37289 0.72893
 C515 C 0.08167 0.41862 0.75121
 C516 C 0.06232 0.43797 0.75122
 H517 H 0.12808 0.41293 0.79034
 H518 H 0.16742 0.37387 0.79011
 H519 H 0.12577 0.33337 0.71116
 H520 H 0.08671 0.37262 0.71184
 C521 C 0.10479 0.60490 0.24898
 C522 C 0.10471 0.62719 0.27144
 C523 C 0.12713 0.64963 0.27169
 C524 C 0.15002 0.65012 0.24942
 C525 C 0.14989 0.62745 0.22698
 C526 C 0.12743 0.60503 0.22679
 C527 C 0.08160 0.58194 0.24872
 C528 C 0.06213 0.56275 0.24861
 H529 H 0.08727 0.62725 0.28875
 H530 H 0.12633 0.66651 0.28939
 H531 H 0.16704 0.62689 0.20949
 H532 H 0.12770 0.58783 0.20931
 C533 C 0.74990 -0.10504 0.60464
 C534 C 0.72751 -0.10505 0.62708
 C535 C 0.72751 -0.12742 0.64947
 C536 C 0.74997 -0.15020 0.64976
 C537 C 0.77244 -0.14988 0.62705
 C538 C 0.77237 -0.12747 0.60470
 C539 C 0.74982 -0.08203 0.58157
 C540 C 0.74978 -0.06275 0.56225
 H541 H 0.71001 -0.08775 0.62727
 H542 H 0.70985 -0.12672 0.66644
 H543 H 0.79015 -0.16685 0.62637
 H544 H 0.78985 -0.12765 0.58743
 C545 C 0.25008 -0.10477 0.39548
 C546 C 0.27257 -0.10473 0.37314
 C547 C 0.27262 -0.12704 0.35069
 C548 C 0.25013 -0.14979 0.35026
 C549 C 0.22759 -0.14953 0.37291
 C550 C 0.22761 -0.12720 0.39532
 C551 C 0.25008 -0.08181 0.41857
 C552 C 0.25006 -0.06256 0.43790
 H553 H 0.29008 -0.08745 0.37307
 H554 H 0.29035 -0.12630 0.33379
 H555 H 0.20988 -0.16651 0.37350
 H556 H 0.21008 -0.12743 0.41253
 C557 C 0.74980 0.10449 0.39527
 C558 C 0.77226 0.12693 0.39515
 C559 C 0.77230 0.14930 0.37275
 C560 C 0.74982 0.14954 0.35006
 C561 C 0.72735 0.12677 0.35044
 C562 C 0.72737 0.10444 0.37287
 C563 C 0.74978 0.08149 0.41834
 C564 C 0.74979 0.06219 0.43764
 H565 H 0.78974 0.12719 0.41241
 H566 H 0.79000 0.16628 0.37337
 H567 H 0.70967 0.12602 0.33349
 H568 H 0.70987 0.08715 0.37277
 C569 C 0.25009 0.10466 0.60473
 C570 C 0.22763 0.12710 0.60483
 C571 C 0.22755 0.14942 0.62726
 C572 C 0.24999 0.14964 0.64999
 C573 C 0.27250 0.12692 0.64958
 C574 C 0.27252 0.10463 0.62712
 C575 C 0.25008 0.08164 0.58170
 C576 C 0.25007 0.06234 0.56243
 H577 H 0.21014 0.12734 0.58758
 H578 H 0.20984 0.16640 0.62663
 H579 H 0.29018 0.12618 0.66653
 H580 H 0.29002 0.08734 0.62724
   
