data_POSCAR
  _audit_creation_date              2014-09-24
  _audit_creation_method            'ToBaCCo'
  _symmetry_space_group_name_H-M    'P1'
  _symmetry_Int_Tables_number       1
  _symmetry_cell_setting            triclinic
  loop_
  _symmetry_equiv_pos_as_xyz
 x,y,z
_cell_length_a 42.6448
_cell_length_b 42.3526
_cell_length_c 42.9965
_cell_angle_alpha 89.931700
_cell_angle_beta 90.009900
_cell_angle_gamma 89.984500
loop_
  _atom_site_label
  _atom_site_type_symbol
  _atom_site_fract_x
  _atom_site_fract_y
  _atom_site_fract_z
N1 N 0.58801 0.67439 0.61441
 N2 N 0.57630 0.66140 0.63966
 C3 C 0.55107 0.67815 0.64884
 C4 C 0.54688 0.70272 0.62816
 C5 C 0.57060 0.69969 0.60660
 H6 H 0.53674 0.67288 0.66893
 H7 H 0.57486 0.71486 0.58680
 Cu8 Cu 0.59517 0.62384 0.65786
 Cu9 Cu 0.62509 0.65779 0.59369
 Cu10 Cu 0.65924 0.59096 0.62583
 N11 N 0.61447 0.58628 0.67561
 N12 N 0.63971 0.57373 0.66310
 C13 C 0.64856 0.54850 0.68002
 C14 C 0.62769 0.54510 0.70432
 C15 C 0.60632 0.56933 0.70089
 H16 H 0.66864 0.53376 0.67502
 H17 H 0.58653 0.57425 0.71585
 N18 N 0.67552 0.61187 0.58819
 N19 N 0.66269 0.63750 0.57613
 C20 C 0.67939 0.64640 0.55101
 C21 C 0.70369 0.62531 0.54713
 C22 C 0.70062 0.60372 0.57093
 H23 H 0.67431 0.66666 0.53656
 H24 H 0.71575 0.58373 0.57537
 H25 H 0.61918 0.61151 0.60786
 H26 H 0.64470 0.63698 0.63264
 N27 N 0.91498 0.32663 0.11169
 N28 N 0.92687 0.34014 0.13657
 C29 C 0.95238 0.32383 0.14577
 C30 C 0.95661 0.29897 0.12546
 C31 C 0.93259 0.30140 0.10410
 H32 H 0.96674 0.32952 0.16571
 H33 H 0.92814 0.28579 0.08470
 Cu34 Cu 0.90785 0.37764 0.15461
 Cu35 Cu 0.87725 0.34234 0.09143
 Cu36 Cu 0.84182 0.40815 0.12397
 N37 N 0.88722 0.41411 0.17296
 N38 N 0.86130 0.42578 0.16101
 C39 C 0.85181 0.45048 0.17830
 C40 C 0.87297 0.45444 0.20225
 C41 C 0.89515 0.43109 0.19824
 H42 H 0.83113 0.46452 0.17381
 H43 H 0.91537 0.42681 0.21282
 N44 N 0.82564 0.38697 0.08650
 N45 N 0.83895 0.36171 0.07428
 C46 C 0.82225 0.35257 0.04926
 C47 C 0.79745 0.37312 0.04562
 C48 C 0.80023 0.39464 0.06947
 H49 H 0.82771 0.33255 0.03466
 H50 H 0.78474 0.41430 0.07404
 H51 H 0.88207 0.38885 0.10514
 H52 H 0.85813 0.36267 0.13083
 N53 N 0.41065 0.17545 -0.11391
 N54 N 0.42212 0.16303 -0.13953
 C55 C 0.44732 0.17988 -0.14856
 C56 C 0.45177 0.20395 -0.12743
 C57 C 0.42821 0.20051 -0.10574
 H58 H 0.46146 0.17503 -0.16886
 H59 H 0.42416 0.21523 -0.08560
 Cu60 Cu 0.40304 0.12600 -0.15843
 Cu61 Cu 0.37372 0.15840 -0.09323
 Cu62 Cu 0.33976 0.09192 -0.12604
 N63 N 0.38421 0.08825 -0.17614
 N64 N 0.35923 0.07528 -0.16354
 C65 C 0.35071 0.04998 -0.18047
 C66 C 0.37153 0.04695 -0.20482
 C67 C 0.39253 0.07147 -0.20144
 H68 H 0.33093 0.03486 -0.17541
 H69 H 0.41221 0.07668 -0.21645
 N70 N 0.32350 0.11222 -0.08813
 N71 N 0.33626 0.13769 -0.07576
 C72 C 0.31973 0.14595 -0.05033
 C73 C 0.29565 0.12459 -0.04657
 C74 C 0.29863 0.10353 -0.07081
 H75 H 0.32480 0.16589 -0.03549
 H76 H 0.28371 0.08346 -0.07545
 H77 H 0.37993 0.11249 -0.10830
 H78 H 0.35378 0.13823 -0.13223
 N79 N 0.08704 0.82327 0.38647
 N80 N 0.07470 0.83666 0.36171
 C81 C 0.04944 0.81991 0.35267
 C82 C 0.04586 0.79488 0.37295
 C83 C 0.07000 0.79767 0.39413
 H84 H 0.03469 0.82552 0.33297
 H85 H 0.07479 0.78216 0.41357
 Cu86 Cu 0.09268 0.87482 0.34391
 Cu87 Cu 0.12439 0.83982 0.40673
 Cu88 Cu 0.15783 0.90698 0.37456
 N89 N 0.11198 0.91219 0.32586
 N90 N 0.13761 0.92449 0.33778
 C91 C 0.14608 0.94982 0.32081
 C92 C 0.12455 0.95356 0.29716
 C93 C 0.10322 0.92938 0.30095
 H94 H 0.16628 0.96455 0.32535
 H95 H 0.08296 0.92470 0.28656
 N96 N 0.17481 0.88580 0.41175
 N97 N 0.16220 0.86009 0.42386
 C98 C 0.17919 0.85119 0.44879
 C99 C 0.20345 0.87234 0.45250
 C100 C 0.20006 0.89398 0.42877
 H101 H 0.17428 0.83092 0.46329
 H102 H 0.21500 0.91411 0.42431
 H103 H 0.11823 0.88631 0.39339
 H104 H 0.14286 0.86109 0.36748
 N105 N 0.08961 0.17755 0.11406
 N106 N 0.07750 0.16504 0.13936
 C107 C 0.05235 0.18214 0.14806
 C108 C 0.04858 0.20646 0.12702
 C109 C 0.07251 0.20292 0.10574
 H110 H 0.03774 0.17725 0.16803
 H111 H 0.07710 0.21775 0.08576
 Cu112 Cu 0.09556 0.12741 0.15815
 Cu113 Cu 0.12670 0.16014 0.09394
 Cu114 Cu 0.15943 0.09315 0.12729
 N115 N 0.11402 0.08978 0.17655
 N116 N 0.13919 0.07665 0.16451
 C117 C 0.14710 0.05121 0.18160
 C118 C 0.12569 0.04826 0.20544
 C119 C 0.10500 0.07302 0.20165
 H120 H 0.16679 0.03582 0.17695
 H121 H 0.08494 0.07832 0.21609
 N122 N 0.17650 0.11336 0.08962
 N123 N 0.16420 0.13902 0.07707
 C124 C 0.18111 0.14705 0.05181
 C125 C 0.20495 0.12536 0.04832
 C126 C 0.20143 0.10434 0.07257
 H127 H 0.17641 0.16701 0.03682
 H128 H 0.21598 0.08400 0.07734
 H129 H 0.11989 0.11414 0.10853
 H130 H 0.14551 0.13951 0.13329
 N131 N 0.41238 0.82458 0.61297
 N132 N 0.42400 0.83780 0.63813
 C133 C 0.44914 0.82111 0.64765
 C134 C 0.45339 0.79631 0.62730
 C135 C 0.42979 0.79916 0.60557
 H136 H 0.46338 0.82656 0.66774
 H137 H 0.42559 0.78380 0.58594
 Cu138 Cu 0.40512 0.87558 0.65576
 Cu139 Cu 0.37541 0.84103 0.59188
 Cu140 Cu 0.34119 0.90819 0.62311
 N141 N 0.38583 0.91336 0.67295
 N142 N 0.36061 0.92577 0.66024
 C143 C 0.35169 0.95112 0.67689
 C144 C 0.37250 0.95477 0.70119
 C145 C 0.39389 0.93055 0.69806
 H146 H 0.33158 0.96578 0.67176
 H147 H 0.41359 0.92576 0.71318
 N148 N 0.32503 0.88693 0.58565
 N149 N 0.33791 0.86121 0.57391
 C150 C 0.32129 0.85209 0.54883
 C151 C 0.29698 0.87312 0.54466
 C152 C 0.29997 0.89491 0.56825
 H153 H 0.32640 0.83168 0.53464
 H154 H 0.28480 0.91491 0.57244
 H155 H 0.38129 0.88745 0.60554
 H156 H 0.35567 0.86223 0.63051
 N157 N 0.91295 0.67396 0.38759
 N158 N 0.92443 0.66114 0.36218
 C159 C 0.94963 0.67786 0.35289
 C160 C 0.95408 0.70225 0.37367
 C161 C 0.93051 0.69913 0.39540
 H162 H 0.96373 0.67275 0.33262
 H163 H 0.92639 0.71422 0.41526
 Cu164 Cu 0.90528 0.62386 0.34386
 Cu165 Cu 0.87581 0.65745 0.40831
 Cu166 Cu 0.84117 0.59108 0.37591
 N167 N 0.88573 0.58659 0.32596
 N168 N 0.86052 0.57401 0.33850
 C169 C 0.85158 0.54892 0.32147
 C170 C 0.87236 0.54565 0.29710
 C171 C 0.89375 0.56980 0.30058
 H172 H 0.83152 0.53415 0.32643
 H173 H 0.91349 0.57475 0.28558
 N174 N 0.82510 0.61182 0.41369
 N175 N 0.83812 0.63727 0.42585
 C176 C 0.82151 0.64610 0.45103
 C177 C 0.79706 0.62517 0.45484
 C178 C 0.79996 0.60373 0.43093
 H179 H 0.82673 0.66624 0.46555
 H180 H 0.78467 0.58391 0.42640
 H181 H 0.88139 0.61128 0.39388
 H182 H 0.85593 0.63711 0.36934
 N183 N 0.58704 0.32508 -0.11298
 N184 N 0.57520 0.33840 -0.13802
 C185 C 0.54978 0.32196 -0.14715
 C186 C 0.54557 0.29721 -0.12668
 C187 C 0.56950 0.29983 -0.10528
 H188 H 0.53537 0.32749 -0.16712
 H189 H 0.57386 0.28439 -0.08570
 Cu190 Cu 0.59424 0.37589 -0.15613
 Cu191 Cu 0.62449 0.34117 -0.09249
 Cu192 Cu 0.65889 0.40793 -0.12449
 N193 N 0.61371 0.41337 -0.17382
 N194 N 0.63916 0.42560 -0.16146
 C195 C 0.64812 0.45079 -0.17838
 C196 C 0.62711 0.45451 -0.20250
 C197 C 0.60554 0.43051 -0.19898
 H198 H 0.66842 0.46527 -0.17357
 H199 H 0.58564 0.42583 -0.21386
 N200 N 0.67535 0.38661 -0.08714
 N201 N 0.66244 0.36100 -0.07514
 C202 C 0.67928 0.35187 -0.05017
 C203 C 0.70373 0.37279 -0.04634
 C204 C 0.70060 0.39452 -0.07002
 H205 H 0.67414 0.33160 -0.03574
 H206 H 0.71578 0.41447 -0.07441
 H207 H 0.61885 0.38759 -0.10626
 H208 H 0.64389 0.36207 -0.13146
 C209 C -0.00114 0.23588 0.15253
 C210 C 0.00526 0.27188 0.15194
 C211 C -0.01971 0.27553 0.12637
 C212 C -0.02643 0.23988 0.12698
 C213 C 0.00516 0.27106 0.10088
 C214 C 0.03047 0.26703 0.12645
 C215 C 0.02378 0.23137 0.12705
 C216 C -0.00119 0.23506 0.10151
 H217 H -0.00365 0.22127 0.17384
 H218 H 0.00793 0.28709 0.17278
 H219 H -0.05008 0.22894 0.12719
 H220 H 0.00752 0.28578 0.07963
 H221 H 0.05414 0.27792 0.12622
 H222 H -0.00359 0.21964 0.08078
 C223 C 0.50321 0.76767 0.65385
 C224 C 0.49692 0.73164 0.65408
 C225 C 0.52193 0.72747 0.62864
 C226 C 0.52852 0.76315 0.62842
 C227 C 0.49705 0.73137 0.60305
 C228 C 0.47172 0.73587 0.62846
 C229 C 0.47832 0.77155 0.62823
 C230 C 0.50332 0.76735 0.60282
 H231 H 0.50563 0.78276 0.67479
 H232 H 0.49440 0.71679 0.67521
 H233 H 0.55216 0.77412 0.62839
 H234 H 0.49477 0.71617 0.58216
 H235 H 0.44808 0.72490 0.62846
 H236 H 0.50570 0.78231 0.58174
 C237 C 0.97218 0.76272 0.37321
 C238 C 0.99783 0.76699 0.39838
 C239 C 1.02232 0.77131 0.37250
 C240 C 0.99700 0.76740 0.34732
 C241 C 1.02912 0.73566 0.37216
 C242 C 1.00427 0.73101 0.39804
 C243 C 0.97894 0.72706 0.37289
 C244 C 1.00346 0.73140 0.34701
 H245 H 0.94849 0.77357 0.37367
 H246 H 0.99574 0.78189 0.41950
 H247 H 0.99400 0.78243 0.32636
 H248 H 1.05280 0.72478 0.37173
 H249 H 1.00700 0.71577 0.41888
 H250 H 1.00568 0.71660 0.32583
 C251 C 0.49537 0.26905 -0.15280
 C252 C 0.50155 0.23302 -0.15340
 C253 C 0.47678 0.22864 -0.12776
 C254 C 0.47030 0.26435 -0.12717
 C255 C 0.50192 0.23216 -0.10238
 C256 C 0.52701 0.23686 -0.12800
 C257 C 0.52053 0.27256 -0.12741
 C258 C 0.49577 0.26818 -0.10178
 H259 H 0.49277 0.28437 -0.17360
 H260 H 0.50384 0.21841 -0.17469
 H261 H 0.44669 0.27540 -0.12682
 H262 H 0.50436 0.21672 -0.08164
 H263 H 0.55062 0.22580 -0.12833
 H264 H 0.49365 0.28291 -0.08055
 C265 C 0.12444 -0.01236 0.22302
 C266 C 0.15016 -0.01741 0.24796
 C267 C 0.12445 -0.02135 0.27272
 C268 C 0.09872 -0.01662 0.24808
 C269 C 0.12500 0.01425 0.27964
 C270 C 0.15072 0.01851 0.25455
 C271 C 0.12499 0.02324 0.22993
 C272 C 0.09927 0.01930 0.25471
 H273 H 0.12422 -0.02305 0.19946
 H274 H 0.17109 -0.03279 0.24544
 H275 H 0.07726 -0.03121 0.24549
 H276 H 0.12524 0.02494 0.30320
 H277 H 0.17210 0.03324 0.25696
 H278 H 0.07828 0.03455 0.25741
 C279 C 0.60215 0.50424 -0.23212
 C280 C 0.62808 0.52939 -0.23703
 C281 C 0.62802 0.52183 -0.27199
 C282 C 0.60209 0.49706 -0.26742
 C283 C 0.65358 0.49661 -0.26740
 C284 C 0.65361 0.50384 -0.23209
 C285 C 0.62768 0.47903 -0.22750
 C286 C 0.62764 0.47152 -0.26248
 H287 H 0.58101 0.50712 -0.21733
 H288 H 0.62826 0.55343 -0.22679
 H289 H 0.58091 0.49450 -0.28222
 H290 H 0.67483 0.49346 -0.28197
 H291 H 0.67485 0.50655 -0.21741
 H292 H 0.62744 0.44745 -0.27267
 C293 C 0.37187 0.97203 0.76104
 C294 C 0.39737 0.99759 0.76586
 C295 C 0.37143 1.02240 0.77026
 C296 C 0.34593 0.99715 0.76575
 C297 C 0.37144 1.02978 0.73524
 C298 C 0.39739 1.00463 0.73052
 C299 C 0.37188 0.97940 0.72602
 C300 C 0.34594 1.00423 0.73041
 H301 H 0.37206 0.94801 0.77139
 H302 H 0.41852 0.99511 0.78072
 H303 H 0.32469 0.99414 0.78037
 H304 H 0.37128 1.05380 0.72489
 H305 H 0.41855 1.00745 0.71575
 H306 H 0.32472 1.00689 0.71569
 C307 C 0.89806 0.49678 0.26705
 C308 C 0.87275 0.47102 0.26230
 C309 C 0.87223 0.47875 0.22736
 C310 C 0.89753 0.50420 0.23180
 C311 C 0.84610 0.50327 0.23233
 C312 C 0.84662 0.49583 0.26761
 C313 C 0.87194 0.52128 0.27203
 C314 C 0.87141 0.52902 0.23709
 H315 H 0.91942 0.49436 0.28161
 H316 H 0.87332 0.44689 0.27239
 H317 H 0.91847 0.50740 0.21679
 H318 H 0.82467 0.50585 0.21790
 H319 H 0.82562 0.49247 0.28250
 H320 H 0.87087 0.55314 0.22700
 C321 C 0.22155 0.12472 -0.01169
 C322 C 0.24683 0.15046 -0.01679
 C323 C 0.27149 0.12440 -0.02141
 C324 C 0.24651 0.09865 -0.01663
 C325 C 0.27913 0.12442 0.01354
 C326 C 0.25414 0.15048 0.01848
 C327 C 0.22919 0.12474 0.02326
 C328 C 0.25387 0.09868 0.01864
 H329 H 0.19760 0.12485 -0.02180
 H330 H 0.24418 0.17175 -0.03164
 H331 H 0.24344 0.07727 -0.03120
 H332 H 0.30309 0.12431 0.02365
 H333 H 0.25703 0.17179 0.03320
 H334 H 0.25669 0.07731 0.03335
 C335 C 0.73694 0.62582 0.47274
 C336 C 0.73240 0.59987 0.49775
 C337 C 0.72839 0.62572 0.52251
 C338 C 0.73261 0.65167 0.49781
 C339 C 0.76380 0.62554 0.52921
 C340 C 0.76813 0.59969 0.50413
 C341 C 0.77236 0.62564 0.47945
 C342 C 0.76835 0.65149 0.50423
 H343 H 0.72615 0.62592 0.44925
 H344 H 0.71733 0.57864 0.49535
 H345 H 0.71787 0.67312 0.49529
 H346 H 0.77459 0.62542 0.55271
 H347 H 0.78301 0.57831 0.50647
 H348 H 0.78328 0.67279 0.50681
 C349 C 0.76390 0.37260 -0.02863
 C350 C 0.76821 0.39842 -0.00352
 C351 C 0.77265 0.37244 0.02109
 C352 C 0.76867 0.34662 -0.00371
 C353 C 0.73727 0.37210 0.02793
 C354 C 0.73251 0.39808 0.00299
 C355 C 0.72852 0.37227 -0.02180
 C356 C 0.73295 0.34628 0.00282
 H357 H 0.77459 0.37282 -0.05217
 H358 H 0.78298 0.41986 -0.00588
 H359 H 0.78370 0.32539 -0.00638
 H360 H 0.72658 0.37192 0.05146
 H361 H 0.71737 0.41924 0.00550
 H362 H 0.71830 0.32477 0.00534
 C363 C 0.26825 0.84643 0.49543
 C364 C 0.23252 0.84630 0.50189
 C365 C 0.22825 0.87209 0.47703
 C366 C 0.26365 0.87222 0.47028
 C367 C 0.23229 0.89810 0.50162
 C368 C 0.23688 0.87231 0.52678
 C369 C 0.27228 0.87245 0.52003
 C370 C 0.26800 0.89823 0.49520
 H371 H 0.28318 0.82511 0.49296
 H372 H 0.21779 0.82487 0.50456
 H373 H 0.27440 0.87220 0.44677
 H374 H 0.21722 0.91935 0.50392
 H375 H 0.22612 0.87236 0.55029
 H376 H 0.28287 0.91959 0.49271
   
