data_POSCAR
  _audit_creation_date              2014-09-24
  _audit_creation_method            'ToBaCCo'
  _symmetry_space_group_name_H-M    'P1'
  _symmetry_Int_Tables_number       1
  _symmetry_cell_setting            triclinic
  loop_
  _symmetry_equiv_pos_as_xyz
 x,y,z
_cell_length_a 30.6983
_cell_length_b 30.6817
_cell_length_c 30.5902
_cell_angle_alpha 89.113300
_cell_angle_beta 90.598200
_cell_angle_gamma 90.038300
loop_
  _atom_site_label
  _atom_site_type_symbol
  _atom_site_fract_x
  _atom_site_fract_y
  _atom_site_fract_z
C1 C 0.25300 1.11187 0.00063
 C2 C 0.26136 1.08599 0.03837
 C3 C 0.25842 1.04047 0.03495
 C4 C 0.24720 1.02066 -0.00511
 C5 C 0.23817 1.04783 -0.04167
 C6 C 0.24182 1.09318 -0.03974
 C7 C 0.24479 0.97199 -0.00932
 C8 C 0.24786 0.95240 -0.05077
 C9 C 0.24242 0.90752 -0.05576
 C10 C 0.23648 0.88123 -0.01824
 C11 C 0.23695 0.89910 0.02355
 C12 C 0.23905 0.94459 0.02768
 H13 H 0.25417 1.14665 0.00313
 H14 H 0.26642 1.02083 0.06355
 H15 H 0.22700 1.03408 -0.07211
 H16 H 0.25481 0.97154 -0.07981
 H17 H 0.23129 0.84652 -0.02100
 H18 H 0.23495 0.95836 0.05957
 C19 C 0.78467 0.60396 0.50104
 C20 C 0.79245 0.58012 0.53970
 C21 C 0.78378 0.53504 0.54087
 C22 C 0.76588 0.51416 0.50379
 C23 C 0.75558 0.54010 0.46637
 C24 C 0.76549 0.58458 0.46446
 C25 C 0.75920 0.46558 0.50289
 C26 C 0.75944 0.44397 0.46239
 C27 C 0.75284 0.39911 0.45970
 C28 C 0.74727 0.37476 0.49870
 C29 C 0.74806 0.39470 0.54003
 C30 C 0.75327 0.44039 0.54167
 H31 H 0.79347 0.63814 0.49977
 H32 H 0.79234 0.51650 0.57001
 H33 H 0.73950 0.52614 0.43826
 H34 H 0.76592 0.46157 0.43227
 H35 H 0.74168 0.33996 0.49692
 H36 H 0.75224 0.45627 0.57285
 C37 C 0.73760 1.00359 1.10908
 C38 C 0.74154 0.96099 1.09367
 C39 C 0.74453 0.95482 1.04835
 C40 C 0.74801 0.99104 1.01959
 C41 C 0.75124 1.03318 1.03730
 C42 C 0.74169 1.04004 1.08102
 C43 C 0.74440 0.98610 0.97129
 C44 C 0.72786 1.02100 0.94574
 C45 C 0.72720 1.01937 0.90022
 C46 C 0.73756 0.98020 0.88013
 C47 C 0.74927 0.94304 0.90511
 C48 C 0.75517 0.94695 0.95038
 H49 H 0.73438 1.00844 1.14394
 H50 H 0.74221 0.92236 1.03554
 H51 H 0.75760 1.06132 1.01653
 H52 H 0.71503 1.04948 0.96127
 H53 H 0.73723 0.97913 0.84477
 H54 H 0.76741 0.91918 0.96889
 C55 C 0.24574 0.50708 0.60495
 C56 C 0.23882 0.46642 0.58603
 C57 C 0.23970 0.46303 0.54039
 C58 C 0.24841 0.50012 0.51380
 C59 C 0.25587 0.54077 0.53406
 C60 C 0.25386 0.54438 0.57950
 C61 C 0.24980 0.49671 0.46515
 C62 C 0.24024 0.53354 0.43851
 C63 C 0.24473 0.53196 0.39308
 C64 C 0.25646 0.49292 0.37385
 C65 C 0.26453 0.45556 0.39913
 C66 C 0.26166 0.45734 0.44481
 H67 H 0.24458 0.50980 0.64026
 H68 H 0.23230 0.43196 0.52586
 H69 H 0.26447 0.56942 0.51503
 H70 H 0.22877 0.56337 0.45277
 H71 H 0.25970 0.49163 0.33858
 H72 H 0.27028 0.42867 0.46401
 C73 C 1.10435 0.27941 0.00037
 C74 C 1.08781 0.26477 0.04088
 C75 C 1.04437 0.25054 0.04230
 C76 C 1.01681 0.25386 0.00525
 C77 C 1.03430 0.26965 -0.03445
 C78 C 1.07815 0.28080 -0.03725
 C79 C 0.96963 0.24257 0.00808
 C80 C 0.94638 0.23151 -0.02992
 C81 C 0.90094 0.23046 -0.03069
 C82 C 0.87876 0.23214 0.00994
 C83 C 0.90208 0.23785 0.04975
 C84 C 0.94697 0.24559 0.04776
 H85 H 1.13807 0.28836 -0.00350
 H86 H 1.03217 0.23699 0.07265
 H87 H 1.01413 0.27453 -0.06327
 H88 H 0.96348 0.22641 -0.06016
 H89 H 0.84381 0.22897 0.01093
 H90 H 0.96383 0.25440 0.07753
 C91 C 0.61137 0.75465 0.50653
 C92 C 0.58930 0.73879 0.54338
 C93 C 0.54385 0.73403 0.54102
 C94 C 0.52055 0.74474 0.50215
 C95 C 0.54405 0.75915 0.46518
 C96 C 0.58936 0.76356 0.46729
 C97 C 0.47192 0.74242 0.50035
 C98 C 0.44989 0.73503 0.46022
 C99 C 0.40428 0.73583 0.45790
 C100 C 0.38062 0.74252 0.49587
 C101 C 0.40136 0.74924 0.53600
 C102 C 0.44700 0.74946 0.53829
 H103 H 0.64612 0.76056 0.50809
 H104 H 0.52694 0.72177 0.56954
 H105 H 0.52735 0.76880 0.43528
 H106 H 0.46786 0.72794 0.43096
 H107 H 0.34529 0.74296 0.49409
 H108 H 0.46271 0.75697 0.56908
 C109 C 0.00420 0.77500 -0.11221
 C110 C 0.04035 0.75998 -0.08828
 C111 C 0.03629 0.75199 -0.04357
 C112 C -0.00335 0.75981 -0.02190
 C113 C -0.04055 0.77102 -0.04773
 C114 C -0.03705 0.77721 -0.09338
 C115 C -0.00483 0.75662 0.02720
 C116 C -0.04459 0.75159 0.04980
 C117 C -0.04576 0.75143 0.09578
 C118 C -0.00571 0.75068 0.11893
 C119 C 0.03412 0.75515 0.09758
 C120 C 0.03414 0.76018 0.05210
 H121 H 0.00776 0.78294 -0.14664
 H122 H 0.06443 0.73913 -0.02623
 H123 H -0.07158 0.77657 -0.03266
 H124 H -0.07506 0.74884 0.03207
 H125 H -0.00460 0.74570 0.15394
 H126 H 0.06458 0.76794 0.03658
 C127 C 0.50586 0.26034 0.39222
 C128 C 0.54176 0.25045 0.41888
 C129 C 0.53554 0.24140 0.46320
 C130 C 0.49405 0.24716 0.48221
 C131 C 0.45816 0.25655 0.45431
 C132 C 0.46393 0.26144 0.40912
 C133 C 0.48928 0.24648 0.53087
 C134 C 0.44830 0.24100 0.55112
 C135 C 0.44407 0.24470 0.59654
 C136 C 0.48222 0.24864 0.62226
 C137 C 0.52341 0.25272 0.60294
 C138 C 0.52613 0.25403 0.55756
 H139 H 0.51053 0.26609 0.35748
 H140 H 0.56354 0.23160 0.48257
 H141 H 0.42608 0.26189 0.46724
 H142 H 0.41918 0.23500 0.53203
 H143 H 0.48011 0.24823 0.65757
 H144 H 0.55704 0.26238 0.54339
 C145 C 1.14042 0.00392 0.21346
 C146 C 1.11978 0.04425 0.21849
 C147 C 1.07419 0.04465 0.22534
 C148 C 1.04955 0.00524 0.22481
 C149 C 1.07191 -0.03412 0.21739
 C150 C 1.11718 -0.03508 0.21389
 C151 C 1.00090 0.00419 0.23151
 C152 C 0.97954 -0.03520 0.24415
 C153 C 0.93392 -0.03801 0.24652
 C154 C 0.90972 -0.00021 0.23661
 C155 C 0.92981 0.04038 0.22953
 C156 C 0.97516 0.04200 0.22509
 H157 H 1.17552 0.00257 0.20972
 H158 H 1.05840 0.07513 0.23204
 H159 H 1.05446 -0.06433 0.21344
 H160 H 0.99804 -0.06401 0.25298
 H161 H 0.87489 -0.00232 0.23240
 H162 H 0.98972 0.07290 0.21625
 C163 C 0.61859 0.50390 0.73380
 C164 C 0.59658 0.54348 0.72726
 C165 C 0.55116 0.54358 0.72516
 C166 C 0.52715 0.50551 0.73510
 C167 C 0.55034 0.46658 0.74469
 C168 C 0.59581 0.46532 0.74226
 C169 C 0.47845 0.50663 0.73700
 C170 C 0.45426 0.46768 0.73450
 C171 C 0.40938 0.46751 0.74068
 C172 C 0.38726 0.50728 0.74369
 C173 C 0.40996 0.54695 0.74287
 C174 C 0.45552 0.54624 0.74206
 H175 H 0.65382 0.50297 0.73238
 H176 H 0.53518 0.57398 0.71688
 H177 H 0.53372 0.43746 0.75552
 H178 H 0.46986 0.43682 0.72858
 H179 H 0.35225 0.50735 0.74658
 H180 H 0.47238 0.57694 0.74516
 C181 C 0.99394 1.12483 0.77327
 C182 C 0.95483 1.10216 0.76667
 C183 C 0.95715 1.05682 0.76040
 C184 C 0.99754 1.03375 0.76388
 C185 C 1.03618 1.05831 0.77088
 C186 C 1.03452 1.10396 0.77466
 C187 C 0.99863 0.98439 0.76134
 C188 C 1.03764 0.96033 0.75286
 C189 C 1.03681 0.91409 0.75096
 C190 C 0.99690 0.89277 0.75678
 C191 C 0.95888 0.91526 0.76514
 C192 C 0.95970 0.96046 0.76832
 H193 H 0.99292 1.15992 0.77715
 H194 H 0.92752 1.04000 0.75202
 H195 H 1.06730 1.04227 0.77442
 H196 H 1.06796 0.97705 0.74673
 H197 H 0.99500 0.85746 0.75521
 H198 H 0.92982 0.97603 0.77781
 C199 C 0.51283 0.62292 0.25717
 C200 C 0.47391 0.59976 0.26161
 C201 C 0.47547 0.55435 0.26789
 C202 C 0.51582 0.53159 0.26764
 C203 C 0.55463 0.55646 0.26204
 C204 C 0.55322 0.60205 0.25792
 C205 C 0.51742 0.48249 0.27306
 C206 C 0.55726 0.46081 0.28299
 C207 C 0.55957 0.41530 0.28468
 C208 C 0.52105 0.39104 0.28192
 C209 C 0.48105 0.41079 0.27247
 C210 C 0.47952 0.45643 0.26688
 H211 H 0.51168 0.65812 0.25324
 H212 H 0.44523 0.53762 0.27419
 H213 H 0.58602 0.54109 0.25947
 H214 H 0.58718 0.47845 0.28838
 H215 H 0.52246 0.35590 0.28602
 H216 H 0.44919 0.47097 0.25640
 O217 O 0.27453 0.15385 0.16119
 O218 O 0.31864 0.13463 0.22459
 O219 O 0.15575 0.19850 0.22039
 O220 O 0.13447 0.25247 0.26168
 O221 O 0.22231 0.27454 0.11570
 O222 O 0.28297 0.32203 0.11537
 O223 O 0.25627 0.30532 0.35310
 O224 O 0.20484 0.24668 0.35081
 O225 O 0.37272 0.25585 0.30769
 O226 O 0.39605 0.21323 0.24764
 O227 O 0.32709 0.37143 0.25324
 O228 O 0.26869 0.38944 0.19878
 O229 O 0.26506 0.36257 0.30597
 O230 O 0.21963 0.38456 0.24161
 O231 O 0.37909 0.31884 0.25394
 O232 O 0.39726 0.25951 0.19987
 O233 O 0.31574 0.24916 0.35415
 O234 O 0.26290 0.19657 0.35496
 O235 O 0.28352 0.21330 0.11681
 O236 O 0.33104 0.27481 0.11658
 O237 O 0.16361 0.26472 0.15965
 O238 O 0.14654 0.31019 0.22408
 O239 O 0.20892 0.14714 0.21864
 O240 O 0.26963 0.12692 0.26737
 Zr241 Zr 0.26809 0.18142 0.22411
 O242 O 0.30329 0.21392 0.27350
 Zr243 Zr 0.19107 0.25755 0.22313
 O244 O 0.22336 0.29323 0.27237
 Zr245 Zr 0.27619 0.26700 0.15722
 O246 O 0.31190 0.30314 0.20283
 Zr247 Zr 0.26128 0.25113 0.31183
 O248 O 0.22495 0.21422 0.26588
 Zr249 Zr 0.34537 0.25994 0.24489
 O250 O 0.31404 0.22372 0.19546
 Zr251 Zr 0.26874 0.33610 0.24350
 O252 O 0.23281 0.30404 0.19408
 O253 O 0.23189 0.22228 0.18310
 O254 O 0.30514 0.29581 0.28510
 C255 C 0.28113 0.17207 0.12356
 C256 C 0.16864 0.15867 0.21925
 C257 C 0.18127 0.27214 0.12223
 C258 C 0.26020 0.34624 0.34452
 C259 C 0.35657 0.25242 0.34612
 C260 C 0.36692 0.35882 0.25635
 H261 H 0.31919 0.19237 0.29198
 H262 H 0.33168 0.32319 0.18703
 H263 H 0.21526 0.20573 0.16095
 H264 H 0.20181 0.30876 0.29016
 H265 H 0.18640 0.22344 0.33824
 H266 H 0.14262 0.26185 0.29144
 H267 H 0.39606 0.28718 0.18285
 H268 H 0.35295 0.25319 0.12681
 H269 H 0.24414 0.17405 0.34179
 H270 H 0.24398 0.12899 0.28652
 H271 H 0.29486 0.38685 0.18040
 H272 H 0.26204 0.34412 0.12552
 H273 H 0.34280 0.14744 0.20746
 H274 H 0.38387 0.18615 0.26046
 H275 H 0.15780 0.33294 0.20385
 H276 H 0.19641 0.37542 0.26196
 O277 O 0.75136 0.87048 0.19402
 O278 O 0.69303 0.88221 0.24748
 O279 O 0.86213 0.84074 0.27404
 O280 O 0.87414 0.79305 0.33157
 O281 O 0.83171 0.75979 0.16611
 O282 O 0.77711 0.70426 0.15398
 O283 O 0.74557 0.72154 0.38953
 O284 O 0.79024 0.78210 0.39892
 O285 O 0.63770 0.75941 0.31679
 O286 O 0.62911 0.80380 0.24582
 O287 O 0.70538 0.64919 0.27927
 O288 O 0.77332 0.63784 0.23949
 O289 O 0.75479 0.66316 0.34568
 O290 O 0.81754 0.65231 0.29539
 O291 O 0.65049 0.69686 0.26387
 O292 O 0.63525 0.75085 0.20878
 O293 O 0.68364 0.77320 0.37363
 O294 O 0.73201 0.82971 0.38551
 O295 O 0.76315 0.81389 0.14867
 O296 O 0.72560 0.74685 0.13933
 O297 O 0.87507 0.77208 0.22543
 O298 O 0.88327 0.73264 0.29232
 O299 O 0.80361 0.88548 0.26439
 O300 O 0.74066 0.90158 0.29330
 Zr301 Zr 0.74991 0.84408 0.25735
 O302 O 0.70857 0.80813 0.29845
 Zr303 Zr 0.83291 0.77797 0.27798
 O304 O 0.79459 0.73751 0.31879
 Zr305 Zr 0.76791 0.76010 0.19245
 O306 O 0.72599 0.72054 0.23039
 Zr307 Zr 0.74547 0.77511 0.34639
 O308 O 0.78641 0.81654 0.30946
 Zr309 Zr 0.67917 0.75868 0.26186
 O310 O 0.71742 0.79761 0.21924
 Zr311 Zr 0.76107 0.69034 0.28200
 O312 O 0.80406 0.72725 0.24158
 O313 O 0.79881 0.80896 0.22733
 O314 O 0.71286 0.72652 0.31217
 C315 C 0.75564 0.85435 0.15585
 C316 C 0.84459 0.87876 0.26947
 C317 C 0.86925 0.76457 0.18474
 C318 C 0.74973 0.68055 0.38333
 C319 C 0.64561 0.76616 0.35752
 C320 C 0.66505 0.65817 0.27099
 H321 H 0.68707 0.82777 0.31173
 H322 H 0.71201 0.69902 0.21106
 H323 H 0.81765 0.82740 0.20856
 H324 H 0.81324 0.72349 0.34152
 H325 H 0.81021 0.80614 0.39074
 H326 H 0.86582 0.77395 0.35646
 H327 H 0.64854 0.73000 0.18851
 H328 H 0.69899 0.76436 0.14386
 H329 H 0.75294 0.85279 0.37702
 H330 H 0.72695 0.89278 0.32117
 H331 H 0.75264 0.63996 0.21456
 H332 H 0.79845 0.68558 0.16991
 H333 H 0.67684 0.86958 0.22254
 H334 H 0.62676 0.82451 0.27014
 H335 H 0.87699 0.70632 0.27505
 H336 H 0.80860 0.62398 0.30861
 O337 O 0.72710 0.12651 0.81468
 O338 O 0.69200 0.11299 0.75097
 O339 O 0.84740 0.18483 0.77156
 O340 O 0.86927 0.24612 0.73892
 O341 O 0.77434 0.24091 0.88268
 O342 O 0.71540 0.27841 0.89156
 O343 O 0.74316 0.30396 0.64698
 O344 O 0.78752 0.24820 0.63479
 O345 O 0.62532 0.24827 0.69268
 O346 O 0.60338 0.20300 0.74614
 O347 O 0.67875 0.35803 0.75407
 O348 O 0.72840 0.36816 0.80826
 O349 O 0.73866 0.35622 0.69843
 O350 O 0.79034 0.36174 0.76307
 O351 O 0.62443 0.30802 0.74825
 O352 O 0.60804 0.24103 0.80083
 O353 O 0.68012 0.24825 0.64359
 O354 O 0.74731 0.19325 0.63964
 O355 O 0.72039 0.17520 0.86945
 O356 O 0.66480 0.23791 0.87229
 O357 O 0.83502 0.23941 0.84075
 O358 O 0.85287 0.29620 0.77900
 O359 O 0.79744 0.13124 0.76172
 O360 O 0.73811 0.12386 0.70409
 Zr361 Zr 0.73642 0.16495 0.75897
 O362 O 0.69707 0.20401 0.71717
 Zr363 Zr 0.81063 0.24194 0.77422
 O364 O 0.77857 0.28138 0.72632
 Zr365 Zr 0.72421 0.23705 0.83781
 O366 O 0.69169 0.28259 0.79733
 Zr367 Zr 0.73862 0.24575 0.68279
 O368 O 0.77879 0.20593 0.72421
 Zr369 Zr 0.65647 0.24642 0.75227
 O370 O 0.68841 0.20018 0.79327
 Zr371 Zr 0.73479 0.32076 0.75918
 O372 O 0.76740 0.28198 0.80750
 O373 O 0.77028 0.19871 0.80694
 O374 O 0.69628 0.28693 0.71477
 C375 C 0.72167 0.13609 0.85483
 C376 C 0.83714 0.14481 0.76581
 C377 C 0.81542 0.24022 0.87821
 C378 C 0.74189 0.34394 0.65831
 C379 C 0.63925 0.24919 0.65369
 C380 C 0.63857 0.34759 0.74983
 H381 H 0.67993 0.18507 0.69756
 H382 H 0.67280 0.30106 0.81537
 H383 H 0.78697 0.17914 0.82696
 H384 H 0.80026 0.29908 0.71018
 H385 H 0.81554 0.24929 0.65093
 H386 H 0.86173 0.23828 0.70852
 H387 H 0.60519 0.26972 0.81486
 H388 H 0.64977 0.20994 0.86673
 H389 H 0.71846 0.17987 0.63424
 H390 H 0.76596 0.12956 0.68901
 H391 H 0.74835 0.35926 0.83241
 H392 H 0.71934 0.30847 0.88014
 H393 H 0.66373 0.12342 0.76202
 H394 H 0.61567 0.17483 0.73701
 H395 H 0.84503 0.31170 0.80596
 H396 H 0.78136 0.39160 0.75397
 O397 O 0.24412 0.84503 0.81411
 O398 O 0.29962 0.85842 0.75811
 O399 O 0.13149 0.82062 0.73140
 O400 O 0.11473 0.77612 0.67629
 O401 O 0.16079 0.73768 0.83991
 O402 O 0.21236 0.67650 0.84890
 O403 O 0.24541 0.69932 0.61620
 O404 O 0.19891 0.76280 0.60620
 O405 O 0.35213 0.73572 0.68687
 O406 O 0.36491 0.77390 0.75581
 O407 O 0.27859 0.62688 0.72402
 O408 O 0.20906 0.61703 0.76657
 O409 O 0.23007 0.64252 0.66201
 O410 O 0.17147 0.62741 0.71281
 O411 O 0.33757 0.66977 0.73730
 O412 O 0.35241 0.72391 0.79722
 O413 O 0.30590 0.75285 0.63076
 O414 O 0.25811 0.80910 0.61825
 O415 O 0.23424 0.78407 0.85616
 O416 O 0.26354 0.71651 0.86593
 O417 O 0.11613 0.74935 0.78099
 O418 O 0.10595 0.71458 0.71263
 O419 O 0.18821 0.86541 0.74721
 O420 O 0.24989 0.87870 0.71018
 Zr421 Zr 0.24192 0.82168 0.74898
 O422 O 0.28171 0.78502 0.70682
 Zr423 Zr 0.15768 0.75767 0.72788
 O424 O 0.19356 0.71775 0.68608
 Zr425 Zr 0.22339 0.73431 0.81206
 O426 O 0.26362 0.69493 0.77409
 Zr427 Zr 0.24413 0.75409 0.65830
 O428 O 0.20508 0.79595 0.69636
 Zr429 Zr 0.31101 0.73308 0.74206
 O430 O 0.27423 0.77194 0.78502
 Zr431 Zr 0.22529 0.66922 0.72365
 O432 O 0.18425 0.70519 0.76422
 O433 O 0.19296 0.78567 0.77877
 O434 O 0.27497 0.70376 0.69269
 C435 C 0.24219 0.82470 0.85128
 C436 C 0.14740 0.85845 0.73978
 C437 C 0.12298 0.74224 0.82184
 C438 C 0.24001 0.65828 0.62447
 C439 C 0.34400 0.74452 0.64634
 C440 C 0.31952 0.63273 0.72979
 H441 H 0.30364 0.80448 0.69336
 H442 H 0.27684 0.67197 0.79294
 H443 H 0.17526 0.80377 0.79837
 H444 H 0.17449 0.70533 0.66319
 H445 H 0.18014 0.78768 0.61392
 H446 H 0.12359 0.76013 0.65001
 H447 H 0.34403 0.69623 0.81187
 H448 H 0.29306 0.72741 0.85903
 H449 H 0.23877 0.83282 0.62783
 H450 H 0.26657 0.87029 0.68416
 H451 H 0.23271 0.61403 0.78862
 H452 H 0.18716 0.66162 0.83525
 H453 H 0.31736 0.84264 0.78044
 H454 H 0.36341 0.79925 0.73549
 H455 H 0.11097 0.68751 0.72997
 H456 H 0.15398 0.63983 0.68830
 O457 O 0.23246 0.37252 0.68506
 O458 O 0.17462 0.38597 0.73486
 O459 O 0.34069 0.34413 0.76822
 O460 O 0.35625 0.29595 0.82295
 O461 O 0.31380 0.25991 0.65978
 O462 O 0.25546 0.20527 0.64643
 O463 O 0.22781 0.22832 0.88341
 O464 O 0.27135 0.29067 0.89060
 O465 O 0.11857 0.26402 0.81041
 O466 O 0.11056 0.30404 0.73514
 O467 O 0.18835 0.15108 0.77614
 O468 O 0.24903 0.14012 0.73460
 O469 O 0.23697 0.16833 0.84165
 O470 O 0.29978 0.15714 0.79296
 O471 O 0.13228 0.19773 0.76196
 O472 O 0.11537 0.24570 0.70428
 O473 O 0.16527 0.27811 0.86652
 O474 O 0.21719 0.33623 0.87758
 O475 O 0.24674 0.31547 0.64098
 O476 O 0.20678 0.24867 0.63204
 O477 O 0.35646 0.27716 0.71822
 O478 O 0.36376 0.23534 0.78488
 O479 O 0.28224 0.38844 0.75540
 O480 O 0.21426 0.40027 0.78719
 Zr481 Zr 0.22954 0.34615 0.74824
 O482 O 0.18855 0.31089 0.78995
 Zr483 Zr 0.31362 0.28092 0.77042
 O484 O 0.27578 0.24194 0.81257
 Zr485 Zr 0.24917 0.26134 0.68525
 O486 O 0.20779 0.22205 0.72467
 Zr487 Zr 0.22654 0.28030 0.83878
 O488 O 0.26693 0.32036 0.80050
 Zr489 Zr 0.16002 0.25981 0.75523
 O490 O 0.19769 0.29827 0.71136
 Zr491 Zr 0.24287 0.19354 0.77710
 O492 O 0.28552 0.22919 0.73497
 O493 O 0.27931 0.31098 0.71944
 O494 O 0.19442 0.23010 0.80639
 C495 C 0.23923 0.35622 0.64739
 C496 C 0.32275 0.38179 0.76298
 C497 C 0.35118 0.26746 0.67802
 C498 C 0.23203 0.18718 0.87864
 C499 C 0.12702 0.27186 0.85092
 C500 C 0.14757 0.15947 0.77020
 H501 H 0.16649 0.33078 0.80187
 H502 H 0.19445 0.19922 0.70637
 H503 H 0.29838 0.32939 0.70089
 H504 H 0.29459 0.22883 0.83570
 H505 H 0.29209 0.31329 0.88040
 H506 H 0.34743 0.27826 0.84868
 H507 H 0.13191 0.23071 0.68140
 H508 H 0.18084 0.26731 0.63593
 H509 H 0.19212 0.35290 0.86557
 H510 H 0.22995 0.39594 0.81535
 H511 H 0.27598 0.14503 0.71777
 H512 H 0.28041 0.18841 0.65842
 H513 H 0.15682 0.37080 0.71262
 H514 H 0.10686 0.32541 0.75871
 H515 H 0.35894 0.21005 0.76572
 H516 H 0.29054 0.12742 0.80212
 O517 O 0.78809 0.62472 0.69094
 O518 O 0.83737 0.63095 0.75792
 O519 O 0.66701 0.66637 0.73072
 O520 O 0.63882 0.72292 0.76734
 O521 O 0.72481 0.72418 0.61798
 O522 O 0.78054 0.77861 0.60696
 O523 O 0.75151 0.81516 0.84007
 O524 O 0.70417 0.75435 0.85281
 O525 O 0.87123 0.76510 0.81021
 O526 O 0.89891 0.71190 0.75553
 O527 O 0.81368 0.86298 0.73269
 O528 O 0.75902 0.86110 0.67134
 O529 O 0.74576 0.85924 0.77973
 O530 O 0.70674 0.85937 0.70986
 O531 O 0.87088 0.81798 0.74760
 O532 O 0.90077 0.75652 0.70691
 O533 O 0.81395 0.76368 0.85657
 O534 O 0.76347 0.70823 0.86757
 O535 O 0.79260 0.67238 0.63352
 O536 O 0.83335 0.73684 0.61854
 O537 O 0.66610 0.72296 0.66285
 O538 O 0.64138 0.77430 0.71598
 O539 O 0.72511 0.62467 0.75169
 O540 O 0.78179 0.61790 0.79567
 Zr541 Zr 0.77893 0.66574 0.74525
 O542 O 0.80803 0.71226 0.78623
 Zr543 Zr 0.69335 0.72973 0.72602
 O544 O 0.71951 0.77946 0.76529
 Zr545 Zr 0.77861 0.73344 0.65979
 O546 O 0.80868 0.78291 0.69615
 Zr547 Zr 0.76076 0.75260 0.81395
 O548 O 0.73080 0.70202 0.77776
 Zr549 Zr 0.84533 0.75479 0.74752
 O550 O 0.82022 0.70515 0.70718
 Zr551 Zr 0.76060 0.81944 0.72720
 O552 O 0.73017 0.77284 0.68682
 O553 O 0.73930 0.69131 0.69569
 O554 O 0.79999 0.79444 0.77754
 C555 C 0.79332 0.63362 0.65007
 C556 C 0.68464 0.62999 0.74265
 C557 C 0.68366 0.72216 0.62488
 C558 C 0.74510 0.85234 0.82107
 C559 C 0.85477 0.76765 0.84855
 C560 C 0.85400 0.85595 0.74197
 H561 H 0.82563 0.69718 0.80909
 H562 H 0.82687 0.80132 0.67684
 H563 H 0.72503 0.66873 0.67774
 H564 H 0.69548 0.79611 0.77837
 H565 H 0.68707 0.72795 0.84586
 H566 H 0.64170 0.74494 0.79047
 H567 H 0.89403 0.77574 0.68149
 H568 H 0.85790 0.72359 0.63523
 H569 H 0.74607 0.68249 0.85908
 H570 H 0.78614 0.63357 0.82337
 H571 H 0.78707 0.85821 0.65604
 H572 H 0.75657 0.79955 0.61158
 H573 H 0.85698 0.63686 0.73302
 H574 H 0.89336 0.69324 0.78154
 H575 H 0.65034 0.79481 0.69244
 H576 H 0.68282 0.85220 0.73017
 O577 O 0.25231 0.63369 0.30166
 O578 O 0.21004 0.61859 0.24024
 O579 O 0.36928 0.68525 0.24257
 O580 O 0.38325 0.74334 0.19334
 O581 O 0.31788 0.74533 0.35320
 O582 O 0.26313 0.78962 0.36986
 O583 O 0.25081 0.80468 0.12590
 O584 O 0.29681 0.74664 0.10941
 O585 O 0.14223 0.74988 0.18354
 O586 O 0.12774 0.70391 0.24532
 O587 O 0.20153 0.86063 0.23380
 O588 O 0.25643 0.87119 0.28611
 O589 O 0.25549 0.85800 0.17654
 O590 O 0.31346 0.86504 0.23234
 O591 O 0.14696 0.81048 0.23730
 O592 O 0.13522 0.74781 0.29363
 O593 O 0.19161 0.74661 0.12898
 O594 O 0.25681 0.69321 0.11877
 O595 O 0.25509 0.68527 0.35419
 O596 O 0.20666 0.75007 0.36259
 O597 O 0.37068 0.74553 0.30159
 O598 O 0.38071 0.79524 0.23739
 O599 O 0.31754 0.63223 0.24413
 O600 O 0.25614 0.62274 0.19097
 Zr601 Zr 0.25799 0.66797 0.24244
 O602 O 0.21532 0.70575 0.20283
 Zr603 Zr 0.33484 0.74394 0.24195
 O604 O 0.29725 0.78339 0.19903
 Zr605 Zr 0.25898 0.74455 0.31847
 O606 O 0.21993 0.78722 0.28059
 Zr607 Zr 0.25288 0.74609 0.16217
 O608 O 0.29605 0.70587 0.19964
 Zr609 Zr 0.17935 0.74946 0.24088
 O610 O 0.21642 0.70628 0.28093
 Zr611 Zr 0.25819 0.82365 0.23670
 O612 O 0.29807 0.78658 0.28006
 O613 O 0.29856 0.70371 0.28295
 O614 O 0.21499 0.78827 0.19805
 C615 C 0.25169 0.64563 0.34169
 C616 C 0.35759 0.64510 0.24438
 C617 C 0.35796 0.74522 0.34158
 C618 C 0.25193 0.84489 0.13700
 C619 C 0.15223 0.74879 0.14305
 C620 C 0.16117 0.84986 0.23368
 H621 H 0.19617 0.68615 0.18592
 H622 H 0.20325 0.80660 0.29978
 H623 H 0.31651 0.68483 0.30248
 H624 H 0.31671 0.80086 0.18003
 H625 H 0.32479 0.75802 0.12073
 H626 H 0.37223 0.72415 0.16997
 H627 H 0.13745 0.77586 0.30902
 H628 H 0.18644 0.72568 0.35660
 H629 H 0.22949 0.67627 0.12127
 H630 H 0.28081 0.62989 0.17154
 H631 H 0.28184 0.86547 0.30557
 H632 H 0.25551 0.81840 0.35700
 H633 H 0.18438 0.63023 0.25552
 H634 H 0.13481 0.67946 0.22594
 H635 H 0.37423 0.81563 0.26123
 H636 H 0.30304 0.89522 0.22670
 O637 O 0.75065 0.32896 0.33128
 O638 O 0.79594 0.34072 0.26132
 O639 O 0.62984 0.28488 0.26846
 O640 O 0.60390 0.22869 0.23520
 O641 O 0.69272 0.21798 0.38216
 O642 O 0.75272 0.16144 0.38057
 O643 O 0.72015 0.16615 0.14790
 O644 O 0.66881 0.22747 0.14735
 O645 O 0.83885 0.22135 0.18163
 O646 O 0.86148 0.27031 0.24791
 O647 O 0.79421 0.10908 0.25080
 O648 O 0.73730 0.09673 0.30871
 O649 O 0.72596 0.11266 0.20008
 O650 O 0.69001 0.09450 0.26357
 O651 O 0.84833 0.15899 0.24166
 O652 O 0.87377 0.21595 0.28453
 O653 O 0.77777 0.22143 0.13904
 O654 O 0.72739 0.27539 0.13668
 O655 O 0.75996 0.27123 0.37793
 O656 O 0.80100 0.20962 0.38293
 O657 O 0.63574 0.22432 0.33451
 O658 O 0.61550 0.17453 0.27619
 O659 O 0.68271 0.33687 0.27096
 O660 O 0.73764 0.35655 0.22852
 Zr661 Zr 0.74087 0.29976 0.26833
 O662 O 0.77194 0.26394 0.21831
 Zr663 Zr 0.66225 0.22529 0.27255
 O664 O 0.69113 0.18543 0.22651
 Zr665 Zr 0.74738 0.21745 0.33965
 O666 O 0.78242 0.18022 0.29467
 Zr667 Zr 0.72768 0.22426 0.18388
 O668 O 0.69588 0.26553 0.22814
 Zr669 Zr 0.81525 0.21907 0.24758
 O670 O 0.78620 0.25675 0.29788
 Zr671 Zr 0.73692 0.14478 0.25827
 O672 O 0.70220 0.17961 0.30531
 O673 O 0.70431 0.26215 0.31101
 O674 O 0.77220 0.18066 0.21206
 C675 C 0.75859 0.31205 0.36968
 C676 C 0.64263 0.32458 0.26865
 C677 C 0.65173 0.22183 0.37324
 C678 C 0.72011 0.12595 0.16073
 C679 C 0.81906 0.22103 0.14399
 C680 C 0.83415 0.11965 0.24527
 H681 H 0.78694 0.28416 0.19796
 H682 H 0.80282 0.16114 0.31127
 H683 H 0.68892 0.28112 0.33169
 H684 H 0.66823 0.16891 0.21095
 H685 H 0.65223 0.25264 0.15834
 H686 H 0.60989 0.21596 0.20638
 H687 H 0.86708 0.20001 0.31199
 H688 H 0.82594 0.22432 0.36868
 H689 H 0.71124 0.29979 0.14965
 H690 H 0.73863 0.34661 0.19797
 H691 H 0.76563 0.09844 0.32431
 H692 H 0.72509 0.14502 0.37763
 H693 H 0.81663 0.33265 0.28513
 H694 H 0.85688 0.28813 0.22102
 H695 H 0.62564 0.15353 0.29901
 H696 H 0.66215 0.10635 0.25205
 C697 C 0.27006 0.10484 0.07958
 C698 C 0.28392 0.14613 0.08367
 H699 H 0.26429 0.08557 0.10896
 H700 H 0.29497 0.16424 0.05529
 C701 C 0.80826 0.60503 0.57778
 C702 C 0.79579 0.59722 0.61903
 H703 H 0.82349 0.63616 0.57035
 H704 H 0.78048 0.56661 0.62800
 C705 C 0.74217 0.92706 0.12500
 C706 C 0.75234 0.88504 0.11823
 H707 H 0.73599 0.93659 0.15836
 H708 H 0.75969 0.87317 0.08604
 C709 C 0.22943 0.42942 0.61606
 C710 C 0.24063 0.38756 0.60997
 H711 H 0.21641 0.43850 0.64744
 H712 H 0.25415 0.37731 0.57925
 C713 C 0.71777 0.05813 0.87239
 C714 C 0.71991 0.09949 0.88628
 H715 H 0.71328 0.05234 0.83776
 H716 H 0.72473 0.10694 0.92040
 C717 C 0.23865 0.57021 0.36404
 C718 C 0.24851 0.61107 0.37537
 H719 H 0.23059 0.56353 0.33019
 H720 H 0.25735 0.61869 0.40874
 C721 C 0.24120 0.88917 0.89945
 C722 C 0.25014 0.84731 0.89247
 H723 H 0.23131 0.91004 0.87222
 H724 H 0.26136 0.82671 0.91928
 C725 C 0.75058 0.37869 0.41560
 C726 C 0.76623 0.33873 0.40899
 H727 H 0.73544 0.39659 0.38870
 H728 H 0.78219 0.32202 0.43622
 C729 C 0.11304 0.26296 0.07974
 C730 C 0.15406 0.27765 0.08298
 H731 H 0.09852 0.24857 0.10875
 H732 H 0.17041 0.29274 0.05569
 C733 C 0.61330 0.73033 0.58509
 C734 C 0.65570 0.71959 0.58574
 H735 H 0.59651 0.73579 0.61550
 H736 H 0.67203 0.71244 0.55549
 C737 C 0.08257 0.75293 0.89004
 C738 C 0.08382 0.74053 0.84842
 H739 H 0.11250 0.75953 0.90785
 H740 H 0.05387 0.73266 0.83124
 C741 C 0.58482 0.25217 0.39835
 C742 C 0.61930 0.22664 0.40802
 H743 H 0.58617 0.27254 0.36902
 H744 H 0.62083 0.20631 0.43722
 C745 C 0.91351 0.75253 0.11729
 C746 C 0.90985 0.76262 0.15970
 H747 H 0.88393 0.74738 0.09839
 H748 H 0.93827 0.77161 0.17857
 C749 C 0.39975 0.24496 0.61651
 C750 C 0.39209 0.26725 0.65298
 H751 H 0.37329 0.22779 0.60060
 H752 H 0.41857 0.28550 0.66757
 C753 C 0.88032 0.22966 0.92755
 C754 C 0.83867 0.24022 0.92077
 H755 H 0.89980 0.22311 0.89900
 H756 H 0.81879 0.24911 0.94819
 C757 C 0.37896 0.72979 0.41716
 C758 C 0.39084 0.74383 0.37724
 H759 H 0.34618 0.71732 0.42143
 H760 H 0.42332 0.75624 0.37138
 C761 C 0.14703 0.08145 0.21744
 C762 C 0.13507 0.12359 0.21915
 H763 H 0.18162 0.07509 0.21446
 H764 H 0.10117 0.13283 0.22101
 C765 C 0.62060 0.58516 0.72416
 C766 C 0.65791 0.59077 0.74625
 H767 H 0.60677 0.61181 0.70493
 H768 H 0.67100 0.56462 0.76661
 C769 C 0.91579 0.12704 0.76673
 C770 C 0.87401 0.11289 0.76408
 H771 H 0.92033 0.16186 0.77027
 H772 H 0.86649 0.07865 0.76091
 C773 C 0.43321 0.62580 0.26135
 C774 C 0.39326 0.61252 0.24868
 H775 H 0.43757 0.65983 0.26944
 H776 H 0.38708 0.57882 0.24072
 C777 C 0.07267 0.88623 0.74361
 C778 C 0.11564 0.89535 0.74317
 H779 H 0.06415 0.85218 0.73995
 H780 H 0.12742 0.92815 0.74824
 C781 C 0.60219 0.39231 0.28678
 C782 C 0.60741 0.35633 0.26321
 H783 H 0.62810 0.40399 0.30786
 H784 H 0.58120 0.34609 0.24167
 C785 C 0.91335 0.92155 0.25664
 C786 C 0.87128 0.91876 0.26853
 H787 H 0.93203 0.89173 0.25428
 H788 H 0.85307 0.94804 0.27507
 C789 C 0.38623 0.42535 0.74328
 C790 C 0.34935 0.42085 0.76551
 H791 H 0.39968 0.39755 0.72662
 H792 H 0.33553 0.44795 0.78279
 C793 C 0.09875 0.29328 0.92111
 C794 C 0.09170 0.27253 0.88326
 H795 H 0.12694 0.31447 0.92387
 H796 H 0.06397 0.25113 0.87899
 C797 C 0.61572 0.77782 0.42978
 C798 C 0.60941 0.76391 0.38885
 H799 H 0.64573 0.79472 0.43779
 H800 H 0.58000 0.74655 0.37991
 C801 C 0.92753 0.78289 0.87751
 C802 C 0.88554 0.77367 0.88567
 H803 H 0.93578 0.79048 0.84383
 H804 H 0.87453 0.76585 0.91833
 C805 C 0.42768 0.26823 0.37783
 C806 C 0.38746 0.25220 0.38320
 H807 H 0.43598 0.28317 0.34663
 H808 H 0.37780 0.23713 0.41383
 C809 C 0.07439 0.75613 0.12497
 C810 C 0.11548 0.74995 0.11116
 H811 H 0.06922 0.76072 0.15960
 H812 H 0.12226 0.74475 0.07701
 C813 C 0.56254 0.25658 0.63147
 C814 C 0.60460 0.25063 0.61956
 H815 H 0.55545 0.26252 0.66549
 H816 H 0.61335 0.24450 0.58608
 C817 C 0.88100 0.23828 0.09384
 C818 C 0.84313 0.21841 0.10230
 H819 H 0.89764 0.25477 0.12029
 H820 H 0.82641 0.20163 0.07619
 C821 C 0.37306 0.75810 0.57350
 C822 C 0.38013 0.74388 0.61467
 H823 H 0.34188 0.77279 0.56519
 H824 H 0.41072 0.72863 0.62397
 C825 C 0.23558 0.11786 0.92126
 C826 C 0.23252 0.16143 0.91949
 H827 H 0.23353 0.10051 0.89067
 H828 H 0.23063 0.18037 0.94881
 C829 C 0.75801 0.60986 0.42322
 C830 C 0.74998 0.65280 0.42305
 H831 H 0.76031 0.59289 0.39253
 H832 H 0.74531 0.66923 0.45373
 C833 C 0.73747 0.08267 0.09664
 C834 C 0.71173 0.09089 0.13044
 H835 H 0.75538 0.10914 0.08127
 H836 H 0.69033 0.06557 0.14287
 C837 C 0.26068 0.58565 0.60296
 C838 C 0.24606 0.62530 0.59016
 H839 H 0.27265 0.58172 0.63631
 H840 H 0.23436 0.63159 0.55717
 C841 C 0.75602 0.90038 0.88412
 C842 C 0.73513 0.89050 0.84700
 H843 H 0.77836 0.87709 0.89909
 H844 H 0.71217 0.91326 0.83230
 C845 C 0.27759 0.41642 0.37552
 C846 C 0.25846 0.37749 0.38062
 H847 H 0.29763 0.42216 0.34697
 H848 H 0.23811 0.37051 0.40859
 C849 C 0.23535 0.86865 0.06164
 C850 C 0.24923 0.87842 0.10205
 H851 H 0.22526 0.83546 0.05522
 H852 H 0.25986 0.91104 0.10979
 C853 C 0.74368 0.36570 0.57976
 C854 C 0.74445 0.37748 0.62231
 H855 H 0.74024 0.33131 0.57295
 H856 H 0.74721 0.41135 0.63112
 C857 C 0.07320 0.13285 0.78010
 C858 C 0.11519 0.12336 0.77230
 H859 H 0.06574 0.16628 0.78829
 H860 H 0.12534 0.09047 0.76532
 C861 C 0.59230 0.63023 0.25308
 C862 C 0.63229 0.62242 0.27001
 H863 H 0.58617 0.66184 0.23791
 H864 H 0.64001 0.59133 0.28539
 C865 C 0.14221 0.92400 0.21158
 C866 C 0.12955 0.88569 0.22907
 H867 H 0.17494 0.92681 0.19877
 H868 H 0.09717 0.88118 0.24202
 C869 C 0.62160 0.42535 0.75053
 C870 C 0.60734 0.38416 0.74591
 H871 H 0.65564 0.43079 0.75849
 H872 H 0.57377 0.37735 0.73731
 C873 C 0.90327 0.08106 0.22699
 C874 C 0.86434 0.08276 0.24633
 H875 H 0.91606 0.10970 0.21037
 H876 H 0.85249 0.05481 0.26461
 C877 C 0.38649 0.58923 0.74366
 C878 C 0.34619 0.59332 0.72699
 H879 H 0.40269 0.61727 0.75756
 H880 H 0.33066 0.56588 0.71137
 C881 C 0.91938 0.88906 0.77173
 C882 C 0.88373 0.89337 0.74648
 H883 H 0.92345 0.85959 0.79143
 H884 H 0.87882 0.92220 0.72613
 C885 C 0.44330 0.38105 0.26588
 C886 C 0.40113 0.39242 0.26282
 H887 H 0.45123 0.34669 0.26406
 H888 H 0.39133 0.42613 0.26532
   
