data_POSCAR
  _audit_creation_date              2014-09-24
  _audit_creation_method            'ToBaCCo'
  _symmetry_space_group_name_H-M    'P1'
  _symmetry_Int_Tables_number       1
  _symmetry_cell_setting            triclinic
  loop_
  _symmetry_equiv_pos_as_xyz
 x,y,z
_cell_length_a 33.7215
_cell_length_b 33.4894
_cell_length_c 47.4959
_cell_angle_alpha 89.972500
_cell_angle_beta 90.031900
_cell_angle_gamma 120.870700
loop_
  _atom_site_label
  _atom_site_type_symbol
  _atom_site_fract_x
  _atom_site_fract_y
  _atom_site_fract_z
C1 C -0.02642 0.48823 1.22454
 C2 C 0.02099 0.50187 1.22466
 C3 C 0.04399 0.50844 1.25035
 C4 C 0.02215 0.50370 1.27645
 C5 C -0.02577 0.48931 1.27660
 C6 C -0.04842 0.48343 1.25059
 H7 H -0.08532 0.46983 1.25066
 H8 H 0.08084 0.52168 1.24973
 C9 C 0.51378 0.48867 1.22377
 C10 C 0.49090 0.51406 1.22392
 C11 C 0.48080 0.52709 1.24972
 C12 C 0.49274 0.51542 1.27548
 C13 C 0.51558 0.48953 1.27558
 C14 C 0.52535 0.47645 1.24943
 H15 H 0.54372 0.45775 1.24878
 H16 H 0.46279 0.54620 1.24976
 C17 C 0.49739 0.97806 1.27629
 C18 C 0.51362 1.02652 1.27645
 C19 C 0.52045 1.04936 1.25037
 C20 C 0.51382 1.02633 1.22439
 C21 C 0.49738 0.97784 1.22473
 C22 C 0.48999 0.95482 1.25055
 H23 H 0.47561 0.91748 1.25062
 H24 H 0.53554 1.08676 1.25030
 C25 C 0.97699 0.49401 0.72484
 C26 C 1.02504 0.51151 0.72465
 C27 C 1.04875 0.52014 0.75030
 C28 C 1.02626 0.51323 0.77645
 C29 C 0.97777 0.49558 0.77639
 C30 C 0.95419 0.48669 0.75065
 H31 H 0.91704 0.47181 0.75074
 H32 H 1.08590 0.53535 0.74962
 C33 C 0.51394 0.49087 0.72446
 C34 C 0.48505 0.51002 0.72447
 C35 C 0.47098 0.51923 0.75023
 C36 C 0.48544 0.51040 0.77598
 C37 C 0.51424 0.49114 0.77597
 C38 C 0.52836 0.48199 0.75020
 H39 H 0.54964 0.46632 0.75019
 H40 H 0.44970 0.53489 0.75022
 C41 C 0.48325 -0.02719 0.77579
 C42 C 0.50582 0.02229 0.77566
 C43 C 0.51758 0.04624 0.74990
 C44 C 0.50761 0.02275 0.72410
 C45 C 0.48506 -0.02627 0.72397
 C46 C 0.47364 -0.05039 0.74965
 H47 H 0.45551 -0.08807 0.74901
 H48 H 0.53535 0.08394 0.74992
 O49 O 0.40019 0.66838 0.96756
 O50 O 0.40185 0.74597 0.97631
 C51 C 0.37228 0.75145 0.96303
 O52 O 0.32975 0.73023 0.96908
 O53 O 0.25238 0.65265 0.97765
 C54 C 0.24641 0.61777 0.96354
 O55 O 0.26698 0.59588 0.96874
 O56 O 0.34336 0.59563 0.97629
 C57 C 0.37808 0.62529 0.96221
 O58 O 0.40372 0.65622 1.02361
 O59 O 0.40151 0.73177 1.03240
 C60 C 0.37900 0.75130 1.03850
 O61 O 0.34330 0.74433 1.02521
 O62 O 0.26782 0.66490 1.03377
 C63 C 0.24768 0.62187 1.03913
 O64 O 0.25375 0.59326 1.02502
 O65 O 0.33229 0.59733 1.03253
 C66 C 0.37519 0.62061 1.03761
 Cr67 Cr 0.39924 0.69925 1.00000
 Cr68 Cr 0.29962 0.69678 1.00140
 Cr69 Cr 0.30036 0.59812 1.00065
 O70 O 0.33308 0.66473 1.00068
 O71 O 0.59690 0.34361 0.97524
 O72 O 0.59951 0.26809 0.96715
 C73 C 0.62200 0.24818 0.96199
 O74 O 0.65685 0.25493 0.97617
 O75 O 0.73272 0.33430 0.96815
 C76 C 0.75303 0.37731 0.96264
 O77 O 0.74666 0.40609 0.97637
 O78 O 0.66872 0.40256 0.96748
 C79 C 0.62608 0.37950 0.96171
 O80 O 0.59776 0.33108 1.03139
 O81 O 0.59644 0.25352 1.02333
 C82 C 0.62534 0.24821 1.03752
 O83 O 0.66818 0.26949 1.03233
 O84 O 0.74616 0.34681 1.02434
 C85 C 0.75182 0.38182 1.03815
 O86 O 0.73132 0.40357 1.03244
 O87 O 0.65530 0.40387 1.02349
 C88 C 0.61980 0.37410 1.03698
 Cr89 Cr 0.60022 0.30040 0.99929
 Cr90 Cr 0.69969 0.30264 1.00023
 Cr91 Cr 0.69924 0.40143 0.99994
 O92 O 0.66638 0.33484 0.99982
 O93 O 0.65794 0.40717 0.52413
 O94 O 0.73270 0.40436 0.53279
 C95 C 0.75208 0.38153 0.53853
 O96 O 0.74502 0.34584 0.52490
 O97 O 0.66577 0.26980 0.53292
 C98 C 0.62295 0.24948 0.53808
 O99 O 0.59479 0.25613 0.52404
 O100 O 0.59901 0.33513 0.53220
 C101 C 0.62225 0.37814 0.53777
 O102 O 0.67059 0.40513 0.46803
 O103 O 0.74726 0.40609 0.47668
 C104 C 0.75247 0.37652 0.46300
 O105 O 0.73124 0.33354 0.46868
 O106 O 0.65400 0.25553 0.47675
 C107 C 0.61949 0.24989 0.46264
 O108 O 0.59804 0.27085 0.46789
 O109 O 0.59813 0.34778 0.47605
 C110 C 0.62792 0.38310 0.46235
 Cr111 Cr 0.70078 0.40309 0.50042
 Cr112 Cr 0.69779 0.30251 0.50081
 Cr113 Cr 0.60007 0.30375 0.50006
 O114 O 0.66622 0.33646 0.50044
 O115 O 0.32911 0.59449 0.53169
 O116 O 0.25208 0.59307 0.52335
 C117 C 0.24686 0.62248 0.53720
 O118 O 0.26810 0.66552 0.53168
 O119 O 0.34507 0.74375 0.52324
 C120 C 0.38009 0.74985 0.53696
 O121 O 0.40154 0.72897 0.53150
 O122 O 0.40141 0.65202 0.52330
 C123 C 0.37188 0.61676 0.53717
 O124 O 0.34112 0.59219 0.47558
 O125 O 0.26625 0.59491 0.46721
 C126 C 0.24671 0.61767 0.46166
 O127 O 0.25350 0.65306 0.47553
 O128 O 0.33235 0.72924 0.46713
 C129 C 0.37502 0.74949 0.46156
 O130 O 0.40357 0.74308 0.47534
 O131 O 0.39958 0.66426 0.46715
 C132 C 0.37649 0.62121 0.46172
 Cr133 Cr 0.29847 0.59626 0.49946
 Cr134 Cr 0.30098 0.69658 0.49940
 Cr135 Cr 0.39895 0.69580 0.49933
 O136 O 0.33281 0.66289 0.49941
 C137 C 0.47549 0.58618 0.33097
 C138 C 0.44667 0.55172 0.35019
 C139 C 0.43278 0.50514 0.34503
 C140 C 0.44772 0.49312 0.32072
 C141 C 0.47696 0.52768 0.30147
 C142 C 0.49045 0.57424 0.30671
 C143 C 0.43104 0.56442 0.37492
 C144 C 0.41827 0.57612 0.39534
 C145 C 0.40360 0.59091 0.41886
 C146 C 0.39120 0.60436 0.43862
 H147 H 0.48633 0.62229 0.33471
 H148 H 0.41030 0.47818 0.35970
 H149 H 0.43647 0.45696 0.31686
 H150 H 0.51286 0.60134 0.29208
 C151 C 0.43470 0.92190 0.34441
 C152 C 0.45193 0.89269 0.35049
 C153 C 0.48414 0.89157 0.33243
 C154 C 0.49906 0.91951 0.30835
 C155 C 0.48210 0.94907 0.30217
 C156 C 0.44958 0.94984 0.32032
 C157 C 0.43590 0.86313 0.37494
 C158 C 0.42230 0.83790 0.39519
 C159 C 0.40613 0.80775 0.41864
 C160 C 0.39208 0.78147 0.43840
 H161 H 0.40957 0.92282 0.35816
 H162 H 0.49756 0.86897 0.33690
 H163 H 0.52403 0.91831 0.29459
 H164 H 0.43556 0.97187 0.31571
 C165 C 0.11339 0.52277 0.32870
 C166 C 0.10653 0.54798 0.34960
 C167 C 0.07200 0.55894 0.34626
 C168 C 0.04419 0.54449 0.32219
 C169 C 0.05008 0.51828 0.30107
 C170 C 0.08569 0.50827 0.30460
 C171 C 0.13536 0.56298 0.37429
 C172 C 0.15997 0.57546 0.39477
 C173 C 0.18941 0.59007 0.41845
 C174 C 0.21518 0.60260 0.43838
 H175 H 0.14009 0.51413 0.33106
 H176 H 0.06680 0.57901 0.36216
 H177 H 0.01887 0.55497 0.31984
 H178 H 0.09123 0.48781 0.28918
 C179 C 0.56295 0.49552 0.34795
 C180 C 0.55814 0.45160 0.35000
 C181 C 0.53964 0.42056 0.32745
 C182 C 0.52576 0.43317 0.30299
 C183 C 0.52962 0.47708 0.30065
 C184 C 0.54906 0.50829 0.32349
 C185 C 0.57283 0.43836 0.37497
 C186 C 0.58515 0.42650 0.39553
 C187 C 0.59971 0.41188 0.41921
 C188 C 0.61240 0.39893 0.43910
 H189 H 0.57795 0.52014 0.36513
 H190 H 0.53580 0.38644 0.32880
 H191 H 0.51049 0.40770 0.28626
 H192 H 0.55529 0.54330 0.32216
 C193 C 0.56026 0.07242 0.34847
 C194 C 0.55081 0.10832 0.35082
 C195 C 0.52884 0.11694 0.32872
 C196 C 0.51639 0.08986 0.30432
 C197 C 0.52529 0.05316 0.30161
 C198 C 0.54784 0.04521 0.32410
 C199 C 0.56476 0.13722 0.37555
 C200 C 0.57678 0.16206 0.39599
 C201 C 0.59125 0.19188 0.41958
 C202 C 0.60394 0.21799 0.43942
 H203 H 0.57794 0.06591 0.36530
 H204 H 0.52139 0.14472 0.33031
 H205 H 0.49858 0.09696 0.28788
 H206 H 0.55783 0.01933 0.32250
 C207 C 0.92618 0.43651 0.34718
 C208 C 0.89171 0.44756 0.35052
 C209 C 0.88440 0.47217 0.32940
 C210 C 0.91153 0.48591 0.30507
 C211 C 0.94700 0.47572 0.30150
 C212 C 0.95341 0.45020 0.32288
 C213 C 0.86323 0.43296 0.37536
 C214 C 0.83888 0.42055 0.39594
 C215 C 0.80966 0.40570 0.41972
 C216 C 0.78399 0.39263 0.43970
 H217 H 0.93171 0.41688 0.36324
 H218 H 0.85773 0.48085 0.33175
 H219 H 0.90562 0.50588 0.28945
 H220 H 0.97865 0.43962 0.32055
 C221 C 0.50502 0.43278 1.15276
 C222 C 0.55127 0.44640 1.14797
 C223 C 0.58506 0.47413 1.16776
 C224 C 0.57272 0.48804 1.19231
 C225 C 0.52643 0.47448 1.19731
 C226 C 0.49261 0.44668 1.17737
 C227 C 0.56423 0.43109 1.12318
 C228 C 0.57602 0.41827 1.10283
 C229 C 0.59070 0.40316 1.07946
 C230 C 0.60378 0.39006 1.05987
 H231 H 0.47856 0.41112 1.13764
 H232 H 0.62091 0.48476 1.16430
 H233 H 0.59929 0.50947 1.20743
 H234 H 0.45665 0.43541 1.18100
 C235 C 0.88484 0.47516 1.17199
 C236 C 0.89187 0.45124 1.15032
 C237 C 0.92614 0.43981 1.15306
 C238 C 0.95329 0.45218 1.17737
 C239 C 0.94697 0.47668 1.19942
 C240 C 0.91189 0.48758 1.19635
 C241 C 0.86302 0.43728 1.12564
 C242 C 0.83838 0.42515 1.10518
 C243 C 0.80892 0.41049 1.08150
 C244 C 0.78319 0.39760 1.06154
 H245 H 0.85832 0.48415 1.17011
 H246 H 0.93139 0.42062 1.13658
 H247 H 0.97782 0.44063 1.17929
 H248 H 0.90607 0.50691 1.21244
 C249 C 0.56156 0.07143 1.15248
 C250 C 0.55242 0.10749 1.14973
 C251 C 0.53031 0.11653 1.17153
 C252 C 0.51739 0.08967 1.19605
 C253 C 0.52596 0.05279 1.19915
 C254 C 0.54868 0.04446 1.17696
 C255 C 0.56697 0.13619 1.12491
 C256 C 0.57962 0.16083 1.10438
 C257 C 0.59497 0.19042 1.08068
 C258 C 0.60857 0.21640 1.06077
 H259 H 0.57937 0.06463 1.13590
 H260 H 0.52313 0.14446 1.16963
 H261 H 0.49948 0.09707 1.21225
 H262 H 0.55843 0.01843 1.17889
 C263 C 0.41682 0.52708 1.16913
 C264 C 0.44952 0.55379 1.14856
 C265 C 0.49595 0.56734 1.15248
 C266 C 0.50962 0.55434 1.17696
 C267 C 0.47689 0.52747 1.19766
 C268 C 0.43042 0.51406 1.19356
 C269 C 0.43528 0.56802 1.12382
 C270 C 0.42247 0.57989 1.10348
 C271 C 0.40662 0.59386 1.08010
 C272 C 0.39251 0.60593 1.06050
 H273 H 0.38084 0.51651 1.16635
 H274 H 0.52158 0.58822 1.13676
 H275 H 0.54572 0.56554 1.17989
 H276 H 0.40468 0.49337 1.20927
 C277 C 0.07806 0.56395 1.15650
 C278 C 0.10569 0.54504 1.15036
 C279 C 0.10534 0.51173 1.16836
 C280 C 0.07757 0.49746 1.19244
 C281 C 0.04964 0.51618 1.19868
 C282 C 0.05030 0.54974 1.18058
 C283 C 0.13518 0.56061 1.12596
 C284 C 0.16027 0.57404 1.10571
 C285 C 0.19016 0.59024 1.08224
 C286 C 0.21614 0.60447 1.06242
 H287 H 0.07827 0.58995 1.14281
 H288 H 0.12672 0.49700 1.16386
 H289 H 0.07768 0.47168 1.20617
 H290 H 0.02960 0.56516 1.18523
 C291 C 0.43500 0.92206 1.15645
 C292 C 0.45202 0.89266 1.15044
 C293 C 0.48381 0.89110 1.16870
 C294 C 0.49860 0.91885 1.19286
 C295 C 0.48193 0.94869 1.19891
 C296 C 0.44973 0.94982 1.18061
 C297 C 0.43641 0.86355 1.12580
 C298 C 0.42330 0.83871 1.10537
 C299 C 0.40791 0.80902 1.08171
 C300 C 0.39474 0.78305 1.06179
 H301 H 0.41020 0.92334 1.14254
 H302 H 0.49708 0.86836 1.16430
 H303 H 0.52332 0.91738 1.20673
 H304 H 0.43594 0.97206 1.18511
 C305 C 0.58852 0.48157 0.66832
 C306 C 0.55521 0.45151 0.64897
 C307 C 0.50836 0.43476 0.65408
 C308 C 0.49484 0.44780 0.67855
 C309 C 0.52811 0.47794 0.69808
 C310 C 0.57506 0.49466 0.69278
 C311 C 0.56908 0.43678 0.62432
 C312 C 0.58095 0.42403 0.60398
 C313 C 0.59511 0.40859 0.58052
 C314 C 0.60740 0.39495 0.56081
 H315 H 0.62485 0.49459 0.66462
 H316 H 0.48228 0.41125 0.63933
 H317 H 0.45842 0.43394 0.68244
 H318 H 0.60122 0.51786 0.70759
 C319 C 0.50206 0.07072 0.65272
 C320 C 0.54836 0.10557 0.64888
 C321 C 0.58114 0.11285 0.66945
 C322 C 0.56776 0.08562 0.69381
 C323 C 0.52142 0.05064 0.69784
 C324 C 0.48860 0.04343 0.67713
 C325 C 0.56240 0.13467 0.62422
 C326 C 0.57514 0.15992 0.60394
 C327 C 0.59104 0.19037 0.58062
 C328 C 0.60530 0.21704 0.56103
 H329 H 0.47636 0.06493 0.63699
 H330 H 0.61703 0.13976 0.66674
 H331 H 0.59357 0.09174 0.70953
 H332 H 0.45259 0.01704 0.68000
 C333 C 0.89232 0.48407 0.66880
 C334 C 0.89414 0.45309 0.64981
 C335 C 0.92357 0.43597 0.65513
 C336 C 0.95085 0.44955 0.67943
 C337 C 0.94916 0.48062 0.69859
 C338 C 0.91960 0.49770 0.69309
 C339 C 0.86494 0.43801 0.62526
 C340 C 0.83992 0.42517 0.60496
 C341 C 0.80998 0.40999 0.58149
 C342 C 0.78386 0.39698 0.56171
 H343 H 0.86957 0.49743 0.66493
 H344 H 0.92506 0.41178 0.64066
 H345 H 0.97282 0.43536 0.68347
 H346 H 0.91772 0.52161 0.70761
 C347 C 0.40956 0.51825 0.66850
 C348 C 0.44254 0.54798 0.64889
 C349 C 0.48949 0.56492 0.65381
 C350 C 0.50342 0.55237 0.67833
 C351 C 0.47046 0.52253 0.69809
 C352 C 0.42343 0.50565 0.69300
 C353 C 0.42821 0.56206 0.62416
 C354 C 0.41584 0.57415 0.60373
 C355 C 0.40094 0.58863 0.58016
 C356 C 0.38786 0.60131 0.56034
 H357 H 0.37316 0.50507 0.66494
 H358 H 0.51531 0.58818 0.63886
 H359 H 0.53990 0.56635 0.68205
 H360 H 0.39750 0.48267 0.70799
 C361 C 0.41437 0.88508 0.66798
 C362 C 0.44825 0.89258 0.64820
 C363 C 0.49438 0.92714 0.65299
 C364 C 0.50656 0.95392 0.67757
 C365 C 0.47263 0.94644 0.69751
 C366 C 0.42647 0.91178 0.69252
 C367 C 0.43552 0.86389 0.62340
 C368 C 0.42387 0.83892 0.60303
 C369 C 0.40929 0.80871 0.57961
 C370 C 0.39622 0.78219 0.55996
 H371 H 0.37861 0.85837 0.66453
 H372 H 0.52092 0.93309 0.63787
 H373 H 0.54243 0.98009 0.68120
 H374 H 0.39982 0.90549 0.70763
 C375 C 0.07649 0.56697 0.65409
 C376 C 0.10583 0.54974 0.64887
 C377 C 0.10813 0.51937 0.66818
 C378 C 0.08145 0.50652 0.69270
 C379 C 0.05203 0.52379 0.69811
 C380 C 0.04981 0.55418 0.67861
 C381 C 0.13468 0.56436 0.62419
 C382 C 0.15945 0.57709 0.60379
 C383 C 0.18916 0.59249 0.58023
 C384 C 0.21515 0.60601 0.56041
 H385 H 0.07466 0.59072 0.63939
 H386 H 0.13085 0.50596 0.66440
 H387 H 0.08373 0.48314 0.70748
 H388 H 0.02796 0.56852 0.68259
 C389 C 0.41147 0.52122 0.83191
 C390 C 0.44495 0.55127 0.85119
 C391 C 0.49169 0.56733 0.84616
 C392 C 0.50493 0.55368 0.82183
 C393 C 0.47150 0.52362 0.80235
 C394 C 0.42466 0.50752 0.80759
 C395 C 0.43135 0.56663 0.87568
 C396 C 0.41963 0.57978 0.89591
 C397 C 0.40554 0.59545 0.91929
 C398 C 0.39318 0.60900 0.93901
 H399 H 0.37523 0.50870 0.83556
 H400 H 0.51789 0.59081 0.86087
 H401 H 0.54128 0.56709 0.81798
 H402 H 0.39837 0.48440 0.79282
 C403 C 0.11664 0.52985 0.82869
 C404 C 0.10744 0.55124 0.85091
 C405 C 0.07149 0.56033 0.84853
 C406 C 0.04467 0.54790 0.82406
 C407 C 0.05299 0.52563 0.80153
 C408 C 0.08993 0.51739 0.80419
 C409 C 0.13565 0.56474 0.87588
 C410 C 0.15990 0.57629 0.89651
 C411 C 0.18909 0.59019 0.92031
 C412 C 0.21479 0.60248 0.94028
 H413 H 0.14448 0.52272 0.83028
 H414 H 0.06456 0.57761 0.86543
 H415 H 0.01862 0.55750 0.82247
 H416 H 0.09740 0.49987 0.78771
 C417 C 0.43621 0.93006 0.84822
 C418 C 0.44135 0.89132 0.85037
 C419 C 0.45988 0.87940 0.82784
 C420 C 0.47350 0.90618 0.80331
 C421 C 0.46935 0.94593 0.80088
 C422 C 0.44983 0.95700 0.82369
 C423 C 0.42697 0.86313 0.87543
 C424 C 0.41486 0.83873 0.89608
 C425 C 0.40047 0.80926 0.91985
 C426 C 0.38785 0.78331 0.93979
 H427 H 0.42116 0.93916 0.86538
 H428 H 0.46396 0.84941 0.82926
 H429 H 0.48882 0.89654 0.78660
 H430 H 0.44335 0.98540 0.82230
 C431 C 0.50898 0.43496 0.84630
 C432 C 0.55579 0.45111 0.85112
 C433 C 0.58899 0.48101 0.83167
 C434 C 0.57546 0.49445 0.80737
 C435 C 0.52855 0.47825 0.80232
 C436 C 0.49538 0.44836 0.82198
 C437 C 0.56977 0.43601 0.87557
 C438 C 0.58195 0.42317 0.89574
 C439 C 0.59675 0.40799 0.91903
 C440 C 0.60987 0.39497 0.93866
 H441 H 0.48298 0.41161 0.86114
 H442 H 0.62529 0.49360 0.83516
 H443 H 0.60154 0.51744 0.79246
 H444 H 0.45898 0.43489 0.81828
 C445 C 0.92350 0.43488 0.84537
 C446 C 0.89431 0.45212 0.85113
 C447 C 0.89251 0.48358 0.83252
 C448 C 0.91976 0.49777 0.80824
 C449 C 0.94934 0.48084 0.80240
 C450 C 0.95078 0.44902 0.82107
 C451 C 0.86544 0.43684 0.87579
 C452 C 0.84069 0.42381 0.89620
 C453 C 0.81098 0.40818 0.91976
 C454 C 0.78493 0.39439 0.93955
 H455 H 0.92495 0.41030 0.85954
 H456 H 0.86990 0.49698 0.83672
 H457 H 0.91806 0.52220 0.79407
 H458 H 0.97285 0.43506 0.81674
 C459 C 0.52277 0.11078 0.83115
 C460 C 0.55175 0.10630 0.85035
 C461 C 0.56586 0.07425 0.84517
 C462 C 0.55097 0.04677 0.82087
 C463 C 0.52157 0.05091 0.80164
 C464 C 0.50786 0.08336 0.80690
 C465 C 0.56734 0.13516 0.87509
 C466 C 0.58009 0.16004 0.89552
 C467 C 0.59477 0.18997 0.91906
 C468 C 0.60721 0.21619 0.93885
 H469 H 0.51176 0.13555 0.83491
 H470 H 0.58847 0.07067 0.85983
 H471 H 0.56240 0.02237 0.81699
 H472 H 0.48532 0.08714 0.79229
   
