data_POSCAR
  _audit_creation_date              2014-09-24
  _audit_creation_method            'ToBaCCo'
  _symmetry_space_group_name_H-M    'P1'
  _symmetry_Int_Tables_number       1
  _symmetry_cell_setting            triclinic
  loop_
  _symmetry_equiv_pos_as_xyz
 x,y,z
_cell_length_a 49.9953
_cell_length_b 48.0744
_cell_length_c 36.6219
_cell_angle_alpha 89.991000
_cell_angle_beta 89.982700
_cell_angle_gamma 90.059900
loop_
  _atom_site_label
  _atom_site_type_symbol
  _atom_site_fract_x
  _atom_site_fract_y
  _atom_site_fract_z
C1 C 1.21074 0.25439 0.30647
 H2 H 1.21130 0.23197 0.30410
 C3 C 1.19226 0.26696 0.32978
 H4 H 1.17859 0.25423 0.34556
 C5 C 1.22671 0.29849 0.28709
 H6 H 1.23990 0.31070 0.27011
 C7 C 1.20857 0.31189 0.31010
 H8 H 1.20773 0.33441 0.31057
 N9 N 1.22673 0.27025 0.28470
 C10 C 1.23113 0.21885 0.18725
 H11 H 1.25240 0.21551 0.18408
 C12 C 1.21308 0.20562 0.16378
 H13 H 1.22040 0.19180 0.14267
 C14 C 1.19539 0.24045 0.21896
 H15 H 1.18844 0.25434 0.24004
 C16 C 1.17675 0.22778 0.19609
 H17 H 1.15559 0.23147 0.20027
 Zn18 Zn 1.24651 0.25144 0.24828
 N19 N 1.22199 0.23516 0.21496
 C20 C 1.26340 0.19623 0.26527
 N21 N 1.26730 0.22377 0.27221
 C22 C 1.28494 0.23229 0.29823
 C23 C 1.30000 0.21284 0.31779
 C24 C 1.27802 0.17607 0.28418
 C25 C 1.25525 0.29639 0.20128
 C26 C 1.26977 0.31609 0.18138
 C27 C 1.31061 0.29467 0.20259
 C28 C 1.29532 0.27536 0.22212
 N29 N 1.26813 0.27682 0.22159
 H30 H 1.24870 0.18974 0.24545
 H31 H 1.28723 0.25425 0.30386
 H32 H 1.31411 0.21998 0.33823
 H33 H 1.27478 0.15424 0.27821
 H34 H 1.23362 0.29684 0.20088
 H35 H 1.25933 0.33180 0.16571
 H36 H 1.33225 0.29357 0.20348
 H37 H 1.30522 0.25932 0.23772
 C38 C 1.18562 0.20987 0.16867
 C39 C 1.19072 0.29597 0.33086
 C40 C 1.29772 0.31534 0.18223
 C41 C 1.29655 0.18443 0.31068
 C42 C 0.71478 -0.23043 0.30277
 H43 H 0.71170 -0.25223 0.30878
 C44 C 0.69955 -0.21026 0.32072
 H45 H 0.68450 -0.21653 0.34036
 C46 C 0.73847 -0.19549 0.27041
 H47 H 0.75405 -0.18969 0.25149
 C48 C 0.72370 -0.17467 0.28776
 H49 H 0.72764 -0.15301 0.28159
 N50 N 0.73356 -0.22280 0.27776
 C51 C 0.74597 -0.29653 0.20922
 H52 H 0.76758 -0.29750 0.21004
 C53 C 0.73160 -0.31623 0.18916
 H54 H 0.74214 -0.33245 0.17454
 C55 C 0.70580 -0.27425 0.22734
 H56 H 0.69582 -0.25775 0.24197
 C57 C 0.69066 -0.29353 0.20758
 H58 H 0.66905 -0.29195 0.20733
 Zn59 Zn 0.75433 -0.25131 0.25572
 N60 N 0.73294 -0.27637 0.22832
 C61 C 0.77119 -0.29848 0.29658
 N62 N 0.77238 -0.27030 0.29359
 C63 C 0.78842 -0.25486 0.31580
 C64 C 0.80589 -0.26793 0.34007
 C65 C 0.78826 -0.31236 0.32057
 C66 C 0.77219 -0.21994 0.19504
 C67 C 0.79115 -0.20712 0.17253
 C68 C 0.82612 -0.22942 0.20737
 C69 C 0.80659 -0.24168 0.22925
 N70 N 0.78022 -0.23607 0.22355
 H71 H 0.75793 -0.31033 0.27929
 H72 H 0.78880 -0.23246 0.31296
 H73 H 0.81974 -0.25561 0.35608
 H74 H 0.78824 -0.33489 0.32142
 H75 H 0.75109 -0.21633 0.19055
 H76 H 0.78470 -0.19339 0.15080
 H77 H 0.84707 -0.23331 0.21291
 H78 H 0.81266 -0.25546 0.25095
 C79 C 0.70368 -0.31484 0.18856
 C80 C 0.70402 -0.18212 0.31308
 C81 C 0.81836 -0.21161 0.17922
 C82 C 0.80629 -0.29697 0.34167
 C83 C 0.71549 0.26974 -0.19913
 H84 H 0.71256 0.24793 -0.19306
 C85 C 0.70038 0.28985 -0.18085
 H86 H 0.68558 0.28351 -0.16090
 C87 C 0.73866 0.30478 -0.23200
 H88 H 0.75399 0.31064 -0.25126
 C89 C 0.72399 0.32554 -0.21432
 H90 H 0.72778 0.34721 -0.22059
 N91 N 0.73395 0.27744 -0.22455
 C92 C 0.74552 0.20365 -0.29348
 H93 H 0.76714 0.20264 -0.29320
 C94 C 0.73085 0.18393 -0.31313
 H95 H 0.74117 0.16767 -0.32797
 C96 C 0.70563 0.22601 -0.27442
 H97 H 0.69587 0.24253 -0.25958
 C98 C 0.69020 0.20670 -0.29375
 H99 H 0.66859 0.20832 -0.29346
 Zn100 Zn 0.75453 0.24895 -0.24715
 N101 N 0.73278 0.22386 -0.27410
 C102 C 0.77199 0.20175 -0.20669
 N103 N 0.77308 0.22993 -0.20968
 C104 C 0.78931 0.24539 -0.18775
 C105 C 0.80699 0.23235 -0.16372
 C106 C 0.78928 0.18789 -0.18294
 C107 C 0.77180 0.28057 -0.30808
 C108 C 0.79054 0.29351 -0.33082
 C109 C 0.82585 0.27099 -0.29679
 C110 C 0.80650 0.25863 -0.27469
 N111 N 0.78008 0.26430 -0.27984
 H112 H 0.75859 0.18987 -0.22376
 H113 H 0.78962 0.26779 -0.19057
 H114 H 0.82092 0.24469 -0.14788
 H115 H 0.78927 0.16536 -0.18204
 H116 H 0.75066 0.28421 -0.31215
 H117 H 0.78376 0.30734 -0.35229
 H118 H 0.84684 0.26696 -0.29152
 H119 H 0.81276 0.24473 -0.25322
 C120 C 0.70292 0.18534 -0.31303
 C121 C 0.70464 0.31801 -0.18858
 C122 C 0.81786 0.28901 -0.32467
 C123 C 0.80743 0.20331 -0.16207
 C124 C 1.21019 -0.24552 -0.19397
 H125 H 1.21072 -0.26793 -0.19653
 C126 C 1.19192 -0.23305 -0.17028
 H127 H 1.17836 -0.24584 -0.15442
 C128 C 1.22605 -0.20134 -0.21324
 H129 H 1.23912 -0.18906 -0.23031
 C130 C 1.20812 -0.18804 -0.18983
 H131 H 1.20730 -0.16552 -0.18917
 N132 N 1.22600 -0.22957 -0.21586
 C133 C 1.22991 -0.28077 -0.31340
 H134 H 1.25118 -0.28405 -0.31679
 C135 C 1.21177 -0.29405 -0.33668
 H136 H 1.21901 -0.30786 -0.35785
 C137 C 1.19428 -0.25929 -0.28130
 H138 H 1.18742 -0.24543 -0.26013
 C139 C 1.17555 -0.27201 -0.30398
 H140 H 1.15441 -0.26842 -0.29956
 Zn141 Zn 1.24553 -0.24825 -0.25256
 N142 N 1.22087 -0.26451 -0.28559
 C143 C 1.26244 -0.30341 -0.23567
 N144 N 1.26644 -0.27585 -0.22889
 C145 C 1.28414 -0.26728 -0.20299
 C146 C 1.29911 -0.28671 -0.18331
 C147 C 1.27700 -0.32351 -0.21659
 C148 C 1.25380 -0.20327 -0.29949
 C149 C 1.26813 -0.18354 -0.31957
 C150 C 1.30918 -0.20491 -0.29903
 C151 C 1.29408 -0.22426 -0.27929
 N152 N 1.26689 -0.22283 -0.27941
 H153 H 1.24768 -0.30994 -0.25538
 H154 H 1.28648 -0.24530 -0.19749
 H155 H 1.31326 -0.27967 -0.16290
 H156 H 1.27376 -0.34538 -0.22224
 H157 H 1.23217 -0.20286 -0.29955
 H158 H 1.25753 -0.16783 -0.33506
 H159 H 1.33082 -0.20597 -0.29847
 H160 H 1.30412 -0.24030 -0.26386
 C161 C 1.18434 -0.28990 -0.33148
 C162 C 1.19043 -0.20405 -0.16896
 C163 C 1.29607 -0.18426 -0.31915
 C164 C 1.29550 -0.31508 -0.19018
 C165 C 0.25370 0.20401 0.70747
 H166 H 0.23210 0.20298 0.70836
 C167 C 0.26802 0.18484 0.68649
 H168 H 0.25744 0.16894 0.67127
 C169 C 0.29392 0.22597 0.72620
 H170 H 0.30393 0.24216 0.74141
 C171 C 0.30900 0.20721 0.70554
 H172 H 0.33061 0.20887 0.70519
 N173 N 0.26678 0.22377 0.72725
 C174 C 0.21158 0.24390 0.81565
 H175 H 0.21144 0.26634 0.81351
 C176 C 0.19413 0.23058 0.83975
 H177 H 0.18056 0.24281 0.85632
 C178 C 0.22822 0.20048 0.79488
 H179 H 0.24126 0.18883 0.77707
 C180 C 0.21115 0.18632 0.81866
 H181 H 0.21101 0.16378 0.81880
 Zn182 Zn 0.24546 0.24833 0.75551
 N183 N 0.22733 0.22872 0.79281
 C184 C 0.19322 0.25835 0.72940
 N185 N 0.21958 0.26415 0.72386
 C186 C 0.22761 0.28070 0.69573
 C187 C 0.20865 0.29360 0.67336
 C188 C 0.17369 0.27070 0.70767
 C189 C 0.28490 0.26825 0.80342
 C190 C 0.29998 0.28802 0.82239
 C191 C 0.27609 0.32431 0.79053
 C192 C 0.26146 0.30386 0.77214
 N193 N 0.26628 0.27640 0.77852
 H194 H 0.18715 0.24429 0.75080
 H195 H 0.24871 0.28445 0.69135
 H196 H 0.21509 0.30757 0.65187
 H197 H 0.15274 0.26659 0.71302
 H198 H 0.28792 0.24632 0.80864
 H199 H 0.31487 0.28132 0.84198
 H200 H 0.27219 0.34609 0.78517
 H201 H 0.24602 0.31005 0.75324
 C202 C 0.19341 0.20150 0.84051
 C203 C 0.29593 0.18633 0.68571
 C204 C 0.29554 0.31632 0.81586
 C205 C 0.18144 0.28881 0.67981
 C206 C 0.76871 0.72017 0.68456
 H207 H 0.74742 0.71695 0.68134
 C208 C 0.78670 0.70692 0.66103
 H209 H 0.77930 0.69322 0.63982
 C210 C 0.80458 0.74133 0.71657
 H211 H 0.81161 0.75502 0.73784
 C212 C 0.82315 0.72864 0.69364
 H213 H 0.84434 0.73211 0.69796
 N214 N 0.77795 0.73621 0.71250
 C215 C 0.71512 0.73192 0.79594
 H216 H 0.71286 0.75378 0.80225
 C217 C 0.70000 0.71211 0.81484
 H218 H 0.68586 0.71880 0.83548
 C219 C 0.73664 0.69649 0.76188
 H220 H 0.75136 0.69034 0.74191
 C221 C 0.72195 0.67600 0.78012
 H222 H 0.72512 0.65427 0.77352
 Zn223 Zn 0.75351 0.75199 0.74637
 N224 N 0.73277 0.72390 0.76967
 C225 C 0.70459 0.77628 0.72139
 N226 N 0.73178 0.77774 0.72055
 C227 C 0.74457 0.79772 0.70078
 C228 C 0.72997 0.81788 0.68189
 C229 C 0.68922 0.79604 0.70285
 C230 C 0.78960 0.75435 0.80436
 C231 C 0.80805 0.76678 0.82789
 C232 C 0.79115 0.81179 0.80971
 C233 C 0.77308 0.79854 0.78644
 N234 N 0.77336 0.77035 0.78318
 H235 H 0.69476 0.75993 0.73654
 H236 H 0.76621 0.79819 0.70014
 H237 H 0.74034 0.83394 0.66670
 H238 H 0.66759 0.79496 0.70404
 H239 H 0.78927 0.73196 0.80133
 H240 H 0.82192 0.75397 0.84316
 H241 H 0.79173 0.83431 0.81086
 H242 H 0.75967 0.81086 0.76997
 C243 C 0.70340 0.68386 0.80680
 C244 C 0.81419 0.71088 0.66609
 C245 C 0.80927 0.79578 0.82983
 C246 C 0.70203 0.81717 0.68316
 C247 C 0.77015 0.22029 0.18459
 H248 H 0.74891 0.21696 0.18096
 C249 C 0.78843 0.20727 0.16127
 H250 H 0.78131 0.19363 0.13982
 C251 C 0.80559 0.24150 0.21743
 H252 H 0.81233 0.25513 0.23893
 C253 C 0.82445 0.22904 0.19473
 H254 H 0.84557 0.23261 0.19945
 N255 N 0.77904 0.23622 0.21283
 C256 C 0.71540 0.23138 0.29487
 H257 H 0.71297 0.25322 0.30119
 C258 C 0.70024 0.21146 0.31347
 H259 H 0.68588 0.21797 0.33392
 C260 C 0.73742 0.19610 0.26111
 H261 H 0.75237 0.19006 0.24139
 C262 C 0.72269 0.17552 0.27909
 H263 H 0.72601 0.15381 0.27261
 Zn264 Zn 0.75420 0.25170 0.24629
 N265 N 0.73332 0.22348 0.26889
 C266 C 0.70556 0.27590 0.22038
 N267 N 0.73275 0.27747 0.22025
 C268 C 0.74576 0.29758 0.20097
 C269 C 0.73136 0.31778 0.18188
 C270 C 0.69039 0.29570 0.20162
 C271 C 0.78959 0.25379 0.30497
 C272 C 0.80779 0.26612 0.32893
 C273 C 0.79093 0.31121 0.31094
 C274 C 0.77310 0.29805 0.28723
 N275 N 0.77352 0.26989 0.28367
 H276 H 0.69558 0.25944 0.23513
 H277 H 0.76739 0.29811 0.20089
 H278 H 0.74189 0.33395 0.16711
 H279 H 0.66875 0.29454 0.20225
 H280 H 0.78935 0.23143 0.30168
 H281 H 0.82158 0.25327 0.34426
 H282 H 0.79146 0.33372 0.31230
 H283 H 0.75982 0.31043 0.27066
 C284 C 0.70390 0.18327 0.30547
 C285 C 0.81584 0.21137 0.16687
 C286 C 0.80892 0.29512 0.33115
 C287 C 0.70341 0.31695 0.18245
 C288 C 0.25513 0.70479 0.20752
 H289 H 0.23351 0.70380 0.20803
 C290 C 0.26960 0.68557 0.18682
 H291 H 0.25914 0.66969 0.17143
 C292 C 0.29520 0.72667 0.22694
 H293 H 0.30511 0.74284 0.24232
 C294 C 0.31044 0.70785 0.20657
 H295 H 0.33206 0.70946 0.20660
 N296 N 0.26805 0.72454 0.22753
 C297 C 0.21209 0.74479 0.31512
 H298 H 0.21202 0.76724 0.31303
 C299 C 0.19440 0.73148 0.33894
 H300 H 0.18073 0.74368 0.35537
 C301 C 0.22875 0.70134 0.29452
 H302 H 0.24188 0.68965 0.27686
 C303 C 0.21144 0.68722 0.31802
 H304 H 0.21117 0.66469 0.31818
 Zn305 Zn 0.24649 0.74918 0.25545
 N306 N 0.22800 0.72959 0.29250
 C307 C 0.19445 0.75921 0.22854
 N308 N 0.22086 0.76503 0.22338
 C309 C 0.22907 0.78159 0.19537
 C310 C 0.21026 0.79449 0.17273
 C311 C 0.17507 0.77155 0.20654
 C312 C 0.28568 0.76917 0.30387
 C313 C 0.30076 0.78896 0.32285
 C314 C 0.27712 0.82523 0.29052
 C315 C 0.26250 0.80474 0.27216
 N316 N 0.26721 0.77729 0.27873
 H317 H 0.18823 0.74513 0.24985
 H318 H 0.25019 0.78537 0.19127
 H319 H 0.21685 0.80847 0.15133
 H320 H 0.15409 0.76740 0.21159
 H321 H 0.28861 0.74725 0.30923
 H322 H 0.31554 0.78214 0.34257
 H323 H 0.27322 0.84698 0.28484
 H324 H 0.24718 0.81090 0.25307
 C325 C 0.19361 0.70243 0.33965
 C326 C 0.29753 0.68699 0.18653
 C327 C 0.29648 0.81729 0.31609
 C328 C 0.18300 0.78967 0.17879
 O329 O 0.95327 -0.04110 -0.06517
 O330 O 0.97687 -0.07192 -0.02983
 C331 C 0.95939 -0.06616 -0.05495
 O332 O 1.05008 0.03596 -0.06099
 O333 O 1.02440 0.06739 -0.02959
 C334 C 1.04376 0.06117 -0.05177
 O335 O 1.04645 -0.04128 -0.06497
 O336 O 1.02253 -0.07209 -0.02993
 C337 C 1.04015 -0.06633 -0.05487
 O338 O 0.95042 0.03633 -0.06172
 O339 O 0.97598 0.06751 -0.02955
 C340 C 0.95682 0.06148 -0.05218
 Zr341 Zr 0.96617 -0.00223 -0.04478
 O342 O 0.96531 0.00006 -0.10249
 O343 O 0.92400 -0.00346 -0.04079
 Zr344 Zr 1.03304 -0.00239 -0.04558
 O345 O 1.02794 -0.00121 -0.10283
 O346 O 1.07501 -0.00396 -0.05218
 O347 O 0.99957 -0.02747 -0.05204
 O348 O 0.99974 0.02237 -0.05203
 O349 O 0.95130 0.03697 0.06434
 O350 O 0.97637 0.06778 0.03088
 C351 C 0.95756 0.06201 0.05414
 O352 O 1.04681 -0.04069 0.06713
 O353 O 1.02266 -0.07182 0.03298
 C354 C 1.04040 -0.06585 0.05765
 O355 O 1.04959 0.03672 0.06309
 O356 O 1.02431 0.06772 0.03046
 C357 C 1.04341 0.06180 0.05317
 O358 O 0.95402 -0.04041 0.06876
 O359 O 0.97726 -0.07157 0.03354
 C360 C 0.96006 -0.06558 0.05890
 Zr361 Zr 0.96632 -0.00181 0.04691
 O362 O 0.96270 -0.00109 0.10446
 O363 O 0.92430 -0.00255 0.04064
 Zr364 Zr 1.03354 -0.00195 0.04693
 O365 O 1.03249 0.00106 0.10460
 O366 O 1.07579 -0.00480 0.04823
 Zr367 Zr 0.99991 -0.04379 0.00139
 Zr368 Zr 1.00014 0.03973 0.00065
 O369 O 1.00007 0.02264 0.05350
 O370 O 0.99992 -0.02675 0.05447
 O371 O 0.96121 0.02288 0.00093
 O372 O 1.03842 -0.02619 0.00086
 O373 O 0.96133 -0.02646 0.00136
 O374 O 1.03885 0.02235 0.00047
 H375 H 0.99977 0.03517 -0.07325
 H376 H 1.05432 -0.03846 0.00090
 H377 H 1.00028 0.03559 0.07453
 H378 H 0.94556 -0.03896 0.00163
 H379 H 1.08276 -0.00490 -0.02742
 H380 H 1.08294 0.00940 0.03127
 H381 H 1.02221 -0.01508 0.11386
 H382 H 0.97992 0.00556 0.11436
 H383 H 0.91678 -0.00334 0.06565
 H384 H 0.91717 -0.00384 -0.06619
 H385 H 0.97843 -0.01362 -0.11178
 H386 H 1.04619 -0.00083 -0.11335
 O387 O 1.04531 0.45877 0.56913
 O388 O 1.02190 0.42773 0.53384
 C389 C 1.03914 0.43364 0.55921
 O390 O 0.94949 0.53620 0.56276
 O391 O 0.97533 0.56720 0.53084
 C392 C 0.95592 0.56129 0.55308
 O393 O 0.95222 0.45888 0.56728
 O394 O 0.97611 0.42776 0.53284
 C395 C 0.95837 0.43373 0.55752
 O396 O 1.04860 0.53612 0.56457
 O397 O 1.02345 0.56711 0.53162
 C398 C 1.04238 0.56121 0.55463
 Zr399 Zr 1.03281 0.49748 0.54785
 O400 O 1.03320 0.50013 0.60553
 O401 O 1.07501 0.49613 0.54445
 Zr402 Zr 0.96586 0.49752 0.54723
 O403 O 0.96932 0.49917 0.60469
 O404 O 0.92367 0.49485 0.55050
 O405 O 0.99918 0.47243 0.55478
 O406 O 0.99928 0.52214 0.55410
 O407 O 1.04959 0.53574 0.43932
 O408 O 1.02402 0.56696 0.47132
 C409 C 1.04327 0.56089 0.44884
 O410 O 0.95292 0.45835 0.43536
 O411 O 0.97673 0.42746 0.47024
 C412 C 0.95911 0.43328 0.44539
 O413 O 0.95010 0.53578 0.43889
 O414 O 0.97568 0.56699 0.47085
 C415 C 0.95646 0.56093 0.44840
 O416 O 1.04639 0.45839 0.43557
 O417 O 1.02241 0.42750 0.47042
 C418 C 1.04007 0.43332 0.44552
 Zr419 Zr 1.03355 0.49722 0.45602
 O420 O 1.03511 0.49993 0.39837
 O421 O 1.07568 0.49587 0.46082
 Zr422 Zr 0.96660 0.49726 0.45466
 O423 O 0.96997 0.50049 0.39713
 O424 O 0.92455 0.49440 0.44970
 Zr425 Zr 0.99942 0.45564 0.50165
 Zr426 Zr 0.99958 0.53920 0.50124
 O427 O 1.00014 0.52183 0.44855
 O428 O 1.00005 0.47212 0.44827
 O429 O 1.03836 0.52217 0.50189
 O430 O 0.96100 0.47346 0.50102
 O431 O 1.03802 0.47296 0.50213
 O432 O 0.96079 0.52193 0.50076
 H433 H 0.99915 0.53500 0.57525
 H434 H 0.94490 0.46143 0.50097
 H435 H 1.00032 0.53465 0.42736
 H436 H 1.05379 0.46049 0.50244
 H437 H 0.91632 0.50696 0.53114
 H438 H 0.91680 0.50507 0.47018
 H439 H 0.97638 0.48238 0.38774
 H440 H 1.02266 0.48578 0.38859
 H441 H 1.08277 0.49548 0.43555
 H442 H 1.08165 0.49588 0.56996
 H443 H 1.01918 0.48735 0.61465
 H444 H 0.95078 0.49935 0.61426
 O445 O 0.53668 0.05059 0.56395
 O446 O 0.56662 0.02644 0.52860
 C447 C 0.56088 0.04421 0.55420
 O448 O 0.46224 -0.04855 0.55962
 O449 O 0.43225 -0.02243 0.52692
 C450 C 0.43804 -0.04193 0.55022
 O451 O 0.53663 -0.04561 0.56364
 O452 O 0.56668 -0.02107 0.52884
 C453 C 0.56086 -0.03911 0.55409
 O454 O 0.46239 0.05361 0.55991
 O455 O 0.43236 0.02754 0.52706
 C456 C 0.43817 0.04696 0.55052
 Zr457 Zr 0.49950 0.03758 0.54254
 O458 O 0.49724 0.03881 0.60021
 O459 O 0.50074 0.08141 0.53820
 Zr460 Zr 0.49943 -0.03208 0.54300
 O461 O 0.49800 -0.02846 0.60047
 O462 O 0.50199 -0.07595 0.54604
 O463 O 0.52355 0.00270 0.54988
 O464 O 0.47583 0.00271 0.54939
 O465 O 0.46251 0.05307 0.43263
 O466 O 0.43243 0.02739 0.46592
 C467 C 0.43829 0.04655 0.44211
 O468 O 0.53677 -0.04604 0.43043
 O469 O 0.56668 -0.02153 0.46537
 C470 C 0.56095 -0.03956 0.44013
 O471 O 0.46237 -0.04848 0.43350
 O472 O 0.43234 -0.02247 0.46623
 C473 C 0.43816 -0.04192 0.44289
 O474 O 0.53677 0.05006 0.42905
 O475 O 0.56666 0.02624 0.46481
 C476 C 0.56096 0.04375 0.43892
 Zr477 Zr 0.49961 0.03766 0.45105
 O478 O 0.49917 0.04188 0.39356
 O479 O 0.50042 0.08131 0.45786
 Zr480 Zr 0.49952 -0.03229 0.45072
 O481 O 0.49699 -0.03141 0.39301
 O482 O 0.50235 -0.07623 0.44991
 Zr483 Zr 0.53976 0.00248 0.49675
 Zr484 Zr 0.45922 0.00252 0.49664
 O485 O 0.47608 0.00264 0.44403
 O486 O 0.52353 0.00263 0.44359
 O487 O 0.47551 0.04299 0.49671
 O488 O 0.52267 -0.03752 0.49693
 O489 O 0.52318 0.04265 0.49678
 O490 O 0.47568 -0.03784 0.49682
 H491 H 0.46365 0.00273 0.57075
 H492 H 0.53444 -0.05408 0.49711
 H493 H 0.46390 0.00250 0.42271
 H494 H 0.53532 0.05897 0.49671
 H495 H 0.48979 -0.08357 0.52730
 H496 H 0.48800 -0.08364 0.46577
 H497 H 0.51229 -0.02032 0.38389
 H498 H 0.49357 0.02377 0.38339
 H499 H 0.50136 0.08928 0.43294
 H500 H 0.50101 0.08861 0.56356
 H501 H 0.50860 0.02352 0.60950
 H502 H 0.49791 -0.04772 0.61011
 O503 O 0.53825 0.55073 0.06429
 O504 O 0.56810 0.52666 0.02870
 C505 C 0.56242 0.54438 0.05438
 O506 O 0.46402 0.45145 0.06074
 O507 O 0.43383 0.47750 0.02833
 C508 C 0.43977 0.45800 0.05156
 O509 O 0.53832 0.45450 0.06404
 O510 O 0.56814 0.47868 0.02849
 C511 C 0.56248 0.46083 0.05402
 O512 O 0.46399 0.55369 0.06092
 O513 O 0.43384 0.52756 0.02837
 C514 C 0.43974 0.54702 0.05174
 Zr515 Zr 0.50101 0.53768 0.04317
 O516 O 0.49904 0.53908 0.10086
 O517 O 0.50212 0.58149 0.03848
 Zr518 Zr 0.50107 0.46803 0.04371
 O519 O 0.49993 0.47172 0.10119
 O520 O 0.50373 0.42416 0.04675
 O521 O 0.52519 0.50286 0.05035
 O522 O 0.47744 0.50278 0.05031
 O523 O 0.46347 0.55347 -0.06569
 O524 O 0.43359 0.52732 -0.03269
 C525 C 0.43930 0.54671 -0.05623
 O526 O 0.53793 0.45389 -0.06892
 O527 O 0.56799 0.47867 -0.03455
 C528 C 0.56216 0.46048 -0.05956
 O529 O 0.46352 0.45135 -0.06511
 O530 O 0.43359 0.47750 -0.03238
 C531 C 0.43934 0.45797 -0.05563
 O532 O 0.53779 0.55074 -0.07003
 O533 O 0.56790 0.52650 -0.03509
 C534 C 0.56203 0.54431 -0.06058
 Zr535 Zr 0.50068 0.53759 -0.04846
 O536 O 0.49786 0.53928 -0.10608
 O537 O 0.50180 0.58140 -0.04371
 Zr538 Zr 0.50072 0.46781 -0.04861
 O539 O 0.49743 0.46928 -0.10625
 O540 O 0.50361 0.42390 -0.05027
 Zr541 Zr 0.54116 0.50266 -0.00292
 Zr542 Zr 0.46058 0.50252 -0.00226
 O543 O 0.47715 0.50263 -0.05507
 O544 O 0.52476 0.50269 -0.05598
 O545 O 0.47684 0.54296 -0.00248
 O546 O 0.52406 0.46264 -0.00258
 O547 O 0.52440 0.54274 -0.00283
 O548 O 0.47713 0.46220 -0.00225
 H549 H 0.46536 0.50279 0.07178
 H550 H 0.53577 0.44603 -0.00253
 H551 H 0.46495 0.50259 -0.07639
 H552 H 0.53643 0.55914 -0.00294
 H553 H 0.49134 0.41650 0.02827
 H554 H 0.49011 0.41637 -0.03317
 H555 H 0.51387 0.47807 -0.11594
 H556 H 0.51060 0.52548 -0.11593
 H557 H 0.50201 0.58873 -0.06900
 H558 H 0.50260 0.58880 0.06377
 H559 H 0.51030 0.52371 0.11011
 H560 H 0.49990 0.45248 0.11088
 C561 C 1.07432 0.13317 0.06805
 C562 C 1.09497 0.12664 0.09241
 C563 C 1.09777 0.09943 0.10520
 C564 C 1.08048 0.07863 0.09320
 C565 C 1.16634 0.19433 0.14787
 C566 C 1.05682 0.11230 0.05600
 C567 C 1.11368 0.14736 0.10462
 C568 C 1.13010 0.16332 0.11649
 C569 C 1.14970 0.18056 0.13241
 C570 C 1.05998 0.08469 0.06809
 H571 H 1.07191 0.15425 0.05812
 H572 H 1.11360 0.09418 0.12420
 H573 H 1.08352 0.05768 0.10321
 H574 H 1.04119 0.11768 0.03683
 C575 C 1.07310 0.63263 0.56924
 C576 C 1.09358 0.62625 0.59392
 C577 C 1.09625 0.59915 0.60716
 C578 C 1.07902 0.57827 0.59522
 C579 C 1.16501 0.69442 0.64805
 C580 C 1.05567 0.61170 0.55726
 C581 C 1.11231 0.64703 0.60584
 C582 C 1.12873 0.66309 0.61739
 C583 C 1.14835 0.68050 0.63290
 C584 C 1.05874 0.58417 0.56973
 H585 H 1.07080 0.65362 0.55895
 H586 H 1.11196 0.59404 0.62641
 H587 H 1.08197 0.55738 0.60552
 H588 H 1.04021 0.61694 0.53778
 C589 C 0.59728 0.09088 0.62096
 C590 C 0.62281 0.09235 0.60554
 C591 C 0.62873 0.07660 0.57435
 C592 C 0.60892 0.05998 0.55819
 C593 C 0.68731 0.16469 0.66793
 C594 C 0.57751 0.07447 0.60487
 C595 C 0.64219 0.11111 0.62122
 C596 C 0.65725 0.12758 0.63524
 C597 C 0.67381 0.14747 0.65254
 C598 C 0.58292 0.05914 0.57295
 H599 H 0.59245 0.10292 0.64509
 H600 H 0.64844 0.07760 0.56213
 H601 H 0.61369 0.04853 0.53357
 H602 H 0.55779 0.07421 0.61713
 C603 C 0.59896 0.59057 0.12147
 C604 C 0.62440 0.59227 0.10583
 C605 C 0.63024 0.57683 0.07435
 C606 C 0.61040 0.56028 0.05811
 C607 C 0.68836 0.66452 0.16912
 C608 C 0.57917 0.57425 0.10530
 C609 C 0.64375 0.61097 0.12161
 C610 C 0.65872 0.62743 0.13582
 C611 C 0.67508 0.64730 0.15342
 C612 C 0.58448 0.55924 0.07310
 H613 H 0.59421 0.60238 0.14583
 H614 H 0.64989 0.57802 0.06197
 H615 H 0.61508 0.54907 0.03328
 H616 H 0.55952 0.57381 0.11774
 C617 C 0.91153 -0.10364 0.12021
 C618 C 0.91139 -0.13016 0.10458
 C619 C 0.92882 -0.13631 0.07578
 C620 C 0.94575 -0.11564 0.06188
 C621 C 0.83843 -0.19639 0.15946
 C622 C 0.92827 -0.08299 0.10633
 C623 C 0.89235 -0.15031 0.11743
 C624 C 0.87563 -0.16592 0.12928
 C625 C 0.85558 -0.18286 0.14470
 C626 C 0.94518 -0.08856 0.07652
 H627 H 0.89816 -0.09870 0.14259
 H628 H 0.92888 -0.15682 0.06353
 H629 H 0.95853 -0.12060 0.03893
 H630 H 0.92739 -0.06244 0.11838
 C631 C 0.90836 0.39588 0.61688
 C632 C 0.90862 0.36926 0.60157
 C633 C 0.92666 0.36300 0.57349
 C634 C 0.94385 0.38364 0.56006
 C635 C 0.83592 0.30299 0.65717
 C636 C 0.92535 0.41649 0.60348
 C637 C 0.88957 0.34905 0.61431
 C638 C 0.87287 0.33344 0.62628
 C639 C 0.85292 0.31652 0.64202
 C640 C 0.94296 0.41079 0.57444
 H641 H 0.89455 0.40091 0.63872
 H642 H 0.92706 0.34240 0.56152
 H643 H 0.95718 0.37858 0.53775
 H644 H 0.92420 0.43708 0.61534
 C645 C 0.40202 -0.09293 0.61171
 C646 C 0.37594 -0.09199 0.59810
 C647 C 0.36969 -0.07376 0.56945
 C648 C 0.38967 -0.05683 0.55418
 C649 C 0.31132 -0.16367 0.66119
 C650 C 0.42191 -0.07622 0.59652
 C651 C 0.35621 -0.11047 0.61349
 C652 C 0.34105 -0.12678 0.62762
 C653 C 0.32460 -0.14653 0.64533
 C654 C 0.41611 -0.05815 0.56732
 H655 H 0.40710 -0.10689 0.63388
 H656 H 0.34953 -0.07287 0.55869
 H657 H 0.38456 -0.04318 0.53173
 H658 H 0.44195 -0.07772 0.60754
 C659 C 0.40411 0.40670 0.11313
 C660 C 0.37795 0.40762 0.09977
 C661 C 0.37155 0.42593 0.07127
 C662 C 0.39143 0.44295 0.05589
 C663 C 0.31317 0.33589 0.16275
 C664 C 0.42390 0.42351 0.09784
 C665 C 0.35829 0.38908 0.11525
 C666 C 0.34313 0.37275 0.12938
 C667 C 0.32657 0.35301 0.14700
 C668 C 0.41793 0.44167 0.06879
 H669 H 0.40932 0.39268 0.13518
 H670 H 0.35134 0.42682 0.06068
 H671 H 0.38619 0.45665 0.03356
 H672 H 0.44400 0.42201 0.10867
 C673 C 0.90395 0.09892 -0.10694
 C674 C 0.90418 0.12530 -0.09095
 C675 C 0.92304 0.13161 -0.06389
 C676 C 0.94113 0.11122 -0.05221
 C677 C 0.82819 0.18917 -0.14227
 C678 C 0.92182 0.07858 -0.09526
 C679 C 0.88431 0.14517 -0.10207
 C680 C 0.86687 0.16030 -0.11297
 C681 C 0.84599 0.17645 -0.12774
 C682 C 0.94032 0.08429 -0.06729
 H683 H 0.88952 0.09387 -0.12801
 H684 H 0.92342 0.15202 -0.05139
 H685 H 0.95514 0.11626 -0.03068
 H686 H 0.92070 0.05816 -0.10764
 C687 C 0.92258 0.63105 0.43763
 C688 C 0.90327 0.62474 0.41120
 C689 C 0.90272 0.59835 0.39526
 C690 C 0.92076 0.57799 0.40639
 C691 C 0.82703 0.68885 0.36142
 C692 C 0.94084 0.61066 0.44876
 C693 C 0.88331 0.64465 0.40062
 C694 C 0.86580 0.65985 0.39014
 C695 C 0.84486 0.67608 0.37575
 C696 C 0.93974 0.58371 0.43374
 H697 H 0.92321 0.65149 0.45007
 H698 H 0.88792 0.59330 0.37466
 H699 H 0.91940 0.55755 0.39410
 H700 H 0.95523 0.61572 0.46981
 C701 C 0.40227 0.09637 0.37898
 C702 C 0.37613 0.09545 0.39242
 C703 C 0.36986 0.07763 0.42152
 C704 C 0.38986 0.06109 0.43740
 C705 C 0.31079 0.16590 0.32827
 C706 C 0.42218 0.08004 0.39476
 C707 C 0.35634 0.11357 0.37648
 C708 C 0.34104 0.12957 0.36203
 C709 C 0.32433 0.14898 0.34413
 C710 C 0.41635 0.06237 0.42441
 H711 H 0.40737 0.11003 0.35648
 H712 H 0.34967 0.07676 0.43220
 H713 H 0.38472 0.04777 0.46020
 H714 H 0.44227 0.08151 0.38385
 C715 C 0.40292 0.59679 -0.11853
 C716 C 0.37668 0.59506 -0.10563
 C717 C 0.37050 0.57675 -0.07703
 C718 C 0.39069 0.56046 -0.06116
 C719 C 0.31100 0.66457 -0.17053
 C720 C 0.42301 0.58072 -0.10276
 C721 C 0.35667 0.61282 -0.12169
 C722 C 0.34127 0.62858 -0.13631
 C723 C 0.32451 0.64777 -0.15446
 C724 C 0.41726 0.56250 -0.07367
 H725 H 0.40795 0.61085 -0.14064
 H726 H 0.35022 0.57526 -0.06679
 H727 H 0.38560 0.54670 -0.03880
 H728 H 0.44316 0.58278 -0.11329
 C729 C 1.07477 -0.13572 -0.06740
 C730 C 1.09104 -0.12993 -0.09759
 C731 C 1.08868 -0.10446 -0.11570
 C732 C 1.07104 -0.08431 -0.10282
 C733 C 1.16912 -0.19067 -0.14942
 C734 C 1.05689 -0.11557 -0.05453
 C735 C 1.11144 -0.14899 -0.10918
 C736 C 1.12937 -0.16340 -0.12024
 C737 C 1.15082 -0.17867 -0.13501
 C738 C 1.05542 -0.08936 -0.07156
 H739 H 1.07646 -0.15542 -0.05321
 H740 H 1.10114 -0.09981 -0.13915
 H741 H 1.07027 -0.06444 -0.11671
 H742 H 1.04515 -0.12003 -0.03040
 C743 C 1.07504 0.36414 0.43264
 C744 C 1.09099 0.36997 0.40213
 C745 C 1.08825 0.39537 0.38395
 C746 C 1.07058 0.41541 0.39706
 C747 C 1.16930 0.30944 0.35013
 C748 C 1.05713 0.38419 0.44574
 C749 C 1.11147 0.35104 0.39033
 C750 C 1.12944 0.33670 0.37917
 C751 C 1.15094 0.32146 0.36441
 C752 C 1.05529 0.41034 0.42862
 H753 H 1.07702 0.34451 0.44691
 H754 H 1.10045 0.40006 0.36027
 H755 H 1.06952 0.43525 0.38310
 H756 H 1.04568 0.37972 0.47013
 C757 C 0.59755 -0.08718 0.37483
 C758 C 0.62314 -0.08799 0.39014
 C759 C 0.62900 -0.07157 0.42074
 C760 C 0.60907 -0.05490 0.43645
 C761 C 0.68825 -0.16100 0.33081
 C762 C 0.57766 -0.07072 0.39049
 C763 C 0.64266 -0.10680 0.37506
 C764 C 0.65787 -0.12338 0.36167
 C765 C 0.67461 -0.14348 0.34527
 C766 C 0.58302 -0.05470 0.42183
 H767 H 0.59278 -0.09977 0.35117
 H768 H 0.64875 -0.07207 0.43286
 H769 H 0.61381 -0.04289 0.46061
 H770 H 0.55791 -0.07096 0.37836
 C771 C 0.59836 0.41256 -0.12495
 C772 C 0.62410 0.41192 -0.11009
 C773 C 0.63016 0.42853 -0.07973
 C774 C 0.61032 0.44523 -0.06384
 C775 C 0.68895 0.33908 -0.17053
 C776 C 0.57856 0.42905 -0.10912
 C777 C 0.64356 0.39314 -0.12544
 C778 C 0.65871 0.37659 -0.13908
 C779 C 0.67538 0.35654 -0.15579
 C780 C 0.58414 0.44528 -0.07803
 H781 H 0.59342 0.39984 -0.14843
 H782 H 0.65003 0.42817 -0.06795
 H783 H 0.61524 0.45740 -0.03989
 H784 H 0.55871 0.42868 -0.12094
 C785 C 1.07833 0.13099 -0.06291
 C786 C 1.09746 0.12447 -0.08952
 C787 C 1.09768 0.09805 -0.10539
 C788 C 1.07948 0.07788 -0.09403
 C789 C 1.17384 0.18798 -0.14074
 C790 C 1.05992 0.11077 -0.05156
 C791 C 1.11753 0.14421 -0.10044
 C792 C 1.13510 0.15924 -0.11127
 C793 C 1.15605 0.17529 -0.12608
 C794 C 1.06068 0.08380 -0.06653
 H795 H 1.07796 0.15145 -0.05054
 H796 H 1.11231 0.09285 -0.12613
 H797 H 1.08057 0.05742 -0.10632
 H798 H 1.04567 0.11597 -0.03039
 C799 C 1.09644 0.59817 0.39425
 C800 C 1.09641 0.62450 0.41037
 C801 C 1.07760 0.63085 0.43747
 C802 C 1.05933 0.61054 0.44906
 C803 C 1.17282 0.68816 0.35931
 C804 C 1.07840 0.57790 0.40585
 C805 C 1.11643 0.64427 0.39932
 C806 C 1.13399 0.65933 0.38847
 C807 C 1.15496 0.67543 0.37376
 C808 C 1.05994 0.58365 0.43385
 H809 H 1.11083 0.59308 0.37315
 H810 H 1.07737 0.65123 0.45007
 H811 H 1.04536 0.61561 0.47062
 H812 H 1.07936 0.55751 0.39336
 C813 C 0.62909 0.07506 0.41779
 C814 C 0.62322 0.09074 0.38652
 C815 C 0.59758 0.08962 0.37140
 C816 C 0.57767 0.07361 0.38787
 C817 C 0.68822 0.16242 0.32397
 C818 C 0.60913 0.05885 0.43433
 C819 C 0.64275 0.10915 0.37056
 C820 C 0.65794 0.12542 0.35642
 C821 C 0.67464 0.14518 0.33914
 C822 C 0.58305 0.05836 0.41986
 H823 H 0.64888 0.07582 0.42978
 H824 H 0.59279 0.10163 0.34724
 H825 H 0.55788 0.07361 0.37584
 H826 H 0.61389 0.04745 0.45898
 C827 C 0.59815 0.59104 -0.12764
 C828 C 0.62386 0.59215 -0.11275
 C829 C 0.62995 0.57620 -0.08180
 C830 C 0.61015 0.55971 -0.06535
 C831 C 0.68853 0.66420 -0.17552
 C832 C 0.57839 0.57476 -0.11126
 C833 C 0.64327 0.61076 -0.12870
 C834 C 0.65837 0.62713 -0.14288
 C835 C 0.67498 0.64696 -0.16023
 C836 C 0.58399 0.55921 -0.07959
 H837 H 0.59318 0.60325 -0.15157
 H838 H 0.64980 0.57693 -0.06998
 H839 H 0.61508 0.54809 -0.04094
 H840 H 0.55855 0.57477 -0.12312
 C841 C 0.91126 -0.10434 -0.11648
 C842 C 0.90849 -0.12971 -0.09821
 C843 C 0.92434 -0.13541 -0.06759
 C844 C 0.94221 -0.11528 -0.05450
 C845 C 0.83061 -0.19075 -0.15069
 C846 C 0.92890 -0.08422 -0.10339
 C847 C 0.88812 -0.14879 -0.11010
 C848 C 0.87025 -0.16326 -0.12135
 C849 C 0.84887 -0.17865 -0.13626
 C850 C 0.94412 -0.08918 -0.07176
 H851 H 0.89913 -0.09975 -0.14025
 H852 H 0.92233 -0.15501 -0.05324
 H853 H 0.95358 -0.11966 -0.03003
 H854 H 0.92999 -0.06442 -0.11744
 C855 C 0.91028 0.39522 0.38480
 C856 C 0.90804 0.36967 0.40277
 C857 C 0.92442 0.36384 0.43280
 C858 C 0.94232 0.38402 0.44564
 C859 C 0.83019 0.30850 0.35082
 C860 C 0.92796 0.41539 0.39765
 C861 C 0.88768 0.35051 0.39115
 C862 C 0.86982 0.33599 0.38008
 C863 C 0.84843 0.32058 0.36528
 C864 C 0.94372 0.41029 0.42873
 H865 H 0.89774 0.39990 0.36147
 H866 H 0.92282 0.34409 0.44689
 H867 H 0.95417 0.37951 0.46965
 H868 H 0.92866 0.43531 0.38386
 C869 C 0.36972 -0.07352 0.42330
 C870 C 0.37602 -0.09203 0.39497
 C871 C 0.40219 -0.09324 0.38168
 C872 C 0.42209 -0.07652 0.39686
 C873 C 0.31072 -0.16385 0.33313
 C874 C 0.38971 -0.05659 0.43857
 C875 C 0.35623 -0.11051 0.37966
 C876 C 0.34095 -0.12683 0.36574
 C877 C 0.32425 -0.14661 0.34847
 C878 C 0.41623 -0.05816 0.42574
 H879 H 0.34951 -0.07242 0.43385
 H880 H 0.40732 -0.10741 0.35978
 H881 H 0.44219 -0.07825 0.38610
 H882 H 0.38453 -0.04273 0.46076
 C883 C 0.37068 0.42692 -0.07512
 C884 C 0.37687 0.40822 -0.10326
 C885 C 0.40306 0.40660 -0.11636
 C886 C 0.42310 0.42316 -0.10122
 C887 C 0.31115 0.33704 -0.16528
 C888 C 0.39080 0.44368 -0.05989
 C889 C 0.35693 0.38997 -0.11859
 C890 C 0.34153 0.37381 -0.13255
 C891 C 0.32474 0.35418 -0.14989
 C892 C 0.41733 0.44175 -0.07258
 H893 H 0.35044 0.42833 -0.06472
 H894 H 0.40811 0.39225 -0.13812
 H895 H 0.44321 0.42114 -0.11187
 H896 H 0.38570 0.45774 -0.03787
 C897 C 1.07222 -0.13638 0.07404
 C898 C 1.08973 -0.13008 0.10273
 C899 C 1.08947 -0.10357 0.11836
 C900 C 1.07254 -0.08308 0.10464
 C901 C 1.16301 -0.19530 0.15865
 C902 C 1.05508 -0.11585 0.06030
 C903 C 1.10890 -0.15006 0.11564
 C904 C 1.12572 -0.16542 0.12773
 C905 C 1.14585 -0.18203 0.14353
 C906 C 1.05553 -0.08877 0.07495
 H907 H 1.07223 -0.15689 0.06180
 H908 H 1.10286 -0.09852 0.14067
 H909 H 1.07331 -0.06254 0.11675
 H910 H 1.04220 -0.12089 0.03749
 C911 C 1.07081 0.36311 0.57560
 C912 C 1.08791 0.36923 0.60479
 C913 C 1.08734 0.39560 0.62083
 C914 C 1.07053 0.41615 0.60698
 C915 C 1.16133 0.30388 0.65998
 C916 C 1.05380 0.38369 0.56173
 C917 C 1.10709 0.34927 0.61764
 C918 C 1.12394 0.33387 0.62957
 C919 C 1.14411 0.31721 0.64511
 C920 C 1.05397 0.41064 0.57677
 H921 H 1.07109 0.34272 0.56302
 H922 H 1.10044 0.40051 0.64351
 H923 H 1.07108 0.43660 0.61937
 H924 H 1.04129 0.37879 0.53849
 C925 C 0.59701 -0.08663 0.61998
 C926 C 0.62252 -0.08807 0.60449
 C927 C 0.62853 -0.07196 0.57362
 C928 C 0.60882 -0.05505 0.55782
 C929 C 0.68651 -0.16177 0.66482
 C930 C 0.57734 -0.06992 0.60424
 C931 C 0.64175 -0.10717 0.61969
 C932 C 0.65669 -0.12395 0.63326
 C933 C 0.67312 -0.14421 0.64998
 C934 C 0.58283 -0.05426 0.57261
 H935 H 0.59210 -0.09894 0.64386
 H936 H 0.64822 -0.07294 0.56134
 H937 H 0.61365 -0.04335 0.53342
 H938 H 0.55763 -0.06972 0.61652
 C939 C 0.59904 0.41366 0.11983
 C940 C 0.62437 0.41196 0.10384
 C941 C 0.63015 0.42778 0.07265
 C942 C 0.61037 0.44467 0.05701
 C943 C 0.68809 0.33808 0.16399
 C944 C 0.57930 0.43034 0.10425
 C945 C 0.64361 0.39284 0.11887
 C946 C 0.65852 0.37602 0.13238
 C947 C 0.67484 0.35569 0.14909
 C948 C 0.58455 0.44570 0.07230
 H949 H 0.59433 0.40157 0.14397
 H950 H 0.64970 0.42659 0.06000
 H951 H 0.61500 0.45616 0.03236
 H952 H 0.55972 0.43076 0.11690
 C953 C 0.92709 0.13352 0.06828
 C954 C 0.90677 0.12734 0.09333
 C955 C 0.90420 0.10035 0.10706
 C956 C 0.92134 0.07939 0.09519
 C957 C 0.83527 0.19573 0.14656
 C958 C 0.94441 0.11251 0.05639
 C959 C 0.88806 0.14817 0.10504
 C960 C 0.87164 0.16430 0.11636
 C961 C 0.85199 0.18179 0.13162
 C962 C 0.94142 0.08508 0.06929
 H963 H 0.92931 0.15442 0.05761
 H964 H 0.88862 0.09539 0.12659
 H965 H 0.91845 0.05859 0.10583
 H966 H 0.95972 0.11760 0.03657
 C967 C 0.90092 0.59912 0.60357
 C968 C 0.90425 0.62638 0.59114
 C969 C 0.92539 0.63284 0.56750
 C970 C 0.94288 0.61187 0.55584
 C971 C 0.83335 0.69506 0.64549
 C972 C 0.91822 0.57822 0.59194
 C973 C 0.88564 0.64728 0.60306
 C974 C 0.86934 0.66346 0.61466
 C975 C 0.84988 0.68102 0.63026
 C976 C 0.93924 0.58422 0.56760
 H977 H 0.88471 0.59393 0.62201
 H978 H 0.92821 0.65394 0.55785
 H979 H 0.95891 0.61721 0.53724
 H980 H 0.91479 0.55724 0.60166
 C981 C 0.40220 0.09737 0.61281
 C982 C 0.37602 0.09622 0.59958
 C983 C 0.36972 0.07810 0.57081
 C984 C 0.38972 0.06148 0.55509
 C985 C 0.31121 0.16627 0.66522
 C986 C 0.42210 0.08096 0.59719
 C987 C 0.35623 0.11429 0.61557
 C988 C 0.34103 0.13024 0.63027
 C989 C 0.32452 0.14953 0.64870
 C990 C 0.41624 0.06296 0.56792
 H991 H 0.40732 0.11124 0.63507
 H992 H 0.34949 0.07704 0.56032
 H993 H 0.38456 0.04790 0.53257
 H994 H 0.44221 0.08260 0.60798
 C995 C 0.37142 0.57847 0.07222
 C996 C 0.37781 0.59653 0.10102
 C997 C 0.40400 0.59750 0.11425
 C998 C 0.42382 0.58100 0.09858
 C999 C 0.31297 0.66687 0.16629
 C1000 C 0.39134 0.56175 0.05645
 C1001 C 0.35809 0.61472 0.11701
 C1002 C 0.34291 0.63074 0.13165
 C1003 C 0.32636 0.65010 0.14994
 C1004 C 0.41787 0.56307 0.06926
 H1005 H 0.35119 0.57754 0.06172
 H1006 H 0.40920 0.61132 0.13653
 H1007 H 0.44394 0.58252 0.10936
 H1008 H 0.38611 0.54825 0.03389
   
