data_POSCAR
  _audit_creation_date              2014-09-24
  _audit_creation_method            'ToBaCCo'
  _symmetry_space_group_name_H-M    'P1'
  _symmetry_Int_Tables_number       1
  _symmetry_cell_setting            triclinic
  loop_
  _symmetry_equiv_pos_as_xyz
 x,y,z
_cell_length_a 38.8017
_cell_length_b 38.6795
_cell_length_c 38.6255
_cell_angle_alpha 90.053200
_cell_angle_beta 89.981100
_cell_angle_gamma 89.917800
loop_
  _atom_site_label
  _atom_site_type_symbol
  _atom_site_fract_x
  _atom_site_fract_y
  _atom_site_fract_z
C1 C 0.18790 1.23244 0.18864
 N2 N 0.17333 1.21757 0.21698
 C3 C 0.18699 1.18857 0.23141
 N4 N 0.21569 1.17439 0.21699
 C5 C 0.23076 1.18888 0.18877
 N6 N 0.21668 1.21785 0.17479
 C7 C 0.81269 0.76798 0.18883
 N8 N 0.82644 0.78227 0.21789
 C9 C 0.81247 0.81108 0.23246
 N10 N 0.78415 0.82552 0.21758
 C11 C 0.76988 0.81158 0.18866
 N12 N 0.78440 0.78293 0.17441
 C13 C 0.81181 1.23141 -0.18775
 N14 N 0.78268 1.21738 -0.17416
 C15 C 0.76783 1.18913 -0.18877
 N16 N 0.78245 1.17481 -0.21735
 C17 C 0.81160 1.18833 -0.23141
 N18 N 0.82605 1.21660 -0.21633
 C19 C 0.18849 0.76855 -0.18954
 N20 N 0.21722 0.78278 -0.17539
 C21 C 0.23186 0.81135 -0.18954
 N22 N 0.21733 0.82578 -0.21808
 C23 C 0.18852 0.81201 -0.23261
 N24 N 0.17430 0.78337 -0.21806
 C25 C 0.52671 1.06217 -0.02825
 H26 H 0.50750 1.07509 -0.01266
 C27 C 0.54982 1.08178 -0.04780
 H28 H 0.54767 1.10969 -0.04756
 C29 C 0.55334 1.01026 -0.04703
 H30 H 0.55485 0.98234 -0.04604
 C31 C 0.57696 1.02883 -0.06689
 H32 H 0.59676 1.01494 -0.08095
 N33 N 0.52884 1.02706 -0.02827
 C34 C 0.47260 1.02802 0.06255
 H35 H 0.49181 1.01257 0.07561
 C36 C 0.44918 1.04743 0.08202
 H37 H 0.45105 1.04722 0.10999
 C38 C 0.44636 1.04660 0.01038
 H39 H 0.44513 1.04559 -0.01759
 C40 C 0.42244 1.06632 0.02880
 H41 H 0.40270 1.08028 0.01476
 Zn42 Zn 0.50005 0.99976 0.00020
 N43 N 0.47082 1.02801 0.02738
 C44 C 0.55359 0.98998 0.04730
 N45 N 0.52932 0.97285 0.02862
 C46 C 0.52780 0.93772 0.02853
 C47 C 0.55136 0.91841 0.04789
 C48 C 0.57767 0.97171 0.06694
 C49 C 0.47311 0.97119 -0.06213
 C50 C 0.44990 0.95169 -0.08167
 C51 C 0.42319 0.93257 -0.02852
 C52 C 0.44695 0.95236 -0.01003
 N53 N 0.47125 0.97115 -0.02696
 H54 H 0.55461 1.01791 0.04636
 H55 H 0.50873 0.92456 0.01303
 H56 H 0.54970 0.89048 0.04758
 H57 H 0.59731 0.98586 0.08091
 H58 H 0.49218 0.98679 -0.07516
 H59 H 0.45184 0.95197 -0.10963
 H60 H 0.40351 0.91853 -0.01452
 H61 H 0.44565 0.95333 0.01794
 C62 C 0.42352 1.06677 0.06515
 C63 C 0.57553 1.06511 -0.06729
 C64 C 0.42431 0.93224 -0.06487
 C65 C 0.57691 0.93541 0.06724
 C66 C -0.01000 0.55389 1.04634
 H67 H 0.01779 0.55548 1.04480
 C68 C -0.02832 0.57784 1.06617
 H69 H -0.01436 0.59798 1.07965
 C70 C -0.06189 0.52670 1.02895
 H71 H -0.07490 0.50711 1.01394
 C72 C -0.08124 0.55010 1.04855
 H73 H -0.10905 0.54779 1.04890
 N74 N -0.02692 0.52897 1.02826
 C75 C 0.04682 0.44599 1.01001
 H76 H 0.04536 0.44423 0.98209
 C77 C 0.06666 0.42225 1.02852
 H78 H 0.08022 0.40210 1.01458
 C79 C 0.02923 0.47336 1.06201
 H80 H 0.01412 0.49293 1.07500
 C81 C 0.04884 0.45020 1.08156
 H82 H 0.04912 0.45267 1.10948
 Zn83 Zn 0.00001 0.49974 0.99975
 N84 N 0.02862 0.47088 1.02689
 C85 C 0.06180 0.52663 0.97063
 N86 N 0.02681 0.52870 0.97096
 C87 C 0.00985 0.55330 0.95248
 C88 C 0.02815 0.57718 0.93265
 C89 C 0.08114 0.54997 0.95107
 C90 C -0.04647 0.44569 0.99015
 C91 C -0.06613 0.42160 0.97193
 C92 C -0.04846 0.44884 0.91854
 C93 C -0.02902 0.47237 0.93781
 N94 N -0.02843 0.47041 0.97296
 H95 H 0.07485 0.50730 0.98597
 H96 H -0.01797 0.55475 0.95374
 H97 H 0.01416 0.59710 0.91886
 H98 H 0.10897 0.54787 0.95106
 H99 H -0.04500 0.44434 1.01808
 H100 H -0.07956 0.40160 0.98612
 H101 H -0.04874 0.45090 0.89059
 H102 H -0.01404 0.49181 0.92458
 C103 C 0.06770 0.42402 1.06484
 C104 C -0.06447 0.57627 1.06732
 C105 C -0.06716 0.42283 0.93559
 C106 C 0.06433 0.57587 0.93195
 C107 C 1.04654 -0.00944 0.55389
 H108 H 1.04492 0.01844 0.55556
 C109 C 1.06637 -0.02777 0.57779
 H110 H 1.07977 -0.01374 0.59795
 C111 C 1.02932 -0.06152 0.52663
 H112 H 1.01436 -0.07462 0.50705
 C113 C 1.04894 -0.08090 0.54993
 H114 H 1.04937 -0.10878 0.54755
 N115 N 1.02851 -0.02644 0.52899
 C116 C 1.00934 0.04700 0.44581
 H117 H 0.98154 0.04543 0.44431
 C118 C 1.02750 0.06671 0.42170
 H119 H 1.01341 0.08006 0.40154
 C120 C 1.06139 0.02977 0.47287
 H121 H 1.07453 0.01486 0.49247
 C122 C 1.08059 0.04927 0.44935
 H123 H 1.10840 0.04966 0.45157
 Zn124 Zn 0.99978 0.00042 0.49999
 N125 N 1.02641 0.02903 0.47071
 C126 C 0.97062 0.06243 0.52702
 N127 N 0.97130 0.02734 0.52924
 C128 C 0.95332 0.01034 0.55416
 C129 C 0.93359 0.02869 0.57817
 C130 C 0.95114 0.08182 0.55048
 C131 C 0.98976 -0.04642 0.44604
 C132 C 0.97142 -0.06637 0.42225
 C133 C 0.91855 -0.04879 0.45030
 C134 C 0.93792 -0.02907 0.47351
 N135 N 0.97288 -0.02830 0.47101
 H136 H 0.98556 0.07550 0.50742
 H137 H 0.95486 -0.01754 0.55572
 H138 H 0.92017 0.01466 0.59831
 H139 H 0.95080 0.10972 0.54824
 H140 H 1.01754 -0.04482 0.44426
 H141 H 0.98534 -0.07987 0.40204
 H142 H 0.89076 -0.04920 0.45279
 H143 H 0.92493 -0.01402 0.49314
 C144 C 1.06366 0.06786 0.42312
 C145 C 1.06760 -0.06404 0.57615
 C146 C 0.93527 -0.06759 0.42405
 C147 C 0.93247 0.06496 0.57667
 C148 C 0.13997 0.31726 1.13952
 C149 C 0.17118 0.30441 1.12638
 C150 C 0.18740 0.27670 1.14319
 C151 C 0.17259 0.26157 1.17301
 C152 C 0.14151 0.27552 1.18617
 C153 C 0.12505 0.30313 1.16941
 C154 C 0.12219 0.34559 1.12120
 C155 C 0.09056 0.35789 1.13389
 C156 C 0.07320 0.38402 1.11575
 C157 C 0.08723 0.39784 1.08506
 C158 C 0.11933 0.38557 1.07309
 C159 C 0.13683 0.35933 1.09096
 C160 C 0.09362 0.31650 1.18163
 C161 C 0.07664 0.34338 1.16414
 C162 C 0.18529 0.31918 1.09632
 C163 C 0.16842 0.34620 1.07893
 H164 H 0.08184 0.30585 1.20471
 H165 H 0.05227 0.35268 1.17424
 H166 H 0.20942 0.30956 1.08595
 H167 H 0.18003 0.35664 1.05567
 H168 H 0.21130 0.26669 1.13261
 H169 H 0.12960 0.26456 1.20904
 H170 H 0.04831 0.39286 1.12495
 H171 H 0.13061 0.39632 1.04980
 C172 C -0.13837 0.68337 1.14012
 C173 C -0.12524 0.69606 1.17149
 C174 C -0.14195 0.72374 1.18792
 C175 C -0.17166 0.73899 1.17318
 C176 C -0.18478 0.72525 1.14191
 C177 C -0.16813 0.69766 1.12524
 C178 C -0.12022 0.65500 1.12217
 C179 C -0.13294 0.64281 1.09041
 C180 C -0.11499 0.61659 1.07292
 C181 C -0.08447 0.60259 1.08694
 C182 C -0.07246 0.61477 1.11916
 C183 C -0.09014 0.64108 1.13680
 C184 C -0.18035 0.68444 1.09365
 C185 C -0.16303 0.65751 1.07650
 C186 C -0.09532 0.68113 1.18557
 C187 C -0.07809 0.65408 1.16853
 H188 H -0.20332 0.69521 1.08189
 H189 H -0.17314 0.64831 1.05203
 H190 H -0.08496 0.69063 1.20981
 H191 H -0.05495 0.64351 1.18013
 H192 H -0.13139 0.73360 1.21197
 H193 H -0.20757 0.73633 1.13003
 H194 H -0.12422 0.60782 1.04794
 H195 H -0.04929 0.60387 1.13044
 C196 C -0.13933 0.31543 0.86180
 C197 C -0.12449 0.30108 0.83192
 C198 C -0.14114 0.27361 0.81515
 C199 C -0.17237 0.26007 0.82823
 C200 C -0.18702 0.27530 0.85813
 C201 C -0.17060 0.30288 0.87496
 C202 C -0.12148 0.34378 0.87999
 C203 C -0.13611 0.35783 0.91013
 C204 C -0.11862 0.38420 0.92780
 C205 C -0.08656 0.39633 0.91569
 C206 C -0.07250 0.38215 0.88514
 C207 C -0.08985 0.35588 0.86720
 C208 C -0.18465 0.31788 0.90498
 C209 C -0.16771 0.34491 0.92224
 C210 C -0.09300 0.31418 0.81967
 C211 C -0.07595 0.34108 0.83703
 H212 H -0.20882 0.30848 0.91537
 H213 H -0.17930 0.35558 0.94544
 H214 H -0.08127 0.30335 0.79661
 H215 H -0.05158 0.35020 0.82688
 H216 H -0.12933 0.26253 0.79224
 H217 H -0.21102 0.26558 0.86868
 H218 H -0.12992 0.39522 0.95099
 H219 H -0.04764 0.39087 0.87584
 C220 C 0.13838 0.68296 0.85981
 C221 C 0.16774 0.69758 0.87516
 C222 C 0.18447 0.72507 0.85855
 C223 C 0.17186 0.73819 0.82692
 C224 C 0.14259 0.72283 0.81171
 C225 C 0.12574 0.69525 0.82807
 C226 C 0.12015 0.65466 0.87764
 C227 C 0.09047 0.64040 0.86256
 C228 C 0.07273 0.61411 0.88005
 C229 C 0.08432 0.60225 0.91253
 C230 C 0.11442 0.61662 0.92703
 C231 C 0.13240 0.64284 0.90971
 C232 C 0.09621 0.68003 0.81357
 C233 C 0.07889 0.65305 0.83051
 C234 C 0.17947 0.68476 0.90709
 C235 C 0.16208 0.65788 0.92409
 H236 H 0.08623 0.68923 0.78905
 H237 H 0.05606 0.64222 0.81856
 H238 H 0.20211 0.69581 0.91919
 H239 H 0.17181 0.64896 0.94881
 H240 H 0.20691 0.73659 0.87060
 H241 H 0.13262 0.73253 0.78737
 H242 H 0.04988 0.60295 0.86844
 H243 H 0.12330 0.60811 0.95223
 C244 C 1.13738 0.13988 0.31554
 C245 C 1.12416 0.17109 0.30263
 C246 C 1.14100 0.18745 0.27501
 C247 C 1.17097 0.17282 0.26011
 C248 C 1.18410 0.14165 0.27401
 C249 C 1.16731 0.12505 0.30151
 C250 C 1.11919 0.12209 0.34393
 C251 C 1.13203 0.09051 0.35638
 C252 C 1.11411 0.07320 0.38269
 C253 C 1.08352 0.08725 0.39657
 C254 C 1.07136 0.11927 0.38410
 C255 C 1.08900 0.13671 0.35768
 C256 C 1.17962 0.09362 0.31496
 C257 C 1.16225 0.07662 0.34189
 C258 C 1.09409 0.18513 0.31732
 C259 C 1.07684 0.16825 0.34441
 H260 H 1.20272 0.08190 0.30438
 H261 H 1.17245 0.05228 0.35129
 H262 H 1.08366 0.20926 0.30765
 H263 H 1.05360 0.17984 0.35483
 H264 H 1.13041 0.21139 0.26501
 H265 H 1.20706 0.12985 0.26319
 H266 H 1.12346 0.04837 0.39166
 H267 H 1.04814 0.13057 0.39489
 C268 C 1.13998 -0.13839 0.68313
 C269 C 1.12527 -0.16840 0.69713
 C270 C 1.14187 -0.18524 0.72461
 C271 C 1.17290 -0.17207 0.73855
 C272 C 1.18745 -0.14206 0.72363
 C273 C 1.17109 -0.12517 0.69603
 C274 C 1.12212 -0.12008 0.65483
 C275 C 1.13659 -0.08978 0.64116
 C276 C 1.11907 -0.07198 0.61488
 C277 C 1.08711 -0.08410 0.60248
 C278 C 1.07322 -0.11482 0.61627
 C279 C 1.09062 -0.13289 0.64244
 C280 C 1.18500 -0.09501 0.68137
 C281 C 1.16806 -0.07764 0.65438
 C282 C 1.09393 -0.18071 0.68371
 C283 C 1.07687 -0.16322 0.65687
 H284 H 1.20905 -0.08458 0.69104
 H285 H 1.17954 -0.05432 0.64400
 H286 H 1.08231 -0.20387 0.69427
 H287 H 1.05260 -0.17340 0.64751
 H288 H 1.13015 -0.20825 0.73544
 H289 H 1.21130 -0.13145 0.73365
 H290 H 1.13024 -0.04866 0.60415
 H291 H 1.04844 -0.12414 0.60737
 C292 C 0.86122 -0.14051 0.31728
 C293 C 0.83133 -0.12571 0.30316
 C294 C 0.81471 -0.14233 0.27555
 C295 C 0.82798 -0.17344 0.26160
 C296 C 0.85779 -0.18814 0.27673
 C297 C 0.87447 -0.17176 0.30444
 C298 C 0.87939 -0.12256 0.34561
 C299 C 0.90960 -0.13708 0.35936
 C300 C 0.92733 -0.11943 0.38559
 C301 C 0.91523 -0.08728 0.39786
 C302 C 0.88457 -0.07337 0.38405
 C303 C 0.86657 -0.09090 0.35791
 C304 C 0.90451 -0.18574 0.31921
 C305 C 0.92175 -0.16872 0.34622
 C306 C 0.81900 -0.09423 0.31652
 C307 C 0.83635 -0.07709 0.34340
 H308 H 0.91496 -0.20990 0.30959
 H309 H 0.94500 -0.18024 0.35666
 H310 H 0.79593 -0.08255 0.30587
 H311 H 0.82616 -0.05270 0.35270
 H312 H 0.79184 -0.13051 0.26457
 H313 H 0.86846 -0.21207 0.26673
 H314 H 0.95060 -0.13061 0.39634
 H315 H 0.87526 -0.04845 0.39288
 C316 C 0.86020 0.13904 0.68406
 C317 C 0.82888 0.12601 0.69664
 C318 C 0.81251 0.14281 0.72433
 C319 C 0.82727 0.17252 0.73969
 C320 C 0.85852 0.18550 0.72608
 C321 C 0.87511 0.16878 0.69848
 C322 C 0.87804 0.12083 0.65565
 C323 C 0.90971 0.13347 0.64353
 C324 C 0.92708 0.11548 0.61723
 C325 C 0.91300 0.08499 0.60309
 C326 C 0.88088 0.07304 0.61521
 C327 C 0.86337 0.09078 0.64158
 C328 C 0.90664 0.18091 0.68535
 C329 C 0.92367 0.16353 0.65837
 C330 C 0.81477 0.09612 0.68158
 C331 C 0.83171 0.07882 0.65450
 H332 H 0.91842 0.20385 0.69623
 H333 H 0.94808 0.17358 0.64923
 H334 H 0.79057 0.08583 0.69100
 H335 H 0.82009 0.05570 0.64383
 H336 H 0.78849 0.13235 0.73408
 H337 H 0.87040 0.20828 0.73725
 H338 H 0.95198 0.12466 0.60850
 H339 H 0.86959 0.04990 0.60421
 C340 C 0.31653 1.13927 0.13916
 C341 C 0.30139 1.12381 0.16829
 C342 C 0.27385 1.14050 0.18490
 C343 C 0.26121 1.17234 0.17239
 C344 C 0.27712 1.18768 0.14338
 C345 C 0.30472 1.17123 0.12665
 C346 C 0.34484 1.12135 0.12101
 C347 C 0.35957 1.13654 0.09152
 C348 C 0.38583 1.11894 0.07379
 C349 C 0.39721 1.08625 0.08521
 C350 C 0.38242 1.07166 0.11516
 C351 C 0.35619 1.08907 0.13312
 C352 C 0.32043 1.18584 0.09733
 C353 C 0.34741 1.16879 0.08007
 C354 C 0.31375 1.09168 0.17990
 C355 C 0.34067 1.07459 0.16259
 H356 H 0.31160 1.21052 0.08746
 H357 H 0.35861 1.18082 0.05739
 H358 H 0.30232 1.07948 0.20237
 H359 H 0.34922 1.04971 0.17221
 H360 H 0.26193 1.12835 0.20714
 H361 H 0.26779 1.21218 0.13349
 H362 H 0.39733 1.13061 0.05106
 H363 H 0.39060 1.04633 0.12391
 C364 C 0.68182 1.13969 -0.13979
 C365 C 0.69670 1.16890 -0.12426
 C366 C 0.72423 1.18553 -0.14083
 C367 C 0.73715 1.17295 -0.17259
 C368 C 0.72144 1.14391 -0.18804
 C369 C 0.69383 1.12716 -0.17172
 C370 C 0.65361 1.12143 -0.12192
 C371 C 0.63917 1.09184 -0.13714
 C372 C 0.61307 1.07397 -0.11956
 C373 C 0.60159 1.08535 -0.08684
 C374 C 0.61607 1.11542 -0.07222
 C375 C 0.64212 1.13352 -0.08963
 C376 C 0.67838 1.09775 -0.18638
 C377 C 0.65149 1.08041 -0.16940
 C378 C 0.68417 1.18051 -0.09215
 C379 C 0.65736 1.16310 -0.07511
 H380 H 0.68736 1.08786 -0.21105
 H381 H 0.64051 1.05765 -0.18146
 H382 H 0.69542 1.20304 -0.07990
 H383 H 0.64870 1.17271 -0.05022
 H384 H 0.73601 1.20779 -0.12859
 H385 H 0.73098 1.13396 -0.21247
 H386 H 0.60180 1.05115 -0.13125
 H387 H 0.60783 1.12414 -0.04686
 C388 C 0.31753 0.86033 -0.13944
 C389 C 0.30266 0.87587 -0.16868
 C390 C 0.27518 0.85935 -0.18545
 C391 C 0.26231 0.82763 -0.17299
 C392 C 0.27794 0.81220 -0.14386
 C393 C 0.30551 0.82847 -0.12697
 C394 C 0.34579 0.87808 -0.12113
 C395 C 0.36028 0.86282 -0.09154
 C396 C 0.38649 0.88025 -0.07368
 C397 C 0.39804 0.91288 -0.08504
 C398 C 0.38346 0.92755 -0.11507
 C399 C 0.35732 0.91029 -0.13318
 C400 C 0.32097 0.81378 -0.09755
 C401 C 0.34791 0.83065 -0.08016
 C402 C 0.31521 0.90792 -0.18023
 C403 C 0.34205 0.92485 -0.16276
 H404 H 0.31198 0.78917 -0.08771
 H405 H 0.35892 0.81856 -0.05740
 H406 H 0.30397 0.92017 -0.20278
 H407 H 0.35074 0.94967 -0.17234
 H408 H 0.26346 0.87157 -0.20778
 H409 H 0.26842 0.78779 -0.13400
 H410 H 0.39782 0.86851 -0.05089
 H411 H 0.39174 0.95284 -0.12377
 C412 C 0.68449 0.86173 0.13905
 C413 C 0.69954 0.83258 0.12348
 C414 C 0.72704 0.81589 0.14011
 C415 C 0.73970 0.82831 0.17201
 C416 C 0.72395 0.85740 0.18741
 C417 C 0.69637 0.87421 0.17102
 C418 C 0.65611 0.87987 0.12127
 C419 C 0.64139 0.90931 0.13661
 C420 C 0.61499 0.92696 0.11919
 C421 C 0.60346 0.91550 0.08652
 C422 C 0.61830 0.88564 0.07175
 C423 C 0.64465 0.86775 0.08900
 C424 C 0.68071 0.90352 0.18576
 C425 C 0.65367 0.92076 0.16885
 C426 C 0.68710 0.82100 0.09134
 C427 C 0.66014 0.83830 0.07438
 H428 H 0.68960 0.91338 0.21045
 H429 H 0.64248 0.94341 0.18099
 H430 H 0.69849 0.79852 0.07906
 H431 H 0.65152 0.82868 0.04950
 H432 H 0.73886 0.79359 0.12791
 H433 H 0.73330 0.86723 0.21195
 H434 H 0.60346 0.94962 0.13100
 H435 H 0.61004 0.87687 0.04643
   
