data_POSCAR
  _audit_creation_date              2014-09-24
  _audit_creation_method            'ToBaCCo'
  _symmetry_space_group_name_H-M    'P1'
  _symmetry_Int_Tables_number       1
  _symmetry_cell_setting            triclinic
  loop_
  _symmetry_equiv_pos_as_xyz
 x,y,z
_cell_length_a 43.5738
_cell_length_b 44.5308
_cell_length_c 19.8373
_cell_angle_alpha 89.973000
_cell_angle_beta 89.870300
_cell_angle_gamma 119.374000
loop_
  _atom_site_label
  _atom_site_type_symbol
  _atom_site_fract_x
  _atom_site_fract_y
  _atom_site_fract_z
C1 C 0.32484 0.45669 0.42579
 C2 C 0.33047 0.46264 0.49370
 C3 C 0.29795 0.45320 0.52254
 N4 N 0.27266 0.44123 0.47464
 C5 C 0.28905 0.44373 0.41533
 C6 C 0.29177 0.45441 0.59217
 C7 C 0.25888 0.44795 0.61880
 C8 C 0.24967 0.44249 0.68653
 C9 C 0.21707 0.44007 0.69223
 C10 C 0.20715 0.44416 0.62785
 N11 N 0.23282 0.44899 0.58355
 C12 C 0.17653 0.44629 0.61261
 C13 C 0.16330 0.44421 0.54664
 C14 C 0.13546 0.44963 0.52977
 C15 C 0.13011 0.44387 0.46171
 C16 C 0.15477 0.43506 0.43916
 N17 N 0.17469 0.43490 0.49126
 C18 C 0.15778 0.42620 0.37201
 C19 C 0.18510 0.42023 0.34954
 C20 C 0.18577 0.40614 0.28758
 C21 C 0.21818 0.40809 0.28207
 C22 C 0.23640 0.42331 0.34084
 N23 N 0.21603 0.43053 0.38164
 C24 C 0.27212 0.43346 0.35215
 H25 H 0.34485 0.46133 0.38845
 H26 H 0.35560 0.47276 0.51895
 H27 H 0.22471 0.44609 0.42401
 H28 H 0.26510 0.44096 0.72772
 H29 H 0.20258 0.43638 0.73874
 H30 H 0.12051 0.45692 0.56309
 H31 H 0.11029 0.44585 0.43227
 H32 H 0.22761 0.40006 0.23895
 H33 H 0.23444 0.45707 0.53397
 H34 H 0.16537 0.39627 0.24958
 C35 C 0.55470 -0.30221 0.55694
 C36 C 0.55063 -0.30681 0.48853
 C37 C 0.55652 -0.27570 0.46146
 N38 N 0.56443 -0.25220 0.51114
 C39 C 0.56288 -0.26841 0.56974
 C40 C 0.55587 -0.26909 0.39182
 C41 C 0.55966 -0.23774 0.36625
 C42 C 0.56639 -0.22726 0.29934
 C43 C 0.56575 -0.19669 0.29482
 C44 C 0.55847 -0.18942 0.35896
 N45 N 0.55468 -0.21460 0.40194
 C46 C 0.55255 -0.16179 0.37513
 C47 C 0.54886 -0.15232 0.44122
 C48 C 0.53760 -0.12889 0.45707
 C49 C 0.53892 -0.12579 0.52570
 C50 C 0.55109 -0.14729 0.54960
 N51 N 0.55747 -0.16321 0.49786
 C52 C 0.55767 -0.15057 0.61788
 C53 C 0.56760 -0.17446 0.64143
 C54 C 0.58056 -0.17422 0.70524
 C55 C 0.58439 -0.20306 0.70963
 C56 C 0.57346 -0.22023 0.64839
 N57 N 0.56329 -0.20257 0.60731
 C58 C 0.56965 -0.25305 0.63449
 H59 H 0.55188 -0.32160 0.59316
 H60 H 0.54416 -0.33036 0.46177
 H61 H 0.54965 -0.21171 0.56251
 H62 H 0.57087 -0.24049 0.25795
 H63 H 0.56946 -0.18190 0.24925
 H64 H 0.52924 -0.11539 0.42286
 H65 H 0.53194 -0.10939 0.55458
 H66 H 0.59331 -0.21101 0.75356
 H67 H 0.54481 -0.21805 0.45063
 H68 H 0.58612 -0.15552 0.74482
 C69 C 1.12638 0.66096 0.47433
 C70 C 1.12227 0.66296 0.54250
 C71 C 1.15340 0.69045 0.56583
 N72 N 1.17631 0.70512 0.51419
 C73 C 1.15983 0.68731 0.45820
 C74 C 1.16139 0.69970 0.63430
 C75 C 1.19287 0.72885 0.65573
 C76 C 1.20535 0.73443 0.72137
 C77 C 1.23586 0.76562 0.72178
 C78 C 1.24128 0.77853 0.65637
 N79 N 1.21473 0.75604 0.61662
 C80 C 1.26917 0.81120 0.63645
 C81 C 1.27806 0.82195 0.56853
 C82 C 1.30279 0.85492 0.54798
 C83 C 1.30519 0.85400 0.47893
 C84 C 1.28204 0.82045 0.45943
 N85 N 1.26570 0.80097 0.51434
 C86 C 1.27806 0.80765 0.39276
 C87 C 1.25377 0.77322 0.37526
 C88 C 1.25464 0.75740 0.31552
 C89 C 1.22584 0.72493 0.31616
 C90 C 1.20799 0.72176 0.37608
 N91 N 1.22512 0.75133 0.41169
 C92 C 1.17539 0.69295 0.39368
 H93 H 1.10713 0.64197 0.44067
 H94 H 1.09928 0.64575 0.57176
 H95 H 1.21555 0.75763 0.45419
 H96 H 1.19370 0.71771 0.76454
 H97 H 1.25209 0.77755 0.76557
 H98 H 1.31780 0.87722 0.57957
 H99 H 1.32248 0.87538 0.44689
 H100 H 1.21860 0.70601 0.27643
 H101 H 1.20993 0.76063 0.56749
 H102 H 1.27394 0.76821 0.27540
 C103 C 0.86861 0.54415 0.42481
 C104 C 0.86826 0.53810 0.49272
 C105 C 0.84525 0.54756 0.52163
 N106 N 0.83199 0.55962 0.47377
 C107 C 0.84587 0.55718 0.41443
 C108 C 0.83786 0.54629 0.59129
 C109 C 0.81147 0.55272 0.61802
 C110 C 0.80774 0.55809 0.68576
 C111 C 0.77756 0.56050 0.69159
 C112 C 0.76354 0.55651 0.62727
 N113 N 0.78436 0.55173 0.58287
 C114 C 0.73080 0.55445 0.61213
 C115 C 0.71969 0.55666 0.54620
 C116 C 0.68644 0.55130 0.52940
 C117 C 0.68691 0.55721 0.46134
 C118 C 0.72042 0.56605 0.43873
 N119 N 0.74045 0.56607 0.49079
 C120 C 0.73235 0.57504 0.37156
 C121 C 0.76563 0.58100 0.34898
 C122 C 0.78041 0.59513 0.28693
 C123 C 0.81082 0.59310 0.28128
 C124 C 0.81377 0.57780 0.34006
 N125 N 0.78620 0.57062 0.38100
 C126 C 0.83926 0.56756 0.35127
 H127 H 0.88395 0.53954 0.38743
 H128 H 0.88323 0.52793 0.51792
 H129 H 0.77928 0.55503 0.42343
 H130 H 0.82470 0.55955 0.72689
 H131 H 0.76679 0.56413 0.73814
 H132 H 0.66417 0.54395 0.56276
 H133 H 0.66513 0.55532 0.43196
 H134 H 0.82827 0.60111 0.23804
 H135 H 0.77788 0.54373 0.53332
 H136 H 0.76992 0.60505 0.24893
 C137 C 0.44768 0.14615 0.47941
 C138 C 0.44369 0.14467 0.54832
 C139 C 0.45231 0.17760 0.56953
 N140 N 0.46178 0.19908 0.51589
 C141 C 0.45881 0.17995 0.46072
 C142 C 0.45384 0.18784 0.63761
 C143 C 0.45920 0.22058 0.65811
 C144 C 0.46647 0.23298 0.72380
 C145 C 0.46813 0.26459 0.72373
 C146 C 0.46201 0.27091 0.65801
 N147 N 0.45620 0.24377 0.61854
 C148 C 0.46080 0.30068 0.63682
 C149 C 0.46265 0.31044 0.56844
 C150 C 0.45985 0.33844 0.54542
 C151 C 0.46619 0.34071 0.47731
 C152 C 0.47259 0.31402 0.46086
 N153 N 0.47063 0.29573 0.51664
 C154 C 0.48238 0.30841 0.39619
 C155 C 0.48555 0.27937 0.37826
 C156 C 0.50004 0.27607 0.31821
 C157 C 0.49581 0.24341 0.31744
 C158 C 0.47898 0.22764 0.37715
 N159 N 0.47263 0.24967 0.41372
 C160 C 0.46837 0.19315 0.39452
 H161 H 0.44352 0.12495 0.44697
 H162 H 0.43572 0.12204 0.57940
 H163 H 0.45675 0.24344 0.45625
 H164 H 0.47003 0.22045 0.76749
 H165 H 0.47333 0.28109 0.76717
 H166 H 0.45442 0.35577 0.57485
 H167 H 0.46649 0.36008 0.44388
 H168 H 0.50404 0.23247 0.27726
 H169 H 0.44720 0.23976 0.56918
 H170 H 0.51201 0.29507 0.27854
 C171 C 0.66060 0.12793 0.53034
 C172 C 0.66216 0.13148 0.46187
 C173 C 0.69711 0.15400 0.44559
 N174 N 0.71696 0.16399 0.50178
 C175 C 0.69468 0.14829 0.55377
 C176 C 0.71021 0.16297 0.37941
 C177 C 0.74397 0.19026 0.36272
 C178 C 0.75847 0.19735 0.29848
 C179 C 0.79011 0.22762 0.30278
 C180 C 0.79413 0.23799 0.36965
 N181 N 0.76577 0.21522 0.40552
 C182 C 0.82225 0.26887 0.39512
 C183 C 0.82981 0.27513 0.46457
 C184 C 0.85563 0.30591 0.49149
 C185 C 0.85522 0.30102 0.55987
 C186 C 0.82909 0.26740 0.57260
 N187 N 0.81396 0.25153 0.51414
 C188 C 0.82047 0.25185 0.63715
 C189 C 0.79120 0.21925 0.65123
 C190 C 0.78515 0.20179 0.71210
 C191 C 0.75221 0.17315 0.70808
 C192 C 0.73911 0.17390 0.64483
 N193 N 0.76300 0.20211 0.61079
 C194 C 0.70495 0.15047 0.62166
 H195 H 0.63709 0.11192 0.55945
 H196 H 0.64001 0.11880 0.42800
 H197 H 0.75846 0.21169 0.56654
 H198 H 0.74711 0.18265 0.25302
 H199 H 0.80796 0.24066 0.26133
 H200 H 0.87302 0.32941 0.46469
 H201 H 0.87222 0.32010 0.59606
 H202 H 0.73914 0.15428 0.74757
 H203 H 0.75960 0.21879 0.45432
 H204 H 0.80234 0.20934 0.75551
 O205 O 0.96045 0.47573 -0.14479
 O206 O 1.03383 0.53785 0.08297
 O207 O 0.92370 0.47838 0.05854
 O208 O 1.04415 0.54455 -0.03818
 O209 O 0.97365 0.52153 0.08213
 O210 O 1.02424 0.51456 -0.13032
 O211 O 1.08010 0.53561 0.05219
 O212 O 0.92721 0.48161 -0.06829
 C213 C 0.93777 0.48457 -0.12816
 C214 C 1.06571 0.54689 0.09504
 C215 C 0.94130 0.50841 0.08018
 C216 C 1.03969 0.54354 -0.10091
 O217 O 1.02913 0.45784 -0.08534
 O218 O 0.95572 0.45755 0.13227
 O219 O 0.92147 0.42134 -0.07180
 O220 O 1.04481 0.47064 0.03910
 O221 O 1.01794 0.47386 0.12690
 O222 O 0.96957 0.42268 -0.09803
 O223 O 1.07042 0.50679 -0.06612
 O224 O 0.92554 0.42056 0.05381
 Co225 Co 0.99556 0.46882 -0.10635
 Co226 Co 0.99475 0.49605 0.09684
 Co227 Co 0.93067 0.45322 -0.00651
 Co228 Co 1.04216 0.50672 0.00252
 O229 O 0.98860 0.47910 -0.00628
 C230 C 1.06038 0.47915 -0.09559
 C231 C 0.93416 0.42703 0.11430
 C232 C 0.93714 0.40689 -0.09613
 C233 C 1.03677 0.46333 0.09945
 O234 O 0.51017 0.48625 -0.12971
 O235 O 0.45277 0.47956 0.08261
 O236 O 0.54522 0.46565 0.05312
 O237 O 0.44619 0.51941 -0.06796
 O238 O 0.49666 0.46334 0.08377
 O239 O 0.48518 0.52499 -0.14464
 O240 O 0.44606 0.52271 0.05885
 O241 O 0.50019 0.45647 -0.03713
 C242 C 0.49666 0.45734 -0.09986
 C243 C 0.43356 0.49267 0.08067
 C244 C 0.51952 0.45439 0.09608
 C245 C 0.45368 0.51631 -0.12782
 O246 O 0.54750 0.57817 -0.09895
 O247 O 0.54486 0.52740 0.12694
 O248 O 0.56427 0.49426 -0.06561
 O249 O 0.50591 0.58055 0.05346
 O250 O 0.49892 0.54357 0.13221
 O251 O 0.57194 0.54313 -0.08566
 O252 O 0.50087 0.57965 -0.07214
 O253 O 0.57494 0.53060 0.03909
 Co254 Co 0.52729 0.53202 -0.10643
 Co255 Co 0.49941 0.50511 0.09714
 Co256 Co 0.53613 0.49441 0.00304
 Co257 Co 0.47819 0.54783 -0.00649
 O258 O 0.51017 0.52195 -0.00614
 C259 C 0.53087 0.59393 -0.09732
 C260 C 0.57424 0.53799 0.09935
 C261 C 0.58187 0.52184 -0.09555
 C262 C 0.50809 0.57411 0.11399
 O263 O 0.50673 0.02821 -0.13848
 O264 O 0.47965 -0.03744 0.14060
 O265 O 0.55140 0.05385 0.06325
 O266 O 0.50530 -0.04113 -0.05947
 O267 O 0.51376 0.02615 0.14440
 O268 O 0.47550 -0.03428 -0.13599
 O269 O 0.50575 -0.04565 0.05830
 O270 O 0.54684 0.04516 -0.06176
 C271 C 0.53853 0.03981 -0.12200
 C272 C 0.50112 -0.04618 0.11946
 C273 C 0.54493 0.04528 0.12358
 C274 C 0.49886 -0.04147 -0.11990
 O275 O 0.42009 -0.03348 -0.07256
 O276 O 0.45664 0.02987 0.11604
 O277 O 0.50139 0.06864 -0.06447
 O278 O 0.43420 -0.07434 0.06406
 O279 O 0.42282 -0.03484 0.09786
 O280 O 0.44937 0.02794 -0.08197
 O281 O 0.43353 -0.07283 -0.05879
 O282 O 0.50173 0.07049 0.06187
 Co283 Co 0.46441 -0.00289 -0.09784
 Co284 Co 0.46908 -0.00414 0.11284
 Co285 Co 0.52091 0.05351 -0.00056
 Co286 Co 0.47033 -0.05380 0.00111
 O287 O 0.48103 -0.00151 0.00454
 C288 C 0.41138 -0.06430 -0.07655
 C289 C 0.47660 0.06107 0.10354
 C290 C 0.47087 0.05899 -0.08477
 C291 C 0.41391 -0.06591 0.09389
 C292 C 1.08993 0.42813 0.23138
 C293 C 1.05874 0.42711 0.25225
 C294 C 1.03970 0.43584 0.20727
 C295 C 1.13260 0.42481 0.32242
 C296 C 1.08171 0.44454 0.11877
 C297 C 1.10080 0.43586 0.16401
 C298 C 1.11268 0.42527 0.28069
 C299 C 1.05168 0.44587 0.14071
 H300 H 1.05008 0.42127 0.30421
 H301 H 1.01667 0.43660 0.22571
 H302 H 1.09175 0.45242 0.06807
 H303 H 1.12499 0.43690 0.14731
 C304 C 0.53772 0.65566 0.25897
 C305 C 0.52944 0.62253 0.28059
 C306 C 0.52030 0.59597 0.23358
 C307 C 0.55071 0.70541 0.34672
 C308 C 0.52818 0.63576 0.14317
 C309 C 0.53730 0.66218 0.19011
 C310 C 0.54525 0.68271 0.30709
 C311 C 0.51922 0.60222 0.16430
 H312 H 0.52960 0.61713 0.33380
 H313 H 0.51367 0.57051 0.25148
 H314 H 0.52774 0.64156 0.09027
 H315 H 0.54356 0.68763 0.17270
 C316 C 0.33866 -0.13315 0.23973
 C317 C 0.34140 -0.10116 0.22532
 C318 C 0.36397 -0.08030 0.17412
 C319 C 0.29941 -0.17108 0.34224
 C320 C 0.38000 -0.12405 0.14895
 C321 C 0.35738 -0.14488 0.20028
 C322 C 0.31740 -0.15352 0.29590
 C323 C 0.38431 -0.09107 0.13648
 H324 H 0.32690 -0.09185 0.25503
 H325 H 0.36673 -0.05503 0.16616
 H326 H 0.39544 -0.13303 0.12144
 H327 H 0.35533 -0.16970 0.21055
 C328 C 0.89005 0.55213 0.19426
 C329 C 0.92681 0.56938 0.19016
 C330 C 0.94367 0.55648 0.14898
 C331 C 0.85807 0.56506 0.29350
 C332 C 0.88688 0.51015 0.11311
 C333 C 0.87011 0.52316 0.15415
 C334 C 0.87297 0.56055 0.24681
 C335 C 0.92382 0.52594 0.11214
 H336 H 0.94244 0.59165 0.22152
 H337 H 0.97217 0.56922 0.14917
 H338 H 0.87096 0.48669 0.08506
 H339 H 0.84162 0.50950 0.15747
 C340 C 0.50214 0.37997 0.24923
 C341 C 0.53382 0.39516 0.21287
 C342 C 0.53953 0.41924 0.16220
 C343 C 0.48999 0.33418 0.34475
 C344 C 0.48175 0.41265 0.18416
 C345 C 0.47613 0.38867 0.23463
 C346 C 0.49593 0.35523 0.30130
 C347 C 0.51354 0.42825 0.14764
 H348 H 0.55409 0.38848 0.22382
 H349 H 0.56428 0.43100 0.13492
 H350 H 0.46120 0.41899 0.17383
 H351 H 0.45149 0.37696 0.26234
 C352 C 0.63400 0.09984 0.25009
 C353 C 0.60009 0.08481 0.27820
 C354 C 0.57064 0.06473 0.23830
 C355 C 0.68651 0.14228 0.32685
 C356 C 0.60937 0.07337 0.14336
 C357 C 0.63866 0.09334 0.18323
 C358 C 0.66360 0.12318 0.28947
 C359 C 0.57506 0.05984 0.16993
 H360 H 0.59636 0.08965 0.33026
 H361 H 0.54455 0.05476 0.25977
 H362 H 0.61353 0.06973 0.09081
 H363 H 0.66480 0.10464 0.16133
 C364 C 0.45432 0.12591 -0.21581
 C365 C 0.48400 0.13927 -0.17420
 C366 C 0.48828 0.11791 -0.12808
 C367 C 0.45235 0.16563 -0.31290
 C368 C 0.43216 0.07007 -0.16235
 C369 C 0.42800 0.09150 -0.20870
 C370 C 0.45237 0.14709 -0.26858
 C371 C 0.46289 0.08283 -0.12303
 H372 H 0.50449 0.16590 -0.17918
 H373 H 0.51220 0.12848 -0.09854
 H374 H 0.41222 0.04314 -0.15986
 H375 H 0.40491 0.08091 -0.24064
 C376 C 0.66371 0.54052 -0.23682
 C377 C 0.64586 0.50867 -0.20376
 C378 C 0.61991 0.50283 -0.15582
 C379 C 0.70846 0.54997 -0.33537
 C380 C 0.63028 0.56102 -0.17288
 C381 C 0.65618 0.56679 -0.22068
 C382 C 0.68838 0.54573 -0.28981
 C383 C 0.61156 0.52883 -0.14072
 H384 H 0.65144 0.48813 -0.21610
 H385 H 0.60575 0.47777 -0.13197
 H386 H 0.62430 0.58146 -0.16231
 H387 H 0.66978 0.59149 -0.24612
 C388 C 0.87839 0.31503 -0.21019
 C389 C 0.91519 0.33159 -0.21114
 C390 C 0.93458 0.36039 -0.17044
 C391 C 0.84154 0.27189 -0.30667
 C392 C 0.88025 0.35491 -0.12540
 C393 C 0.86096 0.32609 -0.16591
 C394 C 0.85860 0.29044 -0.26135
 C395 C 0.91722 0.37304 -0.12906
 H396 H 0.92888 0.32339 -0.24581
 H397 H 0.96304 0.37385 -0.17428
 H398 H 0.86619 0.36397 -0.09374
 H399 H 0.83245 0.31357 -0.16530
 C400 C 0.53833 -0.08941 -0.25539
 C401 C 0.55153 -0.08115 -0.18987
 C402 C 0.53996 -0.06389 -0.14690
 C403 C 0.55301 -0.12856 -0.33423
 C404 C 0.50293 -0.06180 -0.23575
 C405 C 0.51458 -0.07908 -0.27872
 C406 C 0.54723 -0.11036 -0.29740
 C407 C 0.51485 -0.05482 -0.16884
 H408 H 0.56993 -0.08897 -0.17132
 H409 H 0.54972 -0.05877 -0.09566
 H410 H 0.48362 -0.05514 -0.25400
 H411 H 0.50423 -0.08535 -0.32948
 C412 C 0.37071 0.48047 -0.27525
 C413 C 0.40503 0.48940 -0.29531
 C414 C 0.43211 0.50058 -0.24746
 C415 C 0.31906 0.46264 -0.36368
 C416 C 0.39045 0.49353 -0.15941
 C417 C 0.36354 0.48237 -0.20713
 C418 C 0.34287 0.47046 -0.32414
 C419 C 0.42516 0.50309 -0.17895
 H420 H 0.41093 0.48808 -0.34795
 H421 H 0.45848 0.50766 -0.26416
 H422 H 0.38406 0.49502 -0.10716
 H423 H 0.33715 0.47559 -0.19093
 C424 C 1.09578 0.63117 -0.22949
 C425 C 1.06655 0.60146 -0.25387
 C426 C 1.04672 0.57377 -0.21065
 C427 C 1.13882 0.67758 -0.31762
 C428 C 1.08397 0.60610 -0.11712
 C429 C 1.10393 0.63379 -0.16067
 C430 C 1.11909 0.65716 -0.27648
 C431 C 1.05586 0.57536 -0.14223
 H432 H 1.05998 0.59908 -0.30697
 H433 H 1.02517 0.55050 -0.23147
 H434 H 1.09181 0.60798 -0.06484
 H435 H 1.12658 0.65661 -0.14123
 C436 C 0.89077 0.52029 -0.27612
 C437 C 0.91596 0.51111 -0.29609
 C438 C 0.93183 0.49997 -0.24808
 C439 C 0.85695 0.53806 -0.36463
 C440 C 0.89761 0.50758 -0.16005
 C441 C 0.88190 0.51870 -0.20793
 C442 C 0.87295 0.53026 -0.32510
 C443 C 0.92255 0.49777 -0.17950
 H444 H 0.92303 0.51219 -0.34878
 H445 H 0.95096 0.49269 -0.26470
 H446 H 0.88988 0.50633 -0.10775
 H447 H 0.86245 0.52568 -0.19179
 C448 C 0.46467 0.36942 -0.22713
 C449 C 0.47051 0.36701 -0.15836
 C450 C 0.47842 0.39481 -0.11522
 C451 C 0.46071 0.32281 -0.31492
 C452 C 0.47309 0.42682 -0.20901
 C453 C 0.46505 0.39903 -0.25184
 C454 C 0.46170 0.34329 -0.27383
 C455 C 0.48092 0.42543 -0.14068
 H456 H 0.47043 0.34427 -0.13869
 H457 H 0.48462 0.39309 -0.06301
 H458 H 0.47473 0.45001 -0.23010
 H459 H 0.46063 0.40126 -0.30490
 C460 C 0.62559 0.08739 -0.25764
 C461 C 0.59164 0.07803 -0.28067
 C462 C 0.56247 0.06016 -0.23823
 C463 C 0.67986 0.12882 -0.33355
 C464 C 0.60112 0.05944 -0.15122
 C465 C 0.63013 0.07721 -0.19361
 C466 C 0.65576 0.10959 -0.29786
 C467 C 0.56718 0.05182 -0.17223
 H468 H 0.58791 0.08577 -0.33040
 H469 H 0.53670 0.05470 -0.25557
 H470 H 0.60549 0.05305 -0.10075
 H471 H 0.65622 0.08417 -0.17546
 C472 C 1.12341 0.46030 -0.23657
 C473 C 1.08955 0.43405 -0.22017
 C474 C 1.06946 0.43988 -0.17244
 C475 C 1.15866 0.45077 -0.33497
 C476 C 1.11745 0.49808 -0.15599
 C477 C 1.13752 0.49218 -0.20384
 C478 C 1.14284 0.45504 -0.28948
 C479 C 1.08305 0.47211 -0.14064
 H480 H 1.07836 0.40933 -0.24536
 H481 H 1.04299 0.41946 -0.16166
 H482 H 1.12844 0.52316 -0.13240
 H483 H 1.16370 0.51270 -0.21638
 C484 C 0.56357 0.68487 -0.21468
 C485 C 0.58387 0.66842 -0.21490
 C486 C 0.57460 0.63995 -0.17317
 C487 C 0.57005 0.72771 -0.31218
 C488 C 0.52573 0.64553 -0.12865
 C489 C 0.53514 0.67404 -0.17017
 C490 C 0.56840 0.70924 -0.26647
 C491 C 0.54465 0.62751 -0.13146
 H492 H 0.60572 0.67646 -0.24972
 H493 H 0.58966 0.62657 -0.17638
 H494 H 0.50265 0.63662 -0.09680
 H495 H 0.51912 0.68650 -0.17010
 C496 C 0.33033 -0.12960 -0.21303
 C497 C 0.33581 -0.09648 -0.19969
 C498 C 0.36037 -0.07594 -0.15105
 C499 C 0.28992 -0.16722 -0.31340
 C500 C 0.37270 -0.12232 -0.12661
 C501 C 0.34809 -0.14280 -0.17508
 C502 C 0.30807 -0.14955 -0.26782
 C503 C 0.37991 -0.08828 -0.11555
 H504 H 0.32209 -0.08606 -0.22857
 H505 H 0.36545 -0.04978 -0.14395
 H506 H 0.38735 -0.13252 -0.10027
 H507 H 0.34390 -0.16849 -0.18476
 C508 C 0.53638 -0.10160 0.24289
 C509 C 0.54736 -0.09463 0.17579
 C510 C 0.53733 -0.07495 0.13636
 C511 C 0.54885 -0.14186 0.32164
 C512 C 0.50641 -0.06821 0.23200
 C513 C 0.51651 -0.08784 0.27130
 C514 C 0.54411 -0.12378 0.28299
 C515 C 0.51606 -0.06224 0.16375
 H516 H 0.56286 -0.10507 0.15358
 H517 H 0.54517 -0.07072 0.08384
 H518 H 0.49002 -0.05880 0.25430
 H519 H 0.50801 -0.09306 0.32342
 C520 C 0.33853 0.44895 0.19524
 C521 C 0.34754 0.47784 0.15473
 C522 C 0.37736 0.49085 0.11357
 C523 C 0.29351 0.43599 0.29444
 C524 C 0.38786 0.44468 0.15013
 C525 C 0.35807 0.43178 0.19143
 C526 C 0.31297 0.44052 0.24779
 C527 C 0.39853 0.47514 0.11286
 H528 H 0.33269 0.49144 0.15781
 H529 H 0.38487 0.51424 0.08518
 H530 H 0.40365 0.43200 0.15054
 H531 H 0.35144 0.40957 0.22310
 C532 C 1.12318 0.62168 0.24693
 C533 C 1.08839 0.61290 0.23263
 C534 C 1.06989 0.58881 0.18256
 C535 C 1.15707 0.66738 0.34216
 C536 C 1.12106 0.58226 0.16040
 C537 C 1.13959 0.60646 0.21065
 C538 C 1.14184 0.64642 0.29878
 C539 C 1.08600 0.57316 0.14616
 H540 H 1.07552 0.62462 0.26031
 H541 H 1.04294 0.58239 0.17249
 H542 H 1.13398 0.57045 0.13322
 H543 H 1.16658 0.61318 0.22138
 C544 C 0.46922 0.13132 0.24162
 C545 C 0.44092 0.09795 0.23403
 C546 C 0.44230 0.07588 0.18552
 C547 C 0.46861 0.17076 0.34134
 C548 C 0.49967 0.12100 0.14920
 C549 C 0.49825 0.14308 0.19801
 C550 C 0.46892 0.15283 0.29586
 C551 C 0.47210 0.08679 0.14367
 H552 H 0.41823 0.08857 0.26711
 H553 H 0.42063 0.04972 0.18280
 H554 H 0.52311 0.13010 0.11836
 H555 H 0.52028 0.16892 0.20319
 C556 C 0.66269 0.57340 0.23099
 C557 C 0.63250 0.57436 0.25185
 C558 C 0.60471 0.56560 0.20691
 C559 C 0.70861 0.57655 0.32204
 C560 C 0.63807 0.55702 0.11845
 C561 C 0.66587 0.56574 0.16364
 C562 C 0.68825 0.57618 0.28032
 C563 C 0.60666 0.55558 0.14042
 H564 H 0.62965 0.58015 0.30378
 H565 H 0.58088 0.56477 0.22535
 H566 H 0.64025 0.54918 0.06779
 H567 H 0.68906 0.56477 0.14695
 C568 C 0.88152 0.34551 0.25968
 C569 C 0.87488 0.33897 0.19081
 C570 C 0.89244 0.36538 0.14376
 C571 C 0.84415 0.29577 0.34746
 C572 C 0.92403 0.40521 0.23411
 C573 C 0.90633 0.37865 0.28124
 C574 C 0.86167 0.31847 0.30785
 C575 C 0.91698 0.39894 0.16480
 H576 H 0.85572 0.31350 0.17345
 H577 H 0.88643 0.35956 0.09083
 H578 H 0.94281 0.43068 0.25194
 H579 H 0.91165 0.38406 0.33448
   
