data_POSCAR
  _audit_creation_date              2014-09-24
  _audit_creation_method            'ToBaCCo'
  _symmetry_space_group_name_H-M    'P1'
  _symmetry_Int_Tables_number       1
  _symmetry_cell_setting            triclinic
  loop_
  _symmetry_equiv_pos_as_xyz
 x,y,z
_cell_length_a 59.7854
_cell_length_b 61.9298
_cell_length_c 24.8700
_cell_angle_alpha 89.825500
_cell_angle_beta 90.642000
_cell_angle_gamma 119.322800
loop_
  _atom_site_label
  _atom_site_type_symbol
  _atom_site_fract_x
  _atom_site_fract_y
  _atom_site_fract_z
C1 C 0.15443 0.41476 0.47697
 C2 C 0.16968 0.41735 0.43202
 C3 C 0.19510 0.42246 0.44144
 C4 C 0.20458 0.42303 0.49403
 C5 C 0.18824 0.41938 0.53781
 C6 C 0.16378 0.41707 0.53006
 C7 C 0.23192 0.42887 0.50322
 C8 C 0.24492 0.43971 0.55206
 C9 C 0.27064 0.44604 0.55996
 C10 C 0.28401 0.44246 0.51840
 C11 C 0.27183 0.43193 0.46943
 C12 C 0.24571 0.42462 0.46257
 H13 H 0.13523 0.41180 0.47068
 H14 H 0.20737 0.42554 0.40756
 H15 H 0.19520 0.41991 0.57818
 H16 H 0.23570 0.44420 0.58384
 H17 H 0.30415 0.44818 0.52419
 H18 H 0.23641 0.41551 0.42537
 C19 C 0.48710 -0.31219 0.49806
 C20 C 0.48928 -0.30087 0.44773
 C21 C 0.49819 -0.27517 0.44665
 C22 C 0.50610 -0.26077 0.49410
 C23 C 0.50544 -0.27260 0.54312
 C24 C 0.49490 -0.29846 0.54620
 C25 C 0.51407 -0.23368 0.49310
 C26 C 0.51093 -0.22208 0.53898
 C27 C 0.51850 -0.19680 0.53910
 C28 C 0.52790 -0.18314 0.49181
 C29 C 0.53020 -0.19431 0.44473
 C30 C 0.52404 -0.21933 0.44617
 H31 H 0.48173 -0.33158 0.49949
 H32 H 0.49772 -0.26668 0.40896
 H33 H 0.51212 -0.26175 0.57951
 H34 H 0.50242 -0.23255 0.57504
 H35 H 0.53217 -0.16400 0.49112
 H36 H 0.52710 -0.22740 0.41044
 C37 C 1.27679 0.83306 0.51295
 C38 C 1.26805 0.82435 0.46036
 C39 C 1.24768 0.79982 0.45428
 C40 C 1.23762 0.78373 0.49875
 C41 C 1.24817 0.79285 0.55016
 C42 C 1.26700 0.81757 0.55758
 C43 C 1.21662 0.75739 0.49180
 C44 C 1.20049 0.74444 0.53516
 C45 C 1.18189 0.71914 0.53123
 C46 C 1.17858 0.70737 0.48103
 C47 C 1.19350 0.72012 0.43673
 C48 C 1.21272 0.74484 0.44244
 H49 H 1.29284 0.85140 0.51981
 H50 H 1.23916 0.79356 0.41493
 H51 H 1.24196 0.78092 0.58497
 H52 H 1.20169 0.75439 0.57159
 H53 H 1.16491 0.68792 0.47591
 H54 H 1.22487 0.75379 0.40838
 C55 C 0.85405 0.57573 0.50811
 C56 C 0.84104 0.57208 0.45893
 C57 C 0.81844 0.57364 0.45655
 C58 C 0.80879 0.57918 0.50290
 C59 C 0.82265 0.58338 0.55178
 C60 C 0.84482 0.58103 0.55488
 C61 C 0.78355 0.57888 0.50106
 C62 C 0.76825 0.57281 0.54752
 C63 C 0.74384 0.57098 0.54627
 C64 C 0.73480 0.57520 0.49709
 C65 C 0.74945 0.58118 0.45037
 C66 C 0.77387 0.58327 0.45256
 H67 H 0.87102 0.57365 0.51024
 H68 H 0.80791 0.56925 0.41887
 H69 H 0.81630 0.58829 0.58797
 H70 H 0.77447 0.56771 0.58398
 H71 H 0.71628 0.57430 0.49478
 H72 H 0.78516 0.58846 0.41635
 C73 C 0.49885 0.30571 0.50633
 C74 C 0.48991 0.29232 0.45834
 C75 C 0.48413 0.26754 0.45673
 C76 C 0.48747 0.25594 0.50271
 C77 C 0.49583 0.26972 0.55120
 C78 C 0.50128 0.29457 0.55374
 C79 C 0.48212 0.22959 0.50000
 C80 C 0.47588 0.21485 0.54671
 C81 C 0.47148 0.19031 0.54520
 C82 C 0.47133 0.17995 0.49479
 C83 C 0.47744 0.19413 0.44779
 C84 C 0.48351 0.21901 0.45081
 H85 H 0.50257 0.32466 0.50696
 H86 H 0.47637 0.25732 0.41973
 H87 H 0.49939 0.26168 0.58664
 H88 H 0.47357 0.22210 0.58442
 H89 H 0.46868 0.16141 0.49196
 H90 H 0.48935 0.22994 0.41446
 C91 C 0.71102 0.17429 0.49347
 C92 C 0.71853 0.19012 0.44911
 C93 C 0.73757 0.21490 0.45553
 C94 C 0.75039 0.22375 0.50537
 C95 C 0.74275 0.20715 0.54933
 C96 C 0.72255 0.18269 0.54404
 C97 C 0.77095 0.25032 0.51167
 C98 C 0.77640 0.26208 0.56244
 C99 C 0.79517 0.28715 0.56901
 C100 C 0.80748 0.30082 0.52276
 C101 C 0.80236 0.28971 0.47187
 C102 C 0.78480 0.26438 0.46684
 H103 H 0.69515 0.15561 0.48893
 H104 H 0.74204 0.22708 0.42133
 H105 H 0.75231 0.21294 0.58796
 H106 H 0.76516 0.25213 0.59679
 H107 H 0.82250 0.31992 0.52610
 H108 H 0.78188 0.25596 0.42755
 N109 N 0.98499 0.52591 0.06421
 N110 N 0.96954 0.53418 0.08039
 N111 N 1.03816 0.52990 0.08560
 N112 N 1.05785 0.54069 0.11899
 N113 N 1.03820 0.54596 0.05095
 N114 N 1.05789 0.56826 0.06046
 N115 N 0.98510 0.50993 0.09889
 N116 N 0.96980 0.50684 0.13926
 C117 C 0.96006 0.52190 0.12724
 C118 C 1.07020 0.56454 0.10264
 N119 N 1.02739 0.46422 0.04523
 N120 N 1.04172 0.45370 0.05490
 N121 N 0.97850 0.46080 0.09566
 N122 N 0.96268 0.45056 0.13612
 N123 N 0.97421 0.44430 0.05818
 N124 N 0.95530 0.42236 0.07220
 N125 N 1.03160 0.48094 0.08218
 N126 N 1.04886 0.48237 0.11733
 Mn127 Mn 1.00835 0.49542 0.09087
 C128 C 1.05537 0.46562 0.09968
 C129 C 0.94814 0.42662 0.12082
 N130 N 1.03116 0.54493 -0.06501
 N131 N 1.04875 0.56713 -0.08132
 N132 N 0.97361 0.50843 -0.08843
 N133 N 0.95539 0.50648 -0.12175
 N134 N 0.97824 0.52522 -0.05139
 N135 N 0.96348 0.53537 -0.05911
 N136 N 1.02672 0.52825 -0.10224
 N137 N 1.04126 0.53856 -0.14437
 Mn138 Mn 1.00821 0.53580 -0.00024
 C139 C 1.05516 0.56275 -0.13067
 C140 C 0.94901 0.52315 -0.10268
 N141 N 0.96713 0.44335 -0.05687
 N142 N 0.94559 0.42197 -0.06084
 N143 N 1.01998 0.47892 -0.10593
 N144 N 1.03309 0.47981 -0.14891
 N145 N 1.02032 0.46324 -0.07067
 N146 N 1.03376 0.45310 -0.08892
 N147 N 0.96703 0.45934 -0.09150
 N148 N 0.94548 0.44945 -0.11960
 Mn149 Mn 0.99727 0.45351 -0.00613
 Mn150 Mn 0.99682 0.49371 -0.09739
 Cl151 Cl 1.00272 0.49464 -0.00327
 C152 C 0.93225 0.42616 -0.10012
 C153 C 1.04189 0.46390 -0.13760
 N154 N 0.48947 0.45270 0.05090
 N155 N 0.48661 0.43042 0.05951
 N156 N 0.47008 0.48689 0.09774
 N157 N 0.45617 0.48797 0.13738
 N158 N 0.45525 0.47129 0.06050
 N159 N 0.43086 0.46149 0.07369
 N160 N 0.50425 0.46828 0.08827
 N161 N 0.51182 0.45702 0.12309
 C162 C 0.50097 0.43350 0.10433
 C163 C 0.43172 0.47222 0.12160
 N164 N 0.52613 0.55363 0.06202
 N165 N 0.52647 0.57467 0.07257
 N166 N 0.54707 0.51811 0.08964
 N167 N 0.56287 0.51651 0.12483
 N168 N 0.56000 0.53449 0.05243
 N169 N 0.58495 0.54434 0.06124
 N170 N 0.51288 0.53688 0.09836
 N171 N 0.50387 0.54609 0.13458
 Mn172 Mn 0.50857 0.50255 0.09405
 C173 C 0.51250 0.56970 0.11799
 C174 C 0.58645 0.53272 0.10626
 N175 N 0.45181 0.47333 -0.05479
 N176 N 0.42693 0.46532 -0.06036
 N177 N 0.49878 0.47177 -0.10124
 N178 N 0.50757 0.46320 -0.13908
 N179 N 0.48626 0.45468 -0.06512
 N180 N 0.48608 0.43383 -0.07777
 N181 N 0.46477 0.49054 -0.09033
 N182 N 0.44924 0.49482 -0.12088
 Mn183 Mn 0.47047 0.46268 -0.00216
 C184 C 0.42569 0.47906 -0.10171
 C185 C 0.49960 0.43955 -0.12413
 N186 N 0.55658 0.53633 -0.06351
 N187 N 0.58077 0.54577 -0.07841
 N188 N 0.50734 0.53995 -0.08939
 N189 N 0.49852 0.55082 -0.12228
 N190 N 0.52292 0.55570 -0.05330
 N191 N 0.52523 0.57784 -0.06094
 N192 N 0.54109 0.52103 -0.10036
 N193 N 0.55413 0.51962 -0.14108
 Mn194 Mn 0.54170 0.54529 -0.00052
 Mn195 Mn 0.50292 0.50582 -0.09567
 Cl196 Cl 0.50594 0.50408 -0.00098
 C197 C 0.57883 0.53490 -0.12685
 C198 C 0.50961 0.57438 -0.10384
 N199 N 0.44472 -0.02824 0.05741
 N200 N 0.42085 -0.04486 0.06865
 N201 N 0.48736 0.02440 0.09196
 N202 N 0.49313 0.04254 0.12648
 N203 N 0.47118 0.02384 0.05515
 N204 N 0.46538 0.04156 0.06389
 N205 N 0.46051 -0.02765 0.09524
 N206 N 0.44776 -0.04378 0.13334
 C207 C 0.42306 -0.05460 0.11592
 C208 C 0.47943 0.05322 0.10835
 N209 N 0.55061 0.02317 0.05678
 N210 N 0.57431 0.04133 0.06457
 N211 N 0.50858 -0.02796 0.09633
 N212 N 0.50561 -0.04311 0.13629
 N213 N 0.52376 -0.02891 0.05970
 N214 N 0.53147 -0.04483 0.07406
 N215 N 0.53523 0.02400 0.09294
 N216 N 0.54797 0.04275 0.12619
 Mn217 Mn 0.49793 -0.00178 0.09458
 C218 C 0.57232 0.05347 0.10791
 C219 C 0.51966 -0.05380 0.12168
 N220 N 0.47035 0.02242 -0.06072
 N221 N 0.46300 0.03876 -0.07297
 N222 N 0.45958 -0.02972 -0.09508
 N223 N 0.44721 -0.04857 -0.12824
 N224 N 0.44406 -0.02951 -0.05846
 N225 N 0.42058 -0.04813 -0.06605
 N226 N 0.48618 0.02246 -0.09695
 N227 N 0.49021 0.03902 -0.13457
 Mn228 Mn 0.45732 -0.00290 -0.00167
 C229 C 0.47581 0.04920 -0.11874
 C230 C 0.42291 -0.05993 -0.10968
 N231 N 0.52305 -0.03012 -0.05719
 N232 N 0.52889 -0.04773 -0.06721
 N233 N 0.53428 0.02191 -0.09629
 N234 N 0.54707 0.03836 -0.13382
 N235 N 0.55001 0.02202 -0.05890
 N236 N 0.57392 0.03876 -0.06974
 N237 N 0.50726 -0.03005 -0.09422
 N238 N 0.50169 -0.04769 -0.12988
 Mn239 Mn 0.53709 -0.00353 0.00012
 Mn240 Mn 0.49684 -0.00378 -0.09614
 Cl241 Cl 0.49731 -0.00302 -0.00077
 C242 C 0.51512 -0.05872 -0.11248
 C243 C 0.57176 0.04895 -0.11646
 C244 C 1.13321 0.40204 0.36840
 C245 C 1.12271 0.40408 0.31966
 C246 C 1.13841 0.42035 0.27987
 C247 C 1.16507 0.43262 0.28752
 C248 C 1.17573 0.43065 0.33657
 C249 C 1.15980 0.41634 0.37916
 C250 C 1.12697 0.42678 0.23373
 C251 C 1.10783 0.43167 0.24232
 C252 C 1.09752 0.44191 0.20169
 C253 C 1.09158 0.46000 0.21859
 C254 C 1.07911 0.46845 0.18408
 C255 C 1.07159 0.45848 0.13211
 C256 C 1.07815 0.44078 0.11430
 C257 C 1.09129 0.43267 0.14884
 H258 H 1.12021 0.38925 0.39778
 H259 H 1.10210 0.39362 0.31381
 H260 H 1.17754 0.44514 0.25707
 H261 H 1.19621 0.44216 0.34205
 H262 H 1.13614 0.43054 0.19489
 H263 H 1.10099 0.43055 0.28300
 H264 H 1.09620 0.46733 0.25918
 H265 H 1.07444 0.48213 0.19913
 H266 H 1.07255 0.43280 0.07444
 H267 H 1.09547 0.41844 0.13527
 C268 C 0.46600 0.65933 0.39944
 C269 C 0.46365 0.64452 0.35530
 C270 C 0.47913 0.65464 0.31020
 C271 C 0.49538 0.68043 0.30800
 C272 C 0.49754 0.69543 0.35202
 C273 C 0.48385 0.68494 0.39974
 C274 C 0.47863 0.63737 0.26843
 C275 C 0.49878 0.64220 0.23745
 C276 C 0.50026 0.62299 0.20463
 C277 C 0.51653 0.63027 0.16005
 C278 C 0.52007 0.61288 0.13102
 C279 C 0.50773 0.58790 0.14665
 C280 C 0.49132 0.58054 0.19100
 C281 C 0.48763 0.59787 0.21974
 H282 H 0.45374 0.65050 0.43348
 H283 H 0.45042 0.62480 0.35747
 H284 H 0.50694 0.68906 0.27299
 H285 H 0.51149 0.71493 0.34970
 H286 H 0.46194 0.61909 0.26714
 H287 H 0.51549 0.66047 0.23788
 H288 H 0.52673 0.64953 0.14801
 H289 H 0.53290 0.61908 0.09707
 H290 H 0.48165 0.56143 0.20410
 H291 H 0.47566 0.59161 0.25496
 C292 C 0.29455 -0.13452 0.41962
 C293 C 0.31090 -0.11995 0.37898
 C294 C 0.31380 -0.13078 0.33219
 C295 C 0.29873 -0.15654 0.32530
 C296 C 0.28230 -0.17124 0.36606
 C297 C 0.28082 -0.16061 0.41524
 C298 C 0.33458 -0.11490 0.29489
 C299 C 0.33608 -0.12068 0.24368
 C300 C 0.35858 -0.10462 0.21047
 C301 C 0.35522 -0.10114 0.15584
 C302 C 0.37624 -0.08510 0.12469
 C303 C 0.40103 -0.07275 0.14746
 C304 C 0.40451 -0.07712 0.20150
 C305 C 0.38350 -0.09282 0.23276
 H306 H 0.29298 -0.12507 0.45466
 H307 H 0.32192 -0.10008 0.38489
 H308 H 0.30070 -0.16564 0.29006
 H309 H 0.27260 -0.19109 0.36028
 H310 H 0.34953 -0.09740 0.31079
 H311 H 0.32032 -0.13677 0.22496
 H312 H 0.33623 -0.11031 0.13770
 H313 H 0.37307 -0.08219 0.08297
 H314 H 0.42341 -0.06800 0.22000
 H315 H 0.38678 -0.09575 0.27438
 C316 C 0.85447 0.57815 0.36241
 C317 C 0.86510 0.57247 0.31842
 C318 C 0.87171 0.55365 0.32216
 C319 C 0.86610 0.53968 0.36985
 C320 C 0.85585 0.54557 0.41383
 C321 C 0.85038 0.56510 0.41085
 C322 C 0.88459 0.54915 0.27628
 C323 C 0.89985 0.53912 0.28314
 C324 C 0.91331 0.53411 0.23952
 C325 C 0.92090 0.51633 0.24926
 C326 C 0.93537 0.51199 0.21183
 C327 C 0.94290 0.52554 0.16380
 C328 C 0.93492 0.54304 0.15313
 C329 C 0.92019 0.54732 0.19075
 H330 H 0.85019 0.59320 0.35922
 H331 H 0.86882 0.58323 0.28192
 H332 H 0.86952 0.52414 0.37362
 H333 H 0.85217 0.53483 0.45037
 H334 H 0.88194 0.55486 0.23665
 H335 H 0.90284 0.53402 0.32313
 H336 H 0.91589 0.50593 0.28646
 H337 H 0.94112 0.49831 0.22120
 H338 H 0.94057 0.55380 0.11645
 H339 H 0.91510 0.56153 0.18234
 C340 C 0.47429 0.31907 0.41585
 C341 C 0.47433 0.33391 0.37365
 C342 C 0.48618 0.33453 0.32491
 C343 C 0.49700 0.31900 0.31823
 C344 C 0.49699 0.30409 0.36076
 C345 C 0.48634 0.30464 0.41046
 C346 C 0.48913 0.35351 0.28511
 C347 C 0.49412 0.35307 0.23286
 C348 C 0.49813 0.37384 0.19742
 C349 C 0.48716 0.36919 0.14568
 C350 C 0.48871 0.38869 0.11427
 C351 C 0.50166 0.41313 0.13394
 C352 C 0.51398 0.41785 0.18432
 C353 C 0.51222 0.39843 0.21575
 H354 H 0.46559 0.31951 0.45351
 H355 H 0.46578 0.34561 0.37977
 H356 H 0.50667 0.31929 0.28152
 H357 H 0.50653 0.29321 0.35583
 H358 H 0.48691 0.36879 0.29995
 H359 H 0.49398 0.33703 0.21533
 H360 H 0.47648 0.35039 0.13057
 H361 H 0.47921 0.38458 0.07533
 H362 H 0.52436 0.43651 0.20029
 H363 H 0.52155 0.40260 0.25488
 C364 C 0.69465 0.19285 0.36818
 C365 C 0.67972 0.18206 0.32202
 C366 C 0.67585 0.15913 0.30307
 C367 C 0.68762 0.14739 0.33060
 C368 C 0.70228 0.15804 0.37689
 C369 C 0.70553 0.18060 0.39665
 C370 C 0.65707 0.14647 0.25902
 C371 C 0.65741 0.12894 0.22810
 C372 C 0.63564 0.11216 0.19302
 C373 C 0.64004 0.09987 0.15056
 C374 C 0.61949 0.08144 0.12124
 C375 C 0.59415 0.07468 0.13458
 C376 C 0.58973 0.08741 0.17603
 C377 C 0.61024 0.10596 0.20499
 H378 H 0.69670 0.21016 0.38301
 H379 H 0.67059 0.19130 0.30190
 H380 H 0.68450 0.12938 0.31829
 H381 H 0.71053 0.14828 0.39824
 H382 H 0.64197 0.15117 0.25349
 H383 H 0.67383 0.12601 0.22983
 H384 H 0.65940 0.10413 0.14096
 H385 H 0.62341 0.07186 0.08949
 H386 H 0.57036 0.08255 0.18716
 H387 H 0.60598 0.11446 0.23838
 C388 C 0.48280 0.18942 -0.35969
 C389 C 0.48411 0.17619 -0.31527
 C390 C 0.47112 0.15027 -0.31579
 C391 C 0.45615 0.13769 -0.36095
 C392 C 0.45532 0.15083 -0.40593
 C393 C 0.46922 0.17698 -0.40682
 C394 C 0.47568 0.13680 -0.27176
 C395 C 0.45778 0.11439 -0.25542
 C396 C 0.46365 0.09951 -0.21725
 C397 C 0.44520 0.08451 -0.17973
 C398 C 0.44964 0.06885 -0.14606
 C399 C 0.47223 0.06737 -0.15072
 C400 C 0.49074 0.08242 -0.18815
 C401 C 0.48660 0.09855 -0.22083
 H402 H 0.49427 0.20940 -0.35828
 H403 H 0.49592 0.18624 -0.28095
 H404 H 0.44608 0.11766 -0.36272
 H405 H 0.44371 0.14033 -0.44000
 H406 H 0.49451 0.14550 -0.25280
 H407 H 0.43825 0.10663 -0.27038
 H408 H 0.42729 0.08481 -0.17678
 H409 H 0.43499 0.05726 -0.11775
 H410 H 0.50827 0.08152 -0.19252
 H411 H 0.50090 0.10953 -0.25032
 C412 C 0.73948 0.57234 -0.35517
 C413 C 0.72396 0.56874 -0.31041
 C414 C 0.69726 0.55755 -0.31651
 C415 C 0.68621 0.54822 -0.36720
 C416 C 0.70152 0.55205 -0.41175
 C417 C 0.72849 0.56497 -0.40713
 C418 C 0.68097 0.55569 -0.27032
 C419 C 0.65934 0.55680 -0.27809
 C420 C 0.63977 0.55127 -0.23686
 C421 C 0.61423 0.54047 -0.25447
 C422 C 0.59468 0.53496 -0.21822
 C423 C 0.60023 0.54067 -0.16347
 C424 C 0.62585 0.55180 -0.14542
 C425 C 0.64558 0.55688 -0.18193
 H426 H 0.76007 0.58237 -0.34922
 H427 H 0.73289 0.57559 -0.27144
 H428 H 0.66559 0.53795 -0.37274
 H429 H 0.69195 0.54431 -0.44973
 H430 H 0.68662 0.55308 -0.23037
 H431 H 0.65451 0.56011 -0.31826
 H432 H 0.60933 0.53605 -0.29660
 H433 H 0.57515 0.52652 -0.23342
 H434 H 0.63055 0.55640 -0.10333
 H435 H 0.66523 0.56560 -0.16748
 C436 C 0.80153 0.28422 -0.33357
 C437 C 0.81216 0.29584 -0.28435
 C438 C 0.82302 0.32155 -0.27883
 C439 C 0.82244 0.33540 -0.32313
 C440 C 0.81224 0.32395 -0.37242
 C441 C 0.80232 0.29823 -0.37923
 C442 C 0.83784 0.33394 -0.22951
 C443 C 0.84116 0.35593 -0.21308
 C444 C 0.86221 0.37282 -0.17652
 C445 C 0.87088 0.39827 -0.18126
 C446 C 0.89314 0.41548 -0.15466
 C447 C 0.90704 0.40763 -0.12195
 C448 C 0.89747 0.38217 -0.11382
 C449 C 0.87523 0.36484 -0.14104
 H450 H 0.79461 0.26451 -0.33645
 H451 H 0.81267 0.28481 -0.25096
 H452 H 0.83107 0.35535 -0.32090
 H453 H 0.81226 0.33550 -0.40516
 H454 H 0.84809 0.32571 -0.20996
 H455 H 0.83013 0.36338 -0.23265
 H456 H 0.86115 0.40495 -0.20789
 H457 H 0.89989 0.43502 -0.16104
 H458 H 0.90773 0.37568 -0.08828
 H459 H 0.86871 0.34536 -0.13502
 C460 C 0.49317 -0.19572 -0.38212
 C461 C 0.49039 -0.18359 -0.33748
 C462 C 0.51041 -0.16038 -0.32113
 C463 C 0.53336 -0.14950 -0.35043
 C464 C 0.53604 -0.16152 -0.39533
 C465 C 0.51592 -0.18466 -0.41186
 C466 C 0.50588 -0.14705 -0.27692
 C467 C 0.52476 -0.12931 -0.24716
 C468 C 0.52038 -0.11343 -0.20901
 C469 C 0.53790 -0.10172 -0.16652
 C470 C 0.53566 -0.08465 -0.13329
 C471 C 0.51613 -0.07870 -0.14273
 C472 C 0.49831 -0.09080 -0.18445
 C473 C 0.50038 -0.10795 -0.21724
 H474 H 0.47724 -0.21340 -0.39436
 H475 H 0.47241 -0.19220 -0.31605
 H476 H 0.54894 -0.13132 -0.34008
 H477 H 0.55380 -0.15264 -0.41750
 H478 H 0.48615 -0.15206 -0.26906
 H479 H 0.54422 -0.12597 -0.25111
 H480 H 0.55362 -0.10544 -0.15970
 H481 H 0.54973 -0.07547 -0.10157
 H482 H 0.48307 -0.08653 -0.19274
 H483 H 0.48696 -0.11597 -0.25044
 C484 C 0.30726 0.47874 -0.38751
 C485 C 0.32199 0.48672 -0.34040
 C486 C 0.31401 0.47224 -0.29369
 C487 C 0.28995 0.45056 -0.29364
 C488 C 0.27496 0.44278 -0.34069
 C489 C 0.28397 0.45640 -0.38836
 C490 C 0.33228 0.47950 -0.24785
 C491 C 0.33450 0.46288 -0.21674
 C492 C 0.35733 0.46919 -0.18225
 C493 C 0.35572 0.45267 -0.14163
 C494 C 0.37775 0.45631 -0.11348
 C495 C 0.40182 0.47638 -0.12610
 C496 C 0.40332 0.49331 -0.16544
 C497 C 0.38142 0.48977 -0.19331
 H498 H 0.31445 0.48956 -0.42385
 H499 H 0.34036 0.50358 -0.34131
 H500 H 0.28296 0.43933 -0.25784
 H501 H 0.25699 0.42550 -0.34063
 H502 H 0.34636 0.49892 -0.24451
 H503 H 0.32027 0.44347 -0.21994
 H504 H 0.33749 0.43653 -0.13272
 H505 H 0.37608 0.44294 -0.08337
 H506 H 0.42163 0.50896 -0.17607
 H507 H 0.38387 0.50255 -0.22534
 C508 C 1.17723 0.71266 -0.37032
 C509 C 1.16400 0.69808 -0.32618
 C510 C 1.14076 0.67610 -0.33348
 C511 C 1.13011 0.66976 -0.38547
 C512 C 1.14322 0.68423 -0.42960
 C513 C 1.16744 0.70567 -0.42332
 C514 C 1.12810 0.66000 -0.28660
 C515 C 1.11432 0.63528 -0.29153
 C516 C 1.10125 0.61780 -0.24685
 C517 C 1.09239 0.59256 -0.25627
 C518 C 1.07823 0.57490 -0.21763
 C519 C 1.07247 0.58202 -0.16848
 C520 C 1.08188 0.60731 -0.15802
 C521 C 1.09609 0.62509 -0.19694
 H522 H 1.19586 0.72853 -0.36253
 H523 H 1.17248 0.70350 -0.28637
 H524 H 1.11152 0.65363 -0.39227
 H525 H 1.13380 0.67869 -0.46846
 H526 H 1.13166 0.66861 -0.24736
 H527 H 1.11309 0.62707 -0.33063
 H528 H 1.09605 0.58638 -0.29422
 H529 H 1.07131 0.55555 -0.22682
 H530 H 1.07755 0.61327 -0.12055
 H531 H 1.10216 0.64429 -0.18831
 C532 C 0.88393 0.59469 -0.38663
 C533 C 0.89564 0.59220 -0.33982
 C534 C 0.88081 0.57623 -0.29864
 C535 C 0.85390 0.56423 -0.30328
 C536 C 0.84217 0.56701 -0.34977
 C537 C 0.85710 0.58165 -0.39257
 C538 C 0.89396 0.57139 -0.25314
 C539 C 0.88463 0.54886 -0.23105
 C540 C 0.89988 0.54227 -0.19395
 C541 C 0.89696 0.51842 -0.19725
 C542 C 0.91253 0.51206 -0.16646
 C543 C 0.93090 0.52924 -0.13068
 C544 C 0.93292 0.55270 -0.12506
 C545 C 0.91766 0.55926 -0.15677
 H546 H 0.89584 0.60624 -0.41889
 H547 H 0.91639 0.60182 -0.33693
 H548 H 0.84193 0.55229 -0.27157
 H549 H 0.82145 0.55672 -0.35340
 H550 H 0.91322 0.58571 -0.24272
 H551 H 0.86658 0.53387 -0.24585
 H552 H 0.88325 0.50496 -0.22528
 H553 H 0.91049 0.49380 -0.17128
 H554 H 0.94693 0.56626 -0.09766
 H555 H 0.91992 0.57761 -0.15248
 C556 C 0.49612 0.29637 -0.34833
 C557 C 0.49817 0.31059 -0.30278
 C558 C 0.51222 0.33656 -0.30464
 C559 C 0.52637 0.34786 -0.35109
 C560 C 0.52380 0.33386 -0.39679
 C561 C 0.50762 0.30798 -0.39719
 C562 C 0.51080 0.35148 -0.25930
 C563 C 0.51394 0.37426 -0.26724
 C564 C 0.51173 0.39022 -0.22578
 C565 C 0.52300 0.41558 -0.23700
 C566 C 0.51956 0.43145 -0.20292
 C567 C 0.50453 0.42238 -0.15669
 C568 C 0.49376 0.39710 -0.14416
 C569 C 0.49732 0.38106 -0.17850
 H570 H 0.48361 0.27653 -0.34634
 H571 H 0.48760 0.30134 -0.26702
 H572 H 0.53907 0.36765 -0.35300
 H573 H 0.53453 0.34348 -0.43210
 H574 H 0.50579 0.34306 -0.21993
 H575 H 0.51812 0.38203 -0.30727
 H576 H 0.53418 0.42314 -0.27306
 H577 H 0.52828 0.45084 -0.21361
 H578 H 0.48206 0.38964 -0.10876
 H579 H 0.48799 0.36154 -0.16901
 C580 C 0.70279 0.14076 -0.41284
 C581 C 0.68762 0.12453 -0.37274
 C582 C 0.68123 0.13344 -0.32696
 C583 C 0.69155 0.15917 -0.32061
 C584 C 0.70663 0.17544 -0.36101
 C585 C 0.71162 0.16631 -0.40845
 C586 C 0.66130 0.11529 -0.29082
 C587 C 0.65808 0.11996 -0.23974
 C588 C 0.63591 0.10193 -0.20807
 C589 C 0.63896 0.09862 -0.15317
 C590 C 0.61812 0.08137 -0.12313
 C591 C 0.59374 0.06768 -0.14726
 C592 C 0.59056 0.07161 -0.20176
 C593 C 0.61143 0.08844 -0.23194
 H594 H 0.70665 0.13319 -0.44851
 H595 H 0.67999 0.10481 -0.37854
 H596 H 0.68667 0.16670 -0.28634
 H597 H 0.71289 0.19499 -0.35673
 H598 H 0.64840 0.09717 -0.30759
 H599 H 0.67209 0.13691 -0.22025
 H600 H 0.65757 0.10905 -0.13382
 H601 H 0.62103 0.07880 -0.08105
 H602 H 0.57198 0.06140 -0.22135
 H603 H 0.60835 0.09112 -0.27385
 C604 C 1.15201 0.41190 -0.37327
 C605 C 1.13882 0.41523 -0.33060
 C606 C 1.12300 0.42580 -0.33932
 C607 C 1.12092 0.43323 -0.39173
 C608 C 1.13374 0.42970 -0.43424
 C609 C 1.14964 0.41899 -0.42622
 C610 C 1.11023 0.43026 -0.29294
 C611 C 1.09019 0.43422 -0.29909
 C612 C 1.07922 0.44219 -0.25546
 C613 C 1.06832 0.45699 -0.26945
 C614 C 1.05691 0.46452 -0.23070
 C615 C 1.05562 0.45696 -0.17703
 C616 C 1.06653 0.44213 -0.16264
 C617 C 1.07843 0.43491 -0.20153
 H618 H 1.16343 0.40311 -0.36453
 H619 H 1.14098 0.40951 -0.29057
 H620 H 1.11028 0.44280 -0.40033
 H621 H 1.13232 0.43705 -0.47286
 H622 H 1.11813 0.43109 -0.25313
 H623 H 1.08197 0.43299 -0.33864
 H624 H 1.06865 0.46281 -0.31072
 H625 H 1.04859 0.47585 -0.24314
 H626 H 1.06567 0.43597 -0.12154
 H627 H 1.08628 0.42312 -0.18968
 C628 C 0.47210 0.66486 -0.39657
 C629 C 0.46984 0.65218 -0.34882
 C630 C 0.48777 0.66322 -0.30706
 C631 C 0.50735 0.68789 -0.31275
 C632 C 0.50943 0.70086 -0.36038
 C633 C 0.49223 0.68932 -0.40389
 C634 C 0.48570 0.64779 -0.25984
 C635 C 0.50595 0.65065 -0.23052
 C636 C 0.50460 0.63120 -0.19361
 C637 C 0.52284 0.63763 -0.15194
 C638 C 0.52386 0.61925 -0.12072
 C639 C 0.50690 0.59411 -0.13142
 C640 C 0.48826 0.58772 -0.17210
 C641 C 0.48714 0.60599 -0.20294
 H642 H 0.45752 0.65547 -0.42727
 H643 H 0.45431 0.63331 -0.34513
 H644 H 0.52121 0.69718 -0.28079
 H645 H 0.52547 0.71943 -0.36372
 H646 H 0.46709 0.63182 -0.25289
 H647 H 0.52459 0.66674 -0.23637
 H648 H 0.53670 0.65688 -0.14438
 H649 H 0.53850 0.62465 -0.08972
 H650 H 0.47500 0.56849 -0.18136
 H651 H 0.47339 0.60009 -0.23579
 C652 C 0.28039 -0.14994 -0.37133
 C653 C 0.29308 -0.13917 -0.32312
 C654 C 0.30373 -0.15070 -0.29146
 C655 C 0.29984 -0.17415 -0.30696
 C656 C 0.28686 -0.18507 -0.35501
 C657 C 0.27769 -0.17270 -0.38831
 C658 C 0.32011 -0.13694 -0.24491
 C659 C 0.34094 -0.13852 -0.23058
 C660 C 0.36117 -0.12022 -0.19454
 C661 C 0.38671 -0.11391 -0.20418
 C662 C 0.40672 -0.09469 -0.17557
 C663 C 0.40154 -0.08168 -0.13599
 C664 C 0.37594 -0.08891 -0.12394
 C665 C 0.35587 -0.10799 -0.15311
 H666 H 0.27318 -0.14021 -0.39610
 H667 H 0.29563 -0.12121 -0.31181
 H668 H 0.30723 -0.18383 -0.28264
 H669 H 0.28494 -0.20268 -0.36726
 H670 H 0.31715 -0.12252 -0.22761
 H671 H 0.34529 -0.15123 -0.25185
 H672 H 0.39127 -0.12320 -0.23554
 H673 H 0.42629 -0.08968 -0.18523
 H674 H 0.37145 -0.07931 -0.09321
 H675 H 0.33632 -0.11290 -0.14366
 C676 C 0.52282 -0.19129 0.34597
 C677 C 0.52530 -0.17687 0.30061
 C678 C 0.54147 -0.15113 0.30215
 C679 C 0.55704 -0.14038 0.34786
 C680 C 0.55474 -0.15479 0.39297
 C681 C 0.53676 -0.18021 0.39342
 C682 C 0.54004 -0.13565 0.25815
 C683 C 0.54003 -0.11448 0.26913
 C684 C 0.53432 -0.10011 0.22908
 C685 C 0.52223 -0.08701 0.24699
 C686 C 0.51693 -0.07259 0.21154
 C687 C 0.52415 -0.07045 0.15743
 C688 C 0.53634 -0.08350 0.13917
 C689 C 0.54123 -0.09840 0.17467
 H690 H 0.50876 -0.21081 0.34500
 H691 H 0.51329 -0.18558 0.26561
 H692 H 0.57033 -0.12067 0.34947
 H693 H 0.56627 -0.14583 0.42836
 H694 H 0.53559 -0.14325 0.21781
 H695 H 0.54172 -0.10860 0.31069
 H696 H 0.51677 -0.08798 0.28871
 H697 H 0.50764 -0.06267 0.22694
 H698 H 0.54218 -0.08207 0.09766
 H699 H 0.55097 -0.10800 0.15994
 C700 C 0.30557 0.42281 0.43515
 C701 C 0.32304 0.42519 0.39570
 C702 C 0.32241 0.43479 0.34488
 C703 C 0.30309 0.44095 0.33348
 C704 C 0.28557 0.43857 0.37310
 C705 C 0.28714 0.43017 0.42481
 C706 C 0.34374 0.44042 0.30757
 C707 C 0.34314 0.44443 0.25469
 C708 C 0.36594 0.45206 0.22057
 C709 C 0.36273 0.44418 0.16682
 C710 C 0.38410 0.45086 0.13432
 C711 C 0.40902 0.46596 0.15481
 C712 C 0.41217 0.47454 0.20801
 C713 C 0.39087 0.46765 0.24060
 H714 H 0.30702 0.41599 0.47446
 H715 H 0.33766 0.42025 0.40554
 H716 H 0.30223 0.44888 0.29524
 H717 H 0.27177 0.44467 0.36426
 H718 H 0.36090 0.44131 0.32487
 H719 H 0.32550 0.44132 0.23536
 H720 H 0.34369 0.43246 0.15031
 H721 H 0.38113 0.44413 0.09329
 H722 H 0.43113 0.48637 0.22474
 H723 H 0.39397 0.47476 0.28131
 C724 C 1.18163 0.71638 0.33913
 C725 C 1.17270 0.70208 0.29220
 C726 C 1.17056 0.67847 0.28968
 C727 C 1.17953 0.67035 0.33373
 C728 C 1.18806 0.68446 0.38078
 C729 C 1.18849 0.70724 0.38437
 C730 C 1.15755 0.66242 0.24223
 C731 C 1.14604 0.63760 0.24454
 C732 C 1.12950 0.62037 0.20165
 C733 C 1.12285 0.59537 0.20646
 C734 C 1.10449 0.57751 0.17241
 C735 C 1.09224 0.58419 0.13257
 C736 C 1.09972 0.60934 0.12554
 C737 C 1.11815 0.62733 0.15994
 H738 H 1.18187 0.73396 0.34111
 H739 H 1.16631 0.70899 0.25871
 H740 H 1.17959 0.65293 0.33277
 H741 H 1.19375 0.67731 0.41498
 H742 H 1.15586 0.67132 0.20614
 H743 H 1.14748 0.62889 0.28113
 H744 H 1.13127 0.58944 0.23804
 H745 H 1.09926 0.55829 0.17855
 H746 H 1.09047 0.61495 0.09522
 H747 H 1.12237 0.64630 0.15520
 C748 C 0.50090 0.19464 0.36435
 C749 C 0.50350 0.18252 0.31943
 C750 C 0.48398 0.15871 0.30501
 C751 C 0.46153 0.14743 0.33587
 C752 C 0.45906 0.15943 0.38102
 C753 C 0.47889 0.18295 0.39623
 C754 C 0.48873 0.14505 0.26182
 C755 C 0.46987 0.12639 0.23390
 C756 C 0.47435 0.10986 0.19798
 C757 C 0.45672 0.09717 0.15631
 C758 C 0.45891 0.07942 0.12550
 C759 C 0.47849 0.07370 0.13664
 C760 C 0.49642 0.08672 0.17760
 C761 C 0.49443 0.10464 0.20791
 H762 H 0.51658 0.21265 0.37561
 H763 H 0.52109 0.19148 0.29669
 H764 H 0.44636 0.12885 0.32698
 H765 H 0.44192 0.15004 0.40504
 H766 H 0.50851 0.15032 0.25369
 H767 H 0.45029 0.12268 0.23800
 H768 H 0.44094 0.10067 0.14826
 H769 H 0.44476 0.06957 0.09429
 H770 H 0.51169 0.08265 0.18712
 H771 H 0.50796 0.11350 0.24062
 C772 C 0.72480 0.59727 0.39825
 C773 C 0.70827 0.59463 0.35566
 C774 C 0.70464 0.57855 0.31277
 C775 C 0.71936 0.56644 0.31141
 C776 C 0.73589 0.56901 0.35438
 C777 C 0.73786 0.58361 0.39923
 C778 C 0.68286 0.57225 0.27530
 C779 C 0.68048 0.56263 0.22602
 C780 C 0.65647 0.55408 0.19445
 C781 C 0.65729 0.55966 0.13955
 C782 C 0.63451 0.55256 0.11042
 C783 C 0.61059 0.53915 0.13550
 C784 C 0.60984 0.53267 0.18984
 C785 C 0.63253 0.54020 0.21911
 H786 H 0.72617 0.60883 0.43213
 H787 H 0.69725 0.60423 0.35760
 H788 H 0.71677 0.55361 0.27938
 H789 H 0.74557 0.55811 0.35447
 H790 H 0.66757 0.57529 0.28977
 H791 H 0.69628 0.56147 0.20811
 H792 H 0.67555 0.57011 0.11968
 H793 H 0.63558 0.55765 0.06844
 H794 H 0.59170 0.52229 0.21018
 H795 H 0.63137 0.53516 0.26113
 C796 C 0.81746 0.32831 0.41769
 C797 C 0.83158 0.34380 0.37568
 C798 C 0.84439 0.33651 0.33918
 C799 C 0.84205 0.31282 0.34491
 C800 C 0.82770 0.29719 0.38696
 C801 C 0.81569 0.30501 0.42433
 C802 C 0.86102 0.35496 0.29861
 C803 C 0.87356 0.35067 0.25924
 C804 C 0.89185 0.37055 0.22321
 C805 C 0.89701 0.36423 0.17243
 C806 C 0.91495 0.38244 0.13853
 C807 C 0.92828 0.40733 0.15507
 C808 C 0.92315 0.41367 0.20581
 C809 C 0.90528 0.39553 0.23962
 H810 H 0.80812 0.33468 0.44555
 H811 H 0.83292 0.36185 0.37241
 H812 H 0.85173 0.30639 0.31832
 H813 H 0.82678 0.27938 0.39145
 H814 H 0.86309 0.37327 0.30197
 H815 H 0.87037 0.33216 0.25223
 H816 H 0.88718 0.34512 0.15902
 H817 H 0.91861 0.37700 0.09971
 H818 H 0.93330 0.43266 0.21990
 H819 H 0.90268 0.40115 0.27913
   
