data_POSCAR
  _audit_creation_date              2014-09-24
  _audit_creation_method            'ToBaCCo'
  _symmetry_space_group_name_H-M    'P1'
  _symmetry_Int_Tables_number       1
  _symmetry_cell_setting            triclinic
  loop_
  _symmetry_equiv_pos_as_xyz
 x,y,z
_cell_length_a 50.1004
_cell_length_b 49.0591
_cell_length_c 50.2009
_cell_angle_alpha 87.555400
_cell_angle_beta 86.610500
_cell_angle_gamma 86.832000
loop_
  _atom_site_label
  _atom_site_type_symbol
  _atom_site_fract_x
  _atom_site_fract_y
  _atom_site_fract_z
C1 C 0.27394 0.48339 0.97147
 C2 C 0.25774 0.50742 0.97419
 C3 C 0.26938 0.53278 0.97380
 C4 C 0.29731 0.53448 0.97139
 C5 C 0.31332 0.51020 0.96777
 C6 C 0.30188 0.48469 0.96801
 C7 C 0.22852 0.50636 0.97827
 C8 C 0.21689 0.50230 1.00414
 C9 C 0.18899 0.50541 1.00904
 C10 C 0.17289 0.51120 0.98716
 C11 C 0.18429 0.51407 0.96108
 C12 C 0.21224 0.51206 0.95676
 H13 H 0.26463 0.46399 0.97147
 H14 H 0.25653 0.55113 0.97633
 H15 H 0.22978 0.49818 1.02062
 H16 H 0.22143 0.51563 0.93694
 H17 H 0.33479 0.51071 0.96441
 H18 H 0.15128 0.51248 0.98991
 C19 C 0.72223 0.46154 0.00134
 C20 C 0.73621 0.48485 0.00537
 C21 C 0.72212 0.51001 0.00914
 C22 C 0.69418 0.51225 0.00825
 C23 C 0.68027 0.48852 0.00511
 C24 C 0.69417 0.46301 0.00195
 C25 C 0.76564 0.48317 0.00537
 C26 C 0.78104 0.47838 -0.01833
 C27 C 0.80909 0.47926 -0.01920
 C28 C 0.82157 0.48355 0.00468
 C29 C 0.80624 0.48748 0.02877
 C30 C 0.77828 0.48752 0.02882
 H31 H 0.73321 0.44211 -0.00151
 H32 H 0.73307 0.52804 0.01193
 H33 H 0.77095 0.47515 -0.03638
 H34 H 0.76626 0.49088 0.04719
 H35 H 0.65869 0.48986 0.00506
 H36 H 0.84314 0.48244 0.00504
 C37 C 0.02578 0.22036 0.50016
 C38 C 0.00217 0.23573 0.49489
 C39 C -0.02091 0.22250 0.48970
 C40 C -0.02081 0.19390 0.49052
 C41 C 0.00319 0.17858 0.49517
 C42 C 0.02671 0.19177 0.49963
 C43 C 0.00149 0.26571 0.49506
 C44 C 0.00201 0.28116 0.47097
 C45 C 0.00067 0.30988 0.47076
 C46 C -0.00078 0.32283 0.49549
 C47 C -0.00088 0.30735 0.51979
 C48 C -0.00000 0.27880 0.51934
 H49 H 0.04362 0.23076 0.50401
 H50 H -0.03919 0.23453 0.48586
 H51 H 0.00318 0.27061 0.45234
 H52 H -0.00041 0.26667 0.53792
 H53 H 0.00352 0.15652 0.49535
 H54 H -0.00185 0.34478 0.49619
 C55 C 1.03851 0.77605 0.50276
 C56 C 1.01277 0.76751 0.49929
 C57 C 0.99093 0.78654 0.49918
 C58 C 0.99464 0.81429 0.50243
 C59 C 1.02042 0.82268 0.50620
 C60 C 1.04262 0.80366 0.50683
 C61 C 1.00835 0.73856 0.49586
 C62 C 1.00031 0.72202 0.51798
 C63 C 0.99440 0.69460 0.51485
 C64 C 0.99570 0.68463 0.48888
 C65 C 1.00399 0.70112 0.46666
 C66 C 1.01071 0.72795 0.47037
 H67 H 1.05521 0.76100 0.50280
 H68 H 0.97132 0.77964 0.49570
 H69 H 0.99830 0.73116 0.53725
 H70 H 1.01703 0.74085 0.45333
 H71 H 1.02290 0.84430 0.50772
 H72 H 0.99128 0.66361 0.48601
 C73 C 0.50578 0.01496 0.22338
 C74 C 0.51180 -0.00706 0.24111
 C75 C 0.51368 -0.03378 0.23213
 C76 C 0.50884 -0.03872 0.20561
 C77 C 0.50294 -0.01651 0.18790
 C78 C 0.50160 0.01042 0.19649
 C79 C 0.51460 -0.00223 0.26947
 C80 C 0.49215 -0.00343 0.28744
 C81 C 0.49435 0.00163 0.31453
 C82 C 0.51934 0.00740 0.32347
 C83 C 0.54200 0.00824 0.30564
 C84 C 0.53942 0.00395 0.27852
 H85 H 0.50376 0.03533 0.23095
 H86 H 0.51813 -0.05075 0.24599
 H87 H 0.47293 -0.00746 0.28005
 H88 H 0.55674 0.00487 0.26457
 H89 H 0.49983 -0.02012 0.16719
 H90 H 0.52112 0.01148 0.34433
 C91 C 0.50001 0.02396 0.78344
 C92 C 0.49841 -0.00070 0.77081
 C93 C 0.49757 -0.02528 0.78601
 C94 C 0.49888 -0.02561 0.81396
 C95 C 0.50021 -0.00041 0.82643
 C96 C 0.50087 0.02435 0.81123
 C97 C 0.49821 -0.00068 0.74152
 C98 C 0.52175 0.00407 0.72593
 C99 C 0.52191 0.00434 0.69800
 C100 C 0.49777 0.00124 0.68574
 C101 C 0.47388 -0.00289 0.70123
 C102 C 0.47444 -0.00459 0.72915
 H103 H 0.50049 0.04292 0.77154
 H104 H 0.49644 -0.04423 0.77585
 H105 H 0.54008 0.00701 0.73565
 H106 H 0.45622 -0.00799 0.74129
 H107 H 0.49957 0.00045 0.84787
 H108 H 0.49750 0.00209 0.66421
 C109 C 0.28485 0.00179 0.45602
 H110 H 0.27111 0.01955 0.45659
 C111 C 0.30402 -0.00080 0.43481
 H112 H 0.30447 0.01474 0.41884
 C113 C 0.30182 -0.03944 0.47665
 H114 H 0.30129 -0.05398 0.49347
 C115 C 0.32094 -0.04313 0.45555
 H116 H 0.33501 -0.06069 0.45605
 N117 N 0.28420 -0.01733 0.47646
 C118 C 0.23222 0.03944 0.51639
 H119 H 0.24542 0.04167 0.53233
 C120 C 0.21075 0.05851 0.51283
 H121 H 0.20817 0.07537 0.52604
 C122 C 0.21901 0.01375 0.48096
 H123 H 0.22204 -0.00415 0.46905
 C124 C 0.19745 0.03226 0.47666
 H125 H 0.18408 0.02856 0.46116
 Zn126 Zn 0.26116 -0.01160 0.50713
 N127 N 0.23575 0.01749 0.50065
 C128 C 0.28525 -0.02096 0.55693
 N129 N 0.28315 -0.00402 0.53492
 C130 C 0.29875 0.01770 0.53075
 C131 C 0.31764 0.02293 0.54895
 C132 C 0.30389 -0.01649 0.57573
 C133 C 0.24083 -0.06410 0.50047
 C134 C 0.22238 -0.08427 0.50595
 C135 C 0.20472 -0.05932 0.54417
 C136 C 0.22343 -0.03973 0.53792
 N137 N 0.24082 -0.04227 0.51627
 H138 H 0.27312 -0.03851 0.55955
 H139 H 0.29695 0.03058 0.51284
 H140 H 0.33015 0.04012 0.54486
 H141 H 0.30517 -0.03079 0.59260
 H142 H 0.25425 -0.06532 0.48286
 H143 H 0.22250 -0.10077 0.49239
 H144 H 0.19063 -0.05636 0.56115
 H145 H 0.22348 -0.02185 0.54981
 C146 C 0.19275 0.05477 0.49292
 C147 C 0.32256 -0.02333 0.43466
 C148 C 0.20346 -0.08169 0.52779
 C149 C 0.32082 0.00555 0.57167
 C150 C 0.72140 0.02217 0.53991
 H151 H 0.73436 0.03896 0.54080
 C152 C 0.69897 0.02047 0.55778
 H153 H 0.69506 0.03615 0.57220
 C154 C 0.70989 -0.01746 0.51875
 H155 H 0.71409 -0.03191 0.50317
 C156 C 0.68733 -0.01992 0.53610
 H157 H 0.67429 -0.03647 0.53386
 N158 N 0.72641 0.00327 0.52095
 C159 C 0.78181 0.05397 0.47900
 H160 H 0.77210 0.05354 0.46038
 C161 C 0.80176 0.07241 0.48159
 H162 H 0.80675 0.08609 0.46482
 C163 C 0.78872 0.03472 0.52229
 H164 H 0.78422 0.01924 0.53765
 C165 C 0.80867 0.05274 0.52574
 H166 H 0.81915 0.05126 0.54406
 Zn167 Zn 0.75466 0.00557 0.49446
 N168 N 0.77598 0.03541 0.49911
 C169 C 0.72253 0.02994 0.45490
 N170 N 0.73867 0.00771 0.46122
 C171 C 0.74023 -0.01477 0.44618
 C172 C 0.72438 -0.01589 0.42438
 C173 C 0.70665 0.02992 0.43290
 C174 C 0.79992 -0.02533 0.47870
 C175 C 0.81998 -0.04610 0.47962
 C176 C 0.79487 -0.06773 0.51650
 C177 C 0.77533 -0.04632 0.51497
 N178 N 0.77831 -0.02564 0.49632
 H179 H 0.72109 0.04723 0.46767
 H180 H 0.75257 -0.03254 0.45197
 H181 H 0.72517 -0.03449 0.41339
 H182 H 0.69328 0.04755 0.42923
 H183 H 0.80171 -0.00856 0.46410
 H184 H 0.83655 -0.04496 0.46495
 H185 H 0.79230 -0.08383 0.53174
 H186 H 0.75819 -0.04595 0.52908
 C187 C 0.81586 0.07154 0.50509
 C188 C 0.68156 -0.00084 0.55592
 C189 C 0.81796 -0.06757 0.49912
 C190 C 0.70684 0.00636 0.41772
 C191 C 0.47180 0.20590 1.03603
 H192 H 0.45920 0.20402 1.01949
 C193 C 0.47036 0.18724 1.05779
 H194 H 0.45604 0.17154 1.05800
 C195 C 0.50577 0.22885 1.05543
 H196 H 0.52003 0.24464 1.05415
 C197 C 0.50496 0.21066 1.07761
 H198 H 0.51847 0.21283 1.09336
 N199 N 0.48944 0.22604 1.03513
 C200 C 0.46084 0.28588 0.97527
 H201 H 0.47841 0.28611 0.96166
 C202 C 0.43880 0.30368 0.97055
 H203 H 0.43955 0.31690 0.95277
 C204 C 0.43900 0.26792 1.01480
 H205 H 0.43941 0.25436 1.03232
 C206 C 0.41654 0.28554 1.01093
 H207 H 0.39969 0.28522 1.02547
 Zn208 Zn 0.49282 0.24782 1.00324
 N209 N 0.46063 0.26855 0.99712
 C210 C 0.48533 0.22189 0.95480
 N211 N 0.50156 0.22350 0.97538
 C212 C 0.52304 0.20570 0.97825
 C213 C 0.52864 0.18493 0.96026
 C214 C 0.49028 0.20157 0.93619
 C215 C 0.51393 0.29283 1.02385
 C216 C 0.53156 0.31342 1.02636
 C217 C 0.56063 0.29345 0.99144
 C218 C 0.54229 0.27317 0.98960
 N219 N 0.51953 0.27322 1.00576
 H220 H 0.46791 0.23572 0.95325
 H221 H 0.53534 0.20711 0.99509
 H222 H 0.54555 0.17064 0.96336
 H223 H 0.47638 0.20071 0.92067
 H224 H 0.49549 0.29256 1.03620
 H225 H 0.52646 0.32886 1.04089
 H226 H 0.57833 0.29280 0.97810
 H227 H 0.54610 0.25765 0.97501
 C228 C 0.41646 0.30414 0.98890
 C229 C 0.48757 0.18916 1.07870
 C230 C 0.55530 0.31416 1.01002
 C231 C 0.51203 0.18232 0.93899
 C232 C 0.49207 0.76859 -0.03299
 H233 H 0.49016 0.74821 -0.03982
 C234 C 0.49554 0.79047 -0.05159
 H235 H 0.49631 0.78658 -0.07267
 C236 C 0.49447 0.79812 0.00280
 H237 H 0.49445 0.80125 0.02393
 C238 C 0.49815 0.82031 -0.01494
 H239 H 0.50063 0.84020 -0.00710
 N240 N 0.49122 0.77286 -0.00631
 C241 C 0.44790 0.70975 0.03876
 H242 H 0.46014 0.70889 0.05585
 C243 C 0.42762 0.69167 0.03771
 H244 H 0.42419 0.67714 0.05426
 C245 C 0.43907 0.72838 -0.00436
 H246 H 0.44415 0.74218 -0.02100
 C247 C 0.41850 0.71044 -0.00630
 H248 H 0.40812 0.71066 -0.02460
 Zn249 Zn 0.48670 0.74400 0.01984
 N250 N 0.45385 0.72699 0.01760
 C251 C 0.46175 0.77297 0.06075
 N252 N 0.48541 0.75941 0.05404
 C253 C 0.50683 0.76045 0.06935
 C254 C 0.50541 0.77720 0.09137
 C255 C 0.45932 0.78957 0.08264
 C256 C 0.50715 0.69195 0.00690
 C257 C 0.52576 0.67022 0.00308
 C258 C 0.56049 0.69888 0.01492
 C259 C 0.54104 0.72043 0.01811
 N260 N 0.51477 0.71637 0.01487
 H261 H 0.44508 0.77206 0.04814
 H262 H 0.52542 0.74941 0.06390
 H263 H 0.52315 0.77835 0.10239
 H264 H 0.44048 0.80095 0.08678
 H265 H 0.48655 0.68911 0.00316
 H266 H 0.51882 0.65104 -0.00307
 H267 H 0.58111 0.70273 0.01789
 H268 H 0.54699 0.74033 0.02314
 C269 C 0.41322 0.69118 0.01468
 C270 C 0.49850 0.81681 -0.04247
 C271 C 0.55279 0.67314 0.00753
 C272 C 0.48157 0.79286 0.09771
 C273 C 1.03514 0.49221 0.20729
 H274 H 1.02321 0.47448 0.20997
 C275 C 1.05626 0.49261 0.18780
 H276 H 1.06043 0.47501 0.17565
 C277 C 1.04224 0.53775 0.21796
 H278 H 1.03596 0.55577 0.22878
 C279 C 1.06320 0.53914 0.19849
 H280 H 1.07316 0.55810 0.19489
 N281 N 1.02847 0.51464 0.22180
 C282 C 0.97071 0.48710 0.28443
 H283 H 0.95526 0.50299 0.28124
 C284 C 0.96803 0.46870 0.30620
 H285 H 0.95028 0.47037 0.31957
 C286 C 1.01337 0.46686 0.27178
 H287 H 1.03148 0.46700 0.25897
 C288 C 1.01144 0.44785 0.29334
 H289 H 1.02817 0.43348 0.29671
 Zn290 Zn 0.99597 0.51600 0.24309
 N291 N 0.99320 0.48610 0.26791
 C292 C 0.95017 0.49778 0.21888
 N293 N 0.96823 0.51744 0.21908
 C294 C 0.96875 0.53815 0.20027
 C295 C 0.95096 0.53944 0.17988
 C296 C 0.93178 0.49836 0.19891
 C297 C 1.01413 0.55035 0.27980
 C298 C 1.01285 0.57132 0.29778
 C299 C 0.96871 0.58506 0.28344
 C300 C 0.97118 0.56419 0.26520
 N301 N 0.99361 0.54729 0.26387
 H302 H 0.95050 0.48115 0.23371
 H303 H 0.98356 0.55334 0.20075
 H304 H 0.95219 0.55592 0.16484
 H305 H 0.91825 0.48196 0.19912
 H306 H 1.03134 0.53603 0.27890
 H307 H 1.02933 0.57241 0.31056
 H308 H 0.95040 0.59789 0.28470
 H309 H 0.95478 0.56084 0.25288
 C310 C 0.98864 0.44899 0.31111
 C311 C 1.07017 0.51658 0.18288
 C312 C 0.98969 0.58893 0.30009
 C313 C 0.93225 0.51927 0.17870
 C314 C -0.03221 0.47311 0.78398
 H315 H -0.01757 0.45634 0.78093
 C316 C -0.05124 0.47182 0.80548
 H317 H -0.05116 0.45387 0.81879
 C318 C -0.04835 0.51800 0.77186
 H319 H -0.04649 0.53637 0.75938
 C320 C -0.06728 0.51777 0.79338
 H321 H -0.08014 0.53586 0.79704
 N322 N -0.03096 0.49608 0.76787
 C323 C 0.02451 0.47486 0.70060
 H324 H 0.03763 0.49151 0.70175
 C325 C 0.02813 0.45727 0.67949
 H326 H 0.04433 0.46037 0.66458
 C327 C -0.01339 0.45171 0.71797
 H328 H -0.03007 0.45027 0.73253
 C329 C -0.01052 0.43359 0.69704
 H330 H -0.02512 0.41832 0.69604
 Zn331 Zn -0.00091 0.50023 0.74370
 N332 N 0.00397 0.47192 0.71923
 C333 C 0.05079 0.48392 0.76211
 N334 N 0.02907 0.50168 0.76464
 C335 C 0.02724 0.52080 0.78353
 C336 C 0.04782 0.52288 0.80072
 C337 C 0.07194 0.48525 0.77889
 C338 C -0.02517 0.53371 0.70520
 C339 C -0.02827 0.55577 0.68698
 C340 C 0.00876 0.57627 0.70579
 C341 C 0.01133 0.55362 0.72343
 N342 N -0.00545 0.53285 0.72270
 H343 H 0.05163 0.46845 0.74735
 H344 H 0.00956 0.53445 0.78529
 H345 H 0.04526 0.53854 0.81521
 H346 H 0.08898 0.47079 0.77659
 H347 H -0.03817 0.51683 0.70505
 H348 H -0.04424 0.55549 0.67350
 H349 H 0.02264 0.59237 0.70646
 H350 H 0.02718 0.55239 0.73717
 C351 C 0.01037 0.43651 0.67726
 C352 C -0.06861 0.49468 0.81070
 C353 C -0.01075 0.57733 0.68669
 C354 C 0.07068 0.50478 0.79873
 C355 C 0.05242 0.17637 0.50404
 C356 C 0.05940 0.15132 0.49268
 C357 C 0.08569 0.13699 0.49579
 N358 N 0.09242 0.11426 0.48191
 N359 N 0.11613 0.10102 0.48439
 C360 C 0.13403 0.10998 0.50088
 N361 N 0.12728 0.13268 0.51484
 N362 N 0.10358 0.14598 0.51230
 C363 C 0.16009 0.09513 0.50423
 C364 C 0.16825 0.07261 0.48906
 H365 H 0.04573 0.14238 0.48006
 H366 H 0.17254 0.10201 0.51917
 H367 H 0.06714 0.18607 0.51487
 H368 H 0.15533 0.06703 0.47383
 C369 C 0.68013 0.53952 0.01078
 C370 C 0.65549 0.54612 -0.00008
 C371 C 0.64119 0.57300 0.00232
 N372 N 0.61680 0.57709 -0.00789
 N373 N 0.60308 0.60095 -0.00561
 C374 C 0.61319 0.62175 0.00692
 N375 N 0.63777 0.61779 0.01696
 N376 N 0.65152 0.59382 0.01473
 C377 C 0.59746 0.64789 0.01019
 C378 C 0.57047 0.65010 0.00420
 H379 H 0.64613 0.53119 -0.01117
 H380 H 0.60694 0.66460 0.01851
 H381 H 0.69011 0.55524 0.02027
 H382 H 0.56210 0.63197 -0.00280
 C383 C 0.97246 -0.16472 0.50025
 C384 C 0.94557 -0.16998 0.50578
 C385 C 0.92421 -0.14868 0.50171
 N386 N 0.89869 -0.15279 0.51100
 N387 N 0.87923 -0.13361 0.50719
 C388 C 0.88462 -0.10970 0.49380
 N389 N 0.91008 -0.10571 0.48437
 N390 N 0.92952 -0.12480 0.48829
 C391 C 0.86365 -0.08817 0.48922
 C392 C 0.83812 -0.08846 0.50214
 H393 H 0.93997 -0.18984 0.51373
 H394 H 0.86956 -0.07103 0.47646
 H395 H 0.97766 -0.14403 0.49462
 H396 H 0.83415 -0.10519 0.51639
 C397 C 0.31997 0.46014 0.96409
 C398 C 0.31429 0.43395 0.97403
 C399 C 0.33467 0.41115 0.97224
 N400 N 0.33037 0.38686 0.98535
 N401 N 0.34930 0.36663 0.98483
 C402 C 0.37319 0.36999 0.97113
 N403 N 0.37733 0.39414 0.95781
 N404 N 0.35846 0.41433 0.95837
 C405 C 0.39498 0.34864 0.97121
 C406 C 0.39331 0.32407 0.98618
 H407 H 0.29542 0.43040 0.98489
 H408 H 0.41349 0.35353 0.96037
 H409 H 0.33968 0.46332 0.95478
 H410 H 0.37503 0.32032 0.99807
 C411 C 0.95397 0.18073 0.48644
 C412 C 0.94756 0.15588 0.49909
 C413 C 0.92155 0.14392 0.49669
 N414 N 0.91494 0.12189 0.51246
 N415 N 0.89147 0.11082 0.51069
 C416 C 0.87369 0.12132 0.49306
 N417 N 0.88035 0.14328 0.47718
 N418 N 0.90381 0.15444 0.47902
 C419 C 0.84799 0.10871 0.49046
 C420 C 0.83947 0.08784 0.50822
 H421 H 0.96141 0.14546 0.51235
 H422 H 0.83597 0.11597 0.47418
 H423 H 0.93903 0.19207 0.47505
 H424 H 0.85136 0.08245 0.52520
 C425 C 0.30820 0.56021 -0.02695
 C426 C 0.33505 0.56375 -0.02246
 C427 C 0.34547 0.59064 -0.01869
 N428 N 0.36840 0.59200 -0.00590
 N429 N 0.37841 0.61600 -0.00214
 C430 C 0.36601 0.63960 -0.01121
 N431 N 0.34321 0.63829 -0.02435
 N432 N 0.33301 0.61422 -0.02788
 C433 C 0.37773 0.66597 -0.00750
 C434 C 0.39572 0.66818 0.01237
 H435 H 0.34870 0.54635 -0.01881
 H436 H 0.37243 0.68329 -0.02055
 H437 H 0.29469 0.57826 -0.02708
 H438 H 0.39817 0.65112 0.02662
 C439 C 0.06872 -0.18851 0.51056
 C440 C 0.07439 -0.16333 0.52033
 C441 C 0.10173 -0.15417 0.52121
 N442 N 0.10586 -0.13158 0.53470
 N443 N 0.13007 -0.12168 0.53433
 C444 C 0.15111 -0.13392 0.52034
 N445 N 0.14703 -0.15663 0.50689
 N446 N 0.12278 -0.16664 0.50738
 C447 C 0.17731 -0.12154 0.51792
 C448 C 0.18220 -0.09910 0.53288
 H449 H 0.05850 -0.14971 0.52835
 H450 H 0.19195 -0.12947 0.50316
 H451 H 0.08536 -0.20311 0.50652
 H452 H 0.16756 -0.09383 0.54887
 C453 C 0.67989 0.43777 0.99884
 C454 C 0.65417 0.43411 1.01020
 C455 C 0.63971 0.40922 1.00717
 N456 N 0.61553 0.40647 1.02035
 N457 N 0.60184 0.38434 1.01770
 C458 C 0.61177 0.36409 1.00171
 N459 N 0.63596 0.36684 0.98847
 N460 N 0.64971 0.38899 0.99117
 C461 C 0.59647 0.33974 0.99830
 C462 C 0.57210 0.33584 1.01274
 H463 H 0.64429 0.44973 1.02243
 H464 H 0.60478 0.32513 0.98417
 H465 H 0.69048 0.42108 0.98856
 H466 H 0.56549 0.35098 1.02717
 C467 C 0.49508 0.03296 1.17692
 C468 C 0.49988 0.06033 1.18034
 C469 C 0.49406 0.08175 1.15973
 N470 N 0.50047 0.10783 1.16317
 N471 N 0.49590 0.12728 1.14439
 C472 C 0.48468 0.12135 1.12148
 N473 N 0.47811 0.09531 1.11813
 N474 N 0.48270 0.07588 1.13689
 C475 C 0.48040 0.14225 1.10003
 C476 C 0.48851 0.16891 1.10143
 H477 H 0.50907 0.06635 1.19798
 H478 H 0.47215 0.13573 1.08207
 H479 H 0.48716 0.02750 1.15836
 H480 H 0.49804 0.17448 1.11909
 C481 C -0.01252 0.67667 0.53651
 C482 C -0.01046 0.68216 0.56343
 C483 C -0.01578 0.66148 0.58488
 N484 N -0.00714 0.66478 0.60959
 N485 N -0.01074 0.64568 0.62894
 C486 C -0.02330 0.62265 0.62433
 N487 N -0.03235 0.61956 0.59975
 N488 N -0.02860 0.63858 0.58035
 C489 C -0.02631 0.60072 0.64502
 C490 C -0.01135 0.59936 0.66778
 H491 H -0.00270 0.70097 0.56929
 H492 H -0.03871 0.58437 0.64062
 H493 H -0.01844 0.65651 0.53202
 H494 H 0.00208 0.61560 0.67002
 C495 C 0.49850 0.94898 -0.17176
 C496 C 0.50273 0.94514 -0.14451
 C497 C 0.50167 0.91830 -0.13031
 N498 N 0.50765 0.91603 -0.10430
 N499 N 0.50643 0.89218 -0.09076
 C500 C 0.49915 0.86959 -0.10266
 N501 N 0.49320 0.87180 -0.12874
 N502 N 0.49446 0.89572 -0.14233
 C503 C 0.49702 0.84334 -0.08737
 C504 C 0.50249 0.84121 -0.06038
 H505 H 0.50774 0.96186 -0.13279
 H506 H 0.49004 0.82613 -0.09722
 H507 H 0.49542 0.93097 -0.18275
 H508 H 0.50880 0.85921 -0.05121
 C509 C 1.00108 0.32433 0.44586
 C510 C 0.99631 0.35258 0.44226
 C511 C 0.99748 0.36641 0.41565
 N512 N 0.98736 0.39250 0.41271
 N513 N 0.98839 0.40550 0.38887
 C514 C 0.99972 0.39296 0.36705
 N515 N 1.01006 0.36692 0.37001
 N516 N 1.00888 0.35384 0.39386
 C517 C 1.00135 0.40748 0.34075
 C518 C 0.98650 0.43194 0.33611
 H519 H 0.99025 0.36518 0.45889
 H520 H 1.01404 0.39852 0.32489
 H521 H 1.00457 0.31263 0.42801
 H522 H 0.97224 0.43906 0.35171
 C523 C 0.51013 0.93289 0.19666
 C524 C 0.49284 0.92458 0.17820
 C525 C 0.49434 0.89698 0.16776
 N526 N 0.47463 0.88949 0.15267
 N527 N 0.47612 0.86516 0.14179
 C528 C 0.49744 0.84735 0.14549
 N529 N 0.51717 0.85479 0.16066
 N530 N 0.51562 0.87914 0.17169
 C531 C 0.50012 0.82134 0.13161
 C532 C 0.47931 0.81307 0.11691
 H533 H 0.47724 0.93883 0.17120
 H534 H 0.51923 0.81003 0.13172
 H535 H 0.52393 0.91800 0.20577
 H536 H 0.46026 0.82460 0.11912
 C537 C -0.00264 0.32036 0.54598
 C538 C 0.00744 0.34577 0.54973
 C539 C 0.00556 0.35851 0.57584
 N540 N 0.01787 0.38204 0.57872
 N541 N 0.01617 0.39411 0.60206
 C542 C 0.00203 0.38314 0.62344
 N543 N -0.01035 0.35961 0.62056
 N544 N -0.00858 0.34748 0.59720
 C545 C -0.00051 0.39678 0.64914
 C546 C 0.01350 0.41997 0.65311
 H547 H 0.01776 0.35650 0.53326
 H548 H -0.01364 0.38835 0.66487
 H549 H -0.01089 0.30886 0.56314
 H550 H 0.02754 0.42678 0.63729
 C551 C 0.50104 0.05108 0.82384
 C552 C 0.51201 0.05448 0.84832
 C553 C 0.51045 0.08104 0.86108
 N554 N 0.52335 0.08398 0.88371
 N555 N 0.52139 0.10764 0.89596
 C556 C 0.50639 0.12924 0.88605
 N557 N 0.49351 0.12629 0.86341
 N558 N 0.49553 0.10267 0.85112
 C559 C 0.50280 0.15506 0.90008
 C560 C 0.51705 0.15990 0.92243
 H561 H 0.52224 0.03737 0.85841
 H562 H 0.48830 0.17008 0.89249
 H563 H 0.49293 0.06890 0.81296
 H564 H 0.53283 0.14494 0.92765
 C565 C 1.00684 0.69028 0.43963
 C566 C 0.98886 0.67250 0.43069
 C567 C 0.99310 0.65982 0.40469
 N568 N 0.97281 0.64738 0.39423
 N569 N 0.97682 0.63452 0.37137
 C570 C 1.00134 0.63349 0.35826
 N571 N 1.02163 0.64590 0.36874
 N572 N 1.01756 0.65896 0.39146
 C573 C 1.00671 0.61728 0.33441
 C574 C 0.98615 0.60884 0.31953
 H575 H 0.97113 0.66779 0.44306
 H576 H 1.02745 0.61198 0.32878
 H577 H 1.02291 0.69730 0.42610
 H578 H 0.96626 0.61823 0.32331
 C579 C 1.17809 0.50277 0.03547
 C580 C 1.15235 0.51283 0.04353
 C581 C 1.14103 0.50949 0.07104
 N582 N 1.12109 0.52722 0.07989
 N583 N 1.10967 0.52404 0.10434
 C584 C 1.11754 0.50282 0.12081
 N585 N 1.13738 0.48490 0.11191
 N586 N 1.14906 0.48826 0.08750
 C587 C 1.10371 0.49853 0.14720
 C588 C 1.08922 0.52004 0.15954
 H589 H 1.14056 0.52554 0.03002
 H590 H 1.10448 0.47827 0.15664
 H591 H 1.19080 0.49415 0.05078
 H592 H 1.09131 0.54060 0.15116
 C593 C 0.54743 0.00831 0.68224
 C594 C 0.55271 -0.00173 0.65677
 C595 C 0.57836 0.00157 0.64147
 N596 N 0.58277 -0.01031 0.61760
 N597 N 0.60583 -0.00764 0.60339
 C598 C 0.62538 0.00704 0.61248
 N599 N 0.62094 0.01901 0.63634
 N600 N 0.59786 0.01630 0.65060
 C601 C 0.65091 0.01017 0.59682
 C602 C 0.65665 -0.00334 0.57306
 H603 H 0.53800 -0.01331 0.64790
 H604 H 0.66539 0.02289 0.60451
 H605 H 0.56315 0.01801 0.69165
 H606 H 0.64221 -0.01707 0.56680
 C607 C -0.17645 0.47579 0.95615
 C608 C -0.15002 0.48306 0.95081
 C609 C -0.13648 0.48040 0.92419
 N610 N -0.11706 0.49756 0.91600
 N611 N -0.10469 0.49562 0.89188
 C612 C -0.11105 0.47621 0.87518
 N613 N -0.13019 0.45874 0.88352
 N614 N -0.14283 0.46092 0.90753
 C615 C -0.09697 0.47373 0.84878
 C616 C -0.08583 0.49631 0.83554
 H617 H -0.13975 0.49363 0.96530
 H618 H -0.09585 0.45417 0.83946
 H619 H -0.18700 0.46901 0.93959
 H620 H -0.09000 0.51628 0.84375
 C621 C 0.47069 0.00266 0.33352
 C622 C 0.44891 -0.01351 0.33160
 C623 C 0.42518 -0.01099 0.35018
 N624 N 0.40793 -0.03143 0.35317
 N625 N 0.38639 -0.02927 0.37000
 C626 C 0.38118 -0.00643 0.38422
 N627 N 0.39824 0.01413 0.38096
 N628 N 0.41989 0.01186 0.36434
 C629 C 0.35767 -0.00366 0.40302
 C630 C 0.34415 -0.02615 0.41349
 H631 H 0.44963 -0.02902 0.31681
 H632 H 0.35220 0.01642 0.41043
 H633 H 0.47091 0.01591 0.35023
 H634 H 0.35153 -0.04651 0.40825
 C635 C 0.16633 0.52008 0.93905
 C636 C 0.17196 0.51118 0.91320
 C637 C 0.15197 0.51495 0.89283
 N638 N 0.15501 0.50089 0.87004
 N639 N 0.13632 0.50325 0.85212
 C640 C 0.11399 0.51989 0.85631
 N641 N 0.11118 0.53421 0.87890
 N642 N 0.12977 0.53175 0.89685
 C643 C 0.09253 0.52216 0.83745
 C644 C 0.09192 0.50498 0.81594
 H645 H 0.19043 0.49947 0.90835
 H646 H 0.07639 0.53699 0.84197
 H647 H 0.14680 0.52974 0.94404
 H648 H 0.10862 0.49023 0.81285
 C649 C 0.56830 0.01381 0.31528
 C650 C 0.57756 0.00025 0.33813
 C651 C 0.60295 0.00604 0.34933
 N652 N 0.61510 -0.01301 0.36554
 N653 N 0.63732 -0.00762 0.37715
 C654 C 0.64806 0.01714 0.37324
 N655 N 0.63583 0.03630 0.35712
 N656 N 0.61376 0.03078 0.34521
 C657 C 0.67123 0.02382 0.38793
 C658 C 0.68866 0.00316 0.39794
 H659 H 0.56601 -0.01576 0.34787
 H660 H 0.67395 0.04510 0.39123
 H661 H 0.58113 0.02734 0.30348
 H662 H 0.68733 -0.01712 0.39047
 C663 C 0.81883 0.49022 0.05439
 C664 C 0.84369 0.50127 0.05617
 C665 C 0.85649 0.50226 0.08173
 N666 N 0.87865 0.51669 0.08318
 N667 N 0.89089 0.51719 0.10599
 C668 C 0.88150 0.50316 0.12820
 N669 N 0.85938 0.48865 0.12673
 N670 N 0.84705 0.48827 0.10395
 C671 C 0.89549 0.50264 0.15324
 C672 C 0.91584 0.52033 0.15680
 H673 H 0.85397 0.50988 0.03846
 H674 H 0.88930 0.48806 0.16881
 H675 H 0.80767 0.48408 0.07261
 H676 H 0.91940 0.53598 0.14127
 C677 C 0.44823 -0.00568 0.68867
 C678 C 0.44229 0.00792 0.66458
 C679 C 0.41716 0.00490 0.65156
 N680 N 0.41197 0.02021 0.62913
 N681 N 0.38970 0.01730 0.61655
 C682 C 0.37175 -0.00107 0.62591
 N683 N 0.37691 -0.01636 0.64838
 N684 N 0.39919 -0.01341 0.66101
 C685 C 0.34763 -0.00535 0.61150
 C686 C 0.34143 0.01036 0.58852
 H687 H 0.45635 0.02173 0.65499
 H688 H 0.33533 -0.02166 0.61907
 H689 H 0.43311 -0.01753 0.69936
 H690 H 0.35404 0.02716 0.58281
   
