data_POSCAR
  _audit_creation_date              2014-09-24
  _audit_creation_method            'ToBaCCo'
  _symmetry_space_group_name_H-M    'P1'
  _symmetry_Int_Tables_number       1
  _symmetry_cell_setting            triclinic
  loop_
  _symmetry_equiv_pos_as_xyz
 x,y,z
_cell_length_a 38.9834
_cell_length_b 33.8601
_cell_length_c 32.1603
_cell_angle_alpha 92.982100
_cell_angle_beta 86.923200
_cell_angle_gamma 96.025700
loop_
  _atom_site_label
  _atom_site_type_symbol
  _atom_site_fract_x
  _atom_site_fract_y
  _atom_site_fract_z
C1 C 0.31134 0.31233 0.25372
 H2 H 0.31358 0.30871 0.28665
 C3 C 0.33417 0.34002 0.23291
 H4 H 0.35424 0.35704 0.25017
 C5 C 0.28323 0.29293 0.19130
 H6 H 0.26358 0.27429 0.17508
 C7 C 0.30514 0.32082 0.16938
 H8 H 0.30140 0.32375 0.13663
 N9 N 0.28646 0.28954 0.23283
 C10 C 0.20357 0.25810 0.32512
 H11 H 0.20372 0.22616 0.32502
 C12 C 0.17968 0.27691 0.35098
 H13 H 0.16134 0.25928 0.37074
 C14 C 0.22679 0.31983 0.29861
 H15 H 0.24500 0.33640 0.27789
 C16 C 0.20312 0.33977 0.32358
 H17 H 0.20363 0.37172 0.32232
 Zn18 Zn 0.25762 0.25256 0.26448
 N19 N 0.22669 0.27973 0.29993
 C20 C 0.28548 0.23042 0.33859
 N21 N 0.28698 0.22607 0.29625
 C22 C 0.31137 0.20556 0.27557
 C23 C 0.33499 0.18762 0.29760
 C24 C 0.30889 0.21344 0.36181
 C25 C 0.20648 0.23125 0.20745
 C26 C 0.18602 0.20643 0.18054
 C27 C 0.21504 0.15101 0.19993
 C28 C 0.23486 0.17688 0.22661
 N29 N 0.23075 0.21635 0.22926
 H30 H 0.26666 0.24783 0.35448
 H31 H 0.31268 0.20354 0.24185
 H32 H 0.35437 0.17159 0.28068
 H33 H 0.30738 0.21721 0.39548
 H34 H 0.20328 0.26263 0.21071
 H35 H 0.16744 0.21906 0.16268
 H36 H 0.21873 0.11970 0.19813
 H37 H 0.25345 0.16528 0.24513
 C38 C 0.17920 0.31825 0.35022
 C39 C 0.33116 0.34487 0.19015
 C40 C 0.19042 0.16577 0.17621
 C41 C 0.33404 0.19173 0.34127
 C42 C 0.80857 0.80400 0.25569
 H43 H 0.80866 0.79924 0.28869
 C44 C 0.83314 0.83177 0.23754
 H45 H 0.85233 0.84682 0.25745
 C46 C 0.78439 0.78712 0.19051
 H47 H 0.76540 0.76964 0.17217
 C48 C 0.80819 0.81483 0.17108
 H49 H 0.80549 0.81863 0.13832
 N50 N 0.78472 0.78252 0.23215
 C51 C 0.69238 0.74928 0.31015
 H52 H 0.68985 0.71731 0.30485
 C53 C 0.66749 0.76741 0.33503
 H54 H 0.64573 0.74918 0.34873
 C55 C 0.72340 0.81190 0.29769
 H56 H 0.74510 0.82916 0.28288
 C57 C 0.69902 0.83127 0.32216
 H58 H 0.70253 0.86334 0.32648
 Zn59 Zn 0.75248 0.74508 0.25889
 N60 N 0.71988 0.77157 0.29254
 C61 C 0.76688 0.70724 0.33207
 N62 N 0.77715 0.71395 0.29173
 C63 C 0.80526 0.69820 0.27346
 C64 C 0.82366 0.67368 0.29555
 C65 C 0.78430 0.68254 0.35514
 C66 C 0.70495 0.72780 0.19617
 C67 C 0.68596 0.70416 0.16683
 C68 C 0.71421 0.64785 0.18545
 C69 C 0.73257 0.67252 0.21448
 N70 N 0.72797 0.71181 0.21897
 H71 H 0.74495 0.72059 0.34638
 H72 H 0.81301 0.70424 0.24142
 H73 H 0.84552 0.66070 0.28028
 H74 H 0.77560 0.67715 0.38709
 H75 H 0.70143 0.75902 0.20079
 H76 H 0.66814 0.71754 0.14852
 H77 H 0.71803 0.61659 0.18258
 H78 H 0.75033 0.66008 0.23350
 C79 C 0.67070 0.80895 0.34138
 C80 C 0.83343 0.83804 0.19436
 C81 C 0.69060 0.66363 0.16109
 C82 C 0.81290 0.66520 0.33676
 C83 C 0.80771 0.29912 0.75202
 H84 H 0.80926 0.29472 0.78493
 C85 C 0.83114 0.32712 0.73247
 H86 H 0.85105 0.34333 0.75063
 C87 C 0.78039 0.28210 0.68864
 H88 H 0.76054 0.26453 0.67164
 C89 C 0.80278 0.31047 0.66803
 H90 H 0.79928 0.31469 0.63547
 N91 N 0.78304 0.27714 0.72999
 C92 C 0.69284 0.24763 0.81310
 H93 H 0.68795 0.21590 0.80737
 C94 C 0.66956 0.26758 0.83877
 H95 H 0.64737 0.25092 0.85352
 C96 C 0.72605 0.30848 0.79864
 H97 H 0.74776 0.32454 0.78261
 C98 C 0.70304 0.32965 0.82333
 H99 H 0.70752 0.36176 0.82653
 Zn100 Zn 0.75150 0.23999 0.75865
 N101 N 0.72088 0.26811 0.79430
 C102 C 0.75912 0.18291 0.81814
 N103 N 0.77644 0.20689 0.78980
 C104 C 0.81104 0.20647 0.78242
 C105 C 0.82965 0.18225 0.80469
 C106 C 0.77654 0.15810 0.84103
 C107 C 0.69913 0.22351 0.70146
 C108 C 0.67922 0.20052 0.67248
 C109 C 0.71261 0.14577 0.68221
 C110 C 0.73181 0.16975 0.71106
 N111 N 0.72491 0.20789 0.71990
 H112 H 0.73161 0.18296 0.82337
 H113 H 0.82434 0.22421 0.75841
 H114 H 0.85675 0.18211 0.79579
 H115 H 0.76127 0.14158 0.86455
 H116 H 0.69421 0.25396 0.70912
 H117 H 0.65916 0.21362 0.65759
 H118 H 0.71836 0.11539 0.67575
 H119 H 0.75239 0.15796 0.72615
 C120 C 0.67456 0.30910 0.84395
 C121 C 0.82873 0.33351 0.68990
 C122 C 0.68599 0.16113 0.66237
 C123 C 0.81275 0.15710 0.83503
 C124 C 0.30466 0.80178 0.76004
 H125 H 0.30610 0.79692 0.79286
 C126 C 0.32919 0.82859 0.74041
 H127 H 0.34969 0.84380 0.75840
 C128 C 0.27679 0.78643 0.69670
 H129 H 0.25650 0.76979 0.67964
 C130 C 0.30044 0.81339 0.67597
 H131 H 0.29742 0.81765 0.64330
 N132 N 0.27909 0.78142 0.73809
 C133 C 0.19009 0.75226 0.82308
 H134 H 0.18729 0.72012 0.82026
 C135 C 0.16670 0.77214 0.84866
 H136 H 0.14589 0.75515 0.86560
 C137 C 0.22010 0.81356 0.80356
 H138 H 0.24081 0.82963 0.78576
 C139 C 0.19704 0.83461 0.82830
 H140 H 0.20049 0.86681 0.82976
 Zn141 Zn 0.24736 0.74506 0.76698
 N142 N 0.21646 0.77312 0.80169
 C143 C 0.26468 0.70784 0.83960
 N144 N 0.27315 0.71413 0.79871
 C145 C 0.30049 0.69816 0.77878
 C146 C 0.31992 0.67383 0.79967
 C147 C 0.28317 0.68329 0.86154
 C148 C 0.19748 0.72724 0.70686
 C149 C 0.17813 0.70349 0.67791
 C150 C 0.20719 0.64745 0.69555
 C151 C 0.22585 0.67220 0.72422
 N152 N 0.22117 0.71146 0.72883
 H153 H 0.24340 0.72141 0.85523
 H154 H 0.30683 0.70389 0.74634
 H155 H 0.34114 0.66066 0.78309
 H156 H 0.27590 0.67817 0.89394
 H157 H 0.19391 0.75844 0.71155
 H158 H 0.15993 0.71672 0.66002
 H159 H 0.21130 0.61628 0.69231
 H160 H 0.24414 0.65991 0.74261
 C161 C 0.17006 0.81386 0.85141
 C162 C 0.32722 0.83489 0.69777
 C163 C 0.18316 0.66310 0.67170
 C164 C 0.31100 0.66573 0.84143
 Si165 Si -0.00241 0.01440 -0.01419
 Si166 Si -0.00526 0.50730 0.47845
 Si167 Si 0.49231 0.00110 0.47939
 Si168 Si 0.49882 0.50846 -0.02785
 C169 C 0.13109 -0.13193 -0.13702
 C170 C 0.10840 -0.11065 -0.11151
 C171 C 0.10042 -0.12154 -0.06996
 C172 C 0.11476 -0.15399 -0.05495
 C173 C 0.13702 -0.17530 -0.08073
 C174 C 0.14560 -0.16428 -0.12179
 C175 C 0.07828 -0.09983 -0.04412
 C176 C 0.06370 -0.06767 -0.05946
 C177 C 0.07113 -0.05730 -0.10127
 C178 C 0.09358 -0.07871 -0.12695
 C179 C 0.05589 -0.02568 -0.11671
 C180 C 0.03367 -0.00435 -0.09095
 C181 C 0.02679 -0.01390 -0.04924
 C182 C 0.04170 -0.04572 -0.03369
 H183 H 0.13726 -0.12359 -0.16887
 H184 H 0.10886 -0.16283 -0.02325
 H185 H 0.14809 -0.19999 -0.06833
 H186 H 0.07237 -0.10799 -0.01216
 H187 H 0.09947 -0.07055 -0.15891
 H188 H 0.06109 -0.01752 -0.14875
 H189 H 0.02210 0.01966 -0.10380
 H190 H 0.03612 -0.05336 -0.00153
 C191 C 0.13554 0.36756 0.35982
 C192 C 0.11168 0.38764 0.38479
 C193 C 0.10603 0.37922 0.42737
 C194 C 0.12394 0.35036 0.44402
 C195 C 0.14745 0.33026 0.41883
 C196 C 0.15366 0.33889 0.37666
 C197 C 0.08267 0.39984 0.45260
 C198 C 0.06478 0.42860 0.43570
 C199 C 0.07002 0.43648 0.39293
 C200 C 0.09347 0.41602 0.36779
 C201 C 0.05172 0.46480 0.37600
 C202 C 0.02884 0.48563 0.40130
 C203 C 0.02426 0.47883 0.44396
 C204 C 0.04184 0.44983 0.46089
 H205 H 0.13982 0.37396 0.32716
 H206 H 0.11989 0.34346 0.47655
 H207 H 0.16128 0.30842 0.43248
 H208 H 0.07853 0.39361 0.48533
 H209 H 0.09764 0.42229 0.33506
 H210 H 0.05514 0.47090 0.34321
 H211 H 0.01494 0.50706 0.38729
 H212 H 0.03788 0.44412 0.49376
 C213 C 0.63274 -0.13597 0.35562
 C214 C 0.60834 -0.11692 0.38084
 C215 C 0.59582 -0.13313 0.41907
 C216 C 0.60773 -0.16822 0.43124
 C217 C 0.63190 -0.18708 0.40587
 C218 C 0.64472 -0.17113 0.36794
 C219 C 0.57164 -0.11402 0.44452
 C220 C 0.55968 -0.07900 0.43214
 C221 C 0.57202 -0.06291 0.39378
 C222 C 0.59631 -0.08194 0.36841
 C223 C 0.55996 -0.02789 0.38154
 C224 C 0.53588 -0.00900 0.40704
 C225 C 0.52344 -0.02494 0.44495
 C226 C 0.53560 -0.05972 0.45759
 H227 H 0.64210 -0.12371 0.32616
 H228 H 0.59844 -0.18103 0.46044
 H229 H 0.64100 -0.21388 0.41624
 H230 H 0.56212 -0.12641 0.47389
 H231 H 0.60585 -0.06952 0.33906
 H232 H 0.56923 -0.01504 0.35235
 H233 H 0.52715 0.01821 0.39722
 H234 H 0.52648 -0.07166 0.48727
 C235 C 0.63503 0.36265 -0.14606
 C236 C 0.61170 0.38373 -0.12134
 C237 C 0.60366 0.37357 -0.07956
 C238 C 0.61843 0.34183 -0.06363
 C239 C 0.64112 0.32050 -0.08875
 C240 C 0.64985 0.33101 -0.12991
 C241 C 0.58101 0.39525 -0.05445
 C242 C 0.56583 0.42649 -0.07080
 C243 C 0.57311 0.43587 -0.11292
 C244 C 0.59621 0.41466 -0.13781
 C245 C 0.55707 0.46633 -0.12946
 C246 C 0.53436 0.48765 -0.10442
 C247 C 0.52789 0.47937 -0.06231
 C248 C 0.54342 0.44853 -0.04573
 H249 H 0.64140 0.37048 -0.17803
 H250 H 0.61243 0.33350 -0.03178
 H251 H 0.65238 0.29620 -0.07584
 H252 H 0.57514 0.38775 -0.02228
 H253 H 0.60206 0.42216 -0.16998
 H254 H 0.56205 0.47362 -0.16179
 H255 H 0.52217 0.51069 -0.11815
 H256 H 0.53810 0.44178 -0.01328
 C257 C -0.13326 0.13990 -0.13884
 C258 C -0.11532 0.11510 -0.11599
 C259 C -0.13344 0.08230 -0.09645
 C260 C -0.16908 0.07482 -0.09998
 C261 C -0.18686 0.09951 -0.12258
 C262 C -0.16958 0.13284 -0.14274
 C263 C -0.11569 0.05741 -0.07367
 C264 C -0.07991 0.06500 -0.07004
 C265 C -0.06165 0.09802 -0.08934
 C266 C -0.07946 0.12288 -0.11216
 C267 C -0.02586 0.10558 -0.08541
 C268 C -0.00834 0.08050 -0.06283
 C269 C -0.02624 0.04743 -0.04411
 C270 C -0.06209 0.04004 -0.04741
 H271 H -0.11855 0.16576 -0.15149
 H272 H -0.18333 0.04947 -0.08553
 H273 H -0.21404 0.09049 -0.12558
 H274 H -0.12973 0.03213 -0.05878
 H275 H -0.06542 0.14817 -0.12699
 H276 H -0.01143 0.13083 -0.09981
 H277 H 0.01928 0.08684 -0.06007
 H278 H -0.07624 0.01496 -0.03254
 C279 C -0.13273 0.64136 0.35974
 C280 C -0.11556 0.61524 0.38171
 C281 C -0.13490 0.58479 0.40402
 C282 C -0.17106 0.58136 0.40441
 C283 C -0.18794 0.60776 0.38286
 C284 C -0.16899 0.63782 0.36020
 C285 C -0.11782 0.55836 0.42564
 C286 C -0.08165 0.56229 0.42571
 C287 C -0.06233 0.59314 0.40395
 C288 C -0.07939 0.61924 0.38188
 C289 C -0.02621 0.59755 0.40493
 C290 C -0.00940 0.57165 0.42721
 C291 C -0.02834 0.54054 0.44812
 C292 C -0.06447 0.53604 0.44751
 H293 H -0.11795 0.66477 0.34271
 H294 H -0.18629 0.55825 0.42137
 H295 H -0.21589 0.60430 0.38331
 H296 H -0.13267 0.53490 0.44257
 H297 H -0.06454 0.64276 0.36504
 H298 H -0.01100 0.62119 0.38873
 H299 H 0.01849 0.57583 0.42806
 H300 H -0.07927 0.51251 0.46425
 C301 C 0.36663 0.13461 0.35652
 C302 C 0.39030 0.11763 0.37977
 C303 C 0.40759 0.14069 0.41174
 C304 C 0.40068 0.18020 0.42011
 C305 C 0.37669 0.19666 0.39726
 C306 C 0.35951 0.17410 0.36529
 C307 C 0.43118 0.12378 0.43513
 C308 C 0.43712 0.08382 0.42762
 C309 C 0.41955 0.06067 0.39593
 C310 C 0.39655 0.07782 0.37193
 C311 C 0.42507 0.02058 0.38903
 C312 C 0.44718 0.00336 0.41386
 C313 C 0.46442 0.02592 0.44567
 C314 C 0.45990 0.06642 0.45180
 H315 H 0.35319 0.11691 0.33218
 H316 H 0.41366 0.19830 0.44449
 H317 H 0.37180 0.22726 0.40425
 H318 H 0.44445 0.14150 0.45961
 H319 H 0.38316 0.06004 0.34758
 H320 H 0.41199 0.00243 0.36476
 H321 H 0.45087 -0.02767 0.40798
 H322 H 0.47363 0.08442 0.47550
 C323 C 0.36646 0.64196 -0.13909
 C324 C 0.38463 0.61576 -0.11853
 C325 C 0.36624 0.58522 -0.09545
 C326 C 0.33005 0.58182 -0.09281
 C327 C 0.31219 0.60833 -0.11294
 C328 C 0.33018 0.63844 -0.13641
 C329 C 0.38427 0.55868 -0.07525
 C330 C 0.42048 0.56266 -0.07726
 C331 C 0.43890 0.59362 -0.09972
 C332 C 0.42086 0.61977 -0.12050
 C333 C 0.47511 0.59817 -0.10059
 C334 C 0.49287 0.57238 -0.07930
 C335 C 0.47478 0.54116 -0.05772
 C336 C 0.43859 0.53645 -0.05666
 H337 H 0.38050 0.66541 -0.15678
 H338 H 0.31555 0.55865 -0.07521
 H339 H 0.28423 0.60490 -0.11079
 H340 H 0.37014 0.53515 -0.05773
 H341 H 0.43500 0.64338 -0.13789
 H342 H 0.48965 0.62194 -0.11729
 H343 H 0.52080 0.57689 -0.07956
 H344 H 0.42442 0.51289 -0.03935
 C345 C -0.13378 -0.13591 0.13168
 C346 C -0.11019 -0.10738 0.11258
 C347 C -0.09368 -0.07586 0.13694
 C348 C -0.10126 -0.07322 0.17992
 C349 C -0.12511 -0.10135 0.19872
 C350 C -0.14200 -0.13341 0.17513
 C351 C -0.06999 -0.04738 0.11795
 C352 C -0.06292 -0.04980 0.07471
 C353 C -0.07969 -0.08121 0.05023
 C354 C -0.10299 -0.10995 0.06934
 C355 C -0.07299 -0.08325 0.00694
 C356 C -0.04999 -0.05435 -0.01193
 C357 C -0.03320 -0.02320 0.01213
 C358 C -0.03950 -0.02118 0.05549
 H359 H -0.14461 -0.16065 0.11229
 H360 H -0.08909 -0.04897 0.19904
 H361 H -0.13101 -0.09652 0.23167
 H362 H -0.05726 -0.02321 0.13676
 H363 H -0.11574 -0.13408 0.05051
 H364 H -0.08562 -0.10706 -0.01232
 H365 H -0.04525 -0.05633 -0.04543
 H366 H -0.02648 0.00261 0.07433
 C367 C -0.13690 0.35894 0.62620
 C368 C -0.11428 0.38791 0.60628
 C369 C -0.10079 0.42219 0.62933
 C370 C -0.11089 0.42747 0.67151
 C371 C -0.13403 0.39900 0.69085
 C372 C -0.14708 0.36415 0.66870
 C373 C -0.07754 0.45074 0.60984
 C374 C -0.06817 0.44589 0.56732
 C375 C -0.08243 0.41218 0.54392
 C376 C -0.10507 0.38317 0.56365
 C377 C -0.07383 0.40815 0.50111
 C378 C -0.05120 0.43713 0.48174
 C379 C -0.03636 0.47013 0.50496
 C380 C -0.04485 0.47436 0.54776
 H381 H -0.14617 0.33217 0.60859
 H382 H -0.10113 0.45381 0.68952
 H383 H -0.14194 0.40467 0.72319
 H384 H -0.06693 0.47683 0.62769
 H385 H -0.11571 0.35711 0.54578
 H386 H -0.08467 0.38267 0.48260
 H387 H -0.04496 0.43354 0.44863
 H388 H -0.03357 0.49969 0.56596
 C389 C 0.36354 -0.14347 0.63426
 C390 C 0.38684 -0.11579 0.61352
 C391 C 0.40031 -0.08067 0.63520
 C392 C 0.38995 -0.07366 0.67709
 C393 C 0.36625 -0.10100 0.69729
 C394 C 0.35277 -0.13624 0.67622
 C395 C 0.42360 -0.05294 0.61458
 C396 C 0.43301 -0.05947 0.57225
 C397 C 0.41920 -0.09436 0.55043
 C398 C 0.39653 -0.12252 0.57131
 C399 C 0.42808 -0.10032 0.50793
 C400 C 0.45003 -0.07171 0.48712
 C401 C 0.46384 -0.03698 0.50848
 C402 C 0.45565 -0.03133 0.55125
 H403 H 0.35395 -0.17072 0.61766
 H404 H 0.39982 -0.04676 0.69411
 H405 H 0.35805 -0.09412 0.72930
 H406 H 0.43398 -0.02604 0.63128
 H407 H 0.38604 -0.14934 0.55456
 H408 H 0.41784 -0.12692 0.49070
 H409 H 0.45649 -0.07706 0.45433
 H410 H 0.46636 -0.00503 0.56831
 C411 C 0.36574 0.36732 0.12553
 C412 C 0.38856 0.39526 0.10443
 C413 C 0.40156 0.43079 0.12576
 C414 C 0.39084 0.43824 0.16742
 C415 C 0.36766 0.41066 0.18796
 C416 C 0.35509 0.37467 0.16753
 C417 C 0.42500 0.45835 0.10514
 C418 C 0.43515 0.45119 0.06317
 C419 C 0.42148 0.41615 0.04145
 C420 C 0.39854 0.38822 0.06233
 C421 C 0.43092 0.40976 -0.00086
 C422 C 0.45377 0.43774 -0.02139
 C423 C 0.46800 0.47210 0.00021
 C424 C 0.45865 0.47868 0.04250
 H425 H 0.35677 0.33962 0.10933
 H426 H 0.40024 0.46553 0.18410
 H427 H 0.35937 0.41779 0.21988
 H428 H 0.43520 0.48542 0.12168
 H429 H 0.38833 0.36116 0.04577
 H430 H 0.42054 0.38324 -0.01811
 H431 H 0.46055 0.43240 -0.05415
 H432 H 0.46933 0.50516 0.05941
 C433 C 0.13446 0.14233 0.14314
 C434 C 0.11521 0.11753 0.11459
 C435 C 0.13162 0.08914 0.08901
 C436 C 0.16685 0.08582 0.09267
 C437 C 0.18576 0.11050 0.12123
 C438 C 0.16987 0.13906 0.14662
 C439 C 0.11262 0.06459 0.06014
 C440 C 0.07734 0.06789 0.05661
 C441 C 0.06081 0.09603 0.08240
 C442 C 0.07986 0.12072 0.11118
 C443 C 0.02547 0.09903 0.07883
 C444 C 0.00673 0.07438 0.05003
 C445 C 0.02297 0.04641 0.02443
 C446 C 0.05833 0.04344 0.02763
 H447 H 0.12183 0.16393 0.16292
 H448 H 0.17983 0.06425 0.07328
 H449 H 0.21306 0.10771 0.12295
 H450 H 0.12528 0.04292 0.04044
 H451 H 0.06721 0.14240 0.13085
 H452 H 0.01236 0.12043 0.09828
 H453 H -0.02052 0.07717 0.04766
 H454 H 0.07118 0.02221 0.00774
 C455 C 0.12830 0.63975 0.63633
 C456 C 0.10988 0.61487 0.60711
 C457 C 0.12721 0.58739 0.58132
 C458 C 0.16259 0.58529 0.58518
 C459 C 0.18066 0.60998 0.61446
 C460 C 0.16375 0.63735 0.64036
 C461 C 0.10892 0.56235 0.55224
 C462 C 0.07344 0.56420 0.54873
 C463 C 0.05606 0.59165 0.57449
 C464 C 0.07440 0.61687 0.60346
 C465 C 0.02058 0.59339 0.57077
 C466 C 0.00249 0.56800 0.54202
 C467 C 0.01947 0.54036 0.51681
 C468 C 0.05505 0.53893 0.51989
 H469 H 0.11493 0.66046 0.65646
 H470 H 0.17629 0.56449 0.56560
 H471 H 0.20804 0.60794 0.61658
 H472 H 0.12225 0.54128 0.53250
 H473 H 0.06106 0.63791 0.62321
 H474 H 0.00684 0.61435 0.59006
 H475 H -0.02488 0.56991 0.53948
 H476 H 0.06858 0.51830 0.50001
 C477 C 0.62970 0.13690 0.63036
 C478 C 0.61053 0.11271 0.60122
 C479 C 0.62763 0.08771 0.57222
 C480 C 0.66351 0.08743 0.57271
 C481 C 0.68235 0.11141 0.60187
 C482 C 0.66571 0.13624 0.63107
 C483 C 0.60860 0.06313 0.54341
 C484 C 0.57262 0.06295 0.54338
 C485 C 0.55545 0.08799 0.57223
 C486 C 0.57453 0.11283 0.60089
 C487 C 0.51943 0.08742 0.57214
 C488 C 0.50059 0.06192 0.54409
 C489 C 0.51742 0.03673 0.51561
 C490 C 0.55351 0.03767 0.51521
 H491 H 0.61654 0.15561 0.65299
 H492 H 0.67703 0.06856 0.55061
 H493 H 0.71008 0.11080 0.60134
 H494 H 0.62176 0.04388 0.52129
 H495 H 0.56135 0.13195 0.62313
 H496 H 0.50579 0.10639 0.59399
 H497 H 0.47276 0.06162 0.54495
 H498 H 0.56690 0.01841 0.49348
 C499 C 0.63549 0.64110 0.12599
 C500 C 0.61653 0.61602 0.09745
 C501 C 0.63310 0.58727 0.07256
 C502 C 0.66833 0.58423 0.07654
 C503 C 0.68697 0.60920 0.10511
 C504 C 0.67078 0.63776 0.13019
 C505 C 0.61419 0.56192 0.04426
 C506 C 0.57886 0.56481 0.04065
 C507 C 0.56229 0.59362 0.06545
 C508 C 0.58123 0.61906 0.09365
 C509 C 0.52699 0.59647 0.06159
 C510 C 0.50825 0.57085 0.03364
 C511 C 0.52440 0.54186 0.00940
 C512 C 0.55980 0.53923 0.01265
 H513 H 0.62262 0.66267 0.14552
 H514 H 0.68147 0.56247 0.05762
 H515 H 0.71421 0.60638 0.10737
 H516 H 0.62692 0.53984 0.02524
 H517 H 0.56849 0.64110 0.11271
 H518 H 0.51388 0.61848 0.08016
 H519 H 0.48105 0.57366 0.03096
 H520 H 0.57264 0.51738 -0.00639
   
