data_POSCAR
  _audit_creation_date              2014-09-24
  _audit_creation_method            'ToBaCCo'
  _symmetry_space_group_name_H-M    'P1'
  _symmetry_Int_Tables_number       1
  _symmetry_cell_setting            triclinic
  loop_
  _symmetry_equiv_pos_as_xyz
 x,y,z
_cell_length_a 38.1422
_cell_length_b 36.9250
_cell_length_c 38.0940
_cell_angle_alpha 89.780300
_cell_angle_beta 89.717800
_cell_angle_gamma 90.263100
loop_
  _atom_site_label
  _atom_site_type_symbol
  _atom_site_fract_x
  _atom_site_fract_y
  _atom_site_fract_z
C1 C 0.19379 0.52911 1.04322
 H2 H 0.19361 0.55035 1.02358
 C3 C 0.16958 0.52966 1.07082
 H4 H 0.15079 0.55152 1.07252
 C5 C 0.21763 0.47393 1.06419
 H6 H 0.23580 0.45182 1.06103
 C7 C 0.19384 0.47340 1.09221
 H8 H 0.19407 0.45103 1.11071
 N9 N 0.21720 0.50156 1.04044
 C10 C 0.30069 0.54399 0.97306
 H11 H 0.30062 0.52360 0.95273
 C12 C 0.32561 0.57178 0.97224
 H13 H 0.34477 0.57291 0.95116
 C14 C 0.27674 0.56662 1.02618
 H15 H 0.25821 0.56401 1.04757
 C16 C 0.30128 0.59487 1.02636
 H17 H 0.30140 0.61409 1.04777
 Zn18 Zn 0.24651 0.50123 1.00024
 N19 N 0.27689 0.54191 0.99973
 C20 C 0.21796 0.52877 0.93647
 N21 N 0.21664 0.50164 0.96076
 C22 C 0.19216 0.47481 0.95889
 C23 C 0.16788 0.47436 0.93162
 C24 C 0.19410 0.52936 0.90873
 C25 C 0.29925 0.45656 1.02613
 C26 C 0.32273 0.42768 1.02652
 C27 C 0.29654 0.40551 0.97305
 C28 C 0.27349 0.43482 0.97366
 N29 N 0.27521 0.45956 1.00002
 H30 H 0.23703 0.55032 0.93888
 H31 H 0.19133 0.45395 0.97891
 H32 H 0.14832 0.45304 0.93049
 H33 H 0.19505 0.55119 0.88967
 H34 H 0.30043 0.47696 1.04640
 H35 H 0.34205 0.42574 1.04718
 H36 H 0.29539 0.38620 0.95174
 H37 H 0.25482 0.43815 0.95269
 C38 C 0.32604 0.59732 0.99923
 C39 C 0.16948 0.50143 1.09543
 C40 C 0.32145 0.40201 0.99966
 C41 C 0.16879 0.50195 0.90639
 C42 C 0.80566 0.52582 -0.03980
 H43 H 0.80641 0.54661 -0.01988
 C44 C 0.82989 0.52652 -0.06738
 H45 H 0.84931 0.54799 -0.06884
 C46 C 0.78026 0.47168 -0.06163
 H47 H 0.76144 0.44992 -0.05885
 C48 C 0.80406 0.47136 -0.08964
 H49 H 0.80327 0.44953 -0.10855
 N50 N 0.78143 0.49875 -0.03748
 C51 C 0.69885 0.54196 0.02972
 H52 H 0.69803 0.52114 0.04977
 C53 C 0.67509 0.57058 0.03088
 H54 H 0.65595 0.57190 0.05193
 C55 C 0.72399 0.56505 -0.02292
 H56 H 0.74255 0.56237 -0.04424
 C57 C 0.70064 0.59414 -0.02277
 H58 H 0.70148 0.61393 -0.04382
 Zn59 Zn 0.75182 0.49836 0.00252
 N60 N 0.72273 0.53976 0.00317
 C61 C 0.78090 0.52476 0.06625
 N62 N 0.78138 0.49755 0.04223
 C63 C 0.80498 0.47012 0.04440
 C64 C 0.82934 0.46926 0.07162
 C65 C 0.80484 0.52494 0.09390
 C66 C 0.69792 0.45577 -0.02427
 C67 C 0.67329 0.42773 -0.02520
 C68 C 0.69801 0.40360 0.02825
 C69 C 0.72227 0.43212 0.02818
 N70 N 0.72178 0.45745 0.00210
 H71 H 0.76258 0.54679 0.06359
 H72 H 0.80520 0.44923 0.02457
 H73 H 0.84831 0.44756 0.07291
 H74 H 0.80466 0.54692 0.11265
 H75 H 0.69774 0.47662 -0.04430
 H76 H 0.65409 0.42691 -0.04605
 H77 H 0.69814 0.38386 0.04936
 H78 H 0.74086 0.43441 0.04935
 C79 C 0.67591 0.59682 0.00433
 C80 C 0.82917 0.49895 -0.09243
 C81 C 0.67322 0.40153 0.00138
 C82 C 0.82938 0.49703 0.09648
 C83 C -0.02412 0.30590 0.45884
 H84 H -0.04406 0.30676 0.47911
 C85 C -0.02520 0.33034 0.43083
 H86 H -0.04612 0.35006 0.42950
 C87 C 0.02797 0.27969 0.43630
 H88 H 0.04898 0.26037 0.43887
 C89 C 0.02791 0.30367 0.40783
 H90 H 0.04875 0.30250 0.38843
 N91 N 0.00203 0.28106 0.46094
 C92 C -0.04084 0.19472 0.52688
 H93 H -0.02102 0.19351 0.54707
 C94 C -0.06896 0.17037 0.52754
 H95 H -0.07090 0.15035 0.54833
 C96 C -0.06205 0.22157 0.47449
 H97 H -0.05891 0.24102 0.45347
 C98 C -0.09057 0.19770 0.47415
 H99 H -0.10945 0.19905 0.45304
 Zn100 Zn 0.00201 0.25028 0.50075
 N101 N -0.03801 0.21980 0.50074
 C102 C -0.02414 0.27868 0.56518
 N103 N 0.00206 0.28040 0.54082
 C104 C 0.02833 0.30531 0.54326
 C105 C 0.02916 0.32954 0.57128
 C106 C -0.02430 0.30245 0.59364
 C107 C 0.04434 0.19526 0.47407
 C108 C 0.07223 0.17092 0.47312
 C109 C 0.09430 0.19737 0.52663
 C110 C 0.06599 0.22126 0.52658
 N111 N 0.04183 0.21991 0.50042
 H112 H -0.04524 0.25933 0.56234
 H113 H 0.04847 0.30649 0.52319
 H114 H 0.05006 0.34943 0.57291
 H115 H -0.04537 0.30115 0.61279
 H116 H 0.02443 0.19437 0.45396
 H117 H 0.07390 0.15123 0.45218
 H118 H 0.11326 0.19837 0.54768
 H119 H 0.06310 0.24039 0.54776
 C120 C -0.09400 0.17186 0.50090
 C121 C 0.00106 0.32923 0.40510
 C122 C 0.09738 0.17196 0.49968
 C123 C 0.00257 0.32813 0.59665
 C124 C 0.97203 0.69467 0.54182
 H125 H 0.95210 0.69358 0.52173
 C126 C 0.97089 0.67033 0.56993
 H127 H 0.94998 0.65043 0.57160
 C128 C 1.02424 0.72124 0.56372
 H129 H 1.04537 0.74060 0.56085
 C130 C 1.02409 0.69735 0.59226
 H131 H 1.04494 0.69858 0.61144
 N132 N 0.99831 0.71961 0.53934
 C133 C 0.95663 0.80508 0.47246
 H134 H 0.97670 0.80608 0.45230
 C135 C 0.92876 0.82944 0.47152
 H136 H 0.92726 0.84926 0.45055
 C137 C 0.93457 0.77879 0.52508
 H138 H 0.93730 0.75955 0.54629
 C139 C 0.90628 0.80269 0.52513
 H140 H 0.88716 0.80159 0.54624
 Zn141 Zn 0.99876 0.74996 0.49922
 N142 N 0.95893 0.78029 0.49886
 C143 C 0.97329 0.72079 0.43498
 N144 N 0.99912 0.71940 0.45950
 C145 C 1.02530 0.69458 0.45742
 C146 C 1.02647 0.67014 0.42960
 C147 C 0.97348 0.69679 0.40671
 C148 C 1.04117 0.80539 0.52532
 C149 C 1.06925 0.82974 0.52606
 C150 C 1.09166 0.80276 0.47282
 C151 C 1.06315 0.77887 0.47307
 N152 N 1.03874 0.78047 0.49921
 H153 H 0.95225 0.74008 0.43754
 H154 H 1.04513 0.69368 0.47761
 H155 H 1.04732 0.65035 0.42824
 H156 H 0.95274 0.69785 0.38741
 H157 H 1.02106 0.80646 0.54541
 H158 H 1.07089 0.84963 0.54683
 H159 H 1.11085 0.80155 0.45181
 H160 H 1.06032 0.75953 0.45208
 C161 C 0.90342 0.82826 0.49815
 C162 C 0.99719 0.67166 0.59532
 C163 C 1.09468 0.82843 0.49954
 C164 C 1.00030 0.67124 0.40405
 C165 C 0.45934 -0.02688 0.30468
 H166 H 0.47923 -0.04766 0.30515
 C167 C 0.43188 -0.02781 0.32904
 H168 H 0.43048 -0.04947 0.34828
 C169 C 0.43751 0.02753 0.27990
 H170 H 0.44025 0.04950 0.26128
 C171 C 0.40962 0.02762 0.30383
 H172 H 0.39078 0.04948 0.30335
 N173 N 0.46162 0.00046 0.28071
 C174 C 0.52859 -0.04168 0.19736
 H175 H 0.54860 -0.02082 0.19676
 C176 C 0.52972 -0.06999 0.17320
 H177 H 0.55076 -0.07097 0.15400
 C178 C 0.47609 -0.06516 0.22236
 H179 H 0.45485 -0.06274 0.24105
 C180 C 0.47619 -0.09396 0.19862
 H181 H 0.45515 -0.11377 0.19936
 Zn182 Zn 0.50150 0.00123 0.25097
 N183 N 0.50214 -0.03983 0.22136
 C184 C 0.56537 -0.02519 0.27960
 N185 N 0.54124 0.00186 0.28047
 C186 C 0.54338 0.02906 0.30438
 C187 C 0.57069 0.02986 0.32862
 C188 C 0.59312 -0.02542 0.30343
 C189 C 0.47458 0.04438 0.19752
 C190 C 0.47362 0.07265 0.17314
 C191 C 0.52707 0.09655 0.19802
 C192 C 0.52703 0.06780 0.22202
 N193 N 0.50097 0.04247 0.22134
 H194 H 0.56275 -0.04705 0.26103
 H195 H 0.52347 0.04983 0.30489
 H196 H 0.57196 0.05139 0.34782
 H197 H 0.61197 -0.04727 0.30292
 H198 H 0.45458 0.02352 0.19717
 H199 H 0.45277 0.07365 0.15396
 H200 H 0.54817 0.11628 0.19829
 H201 H 0.54822 0.06533 0.24057
 C202 C 0.50320 -0.09630 0.17373
 C203 C 0.40690 -0.00022 0.32871
 C204 C 0.50019 0.09885 0.17327
 C205 C 0.59567 0.00227 0.32825
 C206 C 0.54197 -0.02851 0.69430
 H207 H 0.52226 -0.04967 0.69415
 C208 C 0.56947 -0.02916 0.67000
 H209 H 0.57109 -0.05097 0.65113
 C210 C 0.56326 0.02656 0.71820
 H211 H 0.56029 0.04866 0.73644
 C212 C 0.59119 0.02695 0.69430
 H213 H 0.60983 0.04917 0.69443
 N214 N 0.53940 -0.00097 0.71780
 C215 C 0.47259 -0.04366 0.80170
 H216 H 0.45220 -0.02338 0.80185
 C217 C 0.47198 -0.07162 0.82648
 H218 H 0.45101 -0.07301 0.84573
 C219 C 0.52560 -0.06590 0.77732
 H220 H 0.54686 -0.06310 0.75867
 C221 C 0.52600 -0.09430 0.80168
 H222 H 0.54742 -0.11346 0.80152
 Zn223 Zn 0.49939 -0.00064 0.74734
 N224 N 0.49908 -0.04133 0.77774
 C225 C 0.43555 -0.02822 0.71898
 N226 N 0.45985 -0.00111 0.71757
 C227 C 0.45799 0.02567 0.69303
 C228 C 0.43073 0.02606 0.66874
 C229 C 0.40783 -0.02886 0.69511
 C230 C 0.52542 0.04423 0.80000
 C231 C 0.52588 0.07322 0.82341
 C232 C 0.47235 0.09518 0.79733
 C233 C 0.47289 0.06576 0.77435
 N234 N 0.49926 0.04108 0.77604
 H235 H 0.43796 -0.04972 0.73810
 H236 H 0.47801 0.04650 0.69213
 H237 H 0.42962 0.04733 0.64911
 H238 H 0.38877 -0.05068 0.69610
 H239 H 0.54570 0.02387 0.80116
 H240 H 0.54659 0.07528 0.84267
 H241 H 0.45104 0.11444 0.79619
 H242 H 0.45188 0.06233 0.75575
 C243 C 0.49902 -0.09706 0.82657
 C244 C 0.59418 -0.00108 0.66990
 C245 C 0.49902 0.09883 0.82215
 C246 C 0.40550 -0.00152 0.66971
 Si247 Si 0.25315 -0.00039 0.49938
 Si248 Si 0.74765 0.00058 0.49899
 Si249 Si 0.49602 0.25062 0.99665
 Si250 Si 0.50254 0.74989 0.00242
 Si251 Si 1.00051 0.49893 0.24798
 Si252 Si -0.00079 0.49993 0.75326
 C253 C 0.17473 0.09597 0.50104
 C254 C 0.19920 0.09336 0.47363
 C255 C 0.22358 0.06517 0.47337
 C256 C 0.12537 0.14598 0.50001
 C257 C 0.19936 0.04242 0.52814
 C258 C 0.17504 0.07058 0.52841
 C259 C 0.14824 0.12357 0.50041
 C260 C 0.22372 0.03950 0.50062
 H261 H 0.19899 0.11269 0.45217
 H262 H 0.24164 0.06308 0.45152
 H263 H 0.19879 0.02255 0.54913
 H264 H 0.15609 0.07218 0.54962
 C265 C 0.60050 0.67494 0.00432
 C266 C 0.59178 0.69339 -0.02661
 C267 C 0.56316 0.71695 -0.02706
 C268 C 0.65031 0.62534 0.00416
 C269 C 0.55236 0.70426 0.03453
 C270 C 0.58095 0.68074 0.03497
 C271 C 0.62805 0.64843 0.00416
 C272 C 0.54308 0.72217 0.00343
 H273 H 0.60657 0.68892 -0.05054
 H274 H 0.55621 0.73016 -0.05144
 H275 H 0.53695 0.70777 0.05822
 H276 H 0.58732 0.66646 0.05899
 C277 C 0.82617 -0.09567 0.49983
 C278 C 0.80202 -0.09261 0.47241
 C279 C 0.77762 -0.06443 0.47237
 C280 C 0.87547 -0.14573 0.49854
 C281 C 0.80125 -0.04259 0.52735
 C282 C 0.82557 -0.07074 0.52740
 C283 C 0.85263 -0.12329 0.49903
 C284 C 0.77717 -0.03924 0.49985
 H285 H 0.80246 -0.11158 0.45080
 H286 H 0.75979 -0.06198 0.45052
 H287 H 0.80157 -0.02309 0.54852
 H288 H 0.84429 -0.07270 0.54862
 C289 C 0.39698 0.32418 0.99609
 C290 C 0.42012 0.32403 0.96747
 C291 C 0.44898 0.30090 0.96741
 C292 C 0.34696 0.37345 0.99847
 C293 C 0.43116 0.27705 1.02412
 C294 C 0.40225 0.30026 1.02419
 C295 C 0.36924 0.35042 0.99742
 C296 C 0.45517 0.27794 0.99612
 H297 H 0.41633 0.34241 0.94559
 H298 H 0.46710 0.30171 0.94543
 H299 H 0.43495 0.25911 1.04624
 H300 H 0.38445 0.30009 1.04644
 C301 C 0.82762 0.09632 0.49858
 C302 C 0.82690 0.07155 0.47087
 C303 C 0.80212 0.04360 0.47075
 C304 C 0.87771 0.14599 0.50027
 C305 C 0.77823 0.06534 0.52580
 C306 C 0.80309 0.09332 0.52593
 C307 C 0.85453 0.12371 0.49958
 C308 C 0.77769 0.04028 0.49822
 H309 H 0.84590 0.07346 0.44969
 H310 H 0.80237 0.02418 0.44951
 H311 H 0.76014 0.06292 0.54763
 H312 H 0.80360 0.11218 0.54764
 C313 C 0.40602 0.67112 0.00124
 C314 C 0.40078 0.70863 0.00044
 C315 C 0.42960 0.73224 0.00088
 C316 C 0.35314 0.62456 0.00000
 C317 C 0.46885 0.68092 0.00281
 C318 C 0.44011 0.65738 0.00239
 C319 C 0.37675 0.64638 0.00060
 C320 C 0.46388 0.71857 0.00225
 H321 H 0.37451 0.71958 -0.00064
 H322 H 0.42516 0.76117 -0.00010
 H323 H 0.49484 0.66942 0.00340
 H324 H 0.44450 0.62841 0.00284
 C325 C 0.17309 -0.09602 0.49790
 C326 C 0.19734 -0.09359 0.52528
 C327 C 0.22220 -0.06562 0.52549
 C328 C 0.12299 -0.14570 0.49907
 C329 C 0.19886 -0.04272 0.47071
 C330 C 0.17406 -0.07067 0.47050
 C331 C 0.14617 -0.12342 0.49858
 C332 C 0.22302 -0.03999 0.49821
 H333 H 0.19662 -0.11289 0.54677
 H334 H 0.24009 -0.06366 0.54733
 H335 H 0.19882 -0.02288 0.44970
 H336 H 0.15528 -0.07213 0.44930
 C337 C 0.59321 0.32782 1.00181
 C338 C 0.59796 0.29025 1.00047
 C339 C 0.56879 0.26710 0.99923
 C340 C 0.64635 0.37404 1.00197
 C341 C 0.53024 0.31901 1.00108
 C342 C 0.55929 0.34206 1.00236
 C343 C 0.62273 0.35222 1.00210
 C344 C 0.53476 0.28139 0.99890
 H345 H 0.62410 0.27891 1.00021
 H346 H 0.57277 0.23810 0.99820
 H347 H 0.50441 0.33084 1.00187
 H348 H 0.55529 0.37106 1.00366
 C349 C 0.50078 0.17304 1.09364
 C350 C 0.50141 0.15895 1.05962
 C351 C 0.50024 0.18211 1.03064
 C352 C 0.50080 0.12654 1.14658
 C353 C 0.49835 0.23387 1.06947
 C354 C 0.49947 0.21059 1.09857
 C355 C 0.50098 0.14850 1.12308
 C356 C 0.49810 0.21971 1.03532
 H357 H 0.50268 0.12996 1.05548
 H358 H 0.50110 0.17038 1.00472
 H359 H 0.49734 0.26285 1.07358
 H360 H 0.49915 0.22183 1.12479
 C361 C -0.00330 0.59589 0.67357
 C362 C 0.02404 0.59374 0.69789
 C363 C 0.02458 0.56563 0.72262
 C364 C -0.00283 0.64578 0.62364
 C365 C -0.02977 0.54204 0.69900
 C366 C -0.03031 0.57011 0.67434
 C367 C -0.00297 0.62343 0.64678
 C368 C -0.00233 0.53961 0.72324
 H369 H 0.04524 0.61337 0.69732
 H370 H 0.04637 0.56392 0.74058
 H371 H -0.05050 0.52189 0.69881
 H372 H -0.05146 0.57136 0.65550
 C373 C 0.50217 0.82701 -0.09529
 C374 C 0.47619 0.80032 -0.09176
 C375 C 0.47660 0.77656 -0.06305
 C376 C 0.49995 0.87527 -0.14672
 C377 C 0.52933 0.80563 -0.04175
 C378 C 0.52895 0.82932 -0.07043
 C379 C 0.50088 0.85284 -0.12366
 C380 C 0.50279 0.77952 -0.03742
 H381 H 0.45545 0.79811 -0.11096
 H382 H 0.45631 0.75614 -0.06101
 H383 H 0.55033 0.80795 -0.02299
 H384 H 0.54933 0.84971 -0.07299
 C385 C 0.99976 0.40323 0.32802
 C386 C 1.02712 0.40613 0.30349
 C387 C 1.02712 0.43412 0.27862
 C388 C 1.00093 0.35363 0.37821
 C389 C 0.97222 0.45607 0.30252
 C390 C 0.97221 0.42812 0.32731
 C391 C 1.00055 0.37584 0.35495
 C392 C 0.99968 0.45927 0.27808
 H393 H 1.04871 0.38719 0.30400
 H394 H 1.04893 0.43646 0.26050
 H395 H 0.95108 0.47555 0.30277
 H396 H 0.95103 0.42629 0.34631
 C397 C 0.50342 0.82740 0.09921
 C398 C 0.53363 0.82278 0.07877
 C399 C 0.53338 0.79879 0.05049
 C400 C 0.50306 0.87694 0.14920
 C401 C 0.47300 0.78312 0.06351
 C402 C 0.47324 0.80717 0.09181
 C403 C 0.50311 0.85392 0.12681
 C404 C 0.50282 0.77942 0.04209
 H405 H 0.55725 0.83803 0.08442
 H406 H 0.55713 0.79543 0.03526
 H407 H 0.44934 0.76796 0.05837
 H408 H 0.44976 0.81035 0.10760
 C409 C 0.00232 0.40380 0.67445
 C410 C -0.02518 0.40595 0.69886
 C411 C -0.02589 0.43409 0.72335
 C412 C 0.00227 0.35392 0.62485
 C413 C 0.02859 0.45770 0.69932
 C414 C 0.02931 0.42959 0.67491
 C415 C 0.00218 0.37625 0.64785
 C416 C 0.00099 0.46015 0.72364
 H417 H -0.04635 0.38630 0.69854
 H418 H -0.04779 0.43582 0.74138
 H419 H 0.04929 0.47787 0.69888
 H420 H 0.05058 0.42835 0.65600
 C421 C 0.49550 0.17701 0.89749
 C422 C 0.52365 0.20083 0.90285
 C423 C 0.52356 0.22410 0.93177
 C424 C 0.49789 0.12751 0.84758
 C425 C 0.46672 0.20054 0.94938
 C426 C 0.46680 0.17734 0.92051
 C427 C 0.49685 0.15065 0.86980
 C428 C 0.49547 0.22337 0.95569
 H429 H 0.54596 0.20085 0.88515
 H430 H 0.54572 0.24194 0.93566
 H431 H 0.44468 0.19985 0.96742
 H432 H 0.44488 0.15905 0.91664
 C433 C 1.00150 0.59526 0.32658
 C434 C 0.97409 0.59219 0.30242
 C435 C 0.97399 0.56398 0.27801
 C436 C 1.00044 0.64531 0.37598
 C437 C 1.02889 0.54213 0.30163
 C438 C 1.02900 0.57030 0.32597
 C439 C 1.00079 0.62289 0.35307
 C440 C 1.00139 0.53877 0.27754
 H441 H 0.95253 0.61118 0.30288
 H442 H 0.95215 0.56153 0.26017
 H443 H 1.05000 0.52261 0.30193
 H444 H 1.05021 0.57226 0.34469
 C445 C 1.09493 0.49869 0.16982
 C446 C 1.07076 0.47003 0.17023
 C447 C 1.04299 0.46994 0.19429
 C448 C 1.14480 0.50050 0.12138
 C449 C 1.06361 0.52698 0.21793
 C450 C 1.09139 0.52708 0.19382
 C451 C 1.12238 0.49965 0.14379
 C452 C 1.03927 0.49838 0.21828
 H453 H 1.07309 0.44805 0.15161
 H454 H 1.02417 0.44789 0.19391
 H455 H 1.06091 0.54959 0.23566
 H456 H 1.10976 0.54955 0.19353
 C457 C 0.66972 0.00119 0.59364
 C458 C 0.69368 -0.02722 0.59016
 C459 C 0.71768 -0.02726 0.56229
 C460 C 0.62153 -0.00028 0.64375
 C461 C 0.69403 0.02965 0.54145
 C462 C 0.67007 0.02970 0.56931
 C463 C 0.64383 0.00040 0.62123
 C464 C 0.71799 0.00121 0.53779
 H465 H 0.69343 -0.04958 0.60866
 H466 H 0.73541 -0.04987 0.55964
 H467 H 0.69362 0.05160 0.52252
 H468 H 0.65149 0.05169 0.57159
 C469 C -0.09520 0.49735 0.83140
 C470 C -0.07054 0.46938 0.83133
 C471 C -0.04281 0.46993 0.80722
 C472 C -0.14490 0.49827 0.88002
 C473 C -0.06448 0.52621 0.78285
 C474 C -0.09222 0.52566 0.80699
 C475 C -0.12256 0.49778 0.85753
 C476 C -0.03961 0.49833 0.78286
 H477 H -0.07244 0.44748 0.85026
 H478 H -0.02358 0.44845 0.80788
 H479 H -0.06219 0.54878 0.76481
 H480 H -0.11097 0.54761 0.80702
 C481 C 0.33123 0.00126 0.40484
 C482 C 0.30680 -0.02700 0.40802
 C483 C 0.28272 -0.02732 0.43584
 C484 C 0.37953 0.00029 0.35483
 C485 C 0.30724 0.02904 0.45721
 C486 C 0.33128 0.02937 0.42941
 C487 C 0.35719 0.00074 0.37732
 C488 C 0.28282 0.00073 0.46058
 H489 H 0.30673 -0.04905 0.38934
 H490 H 0.26462 -0.04983 0.43826
 H491 H 0.30797 0.05066 0.47633
 H492 H 0.35022 0.05124 0.42736
 C493 C 0.09333 0.50325 0.83078
 C494 C 0.06851 0.53106 0.83060
 C495 C 0.04083 0.53024 0.80672
 C496 C 0.14293 0.50269 0.87903
 C497 C 0.06287 0.47400 0.78281
 C498 C 0.09055 0.47481 0.80673
 C499 C 0.12065 0.50308 0.85670
 C500 C 0.03785 0.50173 0.78269
 H501 H 0.07024 0.55305 0.84927
 H502 H 0.02149 0.55163 0.80727
 H503 H 0.06075 0.45135 0.76503
 H504 H 0.10943 0.45298 0.80686
 C505 C 0.67059 0.00012 0.40438
 C506 C 0.67036 -0.02835 0.42876
 C507 C 0.69408 -0.02834 0.45659
 C508 C 0.62282 0.00157 0.35433
 C509 C 0.71864 0.02844 0.43564
 C510 C 0.69488 0.02843 0.40778
 C511 C 0.64494 0.00092 0.37682
 C512 C 0.71836 0.00001 0.46018
 H513 H 0.65153 -0.05027 0.42654
 H514 H 0.69322 -0.05025 0.47557
 H515 H 0.73664 0.05096 0.43823
 H516 H 0.69508 0.05076 0.38924
 C517 C 0.90585 0.49920 0.17104
 C518 C 0.93017 0.52771 0.17075
 C519 C 0.95805 0.52775 0.19441
 C520 C 0.85561 0.49771 0.12348
 C521 C 0.93724 0.47094 0.21902
 C522 C 0.90935 0.47089 0.19532
 C523 C 0.87820 0.49837 0.14550
 C524 C 0.96172 0.49941 0.21870
 H525 H 0.92787 0.54962 0.15192
 H526 H 0.97697 0.54970 0.19351
 H527 H 0.93989 0.44841 0.23701
 H528 H 0.89085 0.44854 0.19557
 C529 C 0.33021 -0.00311 0.59395
 C530 C 0.30632 0.02540 0.59084
 C531 C 0.28256 0.02606 0.56300
 C532 C 0.37821 -0.00235 0.64379
 C533 C 0.30630 -0.03046 0.54147
 C534 C 0.33003 -0.03113 0.56929
 C535 C 0.35598 -0.00282 0.62140
 C536 C 0.28243 -0.00189 0.53817
 H537 H 0.30646 0.04739 0.60958
 H538 H 0.26489 0.04874 0.56065
 H539 H 0.30685 -0.05202 0.52227
 H540 H 0.34857 -0.05317 0.57127
   
