data_POSCAR
  _audit_creation_date              2014-09-24
  _audit_creation_method            'ToBaCCo'
  _symmetry_space_group_name_H-M    'P1'
  _symmetry_Int_Tables_number       1
  _symmetry_cell_setting            triclinic
  loop_
  _symmetry_equiv_pos_as_xyz
 x,y,z
_cell_length_a 37.0359
_cell_length_b 36.9773
_cell_length_c 37.3526
_cell_angle_alpha 91.494600
_cell_angle_beta 89.013700
_cell_angle_gamma 88.743000
loop_
  _atom_site_label
  _atom_site_type_symbol
  _atom_site_fract_x
  _atom_site_fract_y
  _atom_site_fract_z
C1 C 0.03497 0.43268 0.22823
 H2 H 0.05814 0.43976 0.24387
 C3 C 0.03261 0.39758 0.21410
 H4 H 0.05527 0.37927 0.21793
 C5 C -0.02164 0.44887 0.20428
 H6 H -0.04321 0.46879 0.20168
 C7 C -0.02523 0.41399 0.18966
 H8 H -0.05019 0.40804 0.17640
 N9 N 0.00790 0.45737 0.22348
 C10 C 0.01609 0.57412 0.23601
 H11 H 0.01781 0.57520 0.26490
 C12 C 0.01958 0.60560 0.21680
 H13 H 0.02337 0.63100 0.23118
 C14 C 0.00854 0.53944 0.18247
 H15 H 0.00467 0.51344 0.16936
 C16 C 0.01172 0.57049 0.16208
 H17 H 0.01019 0.56823 0.13319
 Zn18 Zn 0.00833 0.50204 0.24902
 N19 N 0.01054 0.54197 0.21877
 C20 C 0.08102 0.50913 0.25789
 N21 N 0.05007 0.50371 0.27687
 C22 C 0.05013 0.50026 0.31304
 C23 C 0.08267 0.50153 0.33142
 C24 C 0.11386 0.51120 0.27516
 C25 C -0.05850 0.53297 0.27215
 C26 C -0.09207 0.53361 0.28959
 C27 C -0.07547 0.47766 0.31768
 C28 C -0.04215 0.47806 0.29961
 N29 N -0.03439 0.50540 0.27728
 H30 H 0.08007 0.51176 0.22914
 H31 H 0.02513 0.49637 0.32761
 H32 H 0.08268 0.49857 0.36019
 H33 H 0.13831 0.51526 0.25959
 H34 H -0.05238 0.55386 0.25348
 H35 H -0.11130 0.55515 0.28409
 H36 H -0.08128 0.45557 0.33519
 H37 H -0.02283 0.45602 0.30256
 C38 C 0.01746 0.60408 0.17934
 C39 C 0.00180 0.38712 0.19499
 C40 C -0.10112 0.50549 0.31238
 C41 C 0.11491 0.50724 0.31230
 C42 C 0.02853 0.53858 0.79803
 H43 H 0.05107 0.51944 0.79717
 C44 C 0.03091 0.57113 0.81774
 H45 H 0.05512 0.57658 0.83261
 C46 C -0.02991 0.55534 0.77863
 H47 H -0.05313 0.54981 0.76248
 C48 C -0.02878 0.58796 0.79810
 H49 H -0.05133 0.60699 0.79675
 N50 N -0.00153 0.53138 0.77887
 C51 C -0.00998 0.41643 0.75358
 H52 H -0.01625 0.41892 0.72556
 C53 C -0.01008 0.38256 0.76896
 H54 H -0.01721 0.35926 0.75264
 C55 C 0.00601 0.44434 0.80873
 H56 H 0.01232 0.46854 0.82399
 C57 C 0.00665 0.41077 0.82518
 H58 H 0.01394 0.40948 0.85306
 Zn59 Zn -0.00168 0.48982 0.74799
 N60 N -0.00183 0.44639 0.77342
 C61 C 0.06531 0.46230 0.72171
 N62 N 0.04111 0.49035 0.71945
 C63 C 0.04941 0.52054 0.70126
 C64 C 0.08361 0.52368 0.68524
 C65 C 0.09966 0.46430 0.70615
 C66 C -0.07500 0.48338 0.73997
 C67 C -0.10822 0.48124 0.72323
 C68 C -0.07823 0.49294 0.66699
 C69 C -0.04539 0.49458 0.68500
 N70 N -0.04448 0.49002 0.72090
 H71 H 0.05864 0.43877 0.73676
 H72 H 0.03002 0.54280 0.70054
 H73 H 0.09020 0.54841 0.67195
 H74 H 0.11854 0.44176 0.70859
 H75 H -0.07348 0.47988 0.76858
 H76 H -0.13146 0.47774 0.74053
 H77 H -0.07695 0.49531 0.63825
 H78 H -0.02060 0.49905 0.67021
 C79 C -0.00130 0.37924 0.80514
 C80 C 0.00203 0.59641 0.81774
 C81 C -0.11092 0.48593 0.68584
 C82 C 0.10950 0.49556 0.68825
 C83 C 0.19552 0.03758 0.44919
 H84 H 0.19511 0.06096 0.46724
 C85 C 0.17659 0.03870 0.41709
 H86 H 0.16118 0.06286 0.41079
 C87 C 0.21713 -0.02189 0.43478
 H88 H 0.23381 -0.04508 0.44102
 C89 C 0.19825 -0.02211 0.40277
 H90 H 0.20050 -0.04564 0.38492
 N91 N 0.21548 0.00765 0.45731
 C92 C 0.23672 0.00707 0.57204
 H93 H 0.26580 0.00384 0.57022
 C94 C 0.21945 0.00864 0.60549
 H95 H 0.23542 0.00614 0.62935
 C96 C 0.18073 0.01375 0.54285
 H97 H 0.16588 0.01581 0.51830
 C98 C 0.16224 0.01516 0.57592
 H99 H 0.13312 0.01852 0.57661
 Zn100 Zn 0.24507 0.00920 0.49843
 N101 N 0.21738 0.01022 0.54162
 C102 C 0.26781 0.07754 0.52348
 N103 N 0.27215 0.05230 0.49649
 C104 C 0.29215 0.05929 0.46666
 C105 C 0.30821 0.09299 0.46298
 C106 C 0.28351 0.11131 0.52102
 C107 C 0.25682 -0.06420 0.50614
 C108 C 0.27543 -0.09727 0.50766
 C109 C 0.33099 -0.06652 0.49546
 C110 C 0.31118 -0.03382 0.49416
 N111 N 0.27469 -0.03337 0.49919
 H112 H 0.25121 0.07213 0.54664
 H113 H 0.29456 0.03914 0.44517
 H114 H 0.32305 0.09842 0.43856
 H115 H 0.27963 0.13079 0.54297
 H116 H 0.22782 -0.06305 0.51025
 H117 H 0.26034 -0.12148 0.51244
 H118 H 0.36002 -0.06643 0.49160
 H119 H 0.32494 -0.00891 0.48918
 C120 C 0.18176 0.01301 0.60780
 C121 C 0.17798 0.00858 0.39335
 C122 C 0.31306 -0.09887 0.50233
 C123 C 0.30349 0.11977 0.49022
 C124 C 0.80543 0.03058 0.55314
 H125 H 0.80171 0.05415 0.53694
 C126 C 0.82577 0.03293 0.58428
 H127 H 0.83828 0.05821 0.59156
 C128 C 0.79206 -0.03048 0.56451
 H129 H 0.77804 -0.05485 0.55758
 C130 C 0.81228 -0.02942 0.59556
 H131 H 0.81341 -0.05308 0.61203
 N132 N 0.78870 -0.00069 0.54414
 C133 C 0.76113 -0.01795 0.43345
 H134 H 0.73509 -0.02975 0.43823
 C135 C 0.77545 -0.01786 0.39877
 H136 H 0.75948 -0.02945 0.37758
 C137 C 0.81087 0.01435 0.45553
 H138 H 0.82437 0.02705 0.47780
 C139 C 0.82600 0.01565 0.42104
 H140 H 0.85180 0.02844 0.41787
 Zn141 Zn 0.75537 -0.00098 0.50631
 N142 N 0.77901 -0.00234 0.46103
 C143 C 0.72557 0.06369 0.48160
 N144 N 0.72729 0.04209 0.51046
 C145 C 0.71270 0.05290 0.54276
 C146 C 0.69636 0.08722 0.54714
 C147 C 0.70972 0.09811 0.48483
 C148 C 0.74311 -0.07434 0.49886
 C149 C 0.72543 -0.10685 0.50252
 C150 C 0.67395 -0.07367 0.52829
 C151 C 0.69262 -0.04154 0.52380
 N152 N 0.72679 -0.04258 0.50980
 H153 H 0.73741 0.05471 0.45619
 H154 H 0.71502 0.03542 0.56542
 H155 H 0.68584 0.09598 0.57325
 H156 H 0.70901 0.11509 0.46165
 H157 H 0.77031 -0.07439 0.48782
 H158 H 0.73901 -0.13171 0.49337
 H159 H 0.64721 -0.07254 0.54049
 H160 H 0.68017 -0.01598 0.53231
 C161 C 0.80840 -0.00074 0.39174
 C162 C 0.82893 0.00274 0.60617
 C163 C 0.69064 -0.10696 0.51804
 C164 C 0.69552 0.11052 0.51806
 C165 C 0.55324 0.22032 0.95859
 H166 H 0.54479 0.23416 0.93492
 C167 C 0.58662 0.20199 0.95840
 H168 H 0.60323 0.20143 0.93424
 C169 C 0.54210 0.20471 1.01882
 H170 H 0.52495 0.20679 1.04256
 C171 C 0.57536 0.18612 1.01984
 H172 H 0.58353 0.17394 1.04455
 N173 N 0.53202 0.22187 0.98870
 C174 C 0.41590 0.24630 0.99129
 H175 H 0.41705 0.27526 0.98812
 C176 C 0.38253 0.22978 0.99321
 H177 H 0.35869 0.24678 0.99032
 C178 C 0.44658 0.18996 0.99623
 H179 H 0.47171 0.17465 0.99754
 C180 C 0.41363 0.17210 0.99793
 H181 H 0.41446 0.14319 1.00156
 Zn182 Zn 0.49056 0.25291 0.99061
 N183 N 0.44709 0.22649 0.99328
 C184 C 0.46731 0.26786 0.92145
 N185 N 0.48923 0.28007 0.94780
 C186 C 0.51096 0.30872 0.94246
 C187 C 0.51098 0.32625 0.90961
 C188 C 0.46624 0.28469 0.88852
 C189 C 0.46588 0.28460 1.05685
 C190 C 0.46905 0.30276 1.08977
 C191 C 0.53048 0.31668 1.07374
 C192 C 0.52594 0.29865 1.04067
 N193 N 0.49399 0.28292 1.03285
 H194 H 0.45102 0.24441 0.92558
 H195 H 0.52875 0.31761 0.96340
 H196 H 0.52907 0.34845 0.90565
 H197 H 0.44808 0.27460 0.86838
 H198 H 0.44114 0.27096 1.05126
 H199 H 0.44647 0.30314 1.10860
 H200 H 0.55617 0.32864 1.07978
 H201 H 0.54838 0.29604 1.02179
 C202 C 0.38057 0.19197 0.99680
 C203 C 0.59849 0.18522 0.98955
 C204 C 0.50172 0.31881 1.09876
 C205 C 0.48851 0.31411 0.88194
 C206 C 0.45294 0.80617 1.00117
 H207 H 0.47629 0.82278 1.00487
 C208 C 0.41843 0.82227 1.00126
 H209 H 0.41644 0.85141 1.00411
 C210 C 0.42834 0.74843 0.99080
 H211 H 0.43253 0.71950 0.98723
 C212 C 0.39346 0.76324 0.99063
 H213 H 0.37149 0.74468 0.98789
 N214 N 0.45709 0.76977 0.99674
 C215 C 0.56678 0.77530 0.97321
 H216 H 0.56463 0.75579 0.95144
 C217 C 0.59669 0.79741 0.97418
 H218 H 0.61693 0.79474 0.95294
 C219 C 0.54473 0.80064 1.02847
 H220 H 0.52452 0.80129 1.04975
 C221 C 0.57460 0.82309 1.03072
 H222 H 0.57712 0.84132 1.05366
 Zn223 Zn 0.50218 0.74518 0.99844
 N224 N 0.54127 0.77748 0.99988
 C225 C 0.50246 0.73489 0.92547
 N226 N 0.50581 0.71632 0.95620
 C227 C 0.51055 0.67971 0.95568
 C228 C 0.51315 0.66048 0.92292
 C229 C 0.50563 0.71696 0.89237
 C230 C 0.47487 0.71936 1.06335
 C231 C 0.47623 0.70220 1.09602
 C232 C 0.53674 0.68071 1.08073
 C233 C 0.53414 0.69822 1.04806
 N234 N 0.50359 0.71729 1.04017
 H235 H 0.49800 0.76391 0.92683
 H236 H 0.51238 0.66550 0.98053
 H237 H 0.51718 0.63138 0.92251
 H238 H 0.50342 0.73222 0.86811
 H239 H 0.45108 0.73517 1.05714
 H240 H 0.45297 0.70428 1.11398
 H241 H 0.56162 0.66658 1.08710
 H242 H 0.55684 0.69752 1.02942
 C243 C 0.60097 0.82162 1.00321
 C244 C 0.38760 0.80080 0.99646
 C245 C 0.50767 0.68314 1.10544
 C246 C 0.51124 0.67940 0.89089
 B247 B 0.99495 1.03395 0.02613
 B248 B 0.99682 1.03387 -0.02063
 B249 B 1.03363 1.01904 0.00271
 B250 B 1.01836 0.99596 0.03973
 B251 B 0.97181 0.99655 0.03894
 B252 B 0.95820 1.02022 0.00192
 B253 B 0.99706 0.95821 -0.02215
 B254 B 0.99601 0.95825 0.02383
 B255 B 0.95819 0.97376 0.00075
 B256 B 0.97383 0.99644 -0.03612
 B257 B 1.02037 0.99577 -0.03564
 B258 B 1.03412 0.97226 0.00208
 B259 B 0.54163 0.50014 0.47262
 B260 B 0.54061 0.50027 0.51884
 B261 B 0.52832 0.53960 0.49687
 B262 B 0.50525 0.52535 0.45828
 B263 B 0.50368 0.47863 0.45814
 B264 B 0.52526 0.46335 0.49617
 B265 B 0.46492 0.50508 0.51858
 B266 B 0.46653 0.50450 0.47216
 B267 B 0.47846 0.46624 0.49496
 B268 B 0.50117 0.47994 0.53301
 B269 B 0.50350 0.52618 0.53332
 B270 B 0.48165 0.54187 0.49604
 C271 C 0.99014 1.27818 0.15701
 C272 C 0.97141 1.30680 0.14104
 C273 C 0.97519 1.34243 0.15340
 C274 C 0.99790 1.35079 0.18231
 C275 C 1.01637 1.32165 0.19841
 C276 C 1.01253 1.28600 0.18593
 C277 C 0.98705 1.24066 0.14260
 N278 N 1.00671 1.21278 0.15604
 N279 N 1.00524 1.17954 0.14141
 C280 C 0.98399 1.17292 0.11279
 N281 N 0.96396 1.20070 0.09986
 N282 N 0.96541 1.23378 0.11444
 C283 C 0.98452 1.13723 0.09386
 C284 C 0.96947 1.13420 0.06003
 C285 C 0.97234 1.10196 0.04030
 C286 C 0.99114 1.07118 0.05210
 C287 C 1.00230 1.07357 0.08824
 C288 C 1.00027 1.10623 0.10832
 H289 H 0.95415 1.30184 0.11841
 H290 H 0.96127 1.36330 0.13892
 H291 H 1.03293 1.32574 0.22164
 H292 H 1.02713 1.26456 0.19907
 H293 H 0.95629 1.15717 0.04793
 H294 H 0.96170 1.10288 0.01448
 H295 H 1.01041 1.05048 0.10271
 H296 H 1.01028 1.10694 0.13540
 C297 C 1.02090 0.70529 0.12530
 C298 C 0.99658 0.67852 0.11461
 C299 C 0.99634 0.64509 0.13122
 C300 C 1.02032 0.63777 0.15893
 C301 C 1.04559 0.66394 0.16863
 C302 C 1.04590 0.69731 0.15199
 C303 C 1.01898 0.74181 0.10993
 N304 N 1.04208 0.76800 0.12033
 N305 N 1.03913 0.80129 0.10769
 C306 C 1.01285 0.80978 0.08421
 N307 N 0.98996 0.78352 0.07369
 N308 N 0.99293 0.75029 0.08627
 C309 C 1.00872 0.84686 0.07052
 C310 C 0.97999 0.85544 0.04839
 C311 C 0.97606 0.88992 0.03478
 C312 C 0.99976 0.91812 0.04283
 C313 C 1.02936 0.90836 0.06451
 C314 C 1.03350 0.87378 0.07851
 H315 H 0.97705 0.68367 0.09401
 H316 H 0.97642 0.62554 0.12336
 H317 H 1.06481 0.65877 0.18952
 H318 H 1.06520 0.71714 0.16068
 H319 H 0.96048 0.83530 0.04097
 H320 H 0.95434 0.89317 0.01717
 H321 H 1.05110 0.92648 0.06940
 H322 H 1.05677 0.86796 0.09473
 C323 C 1.00039 1.27402 -0.14759
 C324 C 0.98868 1.30486 -0.12745
 C325 C 0.98810 1.33894 -0.14273
 C326 C 0.99958 1.34304 -0.17841
 C327 C 1.01156 1.31215 -0.19844
 C328 C 1.01171 1.27800 -0.18328
 C329 C 1.00131 1.23810 -0.13107
 N330 N 1.00367 1.20707 -0.15144
 N331 N 1.00468 1.17485 -0.13619
 C332 C 1.00367 1.17248 -0.09996
 N333 N 1.00127 1.20350 -0.07973
 N334 N 1.00003 1.23560 -0.09493
 C335 C 1.00504 1.13718 -0.08230
 C336 C 1.01458 1.13581 -0.04644
 C337 C 1.01375 1.10341 -0.02850
 C338 C 1.00104 1.07122 -0.04416
 C339 C 0.99624 1.07230 -0.08172
 C340 C 0.99729 1.10472 -0.10037
 H341 H 0.97955 1.30266 -0.09992
 H342 H 0.97812 1.36197 -0.12671
 H343 H 1.02128 1.31436 -0.22577
 H344 H 1.02124 1.25482 -0.19936
 H345 H 1.02287 1.15991 -0.03195
 H346 H 1.02244 1.10492 -0.00177
 H347 H 0.99344 1.04799 -0.09768
 H348 H 0.99202 1.10427 -0.12880
 C349 C 1.00570 0.70253 -0.13192
 C350 C 1.03650 0.68731 -0.14957
 C351 C 1.03575 0.65240 -0.16500
 C352 C 1.00417 0.63205 -0.16319
 C353 C 0.97380 0.64687 -0.14466
 C354 C 0.97455 0.68161 -0.12921
 C355 C 1.00538 0.74023 -0.11718
 N356 N 0.97492 0.75475 -0.10141
 N357 N 0.97396 0.78872 -0.08878
 C358 C 1.00337 0.80984 -0.09138
 N359 N 1.03397 0.79537 -0.10706
 N360 N 1.03493 0.76128 -0.11976
 C361 C 1.00179 0.84759 -0.07681
 C362 C 1.03193 0.86983 -0.07763
 C363 C 1.03005 0.90475 -0.06206
 C364 C 0.99850 0.91854 -0.04406
 C365 C 0.96785 0.89657 -0.04649
 C366 C 0.96949 0.86187 -0.06188
 H367 H 1.06097 0.70260 -0.15209
 H368 H 1.05949 0.64181 -0.17939
 H369 H 0.94925 0.63165 -0.14235
 H370 H 0.95040 0.69224 -0.11556
 H371 H 1.05718 0.86018 -0.08984
 H372 H 1.05413 0.92067 -0.06333
 H373 H 0.94163 0.90613 -0.03782
 H374 H 0.94507 0.84630 -0.06210
 C375 C 1.12844 1.00829 0.28966
 C376 C 1.14748 1.03855 0.30196
 C377 C 1.16269 1.03912 0.33605
 C378 C 1.15957 1.00928 0.35835
 C379 C 1.14018 0.97926 0.34625
 C380 C 1.12462 0.97885 0.31242
 C381 C 1.11304 1.00698 0.25320
 N382 N 1.08935 0.98099 0.24392
 N383 N 1.07583 0.97928 0.21114
 C384 C 1.08553 1.00335 0.18606
 N385 N 1.10927 1.02938 0.19526
 N386 N 1.12269 1.03119 0.22817
 C387 C 1.07023 1.00114 0.14959
 C388 C 1.08454 1.02060 0.12130
 C389 C 1.06965 1.01803 0.08709
 C390 C 1.03970 0.99614 0.07909
 C391 C 1.02634 0.97695 0.10851
 C392 C 1.04105 0.97900 0.14259
 H393 H 1.15079 1.06173 0.28519
 H394 H 1.17777 1.06248 0.34458
 H395 H 1.13712 0.95601 0.36299
 H396 H 1.11013 0.95511 0.30388
 H397 H 1.10733 1.03797 0.12549
 H398 H 1.08217 1.03404 0.06784
 H399 H 1.00573 0.95808 0.10561
 H400 H 1.02932 0.96299 0.16351
 C401 C 1.13090 1.01505 -0.28739
 C402 C 1.16180 1.03540 -0.29402
 C403 C 1.17786 1.03522 -0.32818
 C404 C 1.16326 1.01493 -0.35658
 C405 C 1.13177 0.99544 -0.35027
 C406 C 1.11585 0.99537 -0.31603
 C407 C 1.11509 1.01342 -0.25068
 N408 N 1.08920 0.98919 -0.24316
 N409 N 1.07570 0.98682 -0.21008
 C410 C 1.08739 1.00859 -0.18301
 N411 N 1.11314 1.03302 -0.19051
 N412 N 1.12677 1.03531 -0.22364
 C413 C 1.07232 1.00535 -0.14618
 C414 C 1.07865 1.03126 -0.11920
 C415 C 1.06291 1.02824 -0.08503
 C416 C 1.04163 0.99834 -0.07539
 C417 C 1.03469 0.97392 -0.10393
 C418 C 1.04990 0.97676 -0.13807
 H419 H 1.17405 1.05095 -0.27267
 H420 H 1.20186 1.05089 -0.33237
 H421 H 1.12006 0.97937 -0.37158
 H422 H 1.09197 0.97952 -0.31194
 H423 H 1.09454 1.05476 -0.12479
 H424 H 1.06578 1.05130 -0.06732
 H425 H 1.01626 0.95281 -0.10145
 H426 H 1.04330 0.95666 -0.15838
 C427 C 0.85018 1.00251 0.28497
 C428 C 0.85821 1.02992 0.31007
 C429 C 0.84506 1.02866 0.34535
 C430 C 0.82283 1.00025 0.35632
 C431 C 0.81497 0.97290 0.33070
 C432 C 0.82858 0.97395 0.29574
 C433 C 0.86484 1.00290 0.24791
 N434 N 0.86613 0.97203 0.22744
 N435 N 0.88010 0.97176 0.19441
 C436 C 0.89310 1.00242 0.18029
 N437 N 0.89148 1.03348 0.20056
 N438 N 0.87769 1.03369 0.23379
 C439 C 0.91041 1.00120 0.14437
 C440 C 0.91380 1.03232 0.12422
 C441 C 0.93153 1.03058 0.09081
 C442 C 0.94788 0.99808 0.07680
 C443 C 0.94271 0.96708 0.09731
 C444 C 0.92440 0.96845 0.13015
 H445 H 0.87489 1.05227 0.30253
 H446 H 0.85124 1.05095 0.36337
 H447 H 0.79941 0.94962 0.33770
 H448 H 0.82211 0.95223 0.27709
 H449 H 0.90229 1.05796 0.13400
 H450 H 0.93105 1.05497 0.07587
 H451 H 0.95440 0.94124 0.08960
 H452 H 0.92240 0.94379 0.14502
 C453 C 0.87389 1.00505 -0.28850
 C454 C 0.85413 1.03507 -0.30068
 C455 C 0.84084 1.03505 -0.33550
 C456 C 0.84706 1.00503 -0.35880
 C457 C 0.86814 0.97575 -0.34713
 C458 C 0.88139 0.97574 -0.31240
 C459 C 0.88556 1.00353 -0.25083
 N460 N 0.90143 0.97296 -0.23848
 N461 N 0.91142 0.97110 -0.20453
 C462 C 0.90590 0.99967 -0.18138
 N463 N 0.89000 1.03029 -0.19367
 N464 N 0.87993 1.03213 -0.22767
 C465 C 0.91857 0.99781 -0.14408
 C466 C 0.91664 1.02795 -0.12083
 C467 C 0.93242 1.02670 -0.08714
 C468 C 0.95211 0.99625 -0.07523
 C469 C 0.94982 0.96525 -0.09799
 C470 C 0.93425 0.96600 -0.13168
 H471 H 0.84798 1.05815 -0.28302
 H472 H 0.82436 1.05785 -0.34365
 H473 H 0.87381 0.95247 -0.36470
 H474 H 0.89691 0.95235 -0.30410
 H475 H 0.90413 1.05308 -0.12904
 H476 H 0.93166 1.05127 -0.07255
 H477 H 0.96092 0.93989 -0.09187
 H478 H 0.93526 0.94154 -0.14830
 C479 C 1.27779 1.14176 0.00054
 C480 C 1.30881 1.12210 -0.01133
 C481 C 1.34264 1.13824 -0.01198
 C482 C 1.34653 1.17484 -0.00118
 C483 C 1.31515 1.19411 0.01128
 C484 C 1.28148 1.17782 0.01217
 C485 C 1.24176 1.12492 0.00042
 N486 N 1.21236 1.14248 0.01542
 N487 N 1.17998 1.12743 0.01504
 C488 C 1.17558 1.09424 -0.00051
 N489 N 1.20497 1.07674 -0.01552
 N490 N 1.23733 1.09172 -0.01506
 C491 C 1.13973 1.07706 -0.00074
 C492 C 1.13501 1.04459 -0.01993
 C493 C 1.10198 1.02731 -0.01895
 C494 C 1.07185 1.04143 0.00114
 C495 C 1.07717 1.07443 0.02011
 C496 C 1.11028 1.09201 0.01906
 H497 H 1.30697 1.09419 -0.02050
 H498 H 1.36524 1.12214 -0.02267
 H499 H 1.31634 1.22164 0.02160
 H500 H 1.25825 1.19370 0.02190
 H501 H 1.15701 1.03206 -0.03555
 H502 H 1.10050 1.00197 -0.03382
 H503 H 1.05699 1.08556 0.03849
 H504 H 1.11311 1.11671 0.03488
 C505 C 0.70611 1.13805 -0.00521
 C506 C 0.67665 1.12147 0.01148
 C507 C 0.64173 1.13651 0.00958
 C508 C 0.63539 1.16849 -0.00910
 C509 C 0.66484 1.18497 -0.02588
 C510 C 0.69971 1.16995 -0.02399
 C511 C 0.74325 1.12228 -0.00296
 N512 N 0.77161 1.13773 -0.01983
 N513 N 0.80489 1.12351 -0.01790
 C514 C 0.81129 1.09324 0.00105
 N515 N 0.78294 1.07784 0.01796
 N516 N 0.74968 1.09204 0.01601
 C517 C 0.84820 1.07684 0.00275
 C518 C 0.85453 1.04592 0.02264
 C519 C 0.88878 1.02950 0.02307
 C520 C 0.91855 1.04254 0.00328
 C521 C 0.91174 1.07483 -0.01520
 C522 C 0.87744 1.09150 -0.01571
 H523 H 0.68050 1.09680 0.02608
 H524 H 0.61963 1.12292 0.02249
 H525 H 0.66108 1.20997 -0.03994
 H526 H 0.72170 1.18356 -0.03707
 H527 H 0.83287 1.03397 0.03781
 H528 H 0.89099 1.00598 0.03913
 H529 H 0.93265 1.08786 -0.03011
 H530 H 0.87386 1.11575 -0.03100
 C531 C 1.28048 0.84552 0.00423
 C532 C 1.28761 0.81316 -0.01523
 C533 C 1.32274 0.79871 -0.01823
 C534 C 1.35201 0.81614 -0.00172
 C535 C 1.34446 0.84895 0.01745
 C536 C 1.30934 0.86330 0.02037
 C537 C 1.24332 0.86110 0.00741
 N538 N 1.23724 0.89359 0.02437
 N539 N 1.20418 0.90832 0.02654
 C540 C 1.17567 0.89118 0.01198
 N541 N 1.18160 0.85847 -0.00474
 N542 N 1.21477 0.84372 -0.00695
 C543 C 1.13955 0.90915 0.01263
 C544 C 1.10863 0.89130 0.00141
 C545 C 1.07542 0.91012 0.00010
 C546 C 1.07226 0.94801 0.00663
 C547 C 1.10256 0.96318 0.02311
 C548 C 1.13563 0.94493 0.02506
 H549 H 1.26607 0.79902 -0.02847
 H550 H 1.32668 0.77441 -0.03467
 H551 H 1.36516 0.86312 0.03183
 H552 H 1.30483 0.88826 0.03575
 H553 H 1.10982 0.86267 -0.00548
 H554 H 1.05208 0.89387 -0.00359
 H555 H 1.10196 0.98975 0.03426
 H556 H 1.15824 0.95930 0.03608
 C557 C 0.70119 0.87801 0.00606
 C558 C 0.68714 0.86250 0.03721
 C559 C 0.65375 0.84556 0.03678
 C560 C 0.63388 0.84359 0.00515
 C561 C 0.64721 0.86034 -0.02555
 C562 C 0.68042 0.87747 -0.02509
 C563 C 0.73798 0.89300 0.00548
 N564 N 0.75079 0.90989 -0.02386
 N565 N 0.78443 0.92186 -0.02503
 C566 C 0.80677 0.91729 0.00303
 N567 N 0.79390 0.90057 0.03243
 N568 N 0.76024 0.88868 0.03363
 C569 C 0.84440 0.93006 0.00162
 C570 C 0.86834 0.92210 0.02888
 C571 C 0.90347 0.93489 0.02803
 C572 C 0.91721 0.95564 -0.00012
 C573 C 0.89181 0.96397 -0.02691
 C574 C 0.85661 0.95109 -0.02644
 H575 H 0.70232 0.86263 0.06172
 H576 H 0.64422 0.83265 0.06074
 H577 H 0.63219 0.85956 -0.05018
 H578 H 0.69027 0.88932 -0.04949
 H579 H 0.85997 0.90606 0.05128
 H580 H 0.91929 0.92748 0.04990
 H581 H 0.89669 0.98312 -0.04692
 H582 H 0.83852 0.95897 -0.04748
 C583 C 0.79029 0.50273 0.35520
 C584 C 0.80842 0.47066 0.34351
 C585 C 0.84391 0.47146 0.33035
 C586 C 0.86213 0.50432 0.32871
 C587 C 0.84427 0.53628 0.34110
 C588 C 0.80873 0.53551 0.35412
 C589 C 0.75235 0.50200 0.36826
 N590 N 0.73350 0.53323 0.37604
 N591 N 0.69949 0.53254 0.38813
 C592 C 0.68289 0.50059 0.39287
 N593 N 0.70170 0.46938 0.38495
 N594 N 0.73567 0.47007 0.37280
 C595 C 0.64589 0.49974 0.40832
 C596 C 0.63064 0.46704 0.41778
 C597 C 0.59728 0.46678 0.43572
 C598 C 0.57882 0.49882 0.44721
 C599 C 0.59195 0.53057 0.43202
 C600 C 0.62529 0.53153 0.41408
 H601 H 0.79502 0.44494 0.34393
 H602 H 0.85670 0.44645 0.32049
 H603 H 0.85776 0.56196 0.34065
 H604 H 0.79570 0.56067 0.36324
 H605 H 0.64457 0.44149 0.41178
 H606 H 0.58710 0.44087 0.44044
 H607 H 0.57573 0.55515 0.43295
 H608 H 0.63475 0.55718 0.40472
 C609 C 0.21944 0.50837 0.35955
 C610 C 0.20786 0.53689 0.33813
 C611 C 0.17348 0.53691 0.32354
 C612 C 0.14986 0.50869 0.33048
 C613 C 0.16083 0.48079 0.35287
 C614 C 0.19549 0.48047 0.36710
 C615 C 0.25656 0.50754 0.37330
 N616 N 0.27164 0.47640 0.38525
 N617 N 0.30529 0.47571 0.39726
 C618 C 0.32514 0.50616 0.39784
 N619 N 0.31006 0.53726 0.38588
 N620 N 0.27652 0.53790 0.37369
 C621 C 0.36173 0.50595 0.41282
 C622 C 0.37707 0.53826 0.42440
 C623 C 0.41002 0.53795 0.44180
 C624 C 0.42966 0.50550 0.44789
 C625 C 0.41438 0.47342 0.43393
 C626 C 0.38100 0.47352 0.41718
 H627 H 0.22566 0.55878 0.33187
 H628 H 0.16541 0.55878 0.30645
 H629 H 0.14304 0.45866 0.35834
 H630 H 0.20360 0.45829 0.38375
 H631 H 0.36260 0.56383 0.42199
 H632 H 0.41704 0.56317 0.45363
 H633 H 0.42843 0.44787 0.43412
 H634 H 0.37038 0.44809 0.40751
 C635 C 0.78748 0.48245 0.63556
 C636 C 0.81702 0.49864 0.61886
 C637 C 0.85079 0.49928 0.63505
 C638 C 0.85636 0.48404 0.66902
 C639 C 0.82628 0.46707 0.68505
 C640 C 0.79267 0.46632 0.66862
 C641 C 0.75137 0.48310 0.61885
 N642 N 0.72312 0.46533 0.63343
 N643 N 0.69058 0.46670 0.61866
 C644 C 0.68494 0.48602 0.58873
 N645 N 0.71321 0.50367 0.57421
 N646 N 0.74567 0.50223 0.58889
 C647 C 0.64883 0.48842 0.57218
 C648 C 0.64343 0.51098 0.54327
 C649 C 0.60998 0.51318 0.52707
 C650 C 0.57957 0.49521 0.53955
 C651 C 0.58660 0.46943 0.56615
 C652 C 0.62011 0.46695 0.58309
 H653 H 0.81402 0.51143 0.59329
 H654 H 0.87155 0.51386 0.62126
 H655 H 0.82835 0.45269 0.70974
 H656 H 0.77065 0.45308 0.68205
 H657 H 0.66542 0.52615 0.53209
 H658 H 0.60928 0.52614 0.50257
 H659 H 0.56779 0.44863 0.57194
 H660 H 0.62391 0.44710 0.60357
 C661 C 0.21792 0.50384 0.64536
 C662 C 0.18805 0.51694 0.62634
 C663 C 0.15299 0.51458 0.64036
 C664 C 0.14686 0.49897 0.67370
 C665 C 0.17671 0.48634 0.69299
 C666 C 0.21184 0.48876 0.67899
 C667 C 0.25488 0.50517 0.62947
 N668 N 0.28442 0.49339 0.64742
 N669 N 0.31732 0.49369 0.63221
 C670 C 0.32192 0.50571 0.59839
 N671 N 0.29241 0.51771 0.58076
 N672 N 0.25970 0.51747 0.59591
 C673 C 0.35781 0.50507 0.58004
 C674 C 0.35958 0.51095 0.54339
 C675 C 0.39248 0.51104 0.52513
 C676 C 0.42602 0.50581 0.54195
 C677 C 0.42355 0.49945 0.57929
 C678 C 0.39023 0.49903 0.59796
 H679 H 0.19164 0.52876 0.60034
 H680 H 0.13059 0.52429 0.62473
 H681 H 0.17293 0.47474 0.71907
 H682 H 0.23416 0.47853 0.69441
 H683 H 0.33526 0.51535 0.52824
 H684 H 0.39002 0.51553 0.49781
 H685 H 0.44706 0.49690 0.59532
 H686 H 0.39000 0.49474 0.62652
 C687 C 0.51197 0.63665 0.20995
 C688 C 0.52770 0.61805 0.18005
 C689 C 0.52680 0.63320 0.14610
 C690 C 0.51020 0.66726 0.14144
 C691 C 0.49533 0.68614 0.17153
 C692 C 0.49608 0.67100 0.20529
 C693 C 0.51143 0.62035 0.24577
 N694 N 0.49157 0.63608 0.27308
 N695 N 0.49052 0.62139 0.30522
 C696 C 0.50933 0.59036 0.31147
 N697 N 0.52932 0.57464 0.28420
 N698 N 0.53029 0.58929 0.25198
 C699 C 0.50797 0.57410 0.34726
 C700 C 0.53054 0.54489 0.35536
 C701 C 0.52905 0.52988 0.38923
 C702 C 0.50637 0.54407 0.41764
 C703 C 0.48165 0.57120 0.40705
 C704 C 0.48301 0.58669 0.37336
 H705 H 0.54016 0.59152 0.18273
 H706 H 0.53832 0.61793 0.12340
 H707 H 0.48312 0.71282 0.16902
 H708 H 0.48410 0.68630 0.22776
 H709 H 0.54898 0.53295 0.33534
 H710 H 0.54480 0.50542 0.39162
 H711 H 0.46013 0.58092 0.42366
 H712 H 0.46368 0.60807 0.36757
 C713 C 0.51593 0.63073 0.78560
 C714 C 0.54044 0.65751 0.79547
 C715 C 0.53957 0.67252 0.83013
 C716 C 0.51468 0.66055 0.85571
 C717 C 0.49127 0.63266 0.84646
 C718 C 0.49166 0.61807 0.81155
 C719 C 0.51464 0.61739 0.74805
 N720 N 0.48420 0.60240 0.73514
 N721 N 0.48250 0.59162 0.70094
 C722 C 0.51119 0.59531 0.67830
 N723 N 0.54172 0.61008 0.69126
 N724 N 0.54333 0.62112 0.72540
 C725 C 0.50946 0.58239 0.64067
 C726 C 0.54102 0.57416 0.62073
 C727 C 0.53904 0.55839 0.58649
 C728 C 0.50544 0.54938 0.57131
 C729 C 0.47435 0.56260 0.58990
 C730 C 0.47610 0.57769 0.62441
 H731 H 0.55941 0.66782 0.77607
 H732 H 0.55790 0.69399 0.83685
 H733 H 0.47175 0.62326 0.86583
 H734 H 0.47265 0.59726 0.80472
 H735 H 0.56734 0.57887 0.63192
 H736 H 0.56418 0.55301 0.57245
 H737 H 0.44826 0.56138 0.57853
 H738 H 0.45120 0.58571 0.63836
 C739 C 0.50837 0.36587 0.20526
 C740 C 0.47911 0.37414 0.18314
 C741 C 0.47760 0.35962 0.14836
 C742 C 0.50542 0.33665 0.13456
 C743 C 0.53530 0.32915 0.15610
 C744 C 0.53668 0.34347 0.19122
 C745 C 0.50858 0.38046 0.24274
 N746 N 0.53359 0.36930 0.26662
 N747 N 0.53291 0.38242 0.30031
 C748 C 0.50719 0.40724 0.31144
 N749 N 0.48232 0.41824 0.28751
 N750 N 0.48295 0.40512 0.25403
 C751 C 0.50617 0.42309 0.34845
 C752 C 0.48330 0.45284 0.35643
 C753 C 0.48226 0.46903 0.39041
 C754 C 0.50363 0.45645 0.41877
 C755 C 0.52600 0.42574 0.41041
 C756 C 0.52747 0.40947 0.37593
 H757 H 0.45686 0.39139 0.19286
 H758 H 0.45442 0.36612 0.13225
 H759 H 0.55699 0.31128 0.14619
 H760 H 0.55969 0.33671 0.20743
 H761 H 0.46671 0.46467 0.33601
 H762 H 0.46601 0.49334 0.39283
 H763 H 0.54113 0.41257 0.43079
 H764 H 0.54494 0.38594 0.37100
 C765 C 0.48705 0.36382 0.77827
 C766 C 0.49201 0.38488 0.80966
 C767 C 0.49260 0.36886 0.84322
 C768 C 0.48851 0.33134 0.84623
 C769 C 0.48396 0.31029 0.81472
 C770 C 0.48302 0.32633 0.78125
 C771 C 0.48669 0.38076 0.74263
 N772 N 0.47575 0.36210 0.71302
 N773 N 0.47624 0.37715 0.68094
 C774 C 0.48784 0.41146 0.67711
 N775 N 0.49858 0.43012 0.70675
 N776 N 0.49792 0.41516 0.73879
 C777 C 0.49021 0.42796 0.64134
 C778 C 0.51081 0.45865 0.63663
 C779 C 0.51441 0.47376 0.60305
 C780 C 0.49807 0.45926 0.57203
 C781 C 0.47595 0.42917 0.57791
 C782 C 0.47265 0.41335 0.61156
 H783 H 0.49509 0.41387 0.80838
 H784 H 0.49568 0.38601 0.86686
 H785 H 0.48153 0.28122 0.81580
 H786 H 0.47958 0.30923 0.75764
 H787 H 0.52506 0.47078 0.65883
 H788 H 0.53225 0.49575 0.60185
 H789 H 0.46038 0.41741 0.55727
 H790 H 0.45577 0.39000 0.61430
 C791 C 0.64013 0.79003 0.52898
 C792 C 0.67698 0.79391 0.53587
 C793 C 0.69291 0.82757 0.53353
 C794 C 0.67252 0.85814 0.52370
 C795 C 0.63530 0.85458 0.51811
 C796 C 0.61921 0.82083 0.52088
 C797 C 0.62443 0.75362 0.52820
 N798 N 0.58818 0.74920 0.53105
 N799 N 0.57430 0.71627 0.52866
 C800 C 0.59612 0.68657 0.52301
 N801 N 0.63232 0.69104 0.52033
 N802 N 0.64618 0.72385 0.52301
 C803 C 0.58087 0.65026 0.51812
 C804 C 0.59984 0.62333 0.49863
 C805 C 0.58491 0.58948 0.49219
 C806 C 0.54983 0.57991 0.50452
 C807 C 0.53286 0.60796 0.52650
 C808 C 0.54728 0.64213 0.53240
 H809 H 0.69369 0.77079 0.54272
 H810 H 0.72141 0.82955 0.53907
 H811 H 0.61888 0.87755 0.51034
 H812 H 0.59073 0.81860 0.51535
 H813 H 0.62646 0.62852 0.48765
 H814 H 0.60347 0.57264 0.47783
 H815 H 0.50691 0.60522 0.53898
 H816 H 0.53196 0.66216 0.54838
 C817 C 0.65199 0.21920 0.52653
 C818 C 0.68541 0.21186 0.50922
 C819 C 0.69970 0.17665 0.50703
 C820 C 0.68102 0.14802 0.52227
 C821 C 0.64823 0.15543 0.54065
 C822 C 0.63376 0.19067 0.54264
 C823 C 0.63544 0.25599 0.52619
 N824 N 0.60077 0.26190 0.53757
 N825 N 0.58505 0.29442 0.53516
 C826 C 0.60332 0.32246 0.52136
 N827 N 0.63817 0.31671 0.51042
 N828 N 0.65388 0.28412 0.51275
 C829 C 0.58489 0.35786 0.51667
 C830 C 0.60400 0.38841 0.50701
 C831 C 0.58572 0.42122 0.50134
 C832 C 0.54752 0.42458 0.50269
 C833 C 0.52977 0.39416 0.51587
 C834 C 0.54760 0.36145 0.52195
 H835 H 0.70023 0.23317 0.49663
 H836 H 0.72538 0.17173 0.49323
 H837 H 0.63329 0.13381 0.55256
 H838 H 0.60801 0.19542 0.55631
 H839 H 0.63318 0.38728 0.50449
 H840 H 0.60243 0.44409 0.49700
 H841 H 0.50188 0.39473 0.52250
 H842 H 0.53188 0.33893 0.53089
 C843 C 0.36733 0.79643 0.50357
 C844 C 0.37832 0.82264 0.47923
 C845 C 0.36133 0.85688 0.47928
 C846 C 0.33298 0.86574 0.50369
 C847 C 0.32272 0.83986 0.52863
 C848 C 0.33959 0.80567 0.52852
 C849 C 0.38406 0.75948 0.50260
 N850 N 0.37082 0.73322 0.52363
 N851 N 0.38532 0.69990 0.52239
 C852 C 0.41375 0.69133 0.50007
 N853 N 0.42706 0.71760 0.47910
 N854 N 0.41251 0.75092 0.48028
 C855 C 0.42992 0.65415 0.49869
 C856 C 0.46121 0.64619 0.47826
 C857 C 0.47667 0.61139 0.47747
 C858 C 0.46164 0.58254 0.49662
 C859 C 0.43002 0.59136 0.51695
 C860 C 0.41449 0.62624 0.51801
 H861 H 0.39960 0.81650 0.45964
 H862 H 0.36970 0.87604 0.45951
 H863 H 0.30149 0.84600 0.54828
 H864 H 0.33063 0.78639 0.54792
 H865 H 0.47429 0.66698 0.46318
 H866 H 0.50152 0.60755 0.46218
 H867 H 0.41643 0.57207 0.53240
 H868 H 0.39023 0.63126 0.53413
 C869 C 0.34732 0.22670 0.48173
 C870 C 0.36671 0.19608 0.46798
 C871 C 0.35244 0.16147 0.47037
 C872 C 0.31838 0.15662 0.48647
 C873 C 0.29870 0.18735 0.49952
 C874 C 0.31303 0.22190 0.49730
 C875 C 0.36320 0.26321 0.48059
 N876 N 0.34704 0.29212 0.49810
 N877 N 0.36219 0.32453 0.49822
 C878 C 0.39411 0.32940 0.48070
 N879 N 0.40999 0.30056 0.46292
 N880 N 0.39491 0.26821 0.46287
 C881 C 0.41252 0.36470 0.48240
 C882 C 0.44564 0.36850 0.46470
 C883 C 0.46515 0.39998 0.46903
 C884 C 0.45322 0.42958 0.49110
 C885 C 0.41872 0.42575 0.50748
 C886 C 0.39890 0.39400 0.50342
 H887 H 0.39327 0.19872 0.45588
 H888 H 0.36847 0.13843 0.46034
 H889 H 0.27203 0.18475 0.51136
 H890 H 0.29720 0.24484 0.50788
 H891 H 0.45751 0.34650 0.44844
 H892 H 0.49137 0.39905 0.45750
 H893 H 0.40739 0.44526 0.52594
 H894 H 0.37344 0.39204 0.51785
   
