data_POSCAR
  _audit_creation_date              2014-09-24
  _audit_creation_method            'ToBaCCo'
  _symmetry_space_group_name_H-M    'P1'
  _symmetry_Int_Tables_number       1
  _symmetry_cell_setting            triclinic
  loop_
  _symmetry_equiv_pos_as_xyz
 x,y,z
_cell_length_a 52.4825
_cell_length_b 51.9084
_cell_length_c 52.5356
_cell_angle_alpha 89.942100
_cell_angle_beta 89.978600
_cell_angle_gamma 89.965400
loop_
  _atom_site_label
  _atom_site_type_symbol
  _atom_site_fract_x
  _atom_site_fract_y
  _atom_site_fract_z
N1 N 0.59575 0.66531 0.61400
 N2 N 0.58584 0.65478 0.63454
 C3 C 0.56513 0.66840 0.64157
 C4 C 0.56209 0.68836 0.62452
 C5 C 0.58172 0.68595 0.60727
 H6 H 0.55316 0.66420 0.65781
 H7 H 0.58550 0.69826 0.59109
 Cu8 Cu 0.60102 0.62435 0.64997
 Cu9 Cu 0.62608 0.65151 0.59754
 Cu10 Cu 0.65345 0.59724 0.62479
 N11 N 0.61652 0.59392 0.66510
 N12 N 0.63705 0.58341 0.65513
 C13 C 0.64383 0.56274 0.66910
 C14 C 0.62660 0.56033 0.68874
 C15 C 0.60951 0.58028 0.68579
 H16 H 0.66001 0.55042 0.66525
 H17 H 0.59327 0.58447 0.69778
 N18 N 0.66722 0.61406 0.59408
 N19 N 0.65679 0.63472 0.58369
 C20 C 0.67049 0.64157 0.56307
 C21 C 0.69033 0.62440 0.56051
 C22 C 0.68782 0.60722 0.58033
 H23 H 0.66641 0.65780 0.55080
 H24 H 0.70011 0.59100 0.58437
 H25 H 0.62113 0.61387 0.60943
 H26 H 0.64155 0.63487 0.62978
 N27 N 0.90557 0.33453 0.11285
 N28 N 0.91588 0.34536 0.13301
 C29 C 0.93656 0.33169 0.14004
 C30 C 0.93914 0.31139 0.12335
 C31 C 0.91930 0.31363 0.10634
 H32 H 0.94877 0.33609 0.15603
 H33 H 0.91516 0.30103 0.09048
 Cu34 Cu 0.90124 0.37621 0.14812
 Cu35 Cu 0.87511 0.34826 0.09661
 Cu36 Cu 0.84799 0.40261 0.12375
 N37 N 0.88543 0.40635 0.16347
 N38 N 0.86461 0.41658 0.15384
 C39 C 0.85771 0.43705 0.16799
 C40 C 0.87514 0.43964 0.18741
 C41 C 0.89248 0.41998 0.18412
 H42 H 0.84128 0.44911 0.16445
 H43 H 0.90890 0.41596 0.19590
 N44 N 0.83397 0.38569 0.09327
 N45 N 0.84430 0.36498 0.08293
 C46 C 0.83045 0.35806 0.06245
 C47 C 0.81061 0.37523 0.05994
 C48 C 0.81327 0.39249 0.07964
 H49 H 0.83446 0.34179 0.05024
 H50 H 0.80104 0.40875 0.08367
 H51 H 0.88010 0.38606 0.10790
 H52 H 0.86034 0.36515 0.12906
 N53 N 0.40373 0.16660 -0.11413
 N54 N 0.41339 0.15641 -0.13493
 C55 C 0.43407 0.17004 -0.14197
 C56 C 0.43736 0.18968 -0.12465
 C57 C 0.41790 0.18706 -0.10724
 H58 H 0.44588 0.16604 -0.15837
 H59 H 0.41435 0.19910 -0.09082
 Cu60 Cu 0.39803 0.12629 -0.15072
 Cu61 Cu 0.37360 0.15260 -0.09753
 Cu62 Cu 0.34645 0.09828 -0.12460
 N63 N 0.38291 0.09545 -0.16533
 N64 N 0.36274 0.08459 -0.15502
 C65 C 0.35624 0.06371 -0.16874
 C66 C 0.37326 0.06148 -0.18858
 C67 C 0.38994 0.08180 -0.18598
 H68 H 0.34037 0.05109 -0.16460
 H69 H 0.40595 0.08621 -0.19820
 N70 N 0.33273 0.11495 -0.09384
 N71 N 0.34307 0.13565 -0.08352
 C72 C 0.32941 0.14242 -0.06285
 C73 C 0.30968 0.12515 -0.06019
 C74 C 0.31222 0.10800 -0.08000
 H75 H 0.33342 0.15868 -0.05064
 H76 H 0.30000 0.09174 -0.08400
 H77 H 0.37893 0.11516 -0.10985
 H78 H 0.35776 0.13608 -0.12961
 N79 N 0.09498 0.83346 0.38671
 N80 N 0.08497 0.84401 0.36623
 C81 C 0.06430 0.83036 0.35920
 C82 C 0.06141 0.81035 0.37623
 C83 C 0.08106 0.81275 0.39344
 H84 H 0.05228 0.83458 0.34301
 H85 H 0.08494 0.80040 0.40958
 Cu86 Cu 0.09999 0.87455 0.35085
 Cu87 Cu 0.12527 0.84732 0.40314
 Cu88 Cu 0.15232 0.90177 0.37598
 N89 N 0.11532 0.90508 0.33578
 N90 N 0.13581 0.91563 0.34573
 C91 C 0.14247 0.93634 0.33178
 C92 C 0.12522 0.93877 0.31217
 C93 C 0.10824 0.91875 0.31513
 H94 H 0.15861 0.94870 0.33560
 H95 H 0.09203 0.91454 0.30314
 N96 N 0.16623 0.88491 0.40661
 N97 N 0.15592 0.86417 0.41695
 C98 C 0.16970 0.85730 0.43752
 C99 C 0.18945 0.87454 0.44009
 C100 C 0.18683 0.89178 0.42033
 H101 H 0.16572 0.84102 0.44974
 H102 H 0.19902 0.90806 0.41631
 H103 H 0.12011 0.88497 0.39137
 H104 H 0.14061 0.86412 0.37090
 C105 C 0.10507 0.12520 0.14433
 C106 C 0.08619 0.14434 0.14405
 C107 C 0.08620 0.16329 0.12504
 C108 C 0.10508 0.16327 0.10618
 C109 C 0.12410 0.14428 0.10617
 C110 C 0.12413 0.12513 0.12532
 C111 C 0.10525 0.10612 0.16327
 C112 C 0.12420 0.08710 0.16336
 C113 C 0.14311 0.08699 0.14454
 C114 C 0.14323 0.10592 0.12546
 C115 C 0.16208 0.10600 0.10652
 C116 C 0.16201 0.12501 0.08757
 C117 C 0.14310 0.14407 0.08738
 H118 H 0.07149 0.14453 0.15856
 H119 H 0.10491 0.17803 0.09155
 H120 H 0.09069 0.10604 0.17793
 H121 H 0.15770 0.07218 0.14478
 H122 H 0.17680 0.09133 0.10649
 H123 H 0.14322 0.15870 0.07263
 C124 C 0.39388 0.87444 0.64465
 C125 C 0.41281 0.85536 0.64445
 C126 C 0.41289 0.83638 0.62550
 C127 C 0.39405 0.83632 0.60662
 C128 C 0.37497 0.85526 0.60653
 C129 C 0.37485 0.87443 0.62562
 C130 C 0.39362 0.89355 0.66352
 C131 C 0.37462 0.91252 0.66352
 C132 C 0.35574 0.91256 0.64468
 C133 C 0.35571 0.89360 0.62567
 C134 C 0.33690 0.89344 0.60670
 C135 C 0.33706 0.87442 0.58781
 C136 C 0.35601 0.85540 0.58771
 H137 H 0.42749 0.85523 0.65898
 H138 H 0.39429 0.82155 0.59203
 H139 H 0.40815 0.89370 0.67819
 H140 H 0.34112 0.92734 0.64485
 H141 H 0.32214 0.90808 0.60660
 H142 H 0.35597 0.84076 0.57300
 C143 C 0.89492 0.62497 0.35595
 C144 C 0.91381 0.64407 0.35623
 C145 C 0.91384 0.66295 0.37526
 C146 C 0.89501 0.66290 0.39416
 C147 C 0.87597 0.64394 0.39417
 C148 C 0.87589 0.62486 0.37500
 C149 C 0.89469 0.60597 0.33698
 C150 C 0.87573 0.58699 0.33689
 C151 C 0.85685 0.58683 0.35574
 C152 C 0.85678 0.60569 0.37486
 C153 C 0.83796 0.60574 0.39383
 C154 C 0.83808 0.62467 0.41281
 C155 C 0.85700 0.64370 0.41300
 H156 H 0.92848 0.64429 0.34168
 H157 H 0.89521 0.67761 0.40881
 H158 H 0.90922 0.60591 0.32229
 H159 H 0.84225 0.57205 0.35550
 H160 H 0.82323 0.59110 0.39386
 H161 H 0.85692 0.65827 0.42778
 C162 C 0.60597 0.37518 -0.14439
 C163 C 0.58701 0.35614 -0.14416
 C164 C 0.58687 0.33720 -0.12514
 C165 C 0.60566 0.33714 -0.10621
 C166 C 0.62476 0.35603 -0.10615
 C167 C 0.62495 0.37516 -0.12532
 C168 C 0.60629 0.39424 -0.16334
 C169 C 0.62531 0.41316 -0.16338
 C170 C 0.64415 0.41319 -0.14450
 C171 C 0.64412 0.39428 -0.12541
 C172 C 0.66289 0.39411 -0.10641
 C173 C 0.66267 0.37513 -0.08744
 C174 C 0.64368 0.35616 -0.08730
 H175 H 0.57237 0.35601 -0.15873
 H176 H 0.60538 0.32239 -0.09157
 H177 H 0.59180 0.39439 -0.17805
 H178 H 0.65880 0.42793 -0.14471
 H179 H 0.67767 0.40871 -0.10634
 H180 H 0.64369 0.34155 -0.07252
 C181 C -0.04249 0.29292 0.12363
 C182 C -0.02621 0.27652 0.12385
 C183 C -0.00679 0.25695 0.12408
 C184 C 0.00403 0.24901 0.14718
 C185 C 0.02291 0.22998 0.14739
 C186 C 0.03105 0.21881 0.12452
 C187 C 0.02023 0.22675 0.10143
 C188 C 0.00135 0.24578 0.10121
 C189 C 0.05048 0.19924 0.12473
 C190 C 0.06676 0.18285 0.12489
 H191 H -0.00212 0.25752 0.16497
 H192 H 0.03115 0.22398 0.16536
 H193 H 0.02638 0.21825 0.08363
 H194 H -0.00689 0.25178 0.08325
 C195 C 0.54250 0.70769 0.62470
 C196 C 0.52607 0.72393 0.62484
 C197 C 0.50646 0.74332 0.62499
 C198 C 0.50478 0.76076 0.64526
 C199 C 0.48575 0.77963 0.64539
 C200 C 0.46833 0.78115 0.62524
 C201 C 0.47000 0.76370 0.60497
 C202 C 0.48903 0.74483 0.60484
 C203 C 0.44878 0.80060 0.62534
 C204 C 0.43241 0.81690 0.62542
 H205 H 0.51816 0.75976 0.66093
 H206 H 0.48462 0.79303 0.66115
 H207 H 0.45663 0.76471 0.58929
 H208 H 0.49017 0.73144 0.58907
 C209 C 1.04295 0.79200 0.37607
 C210 C 1.02659 0.77571 0.37596
 C211 C 1.00707 0.75626 0.37584
 C212 C 0.99778 0.74670 0.35270
 C213 C 0.97883 0.72776 0.35259
 C214 C 0.96909 0.71832 0.37561
 C215 C 0.97837 0.72788 0.39875
 C216 C 0.99733 0.74681 0.39886
 C217 C 0.94961 0.69882 0.37550
 C218 C 0.93330 0.68247 0.37540
 H219 H 1.00518 0.75386 0.33479
 H220 H 0.97178 0.72050 0.33459
 H221 H 0.97097 0.72071 0.41666
 H222 H 1.00438 0.75407 0.41685
 C223 C 0.45701 0.20892 -0.12473
 C224 C 0.47350 0.22508 -0.12479
 C225 C 0.49316 0.24439 -0.12484
 C226 C 0.50405 0.25250 -0.10186
 C227 C 0.52312 0.27131 -0.10191
 C228 C 0.53138 0.28209 -0.12494
 C229 C 0.52050 0.27397 -0.14793
 C230 C 0.50143 0.25516 -0.14788
 C231 C 0.55095 0.30149 -0.12499
 C232 C 0.56733 0.31776 -0.12505
 H233 H 0.49779 0.24431 -0.08394
 H234 H 0.53140 0.27746 -0.08404
 H235 H 0.52674 0.28218 -0.16584
 H236 H 0.49313 0.24903 -0.16575
 C237 C 0.12499 -0.04183 0.29266
 C238 C 0.12482 -0.02554 0.27629
 C239 C 0.12464 -0.00608 0.25676
 C240 C 0.12187 0.01993 0.26333
 C241 C 0.12174 0.03885 0.24435
 C242 C 0.12438 0.03184 0.21873
 C243 C 0.12713 0.00583 0.21217
 C244 C 0.12726 -0.01309 0.23115
 C245 C 0.12430 0.05131 0.19922
 C246 C 0.12424 0.06762 0.18287
 H247 H 0.11983 0.02556 0.28307
 H248 H 0.11960 0.05890 0.24963
 H249 H 0.12919 0.00019 0.19243
 H250 H 0.12941 -0.03315 0.22586
 C251 C 0.62645 0.54199 -0.29278
 C252 C 0.62632 0.52571 -0.27640
 C253 C 0.62616 0.50626 -0.25686
 C254 C 0.62618 0.51342 -0.23115
 C255 C 0.62602 0.49452 -0.21216
 C256 C 0.62584 0.46838 -0.21880
 C257 C 0.62582 0.46123 -0.24451
 C258 C 0.62598 0.48013 -0.26350
 C259 C 0.62566 0.44894 -0.19926
 C260 C 0.62550 0.43263 -0.18290
 H261 H 0.62632 0.53358 -0.22581
 H262 H 0.62603 0.50026 -0.19234
 H263 H 0.62567 0.44107 -0.24985
 H264 H 0.62596 0.47438 -0.28332
 C265 C 0.37355 1.04199 0.79204
 C266 C 0.37376 1.02562 0.77578
 C267 C 0.37398 1.00607 0.75638
 C268 C 0.37507 1.01308 0.73064
 C269 C 0.37523 0.99407 0.71178
 C270 C 0.37430 0.96798 0.71859
 C271 C 0.37322 0.96098 0.74433
 C272 C 0.37306 0.97998 0.76319
 C273 C 0.37441 0.94843 0.69920
 C274 C 0.37451 0.93206 0.68294
 H275 H 0.37577 1.03319 0.72517
 H276 H 0.37606 0.99970 0.69194
 H277 H 0.37249 0.94086 0.74981
 H278 H 0.37220 0.97435 0.78304
 C279 C 0.87523 0.45889 0.20703
 C280 C 0.87529 0.47505 0.22349
 C281 C 0.87536 0.49438 0.24311
 C282 C 0.87365 0.52051 0.23662
 C283 C 0.87372 0.53930 0.25568
 C284 C 0.87548 0.53203 0.28132
 C285 C 0.87719 0.50590 0.28781
 C286 C 0.87713 0.48711 0.26874
 C287 C 0.87556 0.55137 0.30092
 C288 C 0.87563 0.56760 0.31733
 H289 H 0.87228 0.52634 0.21686
 H290 H 0.87239 0.55945 0.25045
 H291 H 0.87856 0.50007 0.30757
 H292 H 0.87845 0.46696 0.27397
 C293 C 0.29039 0.12509 -0.04080
 C294 C 0.27419 0.12504 -0.02453
 C295 C 0.25483 0.12499 -0.00513
 C296 C 0.23417 0.10801 -0.00686
 C297 C 0.21533 0.10798 0.01198
 C298 C 0.21709 0.12494 0.03264
 C299 C 0.23776 0.14192 0.03438
 C300 C 0.25659 0.14194 0.01554
 C301 C 0.19769 0.12494 0.05200
 C302 C 0.18143 0.12496 0.06822
 H303 H 0.23262 0.09482 -0.02276
 H304 H 0.19943 0.09478 0.01044
 H305 H 0.23930 0.15511 0.05027
 H306 H 0.27249 0.15515 0.01707
 C307 C 0.70965 0.62440 0.54114
 C308 C 0.72588 0.62441 0.52490
 C309 C 0.74526 0.62444 0.50551
 C310 C 0.76615 0.60772 0.50745
 C311 C 0.78499 0.60775 0.48862
 C312 C 0.78303 0.62450 0.46777
 C313 C 0.76214 0.64121 0.46584
 C314 C 0.74330 0.64118 0.48467
 C315 C 0.80243 0.62454 0.44841
 C316 C 0.81868 0.62460 0.43218
 H317 H 0.76785 0.59470 0.52349
 H318 H 0.80107 0.59475 0.49030
 H319 H 0.76044 0.65424 0.44980
 H320 H 0.72723 0.65418 0.48298
 C321 C 0.79119 0.37520 0.04069
 C322 C 0.77490 0.37518 0.02452
 C323 C 0.75547 0.37517 0.00520
 C324 C 0.73527 0.35758 0.00656
 C325 C 0.71640 0.35756 -0.01223
 C326 C 0.71765 0.37513 -0.03246
 C327 C 0.73784 0.39272 -0.03381
 C328 C 0.75671 0.39274 -0.01502
 C329 C 0.69825 0.37511 -0.05181
 C330 C 0.68202 0.37510 -0.06804
 H331 H 0.73413 0.34391 0.02211
 H332 H 0.70087 0.34387 -0.01100
 H333 H 0.73899 0.40639 -0.04937
 H334 H 0.77225 0.40643 -0.01625
 C335 C 0.20880 0.87454 0.45941
 C336 C 0.22504 0.87454 0.47564
 C337 C 0.24441 0.87452 0.49502
 C338 C 0.26154 0.85389 0.49682
 C339 C 0.28036 0.85386 0.51567
 C340 C 0.28213 0.87447 0.53278
 C341 C 0.26500 0.89511 0.53097
 C342 C 0.24618 0.89513 0.51212
 C343 C 0.30148 0.87444 0.55217
 C344 C 0.31770 0.87442 0.56842
 H345 H 0.26034 0.83785 0.48369
 H346 H 0.29351 0.83781 0.51690
 H347 H 0.26620 0.91114 0.54410
 H348 H 0.23303 0.91118 0.51090
   
