data_POSCAR
  _audit_creation_date              2014-09-24
  _audit_creation_method            'ToBaCCo'
  _symmetry_space_group_name_H-M    'P1'
  _symmetry_Int_Tables_number       1
  _symmetry_cell_setting            triclinic
  loop_
  _symmetry_equiv_pos_as_xyz
 x,y,z
_cell_length_a 28.2138
_cell_length_b 28.5056
_cell_length_c 54.5889
_cell_angle_alpha 88.800400
_cell_angle_beta 91.612100
_cell_angle_gamma 89.593900
loop_
  _atom_site_label
  _atom_site_type_symbol
  _atom_site_fract_x
  _atom_site_fract_y
  _atom_site_fract_z
C1 C 0.02932 0.62010 1.00040
 C2 C 0.03618 0.59634 1.02318
 C3 C 0.03395 0.54695 1.02363
 C4 C 0.02262 0.52173 1.00238
 C5 C 0.01441 0.54687 0.98017
 C6 C 0.01868 0.59604 0.97863
 C7 C 0.01856 0.46929 1.00338
 C8 C 0.02671 0.44246 0.98243
 C9 C 0.02032 0.39365 0.98280
 C10 C 0.00838 0.37105 1.00479
 C11 C 0.00138 0.39659 1.02606
 C12 C 0.00562 0.44561 1.02513
 H13 H 0.03188 0.65778 0.99962
 H14 H 0.04297 0.52791 1.04046
 H15 H 0.00209 0.52825 0.96421
 H16 H 0.03739 0.45936 0.96558
 H17 H 0.00551 0.33316 1.00550
 H18 H -0.00234 0.46501 1.04135
 C19 C 0.37276 0.01961 0.49980
 C20 C 0.39837 0.00952 0.52167
 C21 C 0.44782 0.00415 0.52116
 C22 C 0.47224 0.01149 0.49922
 C23 C 0.44564 0.02244 0.47755
 C24 C 0.39599 0.02557 0.47761
 C25 C 0.52529 0.00979 0.49907
 C26 C 0.54906 -0.00341 0.47790
 C27 C 0.59880 -0.00037 0.47655
 C28 C 0.62460 0.01305 0.49773
 C29 C 0.60214 0.02505 0.51949
 C30 C 0.55228 0.02381 0.51969
 H31 H 0.33443 0.02202 0.50006
 H32 H 0.46714 -0.00473 0.53805
 H33 H 0.46333 0.03001 0.46061
 H34 H 0.52831 -0.01396 0.46208
 H35 H 0.66283 0.01050 0.49790
 H36 H 0.53423 0.03654 0.53547
 C37 C 0.08307 -0.01105 0.26150
 H38 H 0.08773 -0.01547 0.24208
 C39 C 0.12247 -0.00340 0.27699
 H40 H 0.15745 -0.00194 0.26935
 C41 C 0.03167 -0.00636 0.29495
 H42 H -0.00371 -0.00667 0.30192
 C43 C 0.06992 0.00152 0.31102
 H44 H 0.06339 0.00581 0.33030
 N45 N 0.03883 -0.01337 0.27075
 C46 C -0.04518 -0.09483 0.21859
 H47 H -0.07685 -0.07316 0.21763
 C48 C -0.04167 -0.13365 0.20361
 H49 H -0.07109 -0.14202 0.19134
 C50 C 0.03202 -0.10936 0.23537
 H51 H 0.06079 -0.09962 0.24764
 C52 C 0.03701 -0.14866 0.22072
 H53 H 0.07000 -0.16835 0.22160
 Zn54 Zn -0.01381 -0.02422 0.24923
 N55 N -0.00797 -0.08240 0.23336
 C56 C -0.01300 0.01528 0.20122
 N57 N -0.01619 0.02524 0.22537
 C58 C -0.02038 0.07031 0.23283
 C59 C -0.02378 0.10728 0.21560
 C60 C -0.01626 0.05104 0.18343
 C61 C -0.07441 -0.05946 0.28487
 C62 C -0.11280 -0.05913 0.30047
 C63 C -0.14459 0.00824 0.27782
 C64 C -0.10544 0.00678 0.26277
 N65 N -0.07049 -0.02569 0.26710
 H66 H -0.00784 -0.02041 0.19559
 H67 H -0.02194 0.07740 0.25218
 H68 H -0.02843 0.14279 0.22182
 H69 H -0.01361 0.04225 0.16432
 H70 H -0.04644 -0.08534 0.28767
 H71 H -0.11369 -0.08462 0.31542
 H72 H -0.17149 0.03504 0.27443
 H73 H -0.10262 0.03231 0.24801
 C74 C 0.00041 -0.16027 0.20401
 C75 C 0.11612 0.00278 0.30215
 C76 C -0.14793 -0.02413 0.29746
 C77 C -0.02242 0.09771 0.19049
 C78 C -0.02090 0.09313 0.76886
 H79 H -0.04482 0.09462 0.75307
 C80 C -0.02066 0.13005 0.78530
 H81 H -0.04463 0.15945 0.78196
 C82 C 0.04043 0.05415 0.79190
 H83 H 0.06439 0.02472 0.79441
 C84 C 0.04176 0.09017 0.80882
 H85 H 0.06613 0.08728 0.82446
 N86 N 0.00871 0.05562 0.77266
 C87 C 0.07279 -0.03678 0.72040
 H88 H 0.05179 -0.06807 0.72280
 C89 C 0.10926 -0.03610 0.70360
 H90 H 0.11608 -0.06708 0.69307
 C91 C 0.08678 0.04282 0.72986
 H92 H 0.07698 0.07383 0.73966
 C93 C 0.12340 0.04507 0.71324
 H94 H 0.14213 0.07776 0.71069
 Zn95 Zn 0.00597 0.00401 0.75109
 N96 N 0.06166 0.00265 0.73269
 C97 C -0.03972 0.01247 0.70452
 N98 N -0.04725 0.01149 0.72903
 C99 C -0.09169 0.01684 0.73774
 C100 C -0.13067 0.02293 0.72156
 C101 C -0.07756 0.01847 0.68776
 C102 C 0.04060 -0.06817 0.78280
 C103 C 0.03789 -0.10666 0.79893
 C104 C -0.04441 -0.11525 0.78667
 C105 C -0.04011 -0.07655 0.77080
 N106 N 0.00151 -0.05284 0.76976
 H107 H -0.00431 0.00864 0.69782
 H108 H -0.09680 0.01679 0.75731
 H109 H -0.16566 0.02756 0.72884
 H110 H -0.07070 0.01829 0.66834
 H111 H 0.07384 -0.04998 0.78103
 H112 H 0.06891 -0.11681 0.80996
 H113 H -0.07813 -0.13299 0.78762
 H114 H -0.07049 -0.06504 0.75980
 C115 C 0.13417 0.00565 0.69935
 C116 C 0.01049 0.12854 0.80584
 C117 C -0.00540 -0.13004 0.80148
 C118 C -0.12380 0.02389 0.69618
 C119 C 0.06375 -0.33310 0.04476
 C120 C 0.06491 -0.30564 0.06561
 C121 C 0.04617 -0.32218 0.08762
 C122 C 0.02819 -0.36802 0.08869
 C123 C 0.02714 -0.39576 0.06781
 C124 C 0.04327 -0.37818 0.04513
 C125 C 0.04202 -0.28881 0.10794
 C126 C 0.03290 -0.30091 0.13121
 C127 C 0.02403 -0.26511 0.14988
 C128 C 0.03750 -0.27402 0.17449
 C129 C 0.02970 -0.24022 0.19225
 C130 C 0.00736 -0.19733 0.18573
 C131 C -0.00718 -0.18907 0.16119
 C132 C 0.00092 -0.22254 0.14349
 H133 H 0.07948 -0.31864 0.02845
 H134 H 0.07964 -0.27069 0.06434
 H135 H 0.01258 -0.38189 0.10516
 H136 H 0.01014 -0.42957 0.06926
 H137 H 0.04633 -0.25197 0.10328
 H138 H 0.03288 -0.33742 0.13701
 H139 H 0.05474 -0.30685 0.17990
 H140 H 0.04088 -0.24768 0.21108
 H141 H -0.02412 -0.15623 0.15554
 H142 H -0.01139 -0.21512 0.12484
 C143 C 0.01527 0.38199 0.07118
 C144 C 0.00911 0.35453 0.09238
 C145 C -0.02159 0.31598 0.09207
 C146 C -0.04845 0.30734 0.07053
 C147 C -0.04210 0.33459 0.04934
 C148 C -0.00935 0.37144 0.04928
 C149 C -0.02365 0.28492 0.11419
 C150 C -0.03490 0.23932 0.11296
 C151 C -0.03364 0.20578 0.13412
 C152 C -0.05710 0.16288 0.13144
 C153 C -0.05426 0.12839 0.14994
 C154 C -0.02752 0.13578 0.17159
 C155 C -0.00473 0.17906 0.17459
 C156 C -0.00757 0.21371 0.15603
 H157 H 0.04075 0.41022 0.07162
 H158 H 0.02974 0.36234 0.10881
 H159 H -0.07420 0.27945 0.06982
 H160 H -0.06242 0.32649 0.03285
 H161 H -0.01307 0.29970 0.13156
 H162 H -0.04461 0.22485 0.09537
 H163 H -0.07739 0.15578 0.11480
 H164 H -0.07289 0.09575 0.14723
 H165 H 0.01663 0.18552 0.19095
 H166 H 0.01206 0.24571 0.15867
 C167 C 0.38174 -0.03040 0.56204
 C168 C 0.35651 -0.03309 0.58376
 C169 C 0.32243 0.00123 0.58899
 C170 C 0.31536 0.03925 0.57234
 C171 C 0.34013 0.04161 0.55061
 C172 C 0.37319 0.00666 0.54511
 C173 C 0.29557 -0.00345 0.61198
 C174 C 0.25430 0.01890 0.61539
 C175 C 0.22679 0.01521 0.63806
 C176 C 0.19506 0.05169 0.64297
 C177 C 0.16614 0.04901 0.66324
 C178 C 0.16785 0.00944 0.67901
 C179 C 0.19979 -0.02713 0.67426
 C180 C 0.22913 -0.02428 0.65400
 H181 H 0.40719 -0.05772 0.55824
 H182 H 0.36315 -0.06242 0.59635
 H183 H 0.29134 0.06777 0.57599
 H184 H 0.33384 0.07121 0.53814
 H185 H 0.31022 -0.02655 0.62629
 H186 H 0.23937 0.04168 0.60106
 H187 H 0.19225 0.08228 0.63088
 H188 H 0.14126 0.07734 0.66610
 H189 H 0.20177 -0.05808 0.68610
 H190 H 0.25230 -0.05363 0.65051
 C191 C -0.32579 0.05888 0.53833
 C192 C -0.29750 0.06847 0.55895
 C193 C -0.31247 0.05649 0.58247
 C194 C -0.35775 0.03717 0.58514
 C195 C -0.38661 0.02823 0.56450
 C196 C -0.37059 0.03764 0.54060
 C197 C -0.27932 0.06391 0.60350
 C198 C -0.27709 0.03530 0.62336
 C199 C -0.23887 0.03679 0.64266
 C200 C -0.24420 0.01023 0.66437
 C201 C -0.20746 0.00700 0.68209
 C202 C -0.16433 0.03010 0.67842
 C203 C -0.15938 0.05766 0.65703
 C204 C -0.19598 0.06085 0.63932
 H205 H -0.31259 0.06926 0.52061
 H206 H -0.26311 0.08429 0.55645
 H207 H -0.37088 0.02866 0.60312
 H208 H -0.42032 0.01146 0.56745
 H209 H -0.25367 0.09150 0.60131
 H210 H -0.30296 0.00762 0.62506
 H211 H -0.27659 -0.00896 0.66741
 H212 H -0.21221 -0.01490 0.69827
 H213 H -0.12680 0.07639 0.65381
 H214 H -0.18938 0.08096 0.62281
 C215 C 0.02356 -0.40074 0.93348
 C216 C 0.02053 -0.37553 0.91122
 C217 C 0.00565 -0.32853 0.91038
 C218 C -0.00627 -0.30712 0.93234
 C219 C -0.00310 -0.33209 0.95460
 C220 C 0.01258 -0.37931 0.95578
 C221 C 0.00606 -0.30193 0.88672
 C222 C -0.02085 -0.26360 0.88208
 C223 C -0.01755 -0.23336 0.85975
 C224 C -0.05470 -0.20164 0.85408
 C225 C -0.05136 -0.16923 0.83468
 C226 C -0.01054 -0.16755 0.82052
 C227 C 0.02630 -0.19998 0.82581
 C228 C 0.02295 -0.23247 0.84524
 H229 H 0.03716 -0.43630 0.93313
 H230 H 0.03057 -0.39269 0.89459
 H231 H -0.01696 -0.27063 0.93263
 H232 H -0.01421 -0.31409 0.97073
 H233 H 0.02895 -0.31492 0.87277
 H234 H -0.04694 -0.25358 0.89520
 H235 H -0.08608 -0.20120 0.86507
 H236 H -0.08004 -0.14425 0.83139
 H237 H 0.05808 -0.19976 0.81514
 H238 H 0.05292 -0.25546 0.84928
 C239 C 0.06114 0.37493 0.94367
 C240 C 0.06472 0.34862 0.92243
 C241 C 0.03169 0.31340 0.91707
 C242 C -0.00453 0.30437 0.93370
 C243 C -0.00811 0.33062 0.95486
 C244 C 0.02466 0.36615 0.96014
 C245 C 0.03724 0.28528 0.89473
 C246 C 0.00096 0.26290 0.88377
 C247 C 0.00550 0.23147 0.86259
 C248 C -0.03614 0.21711 0.85030
 C249 C -0.03439 0.18468 0.83152
 C250 C 0.00915 0.16564 0.82456
 C251 C 0.05101 0.18068 0.83648
 C252 C 0.04927 0.21305 0.85535
 H253 H 0.08732 0.40163 0.94741
 H254 H 0.09335 0.35584 0.91012
 H255 H -0.02972 0.27649 0.93078
 H256 H -0.03681 0.32320 0.96709
 H257 H 0.07208 0.28417 0.88701
 H258 H -0.03444 0.26792 0.89044
 H259 H -0.07038 0.23035 0.85558
 H260 H -0.06738 0.17334 0.82303
 H261 H 0.08518 0.16704 0.83139
 H262 H 0.08223 0.22222 0.86453
 C263 C -0.39654 -0.03970 0.43652
 C264 C -0.37301 -0.04747 0.41470
 C265 C -0.33034 -0.02468 0.40988
 C266 C -0.31075 0.00490 0.42766
 C267 C -0.33391 0.01255 0.44945
 C268 C -0.37747 -0.00942 0.45443
 C269 C -0.30590 -0.03342 0.38670
 C270 C -0.27857 -0.00089 0.37611
 C271 C -0.24963 -0.00856 0.35426
 C272 C -0.23025 0.03085 0.34255
 C273 C -0.19864 0.02573 0.32358
 C274 C -0.18547 -0.01909 0.31582
 C275 C -0.20591 -0.05865 0.32702
 C276 C -0.23758 -0.05352 0.34609
 H277 H -0.42874 -0.05907 0.43953
 H278 H -0.38833 -0.07122 0.40148
 H279 H -0.27714 0.02205 0.42495
 H280 H -0.31805 0.03746 0.46185
 H281 H -0.31167 -0.06681 0.37809
 H282 H -0.27710 0.03376 0.38385
 H283 H -0.23857 0.06587 0.34857
 H284 H -0.18299 0.05695 0.31571
 H285 H -0.19675 -0.09365 0.32134
 H286 H -0.25094 -0.08490 0.35485
 C287 C 0.32900 0.06528 0.45391
 C288 C 0.30059 0.07087 0.43267
 C289 C 0.31026 0.04545 0.41162
 C290 C 0.35062 0.01609 0.41183
 C291 C 0.37918 0.01065 0.43307
 C292 C 0.36811 0.03447 0.45448
 C293 C 0.27678 0.04985 0.39024
 C294 C 0.27030 0.01585 0.37384
 C295 C 0.23225 0.01682 0.35446
 C296 C 0.23572 -0.01395 0.33482
 C297 C 0.19875 -0.01744 0.31736
 C298 C 0.15720 0.00952 0.31930
 C299 C 0.15412 0.04111 0.33862
 C300 C 0.19104 0.04464 0.35605
 H301 H 0.32013 0.08478 0.46999
 H302 H 0.27011 0.09417 0.43291
 H303 H 0.36026 -0.00288 0.39574
 H304 H 0.40917 -0.01326 0.43297
 H305 H 0.25476 0.08105 0.38910
 H306 H 0.29243 -0.01531 0.37505
 H307 H 0.26681 -0.03610 0.33324
 H308 H 0.20196 -0.04251 0.30286
 H309 H 0.12272 0.06267 0.34048
 H310 H 0.18604 0.06792 0.37114
   
