data_POSCAR
  _audit_creation_date              2014-09-24
  _audit_creation_method            'ToBaCCo'
  _symmetry_space_group_name_H-M    'P1'
  _symmetry_Int_Tables_number       1
  _symmetry_cell_setting            triclinic
  loop_
  _symmetry_equiv_pos_as_xyz
 x,y,z
_cell_length_a 52.6834
_cell_length_b 52.0160
_cell_length_c 52.6762
_cell_angle_alpha 90.047400
_cell_angle_beta 89.980000
_cell_angle_gamma 89.972400
loop_
  _atom_site_label
  _atom_site_type_symbol
  _atom_site_fract_x
  _atom_site_fract_y
  _atom_site_fract_z
C1 C 0.60583 0.62465 0.64433
 C2 C 0.58694 0.64368 0.64408
 C3 C 0.58669 0.66275 0.62518
 C4 C 0.60566 0.66262 0.60640
 C5 C 0.62468 0.64374 0.60643
 C6 C 0.62481 0.62472 0.62551
 C7 C 0.60607 0.60570 0.66327
 C8 C 0.62508 0.58647 0.66389
 C9 C 0.64396 0.58693 0.64477
 C10 C 0.64393 0.60579 0.62576
 C11 C 0.66269 0.60588 0.60684
 C12 C 0.66268 0.62472 0.58770
 C13 C 0.64358 0.64360 0.58767
 H14 H 0.57256 0.64384 0.65881
 H15 H 0.60543 0.67702 0.59154
 H16 H 0.59185 0.60682 0.67806
 H17 H 0.65827 0.57203 0.64381
 H18 H 0.67717 0.59106 0.60682
 H19 H 0.64361 0.65842 0.57321
 C20 C 0.89457 0.37481 0.14398
 C21 C 0.91346 0.35579 0.14377
 C22 C 0.91391 0.33639 0.12491
 C23 C 0.89466 0.33673 0.10618
 C24 C 0.87568 0.35566 0.10620
 C25 C 0.87563 0.37479 0.12513
 C26 C 0.89430 0.39382 0.16290
 C27 C 0.87540 0.41292 0.16317
 C28 C 0.85663 0.41282 0.14420
 C29 C 0.85663 0.39391 0.12520
 C30 C 0.83786 0.39379 0.10633
 C31 C 0.83780 0.37481 0.08730
 C32 C 0.85682 0.35582 0.08739
 H33 H 0.92712 0.35573 0.15910
 H34 H 0.89478 0.32296 0.09078
 H35 H 0.90904 0.39398 0.17725
 H36 H 0.84180 0.42727 0.14442
 H37 H 0.82308 0.40830 0.10662
 H38 H 0.85710 0.34132 0.07260
 C39 C 0.39422 0.12510 -0.14429
 C40 C 0.41312 0.14411 -0.14397
 C41 C 0.41338 0.16313 -0.12499
 C42 C 0.39443 0.16296 -0.10618
 C43 C 0.37545 0.14406 -0.10623
 C44 C 0.37538 0.12501 -0.12532
 C45 C 0.39400 0.10617 -0.16327
 C46 C 0.37516 0.08678 -0.16378
 C47 C 0.35645 0.08705 -0.14449
 C48 C 0.35647 0.10589 -0.12543
 C49 C 0.33767 0.10599 -0.10653
 C50 C 0.33759 0.12490 -0.08744
 C51 C 0.35660 0.14387 -0.08743
 H52 H 0.42745 0.14432 -0.15874
 H53 H 0.39465 0.17735 -0.09129
 H54 H 0.40932 0.10615 -0.17696
 H55 H 0.34106 0.07328 -0.14465
 H56 H 0.32290 0.09149 -0.10686
 H57 H 0.35689 0.15832 -0.07259
 C58 C 0.10570 0.87480 0.35605
 C59 C 0.08678 0.85584 0.35625
 C60 C 0.08615 0.83661 0.37523
 C61 C 0.10526 0.83706 0.39411
 C62 C 0.12429 0.85592 0.39409
 C63 C 0.12455 0.87484 0.37499
 C64 C 0.10597 0.89382 0.33717
 C65 C 0.12492 0.91285 0.33689
 C66 C 0.14374 0.91268 0.35582
 C67 C 0.14368 0.89382 0.37483
 C68 C 0.16242 0.89370 0.39373
 C69 C 0.16236 0.87483 0.41283
 C70 C 0.14321 0.85599 0.41284
 H71 H 0.07199 0.85696 0.34205
 H72 H 0.10621 0.82217 0.40841
 H73 H 0.09161 0.89360 0.32244
 H74 H 0.15825 0.92745 0.35594
 H75 H 0.17690 0.90850 0.39377
 H76 H 0.14322 0.84119 0.42731
 N77 N 0.09537 0.16524 0.11309
 N78 N 0.08516 0.15449 0.13325
 C79 C 0.06455 0.16812 0.14026
 C80 C 0.06187 0.18832 0.12356
 C81 C 0.08162 0.18605 0.10656
 H82 H 0.05241 0.16377 0.15624
 H83 H 0.08566 0.19857 0.09069
 Cu84 Cu 0.09982 0.12377 0.14837
 Cu85 Cu 0.12568 0.15153 0.09683
 Cu86 Cu 0.15280 0.09738 0.12397
 N87 N 0.11560 0.09373 0.16370
 N88 N 0.13632 0.08351 0.15406
 C89 C 0.14320 0.06309 0.16819
 C90 C 0.12587 0.06053 0.18760
 C91 C 0.10861 0.08015 0.18434
 H92 H 0.15955 0.05104 0.16462
 H93 H 0.09225 0.08417 0.19611
 N94 N 0.16669 0.11421 0.09348
 N95 N 0.15635 0.13484 0.08314
 C96 C 0.17010 0.14170 0.06265
 C97 C 0.18987 0.12457 0.06014
 C98 C 0.18728 0.10741 0.07985
 H99 H 0.16607 0.15789 0.05044
 H100 H 0.19949 0.09120 0.08388
 H101 H 0.12076 0.11384 0.10821
 H102 H 0.14050 0.13478 0.12918
 N103 N 0.40456 0.83433 0.61324
 N104 N 0.41481 0.84518 0.63334
 C105 C 0.43543 0.83157 0.64033
 C106 C 0.43806 0.81128 0.62371
 C107 C 0.41828 0.81348 0.60675
 H108 H 0.44760 0.83601 0.65627
 H109 H 0.41419 0.80088 0.59093
 Cu110 Cu 0.40021 0.87600 0.64838
 Cu111 Cu 0.37423 0.84799 0.59700
 Cu112 Cu 0.34721 0.90231 0.62402
 N113 N 0.38449 0.90613 0.66365
 N114 N 0.36376 0.91632 0.65403
 C115 C 0.35690 0.93680 0.66811
 C116 C 0.37427 0.93945 0.68748
 C117 C 0.39152 0.91979 0.68423
 H118 H 0.34055 0.94885 0.66455
 H119 H 0.40787 0.91581 0.69598
 N120 N 0.33325 0.88534 0.59362
 N121 N 0.34355 0.86464 0.58333
 C122 C 0.32978 0.85770 0.56289
 C123 C 0.31002 0.87484 0.56035
 C124 C 0.31266 0.89210 0.58000
 H125 H 0.33377 0.84144 0.55072
 H126 H 0.30049 0.90836 0.58399
 H127 H 0.37921 0.88573 0.60825
 H128 H 0.35948 0.86493 0.62934
 N129 N 0.90403 0.66631 0.38642
 N130 N 0.91368 0.65613 0.36567
 C131 C 0.93428 0.66977 0.35868
 C132 C 0.93751 0.68939 0.37598
 C133 C 0.91812 0.68675 0.39333
 H134 H 0.94605 0.66579 0.34232
 H135 H 0.91454 0.69877 0.40970
 Cu136 Cu 0.89842 0.62606 0.34987
 Cu137 Cu 0.87400 0.65231 0.40292
 Cu138 Cu 0.84700 0.59810 0.37576
 N139 N 0.88339 0.59529 0.33520
 N140 N 0.86327 0.58445 0.34542
 C141 C 0.85681 0.56363 0.33166
 C142 C 0.87379 0.56143 0.31188
 C143 C 0.89041 0.58169 0.31457
 H144 H 0.84098 0.55105 0.33571
 H145 H 0.90637 0.58612 0.30241
 N146 N 0.83330 0.61472 0.40647
 N147 N 0.84358 0.63538 0.41682
 C148 C 0.82994 0.64213 0.43743
 C149 C 0.81029 0.62489 0.44002
 C150 C 0.81284 0.60778 0.42022
 H151 H 0.83393 0.65834 0.44964
 H152 H 0.80067 0.59155 0.41619
 H153 H 0.87932 0.61495 0.39057
 H154 H 0.85827 0.63583 0.37087
 N155 N 0.59542 0.33464 -0.11294
 N156 N 0.58519 0.34545 -0.13306
 C157 C 0.56456 0.33187 -0.14004
 C158 C 0.56188 0.31164 -0.12338
 C159 C 0.58166 0.31385 -0.10642
 H160 H 0.55241 0.33627 -0.15600
 H161 H 0.58573 0.30128 -0.09059
 Cu162 Cu 0.59987 0.37616 -0.14817
 Cu163 Cu 0.62578 0.34825 -0.09673
 Cu164 Cu 0.65295 0.40236 -0.12387
 N165 N 0.61568 0.40617 -0.16351
 N166 N 0.63644 0.41632 -0.15391
 C167 C 0.64335 0.43672 -0.16803
 C168 C 0.62599 0.43935 -0.18741
 C169 C 0.60868 0.41978 -0.18411
 H170 H 0.65973 0.44872 -0.16450
 H171 H 0.59231 0.41582 -0.19585
 N172 N 0.66686 0.38546 -0.09343
 N173 N 0.65650 0.36484 -0.08309
 C174 C 0.67026 0.35793 -0.06264
 C175 C 0.69007 0.37500 -0.06015
 C176 C 0.68748 0.39220 -0.07983
 H177 H 0.66622 0.34173 -0.05043
 H178 H 0.69970 0.40838 -0.08387
 H179 H 0.62091 0.38597 -0.10805
 H180 H 0.64057 0.36501 -0.12910
 C181 C -0.02389 0.30277 0.13556
 C182 C -0.02860 0.27883 0.12452
 C183 C -0.05225 0.27385 0.11363
 C184 C -0.07116 0.29270 0.11371
 C185 C -0.06686 0.31713 0.12479
 C186 C -0.04273 0.32170 0.13575
 C187 C -0.00915 0.25938 0.12436
 C188 C 0.00713 0.24310 0.12420
 C189 C 0.02619 0.22402 0.12400
 C190 C 0.04247 0.20774 0.12381
 H191 H -0.00553 0.30692 0.14387
 H192 H -0.05617 0.25525 0.10521
 H193 H -0.08942 0.28746 0.10593
 H194 H -0.03772 0.34022 0.14362
 C195 C 0.55376 0.72743 0.61954
 C196 C 0.52855 0.72080 0.62473
 C197 C 0.52231 0.69522 0.63008
 C198 C 0.54120 0.67633 0.63024
 C199 C 0.56661 0.68280 0.62504
 C200 C 0.57268 0.70858 0.61968
 C201 C 0.50909 0.74023 0.62455
 C202 C 0.49280 0.75651 0.62438
 C203 C 0.47373 0.77557 0.62417
 C204 C 0.45745 0.79186 0.62397
 H205 H 0.55881 0.74719 0.61544
 H206 H 0.50284 0.68986 0.63405
 H207 H 0.53589 0.65662 0.63411
 H208 H 0.59210 0.71420 0.61591
 C209 C 1.03555 0.79109 0.35285
 C210 C 1.02850 0.77927 0.37557
 C211 C 1.04045 0.78632 0.39818
 C212 C 1.05941 0.80511 0.39813
 C213 C 1.06687 0.81741 0.37535
 C214 C 1.05446 0.80992 0.35267
 C215 C 1.00897 0.75992 0.37568
 C216 C 0.99261 0.74374 0.37577
 C217 C 0.97343 0.72480 0.37585
 C218 C 0.95705 0.70863 0.37591
 H219 H 1.02655 0.78560 0.33516
 H220 H 1.03497 0.77743 0.41595
 H221 H 1.06730 0.81056 0.41630
 H222 H 1.05987 0.81769 0.33443
 C223 C 0.47770 0.19564 -0.12991
 C224 C 0.47144 0.22121 -0.12446
 C225 C 0.44623 0.22782 -0.11919
 C226 C 0.42733 0.20896 -0.11935
 C227 C 0.43343 0.18319 -0.12481
 C228 C 0.45883 0.17675 -0.13010
 C229 C 0.49087 0.24064 -0.12426
 C230 C 0.50715 0.25692 -0.12408
 C231 C 0.52621 0.27598 -0.12385
 C232 C 0.54249 0.29225 -0.12364
 H233 H 0.49716 0.19030 -0.13395
 H234 H 0.44116 0.24757 -0.11502
 H235 H 0.40791 0.21457 -0.11553
 H236 H 0.46416 0.15704 -0.13405
 C237 C 0.10247 -0.03663 0.29000
 C238 C 0.12537 -0.02924 0.27868
 C239 C 0.14812 -0.04072 0.28638
 C240 C 0.14800 -0.05954 0.30532
 C241 C 0.12508 -0.06712 0.31681
 C242 C 0.10231 -0.05545 0.30894
 C243 C 0.12550 -0.00991 0.25915
 C244 C 0.12560 0.00626 0.24277
 C245 C 0.12570 0.02518 0.22358
 C246 C 0.12578 0.04132 0.20717
 H247 H 0.08476 -0.02781 0.28424
 H248 H 0.16594 -0.03520 0.27769
 H249 H 0.16579 -0.06840 0.31074
 H250 H 0.08441 -0.06064 0.31764
 C251 C 0.64808 0.53621 -0.29042
 C252 C 0.62548 0.52915 -0.27845
 C253 C 0.60275 0.54096 -0.28550
 C254 C 0.60255 0.55979 -0.30441
 C255 C 0.62521 0.56728 -0.31683
 C256 C 0.64801 0.55499 -0.30938
 C257 C 0.62562 0.50982 -0.25892
 C258 C 0.62572 0.49364 -0.24255
 C259 C 0.62583 0.47472 -0.22336
 C260 C 0.62590 0.45858 -0.20696
 H261 H 0.66586 0.52732 -0.28494
 H262 H 0.58507 0.53547 -0.27649
 H263 H 0.58430 0.56755 -0.30982
 H264 H 0.66617 0.56045 -0.31727
 C265 C 0.36393 1.02438 0.80211
 C266 C 0.37481 1.02947 0.77847
 C267 C 0.38580 1.05343 0.77385
 C268 C 0.38597 1.07228 0.79277
 C269 C 0.37504 1.06760 0.81690
 C270 C 0.36399 1.04316 0.82110
 C271 C 0.37468 1.01010 0.75894
 C272 C 0.37459 0.99388 0.74257
 C273 C 0.37447 0.97492 0.72340
 C274 C 0.37438 0.95873 0.70702
 H275 H 0.35554 1.00577 0.80596
 H276 H 0.39410 1.05765 0.75550
 H277 H 0.39382 1.09081 0.78784
 H278 H 0.35623 1.03784 0.83936
 C279 C 0.88029 0.44541 0.22755
 C280 C 0.87495 0.47099 0.22132
 C281 C 0.86978 0.47763 0.19610
 C282 C 0.86992 0.45876 0.17718
 C283 C 0.87527 0.43298 0.18325
 C284 C 0.88047 0.42651 0.20865
 C285 C 0.87475 0.49042 0.24079
 C286 C 0.87455 0.50669 0.25709
 C287 C 0.87431 0.52575 0.27617
 C288 C 0.87408 0.54203 0.29247
 H289 H 0.88426 0.44005 0.24702
 H290 H 0.86568 0.49739 0.19106
 H291 H 0.86617 0.46439 0.15775
 H292 H 0.88433 0.40679 0.21396
 C293 C 0.29101 0.10160 -0.03749
 C294 C 0.27986 0.12472 -0.02970
 C295 C 0.28755 0.14790 -0.04076
 C296 C 0.30633 0.14798 -0.05952
 C297 C 0.31765 0.12484 -0.06750
 C298 C 0.30978 0.10163 -0.05627
 C299 C 0.26054 0.12467 -0.01038
 C300 C 0.24435 0.12463 0.00579
 C301 C 0.22539 0.12460 0.02473
 C302 C 0.20919 0.12459 0.04089
 H303 H 0.28525 0.08355 -0.02901
 H304 H 0.27900 0.16591 -0.03492
 H305 H 0.31175 0.16611 -0.06803
 H306 H 0.31836 0.08355 -0.06177
 C307 C 0.72687 0.61970 0.55529
 C308 C 0.72043 0.62468 0.52999
 C309 C 0.69514 0.62964 0.52353
 C310 C 0.67634 0.62966 0.54228
 C311 C 0.68262 0.62468 0.56777
 C312 C 0.70811 0.61969 0.57406
 C313 C 0.73976 0.62470 0.51067
 C314 C 0.75594 0.62473 0.49449
 C315 C 0.77487 0.62478 0.47553
 C316 C 0.79104 0.62482 0.45933
 H317 H 0.74641 0.61590 0.56051
 H318 H 0.68993 0.63345 0.50399
 H319 H 0.65686 0.63325 0.53679
 H320 H 0.71358 0.61612 0.59356
 C321 C 0.79126 0.39797 0.03728
 C322 C 0.78011 0.37483 0.02958
 C323 C 0.78780 0.35168 0.04071
 C324 C 0.80657 0.35165 0.05947
 C325 C 0.81789 0.37481 0.06736
 C326 C 0.81002 0.39798 0.05605
 C327 C 0.76078 0.37484 0.01028
 C328 C 0.74458 0.37486 -0.00588
 C329 C 0.72560 0.37490 -0.02478
 C330 C 0.70939 0.37494 -0.04092
 H331 H 0.78550 0.41599 0.02874
 H332 H 0.77924 0.33366 0.03494
 H333 H 0.81199 0.33355 0.06804
 H334 H 0.81860 0.41608 0.06149
 C335 C 0.19476 0.86979 0.47701
 C336 C 0.22006 0.87474 0.47055
 C337 C 0.22653 0.87970 0.44525
 C338 C 0.20778 0.87974 0.42647
 C339 C 0.18229 0.87479 0.43277
 C340 C 0.17598 0.86980 0.45825
 C341 C 0.23937 0.87473 0.48987
 C342 C 0.25555 0.87474 0.50604
 C343 C 0.27451 0.87476 0.52496
 C344 C 0.29071 0.87479 0.54112
 H345 H 0.18953 0.86600 0.49654
 H346 H 0.24606 0.88349 0.44004
 H347 H 0.21327 0.88331 0.40698
 H348 H 0.15649 0.86625 0.46374
   
