data_POSCAR
  _audit_creation_date              2014-09-24
  _audit_creation_method            'ToBaCCo'
  _symmetry_space_group_name_H-M    'P1'
  _symmetry_Int_Tables_number       1
  _symmetry_cell_setting            triclinic
  loop_
  _symmetry_equiv_pos_as_xyz
 x,y,z
_cell_length_a 30.3946
_cell_length_b 29.9737
_cell_length_c 30.0810
_cell_angle_alpha 89.921100
_cell_angle_beta 90.139500
_cell_angle_gamma 90.291000
loop_
  _atom_site_label
  _atom_site_type_symbol
  _atom_site_fract_x
  _atom_site_fract_y
  _atom_site_fract_z
N1 N 0.35690 0.35128 0.33070
 N2 N 0.33368 0.84862 -0.17083
 N3 N 0.84168 0.34238 -0.16607
 N4 N 0.84055 0.83552 0.33848
 N5 N 0.65545 0.66667 0.34892
 N6 N 0.66534 0.15791 -0.15329
 N7 N 0.16724 0.65298 -0.15077
 N8 N 0.16034 0.17748 0.33673
 N9 N 0.66745 0.33257 0.66344
 N10 N 0.65401 0.83088 1.15397
 N11 N 0.15306 0.33457 1.15724
 N12 N 0.16199 0.84126 0.66480
 N13 N 0.32883 0.65100 0.64972
 N14 N 0.35125 0.15730 1.17105
 N15 N 0.83196 0.66570 1.15903
 N16 N 0.84559 0.14855 0.66988
 N17 N 0.35165 0.34002 0.66005
 N18 N 0.33931 0.85148 0.16782
 N19 N 0.83851 0.35169 0.16042
 N20 N 0.85026 0.83587 0.66862
 N21 N 0.65491 0.66285 0.65983
 N22 N 0.66604 0.16067 0.15768
 N23 N 0.16262 0.66570 0.15325
 N24 N 0.16638 0.17933 0.65029
 N25 N 0.33413 0.65244 0.34364
 N26 N 0.34417 0.15910 0.84137
 N27 N 0.84403 0.65699 0.84484
 N28 N 0.83748 0.15011 0.33730
 N29 N 0.67391 0.33743 0.35059
 N30 N 0.64645 0.82948 0.83244
 N31 N 0.16171 0.33286 0.85138
 N32 N 0.13978 0.85497 0.34883
 O33 O 0.28421 0.95539 0.23929
 O34 O 0.24462 1.04519 0.31069
 O35 O 0.22385 0.96076 0.30029
 O36 O 0.29623 1.04151 0.24166
 O37 O 0.24439 1.04833 0.19051
 O38 O 0.16937 0.97853 0.25499
 O39 O 0.19468 1.06197 0.26003
 O40 O 0.22786 0.96319 0.19356
 Cu41 Cu 0.26746 0.99936 0.27782
 Cu42 Cu 0.20379 1.01443 0.22012
 C43 C 0.26294 0.94317 0.20504
 C44 C 0.21379 1.06992 0.29706
 C45 C 0.18401 0.95632 0.28753
 C46 C 0.28233 1.05782 0.20515
 O47 O 0.31956 0.45550 0.76565
 O48 O 0.24452 0.54182 0.80835
 O49 O 0.26150 0.45549 0.82645
 O50 O 0.31654 0.53896 0.75804
 O51 O 0.26711 0.53054 0.70465
 O52 O 0.21277 0.44315 0.77332
 O53 O 0.19838 0.52935 0.75291
 O54 O 0.27328 0.44526 0.70975
 Cu55 Cu 0.28875 0.50018 0.79566
 Cu56 Cu 0.23287 0.48489 0.73100
 C57 C 0.30889 0.43588 0.72970
 C58 C 0.20918 0.55095 0.78735
 C59 C 0.22876 0.43401 0.81146
 C60 C 0.30173 0.54923 0.72006
 O61 O 0.70443 0.03527 0.22162
 O62 O 0.76209 -0.05529 0.28374
 O63 O 0.74642 0.02785 0.29793
 O64 O 0.70025 -0.05433 0.22304
 O65 O 0.75750 -0.04889 0.17848
 O66 O 0.80139 0.04053 0.25163
 O67 O 0.81910 -0.04359 0.23978
 O68 O 0.76021 0.03829 0.17480
 Cu69 Cu 0.72216 -0.01226 0.26032
 Cu70 Cu 0.78964 -0.00279 0.20701
 C71 C 0.72326 0.05219 0.18739
 C72 C 0.80164 -0.06376 0.27213
 C73 C 0.78123 0.04854 0.28801
 C74 C 0.72088 -0.06697 0.18901
 O75 O 0.69334 0.53697 0.74900
 O76 O 0.77015 0.45445 0.79046
 O77 O 0.77131 0.54248 0.79208
 O78 O 0.70934 0.45267 0.73303
 O79 O 0.74852 0.46813 0.67321
 O80 O 0.81489 0.54968 0.73385
 O81 O 0.81286 0.46294 0.73173
 O82 O 0.73822 0.55281 0.69354
 Cu83 Cu 0.73214 0.49691 0.77192
 Cu84 Cu 0.78252 0.50935 0.70233
 C85 C 0.70252 0.55961 0.71485
 C86 C 0.80360 0.44338 0.76823
 C87 C 0.80497 0.55991 0.77324
 C88 C 0.71965 0.44472 0.69267
 O89 O 0.18321 0.53882 0.24270
 O90 O 0.24160 0.45124 0.29933
 O91 O 0.25710 0.53953 0.29311
 O92 O 0.19286 0.45384 0.23051
 O93 O 0.24206 0.46011 0.17693
 O94 O 0.30764 0.53706 0.24062
 O95 O 0.29318 0.45126 0.24764
 O96 O 0.23573 0.54599 0.19255
 Cu97 Cu 0.21486 0.49694 0.27155
 Cu98 Cu 0.27414 0.49868 0.20977
 C99 C 0.19858 0.55772 0.20860
 C100 C 0.27629 0.43513 0.28322
 C101 C 0.29418 0.55218 0.27710
 C102 C 0.20759 0.44249 0.19239
 O103 O 0.76015 1.03064 0.82784
 O104 O 0.80553 0.94111 0.75626
 O105 O 0.82153 1.02566 0.76781
 O106 O 0.75251 0.94371 0.82522
 O107 O 0.70070 0.95172 0.77437
 O108 O 0.76798 1.03948 0.72002
 O109 O 0.75582 0.95742 0.70513
 O110 O 0.70809 1.04186 0.77778
 Cu111 Cu 0.78995 0.98390 0.79928
 Cu112 Cu 0.72706 0.99741 0.74062
 C113 C 0.72662 1.05208 0.81423
 C114 C 0.78875 0.93499 0.71780
 C115 C 0.80660 1.04713 0.73483
 C116 C 0.71540 0.93297 0.80935
 O117 O 0.75557 0.55148 0.32540
 O118 O 0.82029 0.47358 0.25983
 O119 O 0.79865 0.55835 0.24826
 O120 O 0.76467 0.46646 0.32329
 O121 O 0.70543 0.45706 0.28169
 O122 O 0.74241 0.54284 0.20431
 O123 O 0.76253 0.45910 0.21735
 O124 O 0.69923 0.54503 0.27924
 Cu125 Cu 0.79020 0.51468 0.29247
 Cu126 Cu 0.72165 0.49973 0.24151
 C127 C 0.71719 0.56253 0.31353
 C128 C 0.80257 0.45216 0.22825
 C129 C 0.77655 0.56542 0.21289
 C130 C 0.72906 0.44568 0.31449
 O131 O 0.19867 0.05852 0.71962
 O132 O 0.23556 -0.03169 0.79452
 O133 O 0.23777 0.05030 0.79949
 O134 O 0.19260 -0.03292 0.72373
 O135 O 0.25282 -0.03170 0.68269
 O136 O 0.29843 0.05233 0.75908
 O137 O 0.29728 -0.03468 0.75587
 O138 O 0.26026 0.05514 0.68115
 Cu139 Cu 0.20893 0.01291 0.76100
 Cu140 Cu 0.28344 0.01035 0.71586
 C141 C 0.22318 0.07272 0.68828
 C142 C 0.27313 -0.04862 0.78752
 C143 C 0.27631 0.06483 0.79269
 C144 C 0.21536 -0.04804 0.69186
 O145 O 0.28039 0.18829 0.96521
 O146 O 0.20189 0.22975 1.04802
 O147 O 0.20562 0.22616 0.96253
 O148 O 0.27909 0.19089 1.05325
 O149 O 0.31457 0.25531 1.05063
 O150 O 0.23820 0.29225 0.96287
 O151 O 0.23746 0.29416 1.04982
 O152 O 0.31427 0.25368 0.96422
 Cu153 Cu 0.23878 0.20192 1.00795
 Cu154 Cu 0.27940 0.28049 1.00704
 C155 C 0.30953 0.21433 0.94939
 C156 C 0.20617 0.26910 1.06290
 C157 C 0.20977 0.26529 0.94698
 C158 C 0.30938 0.21677 1.06725
 O159 O 0.16907 0.75151 0.53526
 O160 O 0.22194 0.69613 0.44244
 O161 O 0.22589 0.68390 0.53147
 O162 O 0.18059 0.76805 0.45333
 O163 O 0.24053 0.80893 0.46280
 O164 O 0.28436 0.72682 0.54044
 O165 O 0.28344 0.73428 0.45321
 O166 O 0.22882 0.79197 0.54765
 Cu167 Cu 0.19453 0.71983 0.49066
 Cu168 Cu 0.26516 0.76947 0.50205
 C169 C 0.18928 0.78114 0.55726
 C170 C 0.26081 0.70597 0.43106
 C171 C 0.26269 0.69203 0.55023
 C172 C 0.20346 0.80274 0.44455
 O173 O 0.26781 0.69990 0.04425
 O174 O 0.32807 0.76880 -0.03505
 O175 O 0.31058 0.77482 0.05089
 O176 O 0.27419 0.70121 -0.04103
 O177 O 0.21310 0.74036 -0.04712
 O178 O 0.25501 0.81973 0.03655
 O179 O 0.26768 0.80649 -0.05030
 O180 O 0.20990 0.74391 0.03928
 Cu181 Cu 0.30117 0.73251 0.00577
 Cu182 Cu 0.23085 0.78230 -0.00593
 C183 C 0.22911 0.70987 0.05567
 C184 C 0.30779 0.79722 -0.05836
 C185 C 0.28881 0.81005 0.05927
 C186 C 0.23686 0.70787 -0.05914
 O187 O 0.30066 0.28792 0.44718
 O188 O 0.23656 0.22991 0.53489
 O189 O 0.23651 0.22979 0.44736
 O190 O 0.30333 0.28411 0.53531
 O191 O 0.25668 0.34035 0.53585
 O192 O 0.18975 0.28592 0.44945
 O193 O 0.18976 0.28609 0.53528
 O194 O 0.25414 0.34421 0.44954
 Cu195 Cu 0.27409 0.25237 0.49089
 Cu196 Cu 0.21811 0.31978 0.49255
 C197 C 0.28803 0.32596 0.43339
 C198 C 0.20215 0.24854 0.55003
 C199 C 0.20157 0.24857 0.43373
 C200 C 0.29072 0.32122 0.55106
 O201 O 0.73748 0.66847 0.95975
 O202 O 0.67114 0.73014 1.03817
 O203 O 0.67427 0.72593 0.95322
 O204 O 0.74868 0.69069 1.04503
 O205 O 0.79305 0.74720 1.02958
 O206 O 0.71729 0.78480 0.94422
 O207 O 0.71645 0.78781 1.03274
 O208 O 0.77956 0.72761 0.94798
 Cu209 Cu 0.70460 0.69785 1.00062
 Cu210 Cu 0.75495 0.76804 0.98812
 C211 C 0.76894 0.68728 0.93964
 C212 C 0.68275 0.76888 1.04968
 C213 C 0.68378 0.76216 0.93304
 C214 C 0.78385 0.71315 1.05249
 O215 O 0.80107 0.22094 0.55432
 O216 O 0.74396 0.28630 0.46700
 O217 O 0.74340 0.28431 0.55364
 O218 O 0.81383 0.23505 0.46854
 O219 O 0.76410 0.18276 0.45567
 O220 O 0.69620 0.22846 0.54640
 O221 O 0.69332 0.23313 0.46354
 O222 O 0.75376 0.16587 0.54320
 Cu223 Cu 0.78062 0.26182 0.51152
 Cu224 Cu 0.72352 0.19657 0.50060
 C225 C 0.78635 0.18217 0.56384
 C226 C 0.70787 0.27080 0.45149
 C227 C 0.70797 0.26491 0.56476
 C228 C 0.80059 0.20166 0.44650
 O229 O 0.79372 0.28021 -0.04404
 O230 O 0.73502 0.21965 0.04549
 O231 O 0.73298 0.21846 -0.04123
 O232 O 0.78889 0.28719 0.04393
 O233 O 0.73513 0.33638 0.04078
 O234 O 0.67996 0.26862 -0.04343
 O235 O 0.68126 0.26885 0.04185
 O236 O 0.74072 0.33027 -0.04572
 Cu237 Cu 0.76835 0.24669 0.00122
 Cu238 Cu 0.70415 0.30609 -0.00203
 C239 C 0.77691 0.31528 -0.06044
 C240 C 0.69789 0.23376 0.05853
 C241 C 0.69630 0.23212 -0.05630
 C242 C 0.77077 0.32284 0.05772
 O243 O 0.76999 0.80248 0.55663
 O244 O 0.69194 0.76139 0.47222
 O245 O 0.70515 0.74614 0.55584
 O246 O 0.75647 0.81851 0.47150
 O247 O 0.80214 0.76418 0.45421
 O248 O 0.75142 0.69233 0.53843
 O249 O 0.73862 0.70787 0.45502
 O250 O 0.81678 0.74930 0.53892
 Cu251 Cu 0.72649 0.78785 0.51586
 Cu252 Cu 0.78218 0.72313 0.49518
 C253 C 0.80629 0.78250 0.56269
 C254 C 0.70218 0.72763 0.44910
 C255 C 0.71944 0.70675 0.56117
 C256 C 0.78706 0.80302 0.44748
 O257 O 0.94833 0.22930 0.29683
 O258 O 1.02792 0.30658 0.24681
 O259 O 0.94381 0.29202 0.23690
 O260 O 1.03479 0.23669 0.29746
 O261 O 1.03819 0.18578 0.24441
 O262 O 0.95196 0.24282 0.18295
 O263 O 1.03918 0.25779 0.19316
 O264 O 0.95650 0.18214 0.24107
 Cu265 Cu 0.98776 0.27088 0.27521
 Cu266 Cu 0.99826 0.21404 0.20914
 C267 C 0.93844 0.19303 0.27744
 C268 C 1.04802 0.29472 0.21206
 C269 C 0.93232 0.27608 0.19938
 C270 C 1.05162 0.20150 0.28101
 O271 O 0.55008 0.17666 0.74460
 O272 O 0.47199 0.24104 0.67978
 O273 O 0.55627 0.25219 0.69983
 O274 O 0.46581 0.18138 0.74260
 O275 O 0.45953 0.22786 0.79909
 O276 O 0.54248 0.30146 0.75242
 O277 O 0.46016 0.28648 0.73621
 O278 O 0.54734 0.22625 0.79881
 Cu279 Cu 0.51219 0.20898 0.71118
 Cu280 Cu 0.50210 0.26453 0.77742
 C281 C 0.56297 0.19048 0.78204
 C282 C 0.45174 0.27360 0.69658
 C283 C 0.56423 0.28941 0.71893
 C284 C 0.44739 0.19299 0.77879
 O285 O 0.04866 0.25826 0.80242
 O286 O -0.03967 0.19735 0.74203
 O287 O 0.04584 0.18992 0.74739
 O288 O -0.03604 0.24585 0.81449
 O289 O -0.04350 0.29749 0.76265
 O290 O 0.04864 0.24616 0.70015
 O291 O -0.03677 0.24923 0.68992
 O292 O 0.04092 0.31407 0.75496
 Cu293 Cu 0.00496 0.21792 0.78093
 Cu294 Cu 0.00207 0.28166 0.72245
 C295 C 0.05912 0.29737 0.78879
 C296 C -0.05247 0.21316 0.70475
 C297 C 0.06210 0.20813 0.71332
 C298 C -0.05494 0.28031 0.79992
 O299 O 0.46780 0.29271 0.26848
 O300 O 0.55293 0.22982 0.20901
 O301 O 0.46680 0.22857 0.21124
 O302 O 0.55197 0.30360 0.25515
 O303 O 0.56233 0.25754 0.31146
 O304 O 0.47266 0.18459 0.26993
 O305 O 0.55547 0.18182 0.26485
 O306 O 0.47565 0.24778 0.32624
 Cu307 Cu 0.50925 0.26820 0.23017
 Cu308 Cu 0.51849 0.21480 0.29916
 C309 C 0.45690 0.28041 0.30749
 C310 C 0.56806 0.19447 0.22683
 C311 C 0.45433 0.19463 0.23320
 C312 C 0.57206 0.29324 0.29052
 O313 O 1.05282 0.69755 0.77176
 O314 O 0.97019 0.76400 0.70830
 O315 O 1.05526 0.76224 0.71179
 O316 O 0.96641 0.68883 0.74860
 O317 O 0.95632 0.73151 0.80736
 O318 O 1.04816 0.80467 0.77126
 O319 O 0.96489 0.80869 0.76646
 O320 O 1.04114 0.74077 0.82987
 Cu321 Cu 1.01283 0.72322 0.73027
 Cu322 Cu 1.00143 0.77438 0.79968
 C323 C 1.06123 0.70878 0.81190
 C324 C 0.95382 0.79822 0.72732
 C325 C 1.06676 0.79600 0.73434
 C326 C 0.94484 0.69849 0.78310
 O327 O 0.53537 0.81188 0.25377
 O328 O 0.45404 0.75204 0.31789
 O329 O 0.53934 0.74121 0.30565
 O330 O 0.45017 0.80073 0.24451
 O331 O 0.45400 0.74852 0.19297
 O332 O 0.53233 0.68627 0.25730
 O333 O 0.44736 0.70029 0.26618
 O334 O 0.53936 0.75706 0.20503
 Cu335 Cu 0.49473 0.78116 0.28502
 Cu336 Cu 0.49319 0.71833 0.22599
 C337 C 0.55222 0.79524 0.21937
 C338 C 0.43569 0.71711 0.30347
 C339 C 0.55042 0.70267 0.29128
 C340 C 0.43764 0.78423 0.20728
 O341 O -0.04806 0.79559 0.26231
 O342 O 0.03586 0.75379 0.18596
 O343 O -0.04944 0.73847 0.19771
 O344 O 0.03840 0.79788 0.26141
 O345 O 0.04812 0.73663 0.30122
 O346 O -0.03560 0.67824 0.23766
 O347 O 0.04701 0.69528 0.22913
 O348 O -0.03934 0.73646 0.30513
 Cu349 Cu -0.00663 0.77719 0.22253
 Cu350 Cu 0.00462 0.70647 0.27283
 C351 C -0.05854 0.77315 0.29640
 C352 C 0.05668 0.71839 0.19489
 C353 C -0.05747 0.69785 0.20772
 C354 C 0.05849 0.77644 0.29201
 O355 O 0.44291 0.70600 0.71768
 O356 O 0.52931 0.76731 0.77944
 O357 O 0.44297 0.76998 0.77734
 O358 O 0.53043 0.70489 0.72055
 O359 O 0.53129 0.75538 0.66698
 O360 O 0.44669 0.82032 0.72379
 O361 O 0.53128 0.81805 0.72609
 O362 O 0.44594 0.75663 0.66437
 Cu363 Cu 0.48582 0.73175 0.75404
 Cu364 Cu 0.48883 0.79245 0.68992
 C365 C 0.42967 0.72107 0.68046
 C366 C 0.54522 0.80292 0.76289
 C367 C 0.43062 0.80674 0.76025
 C368 C 0.54623 0.71996 0.68433
 C369 C 0.39519 0.33237 0.31022
 C370 C 0.42104 0.30287 0.33089
 H371 H 0.40294 0.34217 0.27637
 H372 H 0.41466 0.29324 0.36498
 C373 C 0.36880 0.82066 0.81244
 C374 C 0.39759 0.83519 0.78186
 H375 H 0.37129 0.78659 0.82430
 H376 H 0.39627 0.86936 0.77039
 C377 C -0.12226 0.32429 0.80854
 C378 C -0.09056 0.29956 0.82674
 H379 H -0.12069 0.33116 0.77318
 H380 H -0.09147 0.29145 0.86175
 C381 C -0.12392 0.81869 0.31125
 C382 C -0.09361 0.78953 0.32590
 H383 H -0.12194 0.82969 0.27698
 H384 H -0.09461 0.77680 0.35954
 C385 C 0.61897 0.69366 0.33415
 C386 C 0.58487 0.67586 0.31250
 H387 H 0.61974 0.72936 0.33987
 H388 H 0.58418 0.64029 0.30628
 C389 C 0.62968 0.18341 0.82751
 C390 C 0.59675 0.16423 0.80505
 H391 H 0.62982 0.21942 0.83104
 H392 H 0.59645 0.12847 0.80004
 C393 C 1.13180 0.66922 0.82139
 C394 C 1.09491 0.68591 0.83875
 H395 H 1.13587 0.66936 0.78562
 H396 H 1.09101 0.68666 0.87451
 C397 C 1.12100 0.20034 0.32253
 C398 C 1.08769 0.17833 0.30330
 H399 H 1.11932 0.23634 0.32527
 H400 H 1.08953 0.14253 0.29902
 C401 C 0.63409 0.30355 0.68161
 C402 C 0.59892 0.31927 0.70262
 H403 H 0.63693 0.26782 0.67694
 H404 H 0.59584 0.35466 0.70896
 C405 C 0.61842 0.80415 0.17214
 C406 C 0.58678 0.82177 0.19721
 H407 H 0.61738 0.76866 0.16520
 H408 H 0.58741 0.85719 0.20421
 C409 C 1.11660 0.30716 0.17159
 C410 C 1.08279 0.32378 0.19453
 H411 H 1.11705 0.27169 0.16489
 H412 H 1.08194 0.35882 0.20312
 C413 C 1.12873 0.81275 0.68460
 C414 C 1.10145 0.82585 0.71719
 H415 H 1.12540 0.77896 0.67223
 H416 H 1.10347 0.85896 0.73120
 C417 C 0.36582 0.66995 0.67398
 C418 C 0.39487 0.69798 0.65507
 H419 H 0.36939 0.66254 0.70907
 H420 H 0.39198 0.70624 0.62015
 C421 C 0.38870 0.18278 0.18678
 C422 C 0.41777 0.16688 0.21647
 H423 H 0.39316 0.21660 0.17492
 H424 H 0.41411 0.13361 0.22999
 C425 C -0.12870 0.69151 0.16800
 C426 C -0.09350 0.67252 0.18686
 H427 H -0.12878 0.72712 0.16178
 H428 H -0.09369 0.63680 0.19239
 C429 C -0.11807 0.16554 0.69598
 C430 C -0.08641 0.19079 0.67807
 H431 H -0.11670 0.15848 0.73124
 H432 H -0.08732 0.19854 0.64290
 C433 C 0.33857 0.38965 0.30846
 C434 C 0.29534 0.39654 0.30601
 H435 H 0.36056 0.41212 0.29088
 H436 H 0.27269 0.37422 0.32275
 C437 C 0.31636 -0.11591 0.80157
 C438 C 0.28866 -0.08476 0.81662
 H439 H 0.32592 -0.11424 0.76694
 H440 H 0.27654 -0.08581 0.85040
 C441 C 0.81569 0.37772 0.81467
 C442 C 0.83157 0.40729 0.78507
 H443 H 0.78156 0.38051 0.82457
 H444 H 0.86510 0.40546 0.77328
 C445 C 0.81282 -0.12922 0.32138
 C446 C 0.82885 -0.09712 0.29506
 H447 H 0.77811 -0.12921 0.32959
 H448 H 0.86368 -0.09646 0.28762
 C449 C 0.30590 0.61247 0.66749
 C450 C 0.32570 0.58353 0.69487
 H451 H 0.27114 0.60818 0.66054
 H452 H 0.36024 0.58750 0.70271
 C453 C 0.33405 1.12069 0.19725
 C454 C 0.30915 1.08871 0.17884
 H455 H 0.33877 1.12082 0.23299
 H456 H 0.30370 1.08858 0.14325
 C457 C 0.81894 0.63191 0.19077
 C458 C 0.79007 0.59965 0.18076
 H459 H 0.83353 0.63239 0.22370
 H460 H 0.77533 0.59806 0.14802
 C461 C 0.81863 1.11286 0.68728
 C462 C 0.83469 1.08154 0.71450
 H463 H 0.78405 1.11168 0.67835
 H464 H 0.86920 1.08180 0.72351
 C465 C 0.66904 0.62828 0.32311
 C466 C 0.69475 0.59645 0.34048
 H467 H 0.66010 0.62642 0.28825
 H468 H 0.70409 0.59823 0.37519
 C469 C 0.68182 1.11958 0.82291
 C470 C 0.70976 1.08980 0.84063
 H471 H 0.67122 1.11480 0.78883
 H472 H 0.72136 1.09345 0.87445
 C473 C 0.19033 0.61242 0.83771
 C474 C 0.18121 0.58827 0.80135
 H475 H 0.21616 0.60034 0.85920
 H476 H 0.15407 0.59690 0.77975
 C477 C 0.17579 1.14116 0.30934
 C478 C 0.20057 1.10795 0.32508
 H479 H 0.16507 1.13973 0.27495
 H480 H 0.21156 1.10837 0.35934
 C481 C 0.68027 0.37233 0.68764
 C482 C 0.70023 0.40696 0.66782
 H483 H 0.67416 0.37369 0.72310
 H484 H 0.70601 0.40596 0.63232
 C485 C 0.67166 -0.13154 0.17854
 C486 C 0.70235 -0.10342 0.16195
 H487 H 0.66047 -0.12650 0.21236
 H488 H 0.71492 -0.10744 0.12859
 C489 C 0.16531 0.37302 0.18347
 C490 C 0.18651 0.40767 0.16549
 H491 H 0.15885 0.37274 0.21895
 H492 H 0.19322 0.40792 0.13015
 C493 C 0.17680 -0.11897 0.68726
 C494 C 0.19924 -0.08648 0.66663
 H495 H 0.17043 -0.11543 0.72248
 H496 H 0.20831 -0.08932 0.63198
 C497 C 0.33507 0.32818 0.36688
 C498 C 0.31230 0.34973 0.39816
 H499 H 0.33756 0.29216 0.36884
 H500 H 0.30919 0.38567 0.39652
 C501 C 0.31044 0.83519 -0.13112
 C502 C 0.33133 0.81721 -0.09630
 H503 H 0.27502 0.83901 -0.12989
 H504 H 0.36671 0.81321 -0.09750
 C505 C 0.82554 0.31960 -0.12662
 C506 C 0.79863 0.33939 -0.09720
 H507 H 0.83392 0.28487 -0.12164
 H508 H 0.78973 0.37404 -0.10156
 C509 C 0.82647 0.81090 0.37711
 C510 C 0.80403 0.82985 0.41033
 H511 H 0.83355 0.77556 0.37882
 H512 H 0.79599 0.86498 0.40910
 C513 C 0.69392 0.31666 0.62688
 C514 C 0.67992 0.28419 0.59939
 H515 H 0.72656 0.33059 0.62224
 H516 H 0.64724 0.27015 0.60280
 C517 C 0.67758 0.81406 1.11620
 C518 C 0.65744 0.79081 1.08432
 H519 H 0.71288 0.81897 1.11433
 H520 H 0.62249 0.78387 1.08622
 C521 C 0.18335 0.31879 1.12361
 C522 C 0.17397 0.28536 1.09549
 H523 H 0.21564 0.33415 1.12143
 H524 H 0.14247 0.26851 1.09649
 C525 C 0.18569 0.82550 0.62634
 C526 C 0.16573 0.80179 0.59449
 H527 H 0.22052 0.83286 0.62345
 H528 H 0.13076 0.79519 0.59682
 C529 C 0.30890 0.67758 0.61503
 C530 C 0.28026 0.66179 0.58470
 H531 H 0.31767 0.71264 0.61340
 H532 H 0.26926 0.62742 0.58545
 C533 C 0.32444 0.17374 1.13465
 C534 C 0.33876 0.20219 1.10341
 H535 H 0.29055 0.16246 1.13236
 H536 H 0.37175 0.21580 1.10436
 C537 C 0.80172 0.67872 1.12429
 C538 C 0.81479 0.70042 1.08787
 H539 H 0.76721 0.67002 1.12739
 H540 H 0.84879 0.71080 1.08444
 C541 C 0.82995 0.17404 0.63235
 C542 C 0.80591 0.15561 0.59987
 H543 H 0.83745 0.20939 0.63082
 H544 H 0.79799 0.12034 0.60109
 C545 C 0.68469 0.68376 0.38279
 C546 C 0.67143 0.71148 0.41491
 H547 H 0.71880 0.67337 0.38241
 H548 H 0.63773 0.72293 0.41607
 C549 C 0.68996 0.17710 -0.11686
 C550 C 0.67144 0.20635 -0.08916
 H551 H 0.72456 0.16939 -0.11311
 H552 H 0.63687 0.21429 -0.09248
 C553 C 0.18182 0.68057 -0.11379
 C554 C 0.22202 0.67774 -0.09501
 H555 H 0.16021 0.70663 -0.10210
 H556 H 0.24596 0.65401 -0.10654
 C557 C 0.18785 0.19589 0.37166
 C558 C 0.17352 0.22750 0.39965
 H559 H 0.22148 0.18448 0.37483
 H560 H 0.14018 0.23970 0.39718
 C561 C 0.32397 0.37354 0.67980
 C562 C 0.33826 0.40200 0.71103
 H563 H 0.29012 0.37588 0.66862
 H564 H 0.37174 0.40059 0.72323
 C565 C 0.32181 0.89384 0.18151
 C566 C 0.27908 0.90457 0.17949
 H567 H 0.34385 0.91594 0.19959
 H568 H 0.25563 0.88367 0.16205
 C569 C 0.81177 0.38480 0.18232
 C570 C 0.82942 0.41912 0.20459
 H571 H 0.77628 0.38162 0.18087
 H572 H 0.86482 0.42270 0.20670
 C573 C 0.83462 0.86960 0.69921
 C574 C 0.80696 0.90197 0.68668
 H575 H 0.84529 0.86844 0.73359
 H576 H 0.79613 0.90405 0.65244
 C577 C 0.68454 0.62966 0.67746
 C578 C 0.67110 0.59400 0.70032
 H579 H 0.71936 0.63283 0.67024
 H580 H 0.63682 0.59012 0.70925
 C581 C 0.68230 0.12221 0.18166
 C582 C 0.70366 0.08901 0.16184
 H583 H 0.67696 0.12015 0.21725
 H584 H 0.71069 0.09086 0.12663
 C585 C 0.18953 0.62880 0.16812
 C586 C 0.17203 0.59327 0.18846
 H587 H 0.22488 0.63038 0.16364
 H588 H 0.13683 0.59161 0.19374
 C589 C 0.18215 0.14180 0.67613
 C590 C 0.20890 0.11035 0.66011
 H591 H 0.17138 0.13859 0.71034
 H592 H 0.22156 0.11248 0.62661
 C593 C 0.30791 0.61465 0.32877
 C594 C 0.32254 0.58544 0.29892
 H595 H 0.27519 0.60944 0.34182
 H596 H 0.35590 0.58795 0.28674
 C597 C 0.32417 0.12738 0.81134
 C598 C 0.29551 0.09619 0.82455
 H599 H 0.33243 0.12899 0.77633
 H600 H 0.28525 0.09363 0.85886
 C601 C 0.81739 0.62647 0.81875
 C602 C 0.83377 0.59155 0.79711
 H603 H 0.78193 0.63048 0.81914
 H604 H 0.86895 0.58648 0.79562
 C605 C 0.82156 0.11679 0.30656
 C606 C 0.79765 0.08185 0.31965
 H607 H 0.82963 0.12004 0.27159
 H608 H 0.78848 0.07812 0.35421
 C609 C 0.68789 0.37621 0.32569
 C610 C 0.71557 0.40730 0.34191
 H611 H 0.67587 0.38022 0.29200
 H612 H 0.72958 0.40413 0.37484
 C613 C 0.66482 0.86843 0.81055
 C614 C 0.69031 0.89784 0.83223
 H615 H 0.65965 0.87288 0.77516
 H616 H 0.69636 0.89374 0.86748
 C617 C 0.17753 0.37103 0.82586
 C618 C 0.21080 0.39761 0.83898
 H619 H 0.16313 0.37740 0.79347
 H620 H 0.22762 0.39241 0.87009
 C621 C 0.16889 0.88899 0.33152
 C622 C 0.15407 0.92452 0.30936
 H623 H 0.20408 0.88469 0.33473
 H624 H 0.11911 0.92919 0.30465
 C625 C 0.38593 0.32006 0.68676
 C626 C 0.41808 0.29563 0.66916
 H627 H 0.38557 0.32490 0.72247
 H628 H 0.41897 0.28990 0.63365
 C629 C 0.37509 0.83501 0.19481
 C630 C 0.40351 0.80493 0.17963
 H631 H 0.37917 0.84765 0.22836
 H632 H 0.40047 0.79282 0.14585
 C633 C 0.87607 0.33371 0.18435
 C634 C 0.89524 0.29476 0.17423
 H635 H 0.88838 0.35146 0.21315
 H636 H 0.88378 0.27423 0.14723
 C637 C 0.88813 0.80943 0.68077
 C638 C 0.92079 0.82631 0.70548
 H639 H 0.88884 0.77441 0.67188
 H640 H 0.91994 0.86106 0.71519
 C641 C 0.63936 0.30877 0.33329
 C642 C 0.60678 0.32339 0.30710
 H643 H 0.63952 0.27374 0.34230
 H644 H 0.60548 0.35796 0.29686
 C645 C 0.60877 0.80681 0.81348
 C646 C 0.58074 0.82716 0.78571
 H647 H 0.60373 0.77175 0.82071
 H648 H 0.58520 0.86196 0.77720
 C649 C 0.12671 0.30582 0.83277
 C650 C 0.09264 0.32419 0.81162
 H651 H 0.12854 0.26982 0.83433
 H652 H 0.09047 0.36006 0.80842
 C653 C 0.10344 0.83942 0.32165
 C654 C 0.09537 0.79574 0.31709
 H655 H 0.08319 0.86303 0.30377
 H656 H 0.11665 0.77193 0.33345
 C657 C 0.61433 0.67432 0.68221
 C658 C 0.58295 0.69796 0.66144
 H659 H 0.61042 0.66609 0.71708
 H660 H 0.58691 0.70614 0.62660
 C661 C 0.63109 0.18627 0.17744
 C662 C 0.60086 0.16761 0.20383
 H663 H 0.62995 0.22198 0.17186
 H664 H 0.60170 0.13225 0.21113
 C665 C 0.12545 0.67853 0.18025
 C666 C 0.09305 0.70492 0.16558
 H667 H 0.12374 0.66617 0.21411
 H668 H 0.09392 0.71852 0.13225
 C669 C 0.12928 0.20412 0.66737
 C670 C 0.09685 0.18395 0.68988
 H671 H 0.12854 0.24007 0.66356
 H672 H 0.09749 0.14802 0.69438
 C673 C 0.37004 0.66912 0.31627
 C674 C 0.40080 0.69735 0.33145
 H675 H 0.37143 0.65974 0.28156
 H676 H 0.39978 0.70867 0.36549
 C677 C 0.38282 0.18309 0.82665
 C678 C 0.41100 0.16620 0.79673
 H679 H 0.38833 0.21668 0.83868
 H680 H 0.40650 0.13284 0.78374
 C681 C 0.88811 0.67175 0.83441
 C682 C 0.90458 0.67280 0.79332
 H683 H 0.90685 0.68795 0.86064
 H684 H 0.88694 0.65768 0.76589
 C685 C 0.87387 0.17802 0.32380
 C686 C 0.90501 0.16326 0.29616
 H687 H 0.87508 0.21235 0.33496
 H688 H 0.90436 0.12913 0.28443
 C689 C 0.33769 0.31986 0.61852
 C690 C 0.31406 0.34263 0.58836
 H691 H 0.34418 0.28481 0.61285
 H692 H 0.30755 0.37769 0.59369
 C693 C 0.32092 0.82370 0.13296
 C694 C 0.30269 0.83999 0.09578
 H695 H 0.32477 0.78785 0.13572
 H696 H 0.29754 0.87549 0.09208
 C697 C 0.82447 0.33325 0.11805
 C698 C 0.78926 0.34782 0.09555
 H699 H 0.84232 0.30612 0.10332
 H700 H 0.77111 0.37663 0.10669
 C701 C 0.82214 0.82178 0.63240
 C702 C 0.83645 0.79727 0.59817
 H703 H 0.78775 0.83112 0.63310
 H704 H 0.87035 0.78649 0.59670
 C705 C 0.32030 0.67635 0.38301
 C706 C 0.27777 0.68484 0.39054
 H707 H 0.34449 0.68703 0.40727
 H708 H 0.25329 0.67466 0.36638
 C709 C 0.32012 0.17329 0.88034
 C710 C 0.33717 0.19936 0.91231
 H711 H 0.28590 0.16351 0.88348
 H712 H 0.37047 0.21201 0.91035
 C713 C 0.82363 0.68055 0.88071
 C714 C 0.79211 0.66202 0.90547
 H715 H 0.83471 0.71422 0.88806
 H716 H 0.78201 0.62780 0.89970
 C717 C 0.81152 0.16187 0.37578
 C718 C 0.82797 0.18595 0.40950
 H719 H 0.77726 0.15171 0.37694
 H720 H 0.86197 0.19686 0.40899
 C721 C 0.69976 0.32142 0.38760
 C722 C 0.68180 0.29553 0.41892
 H723 H 0.73478 0.32831 0.38862
 H724 H 0.64688 0.28819 0.41788
 C725 C 0.67205 0.80849 0.86718
 C726 C 0.65593 0.77850 0.89625
 H727 H 0.70626 0.81834 0.87061
 H728 H 0.62236 0.76661 0.89394
 C729 C 0.18239 0.32010 0.89296
 C730 C 0.18263 0.27821 0.90860
 H731 H 0.19936 0.34503 0.91239
 H732 H 0.16514 0.25165 0.89197
 C733 C 0.15095 0.82996 0.38858
 C734 C 0.18863 0.83533 0.41115
 H735 H 0.12857 0.80400 0.39965
 H736 H 0.21117 0.86213 0.40324
 C737 C 0.67146 0.69169 0.62515
 C738 C 0.69952 0.67704 0.59427
 H739 H 0.66133 0.72632 0.62455
 H740 H 0.70935 0.64237 0.59395
 C741 C 0.69039 0.17924 0.12053
 C742 C 0.67294 0.21017 0.09339
 H743 H 0.72412 0.16896 0.11533
 H744 H 0.63907 0.22024 0.09762
 C745 C 0.17831 0.69460 0.11802
 C746 C 0.20752 0.68048 0.08805
 H747 H 0.16760 0.72900 0.11679
 H748 H 0.21900 0.64638 0.08912
 C749 C 0.19204 0.19720 0.61378
 C750 C 0.17565 0.22726 0.58516
 H751 H 0.22594 0.18691 0.60994
 H752 H 0.14211 0.23857 0.58856
   
