data_POSCAR
  _audit_creation_date              2014-09-24
  _audit_creation_method            'ToBaCCo'
  _symmetry_space_group_name_H-M    'P1'
  _symmetry_Int_Tables_number       1
  _symmetry_cell_setting            triclinic
  loop_
  _symmetry_equiv_pos_as_xyz
 x,y,z
_cell_length_a 44.5881
_cell_length_b 44.8738
_cell_length_c 44.3790
_cell_angle_alpha 88.181800
_cell_angle_beta 88.314100
_cell_angle_gamma 83.091100
loop_
  _atom_site_label
  _atom_site_type_symbol
  _atom_site_fract_x
  _atom_site_fract_y
  _atom_site_fract_z
C1 C 0.27173 0.21078 0.21948
 C2 C 0.25766 0.20029 0.24570
 C3 C 0.23137 0.21599 0.25694
 C4 C 0.21890 0.24248 0.24223
 C5 C 0.23278 0.25295 0.21638
 C6 C 0.25949 0.23700 0.20496
 C7 C 0.29776 0.20036 0.20387
 N8 N 0.30174 0.21964 0.18027
 C9 C 0.27845 0.24217 0.18081
 C10 C 0.21604 0.27945 0.20753
 N11 N 0.19250 0.28529 0.22750
 C12 C 0.19412 0.26271 0.24873
 C13 C 0.22320 0.20119 0.28295
 N14 N 0.24400 0.17693 0.28785
 C15 C 0.26515 0.17622 0.26512
 H16 H 0.31304 0.18052 0.20965
 H17 H 0.27542 0.26087 0.16473
 H18 H 0.22110 0.29377 0.18843
 H19 H 0.17839 0.26103 0.26758
 H20 H 0.20400 0.20808 0.29767
 H21 H 0.28462 0.15945 0.26285
 C22 C 0.70015 -0.21184 0.23234
 C23 C 0.71503 -0.20094 0.25637
 C24 C 0.74086 -0.21724 0.26744
 C25 C 0.75215 -0.24468 0.25468
 C26 C 0.73757 -0.25532 0.23101
 C27 C 0.71118 -0.23892 0.21994
 C28 C 0.67453 -0.20092 0.21709
 N29 N 0.66934 -0.22082 0.19575
 C30 C 0.69194 -0.24417 0.19757
 C31 C 0.75373 -0.28208 0.22295
 N32 N 0.77790 -0.28827 0.24128
 C33 C 0.77678 -0.26524 0.26084
 C34 C 0.75032 -0.20149 0.29078
 N35 N 0.73082 -0.17602 0.29423
 C36 C 0.70917 -0.17556 0.27320
 H37 H 0.66035 -0.18032 0.22218
 H38 H 0.69499 -0.26344 0.18329
 H39 H 0.74754 -0.29613 0.20537
 H40 H 0.79308 -0.26269 0.27784
 H41 H 0.76966 -0.20843 0.30460
 H42 H 0.69058 -0.15796 0.27015
 C43 C 0.72913 0.26233 0.73576
 C44 C 0.74115 0.24680 0.71040
 C45 C 0.76466 0.25708 0.69363
 C46 C 0.77625 0.28332 0.70191
 C47 C 0.76417 0.29865 0.72674
 C48 C 0.74037 0.28816 0.74374
 C49 C 0.70687 0.25699 0.75662
 N50 N 0.70404 0.27908 0.77733
 C51 C 0.72461 0.29830 0.76926
 C52 C 0.78003 0.32270 0.72986
 N53 N 0.80186 0.32265 0.70757
 C54 C 0.79933 0.29841 0.69031
 C55 C 0.77181 0.23738 0.67058
 N56 N 0.75300 0.21566 0.67289
 C57 C 0.73424 0.22126 0.69725
 H58 H 0.69346 0.23850 0.75600
 H59 H 0.72888 0.31779 0.78143
 H60 H 0.77538 0.33889 0.74739
 H61 H 0.81355 0.29131 0.67111
 H62 H 0.78901 0.23906 0.65308
 H63 H 0.71694 0.20763 0.70498
 C64 C 0.26367 -0.26268 0.75831
 C65 C 0.25404 -0.24720 0.73171
 C66 C 0.23322 -0.25845 0.71414
 C67 C 0.22202 -0.28536 0.72264
 C68 C 0.23132 -0.30063 0.74883
 C69 C 0.25259 -0.28925 0.76680
 C70 C 0.28334 -0.25671 0.77993
 N71 N 0.28495 -0.27907 0.80162
 C72 C 0.26604 -0.29909 0.79347
 C73 C 0.21568 -0.32534 0.75163
 N74 N 0.19720 -0.32554 0.72759
 C75 C 0.20131 -0.30095 0.70982
 C76 C 0.22729 -0.23867 0.69023
 N77 N 0.24414 -0.21566 0.69272
 C78 C 0.26070 -0.22071 0.71800
 H79 H 0.29613 -0.23770 0.77900
 H80 H 0.26152 -0.31912 0.80613
 H81 H 0.21814 -0.34197 0.76983
 H82 H 0.18924 -0.29372 0.68959
 H83 H 0.21198 -0.24096 0.67218
 H84 H 0.27602 -0.20595 0.72609
 C85 C 0.70633 -0.20764 0.77020
 C86 C 0.72210 -0.19710 0.74500
 C87 C 0.74965 -0.21215 0.73600
 C88 C 0.76185 -0.23798 0.75221
 C89 C 0.74628 -0.24826 0.77695
 C90 C 0.71820 -0.23319 0.78581
 C91 C 0.67892 -0.19789 0.78379
 N92 N 0.67352 -0.21713 0.80723
 C93 C 0.69773 -0.23882 0.80840
 C94 C 0.76313 -0.27361 0.78813
 N95 N 0.78887 -0.27940 0.77081
 C96 C 0.78796 -0.25744 0.74866
 C97 C 0.75924 -0.19736 0.71046
 N98 N 0.73813 -0.17377 0.70370
 C99 C 0.71541 -0.17349 0.72487
 H100 H 0.66372 -0.17870 0.77617
 H101 H 0.70096 -0.25713 0.82486
 H102 H 0.75623 -0.28711 0.80710
 H103 H 0.80509 -0.25500 0.73132
 H104 H 0.77969 -0.20386 0.69734
 H105 H 0.69538 -0.15729 0.72568
 C106 C 0.27172 0.20527 0.77643
 C107 C 0.25630 0.19474 0.75267
 C108 C 0.22826 0.20895 0.74486
 C109 C 0.21525 0.23398 0.76085
 C110 C 0.23062 0.24449 0.78417
 C111 C 0.25919 0.23016 0.79181
 C112 C 0.29958 0.19626 0.78825
 N113 N 0.30468 0.21528 0.81040
 C114 C 0.27986 0.23618 0.81252
 C115 C 0.21320 0.26951 0.79488
 N116 N 0.18762 0.27452 0.77863
 C117 C 0.18876 0.25283 0.75775
 C118 C 0.21940 0.19473 0.72014
 N119 N 0.24150 0.17236 0.71272
 C120 C 0.26407 0.17220 0.73266
 H121 H 0.31534 0.17784 0.78016
 H122 H 0.27643 0.25419 0.82834
 H123 H 0.21920 0.28355 0.81261
 H124 H 0.17163 0.25086 0.74139
 H125 H 0.19885 0.20091 0.70786
 H126 H 0.28481 0.15694 0.73256
 C127 C 0.25967 -0.25883 0.26292
 C128 C 0.24995 -0.24408 0.28951
 C129 C 0.22723 -0.25442 0.30736
 C130 C 0.21408 -0.27966 0.29904
 C131 C 0.22357 -0.29408 0.27286
 C132 C 0.24676 -0.28374 0.25478
 C133 C 0.28086 -0.25350 0.24089
 N134 N 0.28153 -0.27477 0.21946
 C135 C 0.26054 -0.29335 0.22810
 C136 C 0.20606 -0.31701 0.26995
 N137 N 0.18609 -0.31709 0.29388
 C138 C 0.19120 -0.29417 0.31180
 C139 C 0.22171 -0.23548 0.33113
 N140 N 0.24059 -0.21389 0.32827
 C141 C 0.25804 -0.21903 0.30289
 H142 H 0.29523 -0.23576 0.24128
 H143 H 0.25473 -0.31209 0.21566
 H144 H 0.20838 -0.33266 0.25176
 H145 H 0.17853 -0.28737 0.33209
 H146 H 0.20520 -0.23734 0.34926
 H147 H 0.27486 -0.20518 0.29440
 C148 C 0.72325 0.26372 0.23317
 C149 C 0.73567 0.24963 0.25937
 C150 C 0.76009 0.26016 0.27244
 C151 C 0.77221 0.28531 0.25950
 C152 C 0.75995 0.29888 0.23359
 C153 C 0.73532 0.28823 0.22049
 C154 C 0.69974 0.25831 0.21542
 N155 N 0.69727 0.27917 0.19244
 C156 C 0.71902 0.29753 0.19543
 C157 C 0.77606 0.32208 0.22547
 N158 N 0.79808 0.32353 0.24584
 C159 C 0.79562 0.30104 0.26696
 C160 C 0.76754 0.24167 0.29721
 N161 N 0.74808 0.22051 0.29948
 C162 C 0.72855 0.22529 0.27644
 H163 H 0.68529 0.24074 0.21917
 H164 H 0.72299 0.31607 0.18022
 H165 H 0.77109 0.33733 0.20643
 H166 H 0.81023 0.29569 0.28590
 H167 H 0.78559 0.24359 0.31256
 H168 H 0.71074 0.21171 0.27212
 O169 O 0.32406 0.01358 0.47163
 O170 O 0.32408 -0.04369 0.53288
 O171 O 0.32375 -0.04443 0.47422
 O172 O 0.32333 0.01438 0.53055
 O173 O 0.27349 0.01996 0.53167
 O174 O 0.27390 -0.03844 0.47554
 O175 O 0.27423 -0.03798 0.53380
 O176 O 0.27422 0.01941 0.47284
 Cu177 Cu 0.32882 -0.01553 0.50219
 Cu178 Cu 0.26897 -0.00857 0.50356
 C179 C 0.29914 0.02614 0.46158
 C180 C 0.29912 -0.05073 0.54374
 C181 C 0.29878 -0.05156 0.46535
 C182 C 0.29828 0.02700 0.54099
 O183 O 0.77577 0.03682 0.51816
 O184 O 0.77208 -0.02024 0.46110
 O185 O 0.77327 -0.02083 0.51998
 O186 O 0.77484 0.03753 0.45990
 O187 O 0.82463 0.02946 0.45766
 O188 O 0.82305 -0.02871 0.51809
 O189 O 0.82184 -0.02847 0.45910
 O190 O 0.82557 0.02909 0.51592
 Cu191 Cu 0.76902 0.00898 0.48996
 Cu192 Cu 0.82876 -0.00064 0.48744
 C193 C 0.80125 0.04302 0.52655
 C194 C 0.79631 -0.03410 0.45024
 C195 C 0.79790 -0.03457 0.52957
 C196 C 0.80000 0.04382 0.44879
 O197 O 0.48302 0.27693 0.01729
 O198 O 0.54151 0.26992 -0.04320
 O199 O 0.48239 0.27687 -0.04073
 O200 O 0.54172 0.26916 0.01591
 O201 O 0.54155 0.22001 0.01722
 O202 O 0.48268 0.22763 -0.03968
 O203 O 0.54131 0.22078 -0.04185
 O204 O 0.48275 0.22778 0.01855
 Cu205 Cu 0.51244 0.27814 -0.01289
 Cu206 Cu 0.51226 0.21910 -0.01131
 C207 C 0.47257 0.25358 0.02800
 C208 C 0.55119 0.24420 -0.05312
 C209 C 0.47207 0.25353 -0.04953
 C210 C 0.55145 0.24332 0.02662
 O211 O 0.49941 0.72371 0.03447
 O212 O 0.44045 0.73078 -0.02264
 O213 O 0.49954 0.72389 -0.02371
 O214 O 0.44047 0.73157 0.03643
 O215 O 0.44117 0.78065 0.03469
 O216 O 0.49955 0.77308 -0.02572
 O217 O 0.44084 0.77989 -0.02439
 O218 O 0.49983 0.77286 0.03275
 Cu219 Cu 0.46972 0.72258 0.00630
 Cu220 Cu 0.47019 0.78155 0.00414
 C221 C 0.50993 0.74700 0.04317
 C222 C 0.43081 0.75653 -0.03358
 C223 C 0.50987 0.74719 -0.03476
 C224 C 0.43109 0.75745 0.04620
 O225 O 0.02180 0.47090 0.30535
 O226 O -0.03736 0.53525 0.30693
 O227 O -0.03667 0.47664 0.31040
 O228 O 0.02137 0.52881 0.30066
 O229 O 0.01784 0.52708 0.25128
 O230 O -0.03986 0.47573 0.26095
 O231 O -0.04105 0.53393 0.25755
 O232 O 0.01867 0.46936 0.25591
 Cu233 Cu -0.00749 0.50315 0.31080
 Cu234 Cu -0.01156 0.50148 0.25149
 C235 C 0.03043 0.45909 0.28045
 C236 C -0.04930 0.54571 0.28259
 C237 C -0.04792 0.46701 0.28711
 C238 C 0.02978 0.53651 0.27420
 O239 O 0.02865 0.52452 0.72315
 O240 O -0.03796 0.48288 0.71750
 O241 O -0.02921 0.53954 0.71771
 O242 O 0.02013 0.46846 0.71791
 O243 O 0.01666 0.46497 0.76756
 O244 O -0.03365 0.53715 0.76735
 O245 O -0.04166 0.48086 0.76721
 O246 O 0.02436 0.52106 0.77275
 Cu247 Cu -0.00422 0.50419 0.71414
 Cu248 Cu -0.00896 0.50073 0.77365
 C249 C 0.03790 0.52971 0.74915
 C250 C -0.05117 0.47486 0.74173
 C251 C -0.03998 0.55060 0.74222
 C252 C 0.02694 0.45445 0.74248
 C253 C 0.33828 0.24247 0.14660
 C254 C 0.36290 0.23971 0.12602
 C255 C 0.37590 0.21087 0.11724
 C256 C 0.36421 0.18532 0.12936
 C257 C 0.33989 0.18827 0.15002
 C258 C 0.32666 0.21680 0.15878
 C259 C 0.40035 0.20802 0.09651
 C260 C 0.41208 0.23363 0.08453
 C261 C 0.39930 0.26246 0.09355
 C262 C 0.37477 0.26532 0.11420
 C263 C 0.41119 0.28797 0.08161
 C264 C 0.43529 0.28503 0.06066
 C265 C 0.44796 0.25651 0.05124
 C266 C 0.43629 0.23086 0.06349
 H267 H 0.32850 0.26454 0.15356
 H268 H 0.37387 0.16306 0.12287
 H269 H 0.33112 0.16821 0.15890
 H270 H 0.41020 0.18589 0.08968
 H271 H 0.36490 0.28744 0.12101
 H272 H 0.40172 0.31023 0.08831
 H273 H 0.44379 0.30517 0.05160
 H274 H 0.44584 0.20873 0.05646
 C275 C 0.63824 0.75706 0.16058
 C276 C 0.61407 0.75993 0.14069
 C277 C 0.59719 0.78825 0.13563
 C278 C 0.60442 0.81309 0.15098
 C279 C 0.62817 0.81004 0.17111
 C280 C 0.64574 0.78204 0.17619
 C281 C 0.57334 0.79128 0.11539
 C282 C 0.56587 0.76619 0.10042
 C283 C 0.58236 0.73771 0.10599
 C284 C 0.60644 0.73479 0.12592
 C285 C 0.57450 0.71258 0.09147
 C286 C 0.55068 0.71561 0.07143
 C287 C 0.53443 0.74388 0.06528
 C288 C 0.54215 0.76911 0.07997
 H289 H 0.65043 0.73502 0.16441
 H290 H 0.59171 0.83500 0.14737
 H291 H 0.63314 0.83007 0.18188
 H292 H 0.56055 0.81310 0.11135
 H293 H 0.61920 0.71295 0.12997
 H294 H 0.58683 0.69057 0.09554
 H295 H 0.54527 0.69583 0.06037
 H296 H 0.52967 0.79100 0.07558
 C297 C 0.66952 0.25667 -0.18788
 C298 C 0.64947 0.25892 -0.16285
 C299 C 0.64356 0.28633 -0.14780
 C300 C 0.65818 0.31088 -0.15774
 C301 C 0.67842 0.30842 -0.18242
 C302 C 0.68437 0.28136 -0.19816
 C303 C 0.62315 0.28877 -0.12306
 C304 C 0.60879 0.26398 -0.11299
 C305 C 0.61516 0.23637 -0.12773
 C306 C 0.63535 0.23405 -0.15261
 C307 C 0.60112 0.21152 -0.11741
 C308 C 0.58072 0.21402 -0.09289
 C309 C 0.57379 0.24147 -0.07832
 C310 C 0.58808 0.26637 -0.08847
 H311 H 0.67401 0.23524 -0.19859
 H312 H 0.65390 0.33210 -0.14647
 H313 H 0.68858 0.32824 -0.18950
 H314 H 0.61846 0.30992 -0.11165
 H315 H 0.64003 0.21290 -0.16401
 H316 H 0.60581 0.19017 -0.12839
 H317 H 0.57002 0.19451 -0.08559
 H318 H 0.58307 0.28763 -0.07736
 C319 C 0.31613 0.74396 -0.16398
 C320 C 0.33501 0.74180 -0.13905
 C321 C 0.34094 0.71419 -0.12295
 C322 C 0.32729 0.68941 -0.13165
 C323 C 0.30830 0.69174 -0.15636
 C324 C 0.30266 0.71892 -0.17334
 C325 C 0.36054 0.71178 -0.09854
 C326 C 0.37416 0.73675 -0.08997
 C327 C 0.36763 0.76456 -0.10570
 C328 C 0.34815 0.76690 -0.13013
 C329 C 0.38095 0.78956 -0.09695
 C330 C 0.40097 0.78699 -0.07314
 C331 C 0.40820 0.75935 -0.05767
 C332 C 0.39445 0.73432 -0.06610
 H333 H 0.31167 0.76554 -0.17552
 H334 H 0.33152 0.66805 -0.11951
 H335 H 0.29900 0.67172 -0.16253
 H336 H 0.36533 0.69047 -0.08637
 H337 H 0.34343 0.78819 -0.14235
 H338 H 0.37609 0.81106 -0.10870
 H339 H 0.41120 0.80663 -0.06718
 H340 H 0.39970 0.71289 -0.05429
 C341 C 0.15716 0.32281 0.25403
 C342 C 0.13489 0.34766 0.25378
 C343 C 0.12526 0.36130 0.22601
 C344 C 0.13837 0.34993 0.19896
 C345 C 0.16065 0.32517 0.19943
 C346 C 0.17009 0.31125 0.22693
 C347 C 0.10268 0.38598 0.22576
 C348 C 0.08975 0.39722 0.25297
 C349 C 0.09969 0.38367 0.28071
 C350 C 0.12213 0.35899 0.28093
 C351 C 0.08699 0.39501 0.30785
 C352 C 0.06458 0.41954 0.30763
 C353 C 0.05431 0.43316 0.28026
 C354 C 0.06705 0.42182 0.25293
 H355 H 0.16466 0.31263 0.27539
 H356 H 0.13130 0.36009 0.17745
 H357 H 0.17010 0.31653 0.17826
 H358 H 0.09519 0.39640 0.20446
 H359 H 0.12963 0.34856 0.30223
 H360 H 0.09437 0.38490 0.32929
 H361 H 0.05517 0.42775 0.32900
 H362 H 0.05943 0.43219 0.23167
 C363 C 0.16831 0.63464 0.74579
 C364 C 0.14609 0.61566 0.74110
 C365 C 0.13295 0.61540 0.71254
 C366 C 0.14249 0.63381 0.68907
 C367 C 0.16415 0.65300 0.69396
 C368 C 0.17720 0.65421 0.72251
 C369 C 0.11008 0.59720 0.70803
 C370 C 0.09966 0.57970 0.73196
 C371 C 0.11290 0.57987 0.76052
 C372 C 0.13621 0.59757 0.76483
 C373 C 0.10217 0.56278 0.78455
 C374 C 0.07810 0.54624 0.78056
 C375 C 0.06444 0.54615 0.75239
 C376 C 0.07570 0.56260 0.72799
 H377 H 0.17737 0.63500 0.76808
 H378 H 0.13290 0.63368 0.66692
 H379 H 0.17082 0.66652 0.67493
 H380 H 0.09992 0.59719 0.68611
 H381 H 0.14617 0.59778 0.78682
 H382 H 0.11208 0.56259 0.80657
 H383 H 0.07003 0.53361 0.79970
 H384 H 0.06530 0.56280 0.70620
 C385 C -0.18068 0.67960 0.26419
 C386 C -0.15857 0.65457 0.26299
 C387 C -0.15566 0.63666 0.23725
 C388 C -0.17525 0.64383 0.21334
 C389 C -0.19747 0.66854 0.21478
 C390 C -0.20054 0.68711 0.24011
 C391 C -0.13330 0.61183 0.23586
 C392 C -0.11406 0.60446 0.26015
 C393 C -0.11736 0.62212 0.28614
 C394 C -0.13944 0.64713 0.28733
 C395 C -0.09855 0.61443 0.31061
 C396 C -0.07663 0.58949 0.30941
 C397 C -0.07284 0.57192 0.28359
 C398 C -0.09166 0.57962 0.25895
 H399 H -0.18271 0.69255 0.28442
 H400 H -0.17335 0.63034 0.19339
 H401 H -0.21154 0.67336 0.19541
 H402 H -0.13099 0.59820 0.21599
 H403 H -0.14179 0.66073 0.30723
 H404 H -0.10081 0.62768 0.33073
 H405 H -0.06239 0.58413 0.32866
 H406 H -0.08910 0.56612 0.23900
 C407 C -0.17425 0.36435 0.72577
 C408 C -0.15199 0.38389 0.72287
 C409 C -0.13203 0.38245 0.69756
 C410 C -0.13501 0.36161 0.67535
 C411 C -0.15711 0.34198 0.67844
 C412 C -0.17706 0.34267 0.70389
 C413 C -0.10916 0.40149 0.69517
 C414 C -0.10574 0.42155 0.71816
 C415 C -0.12597 0.42299 0.74339
 C416 C -0.14908 0.40444 0.74541
 C417 C -0.12237 0.44247 0.76667
 C418 C -0.09838 0.45971 0.76554
 C419 C -0.07777 0.45824 0.74090
 C420 C -0.08193 0.43956 0.71687
 H421 H -0.18858 0.36584 0.74581
 H422 H -0.12003 0.36027 0.65563
 H423 H -0.15833 0.32650 0.66053
 H424 H -0.09368 0.40022 0.67581
 H425 H -0.16440 0.40552 0.76491
 H426 H -0.13772 0.44387 0.78610
 H427 H -0.09576 0.47409 0.78420
 H428 H -0.06601 0.43814 0.69789
 C429 C 0.27150 0.14267 0.32505
 C430 C 0.27167 0.12269 0.35002
 C431 C 0.24400 0.11591 0.36332
 C432 C 0.21667 0.12936 0.35152
 C433 C 0.21672 0.14936 0.32677
 C434 C 0.24407 0.15616 0.31326
 C435 C 0.24409 0.09582 0.38818
 C436 C 0.27150 0.08245 0.39994
 C437 C 0.29917 0.08939 0.38676
 C438 C 0.29909 0.10946 0.36189
 C439 C 0.32650 0.07601 0.39863
 C440 C 0.32647 0.05572 0.42315
 C441 C 0.29910 0.04844 0.43628
 C442 C 0.27166 0.06209 0.42459
 H443 H 0.29272 0.14812 0.31511
 H444 H 0.19525 0.12440 0.36142
 H445 H 0.19532 0.15925 0.31791
 H446 H 0.22285 0.09055 0.39831
 H447 H 0.32032 0.11471 0.35174
 H448 H 0.34791 0.08111 0.38884
 H449 H 0.34793 0.04555 0.43168
 H450 H 0.25038 0.05670 0.43448
 C451 C 0.77927 0.17722 0.63954
 C452 C 0.77862 0.15309 0.62025
 C453 C 0.75064 0.14313 0.61378
 C454 C 0.72390 0.15724 0.62689
 C455 C 0.72479 0.18097 0.64627
 C456 C 0.75239 0.19123 0.65275
 C457 C 0.74980 0.11925 0.59434
 C458 C 0.77659 0.10501 0.58138
 C459 C 0.80463 0.11466 0.58810
 C460 C 0.80547 0.13869 0.60744
 C461 C 0.83135 0.10016 0.57523
 C462 C 0.83029 0.07657 0.55561
 C463 C 0.80250 0.06707 0.54843
 C464 C 0.77573 0.08135 0.56163
 H465 H 0.80067 0.18477 0.64471
 H466 H 0.70227 0.14991 0.62216
 H467 H 0.70379 0.19164 0.65593
 H468 H 0.72830 0.11177 0.58928
 H469 H 0.82697 0.14618 0.61249
 H470 H 0.85304 0.10719 0.58017
 H471 H 0.85126 0.06600 0.54574
 H472 H 0.75413 0.07424 0.55639
 C473 C 0.27105 -0.17797 0.66489
 C474 C 0.27132 -0.15431 0.64344
 C475 C 0.24417 -0.14251 0.62942
 C476 C 0.21728 -0.15452 0.63707
 C477 C 0.21734 -0.17835 0.65804
 C478 C 0.24416 -0.19036 0.67202
 C479 C 0.24435 -0.11921 0.60769
 C480 C 0.27142 -0.10783 0.59937
 C481 C 0.29862 -0.11964 0.61325
 C482 C 0.29836 -0.14265 0.63539
 C483 C 0.32567 -0.10843 0.60448
 C484 C 0.32585 -0.08596 0.58196
 C485 C 0.29893 -0.07412 0.56798
 C486 C 0.27174 -0.08508 0.57702
 H487 H 0.29187 -0.18737 0.67535
 H488 H 0.19628 -0.14572 0.62659
 H489 H 0.19632 -0.18735 0.66350
 H490 H 0.22351 -0.11022 0.59694
 H491 H 0.31923 -0.15175 0.64601
 H492 H 0.34674 -0.11720 0.61486
 H493 H 0.34710 -0.07785 0.57547
 H494 H 0.25083 -0.07625 0.56635
 C495 C 0.76061 -0.14852 0.32780
 C496 C 0.76228 -0.12697 0.34977
 C497 C 0.73549 -0.11031 0.36081
 C498 C 0.70754 -0.11544 0.34963
 C499 C 0.70609 -0.13689 0.32775
 C500 C 0.73252 -0.15370 0.31662
 C501 C 0.73703 -0.08883 0.38283
 C502 C 0.76505 -0.08371 0.39393
 C503 C 0.79186 -0.10026 0.38283
 C504 C 0.79031 -0.12180 0.36084
 C505 C 0.81981 -0.09498 0.39392
 C506 C 0.82123 -0.07350 0.41580
 C507 C 0.79473 -0.05692 0.42707
 C508 C 0.76666 -0.06222 0.41597
 H509 H 0.78119 -0.16099 0.31915
 H510 H 0.68678 -0.10294 0.35788
 H511 H 0.68416 -0.14066 0.31989
 H512 H 0.71645 -0.07611 0.39130
 H513 H 0.81090 -0.13452 0.35236
 H514 H 0.84059 -0.10745 0.38566
 H515 H 0.84314 -0.06991 0.42392
 H516 H 0.74603 -0.04959 0.42439
 C517 C 0.64142 0.75986 -0.15602
 C518 C 0.61602 0.76194 -0.13642
 C519 C 0.59738 0.78955 -0.13393
 C520 C 0.60399 0.81437 -0.15171
 C521 C 0.62899 0.81204 -0.17158
 C522 C 0.64845 0.78489 -0.17386
 C523 C 0.57250 0.79192 -0.11368
 C524 C 0.56580 0.76688 -0.09615
 C525 C 0.58392 0.73900 -0.09933
 C526 C 0.60899 0.73674 -0.11931
 C527 C 0.57678 0.71386 -0.08226
 C528 C 0.55223 0.71640 -0.06183
 C529 C 0.53456 0.74418 -0.05786
 C530 C 0.54137 0.76931 -0.07534
 H531 H 0.65507 0.73835 -0.15781
 H532 H 0.58988 0.83571 -0.15013
 H533 H 0.63347 0.83204 -0.18426
 H534 H 0.55842 0.81325 -0.11151
 H535 H 0.62309 0.71542 -0.12144
 H536 H 0.59033 0.69229 -0.08452
 H537 H 0.54749 0.69673 -0.04860
 H538 H 0.52774 0.79081 -0.07265
 C539 C 0.33712 0.23890 -0.15716
 C540 C 0.36323 0.23734 -0.14001
 C541 C 0.38256 0.21007 -0.13764
 C542 C 0.37592 0.18509 -0.15312
 C543 C 0.35027 0.18695 -0.17066
 C544 C 0.33019 0.21375 -0.17278
 C545 C 0.40818 0.20815 -0.11980
 C546 C 0.41495 0.23333 -0.10460
 C547 C 0.39617 0.26091 -0.10772
 C548 C 0.37033 0.26271 -0.12527
 C549 C 0.40342 0.28618 -0.09298
 C550 C 0.42867 0.28398 -0.07477
 C551 C 0.44693 0.25643 -0.07077
 C552 C 0.44008 0.23125 -0.08606
 H553 H 0.32286 0.26012 -0.15896
 H554 H 0.39054 0.16401 -0.15157
 H555 H 0.34581 0.16683 -0.18161
 H556 H 0.42277 0.18707 -0.11767
 H557 H 0.35572 0.28378 -0.12734
 H558 H 0.38938 0.30754 -0.09525
 H559 H 0.43345 0.30369 -0.06317
 H560 H 0.45416 0.20994 -0.08333
 C561 C 0.31534 0.74713 0.18355
 C562 C 0.33443 0.74467 0.15780
 C563 C 0.33884 0.71747 0.14223
 C564 C 0.32356 0.69342 0.15231
 C565 C 0.30425 0.69611 0.17770
 C566 C 0.29997 0.72288 0.19406
 C567 C 0.35849 0.71473 0.11690
 C568 C 0.37357 0.73901 0.10676
 C569 C 0.36857 0.76648 0.12193
 C570 C 0.34915 0.76910 0.14739
 C571 C 0.38325 0.79086 0.11150
 C572 C 0.40306 0.78800 0.08653
 C573 C 0.40876 0.76064 0.07161
 C574 C 0.39372 0.73624 0.08178
 H575 H 0.31203 0.76837 0.19474
 H576 H 0.32665 0.67238 0.14063
 H577 H 0.29359 0.67661 0.18488
 H578 H 0.36209 0.69371 0.10516
 H579 H 0.34559 0.79011 0.15916
 H580 H 0.37959 0.81211 0.12279
 H581 H 0.41436 0.80714 0.07923
 H582 H 0.39778 0.71506 0.07038
 C583 C 0.66559 0.25578 0.15739
 C584 C 0.64521 0.25818 0.13366
 C585 C 0.63439 0.28685 0.12148
 C586 C 0.64414 0.31256 0.13317
 C587 C 0.66461 0.30995 0.15656
 C588 C 0.67557 0.28162 0.16885
 C589 C 0.61408 0.28939 0.09777
 C590 C 0.60449 0.26362 0.08595
 C591 C 0.61538 0.23494 0.09799
 C592 C 0.63565 0.23239 0.12179
 C593 C 0.60571 0.20927 0.08606
 C594 C 0.58522 0.21199 0.06262
 C595 C 0.57407 0.24042 0.05062
 C596 C 0.58401 0.26616 0.06236
 H597 H 0.67420 0.23383 0.16649
 H598 H 0.63603 0.33470 0.12416
 H599 H 0.67169 0.33017 0.16527
 H600 H 0.60576 0.31140 0.08851
 H601 H 0.64398 0.21038 0.13105
 H602 H 0.61384 0.18710 0.09498
 H603 H 0.57795 0.19178 0.05403
 H604 H 0.57557 0.28823 0.05338
 C605 C -0.16631 0.68964 0.75221
 C606 C -0.14429 0.66473 0.75577
 C607 C -0.14418 0.64666 0.78240
 C608 C -0.16597 0.65395 0.80512
 C609 C -0.18802 0.67856 0.80137
 C610 C -0.18887 0.69684 0.77476
 C611 C -0.12257 0.62136 0.78572
 C612 C -0.10136 0.61360 0.76243
 C613 C -0.10149 0.63179 0.73579
 C614 C -0.12273 0.65733 0.73274
 C615 C -0.08072 0.62382 0.71230
 C616 C -0.06048 0.59770 0.71480
 C617 C -0.06029 0.57919 0.74099
 C618 C -0.08051 0.58757 0.76500
 H619 H -0.16617 0.70255 0.73126
 H620 H -0.16612 0.64047 0.82581
 H621 H -0.20399 0.68324 0.81986
 H622 H -0.12262 0.60744 0.80615
 H623 H -0.12282 0.67112 0.71221
 H624 H -0.08046 0.63752 0.69176
 H625 H -0.04501 0.59186 0.69605
 H626 H -0.08069 0.57337 0.78521
 C627 C -0.16538 0.34997 0.27060
 C628 C -0.14534 0.37199 0.26945
 C629 C -0.14043 0.38767 0.24196
 C630 C -0.15563 0.38141 0.21629
 C631 C -0.17587 0.36008 0.21768
 C632 C -0.18134 0.34401 0.24479
 C633 C -0.12049 0.40949 0.24044
 C634 C -0.10554 0.41628 0.26617
 C635 C -0.11061 0.40111 0.29390
 C636 C -0.13039 0.37890 0.29536
 C637 C -0.09570 0.40845 0.31960
 C638 C -0.07573 0.43032 0.31769
 C639 C -0.07023 0.44510 0.29002
 C640 C -0.08547 0.43801 0.26443
 H641 H -0.16930 0.33851 0.29191
 H642 H -0.15192 0.39311 0.19500
 H643 H -0.18649 0.35577 0.19696
 H644 H -0.11668 0.42130 0.21921
 H645 H -0.13420 0.36712 0.31659
 H646 H -0.09933 0.39716 0.34111
 H647 H -0.06422 0.43531 0.33774
 H648 H -0.08161 0.44933 0.24296
 C649 C 0.14756 0.31104 0.75693
 C650 C 0.12554 0.33593 0.75971
 C651 C 0.11975 0.34943 0.78798
 C652 C 0.13600 0.33752 0.81306
 C653 C 0.15804 0.31277 0.81006
 C654 C 0.16418 0.29938 0.78196
 C655 C 0.09818 0.37482 0.79056
 C656 C 0.08262 0.38705 0.76512
 C657 C 0.08839 0.37330 0.73694
 C658 C 0.10962 0.34778 0.73447
 C659 C 0.07319 0.38557 0.71146
 C660 C 0.05294 0.41163 0.71362
 C661 C 0.04722 0.42586 0.74134
 C662 C 0.06183 0.41316 0.76720
 H663 H 0.15234 0.30128 0.73505
 H664 H 0.13183 0.34747 0.83494
 H665 H 0.17021 0.30401 0.82979
 H666 H 0.09387 0.38530 0.81221
 H667 H 0.11409 0.33742 0.71277
 H668 H 0.07729 0.37526 0.68974
 H669 H 0.04185 0.42078 0.69339
 H670 H 0.05768 0.42398 0.78866
 C671 C 0.15554 0.64658 0.27519
 C672 C 0.13272 0.62783 0.27986
 C673 C 0.11867 0.62554 0.30864
 C674 C 0.12752 0.64227 0.33219
 C675 C 0.14987 0.66130 0.32730
 C676 C 0.16437 0.66387 0.29873
 C677 C 0.09586 0.60675 0.31335
 C678 C 0.08657 0.59060 0.28945
 C679 C 0.10036 0.59326 0.26054
 C680 C 0.12346 0.61165 0.25598
 C681 C 0.09073 0.57758 0.23655
 C682 C 0.06764 0.55940 0.24108
 C683 C 0.05389 0.55629 0.26976
 C684 C 0.06356 0.57196 0.29392
 H685 H 0.16542 0.64836 0.25277
 H686 H 0.11706 0.64072 0.35445
 H687 H 0.15615 0.67335 0.34638
 H688 H 0.08519 0.60492 0.33551
 H689 H 0.13407 0.61356 0.23380
 H690 H 0.10102 0.57941 0.21424
 H691 H 0.06073 0.54750 0.22210
 H692 H 0.05305 0.56986 0.31610
 C693 C 0.76689 -0.14683 0.66508
 C694 C 0.76774 -0.12649 0.64040
 C695 C 0.74041 -0.11221 0.62855
 C696 C 0.71278 -0.11866 0.64141
 C697 C 0.71213 -0.13890 0.66589
 C698 C 0.73909 -0.15313 0.67814
 C699 C 0.74110 -0.09165 0.60414
 C700 C 0.76878 -0.08508 0.59138
 C701 C 0.79614 -0.09945 0.60307
 C702 C 0.79545 -0.12006 0.62749
 C703 C 0.82374 -0.09281 0.59020
 C704 C 0.82429 -0.07196 0.56616
 C705 C 0.79724 -0.05732 0.55449
 C706 C 0.76952 -0.06418 0.56722
 H707 H 0.78786 -0.15734 0.67441
 H708 H 0.69162 -0.10805 0.63251
 H709 H 0.69040 -0.14366 0.67502
 H710 H 0.72009 -0.08066 0.59517
 H711 H 0.81646 -0.13100 0.63650
 H712 H 0.84493 -0.10363 0.59882
 H713 H 0.84596 -0.06715 0.55683
 H714 H 0.74846 -0.05311 0.55848
 C715 C 0.26874 -0.17834 0.35408
 C716 C 0.26951 -0.15503 0.37433
 C717 C 0.24242 -0.14241 0.38874
 C718 C 0.21512 -0.15332 0.38276
 C719 C 0.21462 -0.17670 0.36286
 C720 C 0.24134 -0.18947 0.34839
 C721 C 0.24302 -0.11925 0.40907
 C722 C 0.27041 -0.10871 0.41549
 C723 C 0.29756 -0.12136 0.40127
 C724 C 0.29692 -0.14436 0.38065
 C725 C 0.32490 -0.11088 0.40810
 C726 C 0.32536 -0.08819 0.42892
 C727 C 0.29846 -0.07544 0.44313
 C728 C 0.27103 -0.08582 0.43615
 H729 H 0.28949 -0.18829 0.34326
 H730 H 0.19416 -0.14386 0.39356
 H731 H 0.19322 -0.18462 0.35852
 H732 H 0.22221 -0.10960 0.42008
 H733 H 0.31774 -0.15407 0.36972
 H734 H 0.34594 -0.12032 0.39745
 H735 H 0.34679 -0.08059 0.43385
 H736 H 0.25012 -0.07630 0.44701
 C737 C 0.77525 0.18165 0.33270
 C738 C 0.77502 0.15742 0.35355
 C739 C 0.74711 0.14865 0.36434
 C740 C 0.72000 0.16413 0.35405
 C741 C 0.72046 0.18785 0.33300
 C742 C 0.74798 0.19679 0.32208
 C743 C 0.74670 0.12444 0.38505
 C744 C 0.77383 0.10862 0.39496
 C745 C 0.80175 0.11716 0.38404
 C746 C 0.80218 0.14157 0.36349
 C747 C 0.82879 0.10111 0.39391
 C748 C 0.82821 0.07701 0.41458
 C749 C 0.80057 0.06850 0.42583
 C750 C 0.77343 0.08441 0.41573
 H751 H 0.79656 0.18821 0.32409
 H752 H 0.69843 0.15774 0.36210
 H753 H 0.69922 0.19940 0.32530
 H754 H 0.72527 0.11784 0.39334
 H755 H 0.82361 0.14815 0.35516
 H756 H 0.85041 0.10729 0.38575
 H757 H 0.84946 0.06522 0.42200
 H758 H 0.75194 0.07813 0.42418
 C759 C 0.26907 0.14151 0.67331
 C760 C 0.26945 0.12212 0.64910
 C761 C 0.24196 0.11398 0.63876
 C762 C 0.21458 0.12559 0.65267
 C763 C 0.21442 0.14489 0.67680
 C764 C 0.24163 0.15289 0.68749
 C765 C 0.24230 0.09423 0.61484
 C766 C 0.26981 0.08240 0.60125
 C767 C 0.29728 0.09073 0.61147
 C768 C 0.29692 0.11062 0.63525
 C769 C 0.32471 0.07876 0.59791
 C770 C 0.32501 0.05836 0.57473
 C771 C 0.29787 0.04965 0.56459
 C772 C 0.27030 0.06205 0.57784
 H773 H 0.29017 0.14794 0.68094
 H774 H 0.19329 0.11958 0.64504
 H775 H 0.19302 0.15313 0.68746
 H776 H 0.22121 0.08786 0.60700
 H777 H 0.31801 0.11690 0.64317
 H778 H 0.34597 0.08494 0.60543
 H779 H 0.34655 0.04921 0.56493
 H780 H 0.24918 0.05552 0.57029
   
