data_POSCAR
  _audit_creation_date              2014-09-24
  _audit_creation_method            'ToBaCCo'
  _symmetry_space_group_name_H-M    'P1'
  _symmetry_Int_Tables_number       1
  _symmetry_cell_setting            triclinic
  loop_
  _symmetry_equiv_pos_as_xyz
 x,y,z
_cell_length_a 45.7596
_cell_length_b 45.8413
_cell_length_c 48.7742
_cell_angle_alpha 89.569800
_cell_angle_beta 89.530300
_cell_angle_gamma 89.372800
loop_
  _atom_site_label
  _atom_site_type_symbol
  _atom_site_fract_x
  _atom_site_fract_y
  _atom_site_fract_z
N1 N 0.38075 0.29295 0.33371
 N2 N 0.37948 0.30587 0.30955
 C3 C 0.40230 0.29709 0.29406
 C4 C 0.41887 0.27802 0.30965
 C5 C 0.40501 0.27598 0.33480
 H6 H 0.40707 0.30476 0.27351
 H7 H 0.41182 0.26318 0.35238
 Cu8 Cu 0.34977 0.33500 0.30153
 Cu9 Cu 0.35048 0.29970 0.36146
 Cu10 Cu 0.28712 0.33341 0.33690
 N11 N 0.32196 0.36713 0.29939
 N12 N 0.29629 0.36566 0.31170
 C13 C 0.28012 0.38926 0.30454
 C14 C 0.29719 0.40645 0.28750
 C15 C 0.32352 0.39202 0.28466
 H16 H 0.25803 0.39370 0.31151
 H17 H 0.34196 0.39856 0.27214
 N18 N 0.28803 0.30967 0.37088
 N19 N 0.31247 0.29829 0.38083
 C20 C 0.30670 0.28555 0.40519
 C21 C 0.27724 0.28905 0.41060
 C22 C 0.26589 0.30434 0.38862
 H23 H 0.32271 0.27483 0.41809
 H24 H 0.24364 0.31208 0.38625
 H25 H 0.32086 0.30231 0.33053
 H26 H 0.32907 0.33745 0.34766
 N27 N 0.39570 0.79873 -0.16603
 N28 N 0.39864 0.81826 -0.18575
 C29 C 0.41446 0.80663 -0.20641
 C30 C 0.42200 0.77855 -0.19894
 C31 C 0.40963 0.77392 -0.17343
 H32 H 0.41759 0.81676 -0.22631
 H33 H 0.40847 0.75345 -0.16229
 Cu34 Cu 0.37660 0.85466 -0.18530
 Cu35 Cu 0.37025 0.80581 -0.13438
 Cu36 Cu 0.31552 0.85706 -0.14715
 N37 N 0.34635 0.88357 -0.19242
 N38 N 0.32205 0.88393 -0.17779
 C39 C 0.30276 0.90241 -0.18958
 C40 C 0.31589 0.91423 -0.21257
 C41 C 0.34333 0.90163 -0.21415
 H42 H 0.28009 0.90483 -0.18347
 H43 H 0.35858 0.90302 -0.23117
 N44 N 0.31353 0.82826 -0.11689
 N45 N 0.33504 0.80973 -0.11116
 C46 C 0.32745 0.79347 -0.08913
 C47 C 0.29978 0.80222 -0.08108
 C48 C 0.29145 0.82405 -0.09892
 H49 H 0.34057 0.77607 -0.08032
 H50 H 0.27091 0.83593 -0.09874
 H51 H 0.34189 0.82369 -0.16177
 H52 H 0.35855 0.85004 -0.13776
 N53 N 0.88613 0.31309 -0.17576
 N54 N 0.89594 0.33845 -0.18450
 C55 C 0.92206 0.33449 -0.19689
 C56 C 0.92843 0.30507 -0.19612
 C57 C 0.90526 0.29189 -0.18287
 H58 H 0.93475 0.35147 -0.20666
 H59 H 0.90250 0.26888 -0.17868
 Cu60 Cu 0.87213 0.37359 -0.18136
 Cu61 Cu 0.84923 0.30973 -0.15583
 Cu62 Cu 0.81932 0.37526 -0.13387
 N63 N 0.84096 0.40282 -0.18284
 N64 N 0.82032 0.40379 -0.16390
 C65 C 0.79930 0.42277 -0.17188
 C66 C 0.80740 0.43426 -0.19700
 C67 C 0.83373 0.42101 -0.20356
 H68 H 0.77826 0.42528 -0.16182
 H69 H 0.84498 0.42189 -0.22314
 N70 N 0.81098 0.33796 -0.11580
 N71 N 0.82060 0.31269 -0.12540
 C72 C 0.81105 0.29108 -0.10883
 C73 C 0.79498 0.30376 -0.08796
 C74 C 0.79542 0.33335 -0.09271
 H75 H 0.81701 0.26828 -0.11075
 H76 H 0.78576 0.35026 -0.08010
 H77 H 0.82821 0.34856 -0.16546
 H78 H 0.85756 0.34904 -0.13914
 N79 N 0.86652 0.80568 0.30501
 N80 N 0.86841 0.83362 0.29832
 C81 C 0.89362 0.83801 0.28446
 C82 C 0.90770 0.81145 0.28211
 C83 C 0.89010 0.79132 0.29516
 H84 H 0.90037 0.85854 0.27553
 H85 H 0.89412 0.76813 0.29735
 Cu86 Cu 0.83614 0.86183 0.30447
 Cu87 Cu 0.83416 0.78980 0.32710
 Cu88 Cu 0.77704 0.83467 0.33566
 N89 N 0.79790 0.88068 0.30134
 N90 N 0.77453 0.86945 0.31306
 C91 C 0.75171 0.88781 0.30976
 C92 C 0.76146 0.91156 0.29510
 C93 C 0.79088 0.90690 0.29041
 H94 H 0.73047 0.88528 0.31933
 H95 H 0.80631 0.92205 0.28152
 N96 N 0.78605 0.80458 0.36252
 N97 N 0.80776 0.78594 0.35867
 C98 C 0.80867 0.76701 0.37996
 C99 C 0.78670 0.77487 0.39807
 C100 C 0.77266 0.79868 0.38655
 H101 H 0.82464 0.74964 0.38245
 H102 H 0.75428 0.81078 0.39493
 H103 H 0.81536 0.82301 0.30224
 H104 H 0.83037 0.83225 0.33648
 N105 N 0.63555 0.68349 0.31359
 N106 N 0.63076 0.65673 0.30526
 C107 C 0.60443 0.65560 0.29326
 C108 C 0.59255 0.68327 0.29376
 C109 C 0.61273 0.70069 0.30649
 H110 H 0.59515 0.63645 0.28407
 H111 H 0.61092 0.72381 0.31052
 Cu112 Cu 0.66057 0.62668 0.30865
 Cu113 Cu 0.67105 0.69320 0.33333
 Cu114 Cu 0.70911 0.63275 0.35889
 N115 N 0.69461 0.60132 0.31045
 N116 N 0.71269 0.60211 0.33128
 C117 C 0.73236 0.58008 0.32892
 C118 C 0.72652 0.56574 0.30483
 C119 C 0.70254 0.57956 0.29358
 H120 H 0.74960 0.57523 0.34334
 H121 H 0.69107 0.57353 0.27521
 N122 N 0.71183 0.67200 0.37483
 N123 N 0.69879 0.69523 0.36403
 C124 C 0.70444 0.71864 0.37956
 C125 C 0.72159 0.70948 0.40106
 C126 C 0.72598 0.67988 0.39767
 H127 H 0.69520 0.74022 0.37647
 H128 H 0.73772 0.66512 0.41115
 H129 H 0.69906 0.65773 0.32625
 H130 H 0.66832 0.65306 0.35116
 N131 N 0.62723 0.20635 -0.18256
 N132 N 0.62925 0.19705 -0.20799
 C133 C 0.60571 0.20624 -0.22213
 C134 C 0.58796 0.22163 -0.20424
 C135 C 0.60190 0.22121 -0.17931
 H136 H 0.60123 0.20090 -0.24323
 H137 H 0.59429 0.23085 -0.16035
 Cu138 Cu 0.66022 0.17041 -0.21894
 Cu139 Cu 0.65750 0.19787 -0.15560
 Cu140 Cu 0.72057 0.16527 -0.18103
 N141 N 0.68563 0.13623 -0.22084
 N142 N 0.70949 0.13404 -0.20600
 C143 C 0.72015 0.10657 -0.20772
 C144 C 0.70198 0.09116 -0.22462
 C145 C 0.68024 0.11035 -0.23248
 H146 H 0.73781 0.09780 -0.19544
 H147 H 0.66044 0.10516 -0.24331
 N148 N 0.71991 0.18754 -0.14683
 N149 N 0.69533 0.19807 -0.13619
 C150 C 0.70109 0.21000 -0.11171
 C151 C 0.73069 0.20697 -0.10715
 C152 C 0.74216 0.19284 -0.12969
 H153 H 0.68512 0.22043 -0.09847
 H154 H 0.76462 0.18603 -0.13297
 H155 H 0.68790 0.19843 -0.18606
 H156 H 0.67766 0.16184 -0.17233
 N157 N 0.12135 0.72376 -0.18011
 N158 N 0.11696 0.69677 -0.18801
 C159 C 0.09234 0.69583 -0.20285
 C160 C 0.08152 0.72385 -0.20496
 C161 C 0.10021 0.74127 -0.19039
 H162 H 0.08364 0.67643 -0.21211
 H163 H 0.09833 0.76453 -0.18708
 Cu164 Cu 0.14464 0.66538 -0.17980
 Cu165 Cu 0.15341 0.73248 -0.15580
 Cu166 Cu 0.21242 0.68880 -0.15846
 N167 N 0.18068 0.64156 -0.18307
 N168 N 0.20698 0.65147 -0.17740
 C169 C 0.22730 0.63176 -0.18558
 C170 C 0.21274 0.60832 -0.19633
 C171 C 0.18337 0.61505 -0.19449
 H172 H 0.25067 0.63428 -0.18369
 H173 H 0.16546 0.60238 -0.20222
 N174 N 0.20647 0.71689 -0.12866
 N175 N 0.18233 0.73272 -0.12684
 C176 C 0.18165 0.74668 -0.10265
 C177 C 0.20697 0.73954 -0.08898
 C178 C 0.22244 0.72076 -0.10590
 H179 H 0.16380 0.76028 -0.09534
 H180 H 0.24261 0.70930 -0.10127
 H181 H 0.17625 0.69554 -0.18487
 H182 H 0.17024 0.68201 -0.14920
 N183 N 0.12604 0.19863 0.33754
 N184 N 0.13090 0.18837 0.31275
 C185 C 0.10761 0.19419 0.29691
 C186 C 0.08702 0.20849 0.31286
 C187 C 0.09912 0.21093 0.33855
 H188 H 0.10536 0.18751 0.27582
 H189 H 0.08923 0.22081 0.35648
 Cu190 Cu 0.16551 0.16538 0.30398
 Cu191 Cu 0.15534 0.19513 0.36633
 Cu192 Cu 0.22101 0.16213 0.34799
 N193 N 0.19421 0.13382 0.30280
 N194 N 0.21533 0.13161 0.32090
 C195 C 0.23104 0.10706 0.31608
 C196 C 0.21891 0.09365 0.29364
 C197 C 0.19587 0.11110 0.28553
 H198 H 0.24992 0.09992 0.32763
 H199 H 0.18114 0.10733 0.26872
 N200 N 0.21659 0.18635 0.38086
 N201 N 0.19128 0.19810 0.38843
 C202 C 0.19516 0.21337 0.41161
 C203 C 0.22430 0.21102 0.41855
 C204 C 0.23735 0.19388 0.39881
 H205 H 0.17832 0.22572 0.42219
 H206 H 0.26010 0.18736 0.39761
 H207 H 0.18920 0.19458 0.33859
 H208 H 0.17743 0.15822 0.35217
 N209 N 0.61708 0.32223 0.68415
 N210 N 0.60741 0.34918 0.68725
 C211 C 0.58016 0.34872 0.69784
 C212 C 0.57283 0.31996 0.70187
 C213 C 0.59659 0.30357 0.69321
 H214 H 0.56749 0.36777 0.70370
 H215 H 0.59902 0.28007 0.69383
 Cu216 Cu 0.63281 0.38225 0.68137
 Cu217 Cu 0.65575 0.31346 0.66917
 Cu218 Cu 0.69578 0.37260 0.64725
 N219 N 0.66500 0.40924 0.68515
 N220 N 0.69039 0.40450 0.67300
 C221 C 0.70975 0.42427 0.68164
 C222 C 0.69527 0.44237 0.69980
 C223 C 0.66698 0.43263 0.70152
 H224 H 0.73247 0.42515 0.67542
 H225 H 0.64970 0.44080 0.71474
 N226 N 0.70319 0.33324 0.63358
 N227 N 0.68906 0.31028 0.64317
 C228 C 0.69722 0.28668 0.62858
 C229 C 0.71696 0.29557 0.60884
 C230 C 0.72034 0.32515 0.61238
 H231 H 0.68737 0.26540 0.63036
 H232 H 0.73281 0.33992 0.59957
 H233 H 0.67662 0.35152 0.67882
 H234 H 0.65464 0.35107 0.64662
 N235 N 0.62901 0.80138 1.17888
 N236 N 0.63407 0.80705 1.20483
 C237 C 0.61209 0.79672 1.22045
 C238 C 0.59213 0.78439 1.20311
 C239 C 0.60320 0.78772 1.17692
 H240 H 0.61034 0.79889 1.24246
 H241 H 0.59350 0.78052 1.15802
 Cu242 Cu 0.66712 0.83010 1.21560
 Cu243 Cu 0.65663 0.81189 1.14982
 Cu244 Cu 0.72190 0.84122 1.17124
 N245 N 0.69368 0.86241 1.21999
 N246 N 0.71495 0.86734 1.20226
 C247 C 0.72815 0.89248 1.20877
 C248 C 0.71417 0.90349 1.23178
 C249 C 0.69259 0.88401 1.23851
 H250 H 0.74568 0.90241 1.19711
 H251 H 0.67638 0.88613 1.25466
 N252 N 0.71738 0.82338 1.13500
 N253 N 0.69204 0.81362 1.12624
 C254 C 0.69573 0.80274 1.10081
 C255 C 0.72481 0.80575 1.09365
 C256 C 0.73802 0.81873 1.11562
 H257 H 0.67897 0.79223 1.08905
 H258 H 0.76087 0.82407 1.11753
 H259 H 0.69088 0.80740 1.17618
 H260 H 0.67835 0.84554 1.16872
 N261 N 0.13039 0.27415 1.19611
 N262 N 0.13134 0.29593 1.21352
 C263 C 0.10871 0.29406 1.23117
 C264 C 0.09262 0.27017 1.22403
 C265 C 0.10674 0.25776 1.20178
 H266 H 0.10387 0.30938 1.24738
 H267 H 0.10052 0.23846 1.19072
 Cu268 Cu 0.16067 0.32620 1.21063
 Cu269 Cu 0.16073 0.26926 1.16806
 Cu270 Cu 0.18620 0.33636 1.14641
 N271 N 0.18058 0.36165 1.19992
 N272 N 0.18885 0.36628 1.17435
 C273 C 0.20020 0.39316 1.17208
 C274 C 0.19934 0.40555 1.19769
 C275 C 0.18698 0.38513 1.21507
 H276 H 0.20945 0.40242 1.15352
 H277 H 0.18282 0.38722 1.23683
 N278 N 0.19210 0.30021 1.12523
 N279 N 0.18337 0.27435 1.13400
 C280 C 0.19253 0.25378 1.11623
 C281 C 0.20766 0.26759 1.09546
 C282 C 0.20703 0.29693 1.10152
 H283 H 0.18840 0.23067 1.11824
 H284 H 0.21709 0.31439 1.08993
 H285 H 0.19047 0.30363 1.17504
 H286 H 0.15242 0.31207 1.16327
 N287 N 0.12376 0.81424 0.65750
 N288 N 0.12894 0.82783 0.68062
 C289 C 0.10683 0.82297 0.69843
 C290 C 0.08670 0.80591 0.68529
 C291 C 0.09772 0.80095 0.65937
 H292 H 0.10538 0.83142 0.71905
 H293 H 0.08814 0.78788 0.64349
 Cu294 Cu 0.16371 0.85126 0.68466
 Cu295 Cu 0.15256 0.81290 0.62775
 Cu296 Cu 0.22253 0.82846 0.64987
 N297 N 0.19939 0.87389 0.68411
 N298 N 0.22312 0.86384 0.67182
 C299 C 0.24547 0.88193 0.67658
 C300 C 0.23474 0.90477 0.69196
 C301 C 0.20553 0.89916 0.69662
 H302 H 0.26768 0.87868 0.66937
 H303 H 0.19035 0.91171 0.70904
 N304 N 0.21473 0.80450 0.61753
 N305 N 0.18818 0.80050 0.60783
 C306 C 0.19023 0.78603 0.58392
 C307 C 0.21951 0.78066 0.57882
 C308 C 0.23448 0.79246 0.60031
 H309 H 0.17195 0.77997 0.57134
 H310 H 0.25793 0.79345 0.60262
 H311 H 0.18182 0.80945 0.65849
 H312 H 0.18325 0.84423 0.63845
 N313 N 0.36244 0.68883 0.67524
 N314 N 0.34951 0.68248 0.69873
 C315 C 0.36727 0.68919 0.71954
 C316 C 0.39266 0.69994 0.70834
 C317 C 0.38918 0.69954 0.68023
 H318 H 0.36238 0.68580 0.74105
 H319 H 0.40466 0.70652 0.66471
 Cu320 Cu 0.31188 0.66367 0.70026
 Cu321 Cu 0.34336 0.68264 0.64010
 Cu322 Cu 0.27178 0.65934 0.64365
 N323 N 0.28123 0.63496 0.69701
 N324 N 0.26633 0.63216 0.67423
 C325 C 0.24907 0.60858 0.67641
 C326 C 0.25328 0.59656 0.70210
 C327 C 0.27372 0.61366 0.71474
 H328 H 0.23522 0.60048 0.66035
 H329 H 0.28369 0.60987 0.73450
 N330 N 0.28847 0.67762 0.61070
 N331 N 0.31627 0.68497 0.60866
 C332 C 0.32110 0.69687 0.58365
 C333 C 0.29494 0.69725 0.56984
 C334 C 0.27463 0.68504 0.58741
 H335 H 0.34157 0.70602 0.57669
 H336 H 0.25158 0.68213 0.58371
 H337 H 0.30319 0.68966 0.65735
 H338 H 0.31407 0.65067 0.65191
 N339 N 0.37019 0.20975 1.19680
 N340 N 0.36722 0.18913 1.21554
 C341 C 0.39003 0.18976 1.23273
 C342 C 0.40835 0.21156 1.22394
 C343 C 0.39534 0.22407 1.20116
 H344 H 0.39329 0.17512 1.24996
 H345 H 0.40320 0.24224 1.18901
 Cu346 Cu 0.33465 0.16218 1.21531
 Cu347 Cu 0.33996 0.21637 1.16924
 Cu348 Cu 0.30632 0.15166 1.15279
 N349 N 0.31046 0.12878 1.20754
 N350 N 0.30089 0.12382 1.18264
 C351 C 0.28771 0.09769 1.18219
 C352 C 0.28872 0.08621 1.20834
 C353 C 0.30320 0.10630 1.22406
 H354 H 0.27824 0.08789 1.16427
 H355 H 0.30919 0.10413 1.24539
 N356 N 0.30426 0.18693 1.12941
 N357 N 0.31608 0.21204 1.13617
 C358 C 0.30920 0.23235 1.11710
 C359 C 0.29235 0.21913 1.09759
 C360 C 0.28961 0.19042 1.10576
 H361 H 0.31620 0.25480 1.11727
 H362 H 0.27758 0.17355 1.09555
 H363 H 0.30662 0.18624 1.17934
 H364 H 0.34314 0.17286 1.16688
 N365 N 0.86150 0.69821 1.17965
 N366 N 0.86696 0.67308 1.19192
 C367 C 0.89262 0.67446 1.20510
 C368 C 0.90321 0.70217 1.20137
 C369 C 0.88310 0.71693 1.18531
 H370 H 0.90276 0.65669 1.21636
 H371 H 0.88484 0.73883 1.17709
 Cu372 Cu 0.83992 0.64101 1.18964
 Cu373 Cu 0.82876 0.70268 1.15432
 Cu374 Cu 0.80683 0.63552 1.12934
 N375 N 0.81311 0.60962 1.18261
 N376 N 0.80147 0.60623 1.15827
 C377 C 0.78621 0.58119 1.15815
 C378 C 0.78794 0.56910 1.18409
 C379 C 0.80510 0.58750 1.19915
 H380 H 0.77463 0.57274 1.14072
 H381 H 0.81207 0.58444 1.22012
 N382 N 0.80133 0.67264 1.10920
 N383 N 0.80752 0.69839 1.11961
 C384 C 0.79989 0.71949 1.10154
 C385 C 0.78871 0.70600 1.07878
 C386 C 0.78997 0.67650 1.08406
 H387 H 0.80346 0.74258 1.10424
 H388 H 0.78301 0.65920 1.07073
 H389 H 0.80373 0.66480 1.16017
 H390 H 0.84046 0.66189 1.14353
 N391 N 0.86874 0.20060 0.68955
 N392 N 0.86606 0.18767 0.71362
 C393 C 0.89018 0.19257 0.72849
 C394 C 0.90883 0.20906 0.71245
 C395 C 0.89490 0.21366 0.68791
 H396 H 0.89422 0.18404 0.74886
 H397 H 0.90303 0.22574 0.67037
 Cu398 Cu 0.83230 0.16386 0.72218
 Cu399 Cu 0.83775 0.20032 0.66253
 Cu400 Cu 0.78080 0.15271 0.67433
 N401 N 0.80421 0.13256 0.72567
 N402 N 0.78303 0.12954 0.70784
 C403 C 0.76751 0.10570 0.71443
 C404 C 0.78005 0.09306 0.73727
 C405 C 0.80342 0.11027 0.74383
 H406 H 0.75030 0.09672 0.70210
 H407 H 0.81942 0.10615 0.75963
 N408 N 0.78311 0.17804 0.64161
 N409 N 0.80436 0.19697 0.63770
 C410 C 0.79969 0.21163 0.61412
 C411 C 0.77473 0.20082 0.60259
 C412 C 0.76470 0.17951 0.62016
 H413 H 0.81367 0.22834 0.60563
 H414 H 0.74543 0.16638 0.61767
 H415 H 0.80281 0.18901 0.68769
 H416 H 0.82536 0.15838 0.67326
 N417 N 0.27539 0.37631 0.70178
 N418 N 0.29648 0.37420 0.71992
 C419 C 0.29406 0.39634 0.73779
 C420 C 0.27047 0.41326 0.73011
 C421 C 0.25885 0.40014 0.70727
 H422 H 0.30881 0.40024 0.75455
 H423 H 0.24009 0.40730 0.69557
 Cu424 Cu 0.32649 0.34392 0.71770
 Cu425 Cu 0.27177 0.34745 0.67267
 Cu426 Cu 0.34002 0.32146 0.65333
 N427 N 0.36185 0.32234 0.70838
 N428 N 0.36781 0.31519 0.68282
 C429 C 0.39472 0.30316 0.68145
 C430 C 0.40568 0.30229 0.70762
 C431 C 0.38450 0.31452 0.72440
 H432 H 0.40527 0.29538 0.66293
 H433 H 0.38584 0.31835 0.74620
 N434 N 0.30515 0.31811 0.63005
 N435 N 0.27877 0.32674 0.63800
 C436 C 0.25913 0.31861 0.61918
 C437 C 0.27411 0.30440 0.59853
 C438 C 0.30317 0.30440 0.60581
 H439 H 0.23581 0.32249 0.62058
 H440 H 0.32122 0.29422 0.59494
 H441 H 0.30570 0.31653 0.68017
 H442 H 0.31469 0.35482 0.66996
 N443 N 0.30570 0.87913 0.17354
 N444 N 0.32317 0.87853 0.19486
 C445 C 0.31585 0.90043 0.21187
 C446 C 0.29303 0.91580 0.20014
 C447 C 0.28711 0.90206 0.17577
 H448 H 0.32685 0.90540 0.23079
 H449 H 0.27051 0.90796 0.16103
 Cu450 Cu 0.35569 0.85104 0.19701
 Cu451 Cu 0.30892 0.84989 0.14471
 Cu452 Cu 0.34902 0.78810 0.16373
 N453 N 0.38510 0.82033 0.20010
 N454 N 0.38156 0.79502 0.18808
 C455 C 0.40368 0.77687 0.19496
 C456 C 0.42216 0.79212 0.21166
 C457 C 0.41006 0.81955 0.21454
 H458 H 0.40636 0.75470 0.18786
 H459 H 0.41845 0.83726 0.22659
 N460 N 0.32348 0.78957 0.13152
 N461 N 0.30767 0.81275 0.12460
 C462 C 0.29354 0.80719 0.10113
 C463 C 0.30149 0.77948 0.09290
 C464 C 0.32073 0.76899 0.11217
 H465 H 0.28012 0.82272 0.08999
 H466 H 0.33257 0.74845 0.11169
 H467 H 0.31904 0.82135 0.17467
 H468 H 0.35017 0.83072 0.15138
 N469 N 0.78919 0.34458 0.18725
 N470 N 0.80863 0.33920 0.20642
 C471 C 0.80897 0.36163 0.22405
 C472 C 0.78909 0.38215 0.21497
 C473 C 0.77666 0.37089 0.19169
 H474 H 0.82315 0.36318 0.24160
 H475 H 0.75988 0.38083 0.17910
 Cu476 Cu 0.83342 0.30453 0.20548
 Cu477 Cu 0.78218 0.31638 0.15841
 Cu478 Cu 0.84644 0.27994 0.14161
 N479 N 0.86596 0.27858 0.19747
 N480 N 0.87217 0.27025 0.17229
 C481 C 0.89817 0.25606 0.17219
 C482 C 0.90817 0.25525 0.19882
 C483 C 0.88733 0.26961 0.21441
 H484 H 0.90922 0.24777 0.15413
 H485 H 0.88855 0.27484 0.23595
 N486 N 0.81253 0.28309 0.11657
 N487 N 0.78748 0.29556 0.12386
 C488 C 0.76773 0.29202 0.10392
 C489 C 0.78125 0.27706 0.08300
 C490 C 0.80958 0.27159 0.09138
 H491 H 0.74536 0.29987 0.10457
 H492 H 0.82628 0.25933 0.08051
 H493 H 0.81076 0.28045 0.16683
 H494 H 0.82624 0.31671 0.15725
 N495 N 0.78837 0.88243 0.66642
 N496 N 0.81222 0.88805 0.68025
 C497 C 0.80599 0.90739 0.70011
 C498 C 0.77658 0.91386 0.69863
 C499 C 0.76589 0.89792 0.67711
 H500 H 0.82157 0.91584 0.71451
 H501 H 0.74370 0.89781 0.66961
 Cu502 Cu 0.84910 0.86880 0.67197
 Cu503 Cu 0.78939 0.85551 0.63547
 Cu504 Cu 0.84028 0.80086 0.64843
 N505 N 0.88045 0.84033 0.67307
 N506 N 0.87622 0.81296 0.66629
 C507 C 0.89955 0.79682 0.67409
 C508 C 0.91943 0.81558 0.68555
 C509 C 0.90690 0.84292 0.68452
 H510 H 0.90160 0.77341 0.67204
 H511 H 0.91524 0.86264 0.69348
 N512 N 0.80862 0.79718 0.62113
 N513 N 0.79020 0.81870 0.61513
 C514 C 0.77455 0.81149 0.59294
 C515 C 0.78354 0.78397 0.58497
 C516 C 0.80491 0.77539 0.60314
 H517 H 0.75870 0.82552 0.58293
 H518 H 0.81817 0.75575 0.60215
 H519 H 0.81195 0.83228 0.66326
 H520 H 0.83398 0.84176 0.63203
 N521 N 0.71433 0.63957 0.67840
 N522 N 0.70484 0.64543 0.70333
 C523 C 0.71393 0.62420 0.72061
 C524 C 0.72966 0.60414 0.70531
 C525 C 0.72940 0.61426 0.67873
 H526 H 0.70755 0.62229 0.74195
 H527 H 0.73829 0.60342 0.66084
 Cu528 Cu 0.67698 0.67693 0.70973
 Cu529 Cu 0.70452 0.66367 0.64691
 Cu530 Cu 0.66353 0.72577 0.65979
 N531 N 0.64110 0.70006 0.70920
 N532 N 0.63501 0.71826 0.68896
 C533 C 0.60774 0.72913 0.69256
 C534 C 0.59667 0.71703 0.71644
 C535 C 0.61823 0.69898 0.72666
 H536 H 0.59692 0.74437 0.67886
 H537 H 0.61696 0.68520 0.74472
 N538 N 0.68676 0.72075 0.62605
 N539 N 0.70148 0.69644 0.62078
 C540 C 0.71531 0.69920 0.59647
 C541 C 0.70891 0.72660 0.58626
 C542 C 0.69084 0.73985 0.60527
 H543 H 0.72955 0.68291 0.58734
 H544 H 0.68152 0.76160 0.60418
 H545 H 0.70080 0.70030 0.67064
 H546 H 0.66588 0.68220 0.66115
 N547 N 0.70789 0.13003 0.17679
 N548 N 0.69926 0.14346 0.19926
 C549 C 0.70787 0.12792 0.22126
 C550 C 0.72230 0.10342 0.21200
 C551 C 0.72195 0.10505 0.18371
 H552 H 0.70195 0.13280 0.24226
 H553 H 0.72985 0.08884 0.16936
 Cu554 Cu 0.67290 0.17677 0.19821
 Cu555 Cu 0.69791 0.14516 0.14056
 Cu556 Cu 0.66333 0.21276 0.13933
 N557 N 0.63874 0.20151 0.19234
 N558 N 0.63426 0.21500 0.16881
 C559 C 0.60807 0.22877 0.16965
 C560 C 0.59596 0.22363 0.19521
 C561 C 0.61585 0.20643 0.20921
 H562 H 0.59860 0.24126 0.15298
 H563 H 0.61346 0.19736 0.22964
 N564 N 0.68522 0.19724 0.10792
 N565 N 0.69660 0.17059 0.10762
 C566 C 0.71042 0.16639 0.08343
 C567 C 0.70788 0.19182 0.06841
 C568 C 0.69198 0.21105 0.08435
 H569 H 0.72320 0.14724 0.07809
 H570 H 0.68639 0.23348 0.07950
 H571 H 0.69826 0.18682 0.15528
 H572 H 0.66153 0.17047 0.14984
 N573 N 0.18921 0.61624 0.17244
 N574 N 0.16219 0.60868 0.17841
 C575 C 0.16237 0.58270 0.19142
 C576 C 0.19102 0.57394 0.19418
 C577 C 0.20773 0.59553 0.18207
 H578 H 0.14323 0.57166 0.19923
 H579 H 0.23129 0.59608 0.18022
 Cu580 Cu 0.12934 0.63475 0.17190
 Cu581 Cu 0.19773 0.65226 0.15222
 Cu582 Cu 0.13799 0.69406 0.13261
 N583 N 0.10299 0.66813 0.17480
 N584 N 0.10726 0.69222 0.16051
 C585 C 0.08698 0.71233 0.16779
 C586 C 0.06920 0.69970 0.18746
 C587 C 0.07955 0.67171 0.19129
 H588 H 0.08497 0.73399 0.15900
 H589 H 0.07109 0.65543 0.20533
 N590 N 0.17652 0.69823 0.11526
 N591 N 0.19974 0.68333 0.12366
 C592 C 0.22280 0.69061 0.10776
 C593 C 0.21330 0.71059 0.08845
 C594 C 0.18393 0.71506 0.09358
 H595 H 0.24444 0.68103 0.10923
 H596 H 0.16905 0.72905 0.08228
 H597 H 0.16111 0.67626 0.16360
 H598 H 0.15812 0.65199 0.13308
 N599 N 0.22812 0.13474 0.68641
 N600 N 0.21125 0.13244 0.70831
 C601 C 0.21826 0.10781 0.72212
 C602 C 0.24051 0.09401 0.70780
 C603 C 0.24620 0.11138 0.68521
 H604 H 0.20672 0.09963 0.73998
 H605 H 0.26145 0.10687 0.66867
 Cu606 Cu 0.17907 0.15973 0.71466
 Cu607 Cu 0.22342 0.16720 0.66044
 Cu608 Cu 0.15060 0.18722 0.65640
 N609 N 0.14158 0.17987 0.71442
 N610 N 0.12988 0.18931 0.69137
 C611 C 0.10327 0.20083 0.69671
 C612 C 0.09858 0.19872 0.72462
 C613 C 0.12314 0.18553 0.73540
 H614 H 0.08897 0.21069 0.68163
 H615 H 0.12720 0.18029 0.75669
 N616 N 0.17932 0.19558 0.62700
 N617 N 0.20757 0.18995 0.62957
 C618 C 0.22202 0.20117 0.60786
 C619 C 0.20163 0.21412 0.59084
 C620 C 0.17482 0.21006 0.60321
 H621 H 0.24537 0.19950 0.60449
 H622 H 0.15385 0.21788 0.59598
 H623 H 0.18879 0.19311 0.67671
 H624 H 0.18165 0.15522 0.66480
 N625 N 0.28313 0.63451 0.29019
 N626 N 0.30798 0.62505 0.27955
 C627 C 0.30340 0.59997 0.26612
 C628 C 0.27394 0.59400 0.26809
 C629 C 0.26158 0.61626 0.28323
 H630 H 0.32024 0.58678 0.25644
 H631 H 0.23919 0.61788 0.29040
 Cu632 Cu 0.34406 0.64602 0.28523
 Cu633 Cu 0.28199 0.66692 0.31606
 Cu634 Cu 0.34922 0.67640 0.34699
 N635 N 0.37885 0.66694 0.29569
 N636 N 0.38165 0.67712 0.32069
 C637 C 0.40799 0.68966 0.32299
 C638 C 0.42179 0.68779 0.29785
 C639 C 0.40286 0.67343 0.28083
 H640 H 0.41566 0.70080 0.34099
 H641 H 0.40615 0.66837 0.25939
 N642 N 0.31183 0.68810 0.36426
 N643 N 0.28648 0.68652 0.35154
 C644 C 0.26527 0.69758 0.36783
 C645 C 0.27804 0.70621 0.39186
 C646 C 0.30749 0.69998 0.38917
 H647 H 0.24224 0.69821 0.36299
 H648 H 0.32441 0.70385 0.40403
 H649 H 0.32408 0.68496 0.31394
 H650 H 0.31915 0.64810 0.32961
 N651 N 0.30632 0.11215 0.83256
 N652 N 0.32891 0.11038 0.81574
 C653 C 0.32437 0.08908 0.79746
 C654 C 0.29735 0.07735 0.80320
 C655 C 0.28632 0.09232 0.82542
 H656 H 0.33909 0.08332 0.78084
 H657 H 0.26545 0.08920 0.83553
 Cu658 Cu 0.36123 0.13742 0.81805
 Cu659 Cu 0.30518 0.14037 0.86223
 Cu660 Cu 0.34098 0.20316 0.84231
 N661 N 0.38612 0.17115 0.81397
 N662 N 0.37738 0.19724 0.82193
 C663 C 0.39725 0.21709 0.81391
 C664 C 0.41969 0.20223 0.80083
 C665 C 0.41220 0.17325 0.80121
 H666 H 0.39551 0.24032 0.81742
 H667 H 0.42410 0.15532 0.79191
 N668 N 0.31160 0.20199 0.87231
 N669 N 0.29933 0.17757 0.88092
 C670 C 0.28403 0.18275 0.90408
 C671 C 0.28672 0.21194 0.90998
 C672 C 0.30410 0.22365 0.88960
 H673 H 0.27266 0.16640 0.91605
 H674 H 0.31234 0.24566 0.88854
 H675 H 0.31833 0.16637 0.83129
 H676 H 0.34567 0.16271 0.85941
 N677 N 0.79966 0.64315 0.81293
 N678 N 0.81976 0.64717 0.79386
 C679 C 0.82061 0.62397 0.77714
 C680 C 0.80044 0.60427 0.78672
 C681 C 0.78718 0.61697 0.80928
 H682 H 0.83441 0.62188 0.75913
 H683 H 0.76900 0.60863 0.82117
 Cu684 Cu 0.84281 0.68246 0.79217
 Cu685 Cu 0.78989 0.67392 0.83896
 Cu686 Cu 0.85091 0.71480 0.85339
 N687 N 0.87344 0.71039 0.79839
 N688 N 0.87769 0.72173 0.82274
 C689 C 0.90245 0.73739 0.82209
 C690 C 0.91367 0.73601 0.79581
 C691 C 0.89491 0.71883 0.78117
 H692 H 0.91163 0.74860 0.83939
 H693 H 0.89748 0.71177 0.76017
 N694 N 0.81585 0.71372 0.87743
 N695 N 0.79202 0.69926 0.87110
 C696 C 0.77103 0.70470 0.88994
 C697 C 0.78247 0.72319 0.90906
 C698 C 0.81086 0.72855 0.90081
 H699 H 0.74929 0.69569 0.88985
 H700 H 0.82632 0.74273 0.91056
 H701 H 0.81646 0.70976 0.82738
 H702 H 0.83364 0.67549 0.84108
 N703 N 0.77654 0.13421 0.33585
 N704 N 0.78780 0.13853 0.31125
 C705 C 0.78005 0.11662 0.29474
 C706 C 0.76322 0.09762 0.31003
 C707 C 0.76137 0.10916 0.33599
 H708 H 0.78755 0.11383 0.27382
 H709 H 0.75051 0.09977 0.35369
 Cu710 Cu 0.81533 0.16947 0.30397
 Cu711 Cu 0.78252 0.16156 0.36558
 Cu712 Cu 0.83451 0.21477 0.35397
 N713 N 0.85230 0.18980 0.30285
 N714 N 0.86071 0.20643 0.32314
 C715 C 0.88778 0.21645 0.31759
 C716 C 0.89630 0.20529 0.29247
 C717 C 0.87343 0.18877 0.28353
 H718 H 0.89991 0.23100 0.33051
 H719 H 0.87237 0.17658 0.26467
 N720 N 0.81049 0.21291 0.38766
 N721 N 0.79142 0.19197 0.39251
 C722 C 0.77802 0.19692 0.41676
 C723 C 0.78923 0.22221 0.42729
 C724 C 0.80959 0.23196 0.40855
 H725 H 0.76060 0.18397 0.42545
 H726 H 0.82232 0.25164 0.40978
 H727 H 0.79444 0.19720 0.34223
 H728 H 0.82446 0.17165 0.35280
 N729 N 0.71236 0.36268 0.32975
 N730 N 0.70542 0.35554 0.30455
 C731 C 0.71465 0.37641 0.28710
 C732 C 0.72767 0.39775 0.30247
 C733 C 0.72581 0.38868 0.32938
 H734 H 0.71075 0.37678 0.26526
 H735 H 0.73322 0.40016 0.34728
 Cu736 Cu 0.68129 0.32205 0.29715
 Cu737 Cu 0.70276 0.33795 0.36101
 Cu738 Cu 0.66899 0.27273 0.34671
 N739 N 0.64785 0.29632 0.29606
 N740 N 0.64206 0.27773 0.31604
 C741 C 0.61652 0.26445 0.31086
 C742 C 0.60629 0.27547 0.28622
 C743 C 0.62657 0.29534 0.27724
 H744 H 0.60635 0.24823 0.32391
 H745 H 0.62550 0.30874 0.25892
 N746 N 0.68939 0.27959 0.38134
 N747 N 0.70122 0.30498 0.38715
 C748 C 0.71386 0.30317 0.41193
 C749 C 0.70977 0.27528 0.42185
 C750 C 0.69427 0.26076 0.40219
 H751 H 0.72587 0.32045 0.42155
 H752 H 0.68725 0.23831 0.40288
 H753 H 0.70429 0.30095 0.33751
 H754 H 0.66707 0.31638 0.34513
 N755 N 0.69472 0.85672 0.80742
 N756 N 0.67213 0.85565 0.79093
 C757 C 0.67208 0.87905 0.77416
 C758 C 0.69639 0.89513 0.77992
 C759 C 0.71044 0.88064 0.80114
 H760 H 0.65500 0.88452 0.75974
 H761 H 0.72899 0.88817 0.81262
 Cu762 Cu 0.64377 0.82485 0.79385
 Cu763 Cu 0.69822 0.82934 0.83846
 Cu764 Cu 0.62947 0.80434 0.85818
 N765 N 0.61055 0.80092 0.80246
 N766 N 0.60395 0.79373 0.82793
 C767 C 0.57851 0.77907 0.82822
 C768 C 0.56947 0.77675 0.80140
 C769 C 0.59016 0.79072 0.78553
 H770 H 0.56774 0.77063 0.84639
 H771 H 0.59000 0.79386 0.76353
 N772 N 0.66343 0.80495 0.88305
 N773 N 0.69003 0.81240 0.87500
 C774 C 0.70882 0.80765 0.89575
 C775 C 0.69294 0.79711 0.91782
 C776 C 0.66440 0.79572 0.90933
 H777 H 0.73202 0.81188 0.89492
 H778 H 0.64598 0.78763 0.92102
 H779 H 0.66462 0.79856 0.83281
 H780 H 0.65505 0.83712 0.84115
 N781 N 0.19708 0.37160 0.81875
 N782 N 0.18541 0.36119 0.79630
 C783 C 0.18740 0.38120 0.77601
 C784 C 0.20077 0.40532 0.78661
 C785 C 0.20673 0.39875 0.81366
 H786 H 0.17896 0.37871 0.75552
 H787 H 0.21735 0.41252 0.82839
 Cu788 Cu 0.16600 0.32384 0.79630
 Cu789 Cu 0.20053 0.34868 0.85243
 Cu790 Cu 0.16708 0.28146 0.85230
 N791 N 0.13606 0.29478 0.80308
 N792 N 0.13566 0.27931 0.82591
 C793 C 0.11122 0.26325 0.82692
 C794 C 0.09590 0.26885 0.80328
 C795 C 0.11207 0.28881 0.78841
 H796 H 0.10500 0.24895 0.84367
 H797 H 0.10618 0.29925 0.76924
 N798 N 0.19103 0.29474 0.88270
 N799 N 0.20213 0.32120 0.88383
 C800 C 0.21629 0.32405 0.90783
 C801 C 0.21413 0.29795 0.92184
 C802 C 0.19814 0.27978 0.90551
 H803 H 0.22824 0.34308 0.91406
 H804 H 0.19204 0.25750 0.90994
 H805 H 0.19835 0.30909 0.83398
 H806 H 0.16300 0.32546 0.84600
 N807 N 0.21005 0.85780 0.30278
 N808 N 0.19120 0.85877 0.28252
 C809 C 0.19659 0.88227 0.26665
 C810 C 0.21962 0.89688 0.27797
 C811 C 0.22784 0.88101 0.30087
 H812 H 0.18364 0.88911 0.24926
 H813 H 0.24479 0.88623 0.31529
 Cu814 Cu 0.15878 0.83165 0.28068
 Cu815 Cu 0.20830 0.82698 0.33062
 Cu816 Cu 0.13628 0.80918 0.34306
 N817 N 0.12097 0.81350 0.28601
 N818 N 0.11167 0.80636 0.31077
 C819 C 0.08406 0.79673 0.30928
 C820 C 0.07610 0.79739 0.28214
 C821 C 0.09985 0.80801 0.26769
 H822 H 0.07107 0.78928 0.32654
 H823 H 0.10142 0.81210 0.24586
 N824 N 0.16792 0.80156 0.36966
 N825 N 0.19575 0.80652 0.36403
 C826 C 0.21236 0.79624 0.38469
 C827 C 0.19381 0.78459 0.40422
 C828 C 0.16590 0.78838 0.39438
 H829 H 0.23592 0.79754 0.38555
 H830 H 0.14581 0.78125 0.40402
 H831 H 0.17216 0.80069 0.31944
 H832 H 0.16608 0.83954 0.32959
 C833 C 0.26597 1.02451 0.25212
 C834 C 0.25259 1.02226 0.27815
 C835 C 0.24672 0.99474 0.28939
 C836 C 0.25325 0.96940 0.27462
 C837 C 0.26723 0.97146 0.24890
 C838 C 0.27318 0.99902 0.23754
 H839 H 0.28470 1.00056 0.21810
 H840 H 0.23554 0.99310 0.30900
 C841 C 0.23336 0.53632 0.74867
 C842 C 0.22047 0.53456 0.77494
 C843 C 0.21414 0.50727 0.78631
 C844 C 0.22095 0.48157 0.77232
 C845 C 0.23396 0.48316 0.74595
 C846 C 0.23945 0.51055 0.73412
 H847 H 0.24990 0.51170 0.71414
 H848 H 0.20365 0.50603 0.80628
 C849 C 0.73957 -0.01722 0.27442
 C850 C 0.73945 -0.02189 0.24568
 C851 C 0.74179 0.00214 0.22787
 C852 C 0.74374 0.03051 0.23802
 C853 C 0.74664 0.03471 0.26648
 C854 C 0.74366 0.01092 0.28440
 H855 H 0.74491 0.01412 0.30634
 H856 H 0.73990 -0.00108 0.20597
 C857 C 0.76439 0.48179 0.76084
 C858 C 0.74583 0.48760 0.73866
 C859 C 0.73897 0.51638 0.73142
 C860 C 0.75010 0.53966 0.74631
 C861 C 0.76777 0.53404 0.76929
 C862 C 0.77483 0.50512 0.77654
 H863 H 0.78871 0.50092 0.79404
 H864 H 0.72478 0.52064 0.71414
 C865 C 0.25426 0.46576 0.25521
 C866 C 0.23114 0.46564 0.23660
 C867 C 0.22212 0.49173 0.22387
 C868 C 0.23594 0.51820 0.22976
 C869 C 0.25970 0.51814 0.24805
 C870 C 0.26900 0.49186 0.26023
 H871 H 0.28701 0.49200 0.27451
 H872 H 0.20440 0.49135 0.20931
 C873 C 0.74392 1.02372 0.75258
 C874 C 0.71776 1.01554 0.76606
 C875 C 0.71226 0.98593 0.77071
 C876 C 0.73166 0.96429 0.76118
 C877 C 0.75670 0.97249 0.74634
 C878 C 0.76332 1.00201 0.74317
 H879 H 0.78245 1.00812 0.73131
 H880 H 0.69279 0.97977 0.78204
 C881 C 0.76343 0.51006 0.23006
 C882 C 0.75159 0.50940 0.25668
 C883 C 0.74604 0.48257 0.26957
 C884 C 0.75174 0.45634 0.25577
 C885 C 0.76358 0.45701 0.22903
 C886 C 0.76906 0.48383 0.21619
 H887 H 0.77874 0.48417 0.19585
 H888 H 0.73571 0.48218 0.28962
 C889 C 0.27903 -0.03499 0.74421
 C890 C 0.25581 -0.02748 0.72653
 C891 C 0.24669 0.00167 0.72424
 C892 C 0.26021 0.02350 0.73941
 C893 C 0.28287 0.01594 0.75754
 C894 C 0.29257 -0.01306 0.75939
 H895 H 0.31040 -0.01855 0.77304
 H896 H 0.22880 0.00736 0.71074
 C897 C 0.24343 0.25583 1.02847
 C898 C 0.25933 0.22919 1.02952
 C899 C 0.26641 0.21481 1.00514
 C900 C 0.25934 0.22709 0.97973
 C901 C 0.24402 0.25386 0.97855
 C902 C 0.23662 0.26829 1.00296
 H903 H 0.22372 0.28823 1.00222
 H904 H 0.27864 0.19445 1.00592
 C905 C 0.23161 0.75023 0.50983
 C906 C 0.25602 0.73134 0.51179
 C907 C 0.27078 0.72260 0.48782
 C908 C 0.26091 0.73160 0.46195
 C909 C 0.23613 0.75017 0.46001
 C910 C 0.22154 0.75897 0.48406
 H911 H 0.20309 0.77392 0.48287
 H912 H 0.28928 0.70773 0.48916
 C913 C 0.27460 0.76346 -0.01905
 C914 C 0.24729 0.75123 -0.02497
 C915 C 0.22865 0.74270 -0.00335
 C916 C 0.23712 0.74613 0.02400
 C917 C 0.26403 0.75927 0.02976
 C918 C 0.28295 0.76700 0.00820
 H919 H 0.30335 0.77774 0.01258
 H920 H 0.20810 0.73228 -0.00775
 C921 C 0.26325 0.26518 0.48184
 C922 C 0.23746 0.24846 0.48388
 C923 C 0.22581 0.24192 0.50986
 C924 C 0.23971 0.25124 0.53381
 C925 C 0.26445 0.26908 0.53158
 C926 C 0.27650 0.27503 0.50576
 H927 H 0.29587 0.28836 0.50420
 H928 H 0.20696 0.22791 0.51137
 C929 C 0.73928 0.77713 1.02423
 C930 C 0.76363 0.75813 1.02601
 C931 C 0.77769 0.74878 1.00190
 C932 C 0.76690 0.75660 0.97614
 C933 C 0.74147 0.77407 0.97422
 C934 C 0.72786 0.78423 0.99838
 H935 H 0.70870 0.79826 0.99714
 H936 H 0.79661 0.73443 1.00316
 C937 C 0.74312 0.27396 0.54025
 C938 C 0.75527 0.24572 0.54277
 C939 C 0.76055 0.22903 0.51922
 C940 C 0.75442 0.24049 0.49320
 C941 C 0.74139 0.26847 0.49079
 C942 C 0.73670 0.28522 0.51427
 H943 H 0.72657 0.30661 0.51242
 H944 H 0.77116 0.20786 0.52102
 C945 C 0.76951 0.24998 -0.03723
 C946 C 0.74642 0.22988 -0.03662
 C947 C 0.73469 0.22104 -0.01136
 C948 C 0.74587 0.23158 0.01332
 C949 C 0.76965 0.25084 0.01271
 C950 C 0.78148 0.25952 -0.01249
 H951 H 0.79954 0.27462 -0.01285
 H952 H 0.71620 0.20647 -0.01098
 C953 C 0.75691 0.76114 0.46726
 C954 C 0.74718 0.73199 0.46914
 C955 C 0.74160 0.71970 0.49495
 C956 C 0.74419 0.73618 0.51879
 C957 C 0.75472 0.76498 0.51706
 C958 C 0.76014 0.77744 0.49124
 H959 H 0.76826 0.79952 0.48984
 H960 H 0.73325 0.69771 0.49637
 C961 C 1.02432 0.22669 0.26858
 C962 C 1.02226 0.23614 0.24114
 C963 C 0.99483 0.23976 0.22907
 C964 C 0.96918 0.23536 0.24450
 C965 C 0.97117 0.22639 0.27222
 C966 C 0.99873 0.22227 0.28411
 H967 H 1.00015 0.21471 0.30515
 H968 H 0.99354 0.24771 0.20814
 C969 C 0.52399 0.25187 0.75980
 C970 C 0.52087 0.27339 0.73945
 C971 C 0.49299 0.28457 0.73330
 C972 C 0.46817 0.27420 0.74723
 C973 C 0.47130 0.25266 0.76762
 C974 C 0.49925 0.24166 0.77391
 H975 H 0.50171 0.22486 0.78948
 H976 H 0.49056 0.30114 0.71752
 C977 C -0.02221 0.25067 0.77267
 C978 C -0.02641 0.23142 0.75088
 C979 C -0.00219 0.22107 0.73585
 C980 C 0.02620 0.22868 0.74323
 C981 C 0.03045 0.24742 0.76558
 C982 C 0.00621 0.25845 0.78005
 H983 H 0.00943 0.27366 0.79662
 H984 H -0.00533 0.20640 0.71884
 C985 C 0.47944 0.25136 0.26615
 C986 C 0.48115 0.24079 0.23914
 C987 C 0.50852 0.23583 0.22690
 C988 C 0.53427 0.24013 0.24177
 C989 C 0.53252 0.24987 0.26912
 C990 C 0.50514 0.25515 0.28121
 H991 H 0.50399 0.26382 0.30179
 H992 H 0.50968 0.22735 0.20625
 C993 C 1.02650 0.76573 0.75627
 C994 C 1.02774 0.78238 0.73202
 C995 C 1.00196 0.78814 0.71742
 C996 C 0.97504 0.77736 0.72677
 C997 C 0.97377 0.76100 0.75114
 C998 C 0.99949 0.75524 0.76577
 H999 H 0.99857 0.74232 0.78443
 H1000 H 1.00284 0.80094 0.69869
 C1001 C 0.53351 0.72747 0.26317
 C1002 C 0.53347 0.74964 0.24323
 C1003 C 0.50714 0.75835 0.23100
 C1004 C 0.48084 0.74485 0.23842
 C1005 C 0.48088 0.72232 0.25804
 C1006 C 0.50722 0.71376 0.27046
 H1007 H 0.50726 0.69650 0.28574
 H1008 H 0.50705 0.77567 0.21577
 C1009 C -0.03604 0.77244 0.24193
 C1010 C -0.03742 0.75027 0.22243
 C1011 C -0.01171 0.73961 0.21015
 C1012 C 0.01555 0.75102 0.21718
 C1013 C 0.01709 0.77301 0.23703
 C1014 C -0.00883 0.78380 0.24920
 H1015 H -0.00771 0.80022 0.26499
 H1016 H -0.01296 0.72267 0.19485
 C1017 C 0.46364 0.73739 0.75359
 C1018 C 0.46616 0.72590 0.72678
 C1019 C 0.49357 0.72501 0.71382
 C1020 C 0.51860 0.73414 0.72739
 C1021 C 0.51614 0.74588 0.75391
 C1022 C 0.48870 0.74750 0.76685
 H1023 H 0.48679 0.75681 0.78713
 H1024 H 0.49556 0.71617 0.69334
 N1025 N 0.44607 0.26492 0.30175
 N1026 N 0.45184 0.26168 0.27640
 N1027 N 0.42950 0.75814 0.78380
 N1028 N 0.43563 0.73922 0.76684
 N1029 N -0.04685 0.29119 0.79142
 N1030 N -0.04704 0.26422 0.78547
 N1031 N -0.06602 0.80557 0.26710
 N1032 N -0.06226 0.78073 0.25615
 N1033 N 0.56541 0.69200 0.28193
 N1034 N 0.56065 0.71839 0.27503
 N1035 N 0.55980 0.23384 0.79028
 N1036 N 0.55248 0.24059 0.76593
 N1037 N 1.05590 0.73244 0.78052
 N1038 N 1.05286 0.75784 0.77021
 N1039 N 1.05834 0.21742 0.30464
 N1040 N 1.05261 0.21946 0.27923
 N1041 N 0.54710 0.30969 0.71531
 N1042 N 0.54640 0.28425 0.72583
 N1043 N 0.56511 0.77117 0.21058
 N1044 N 0.56056 0.76249 0.23505
 N1045 N 1.06645 0.26100 0.23745
 N1046 N 1.04784 0.24469 0.22611
 N1047 N 1.05975 0.79520 0.69599
 N1048 N 1.05532 0.79226 0.72165
 N1049 N 0.41736 0.70935 0.72342
 N1050 N 0.44141 0.71577 0.71176
 N1051 N 0.43499 0.21938 0.23688
 N1052 N 0.45520 0.23332 0.22459
 N1053 N -0.06919 0.71241 0.21034
 N1054 N -0.06529 0.73938 0.21462
 N1055 N -0.06255 0.21856 0.71913
 N1056 N -0.05542 0.22304 0.74386
 N1057 N 0.28924 0.43320 0.27419
 N1058 N 0.26276 0.43897 0.26840
 N1059 N 0.30174 -0.07449 0.76671
 N1060 N 0.28779 -0.06498 0.74704
 N1061 N 0.78894 0.44422 0.78483
 N1062 N 0.77132 0.45195 0.76720
 N1063 N 0.74792 -0.06330 0.29398
 N1064 N 0.73467 -0.03982 0.29423
 N1065 N 0.24238 0.56936 0.71200
 N1066 N 0.24152 0.56411 0.73763
 N1067 N 0.27878 1.05813 0.21684
 N1068 N 0.27445 1.05266 0.24213
 N1069 N 0.77632 0.54189 0.19319
 N1070 N 0.77228 0.53750 0.21872
 N1071 N 0.77457 1.06440 0.74743
 N1072 N 0.74929 1.05345 0.74539
 N1073 N 0.74051 0.54007 0.29450
 N1074 N 0.74148 0.53603 0.26874
 N1075 N 0.69955 1.06281 0.77530
 N1076 N 0.69631 1.03617 0.77578
 N1077 N 0.22538 0.58311 0.79103
 N1078 N 0.21041 0.56000 0.78916
 N1079 N 0.22827 1.06745 0.28044
 N1080 N 0.24323 1.04782 0.29265
 N1081 N 0.70735 0.46525 0.71555
 N1082 N 0.73369 0.46405 0.72362
 N1083 N 0.71827 -0.06883 0.24431
 N1084 N 0.73511 -0.04994 0.23367
 N1085 N 0.21141 0.43298 0.20483
 N1086 N 0.21840 0.43842 0.22943
 N1087 N 0.25159 -0.07251 0.70357
 N1088 N 0.23954 -0.04931 0.71255
 N1089 N 0.26218 0.28126 0.43534
 N1090 N 0.27663 0.27295 0.45621
 N1091 N 0.28224 0.79064 -0.05937
 N1092 N 0.29301 0.77483 -0.04036
 N1093 N 0.78408 0.28999 -0.06376
 N1094 N 0.77909 0.26277 -0.06254
 N1095 N 0.78048 0.76155 0.42399
 N1096 N 0.76433 0.77450 0.44155
 N1097 N 0.72603 0.27874 0.58577
 N1098 N 0.73499 0.29083 0.56375
 N1099 N 0.73920 0.79536 1.06945
 N1100 N 0.72493 0.78840 1.04823
 N1101 N 0.22055 0.25401 1.07199
 N1102 N 0.23127 0.26917 1.05249
 N1103 N 0.23253 0.76781 0.55509
 N1104 N 0.21789 0.76257 0.53367
 N1105 N 0.28940 0.71015 0.54362
 N1106 N 0.26380 0.71929 0.53795
 N1107 N 0.28127 0.23234 1.07313
 N1108 N 0.26992 0.21681 1.05460
 N1109 N 0.77948 0.71919 1.05369
 N1110 N 0.77227 0.74602 1.05190
 N1111 N 0.76217 0.20972 0.57719
 N1112 N 0.76557 0.23577 0.56879
 N1113 N 0.72917 0.72666 0.42416
 N1114 N 0.74023 0.71509 0.44552
 N1115 N 0.74620 0.21567 -0.08335
 N1116 N 0.73243 0.22027 -0.06103
 N1117 N 0.21368 0.74687 -0.06135
 N1118 N 0.23986 0.74555 -0.05289
 N1119 N 0.23845 0.22358 0.44157
 N1120 N 0.22374 0.23597 0.46050
 N1121 N 0.26090 0.43942 0.74328
 N1122 N 0.24363 0.45755 0.73175
 N1123 N 0.27929 0.94153 0.21071
 N1124 N 0.27857 0.94547 0.23648
 N1125 N 0.78273 0.40933 0.22780
 N1126 N 0.77085 0.43055 0.21497
 N1127 N 0.76050 0.93421 0.71497
 N1128 N 0.77332 0.95160 0.73102
 N1129 N 0.73885 0.57569 0.71359
 N1130 N 0.74264 0.56897 0.73864
 N1131 N 0.72968 0.07900 0.22887
 N1132 N 0.73887 0.05468 0.21962
 N1133 N 0.20072 0.54784 0.20762
 N1134 N 0.22656 0.54484 0.21672
 N1135 N 0.25136 0.06504 0.71221
 N1136 N 0.25122 0.05328 0.73592
 N1137 N 0.25960 0.56792 0.26015
 N1138 N 0.27395 0.54450 0.25566
 N1139 N 0.28284 0.05518 0.78834
 N1140 N 0.29725 0.03755 0.77331
 N1141 N 0.79141 0.57884 0.77262
 N1142 N 0.77904 0.55767 0.78486
 N1143 N 0.75330 0.06969 0.30170
 N1144 N 0.75437 0.06285 0.27650
 N1145 N 0.73808 0.42519 0.29277
 N1146 N 0.74290 0.42900 0.26730
 N1147 N 0.70131 0.92427 0.77074
 N1148 N 0.72697 0.93423 0.76793
 N1149 N 0.20644 0.43203 0.77247
 N1150 N 0.21431 0.45444 0.78558
 N1151 N 0.23017 0.92453 0.26896
 N1152 N 0.24325 0.94187 0.28488
 N1153 N 0.43389 0.29168 0.71522
 N1154 N 0.43957 0.28425 0.73979
 N1155 N 0.44878 0.78196 0.22353
 N1156 N 0.45378 0.75487 0.22711
 N1157 N 0.93628 0.24555 0.20788
 N1158 N 0.94118 0.24300 0.23344
 N1159 N 0.94566 0.80829 0.69967
 N1160 N 0.94864 0.78419 0.71244
 N1161 N 0.57990 0.26869 0.27237
 N1162 N 0.55835 0.25649 0.28425
 N1163 N 0.54360 0.76328 0.79170
 N1164 N 0.54146 0.75806 0.76623
 N1165 N 0.06764 0.25815 0.79691
 N1166 N 0.05919 0.25690 0.77220
 N1167 N 0.04856 0.78850 0.27173
 N1168 N 0.04505 0.78207 0.24665
 N1169 N 0.56829 0.72091 0.72823
 N1170 N 0.54658 0.73019 0.71442
 N1171 N 0.56783 0.23291 0.20483
 N1172 N 0.56222 0.23240 0.23041
 N1173 N 0.04398 0.71206 0.20042
 N1174 N 0.04176 0.73922 0.20522
 N1175 N 0.07408 0.20948 0.73982
 N1176 N 0.05034 0.21668 0.72806
 N1177 N 0.44883 0.70105 0.29047
 N1178 N 0.45382 0.70918 0.26590
 N1179 N 0.44497 0.21417 0.78790
 N1180 N 0.44580 0.24082 0.78052
 N1181 N 0.94081 0.74764 0.78648
 N1182 N 0.94618 0.75064 0.76098
 N1183 N 0.92271 0.21036 0.27750
 N1184 N 0.94547 0.22076 0.28843
 N1185 N 0.26151 0.29129 0.57500
 N1186 N 0.27727 0.28215 0.55516
 N1187 N 0.29564 0.76683 0.06697
 N1188 N 0.27013 0.76857 0.05700
 N1189 N 0.76774 0.26789 0.05832
 N1190 N 0.78286 0.26118 0.03727
 N1191 N 0.77559 0.76861 0.56083
 N1192 N 0.76227 0.78106 0.54105
 N1193 N 0.26304 0.71762 0.41527
 N1194 N 0.27579 0.72041 0.43817
 N1195 N 0.27708 0.22657 0.93416
 N1196 N 0.26896 0.21243 0.95539
 N1197 N 0.76756 0.73431 0.93265
 N1198 N 0.78157 0.74535 0.95236
 N1199 N 0.77993 0.23707 0.45148
 N1200 N 0.76406 0.22470 0.46958
 N1201 N 0.71993 0.26345 0.44721
 N1202 N 0.73120 0.27981 0.46514
 N1203 N 0.70357 0.78855 0.94416
 N1204 N 0.73040 0.78220 0.94779
 N1205 N 0.22704 0.29051 0.94753
 N1206 N 0.23286 0.26389 0.95282
 N1207 N 0.20161 0.77159 0.42985
 N1208 N 0.22735 0.76182 0.43395
 N1209 N 0.71929 0.73913 0.56122
 N1210 N 0.73374 0.72388 0.54402
 N1211 N 0.72232 0.19823 0.04312
 N1212 N 0.73264 0.22351 0.03888
 N1213 N 0.23050 0.72239 0.06654
 N1214 N 0.21907 0.73447 0.04555
 N1215 N 0.20706 0.22799 0.56502
 N1216 N 0.23174 0.23947 0.56009
   
