data_POSCAR
  _audit_creation_date              2014-09-24
  _audit_creation_method            'ToBaCCo'
  _symmetry_space_group_name_H-M    'P1'
  _symmetry_Int_Tables_number       1
  _symmetry_cell_setting            triclinic
  loop_
  _symmetry_equiv_pos_as_xyz
 x,y,z
_cell_length_a 46.6074
_cell_length_b 46.6173
_cell_length_c 40.9928
_cell_angle_alpha 90.042100
_cell_angle_beta 89.996300
_cell_angle_gamma 89.987400
loop_
  _atom_site_label
  _atom_site_type_symbol
  _atom_site_fract_x
  _atom_site_fract_y
  _atom_site_fract_z
C1 C -0.06224 0.30863 -0.02510
 C2 C -0.07511 0.30717 0.00590
 C3 C -0.05920 0.30392 0.03478
 C4 C -0.02877 0.30286 0.03262
 C5 C -0.01511 0.30347 0.00158
 C6 C -0.03179 0.30656 -0.02727
 C7 C -0.01729 0.30892 -0.05730
 C8 C 0.01236 0.30637 -0.05935
 C9 C 0.02931 0.30162 -0.03146
 C10 C 0.01545 0.30140 -0.00054
 C11 C -0.01145 0.30247 0.06078
 C12 C 0.01818 0.30078 0.05868
 C13 C 0.03209 0.29948 0.02836
 C14 C 0.06227 0.29719 0.02639
 C15 C 0.07549 0.29654 -0.00420
 C16 C 0.05974 0.29849 -0.03344
 H17 H -0.02835 0.31353 -0.07981
 H18 H 0.02165 0.30926 -0.08324
 H19 H -0.02029 0.30437 0.08502
 H20 H 0.03005 0.30101 0.08135
 H21 H -0.09817 0.30539 0.00723
 H22 H 0.09828 0.29223 -0.00483
 C23 C 0.44207 0.79730 0.52481
 C24 C 0.42669 0.79688 0.49544
 C25 C 0.44048 0.79859 0.46512
 C26 C 0.47082 0.80026 0.46398
 C27 C 0.48678 0.80079 0.49345
 C28 C 0.47234 0.79994 0.52392
 C29 C 0.48856 0.80211 0.55273
 C30 C 0.51833 0.80347 0.55178
 C31 C 0.53324 0.80254 0.52198
 C32 C 0.51731 0.80184 0.49248
 C33 C 0.48566 0.80179 0.43414
 C34 C 0.51549 0.80244 0.43319
 C35 C 0.53181 0.80186 0.46204
 C36 C 0.56219 0.80168 0.46123
 C37 C 0.57752 0.80207 0.49068
 C38 C 0.56361 0.80267 0.52094
 H39 H 0.47847 0.80320 0.57645
 H40 H 0.52944 0.80546 0.57483
 H41 H 0.47442 0.80264 0.41109
 H42 H 0.52557 0.80374 0.40947
 H43 H 0.40372 0.79341 0.49607
 H44 H 0.60067 0.80015 0.49011
 C45 C 1.06159 0.70779 -0.03095
 C46 C 1.07590 0.70687 -0.00101
 C47 C 1.06112 0.70507 0.02892
 C48 C 1.03048 0.70404 0.02831
 C49 C 1.01565 0.70582 -0.00198
 C50 C 1.03131 0.70723 -0.03157
 C51 C 1.01629 0.70725 -0.06124
 C52 C 0.98656 0.70770 -0.06198
 C53 C 0.97028 0.70838 -0.03302
 C54 C 0.98502 0.70604 -0.00276
 C55 C 1.01412 0.70015 0.05690
 C56 C 0.98430 0.70006 0.05608
 C57 C 0.96927 0.70376 0.02669
 C58 C 0.93891 0.70450 0.02598
 C59 C 0.92475 0.70777 -0.00394
 C60 C 0.93976 0.71011 -0.03361
 H61 H 1.02730 0.70648 -0.08445
 H62 H 0.97676 0.70671 -0.08582
 H63 H 1.02385 0.69633 0.08037
 H64 H 0.97324 0.69661 0.07893
 H65 H 1.09890 0.70984 -0.00139
 H66 H 0.90180 0.71095 -0.00336
 C67 C 0.55833 0.20880 0.53959
 C68 C 0.57426 0.21283 0.51098
 C69 C 0.56092 0.21480 0.48046
 C70 C 0.53067 0.21274 0.47840
 C71 C 0.51417 0.20911 0.50719
 C72 C 0.52806 0.20676 0.53786
 C73 C 0.51125 0.20321 0.56604
 C74 C 0.48143 0.20237 0.56423
 C75 C 0.46711 0.20539 0.53420
 C76 C 0.48368 0.20827 0.50533
 C77 C 0.51650 0.21375 0.44815
 C78 C 0.48677 0.21269 0.44630
 C79 C 0.46986 0.21073 0.47463
 C80 C 0.43953 0.21083 0.47291
 C81 C 0.42349 0.20809 0.50165
 C82 C 0.43673 0.20543 0.53224
 H83 H 0.52095 0.20127 0.58991
 H84 H 0.46979 0.19923 0.58677
 H85 H 0.52820 0.21513 0.42542
 H86 H 0.47728 0.21323 0.42224
 H87 H 0.59737 0.21498 0.51265
 H88 H 0.40034 0.20983 0.50035
 C89 C 0.70265 0.05970 0.03456
 C90 C 0.70183 0.07484 0.00516
 C91 C 0.70008 0.06090 -0.02527
 C92 C 0.69883 0.03027 -0.02577
 C93 C 0.69969 0.01457 0.00399
 C94 C 0.70131 0.02944 0.03411
 C95 C 0.70091 0.01372 0.06327
 C96 C 0.70059 -0.01600 0.06306
 C97 C 0.70080 -0.03160 0.03362
 C98 C 0.69904 -0.01612 0.00372
 C99 C 0.69588 0.01478 -0.05505
 C100 C 0.69534 -0.01499 -0.05540
 C101 C 0.69685 -0.03113 -0.02640
 C102 C 0.69751 -0.06168 -0.02670
 C103 C 0.69954 -0.07632 0.00318
 C104 C 0.70139 -0.06212 0.03335
 H105 H 0.70042 0.02421 0.08682
 H106 H 0.69944 -0.02627 0.08660
 H107 H 0.69358 0.02519 -0.07839
 H108 H 0.69402 -0.02482 -0.07915
 H109 H 0.70507 0.09779 0.00625
 H110 H 0.69998 -0.09944 0.00278
 C111 C 0.19446 0.42858 0.53120
 C112 C 0.19356 0.41333 0.50173
 C113 C 0.19388 0.42729 0.47156
 C114 C 0.19561 0.45757 0.47052
 C115 C 0.19684 0.47342 0.50008
 C116 C 0.19582 0.45893 0.53049
 C117 C 0.19580 0.47521 0.55938
 C118 C 0.19788 0.50498 0.55853
 C119 C 0.20046 0.51974 0.52876
 C120 C 0.19958 0.50382 0.49922
 C121 C 0.19701 0.47236 0.44071
 C122 C 0.19994 0.50202 0.43987
 C123 C 0.20177 0.51817 0.46880
 C124 C 0.20556 0.54828 0.46805
 C125 C 0.20621 0.56365 0.49742
 C126 C 0.20351 0.54997 0.52771
 H127 H 0.19384 0.46516 0.58305
 H128 H 0.19736 0.51622 0.58160
 H129 H 0.19623 0.46116 0.41761
 H130 H 0.20059 0.51210 0.41613
 H131 H 0.19318 0.39009 0.50213
 H132 H 0.21049 0.58649 0.49681
 C133 C 0.29509 0.92935 0.02538
 C134 C 0.29778 0.91464 -0.00421
 C135 C 0.29929 0.92899 -0.03438
 C136 C 0.29821 0.95960 -0.03442
 C137 C 0.29462 0.97481 -0.00459
 C138 C 0.29340 0.95961 0.02535
 C139 C 0.29112 0.97512 0.05466
 C140 C 0.28895 1.00481 0.05463
 C141 C 0.28906 1.02037 0.02531
 C142 C 0.29247 1.00537 -0.00461
 C143 C 0.30190 0.97564 -0.06321
 C144 C 0.29987 1.00537 -0.06322
 C145 C 0.29399 1.02083 -0.03445
 C146 C 0.29094 1.05129 -0.03444
 C147 C 0.28742 1.06541 -0.00435
 C148 C 0.28656 1.05058 0.02530
 H149 H 0.29136 0.96457 0.07814
 H150 H 0.28760 1.01538 0.07807
 H151 H 0.30731 0.96574 -0.08620
 H152 H 0.30391 1.01586 -0.08622
 H153 H 0.29642 0.89151 -0.00346
 H154 H 0.28309 1.08820 -0.00375
 C155 C 0.80346 0.56118 0.48061
 C156 C 0.80150 0.57484 0.51096
 C157 C 0.80080 0.55937 0.54027
 C158 C 0.80214 0.52905 0.53932
 C159 C 0.80338 0.51474 0.50878
 C160 C 0.80409 0.53082 0.47936
 C161 C 0.80577 0.51606 0.44949
 C162 C 0.80514 0.48627 0.44838
 C163 C 0.80333 0.46991 0.47710
 C164 C 0.80355 0.48423 0.50764
 C165 C 0.80247 0.51264 0.56811
 C166 C 0.80315 0.48281 0.56698
 C167 C 0.80345 0.46813 0.53701
 C168 C 0.80278 0.43780 0.53561
 C169 C 0.80157 0.42406 0.50527
 C170 C 0.80169 0.43960 0.47603
 H171 H 0.80764 0.52728 0.42653
 H172 H 0.80651 0.47623 0.42463
 H173 H 0.80236 0.52268 0.59191
 H174 H 0.80297 0.47139 0.58994
 H175 H 0.79892 0.59793 0.51165
 H176 H 0.79992 0.40088 0.50456
 O177 O 0.25568 0.28388 0.19916
 O178 O 0.30162 0.25102 0.26242
 O179 O 0.29004 0.23990 0.20140
 O180 O 0.26972 0.29619 0.25938
 O181 O 0.23326 0.26993 0.27653
 O182 O 0.25334 0.21337 0.21724
 O183 O 0.26513 0.22425 0.27838
 O184 O 0.21927 0.25761 0.21630
 Cu185 Cu 0.28288 0.27038 0.22884
 Cu186 Cu 0.23906 0.23865 0.24871
 C187 C 0.22959 0.27617 0.19695
 C188 C 0.29100 0.23224 0.28140
 C189 C 0.27521 0.21720 0.19918
 C190 C 0.24850 0.29253 0.27825
 O191 O 0.79264 0.74148 0.29660
 O192 O 0.77533 0.79964 0.23846
 O193 O 0.75821 0.78539 0.29671
 O194 O 0.81091 0.75655 0.23884
 O195 O 0.77734 0.72984 0.21601
 O196 O 0.72446 0.75825 0.27489
 O197 O 0.74149 0.77265 0.21658
 O198 O 0.75814 0.71385 0.27313
 Cu199 Cu 0.78757 0.77336 0.26978
 Cu200 Cu 0.74713 0.74107 0.24294
 C201 C 0.77830 0.71640 0.29612
 C202 C 0.75542 0.79602 0.21768
 C203 C 0.73246 0.77670 0.29585
 C204 C 0.80315 0.73857 0.21738
 O205 O 0.79150 0.24808 0.22941
 O206 O 0.74424 0.21829 0.29320
 O207 O 0.75118 0.20934 0.23063
 O208 O 0.78480 0.25634 0.29179
 O209 O 0.75271 0.28989 0.28096
 O210 O 0.71898 0.24279 0.21990
 O211 O 0.71216 0.25181 0.28232
 O212 O 0.75913 0.28137 0.21868
 Cu213 Cu 0.77113 0.22958 0.26225
 Cu214 Cu 0.73248 0.26979 0.24939
 C215 C 0.78330 0.26982 0.21319
 C216 C 0.72027 0.23026 0.29886
 C217 C 0.72951 0.21810 0.21469
 C218 C 0.77439 0.28109 0.29688
 O219 O 0.21862 0.74064 0.22289
 O220 O 0.27339 0.76583 0.28143
 O221 O 0.26085 0.77683 0.22079
 O222 O 0.22988 0.73091 0.28438
 O223 O 0.25889 0.69568 0.26985
 O224 O 0.28923 0.74150 0.20507
 O225 O 0.30214 0.73078 0.26568
 O226 O 0.24721 0.70497 0.20863
 Cu227 Cu 0.24278 0.75708 0.25392
 Cu228 Cu 0.27724 0.71467 0.23583
 C229 C 0.22377 0.71852 0.20568
 C230 C 0.29715 0.75252 0.28338
 C231 C 0.28010 0.76702 0.20193
 C232 C 0.23920 0.70558 0.28814
 O233 O 0.69070 0.27758 0.75951
 O234 O 0.75494 0.29331 0.80895
 O235 O 0.73293 0.31281 0.75468
 O236 O 0.71115 0.25895 0.81498
 O237 O 0.73524 0.22550 0.78838
 O238 O 0.75749 0.27992 0.72769
 O239 O 0.77904 0.26005 0.78207
 O240 O 0.71493 0.24424 0.73287
 Cu241 Cu 0.72007 0.28892 0.78738
 Cu242 Cu 0.74915 0.24906 0.75515
 C243 C 0.69208 0.25856 0.73737
 C244 C 0.77793 0.27930 0.80392
 C245 C 0.74845 0.30554 0.73066
 C246 C 0.71938 0.23314 0.81209
 O247 O 0.29238 0.74607 0.72194
 O248 O 0.24682 0.71520 0.78635
 O249 O 0.26106 0.70007 0.72714
 O250 O 0.27810 0.76100 0.78107
 O251 O 0.24087 0.78481 0.76166
 O252 O 0.22388 0.72390 0.70763
 O253 O 0.20963 0.73907 0.76691
 O254 O 0.25519 0.76994 0.70252
 Cu255 Cu 0.27333 0.72817 0.75602
 Cu256 Cu 0.22864 0.75676 0.73268
 C257 C 0.28154 0.76320 0.70123
 C258 C 0.22053 0.72218 0.78783
 C259 C 0.23967 0.70168 0.70805
 C260 C 0.26224 0.78317 0.78077
 O261 O 0.18197 0.21588 0.75363
 O262 O 0.23593 0.19270 0.69320
 O263 O 0.22181 0.17681 0.75216
 O264 O 0.19548 0.23118 0.69454
 O265 O 0.22659 0.26248 0.71418
 O266 O 0.25225 0.20829 0.77274
 O267 O 0.26683 0.22376 0.71369
 O268 O 0.21275 0.24753 0.77320
 Cu269 Cu 0.20575 0.20096 0.72135
 Cu270 Cu 0.24276 0.23862 0.74543
 C271 C 0.18820 0.23570 0.77369
 C272 C 0.26054 0.20439 0.69310
 C273 C 0.24121 0.18337 0.77255
 C274 C 0.20656 0.25603 0.69446
 O275 O 0.75385 0.79889 0.69847
 O276 O 0.79843 0.76812 0.76434
 O277 O 0.78935 0.75593 0.70333
 O278 O 0.76570 0.81256 0.75900
 O279 O 0.72916 0.78582 0.77495
 O280 O 0.75309 0.72854 0.71860
 O281 O 0.76187 0.74115 0.77968
 O282 O 0.71766 0.77181 0.71452
 Cu283 Cu 0.78040 0.78663 0.72959
 Cu284 Cu 0.73670 0.75416 0.74834
 C285 C 0.72809 0.79039 0.69529
 C286 C 0.78752 0.74955 0.78339
 C287 C 0.77551 0.73260 0.70151
 C288 C 0.74394 0.80870 0.77698
 C289 C 0.28080 0.06709 0.05566
 C290 C 0.29373 0.09364 0.06152
 C291 C 0.28696 0.11265 0.08953
 C292 C 0.29660 0.14114 0.08834
 C293 C 0.29056 0.16022 0.11368
 C294 C 0.27497 0.15114 0.14119
 C295 C 0.26522 0.12268 0.14242
 C296 C 0.27127 0.10352 0.11700
 C297 C 0.26777 0.17107 0.16821
 C298 C 0.28369 0.19576 0.17471
 H299 H 0.30909 0.10147 0.04378
 H300 H 0.30854 0.14884 0.06742
 H301 H 0.29762 0.18219 0.11112
 H302 H 0.25305 0.11519 0.16326
 H303 H 0.26379 0.08170 0.11930
 H304 H 0.24959 0.16598 0.18364
 H305 H 0.26552 0.05841 0.07281
 H306 H 0.30302 0.20012 0.16097
 C307 C 0.79594 0.57537 0.57112
 C308 C 0.80857 0.60210 0.57663
 C309 C 0.79976 0.62221 0.60275
 C310 C 0.80707 0.65121 0.59921
 C311 C 0.79832 0.67146 0.62219
 C312 C 0.78238 0.66309 0.64973
 C313 C 0.77512 0.63406 0.65343
 C314 C 0.78382 0.61372 0.63029
 C315 C 0.77243 0.68424 0.67428
 C316 C 0.78601 0.71059 0.67885
 H317 H 0.82422 0.60974 0.55912
 H318 H 0.81909 0.65839 0.57811
 H319 H 0.80353 0.69371 0.61769
 H320 H 0.76279 0.62707 0.67437
 H321 H 0.77814 0.59153 0.63429
 H322 H 0.75432 0.67867 0.68959
 H323 H 0.78064 0.56676 0.58830
 H324 H 0.80538 0.71556 0.66549
 C325 C 0.70565 0.92157 0.06220
 C326 C 0.69752 0.89277 0.06559
 C327 C 0.70489 0.87487 0.09422
 C328 C 0.72899 0.88043 0.11390
 C329 C 0.73623 0.86188 0.13945
 C330 C 0.71952 0.83734 0.14580
 C331 C 0.69541 0.83202 0.12618
 C332 C 0.68825 0.85047 0.10065
 C333 C 0.72679 0.81606 0.17141
 C334 C 0.74869 0.81915 0.19445
 H335 H 0.68351 0.88314 0.04760
 H336 H 0.74286 0.89853 0.10904
 H337 H 0.75527 0.86664 0.15345
 H338 H 0.68219 0.81325 0.13034
 H339 H 0.66973 0.84553 0.08570
 H340 H 0.71418 0.79654 0.17193
 H341 H 0.71536 0.93155 0.08319
 H342 H 0.76135 0.83852 0.19569
 C343 C 0.19646 0.41220 0.56215
 C344 C 0.18120 0.38678 0.56703
 C345 C 0.18680 0.36664 0.59419
 C346 C 0.17866 0.33788 0.59031
 C347 C 0.18493 0.31760 0.61431
 C348 C 0.19917 0.32578 0.64313
 C349 C 0.20679 0.35468 0.64732
 C350 C 0.20058 0.37498 0.62322
 C351 C 0.20757 0.30474 0.66850
 C352 C 0.19603 0.27718 0.67076
 H353 H 0.16599 0.38012 0.54852
 H354 H 0.16809 0.33088 0.56814
 H355 H 0.17928 0.29553 0.60953
 H356 H 0.21772 0.36158 0.66929
 H357 H 0.20656 0.39705 0.62758
 H358 H 0.22358 0.31128 0.68619
 H359 H 0.21169 0.41946 0.58022
 H360 H 0.17885 0.27053 0.65476
 C361 C 0.92616 0.29920 0.06464
 C362 C 0.89775 0.30760 0.07052
 C363 C 0.88147 0.29891 0.09989
 C364 C 0.85849 0.31602 0.11032
 C365 C 0.84156 0.30769 0.13680
 C366 C 0.84692 0.28162 0.15305
 C367 C 0.87021 0.26473 0.14286
 C368 C 0.88726 0.27317 0.11649
 C369 C 0.82877 0.27112 0.18030
 C370 C 0.80151 0.28192 0.18737
 H371 H 0.88731 0.32240 0.05399
 H372 H 0.85361 0.33595 0.09791
 H373 H 0.82446 0.32188 0.14427
 H374 H 0.87488 0.24458 0.15491
 H375 H 0.90433 0.25905 0.10862
 H376 H 0.83663 0.25313 0.19443
 H377 H 0.93713 0.28854 0.08437
 H378 H 0.79249 0.29920 0.17312
 C379 C 0.42648 0.79169 0.55579
 C380 C 0.39860 0.80145 0.56153
 C381 C 0.38146 0.79312 0.59048
 C382 C 0.35743 0.80967 0.59896
 C383 C 0.34003 0.80186 0.62529
 C384 C 0.34619 0.77703 0.64350
 C385 C 0.37039 0.76068 0.63525
 C386 C 0.38772 0.76844 0.60890
 C387 C 0.32809 0.76739 0.67108
 C388 C 0.29940 0.77526 0.67503
 H389 H 0.38904 0.81626 0.54431
 H390 H 0.35210 0.82876 0.58516
 H391 H 0.32202 0.81547 0.63136
 H392 H 0.37559 0.74144 0.64883
 H393 H 0.40547 0.75455 0.60270
 H394 H 0.33723 0.75191 0.68784
 H395 H 0.43722 0.77914 0.57426
 H396 H 0.28916 0.78945 0.65773
 C397 C 0.07677 0.70660 0.05857
 C398 C 0.10611 0.70033 0.06125
 C399 C 0.12339 0.70548 0.09105
 C400 C 0.15003 0.69173 0.09388
 C401 C 0.16797 0.69716 0.12044
 C402 C 0.15960 0.71655 0.14503
 C403 C 0.13294 0.73036 0.14218
 C404 C 0.11501 0.72497 0.11550
 C405 C 0.17866 0.72418 0.17272
 C406 C 0.20295 0.70839 0.18134
 H407 H 0.11695 0.68977 0.04123
 H408 H 0.15725 0.67699 0.07514
 H409 H 0.18863 0.68669 0.12084
 H410 H 0.12614 0.74573 0.16045
 H411 H 0.09510 0.73678 0.11377
 H412 H 0.17366 0.74340 0.18649
 H413 H 0.06588 0.71280 0.08064
 H414 H 0.20783 0.68841 0.16917
 C415 C 0.57398 0.20765 0.57096
 C416 C 0.59223 0.22995 0.58008
 C417 C 0.60923 0.22992 0.61048
 C418 C 0.61680 0.25626 0.62461
 C419 C 0.63448 0.25720 0.65210
 C420 C 0.64533 0.23173 0.66570
 C421 C 0.63782 0.20537 0.65155
 C422 C 0.61969 0.20440 0.62435
 C423 C 0.66650 0.23240 0.69256
 C424 C 0.66725 0.25426 0.71579
 H425 H 0.59326 0.24882 0.56468
 H426 H 0.60929 0.27620 0.61407
 H427 H 0.64055 0.27793 0.66179
 H428 H 0.64632 0.18552 0.66130
 H429 H 0.61482 0.18379 0.61351
 H430 H 0.68247 0.21552 0.69351
 H431 H 0.57003 0.18998 0.58747
 H432 H 0.64989 0.26966 0.71706
 C433 C 0.70188 0.07747 0.94577
 C434 C 0.69463 0.10663 0.94412
 C435 C 0.69971 0.12479 0.91505
 C436 C 0.68287 0.14942 0.91076
 C437 C 0.68820 0.16827 0.88499
 C438 C 0.71101 0.16319 0.86322
 C439 C 0.72743 0.13815 0.86704
 C440 C 0.72196 0.11916 0.89275
 C441 C 0.71849 0.18359 0.83672
 C442 C 0.71036 0.21243 0.83712
 H443 H 0.68317 0.11644 0.96420
 H444 H 0.66552 0.15417 0.92752
 H445 H 0.67430 0.18667 0.88237
 H446 H 0.74505 0.13363 0.85057
 H447 H 0.73579 0.10071 0.89568
 H448 H 0.73234 0.17609 0.81726
 H449 H 0.70884 0.06756 0.92336
 H450 H 0.69787 0.22083 0.85718
 C451 C 0.21167 0.56368 0.43715
 C452 C 0.20107 0.59112 0.43075
 C453 C 0.20929 0.60817 0.40174
 C454 C 0.20599 0.63806 0.40290
 C455 C 0.21439 0.65515 0.37660
 C456 C 0.22595 0.64260 0.34828
 C457 C 0.22889 0.61267 0.34692
 C458 C 0.22046 0.59557 0.37322
 C459 C 0.23622 0.65999 0.32040
 C460 C 0.22710 0.68801 0.31449
 H461 H 0.18726 0.60120 0.44868
 H462 H 0.19747 0.64831 0.42457
 H463 H 0.21245 0.67816 0.37906
 H464 H 0.23768 0.60247 0.32537
 H465 H 0.22257 0.57258 0.37086
 H466 H 0.25127 0.65017 0.30362
 H467 H 0.22589 0.55345 0.41990
 H468 H 0.21065 0.69763 0.32954
 C469 C 0.29945 0.91277 0.93629
 C470 C 0.30771 0.88387 0.93436
 C471 C 0.30397 0.86580 0.90488
 C472 C 0.28387 0.87233 0.88038
 C473 C 0.27968 0.85364 0.85407
 C474 C 0.29526 0.82781 0.85188
 C475 C 0.31563 0.82165 0.87610
 C476 C 0.31984 0.84032 0.90233
 C477 C 0.29057 0.80630 0.82566
 C478 C 0.26799 0.80713 0.80325
 H479 H 0.31867 0.87408 0.95478
 H480 H 0.27068 0.89137 0.88178
 H481 H 0.26400 0.85960 0.83591
 H482 H 0.32801 0.80199 0.87511
 H483 H 0.33535 0.83465 0.92093
 H484 H 0.30476 0.78788 0.82517
 H485 H 0.29295 0.92286 0.91385
 H486 H 0.25306 0.82483 0.80295
 C487 C 0.79731 0.42407 0.44485
 C488 C 0.80986 0.39746 0.43838
 C489 C 0.80298 0.38008 0.40914
 C490 C 0.80804 0.35043 0.41010
 C491 C 0.80040 0.33294 0.38380
 C492 C 0.78780 0.34490 0.35574
 C493 C 0.78338 0.37463 0.35446
 C494 C 0.79109 0.39212 0.38071
 C495 C 0.77752 0.32701 0.32831
 C496 C 0.78741 0.29930 0.32211
 H497 H 0.82407 0.38820 0.45643
 H498 H 0.81720 0.34062 0.43168
 H499 H 0.80357 0.31006 0.38610
 H500 H 0.77380 0.38436 0.33308
 H501 H 0.78771 0.41496 0.37843
 H502 H 0.76145 0.33612 0.31225
 H503 H 0.78274 0.43350 0.42741
 H504 H 0.80491 0.29042 0.33620
 C505 C 0.07413 0.29500 0.93631
 C506 C 0.10365 0.29943 0.93198
 C507 C 0.11944 0.29167 0.90188
 C508 C 0.10960 0.27045 0.88019
 C509 C 0.12620 0.26230 0.85327
 C510 C 0.15312 0.27510 0.84759
 C511 C 0.16266 0.29651 0.86912
 C512 C 0.14610 0.30459 0.89598
 C513 C 0.17246 0.26641 0.82053
 C514 C 0.16672 0.24463 0.79800
 H515 H 0.11578 0.31031 0.95079
 H516 H 0.08954 0.25939 0.88439
 H517 H 0.11789 0.24566 0.83758
 H518 H 0.18327 0.30675 0.86547
 H519 H 0.15432 0.32083 0.91243
 H520 H 0.19294 0.27733 0.81887
 H521 H 0.06207 0.28858 0.91509
 H522 H 0.14654 0.23327 0.79825
 C523 C 0.57837 0.79807 0.43026
 C524 C 0.60498 0.81110 0.42512
 C525 C 0.62441 0.80377 0.39777
 C526 C 0.65381 0.80922 0.40149
 C527 C 0.67330 0.80143 0.37719
 C528 C 0.66371 0.78841 0.34817
 C529 C 0.63421 0.78338 0.34421
 C530 C 0.61469 0.79107 0.36865
 C531 C 0.68380 0.77879 0.32228
 C532 C 0.71214 0.78825 0.31994
 H533 H 0.61299 0.82578 0.44349
 H534 H 0.66186 0.81887 0.42373
 H535 H 0.69582 0.80503 0.38186
 H536 H 0.62623 0.77341 0.32212
 H537 H 0.59214 0.78715 0.36444
 H538 H 0.67592 0.76366 0.30430
 H539 H 0.56990 0.78332 0.41234
 H540 H 0.72017 0.80453 0.33634
 C541 C 0.92475 0.71653 0.93723
 C542 C 0.89552 0.71111 0.93195
 C543 C 0.87997 0.71967 0.90189
 C544 C 0.84989 0.72080 0.90282
 C545 C 0.83421 0.72908 0.87536
 C546 C 0.84833 0.73619 0.84614
 C547 C 0.87835 0.73498 0.84507
 C548 C 0.89406 0.72652 0.87248
 C549 C 0.83243 0.74588 0.81692
 C550 C 0.80416 0.73783 0.81072
 H551 H 0.88312 0.70000 0.95030
 H552 H 0.83846 0.71568 0.92508
 H553 H 0.81112 0.73054 0.87742
 H554 H 0.88970 0.74032 0.82282
 H555 H 0.91709 0.72507 0.87008
 H556 H 0.84354 0.75931 0.79943
 H557 H 0.93633 0.72698 0.91791
 H558 H 0.79351 0.72268 0.82663
 C559 C 0.42435 0.21660 0.44177
 C560 C 0.39908 0.20256 0.43289
 C561 C 0.38338 0.20883 0.40228
 C562 C 0.35399 0.20258 0.40061
 C563 C 0.33820 0.20900 0.37255
 C564 C 0.35166 0.22147 0.34527
 C565 C 0.38118 0.22721 0.34674
 C566 C 0.39696 0.22080 0.37481
 C567 C 0.33551 0.23020 0.31572
 C568 C 0.30821 0.21997 0.30802
 H569 H 0.38985 0.18708 0.44957
 H570 H 0.34305 0.19330 0.42140
 H571 H 0.31539 0.20487 0.37289
 H572 H 0.39209 0.23675 0.32609
 H573 H 0.41975 0.22508 0.37464
 H574 H 0.34543 0.24571 0.29959
 H575 H 0.43320 0.23284 0.42590
 H576 H 0.29837 0.20337 0.32262
 C577 C 0.69639 0.92214 0.94402
 C578 C 0.70993 0.89550 0.94055
 C579 C 0.71025 0.87943 0.90960
 C580 C 0.73543 0.86502 0.90065
 C581 C 0.73653 0.84920 0.87183
 C582 C 0.71223 0.84695 0.85174
 C583 C 0.68672 0.86068 0.86106
 C584 C 0.68583 0.87721 0.88962
 C585 C 0.71341 0.82944 0.82179
 C586 C 0.73739 0.83055 0.80162
 H587 H 0.72419 0.88790 0.95953
 H588 H 0.75437 0.86619 0.91592
 H589 H 0.75626 0.83821 0.86557
 H590 H 0.66767 0.85885 0.84607
 H591 H 0.66597 0.88767 0.89644
 H592 H 0.69579 0.81512 0.81617
 H593 H 0.68659 0.93094 0.92239
 H594 H 0.75341 0.84699 0.80586
 C595 C 0.19323 0.40950 0.44159
 C596 C 0.21264 0.38704 0.43740
 C597 C 0.21377 0.36904 0.40778
 C598 C 0.24023 0.35750 0.39822
 C599 C 0.24216 0.33991 0.37075
 C600 C 0.21751 0.33310 0.35258
 C601 C 0.19087 0.34402 0.36257
 C602 C 0.18902 0.36215 0.38977
 C603 C 0.21934 0.31374 0.32408
 C604 C 0.24290 0.31446 0.30318
 H605 H 0.22906 0.38381 0.45578
 H606 H 0.25950 0.36219 0.41200
 H607 H 0.26288 0.33112 0.36419
 H608 H 0.17156 0.33867 0.34919
 H609 H 0.16819 0.37017 0.39710
 H610 H 0.20194 0.29888 0.31945
 H611 H 0.17864 0.41514 0.42209
 H612 H 0.25877 0.33125 0.30612
 C613 C 0.28908 0.06726 0.93622
 C614 C 0.29384 0.09689 0.93409
 C615 C 0.28802 0.11372 0.90420
 C616 C 0.26701 0.10532 0.88153
 C617 C 0.26079 0.12252 0.85454
 C618 C 0.27548 0.14857 0.84958
 C619 C 0.29647 0.15684 0.87228
 C620 C 0.30259 0.13968 0.89935
 C621 C 0.26863 0.16841 0.82235
 C622 C 0.25024 0.16175 0.79653
 H623 H 0.30369 0.10814 0.95429
 H624 H 0.25458 0.08597 0.88510
 H625 H 0.24390 0.11550 0.83839
 H626 H 0.30796 0.17687 0.86931
 H627 H 0.31865 0.14680 0.91666
 H628 H 0.27799 0.18968 0.82315
 H629 H 0.28377 0.05638 0.91380
 H630 H 0.24111 0.14057 0.79413
 C631 C 0.80238 0.57916 0.45068
 C632 C 0.81657 0.60554 0.44873
 C633 C 0.81384 0.62597 0.42114
 C634 C 0.79263 0.62324 0.39687
 C635 C 0.78999 0.64390 0.37235
 C636 C 0.80830 0.66789 0.37165
 C637 C 0.82958 0.67048 0.39565
 C638 C 0.83231 0.64976 0.42010
 C639 C 0.80498 0.69089 0.34705
 C640 C 0.78431 0.68939 0.32274
 H641 H 0.83056 0.61160 0.46870
 H642 H 0.77750 0.60571 0.39694
 H643 H 0.77322 0.64128 0.35432
 H644 H 0.84392 0.68877 0.39573
 H645 H 0.84874 0.65253 0.43853
 H646 H 0.81844 0.70982 0.34869
 H647 H 0.79004 0.57146 0.43021
 H648 H 0.78210 0.70318 0.31018
 C649 C 0.07860 0.71203 0.93882
 C650 C 0.10442 0.69771 0.93299
 C651 C 0.12190 0.70236 0.90330
 C652 C 0.15143 0.69666 0.90445
 C653 C 0.16881 0.70171 0.87725
 C654 C 0.15685 0.71222 0.84806
 C655 C 0.12719 0.71727 0.84674
 C656 C 0.10984 0.71226 0.87393
 C657 C 0.17450 0.71966 0.81919
 C658 C 0.20292 0.71102 0.81476
 H659 H 0.11270 0.68330 0.95146
 H660 H 0.16121 0.68892 0.92674
 H661 H 0.19160 0.69805 0.87968
 H662 H 0.11738 0.72526 0.82457
 H663 H 0.08702 0.71598 0.87166
 H664 H 0.16468 0.73303 0.80068
 H665 H 0.07068 0.72728 0.92113
 H666 H 0.21306 0.69654 0.83181
 C667 C 0.57866 0.22111 0.45132
 C668 C 0.60454 0.20706 0.44496
 C669 C 0.62223 0.21268 0.41557
 C670 C 0.65129 0.20476 0.41577
 C671 C 0.66884 0.21027 0.38878
 C672 C 0.65750 0.22362 0.36083
 C673 C 0.62835 0.23105 0.36042
 C674 C 0.61081 0.22545 0.38729
 C675 C 0.67548 0.23156 0.33245
 C676 C 0.70212 0.21932 0.32547
 H677 H 0.61243 0.19163 0.46256
 H678 H 0.66060 0.19477 0.43715
 H679 H 0.69132 0.20475 0.39037
 H680 H 0.61905 0.24124 0.33915
 H681 H 0.58835 0.23096 0.38550
 H682 H 0.66719 0.24787 0.31615
 H683 H 0.57085 0.23726 0.43467
 H684 H 0.71022 0.20171 0.33996
 C685 C 0.91988 0.30966 0.94688
 C686 C 0.89169 0.32022 0.94736
 C687 C 0.87110 0.31698 0.92008
 C688 C 0.87354 0.29489 0.89687
 C689 C 0.85223 0.29091 0.87325
 C690 C 0.82797 0.30897 0.87233
 C691 C 0.82587 0.33122 0.89530
 C692 C 0.84711 0.33511 0.91894
 C693 C 0.80373 0.30463 0.84930
 C694 C 0.80367 0.28476 0.82378
 H695 H 0.88439 0.33237 0.96831
 H696 H 0.89126 0.27992 0.89759
 H697 H 0.85466 0.27313 0.85660
 H698 H 0.80744 0.34538 0.89536
 H699 H 0.84455 0.35212 0.93672
 H700 H 0.78458 0.31738 0.85314
 H701 H 0.92794 0.30222 0.92373
 H702 H 0.82255 0.27224 0.81828
 C703 C 0.42288 0.79578 0.43510
 C704 C 0.39604 0.80889 0.43200
 C705 C 0.37627 0.80367 0.40431
 C706 C 0.38573 0.79276 0.37415
 C707 C 0.36608 0.78670 0.34934
 C708 C 0.33657 0.79144 0.35411
 C709 C 0.32733 0.80364 0.38357
 C710 C 0.34697 0.80965 0.40842
 C711 C 0.31499 0.78378 0.32905
 C712 C 0.31941 0.76184 0.30645
 H713 H 0.38843 0.82233 0.45177
 H714 H 0.40823 0.78905 0.36937
 H715 H 0.37416 0.77853 0.32640
 H716 H 0.30476 0.80788 0.38768
 H717 H 0.33914 0.81842 0.43123
 H718 H 0.29419 0.79413 0.33010
 H719 H 0.43080 0.78194 0.41598
 H720 H 0.33929 0.74986 0.30662
 C721 C 0.29139 0.91244 0.05578
 C722 C 0.30703 0.88747 0.06201
 C723 C 0.30191 0.86906 0.09083
 C724 C 0.30926 0.83991 0.08916
 C725 C 0.30353 0.82154 0.11531
 C726 C 0.29064 0.83215 0.14393
 C727 C 0.28403 0.86147 0.14587
 C728 C 0.28973 0.87980 0.11974
 C729 C 0.28230 0.81340 0.17152
 C730 C 0.29165 0.78517 0.17570
 H731 H 0.32261 0.88029 0.04417
 H732 H 0.31878 0.83116 0.06718
 H733 H 0.30855 0.79905 0.11246
 H734 H 0.27423 0.87025 0.16767
 H735 H 0.28466 0.90231 0.12245
 H736 H 0.26772 0.82235 0.18945
 H737 H 0.27513 0.91937 0.07285
 H738 H 0.30739 0.77587 0.15946
 C739 C 0.80266 0.41978 0.56534
 C740 C 0.78139 0.39921 0.57017
 C741 C 0.78029 0.38059 0.59922
 C742 C 0.75347 0.37256 0.61169
 C743 C 0.75161 0.35434 0.63862
 C744 C 0.77658 0.34324 0.65310
 C745 C 0.80343 0.35067 0.64017
 C746 C 0.80532 0.36955 0.61368
 C747 C 0.77464 0.32310 0.68081
 C748 C 0.75453 0.32713 0.70552
 H749 H 0.76386 0.39795 0.55285
 H750 H 0.73392 0.38052 0.60063
 H751 H 0.73060 0.34838 0.64763
 H752 H 0.82290 0.34205 0.65073
 H753 H 0.82627 0.37488 0.60400
 H754 H 0.78942 0.30520 0.68201
 H755 H 0.81850 0.42369 0.58414
 H756 H 0.74198 0.34670 0.70594
 C757 C 0.70812 0.07574 0.06524
 C758 C 0.69512 0.10205 0.07218
 C759 C 0.70214 0.11945 0.10138
 C760 C 0.69618 0.14895 0.10091
 C761 C 0.70365 0.16641 0.12733
 C762 C 0.71699 0.15457 0.15502
 C763 C 0.72236 0.12497 0.15577
 C764 C 0.71483 0.10752 0.12942
 C765 C 0.72704 0.17245 0.18261
 C766 C 0.71666 0.19991 0.18928
 H767 H 0.68017 0.11093 0.05465
 H768 H 0.68637 0.15868 0.07967
 H769 H 0.69972 0.18920 0.12541
 H770 H 0.73251 0.11531 0.17685
 H771 H 0.71892 0.08476 0.13134
 H772 H 0.74340 0.16351 0.19841
 H773 H 0.72363 0.06684 0.08199
 H774 H 0.69897 0.20864 0.17540
 C775 C 0.20629 0.56758 0.55779
 C776 C 0.19358 0.59467 0.56040
 C777 C 0.19797 0.61490 0.58797
 C778 C 0.21252 0.60740 0.61685
 C779 C 0.21695 0.62776 0.64146
 C780 C 0.20697 0.65607 0.63774
 C781 C 0.19171 0.66323 0.60941
 C782 C 0.18734 0.64295 0.58482
 C783 C 0.21188 0.67866 0.66262
 C784 C 0.23370 0.67751 0.68594
 H785 H 0.18024 0.60191 0.54037
 H786 H 0.22048 0.58594 0.62087
 H787 H 0.22792 0.62106 0.66341
 H788 H 0.18354 0.68479 0.60602
 H789 H 0.17588 0.64935 0.56301
 H790 H 0.19898 0.69795 0.66106
 H791 H 0.21927 0.55923 0.57739
 H792 H 0.24795 0.65923 0.68703
 C793 C 0.92163 0.70498 0.05646
 C794 C 0.89477 0.69181 0.05889
 C795 C 0.87582 0.69513 0.08764
 C796 C 0.88666 0.70115 0.11892
 C797 C 0.86800 0.70573 0.14511
 C798 C 0.83809 0.70447 0.14055
 C799 C 0.82739 0.69700 0.10969
 C800 C 0.84607 0.69234 0.08352
 C801 C 0.81752 0.71124 0.16706
 C802 C 0.82459 0.72858 0.19364
 H803 H 0.88647 0.68015 0.03806
 H804 H 0.90950 0.70215 0.12339
 H805 H 0.87718 0.71007 0.16882
 H806 H 0.80448 0.69549 0.10560
 H807 H 0.83719 0.68730 0.05977
 H808 H 0.79542 0.70450 0.16408
 H809 H 0.92972 0.71734 0.07679
 H810 H 0.84607 0.73704 0.19610
 C811 C 0.41845 0.20572 0.56195
 C812 C 0.39201 0.19161 0.56339
 C813 C 0.37149 0.19448 0.59088
 C814 C 0.34265 0.18712 0.58561
 C815 C 0.32221 0.19070 0.61027
 C816 C 0.33030 0.20149 0.64099
 C817 C 0.35923 0.20829 0.64647
 C818 C 0.37968 0.20466 0.62184
 C819 C 0.30917 0.20741 0.66719
 C820 C 0.28164 0.19560 0.66830
 H821 H 0.38531 0.17902 0.54250
 H822 H 0.33574 0.17922 0.56203
 H823 H 0.30009 0.18579 0.60470
 H824 H 0.36606 0.21657 0.66992
 H825 H 0.40175 0.20980 0.62738
 H826 H 0.31569 0.22179 0.68661
 H827 H 0.42553 0.21863 0.58228
 H828 H 0.27507 0.17976 0.65053
 C829 C 0.08025 0.29282 0.05590
 C830 C 0.10707 0.30581 0.05977
 C831 C 0.12598 0.30054 0.08822
 C832 C 0.15556 0.30546 0.08508
 C833 C 0.17426 0.29968 0.11096
 C834 C 0.16360 0.28913 0.14075
 C835 C 0.13393 0.28494 0.14411
 C836 C 0.11527 0.29074 0.11829
 C837 C 0.18253 0.28063 0.16814
 C838 C 0.21138 0.28839 0.17110
 H839 H 0.11508 0.31953 0.04048
 H840 H 0.16434 0.31315 0.06223
 H841 H 0.19699 0.30275 0.10707
 H842 H 0.12512 0.27698 0.16683
 H843 H 0.09255 0.28764 0.12218
 H844 H 0.17320 0.26718 0.18691
 H845 H 0.07233 0.27836 0.07440
 H846 H 0.22110 0.30313 0.15403
 C847 C 0.58113 0.80051 0.55109
 C848 C 0.60732 0.81471 0.55491
 C849 C 0.62591 0.81093 0.58391
 C850 C 0.65550 0.81594 0.58099
 C851 C 0.67391 0.81116 0.60741
 C852 C 0.66293 0.80158 0.63746
 C853 C 0.63324 0.79746 0.64060
 C854 C 0.61487 0.80225 0.61426
 C855 C 0.68154 0.79392 0.66542
 C856 C 0.71034 0.80178 0.66856
 H857 H 0.61520 0.82803 0.53520
 H858 H 0.66451 0.82279 0.55791
 H859 H 0.69668 0.81416 0.60374
 H860 H 0.62419 0.79026 0.66352
 H861 H 0.59211 0.79917 0.61792
 H862 H 0.67197 0.78104 0.68455
 H863 H 0.57355 0.78639 0.57013
 H864 H 0.72027 0.81610 0.65118
   
