data_POSCAR
  _audit_creation_date              2014-09-24
  _audit_creation_method            'ToBaCCo'
  _symmetry_space_group_name_H-M    'P1'
  _symmetry_Int_Tables_number       1
  _symmetry_cell_setting            triclinic
  loop_
  _symmetry_equiv_pos_as_xyz
 x,y,z
_cell_length_a 21.8868
_cell_length_b 21.9362
_cell_length_c 45.5170
_cell_angle_alpha 87.152200
_cell_angle_beta 91.441200
_cell_angle_gamma 120.140200
loop_
  _atom_site_label
  _atom_site_type_symbol
  _atom_site_fract_x
  _atom_site_fract_y
  _atom_site_fract_z
C1 C 0.02697 0.11391 0.53982
 H2 H 0.07600 0.11318 0.53935
 C3 C 0.02179 0.16244 0.55668
 H4 H 0.06686 0.19907 0.56938
 C5 C -0.09088 0.06866 0.52297
 H6 H -0.13398 0.03299 0.50928
 C7 C -0.09827 0.11664 0.53955
 H8 H -0.14732 0.11753 0.53883
 N9 N -0.02883 0.06831 0.52343
 C10 C 0.01867 -0.09810 0.50861
 H11 H 0.02167 -0.09500 0.48485
 C12 C 0.02305 -0.15188 0.52453
 H13 H 0.03006 -0.19003 0.51304
 C14 C 0.00141 -0.05492 0.55257
 H15 H -0.00952 -0.01866 0.56335
 C16 C 0.00550 -0.10787 0.56931
 H17 H -0.00134 -0.11158 0.59295
 Zn18 Zn -0.01138 0.01100 0.49938
 N19 N 0.00748 -0.05135 0.52276
 C20 C 0.12883 0.07355 0.47624
 N21 N 0.06657 0.07348 0.47551
 C22 C 0.05892 0.12278 0.45911
 C23 C 0.11521 0.17496 0.44253
 C24 C 0.18671 0.12507 0.45994
 C25 C -0.15011 -0.09623 0.48997
 C26 C -0.20647 -0.14728 0.47402
 C27 C -0.13961 -0.09377 0.42929
 C28 C -0.08450 -0.04377 0.44610
 N29 N -0.09042 -0.04633 0.47589
 H30 H 0.13420 0.03484 0.48995
 H31 H 0.00917 0.12212 0.45938
 H32 H 0.10880 0.21448 0.42982
 H33 H 0.23648 0.12562 0.46088
 H34 H -0.15268 -0.09797 0.51372
 H35 H -0.25284 -0.18803 0.48560
 H36 H -0.13334 -0.09247 0.40567
 H37 H -0.03595 -0.00503 0.43541
 C38 C 0.01545 -0.15731 0.55512
 C39 C -0.04115 0.16417 0.55641
 C40 C -0.20073 -0.14672 0.44342
 C41 C 0.17980 0.17644 0.44309
 C42 C 1.13501 0.05456 0.12642
 H43 H 1.13480 0.10377 0.12644
 C44 C 1.18480 0.04972 0.10972
 H45 H 1.22295 0.09524 0.09670
 C46 C 1.08689 -0.06428 0.14412
 H47 H 1.04952 -0.10799 0.15804
 C48 C 1.13605 -0.07136 0.12771
 H49 H 1.13612 -0.12076 0.12880
 N50 N 1.08734 -0.00193 0.14312
 C51 C 0.91890 0.04450 0.15656
 H52 H 0.91952 0.04608 0.18029
 C53 C 0.86621 0.04908 0.14035
 H54 H 0.82644 0.05482 0.15157
 C55 C 0.96701 0.03023 0.11303
 H56 H 1.00471 0.02028 0.10257
 C57 C 0.91524 0.03458 0.09600
 H58 H 0.91385 0.02888 0.07245
 Zn59 Zn 1.02753 0.01429 0.16666
 N60 N 0.96749 0.03457 0.14278
 C61 C 1.08710 0.15237 0.18924
 N62 N 1.08752 0.09044 0.19018
 C63 C 1.13524 0.08166 0.20683
 C64 C 1.18506 0.13630 0.22356
 C65 C 1.13629 0.20861 0.20569
 C66 C 0.91883 -0.12469 0.17687
 C67 C 0.86620 -0.18195 0.19315
 C68 C 0.91557 -0.11815 0.23743
 C69 C 0.96727 -0.06204 0.22035
 N70 N 0.96756 -0.06603 0.19060
 H71 H 1.04969 0.15867 0.17537
 H72 H 1.13499 0.03222 0.20676
 H73 H 1.22322 0.12895 0.23655
 H74 H 1.13637 0.25809 0.20466
 H75 H 0.91930 -0.12576 0.15315
 H76 H 0.82631 -0.22758 0.18197
 H77 H 0.91433 -0.11372 0.26099
 H78 H 1.00507 -0.01428 0.23077
 C79 C 0.86380 0.04301 0.10984
 C80 C 1.18559 -0.01362 0.11048
 C81 C 0.86399 -0.17816 0.22365
 C82 C 1.18586 0.20043 0.22288
 C83 C 0.05908 0.93555 0.87395
 H84 H 0.00936 0.88635 0.87364
 C85 C 0.11530 0.93978 0.89060
 H86 H 0.10886 0.89383 0.90331
 C87 C 0.12898 1.05489 0.85691
 H88 H 0.13437 1.09900 0.84322
 C89 C 0.18679 1.06136 0.87328
 H90 H 0.23653 1.11072 0.87241
 N91 N 0.06675 0.99254 0.85757
 C92 C -0.14990 0.94521 0.84313
 H93 H -0.15256 0.94436 0.81937
 C94 C -0.20619 0.93985 0.85910
 H95 H -0.25260 0.93420 0.84760
 C96 C -0.08418 0.95849 0.88697
 H97 H -0.03561 0.96840 0.89765
 C98 C -0.13922 0.95334 0.90379
 H99 H -0.13301 0.95837 0.92740
 Zn100 Zn -0.01119 0.97694 0.83368
 N101 N -0.09019 0.95509 0.85718
 C102 C -0.09073 0.83963 0.81009
 N103 N -0.02866 0.90213 0.80963
 C104 C 0.02713 0.91242 0.79325
 C105 C 0.02192 0.85869 0.77639
 C106 C -0.09814 0.78423 0.79350
 C107 C 0.01885 1.11614 0.82447
 C108 C 0.02322 1.17430 0.80855
 C109 C 0.00568 1.11272 0.76376
 C110 C 0.00160 1.05567 0.78050
 N111 N 0.00768 1.05819 0.81032
 H112 H -0.13382 0.83213 0.82377
 H113 H 0.07616 0.96226 0.79373
 H114 H 0.06698 0.86719 0.76370
 H115 H -0.14720 0.73420 0.79422
 H116 H 0.02185 1.11605 0.84823
 H117 H 0.03022 1.21947 0.82003
 H118 H -0.00116 1.10957 0.74012
 H119 H -0.00933 1.00846 0.76972
 C120 C -0.20032 0.94507 0.88968
 C121 C 0.17984 1.00305 0.89013
 C122 C 0.01562 1.17212 0.77796
 C123 C -0.04103 0.79390 0.77665
 C124 C 0.51136 -0.00463 0.01432
 C125 C 0.50718 -0.00917 -0.01550
 C126 C 0.45092 -0.00419 -0.03261
 C127 C 0.55839 -0.01951 -0.03236
 C128 C 0.57499 0.00547 0.03090
 C129 C 0.45254 -0.00907 0.03173
 C130 C 0.40934 -0.05603 -0.05260
 C131 C 0.35591 -0.05207 -0.06851
 C132 C 0.34385 0.00401 -0.06480
 C133 C 0.38590 0.05657 -0.04530
 C134 C 0.43943 0.05272 -0.02939
 C135 C 0.57210 -0.07422 -0.02424
 C136 C 0.62014 -0.08368 -0.04029
 C137 C 0.65440 -0.03906 -0.06478
 C138 C 0.64017 0.01481 -0.07325
 C139 C 0.59224 0.02438 -0.05721
 C140 C 0.64281 0.06016 0.02264
 C141 C 0.70225 0.06977 0.03858
 C142 C 0.69445 0.02532 0.06309
 C143 C 0.62701 -0.02863 0.07166
 C144 C 0.56758 -0.03836 0.05573
 C145 C 0.46618 0.04290 0.05180
 C146 C 0.41111 0.03939 0.06806
 C147 C 0.34192 -0.01635 0.06460
 C148 C 0.32807 -0.06902 0.04500
 C149 C 0.38314 -0.06563 0.02875
 H150 H 0.41760 -0.10006 -0.05554
 H151 H 0.32368 -0.09300 -0.08357
 H152 H 0.37718 0.10031 -0.04233
 H153 H 0.47184 0.09401 -0.01453
 H154 H 0.54547 -0.10962 -0.00553
 H155 H 0.63062 -0.12564 -0.03359
 H156 H 0.58211 0.06655 -0.06396
 H157 H 0.64962 0.09552 0.00394
 H158 H 0.75417 0.11182 0.03181
 H159 H 0.62038 -0.06331 0.09061
 H160 H 0.51580 -0.08048 0.06259
 H161 H 0.51931 0.08667 0.05456
 H162 H 0.42239 0.08041 0.08317
 H163 H 0.27477 -0.11249 0.04221
 H164 H 0.37170 -0.10700 0.01382
 H165 H 0.66640 0.04964 -0.09216
 C166 C -0.02371 0.48604 0.68153
 C167 C -0.02373 0.48943 0.65154
 C168 C -0.03051 0.43047 0.63430
 C169 C -0.01541 0.55291 0.63460
 C170 C -0.03048 0.53821 0.69877
 C171 C -0.01536 0.43092 0.69847
 C172 C 0.01798 0.44410 0.61178
 C173 C 0.01255 0.38894 0.59572
 C174 C -0.04168 0.31963 0.60183
 C175 C -0.09101 0.30572 0.62388
 C176 C -0.08571 0.36091 0.63994
 C177 C 0.04122 0.62044 0.64040
 C178 C 0.04911 0.67981 0.62421
 C179 C 0.00095 0.67224 0.60188
 C180 C -0.05496 0.60506 0.59572
 C181 C -0.06296 0.54566 0.61190
 C182 C -0.08569 0.55246 0.69313
 C183 C -0.09098 0.60234 0.70919
 C184 C -0.04162 0.63788 0.73124
 C185 C 0.01263 0.62292 0.73734
 C186 C 0.01804 0.57319 0.72129
 C187 C -0.06288 0.39054 0.72117
 C188 C -0.05486 0.33916 0.73736
 C189 C 0.00106 0.32800 0.73119
 C190 C 0.04918 0.36868 0.70886
 C191 C 0.04127 0.42014 0.69267
 H192 H 0.06068 0.49731 0.60697
 H193 H 0.05104 0.40027 0.57872
 H194 H -0.13326 0.25231 0.62874
 H195 H -0.12448 0.34941 0.65683
 H196 H 0.07940 0.62706 0.65737
 H197 H 0.09271 0.73151 0.62909
 H198 H -0.10660 0.49407 0.60694
 H199 H -0.12448 0.52509 0.67625
 H200 H -0.13323 0.61342 0.70433
 H201 H 0.05114 0.65018 0.75435
 H202 H 0.06075 0.56278 0.72610
 H203 H -0.10652 0.39839 0.72613
 H204 H -0.09235 0.30801 0.75462
 H205 H 0.09278 0.36067 0.70398
 H206 H 0.07942 0.45175 0.67570
 H207 H -0.09248 0.59862 0.57845
 C208 C 0.50765 0.51714 0.34920
 C209 C 0.51176 0.51695 0.31938
 C210 C 0.57538 0.57061 0.30281
 C211 C 0.45289 0.46258 0.30193
 C212 C 0.45138 0.45575 0.36627
 C213 C 0.55899 0.57867 0.36611
 C214 C 0.56795 0.60713 0.27803
 C215 C 0.62735 0.65686 0.26207
 C216 C 0.69478 0.67027 0.27056
 C217 C 0.70259 0.63354 0.29504
 C218 C 0.64318 0.58369 0.31101
 C219 C 0.38352 0.44967 0.30494
 C220 C 0.32841 0.39805 0.28863
 C221 C 0.34220 0.35938 0.26895
 C222 C 0.41135 0.37288 0.26547
 C223 C 0.46645 0.42438 0.28178
 C224 C 0.43978 0.38731 0.36295
 C225 C 0.38616 0.32976 0.37878
 C226 C 0.34412 0.34010 0.39830
 C227 C 0.35631 0.40828 0.40213
 C228 C 0.40983 0.46585 0.38630
 C229 C 0.59288 0.56850 0.39090
 C230 C 0.64103 0.62599 0.40695
 C231 C 0.65543 0.69421 0.39854
 C232 C 0.62110 0.70469 0.37412
 C233 C 0.57284 0.64720 0.35806
 H234 H 0.51619 0.59752 0.27121
 H235 H 0.62072 0.68498 0.24315
 H236 H 0.75450 0.64335 0.30175
 H237 H 0.64999 0.55505 0.32967
 H238 H 0.37214 0.47952 0.31992
 H239 H 0.27513 0.38817 0.29143
 H240 H 0.51955 0.43379 0.27901
 H241 H 0.47216 0.37855 0.34805
 H242 H 0.37734 0.27727 0.37572
 H243 H 0.32409 0.41687 0.41721
 H244 H 0.41818 0.51817 0.38932
 H245 H 0.58265 0.51613 0.39760
 H246 H 0.66731 0.61730 0.42581
 H247 H 0.63171 0.75722 0.36747
 H248 H 0.54619 0.65607 0.33939
 H249 H 0.42258 0.34324 0.25030
 C250 C -0.04508 0.21693 0.57249
 C251 C -0.04505 0.26297 0.58591
 C252 C 0.80577 0.76705 0.24041
 C253 C 0.75572 0.72239 0.25427
 C254 C 0.23901 0.00644 -0.09395
 C255 C 0.28739 0.00653 -0.08065
 C256 C 0.01268 0.78372 0.57166
 C257 C 0.00820 0.73330 0.58546
 C258 C 0.23925 0.25791 0.23909
 C259 C 0.28554 0.30479 0.25270
 C260 C 0.74889 -0.05220 -0.09469
 C261 C 0.70520 -0.04736 -0.08098
 C262 C 0.23900 -0.01771 0.09433
 C263 C 0.28528 -0.01833 0.08078
 C264 C 0.75040 0.80185 0.42844
 C265 C 0.70649 0.75331 0.41473
 C266 C 0.01283 0.22830 0.76142
 C267 C 0.00833 0.27423 0.74761
 C268 C 0.80553 0.03956 0.09314
 C269 C 0.75543 0.03414 0.07933
 C270 C 0.23906 0.23247 0.42726
 C271 C 0.28754 0.28093 0.41405
 C272 C -0.04499 0.73719 0.76057
 C273 C -0.04498 0.69118 0.74716
   
