data_POSCAR
  _audit_creation_date              2014-09-24
  _audit_creation_method            'ToBaCCo'
  _symmetry_space_group_name_H-M    'P1'
  _symmetry_Int_Tables_number       1
  _symmetry_cell_setting            triclinic
  loop_
  _symmetry_equiv_pos_as_xyz
 x,y,z
_cell_length_a 26.0769
_cell_length_b 26.0520
_cell_length_c 26.0674
_cell_angle_alpha 109.878400
_cell_angle_beta 70.090000
_cell_angle_gamma 69.203700
loop_
  _atom_site_label
  _atom_site_type_symbol
  _atom_site_fract_x
  _atom_site_fract_y
  _atom_site_fract_z
C1 C 0.52690 0.44427 -0.02233
 C2 C 0.48118 0.48682 -0.02594
 C3 C 0.42848 0.47857 -0.02936
 C4 C 0.48074 0.54401 -0.02675
 C5 C 0.58363 0.44771 -0.02536
 C6 C 0.52254 0.39163 -0.01476
 C7 C 0.44179 0.42040 -0.07557
 C8 C 0.39195 0.41463 -0.07998
 C9 C 0.32763 0.46752 -0.03980
 C10 C 0.31476 0.52590 0.00670
 C11 C 0.36457 0.53102 0.01171
 C12 C 0.47008 0.55858 -0.07080
 C13 C 0.46625 0.61356 -0.07044
 C14 C 0.47468 0.65416 -0.02721
 C15 C 0.48519 0.64002 0.01706
 C16 C 0.48702 0.58606 0.01804
 C17 C 0.59951 0.44458 0.02032
 C18 C 0.65245 0.44764 0.01847
 C19 C 0.69061 0.45400 -0.02916
 C20 C 0.67500 0.45685 -0.07500
 C21 C 0.62273 0.45251 -0.07390
 C22 C 0.46855 0.40504 0.03727
 C23 C 0.46603 0.35503 0.04461
 C24 C 0.51768 0.29053 -0.00019
 C25 C 0.57181 0.27774 -0.05163
 C26 C 0.57431 0.32766 -0.05876
 H27 H 0.49092 0.37964 -0.10890
 H28 H 0.40426 0.36883 -0.11631
 H29 H 0.26671 0.56795 0.04056
 H30 H 0.35320 0.57637 0.04779
 H31 H 0.46435 0.52744 -0.10538
 H32 H 0.45746 0.62403 -0.10449
 H33 H 0.49281 0.57748 0.05410
 H34 H 0.57023 0.44073 0.05812
 H35 H 0.66240 0.44672 0.05532
 H36 H 0.70372 0.46182 -0.11210
 H37 H 0.61253 0.45337 -0.11064
 H38 H 0.42872 0.45434 0.07258
 H39 H 0.42410 0.36756 0.08590
 H40 H 0.61249 0.22876 -0.08663
 H41 H 0.61664 0.31638 -0.09891
 H42 H 0.49014 0.67169 0.05203
 C43 C 0.01841 0.51665 0.50336
 C44 C 0.01175 0.47407 0.46273
 C45 C 0.00477 0.42309 0.47154
 C46 C 0.01310 0.47483 0.40580
 C47 C 0.02233 0.56917 0.49575
 C48 C 0.01947 0.51498 0.55924
 C49 C 0.04876 0.35847 0.42184
 C50 C 0.04316 0.30961 0.42868
 C51 C -0.00694 0.32417 0.48506
 C52 C -0.05146 0.38927 0.53495
 C53 C -0.04573 0.43827 0.52799
 C54 C 0.06854 0.46232 0.35642
 C55 C 0.07089 0.45850 0.30082
 C56 C 0.01764 0.46791 0.29413
 C57 C -0.03794 0.48061 0.34384
 C58 C -0.03995 0.48367 0.39905
 C59 C -0.03010 0.61836 0.50292
 C60 C -0.02824 0.67088 0.50164
 C61 C 0.02626 0.67481 0.49305
 C62 C 0.07942 0.62439 0.48372
 C63 C 0.07714 0.57239 0.48596
 C64 C -0.02558 0.57013 0.62066
 C65 C -0.02601 0.56976 0.67414
 C66 C 0.01941 0.51425 0.66706
 C67 C 0.06456 0.45907 0.60545
 C68 C 0.06505 0.45957 0.55183
 H69 H 0.08794 0.34580 0.37783
 H70 H 0.07819 0.26007 0.38953
 H71 H -0.09031 0.40294 0.57959
 H72 H -0.08066 0.48804 0.56659
 H73 H 0.11037 0.45414 0.36041
 H74 H 0.11441 0.44803 0.26285
 H75 H -0.08271 0.49238 0.43641
 H76 H -0.07294 0.61674 0.51096
 H77 H -0.06934 0.70826 0.50731
 H78 H 0.12205 0.62618 0.47652
 H79 H 0.11789 0.53484 0.48059
 H80 H -0.06137 0.61320 0.62732
 H81 H -0.06310 0.61245 0.72089
 H82 H 0.09967 0.41561 0.59882
 H83 H 0.10076 0.41679 0.50465
 H84 H -0.07912 0.48628 0.33944
 C85 C 0.48818 0.02832 0.52041
 C86 C 0.44455 0.02351 0.56274
 C87 C 0.45008 0.01716 0.61565
 C88 C 0.38843 0.02483 0.55884
 C89 C 0.48683 0.02803 0.46351
 C90 C 0.54000 0.03443 0.52838
 C91 C 0.50697 -0.03107 0.60374
 C92 C 0.51073 -0.03702 0.65399
 C93 C 0.45701 0.00489 0.71749
 C94 C 0.40001 0.05237 0.72854
 C95 C 0.39662 0.05842 0.67844
 C96 C 0.37505 -0.02236 0.56093
 C97 C 0.32293 -0.02216 0.55685
 C98 C 0.28325 0.02530 0.55047
 C99 C 0.29626 0.07275 0.54891
 C100 C 0.34760 0.07330 0.55430
 C101 C 0.49096 0.07506 0.45063
 C102 C 0.49295 0.07392 0.39600
 C103 C 0.48985 0.02638 0.35355
 C104 C 0.48604 -0.02104 0.36609
 C105 C 0.48519 -0.02056 0.42023
 C106 C 0.52606 0.08206 0.58603
 C107 C 0.57516 0.08890 0.59133
 C108 C 0.63900 0.04971 0.53860
 C109 C 0.65255 0.00181 0.48081
 C110 C 0.60362 -0.00554 0.47604
 H111 H 0.54839 -0.06450 0.55537
 H112 H 0.55559 -0.07503 0.64202
 H113 H 0.35760 0.08543 0.77641
 H114 H 0.35206 0.09571 0.68877
 H115 H 0.40568 -0.06005 0.56468
 H116 H 0.31481 -0.06010 0.55696
 H117 H 0.35580 0.11125 0.55436
 H118 H 0.49294 0.11263 0.48287
 H119 H 0.49657 0.11052 0.38702
 H120 H 0.48564 -0.05957 0.33319
 H121 H 0.48408 -0.05854 0.42794
 H122 H 0.47705 0.11449 0.62670
 H123 H 0.56274 0.12608 0.63659
 H124 H 0.70065 -0.03142 0.43913
 H125 H 0.61547 -0.04269 0.43111
 H126 H 0.26623 0.10982 0.54411
 O127 O 0.48975 -0.02700 -0.05613
 O128 O 0.47419 0.00391 0.09880
 O129 O 0.47572 0.06594 0.03732
 O130 O 0.49026 -0.08979 0.00402
 O131 O 0.59558 -0.13658 -0.03934
 O132 O 0.58150 0.01755 -0.00971
 O133 O 0.57955 -0.04135 0.05364
 O134 O 0.59555 -0.07674 -0.10270
 Cu135 Cu 0.47187 -0.00692 0.02566
 Cu136 Cu 0.59861 -0.06410 -0.02924
 C137 C 0.54520 -0.05645 -0.10569
 C138 C 0.52425 -0.01412 0.10248
 C139 C 0.52651 0.06780 0.01817
 C140 C 0.54540 -0.13937 -0.02201
 O141 O -0.12667 0.56033 1.03045
 O142 O 0.00402 0.58448 1.03033
 O143 O -0.04014 0.56893 0.95404
 O144 O -0.08222 0.57560 1.10688
 O145 O -0.01185 0.47076 1.05355
 O146 O 0.02533 0.46319 0.90097
 O147 O 0.07223 0.47904 0.97469
 O148 O -0.06028 0.45504 0.98025
 Cu149 Cu -0.06810 0.58290 1.03573
 Cu150 Cu 0.01291 0.45631 0.97204
 C151 C -0.11580 0.50364 1.00538
 C152 C 0.06032 0.53606 1.00269
 C153 C -0.00084 0.51492 0.90153
 C154 C -0.05259 0.52451 1.10609
 O155 O 0.04501 -0.09974 0.43373
 O156 O 0.01757 0.04826 0.43257
 O157 O 0.09893 -0.03209 0.44431
 O158 O -0.03668 -0.01865 0.42300
 O159 O -0.10352 0.04104 0.52802
 O160 O 0.03307 0.02368 0.54936
 O161 O -0.04724 0.10645 0.53786
 O162 O -0.02353 -0.04141 0.53841
 Cu163 Cu 0.03795 -0.03135 0.42289
 Cu164 Cu -0.04187 0.03839 0.54905
 C165 C 0.01400 -0.09563 0.48598
 C166 C -0.01862 0.10235 0.48491
 C167 C 0.08911 -0.00633 0.50041
 C168 C -0.09300 0.01277 0.47179
 C169 C -0.25518 0.46083 0.96988
 C170 C -0.21813 0.43101 0.98820
 C171 C -0.16488 0.43892 0.98846
 C172 C -0.16853 0.49525 1.00477
 H173 H -0.22445 0.39691 1.00021
 H174 H -0.12339 0.39822 0.97867
 H175 H -0.24404 0.48931 0.95120
 H176 H -0.21214 0.53723 1.01931
 C177 C 0.28134 0.45997 0.95270
 C178 C 0.21693 0.50957 0.98385
 C179 C 0.17183 0.49654 0.97590
 C180 C 0.10854 0.54661 1.00472
 H181 H 0.20080 0.55930 1.01382
 H182 H 0.18599 0.44696 0.94765
 H183 H 0.29504 0.41218 0.91879
 H184 H 0.09555 0.59608 1.03108
 C185 C 0.02903 -0.26940 0.49332
 C186 C -0.02312 -0.20934 0.53099
 C187 C -0.02253 -0.15215 0.53329
 C188 C 0.02041 -0.15458 0.48460
 H189 H -0.06844 -0.20054 0.56409
 H190 H -0.06254 -0.10572 0.57518
 H191 H 0.07584 -0.27769 0.46500
 H192 H 0.05785 -0.20024 0.44047
 C193 C -0.00931 0.26952 0.48912
 C194 C -0.05894 0.27501 0.53445
 C195 C -0.05798 0.21843 0.53597
 C196 C -0.02495 0.15993 0.48301
 H197 H -0.10068 0.32177 0.57348
 H198 H -0.08603 0.22581 0.58234
 H199 H 0.03285 0.22192 0.45225
 H200 H 0.00018 0.15302 0.43623
 C201 C 0.45696 0.00189 -0.22941
 C202 C 0.50765 -0.03778 -0.23037
 C203 C 0.50069 -0.03384 -0.17026
 C204 C 0.55156 -0.06561 -0.16711
 H205 H 0.55451 -0.07160 -0.27383
 H206 H 0.45318 -0.00206 -0.12705
 H207 H 0.41209 0.03550 -0.18331
 H208 H 0.59941 -0.09582 -0.20975
 C209 C 0.49388 0.02570 0.29523
 C210 C 0.46406 0.00509 0.26835
 C211 C 0.46778 0.00375 0.20999
 C212 C 0.51916 -0.00539 0.16328
 H213 H 0.43294 -0.00875 0.29138
 H214 H 0.42879 0.00487 0.20311
 H215 H 0.51954 0.04581 0.27597
 H216 H 0.56079 -0.01209 0.16720
 C217 C 0.46960 -0.28759 -0.02723
 C218 C 0.51047 -0.26964 -0.02195
 C219 C 0.50361 -0.21047 -0.02043
 C220 C 0.55197 -0.20047 -0.02995
 H221 H 0.54979 -0.29923 -0.01923
 H222 H 0.45840 -0.17450 -0.01041
 H223 H 0.43332 -0.26062 -0.03476
 H224 H 0.59771 -0.23782 -0.04224
 C225 C 0.51859 0.23511 0.00483
 C226 C 0.46706 0.23756 0.04379
 C227 C 0.46929 0.18006 0.04421
 C228 C 0.52326 0.12765 0.02557
 H229 H 0.42011 0.28149 0.07303
 H230 H 0.42451 0.18123 0.06008
 H231 H 0.56386 0.18917 -0.02798
 H232 H 0.56777 0.12681 0.01208
 C233 C -0.31343 0.05923 0.54618
 C234 C -0.25320 0.03178 0.49809
 C235 C -0.20497 0.04037 0.51062
 C236 C -0.14553 0.01361 0.46203
 H237 H -0.23804 0.00231 0.44876
 H238 H -0.21716 0.06595 0.55972
 H239 H -0.32666 0.09170 0.59416
 H240 H -0.13379 -0.01213 0.41312
 C241 C 0.22996 0.02475 0.54248
 C242 C 0.19410 0.00568 0.57147
 C243 C 0.14033 0.00651 0.56385
 C244 C 0.14353 -0.00999 0.50778
 H245 H 0.20108 -0.00657 0.60531
 H246 H 0.09831 0.01853 0.60489
 H247 H 0.21788 0.04375 0.51435
 H248 H 0.18756 -0.02677 0.46563
 C249 C 0.02267 0.46117 1.23373
 C250 C -0.02798 0.49343 1.23064
 C251 C -0.01939 0.48567 1.16921
 C252 C -0.06427 0.52852 1.16694
 H253 H -0.07534 0.52769 1.27369
 H254 H 0.02586 0.44619 1.12536
 H255 H 0.07032 0.43073 1.19071
 H256 H -0.10783 0.57018 1.21098
 C257 C 0.01864 0.51131 0.72301
 C258 C -0.00500 0.56383 0.77875
 C259 C -0.01268 0.56413 0.83769
 C260 C 0.01379 0.51130 0.84028
 H261 H -0.02252 0.61044 0.78326
 H262 H -0.04284 0.61111 0.88145
 H263 H 0.03772 0.46425 0.71738
 H264 H 0.04595 0.46393 0.79727
   
