data_POSCAR
  _audit_creation_date              2014-09-24
  _audit_creation_method            'ToBaCCo'
  _symmetry_space_group_name_H-M    'P1'
  _symmetry_Int_Tables_number       1
  _symmetry_cell_setting            triclinic
  loop_
  _symmetry_equiv_pos_as_xyz
 x,y,z
_cell_length_a 29.6379
_cell_length_b 22.6834
_cell_length_c 6.8844
_cell_angle_alpha 89.769900
_cell_angle_beta 90.185900
_cell_angle_gamma 90.139100
loop_
  _atom_site_label
  _atom_site_type_symbol
  _atom_site_fract_x
  _atom_site_fract_y
  _atom_site_fract_z
C1 C 0.20858 0.21535 0.23836
 C2 C 0.20836 0.27799 0.22093
 C3 C 0.24995 0.30792 0.22299
 C4 C 0.29147 0.27990 0.25701
 C5 C 0.29190 0.21727 0.27364
 C6 C 0.25018 0.18738 0.27385
 H7 H 0.25011 0.14093 0.30643
 H8 H 0.25004 0.35456 0.19411
 C9 C 0.79202 0.28288 0.21648
 C10 C 0.79228 0.22019 0.23478
 C11 C 0.75063 0.19082 0.25441
 C12 C 0.70900 0.22018 0.26611
 C13 C 0.70920 0.28285 0.26712
 C14 C 0.75048 0.31213 0.23852
 H15 H 0.75009 0.35930 0.23394
 H16 H 0.75058 0.14348 0.26079
 C17 C 0.70900 0.72015 0.73266
 C18 C 0.70905 0.78280 0.73308
 C19 C 0.75028 0.81209 0.76329
 C20 C 0.79190 0.78290 0.78530
 C21 C 0.79229 0.72029 0.76563
 C22 C 0.75070 0.69087 0.74436
 H23 H 0.75074 0.64357 0.73674
 H24 H 0.74977 0.85923 0.76911
 C25 C 0.29055 0.78165 0.74057
 C26 C 0.29111 0.71921 0.72560
 C27 C 0.24975 0.68882 0.72946
 C28 C 0.20809 0.71649 0.76434
 C29 C 0.20762 0.77919 0.77922
 C30 C 0.24907 0.80948 0.77426
 H31 H 0.24913 0.85616 0.80098
 H32 H 0.25015 0.64227 0.70044
 O33 O 0.95512 -0.03586 -0.19399
 O34 O 1.04341 0.06938 -0.05042
 O35 O 1.04384 -0.03539 -0.19723
 O36 O 0.95562 0.06856 -0.05152
 O37 O 0.95648 0.03273 0.24730
 O38 O 1.04445 -0.07225 0.10029
 O39 O 1.04565 0.03179 0.24600
 O40 O 0.95664 -0.07283 0.10334
 Cu41 Cu 0.99952 0.02057 -0.15237
 Cu42 Cu 1.00074 -0.02396 0.20362
 C43 C 0.94041 -0.07173 -0.06715
 C44 C 1.06016 0.06778 0.11910
 C45 C 1.05945 -0.07109 -0.07178
 C46 C 0.94070 0.06796 0.12055
 O47 O 0.54294 0.42986 0.56646
 O48 O 0.45557 0.53528 0.71053
 O49 O 0.45552 0.43074 0.56311
 O50 O 0.54422 0.53466 0.71236
 O51 O 0.54436 0.57189 0.41534
 O52 O 0.45503 0.46838 0.26663
 O53 O 0.45622 0.57247 0.41341
 O54 O 0.54434 0.46749 0.27002
 Cu55 Cu 0.49952 0.47875 0.66727
 Cu56 Cu 0.50005 0.52394 0.31203
 C57 C 0.55904 0.43137 0.39635
 C58 C 0.44057 0.57120 0.58440
 C59 C 0.43971 0.43247 0.39202
 C60 C 0.55978 0.57044 0.58716
 O61 O -0.04395 0.56827 0.05398
 O62 O 0.04451 0.46410 0.20198
 O63 O 0.04380 0.56920 0.05437
 O64 O -0.04436 0.46374 0.19812
 O65 O -0.04314 0.42727 -0.09887
 O66 O 0.04574 0.53211 -0.24170
 O67 O 0.04474 0.42783 -0.09533
 O68 O -0.04338 0.53297 -0.24457
 Cu69 Cu 0.00006 0.52016 0.15616
 Cu70 Cu 0.00090 0.47622 -0.19935
 C71 C -0.05902 0.56800 -0.11827
 C72 C 0.06000 0.42868 0.07670
 C73 C 0.06033 0.56794 -0.11503
 C74 C -0.05924 0.42813 0.07137
 O75 O 0.45592 1.07263 0.58049
 O76 O 0.54414 0.96750 0.72700
 O77 O 0.54414 1.07206 0.58017
 O78 O 0.45487 0.96859 0.72953
 O79 O 0.45505 0.93116 0.43378
 O80 O 0.54371 1.03515 0.28373
 O81 O 0.54244 0.93017 0.43113
 O82 O 0.45493 1.03577 0.28392
 Cu83 Cu 0.49986 1.02409 0.68345
 Cu84 Cu 0.49897 0.97922 0.32904
 C85 C 0.44000 1.07148 0.40953
 C86 C 0.55869 0.93147 0.60140
 C87 C 0.55945 1.07074 0.40863
 C88 C 0.43940 0.93279 0.60468
 C89 C 1.09598 0.17408 0.19429
 C90 C 1.13113 0.16880 0.36204
 C91 C 1.16931 0.17810 0.21328
 C92 C 1.13478 0.18308 0.04616
 C93 C 1.17187 0.11034 0.18157
 C94 C 1.13332 0.10126 0.32944
 C95 C 1.09895 0.10739 0.16350
 C96 C 1.13713 0.11582 0.01589
 H97 H 1.06400 0.19933 0.20013
 H98 H 1.12909 0.18900 0.50831
 H99 H 1.13479 0.21364 -0.07917
 H100 H 1.20155 0.08088 0.16928
 H101 H 1.13248 0.06722 0.44571
 H102 H 1.13955 0.09355 -0.12707
 C103 C 0.59838 0.67678 0.59552
 C104 C 0.61985 0.68774 0.79827
 C105 C 0.66710 0.68164 0.70713
 C106 C 0.64602 0.67031 0.50572
 C107 C 0.66619 0.61439 0.75043
 C108 C 0.61869 0.62058 0.83955
 C109 C 0.59790 0.61042 0.63819
 C110 C 0.64494 0.60348 0.54871
 H111 H 0.56994 0.70176 0.53021
 H112 H 0.60800 0.71928 0.90857
 H113 H 0.65768 0.68926 0.36569
 H114 H 0.69259 0.58637 0.81815
 H115 H 0.60726 0.59965 0.97699
 H116 H 0.65505 0.56827 0.44615
 C117 C -0.13340 0.39885 0.27514
 C118 C -0.17078 0.38554 0.12480
 C119 C -0.16849 0.31896 0.17936
 C120 C -0.13135 0.33261 0.33024
 C121 C -0.13273 0.30944 0.02037
 C122 C -0.13485 0.37559 -0.03248
 C123 C -0.09783 0.38839 0.11786
 C124 C -0.09497 0.32288 0.17098
 H125 H -0.13349 0.43596 0.37982
 H126 H -0.19993 0.41500 0.09689
 H127 H -0.13027 0.31649 0.48261
 H128 H -0.13172 0.27574 -0.09495
 H129 H -0.13625 0.39373 -0.18247
 H130 H -0.06301 0.29814 0.19053
 C131 C 0.36210 0.88386 0.50928
 C132 C 0.36527 0.81673 0.54237
 C133 C 0.33156 0.82143 0.71153
 C134 C 0.32821 0.88901 0.67735
 C135 C 0.37047 0.83155 0.85710
 C136 C 0.40473 0.82649 0.68728
 C137 C 0.40100 0.89309 0.65371
 C138 C 0.36749 0.89897 0.82189
 H139 H 0.35869 0.90586 0.36557
 H140 H 0.36482 0.78566 0.41916
 H141 H 0.29799 0.91762 0.66715
 H142 H 0.37346 0.81170 1.00416
 H143 H 0.43690 0.80159 0.69212
 H144 H 0.36865 0.93320 0.93661
 C145 C -0.11725 0.62369 -0.36566
 C146 C -0.16498 0.61529 -0.27994
 C147 C -0.16582 0.68129 -0.21998
 C148 C -0.11838 0.68965 -0.30804
 C149 C -0.14511 0.66485 -0.02150
 C150 C -0.14413 0.59937 -0.08087
 C151 C -0.09690 0.60856 -0.16671
 C152 C -0.09734 0.67366 -0.10789
 H153 H -0.10562 0.60625 -0.50737
 H154 H -0.19124 0.58891 -0.35530
 H155 H -0.10622 0.72388 -0.40986
 H156 H -0.15697 0.67999 0.12264
 H157 H -0.15458 0.56167 0.01221
 H158 H -0.06898 0.69710 -0.03586
 C159 C 0.40106 1.17752 0.40483
 C160 C 0.37899 1.18900 0.20319
 C161 C 0.33205 1.18179 0.29689
 C162 C 0.35365 1.16993 0.49702
 C163 C 0.33323 1.11470 0.25168
 C164 C 0.38043 1.12204 0.16064
 C165 C 0.40177 1.11137 0.36076
 C166 C 0.35500 1.10329 0.45234
 H167 H 0.42954 1.20272 0.46896
 H168 H 0.39059 1.22065 0.09192
 H169 H 0.34237 1.18825 0.63800
 H170 H 0.30670 1.08680 0.18422
 H171 H 0.39163 1.10186 0.02228
 H172 H 0.34534 1.06743 0.55443
 C173 C 1.09712 -0.17775 -0.08178
 C174 C 1.11818 -0.18839 -0.28490
 C175 C 1.16562 -0.18290 -0.19344
 C176 C 1.14495 -0.17178 0.00823
 C177 C 1.16513 -0.11552 -0.23537
 C178 C 1.11749 -0.12117 -0.32451
 C179 C 1.09711 -0.11131 -0.12295
 C180 C 1.14432 -0.10486 -0.03336
 H181 H 1.06863 -0.20283 -0.01722
 H182 H 1.10565 -0.21918 -0.39658
 H183 H 1.15657 -0.19107 0.14805
 H184 H 1.19173 -0.08776 -0.30289
 H185 H 1.10603 -0.09985 -0.46145
 H186 H 1.15487 -0.06990 0.06983
 C187 C 0.63208 0.39931 0.18760
 C188 C 0.67032 0.38885 0.33658
 C189 C 0.66767 0.32144 0.29806
 C190 C 0.62970 0.33216 0.14817
 C191 C 0.63279 0.31485 0.46230
 C192 C 0.63532 0.38179 0.49962
 C193 C 0.59742 0.39164 0.35067
 C194 C 0.59426 0.32525 0.31296
 H195 H 0.63156 0.43438 0.07465
 H196 H 0.69987 0.41851 0.35351
 H197 H 0.62783 0.31342 -0.00030
 H198 H 0.63247 0.28304 0.58428
 H199 H 0.63761 0.40268 0.64498
 H200 H 0.56224 0.29999 0.30209
 C201 C 0.86507 -0.12495 0.03597
 C202 C 0.82896 -0.11464 -0.12156
 C203 C 0.83134 -0.18104 -0.17664
 C204 C 0.86728 -0.19094 -0.01740
 C205 C 0.86830 -0.16677 -0.32706
 C206 C 0.86614 -0.10072 -0.27147
 C207 C 0.90190 -0.11154 -0.11394
 C208 C 0.90485 -0.17687 -0.16756
 H209 H 0.86378 -0.10728 0.18607
 H210 H 0.79980 -0.08534 -0.09364
 H211 H 0.86848 -0.22501 0.09761
 H212 H 0.86926 -0.18244 -0.47952
 H213 H 0.86587 -0.06328 -0.37585
 H214 H 0.93685 -0.20143 -0.18698
 C215 C 0.36322 0.38177 0.48939
 C216 C 0.32853 0.38736 0.32348
 C217 C 0.33240 0.32004 0.28611
 C218 C 0.36689 0.31494 0.45331
 C219 C 0.37054 0.33186 0.13891
 C220 C 0.36705 0.39897 0.17730
 C221 C 0.40138 0.39259 0.34329
 C222 C 0.40560 0.32628 0.30666
 H223 H 0.36021 0.40280 0.63419
 H224 H 0.29806 0.41534 0.33692
 H225 H 0.36739 0.28338 0.57597
 H226 H 0.37317 0.31311 -0.00926
 H227 H 0.36735 0.43396 0.06408
 H228 H 0.43794 0.30185 0.29898
 C229 C 0.13742 0.61596 -0.01245
 C230 C 0.17180 0.61112 -0.17869
 C231 C 0.16901 0.67897 -0.20984
 C232 C 0.13484 0.68331 -0.04223
 C233 C 0.13051 0.66998 -0.35813
 C234 C 0.13293 0.60235 -0.32606
 C235 C 0.09893 0.60782 -0.15959
 C236 C 0.09573 0.67460 -0.18986
 H237 H 0.14021 0.59325 0.13030
 H238 H 0.20151 0.58165 -0.16704
 H239 H 0.13508 0.71354 0.08321
 H240 H 0.12810 0.69062 -0.50422
 H241 H 0.13191 0.56867 -0.44257
 H242 H 0.06367 0.69973 -0.19507
 C243 C 0.64473 1.10320 0.44815
 C244 C 0.66592 1.11459 0.24687
 C245 C 0.66703 1.18172 0.29047
 C246 C 0.64602 1.16990 0.49143
 C247 C 0.61975 1.18828 0.19848
 C248 C 0.61838 1.12124 0.15691
 C249 C 0.59767 1.11061 0.35784
 C250 C 0.59835 1.17684 0.40080
 H251 H 0.65481 1.06767 0.55075
 H252 H 0.69221 1.08663 0.17959
 H253 H 0.65781 1.18837 0.63180
 H254 H 0.60792 1.22018 0.08809
 H255 H 0.60683 1.10075 0.01917
 H256 H 0.57001 1.20176 0.46573
 C257 C 0.11889 0.37788 0.32832
 C258 C 0.11926 0.31076 0.28850
 C259 C 0.16639 0.31624 0.19519
 C260 C 0.16625 0.38351 0.23736
 C261 C 0.14504 0.32802 -0.00561
 C262 C 0.09752 0.32203 0.08624
 C263 C 0.09782 0.38837 0.12758
 C264 C 0.14474 0.39482 0.03619
 H265 H 0.10798 0.39889 0.46574
 H266 H 0.10704 0.27973 0.40056
 H267 H 0.19326 0.41084 0.30374
 H268 H 0.15609 0.30906 -0.14596
 H269 H 0.06874 0.29724 0.02276
 H270 H 0.15503 0.43000 -0.06728
 C271 C 0.63498 0.88232 0.49985
 C272 C 0.67001 0.88892 0.66379
 C273 C 0.66745 0.82139 0.70168
 C274 C 0.63254 0.81526 0.53654
 C275 C 0.62949 0.83155 0.85074
 C276 C 0.63179 0.89884 0.81194
 C277 C 0.59711 0.89164 0.64796
 C278 C 0.59402 0.82511 0.68502
 H279 H 0.63723 0.90369 0.35473
 H280 H 0.69952 0.91869 0.64778
 H281 H 0.63224 0.78381 0.41438
 H282 H 0.62766 0.81232 0.99898
 H283 H 0.63126 0.93354 0.92518
 H284 H 0.56205 0.79973 0.69487
 C285 C 0.88262 0.12295 0.36703
 C286 C 0.88157 0.18910 0.30990
 C287 C 0.83409 0.18113 0.22082
 C288 C 0.83486 0.11494 0.28029
 C289 C 0.85469 0.16526 0.02263
 C290 C 0.90250 0.17369 0.11005
 C291 C 0.90287 0.10841 0.16837
 C292 C 0.85560 0.09960 0.08151
 H293 H 0.89429 0.10504 0.50884
 H294 H 0.89383 0.22295 0.41231
 H295 H 0.80856 0.08842 0.35491
 H296 H 0.84279 0.18088 -0.12164
 H297 H 0.93086 0.19727 0.03875
 H298 H 0.84507 0.06221 -0.01207
 C299 C 0.35564 0.60392 0.54192
 C300 C 0.33435 0.61467 0.74294
 C301 C 0.33336 0.68189 0.69939
 C302 C 0.35450 0.67074 0.49873
 C303 C 0.38056 0.68836 0.79232
 C304 C 0.38177 0.62125 0.83367
 C305 C 0.40263 0.61126 0.63308
 C306 C 0.40212 0.67761 0.59025
 H307 H 0.34561 0.56859 0.43916
 H308 H 0.30776 0.58677 0.80991
 H309 H 0.34295 0.68969 0.35829
 H310 H 0.39245 0.71981 0.90327
 H311 H 0.39316 0.60042 0.97152
 H312 H 0.43053 0.70291 0.52609
   
