data_POSCAR
  _audit_creation_date              2014-09-24
  _audit_creation_method            'ToBaCCo'
  _symmetry_space_group_name_H-M    'P1'
  _symmetry_Int_Tables_number       1
  _symmetry_cell_setting            triclinic
  loop_
  _symmetry_equiv_pos_as_xyz
 x,y,z
_cell_length_a 52.0478
_cell_length_b 52.1129
_cell_length_c 52.1048
_cell_angle_alpha 89.941700
_cell_angle_beta 89.999000
_cell_angle_gamma 90.050600
loop_
  _atom_site_label
  _atom_site_type_symbol
  _atom_site_fract_x
  _atom_site_fract_y
  _atom_site_fract_z
C1 C 0.27177 0.23929 0.23885
 C2 C 0.26080 0.22832 0.26086
 C3 C 0.23914 0.23915 0.27170
 C4 C 0.22818 0.26116 0.26074
 C5 C 0.23900 0.27197 0.23904
 C6 C 0.26098 0.26098 0.22804
 C7 C 0.29277 0.23284 0.22418
 N8 N 0.29503 0.25011 0.20472
 C9 C 0.27560 0.26739 0.20699
 C10 C 0.22439 0.29301 0.23263
 N11 N 0.20494 0.29527 0.24991
 C12 C 0.20718 0.27581 0.26718
 C13 C 0.23271 0.22451 0.29274
 N14 N 0.24995 0.20504 0.29497
 C15 C 0.26721 0.20729 0.27549
 H16 H 0.30565 0.21693 0.22769
 H17 H 0.27208 0.28330 0.19409
 H18 H 0.22792 0.30590 0.21672
 H19 H 0.19428 0.27228 0.28310
 H20 H 0.21682 0.22805 0.30566
 H21 H 0.28309 0.19438 0.27194
 C22 C 0.72821 -0.23929 0.23898
 C23 C 0.73917 -0.22831 0.26098
 C24 C 0.76086 -0.23911 0.27180
 C25 C 0.77183 -0.26109 0.26083
 C26 C 0.76104 -0.27184 0.23922
 C27 C 0.73902 -0.26087 0.22822
 C28 C 0.70720 -0.23290 0.22434
 N29 N 0.70473 -0.25010 0.20470
 C30 C 0.72440 -0.26729 0.20722
 C31 C 0.77567 -0.29283 0.23281
 N32 N 0.79533 -0.29533 0.25002
 C33 C 0.79285 -0.27571 0.26724
 C34 C 0.76729 -0.22449 0.29282
 N35 N 0.75001 -0.20506 0.29506
 C36 C 0.73273 -0.20731 0.27560
 H37 H 0.69468 -0.21687 0.22832
 H38 H 0.72841 -0.28333 0.19474
 H39 H 0.77166 -0.30531 0.21677
 H40 H 0.80536 -0.27172 0.28328
 H41 H 0.78319 -0.22802 0.30573
 H42 H 0.71682 -0.19442 0.27206
 C43 C 0.72835 0.23918 0.76083
 C44 C 0.73935 0.22820 0.73886
 C45 C 0.76104 0.23905 0.72804
 C46 C 0.77195 0.26110 0.73898
 C47 C 0.76111 0.27186 0.76055
 C48 C 0.73910 0.26083 0.77154
 C49 C 0.70733 0.23274 0.77546
 N50 N 0.70480 0.24999 0.79505
 C51 C 0.72444 0.26724 0.79252
 C52 C 0.77569 0.29291 0.76693
 N53 N 0.79537 0.29544 0.74974
 C54 C 0.79295 0.27578 0.73256
 C55 C 0.76751 0.22442 0.70705
 N56 N 0.75026 0.20492 0.70484
 C57 C 0.73297 0.20714 0.72428
 H58 H 0.69484 0.21667 0.77150
 H59 H 0.72841 0.28331 0.80498
 H60 H 0.77164 0.30540 0.78295
 H61 H 0.80549 0.27180 0.71654
 H62 H 0.78341 0.22797 0.69415
 H63 H 0.71708 0.19421 0.72783
 C64 C 0.27201 -0.23943 0.76146
 C65 C 0.26105 -0.22844 0.73945
 C66 C 0.23932 -0.23922 0.72866
 C67 C 0.22831 -0.26120 0.73968
 C68 C 0.23910 -0.27197 0.76130
 C69 C 0.26116 -0.26102 0.77225
 C70 C 0.29305 -0.23306 0.77607
 N71 N 0.29549 -0.25027 0.79573
 C72 C 0.27578 -0.26745 0.79326
 C73 C 0.22443 -0.29296 0.76774
 N74 N 0.20475 -0.29543 0.75055
 C75 C 0.20726 -0.27580 0.73330
 C76 C 0.23291 -0.22459 0.70763
 N77 N 0.25023 -0.20516 0.70535
 C78 C 0.26752 -0.20743 0.72479
 H79 H 0.30559 -0.21703 0.77206
 H80 H 0.27174 -0.28349 0.80577
 H81 H 0.22842 -0.30545 0.78380
 H82 H 0.19475 -0.27180 0.71726
 H83 H 0.21698 -0.22810 0.69475
 H84 H 0.28346 -0.19455 0.72830
 C85 C 0.72820 -0.23947 0.76143
 C86 C 0.73916 -0.22847 0.73941
 C87 C 0.76085 -0.23927 0.72860
 C88 C 0.77183 -0.26126 0.73960
 C89 C 0.76103 -0.27202 0.76123
 C90 C 0.73901 -0.26106 0.77221
 C91 C 0.70719 -0.23308 0.77605
 N92 N 0.70472 -0.25030 0.79572
 C93 C 0.72439 -0.26748 0.79323
 C94 C 0.77567 -0.29301 0.76767
 N95 N 0.79533 -0.29550 0.75045
 C96 C 0.79284 -0.27587 0.73321
 C97 C 0.76728 -0.22464 0.70756
 N98 N 0.75000 -0.20521 0.70529
 C99 C 0.73272 -0.20746 0.72475
 H100 H 0.69467 -0.21705 0.77205
 H101 H 0.72840 -0.28353 0.80573
 H102 H 0.77166 -0.30550 0.78373
 H103 H 0.80535 -0.27186 0.71716
 H104 H 0.78318 -0.22816 0.69466
 H105 H 0.71682 -0.19458 0.72828
 C106 C 0.27179 0.23920 0.76086
 C107 C 0.26079 0.22820 0.73889
 C108 C 0.23909 0.23899 0.72807
 C109 C 0.22815 0.26099 0.73901
 C110 C 0.23902 0.27180 0.76066
 C111 C 0.26104 0.26081 0.77162
 C112 C 0.29283 0.23279 0.77547
 N113 N 0.29536 0.25001 0.79509
 C114 C 0.27571 0.26722 0.79259
 C115 C 0.22441 0.29282 0.76708
 N116 N 0.20492 0.29508 0.74984
 C117 C 0.20712 0.27563 0.73260
 C118 C 0.23264 0.22435 0.70708
 N119 N 0.24991 0.20490 0.70485
 C120 C 0.26720 0.20717 0.72429
 H121 H 0.30532 0.21675 0.77148
 H122 H 0.27173 0.28327 0.80507
 H123 H 0.22798 0.30571 0.78296
 H124 H 0.19418 0.27211 0.71673
 H125 H 0.21673 0.22786 0.69418
 H126 H 0.28311 0.19429 0.72784
 C127 C 0.27200 -0.23924 0.23896
 C128 C 0.26104 -0.22826 0.26095
 C129 C 0.23930 -0.23905 0.27175
 C130 C 0.22829 -0.26102 0.26075
 C131 C 0.23908 -0.27178 0.23915
 C132 C 0.26115 -0.26082 0.22819
 C133 C 0.29304 -0.23287 0.22434
 N134 N 0.29549 -0.25007 0.20471
 C135 C 0.27577 -0.26724 0.20720
 C136 C 0.22441 -0.29275 0.23273
 N137 N 0.20472 -0.29524 0.24992
 C138 C 0.20723 -0.27562 0.26714
 C139 C 0.23289 -0.22443 0.29276
 N140 N 0.25021 -0.20501 0.29502
 C141 C 0.26751 -0.20727 0.27558
 H142 H 0.30559 -0.21685 0.22834
 H143 H 0.27173 -0.28327 0.19471
 H144 H 0.22841 -0.30523 0.21669
 H145 H 0.19471 -0.27163 0.28317
 H146 H 0.21695 -0.22795 0.30564
 H147 H 0.28345 -0.19439 0.27207
 C148 C 0.72840 0.23925 0.23883
 C149 C 0.73935 0.22831 0.26085
 C150 C 0.76099 0.23920 0.27171
 C151 C 0.77193 0.26125 0.26075
 C152 C 0.76116 0.27201 0.23911
 C153 C 0.73920 0.26098 0.22806
 C154 C 0.70741 0.23278 0.22414
 N155 N 0.70517 0.25006 0.20469
 C156 C 0.72460 0.26739 0.20701
 C157 C 0.77576 0.29307 0.23274
 N158 N 0.79538 0.29561 0.25000
 C159 C 0.79290 0.27594 0.26721
 C160 C 0.76742 0.22458 0.29275
 N161 N 0.75020 0.20506 0.29496
 C162 C 0.73295 0.20725 0.27547
 H163 H 0.69453 0.21684 0.22763
 H164 H 0.72812 0.28331 0.19413
 H165 H 0.77176 0.30556 0.21668
 H166 H 0.80538 0.27197 0.28328
 H167 H 0.78329 0.22816 0.30568
 H168 H 0.71709 0.19429 0.27191
 O169 O 0.27126 0.02489 0.47506
 O170 O 0.27134 -0.02511 0.52505
 O171 O 0.27133 -0.02508 0.47507
 O172 O 0.27125 0.02485 0.52503
 O173 O 0.22887 0.02475 0.52502
 O174 O 0.22896 -0.02518 0.47507
 O175 O 0.22896 -0.02521 0.52504
 O176 O 0.22889 0.02478 0.47506
 Cu177 Cu 0.27554 -0.00010 0.50005
 Cu178 Cu 0.22468 -0.00023 0.50005
 C179 C 0.25006 0.03340 0.46649
 C180 C 0.25017 -0.03373 0.53362
 C181 C 0.25016 -0.03369 0.46651
 C182 C 0.25005 0.03336 0.53359
 O183 O 0.77141 0.02480 0.52500
 O184 O 0.77132 -0.02514 0.47507
 O185 O 0.77138 0.02482 0.47503
 O186 O 0.77132 -0.02516 0.52504
 O187 O 0.72895 -0.02514 0.52505
 O188 O 0.72901 0.02484 0.47505
 O189 O 0.72895 -0.02512 0.47507
 O190 O 0.72903 0.02482 0.52501
 Cu191 Cu 0.77560 -0.00018 0.50003
 Cu192 Cu 0.72474 -0.00015 0.50005
 C193 C 0.75023 0.03337 0.53357
 C194 C 0.75012 -0.03369 0.46651
 C195 C 0.75021 0.03340 0.46647
 C196 C 0.75012 -0.03372 0.53361
 O197 O 0.47510 0.27113 0.02440
 O198 O 0.52513 0.27112 -0.02557
 O199 O 0.47511 0.27114 -0.02557
 O200 O 0.52513 0.27112 0.02440
 O201 O 0.52508 0.22880 0.02445
 O202 O 0.47506 0.22882 -0.02553
 O203 O 0.52508 0.22880 -0.02552
 O204 O 0.47506 0.22881 0.02444
 Cu205 Cu 0.50012 0.27537 -0.00059
 Cu206 Cu 0.50006 0.22457 -0.00054
 C207 C 0.46651 0.24998 0.03299
 C208 C 0.53368 0.24996 -0.03411
 C209 C 0.46651 0.24998 -0.03411
 C210 C 0.53368 0.24996 0.03299
 O211 O 0.52515 0.77087 0.02516
 O212 O 0.47512 0.77083 -0.02480
 O213 O 0.47513 0.77087 0.02517
 O214 O 0.52514 0.77083 -0.02481
 O215 O 0.52510 0.72850 -0.02473
 O216 O 0.47508 0.72855 0.02524
 O217 O 0.47508 0.72851 -0.02472
 O218 O 0.52510 0.72855 0.02524
 Cu219 Cu 0.50014 0.77509 0.00017
 Cu220 Cu 0.50009 0.72429 0.00026
 C221 C 0.53370 0.74971 0.03377
 C222 C 0.46652 0.74967 -0.03333
 C223 C 0.46653 0.74972 0.03378
 C224 C 0.53370 0.74966 -0.03333
 O225 O 0.02490 0.47536 0.27116
 O226 O -0.02510 0.52531 0.27117
 O227 O -0.02512 0.47534 0.27119
 O228 O 0.02493 0.52533 0.27114
 O229 O 0.02490 0.52535 0.22881
 O230 O -0.02515 0.47537 0.22887
 O231 O -0.02512 0.52533 0.22884
 O232 O 0.02487 0.47539 0.22883
 Cu233 Cu -0.00010 0.50033 0.27541
 Cu234 Cu -0.00013 0.50036 0.22460
 C235 C 0.03346 0.46681 0.25000
 C236 C -0.03368 0.53388 0.25000
 C237 C -0.03371 0.46679 0.25004
 C238 C 0.03349 0.53390 0.24996
 O239 O 0.02490 0.52508 0.77148
 O240 O -0.02515 0.47510 0.77128
 O241 O 0.02487 0.47512 0.77132
 O242 O -0.02513 0.52506 0.77145
 O243 O -0.02510 0.52524 0.72912
 O244 O 0.02490 0.47530 0.72899
 O245 O -0.02512 0.47527 0.72896
 O246 O 0.02492 0.52526 0.72915
 Cu247 Cu -0.00013 0.50007 0.77562
 Cu248 Cu -0.00010 0.50029 0.72481
 C249 C 0.03349 0.53373 0.75034
 C250 C -0.03371 0.46662 0.75009
 C251 C 0.03345 0.46664 0.75013
 C252 C -0.03368 0.53371 0.75031
 C253 C 0.35277 0.25003 0.14681
 C254 C 0.34521 0.22699 0.15838
 C255 C 0.32627 0.22699 0.17740
 C256 C 0.31459 0.25008 0.18510
 C257 C 0.32233 0.27315 0.17333
 C258 C 0.34129 0.27310 0.15433
 C259 C 0.37228 0.25000 0.12725
 C260 C 0.38864 0.24999 0.11086
 C261 C 0.40817 0.24999 0.09132
 C262 C 0.41769 0.22675 0.08183
 C263 C 0.43667 0.22672 0.06285
 C264 C 0.44639 0.24998 0.05309
 C265 C 0.43668 0.27324 0.06276
 C266 C 0.41769 0.27322 0.08174
 H267 H 0.35392 0.20900 0.15265
 H268 H 0.32052 0.20888 0.18580
 H269 H 0.31400 0.29127 0.17904
 H270 H 0.34705 0.29106 0.14555
 H271 H 0.41044 0.20866 0.08912
 H272 H 0.44373 0.20849 0.05583
 H273 H 0.44374 0.29147 0.05566
 H274 H 0.41045 0.29132 0.08895
 C275 C 0.64752 0.74981 0.14752
 C276 C 0.66527 0.72980 0.14885
 C277 C 0.68428 0.72976 0.16779
 C278 C 0.68601 0.74987 0.18599
 C279 C 0.66777 0.76996 0.18422
 C280 C 0.64881 0.76986 0.16521
 C281 C 0.62797 0.74977 0.12799
 C282 C 0.61159 0.74975 0.11162
 C283 C 0.59205 0.74975 0.09209
 C284 C 0.58255 0.72651 0.08255
 C285 C 0.56356 0.72647 0.06357
 C286 C 0.55382 0.74972 0.05387
 C287 C 0.56350 0.77299 0.06359
 C288 C 0.58249 0.77297 0.08258
 H289 H 0.66439 0.71411 0.13524
 H290 H 0.69726 0.71364 0.16799
 H291 H 0.66793 0.78609 0.19715
 H292 H 0.63516 0.78552 0.16430
 H293 H 0.58982 0.70842 0.08978
 H294 H 0.55653 0.70824 0.05650
 H295 H 0.55642 0.79122 0.05655
 H296 H 0.58971 0.79107 0.08983
 C297 C 0.64756 0.24994 -0.14780
 C298 C 0.64899 0.22981 -0.16538
 C299 C 0.66795 0.22975 -0.18438
 C300 C 0.68607 0.24997 -0.18625
 C301 C 0.68421 0.27018 -0.16818
 C302 C 0.66518 0.27010 -0.14925
 C303 C 0.62800 0.24992 -0.12828
 C304 C 0.61162 0.24992 -0.11192
 C305 C 0.59206 0.24993 -0.09240
 C306 C 0.58245 0.22670 -0.08291
 C307 C 0.56345 0.22668 -0.06394
 C308 C 0.55381 0.24995 -0.05420
 C309 C 0.56361 0.27320 -0.06388
 C310 C 0.58261 0.27317 -0.08285
 H311 H 0.63544 0.21404 -0.16439
 H312 H 0.66824 0.21354 -0.19721
 H313 H 0.69707 0.28641 -0.16848
 H314 H 0.66419 0.28585 -0.13573
 H315 H 0.58963 0.20860 -0.09017
 H316 H 0.55632 0.20846 -0.05691
 H317 H 0.55661 0.29144 -0.05681
 H318 H 0.58993 0.29126 -0.09007
 C319 C 0.35271 0.74964 -0.14709
 C320 C 0.33491 0.72964 -0.14836
 C321 C 0.31589 0.72960 -0.16730
 C322 C 0.31421 0.74970 -0.18556
 C323 C 0.33252 0.76976 -0.18386
 C324 C 0.35147 0.76967 -0.16485
 C325 C 0.37225 0.74962 -0.12755
 C326 C 0.38862 0.74962 -0.11118
 C327 C 0.40816 0.74963 -0.09164
 C328 C 0.41762 0.72640 -0.08202
 C329 C 0.43661 0.72639 -0.06305
 C330 C 0.44640 0.74965 -0.05343
 C331 C 0.43676 0.77291 -0.06323
 C332 C 0.41777 0.77287 -0.08221
 H333 H 0.33573 0.71397 -0.13469
 H334 H 0.30287 0.71350 -0.16745
 H335 H 0.33240 0.78588 -0.19684
 H336 H 0.36517 0.78532 -0.16399
 H337 H 0.41031 0.70830 -0.08920
 H338 H 0.44361 0.70816 -0.05592
 H339 H 0.44388 0.79114 -0.05625
 H340 H 0.41058 0.79096 -0.08952
 C341 C 0.14719 0.35310 0.24995
 C342 C 0.15469 0.34153 0.27300
 C343 C 0.17364 0.32253 0.27301
 C344 C 0.18538 0.31485 0.24993
 C345 C 0.17769 0.32664 0.22685
 C346 C 0.15872 0.34561 0.22689
 C347 C 0.12767 0.37264 0.24995
 C348 C 0.11131 0.38900 0.24996
 C349 C 0.09178 0.40853 0.24997
 C350 C 0.08226 0.41801 0.27321
 C351 C 0.06328 0.43698 0.27325
 C352 C 0.05357 0.44672 0.24999
 C353 C 0.06328 0.43705 0.22672
 C354 C 0.08226 0.41808 0.22674
 H355 H 0.14594 0.34723 0.29097
 H356 H 0.17934 0.31412 0.29112
 H357 H 0.18606 0.32095 0.20873
 H358 H 0.15300 0.35440 0.20892
 H359 H 0.08950 0.41075 0.29131
 H360 H 0.05622 0.44401 0.29148
 H361 H 0.05622 0.44413 0.20849
 H362 H 0.08950 0.41087 0.20864
 C363 C 0.14744 0.64744 0.75062
 C364 C 0.16515 0.64877 0.77069
 C365 C 0.18420 0.66770 0.77073
 C366 C 0.18599 0.68588 0.75058
 C367 C 0.16778 0.68411 0.73044
 C368 C 0.14880 0.66512 0.73053
 C369 C 0.12788 0.62791 0.75062
 C370 C 0.11148 0.61155 0.75060
 C371 C 0.09191 0.59202 0.75054
 C372 C 0.08243 0.58235 0.77375
 C373 C 0.06341 0.56338 0.77371
 C374 C 0.05363 0.55383 0.75042
 C375 C 0.06331 0.56369 0.72718
 C376 C 0.08232 0.58266 0.72728
 H377 H 0.16422 0.63517 0.78641
 H378 H 0.19714 0.66791 0.78689
 H379 H 0.16800 0.69704 0.71427
 H380 H 0.13518 0.66422 0.71483
 H381 H 0.08972 0.58947 0.79187
 H382 H 0.05638 0.55621 0.79192
 H383 H 0.05620 0.55676 0.70893
 H384 H 0.08953 0.59002 0.70920
 C385 C -0.14746 0.64755 0.25000
 C386 C -0.14882 0.66518 0.27011
 C387 C -0.16778 0.68416 0.27018
 C388 C -0.18595 0.68598 0.25002
 C389 C -0.18415 0.66786 0.22985
 C390 C -0.16513 0.64894 0.22991
 C391 C -0.12791 0.62804 0.24999
 C392 C -0.11154 0.61169 0.24998
 C393 C -0.09200 0.59216 0.24999
 C394 C -0.08255 0.58259 0.22676
 C395 C -0.06357 0.56363 0.22673
 C396 C -0.05379 0.55397 0.25000
 C397 C -0.06343 0.56373 0.27326
 C398 C -0.08241 0.58270 0.27323
 H399 H -0.13523 0.66423 0.28583
 H400 H -0.16801 0.69704 0.28637
 H401 H -0.19706 0.66811 0.21367
 H402 H -0.16420 0.63538 0.21418
 H403 H -0.08985 0.58979 0.20866
 H404 H -0.05657 0.55654 0.20850
 H405 H -0.05632 0.55671 0.29150
 H406 H -0.08960 0.58998 0.29133
 C407 C -0.14749 0.35275 0.74974
 C408 C -0.14873 0.33501 0.72973
 C409 C -0.16766 0.31596 0.72966
 C410 C -0.18594 0.31420 0.74973
 C411 C -0.18427 0.33244 0.76981
 C412 C -0.16528 0.35142 0.76974
 C413 C -0.12796 0.37231 0.74977
 C414 C -0.11159 0.38869 0.74980
 C415 C -0.09206 0.40825 0.74987
 C416 C -0.08259 0.41773 0.77314
 C417 C -0.06360 0.43673 0.77324
 C418 C -0.05383 0.44650 0.75001
 C419 C -0.06349 0.43684 0.72671
 C420 C -0.08247 0.41784 0.72667
 H421 H -0.13504 0.33590 0.71408
 H422 H -0.16778 0.30299 0.71355
 H423 H -0.19728 0.33226 0.78591
 H424 H -0.16445 0.36507 0.78540
 H425 H -0.08988 0.41044 0.79121
 H426 H -0.05659 0.44375 0.79150
 H427 H -0.05638 0.44394 0.70851
 H428 H -0.08967 0.41062 0.70855
 C429 C 0.24994 0.14723 0.35278
 C430 C 0.27301 0.15472 0.34121
 C431 C 0.27304 0.17370 0.32222
 C432 C 0.24995 0.18546 0.31455
 C433 C 0.22684 0.17778 0.32633
 C434 C 0.22686 0.15878 0.34530
 C435 C 0.24993 0.12768 0.37231
 C436 C 0.24994 0.11131 0.38867
 C437 C 0.24997 0.09176 0.40819
 C438 C 0.27325 0.08226 0.41769
 C439 C 0.27330 0.06327 0.43666
 C440 C 0.25003 0.05352 0.44639
 C441 C 0.22673 0.06321 0.43671
 C442 C 0.22673 0.08220 0.41774
 H443 H 0.29100 0.14595 0.34691
 H444 H 0.29118 0.17940 0.31381
 H445 H 0.20871 0.18617 0.32064
 H446 H 0.20887 0.15306 0.35408
 H447 H 0.29135 0.08953 0.41043
 H448 H 0.29157 0.05623 0.44369
 H449 H 0.20848 0.05612 0.44378
 H450 H 0.20860 0.08943 0.41052
 C451 C 0.75034 0.14710 0.64715
 C452 C 0.72725 0.15454 0.65869
 C453 C 0.72720 0.17351 0.67764
 C454 C 0.75029 0.18533 0.68530
 C455 C 0.77340 0.17770 0.67355
 C456 C 0.77340 0.15871 0.65462
 C457 C 0.75036 0.12756 0.62765
 C458 C 0.75035 0.11120 0.61131
 C459 C 0.75033 0.09166 0.59181
 C460 C 0.72705 0.08213 0.58233
 C461 C 0.72699 0.06316 0.56337
 C462 C 0.75027 0.05346 0.55365
 C463 C 0.77357 0.06318 0.56332
 C464 C 0.77357 0.08215 0.58228
 H465 H 0.70928 0.14572 0.65300
 H466 H 0.70906 0.17917 0.68603
 H467 H 0.79152 0.18614 0.67922
 H468 H 0.79140 0.15303 0.64585
 H469 H 0.70895 0.08937 0.58958
 H470 H 0.70873 0.05610 0.55635
 H471 H 0.79181 0.05614 0.55625
 H472 H 0.79170 0.08940 0.58949
 C473 C 0.25028 -0.14740 0.64749
 C474 C 0.27335 -0.15491 0.65902
 C475 C 0.27336 -0.17386 0.67803
 C476 C 0.25025 -0.18559 0.68576
 C477 C 0.22714 -0.17789 0.67402
 C478 C 0.22718 -0.15891 0.65503
 C479 C 0.25029 -0.12788 0.62793
 C480 C 0.25028 -0.11153 0.61154
 C481 C 0.25025 -0.09202 0.59198
 C482 C 0.27350 -0.08242 0.58248
 C483 C 0.27350 -0.06345 0.56348
 C484 C 0.25020 -0.05383 0.55373
 C485 C 0.22692 -0.06362 0.56342
 C486 C 0.22698 -0.08258 0.58242
 H487 H 0.29136 -0.14617 0.65327
 H488 H 0.29150 -0.17958 0.68640
 H489 H 0.20900 -0.18625 0.67975
 H490 H 0.20919 -0.15318 0.64628
 H491 H 0.29163 -0.08959 0.58975
 H492 H 0.29174 -0.05634 0.55644
 H493 H 0.20866 -0.05663 0.55634
 H494 H 0.20887 -0.08989 0.58965
 C495 C 0.74999 -0.14732 0.35283
 C496 C 0.77307 -0.15885 0.34535
 C497 C 0.77310 -0.17781 0.32639
 C498 C 0.75000 -0.18550 0.31463
 C499 C 0.72690 -0.17377 0.32230
 C500 C 0.72691 -0.15482 0.34128
 C501 C 0.74999 -0.12781 0.37236
 C502 C 0.75000 -0.11147 0.38871
 C503 C 0.75003 -0.09195 0.40823
 C504 C 0.77330 -0.08248 0.41778
 C505 C 0.77336 -0.06352 0.43675
 C506 C 0.75009 -0.05378 0.44642
 C507 C 0.72678 -0.06344 0.43669
 C508 C 0.72678 -0.08240 0.41772
 H509 H 0.79106 -0.15313 0.35413
 H510 H 0.79123 -0.18619 0.32071
 H511 H 0.70876 -0.17947 0.31390
 H512 H 0.70892 -0.14607 0.34698
 H513 H 0.79141 -0.08976 0.41056
 H514 H 0.79162 -0.05651 0.44382
 H515 H 0.70854 -0.05635 0.44372
 H516 H 0.70865 -0.08960 0.41046
 C517 C 0.64752 0.74963 -0.14708
 C518 C 0.66526 0.72960 -0.14839
 C519 C 0.68427 0.72956 -0.16733
 C520 C 0.68601 0.74968 -0.18557
 C521 C 0.66776 0.76977 -0.18383
 C522 C 0.64882 0.76967 -0.16482
 C523 C 0.62798 0.74961 -0.12754
 C524 C 0.61161 0.74960 -0.11118
 C525 C 0.59206 0.74961 -0.09164
 C526 C 0.58257 0.72639 -0.08202
 C527 C 0.56357 0.72637 -0.06304
 C528 C 0.55382 0.74964 -0.05343
 C529 C 0.56350 0.77289 -0.06324
 C530 C 0.58249 0.77285 -0.08222
 H531 H 0.66438 0.71392 -0.13474
 H532 H 0.69724 0.71344 -0.16751
 H533 H 0.66793 0.78591 -0.19680
 H534 H 0.63517 0.78534 -0.16394
 H535 H 0.58985 0.70829 -0.08919
 H536 H 0.55654 0.70815 -0.05591
 H537 H 0.55641 0.79113 -0.05627
 H538 H 0.58971 0.79094 -0.08954
 C539 C 0.35264 0.25001 -0.14781
 C540 C 0.35122 0.22991 -0.16543
 C541 C 0.33225 0.22985 -0.18442
 C542 C 0.31410 0.25001 -0.18623
 C543 C 0.31595 0.27018 -0.16811
 C544 C 0.33499 0.27011 -0.14919
 C545 C 0.37220 0.25001 -0.12829
 C546 C 0.38859 0.24999 -0.11194
 C547 C 0.40814 0.24999 -0.09241
 C548 C 0.41770 0.22676 -0.08293
 C549 C 0.43670 0.22673 -0.06395
 C550 C 0.44639 0.24998 -0.05421
 C551 C 0.43664 0.27325 -0.06389
 C552 C 0.41764 0.27322 -0.08286
 H553 H 0.36480 0.21418 -0.16449
 H554 H 0.33198 0.21366 -0.19729
 H555 H 0.30306 0.28637 -0.16836
 H556 H 0.33596 0.28584 -0.13563
 H557 H 0.41048 0.20866 -0.09019
 H558 H 0.44379 0.20850 -0.05692
 H559 H 0.44368 0.29148 -0.05681
 H560 H 0.41037 0.29132 -0.09008
 C561 C 0.35274 0.74985 0.14755
 C562 C 0.35150 0.76986 0.16528
 C563 C 0.33254 0.76996 0.18428
 C564 C 0.31422 0.74990 0.18601
 C565 C 0.31590 0.72982 0.16778
 C566 C 0.33492 0.72985 0.14885
 C567 C 0.37229 0.74981 0.12803
 C568 C 0.38867 0.74979 0.11166
 C569 C 0.40820 0.74977 0.09212
 C570 C 0.41779 0.77300 0.08259
 C571 C 0.43678 0.77301 0.06360
 C572 C 0.44642 0.74974 0.05388
 C573 C 0.43664 0.72649 0.06360
 C574 C 0.41766 0.72653 0.08258
 H575 H 0.36521 0.78551 0.16441
 H576 H 0.33242 0.78608 0.19724
 H577 H 0.30286 0.71372 0.16795
 H578 H 0.33575 0.71419 0.13521
 H579 H 0.41061 0.79110 0.08984
 H580 H 0.44389 0.79123 0.05655
 H581 H 0.44364 0.70825 0.05654
 H582 H 0.41036 0.70844 0.08983
 C583 C 0.64744 0.24998 0.14679
 C584 C 0.65498 0.22693 0.15832
 C585 C 0.67393 0.22693 0.17734
 C586 C 0.68563 0.25003 0.18507
 C587 C 0.67790 0.27310 0.17332
 C588 C 0.65893 0.27306 0.15433
 C589 C 0.62792 0.24996 0.12723
 C590 C 0.61156 0.24995 0.11085
 C591 C 0.59202 0.24995 0.09131
 C592 C 0.58245 0.22672 0.08183
 C593 C 0.56346 0.22669 0.06285
 C594 C 0.55379 0.24996 0.05309
 C595 C 0.56355 0.27322 0.06276
 C596 C 0.58254 0.27318 0.08174
 H597 H 0.64626 0.20895 0.15257
 H598 H 0.67967 0.20882 0.18572
 H599 H 0.68623 0.29124 0.17906
 H600 H 0.65317 0.29102 0.14557
 H601 H 0.58966 0.20862 0.08911
 H602 H 0.55637 0.20847 0.05583
 H603 H 0.55653 0.29145 0.05567
 H604 H 0.58982 0.29128 0.08895
 C605 C -0.14747 0.64737 0.75050
 C606 C -0.14883 0.66503 0.73039
 C607 C -0.16778 0.68402 0.73031
 C608 C -0.18596 0.68581 0.75047
 C609 C -0.18416 0.66766 0.77065
 C610 C -0.16515 0.64873 0.77060
 C611 C -0.12794 0.62784 0.75050
 C612 C -0.11157 0.61149 0.75049
 C613 C -0.09203 0.59197 0.75045
 C614 C -0.08242 0.58261 0.72719
 C615 C -0.06343 0.56365 0.72712
 C616 C -0.05380 0.55379 0.75036
 C617 C -0.06359 0.56334 0.77365
 C618 C -0.08258 0.58230 0.77366
 H619 H -0.13524 0.66410 0.71467
 H620 H -0.16801 0.69692 0.71412
 H621 H -0.19708 0.66789 0.78683
 H622 H -0.16422 0.63515 0.78633
 H623 H -0.08960 0.58997 0.70911
 H624 H -0.05631 0.55673 0.70887
 H625 H -0.05659 0.55617 0.79186
 H626 H -0.08989 0.58942 0.79178
 C627 C -0.14751 0.35293 0.25009
 C628 C -0.14885 0.33523 0.27016
 C629 C -0.16778 0.31618 0.27020
 C630 C -0.18594 0.31437 0.25004
 C631 C -0.18417 0.33258 0.22990
 C632 C -0.16518 0.35156 0.23000
 C633 C -0.12798 0.37250 0.25011
 C634 C -0.11161 0.38888 0.25011
 C635 C -0.09207 0.40844 0.25009
 C636 C -0.08249 0.41790 0.27332
 C637 C -0.06349 0.43690 0.27333
 C638 C -0.05384 0.44668 0.25006
 C639 C -0.06361 0.43702 0.22680
 C640 C -0.08261 0.41803 0.22685
 H641 H -0.13526 0.33616 0.28589
 H642 H -0.16799 0.30324 0.28637
 H643 H -0.19708 0.33235 0.21372
 H644 H -0.16427 0.36518 0.21429
 H645 H -0.08969 0.41060 0.29143
 H646 H -0.05639 0.44391 0.29156
 H647 H -0.05660 0.44413 0.20857
 H648 H -0.08990 0.41083 0.20876
 C649 C 0.14715 0.35289 0.74988
 C650 C 0.15872 0.34538 0.77293
 C651 C 0.17770 0.32641 0.77294
 C652 C 0.18535 0.31466 0.74986
 C653 C 0.17356 0.32236 0.72679
 C654 C 0.15461 0.34136 0.72682
 C655 C 0.12763 0.37243 0.74990
 C656 C 0.11128 0.38880 0.74993
 C657 C 0.09176 0.40834 0.74998
 C658 C 0.08224 0.41778 0.77324
 C659 C 0.06327 0.43676 0.77331
 C660 C 0.05356 0.44655 0.75008
 C661 C 0.06326 0.43692 0.72679
 C662 C 0.08224 0.41794 0.72676
 H663 H 0.15303 0.35413 0.79090
 H664 H 0.18611 0.32069 0.79105
 H665 H 0.17924 0.31398 0.70867
 H666 H 0.14582 0.34709 0.70886
 H667 H 0.08948 0.41047 0.79131
 H668 H 0.05621 0.44375 0.79157
 H669 H 0.05621 0.44404 0.70857
 H670 H 0.08947 0.41076 0.70865
 C671 C 0.14741 0.64763 0.24988
 C672 C 0.14877 0.66529 0.26995
 C673 C 0.16775 0.68428 0.27003
 C674 C 0.18597 0.68608 0.24990
 C675 C 0.18417 0.66792 0.22976
 C676 C 0.16513 0.64899 0.22981
 C677 C 0.12784 0.62811 0.24987
 C678 C 0.11145 0.61175 0.24987
 C679 C 0.09189 0.59222 0.24990
 C680 C 0.08231 0.58274 0.27314
 C681 C 0.06331 0.56376 0.27319
 C682 C 0.05362 0.55401 0.24994
 C683 C 0.06339 0.56367 0.22666
 C684 C 0.08240 0.58265 0.22667
 H685 H 0.13514 0.66436 0.28566
 H686 H 0.16797 0.69718 0.28620
 H687 H 0.19712 0.66815 0.21360
 H688 H 0.16420 0.63541 0.21410
 H689 H 0.08953 0.59002 0.29123
 H690 H 0.05621 0.55674 0.29143
 H691 H 0.05636 0.55658 0.20844
 H692 H 0.08968 0.58986 0.20857
 C693 C 0.74999 -0.14743 0.64744
 C694 C 0.77307 -0.15896 0.65494
 C695 C 0.77310 -0.17794 0.67392
 C696 C 0.75000 -0.18564 0.68570
 C697 C 0.72689 -0.17389 0.67801
 C698 C 0.72692 -0.15494 0.65900
 C699 C 0.74999 -0.12791 0.62789
 C700 C 0.75000 -0.11155 0.61151
 C701 C 0.75004 -0.09202 0.59196
 C702 C 0.77331 -0.08255 0.58240
 C703 C 0.77337 -0.06357 0.56341
 C704 C 0.75010 -0.05382 0.55373
 C705 C 0.72679 -0.06348 0.56347
 C706 C 0.72679 -0.08246 0.58247
 H707 H 0.79106 -0.15324 0.64616
 H708 H 0.79123 -0.18632 0.67962
 H709 H 0.70876 -0.17960 0.68641
 H710 H 0.70893 -0.14618 0.65329
 H711 H 0.79142 -0.08983 0.58962
 H712 H 0.79163 -0.05656 0.55632
 H713 H 0.70855 -0.05639 0.55644
 H714 H 0.70866 -0.08966 0.58974
 C715 C 0.25026 -0.14727 0.35279
 C716 C 0.22717 -0.15878 0.34526
 C717 C 0.22713 -0.17774 0.32630
 C718 C 0.25023 -0.18545 0.31458
 C719 C 0.27335 -0.17374 0.32230
 C720 C 0.27334 -0.15479 0.34128
 C721 C 0.25027 -0.12777 0.37232
 C722 C 0.25027 -0.11143 0.38868
 C723 C 0.25024 -0.09192 0.40821
 C724 C 0.22697 -0.08249 0.41776
 C725 C 0.22692 -0.06354 0.43674
 C726 C 0.25019 -0.05376 0.44642
 C727 C 0.27349 -0.06338 0.43668
 C728 C 0.27349 -0.08233 0.41770
 H729 H 0.20918 -0.15304 0.35400
 H730 H 0.20898 -0.18610 0.32058
 H731 H 0.29148 -0.17946 0.31394
 H732 H 0.29134 -0.14606 0.34702
 H733 H 0.20886 -0.08979 0.41054
 H734 H 0.20865 -0.05656 0.44381
 H735 H 0.29174 -0.05627 0.44371
 H736 H 0.29162 -0.08950 0.41044
 C737 C 0.75025 0.14722 0.35275
 C738 C 0.77331 0.15887 0.34531
 C739 C 0.77332 0.17787 0.32635
 C740 C 0.75022 0.18547 0.31454
 C741 C 0.72713 0.17361 0.32217
 C742 C 0.72718 0.15463 0.34115
 C743 C 0.75027 0.12767 0.37228
 C744 C 0.75027 0.11129 0.38863
 C745 C 0.75026 0.09174 0.40816
 C746 C 0.77351 0.08223 0.41769
 C747 C 0.77352 0.06324 0.43667
 C748 C 0.75023 0.05351 0.44637
 C749 C 0.72694 0.06321 0.43664
 C750 C 0.72699 0.08220 0.41766
 H751 H 0.79130 0.15322 0.35412
 H752 H 0.79144 0.18634 0.32069
 H753 H 0.70900 0.17925 0.31374
 H754 H 0.70920 0.14579 0.34683
 H755 H 0.79163 0.08949 0.41046
 H756 H 0.79177 0.05619 0.44373
 H757 H 0.70869 0.05614 0.44368
 H758 H 0.70887 0.08943 0.41041
 C759 C 0.24989 0.14709 0.64716
 C760 C 0.22682 0.15862 0.65464
 C761 C 0.22680 0.17761 0.67357
 C762 C 0.24990 0.18532 0.68531
 C763 C 0.27300 0.17358 0.67764
 C764 C 0.27298 0.15461 0.65869
 C765 C 0.24990 0.12755 0.62767
 C766 C 0.24991 0.11118 0.61133
 C767 C 0.24994 0.09165 0.59183
 C768 C 0.22670 0.08209 0.58230
 C769 C 0.22670 0.06312 0.56334
 C770 C 0.25001 0.05345 0.55367
 C771 C 0.27328 0.06319 0.56340
 C772 C 0.27322 0.08216 0.58235
 H773 H 0.20882 0.15288 0.64589
 H774 H 0.20866 0.18599 0.67926
 H775 H 0.29114 0.17930 0.68601
 H776 H 0.29097 0.14586 0.65299
 H777 H 0.20857 0.08931 0.58951
 H778 H 0.20846 0.05604 0.55628
 H779 H 0.29155 0.05616 0.55637
 H780 H 0.29133 0.08943 0.58960
   
