data_POSCAR
  _audit_creation_date              2014-09-24
  _audit_creation_method            'ToBaCCo'
  _symmetry_space_group_name_H-M    'P1'
  _symmetry_Int_Tables_number       1
  _symmetry_cell_setting            triclinic
  loop_
  _symmetry_equiv_pos_as_xyz
 x,y,z
_cell_length_a 28.6664
_cell_length_b 28.5734
_cell_length_c 12.0589
_cell_angle_alpha 90.238900
_cell_angle_beta 89.740400
_cell_angle_gamma 120.390800
loop_
  _atom_site_label
  _atom_site_type_symbol
  _atom_site_fract_x
  _atom_site_fract_y
  _atom_site_fract_z
C1 C 0.47965 0.95118 0.55534
 C2 C 0.46487 0.95172 0.44375
 C3 C 0.48092 1.00138 0.39147
 C4 C 0.51478 1.05148 0.44400
 C5 C 0.53165 1.05133 0.55506
 C6 C 0.51472 1.00113 0.60721
 H7 H 0.52401 1.00120 0.69425
 H8 H 0.47115 1.00074 0.30448
 C9 C 0.04982 0.51566 0.55575
 C10 C 0.04959 0.52836 0.44310
 C11 C 0.00018 0.50961 0.38859
 C12 C -0.04979 0.47730 0.44300
 C13 C -0.04917 0.46591 0.55744
 C14 C 0.00054 0.48456 0.61137
 H15 H 0.00097 0.47732 0.69949
 H16 H 0.00114 0.51739 0.30044
 C17 C 0.47528 0.52438 0.56477
 C18 C 0.47566 0.52578 0.44732
 C19 C 0.49790 0.49930 0.38792
 C20 C 0.52173 0.47305 0.44144
 C21 C 0.52493 0.47451 0.55873
 C22 C 0.50063 0.49931 0.61778
 H23 H 0.50174 0.49934 0.70770
 H24 H 0.49700 0.49949 0.29797
 O25 O 0.41341 0.66808 -0.12258
 O26 O 0.41642 0.76065 -0.09300
 C27 C 0.38484 0.76809 -0.15366
 O28 O 0.33395 0.74106 -0.14173
 O29 O 0.24217 0.65210 -0.10656
 C30 C 0.23252 0.60753 -0.14990
 O31 O 0.25597 0.58210 -0.11986
 O32 O 0.34690 0.58426 -0.08042
 C33 C 0.38834 0.61696 -0.13692
 O34 O 0.41507 0.65676 0.09764
 O35 O 0.41044 0.74566 0.12639
 C36 C 0.38476 0.77091 0.13867
 O37 O 0.34460 0.76178 0.07857
 O38 O 0.25382 0.67092 0.11296
 C39 C 0.23065 0.62159 0.14266
 O40 O 0.24085 0.58715 0.09924
 O41 O 0.33198 0.59123 0.13912
 C42 C 0.38253 0.61604 0.15502
 Cr43 Cr 0.41076 0.70619 0.00203
 Cr44 Cr 0.29516 0.70494 -0.01367
 Cr45 Cr 0.29545 0.58928 0.00899
 O46 O 0.33350 0.66664 -0.00087
 O47 O 0.59238 0.33258 -0.14285
 O48 O 0.58769 0.24101 -0.10434
 C49 C 0.62221 0.23021 -0.14439
 O50 O 0.67090 0.25279 -0.11190
 O51 O 0.76122 0.34423 -0.07768
 C52 C 0.77056 0.38473 -0.13761
 O53 O 0.74554 0.41064 -0.12538
 O54 O 0.65701 0.41560 -0.09786
 C55 C 0.61696 0.38337 -0.15667
 O56 O 0.58360 0.34626 0.07768
 O57 O 0.58053 0.25436 0.11465
 C58 C 0.60600 0.23137 0.14725
 O59 O 0.65124 0.24164 0.10732
 O60 O 0.73971 0.33338 0.14281
 C61 C 0.76690 0.38435 0.15465
 O62 O 0.75965 0.41616 0.09405
 O63 O 0.66696 0.41283 0.12172
 C64 C 0.61591 0.38752 0.13549
 Cr65 Cr 0.58915 0.29512 -0.01305
 Cr66 Cr 0.70427 0.29458 0.01450
 Cr67 Cr 0.70570 0.41068 -0.00182
 O68 O 0.66617 0.33308 -0.00003
 C69 C 0.48818 0.89585 -0.29987
 C70 C 0.45713 0.90282 -0.38116
 C71 C 0.40204 0.86240 -0.39132
 C72 C 0.37847 0.81787 -0.31939
 C73 C 0.40954 0.81215 -0.23680
 C74 C 0.46489 0.85104 -0.22967
 H75 H 0.53090 0.92492 -0.29081
 H76 H 0.37604 0.86678 -0.44995
 H77 H 0.33571 0.78863 -0.32678
 H78 H 0.49019 0.84783 -0.16729
 C79 C 0.13346 0.59528 -0.36966
 C80 C 0.10054 0.53884 -0.37961
 C81 C 0.11390 0.50498 -0.32068
 C82 C 0.15886 0.52733 -0.25039
 C83 C 0.19032 0.58384 -0.23628
 C84 C 0.17776 0.61758 -0.29821
 H85 H 0.12354 0.62203 -0.41380
 H86 H 0.08880 0.46130 -0.32730
 H87 H 0.16743 0.50041 -0.20311
 H88 H 0.20143 0.66128 -0.28922
 C89 C 0.41996 0.51781 -0.27544
 C90 C 0.45098 0.54696 -0.36814
 C91 C 0.45981 0.59960 -0.38623
 C92 C 0.43951 0.62275 -0.31151
 C93 C 0.40896 0.59328 -0.21900
 C94 C 0.39876 0.54034 -0.20294
 H95 H 0.41136 0.47690 -0.25949
 H96 H 0.48506 0.62423 -0.45396
 H97 H 0.44802 0.66375 -0.32554
 H98 H 0.37539 0.51660 -0.13234
 C99 C 0.59886 0.10618 -0.30318
 C100 C 0.55833 0.09888 -0.37894
 C101 C 0.54206 0.13790 -0.38105
 C102 C 0.56402 0.18145 -0.30679
 C103 C 0.60364 0.18784 -0.23049
 C104 C 0.62188 0.15066 -0.23114
 H105 H 0.61305 0.07754 -0.30002
 H106 H 0.50990 0.13307 -0.43527
 H107 H 0.54920 0.20961 -0.30735
 H108 H 0.65223 0.15467 -0.17256
 C109 C 0.86878 0.46555 -0.36844
 C110 C 0.90150 0.44198 -0.37235
 C111 C 0.88948 0.39818 -0.30256
 C112 C 0.84604 0.37875 -0.22871
 C113 C 0.81399 0.40314 -0.22218
 C114 C 0.82539 0.44631 -0.29403
 H115 H 0.87783 0.49987 -0.42074
 H116 H 0.91428 0.37952 -0.30426
 H117 H 0.83843 0.34537 -0.17485
 H118 H 0.80149 0.46592 -0.29129
 C119 C 0.58481 0.48248 -0.29058
 C120 C 0.55143 0.45264 -0.38000
 C121 C 0.54258 0.40007 -0.40012
 C122 C 0.56444 0.37729 -0.32904
 C123 C 0.59677 0.40723 -0.23873
 C124 C 0.60763 0.46043 -0.22212
 H125 H 0.59364 0.52344 -0.27363
 H126 H 0.51597 0.37514 -0.46600
 H127 H 0.55533 0.33608 -0.34347
 H128 H 0.63232 0.48461 -0.15326
 C129 C 0.86004 0.40086 0.39364
 C130 C 0.90194 0.45524 0.38011
 C131 C 0.89646 0.48619 0.29611
 C132 C 0.85152 0.46350 0.22675
 C133 C 0.81105 0.40875 0.23726
 C134 C 0.81538 0.37778 0.32232
 H135 H 0.86325 0.37490 0.45447
 H136 H 0.92685 0.52846 0.28430
 H137 H 0.84946 0.48864 0.16221
 H138 H 0.78489 0.33541 0.33218
 C139 C 0.50356 0.10676 0.30256
 C140 C 0.53638 0.09918 0.37870
 C141 C 0.59199 0.13824 0.38227
 C142 C 0.61426 0.18218 0.30934
 C143 C 0.58142 0.18893 0.23285
 C144 C 0.52570 0.15164 0.23187
 H145 H 0.46053 0.07809 0.29815
 H146 H 0.61909 0.13319 0.43660
 H147 H 0.65748 0.21031 0.31095
 H148 H 0.49966 0.15584 0.17290
 C149 C 0.60219 0.46930 0.36975
 C150 C 0.54616 0.44872 0.37027
 C151 C 0.51328 0.40699 0.29653
 C152 C 0.53594 0.38636 0.22250
 C153 C 0.59220 0.40756 0.21953
 C154 C 0.62509 0.44895 0.29480
 H155 H 0.62822 0.50193 0.42547
 H156 H 0.46999 0.39083 0.29554
 H157 H 0.50936 0.35458 0.16577
 H158 H 0.66851 0.46606 0.29482
 C159 C 0.13249 0.53318 0.36472
 C160 C 0.09997 0.55655 0.37697
 C161 C 0.11308 0.60397 0.31818
 C162 C 0.15740 0.62696 0.24582
 C163 C 0.18846 0.60208 0.22949
 C164 C 0.17616 0.55555 0.29120
 H165 H 0.12270 0.49633 0.40872
 H166 H 0.08823 0.62240 0.32654
 H167 H 0.16586 0.66269 0.19897
 H168 H 0.19962 0.53572 0.28071
 C169 C 0.46587 0.87050 0.36724
 C170 C 0.44122 0.90227 0.37320
 C171 C 0.39660 0.88907 0.30557
 C172 C 0.37747 0.84547 0.23184
 C173 C 0.40293 0.81440 0.22334
 C174 C 0.44690 0.82694 0.29307
 H175 H 0.50085 0.88045 0.41776
 H176 H 0.37702 0.91303 0.30889
 H177 H 0.34340 0.83692 0.17968
 H178 H 0.46738 0.80387 0.28874
 C179 C 0.48438 0.59509 0.31213
 C180 C 0.45124 0.55169 0.38200
 C181 C 0.39520 0.53121 0.38259
 C182 C 0.37251 0.55298 0.31126
 C183 C 0.40569 0.59577 0.23906
 C184 C 0.46199 0.61719 0.24220
 H185 H 0.52768 0.61128 0.31055
 H186 H 0.36902 0.49742 0.43567
 H187 H 0.32906 0.53559 0.31087
 H188 H 0.48885 0.65002 0.18781
   
