data_POSCAR
  _audit_creation_date              2014-09-24
  _audit_creation_method            'ToBaCCo'
  _symmetry_space_group_name_H-M    'P1'
  _symmetry_Int_Tables_number       1
  _symmetry_cell_setting            triclinic
  loop_
  _symmetry_equiv_pos_as_xyz
 x,y,z
_cell_length_a 41.8726
_cell_length_b 41.7832
_cell_length_c 34.6353
_cell_angle_alpha 89.794500
_cell_angle_beta 89.828700
_cell_angle_gamma 89.901600
loop_
  _atom_site_label
  _atom_site_type_symbol
  _atom_site_fract_x
  _atom_site_fract_y
  _atom_site_fract_z
C1 C 0.30137 0.29456 0.23046
 H2 H 0.30643 0.29229 0.26096
 C3 C 0.32024 0.31446 0.20740
 H4 H 0.33991 0.32725 0.22041
 C5 C 0.26882 0.28152 0.17694
 H6 H 0.24849 0.26896 0.16530
 C7 C 0.28675 0.30161 0.15296
 H8 H 0.28022 0.30402 0.12286
 N9 N 0.27624 0.27850 0.21499
 C10 C 0.20015 0.26959 0.30127
 H11 H 0.19403 0.24453 0.29996
 C12 C 0.18228 0.29000 0.32491
 H13 H 0.16296 0.28023 0.34210
 C14 C 0.23183 0.31300 0.27965
 H15 H 0.25078 0.32223 0.26171
 C16 C 0.21493 0.33410 0.30320
 H17 H 0.22133 0.35920 0.30298
 Zn18 Zn 0.24952 0.25338 0.24761
 N19 N 0.22462 0.28125 0.27938
 C20 C 0.25997 0.20787 0.30670
 N21 N 0.27472 0.22540 0.27872
 C22 C 0.30654 0.22186 0.27168
 C23 C 0.32490 0.20088 0.29397
 C24 C 0.27738 0.18654 0.32957
 C25 C 0.19099 0.23215 0.21338
 C26 C 0.17259 0.21158 0.19075
 C27 C 0.22063 0.18249 0.17431
 C28 C 0.23802 0.20347 0.19729
 N29 N 0.22305 0.22753 0.21649
 H30 H 0.23458 0.21010 0.31114
 H31 H 0.31776 0.23471 0.24824
 H32 H 0.35014 0.19848 0.28775
 H33 H 0.26503 0.17295 0.35169
 H34 H 0.17963 0.25180 0.22830
 H35 H 0.14708 0.21549 0.18882
 H36 H 0.23314 0.16336 0.15961
 H37 H 0.26358 0.20049 0.20012
 C38 C 0.18984 0.32270 0.32634
 C39 C 0.31279 0.31846 0.16820
 C40 C 0.18740 0.18620 0.17101
 C41 C 0.31035 0.18289 0.32344
 C42 C 0.80650 0.76827 0.21360
 H43 H 0.81867 0.74925 0.22875
 C44 C 0.82416 0.78931 0.19051
 H45 H 0.84971 0.78572 0.18810
 C46 C 0.75885 0.79653 0.19968
 H47 H 0.73357 0.79995 0.20449
 C48 C 0.77550 0.81808 0.17627
 H49 H 0.76237 0.83741 0.16271
 N50 N 0.77438 0.77208 0.21760
 C51 C 0.69378 0.76839 0.28740
 H52 H 0.68214 0.74880 0.27280
 C53 C 0.67576 0.78938 0.31006
 H54 H 0.65026 0.78567 0.31266
 C55 C 0.74110 0.79708 0.30143
 H56 H 0.76658 0.80001 0.29756
 C57 C 0.72406 0.81853 0.32442
 H58 H 0.73675 0.83790 0.33823
 Zn59 Zn 0.75031 0.74550 0.25144
 N60 N 0.72583 0.77262 0.28354
 C61 C 0.78020 0.72407 0.32077
 N62 N 0.77831 0.71989 0.28188
 C63 C 0.79521 0.69635 0.26393
 C64 C 0.81381 0.67504 0.28536
 C65 C 0.79933 0.70386 0.34318
 C66 C 0.70437 0.73028 0.19374
 C67 C 0.68530 0.71002 0.17152
 C68 C 0.70354 0.66537 0.21002
 C69 C 0.72177 0.68649 0.23184
 N70 N 0.72267 0.71821 0.22280
 H71 H 0.76648 0.74269 0.33464
 H72 H 0.79332 0.69349 0.23299
 H73 H 0.82640 0.65591 0.27075
 H74 H 0.80023 0.70717 0.37416
 H75 H 0.70473 0.75556 0.18740
 H76 H 0.67139 0.71998 0.14806
 H77 H 0.70368 0.64016 0.21737
 H78 H 0.73521 0.67735 0.25603
 C79 C 0.69088 0.81494 0.32887
 C80 C 0.80876 0.81486 0.17151
 C81 C 0.68528 0.67701 0.17912
 C82 C 0.81586 0.67862 0.32550
 C83 C 0.80108 0.28890 0.73456
 H84 H 0.80658 0.28626 0.76484
 C85 C 0.81996 0.30889 0.71160
 H86 H 0.83944 0.32187 0.72476
 C87 C 0.76965 0.27474 0.68057
 H88 H 0.75023 0.26128 0.66833
 C89 C 0.78759 0.29490 0.65667
 H90 H 0.78164 0.29666 0.62634
 N91 N 0.77631 0.27239 0.71893
 C92 C 0.69260 0.27030 0.78504
 H93 H 0.68067 0.25242 0.76798
 C94 C 0.67443 0.29073 0.80829
 H95 H 0.64867 0.28858 0.80819
 C96 C 0.74043 0.29414 0.80697
 H97 H 0.76615 0.29508 0.80695
 C98 C 0.72325 0.31494 0.83066
 H99 H 0.73617 0.33196 0.84816
 Zn100 Zn 0.75049 0.24623 0.75173
 N101 N 0.72501 0.27279 0.78411
 C102 C 0.76185 0.20602 0.81443
 N103 N 0.77648 0.22052 0.78402
 C104 C 0.80798 0.21567 0.77648
 C105 C 0.82617 0.19568 0.80028
 C106 C 0.77897 0.18565 0.83880
 C107 C 0.70029 0.23059 0.69934
 C108 C 0.68189 0.21013 0.67657
 C109 C 0.71417 0.16578 0.69863
 C110 C 0.73162 0.18696 0.72128
 N111 N 0.72453 0.21874 0.72131
 H112 H 0.73667 0.21007 0.81950
 H113 H 0.81898 0.22678 0.75158
 H114 H 0.85117 0.19227 0.79326
 H115 H 0.76636 0.17442 0.86259
 H116 H 0.69533 0.25601 0.69933
 H117 H 0.66278 0.22002 0.65923
 H118 H 0.72041 0.14063 0.69902
 H119 H 0.75120 0.17794 0.73842
 C120 C 0.68975 0.31370 0.83121
 C121 C 0.81307 0.31237 0.67219
 C122 C 0.68892 0.17727 0.67587
 C123 C 0.81175 0.17998 0.83200
 C124 C 0.30572 0.78674 0.72748
 H125 H 0.31576 0.77658 0.75350
 C126 C 0.32436 0.80675 0.70421
 H127 H 0.34882 0.81150 0.71242
 C128 C 0.26128 0.79392 0.68611
 H129 H 0.23655 0.78896 0.67950
 C130 C 0.27897 0.81420 0.66218
 H131 H 0.26761 0.82460 0.63705
 N132 N 0.27484 0.78060 0.71795
 C133 C 0.19823 0.77014 0.80253
 H134 H 0.19309 0.74478 0.80206
 C135 C 0.17981 0.79052 0.82560
 H136 H 0.16053 0.78061 0.84275
 C137 C 0.22984 0.81375 0.78120
 H138 H 0.24946 0.82281 0.76407
 C139 C 0.21236 0.83484 0.80416
 H140 H 0.21867 0.85996 0.80407
 Zn141 Zn 0.24845 0.75476 0.74962
 N142 N 0.22264 0.78203 0.78076
 C143 C 0.26670 0.72342 0.81934
 N144 N 0.27408 0.72771 0.78137
 C145 C 0.29947 0.71239 0.76515
 C146 C 0.31833 0.69165 0.78710
 C147 C 0.28462 0.70247 0.84219
 C148 C 0.19053 0.73169 0.71589
 C149 C 0.17241 0.71160 0.69235
 C150 C 0.22129 0.68723 0.66975
 C151 C 0.23840 0.70768 0.69373
 N152 N 0.22292 0.72895 0.71680
 H153 H 0.24673 0.73592 0.83201
 H154 H 0.30540 0.71648 0.73517
 H155 H 0.33831 0.67962 0.77349
 H156 H 0.27811 0.69915 0.87222
 H157 H 0.17858 0.74948 0.73324
 H158 H 0.14665 0.71390 0.69247
 H159 H 0.23425 0.67023 0.65211
 H160 H 0.26412 0.70646 0.69392
 C161 C 0.18695 0.82333 0.82674
 C162 C 0.31097 0.82090 0.67112
 C163 C 0.18779 0.68872 0.66918
 C164 C 0.31076 0.68619 0.82605
 C165 C -0.03709 -0.02419 0.02530
 C166 C -0.02012 0.00024 0.00653
 C167 C -0.03669 0.02473 -0.01258
 C168 C -0.07022 0.02503 -0.01322
 C169 C -0.08698 0.00076 0.00640
 C170 C -0.07067 -0.02398 0.02579
 C171 C 0.01508 0.00025 0.00665
 C172 C 0.03202 -0.02395 -0.01252
 C173 C 0.06552 -0.02310 -0.01443
 C174 C 0.08186 0.00171 0.00437
 C175 C 0.06523 0.02575 0.02448
 C176 C 0.03169 0.02504 0.02494
 H177 H -0.02398 -0.04299 0.03998
 H178 H -0.02331 0.04335 -0.02726
 H179 H 0.01896 -0.04275 -0.02703
 H180 H 0.01833 0.04354 0.03980
 H181 H -0.11284 0.00091 0.00612
 H182 H 0.10770 0.00221 0.00342
 C183 C -0.03286 0.47343 0.52254
 C184 C -0.01659 0.49900 0.50514
 C185 C -0.03381 0.52280 0.48559
 C186 C -0.06704 0.52029 0.48161
 C187 C -0.08310 0.49430 0.49858
 C188 C -0.06627 0.47116 0.52001
 C189 C 0.01859 0.49995 0.50550
 C190 C 0.03599 0.47576 0.48694
 C191 C 0.06943 0.47721 0.48484
 C192 C 0.08533 0.50271 0.50281
 C193 C 0.06825 0.52676 0.52238
 C194 C 0.03471 0.52541 0.52303
 H195 H -0.01937 0.45532 0.53796
 H196 H -0.02115 0.54244 0.47195
 H197 H 0.02327 0.45644 0.47297
 H198 H 0.02100 0.54391 0.53740
 H199 H -0.10883 0.49272 0.49604
 H200 H 0.11116 0.50367 0.50176
 C201 C 0.46669 -0.02318 0.51508
 C202 C 0.48343 0.00081 0.49521
 C203 C 0.46664 0.02481 0.47542
 C204 C 0.43307 0.02481 0.47497
 C205 C 0.41660 0.00068 0.49523
 C206 C 0.43315 -0.02331 0.51555
 C207 C 0.51861 0.00072 0.49530
 C208 C 0.53540 -0.02393 0.47676
 C209 C 0.56895 -0.02464 0.47725
 C210 C 0.58538 -0.00076 0.49765
 C211 C 0.56884 0.02390 0.51670
 C212 C 0.53535 0.02477 0.51477
 H213 H 0.47994 -0.04154 0.53037
 H214 H 0.47986 0.04322 0.46016
 H215 H 0.52217 -0.04228 0.46167
 H216 H 0.52213 0.04347 0.52943
 H217 H 0.39074 0.00063 0.49530
 H218 H 0.61122 -0.00128 0.49861
 C219 C 0.46583 0.47743 0.01420
 C220 C 0.48262 0.50134 -0.00568
 C221 C 0.46587 0.52538 -0.02540
 C222 C 0.43231 0.52557 -0.02556
 C223 C 0.41573 0.50146 -0.00538
 C224 C 0.43231 0.47735 0.01468
 C225 C 0.51778 0.50118 -0.00538
 C226 C 0.53458 0.47620 -0.02320
 C227 C 0.56809 0.47499 -0.02170
 C228 C 0.58446 0.49870 -0.00093
 C229 C 0.56786 0.52377 0.01723
 C230 C 0.53447 0.52518 0.01421
 H231 H 0.47903 0.45898 0.02940
 H232 H 0.47908 0.54385 -0.04057
 H233 H 0.52137 0.45788 -0.03838
 H234 H 0.52126 0.54413 0.02842
 H235 H 0.38986 0.50151 -0.00523
 H236 H 0.61026 0.49783 0.00092
 C237 C 0.13478 -0.11317 -0.10365
 N238 N 0.12291 -0.14258 -0.11192
 N239 N 0.13949 -0.16290 -0.13385
 C240 C 0.16846 -0.15448 -0.14852
 N241 N 0.18020 -0.12504 -0.14017
 N242 N 0.16374 -0.10484 -0.11811
 C243 C 0.11674 -0.09043 -0.07979
 N244 N 0.13065 -0.06282 -0.06817
 N245 N 0.11442 -0.04171 -0.04712
 C246 C 0.08357 -0.04725 -0.03695
 N247 N 0.06963 -0.07494 -0.04862
 N248 N 0.08594 -0.09618 -0.06955
 C249 C 0.13887 0.38643 0.39692
 N250 N 0.16770 0.39464 0.38197
 N251 N 0.18382 0.37434 0.35967
 C252 C 0.17185 0.34494 0.35154
 N253 N 0.14304 0.33665 0.36674
 N254 N 0.12680 0.35705 0.38891
 C255 C 0.12099 0.40933 0.42073
 N256 N 0.09030 0.40350 0.43132
 N257 N 0.07396 0.42490 0.45194
 C258 C 0.08773 0.45286 0.46294
 N259 N 0.11852 0.45847 0.45250
 N260 N 0.13479 0.43718 0.43174
 C261 C 0.63836 -0.11890 0.39454
 N262 N 0.67068 -0.11717 0.39262
 N263 N 0.68729 -0.13828 0.37197
 C264 C 0.67228 -0.16202 0.35243
 N265 N 0.63990 -0.16379 0.35453
 N266 N 0.62325 -0.14263 0.37516
 C267 C 0.62019 -0.09506 0.41666
 N268 N 0.58777 -0.09564 0.41753
 N269 N 0.57147 -0.07347 0.43698
 C270 C 0.58693 -0.04988 0.45633
 N271 N 0.61937 -0.04951 0.45547
 N272 N 0.63567 -0.07162 0.43604
 C273 C 0.63724 0.37955 -0.10269
 N274 N 0.66963 0.37954 -0.10195
 N275 N 0.68622 0.35843 -0.12263
 C276 C 0.67112 0.33648 -0.14489
 N277 N 0.63865 0.33643 -0.14543
 N278 N 0.62203 0.35757 -0.12474
 C279 C 0.61913 0.40357 -0.08078
 N280 N 0.58675 0.40442 -0.08214
 N281 N 0.57052 0.42687 -0.06309
 C282 C 0.58601 0.44934 -0.04195
 N283 N 0.61842 0.44828 -0.04054
 N284 N 0.63465 0.42587 -0.05956
 C285 C -0.13786 0.11799 -0.10025
 N286 N -0.16938 0.12322 -0.09368
 N287 N -0.18573 0.14369 -0.11559
 C288 C -0.17137 0.15973 -0.14517
 N289 N -0.13968 0.15446 -0.15146
 N290 N -0.12327 0.13407 -0.12945
 C291 C -0.12010 0.09468 -0.07679
 N292 N -0.08812 0.09094 -0.08145
 N293 N -0.07222 0.06914 -0.06089
 C294 C -0.08769 0.05013 -0.03501
 N295 N -0.11969 0.05403 -0.03034
 N296 N -0.13557 0.07591 -0.05076
 C297 C -0.13391 0.61193 0.39246
 N298 N -0.14997 0.60259 0.36047
 N299 N -0.16555 0.62392 0.33893
 C300 C -0.16601 0.65533 0.34884
 N301 N -0.15008 0.66465 0.38100
 N302 N -0.13410 0.64337 0.40226
 C303 C -0.11677 0.58832 0.41606
 N304 N -0.09223 0.59735 0.43908
 N305 N -0.07637 0.57571 0.45994
 C306 C -0.08480 0.54435 0.45899
 N307 N -0.10955 0.53540 0.43622
 N308 N -0.12511 0.55696 0.41496
 C309 C 0.36345 0.11752 0.38974
 N310 N 0.33129 0.11962 0.39388
 N311 N 0.31450 0.14048 0.37300
 C312 C 0.32918 0.16004 0.34706
 N313 N 0.36142 0.15793 0.34302
 N314 N 0.37824 0.13709 0.36397
 C315 C 0.38174 0.09404 0.41234
 N316 N 0.41403 0.09233 0.40935
 N317 N 0.43040 0.07057 0.42945
 C318 C 0.41510 0.04962 0.45323
 N319 N 0.38279 0.05149 0.45619
 N320 N 0.36644 0.07327 0.43620
 C321 C 0.36366 0.62008 -0.10873
 N322 N 0.33415 0.62944 -0.09698
 N323 N 0.31751 0.65073 -0.11744
 C324 C 0.32965 0.66331 -0.15059
 N325 N 0.35921 0.65391 -0.16227
 N326 N 0.37594 0.63280 -0.14167
 C327 C 0.38169 0.59609 -0.08664
 N328 N 0.41276 0.58994 -0.09511
 N329 N 0.42893 0.56776 -0.07547
 C330 C 0.41458 0.55071 -0.04682
 N331 N 0.38347 0.55693 -0.03841
 N332 N 0.36736 0.57925 -0.05785
 C333 C -0.14017 -0.11911 0.10744
 N334 N -0.17238 -0.11673 0.11073
 N335 N -0.18884 -0.13818 0.13116
 C336 C -0.17383 -0.16294 0.14916
 N337 N -0.14154 -0.16533 0.14555
 N338 N -0.12504 -0.14385 0.12515
 C339 C -0.12207 -0.09492 0.08567
 N340 N -0.08972 -0.09631 0.08352
 N341 N -0.07339 -0.07393 0.06438
 C342 C -0.08876 -0.04928 0.04662
 N343 N -0.12115 -0.04806 0.04876
 N344 N -0.13747 -0.07040 0.06790
 C345 C -0.13394 0.37628 0.60380
 N346 N -0.16303 0.36594 0.59204
 N347 N -0.17967 0.34530 0.61350
 C348 C -0.16798 0.33440 0.64768
 N349 N -0.13883 0.34476 0.65933
 N350 N -0.12210 0.36522 0.63776
 C351 C -0.11600 0.39984 0.58090
 N352 N -0.08540 0.40714 0.59014
 N353 N -0.06946 0.42935 0.57030
 C354 C -0.08353 0.44529 0.54061
 N355 N -0.11414 0.43787 0.53133
 N356 N -0.13004 0.41549 0.55100
 C357 C 0.36410 -0.11534 0.60253
 N358 N 0.37851 -0.13261 0.63083
 N359 N 0.36171 -0.15299 0.65248
 C360 C 0.32988 -0.15696 0.64661
 N361 N 0.31559 -0.13975 0.61811
 N362 N 0.33234 -0.11931 0.59655
 C363 C 0.38226 -0.09217 0.57932
 N364 N 0.36706 -0.07288 0.55367
 N365 N 0.38327 -0.05123 0.53327
 C366 C 0.41535 -0.04806 0.53758
 N367 N 0.43056 -0.06757 0.56310
 N368 N 0.41433 -0.08916 0.58363
 C369 C 0.36470 0.38356 0.10033
 N370 N 0.37732 0.37145 0.13335
 N371 N 0.36093 0.35059 0.15474
 C372 C 0.33139 0.34083 0.14379
 N373 N 0.31892 0.35278 0.11054
 N374 N 0.33522 0.37382 0.08928
 C375 C 0.38238 0.40734 0.07749
 N376 N 0.36777 0.42388 0.04871
 N377 N 0.38362 0.44606 0.02870
 C378 C 0.41475 0.45241 0.03651
 N379 N 0.42936 0.43567 0.06516
 N380 N 0.41346 0.41365 0.08536
 C381 C 0.13435 0.12050 0.10591
 N382 N 0.11933 0.14393 0.12611
 N383 N 0.13611 0.16500 0.14653
 C384 C 0.16854 0.16343 0.14756
 N385 N 0.18343 0.14001 0.12717
 N386 N 0.16670 0.11900 0.10676
 C387 C 0.11615 0.09662 0.08409
 N388 N 0.13171 0.07340 0.06421
 N389 N 0.11550 0.05117 0.04510
 C390 C 0.08306 0.05118 0.04506
 N391 N 0.06750 0.07455 0.06489
 N392 N 0.08372 0.09685 0.08403
 C393 C 0.13571 0.62321 0.60275
 N394 N 0.12032 0.64496 0.62515
 N395 N 0.13679 0.66604 0.64591
 C396 C 0.16926 0.66616 0.64509
 N397 N 0.18452 0.64446 0.62245
 N398 N 0.16809 0.62342 0.60171
 C399 C 0.11791 0.59908 0.58089
 N400 N 0.13381 0.57696 0.55964
 N401 N 0.11798 0.55431 0.54079
 C402 C 0.08559 0.55281 0.54238
 N403 N 0.06968 0.57513 0.56351
 N404 N 0.08553 0.59783 0.58242
 C405 C 0.63723 0.11367 0.60648
 N406 N 0.62533 0.14317 0.61450
 N407 N 0.64175 0.16350 0.63639
 C408 C 0.67056 0.15501 0.65129
 N409 N 0.68232 0.12546 0.64322
 N410 N 0.66604 0.10524 0.62119
 C411 C 0.61941 0.09095 0.58256
 N412 N 0.63343 0.06330 0.57102
 N413 N 0.61741 0.04226 0.54983
 C414 C 0.58666 0.04792 0.53944
 N415 N 0.57261 0.07565 0.55104
 N416 N 0.58871 0.09682 0.57211
 C417 C 0.63462 0.61310 0.10920
 N418 N 0.62591 0.64438 0.11092
 N419 N 0.64196 0.66480 0.13310
 C420 C 0.66710 0.65459 0.15465
 N421 N 0.67563 0.62326 0.15296
 N422 N 0.65979 0.60294 0.13058
 C423 C 0.61734 0.59040 0.08470
 N424 N 0.62998 0.56111 0.07740
 N425 N 0.61438 0.54018 0.05560
 C426 C 0.58541 0.54759 0.04045
 N427 N 0.57273 0.57692 0.04784
 N428 N 0.58847 0.59800 0.06941
   
