data_POSCAR
  _audit_creation_date              2014-09-24
  _audit_creation_method            'ToBaCCo'
  _symmetry_space_group_name_H-M    'P1'
  _symmetry_Int_Tables_number       1
  _symmetry_cell_setting            triclinic
  loop_
  _symmetry_equiv_pos_as_xyz
 x,y,z
_cell_length_a 44.8472
_cell_length_b 45.9485
_cell_length_c 40.1484
_cell_angle_alpha 90.225300
_cell_angle_beta 89.669400
_cell_angle_gamma 81.293100
loop_
  _atom_site_label
  _atom_site_type_symbol
  _atom_site_fract_x
  _atom_site_fract_y
  _atom_site_fract_z
O1 O 0.00896 0.32792 -0.03318
 O2 O -0.04088 0.31352 0.03625
 O3 O 0.01439 0.32513 0.03088
 O4 O -0.04681 0.31782 -0.02717
 O5 O -0.03141 0.26992 -0.03119
 O6 O 0.03148 0.27771 0.02545
 O7 O -0.02285 0.26621 0.03286
 O8 O 0.02339 0.27996 -0.03871
 Cu9 Cu -0.01768 0.32595 0.00214
 Cu10 Cu 0.00182 0.26866 -0.00336
 C11 C 0.02452 0.30614 -0.04782
 C12 C -0.04035 0.28727 0.04643
 C13 C 0.03360 0.30281 0.03786
 C14 C -0.04995 0.29268 -0.03859
 O15 O 0.51588 0.84760 0.48780
 O16 O 0.45844 0.82719 0.54773
 O17 O 0.51299 0.83981 0.55253
 O18 O 0.45892 0.84034 0.48483
 O19 O 0.47364 0.79299 0.47559
 O20 O 0.53154 0.79348 0.54143
 O21 O 0.47702 0.78052 0.53891
 O22 O 0.53006 0.80046 0.47681
 Cu23 Cu 0.48506 0.84344 0.51906
 Cu24 Cu 0.50472 0.78727 0.50717
 C25 C 0.53250 0.82718 0.47175
 C26 C 0.45848 0.79996 0.55374
 C27 C 0.53141 0.81678 0.55876
 C28 C 0.45626 0.81687 0.46920
 O29 O 1.04822 0.65901 0.04220
 O30 O 0.98649 0.66305 -0.01706
 O31 O 1.04115 0.67179 -0.02258
 O32 O 0.98808 0.65759 0.04526
 O33 O 0.98005 0.70507 0.05717
 O34 O 1.03713 0.71738 -0.00397
 O35 O 0.97728 0.71121 -0.00964
 O36 O 1.03615 0.70573 0.05618
 Cu37 Cu 1.01777 0.65808 0.01171
 Cu38 Cu 1.00564 0.71465 0.02461
 C39 C 1.05319 0.68108 0.05929
 C40 C 0.97117 0.68777 -0.02351
 C41 C 1.04928 0.69718 -0.02348
 C42 C 0.97423 0.67929 0.06190
 O43 O 0.53288 0.18404 0.53930
 O44 O 0.48999 0.16637 0.46493
 O45 O 0.54364 0.17821 0.47648
 O46 O 0.48028 0.16656 0.52937
 O47 O 0.46151 0.21370 0.52619
 O48 O 0.52412 0.22491 0.47008
 O49 O 0.46951 0.21318 0.46247
 O50 O 0.51361 0.23084 0.53346
 Cu51 Cu 0.51342 0.16903 0.50317
 Cu52 Cu 0.49023 0.22532 0.49760
 C53 C 0.53094 0.21085 0.54844
 C54 C 0.47224 0.18712 0.45130
 C55 C 0.54489 0.20335 0.46424
 C56 C 0.46008 0.18795 0.53694
 O57 O 0.70618 -0.01408 0.04466
 O58 O 0.69117 0.03490 -0.02811
 O59 O 0.71003 -0.01936 -0.02018
 O60 O 0.68547 0.04313 0.03685
 O61 O 0.73268 0.05048 0.04243
 O62 O 0.75555 -0.00669 -0.02082
 O63 O 0.73525 0.04968 -0.02084
 O64 O 0.75306 -0.00494 0.04519
 Cu65 Cu 0.69335 0.01022 0.00877
 Cu66 Cu 0.74897 0.02266 0.01166
 C67 C 0.73252 -0.01817 0.05699
 C68 C 0.71068 0.05088 -0.03672
 C69 C 0.73675 -0.02252 -0.03173
 C70 C 0.70488 0.05745 0.04937
 O71 O 0.22242 0.53124 0.46612
 O72 O 0.19558 0.47486 0.51896
 O73 O 0.21279 0.52627 0.52992
 O74 O 0.20646 0.48045 0.45539
 O75 O 0.25268 0.45730 0.46380
 O76 O 0.25989 0.50489 0.53607
 O77 O 0.24262 0.45404 0.52686
 O78 O 0.26910 0.50853 0.47172
 Cu79 Cu 0.20453 0.50539 0.49216
 Cu80 Cu 0.26080 0.47917 0.50045
 C81 C 0.25033 0.52896 0.45910
 C82 C 0.21454 0.45475 0.53186
 C83 C 0.23759 0.52350 0.54560
 C84 C 0.22856 0.46109 0.44696
 O85 O 0.30744 1.00913 0.01507
 O86 O 0.29058 0.94769 -0.03553
 O87 O 0.29917 1.00013 -0.04969
 O88 O 0.29210 0.95667 0.02688
 O89 O 0.24385 0.97554 0.02924
 O90 O 0.25385 1.02467 -0.03973
 O91 O 0.24270 0.96792 -0.03725
 O92 O 0.25900 1.02537 0.02209
 Cu93 Cu 0.30238 0.97709 -0.01089
 Cu94 Cu 0.24484 0.99928 -0.00727
 C95 C 0.28646 1.02729 0.02819
 C96 C 0.26388 0.94734 -0.04529
 C97 C 0.27781 1.02062 -0.05709
 C98 C 0.26623 0.95836 0.04064
 O99 O 0.79352 0.53290 0.54643
 O100 O 0.80564 0.48025 0.47624
 O101 O 0.79023 0.53718 0.48106
 O102 O 0.80849 0.47561 0.54008
 O103 O 0.76054 0.46981 0.54139
 O104 O 0.74223 0.53190 0.48417
 O105 O 0.75735 0.47560 0.47757
 O106 O 0.74592 0.52599 0.54944
 Cu107 Cu 0.80424 0.50734 0.51085
 Cu108 Cu 0.74662 0.50061 0.51340
 C109 C 0.76778 0.53774 0.56047
 C110 C 0.78360 0.46878 0.46512
 C111 C 0.76304 0.54461 0.47200
 C112 C 0.78767 0.46177 0.55018
 C113 C 0.30622 0.29938 0.29779
 C114 C 0.32757 0.27451 0.29755
 C115 C 0.31477 0.25284 0.28126
 N116 N 0.28643 0.26356 0.27165
 C117 C 0.28109 0.29196 0.28180
 C118 C 0.32811 0.22313 0.27723
 C119 C 0.31678 0.20436 0.25410
 C120 C 0.32344 0.17387 0.25368
 C121 C 0.31106 0.16442 0.22507
 C122 C 0.29698 0.18939 0.20903
 N123 N 0.30032 0.21360 0.22700
 C124 C 0.28378 0.18978 0.17720
 C125 C 0.26259 0.21365 0.16640
 C126 C 0.25209 0.21808 0.13413
 C127 C 0.23001 0.24230 0.13518
 C128 C 0.22791 0.25178 0.16804
 N129 N 0.24783 0.23427 0.18703
 C130 C 0.20665 0.27491 0.18084
 C131 C 0.20977 0.28694 0.21282
 C132 C 0.18700 0.30421 0.23055
 C133 C 0.20014 0.31417 0.25842
 C134 C 0.23058 0.30273 0.25682
 N135 N 0.23618 0.28586 0.22920
 C136 C 0.25298 0.31027 0.27847
 H137 H 0.30895 0.32044 0.30853
 H138 H 0.34993 0.27263 0.30807
 H139 H 0.25746 0.27748 0.21980
 H140 H 0.33637 0.15989 0.27176
 H141 H 0.31259 0.14179 0.21678
 H142 H 0.25943 0.20516 0.11217
 H143 H 0.21701 0.25178 0.11421
 H144 H 0.18872 0.32867 0.27733
 H145 H 0.29510 0.23529 0.21897
 H146 H 0.16348 0.30955 0.22379
 C147 C 0.71084 0.76122 0.35951
 C148 C 0.72727 0.73356 0.35866
 C149 C 0.74001 0.72976 0.32710
 N150 N 0.73171 0.75408 0.30858
 C151 C 0.71376 0.77335 0.32832
 C152 C 0.75656 0.70309 0.31521
 C153 C 0.77390 0.70043 0.28545
 C154 C 0.78783 0.67399 0.27202
 C155 C 0.80310 0.68070 0.24394
 C156 C 0.79768 0.71111 0.24046
 N157 N 0.78042 0.72294 0.26641
 C158 C 0.80938 0.72703 0.21433
 C159 C 0.79937 0.75739 0.20815
 C160 C 0.81095 0.77370 0.18352
 C161 C 0.79472 0.80144 0.18480
 C162 C 0.77335 0.80134 0.20985
 N163 N 0.77601 0.77430 0.22382
 C164 C 0.75098 0.82568 0.21781
 C165 C 0.72873 0.82552 0.24293
 C166 C 0.70300 0.84633 0.24612
 C167 C 0.68792 0.83919 0.27416
 C168 C 0.70507 0.81449 0.28775
 N169 N 0.72998 0.80643 0.26859
 C170 C 0.69811 0.80084 0.31783
 H171 H 0.69793 0.77110 0.38062
 H172 H 0.72940 0.71789 0.37889
 H173 H 0.74844 0.79091 0.27453
 H174 H 0.78737 0.65208 0.28162
 H175 H 0.81664 0.66475 0.22809
 H176 H 0.82887 0.76646 0.16588
 H177 H 0.79789 0.81943 0.16848
 H178 H 0.66684 0.85103 0.28356
 H179 H 0.77547 0.74510 0.27244
 H180 H 0.69572 0.86477 0.22992
 C181 C 0.74656 0.23584 0.14740
 C182 C 0.77131 0.24996 0.14885
 C183 C 0.77011 0.26414 0.17945
 N184 N 0.74553 0.25905 0.19674
 C185 C 0.73135 0.24125 0.17751
 C186 C 0.79183 0.28120 0.19061
 C187 C 0.78806 0.30009 0.21867
 C188 C 0.80450 0.32282 0.22448
 C189 C 0.79459 0.33546 0.25433
 C190 C 0.77303 0.31955 0.26665
 N191 N 0.76910 0.29810 0.24456
 C192 C 0.75930 0.32406 0.29855
 C193 C 0.73570 0.30924 0.30982
 C194 C 0.72482 0.31010 0.34226
 C195 C 0.70307 0.29219 0.34317
 C196 C 0.70134 0.28084 0.31128
 N197 N 0.72109 0.29153 0.29094
 C198 C 0.68328 0.25934 0.30255
 C199 C 0.68202 0.24617 0.27066
 C200 C 0.66598 0.22322 0.26410
 C201 C 0.67241 0.21437 0.23191
 C202 C 0.69223 0.23208 0.21934
 N203 N 0.69719 0.25210 0.24284
 C204 C 0.70643 0.22773 0.18764
 H205 H 0.74087 0.22258 0.12673
 H206 H 0.78812 0.25004 0.12941
 H207 H 0.70949 0.26926 0.23986
 H208 H 0.82173 0.32992 0.20889
 H209 H 0.80285 0.35398 0.26588
 H210 H 0.73233 0.32163 0.36342
 H211 H 0.69057 0.28744 0.36512
 H212 H 0.66435 0.19602 0.21977
 H213 H 0.75711 0.28083 0.24848
 H214 H 0.65182 0.21311 0.28110
 C215 C 0.21659 0.75777 0.16119
 C216 C 0.22874 0.78338 0.16245
 C217 C 0.24515 0.78259 0.19164
 N218 N 0.24316 0.75746 0.20832
 C219 C 0.22544 0.74230 0.19000
 C220 C 0.26204 0.80470 0.20169
 C221 C 0.28164 0.80256 0.22939
 C222 C 0.30230 0.82155 0.23532
 C223 C 0.31683 0.81261 0.26436
 C224 C 0.30448 0.78854 0.27576
 N225 N 0.28293 0.78263 0.25432
 C226 C 0.31275 0.77363 0.30599
 C227 C 0.30397 0.74634 0.31491
 C228 C 0.31093 0.73197 0.34483
 C229 C 0.29965 0.70595 0.34315
 C230 C 0.28559 0.70539 0.31254
 N231 N 0.28828 0.73009 0.29537
 C232 C 0.26980 0.68260 0.30194
 C233 C 0.25054 0.68426 0.27386
 C234 C 0.23046 0.66478 0.26761
 C235 C 0.21498 0.67431 0.23935
 C236 C 0.22640 0.69905 0.22833
 N237 N 0.24827 0.70482 0.24950
 C238 C 0.21645 0.71508 0.19913
 H239 H 0.20291 0.75139 0.14113
 H240 H 0.22624 0.80037 0.14364
 H241 H 0.26245 0.72038 0.24617
 H242 H 0.30670 0.83988 0.22016
 H243 H 0.33453 0.82275 0.27574
 H244 H 0.32269 0.73939 0.36593
 H245 H 0.30093 0.68969 0.36274
 H246 H 0.19709 0.66414 0.22843
 H247 H 0.26787 0.76796 0.25825
 H248 H 0.22671 0.64592 0.28222
 C249 C 0.80958 0.19884 0.81470
 C250 C 0.78857 0.18002 0.81257
 C251 C 0.76514 0.19405 0.79330
 N252 N 0.77185 0.22009 0.78242
 C253 C 0.79893 0.22300 0.79537
 C254 C 0.73652 0.18512 0.78906
 C255 C 0.71564 0.19968 0.76604
 C256 C 0.68465 0.20010 0.76715
 C257 C 0.67304 0.21482 0.73926
 C258 C 0.69721 0.22328 0.72209
 N259 N 0.72309 0.21402 0.73855
 C260 C 0.69517 0.23758 0.69100
 C261 C 0.71816 0.25208 0.67800
 C262 C 0.71913 0.26268 0.64583
 C263 C 0.74328 0.27781 0.64438
 C264 C 0.75588 0.27631 0.67590
 N265 N 0.74055 0.26045 0.69634
 C266 C 0.77909 0.29178 0.68652
 C267 C 0.79198 0.28787 0.71852
 C268 C 0.80712 0.30802 0.73452
 C269 C 0.81598 0.29611 0.76489
 C270 C 0.80614 0.26893 0.76653
 N271 N 0.79189 0.26390 0.73795
 C272 C 0.81183 0.24896 0.79325
 H273 H 0.83025 0.19516 0.82886
 H274 H 0.79012 0.15886 0.82467
 H275 H 0.78468 0.24428 0.73095
 H276 H 0.67168 0.19082 0.78609
 H277 H 0.64948 0.21879 0.73238
 H278 H 0.70377 0.26011 0.62569
 H279 H 0.75025 0.28921 0.62283
 H280 H 0.82856 0.30624 0.78344
 H281 H 0.74486 0.21464 0.72968
 H282 H 0.81104 0.32928 0.72548
 C283 C 0.25945 0.70046 0.65337
 C284 C 0.27565 0.72324 0.64934
 C285 C 0.27114 0.74031 0.67794
 N286 N 0.25261 0.72879 0.69932
 C287 C 0.24554 0.70429 0.68438
 C288 C 0.28745 0.76344 0.68592
 C289 C 0.27938 0.78280 0.71303
 C290 C 0.29829 0.80026 0.72782
 C291 C 0.28263 0.81431 0.75436
 C292 C 0.25456 0.80512 0.75491
 N293 N 0.25245 0.78655 0.72910
 C294 C 0.23192 0.81355 0.77918
 C295 C 0.20641 0.79941 0.78236
 C296 C 0.18112 0.81002 0.80124
 C297 C 0.16560 0.78679 0.80589
 C298 C 0.18233 0.76264 0.79029
 N299 N 0.20703 0.77055 0.77562
 C300 C 0.17874 0.73300 0.79588
 C301 C 0.19207 0.71032 0.77411
 C302 C 0.19415 0.68033 0.77981
 C303 C 0.20850 0.66625 0.75241
 C304 C 0.21539 0.68804 0.73114
 N305 N 0.20476 0.71473 0.74417
 C306 C 0.23052 0.68311 0.70022
 H307 H 0.25903 0.68244 0.63603
 H308 H 0.29004 0.72632 0.62830
 H309 H 0.20442 0.73475 0.73198
 H310 H 0.32130 0.80202 0.72091
 H311 H 0.29114 0.82920 0.77160
 H312 H 0.17549 0.83174 0.81218
 H313 H 0.14552 0.78706 0.82106
 H314 H 0.21386 0.64267 0.74894
 H315 H 0.23330 0.77774 0.72218
 H316 H 0.18646 0.66960 0.80146
 C317 C 0.17299 0.20987 0.80599
 C318 C 0.19363 0.18452 0.80447
 C319 C 0.21695 0.19048 0.78405
 N320 N 0.21053 0.21819 0.77200
 C321 C 0.18365 0.23004 0.78516
 C322 C 0.24490 0.17207 0.77858
 C323 C 0.26535 0.17990 0.75451
 C324 C 0.29631 0.17101 0.75452
 C325 C 0.30716 0.18030 0.72494
 C326 C 0.28251 0.19475 0.70786
 N327 N 0.25718 0.19477 0.72621
 C328 C 0.28330 0.20526 0.67498
 C329 C 0.26039 0.22653 0.66215
 C330 C 0.25740 0.23493 0.62907
 C331 C 0.23454 0.25845 0.62807
 C332 C 0.22441 0.26347 0.66057
 N333 N 0.24019 0.24391 0.68129
 C334 C 0.20324 0.28751 0.67138
 C335 C 0.19097 0.28919 0.70395
 C336 C 0.17608 0.31462 0.71876
 C337 C 0.16700 0.30682 0.74977
 C338 C 0.17681 0.27682 0.75322
 N339 N 0.19106 0.26621 0.72496
 C340 C 0.17038 0.25967 0.78081
 H341 H 0.15245 0.21278 0.82062
 H342 H 0.19160 0.16427 0.81731
 H343 H 0.19784 0.24409 0.71919
 H344 H 0.30963 0.15868 0.77362
 H345 H 0.33046 0.17645 0.71672
 H346 H 0.27066 0.22549 0.60800
 H347 H 0.22667 0.27079 0.60610
 H348 H 0.15413 0.32164 0.76738
 H349 H 0.23516 0.20106 0.71797
 H350 H 0.17207 0.33654 0.70835
 C351 C 0.68759 0.73471 0.70185
 C352 C 0.70604 0.70811 0.70332
 C353 C 0.73240 0.71324 0.71858
 N354 N 0.73094 0.74222 0.72573
 C355 C 0.70355 0.75543 0.71546
 C356 C 0.75794 0.69170 0.72379
 C357 C 0.78202 0.69631 0.74472
 C358 C 0.80948 0.67794 0.74667
 C359 C 0.82513 0.68836 0.77245
 C360 C 0.80668 0.71267 0.78567
 N361 N 0.78052 0.71737 0.76855
 C362 C 0.81297 0.72828 0.81464
 C363 C 0.79671 0.75617 0.82303
 C364 C 0.79839 0.77055 0.85326
 C365 C 0.78117 0.79768 0.85022
 C366 C 0.76907 0.79876 0.81850
 N367 N 0.77870 0.77347 0.80184
 C368 C 0.75143 0.82369 0.80457
 C369 C 0.73422 0.82242 0.77539
 C370 C 0.72062 0.84663 0.75770
 C371 C 0.70431 0.83600 0.73259
 C372 C 0.70832 0.80559 0.73577
 N373 N 0.72656 0.79756 0.76193
 C374 C 0.69359 0.78620 0.71645
 H375 H 0.66502 0.73823 0.69178
 H376 H 0.70051 0.68739 0.69424
 H377 H 0.73061 0.77668 0.77240
 H378 H 0.81718 0.65864 0.73162
 H379 H 0.84728 0.67873 0.78096
 H380 H 0.81075 0.76249 0.87525
 H381 H 0.77788 0.81466 0.86922
 H382 H 0.69078 0.84919 0.71433
 H383 H 0.76122 0.73156 0.77561
 H384 H 0.72198 0.86957 0.76264
 C385 C 0.27872 0.09042 0.08698
 C386 C 0.30852 0.09336 0.09124
 C387 C 0.33196 0.07507 0.07557
 C388 C 0.32439 0.05283 0.05463
 C389 C 0.29370 0.04945 0.04943
 C390 C 0.27061 0.06875 0.06603
 O391 O 0.25991 0.10992 0.10432
 C392 C 0.27823 0.12558 0.11975
 C393 C 0.30821 0.11643 0.11251
 C394 C 0.33121 0.13012 0.12556
 C395 C 0.32291 0.15431 0.14685
 C396 C 0.29213 0.16404 0.15478
 C397 C 0.26953 0.14926 0.14119
 H398 H 0.35526 0.07778 0.07937
 H399 H 0.34255 0.03846 0.04232
 H400 H 0.24698 0.06695 0.06297
 H401 H 0.35464 0.12261 0.11936
 H402 H 0.34033 0.16561 0.15707
 H403 H 0.24590 0.15617 0.14698
 C404 C 0.77313 0.59829 0.62312
 C405 C 0.75449 0.59064 0.64789
 C406 C 0.73935 0.56647 0.64535
 C407 C 0.74367 0.54943 0.61615
 C408 C 0.76326 0.55648 0.59053
 C409 C 0.77835 0.58120 0.59420
 O410 O 0.78388 0.62310 0.62962
 C411 C 0.77187 0.63118 0.65919
 C412 C 0.75397 0.61188 0.67161
 C413 C 0.73870 0.61636 0.70190
 C414 C 0.74152 0.64208 0.71982
 C415 C 0.75893 0.66280 0.70692
 C416 C 0.77469 0.65708 0.67642
 H417 H 0.72443 0.56114 0.66495
 H418 H 0.73207 0.53051 0.61365
 H419 H 0.79308 0.58731 0.57481
 H420 H 0.72466 0.60091 0.71110
 H421 H 0.72926 0.64654 0.74305
 H422 H 0.78778 0.67283 0.66597
 C423 C 0.73135 0.92007 0.11891
 C424 C 0.75440 0.92513 0.13958
 C425 C 0.77093 0.94801 0.13468
 C426 C 0.76345 0.96646 0.10730
 C427 C 0.73957 0.96200 0.08569
 C428 C 0.72315 0.93852 0.09179
 O429 O 0.71937 0.89637 0.12731
 C430 C 0.73515 0.88635 0.15391
 C431 C 0.75673 0.90332 0.16253
 C432 C 0.77610 0.89673 0.18928
 C433 C 0.77329 0.87148 0.20780
 C434 C 0.75159 0.85337 0.19913
 C435 C 0.73215 0.86093 0.17186
 H436 H 0.78915 0.95136 0.15113
 H437 H 0.77616 0.98437 0.10306
 H438 H 0.70506 0.93436 0.07553
 H439 H 0.79296 0.91039 0.19547
 H440 H 0.78833 0.86560 0.22852
 H441 H 0.71565 0.84720 0.16465
 C442 C 0.21542 0.38920 0.58822
 C443 C 0.18526 0.38672 0.58962
 C444 C 0.16337 0.40618 0.57332
 C445 C 0.17304 0.42893 0.55467
 C446 C 0.20413 0.43165 0.55258
 C447 C 0.22549 0.41145 0.56983
 O448 O 0.23268 0.36864 0.60537
 C449 C 0.21306 0.35271 0.61785
 C450 C 0.18371 0.36270 0.60897
 C451 C 0.15967 0.34888 0.61926
 C452 C 0.16622 0.32386 0.63956
 C453 C 0.19634 0.31337 0.64909
 C454 C 0.22000 0.32812 0.63806
 H455 H 0.13974 0.40387 0.57476
 H456 H 0.15637 0.44413 0.54158
 H457 H 0.24937 0.41282 0.56888
 H458 H 0.13675 0.35704 0.61195
 H459 H 0.14798 0.31268 0.64799
 H460 H 0.24314 0.32070 0.64521
 C461 C 0.89535 0.29440 0.10562
 C462 C 0.90004 0.26689 0.11972
 C463 C 0.92430 0.24560 0.11137
 C464 C 0.94444 0.25279 0.08706
 C465 C 0.94037 0.28116 0.07214
 C466 C 0.91566 0.30244 0.08224
 O467 O 0.86969 0.31057 0.11533
 C468 C 0.85802 0.29287 0.13613
 C469 C 0.87592 0.26600 0.13988
 C470 C 0.86794 0.24384 0.15994
 C471 C 0.84035 0.24964 0.17694
 C472 C 0.82131 0.27698 0.17316
 C473 C 0.83013 0.29889 0.15228
 H474 H 0.92718 0.22394 0.12249
 H475 H 0.96312 0.23612 0.07988
 H476 H 0.91137 0.32405 0.07100
 H477 H 0.88236 0.22282 0.16229
 H478 H 0.83350 0.23275 0.19275
 H479 H 0.81564 0.31969 0.14855
 C480 C 0.38904 0.79505 0.60711
 C481 C 0.39731 0.76759 0.62067
 C482 C 0.42501 0.75046 0.61438
 C483 C 0.44499 0.76185 0.59286
 C484 C 0.43722 0.79003 0.57813
 C485 C 0.40886 0.80708 0.58577
 O486 O 0.36112 0.80709 0.61567
 C487 C 0.35171 0.78674 0.63499
 C488 C 0.37312 0.76221 0.63879
 C489 C 0.36813 0.73791 0.65733
 C490 C 0.33986 0.73884 0.67265
 C491 C 0.31715 0.76368 0.66907
 C492 C 0.32324 0.78814 0.65011
 H493 H 0.43087 0.72885 0.62526
 H494 H 0.46653 0.74852 0.58747
 H495 H 0.40210 0.82845 0.57462
 H496 H 0.38537 0.71885 0.65983
 H497 H 0.33552 0.72019 0.68734
 H498 H 0.30627 0.80735 0.64705
 C499 C 0.11049 0.69881 0.11980
 C500 C 0.13131 0.67365 0.11720
 C501 C 0.12673 0.64976 0.09766
 C502 C 0.09984 0.65202 0.07956
 C503 C 0.07835 0.67827 0.08047
 C504 C 0.08381 0.70187 0.10141
 O505 O 0.11930 0.71892 0.13985
 C506 C 0.14637 0.70624 0.14980
 C507 C 0.15491 0.67866 0.13632
 C508 C 0.18309 0.66215 0.14180
 C509 C 0.20329 0.67456 0.16209
 C510 C 0.19477 0.70263 0.17708
 C511 C 0.16573 0.71856 0.17097
 H512 H 0.14341 0.63013 0.09614
 H513 H 0.09641 0.63358 0.06390
 H514 H 0.06812 0.72221 0.10298
 H515 H 0.18949 0.64071 0.13041
 H516 H 0.22552 0.66233 0.16636
 H517 H 0.15870 0.74009 0.18194
 C518 C 0.59491 0.21194 0.60898
 C519 C 0.58804 0.24024 0.62105
 C520 C 0.56211 0.25903 0.61226
 C521 C 0.54275 0.24848 0.58946
 C522 C 0.54962 0.21962 0.57582
 C523 C 0.57584 0.20088 0.58634
 O524 O 0.62133 0.19822 0.61956
 C525 C 0.63135 0.21837 0.63855
 C526 C 0.61182 0.24450 0.64017
 C527 C 0.61834 0.26909 0.65737
 C528 C 0.64611 0.26658 0.67377
 C529 C 0.66643 0.23982 0.67270
 C530 C 0.65898 0.21532 0.65497
 H531 H 0.55731 0.28126 0.62198
 H532 H 0.52280 0.26314 0.58176
 H533 H 0.58198 0.17898 0.57601
 H534 H 0.60274 0.28951 0.65791
 H535 H 0.65184 0.28532 0.68744
 H536 H 0.67435 0.19476 0.65378
 C537 C 0.71859 0.10965 0.90278
 C538 C 0.70274 0.10070 0.87640
 C539 C 0.68658 0.07720 0.87854
 C540 C 0.68743 0.06189 0.90887
 C541 C 0.70589 0.06912 0.93542
 C542 C 0.72133 0.09369 0.93227
 O543 O 0.73155 0.13307 0.89612
 C544 C 0.72435 0.13863 0.86457
 C545 C 0.70744 0.11904 0.85103
 C546 C 0.70021 0.11907 0.81740
 C547 C 0.71082 0.14018 0.79708
 C548 C 0.72692 0.16175 0.81083
 C549 C 0.73316 0.16106 0.84540
 H550 H 0.67387 0.07080 0.85761
 H551 H 0.67542 0.04319 0.91073
 H552 H 0.73520 0.10020 0.95215
 H553 H 0.68772 0.10283 0.80699
 H554 H 0.70629 0.13989 0.77063
 H555 H 0.74483 0.17730 0.85713
 C556 C 0.25173 0.59275 0.40017
 C557 C 0.28025 0.58576 0.38686
 C558 C 0.30035 0.56139 0.39692
 C559 C 0.29054 0.54325 0.42144
 C560 C 0.26098 0.54959 0.43515
 C561 C 0.24141 0.57490 0.42439
 O562 O 0.23626 0.61699 0.38728
 C563 C 0.25539 0.62540 0.36523
 C564 C 0.28257 0.60693 0.36389
 C565 C 0.30578 0.61139 0.34228
 C566 C 0.30086 0.63602 0.32137
 C567 C 0.27319 0.65555 0.32257
 C568 C 0.25013 0.65020 0.34488
 H569 H 0.32272 0.55640 0.38612
 H570 H 0.30578 0.52394 0.42919
 H571 H 0.21874 0.58039 0.43428
 H572 H 0.32695 0.59653 0.34164
 H573 H 0.31867 0.64025 0.30456
 H574 H 0.22897 0.66505 0.34646
 C575 C 0.24135 0.90078 0.88429
 C576 C 0.25614 0.87373 0.89398
 C577 C 0.27171 0.86919 0.92372
 C578 C 0.27279 0.89372 0.94408
 C579 C 0.25823 0.92201 0.93462
 C580 C 0.24169 0.92559 0.90460
 O581 O 0.22909 0.90020 0.85422
 C582 C 0.23643 0.87220 0.84487
 C583 C 0.25299 0.85523 0.86845
 C584 C 0.26386 0.82556 0.86390
 C585 C 0.25709 0.81262 0.83389
 C586 C 0.23993 0.82941 0.80917
 C587 C 0.22943 0.85969 0.81457
 H588 H 0.28333 0.84768 0.93056
 H589 H 0.28557 0.89086 0.96697
 H590 H 0.23100 0.94710 0.89653
 H591 H 0.27698 0.81281 0.88283
 H592 H 0.26489 0.78938 0.82988
 H593 H 0.21613 0.87279 0.79603
 C594 C 0.76922 0.41842 0.39454
 C595 C 0.79730 0.40190 0.39087
 C596 C 0.82205 0.40704 0.40951
 C597 C 0.81757 0.42992 0.43315
 C598 C 0.78858 0.44669 0.43808
 C599 C 0.76415 0.44093 0.41821
 O600 O 0.74861 0.40969 0.37479
 C601 C 0.76395 0.38701 0.35849
 C602 C 0.79379 0.38116 0.36758
 C603 C 0.81348 0.35729 0.35503
 C604 C 0.80190 0.33866 0.33227
 C605 C 0.77133 0.34453 0.32208
 C606 C 0.75219 0.36926 0.33524
 H607 H 0.84393 0.39369 0.40626
 H608 H 0.83642 0.43394 0.44832
 H609 H 0.74176 0.45329 0.42143
 H610 H 0.83673 0.35280 0.36301
 H611 H 0.81660 0.31955 0.32267
 H612 H 0.72869 0.37399 0.32820
 C613 C 0.07117 0.29261 0.87484
 C614 C 0.09255 0.31054 0.88073
 C615 C 0.09078 0.33001 0.90758
 C616 C 0.06647 0.33029 0.92984
 C617 C 0.04527 0.31074 0.92518
 C618 C 0.04727 0.29216 0.89693
 O619 O 0.07766 0.27475 0.84894
 C620 C 0.10395 0.28118 0.83848
 C621 C 0.11425 0.30266 0.85733
 C622 C 0.14271 0.31058 0.85286
 C623 C 0.16116 0.29584 0.82786
 C624 C 0.15061 0.27426 0.80754
 C625 C 0.12146 0.26707 0.81272
 H626 H 0.10803 0.34370 0.91186
 H627 H 0.06528 0.34421 0.95180
 H628 H 0.03161 0.27666 0.89329
 H629 H 0.15070 0.32692 0.86859
 H630 H 0.18362 0.30125 0.82409
 H631 H 0.11304 0.25050 0.79769
 C632 C 0.59004 0.81694 0.40220
 C633 C 0.60279 0.84224 0.40486
 C634 C 0.59232 0.86448 0.42771
 C635 C 0.56814 0.86017 0.44888
 C636 C 0.55536 0.83376 0.44717
 C637 C 0.56634 0.81216 0.42302
 O638 O 0.60376 0.79789 0.38008
 C639 C 0.62587 0.81125 0.36855
 C640 C 0.62650 0.83842 0.38288
 C641 C 0.64925 0.85511 0.37578
 C642 C 0.67235 0.84308 0.35353
 C643 C 0.67218 0.81497 0.33878
 C644 C 0.64815 0.79925 0.34598
 H645 H 0.60278 0.88415 0.42966
 H646 H 0.56018 0.87681 0.46736
 H647 H 0.55727 0.79168 0.42107
 H648 H 0.64969 0.87621 0.38768
 H649 H 0.69078 0.85520 0.34845
 H650 H 0.64761 0.77761 0.33541
 C651 C 0.91286 0.70981 0.90963
 C652 C 0.89865 0.68526 0.90955
 C653 C 0.90656 0.66166 0.93077
 C654 C 0.93037 0.66318 0.95275
 C655 C 0.94552 0.68818 0.95354
 C656 C 0.93640 0.71205 0.93185
 O657 O 0.90162 0.72969 0.88727
 C658 C 0.87985 0.71741 0.87301
 C659 C 0.87708 0.69028 0.88589
 C660 C 0.85508 0.67395 0.87558
 C661 C 0.83462 0.68638 0.85142
 C662 C 0.83676 0.71442 0.83780
 C663 C 0.86019 0.72985 0.84831
 H664 H 0.89496 0.64265 0.93028
 H665 H 0.93693 0.64483 0.96937
 H666 H 0.94765 0.73131 0.93180
 H667 H 0.85324 0.65275 0.88639
 H668 H 0.81662 0.67455 0.84387
 H669 H 0.86225 0.75136 0.83844
 C670 C 0.40892 0.19487 0.39034
 C671 C 0.42330 0.18173 0.36256
 C672 C 0.45294 0.16721 0.36326
 C673 C 0.46856 0.16700 0.39360
 C674 C 0.45449 0.18173 0.42194
 C675 C 0.42410 0.19530 0.42038
 O676 O 0.38124 0.20843 0.38441
 C677 C 0.37808 0.20411 0.35206
 C678 C 0.40322 0.18818 0.33736
 C679 C 0.40547 0.18324 0.30316
 C680 C 0.38080 0.19510 0.28349
 C681 C 0.35435 0.21104 0.29826
 C682 C 0.35307 0.21534 0.33316
 H683 H 0.46391 0.15720 0.34106
 H684 H 0.49200 0.15698 0.39453
 H685 H 0.41305 0.20707 0.44159
 H686 H 0.42572 0.17128 0.29196
 H687 H 0.38227 0.19201 0.25674
 H688 H 0.33332 0.22751 0.34517
 C689 C 0.73410 0.91859 0.90267
 C690 C 0.76083 0.91963 0.88611
 C691 C 0.78116 0.93800 0.89594
 C692 C 0.77339 0.95641 0.92363
 C693 C 0.74565 0.95621 0.94085
 C694 C 0.72584 0.93680 0.93017
 O695 O 0.71853 0.89877 0.89010
 C696 C 0.73579 0.88708 0.86500
 C697 C 0.76187 0.89920 0.86139
 C698 C 0.78375 0.88948 0.83750
 C699 C 0.77895 0.86573 0.81716
 C700 C 0.75266 0.85238 0.82104
 C701 C 0.73048 0.86356 0.84485
 H702 H 0.80223 0.93820 0.88273
 H703 H 0.78878 0.97116 0.93126
 H704 H 0.70456 0.93596 0.94273
 H705 H 0.80422 0.89916 0.83535
 H706 H 0.79626 0.85681 0.79941
 H707 H 0.71070 0.85309 0.84887
 C708 C 0.23838 0.39730 0.38693
 C709 C 0.22733 0.41115 0.35826
 C710 C 0.21499 0.44081 0.35740
 C711 C 0.21439 0.45691 0.38727
 C712 C 0.22669 0.44331 0.41679
 C713 C 0.23873 0.41305 0.41663
 O714 O 0.24866 0.36890 0.38254
 C715 C 0.24429 0.36479 0.35031
 C716 C 0.23165 0.39002 0.33423
 C717 C 0.22636 0.39094 0.30016
 C718 C 0.23422 0.36474 0.28197
 C719 C 0.24636 0.33813 0.29813
 C720 C 0.25139 0.33830 0.33290
 H721 H 0.20628 0.45119 0.33457
 H722 H 0.20531 0.48014 0.38720
 H723 H 0.24818 0.40219 0.43892
 H724 H 0.21685 0.41116 0.28795
 H725 H 0.23064 0.36503 0.25532
 H726 H 0.26048 0.31840 0.34600
 C727 C 0.26460 0.08421 0.88578
 C728 C 0.27966 0.07229 0.85786
 C729 C 0.29667 0.04429 0.85752
 C730 C 0.29767 0.02771 0.88700
 C731 C 0.28011 0.03858 0.91522
 C732 C 0.26353 0.06743 0.91446
 O733 O 0.25119 0.11174 0.88160
 C734 C 0.25730 0.11712 0.85004
 C735 C 0.27390 0.09343 0.83415
 C736 C 0.28034 0.09338 0.80028
 C737 C 0.26940 0.11883 0.78222
 C738 C 0.25394 0.14447 0.79837
 C739 C 0.24822 0.14341 0.83310
 H740 H 0.30886 0.03558 0.83542
 H741 H 0.31056 0.00578 0.88707
 H742 H 0.25045 0.07674 0.93576
 H743 H 0.29257 0.07415 0.78800
 H744 H 0.27337 0.11869 0.75559
 H745 H 0.23718 0.16244 0.84671
 C746 C 0.76887 0.60558 0.41011
 C747 C 0.74074 0.60830 0.39597
 C748 C 0.71889 0.59170 0.40601
 C749 C 0.72639 0.57120 0.43150
 C750 C 0.75540 0.56752 0.44633
 C751 C 0.77693 0.58510 0.43540
 O752 O 0.78592 0.62417 0.39750
 C753 C 0.76815 0.63887 0.37486
 C754 C 0.74031 0.62983 0.37290
 C755 C 0.71789 0.64251 0.35142
 C756 C 0.72418 0.66585 0.33154
 C757 C 0.75243 0.67601 0.33357
 C758 C 0.77492 0.66212 0.35522
 H759 H 0.69682 0.59445 0.39463
 H760 H 0.70965 0.55792 0.43934
 H761 H 0.79921 0.58295 0.44622
 H762 H 0.69613 0.63508 0.35046
 H763 H 0.70684 0.67664 0.31519
 H764 H 0.79645 0.66986 0.35748
 C765 C 0.10048 0.69857 0.90304
 C766 C 0.11931 0.71687 0.91556
 C767 C 0.11558 0.72969 0.94693
 C768 C 0.09144 0.72342 0.96640
 C769 C 0.07253 0.70318 0.95528
 C770 C 0.07754 0.69008 0.92317
 O771 O 0.10589 0.69202 0.87095
 C772 C 0.12888 0.70620 0.86344
 C773 C 0.13831 0.72097 0.89030
 C774 C 0.16209 0.73699 0.88874
 C775 C 0.17636 0.73863 0.85795
 C776 C 0.16566 0.72595 0.82883
 C777 C 0.14194 0.70875 0.83184
 H778 H 0.13014 0.74483 0.95567
 H779 H 0.08813 0.73368 0.99077
 H780 H 0.06294 0.67536 0.91348
 H781 H 0.16934 0.74798 0.91048
 H782 H 0.19505 0.75101 0.85644
 H783 H 0.13326 0.69874 0.81022
 C784 C 0.59522 0.23312 0.40144
 C785 C 0.62058 0.21225 0.40366
 C786 C 0.62274 0.18846 0.42514
 C787 C 0.59761 0.18595 0.44511
 C788 C 0.57109 0.20715 0.44338
 C789 C 0.57002 0.23124 0.42137
 O790 O 0.59765 0.25344 0.37859
 C791 C 0.62515 0.24517 0.36620
 C792 C 0.64011 0.22013 0.38082
 C793 C 0.66898 0.20724 0.37143
 C794 C 0.68302 0.22069 0.34574
 C795 C 0.66795 0.24631 0.33014
 C796 C 0.63868 0.25887 0.34050
 H797 H 0.64292 0.17226 0.42624
 H798 H 0.59886 0.16745 0.46194
 H799 H 0.55002 0.24759 0.41929
 H800 H 0.68017 0.18748 0.38328
 H801 H 0.70548 0.21114 0.33768
 H802 H 0.62688 0.27840 0.32869
 C803 C 0.90065 0.26780 0.89448
 C804 C 0.87418 0.28639 0.90087
 C805 C 0.87118 0.30735 0.92618
 C806 C 0.89654 0.30928 0.94577
 C807 C 0.92400 0.29009 0.94010
 C808 C 0.92603 0.26889 0.91419
 O809 O 0.89893 0.25038 0.86827
 C810 C 0.87072 0.25809 0.85805
 C811 C 0.85463 0.27987 0.87741
 C812 C 0.82475 0.29146 0.87130
 C813 C 0.81089 0.28032 0.84390
 C814 C 0.82713 0.25840 0.82307
 C815 C 0.85745 0.24694 0.83028
 H816 H 0.85016 0.32191 0.93045
 H817 H 0.89472 0.32550 0.96561
 H818 H 0.94684 0.25424 0.90912
 H819 H 0.81261 0.30858 0.88694
 H820 H 0.78766 0.28911 0.83838
 H821 H 0.87026 0.23032 0.81455
 C822 C 0.40698 0.79578 0.39943
 C823 C 0.38446 0.81970 0.39993
 C824 C 0.38448 0.84336 0.42151
 C825 C 0.40863 0.84231 0.44365
 C826 C 0.43202 0.81769 0.44420
 C827 C 0.43116 0.79410 0.42156
 O828 O 0.40224 0.77544 0.37726
 C829 C 0.37609 0.78675 0.36370
 C830 C 0.36422 0.81373 0.37686
 C831 C 0.33631 0.82889 0.36757
 C832 C 0.31978 0.81555 0.34395
 C833 C 0.33150 0.78778 0.32988
 C834 C 0.36033 0.77341 0.33955
 H835 H 0.36641 0.86187 0.42151
 H836 H 0.40873 0.86051 0.46085
 H837 H 0.44854 0.77498 0.42139
 H838 H 0.32731 0.84993 0.37863
 H839 H 0.29768 0.82658 0.33683
 H840 H 0.36968 0.75212 0.32931
 C841 C 0.27393 0.89644 0.10341
 C842 C 0.24957 0.90595 0.12374
 C843 C 0.23059 0.93237 0.11887
 C844 C 0.23673 0.94963 0.09170
 C845 C 0.26164 0.94040 0.07017
 C846 C 0.28074 0.91351 0.07642
 O847 O 0.28833 0.87005 0.11176
 C848 C 0.27270 0.86283 0.13791
 C849 C 0.24881 0.88413 0.14625
 C850 C 0.22899 0.88098 0.17229
 C851 C 0.23396 0.85475 0.19051
 C852 C 0.25828 0.83242 0.18234
 C853 C 0.27801 0.83647 0.15570
 H854 H 0.21142 0.93924 0.13508
 H855 H 0.22192 0.97014 0.08733
 H856 H 0.29962 0.90567 0.06016
 H857 H 0.21026 0.89800 0.17821
 H858 H 0.21879 0.85160 0.21082
 H859 H 0.29658 0.81952 0.14896
 C860 C 0.77861 0.39804 0.60634
 C861 C 0.80793 0.38413 0.60828
 C862 C 0.83182 0.39509 0.59299
 C863 C 0.82513 0.42125 0.57463
 C864 C 0.79492 0.43563 0.57167
 C865 C 0.77144 0.42384 0.58808
 O866 O 0.75917 0.38412 0.62256
 C867 C 0.77654 0.36079 0.63491
 C868 C 0.80656 0.35962 0.62680
 C869 C 0.82854 0.33666 0.63672
 C870 C 0.81918 0.31411 0.65588
 C871 C 0.78838 0.31504 0.66480
 C872 C 0.76683 0.33884 0.65420
 H873 H 0.85474 0.38380 0.59486
 H874 H 0.84335 0.42986 0.56210
 H875 H 0.74816 0.43422 0.58639
 H876 H 0.85201 0.33609 0.62993
 H877 H 0.83584 0.29602 0.66402
 H878 H 0.74325 0.34027 0.66097
 C879 C 0.70859 0.11916 0.11043
 C880 C 0.68028 0.13522 0.10717
 C881 C 0.65826 0.12597 0.08705
 C882 C 0.66599 0.09944 0.06917
 C883 C 0.69543 0.08312 0.07134
 C884 C 0.71679 0.09305 0.09272
 O885 O 0.72649 0.13183 0.13018
 C886 C 0.70925 0.15657 0.13945
 C887 C 0.68080 0.15992 0.12596
 C888 C 0.65968 0.18505 0.13138
 C889 C 0.66830 0.20751 0.15146
 C890 C 0.69747 0.20429 0.16574
 C891 C 0.71803 0.17826 0.15987
 H892 H 0.63614 0.13895 0.08474
 H893 H 0.64948 0.09226 0.05270
 H894 H 0.73948 0.08119 0.09488
 H895 H 0.63752 0.18742 0.12027
 H896 H 0.65239 0.22733 0.15601
 H897 H 0.74039 0.17524 0.17059
 C898 C 0.22428 0.58536 0.60878
 C899 C 0.24846 0.57762 0.62953
 C900 C 0.26950 0.55246 0.62455
 C901 C 0.26550 0.53459 0.59700
 C902 C 0.24074 0.54207 0.57515
 C903 C 0.21969 0.56775 0.58144
 O904 O 0.20795 0.61103 0.61676
 C905 C 0.22215 0.61968 0.64310
 C906 C 0.24703 0.59997 0.65200
 C907 C 0.26614 0.60538 0.67774
 C908 C 0.25961 0.63242 0.69459
 C909 C 0.23438 0.65320 0.68548
 C910 C 0.21514 0.64661 0.65970
 H911 H 0.28858 0.54704 0.64095
 H912 H 0.28182 0.51503 0.59260
 H913 H 0.20084 0.57434 0.56501
 H914 H 0.28584 0.58972 0.68396
 H915 H 0.27465 0.63769 0.71398
 H916 H 0.19623 0.66256 0.65182
 C917 C 0.91826 0.69353 0.13274
 C918 C 0.89772 0.67558 0.12369
 C919 C 0.90249 0.65624 0.09668
 C920 C 0.92911 0.65593 0.07782
 C921 C 0.94987 0.67531 0.08571
 C922 C 0.94451 0.69398 0.11396
 O923 O 0.90907 0.71107 0.15836
 C924 C 0.88198 0.70434 0.16546
 C925 C 0.87375 0.68302 0.14474
 C926 C 0.84511 0.67481 0.14576
 C927 C 0.82417 0.68923 0.16889
 C928 C 0.83235 0.71079 0.19108
 C929 C 0.86191 0.71808 0.18951
 H930 H 0.88593 0.64247 0.08982
 H931 H 0.93266 0.64191 0.05596
 H932 H 0.95969 0.70935 0.12028
 H933 H 0.83878 0.65862 0.12860
 H934 H 0.80145 0.68392 0.16935
 H935 H 0.86854 0.73495 0.20556
 C936 C 0.39092 0.20087 0.59167
 C937 C 0.38571 0.17244 0.59646
 C938 C 0.40415 0.14817 0.58301
 C939 C 0.42892 0.15348 0.56371
 C940 C 0.43452 0.18269 0.55808
 C941 C 0.41518 0.20668 0.57238
 O942 O 0.37086 0.22079 0.60678
 C943 C 0.35252 0.20459 0.62133
 C944 C 0.36050 0.17487 0.61571
 C945 C 0.34410 0.15397 0.62838
 C946 C 0.31844 0.16421 0.64767
 C947 C 0.31000 0.19475 0.65394
 C948 C 0.32738 0.21517 0.64065
 H949 H 0.39963 0.12599 0.58718
 H950 H 0.44346 0.13487 0.55283
 H951 H 0.41888 0.22919 0.56868
 H952 H 0.35077 0.13070 0.62354
 H953 H 0.30515 0.14849 0.65782
 H954 H 0.32148 0.23858 0.64531
 C955 C 0.09995 0.28569 0.09572
 C956 C 0.10699 0.31346 0.10100
 C957 C 0.09076 0.33852 0.08691
 C958 C 0.06632 0.33479 0.06648
 C959 C 0.05884 0.30631 0.06025
 C960 C 0.07599 0.28143 0.07520
 O961 O 0.11819 0.26483 0.11145
 C962 C 0.13723 0.27973 0.12685
 C963 C 0.13146 0.30955 0.12115
 C964 C 0.14916 0.32917 0.13420
 C965 C 0.17388 0.31754 0.15384
 C966 C 0.18016 0.28688 0.16028
 C967 C 0.16136 0.26778 0.14671
 H968 H 0.09672 0.36014 0.09142
 H969 H 0.05354 0.35405 0.05513
 H970 H 0.07083 0.25944 0.07104
 H971 H 0.14432 0.35252 0.12915
 H972 H 0.18828 0.33229 0.16389
 H973 H 0.16562 0.24431 0.15127
 C974 C 0.60058 0.80439 0.61339
 C975 C 0.58966 0.82001 0.64134
 C976 C 0.56035 0.83489 0.64368
 C977 C 0.54157 0.83376 0.61605
 C978 C 0.55205 0.81737 0.58714
 C979 C 0.58200 0.80234 0.58587
 O980 O 0.62912 0.79184 0.61641
 C981 C 0.63621 0.79951 0.64698
 C982 C 0.61278 0.81654 0.66338
 C983 C 0.61470 0.82553 0.69632
 C984 C 0.64169 0.81605 0.71330
 C985 C 0.66626 0.79842 0.69702
 C986 C 0.66362 0.79078 0.66301
 H987 H 0.55225 0.84701 0.66594
 H988 H 0.51866 0.84529 0.61735
 H989 H 0.59061 0.78982 0.56405
 H990 H 0.59576 0.83855 0.70885
 H991 H 0.64321 0.82174 0.73937
 H992 H 0.68192 0.77728 0.64993
   
