data_POSCAR
  _audit_creation_date              2014-09-24
  _audit_creation_method            'ToBaCCo'
  _symmetry_space_group_name_H-M    'P1'
  _symmetry_Int_Tables_number       1
  _symmetry_cell_setting            triclinic
  loop_
  _symmetry_equiv_pos_as_xyz
 x,y,z
_cell_length_a 32.4454
_cell_length_b 32.7007
_cell_length_c 32.7762
_cell_angle_alpha 89.700400
_cell_angle_beta 90.252100
_cell_angle_gamma 90.188500
loop_
  _atom_site_label
  _atom_site_type_symbol
  _atom_site_fract_x
  _atom_site_fract_y
  _atom_site_fract_z
C1 C 0.23513 0.89123 0.00682
 C2 C 0.24326 0.88752 0.04906
 C3 C 0.25375 0.92128 0.07327
 C4 C 0.25933 0.95968 0.05421
 C5 C 0.24693 0.96524 0.01305
 C6 C 0.23349 0.93122 -0.01031
 C7 C 0.21542 0.93877 -0.04865
 C8 C 0.21433 0.97795 -0.06518
 C9 C 0.23305 1.01113 -0.04520
 C10 C 0.24720 1.00517 -0.00447
 C11 C 0.27808 0.99236 0.07470
 C12 C 0.27901 1.03116 0.05753
 C13 C 0.26078 1.03900 0.01927
 C14 C 0.25734 1.07927 0.00338
 C15 C 0.24533 1.08392 -0.03765
 C16 C 0.23515 1.05076 -0.06308
 H17 H 0.19955 0.91503 -0.06536
 H18 H 0.19650 0.98199 -0.09273
 H19 H 0.29314 0.98814 0.10389
 H20 H 0.29515 1.05452 0.07445
 H21 H 0.24249 0.85782 0.06367
 H22 H 0.24315 1.11440 -0.05022
 C23 C 0.72847 0.44433 0.41967
 C24 C 0.72167 0.41097 0.44596
 C25 C 0.71725 0.41599 0.48821
 C26 C 0.71789 0.45571 0.50449
 C27 C 0.72918 0.48927 0.47937
 C28 C 0.73506 0.48360 0.43686
 C29 C 0.74911 0.51683 0.41342
 C30 C 0.75565 0.55510 0.43093
 C31 C 0.74757 0.56213 0.47254
 C32 C 0.73494 0.52844 0.49712
 C33 C 0.70611 0.46298 0.54495
 C34 C 0.71067 0.50132 0.56196
 C35 C 0.72840 0.53349 0.53963
 C36 C 0.73843 0.57092 0.55831
 C37 C 0.74869 0.60441 0.53344
 C38 C 0.75268 0.60126 0.49076
 H39 H 0.75681 0.51325 0.38159
 H40 H 0.76845 0.57844 0.41137
 H41 H 0.69235 0.43943 0.56377
 H42 H 0.69950 0.50545 0.59266
 H43 H 0.71938 0.38053 0.43322
 H44 H 0.75365 0.63356 0.54800
 C45 C 0.76713 1.01435 1.07764
 C46 C 0.77032 0.97242 1.08517
 C47 C 0.77182 0.94341 1.05371
 C48 C 0.77355 0.95822 1.01269
 C49 C 0.76677 1.00056 1.00454
 C50 C 0.76247 1.02852 1.03721
 C51 C 0.75584 1.07011 1.02835
 C52 C 0.75472 1.08431 0.98860
 C53 C 0.76187 1.05798 0.95587
 C54 C 0.76691 1.01553 0.96366
 C55 C 0.78582 0.93346 0.98003
 C56 C 0.78526 0.94788 0.94006
 C57 C 0.77394 0.98838 0.93087
 C58 C 0.77242 1.00329 0.89017
 C59 C 0.76739 1.04560 0.88330
 C60 C 0.76411 1.07322 0.91561
 H61 H 0.75129 1.09273 1.05154
 H62 H 0.74836 1.11645 0.98399
 H63 H 0.79874 0.90350 0.98491
 H64 H 0.79592 0.92719 0.91688
 H65 H 0.77152 0.96252 1.11679
 H66 H 0.76745 1.05754 0.85240
 C67 C 0.26761 0.48243 0.59901
 C68 C 0.26305 0.52436 0.60578
 C69 C 0.25514 0.55171 0.57370
 C70 C 0.24899 0.53597 0.53392
 C71 C 0.25623 0.49385 0.52622
 C72 C 0.26635 0.46718 0.55884
 C73 C 0.27691 0.42651 0.55023
 C74 C 0.27609 0.41192 0.51044
 C75 C 0.26238 0.43657 0.47785
 C76 C 0.25380 0.47848 0.48575
 C77 C 0.23434 0.56064 0.50198
 C78 C 0.23129 0.54557 0.46257
 C79 C 0.24356 0.50542 0.45328
 C80 C 0.24538 0.49138 0.41261
 C81 C 0.25182 0.44949 0.40553
 C82 C 0.25858 0.42136 0.43738
 H83 H 0.28736 0.40591 0.57404
 H84 H 0.28789 0.38155 0.50567
 H85 H 0.22411 0.59159 0.50723
 H86 H 0.21830 0.56575 0.43978
 H87 H 0.26635 0.53588 0.63660
 H88 H 0.25206 0.43843 0.37449
 C89 C 0.92617 0.24070 -0.07842
 C90 C 0.89249 0.24371 -0.05132
 C91 C 0.89620 0.23622 -0.00887
 C92 C 0.93536 0.22578 0.00716
 C93 C 0.97021 0.22555 -0.01877
 C94 C 0.96517 0.22948 -0.06171
 C95 C 0.99840 0.21767 -0.08631
 C96 C 1.03748 0.21207 -0.07000
 C97 C 1.04479 0.21612 -0.02792
 C98 C 1.01015 0.21895 -0.00179
 C99 C 0.94054 0.21219 0.04767
 C100 C 0.97944 0.20574 0.06405
 C101 C 1.01495 0.21334 0.04103
 C102 C 1.05506 0.21166 0.05837
 C103 C 1.08883 0.21092 0.03172
 C104 C 1.08489 0.21306 -0.01091
 H105 H 0.99449 0.21044 -0.11816
 H106 H 1.06116 0.20238 -0.09081
 H107 H 0.91489 0.20438 0.06696
 H108 H 0.98105 0.19256 0.09426
 H109 H 0.86289 0.25313 -0.06341
 H110 H 1.11943 0.21160 0.04479
 C111 C 0.40915 0.73573 0.51476
 C112 C 0.40450 0.73049 0.55708
 C113 C 0.43819 0.72858 0.58391
 C114 C 0.47862 0.73276 0.56801
 C115 C 0.48397 0.74015 0.52556
 C116 C 0.44910 0.74395 0.49931
 C117 C 0.45564 0.75603 0.45857
 C118 C 0.49491 0.75902 0.44263
 C119 C 0.52948 0.74982 0.46650
 C120 C 0.52437 0.74324 0.50903
 C121 C 0.51381 0.73075 0.59314
 C122 C 0.55334 0.73289 0.57679
 C123 C 0.55949 0.73908 0.53476
 C124 C 0.59948 0.74063 0.51733
 C125 C 0.60336 0.74525 0.47503
 C126 C 0.56917 0.74856 0.44927
 H127 H 0.43121 0.76495 0.43829
 H128 H 0.49778 0.76945 0.41142
 H129 H 0.51141 0.72754 0.62583
 H130 H 0.57884 0.72926 0.59773
 H131 H 0.37390 0.72635 0.56953
 H132 H 0.63386 0.74559 0.46167
 C133 C 0.07415 0.76703 0.08089
 C134 C 0.04801 0.76487 0.11493
 C135 C 0.00434 0.76546 0.11167
 C136 C -0.01313 0.76344 0.07152
 C137 C 0.01288 0.76861 0.03694
 C138 C 0.05616 0.77271 0.04198
 C139 C 0.08003 0.78341 0.00796
 C140 C 0.06363 0.78190 -0.03113
 C141 C 0.02216 0.77115 -0.03763
 C142 C -0.00428 0.76903 -0.00316
 C143 C -0.05536 0.75562 0.06418
 C144 C -0.07221 0.75773 0.02522
 C145 C -0.04761 0.76626 -0.00874
 C146 C -0.06435 0.76824 -0.04868
 C147 C -0.03726 0.76454 -0.08167
 C148 C 0.00573 0.76310 -0.07707
 H149 H 0.11161 0.79354 0.01115
 H150 H 0.08369 0.79107 -0.05566
 H151 H -0.07624 0.74543 0.08743
 H152 H -0.10442 0.74989 0.02185
 H153 H 0.06257 0.76159 0.14442
 H154 H -0.05018 0.76482 -0.11201
 C155 C 0.55676 0.25463 0.42598
 C156 C 0.53089 0.26245 0.39258
 C157 C 0.48840 0.26853 0.39720
 C158 C 0.47141 0.26855 0.43691
 C159 C 0.49672 0.25812 0.47073
 C160 C 0.53909 0.24933 0.46488
 C161 C 0.56219 0.23412 0.49778
 C162 C 0.54577 0.23292 0.53669
 C163 C 0.50577 0.24735 0.54426
 C164 C 0.47989 0.25710 0.51065
 C165 C 0.43050 0.28047 0.44405
 C166 C 0.41424 0.28019 0.48331
 C167 C 0.43768 0.26665 0.51691
 C168 C 0.42111 0.26407 0.55690
 C169 C 0.44853 0.25889 0.58989
 C170 C 0.49088 0.25192 0.58437
 H171 H 0.59296 0.22229 0.49370
 H172 H 0.56468 0.21968 0.56047
 H173 H 0.41102 0.29167 0.41962
 H174 H 0.38369 0.29252 0.48702
 H175 H 0.54422 0.26414 0.36237
 H176 H 0.43648 0.26065 0.62051
 C177 C 0.91840 0.00119 0.23818
 C178 C 0.91589 0.04404 0.23738
 C179 C 0.94957 0.06925 0.22815
 C180 C 0.98879 0.05112 0.22339
 C181 C 0.99292 0.00806 0.22759
 C182 C 0.95733 -0.01709 0.23105
 C183 C 0.96201 -0.05939 0.22510
 C184 C 1.00081 -0.07702 0.22343
 C185 C 1.03653 -0.05336 0.22868
 C186 C 1.03272 -0.01011 0.22695
 C187 C 1.02363 0.07397 0.21240
 C188 C 1.06254 0.05642 0.21259
 C189 C 1.06831 0.01499 0.22328
 C190 C 1.10808 -0.00284 0.22695
 C191 C 1.11071 -0.04575 0.23217
 C192 C 1.07594 -0.07140 0.23308
 H193 H 0.93626 -0.07952 0.21982
 H194 H 1.00226 -0.10927 0.21674
 H195 H 1.02141 0.10537 0.20250
 H196 H 1.08742 0.07579 0.20246
 H197 H 0.88701 0.05873 0.24413
 H198 H 1.14042 -0.05976 0.23744
 C199 C 0.40265 0.50742 0.75721
 C200 C 0.40044 0.46444 0.76105
 C201 C 0.43502 0.43935 0.75809
 C202 C 0.47410 0.45752 0.75617
 C203 C 0.47792 0.50025 0.74988
 C204 C 0.44224 0.52558 0.75007
 C205 C 0.44789 0.56780 0.74295
 C206 C 0.48691 0.58456 0.73664
 C207 C 0.52215 0.55984 0.73527
 C208 C 0.51770 0.51729 0.74266
 C209 C 0.50953 0.43414 0.76241
 C210 C 0.54813 0.45093 0.75669
 C211 C 0.55292 0.49145 0.74292
 C212 C 0.59154 0.50707 0.72996
 C213 C 0.59559 0.54966 0.72483
 C214 C 0.56191 0.57629 0.72774
 H215 H 0.42281 0.58905 0.74141
 H216 H 0.48881 0.61729 0.73266
 H217 H 0.50777 0.40273 0.77284
 H218 H 0.57357 0.43166 0.76502
 H219 H 0.37125 0.44944 0.76577
 H220 H 0.62542 0.56269 0.71774
 C221 C 1.06481 0.94447 0.78100
 C222 C 1.03682 0.91156 0.78116
 C223 C 0.99421 0.91691 0.78218
 C224 C 0.97800 0.95678 0.78127
 C225 C 1.00509 0.99084 0.77894
 C226 C 1.04846 0.98490 0.78199
 C227 C 1.07292 1.01927 0.79036
 C228 C 1.05684 1.05855 0.78825
 C229 C 1.01522 1.06560 0.77779
 C230 C 0.98852 1.03110 0.77599
 C231 C 0.93572 0.96379 0.78618
 C232 C 0.91984 1.00291 0.78343
 C233 C 0.94509 1.03652 0.77377
 C234 C 0.92843 1.07587 0.76599
 C235 C 0.95552 1.10962 0.76732
 C236 C 0.99857 1.10572 0.77351
 H237 H 1.10405 1.01640 0.80158
 H238 H 1.07751 1.08267 0.79728
 H239 H 0.91440 0.93948 0.79363
 H240 H 0.88776 1.00652 0.79101
 H241 H 1.04816 0.88046 0.77976
 H242 H 0.94289 1.13960 0.76107
 C243 C 0.51127 0.40312 0.24390
 C244 C 0.46814 0.39913 0.24551
 C245 C 0.44223 0.43137 0.25612
 C246 C 0.45987 0.46898 0.26732
 C247 C 0.50294 0.47536 0.26289
 C248 C 0.52907 0.44227 0.25224
 C249 C 0.57185 0.44972 0.25108
 C250 C 0.58825 0.48824 0.25941
 C251 C 0.56278 0.52228 0.26567
 C252 C 0.51970 0.51513 0.26942
 C253 C 0.43599 0.49974 0.28484
 C254 C 0.45223 0.53820 0.29133
 C255 C 0.49311 0.54742 0.28065
 C256 C 0.50839 0.58763 0.28306
 C257 C 0.55078 0.59471 0.27789
 C258 C 0.57865 0.56290 0.26972
 H259 H 0.59386 0.42644 0.24382
 H260 H 0.62130 0.49032 0.26153
 H261 H 0.40469 0.49430 0.29461
 H262 H 0.43229 0.56016 0.30568
 H263 H 0.45390 0.37008 0.23873
 H264 H 0.56220 0.62584 0.27964
 O265 O 0.27253 0.15048 0.15007
 O266 O 0.33652 0.14536 0.18954
 O267 O 0.18172 0.14086 0.24564
 O268 O 0.17035 0.17392 0.30531
 O269 O 0.17251 0.23150 0.15317
 O270 O 0.19985 0.29770 0.14579
 O271 O 0.27866 0.26419 0.35058
 O272 O 0.26035 0.19148 0.35409
 O273 O 0.37446 0.26379 0.25832
 O274 O 0.37914 0.23804 0.19104
 O275 O 0.28049 0.35048 0.25457
 O276 O 0.20663 0.34776 0.23012
 O277 O 0.25217 0.32001 0.31826
 O278 O 0.18466 0.32394 0.28322
 O279 O 0.33944 0.32178 0.23091
 O280 O 0.34110 0.28591 0.16021
 O281 O 0.34772 0.24048 0.31824
 O282 O 0.32374 0.17589 0.33163
 O283 O 0.24275 0.20661 0.12123
 O284 O 0.26139 0.27813 0.11981
 O285 O 0.14426 0.20723 0.21219
 O286 O 0.14268 0.23018 0.28205
 O287 O 0.24062 0.11624 0.21769
 O288 O 0.31051 0.11653 0.23920
 Zr289 Zr 0.27978 0.16694 0.21233
 O290 O 0.31684 0.20538 0.24859
 Zr291 Zr 0.19455 0.20401 0.25336
 O292 O 0.22816 0.24496 0.29090
 Zr293 Zr 0.23298 0.24699 0.16940
 O294 O 0.26853 0.28893 0.20291
 Zr295 Zr 0.28706 0.22118 0.30312
 O296 O 0.25182 0.17764 0.26940
 Zr297 Zr 0.32477 0.26124 0.21793
 O298 O 0.29146 0.22126 0.18002
 Zr299 Zr 0.23982 0.29993 0.25890
 O300 O 0.20190 0.26086 0.22364
 O301 O 0.22241 0.19094 0.19798
 O302 O 0.29741 0.27625 0.27328
 C303 C 0.25906 0.17107 0.11916
 C304 C 0.20400 0.11164 0.23155
 C305 C 0.14216 0.21806 0.17444
 C306 C 0.26594 0.30150 0.34999
 C307 C 0.37699 0.25610 0.29662
 C308 C 0.31876 0.35186 0.24464
 H309 H 0.34345 0.19186 0.25449
 H310 H 0.27280 0.31426 0.18683
 H311 H 0.20605 0.17206 0.18075
 H312 H 0.21275 0.24959 0.31640
 H313 H 0.25002 0.16461 0.34454
 H314 H 0.18391 0.18607 0.32947
 H315 H 0.36319 0.30652 0.16433
 H316 H 0.24499 0.27347 0.09459
 H317 H 0.32400 0.15232 0.31297
 H318 H 0.29701 0.11105 0.26572
 H319 H 0.22192 0.35598 0.20534
 H320 H 0.17997 0.30615 0.16694
 H321 H 0.34522 0.16484 0.16800
 H322 H 0.38573 0.21174 0.20453
 H323 H 0.13848 0.25734 0.26925
 H324 H 0.17721 0.30729 0.30738
 O325 O 0.76102 0.84953 0.17651
 O326 O 0.69142 0.85153 0.21263
 O327 O 0.84678 0.85619 0.27123
 O328 O 0.85769 0.82224 0.33179
 O329 O 0.85626 0.76094 0.18222
 O330 O 0.81743 0.69613 0.17341
 O331 O 0.74776 0.74032 0.37805
 O332 O 0.77116 0.80764 0.38079
 O333 O 0.64994 0.74326 0.28931
 O334 O 0.64872 0.77287 0.21737
 O335 O 0.73823 0.65077 0.28051
 O336 O 0.81382 0.65094 0.25865
 O337 O 0.77003 0.68180 0.34812
 O338 O 0.83316 0.66947 0.31365
 O339 O 0.67950 0.68224 0.25934
 O340 O 0.67577 0.71444 0.19213
 O341 O 0.68090 0.76901 0.34622
 O342 O 0.71014 0.83242 0.35449
 O343 O 0.78536 0.79188 0.14661
 O344 O 0.76869 0.72356 0.14308
 O345 O 0.88273 0.78909 0.24001
 O346 O 0.88488 0.76540 0.30693
 O347 O 0.78611 0.88280 0.24874
 O348 O 0.72022 0.88770 0.25471
 Zr349 Zr 0.74876 0.83255 0.23723
 O350 O 0.71048 0.79773 0.27537
 Zr351 Zr 0.83271 0.79323 0.27959
 O352 O 0.79794 0.75393 0.31735
 Zr353 Zr 0.79272 0.75119 0.19624
 O354 O 0.75362 0.71224 0.23072
 Zr355 Zr 0.74139 0.78180 0.32938
 O356 O 0.77725 0.82270 0.29443
 Zr357 Zr 0.69839 0.74197 0.24635
 O358 O 0.73462 0.77836 0.20639
 Zr359 Zr 0.78178 0.69926 0.28705
 O360 O 0.82243 0.73603 0.25139
 O361 O 0.80572 0.80700 0.22357
 O362 O 0.72614 0.72645 0.30186
 C363 C 0.77318 0.82922 0.14543
 C364 C 0.82361 0.88632 0.26032
 C365 C 0.88652 0.77491 0.20389
 C366 C 0.75893 0.70271 0.37931
 C367 C 0.64978 0.75450 0.32691
 C368 C 0.69977 0.65060 0.27031
 H369 H 0.68511 0.81322 0.28138
 H370 H 0.74780 0.68725 0.21479
 H371 H 0.82345 0.82511 0.20680
 H372 H 0.81363 0.74852 0.34270
 H373 H 0.78537 0.83274 0.37125
 H374 H 0.84836 0.80687 0.35615
 H375 H 0.64806 0.70269 0.19751
 H376 H 0.73840 0.72650 0.14475
 H377 H 0.72384 0.85722 0.34362
 H378 H 0.70914 0.88306 0.28240
 H379 H 0.79743 0.64227 0.23466
 H380 H 0.83977 0.68784 0.19235
 H381 H 0.68717 0.83643 0.18683
 H382 H 0.63771 0.79351 0.23635
 H383 H 0.88602 0.73710 0.29644
 H384 H 0.84666 0.68917 0.33223
 O385 O 0.72838 0.18205 0.81174
 O386 O 0.67038 0.16795 0.77616
 O387 O 0.82482 0.18362 0.72403
 O388 O 0.83682 0.21659 0.66291
 O389 O 0.81915 0.27529 0.81427
 O390 O 0.78485 0.33660 0.81971
 O391 O 0.70897 0.28588 0.61111
 O392 O 0.73137 0.22243 0.60546
 O393 O 0.61970 0.28627 0.70328
 O394 O 0.61385 0.27553 0.76815
 O395 O 0.71490 0.38074 0.69725
 O396 O 0.78117 0.38648 0.71546
 O397 O 0.74023 0.34362 0.63405
 O398 O 0.81161 0.35031 0.67379
 O399 O 0.65698 0.35603 0.72746
 O400 O 0.65087 0.31555 0.79887
 O401 O 0.64555 0.25353 0.64798
 O402 O 0.69121 0.18798 0.64128
 O403 O 0.75825 0.23801 0.84065
 O404 O 0.72336 0.30896 0.84010
 O405 O 0.85225 0.24993 0.75865
 O406 O 0.85412 0.27498 0.68359
 O407 O 0.76727 0.15196 0.74852
 O408 O 0.69341 0.14959 0.72001
 Zr409 Zr 0.72165 0.19892 0.75107
 O410 O 0.68076 0.23463 0.71641
 Zr411 Zr 0.80539 0.24308 0.71245
 O412 O 0.76793 0.27498 0.67015
 Zr413 Zr 0.75954 0.28317 0.79320
 O414 O 0.72593 0.32271 0.75455
 Zr415 Zr 0.70986 0.24676 0.66099
 O416 O 0.75132 0.21004 0.69552
 Zr417 Zr 0.67038 0.29326 0.74159
 O418 O 0.70365 0.25345 0.78113
 Zr419 Zr 0.75384 0.33087 0.69677
 O420 O 0.79206 0.29931 0.73922
 O421 O 0.77593 0.22851 0.76628
 O422 O 0.69651 0.30433 0.68462
 C423 C 0.74576 0.20036 0.84146
 C424 C 0.80567 0.15244 0.73811
 C425 C 0.85108 0.26163 0.79643
 C426 C 0.72223 0.32231 0.60601
 C427 C 0.61551 0.26836 0.66896
 C428 C 0.67844 0.38507 0.71080
 H429 H 0.65495 0.21872 0.71345
 H430 H 0.72183 0.34904 0.76867
 H431 H 0.79368 0.21159 0.78410
 H432 H 0.78277 0.27841 0.64405
 H433 H 0.76140 0.21866 0.60895
 H434 H 0.81644 0.19902 0.64877
 H435 H 0.65847 0.34484 0.80038
 H436 H 0.73699 0.30293 0.86658
 H437 H 0.66375 0.18223 0.65306
 H438 H 0.71311 0.14010 0.69913
 H439 H 0.77904 0.38717 0.74553
 H440 H 0.80357 0.34869 0.79913
 H441 H 0.65347 0.18914 0.78945
 H442 H 0.61543 0.24555 0.77204
 H443 H 0.86243 0.29746 0.70203
 H444 H 0.81391 0.34072 0.64531
 O445 O 0.24671 0.81850 0.86189
 O446 O 0.31583 0.82290 0.82229
 O447 O 0.15873 0.82461 0.76787
 O448 O 0.14684 0.79506 0.70726
 O449 O 0.15309 0.72918 0.85614
 O450 O 0.18791 0.66550 0.86197
 O451 O 0.26207 0.71040 0.65805
 O452 O 0.23393 0.77867 0.65457
 O453 O 0.35474 0.71028 0.74323
 O454 O 0.36251 0.74044 0.80697
 O455 O 0.26369 0.62248 0.75150
 O456 O 0.19124 0.62046 0.77420
 O457 O 0.23321 0.65418 0.68765
 O458 O 0.16714 0.64555 0.72374
 O459 O 0.32313 0.64948 0.77691
 O460 O 0.32807 0.68512 0.84372
 O461 O 0.32558 0.74284 0.68873
 O462 O 0.29515 0.80541 0.68128
 O463 O 0.21939 0.76023 0.88865
 O464 O 0.24828 0.69162 0.88808
 O465 O 0.12520 0.75575 0.79784
 O466 O 0.12221 0.73609 0.72837
 O467 O 0.21838 0.85394 0.79020
 O468 O 0.28524 0.85890 0.77997
 Zr469 Zr 0.25785 0.80349 0.79945
 O470 O 0.29544 0.76816 0.76057
 Zr471 Zr 0.17393 0.76349 0.75708
 O472 O 0.20762 0.72614 0.71750
 Zr473 Zr 0.21532 0.72004 0.83957
 O474 O 0.25195 0.68162 0.80350
 Zr475 Zr 0.26472 0.75363 0.70594
 O476 O 0.22919 0.79379 0.74202
 Zr477 Zr 0.30753 0.71109 0.78779
 O478 O 0.27308 0.74811 0.82881
 Zr479 Zr 0.22204 0.67120 0.74783
 O480 O 0.18364 0.70651 0.78523
 O481 O 0.20169 0.77624 0.81284
 O482 O 0.27842 0.69753 0.73281
 C483 C 0.23237 0.79708 0.89191
 C484 C 0.18037 0.85551 0.77906
 C485 C 0.12253 0.74193 0.83439
 C486 C 0.24912 0.67310 0.65728
 C487 C 0.35563 0.72452 0.70642
 C488 C 0.30132 0.61960 0.76334
 H489 H 0.32139 0.78310 0.75491
 H490 H 0.25719 0.65604 0.81889
 H491 H 0.18400 0.79361 0.83009
 H492 H 0.19204 0.72156 0.69193
 H493 H 0.22019 0.80394 0.66383
 H494 H 0.15718 0.78246 0.68194
 H495 H 0.35565 0.67308 0.83905
 H496 H 0.23178 0.69345 0.91344
 H497 H 0.28044 0.82970 0.69156
 H498 H 0.29742 0.85347 0.75296
 H499 H 0.20624 0.61281 0.79944
 H500 H 0.16705 0.65680 0.84163
 H501 H 0.31920 0.81071 0.84981
 H502 H 0.35632 0.75390 0.83317
 H503 H 0.11952 0.70817 0.73987
 H504 H 0.15876 0.66208 0.69976
 O505 O 0.26705 0.36817 0.73631
 O506 O 0.23392 0.36782 0.80737
 O507 O 0.35526 0.27928 0.73905
 O508 O 0.35916 0.21115 0.75909
 O509 O 0.26287 0.27735 0.64434
 O510 O 0.19178 0.25413 0.64449
 O511 O 0.24268 0.16562 0.84004
 O512 O 0.31039 0.19372 0.84404
 O513 O 0.15880 0.25381 0.84984
 O514 O 0.15483 0.32765 0.81550
 O515 O 0.14628 0.17611 0.75507
 O516 O 0.18397 0.16769 0.68738
 O517 O 0.21266 0.13874 0.78327
 O518 O 0.23080 0.13629 0.71268
 O519 O 0.12185 0.23445 0.78347
 O520 O 0.11932 0.30113 0.76835
 O521 O 0.21852 0.22701 0.87454
 O522 O 0.28458 0.25086 0.87783
 O523 O 0.23628 0.34383 0.67875
 O524 O 0.16757 0.31231 0.67412
 O525 O 0.32078 0.24995 0.67300
 O526 O 0.32683 0.18436 0.70412
 O527 O 0.32828 0.33174 0.77566
 O528 O 0.29211 0.35058 0.82848
 Zr529 Zr 0.26558 0.31954 0.77839
 O530 O 0.22996 0.28340 0.81773
 Zr531 Zr 0.30523 0.23753 0.73373
 O532 O 0.26869 0.19753 0.76903
 Zr533 Zr 0.22194 0.28248 0.69443
 O534 O 0.18205 0.24615 0.73058
 Zr535 Zr 0.25717 0.22585 0.82476
 O536 O 0.29659 0.26428 0.79129
 Zr537 Zr 0.17354 0.27186 0.78885
 O538 O 0.20803 0.31150 0.75018
 Zr539 Zr 0.20963 0.18925 0.74275
 O540 O 0.24872 0.22461 0.70405
 O541 O 0.27843 0.29365 0.72217
 O542 O 0.19900 0.21452 0.79977
 C543 C 0.25521 0.37183 0.69902
 C544 C 0.35779 0.31433 0.75686
 C545 C 0.30041 0.26457 0.64269
 C546 C 0.22605 0.13622 0.82019
 C547 C 0.18079 0.23712 0.87833
 C548 C 0.11704 0.19803 0.77015
 H549 H 0.22662 0.29726 0.84425
 H550 H 0.15546 0.24337 0.71596
 H551 H 0.29730 0.31052 0.70546
 H552 H 0.28312 0.17122 0.77301
 H553 H 0.33446 0.21075 0.83643
 H554 H 0.35104 0.18600 0.77395
 H555 H 0.12508 0.31031 0.74014
 H556 H 0.17305 0.32497 0.64709
 H557 H 0.30803 0.26792 0.86862
 H558 H 0.28947 0.33218 0.85235
 H559 H 0.15925 0.18429 0.68123
 H560 H 0.20577 0.22773 0.63980
 H561 H 0.21279 0.37791 0.78792
 H562 H 0.16405 0.32765 0.84432
 H563 H 0.30490 0.17574 0.68488
 H564 H 0.25986 0.13224 0.72091
 O565 O 0.73734 0.64669 0.72054
 O566 O 0.76039 0.64710 0.79406
 O567 O 0.64542 0.73690 0.71745
 O568 O 0.64104 0.80440 0.73981
 O569 O 0.74094 0.73744 0.62952
 O570 O 0.81103 0.76495 0.63121
 O571 O 0.75548 0.85458 0.82158
 O572 O 0.68713 0.82027 0.82635
 O573 O 0.83820 0.75502 0.83591
 O574 O 0.84536 0.68691 0.79987
 O575 O 0.85296 0.84055 0.74507
 O576 O 0.81970 0.84591 0.67217
 O577 O 0.78789 0.87739 0.76447
 O578 O 0.77220 0.87948 0.69513
 O579 O 0.87574 0.78232 0.77579
 O580 O 0.88039 0.71676 0.75291
 O581 O 0.78311 0.79016 0.86006
 O582 O 0.71609 0.77104 0.86444
 O583 O 0.76818 0.67462 0.66453
 O584 O 0.83537 0.70618 0.66022
 O585 O 0.68253 0.76738 0.65350
 O586 O 0.67456 0.83309 0.68658
 O587 O 0.67182 0.68152 0.75076
 O588 O 0.70426 0.67081 0.81376
 Zr589 Zr 0.73330 0.69652 0.76196
 O590 O 0.76828 0.73285 0.80201
 Zr591 Zr 0.69564 0.77905 0.71569
 O592 O 0.73188 0.81891 0.75207
 Zr593 Zr 0.78054 0.73499 0.68010
 O594 O 0.81986 0.77026 0.71666
 Zr595 Zr 0.74280 0.79170 0.80925
 O596 O 0.70349 0.75271 0.77421
 Zr597 Zr 0.82540 0.74324 0.77453
 O598 O 0.79175 0.70421 0.73574
 Zr599 Zr 0.79137 0.82647 0.72708
 O600 O 0.75274 0.79222 0.68762
 O601 O 0.72311 0.72323 0.70543
 O602 O 0.80100 0.80128 0.78471
 C603 C 0.75102 0.64502 0.68367
 C604 C 0.64265 0.70025 0.73220
 C605 C 0.70384 0.75043 0.62521
 C606 C 0.77330 0.88278 0.80017
 C607 C 0.81896 0.77396 0.86414
 C608 C 0.88054 0.81935 0.76408
 H609 H 0.77092 0.71848 0.82851
 H610 H 0.84707 0.77318 0.70345
 H611 H 0.70563 0.70584 0.68784
 H612 H 0.71747 0.84534 0.75486
 H613 H 0.66448 0.80103 0.81955
 H614 H 0.64903 0.82840 0.75634
 H615 H 0.87289 0.70216 0.72757
 H616 H 0.83047 0.69456 0.63268
 H617 H 0.71264 0.74116 0.86193
 H618 H 0.68442 0.69143 0.82362
 H619 H 0.84758 0.83382 0.67112
 H620 H 0.79481 0.78958 0.62406
 H621 H 0.78502 0.63878 0.77848
 H622 H 0.82932 0.68167 0.82497
 H623 H 0.69589 0.84106 0.66652
 H624 H 0.74253 0.88305 0.70085
 O625 O 0.28036 0.61801 0.29444
 O626 O 0.27706 0.61238 0.22978
 O627 O 0.38110 0.71206 0.30252
 O628 O 0.38755 0.77772 0.28405
 O629 O 0.28234 0.70975 0.38857
 O630 O 0.21968 0.73555 0.39009
 O631 O 0.28007 0.81565 0.18430
 O632 O 0.33856 0.77878 0.17498
 O633 O 0.18101 0.73293 0.18637
 O634 O 0.17413 0.66887 0.21427
 O635 O 0.18458 0.82246 0.26730
 O636 O 0.21403 0.83580 0.33081
 O637 O 0.25017 0.84835 0.23754
 O638 O 0.27394 0.85096 0.31468
 O639 O 0.15190 0.76475 0.24577
 O640 O 0.14968 0.69311 0.27801
 O641 O 0.24012 0.75621 0.15696
 O642 O 0.31517 0.72214 0.15866
 O643 O 0.24862 0.64533 0.34970
 O644 O 0.18485 0.68940 0.35309
 O645 O 0.34038 0.74199 0.36632
 O646 O 0.35113 0.80813 0.32556
 O647 O 0.35663 0.65452 0.27215
 O648 O 0.31935 0.64879 0.20178
 Zr649 Zr 0.29351 0.66827 0.25756
 O650 O 0.25486 0.70155 0.21742
 Zr651 Zr 0.33109 0.75115 0.30231
 O652 O 0.30046 0.78820 0.25892
 Zr653 Zr 0.24501 0.70923 0.33696
 O654 O 0.21005 0.74963 0.30042
 Zr655 Zr 0.28553 0.75613 0.20479
 O656 O 0.32486 0.72267 0.24454
 Zr657 Zr 0.19927 0.71979 0.24535
 O658 O 0.23385 0.67896 0.28188
 Zr659 Zr 0.24332 0.80285 0.28386
 O660 O 0.27452 0.76653 0.32793
 O661 O 0.30300 0.69504 0.31412
 O662 O 0.22961 0.77362 0.22954
 C663 C 0.26144 0.61485 0.32842
 C664 C 0.38575 0.67591 0.28891
 C665 C 0.31815 0.72513 0.39445
 C666 C 0.26445 0.84710 0.20084
 C667 C 0.20116 0.74743 0.15629
 C668 C 0.15299 0.80334 0.25377
 H669 H 0.24921 0.68568 0.19239
 H670 H 0.18395 0.75632 0.31435
 H671 H 0.31876 0.67677 0.33260
 H672 H 0.31740 0.81274 0.25314
 H673 H 0.35604 0.79127 0.19635
 H674 H 0.39011 0.77217 0.25452
 H675 H 0.12410 0.69799 0.26207
 H676 H 0.18679 0.67090 0.37711
 H677 H 0.29374 0.70736 0.14296
 H678 H 0.34649 0.66245 0.19907
 H679 H 0.19868 0.81563 0.34744
 H680 H 0.22638 0.76507 0.38889
 H681 H 0.24793 0.61535 0.22118
 H682 H 0.18372 0.64435 0.22933
 H683 H 0.33393 0.81419 0.34965
 H684 H 0.29462 0.86274 0.29584
 O685 O 0.71995 0.36177 0.25989
 O686 O 0.74748 0.36341 0.18605
 O687 O 0.62726 0.26722 0.24598
 O688 O 0.62358 0.20179 0.23243
 O689 O 0.71841 0.26694 0.34674
 O690 O 0.78868 0.24150 0.34795
 O691 O 0.74446 0.15990 0.14936
 O692 O 0.67560 0.18948 0.14372
 O693 O 0.82663 0.25698 0.14178
 O694 O 0.83219 0.31884 0.17311
 O695 O 0.83364 0.16785 0.23590
 O696 O 0.79728 0.15843 0.30304
 O697 O 0.77262 0.13406 0.20764
 O698 O 0.74857 0.12944 0.27748
 O699 O 0.86156 0.22492 0.20695
 O700 O 0.86053 0.29426 0.23692
 O701 O 0.76852 0.22740 0.11599
 O702 O 0.70256 0.24643 0.11139
 O703 O 0.74997 0.33258 0.31560
 O704 O 0.81651 0.29965 0.31919
 O705 O 0.66212 0.23815 0.31619
 O706 O 0.65754 0.17291 0.28136
 O707 O 0.65490 0.32726 0.22341
 O708 O 0.68866 0.34393 0.16632
 Zr709 Zr 0.71772 0.31391 0.21586
 O710 O 0.75455 0.27878 0.17647
 Zr711 Zr 0.67824 0.22879 0.25548
 O712 O 0.71473 0.19051 0.21946
 Zr713 Zr 0.76094 0.27245 0.29796
 O714 O 0.80113 0.23773 0.26170
 Zr715 Zr 0.72856 0.22087 0.16504
 O716 O 0.68840 0.25822 0.19924
 Zr717 Zr 0.81137 0.26601 0.20457
 O718 O 0.77553 0.30431 0.24338
 Zr719 Zr 0.77218 0.18233 0.24816
 O720 O 0.73327 0.21551 0.28690
 O721 O 0.70437 0.28489 0.27041
 O722 O 0.78551 0.20912 0.19183
 C723 C 0.73369 0.36293 0.29690
 C724 C 0.62439 0.30457 0.23403
 C725 C 0.68125 0.25269 0.34718
 C726 C 0.76187 0.13118 0.17030
 C727 C 0.80485 0.24229 0.11201
 C728 C 0.86372 0.18795 0.22034
 H729 H 0.75844 0.29437 0.15082
 H730 H 0.82741 0.23381 0.27659
 H731 H 0.68570 0.30159 0.28729
 H732 H 0.70040 0.16430 0.21432
 H733 H 0.65149 0.20623 0.15136
 H734 H 0.63166 0.18138 0.21183
 H735 H 0.88536 0.29358 0.21939
 H736 H 0.81192 0.31076 0.34693
 H737 H 0.67949 0.26395 0.12019
 H738 H 0.69375 0.32702 0.14197
 H739 H 0.82229 0.17442 0.30986
 H740 H 0.77340 0.21556 0.35202
 H741 H 0.76709 0.37562 0.20576
 H742 H 0.82639 0.34245 0.19089
 H743 H 0.67755 0.16519 0.30293
 H744 H 0.72228 0.12215 0.26393
 C745 C 0.26323 0.11490 0.02748
 C746 C 0.27019 0.15386 0.01190
 C747 C 0.26983 0.17930 0.04438
 C748 C 0.26330 0.15455 0.07778
 O749 O 0.25931 0.11556 0.06789
 H750 H 0.27571 0.16321 -0.01928
 H751 H 0.27402 0.21215 0.04385
 C752 C 0.73993 0.57689 0.60346
 C753 C 0.75132 0.54837 0.63293
 C754 C 0.75319 0.56924 0.66902
 C755 C 0.74418 0.60897 0.65858
 O756 O 0.73644 0.61360 0.61928
 H757 H 0.76001 0.51680 0.62852
 H758 H 0.76343 0.55772 0.69835
 C759 C 0.77167 0.90161 0.06600
 C760 C 0.76188 0.86740 0.04283
 C761 C 0.76399 0.83472 0.06900
 C762 C 0.77336 0.85125 0.10638
 O763 O 0.77762 0.89129 0.10472
 H764 H 0.75088 0.86595 0.01171
 H765 H 0.75648 0.80318 0.06230
 C766 C 0.27506 0.45575 0.63462
 C767 C 0.30661 0.46195 0.66212
 C768 C 0.30280 0.43108 0.68970
 C769 C 0.26867 0.40902 0.67766
 O770 O 0.25208 0.42335 0.64359
 H771 H 0.33010 0.48553 0.66143
 H772 H 0.32332 0.42421 0.71485
 C773 C 0.76555 0.11783 0.90642
 C774 C 0.79305 0.14516 0.92377
 C775 C 0.78678 0.18141 0.90382
 C776 C 0.75594 0.17365 0.87604
 O777 O 0.74361 0.13495 0.87700
 H778 H 0.81642 0.13876 0.94657
 H779 H 0.80501 0.20902 0.90622
 C780 C 0.24376 0.52008 0.37709
 C781 C 0.23294 0.50904 0.33781
 C782 C 0.23855 0.54324 0.31474
 C783 C 0.25186 0.57289 0.34148
 O784 O 0.25541 0.55902 0.37919
 H785 H 0.22221 0.47967 0.32699
 H786 H 0.23316 0.54643 0.28227
 C787 C 0.22965 0.85532 0.98310
 C788 C 0.21828 0.81758 0.99887
 C789 C 0.21778 0.79162 0.96677
 C790 C 0.22932 0.81469 0.93334
 O791 O 0.23655 0.85338 0.94304
 H792 H 0.20990 0.80968 1.02980
 H793 H 0.20974 0.75947 0.96765
 C794 C 0.72800 0.43572 0.37501
 C795 C 0.70874 0.45897 0.34514
 C796 C 0.70974 0.43582 0.31036
 C797 C 0.72913 0.40006 0.32173
 O798 O 0.73989 0.39998 0.36070
 H799 H 0.69354 0.48812 0.34877
 H800 H 0.69613 0.44321 0.28104
 C801 C 0.06462 0.21316 0.10072
 C802 C 0.04024 0.22664 0.13276
 C803 C 0.06523 0.22655 0.16657
 C804 C 0.10307 0.21429 0.15260
 O805 O 0.10270 0.20632 0.11339
 H806 H 0.00957 0.23938 0.13175
 H807 H 0.05786 0.23794 0.19659
 C808 C 0.63830 0.73573 0.54103
 C809 C 0.67214 0.71461 0.52679
 C810 C 0.70162 0.71895 0.55590
 C811 C 0.68380 0.74223 0.58591
 O812 O 0.64539 0.75261 0.57704
 H813 H 0.67489 0.69767 0.49865
 H814 H 0.73214 0.70581 0.55590
 C815 C 0.03005 0.75214 0.88861
 C816 C 0.01424 0.73903 0.85131
 C817 C 0.04711 0.73253 0.82706
 C818 C 0.08087 0.74076 0.85099
 O819 O 0.07096 0.75199 0.88832
 H820 H -0.01727 0.73357 0.84213
 H821 H 0.04661 0.72304 0.79546
 C822 C 0.60188 0.25450 0.41840
 C823 C 0.63197 0.27101 0.44348
 C824 C 0.66755 0.27083 0.42113
 C825 C 0.65620 0.25468 0.38406
 O826 O 0.61674 0.24493 0.38243
 H827 H 0.62789 0.28386 0.47349
 H828 H 0.69737 0.28291 0.42991
 C829 C 0.98022 0.76942 0.14804
 C830 C 0.99625 0.77715 0.18668
 C831 C 0.96336 0.78060 0.21190
 C832 C 0.92912 0.77470 0.18768
 O833 O 0.93915 0.76838 0.14915
 H834 H 1.02792 0.78118 0.19614
 H835 H 0.96429 0.78665 0.24433
 C836 C 0.37611 0.26602 0.56696
 C837 C 0.34325 0.25408 0.54248
 C838 C 0.30897 0.25591 0.56664
 C839 C 0.32348 0.26731 0.60438
 O840 O 0.36378 0.27316 0.60465
 H841 H 0.34411 0.24212 0.51180
 H842 H 0.27801 0.24631 0.55876
 C843 C 0.91918 0.24948 0.87931
 C844 C 0.94793 0.26209 0.85036
 C845 C 0.92701 0.26581 0.81418
 C846 C 0.88683 0.25695 0.82365
 O847 O 0.88189 0.24787 0.86283
 H848 H 0.97991 0.27033 0.85491
 H849 H 0.93908 0.27628 0.78521
 C850 C 0.37263 0.72685 0.48796
 C851 C 0.34065 0.70126 0.49938
 C852 C 0.31568 0.69815 0.46621
 C853 C 0.33427 0.72155 0.43639
 O854 O 0.36863 0.73893 0.44943
 H855 H 0.33702 0.68491 0.52782
 H856 H 0.28797 0.67980 0.46363
 C857 C 0.14511 0.02054 0.22661
 C858 C 0.18314 0.00483 0.21660
 C859 C 0.21010 0.03654 0.21824
 C860 C 0.18696 0.06982 0.22947
 O861 O 0.14764 0.06028 0.23487
 H862 H 0.18988 -0.02560 0.20652
 H863 H 0.24254 0.03576 0.21072
 C864 C 0.57083 0.62075 0.72295
 C865 C 0.55242 0.64716 0.69538
 C866 C 0.57472 0.68281 0.69732
 C867 C 0.60554 0.67516 0.72539
 O868 O 0.60332 0.63762 0.74051
 H869 H 0.52769 0.64019 0.67437
 H870 H 0.57099 0.70971 0.67831
 C871 C 0.88628 0.08333 0.75571
 C872 C 0.85750 0.05565 0.74028
 C873 C 0.82184 0.07711 0.73441
 C874 C 0.83162 0.11651 0.74492
 O875 O 0.87034 0.12048 0.75714
 H876 H 0.86203 0.02424 0.73128
 H877 H 0.79332 0.06606 0.72120
 C878 C 0.48066 0.62272 0.29123
 C879 C 0.49134 0.65451 0.31637
 C880 C 0.45725 0.67834 0.31849
 C881 C 0.42779 0.65930 0.29449
 O882 O 0.44206 0.62562 0.27751
 H883 H 0.52019 0.65863 0.33236
 H884 H 0.45397 0.70602 0.33614
 C885 C 0.10722 0.93380 0.77927
 C886 C 0.14067 0.95751 0.76703
 C887 C 0.17415 0.93204 0.76820
 C888 C 0.15861 0.89459 0.77971
 O889 O 0.11869 0.89561 0.78614
 H890 H 0.14093 0.98829 0.75489
 H891 H 0.20525 0.93908 0.75859
 C892 C 0.53544 0.36543 0.23377
 C893 C 0.51920 0.33105 0.21473
 C894 C 0.55009 0.30308 0.21393
 C895 C 0.58321 0.32240 0.23155
 O896 O 0.57459 0.35983 0.24378
 H897 H 0.48868 0.32655 0.20215
 H898 H 0.54908 0.27283 0.20072
 C899 C 0.88004 0.97728 0.24758
 C900 C 0.84060 0.99346 0.24697
 C901 C 0.81487 0.96173 0.25446
 C902 C 0.83994 0.92818 0.25928
 O903 O 0.87938 0.93750 0.25585
 H904 H 0.83072 1.02423 0.24041
 H905 H 0.78151 0.96260 0.25434
 C906 C 0.42829 0.39445 0.75412
 C907 C 0.44940 0.36864 0.72814
 C908 C 0.42787 0.33258 0.72825
 C909 C 0.39508 0.33934 0.75383
 O910 O 0.39534 0.37656 0.76928
 H911 H 0.47544 0.37613 0.70897
 H912 H 0.43337 0.30612 0.70936
 C913 C 0.12140 0.21448 0.96554
 C914 C 0.15938 0.20036 0.97908
 C915 C 0.18602 0.20845 0.94860
 C916 C 0.16302 0.22686 0.91826
 O917 O 0.12381 0.23066 0.92829
 H918 H 0.16706 0.18445 1.00711
 H919 H 0.21840 0.20070 0.94803
 C920 C 0.57726 0.74802 0.40472
 C921 C 0.55445 0.72735 0.37560
 C922 C 0.57730 0.72898 0.34062
 C923 C 0.61256 0.74984 0.35141
 O924 O 0.61255 0.76123 0.38993
 H925 H 0.52589 0.71088 0.38009
 H926 H 0.57040 0.71455 0.31173
 C927 C 0.89346 0.77351 0.94143
 C928 C 0.86337 0.79351 0.96371
 C929 C 0.82957 0.79587 0.93833
 C930 C 0.84165 0.77719 0.90276
 O931 O 0.87978 0.76395 0.90477
 H932 H 0.86636 0.80771 0.99332
 H933 H 0.80059 0.81091 0.94438
 C934 C 0.46314 0.27431 0.35977
 C935 C 0.47683 0.29463 0.32532
 C936 C 0.44633 0.29000 0.29725
 C937 C 0.41611 0.26736 0.31647
 O938 O 0.42615 0.25770 0.35446
 H939 H 0.50573 0.31067 0.32103
 H940 H 0.44605 0.30168 0.26634
 C941 C 0.11969 0.76138 0.08770
 C942 C 0.14761 0.74436 0.06067
 C943 C 0.18413 0.74108 0.08149
 C944 C 0.17571 0.75503 0.12000
 O945 O 0.13689 0.76682 0.12389
 H946 H 0.14171 0.73283 0.03033
 H947 H 0.21211 0.72663 0.07109
 C948 C 0.51925 0.25283 0.62045
 C949 C 0.50691 0.24784 0.66051
 C950 C 0.54136 0.25385 0.68338
 C951 C 0.57254 0.26162 0.65596
 O952 O 0.55931 0.26134 0.61783
 H953 H 0.47661 0.24051 0.67208
 H954 H 0.54371 0.25200 0.71629
 C955 C 0.85865 0.23932 0.01767
 C956 C 0.81925 0.23197 0.00363
 C957 C 0.79461 0.23368 0.03680
 C958 C 0.82027 0.24217 0.06938
 O959 O 0.85919 0.24633 0.05781
 H960 H 0.80949 0.22445 -0.02680
 H961 H 0.76173 0.22801 0.03734
 C962 C 0.42839 0.72077 0.62768
 C963 C 0.44605 0.69123 0.65243
 C964 C 0.42309 0.69052 0.68742
 C965 C 0.39243 0.71892 0.68096
 O966 O 0.39546 0.73686 0.64483
 H967 H 0.47069 0.67061 0.64465
 H968 H 0.42636 0.66969 0.71299
 C969 C 0.22832 0.06008 0.89499
 C970 C 0.23116 0.03437 0.86142
 C971 C 0.22680 0.05902 0.82769
 C972 C 0.22279 0.09784 0.84300
 O973 O 0.22375 0.09842 0.88308
 H974 H 0.23972 0.00248 0.86060
 H975 H 0.23013 0.05029 0.79607
 C976 C 0.76134 0.63965 0.46694
 C977 C 0.77862 0.67472 0.48344
 C978 C 0.77827 0.70312 0.45306
 C979 C 0.76173 0.68347 0.41982
 O980 O 0.75124 0.64514 0.42797
 H981 H 0.79075 0.67930 0.51385
 H982 H 0.79003 0.73410 0.45449
 C983 C 0.77448 0.04208 0.11250
 C984 C 0.80589 0.03581 0.14033
 C985 C 0.80481 0.06856 0.16537
 C986 C 0.77273 0.09236 0.15124
 O987 O 0.75407 0.07642 0.11921
 H988 H 0.82788 0.01100 0.14130
 H989 H 0.82575 0.07523 0.19024
 C990 C 0.25525 0.59608 0.58368
 C991 C 0.27255 0.62708 0.56039
 C992 C 0.27096 0.66141 0.58406
 C993 C 0.25353 0.64864 0.62015
 O994 O 0.24422 0.60927 0.62001
 H995 H 0.28656 0.62456 0.53063
 H996 H 0.28262 0.69158 0.57674
 C997 C 0.77824 0.97618 0.85425
 C998 C 0.79908 0.98823 0.81961
 C999 C 0.79927 0.95497 0.79509
 C1000 C 0.77845 0.92469 0.81626
 O1001 O 0.76534 0.93754 0.85218
 H1002 H 0.81346 1.01749 0.81341
 H1003 H 0.81365 0.95282 0.76544
 C1004 C 0.26117 0.37702 0.42586
 C1005 C 0.24948 0.34376 0.44959
 C1006 C 0.25354 0.31016 0.42530
 C1007 C 0.26569 0.32526 0.38800
 O1008 O 0.26988 0.36555 0.38813
 H1009 H 0.23668 0.34379 0.47999
 H1010 H 0.24516 0.27896 0.43280
 C1011 C 0.25713 0.91470 0.11827
 C1012 C 0.24615 0.94214 0.14841
 C1013 C 0.24977 0.92125 0.18455
 C1014 C 0.26144 0.88258 0.17372
 O1015 O 0.26599 0.87854 0.13390
 H1016 H 0.23508 0.97309 0.14454
 H1017 H 0.24359 0.93211 0.21499
 C1018 C 0.71213 0.37932 0.51461
 C1019 C 0.68994 0.34540 0.50315
 C1020 C 0.69161 0.31958 0.53565
 C1021 C 0.71469 0.33965 0.56496
 O1022 O 0.72744 0.37596 0.55220
 H1023 H 0.67346 0.34092 0.47484
 H1024 H 0.67689 0.28991 0.53807
 C1025 C 0.02320 0.14191 0.77439
 C1026 C 0.00826 0.18031 0.78410
 C1027 C 0.04131 0.20581 0.78321
 C1028 C 0.07441 0.18183 0.77257
 O1029 O 0.06354 0.14320 0.76686
 H1030 H -0.02259 0.18881 0.79302
 H1031 H 0.04138 0.23810 0.79036
 C1032 C 0.62317 0.57495 0.26500
 C1033 C 0.65163 0.55764 0.23890
 C1034 C 0.68652 0.58093 0.24213
 C1035 C 0.67669 0.61185 0.26858
 O1036 O 0.63827 0.60871 0.28184
 H1037 H 0.64685 0.53337 0.21710
 H1038 H 0.71402 0.57848 0.22374
 C1039 C 0.08320 0.88382 0.24082
 C1040 C 0.05710 0.85665 0.26076
 C1041 C 0.07833 0.82072 0.26416
 C1042 C 0.11632 0.82878 0.24754
 O1043 O 0.11947 0.86683 0.23391
 H1044 H 0.02738 0.86271 0.27418
 H1045 H 0.06877 0.79340 0.28035
 C1046 C 0.62648 0.47983 0.71735
 C1047 C 0.65922 0.49230 0.69328
 C1048 C 0.68220 0.45825 0.68701
 C1049 C 0.66203 0.42705 0.70730
 O1050 O 0.62834 0.43998 0.72538
 H1051 H 0.66555 0.52230 0.68073
 H1052 H 0.71049 0.45645 0.66972
 C1053 C 0.94035 0.11379 0.22416
 C1054 C 0.96448 0.14648 0.23669
 C1055 C 0.94016 0.18042 0.23229
 C1056 C 0.90275 0.16578 0.21868
 O1057 O 0.90287 0.12582 0.21395
 H1058 H 0.99469 0.14569 0.25074
 H1059 H 0.94736 0.21122 0.24197
 C1060 C 0.36268 0.53080 0.75912
 C1061 C 0.32388 0.51298 0.75615
 C1062 C 0.29637 0.54388 0.75722
 C1063 C 0.31963 0.57868 0.76162
 O1064 O 0.35965 0.57104 0.76333
 H1065 H 0.31546 0.48132 0.75353
 H1066 H 0.26314 0.54131 0.75525
 C1067 C 0.96814 0.87967 0.78449
 C1068 C 0.97884 0.84559 0.80713
 C1069 C 0.94775 0.81858 0.80124
 C1070 C 0.92018 0.83790 0.77551
 O1071 O 0.93243 0.87508 0.76509
 H1072 H 1.00576 0.84125 0.82628
 H1073 H 0.94477 0.78861 0.81493
 C1074 C 0.39703 0.42357 0.25425
 C1075 C 0.36650 0.45065 0.24201
 C1076 C 0.33088 0.42812 0.24025
 C1077 C 0.34279 0.38902 0.25028
 O1078 O 0.38243 0.38627 0.25853
 H1079 H 0.37002 0.48232 0.23291
 H1080 H 0.30094 0.43816 0.22961
   
