data_POSCAR
  _audit_creation_date              2014-09-24
  _audit_creation_method            'ToBaCCo'
  _symmetry_space_group_name_H-M    'P1'
  _symmetry_Int_Tables_number       1
  _symmetry_cell_setting            triclinic
  loop_
  _symmetry_equiv_pos_as_xyz
 x,y,z
_cell_length_a 20.8577
_cell_length_b 21.2666
_cell_length_c 20.7616
_cell_angle_alpha 90.261700
_cell_angle_beta 88.944200
_cell_angle_gamma 90.445300
loop_
  _atom_site_label
  _atom_site_type_symbol
  _atom_site_fract_x
  _atom_site_fract_y
  _atom_site_fract_z
C1 C 0.18332 0.18495 0.25931
 N2 N 0.23882 0.16161 0.23580
 C3 C 0.26899 0.18829 0.18490
 N4 N 0.24327 0.23891 0.15595
 C5 C 0.18785 0.26379 0.17962
 N6 N 0.15673 0.23593 0.23076
 C7 C -0.18473 0.81919 0.25013
 N8 N -0.16258 0.76354 0.22589
 C9 C -0.19208 0.73643 0.17428
 N10 N -0.24115 0.76635 0.14573
 C11 C -0.26215 0.82184 0.16989
 N12 N -0.23389 0.84797 0.22149
 C13 C -0.19145 0.18375 -0.26045
 N14 N -0.16575 0.23361 -0.22818
 C15 C -0.20167 0.26497 -0.18288
 N16 N -0.26220 0.24439 -0.16846
 C17 C -0.28764 0.19477 -0.20119
 N18 N -0.25183 0.16454 -0.24622
 C19 C 0.17975 0.80911 -0.25931
 N20 N 0.15633 0.75422 -0.23416
 C21 C 0.18439 0.72902 -0.18116
 N22 N 0.23321 0.76042 -0.15229
 C23 C 0.25569 0.81505 -0.17788
 N24 N 0.22877 0.83893 -0.23069
 C25 C 0.19597 1.18804 0.72557
 N26 N 0.16571 1.23667 0.75412
 C27 C 0.18772 1.26207 0.80907
 N28 N 0.24068 1.23796 0.83703
 C29 C 0.27260 1.18940 0.80816
 N30 N 0.24911 1.16343 0.75299
 C31 C 0.81644 0.81439 0.72836
 N32 N 0.83925 0.76092 0.75355
 C33 C 0.81368 0.73707 0.80846
 N34 N 0.76528 0.76778 0.83988
 C35 C 0.74116 0.82149 0.81468
 N36 N 0.76778 0.84543 0.75934
 C37 C 0.18201 0.80986 1.25823
 N38 N 0.23452 0.83669 1.22918
 C39 C 0.25881 0.81191 1.17315
 N40 N 0.22912 0.76169 1.14556
 C41 C 0.17676 0.73548 1.17505
 N42 N 0.15338 0.75987 1.23067
 C43 C 0.82079 1.18903 1.28784
 N44 N 0.76651 1.16256 1.26353
 C45 C 0.73930 1.18781 1.21035
 N46 N 0.76797 1.23743 1.18048
 C47 C 0.82211 1.26308 1.20471
 N48 N 0.84857 1.23857 1.25774
 O49 O 0.54960 0.92091 0.91033
 O50 O 0.43399 0.94830 1.12080
 O51 O 0.63285 0.97917 1.05462
 O52 O 0.34285 0.97791 0.94854
 O53 O 0.55608 0.93375 1.11503
 O54 O 0.43083 0.92968 0.91199
 O55 O 0.40645 0.92202 1.02598
 O56 O 0.62933 0.98058 0.93654
 C57 C 0.60863 0.92998 0.91284
 C58 C 0.40278 0.91315 1.08488
 C59 C 0.61281 0.93604 1.09294
 C60 C 0.37001 0.93672 0.90917
 O61 O 0.44277 1.05070 0.87552
 O62 O 0.57109 1.04923 1.13566
 O63 O 0.58009 1.10053 0.94383
 O64 O 0.37273 1.03539 1.06577
 O65 O 0.45260 1.07031 1.12312
 O66 O 0.56052 1.03865 0.86670
 O67 O 0.40182 1.08305 0.96337
 O68 O 0.59451 1.10370 1.05405
 Co69 Co 0.49677 0.98768 0.90155
 Co70 Co 0.50286 1.00130 1.11171
 Co71 Co 0.60132 1.03845 0.99735
 Co72 Co 0.41108 1.00307 0.99321
 O73 O 0.50601 1.01026 1.00498
 C74 C 0.40807 1.08943 0.90463
 C75 C 0.59917 1.09514 1.11218
 C76 C 0.58038 1.09079 0.88585
 C77 C 0.39555 1.07383 1.10571
 O78 O 0.05580 0.43395 0.11823
 O79 O 0.06045 0.54580 -0.11687
 O80 O 0.02426 0.33847 -0.05719
 O81 O 0.01665 0.62875 0.06317
 O82 O 0.05562 0.42887 -0.10627
 O83 O 0.06335 0.55189 0.11195
 O84 O 0.07092 0.59844 -0.03164
 O85 O 0.08381 0.39620 0.02382
 C86 C 0.09201 0.39981 0.08363
 C87 C 0.08841 0.58801 -0.08729
 C88 C 0.05828 0.36846 -0.10126
 C89 C 0.05997 0.60911 0.09894
 O90 O -0.06439 0.55946 0.11875
 O91 O -0.07324 0.43953 -0.11218
 O92 O -0.02781 0.36173 0.06818
 O93 O -0.03468 0.64759 -0.05928
 O94 O -0.06812 0.55671 -0.10522
 O95 O -0.07106 0.44148 0.11894
 O96 O -0.09500 0.59065 0.02412
 O97 O -0.08240 0.38688 -0.02669
 Co98 Co -0.00420 0.49660 0.10798
 Co99 Co -0.00626 0.49278 -0.09875
 Co100 Co 0.00096 0.40030 -0.00542
 Co101 Co -0.01227 0.58661 -0.00753
 O102 O -0.00555 0.49399 0.00586
 C103 C -0.10215 0.59056 0.08441
 C104 C -0.10074 0.39729 -0.08152
 C105 C -0.06819 0.38366 0.10791
 C106 C -0.06845 0.61739 -0.10240
 O107 O 1.12326 0.06365 0.44362
 O108 O 0.89959 0.04759 0.57586
 O109 O 0.97369 0.06801 0.39137
 O110 O 1.03895 0.08771 0.59671
 O111 O 0.89682 0.06745 0.45999
 O112 O 1.13009 0.05095 0.56277
 O113 O 0.95969 0.03424 0.66457
 O114 O 1.07252 0.02034 0.36416
 C115 C 1.10757 0.06376 0.38561
 C116 C 0.91104 0.06018 0.63557
 C117 C 0.92214 0.08956 0.41100
 C118 C 1.09892 0.09119 0.59411
 O119 O 1.12182 -0.07257 0.55114
 O120 O 0.89939 -0.05782 0.42880
 O121 O 1.03172 -0.09235 0.40130
 O122 O 0.97149 -0.06949 0.61443
 O123 O 0.89897 -0.07760 0.54422
 O124 O 1.12566 -0.06058 0.43089
 O125 O 1.07356 -0.02701 0.63294
 O126 O 0.95573 -0.03437 0.33778
 Co127 Co 1.11590 -0.00463 0.49724
 Co128 Co 0.90962 -0.00483 0.50201
 Co129 Co 1.00069 -0.01180 0.40455
 Co130 Co 1.00289 0.00844 0.59654
 O131 O 1.01335 -0.00345 0.50020
 C132 C 1.10665 -0.07157 0.60998
 C133 C 0.90845 -0.06431 0.36740
 C134 C 1.09139 -0.09841 0.40016
 C135 C 0.92104 -0.09379 0.59606
 C136 C 1.15229 0.15012 0.30505
 C137 C 1.13052 0.11246 0.34306
 C138 C 0.84727 -0.14730 0.29551
 C139 C 0.87408 -0.11112 0.33125
 C140 C 0.84512 0.14567 0.70122
 C141 C 0.87487 0.10748 0.66977
 C142 C 1.14905 -0.15692 0.69044
 C143 C 1.12859 -0.12003 0.65206
 C144 C 0.31670 1.15568 1.15656
 C145 C 0.35484 1.12024 1.13311
 C146 C 0.29752 0.85201 0.85364
 C147 C 0.33164 0.88982 0.87918
 C148 C 0.69400 0.85586 1.13909
 C149 C 0.65666 0.89097 1.11553
 C150 C 0.65960 1.16448 0.82201
 C151 C 0.61893 1.13190 0.84689
 C152 C 0.15879 0.31465 0.14527
 C153 C 0.13183 0.35522 0.11571
 C154 C -0.17259 0.31476 -0.14489
 C155 C -0.14376 0.35427 -0.11408
 C156 C 0.15660 0.67458 -0.14958
 C157 C 0.12946 0.63227 -0.12100
 C158 C -0.16607 0.68113 0.14364
 C159 C -0.14085 0.63755 0.11591
 C160 C 1.16523 0.15816 0.67701
 C161 C 1.13406 0.13066 0.63730
 C162 C 0.85042 -0.15855 0.67916
 C163 C 0.88356 -0.13278 0.63882
 C164 C 1.15208 -0.16277 0.30962
 C165 C 1.12300 -0.13688 0.35273
 C166 C 0.85426 0.16004 0.33450
 C167 C 0.88655 0.13175 0.37203
 C168 C 0.14868 0.30274 -0.15938
 C169 C 0.10847 0.33476 -0.13354
 C170 C -0.14413 0.30622 0.17091
 C171 C -0.11043 0.34231 0.14169
 C172 C -0.15140 0.68843 -0.16093
 C173 C -0.11534 0.65276 -0.13565
 C174 C 0.14187 0.69021 0.14626
 C175 C 0.10579 0.65217 0.12395
 C176 C 0.32517 1.15944 0.84103
 C177 C 0.36582 1.13062 0.86975
 C178 C 0.31190 0.84267 1.13994
 C179 C 0.35472 0.87185 1.11308
 C180 C 0.68619 1.15708 1.17936
 C181 C 0.64456 1.13046 1.14967
 C182 C 0.69240 0.85659 0.85023
 C183 C 0.65316 0.88812 0.87974
   
