data_POSCAR
  _audit_creation_date              2014-09-24
  _audit_creation_method            'ToBaCCo'
  _symmetry_space_group_name_H-M    'P1'
  _symmetry_Int_Tables_number       1
  _symmetry_cell_setting            triclinic
  loop_
  _symmetry_equiv_pos_as_xyz
 x,y,z
_cell_length_a 25.8993
_cell_length_b 25.9075
_cell_length_c 32.8457
_cell_angle_alpha 89.998600
_cell_angle_beta 90.008400
_cell_angle_gamma 90.000200
loop_
  _atom_site_label
  _atom_site_type_symbol
  _atom_site_fract_x
  _atom_site_fract_y
  _atom_site_fract_z
B1 B 0.26449 0.21792 0.21060
 B2 B 0.28570 0.27785 0.21850
 B3 B 0.22334 0.26763 0.20848
 B4 B 0.20535 0.21242 0.23120
 B5 B 0.25849 0.18857 0.25591
 B6 B 0.30880 0.22961 0.24732
 B7 B 0.23472 0.28282 0.28894
 B8 B 0.21351 0.22284 0.28107
 B9 B 0.27581 0.23306 0.29115
 B10 B 0.29387 0.28826 0.26839
 B11 B 0.24074 0.31211 0.24365
 B12 B 0.19042 0.27106 0.25229
 B13 B 0.73472 0.78295 0.21086
 B14 B 0.71344 0.72298 0.21860
 B15 B 0.77578 0.73316 0.20861
 B16 B 0.79385 0.78828 0.23148
 B17 B 0.74071 0.81211 0.25621
 B18 B 0.69036 0.77113 0.24746
 B19 B 0.76435 0.71781 0.28911
 B20 B 0.78561 0.77774 0.28133
 B21 B 0.72324 0.76754 0.29129
 B22 B 0.70522 0.71241 0.26846
 B23 B 0.75837 0.68859 0.24375
 B24 B 0.80870 0.72957 0.25246
 B25 B 0.71832 0.23429 -0.29044
 B26 B 0.77824 0.21303 -0.28251
 B27 B 0.76808 0.27530 -0.29268
 B28 B 0.71289 0.29348 -0.26996
 B29 B 0.68899 0.24044 -0.24515
 B30 B 0.72999 0.19008 -0.25369
 B31 B 0.78329 0.26419 -0.21217
 B32 B 0.72333 0.28543 -0.22006
 B33 B 0.73349 0.22312 -0.20993
 B34 B 0.78868 0.20500 -0.23264
 B35 B 0.81258 0.25803 -0.25747
 B36 B 0.77158 0.30840 -0.24893
 B37 B 0.28310 0.76417 -0.28826
 B38 B 0.22317 0.78548 -0.28040
 B39 B 0.23325 0.72316 -0.29051
 B40 B 0.28842 0.70498 -0.26778
 B41 B 0.31238 0.75799 -0.24296
 B42 B 0.27144 0.80840 -0.25152
 B43 B 0.21808 0.73437 -0.21000
 B44 B 0.27799 0.71304 -0.21790
 B45 B 0.26790 0.77534 -0.20776
 B46 B 0.21273 0.79356 -0.23051
 B47 B 0.18877 0.74055 -0.25531
 B48 B 0.22971 0.69014 -0.24674
 B49 B 1.23443 1.28209 0.71047
 B50 B 1.21467 1.22172 0.71843
 B51 B 1.27675 1.23335 0.70887
 B52 B 1.29308 1.28910 0.73154
 B53 B 1.23896 1.31176 0.75566
 B54 B 1.18982 1.26947 0.74672
 B55 B 1.26452 1.21840 0.78932
 B56 B 1.28426 1.27874 0.78133
 B57 B 1.22212 1.26709 0.79084
 B58 B 1.20588 1.21133 0.76820
 B59 B 1.25999 1.18867 0.74411
 B60 B 1.30914 1.23096 0.75300
 B61 B 0.77680 0.73351 0.79079
 B62 B 0.71472 0.72189 0.78114
 B63 B 0.73448 0.78227 0.78913
 B64 B 0.79318 0.78927 0.76815
 B65 B 0.80927 0.73113 0.74670
 B66 B 0.76011 0.68885 0.75551
 B67 B 0.72236 0.76728 0.70874
 B68 B 0.78447 0.77893 0.71835
 B69 B 0.76474 0.71859 0.71031
 B70 B 0.70604 0.71153 0.73134
 B71 B 0.68995 0.76966 0.75280
 B72 B 0.73912 0.81195 0.74395
 B73 B 1.23377 0.72180 0.28974
 B74 B 1.22198 0.78390 0.28030
 B75 B 1.28243 0.76429 0.28820
 B76 B 1.28955 0.70572 0.26704
 B77 B 1.23141 0.68958 0.24557
 B78 B 1.18900 0.73859 0.25456
 B79 B 1.26730 0.77667 0.20781
 B80 B 1.27911 0.71460 0.21727
 B81 B 1.21868 0.73423 0.20934
 B82 B 1.21152 0.79279 0.23053
 B83 B 1.26966 0.80893 0.25197
 B84 B 1.31207 0.75992 0.24297
 B85 B 0.78251 1.26439 0.21161
 B86 B 0.72210 1.28418 0.21944
 B87 B 0.73373 1.22205 0.20996
 B88 B 0.78942 1.20577 0.23272
 B89 B 0.81205 1.25986 0.25687
 B90 B 0.76981 1.30901 0.24787
 B91 B 0.71853 1.23439 0.29035
 B92 B 0.77891 1.21459 0.28248
 B93 B 0.76728 1.27668 0.29199
 B94 B 0.71159 1.29302 0.26922
 B95 B 0.68895 1.23892 0.24509
 B96 B 0.73119 1.18977 0.25410
 O97 O 0.42768 1.09329 0.07203
 O98 O 0.36899 1.04480 0.03592
 C99 C 0.38105 1.07990 0.06291
 O100 O 0.56866 1.09326 -0.07464
 O101 O 0.62912 1.04875 -0.03715
 C102 C 0.61575 1.08203 -0.06514
 O103 O 0.42770 1.09424 -0.07166
 O104 O 0.36901 1.04452 -0.03662
 C105 C 0.38108 1.08032 -0.06303
 O106 O 0.56865 1.09228 0.07472
 O107 O 0.62913 1.04880 0.03656
 C108 C 0.61575 1.08143 0.06498
 Zr109 Zr 0.49874 1.06597 0.05005
 O110 O 0.50063 1.14756 0.04548
 O111 O 0.50036 1.07122 0.11441
 Zr112 Zr 0.49868 1.06473 -0.05155
 O113 O 0.49565 1.14622 -0.05642
 O114 O 0.49807 1.05575 -0.11553
 O115 O 0.45164 1.07466 -0.00076
 O116 O 0.54433 1.07579 -0.00069
 O117 O 0.57190 0.91267 0.07541
 O118 O 0.63073 0.95832 0.03721
 C119 C 0.61854 0.92544 0.06584
 O120 O 0.43125 0.90446 -0.07148
 O121 O 0.37077 0.95132 -0.03590
 C122 C 0.38417 0.91592 -0.06218
 O123 O 0.57188 0.91162 -0.07518
 O124 O 0.63069 0.95781 -0.03734
 C125 C 0.61852 0.92454 -0.06570
 O126 O 0.43123 0.90545 0.07173
 O127 O 0.37076 0.95202 0.03587
 C128 C 0.38414 0.91690 0.06238
 Zr129 Zr 0.50118 0.93665 0.05079
 O130 O 0.50865 0.85520 0.04977
 O131 O 0.49662 0.93759 0.11516
 Zr132 Zr 0.50117 0.93596 -0.05083
 O133 O 0.50862 0.85453 -0.04911
 O134 O 0.49629 0.93585 -0.11520
 Zr135 Zr 0.42079 0.99923 -0.00025
 Zr136 Zr 0.57911 1.00239 -0.00022
 O137 O 0.54712 0.92769 0.00004
 O138 O 0.45452 0.92503 0.00004
 O139 O 0.54644 1.00226 0.05862
 O140 O 0.45416 0.99947 -0.05870
 O141 O 0.45449 1.00038 0.05804
 O142 O 0.54679 1.00130 -0.05921
 H143 H 0.56699 1.10657 -0.00043
 H144 H 0.43142 0.99885 -0.08295
 H145 H 0.57071 0.89758 0.00018
 H146 H 0.43151 0.99953 0.08211
 H147 H 0.49609 1.09099 -0.12715
 H148 H 0.52141 0.96149 -0.12552
 H149 H 0.47874 0.84046 -0.03400
 H150 H 0.47870 0.84091 0.03487
 H151 H 0.52141 0.96382 0.12507
 H152 H 0.47863 1.04341 0.12579
 H153 H 0.46996 1.15874 0.02979
 H154 H 0.51556 1.16105 -0.03360
 O155 O 1.06858 0.59375 0.57388
 O156 O 1.12902 0.54894 0.53658
 C157 C 1.11567 0.58243 0.56442
 O158 O 0.93140 0.40323 0.57013
 O159 O 0.87079 0.45135 0.53573
 C160 C 0.88428 0.41526 0.56141
 O161 O 1.07195 0.41082 0.57435
 O162 O 1.13070 0.45770 0.53699
 C163 C 1.11856 0.42404 0.56508
 O164 O 0.92774 0.59490 0.57089
 O165 O 0.86899 0.54494 0.53610
 C166 C 0.88110 0.58094 0.56234
 Zr167 Zr 0.99861 0.56484 0.55110
 O168 O 0.99830 0.55490 0.61499
 O169 O 0.99631 0.64623 0.55652
 Zr170 Zr 1.00111 0.43665 0.55113
 O171 O 0.99986 0.44641 0.61504
 O172 O 1.00233 0.35523 0.55669
 O173 O 1.04699 0.50168 0.55900
 O174 O 0.95367 0.49981 0.55854
 O175 O 0.92766 0.59362 0.42799
 O176 O 0.86898 0.54451 0.46357
 C177 C 0.88105 0.57993 0.43685
 O178 O 1.07187 0.41140 0.42515
 O179 O 1.13069 0.45796 0.46264
 C180 C 1.11850 0.42459 0.43437
 O181 O 0.93114 0.40452 0.42881
 O182 O 0.87068 0.45186 0.46402
 C183 C 0.88406 0.41636 0.43784
 O184 O 1.06866 0.59295 0.42555
 O185 O 1.12911 0.54844 0.46301
 C186 C 1.11576 0.58158 0.43495
 Zr187 Zr 0.99861 0.56529 0.44924
 O188 O 0.99334 0.56478 0.38486
 O189 O 1.00127 0.64699 0.45070
 Zr190 Zr 1.00109 0.43610 0.44930
 O191 O 0.99538 0.43601 0.38496
 O192 O 1.00730 0.35459 0.45089
 Zr193 Zr 1.07904 0.50223 0.49988
 Zr194 Zr 0.92070 0.49922 0.49999
 O195 O 0.95445 0.49978 0.44167
 O196 O 1.04651 0.50160 0.44096
 O197 O 0.95172 0.57456 0.50014
 O198 O 1.04698 0.42763 0.50014
 O199 O 1.04401 0.57555 0.50009
 O200 O 0.95470 0.42516 0.50019
 H201 H 0.93057 0.49921 0.58259
 H202 H 1.07073 0.39768 0.49991
 H203 H 0.93196 0.49918 0.41727
 H204 H 1.06639 0.60653 0.49984
 H205 H 1.01992 0.34111 0.53245
 H206 H 0.97981 0.34145 0.46909
 H207 H 1.02342 0.45796 0.37413
 H208 H 1.02294 0.54485 0.37416
 H209 H 0.97269 0.65902 0.46832
 H210 H 1.01235 0.66098 0.53185
 H211 H 0.99591 0.58996 0.62689
 H212 H 0.99844 0.41125 0.62686
 O213 O 1.09189 0.57217 0.07173
 O214 O 1.04325 0.63086 0.03576
 C215 C 1.07858 0.61877 0.06257
 O216 O 1.09086 0.43114 -0.07480
 O217 O 1.04661 0.37081 -0.03699
 C218 C 1.07971 0.38410 -0.06513
 O219 O 1.09204 0.57215 -0.07189
 O220 O 1.04256 0.63086 -0.03667
 C221 C 1.07825 0.61876 -0.06316
 O222 O 1.09067 0.43143 0.07461
 O223 O 1.04711 0.37095 0.03652
 C224 C 1.07995 0.38435 0.06480
 Zr225 Zr 1.06448 0.50121 0.04982
 O226 O 1.14601 0.49907 0.04434
 O227 O 1.07126 0.50075 0.11406
 Zr228 Zr 1.06265 0.50121 -0.05167
 O229 O 1.14417 0.50450 -0.05647
 O230 O 1.05369 0.50176 -0.11565
 O231 O 1.07284 0.54829 -0.00097
 O232 O 1.07391 0.45556 -0.00087
 O233 O 0.91076 0.42806 0.07553
 O234 O 0.95640 0.36928 0.03733
 C235 C 0.92356 0.38144 0.06599
 O236 O 0.90265 0.56882 -0.07148
 O237 O 0.94953 0.62919 -0.03577
 C238 C 0.91431 0.61588 -0.06225
 O239 O 0.90988 0.42790 -0.07508
 O240 O 0.95705 0.36915 -0.03789
 C241 C 0.92344 0.38129 -0.06603
 O242 O 0.90383 0.56871 0.07207
 O243 O 0.95029 0.62913 0.03609
 C244 C 0.91524 0.61578 0.06270
 Zr245 Zr 0.93493 0.49878 0.05103
 O246 O 0.85345 0.49144 0.05016
 O247 O 0.93607 0.50342 0.11540
 Zr248 Zr 0.93373 0.49877 -0.05056
 O249 O 0.85230 0.49137 -0.04799
 O250 O 0.93251 0.50348 -0.11491
 Zr251 Zr 0.99739 0.57911 -0.00021
 Zr252 Zr 1.00042 0.42093 -0.00011
 O253 O 0.92569 0.45278 0.00029
 O254 O 0.92311 0.54549 0.00031
 O255 O 1.00067 0.45361 0.05875
 O256 O 0.99732 0.54567 -0.05863
 O257 O 0.99884 0.54539 0.05808
 O258 O 0.99909 0.45326 -0.05909
 H259 H 1.10465 0.43283 -0.00068
 H260 H 0.99670 0.56832 -0.08294
 H261 H 0.89571 0.42902 0.00036
 H262 H 0.99823 0.56830 0.08219
 H263 H 1.08895 0.50366 -0.12726
 H264 H 0.95926 0.47966 -0.12537
 H265 H 0.83832 0.52220 -0.03406
 H266 H 0.83918 0.52123 0.03507
 H267 H 0.96077 0.47716 0.12542
 H268 H 1.04015 0.51730 0.12554
 H269 H 1.15710 0.53007 0.02903
 H270 H 1.15911 0.48299 -0.03461
 O271 O 0.59189 0.93131 0.57380
 O272 O 0.54714 0.87091 0.53642
 C273 C 0.58058 0.88425 0.56429
 O274 O 0.40183 1.06867 0.57041
 O275 O 0.44982 1.12918 0.53578
 C276 C 0.41400 1.11578 0.56171
 O277 O 0.40916 0.92798 0.57444
 O278 O 0.45622 0.86929 0.53716
 C279 C 0.42264 0.88139 0.56533
 O280 O 0.59315 1.07213 0.57078
 O281 O 0.54317 1.13088 0.53602
 C282 C 0.57921 1.11875 0.56222
 Zr283 Zr 0.56302 1.00131 0.55105
 O284 O 0.55304 1.00161 0.61494
 O285 O 0.64444 1.00358 0.55659
 Zr286 Zr 0.43474 0.99883 0.55103
 O287 O 0.44418 0.99997 0.61497
 O288 O 0.35321 0.99818 0.55600
 O289 O 0.49983 0.95300 0.55891
 O290 O 0.49799 1.04620 0.55846
 O291 O 0.59211 1.07218 0.42818
 O292 O 0.54287 1.13088 0.46362
 C293 C 0.57849 1.11878 0.43708
 O294 O 0.40967 0.92802 0.42498
 O295 O 0.45622 0.86924 0.46252
 C296 C 0.42288 0.88140 0.43420
 O297 O 0.40252 1.06862 0.42872
 O298 O 0.44990 1.12910 0.46389
 C299 C 0.41435 1.11570 0.43770
 O300 O 0.59161 0.93136 0.42578
 O301 O 0.54691 0.87088 0.46306
 C302 C 0.58037 0.88428 0.43523
 Zr303 Zr 0.56347 1.00132 0.44918
 O304 O 0.56241 1.00653 0.38480
 O305 O 0.64521 0.99873 0.45029
 Zr306 Zr 0.43427 0.99878 0.44924
 O307 O 0.43416 1.00447 0.38489
 O308 O 0.35275 0.99254 0.45096
 Zr309 Zr 0.50046 0.92090 0.49981
 Zr310 Zr 0.49742 1.07919 0.49993
 O311 O 0.49796 1.04548 0.44161
 O312 O 0.49982 0.95337 0.44089
 O313 O 0.57276 1.04815 0.50010
 O314 O 0.42581 0.95286 0.50006
 O315 O 0.57377 0.95598 0.50005
 O316 O 0.42333 1.04524 0.50010
 H317 H 0.49750 1.06922 0.58255
 H318 H 0.39598 0.92897 0.49983
 H319 H 0.49740 1.06803 0.41725
 H320 H 0.60482 0.93369 0.49987
 H321 H 0.33926 0.97801 0.53298
 H322 H 0.33972 1.01959 0.46961
 H323 H 0.45654 0.97675 0.37411
 H324 H 0.54358 0.97619 0.37414
 H325 H 0.65728 1.02662 0.46856
 H326 H 0.65925 0.98744 0.53198
 H327 H 0.58811 1.00398 0.62686
 H328 H 0.40895 1.00130 0.62671
 O329 O 0.89174 1.06784 0.55622
 O330 O 0.94918 1.03260 0.60172
 C331 C 0.90811 1.05855 0.59257
 O332 O 0.93245 0.88865 0.44343
 O333 O 0.96710 0.94642 0.39787
 C334 C 0.94135 0.90522 0.40706
 O335 O 0.92575 0.89301 0.55557
 O336 O 0.96480 0.94773 0.60122
 C337 C 0.93565 0.90900 0.59190
 O338 O 0.89521 1.07366 0.44407
 O339 O 0.95006 1.03498 0.39833
 C340 C 0.91114 1.06386 0.40772
 Zr341 Zr 0.92456 1.04889 0.49995
 O342 O 0.84498 1.03080 0.49530
 O343 O 0.90650 1.12837 0.50456
 Zr344 Zr 0.95106 0.92187 0.49960
 O345 O 0.87205 0.90171 0.49552
 O346 O 0.97331 0.84340 0.50161
 O347 O 0.92768 0.98333 0.53609
 O348 O 0.92819 0.98359 0.46433
 O349 O 1.07037 1.10821 0.44329
 O350 O 1.03497 1.05088 0.39778
 C351 C 1.06093 1.09195 0.40693
 O352 O 1.11081 0.92908 0.55614
 O353 O 1.05362 0.96471 0.60166
 C354 C 1.09460 0.93860 0.59251
 O355 O 1.10676 0.92298 0.44395
 O356 O 1.05207 0.96220 0.39830
 C357 C 1.09084 0.93305 0.40761
 O358 O 1.07638 1.10451 0.55551
 O359 O 1.03763 1.04963 0.60120
 C360 C 1.06646 1.08859 0.59185
 Zr361 Zr 1.05167 1.07520 0.49956
 O362 O 1.13127 1.09278 0.49483
 O363 O 1.03403 1.15483 0.50434
 Zr364 Zr 1.07784 0.94815 0.49988
 O365 O 1.15747 0.96596 0.49520
 O366 O 1.09515 0.86846 0.50375
 Zr367 Zr 1.00131 0.99860 0.56063
 Zr368 Zr 1.00113 0.99866 0.43889
 O369 O 1.07424 1.01344 0.46423
 O370 O 1.07496 1.01374 0.53608
 O371 O 0.98599 1.07227 0.46344
 O372 O 1.01618 0.92553 0.53538
 O373 O 0.98637 1.07159 0.53518
 O374 O 1.01638 0.92510 0.46334
 H375 H 0.89817 0.97771 0.44621
 H376 H 1.02187 0.89560 0.55363
 H377 H 1.10415 1.01916 0.44597
 H378 H 0.98061 1.10159 0.55335
 H379 H 0.94087 0.82311 0.50178
 H380 H 1.07023 0.85011 0.48609
 H381 H 1.16724 0.98635 0.51947
 H382 H 1.14960 1.07217 0.51564
 H383 H 1.01337 1.16461 0.48021
 H384 H 0.92761 1.14683 0.48414
 H385 H 0.83511 1.01098 0.51984
 H386 H 0.85281 0.92573 0.51329
 O387 O 0.42548 0.39311 -0.05591
 O388 O 0.46469 0.44763 -0.10166
 C389 C 0.43546 0.40896 -0.09227
 O390 O 0.39566 0.57420 0.05542
 O391 O 0.45039 0.53530 0.10115
 C392 C 0.41160 0.56436 0.09177
 O393 O 0.39116 0.56710 -0.05665
 O394 O 0.44899 0.53253 -0.10221
 C395 C 0.40769 0.55816 -0.09302
 O396 O 0.43150 0.38942 0.05625
 O397 O 0.46726 0.44660 0.10173
 C398 C 0.44098 0.40571 0.09261
 Zr399 Zr 0.45078 0.42209 -0.00005
 O400 O 0.37109 0.40472 0.00376
 O401 O 0.46871 0.34250 -0.00453
 Zr402 Zr 0.42457 0.54885 -0.00050
 O403 O 0.34606 0.52669 0.00163
 O404 O 0.40461 0.62788 -0.00481
 O405 O 0.42773 0.48347 -0.03665
 O406 O 0.42819 0.48384 0.03535
 O407 O 0.60701 0.42328 0.05553
 O408 O 0.55224 0.46228 0.10118
 C409 C 0.59108 0.43325 0.09187
 O410 O 0.57632 0.60452 -0.05617
 O411 O 0.53754 0.54957 -0.10180
 C412 C 0.56637 0.58856 -0.09250
 O413 O 0.57061 0.60827 0.05604
 O414 O 0.53528 0.55098 0.10159
 C415 C 0.56122 0.59205 0.09241
 O416 O 0.61069 0.42911 -0.05676
 O417 O 0.55338 0.46459 -0.10225
 C418 C 0.59436 0.43848 -0.09312
 Zr419 Zr 0.57790 0.44822 -0.00044
 O420 O 0.65746 0.46639 0.00426
 O421 O 0.59602 0.36876 -0.00504
 Zr422 Zr 0.55169 0.57525 -0.00019
 O423 O 0.63128 0.59294 0.00444
 O424 O 0.53391 0.65487 -0.00492
 Zr425 Zr 0.50130 0.49861 -0.06116
 Zr426 Zr 0.50128 0.49870 0.06060
 O427 O 0.57432 0.51353 0.03516
 O428 O 0.57497 0.51377 -0.03668
 O429 O 0.51640 0.42503 0.03611
 O430 O 0.48630 0.57159 -0.03579
 O431 O 0.51607 0.42558 -0.03571
 O432 O 0.48609 0.57227 0.03595
 H433 H 0.39822 0.47823 0.05357
 H434 H 0.48037 0.60155 -0.05396
 H435 H 0.60428 0.51927 0.05339
 H436 H 0.52170 0.39559 -0.05390
 H437 H 0.42822 0.64706 0.01334
 H438 H 0.51377 0.66475 0.01945
 H439 H 0.64962 0.57210 -0.01622
 H440 H 0.66732 0.48620 -0.02029
 H441 H 0.57439 0.35025 0.01500
 H442 H 0.48860 0.33270 0.02000
 H443 H 0.35269 0.42996 -0.01356
 H444 H 0.32575 0.55911 0.00168
 C445 C 0.27998 1.18599 0.17225
 C446 C 0.29506 1.16029 0.14370
 C447 C 0.31731 1.13012 0.11189
 C448 C 0.34217 1.10558 0.08723
 C449 C 0.78034 0.68719 0.67173
 C450 C 0.79538 0.66170 0.64305
 C451 C 0.81754 0.63160 0.61116
 C452 C 0.84231 0.60696 0.58652
 C453 C 0.71934 0.81566 0.17295
 C454 C 0.70438 0.84252 0.14506
 C455 C 0.68223 0.87415 0.11412
 C456 C 0.65741 0.89958 0.09003
 C457 C 1.21898 0.31420 0.67226
 C458 C 1.20411 0.34083 0.64420
 C459 C 1.18214 0.37240 0.61316
 C460 C 1.15741 0.39792 0.58909
 C461 C 0.71638 1.19477 -0.17046
 C462 C 0.70074 1.16886 -0.14228
 C463 C 0.67838 1.13682 -0.11179
 C464 C 0.65381 1.11015 -0.08843
 C465 C 1.21692 0.69278 0.32895
 C466 C 1.20123 0.66694 0.35714
 C467 C 1.17865 0.63534 0.38779
 C468 C 1.15389 0.60917 0.41136
 C469 C 0.28478 0.80335 -0.16809
 C470 C 0.30003 0.82887 -0.13957
 C471 C 0.32191 0.86056 -0.10865
 C472 C 0.34621 0.88724 -0.08513
 C473 C 0.78393 0.30527 0.33143
 C474 C 0.79930 0.33068 0.35996
 C475 C 0.82148 0.36194 0.39098
 C476 C 0.84602 0.38815 0.41465
 C477 C 1.19461 0.28458 0.16918
 C478 C 1.16817 0.29997 0.14123
 C479 C 1.13547 0.32201 0.11107
 C480 C 1.10833 0.34639 0.08795
 C481 C 0.69339 0.78400 0.66951
 C482 C 0.66734 0.79941 0.64136
 C483 C 0.63531 0.82162 0.61086
 C484 C 0.60869 0.84618 0.58750
 C485 C 1.18596 0.71904 -0.17176
 C486 C 1.15995 0.70421 -0.14333
 C487 C 1.12932 0.68225 -0.11170
 C488 C 1.10437 0.65754 -0.08723
 C489 C 0.68673 1.21898 0.32875
 C490 C 0.66069 1.20416 0.35717
 C491 C 0.62988 1.18223 0.38872
 C492 C 0.60475 1.15757 0.41310
 C493 C 0.80384 0.71619 0.16896
 C494 C 0.82921 0.70066 0.14043
 C495 C 0.86059 0.67837 0.10948
 C496 C 0.88693 0.65383 0.08587
 C497 C 0.30506 1.21649 0.66932
 C498 C 0.32992 1.20087 0.64056
 C499 C 0.36042 1.17844 0.60916
 C500 C 0.38608 1.15380 0.58517
 C501 C 0.81573 0.27981 -0.17416
 C502 C 0.84217 0.29502 -0.14609
 C503 C 0.87319 0.31744 -0.11488
 C504 C 0.89811 0.34240 -0.09054
 C505 C 0.31447 0.77996 0.32643
 C506 C 0.34089 0.79518 0.35452
 C507 C 0.37207 0.81758 0.38566
 C508 C 0.39720 0.84252 0.40988
 C509 C 1.17675 1.19562 0.30933
 C510 C 1.14623 1.17245 0.32937
 C511 C 1.11175 1.14431 0.35294
 C512 C 1.08552 1.11990 0.37565
 C513 C 0.67956 0.69356 -0.19046
 C514 C 0.65034 0.66931 -0.17022
 C515 C 0.61720 0.64025 -0.14651
 C516 C 0.59152 0.61567 -0.12370
 C517 C 0.80532 1.17603 0.68937
 C518 C 0.82827 1.14513 0.66956
 C519 C 0.85614 1.11013 0.64630
 C520 C 0.88036 1.08349 0.62377
 C521 C 0.30751 0.67949 0.18888
 C522 C 0.33167 0.64999 0.16883
 C523 C 0.36050 0.61630 0.14543
 C524 C 0.38482 0.59008 0.12284
 C525 C 1.19629 0.82235 0.69121
 C526 C 1.17369 0.85295 0.67083
 C527 C 1.14626 0.88754 0.64683
 C528 C 1.12233 0.91385 0.62385
 C529 C 0.69404 0.31927 0.19078
 C530 C 0.67029 0.34854 0.17020
 C531 C 0.64191 0.38185 0.14611
 C532 C 0.61785 0.40776 0.12311
 C533 C 0.82257 0.80456 0.30967
 C534 C 0.85364 0.82698 0.32973
 C535 C 0.88900 0.85410 0.35324
 C536 C 0.91600 0.87776 0.37588
 C537 C 0.31949 0.30685 -0.19017
 C538 C 0.34916 0.33048 -0.16987
 C539 C 0.38309 0.35860 -0.14615
 C540 C 0.40953 0.38243 -0.12339
 C541 C 1.19298 0.28380 -0.17001
 C542 C 1.16675 0.29921 -0.14198
 C543 C 1.13452 0.32143 -0.11160
 C544 C 1.10779 0.34599 -0.08833
 C545 C 0.69463 0.78442 0.33066
 C546 C 0.66835 0.79980 0.35870
 C547 C 0.63582 0.82188 0.38897
 C548 C 0.60878 0.84629 0.41212
 C549 C 0.80512 0.71667 -0.16965
 C550 C 0.83007 0.70109 -0.14092
 C551 C 0.86071 0.67866 -0.10959
 C552 C 0.88645 0.65399 -0.08566
 C553 C 0.30371 1.21603 0.33087
 C554 C 0.32884 1.20049 0.35952
 C555 C 0.35994 1.17822 0.39067
 C556 C 0.38611 1.15371 0.41443
 C557 C 1.18692 0.71885 0.17091
 C558 C 1.16086 0.70407 0.14247
 C559 C 1.12999 0.68221 0.11094
 C560 C 1.10482 0.65757 0.08655
 C561 C 0.68634 1.21892 0.67125
 C562 C 0.66053 1.20409 0.64270
 C563 C 0.63015 1.18215 0.61091
 C564 C 0.60534 1.15749 0.58632
 C565 C 0.81469 0.28004 0.17346
 C566 C 0.84123 0.29524 0.14544
 C567 C 0.87256 0.31762 0.11440
 C568 C 0.89781 0.34255 0.09025
 C569 C 0.31542 0.77977 0.67366
 C570 C 0.34165 0.79501 0.64548
 C571 C 0.37242 0.81747 0.61414
 C572 C 0.39721 0.84247 0.58974
 C573 C 0.28012 1.18690 -0.17214
 C574 C 0.29520 1.16128 -0.14355
 C575 C 0.31742 1.13102 -0.11177
 C576 C 0.34225 1.10631 -0.08720
 C577 C 0.77983 0.68584 0.32744
 C578 C 0.79495 0.66018 0.35601
 C579 C 0.81727 0.63009 0.38784
 C580 C 0.84218 0.60561 0.41251
 C581 C 0.71688 1.19303 0.17074
 C582 C 0.70118 1.16710 0.14261
 C583 C 0.67861 1.13535 0.11205
 C584 C 0.65387 1.10907 0.08856
 C585 C 1.21616 0.69491 0.66997
 C586 C 1.20057 0.66911 0.64171
 C587 C 1.17828 0.63718 0.61112
 C588 C 1.15374 0.61057 0.58770
 C589 C 0.71897 0.81447 -0.17274
 C590 C 0.70407 0.84122 -0.14476
 C591 C 0.68207 0.87291 -0.11381
 C592 C 0.65735 0.89848 -0.08976
 C593 C 1.21929 0.31537 0.32692
 C594 C 1.20430 0.34207 0.35490
 C595 C 1.18215 0.37350 0.38595
 C596 C 1.15734 0.39880 0.41012
 C597 C 0.28393 0.80543 0.16845
 C598 C 0.29932 0.83098 0.14002
 C599 C 0.32153 0.86237 0.10910
 C600 C 0.34609 0.88866 0.08551
 C601 C 0.78494 0.30318 0.66760
 C602 C 0.80020 0.32850 0.63898
 C603 C 0.82210 0.35997 0.60796
 C604 C 0.84639 0.38653 0.58437
 C605 C 1.17959 1.19342 0.68995
 C606 C 1.15042 1.16923 0.66964
 C607 C 1.11730 1.14024 0.64586
 C608 C 1.09163 1.11570 0.62303
 C609 C 0.67670 0.69588 0.19023
 C610 C 0.64625 0.67275 0.17008
 C611 C 0.61188 0.64458 0.14642
 C612 C 0.58576 0.62010 0.12367
 C613 C 1.19376 0.81889 0.30891
 C614 C 1.16993 0.84815 0.32941
 C615 C 1.14153 0.88152 0.35342
 C616 C 1.11751 0.90749 0.37638
 C617 C 0.69634 0.32223 -0.19167
 C618 C 0.67359 0.35277 -0.17134
 C619 C 0.64601 0.38731 -0.14739
 C620 C 0.62203 0.41364 -0.12445
 C621 C 0.80712 1.17932 0.31086
 C622 C 0.83116 1.14966 0.33084
 C623 C 0.85992 1.11581 0.35415
 C624 C 0.88426 1.08951 0.37667
 C625 C 0.30503 0.67601 -0.18976
 C626 C 0.32793 0.64505 -0.16993
 C627 C 0.35572 0.60993 -0.14668
 C628 C 0.37990 0.58318 -0.12418
 C629 C 0.81976 0.80707 0.68993
 C630 C 0.84943 0.83070 0.66965
 C631 C 0.88334 0.85879 0.64589
 C632 C 0.90974 0.88256 0.62307
 C633 C 0.32266 0.30479 0.19022
 C634 C 0.35365 0.32732 0.17015
 C635 C 0.38886 0.35456 0.14658
 C636 C 0.41574 0.37829 0.12387
   
