data_POSCAR
  _audit_creation_date              2014-09-24
  _audit_creation_method            'ToBaCCo'
  _symmetry_space_group_name_H-M    'P1'
  _symmetry_Int_Tables_number       1
  _symmetry_cell_setting            triclinic
  loop_
  _symmetry_equiv_pos_as_xyz
 x,y,z
_cell_length_a 29.5106
_cell_length_b 30.6194
_cell_length_c 85.1470
_cell_angle_alpha 90.146100
_cell_angle_beta 89.877900
_cell_angle_gamma 113.103300
loop_
  _atom_site_label
  _atom_site_type_symbol
  _atom_site_fract_x
  _atom_site_fract_y
  _atom_site_fract_z
C1 C 0.01677 0.08738 0.49971
 H2 H 0.04641 0.09898 0.49128
 C3 C 0.01304 0.12035 0.51033
 H4 H 0.03932 0.15680 0.50956
 C5 C -0.05106 0.02579 0.51150
 H6 H -0.07490 -0.01148 0.51215
 C7 C -0.05621 0.05792 0.52244
 H8 H -0.08447 0.04513 0.53138
 N9 N -0.01458 0.04093 0.50052
 C10 C 0.05030 -0.03012 0.51196
 H11 H 0.07450 0.00707 0.51252
 C12 C 0.05484 -0.06201 0.52305
 H13 H 0.08301 -0.04914 0.53201
 C14 C -0.01781 -0.09168 0.50028
 H15 H -0.04734 -0.10333 0.49183
 C16 C -0.01473 -0.12440 0.51106
 H17 H -0.04135 -0.16074 0.51038
 Zn18 Zn 0.00030 -0.00241 0.48757
 N19 N 0.01408 -0.04538 0.50092
 C20 C 0.10100 0.03868 0.47575
 N21 N 0.05322 0.03341 0.47425
 C22 C 0.03934 0.05711 0.46303
 C23 C 0.07412 0.08930 0.45323
 C24 C 0.13738 0.07080 0.46606
 C25 C -0.09900 -0.04237 0.47472
 C26 C -0.13466 -0.07402 0.46472
 C27 C -0.07118 -0.09528 0.45315
 C28 C -0.03719 -0.06341 0.46324
 N29 N -0.05156 -0.03855 0.47397
 H30 H 0.11114 0.01930 0.48472
 H31 H 0.00110 0.05222 0.46211
 H32 H 0.06192 0.10844 0.44468
 H33 H 0.17551 0.07586 0.46765
 H34 H -0.10946 -0.02192 0.48329
 H35 H -0.17241 -0.07720 0.46577
 H36 H -0.05797 -0.11500 0.44505
 H37 H 0.00086 -0.05949 0.46290
 C38 C 0.02128 -0.10972 0.52284
 C39 C -0.02305 0.10577 0.52211
 C40 C -0.12122 -0.10203 0.45390
 C41 C 0.12405 0.09737 0.45486
 C42 C 1.09180 0.01702 0.17023
 H43 H 1.10459 0.04522 0.17879
 C44 C 1.12506 0.01356 0.15919
 H45 H 1.16305 0.03861 0.15976
 C46 C 1.02663 -0.04747 0.15852
 H47 H 0.98782 -0.07006 0.15804
 C48 C 1.05893 -0.05230 0.14719
 H49 H 1.04470 -0.07910 0.13813
 N50 N 1.04345 -0.01283 0.16964
 C51 C 0.97156 0.04970 0.15867
 H52 H 1.01038 0.07225 0.15820
 C53 C 0.93934 0.05456 0.14738
 H54 H 0.95364 0.08136 0.13836
 C55 C 0.90628 -0.01476 0.17034
 H56 H 0.89342 -0.04297 0.17886
 C57 C 0.87309 -0.01125 0.15934
 H58 H 0.83509 -0.03628 0.15990
 Zn59 Zn 0.99902 0.00102 0.18292
 N60 N 0.95466 0.01504 0.16975
 C61 C 1.03885 0.09702 0.19529
 N62 N 1.03610 0.05171 0.19635
 C63 C 1.06255 0.03935 0.20721
 C64 C 1.09508 0.07337 0.21711
 C65 C 1.07107 0.13247 0.20510
 C66 C 0.95924 -0.09512 0.19503
 C67 C 0.92707 -0.13074 0.20478
 C68 C 0.90286 -0.07190 0.21703
 C69 C 0.93536 -0.03771 0.20719
 N70 N 0.96189 -0.04987 0.19624
 H71 H 1.01714 0.10592 0.18663
 H72 H 1.05941 0.00298 0.20782
 H73 H 1.11642 0.06255 0.22541
 H74 H 1.07390 0.16864 0.20390
 H75 H 0.98104 -0.10386 0.18631
 H76 H 0.92434 -0.16686 0.20346
 H77 H 0.88146 -0.06125 0.22541
 H78 H 0.93843 -0.00138 0.20792
 C79 C 0.88955 0.02301 0.14744
 C80 C 1.10871 -0.02072 0.14726
 C81 C 0.89766 -0.11933 0.21576
 C82 C 1.10041 0.12084 0.21598
 C83 C 0.07247 0.97494 0.84269
 H84 H 0.05809 0.94459 0.83498
 C85 C 0.10830 0.97716 0.85363
 H86 H 0.12164 0.94889 0.85385
 C87 C 0.07013 1.04656 0.85244
 H88 H 0.05390 1.07268 0.85217
 C89 C 0.10626 1.05028 0.86360
 H90 H 0.11798 1.07973 0.87179
 N91 N 0.05389 1.00915 0.84231
 C92 C -0.07260 0.95180 0.85238
 H93 H -0.05686 0.92530 0.85196
 C94 C -0.10878 0.94820 0.86356
 H95 H -0.12092 0.91829 0.87153
 C96 C -0.07373 1.02406 0.84297
 H97 H -0.05889 1.05456 0.83536
 C98 C -0.10950 1.02209 0.85395
 H99 H -0.12211 1.05087 0.85422
 Zn100 Zn -0.00100 0.99917 0.82915
 N101 N -0.05579 0.98942 0.84240
 C102 C -0.05019 0.90583 0.81521
 N103 N -0.00984 0.94742 0.81564
 C104 C 0.02860 0.95585 0.80565
 C105 C 0.02840 0.92136 0.79499
 C106 C -0.05216 0.87018 0.80453
 C107 C 0.04814 1.09228 0.81517
 C108 C 0.05007 1.12777 0.80449
 C109 C -0.03069 1.07660 0.79511
 C110 C -0.03085 1.04226 0.80578
 N111 N 0.00773 1.05075 0.81567
 H112 H -0.08074 0.90027 0.82308
 H113 H 0.05988 0.98954 0.80614
 H114 H 0.05979 0.92906 0.78727
 H115 H -0.08429 0.83709 0.80434
 H116 H 0.07876 1.09789 0.82298
 H117 H 0.08226 1.16081 0.80423
 H118 H -0.06217 1.06884 0.78746
 H119 H -0.06218 1.00863 0.80633
 C120 C -0.12714 0.98423 0.86468
 C121 C 0.12516 1.01473 0.86446
 C122 C 0.01000 1.12015 0.79437
 C123 C -0.01220 0.87772 0.79433
 O124 O 0.44153 -0.03772 -0.00972
 O125 O 0.52877 -0.03638 0.02164
 O126 O 0.43860 -0.04117 0.02085
 O127 O 0.52867 -0.04031 -0.00894
 O128 O 0.55837 0.03806 -0.00976
 O129 O 0.47099 0.03724 0.02161
 O130 O 0.56120 0.04201 0.02083
 O131 O 0.47130 0.04066 -0.00897
 Cu132 Cu 0.48130 -0.04673 0.00597
 Cu133 Cu 0.51858 0.04732 0.00594
 C134 C 0.44155 0.00156 -0.01457
 C135 C 0.56018 0.00334 0.02644
 C136 C 0.43956 -0.00241 0.02643
 C137 C 0.55840 -0.00130 -0.01459
 O138 O 0.03812 0.55480 0.67380
 O139 O 0.03679 0.46923 0.64283
 O140 O 0.04204 0.55651 0.64328
 O141 O 0.04085 0.47108 0.67347
 O142 O -0.04054 0.44096 0.67376
 O143 O -0.03933 0.52655 0.64297
 O144 O -0.04458 0.43924 0.64324
 O145 O -0.04328 0.52466 0.67360
 Cu146 Cu 0.04757 0.51586 0.65829
 Cu147 Cu -0.05005 0.47988 0.65835
 C148 C -0.00269 0.55394 0.67899
 C149 C -0.00443 0.43935 0.63789
 C150 C 0.00188 0.55643 0.63802
 C151 C 0.00028 0.44183 0.67888
 O152 O 0.51788 0.55970 0.32099
 O153 O 0.43885 0.47880 0.35125
 O154 O 0.51455 0.55994 0.35153
 O155 O 0.43733 0.48269 0.32074
 O156 O 0.48286 0.44011 0.32083
 O157 O 0.56365 0.52098 0.35080
 O158 O 0.48789 0.43977 0.35135
 O159 O 0.56336 0.51707 0.32029
 Cu160 Cu 0.47243 0.52434 0.33616
 Cu161 Cu 0.52915 0.47540 0.33579
 C162 C 0.55412 0.55186 0.31549
 C163 C 0.45022 0.44551 0.35645
 C164 C 0.55257 0.55426 0.35626
 C165 C 0.44633 0.44796 0.31567
 C166 C -0.02096 0.20354 0.55708
 N167 N 0.01721 0.21319 0.54696
 N168 N 0.01596 0.18223 0.53582
 C169 C -0.02337 0.14022 0.53434
 N170 N -0.06165 0.13047 0.54452
 N171 N -0.06054 0.16166 0.55565
 C172 C -0.01871 0.23809 0.56938
 N173 N -0.05859 0.23240 0.57841
 N174 N -0.05613 0.26432 0.58941
 C175 C -0.01364 0.30289 0.59184
 N176 N 0.02624 0.30841 0.58286
 N177 N 0.02370 0.27667 0.57181
 C178 C -0.01095 0.33829 0.60388
 N179 N 0.03279 0.37382 0.60758
 N180 N 0.03512 0.40606 0.61845
 C181 C -0.00631 0.40407 0.62593
 N182 N -0.05001 0.36860 0.62220
 N183 N -0.05229 0.33625 0.61141
 C184 C 0.79115 0.77721 0.24337
 N185 N 0.82506 0.76631 0.23526
 N186 N 0.85904 0.79900 0.22647
 C187 C 0.86053 0.84386 0.22554
 N188 N 0.82653 0.85450 0.23368
 N189 N 0.79253 0.82188 0.24239
 C190 C 0.75375 0.74183 0.25321
 N191 N 0.71808 0.75261 0.26024
 N192 N 0.68465 0.72127 0.26950
 C193 C 0.68572 0.67800 0.27211
 N194 N 0.72130 0.66711 0.26505
 N195 N 0.75466 0.69842 0.25573
 C196 C 0.65004 0.64427 0.28284
 N197 N 0.65444 0.60326 0.28685
 N198 N 0.62337 0.57359 0.29709
 C199 C 0.58663 0.58371 0.30365
 N200 N 0.58193 0.62453 0.29955
 N201 N 0.61314 0.65431 0.28934
 C202 C 0.22117 0.01288 -0.09946
 N203 N 0.20047 -0.02501 -0.10912
 N204 N 0.17059 -0.02397 -0.12067
 C205 C 0.16006 0.01491 -0.12302
 N206 N 0.18090 0.05292 -0.11333
 N207 N 0.21101 0.05197 -0.10180
 C208 C 0.25351 0.01107 -0.08660
 N209 N 0.27791 0.05003 -0.07768
 N210 N 0.30721 0.04812 -0.06604
 C211 C 0.31296 0.00715 -0.06286
 N212 N 0.28844 -0.03182 -0.07175
 N213 N 0.25932 -0.02986 -0.08343
 C214 C 0.34563 0.00524 -0.05013
 N215 N 0.34843 -0.03649 -0.04602
 N216 N 0.37861 -0.03794 -0.03459
 C217 C 0.40720 0.00235 -0.02690
 N218 N 0.40434 0.04401 -0.03101
 N219 N 0.37405 0.04542 -0.04238
 C220 C 0.01843 0.79293 0.55788
 N221 N 0.05837 0.83447 0.55632
 N222 N 0.05966 0.86557 0.54519
 C223 C 0.02121 0.85607 0.53514
 N224 N -0.01850 0.81442 0.53674
 N225 N -0.01992 0.78355 0.54788
 C226 C 0.01610 0.75837 0.57012
 N227 N -0.02646 0.72002 0.57262
 N228 N -0.02902 0.68819 0.58358
 C229 C 0.01100 0.69339 0.59240
 N230 N 0.05363 0.73173 0.58991
 N231 N 0.05612 0.76373 0.57899
 C232 C 0.00833 0.65784 0.60433
 N233 N 0.04972 0.65965 0.61171
 N234 N 0.04746 0.62718 0.62239
 C235 C 0.00373 0.59181 0.62616
 N236 N -0.03776 0.59004 0.61882
 N237 N -0.03545 0.62241 0.60806
 C238 C 0.20722 0.22378 0.24369
 N239 N 0.20581 0.17913 0.24251
 N240 N 0.17171 0.14668 0.23376
 C241 C 0.13763 0.15747 0.22580
 N242 N 0.13915 0.20233 0.22694
 N243 N 0.17322 0.23485 0.23576
 C244 C 0.24477 0.25897 0.25356
 N245 N 0.24387 0.30230 0.25633
 N246 N 0.27742 0.33343 0.26565
 C247 C 0.31318 0.32242 0.27247
 N248 N 0.31422 0.27923 0.26960
 N249 N 0.28061 0.24808 0.26034
 C250 C 0.34914 0.35596 0.28318
 N251 N 0.38632 0.34587 0.28937
 N252 N 0.41789 0.37550 0.29953
 C253 C 0.41328 0.41622 0.30392
 N254 N 0.37625 0.42638 0.29767
 N255 N 0.34482 0.39686 0.28747
 C256 C 0.77783 -0.01417 -0.09988
 N257 N 0.79138 -0.05153 -0.10145
 N258 N 0.82167 -0.05242 -0.11298
 C259 C 0.83939 -0.01612 -0.12346
 N260 N 0.82521 0.02091 -0.12189
 N261 N 0.79519 0.02194 -0.11034
 C262 C 0.74560 -0.01217 -0.08697
 N263 N 0.73766 0.02802 -0.08433
 N264 N 0.70875 0.03024 -0.07259
 C265 C 0.68655 -0.00774 -0.06308
 N266 N 0.69441 -0.04798 -0.06573
 N267 N 0.72354 -0.05011 -0.07744
 C268 C 0.65408 -0.00559 -0.05027
 N269 N 0.62682 -0.04537 -0.04217
 N270 N 0.59661 -0.04376 -0.03075
 C271 C 0.59274 -0.00228 -0.02694
 N272 N 0.62022 0.03763 -0.03497
 N273 N 0.65027 0.03597 -0.04647
 C274 C 0.20576 -0.01819 0.11080
 N275 N 0.16209 -0.05595 0.11243
 N276 N 0.13124 -0.05719 0.12407
 C277 C 0.14310 -0.02088 0.13457
 N278 N 0.18692 0.01662 0.13291
 N279 N 0.21757 0.01799 0.12127
 C280 C 0.23976 -0.01584 0.09790
 N281 N 0.27997 0.02473 0.09530
 N282 N 0.31114 0.02727 0.08367
 C283 C 0.30339 -0.01077 0.07425
 N284 N 0.26319 -0.05141 0.07684
 N285 N 0.23184 -0.05387 0.08843
 C286 C 0.33831 -0.00821 0.06161
 N287 N 0.33444 -0.04792 0.05363
 N288 N 0.36667 -0.04585 0.04240
 C289 C 0.40380 -0.00398 0.03865
 N290 N 0.40755 0.03584 0.04657
 N291 N 0.37544 0.03372 0.05788
 C292 C 0.77827 0.79572 0.42678
 N293 N 0.76376 0.82361 0.43626
 N294 N 0.79651 0.85734 0.44510
 C295 C 0.84514 0.86474 0.44473
 N296 N 0.85921 0.83683 0.43507
 N297 N 0.82659 0.80307 0.42634
 C298 C 0.74287 0.75795 0.41712
 N299 N 0.75761 0.72706 0.40932
 N300 N 0.72625 0.69303 0.40033
 C301 C 0.67896 0.68870 0.39873
 N302 N 0.66409 0.71953 0.40655
 N303 N 0.69545 0.75348 0.41564
 C304 C 0.64513 0.65226 0.38830
 N305 N 0.60021 0.65206 0.38481
 N306 N 0.57049 0.62032 0.37477
 C307 C 0.58445 0.58744 0.36792
 N308 N 0.62918 0.58732 0.37152
 N309 N 0.65901 0.61924 0.38151
 C310 C 0.00851 0.22163 0.76154
 N311 N 0.05092 0.22702 0.76908
 N312 N 0.05156 0.19516 0.77965
 C313 C 0.00984 0.15666 0.78301
 N314 N -0.03245 0.15161 0.77547
 N315 N -0.03314 0.18344 0.76498
 C316 C 0.00741 0.25570 0.74960
 N317 N -0.03589 0.25087 0.74280
 N318 N -0.03720 0.28089 0.73170
 C319 C 0.00480 0.31678 0.72693
 N320 N 0.04815 0.32171 0.73374
 N321 N 0.04944 0.29174 0.74489
 C322 C 0.00342 0.34932 0.71448
 N323 N 0.04578 0.38300 0.70890
 N324 N 0.04462 0.41228 0.69752
 C325 C 0.00107 0.40904 0.69131
 N326 N -0.04136 0.37541 0.69690
 N327 N -0.04018 0.34601 0.70826
 C328 C 0.79287 0.02027 0.11098
 N329 N 0.78088 -0.01578 0.12146
 N330 N 0.81140 -0.01432 0.13311
 C331 C 0.85526 0.02314 0.13476
 N332 N 0.86729 0.05932 0.12425
 N333 N 0.83657 0.05799 0.11261
 C334 C 0.75904 0.01778 0.09806
 N335 N 0.76713 0.05567 0.08856
 N336 N 0.73594 0.05307 0.07695
 C337 C 0.69575 0.01241 0.07435
 N338 N 0.68782 -0.02549 0.08380
 N339 N 0.71883 -0.02281 0.09546
 C340 C 0.66100 0.00967 0.06169
 N341 N 0.62390 -0.03230 0.05796
 N342 N 0.59194 -0.03459 0.04662
 C343 C 0.59581 0.00510 0.03868
 N344 N 0.63292 0.04702 0.04241
 N345 N 0.66500 0.04926 0.05367
 C346 C 0.22809 0.20506 0.42790
 N347 N 0.18068 0.20073 0.42881
 N348 N 0.14798 0.16635 0.43731
 C349 C 0.16122 0.13487 0.44530
 N350 N 0.20885 0.13930 0.44445
 N351 N 0.24166 0.17368 0.43585
 C352 C 0.26337 0.24296 0.41826
 N353 N 0.30956 0.24512 0.41555
 N354 N 0.34056 0.27893 0.40636
 C355 C 0.32656 0.31187 0.39963
 N356 N 0.28053 0.30986 0.40245
 N357 N 0.24953 0.27600 0.41157
 C358 C 0.35978 0.34805 0.38900
 N359 N 0.34632 0.38209 0.38287
 N360 N 0.37547 0.41376 0.37270
 C361 C 0.41910 0.41241 0.36826
 N362 N 0.43267 0.37853 0.37446
 N363 N 0.40361 0.34698 0.38466
 C364 C -0.01071 0.77558 0.76158
 N365 N 0.03090 0.81396 0.76491
 N366 N 0.03021 0.84601 0.77537
 C367 C -0.01204 0.84101 0.78299
 N368 N -0.05370 0.80232 0.77974
 N369 N -0.05306 0.77024 0.76920
 C370 C -0.00961 0.74124 0.74967
 N371 N -0.05162 0.70500 0.74506
 N372 N -0.05035 0.67479 0.73394
 C373 C -0.00704 0.67966 0.72706
 N374 N 0.03495 0.71575 0.73174
 N375 N 0.03366 0.74601 0.74282
 C376 C -0.00568 0.64688 0.71463
 N377 N 0.03788 0.65016 0.70834
 N378 N 0.03902 0.62060 0.69697
 C379 C -0.00342 0.58683 0.69145
 N380 N -0.04694 0.58361 0.69774
 N381 N -0.04807 0.61306 0.70912
   
