data_POSCAR
  _audit_creation_date              2014-09-24
  _audit_creation_method            'ToBaCCo'
  _symmetry_space_group_name_H-M    'P1'
  _symmetry_Int_Tables_number       1
  _symmetry_cell_setting            triclinic
  loop_
  _symmetry_equiv_pos_as_xyz
 x,y,z
_cell_length_a 51.3918
_cell_length_b 48.5122
_cell_length_c 47.9822
_cell_angle_alpha 84.579600
_cell_angle_beta 94.086600
_cell_angle_gamma 95.201900
loop_
  _atom_site_label
  _atom_site_type_symbol
  _atom_site_fract_x
  _atom_site_fract_y
  _atom_site_fract_z
C1 C 0.28601 0.29623 0.24450
 H2 H 0.28846 0.29613 0.26709
 C3 C 0.30326 0.31305 0.22767
 H4 H 0.31906 0.32578 0.23750
 C5 C 0.26312 0.27870 0.20440
 H6 H 0.24779 0.26493 0.19539
 C7 C 0.27993 0.29515 0.18680
 H8 H 0.27691 0.29427 0.16432
 N9 N 0.26633 0.27963 0.23270
 C10 C 0.20827 0.26276 0.29566
 H11 H 0.20631 0.24028 0.29724
 C12 C 0.19304 0.27706 0.31144
 H13 H 0.17963 0.26538 0.32547
 C14 C 0.22826 0.30518 0.27542
 H15 H 0.24163 0.31609 0.26097
 C16 C 0.21343 0.32031 0.29083
 H17 H 0.21558 0.34279 0.28801
 Zn18 Zn 0.24491 0.25598 0.25700
 N19 N 0.22563 0.27692 0.27829
 C20 C 0.26793 0.23319 0.30909
 N21 N 0.26744 0.23391 0.28064
 C22 C 0.28381 0.21934 0.26783
 C23 C 0.30102 0.20255 0.28372
 C24 C 0.28491 0.21666 0.32582
 C25 C 0.20225 0.24554 0.21854
 C26 C 0.18433 0.22970 0.20201
 C27 C 0.20364 0.18836 0.22268
 C28 C 0.22121 0.20499 0.23876
 N29 N 0.22055 0.23308 0.23604
 H30 H 0.25519 0.24537 0.31889
 H31 H 0.28335 0.22073 0.24517
 H32 H 0.31395 0.19120 0.27308
 H33 H 0.28470 0.21592 0.34842
 H34 H 0.20185 0.26789 0.21717
 H35 H 0.17001 0.24001 0.18806
 H36 H 0.20498 0.16611 0.22459
 H37 H 0.23546 0.19536 0.25324
 C38 C 0.19554 0.30624 0.30916
 C39 C 0.30041 0.31254 0.19838
 C40 C 0.18504 0.20070 0.20377
 C41 C 0.30162 0.20091 0.31313
 C42 C 0.78405 0.79374 0.24414
 H43 H 0.78692 0.79360 0.26671
 C44 C 0.80092 0.81071 0.22698
 H45 H 0.81691 0.82280 0.23716
 C46 C 0.76064 0.77609 0.20453
 H47 H 0.74509 0.76238 0.19580
 C48 C 0.77703 0.79263 0.18655
 H49 H 0.77266 0.79185 0.16426
 N50 N 0.76427 0.77706 0.23274
 C51 C 0.70691 0.76097 0.29646
 H52 H 0.70490 0.73849 0.29831
 C53 C 0.69187 0.77553 0.31220
 H54 H 0.67857 0.76406 0.32648
 C55 C 0.72680 0.80313 0.27554
 H56 H 0.74004 0.81383 0.26084
 C57 C 0.71217 0.81851 0.29089
 H58 H 0.71435 0.84098 0.28778
 Zn59 Zn 0.74312 0.75363 0.25750
 N60 N 0.72413 0.77488 0.27877
 C61 C 0.76660 0.73146 0.30957
 N62 N 0.76582 0.73174 0.28114
 C63 C 0.78201 0.71691 0.26841
 C64 C 0.79936 0.70030 0.28436
 C65 C 0.78371 0.71515 0.32637
 C66 C 0.69995 0.74306 0.21983
 C67 C 0.68173 0.72722 0.20363
 C68 C 0.70125 0.68588 0.22395
 C69 C 0.71911 0.70252 0.23972
 N70 N 0.71848 0.73062 0.23701
 H71 H 0.75400 0.74386 0.31931
 H72 H 0.78134 0.71794 0.24575
 H73 H 0.81214 0.68875 0.27378
 H74 H 0.78372 0.71477 0.34896
 H75 H 0.69957 0.76542 0.21847
 H76 H 0.66723 0.73753 0.18995
 H77 H 0.70258 0.66362 0.22582
 H78 H 0.73357 0.69291 0.25394
 C79 C 0.69443 0.80472 0.30955
 C80 C 0.79780 0.81043 0.19749
 C81 C 0.68241 0.69822 0.20537
 C82 C 0.80026 0.69914 0.31377
 C83 C 0.78579 0.29310 0.74627
 H84 H 0.78848 0.29329 0.76883
 C85 C 0.80292 0.30963 0.72906
 H86 H 0.81886 0.32241 0.73857
 C87 C 0.76238 0.27518 0.70665
 H88 H 0.74687 0.26138 0.69797
 C89 C 0.77906 0.29133 0.68867
 H90 H 0.77578 0.29019 0.66625
 N91 N 0.76590 0.27646 0.73488
 C92 C 0.70839 0.26126 0.79854
 H93 H 0.70631 0.23878 0.80067
 C94 C 0.69322 0.27610 0.81386
 H95 H 0.67936 0.26485 0.82767
 C96 C 0.72828 0.30314 0.77703
 H97 H 0.74166 0.31362 0.76236
 C98 C 0.71347 0.31879 0.79190
 H99 H 0.71608 0.34125 0.78890
 Zn100 Zn 0.74460 0.25334 0.75974
 N101 N 0.72564 0.27490 0.78073
 C102 C 0.76800 0.23117 0.81188
 N103 N 0.76722 0.23152 0.78353
 C104 C 0.78351 0.21687 0.77086
 C105 C 0.80113 0.20056 0.78673
 C106 C 0.78528 0.21509 0.82871
 C107 C 0.70150 0.24263 0.72202
 C108 C 0.68330 0.22669 0.70589
 C109 C 0.70267 0.18541 0.72663
 C110 C 0.72052 0.20214 0.74233
 N111 N 0.71995 0.23024 0.73937
 H112 H 0.75547 0.24368 0.82159
 H113 H 0.78256 0.21763 0.74820
 H114 H 0.81238 0.18830 0.77520
 H115 H 0.78566 0.21671 0.85102
 H116 H 0.70119 0.26499 0.72046
 H117 H 0.66887 0.23695 0.69207
 H118 H 0.70395 0.16315 0.72870
 H119 H 0.73492 0.19259 0.75667
 C120 C 0.69562 0.30528 0.81060
 C121 C 0.79972 0.30879 0.69983
 C122 C 0.68391 0.19768 0.70788
 C123 C 0.80254 0.19912 0.81647
 C124 C 0.28453 0.79552 0.74321
 H125 H 0.28690 0.79514 0.76583
 C126 C 0.30212 0.81216 0.72663
 H127 H 0.31810 0.82446 0.73669
 C128 C 0.26142 0.77894 0.70278
 H129 H 0.24585 0.76561 0.69354
 C130 C 0.27856 0.79523 0.68542
 H131 H 0.27558 0.79467 0.66291
 N132 N 0.26456 0.77950 0.73112
 C133 C 0.20610 0.76377 0.79373
 H134 H 0.20358 0.74130 0.79514
 C135 C 0.19119 0.77843 0.80950
 H136 H 0.17707 0.76707 0.82292
 C137 C 0.22696 0.80580 0.77364
 H138 H 0.24065 0.81642 0.75938
 C139 C 0.21242 0.82129 0.78899
 H140 H 0.21552 0.84374 0.78675
 Zn141 Zn 0.24258 0.75619 0.75512
 N142 N 0.22374 0.77755 0.77645
 C143 C 0.26505 0.73274 0.80719
 N144 N 0.26453 0.73343 0.77875
 C145 C 0.28057 0.71849 0.76594
 C146 C 0.29755 0.70142 0.78183
 C147 C 0.28180 0.71595 0.82392
 C148 C 0.19990 0.74712 0.71636
 C149 C 0.18169 0.73187 0.69958
 C150 C 0.19995 0.68982 0.71993
 C151 C 0.21783 0.70587 0.73627
 N152 N 0.21783 0.73404 0.73383
 H153 H 0.25258 0.74522 0.81699
 H154 H 0.28012 0.71986 0.74328
 H155 H 0.31028 0.68984 0.77119
 H156 H 0.28166 0.71530 0.84653
 H157 H 0.20002 0.76952 0.71521
 H158 H 0.16769 0.74268 0.68568
 H159 H 0.20077 0.66750 0.72162
 H160 H 0.23179 0.69576 0.75071
 C161 C 0.19425 0.80761 0.80724
 C162 C 0.29931 0.81207 0.69731
 C163 C 0.18173 0.70282 0.70106
 C164 C 0.29825 0.69988 0.81124
 C165 C 0.02685 -0.02542 -0.02907
 C166 C 0.04392 -0.00750 -0.00912
 C167 C 0.03036 0.00728 0.00679
 C168 C 0.00047 0.00241 0.00154
 C169 C 0.00799 -0.04366 -0.01025
 C170 C -0.00589 -0.02930 0.00582
 C171 C 0.00910 -0.00517 -0.04613
 C172 C -0.00458 0.00948 -0.03017
 H173 H 0.06509 -0.00663 -0.00796
 H174 H -0.01069 0.01454 0.01426
 H175 H 0.00562 -0.06607 -0.01012
 H176 H 0.00557 -0.00419 -0.06865
 C177 C 0.02697 0.47480 0.46978
 C178 C 0.04315 0.49488 0.48845
 C179 C 0.02872 0.50894 0.50422
 C180 C -0.00099 0.50154 0.49980
 C181 C 0.00981 0.45599 0.48980
 C182 C -0.00503 0.46972 0.50540
 C183 C 0.00788 0.49336 0.45237
 C184 C -0.00685 0.50720 0.46802
 H185 H 0.06430 0.49781 0.48882
 H186 H -0.01313 0.51288 0.51228
 H187 H 0.00944 0.43355 0.49117
 H188 H 0.00742 0.49730 0.42981
 C189 C 0.52875 -0.02322 0.46964
 C190 C 0.54501 -0.00452 0.48965
 C191 C 0.53062 0.00932 0.50567
 C192 C 0.50086 0.00373 0.49954
 C193 C 0.51023 -0.04193 0.48835
 C194 C 0.49563 -0.02801 0.50400
 C195 C 0.51106 -0.00325 0.45219
 C196 C 0.49614 0.01056 0.46767
 H197 H 0.56619 -0.00197 0.49042
 H198 H 0.48872 0.01483 0.51222
 H199 H 0.50924 -0.06440 0.48937
 H200 H 0.51126 0.00098 0.42970
 C201 C 0.52689 0.47718 -0.03261
 C202 C 0.54318 0.49613 -0.01289
 C203 C 0.52884 0.51005 0.00311
 C204 C 0.49907 0.50426 -0.00275
 C205 C 0.50857 0.45853 -0.01360
 C206 C 0.49402 0.47252 0.00204
 C207 C 0.50895 0.49688 -0.05010
 C208 C 0.49409 0.51077 -0.03463
 H209 H 0.56436 0.49866 -0.01220
 H210 H 0.48698 0.51543 0.00992
 H211 H 0.50767 0.43605 -0.01238
 H212 H 0.50886 0.50090 -0.07262
 C213 C 0.15313 -0.13673 -0.17337
 C214 C 0.14824 -0.14592 -0.14556
 C215 C 0.15841 -0.17027 -0.13312
 C216 C 0.17338 -0.18539 -0.14843
 C217 C 0.17841 -0.17632 -0.17642
 C218 C 0.16811 -0.15180 -0.18872
 C219 C 0.13272 -0.13039 -0.12987
 C220 C 0.11965 -0.11731 -0.11690
 C221 C 0.10427 -0.10189 -0.10190
 C222 C 0.09105 -0.08865 -0.08927
 C223 C 0.07516 -0.07275 -0.07440
 C224 C 0.07111 -0.08020 -0.04608
 C225 C 0.05556 -0.06481 -0.03173
 C226 C 0.04337 -0.04196 -0.04557
 C227 C 0.04836 -0.03419 -0.07391
 C228 C 0.06392 -0.04962 -0.08819
 H229 H 0.14528 -0.11796 -0.18324
 H230 H 0.15479 -0.17754 -0.11158
 H231 H 0.18130 -0.20399 -0.13827
 H232 H 0.17131 -0.14448 -0.21032
 H233 H 0.08002 -0.09785 -0.03506
 H234 H 0.05307 -0.07076 -0.00970
 H235 H 0.04085 -0.01597 -0.08518
 H236 H 0.06734 -0.04337 -0.11000
 C237 C 0.13766 0.32801 0.34427
 C238 C 0.14866 0.35201 0.35612
 C239 C 0.17501 0.36097 0.35280
 C240 C 0.19029 0.34606 0.33763
 C241 C 0.17940 0.32194 0.32555
 C242 C 0.15291 0.31305 0.32910
 C243 C 0.13285 0.36760 0.37141
 C244 C 0.11957 0.38075 0.38407
 C245 C 0.10396 0.39626 0.39871
 C246 C 0.09059 0.40961 0.41104
 C247 C 0.07458 0.42569 0.42556
 C248 C 0.08044 0.42951 0.45390
 C249 C 0.06496 0.44530 0.46788
 C250 C 0.04358 0.45800 0.45366
 C251 C 0.03742 0.45317 0.42530
 C252 C 0.05294 0.43737 0.41137
 H253 H 0.11726 0.32095 0.34662
 H254 H 0.18374 0.37950 0.36193
 H255 H 0.21069 0.35323 0.33558
 H256 H 0.14386 0.29480 0.31976
 H257 H 0.09694 0.42024 0.46522
 H258 H 0.06971 0.44760 0.48994
 H259 H 0.02044 0.46096 0.41371
 H260 H 0.04795 0.43410 0.38954
 C261 C 0.63696 -0.17277 0.34478
 C262 C 0.64814 -0.14861 0.35620
 C263 C 0.67447 -0.13981 0.35260
 C264 C 0.68956 -0.15503 0.33754
 C265 C 0.67850 -0.17930 0.32587
 C266 C 0.65203 -0.18804 0.32972
 C267 C 0.63253 -0.13269 0.37137
 C268 C 0.61944 -0.11924 0.38393
 C269 C 0.60411 -0.10337 0.39849
 C270 C 0.59101 -0.08971 0.41079
 C271 C 0.57536 -0.07326 0.42533
 C272 C 0.58125 -0.06972 0.45373
 C273 C 0.56614 -0.05360 0.46776
 C274 C 0.54514 -0.04024 0.45352
 C275 C 0.53890 -0.04483 0.42511
 C276 C 0.55406 -0.06097 0.41114
 H277 H 0.61657 -0.17971 0.34736
 H278 H 0.68333 -0.12117 0.36141
 H279 H 0.70996 -0.14797 0.33525
 H280 H 0.64284 -0.20641 0.32069
 H281 H 0.59747 -0.07950 0.46506
 H282 H 0.57085 -0.05161 0.48988
 H283 H 0.52209 -0.03659 0.41357
 H284 H 0.54902 -0.06404 0.38927
 C285 C 0.65308 0.36062 -0.17219
 C286 C 0.64838 0.35228 -0.14415
 C287 C 0.65913 0.32860 -0.13084
 C288 C 0.67451 0.31329 -0.14552
 C289 C 0.67936 0.32152 -0.17372
 C290 C 0.66846 0.34537 -0.18689
 C291 C 0.63251 0.36804 -0.12912
 C292 C 0.61918 0.38138 -0.11671
 C293 C 0.60356 0.39716 -0.10240
 C294 C 0.59020 0.41076 -0.09033
 C295 C 0.57424 0.42716 -0.07611
 C296 C 0.57919 0.43002 -0.04746
 C297 C 0.56379 0.44611 -0.03374
 C298 C 0.54342 0.46009 -0.04851
 C299 C 0.53817 0.45628 -0.07724
 C300 C 0.55361 0.44015 -0.09089
 H301 H 0.64478 0.37887 -0.18272
 H302 H 0.65566 0.32199 -0.10912
 H303 H 0.68287 0.29523 -0.13470
 H304 H 0.67150 0.35202 -0.20868
 H305 H 0.59490 0.41975 -0.03570
 H306 H 0.56781 0.44767 -0.01145
 H307 H 0.52196 0.46511 -0.08934
 H308 H 0.54933 0.43767 -0.11300
 C309 C -0.16637 0.15820 -0.12259
 C310 C -0.14511 0.14920 -0.13467
 C311 C -0.14107 0.15709 -0.16282
 C312 C -0.15826 0.17374 -0.17901
 C313 C -0.18028 0.18308 -0.16748
 C314 C -0.18369 0.17492 -0.13863
 C315 C -0.12746 0.13160 -0.11842
 C316 C -0.11241 0.11671 -0.10550
 C317 C -0.09449 0.09912 -0.09115
 C318 C -0.07892 0.08399 -0.07958
 C319 C -0.06004 0.06582 -0.06661
 C320 C -0.03680 0.06386 -0.07953
 C321 C -0.01868 0.04568 -0.06758
 C322 C -0.02358 0.02918 -0.04248
 C323 C -0.04687 0.03145 -0.02947
 C324 C -0.06501 0.04965 -0.04151
 H325 H -0.16981 0.15197 -0.10078
 H326 H -0.12442 0.15049 -0.17232
 H327 H -0.15309 0.18006 -0.20021
 H328 H -0.20039 0.17990 -0.12824
 H329 H -0.03274 0.07630 -0.09895
 H330 H -0.00077 0.04466 -0.07788
 H331 H -0.05139 0.01871 -0.01038
 H332 H -0.08301 0.05089 -0.03140
 C333 C -0.15049 0.67387 0.37124
 C334 C -0.14679 0.64756 0.36325
 C335 C -0.16058 0.63801 0.33935
 C336 C -0.17789 0.65471 0.32338
 C337 C -0.18165 0.68127 0.33109
 C338 C -0.16784 0.69063 0.35529
 C339 C -0.12859 0.63040 0.37920
 C340 C -0.11333 0.61565 0.39198
 C341 C -0.09546 0.59795 0.40624
 C342 C -0.08021 0.58245 0.41780
 C343 C -0.06204 0.56350 0.43081
 C344 C -0.05864 0.53932 0.41823
 C345 C -0.04076 0.52098 0.43038
 C346 C -0.02599 0.52658 0.45534
 C347 C -0.02962 0.55085 0.46796
 C348 C -0.04753 0.56922 0.45573
 H349 H -0.13984 0.68151 0.38966
 H350 H -0.15791 0.61765 0.33301
 H351 H -0.18851 0.64675 0.30512
 H352 H -0.17009 0.71109 0.36159
 H353 H -0.06980 0.53465 0.39898
 H354 H -0.03867 0.50227 0.42039
 H355 H -0.01827 0.55595 0.48694
 H356 H -0.04993 0.58794 0.46558
 C357 C 0.34073 0.13958 0.33807
 C358 C 0.35435 0.14879 0.36220
 C359 C 0.35050 0.17491 0.37060
 C360 C 0.33320 0.19183 0.35480
 C361 C 0.31958 0.18283 0.33034
 C362 C 0.32346 0.15644 0.32224
 C363 C 0.37258 0.13154 0.37796
 C364 C 0.38792 0.11680 0.39060
 C365 C 0.40594 0.09923 0.40478
 C366 C 0.42139 0.08398 0.41636
 C367 C 0.43989 0.06548 0.42955
 C368 C 0.45275 0.07057 0.45548
 C369 C 0.47098 0.05270 0.46797
 C370 C 0.47669 0.02957 0.45463
 C371 C 0.46342 0.02453 0.42866
 C372 C 0.44521 0.04237 0.41623
 H373 H 0.34351 0.11938 0.33141
 H374 H 0.36103 0.18228 0.38920
 H375 H 0.33085 0.21214 0.36140
 H376 H 0.31299 0.14875 0.30377
 H377 H 0.44880 0.08842 0.46597
 H378 H 0.48082 0.05736 0.48779
 H379 H 0.46684 0.00659 0.41805
 H380 H 0.43527 0.03814 0.39621
 C381 C 0.34730 0.67387 -0.13149
 C382 C 0.35098 0.64768 -0.13979
 C383 C 0.33712 0.63838 -0.16377
 C384 C 0.31982 0.65525 -0.17954
 C385 C 0.31614 0.68172 -0.17154
 C386 C 0.32996 0.69079 -0.14722
 C387 C 0.36931 0.63047 -0.12415
 C388 C 0.38476 0.61582 -0.11156
 C389 C 0.40295 0.59840 -0.09743
 C390 C 0.41855 0.58330 -0.08588
 C391 C 0.43725 0.56502 -0.07271
 C392 C 0.44250 0.54175 -0.08581
 C393 C 0.46091 0.52412 -0.07340
 C394 C 0.47444 0.52955 -0.04766
 C395 C 0.46881 0.55284 -0.03453
 C396 C 0.45038 0.57049 -0.04701
 H397 H 0.35800 0.68131 -0.11301
 H398 H 0.33978 0.61811 -0.17036
 H399 H 0.30920 0.64751 -0.19790
 H400 H 0.32778 0.71118 -0.14071
 H401 H 0.43235 0.53722 -0.10565
 H402 H 0.46427 0.50605 -0.08383
 H403 H 0.47887 0.55779 -0.01491
 H404 H 0.44650 0.58848 -0.03669
 C405 C -0.15347 -0.13245 0.17079
 C406 C -0.14996 -0.14030 0.14414
 C407 C -0.16384 -0.16420 0.13498
 C408 C -0.18111 -0.18031 0.15237
 C409 C -0.18491 -0.17292 0.17956
 C410 C -0.17069 -0.14850 0.18832
 C411 C -0.13181 -0.12415 0.12629
 C412 C -0.11650 -0.11102 0.11119
 C413 C -0.09843 -0.09612 0.09336
 C414 C -0.08286 -0.08381 0.07801
 C415 C -0.06410 -0.06964 0.05958
 C416 C -0.05972 -0.08073 0.03463
 C417 C -0.04098 -0.06752 0.01704
 C418 C -0.02623 -0.04301 0.02421
 C419 C -0.03110 -0.03180 0.04913
 C420 C -0.04985 -0.04507 0.06672
 H421 H -0.14292 -0.11382 0.17803
 H422 H -0.16108 -0.17062 0.11444
 H423 H -0.19044 -0.19921 0.14463
 H424 H -0.17334 -0.14095 0.20833
 H425 H -0.07074 -0.09967 0.02880
 H426 H -0.03827 -0.07642 -0.00229
 H427 H -0.02013 -0.01315 0.05541
 H428 H -0.05306 -0.03630 0.08601
 C429 C -0.15561 0.32981 0.64037
 C430 C -0.14651 0.35694 0.64589
 C431 C -0.15505 0.36844 0.66895
 C432 C -0.17260 0.35285 0.68648
 C433 C -0.18185 0.32553 0.68112
 C434 C -0.17316 0.31420 0.65784
 C435 C -0.12826 0.37280 0.62794
 C436 C -0.11292 0.38577 0.61276
 C437 C -0.09490 0.40059 0.59482
 C438 C -0.07946 0.41295 0.57936
 C439 C -0.06096 0.42736 0.56075
 C440 C -0.04815 0.45295 0.56694
 C441 C -0.03002 0.46676 0.54894
 C442 C -0.02434 0.45512 0.52455
 C443 C -0.03751 0.42943 0.51844
 C444 C -0.05565 0.41567 0.53643
 H445 H -0.14905 0.32066 0.62264
 H446 H -0.14815 0.38945 0.67338
 H447 H -0.17914 0.36226 0.70404
 H448 H -0.17959 0.29311 0.65339
 H449 H -0.05210 0.46218 0.58573
 H450 H -0.02022 0.48630 0.55444
 H451 H -0.03413 0.42010 0.49955
 H452 H -0.06555 0.39593 0.53135
 C453 C 0.34566 -0.12829 0.66836
 C454 C 0.35430 -0.13938 0.64510
 C455 C 0.34495 -0.16624 0.63888
 C456 C 0.32704 -0.18199 0.65581
 C457 C 0.31821 -0.17107 0.67925
 C458 C 0.32774 -0.14403 0.68535
 C459 C 0.37280 -0.12335 0.62759
 C460 C 0.38830 -0.11033 0.61264
 C461 C 0.40644 -0.09555 0.59481
 C462 C 0.42190 -0.08334 0.57929
 C463 C 0.44032 -0.06926 0.56040
 C464 C 0.44385 -0.08030 0.53517
 C465 C 0.46183 -0.06690 0.51680
 C466 C 0.47654 -0.04223 0.52345
 C467 C 0.47283 -0.03123 0.54883
 C468 C 0.45483 -0.04470 0.56720
 H469 H 0.35273 -0.10750 0.67333
 H470 H 0.35158 -0.17506 0.62099
 H471 H 0.32040 -0.20287 0.65079
 H472 H 0.32110 -0.13493 0.70306
 H473 H 0.43268 -0.09926 0.52966
 H474 H 0.46397 -0.07566 0.49724
 H475 H 0.48414 -0.01252 0.55474
 H476 H 0.45232 -0.03604 0.58674
 C477 C 0.34578 0.37260 0.16848
 C478 C 0.35458 0.36135 0.14540
 C479 C 0.34565 0.33426 0.13961
 C480 C 0.32801 0.31843 0.15679
 C481 C 0.31903 0.32951 0.18006
 C482 C 0.32813 0.35678 0.18573
 C483 C 0.37281 0.37745 0.12761
 C484 C 0.38809 0.39050 0.11242
 C485 C 0.40597 0.40527 0.09429
 C486 C 0.42122 0.41746 0.07851
 C487 C 0.43939 0.43148 0.05932
 C488 C 0.44276 0.42023 0.03416
 C489 C 0.46052 0.43356 0.01550
 C490 C 0.47515 0.45838 0.02179
 C491 C 0.47160 0.46960 0.04709
 C492 C 0.45383 0.45620 0.06575
 H493 H 0.35253 0.39358 0.17313
 H494 H 0.35241 0.32531 0.12185
 H495 H 0.32171 0.29737 0.15210
 H496 H 0.32136 0.36599 0.20330
 H497 H 0.43164 0.40114 0.02893
 H498 H 0.46253 0.42462 -0.00399
 H499 H 0.48287 0.48844 0.05272
 H500 H 0.45145 0.46503 0.08523
 C501 C 0.14552 0.17583 0.13968
 C502 C 0.13487 0.14966 0.15021
 C503 C 0.13992 0.14052 0.17845
 C504 C 0.15587 0.15729 0.19602
 C505 C 0.16700 0.18346 0.18554
 C506 C 0.16145 0.19265 0.15722
 C507 C 0.11958 0.13180 0.13179
 C508 C 0.10723 0.11665 0.11621
 C509 C 0.09328 0.09872 0.09782
 C510 C 0.08179 0.08325 0.08198
 C511 C 0.06856 0.06462 0.06292
 C512 C 0.04455 0.05025 0.06921
 C513 C 0.03204 0.03172 0.05090
 C514 C 0.04343 0.02720 0.02612
 C515 C 0.06748 0.04201 0.01988
 C516 C 0.07993 0.06054 0.03817
 H517 H 0.14184 0.18306 0.11781
 H518 H 0.13177 0.12030 0.18682
 H519 H 0.15950 0.14979 0.21781
 H520 H 0.17000 0.21251 0.14842
 H521 H 0.03558 0.05321 0.08835
 H522 H 0.01374 0.02063 0.05651
 H523 H 0.07657 0.03957 0.00070
 H524 H 0.09847 0.07165 0.03302
 C525 C 0.14188 0.67947 0.63650
 C526 C 0.13065 0.65345 0.64672
 C527 C 0.13539 0.64394 0.67492
 C528 C 0.15162 0.66019 0.69275
 C529 C 0.16336 0.68618 0.68257
 C530 C 0.15811 0.69576 0.65429
 C531 C 0.11517 0.63602 0.62802
 C532 C 0.10273 0.62113 0.61226
 C533 C 0.08878 0.60336 0.59371
 C534 C 0.07739 0.58788 0.57781
 C535 C 0.06445 0.56903 0.55879
 C536 C 0.04115 0.55345 0.56562
 C537 C 0.02930 0.53422 0.54768
 C538 C 0.04068 0.53016 0.52275
 C539 C 0.06385 0.54637 0.51583
 C540 C 0.07565 0.56560 0.53376
 H541 H 0.13847 0.68696 0.61467
 H542 H 0.12679 0.62383 0.68305
 H543 H 0.15501 0.65240 0.71448
 H544 H 0.16711 0.71550 0.64573
 H545 H 0.03232 0.55590 0.58499
 H546 H 0.01164 0.52211 0.55377
 H547 H 0.07286 0.54434 0.49650
 H548 H 0.09363 0.57764 0.52819
 C549 C 0.64351 0.17253 0.64446
 C550 C 0.63291 0.14645 0.65525
 C551 C 0.63829 0.13743 0.68348
 C552 C 0.65451 0.15426 0.70076
 C553 C 0.66560 0.18036 0.69000
 C554 C 0.65972 0.18940 0.66170
 C555 C 0.61741 0.12852 0.63706
 C556 C 0.60496 0.11340 0.62153
 C557 C 0.59101 0.09559 0.60302
 C558 C 0.57964 0.08031 0.58692
 C559 C 0.56674 0.06200 0.56736
 C560 C 0.57872 0.03866 0.56140
 C561 C 0.56684 0.02140 0.54161
 C562 C 0.54279 0.02729 0.52733
 C563 C 0.53068 0.05050 0.53391
 C564 C 0.54262 0.06779 0.55372
 H565 H 0.63959 0.17965 0.62260
 H566 H 0.63018 0.11727 0.69205
 H567 H 0.65839 0.14687 0.72253
 H568 H 0.66822 0.20919 0.65268
 H569 H 0.59734 0.03389 0.57194
 H570 H 0.57646 0.00334 0.53766
 H571 H 0.51231 0.05577 0.52341
 H572 H 0.53318 0.08583 0.55815
 C573 C 0.63681 0.63808 0.18067
 C574 C 0.63131 0.64729 0.15252
 C575 C 0.64182 0.67347 0.14188
 C576 C 0.65806 0.69024 0.15919
 C577 C 0.66406 0.68099 0.18741
 C578 C 0.65307 0.65481 0.19803
 C579 C 0.61578 0.62946 0.13425
 C580 C 0.60331 0.61441 0.11867
 C581 C 0.58934 0.59664 0.10012
 C582 C 0.57796 0.58137 0.08402
 C583 C 0.56506 0.56303 0.06449
 C584 C 0.54091 0.56875 0.05088
 C585 C 0.52895 0.55138 0.03115
 C586 C 0.54107 0.52815 0.02462
 C587 C 0.56517 0.52235 0.03885
 C588 C 0.57706 0.53970 0.05856
 H589 H 0.62878 0.61784 0.18913
 H590 H 0.63781 0.68074 0.12008
 H591 H 0.66649 0.71011 0.15028
 H592 H 0.65704 0.64726 0.21974
 H593 H 0.53144 0.58678 0.05529
 H594 H 0.51054 0.55658 0.02069
 H595 H 0.57480 0.50429 0.03494
 H596 H 0.59571 0.53498 0.06907
   
