data_POSCAR
  _audit_creation_date              2014-09-24
  _audit_creation_method            'ToBaCCo'
  _symmetry_space_group_name_H-M    'P1'
  _symmetry_Int_Tables_number       1
  _symmetry_cell_setting            triclinic
  loop_
  _symmetry_equiv_pos_as_xyz
 x,y,z
_cell_length_a 28.3084
_cell_length_b 28.3591
_cell_length_c 28.4773
_cell_angle_alpha 98.788500
_cell_angle_beta 73.984200
_cell_angle_gamma 70.536200
loop_
  _atom_site_label
  _atom_site_type_symbol
  _atom_site_fract_x
  _atom_site_fract_y
  _atom_site_fract_z
C1 C 0.50957 0.52274 0.00033
 C2 C 0.47182 0.56297 -0.01104
 C3 C 0.42694 0.55581 -0.01783
 C4 C 0.41621 0.51165 -0.01116
 C5 C 0.45437 0.47133 -0.00098
 C6 C 0.49986 0.47756 0.00467
 H7 H 0.53042 0.44430 0.00764
 H8 H 0.39827 0.58754 -0.02480
 C9 C -0.01812 0.45732 0.52084
 C10 C -0.00821 0.48994 0.55604
 C11 C 0.00154 0.53277 0.54398
 C12 C -0.00016 0.54547 0.49825
 C13 C -0.01390 0.51443 0.46455
 C14 C -0.02166 0.47043 0.47601
 H15 H -0.03020 0.44573 0.44948
 H16 H 0.00921 0.55675 0.57173
 C17 C 0.53109 -0.01571 0.43106
 C18 C 0.49208 -0.02260 0.46912
 C19 C 0.49821 -0.02417 0.51622
 C20 C 0.54300 -0.02006 0.52661
 C21 C 0.58295 -0.01374 0.48761
 C22 C 0.57614 -0.01247 0.44043
 H23 H 0.60793 -0.01290 0.40880
 H24 H 0.46524 -0.02461 0.54597
 O25 O 0.49735 -0.00236 -0.07578
 O26 O 0.48097 0.01611 0.05951
 O27 O 0.48599 0.07376 -0.00318
 O28 O 0.49346 -0.06002 -0.01214
 O29 O 0.58120 -0.08881 -0.03282
 O30 O 0.57370 0.04463 -0.02347
 O31 O 0.56871 -0.01272 0.03906
 O32 O 0.58503 -0.03107 -0.09631
 Cu33 Cu 0.48067 0.00976 -0.00616
 Cu34 Cu 0.58597 -0.02491 -0.03069
 C35 C 0.54390 -0.01968 -0.10908
 C36 C 0.52209 0.00458 0.07229
 C37 C 0.52867 0.08195 -0.01131
 C38 C 0.53856 -0.09704 -0.02309
 O39 O -0.13023 0.56797 1.05035
 O40 O 0.00890 0.55512 1.02633
 O41 O -0.05502 0.56917 0.97491
 O42 O -0.06619 0.55461 1.10319
 O43 O -0.03861 0.46970 1.07402
 O44 O -0.02617 0.48411 0.94534
 O45 O 0.03733 0.47007 0.99744
 O46 O -0.10141 0.48299 1.02057
 Cu47 Cu -0.06358 0.57026 1.04194
 Cu48 Cu -0.02935 0.46814 1.00662
 C49 C -0.13934 0.52769 1.03846
 C50 C 0.04681 0.51041 1.00753
 C51 C -0.03896 0.52920 0.93837
 C52 C -0.05392 0.50965 1.11039
 O53 O 0.05139 -0.09486 0.47665
 O54 O 0.03594 0.03356 0.45760
 O55 O 0.11102 -0.04110 0.46988
 O56 O -0.02493 -0.01852 0.46908
 O57 O -0.05793 0.01608 0.55205
 O58 O 0.07742 -0.00771 0.55302
 O59 O 0.00315 0.06806 0.54057
 O60 O 0.01774 -0.06108 0.55974
 Cu61 Cu 0.04679 -0.03363 0.45995
 Cu62 Cu 0.00687 0.00734 0.55969
 C63 C 0.03643 -0.09983 0.52125
 C64 C 0.01714 0.07261 0.49562
 C65 C 0.11717 -0.02806 0.51183
 C66 C -0.06450 0.00226 0.51064
 C67 C -0.44104 0.52388 1.00109
 C68 C -0.41072 0.49519 1.02633
 C69 C -0.35877 0.49573 1.02678
 C70 C -0.34524 0.53863 1.02183
 C71 C -0.29614 0.53777 1.02398
 C72 C -0.25979 0.49405 1.03118
 C73 C -0.27344 0.45139 1.03599
 C74 C -0.32263 0.45247 1.03441
 C75 C -0.20645 0.49037 1.03134
 C76 C -0.19439 0.53338 1.04412
 H77 H -0.42534 0.47135 1.04762
 H78 H -0.37265 0.57316 1.01712
 H79 H -0.28649 0.57096 1.01909
 H80 H -0.24603 0.41715 1.04125
 H81 H -0.33227 0.41909 1.03865
 H82 H -0.17546 0.45184 1.02159
 H83 H -0.42548 0.54796 0.98109
 H84 H -0.22545 0.57217 1.05736
 C85 C 0.36723 0.50852 0.98869
 C86 C 0.32883 0.54271 0.97397
 C87 C 0.27541 0.54154 0.98079
 C88 C 0.26547 0.49634 0.98303
 C89 C 0.21404 0.49754 0.99085
 C90 C 0.17156 0.54379 0.99593
 C91 C 0.18179 0.58858 0.99300
 C92 C 0.23316 0.58737 0.98514
 C93 C 0.11605 0.54748 1.00562
 C94 C 0.10259 0.50463 0.99716
 H95 H 0.33608 0.57316 0.95862
 H96 H 0.29717 0.45980 0.97833
 H97 H 0.20792 0.46230 0.99366
 H98 H 0.14986 0.62473 0.99683
 H99 H 0.23971 0.62267 0.98329
 H100 H 0.08436 0.58599 1.01874
 H101 H 0.35727 0.47875 1.00321
 H102 H 0.13333 0.46576 0.98146
 C103 C 0.00896 -0.41048 0.48762
 C104 C 0.03449 -0.38544 0.51188
 C105 C 0.03968 -0.33671 0.50419
 C106 C 0.04872 -0.30636 0.54182
 C107 C 0.05312 -0.25962 0.53696
 C108 C 0.04870 -0.24231 0.49409
 C109 C 0.04153 -0.27348 0.45561
 C110 C 0.03695 -0.32020 0.46053
 C111 C 0.05168 -0.19243 0.48799
 C112 C 0.03937 -0.15069 0.52871
 H113 H 0.05155 -0.40130 0.53839
 H114 H 0.05192 -0.31865 0.57543
 H115 H 0.06054 -0.23765 0.56661
 H116 H 0.03890 -0.26136 0.42180
 H117 H 0.03207 -0.34327 0.42974
 H118 H 0.05978 -0.18694 0.45018
 H119 H -0.00449 -0.39498 0.45917
 H120 H 0.02758 -0.15376 0.56725
 C121 C -0.02629 0.41039 0.53116
 C122 C -0.00586 0.36426 0.49287
 C123 C -0.00776 0.31483 0.50203
 C124 C 0.02831 0.26837 0.46531
 C125 C 0.02897 0.22062 0.47251
 C126 C -0.00713 0.21835 0.51648
 C127 C -0.04336 0.26479 0.55321
 C128 C -0.04407 0.31267 0.54598
 C129 C -0.00669 0.16829 0.52570
 C130 C 0.01278 0.12316 0.48647
 H131 H 0.01672 0.36311 0.45487
 H132 H 0.05681 0.26892 0.43123
 H133 H 0.05869 0.18570 0.44403
 H134 H -0.07150 0.26402 0.58741
 H135 H -0.07343 0.34759 0.57464
 H136 H -0.02317 0.16719 0.56449
 H137 H -0.04453 0.41108 0.57009
 H138 H 0.02567 0.12440 0.44737
 C139 C 0.54550 -0.01833 -0.42401
 C140 C 0.51590 -0.03603 -0.38791
 C141 C 0.51577 -0.03056 -0.33521
 C142 C 0.55823 -0.02568 -0.32120
 C143 C 0.55624 -0.02120 -0.27094
 C144 C 0.51193 -0.02184 -0.23378
 C145 C 0.46973 -0.02671 -0.24793
 C146 C 0.47185 -0.03149 -0.29809
 C147 C 0.50730 -0.01611 -0.17986
 C148 C 0.55080 -0.02645 -0.16323
 H149 H 0.49111 -0.05484 -0.39771
 H150 H 0.59342 -0.02608 -0.34882
 H151 H 0.58914 -0.01653 -0.26143
 H152 H 0.43504 -0.02712 -0.22010
 H153 H 0.43871 -0.03543 -0.30784
 H154 H 0.46780 -0.00492 -0.15211
 H155 H 0.57097 -0.00155 -0.41265
 H156 H 0.59109 -0.04065 -0.19023
 C157 C 0.52709 -0.01543 0.38009
 C158 C 0.54763 0.01303 0.35038
 C159 C 0.54826 0.01069 0.29797
 C160 C 0.51034 -0.00098 0.28079
 C161 C 0.51270 -0.00304 0.23075
 C162 C 0.55293 0.00667 0.19705
 C163 C 0.59058 0.01840 0.21435
 C164 C 0.58789 0.02099 0.26444
 C165 C 0.55810 0.00292 0.14334
 C166 C 0.51509 0.01081 0.12630
 H167 H 0.56650 0.03633 0.36512
 H168 H 0.47851 -0.00802 0.30587
 H169 H 0.48364 -0.01323 0.21844
 H170 H 0.62207 0.02580 0.18907
 H171 H 0.61743 0.03025 0.27684
 H172 H 0.59705 -0.00464 0.11644
 H173 H 0.50825 -0.03882 0.36557
 H174 H 0.47506 0.02242 0.15305
 C175 C 0.47453 -0.38875 -0.01520
 C176 C 0.49695 -0.36166 0.01107
 C177 C 0.49671 -0.31057 0.00506
 C178 C 0.53890 -0.29717 0.00998
 C179 C 0.53992 -0.24929 0.00434
 C180 C 0.49827 -0.21355 -0.00585
 C181 C 0.45540 -0.22644 -0.00934
 C182 C 0.45458 -0.27440 -0.00409
 C183 C 0.49672 -0.16170 -0.01045
 C184 C 0.54207 -0.15010 -0.02337
 H185 H 0.51442 -0.37704 0.03759
 H186 H 0.57133 -0.32400 0.01790
 H187 H 0.57274 -0.24011 0.00910
 H188 H 0.42230 -0.19923 -0.01611
 H189 H 0.42028 -0.28237 -0.00605
 H190 H 0.45821 -0.13158 -0.00413
 H191 H 0.45300 -0.36867 -0.03712
 H192 H 0.58135 -0.18025 -0.03288
 C193 C 0.45072 0.41989 -0.00248
 C194 C 0.47009 0.38790 0.02654
 C195 C 0.47122 0.33468 0.02124
 C196 C 0.51001 0.29801 0.03344
 C197 C 0.51326 0.24705 0.02787
 C198 C 0.47733 0.23180 0.01030
 C199 C 0.43732 0.26895 -0.00018
 C200 C 0.43435 0.31984 0.00498
 C201 C 0.47962 0.17812 0.00399
 C202 C 0.52679 0.13504 -0.00625
 H203 H 0.48773 0.40112 0.05233
 H204 H 0.53831 0.30868 0.04683
 H205 H 0.54342 0.22004 0.03810
 H206 H 0.40854 0.25844 -0.01284
 H207 H 0.40270 0.34748 -0.00308
 H208 H 0.44351 0.17208 0.00524
 H209 H 0.43428 0.40608 -0.02908
 H210 H 0.56406 0.13994 -0.01154
 C211 C -0.36930 -0.01265 0.49378
 C212 C -0.33579 0.00649 0.46348
 C213 C -0.28349 0.00313 0.46663
 C214 C -0.27137 0.00027 0.51106
 C215 C -0.22149 -0.00231 0.51216
 C216 C -0.18292 -0.00172 0.46897
 C217 C -0.19509 0.00099 0.42472
 C218 C -0.24502 0.00393 0.42373
 C219 C -0.12926 -0.00559 0.46819
 C220 C -0.11875 0.00972 0.51178
 H221 H -0.34739 0.02471 0.43548
 H222 H -0.30034 0.00077 0.54527
 H223 H -0.21314 -0.00558 0.54663
 H224 H -0.16599 0.00119 0.39089
 H225 H -0.25343 0.00630 0.38908
 H226 H -0.09713 -0.01982 0.43172
 H227 H -0.35707 -0.02819 0.52275
 H228 H -0.15095 0.02729 0.54816
 C229 C 0.44295 -0.02453 0.46120
 C230 C 0.41713 -0.05442 0.48270
 C231 C 0.36650 -0.05455 0.47768
 C232 C 0.33298 -0.06757 0.51508
 C233 C 0.28401 -0.06657 0.51278
 C234 C 0.26771 -0.05280 0.47266
 C235 C 0.30227 -0.04205 0.43402
 C236 C 0.35114 -0.04268 0.43651
 C237 C 0.21515 -0.04934 0.47020
 C238 C 0.17053 -0.03587 0.51368
 H239 H 0.43333 -0.07706 0.50617
 H240 H 0.34436 -0.07780 0.54666
 H241 H 0.25928 -0.07695 0.54227
 H242 H 0.29100 -0.03225 0.40227
 H243 H 0.37679 -0.03435 0.40594
 H244 H 0.21032 -0.05323 0.43354
 H245 H 0.42684 -0.00151 0.43803
 H246 H 0.17373 -0.02742 0.55077
 C247 C -0.01655 0.52485 1.41552
 C248 C -0.05379 0.51658 1.39536
 C249 C -0.05560 0.52413 1.34554
 C250 C -0.07630 0.49535 1.31872
 C251 C -0.07832 0.50101 1.27132
 C252 C -0.06014 0.53613 1.25010
 C253 C -0.04111 0.56619 1.27768
 C254 C -0.03853 0.56012 1.32485
 C255 C -0.06141 0.54295 1.19993
 C256 C -0.05666 0.50313 1.16117
 H257 H -0.08166 0.50204 1.41599
 H258 H -0.09050 0.46801 1.33429
 H259 H -0.09483 0.47842 1.25184
 H260 H -0.02768 0.59410 1.26244
 H261 H -0.02405 0.58424 1.34525
 H262 H -0.06202 0.57928 1.19197
 H263 H 0.01218 0.53819 1.39449
 H264 H -0.05111 0.46506 1.16688
 C265 C -0.00577 0.47885 0.60478
 C266 C -0.02680 0.51874 0.64953
 C267 C -0.02507 0.51084 0.69931
 C268 C -0.05792 0.55209 0.74288
 C269 C -0.05708 0.54723 0.79070
 C270 C -0.02274 0.50098 0.79592
 C271 C 0.00980 0.45949 0.75247
 C272 C 0.00906 0.46439 0.70452
 C273 C -0.02121 0.49435 0.84608
 C274 C -0.03644 0.53607 0.88781
 H275 H -0.04765 0.55806 0.64847
 H276 H -0.08469 0.58822 0.73999
 H277 H -0.08409 0.57950 0.82338
 H278 H 0.03642 0.42340 0.75558
 H279 H 0.03588 0.43201 0.67192
 H280 H -0.00664 0.45517 0.84998
 H281 H 0.01043 0.43880 0.60557
 H282 H -0.04759 0.57524 0.88387
   
