data_POSCAR
  _audit_creation_date              2014-09-24
  _audit_creation_method            'ToBaCCo'
  _symmetry_space_group_name_H-M    'P1'
  _symmetry_Int_Tables_number       1
  _symmetry_cell_setting            triclinic
  loop_
  _symmetry_equiv_pos_as_xyz
 x,y,z
_cell_length_a 28.0482
_cell_length_b 27.6975
_cell_length_c 31.1581
_cell_angle_alpha 90.108400
_cell_angle_beta 90.026600
_cell_angle_gamma 118.401000
loop_
  _atom_site_label
  _atom_site_type_symbol
  _atom_site_fract_x
  _atom_site_fract_y
  _atom_site_fract_z
O1 O 0.04057 0.56541 1.29292
 O2 O -0.05668 0.51287 1.20274
 O3 O -0.06433 0.51092 1.28619
 O4 O 0.04844 0.56943 1.20919
 O5 O 0.05397 0.49250 1.21018
 O6 O -0.05839 0.43419 1.28764
 O7 O -0.05013 0.43684 1.20306
 O8 O 0.04659 0.48869 1.29283
 Cu9 Cu -0.00857 0.54735 1.24767
 Cu10 Cu -0.00199 0.45503 1.24852
 C11 C 0.05991 0.53584 1.30824
 C12 C -0.06869 0.46632 1.18642
 C13 C -0.08009 0.46281 1.30037
 C14 C 0.07065 0.54116 1.19680
 O15 O 0.42595 0.48279 1.28559
 O16 O 0.48828 0.43557 1.20284
 O17 O 0.47967 0.42717 1.28712
 O18 O 0.43310 0.48804 1.20290
 O19 O 0.50852 0.56687 1.20998
 O20 O 0.55557 0.50559 1.29302
 O21 O 0.56405 0.51382 1.20893
 O22 O 0.50210 0.55999 1.29226
 Cu23 Cu 0.44933 0.45021 1.24421
 Cu24 Cu 0.54057 0.54410 1.25161
 C25 C 0.45274 0.53001 1.30252
 C26 C 0.53626 0.46779 1.19058
 C27 C 0.52500 0.45669 1.30514
 C28 C 0.46258 0.53792 1.19262
 O29 O 0.50604 0.94069 1.28633
 O30 O 0.56884 1.05373 1.20894
 O31 O 0.56913 1.04658 1.29374
 O32 O 0.50966 0.94949 1.20447
 O33 O 0.43621 0.95951 1.20763
 O34 O 0.49769 1.05941 1.29540
 O35 O 0.49589 1.06484 1.21145
 O36 O 0.43466 0.95358 1.29087
 Cu37 Cu 0.54617 0.99717 1.24863
 Cu38 Cu 0.45905 1.01085 1.25187
 C39 C 0.45894 0.92640 1.30092
 C40 C 0.54185 1.07677 1.19564
 C41 C 0.54339 1.06892 1.31070
 C42 C 0.46305 0.93836 1.19045
 O43 O 0.94840 0.52284 0.70948
 O44 O 1.05004 0.56781 0.79545
 O45 O 1.05177 0.57616 0.71124
 O46 O 0.94405 0.51306 0.79192
 O47 O 0.94978 0.43625 0.78850
 O48 O 1.05520 0.49877 0.70515
 O49 O 1.05495 0.49086 0.78932
 O50 O 0.94922 0.44391 0.70586
 Cu51 Cu 0.99879 0.55304 0.75292
 Cu52 Cu 1.00322 0.45989 0.74657
 C53 C 0.93007 0.47507 0.69376
 C54 C 1.06910 0.53669 0.80755
 C55 C 1.06997 0.54757 0.69261
 C56 C 0.92824 0.46389 0.80365
 O57 O 0.47922 0.43274 0.70514
 O58 O 0.42464 0.48436 0.78999
 O59 O 0.42819 0.49008 0.70694
 O60 O 0.48014 0.43091 0.78915
 O61 O 0.55625 0.50956 0.79214
 O62 O 0.50641 0.56678 0.70730
 O63 O 0.50059 0.56300 0.79021
 O64 O 0.55720 0.50943 0.70768
 Cu65 Cu 0.44548 0.45159 0.74770
 Cu66 Cu 0.53811 0.54476 0.74975
 C67 C 0.52687 0.46262 0.69127
 C68 C 0.45256 0.53307 0.80365
 C69 C 0.45861 0.53829 0.69305
 C70 C 0.52678 0.46084 0.80516
 O71 O 0.56923 0.04972 0.70828
 O72 O 0.50415 -0.06283 0.78628
 O73 O 0.51102 -0.05668 0.70330
 O74 O 0.56438 0.04323 0.79182
 O75 O 0.48939 0.05037 0.79250
 O76 O 0.44035 -0.04243 0.69883
 O77 O 0.42957 -0.05474 0.78306
 O78 O 0.49723 0.06246 0.70987
 Cu79 Cu 0.54458 -0.00757 0.74762
 Cu80 Cu 0.45647 0.00449 0.74588
 C81 C 0.54452 0.07576 0.69633
 C82 C 0.45563 -0.07806 0.79776
 C83 C 0.46754 -0.06493 0.68460
 C84 C 0.53566 0.06273 0.80814
 O85 O 0.40909 0.65711 0.96279
 O86 O 0.40413 0.74659 0.94843
 C87 C 0.37493 0.76814 0.93773
 O88 O 0.33428 0.76280 0.95945
 O89 O 0.24561 0.67028 0.95408
 C90 C 0.22207 0.61901 0.94784
 O91 O 0.23367 0.58677 0.96867
 O92 O 0.32522 0.58910 0.95329
 C93 C 0.37422 0.61598 0.94187
 O94 O 0.41104 0.67649 1.04835
 O95 O 0.41100 0.76858 1.03313
 C96 C 0.37800 0.77976 1.05299
 O97 O 0.32748 0.75547 1.04610
 O98 O 0.23734 0.66365 1.04082
 C99 C 0.23214 0.62261 1.06274
 O100 O 0.25533 0.59440 1.05305
 O101 O 0.34510 0.59092 1.03788
 C102 C 0.38631 0.62611 1.05810
 Cr103 Cr 0.40578 0.71066 0.99833
 Cr104 Cr 0.28777 0.71147 1.00019
 Cr105 Cr 0.29137 0.59345 1.00320
 O106 O 0.32827 0.67202 1.00077
 O107 O 0.58803 0.32877 0.94773
 O108 O 0.58733 0.23608 0.96405
 C109 C 0.62096 0.22637 0.94328
 O110 O 0.67162 0.25240 0.94963
 O111 O 0.76263 0.34271 0.96050
 C112 C 0.76681 0.38203 0.93697
 O113 O 0.74146 0.40874 0.94430
 O114 O 0.65271 0.41441 0.96016
 C115 C 0.61106 0.37966 0.93987
 O116 O 0.58840 0.34948 1.03289
 O117 O 0.59205 0.25900 1.04894
 C118 C 0.61736 0.23242 1.05657
 O119 O 0.65851 0.23851 1.03521
 O120 O 0.74754 0.33141 1.04620
 C121 C 0.77406 0.38298 1.05103
 O122 O 0.76487 0.41629 1.02896
 O123 O 0.67302 0.41585 1.04479
 C124 C 0.62273 0.39196 1.05302
 Cr125 Cr 0.59184 0.29477 0.99834
 Cr126 Cr 0.70859 0.29277 0.99791
 Cr127 Cr 0.70669 0.41091 0.99463
 O128 O 0.66899 0.33275 0.99707
 O129 O 0.66316 0.41403 0.54636
 O130 O 0.75942 0.42226 0.53392
 C131 C 0.76990 0.39079 0.55702
 O132 O 0.74982 0.33981 0.54970
 O133 O 0.66571 0.24392 0.53958
 C134 C 0.62384 0.23580 0.56074
 O135 O 0.59358 0.25623 0.55038
 O136 O 0.58210 0.34190 0.53474
 C137 C 0.61289 0.38621 0.55417
 O138 O 0.64768 0.41153 0.46143
 O139 O 0.74034 0.41426 0.44866
 C140 C 0.76644 0.38863 0.44012
 O141 O 0.76442 0.35006 0.46342
 O142 O 0.67770 0.25598 0.45353
 C143 C 0.62738 0.22818 0.44600
 O144 O 0.59184 0.23568 0.46573
 O145 O 0.58474 0.32491 0.44992
 C146 C 0.60589 0.37588 0.44212
 Cr147 Cr 0.70149 0.41246 0.49770
 Cr148 Cr 0.71278 0.29892 0.50148
 Cr149 Cr 0.59116 0.29127 0.50010
 O150 O 0.66842 0.33417 0.49965
 O151 O 0.32344 0.58969 0.54890
 O152 O 0.23276 0.59289 0.53733
 C153 C 0.22652 0.62992 0.55672
 O154 O 0.25345 0.68039 0.54739
 O155 O 0.34321 0.76845 0.52896
 C156 C 0.38702 0.77769 0.54754
 O157 O 0.41058 0.74914 0.54041
 O158 O 0.40769 0.65371 0.53260
 C159 C 0.37409 0.61458 0.55573
 O160 O 0.33199 0.57869 0.46329
 O161 O 0.24393 0.58740 0.45210
 C162 C 0.21951 0.61485 0.44419
 O163 O 0.23060 0.65969 0.46305
 O164 O 0.32300 0.74526 0.44451
 C165 C 0.37224 0.76508 0.43338
 O166 O 0.40665 0.75683 0.45424
 O167 O 0.40023 0.66049 0.44689
 C168 C 0.37192 0.60961 0.43982
 Cr169 Cr 0.28475 0.59028 0.50031
 Cr170 Cr 0.28914 0.71183 0.49599
 Cr171 Cr 0.40317 0.70356 0.49371
 O172 O 0.32572 0.66858 0.49679
 C173 C 0.37184 0.52943 0.33792
 C174 C 0.42894 0.54915 0.33369
 C175 C 0.46390 0.58960 0.36259
 C176 C 0.44415 0.60728 0.39654
 C177 C 0.38847 0.58598 0.40338
 C178 C 0.35155 0.54700 0.37361
 C179 C 0.33449 0.49626 0.30597
 C180 C 0.27909 0.47756 0.31048
 C181 C 0.25941 0.49251 0.34606
 C182 C 0.29506 0.52730 0.37699
 H183 H 0.34703 0.48619 0.27610
 H184 H 0.25133 0.45212 0.28575
 H185 H 0.21632 0.47830 0.34915
 H186 H 0.27745 0.53916 0.40276
 H187 H 0.50749 0.60669 0.36012
 H188 H 0.47313 0.63777 0.41823
 C189 C 0.44670 0.83705 0.32992
 C190 C 0.43402 0.88132 0.32912
 C191 C 0.39567 0.88069 0.35854
 C192 C 0.37513 0.84184 0.39113
 C193 C 0.39116 0.80137 0.39522
 C194 C 0.42532 0.79719 0.36341
 C195 C 0.47661 0.82876 0.29665
 C196 C 0.48804 0.78505 0.29783
 C197 C 0.46823 0.74720 0.33097
 C198 C 0.43640 0.75252 0.36290
 H199 H 0.48951 0.85388 0.26823
 H200 H 0.51106 0.77960 0.27216
 H201 H 0.47602 0.71247 0.33116
 H202 H 0.41895 0.72012 0.38607
 H203 H 0.38378 0.91263 0.35820
 H204 H 0.34807 0.84488 0.41451
 C205 C 0.08476 0.56947 0.38494
 C206 C 0.09854 0.55625 0.34442
 C207 C 0.14981 0.56039 0.33849
 C208 C 0.18815 0.57927 0.37124
 C209 C 0.17623 0.59379 0.41131
 C210 C 0.12375 0.58786 0.41884
 C211 C 0.03240 0.56271 0.39308
 C212 C 0.01869 0.57369 0.43359
 C213 C 0.05644 0.59091 0.46681
 C214 C 0.10833 0.59763 0.45974
 H215 H 0.00134 0.54809 0.36856
 H216 H -0.02168 0.56808 0.43939
 H217 H 0.04525 0.59848 0.49838
 H218 H 0.13557 0.60919 0.48684
 H219 H 0.16067 0.54969 0.30798
 H220 H 0.22791 0.58346 0.36498
 C221 C 0.55336 0.46189 0.38243
 C222 C 0.54177 0.43512 0.34201
 C223 C 0.54697 0.38769 0.33657
 C224 C 0.56632 0.36815 0.36983
 C225 C 0.58110 0.39560 0.40938
 C226 C 0.57345 0.44227 0.41640
 C227 C 0.54390 0.50697 0.39015
 C228 C 0.55446 0.53251 0.43015
 C229 C 0.57439 0.51370 0.46329
 C230 C 0.58377 0.46916 0.45670
 H231 H 0.52729 0.52230 0.36574
 H232 H 0.54669 0.56677 0.43554
 H233 H 0.58210 0.53334 0.49446
 H234 H 0.59806 0.45579 0.48396
 H235 H 0.53749 0.36658 0.30592
 H236 H 0.57155 0.33234 0.36414
 C237 C 0.60404 0.10438 0.37560
 C238 C 0.56525 0.10515 0.34596
 C239 C 0.54710 0.14404 0.35219
 C240 C 0.56834 0.18334 0.38431
 C241 C 0.60817 0.18535 0.41227
 C242 C 0.62574 0.14516 0.40876
 C243 C 0.61872 0.06190 0.37572
 C244 C 0.65555 0.06141 0.40549
 C245 C 0.67729 0.10172 0.43689
 C246 C 0.66200 0.14262 0.43909
 H247 H 0.60070 0.02699 0.35455
 H248 H 0.66623 0.02864 0.40484
 H249 H 0.70504 0.10041 0.46044
 H250 H 0.67780 0.17094 0.46565
 H251 H 0.51726 0.14567 0.33097
 H252 H 0.55381 0.21317 0.38699
 C253 C 0.82539 0.43661 0.32734
 C254 C 0.87731 0.44082 0.33344
 C255 C 0.89016 0.42546 0.37269
 C256 C 0.85346 0.40825 0.40650
 C257 C 0.80242 0.40536 0.40209
 C258 C 0.78720 0.41793 0.36173
 C259 C 0.80995 0.44878 0.28733
 C260 C 0.75807 0.44249 0.28117
 C261 C 0.72041 0.42322 0.31433
 C262 C 0.73443 0.41056 0.35409
 H263 H 0.83735 0.46227 0.26026
 H264 H 0.74676 0.45180 0.25028
 H265 H 0.67986 0.41745 0.30909
 H266 H 0.70297 0.39380 0.37809
 H267 H 0.92973 0.42844 0.37767
 H268 H 0.86557 0.39823 0.43681
 C269 C 0.59003 0.48817 1.12092
 C270 C 0.55963 0.45141 1.15431
 C271 C 0.54981 0.39689 1.15265
 C272 C 0.57058 0.37868 1.11955
 C273 C 0.60260 0.41452 1.08730
 C274 C 0.61271 0.46987 1.08768
 C275 C 0.59640 0.54194 1.11855
 C276 C 0.62633 0.57744 1.08566
 C277 C 0.64982 0.56014 1.05410
 C278 C 0.64283 0.50688 1.05476
 H279 H 0.57739 0.55698 1.14115
 H280 H 0.63082 0.61845 1.08439
 H281 H 0.67264 0.58775 1.02843
 H282 H 0.66023 0.49497 1.02862
 H283 H 0.52607 0.36810 1.17745
 H284 H 0.56215 0.33621 1.11942
 C285 C 0.89898 0.41049 1.11896
 C286 C 0.89680 0.44737 1.15019
 C287 C 0.85842 0.46596 1.14459
 C288 C 0.81967 0.44510 1.11212
 C289 C 0.81817 0.40558 1.08338
 C290 C 0.85917 0.38946 1.08554
 C291 C 0.94215 0.39748 1.11765
 C292 C 0.94439 0.36281 1.08619
 C293 C 0.90501 0.34162 1.05442
 C294 C 0.86331 0.35533 1.05358
 H295 H 0.97624 0.41557 1.13927
 H296 H 0.97774 0.35347 1.08584
 H297 H 0.90764 0.31565 1.02954
 H298 H 0.83571 0.34045 1.02673
 H299 H 0.85637 0.49497 1.16692
 H300 H 0.78949 0.45892 1.11017
 C301 C 0.56416 0.09702 1.11721
 C302 C 0.56248 0.11539 1.15944
 C303 C 0.57663 0.17049 1.16658
 C304 C 0.59417 0.20794 1.13281
 C305 C 0.59701 0.19099 1.09094
 C306 C 0.58021 0.13488 1.08256
 C307 C 0.54826 0.04137 1.10834
 C308 C 0.54617 0.02310 1.06633
 C309 C 0.55987 0.05976 1.03235
 C310 C 0.57679 0.11513 1.04024
 H311 H 0.53668 0.01137 1.13358
 H312 H 0.53310 -0.01987 1.06010
 H313 H 0.55703 0.04515 0.99972
 H314 H 0.58563 0.14194 1.01292
 H315 H 0.57448 0.18465 1.19860
 H316 H 0.60595 0.25059 1.13942
 C317 C 0.43124 0.60556 1.16946
 C318 C 0.44323 0.56249 1.15985
 C319 C 0.43577 0.54136 1.11818
 C320 C 0.41773 0.56299 1.08567
 C321 C 0.40674 0.60645 1.09391
 C322 C 0.41279 0.62781 1.13616
 C323 C 0.43500 0.62543 1.21178
 C324 C 0.42084 0.66621 1.22104
 C325 C 0.40291 0.68805 1.18855
 C326 C 0.39866 0.66902 1.14651
 H327 H 0.44787 0.60899 1.23814
 H328 H 0.42307 0.68035 1.25371
 H329 H 0.39148 0.71935 1.19604
 H330 H 0.38267 0.68570 1.12261
 H331 H 0.44441 0.50807 1.11069
 H332 H 0.41256 0.54585 1.05365
 C333 C 0.16490 0.56303 1.17130
 C334 C 0.11551 0.56470 1.16552
 C335 C 0.10793 0.58886 1.12858
 C336 C 0.14685 0.60854 1.09638
 C337 C 0.19507 0.60535 1.10017
 C338 C 0.20538 0.58418 1.13865
 C339 C 0.17574 0.54248 1.20945
 C340 C 0.22515 0.54290 1.21554
 C341 C 0.26492 0.56421 1.18408
 C342 C 0.25551 0.58503 1.14618
 H343 H 0.14669 0.52673 1.23522
 H344 H 0.23286 0.52729 1.24508
 H345 H 0.30351 0.56513 1.18927
 H346 H 0.28849 0.60286 1.12363
 H347 H 0.07058 0.59080 1.12391
 H348 H 0.13834 0.62492 1.06754
 C349 C 0.41312 0.90935 1.11874
 C350 C 0.44048 0.90024 1.15372
 C351 C 0.44920 0.85448 1.15300
 C352 C 0.42971 0.81684 1.11955
 C353 C 0.39976 0.82290 1.08614
 C354 C 0.39203 0.86987 1.08490
 C355 C 0.40836 0.95779 1.11540
 C356 C 0.38236 0.96635 1.08039
 C357 C 0.36109 0.92740 1.04781
 C358 C 0.36606 0.87974 1.04975
 H359 H 0.42585 0.99035 1.13886
 H360 H 0.37927 1.00378 1.07828
 H361 H 0.34138 0.93456 1.02053
 H362 H 0.35047 0.85151 1.02300
 H363 H 0.47105 0.84748 1.17886
 H364 H 0.43751 0.78218 1.12009
 C365 C 0.51793 0.42589 0.61557
 C366 C 0.54681 0.44314 0.65491
 C367 C 0.59610 0.44258 0.65963
 C368 C 0.61652 0.42394 0.62660
 C369 C 0.58879 0.40599 0.58755
 C370 C 0.53896 0.40705 0.58156
 C371 C 0.46948 0.42874 0.60872
 C372 C 0.44221 0.41319 0.56962
 C373 C 0.46249 0.39462 0.53652
 C374 C 0.51023 0.39153 0.54223
 H375 H 0.45249 0.44384 0.63304
 H376 H 0.40536 0.41598 0.56488
 H377 H 0.44136 0.38297 0.50607
 H378 H 0.52430 0.37777 0.51503
 H379 H 0.61852 0.45571 0.68951
 H380 H 0.65381 0.42231 0.63202
 C381 C 0.57357 0.17310 0.67177
 C382 C 0.57011 0.12084 0.66509
 C383 C 0.58893 0.10995 0.62660
 C384 C 0.60779 0.14848 0.59372
 C385 C 0.60851 0.19912 0.59837
 C386 C 0.59322 0.21275 0.63820
 C387 C 0.55944 0.18740 0.71152
 C388 C 0.56433 0.23940 0.71800
 C389 C 0.58385 0.27826 0.68536
 C390 C 0.59852 0.26542 0.64591
 H391 H 0.54564 0.15913 0.73821
 H392 H 0.55358 0.24984 0.74871
 H393 H 0.58825 0.31881 0.69079
 H394 H 0.61513 0.29758 0.62211
 H395 H 0.58688 0.07033 0.62124
 H396 H 0.62001 0.13778 0.56372
 C397 C 0.84740 0.47402 0.65683
 C398 C 0.88679 0.45542 0.66043
 C399 C 0.88527 0.41620 0.63114
 C400 C 0.84709 0.39606 0.59841
 C401 C 0.80907 0.41470 0.59303
 C402 C 0.80885 0.45404 0.62247
 C403 C 0.84367 0.51034 0.68716
 C404 C 0.80489 0.52784 0.68313
 C405 C 0.76833 0.50925 0.64936
 C406 C 0.76989 0.47250 0.61964
 H407 H 0.86887 0.52478 0.71526
 H408 H 0.80275 0.55547 0.70674
 H409 H 0.73795 0.52264 0.64657
 H410 H 0.73953 0.45844 0.59507
 H411 H 0.91451 0.40119 0.63319
 H412 H 0.84791 0.36605 0.57647
 C413 C 0.40601 0.58665 0.66927
 C414 C 0.43816 0.56119 0.65954
 C415 C 0.45030 0.55622 0.61675
 C416 C 0.42951 0.57425 0.58352
 C417 C 0.39543 0.59705 0.59221
 C418 C 0.38368 0.60395 0.63529
 C419 C 0.39642 0.59625 0.71204
 C420 C 0.36417 0.62079 0.72120
 C421 C 0.34158 0.63689 0.68804
 C422 C 0.35140 0.62898 0.64541
 H423 H 0.41453 0.58570 0.73854
 H424 H 0.35679 0.62756 0.75418
 H425 H 0.31677 0.65611 0.69538
 H426 H 0.33395 0.64308 0.62063
 H427 H 0.47586 0.53798 0.60896
 H428 H 0.43936 0.56954 0.55068
 C429 C 0.42380 0.90993 0.61224
 C430 C 0.44969 0.90043 0.64829
 C431 C 0.45943 0.85516 0.64729
 C432 C 0.43945 0.81673 0.61428
 C433 C 0.41093 0.82300 0.57970
 C434 C 0.40548 0.87156 0.57730
 C435 C 0.42009 0.95901 0.60807
 C436 C 0.39779 0.96933 0.57156
 C437 C 0.38054 0.93238 0.53762
 C438 C 0.38513 0.88459 0.53997
 H439 H 0.43627 0.99133 0.63174
 H440 H 0.39546 1.00713 0.56904
 H441 H 0.36485 0.94152 0.50878
 H442 H 0.37466 0.85972 0.51131
 H443 H 0.48007 0.84743 0.67369
 H444 H 0.44524 0.78082 0.61648
 C445 C 0.10702 0.61004 0.62913
 C446 C 0.10661 0.56965 0.65804
 C447 C 0.14372 0.54982 0.65127
 C448 C 0.18256 0.57100 0.61914
 C449 C 0.18559 0.61222 0.59160
 C450 C 0.14713 0.63166 0.59598
 C451 C 0.06579 0.62596 0.62954
 C452 C 0.06600 0.66416 0.60047
 C453 C 0.10580 0.68612 0.56926
 C454 C 0.14534 0.66953 0.56648
 H455 H 0.03127 0.60780 0.65058
 H456 H 0.03418 0.67573 0.60150
 H457 H 0.10508 0.71493 0.54617
 H458 H 0.17297 0.68558 0.53996
 H459 H 0.14408 0.51862 0.67203
 H460 H 0.21093 0.55501 0.61588
 C461 C 0.37607 0.54766 0.83488
 C462 C 0.42988 0.55512 0.83644
 C463 C 0.46431 0.58592 0.86989
 C464 C 0.44562 0.60561 0.90325
 C465 C 0.39235 0.59737 0.90354
 C466 C 0.35802 0.57114 0.86776
 C467 C 0.34043 0.51965 0.80057
 C468 C 0.28949 0.51660 0.79781
 C469 C 0.27323 0.54215 0.82848
 C470 C 0.30711 0.56957 0.86288
 H471 H 0.35163 0.50118 0.77468
 H472 H 0.26311 0.49563 0.77098
 H473 H 0.23435 0.54126 0.82539
 H474 H 0.29341 0.59092 0.88445
 H475 H 0.50589 0.59348 0.87103
 H476 H 0.47302 0.62670 0.92955
 C477 C 0.09700 0.52233 0.88189
 C478 C 0.10740 0.55402 0.84391
 C479 C 0.15312 0.60573 0.84173
 C480 C 0.18930 0.62597 0.87587
 C481 C 0.18018 0.59585 0.91388
 C482 C 0.13269 0.54419 0.91772
 C483 C 0.05069 0.47036 0.88576
 C484 C 0.03884 0.44135 0.92421
 C485 C 0.07225 0.46370 0.95972
 C486 C 0.11847 0.51467 0.95679
 H487 H 0.02280 0.45170 0.85947
 H488 H 0.00295 0.40175 0.92669
 H489 H 0.06205 0.44162 0.98984
 H490 H 0.14163 0.53094 0.98587
 H491 H 0.16121 0.63050 0.81305
 H492 H 0.22515 0.66548 0.87234
 C493 C 0.42810 0.82628 0.82585
 C494 C 0.43006 0.87817 0.83006
 C495 C 0.40920 0.89006 0.86702
 C496 C 0.38979 0.85305 0.90091
 C497 C 0.39026 0.80277 0.89877
 C498 C 0.40740 0.78791 0.86028
 C499 C 0.44479 0.81105 0.78770
 C500 C 0.44136 0.75935 0.78358
 C501 C 0.42060 0.72165 0.81693
 C502 C 0.40312 0.73531 0.85468
 H503 H 0.45967 0.83844 0.76049
 H504 H 0.45418 0.74819 0.75412
 H505 H 0.41749 0.68136 0.81341
 H506 H 0.38516 0.70374 0.87878
 H507 H 0.41008 0.92942 0.87045
 H508 H 0.37625 0.86478 0.92976
 C509 C 0.54743 0.45763 0.88356
 C510 C 0.54622 0.43972 0.84076
 C511 C 0.56375 0.40114 0.83182
 C512 C 0.58403 0.38149 0.86445
 C513 C 0.58723 0.39989 0.90681
 C514 C 0.56755 0.43716 0.91691
 C515 C 0.52772 0.49450 0.89409
 C516 C 0.52737 0.51049 0.93649
 C517 C 0.54606 0.48968 0.96920
 C518 C 0.56576 0.45320 0.95968
 H519 H 0.51176 0.51053 0.86973
 H520 H 0.51186 0.53859 0.94406
 H521 H 0.54481 0.50146 1.00216
 H522 H 0.57841 0.43682 0.98614
 H523 H 0.56254 0.38682 0.79925
 H524 H 0.59820 0.35237 0.85647
 C525 C 0.83010 0.42603 0.82558
 C526 C 0.88418 0.43874 0.83534
 C527 C 0.89708 0.42899 0.87663
 C528 C 0.85802 0.40916 0.90875
 C529 C 0.80494 0.39898 0.90061
 C530 C 0.79007 0.40617 0.85850
 C531 C 0.81469 0.43131 0.78349
 C532 C 0.76125 0.41812 0.77405
 C533 C 0.72212 0.39889 0.80618
 C534 C 0.73608 0.39253 0.84798
 H535 H 0.84357 0.44448 0.75753
 H536 H 0.75000 0.42221 0.74155
 H537 H 0.68059 0.38818 0.79856
 H538 H 0.70399 0.37590 0.87155
 H539 H 0.93806 0.43826 0.88449
 H540 H 0.86982 0.40340 0.94069
 C541 C 0.58924 0.09653 0.87815
 C542 C 0.55659 0.10121 0.84512
 C543 C 0.54420 0.14463 0.84672
 C544 C 0.56491 0.18411 0.87903
 C545 C 0.59974 0.18237 0.91042
 C546 C 0.61226 0.13830 0.91028
 C547 C 0.59791 0.05032 0.88113
 C548 C 0.63081 0.04685 0.91317
 C549 C 0.65498 0.08858 0.94334
 C550 C 0.64550 0.13356 0.94230
 H551 H 0.57835 0.01556 0.85982
 H552 H 0.63708 0.01125 0.91488
 H553 H 0.68015 0.08545 0.96835
 H554 H 0.66351 0.16360 0.96751
 H555 H 0.51893 0.14870 0.82221
 H556 H 0.55468 0.21725 0.87891
   
