data_POSCAR
  _audit_creation_date              2014-09-24
  _audit_creation_method            'ToBaCCo'
  _symmetry_space_group_name_H-M    'P1'
  _symmetry_Int_Tables_number       1
  _symmetry_cell_setting            triclinic
  loop_
  _symmetry_equiv_pos_as_xyz
 x,y,z
_cell_length_a 32.9550
_cell_length_b 25.5448
_cell_length_c 15.3016
_cell_angle_alpha 90.088500
_cell_angle_beta 89.820600
_cell_angle_gamma 90.037600
loop_
  _atom_site_label
  _atom_site_type_symbol
  _atom_site_fract_x
  _atom_site_fract_y
  _atom_site_fract_z
O1 O 0.73524 0.31325 0.58289
 O2 O 0.80217 0.25688 0.41470
 O3 O 0.73563 0.31325 0.41394
 O4 O 0.80133 0.25604 0.58301
 O5 O 0.76385 0.18421 0.58254
 O6 O 0.69861 0.24104 0.41290
 O7 O 0.76517 0.18466 0.41378
 O8 O 0.69787 0.24133 0.58123
 Cu9 Cu 0.77231 0.29215 0.49871
 Cu10 Cu 0.72765 0.20553 0.49745
 C11 C 0.70468 0.28733 0.60896
 C12 C 0.79566 0.21070 0.38746
 C13 C 0.70542 0.28724 0.38637
 C14 C 0.79420 0.20996 0.60992
 O15 O 0.23607 0.81619 0.58676
 O16 O 0.30152 0.75742 0.41784
 O17 O 0.23569 0.81520 0.41795
 O18 O 0.30194 0.75865 0.58614
 O19 O 0.26419 0.68707 0.58807
 O20 O 0.19789 0.74365 0.41997
 O21 O 0.26362 0.68595 0.41927
 O22 O 0.19825 0.74470 0.58828
 Cu23 Cu 0.27258 0.79411 0.50199
 Cu24 Cu 0.22721 0.70811 0.50413
 C25 C 0.20549 0.79090 0.61456
 C26 C 0.29419 0.71126 0.39151
 C27 C 0.20503 0.78949 0.39205
 C28 C 0.29485 0.71278 0.61393
 O29 O 0.23457 0.18721 -0.58952
 O30 O 0.30144 0.24344 -0.42155
 O31 O 0.23569 0.18587 -0.42074
 O32 O 0.30060 0.24491 -0.58982
 O33 O 0.26288 0.31643 -0.58710
 O34 O 0.19788 0.25734 -0.41813
 O35 O 0.26375 0.31500 -0.41834
 O36 O 0.19693 0.25879 -0.58642
 Cu37 Cu 0.27184 0.20812 -0.50584
 Cu38 Cu 0.22659 0.29413 -0.50225
 C39 C 0.20381 0.21291 -0.61476
 C40 C 0.29441 0.28920 -0.39295
 C41 C 0.20527 0.21117 -0.39229
 C42 C 0.29339 0.29120 -0.61538
 O43 O -0.19726 0.74177 -0.41642
 O44 O -0.26211 0.68493 -0.58686
 O45 O -0.19673 0.74377 -0.58474
 O46 O -0.26342 0.68476 -0.41806
 O47 O -0.30093 0.75649 -0.41701
 O48 O -0.23500 0.81481 -0.58486
 O49 O -0.30037 0.75600 -0.58526
 O50 O -0.23480 0.81349 -0.41604
 Cu51 Cu -0.22608 0.70659 -0.50168
 Cu52 Cu -0.27156 0.79242 -0.50081
 C53 C -0.20443 0.78772 -0.38897
 C54 C -0.29286 0.71018 -0.61307
 C55 C -0.20406 0.78983 -0.61150
 C56 C -0.29397 0.71031 -0.39072
 N57 N 0.04293 1.05758 0.15415
 N58 N 0.07120 1.06717 0.21286
 N59 N -0.04256 1.09356 0.09465
 N60 N -0.07124 1.12841 0.11077
 N61 N -0.04226 1.05726 0.15533
 N62 N -0.07059 1.06641 0.21444
 N63 N 0.04288 1.09393 0.09355
 N64 N 0.07125 1.12926 0.10936
 C65 C 0.08881 1.11161 0.18354
 C66 C -0.08859 1.11054 0.18525
 N67 N -0.04279 1.05580 -0.15356
 N68 N -0.07102 1.06452 -0.21259
 N69 N 0.04255 1.09309 -0.09503
 N70 N 0.07105 1.12804 -0.11224
 N71 N 0.04236 1.05612 -0.15474
 N72 N 0.07061 1.06480 -0.21412
 N73 N -0.04288 1.09282 -0.09393
 N74 N -0.07129 1.12785 -0.11089
 Mn75 Mn -0.00000 1.09399 -0.00017
 C76 C -0.08874 1.10923 -0.18467
 C77 C 0.08842 1.10944 -0.18631
 N78 N -0.04207 0.94456 0.15645
 N79 N -0.07025 0.93563 0.21596
 N80 N 0.04321 0.90801 0.09521
 N81 N 0.07162 0.87295 0.11170
 N82 N 0.04313 0.94484 0.15520
 N83 N 0.07136 0.93586 0.21417
 N84 N -0.04219 0.90760 0.09668
 N85 N -0.07054 0.87246 0.11399
 Mn86 Mn 0.00043 1.00106 0.15608
 C87 C -0.08792 0.89087 0.18818
 C88 C 0.08908 0.89129 0.18561
 N89 N 0.04259 0.94367 -0.15369
 N90 N 0.07097 0.93486 -0.21275
 N91 N -0.04257 0.90689 -0.09191
 N92 N -0.07107 0.87174 -0.10763
 N93 N -0.04258 0.94328 -0.15242
 N94 N -0.07094 0.93394 -0.21096
 N95 N 0.04290 0.90716 -0.09339
 N96 N 0.07163 0.87239 -0.10991
 Mn97 Mn -0.00011 0.99971 -0.15433
 Mn98 Mn 0.00034 0.90678 0.00165
 Cl99 Cl 0.00016 1.00039 0.00084
 C100 C 0.08900 0.89062 -0.18421
 C101 C -0.08866 0.88960 -0.18164
 N102 N 0.45710 0.44346 0.15501
 N103 N 0.42859 0.43501 0.21391
 N104 N 0.54201 0.40597 0.09327
 N105 N 0.57057 0.37088 0.10845
 N106 N 0.54231 0.44253 0.15368
 N107 N 0.57093 0.43334 0.21167
 N108 N 0.45656 0.40690 0.09461
 N109 N 0.42757 0.37246 0.11087
 C110 C 0.41027 0.39093 0.18510
 C111 C 0.58848 0.38889 0.18210
 N112 N 0.54178 0.44291 -0.15503
 N113 N 0.57017 0.43372 -0.21398
 N114 N 0.45625 0.40714 -0.09401
 N115 N 0.42777 0.37213 -0.11078
 N116 N 0.45659 0.44380 -0.15410
 N117 N 0.42847 0.43476 -0.21336
 N118 N 0.54165 0.40623 -0.09498
 N119 N 0.57006 0.37108 -0.11136
 Mn120 Mn 0.49909 0.40593 -0.00028
 C121 C 0.58772 0.38915 -0.18534
 C122 C 0.41053 0.39033 -0.18493
 N123 N 0.54302 0.55514 0.15442
 N124 N 0.57147 0.56384 0.21303
 N125 N 0.45776 0.59270 0.09593
 N126 N 0.42929 0.62773 0.11287
 N127 N 0.45784 0.55593 0.15581
 N128 N 0.42952 0.56484 0.21501
 N129 N 0.54318 0.59194 0.09461
 N130 N 0.57184 0.62677 0.11096
 Mn131 Mn 0.50008 0.49926 0.15551
 C132 C 0.58937 0.60830 0.18459
 C133 C 0.41181 0.60942 0.18697
 N134 N 0.45736 0.55647 -0.15330
 N135 N 0.42899 0.56589 -0.21176
 N136 N 0.54295 0.59214 -0.09387
 N137 N 0.57174 0.62682 -0.11017
 N138 N 0.54254 0.55561 -0.15437
 N139 N 0.57091 0.56446 -0.21351
 N140 N 0.45750 0.59293 -0.09268
 N141 N 0.42911 0.62817 -0.10823
 Mn142 Mn 0.49958 0.49970 -0.15501
 Mn143 Mn 0.50034 0.59306 0.00098
 Cl144 Cl 0.49976 0.49950 0.00028
 C145 C 0.41145 0.61036 -0.18227
 C146 C 0.58907 0.60862 -0.18455
 C147 C 0.33418 0.35199 0.20291
 C148 C 0.33768 0.29581 0.24083
 C149 C 0.32151 0.31626 0.32877
 C150 C 0.31744 0.37195 0.29182
 C151 C 0.36485 0.32799 0.36015
 C152 C 0.38148 0.30798 0.27159
 C153 C 0.37749 0.36363 0.23459
 C154 C 0.36114 0.38388 0.32263
 H155 H 0.32200 0.36222 0.13757
 H156 H 0.32764 0.25934 0.20779
 H157 H 0.29083 0.39812 0.30041
 H158 H 0.37720 0.31798 0.42548
 H159 H 0.40819 0.28200 0.26283
 H160 H 0.37099 0.42027 0.35620
 C161 C -0.16340 0.85033 0.20655
 C162 C -0.15928 0.79441 0.24526
 C163 C -0.17583 0.81495 0.33283
 C164 C -0.18050 0.87038 0.29505
 C165 C -0.13269 0.82771 0.36434
 C166 C -0.11567 0.80763 0.27612
 C167 C -0.12028 0.86303 0.23833
 C168 C -0.13700 0.88335 0.32600
 H169 H -0.17563 0.85999 0.14102
 H170 H -0.16881 0.75759 0.21262
 H171 H -0.20741 0.89609 0.30304
 H172 H -0.12032 0.81826 0.42989
 H173 H -0.08864 0.78215 0.26790
 H174 H -0.12765 0.92011 0.35913
 C175 C 0.66500 0.64854 0.20154
 C176 C 0.66097 0.70449 0.24044
 C177 C 0.67755 0.68405 0.32774
 C178 C 0.68207 0.62857 0.28976
 C179 C 0.63437 0.67140 0.35975
 C180 C 0.61736 0.69145 0.27192
 C181 C 0.62188 0.63601 0.23397
 C182 C 0.63858 0.61573 0.32132
 H183 H 0.67719 0.63877 0.13581
 H184 H 0.67058 0.74126 0.20781
 H185 H 0.70899 0.60289 0.29742
 H186 H 0.62208 0.68100 0.42551
 H187 H 0.59038 0.71699 0.26415
 H188 H 0.62919 0.57905 0.35454
 C189 C 0.11295 1.16217 0.32506
 C190 C 0.15342 1.13802 0.35583
 C191 C 0.17542 1.18866 0.32910
 C192 C 0.13521 1.21317 0.29894
 C193 C 0.18356 1.16675 0.23711
 C194 C 0.16107 1.11571 0.26316
 C195 C 0.12087 1.14017 0.23302
 C196 C 0.14280 1.19083 0.20603
 H197 H 0.08365 1.16000 0.36087
 H198 H 0.15797 1.11656 0.41810
 H199 H 0.12471 1.25349 0.31395
 H200 H 0.21291 1.16898 0.20155
 H201 H 0.17132 1.07531 0.24797
 H202 H 0.13808 1.21221 0.14379
 C203 C 0.61247 0.33985 -0.32770
 C204 C 0.65329 0.36389 -0.35707
 C205 C 0.67480 0.31280 -0.33134
 C206 C 0.63423 0.28846 -0.30246
 C207 C 0.68241 0.33384 -0.23866
 C208 C 0.66045 0.38530 -0.26378
 C209 C 0.61992 0.36094 -0.23504
 C210 C 0.64133 0.30986 -0.20891
 H211 H 0.58343 0.34262 -0.36397
 H212 H 0.65849 0.38597 -0.41850
 H213 H 0.62365 0.24836 -0.31876
 H214 H 0.71153 0.33099 -0.20270
 H215 H 0.67085 0.42547 -0.24740
 H216 H 0.63605 0.28796 -0.14731
 C217 C 0.13794 0.88349 -0.32193
 C218 C 0.18164 0.87138 -0.29150
 C219 C 0.17739 0.81580 -0.32917
 C220 C 0.13404 0.82771 -0.36014
 C221 C 0.16126 0.79516 -0.24138
 C222 C 0.16495 0.85124 -0.20275
 C223 C 0.12162 0.86307 -0.23403
 C224 C 0.11744 0.80752 -0.27173
 H225 H 0.12816 0.91999 -0.35504
 H226 H 0.20828 0.89753 -0.29990
 H227 H 0.12159 0.81793 -0.42553
 H228 H 0.17124 0.75858 -0.20883
 H229 H 0.17724 0.86124 -0.13736
 H230 H 0.09069 0.78158 -0.26314
 C231 C 0.38706 0.66067 -0.32339
 C232 C 0.34651 0.63650 -0.35375
 C233 C 0.32459 0.68717 -0.32675
 C234 C 0.36490 0.71165 -0.29690
 C235 C 0.31669 0.66531 -0.23472
 C236 C 0.33904 0.61426 -0.26112
 C237 C 0.37932 0.63876 -0.23136
 C238 C 0.35751 0.68942 -0.20400
 H239 H 0.41627 0.65847 -0.35952
 H240 H 0.34175 0.61503 -0.41605
 H241 H 0.37533 0.75197 -0.31201
 H242 H 0.28740 0.66759 -0.19890
 H243 H 0.32879 0.57387 -0.24592
 H244 H 0.36239 0.71087 -0.14176
 C245 C -0.13710 1.11631 -0.32265
 C246 C -0.18083 1.12880 -0.29232
 C247 C -0.17633 1.18424 -0.33022
 C248 C -0.13290 1.17195 -0.36098
 C249 C -0.16037 1.20499 -0.24243
 C250 C -0.16438 1.14908 -0.20363
 C251 C -0.12101 1.13688 -0.23479
 C252 C -0.11651 1.19229 -0.27264
 H253 H -0.12736 1.07966 -0.35565
 H254 H -0.20756 1.10285 -0.30076
 H255 H -0.12025 1.18152 -0.42639
 H256 H -0.17034 1.24173 -0.21006
 H257 H -0.17695 1.13933 -0.13825
 H258 H -0.08969 1.21810 -0.26409
 C259 C 0.66137 0.61152 -0.26558
 C260 C 0.65387 0.63412 -0.35789
 C261 C 0.67631 0.68442 -0.33109
 C262 C 0.68427 0.66221 -0.23942
 C263 C 0.63630 0.70932 -0.29993
 C264 C 0.61362 0.65873 -0.32622
 C265 C 0.62140 0.63647 -0.23454
 C266 C 0.64376 0.68677 -0.20742
 H267 H 0.67131 0.57096 -0.25095
 H268 H 0.65826 0.61275 -0.42046
 H269 H 0.71368 0.66399 -0.20436
 H270 H 0.62616 0.74981 -0.31444
 H271 H 0.58428 0.65704 -0.36159
 H272 H 0.63927 0.70813 -0.14492
 C273 C 0.16409 1.14926 -0.20602
 C274 C 0.18052 1.12932 -0.29516
 C275 C 0.17597 1.18489 -0.33240
 C276 C 0.16004 1.20529 -0.24419
 C277 C 0.13255 1.17261 -0.36267
 C278 C 0.13678 1.11685 -0.32497
 C279 C 0.12072 1.13709 -0.23670
 C280 C 0.11618 1.19262 -0.27392
 H281 H 0.17665 1.13930 -0.14091
 H282 H 0.20728 1.10349 -0.30428
 H283 H 0.17001 1.24194 -0.21162
 H284 H 0.11989 1.18239 -0.42782
 H285 H 0.12703 1.08028 -0.35815
 H286 H 0.08936 1.21833 -0.26472
 C287 C 0.38660 0.34087 -0.32772
 C288 C 0.36424 0.28977 -0.30274
 C289 C 0.32410 0.31450 -0.33284
 C290 C 0.34622 0.36528 -0.35833
 C291 C 0.31588 0.33583 -0.24047
 C292 C 0.35653 0.31147 -0.20951
 C293 C 0.37855 0.36226 -0.23534
 C294 C 0.33844 0.38700 -0.26536
 H295 H 0.41597 0.34322 -0.36326
 H296 H 0.37465 0.24953 -0.31854
 H297 H 0.34176 0.38712 -0.42026
 H298 H 0.28645 0.33340 -0.20524
 H299 H 0.36110 0.28964 -0.14765
 H300 H 0.32820 0.42731 -0.24948
 C301 C -0.11251 0.83936 -0.32326
 C302 C -0.13506 0.78852 -0.29768
 C303 C -0.17506 0.81326 -0.32855
 C304 C -0.15275 0.86379 -0.35462
 C305 C -0.18343 0.83512 -0.23660
 C306 C -0.14290 0.81075 -0.20485
 C307 C -0.12070 0.86128 -0.23130
 C308 C -0.16067 0.88604 -0.26206
 H309 H -0.08307 0.84137 -0.35854
 H310 H -0.12471 0.74815 -0.31276
 H311 H -0.15702 0.88531 -0.41691
 H312 H -0.21295 0.83302 -0.20166
 H313 H -0.13850 0.78926 -0.14261
 H314 H -0.17082 0.92648 -0.24689
 C315 C 0.36299 0.61702 0.32497
 C316 C 0.36707 0.67284 0.36282
 C317 C 0.32373 0.68498 0.33193
 C318 C 0.31934 0.62935 0.29453
 C319 C 0.33996 0.70529 0.24398
 C320 C 0.38373 0.69276 0.27433
 C321 C 0.37935 0.63716 0.23696
 C322 C 0.33606 0.64919 0.20566
 H323 H 0.37264 0.58052 0.35827
 H324 H 0.37952 0.68273 0.42816
 H325 H 0.29257 0.60345 0.30319
 H326 H 0.33009 0.74187 0.21127
 H327 H 0.41056 0.71853 0.26559
 H328 H 0.32371 0.63913 0.14036
 C329 C -0.11312 1.16113 0.32663
 C330 C -0.13584 1.21162 0.30022
 C331 C -0.17581 1.18657 0.33129
 C332 C -0.15335 1.13643 0.35832
 C333 C -0.18379 1.16413 0.23971
 C334 C -0.14327 1.18876 0.20772
 C335 C -0.12088 1.13860 0.23499
 C336 C -0.16083 1.11359 0.26604
 H337 H -0.08378 1.15959 0.36199
 H338 H -0.12570 1.25218 0.31458
 H339 H -0.15769 1.11518 0.42093
 H340 H -0.21319 1.16572 0.20459
 H341 H -0.13877 1.20994 0.14515
 H342 H -0.17071 1.07295 0.25147
 C343 C 0.61330 0.33925 0.32332
 C344 C 0.63542 0.28817 0.29734
 C345 C 0.67578 0.31280 0.32660
 C346 C 0.65388 0.36359 0.35301
 C347 C 0.68352 0.33419 0.23419
 C348 C 0.64264 0.30993 0.20408
 C349 C 0.62085 0.36071 0.23092
 C350 C 0.66117 0.38537 0.26002
 H351 H 0.58414 0.34159 0.35966
 H352 H 0.62500 0.24792 0.31306
 H353 H 0.65876 0.38555 0.41473
 H354 H 0.71275 0.33177 0.19817
 H355 H 0.63767 0.28816 0.14219
 H356 H 0.67139 0.42568 0.24420
 C357 C 0.11300 0.84161 0.32781
 C358 C 0.13518 0.79049 0.30216
 C359 C 0.17543 0.81501 0.33230
 C360 C 0.15349 0.86582 0.35847
 C361 C 0.18362 0.83650 0.24014
 C362 C 0.14287 0.81234 0.20914
 C363 C 0.12104 0.86315 0.23565
 C364 C 0.16125 0.88770 0.26569
 H365 H 0.08368 0.84400 0.36352
 H366 H 0.12466 0.75025 0.31757
 H367 H 0.15810 0.88751 0.42061
 H368 H 0.21301 0.83403 0.20475
 H369 H 0.13816 0.79067 0.14706
 H370 H 0.17158 0.92801 0.25020
   
