data_POSCAR
  _audit_creation_date              2014-09-24
  _audit_creation_method            'ToBaCCo'
  _symmetry_space_group_name_H-M    'P1'
  _symmetry_Int_Tables_number       1
  _symmetry_cell_setting            triclinic
  loop_
  _symmetry_equiv_pos_as_xyz
 x,y,z
_cell_length_a 43.0501
_cell_length_b 46.0234
_cell_length_c 21.8386
_cell_angle_alpha 90.054300
_cell_angle_beta 89.765800
_cell_angle_gamma 124.139000
loop_
  _atom_site_label
  _atom_site_type_symbol
  _atom_site_fract_x
  _atom_site_fract_y
  _atom_site_fract_z
C1 C 0.45035 0.89185 0.46174
 C2 C 0.43958 0.89029 0.52140
 C3 C 0.46353 0.92358 0.54583
 N4 N 0.48782 0.94564 0.50236
 C5 C 0.47971 0.92634 0.45079
 C6 C 0.46395 0.93304 0.60780
 C7 C 0.48154 0.96857 0.62604
 C8 C 0.49137 0.98040 0.68588
 C9 C 0.50691 1.01577 0.68509
 C10 C 0.50631 1.02496 0.62477
 N11 N 0.49091 0.99599 0.58889
 C12 C 0.51950 1.05945 0.60494
 C13 C 0.52798 1.06963 0.54258
 C14 C 0.53179 1.09897 0.51661
 C15 C 0.54283 1.10063 0.45709
 C16 C 0.54416 1.07155 0.44776
 N17 N 0.53522 1.05273 0.50017
 C18 C 0.55592 1.06395 0.39303
 C19 C 0.55140 1.03152 0.38263
 C20 C 0.56747 1.02456 0.33458
 C21 C 0.55158 0.98895 0.33523
 C22 C 0.52629 0.97519 0.38367
 N23 N 0.52652 1.00133 0.41239
 C24 C 0.50029 0.93909 0.39544
 H25 H 0.43779 0.86991 0.43044
 H26 H 0.41661 0.86715 0.54396
 H27 H 0.50677 0.99801 0.44427
 H28 H 0.48855 0.96538 0.72612
 H29 H 0.51819 1.03282 0.72459
 H30 H 0.52704 1.11737 0.53803
 H31 H 0.54907 1.12103 0.42478
 H32 H 0.55699 0.97471 0.30227
 H33 H 0.48419 0.99448 0.54275
 H34 H 0.58741 1.04294 0.30101
 C35 C -0.11426 0.47431 0.47839
 C36 C -0.11429 0.46736 0.53924
 C37 C -0.07876 0.47541 0.55284
 N38 N -0.05786 0.48542 0.50076
 C39 C -0.07959 0.48445 0.45503
 C40 C -0.06704 0.46987 0.61017
 C41 C -0.02907 0.48198 0.62132
 C42 C -0.01622 0.47350 0.67224
 C43 C 0.02223 0.49571 0.67216
 C44 C 0.03208 0.51705 0.62123
 N45 N 0.00085 0.50849 0.59036
 C46 C 0.06890 0.54557 0.60748
 C47 C 0.07989 0.56094 0.54881
 C48 C 0.11473 0.59070 0.53398
 C49 C 0.11452 0.59543 0.47200
 C50 C 0.07947 0.56857 0.45133
 N51 N 0.05841 0.54744 0.49822
 C52 C 0.06806 0.56258 0.38964
 C53 C 0.03016 0.53998 0.37173
 C54 C 0.01871 0.52802 0.31250
 C55 C -0.01977 0.50801 0.31307
 C56 C -0.03103 0.50836 0.37270
 N57 N -0.00029 0.52796 0.40824
 C58 C -0.06897 0.49113 0.39215
 H59 H -0.13760 0.47173 0.45436
 H60 H -0.13857 0.45673 0.56852
 H61 H -0.00010 0.53542 0.45328
 H62 H -0.03248 0.45448 0.70777
 H63 H 0.04081 0.49663 0.70653
 H64 H 0.13796 0.60719 0.56443
 H65 H 0.13748 0.61630 0.44526
 H66 H -0.03735 0.49432 0.27390
 H67 H -0.00008 0.52352 0.55585
 H68 H 0.03624 0.53291 0.27292
 C69 C 0.43741 0.54243 0.53530
 C70 C 0.43821 0.54297 0.47271
 C71 C 0.45415 0.52525 0.45456
 N72 N 0.46280 0.51371 0.50439
 C73 C 0.45334 0.52474 0.55420
 C74 C 0.45686 0.51710 0.39302
 C75 C 0.47148 0.49741 0.37534
 C76 C 0.46857 0.48413 0.31693
 C77 C 0.48827 0.46882 0.31702
 C78 C 0.50278 0.47317 0.37536
 N79 N 0.49254 0.49069 0.41058
 C80 C 0.52720 0.46344 0.39322
 C81 C 0.53685 0.46317 0.45471
 C82 C 0.56745 0.46303 0.47326
 C83 C 0.56662 0.46239 0.53602
 C84 C 0.53483 0.46106 0.55376
 N85 N 0.51692 0.46197 0.50380
 C86 C 0.52204 0.45851 0.61473
 C87 C 0.49535 0.46630 0.62944
 C88 C 0.47346 0.45503 0.68205
 C89 C 0.45385 0.47033 0.68213
 C90 C 0.46399 0.49063 0.62926
 N91 N 0.48906 0.48760 0.59701
 C92 C 0.45376 0.51440 0.61548
 H93 H 0.42384 0.55183 0.56268
 H94 H 0.42633 0.55354 0.44419
 H95 H 0.50487 0.50286 0.55961
 H96 H 0.45425 0.48573 0.27780
 H97 H 0.49196 0.45637 0.27822
 H98 H 0.58872 0.46424 0.44458
 H99 H 0.58765 0.46358 0.56491
 H100 H 0.43446 0.46661 0.71779
 H101 H 0.50297 0.50083 0.45380
 H102 H 0.47182 0.43761 0.71713
 O103 O 0.41363 0.67170 -0.04312
 O104 O 0.40784 0.72368 -0.06784
 C105 C 0.38840 0.73513 -0.08394
 O106 O 0.35814 0.72672 -0.05710
 O107 O 0.29923 0.66312 -0.07437
 C108 C 0.28434 0.63071 -0.08349
 O109 O 0.29130 0.61222 -0.05083
 O110 O 0.35729 0.62307 -0.06275
 C111 C 0.39230 0.64332 -0.07245
 O112 O 0.40825 0.68147 0.07767
 O113 O 0.40547 0.73558 0.05282
 C114 C 0.37991 0.73728 0.07836
 O115 O 0.34557 0.71727 0.06461
 O116 O 0.28531 0.65481 0.04710
 C117 C 0.28164 0.63032 0.08018
 O118 O 0.30066 0.61737 0.07203
 O119 O 0.36510 0.62486 0.05942
 C120 C 0.39259 0.64923 0.08982
 Cr121 Cr 0.40669 0.70191 0.00483
 Cr122 Cr 0.32326 0.68974 -0.00471
 Cr123 Cr 0.32947 0.62132 0.00440
 O124 O 0.35315 0.67101 0.00150
 O125 O 0.59216 0.31377 -0.07360
 O126 O 0.59678 0.26013 -0.05905
 C127 C 0.62357 0.26240 -0.08881
 O128 O 0.65765 0.28305 -0.07400
 O129 O 0.71617 0.34445 -0.04362
 C130 C 0.71906 0.37019 -0.07135
 O131 O 0.69800 0.38058 -0.06012
 O132 O 0.63219 0.36969 -0.04596
 C133 C 0.60693 0.34625 -0.08108
 O134 O 0.58328 0.31692 0.04867
 O135 O 0.59162 0.26542 0.06313
 C136 C 0.61116 0.25329 0.07336
 O137 O 0.64178 0.26393 0.04527
 O138 O 0.69796 0.32662 0.07555
 C139 C 0.71193 0.35810 0.09113
 O140 O 0.70580 0.37849 0.06236
 O141 O 0.63840 0.36476 0.07597
 C142 C 0.60325 0.34373 0.08251
 Cr143 Cr 0.59293 0.29029 -0.00495
 Cr144 Cr 0.67724 0.30515 0.00085
 Cr145 Cr 0.66779 0.37152 0.00788
 O146 O 0.64598 0.32233 0.00147
 C147 C 0.44706 0.90700 -0.34590
 C148 C 0.44727 0.87674 -0.34607
 C149 C 0.43121 0.85120 -0.29554
 N150 N 0.43979 0.82711 -0.29039
 N151 N 0.42592 0.80408 -0.24444
 C152 C 0.40273 0.80413 -0.20215
 N153 N 0.39376 0.82795 -0.20771
 N154 N 0.40783 0.85115 -0.25347
 C155 C 0.38764 0.77911 -0.15079
 C156 C 0.40221 0.75956 -0.13603
 H157 H 0.46230 0.87293 -0.38155
 H158 H 0.36571 0.77707 -0.12267
 H159 H 0.43724 0.91243 -0.30451
 H160 H 0.42551 0.76312 -0.16233
 C161 C 0.09651 0.56054 -0.34212
 C162 C 0.12872 0.56034 -0.34297
 C163 C 0.15695 0.57732 -0.29427
 N164 N 0.18233 0.56902 -0.28598
 N165 N 0.20821 0.58464 -0.24228
 C166 C 0.20989 0.60943 -0.20581
 N167 N 0.18480 0.61798 -0.21460
 N168 N 0.15870 0.60212 -0.25782
 C169 C 0.23844 0.62729 -0.15783
 C170 C 0.25725 0.61328 -0.13364
 H171 H 0.13309 0.54726 -0.37992
 H172 H 0.24323 0.65119 -0.13859
 H173 H 0.09014 0.57037 -0.30227
 H174 H 0.25025 0.58791 -0.14918
 C175 C 0.44134 0.52579 -0.33574
 C176 C 0.45105 0.56018 -0.33006
 C177 C 0.43596 0.57047 -0.28040
 N178 N 0.45182 0.60492 -0.26781
 N179 N 0.43774 0.61447 -0.22382
 C180 C 0.40709 0.58989 -0.19123
 N181 N 0.39109 0.55548 -0.20415
 N182 N 0.40532 0.54593 -0.24780
 C183 C 0.39059 0.59986 -0.14359
 C184 C 0.40943 0.63368 -0.11958
 H185 H 0.47112 0.58033 -0.36146
 H186 H 0.36313 0.57968 -0.12586
 H187 H 0.42769 0.50906 -0.29642
 H188 H 0.43783 0.65332 -0.13439
 C189 C 0.52456 0.08384 -0.34987
 C190 C 0.55365 0.11950 -0.35112
 C191 C 0.55959 0.14345 -0.30099
 N192 N 0.59268 0.17524 -0.29696
 N193 N 0.59893 0.19694 -0.25105
 C194 C 0.57222 0.18775 -0.20766
 N195 N 0.53891 0.15615 -0.21214
 N196 N 0.53274 0.13434 -0.25788
 C197 C 0.57923 0.21115 -0.15587
 C198 C 0.61527 0.23982 -0.14233
 H199 H 0.57477 0.12966 -0.38687
 H200 H 0.55596 0.20467 -0.12616
 H201 H 0.50798 0.07397 -0.30826
 H202 H 0.63871 0.24506 -0.17039
 C203 C 0.90657 0.45095 -0.34254
 C204 C 0.88171 0.45910 -0.32128
 C205 C 0.85417 0.43897 -0.27233
 N206 N 0.83118 0.44858 -0.25322
 N207 N 0.80556 0.43035 -0.20984
 C208 C 0.80191 0.40176 -0.18386
 N209 N 0.82497 0.39216 -0.20287
 N210 N 0.85060 0.41040 -0.24637
 C211 C 0.77333 0.38128 -0.13627
 C212 C 0.74836 0.38984 -0.11803
 H213 H 0.88325 0.48177 -0.33944
 H214 H 0.77170 0.35903 -0.11583
 H215 H 0.90880 0.43251 -0.31560
 H216 H 0.75005 0.41198 -0.13920
 C217 C 0.53581 0.44863 -0.33645
 C218 C 0.54616 0.42489 -0.34160
 C219 C 0.56069 0.41611 -0.28902
 N220 N 0.56109 0.38687 -0.29054
 N221 N 0.57404 0.37854 -0.24315
 C222 C 0.58739 0.39932 -0.19266
 N223 N 0.58744 0.42881 -0.19145
 N224 N 0.57422 0.43701 -0.23867
 C225 C 0.60153 0.39019 -0.13995
 C226 C 0.59354 0.35656 -0.13304
 H227 H 0.54109 0.41047 -0.38373
 H228 H 0.61726 0.40982 -0.10499
 H229 H 0.53502 0.45728 -0.29064
 H230 H 0.57583 0.33652 -0.16632
 C231 C 0.90364 0.48049 0.34597
 C232 C 0.86793 0.44920 0.34793
 C233 C 0.84049 0.43868 0.29848
 N234 N 0.80973 0.40524 0.29634
 N235 N 0.78477 0.39505 0.25157
 C236 C 0.78945 0.41800 0.20746
 N237 N 0.81997 0.45162 0.21003
 N238 N 0.84509 0.46177 0.25467
 C239 C 0.76260 0.40655 0.15668
 C240 C 0.73680 0.37102 0.14457
 H241 H 0.86061 0.43054 0.38457
 H242 H 0.76475 0.42616 0.12620
 H243 H 0.91189 0.49514 0.30341
 H244 H 0.73653 0.35163 0.17310
 C245 C 0.57362 0.09090 0.34410
 C246 C 0.55285 0.10051 0.31195
 C247 C 0.56947 0.12847 0.26550
 N248 N 0.54854 0.13929 0.24177
 N249 N 0.56320 0.16521 0.20087
 C250 C 0.59937 0.18128 0.18198
 N251 N 0.62028 0.17028 0.20535
 N252 N 0.60564 0.14440 0.24652
 C253 C 0.61577 0.21020 0.13714
 C254 C 0.59647 0.22489 0.11875
 H255 H 0.52345 0.08800 0.32333
 H256 H 0.64355 0.22036 0.11907
 H257 H 0.60262 0.10196 0.33191
 H258 H 0.56920 0.21526 0.13858
 C259 C 0.54436 0.45428 0.34458
 C260 C 0.53822 0.42119 0.34201
 C261 C 0.55441 0.41158 0.29304
 N262 N 0.54060 0.37732 0.28215
 N263 N 0.55530 0.36843 0.23808
 C264 C 0.58455 0.39354 0.20372
 N265 N 0.59852 0.42776 0.21500
 N266 N 0.58363 0.43663 0.25862
 C267 C 0.60198 0.38458 0.15599
 C268 C 0.58460 0.35107 0.13083
 H269 H 0.52013 0.40154 0.37577
 H270 H 0.62904 0.40564 0.13838
 H271 H 0.55931 0.47288 0.30772
 H272 H 0.55635 0.33047 0.14468
 C273 C 0.09700 0.57976 0.34077
 C274 C 0.12674 0.57573 0.33794
 C275 C 0.15363 0.58935 0.28671
 N276 N 0.17895 0.58072 0.28228
 N277 N 0.20326 0.59251 0.23580
 C278 C 0.20320 0.61345 0.19209
 N279 N 0.17801 0.62224 0.19671
 N280 N 0.15360 0.61035 0.24307
 C281 C 0.23001 0.62689 0.14070
 C282 C 0.25394 0.61596 0.13033
 H283 H 0.12945 0.56081 0.37332
 H284 H 0.23073 0.64577 0.11008
 H285 H 0.09236 0.59221 0.30316
 H286 H 0.25250 0.59638 0.15998
 C287 C 0.49451 0.91375 0.34741
 C288 C 0.46047 0.89393 0.31661
 C289 C 0.45245 0.86700 0.27118
 N290 N 0.41729 0.84612 0.24827
 N291 N 0.40905 0.82100 0.20810
 C292 C 0.43568 0.81582 0.18922
 N293 N 0.47096 0.83685 0.21187
 N294 N 0.47919 0.86194 0.25227
 C295 C 0.42670 0.78810 0.14468
 C296 C 0.38998 0.76413 0.12518
 H297 H 0.43820 0.89734 0.32826
 H298 H 0.44929 0.78659 0.12694
 H299 H 0.51771 0.91193 0.33479
 H300 H 0.36748 0.76538 0.14422
 C301 C 0.44116 0.52762 0.34424
 C302 C 0.45609 0.56282 0.33169
 C303 C 0.43993 0.57365 0.28511
 N304 N 0.45488 0.60825 0.27556
 N305 N 0.44021 0.61837 0.23396
 C306 C 0.41000 0.59422 0.20049
 N307 N 0.39508 0.55965 0.21008
 N308 N 0.40972 0.54954 0.25164
 C309 C 0.39361 0.60468 0.15371
 C310 C 0.40775 0.63966 0.14037
 H311 H 0.47985 0.58298 0.35794
 H312 H 0.37006 0.58395 0.12788
 H313 H 0.41845 0.50726 0.31663
 H314 H 0.43130 0.66050 0.16600
   
