data_POSCAR
  _audit_creation_date              2014-09-24
  _audit_creation_method            'ToBaCCo'
  _symmetry_space_group_name_H-M    'P1'
  _symmetry_Int_Tables_number       1
  _symmetry_cell_setting            triclinic
  loop_
  _symmetry_equiv_pos_as_xyz
 x,y,z
_cell_length_a 48.7622
_cell_length_b 49.2120
_cell_length_c 49.3050
_cell_angle_alpha 90.055300
_cell_angle_beta 89.878200
_cell_angle_gamma 89.999600
loop_
  _atom_site_label
  _atom_site_type_symbol
  _atom_site_fract_x
  _atom_site_fract_y
  _atom_site_fract_z
N1 N 0.29598 0.24125 0.21869
 N2 N 0.28411 0.26295 0.20851
 C3 C 0.29784 0.27070 0.18608
 C4 C 0.31939 0.25291 0.18203
 C5 C 0.31766 0.23448 0.20309
 H6 H 0.29240 0.28772 0.17333
 H7 H 0.33090 0.21720 0.20653
 Cu8 Cu 0.25134 0.27838 0.22508
 Cu9 Cu 0.28176 0.22284 0.25078
 Cu10 Cu 0.22352 0.25026 0.28075
 N11 N 0.21892 0.29391 0.24223
 N12 N 0.20817 0.28275 0.26402
 C13 C 0.18582 0.29696 0.27151
 C14 C 0.18234 0.31810 0.25342
 C15 C 0.20369 0.31562 0.23510
 H16 H 0.17284 0.29213 0.28865
 H17 H 0.20757 0.32852 0.21776
 N18 N 0.24206 0.21752 0.29469
 N19 N 0.26428 0.20716 0.28332
 C20 C 0.27181 0.18481 0.29718
 C21 C 0.25349 0.18094 0.31821
 C22 C 0.23491 0.20200 0.31609
 H23 H 0.28918 0.17205 0.29224
 H24 H 0.21735 0.20553 0.32906
 H25 H 0.24138 0.23458 0.24603
 H26 H 0.26333 0.25661 0.26785
 N27 N 0.70512 -0.24101 0.21780
 N28 N 0.71543 -0.26424 0.20938
 C29 C 0.70257 -0.27183 0.18644
 C30 C 0.68311 -0.25229 0.18026
 C31 C 0.68533 -0.23297 0.20056
 H32 H 0.70711 -0.29012 0.17509
 H33 H 0.67358 -0.21436 0.20251
 Cu34 Cu 0.74478 -0.28243 0.22902
 Cu35 Cu 0.71857 -0.22278 0.25019
 Cu36 Cu 0.77639 -0.25007 0.28032
 N37 N 0.77995 -0.29478 0.24304
 N38 N 0.79217 -0.28206 0.26313
 C39 C 0.81592 -0.29472 0.26888
 C40 C 0.81865 -0.31666 0.25150
 C41 C 0.79548 -0.31609 0.23531
 H42 H 0.83019 -0.28839 0.28449
 H43 H 0.79032 -0.33004 0.21913
 N44 N 0.75734 -0.21781 0.29468
 N45 N 0.73529 -0.20741 0.28315
 C46 C 0.72725 -0.18543 0.29736
 C47 C 0.74513 -0.18181 0.31872
 C48 C 0.76389 -0.20270 0.31653
 H49 H 0.70980 -0.17280 0.29249
 H50 H 0.78112 -0.20640 0.32978
 H51 H 0.75795 -0.23750 0.24473
 H52 H 0.73573 -0.25577 0.26979
 N53 N 0.70148 0.24599 0.77581
 N54 N 0.71308 0.26798 0.78568
 C55 C 0.70134 0.27415 0.80964
 C56 C 0.68123 0.25505 0.81495
 C57 C 0.68181 0.23750 0.79304
 H58 H 0.70693 0.29130 0.82221
 H59 H 0.66895 0.21987 0.78987
 Cu60 Cu 0.74214 0.28672 0.76615
 Cu61 Cu 0.71252 0.23054 0.74113
 Cu62 Cu 0.77660 0.25135 0.71860
 N63 N 0.77799 0.29828 0.75344
 N64 N 0.79159 0.28404 0.73528
 C65 C 0.81580 0.29620 0.73036
 C66 C 0.81747 0.31927 0.74632
 C67 C 0.79311 0.32000 0.76077
 H68 H 0.83104 0.28887 0.71615
 H69 H 0.78690 0.33510 0.77552
 N70 N 0.75760 0.21909 0.70408
 N71 N 0.73298 0.21154 0.71236
 C72 C 0.72531 0.18922 0.69851
 C73 C 0.74602 0.18251 0.68057
 C74 C 0.76617 0.20182 0.68459
 H75 H 0.70614 0.17856 0.70134
 H76 H 0.78559 0.20313 0.67404
 H77 H 0.75184 0.24065 0.75121
 H78 H 0.73628 0.26126 0.72353
 N79 N 0.29547 -0.24226 0.78128
 N80 N 0.28428 -0.26464 0.79076
 C81 C 0.29805 -0.27251 0.81308
 C82 C 0.31894 -0.25411 0.81775
 C83 C 0.31674 -0.23518 0.79719
 H84 H 0.29306 -0.29006 0.82533
 H85 H 0.32940 -0.21737 0.79433
 Cu86 Cu 0.25218 -0.28087 0.77373
 Cu87 Cu 0.28105 -0.22354 0.74959
 Cu88 Cu 0.22302 -0.25073 0.71960
 N89 N 0.21894 -0.29520 0.75716
 N90 N 0.20771 -0.28336 0.73601
 C91 C 0.18478 -0.29691 0.72910
 C92 C 0.18139 -0.31833 0.74694
 C93 C 0.20344 -0.31669 0.76448
 H94 H 0.17133 -0.29137 0.71259
 H95 H 0.20761 -0.32993 0.78147
 N96 N 0.24146 -0.21784 0.70588
 N97 N 0.26355 -0.20747 0.71737
 C98 C 0.27114 -0.18505 0.70363
 C99 C 0.25300 -0.18115 0.68253
 C100 C 0.23444 -0.20227 0.68450
 H101 H 0.28850 -0.17234 0.70862
 H102 H 0.21705 -0.20585 0.67141
 H103 H 0.24093 -0.23641 0.75488
 H104 H 0.26301 -0.25700 0.73165
 N105 N 0.70482 -0.24251 0.78078
 N106 N 0.71609 -0.26486 0.79017
 C107 C 0.70252 -0.27273 0.81264
 C108 C 0.68166 -0.25437 0.81747
 C109 C 0.68365 -0.23545 0.79689
 H110 H 0.70767 -0.29020 0.82490
 H111 H 0.67098 -0.21762 0.79418
 Cu112 Cu 0.74805 -0.28106 0.77298
 Cu113 Cu 0.71911 -0.22374 0.74908
 Cu114 Cu 0.77721 -0.25075 0.71884
 N115 N 0.78125 -0.29525 0.75627
 N116 N 0.79252 -0.28333 0.73515
 C117 C 0.81542 -0.29688 0.72809
 C118 C 0.81869 -0.31839 0.74579
 C119 C 0.79666 -0.31680 0.76342
 H120 H 0.82888 -0.29130 0.71154
 H121 H 0.79243 -0.33013 0.78035
 N122 N 0.75871 -0.21793 0.70529
 N123 N 0.73656 -0.20765 0.71685
 C124 C 0.72901 -0.18516 0.70326
 C125 C 0.74726 -0.18113 0.68221
 C126 C 0.76581 -0.20223 0.68402
 H127 H 0.71165 -0.17246 0.70836
 H128 H 0.78328 -0.20568 0.67093
 H129 H 0.73723 -0.25719 0.73096
 H130 H 0.75926 -0.23660 0.75416
 N131 N 0.29564 0.24147 0.78160
 N132 N 0.28396 0.26336 0.79167
 C133 C 0.29773 0.27119 0.81399
 C134 C 0.31910 0.25324 0.81806
 C135 C 0.31723 0.23463 0.79715
 H136 H 0.29248 0.28843 0.82659
 H137 H 0.33036 0.21725 0.79374
 Cu138 Cu 0.25155 0.27912 0.77500
 Cu139 Cu 0.28155 0.22312 0.74956
 Cu140 Cu 0.22378 0.25081 0.71936
 N141 N 0.21913 0.29443 0.75795
 N142 N 0.20846 0.28327 0.73613
 C143 C 0.18600 0.29734 0.72884
 C144 C 0.18241 0.31837 0.74707
 C145 C 0.20377 0.31599 0.76527
 H146 H 0.17297 0.29240 0.71181
 H147 H 0.20750 0.32877 0.78274
 N148 N 0.24229 0.21800 0.70545
 N149 N 0.26427 0.20749 0.71701
 C150 C 0.27175 0.18500 0.70328
 C151 C 0.25364 0.18122 0.68215
 C152 C 0.23523 0.20245 0.68405
 H153 H 0.28890 0.17207 0.70841
 H154 H 0.21783 0.20604 0.67098
 H155 H 0.26350 0.25697 0.73231
 H156 H 0.24117 0.23530 0.75422
 N157 N 0.29559 -0.24193 0.21963
 N158 N 0.28404 -0.26401 0.20990
 C159 C 0.29775 -0.27196 0.18753
 C160 C 0.31897 -0.25391 0.18309
 C161 C 0.31707 -0.23511 0.20383
 H162 H 0.29253 -0.28933 0.17512
 H163 H 0.33007 -0.21758 0.20692
 Cu164 Cu 0.25181 -0.27987 0.22688
 Cu165 Cu 0.28131 -0.22317 0.25141
 Cu166 Cu 0.22311 -0.25022 0.28153
 N167 N 0.21883 -0.29439 0.24359
 N168 N 0.20781 -0.28277 0.26502
 C169 C 0.18507 -0.29650 0.27217
 C170 C 0.18165 -0.31776 0.25420
 C171 C 0.20339 -0.31589 0.23631
 H172 H 0.17174 -0.29119 0.28890
 H173 H 0.20736 -0.32897 0.21911
 N174 N 0.24164 -0.21741 0.29520
 N175 N 0.26381 -0.20714 0.28370
 C176 C 0.27127 -0.18457 0.29727
 C177 C 0.25296 -0.18051 0.31826
 C178 C 0.23445 -0.20165 0.31642
 H179 H 0.28857 -0.17181 0.29215
 H180 H 0.21690 -0.20505 0.32943
 H181 H 0.26308 -0.25667 0.26918
 H182 H 0.24111 -0.23559 0.24643
 N183 N 0.70507 0.24060 0.21925
 N184 N 0.71602 0.26322 0.21009
 C185 C 0.70232 0.27117 0.18779
 C186 C 0.68172 0.25257 0.18282
 C187 C 0.68400 0.23343 0.20315
 H188 H 0.70714 0.28893 0.17579
 H189 H 0.67151 0.21546 0.20577
 Cu190 Cu 0.74761 0.27984 0.22748
 Cu191 Cu 0.71939 0.22185 0.25087
 Cu192 Cu 0.77687 0.24949 0.28142
 N193 N 0.78062 0.29421 0.24427
 N194 N 0.79191 0.28230 0.26533
 C195 C 0.81467 0.29601 0.27242
 C196 C 0.81783 0.31760 0.25481
 C197 C 0.79591 0.31590 0.23719
 H198 H 0.82819 0.29046 0.28886
 H199 H 0.79173 0.32923 0.22028
 N200 N 0.75871 0.21639 0.29477
 N201 N 0.73682 0.20586 0.28307
 C202 C 0.72934 0.18332 0.29665
 C203 C 0.74738 0.17954 0.31784
 C204 C 0.76574 0.20081 0.31611
 H205 H 0.71213 0.17048 0.29152
 H206 H 0.78298 0.20453 0.32936
 H207 H 0.73677 0.25542 0.26921
 H208 H 0.75929 0.23537 0.24587
 C209 C 0.25114 -0.02506 0.55794
 C210 C 0.25185 -0.00030 0.57182
 C211 C 0.25092 0.02457 0.55821
 C212 C 0.24979 0.02493 0.52951
 C213 C 0.24926 -0.00002 0.51498
 C214 C 0.24997 -0.02512 0.52923
 C215 C 0.25092 -0.04947 0.51435
 C216 C 0.25077 -0.04931 0.48613
 C217 C 0.24971 -0.02480 0.47156
 C218 C 0.24916 0.00014 0.48611
 C219 C 0.25061 0.04944 0.51493
 C220 C 0.25057 0.04960 0.48672
 C221 C 0.24968 0.02525 0.47185
 C222 C 0.25075 0.02520 0.44314
 C223 C 0.25142 0.00046 0.42925
 C224 C 0.25065 -0.02442 0.44285
 H225 H 0.25256 -0.06897 0.52427
 H226 H 0.25229 -0.06870 0.47595
 H227 H 0.25208 0.06885 0.52508
 H228 H 0.25198 0.06911 0.47677
 H229 H 0.25274 -0.00038 0.59381
 H230 H 0.25222 0.00057 0.40725
 C231 C 0.74892 0.02409 0.44286
 C232 C 0.74779 -0.00079 0.42919
 C233 C 0.74838 -0.02555 0.44303
 C234 C 0.74970 -0.02560 0.47173
 C235 C 0.75065 -0.00051 0.48602
 C236 C 0.75024 0.02444 0.47155
 C237 C 0.74974 0.04896 0.48622
 C238 C 0.74997 0.04909 0.51443
 C239 C 0.75060 0.02472 0.52922
 C240 C 0.75083 -0.00037 0.51490
 C241 C 0.74862 -0.04994 0.48656
 C242 C 0.74880 -0.04980 0.51475
 C243 C 0.75008 -0.02531 0.52938
 C244 C 0.74917 -0.02495 0.55808
 C245 C 0.74861 -0.00008 0.57177
 C246 C 0.74955 0.02465 0.55793
 H247 H 0.74842 0.06840 0.47613
 H248 H 0.74889 0.06860 0.52449
 H249 H 0.74682 -0.06944 0.47663
 H250 H 0.74712 -0.06919 0.52487
 H251 H 0.74681 -0.00088 0.40721
 H252 H 0.74779 0.00003 0.59377
 C253 C 0.44332 0.25076 0.02416
 C254 C 0.42955 0.25170 -0.00065
 C255 C 0.44359 0.25095 -0.02538
 C256 C 0.47261 0.24976 -0.02554
 C257 C 0.48704 0.24904 -0.00054
 C258 C 0.47235 0.24962 0.02440
 C259 C 0.48714 0.25050 0.04882
 C260 C 0.51565 0.25035 0.04888
 C261 C 0.53065 0.24932 0.02453
 C262 C 0.51624 0.24886 -0.00048
 C263 C 0.48764 0.25070 -0.04988
 C264 C 0.51617 0.25049 -0.04982
 C265 C 0.53095 0.24934 -0.02541
 C266 C 0.56002 0.25011 -0.02511
 C267 C 0.57377 0.25079 -0.00027
 C268 C 0.55967 0.25017 0.02441
 H269 H 0.47693 0.25210 0.06822
 H270 H 0.52573 0.25180 0.06833
 H271 H 0.47759 0.25238 -0.06932
 H272 H 0.52643 0.25203 -0.06920
 H273 H 0.40731 0.25261 -0.00071
 H274 H 0.59601 0.25143 -0.00014
 C275 C 0.44245 0.74829 -0.02463
 C276 C 0.42838 0.74760 0.00009
 C277 C 0.44217 0.74833 0.02491
 C278 C 0.47122 0.74925 0.02523
 C279 C 0.48590 0.74978 0.00032
 C280 C 0.47148 0.74927 -0.02471
 C281 C 0.48651 0.74834 -0.04904
 C282 C 0.51501 0.74832 -0.04894
 C283 C 0.52977 0.74924 -0.02450
 C284 C 0.51510 0.74976 0.00042
 C285 C 0.48601 0.74827 0.04967
 C286 C 0.51455 0.74822 0.04976
 C287 C 0.52955 0.74918 0.02543
 C288 C 0.55860 0.74822 0.02528
 C289 C 0.57262 0.74759 0.00054
 C290 C 0.55878 0.74828 -0.02422
 H291 H 0.47647 0.74693 -0.06850
 H292 H 0.52527 0.74688 -0.06833
 H293 H 0.47574 0.74680 0.06905
 H294 H 0.52467 0.74668 0.06919
 H295 H 0.40614 0.74689 0.00000
 H296 H 0.59487 0.74697 0.00052
 C297 C 0.02511 0.44309 0.24849
 C298 C 0.00022 0.42907 0.24942
 C299 C -0.02497 0.44257 0.24866
 C300 C -0.02551 0.47132 0.24743
 C301 C -0.00042 0.48599 0.24662
 C302 C 0.02500 0.47183 0.24710
 C303 C 0.04949 0.48684 0.24769
 C304 C 0.04918 0.51509 0.24775
 C305 C 0.02435 0.52958 0.24713
 C306 C -0.00074 0.51491 0.24661
 C307 C -0.05032 0.48582 0.24844
 C308 C -0.05064 0.51408 0.24825
 C309 C -0.02616 0.52909 0.24727
 C310 C -0.02625 0.55785 0.24848
 C311 C -0.00133 0.57184 0.24936
 C312 C 0.02382 0.55830 0.24843
 H313 H 0.06925 0.47699 0.24893
 H314 H 0.06872 0.52534 0.24909
 H315 H -0.06984 0.47557 0.25015
 H316 H -0.07038 0.52395 0.24970
 H317 H 0.00046 0.40704 0.25051
 H318 H -0.00149 0.59386 0.25053
 C319 C -0.02508 0.55788 0.75173
 C320 C 0.00002 0.57156 0.75110
 C321 C 0.02501 0.55773 0.75221
 C322 C 0.02508 0.52898 0.75375
 C323 C -0.00025 0.51464 0.75426
 C324 C -0.02542 0.52913 0.75314
 C325 C -0.05011 0.51444 0.75196
 C326 C -0.05024 0.48618 0.75234
 C327 C -0.02569 0.47132 0.75393
 C328 C -0.00038 0.48570 0.75464
 C329 C 0.04968 0.51412 0.75331
 C330 C 0.04956 0.48587 0.75367
 C331 C 0.02483 0.47121 0.75444
 C332 C 0.02455 0.44247 0.75356
 C333 C -0.00049 0.42873 0.75294
 C334 C -0.02555 0.44251 0.75329
 H335 H -0.06967 0.52454 0.74993
 H336 H -0.06989 0.47622 0.75053
 H337 H 0.06938 0.52406 0.75193
 H338 H 0.06918 0.47573 0.75260
 H339 H 0.00009 0.59359 0.74998
 H340 H -0.00044 0.40668 0.75230
 C341 C 0.37433 0.25282 0.11671
 N342 N 0.37632 0.23374 0.13649
 N343 N 0.35897 0.23384 0.15745
 C344 C 0.33904 0.25303 0.15936
 N345 N 0.33715 0.27215 0.13964
 N346 N 0.35446 0.27204 0.11871
 C347 C 0.39289 0.25251 0.09317
 N348 N 0.38991 0.27116 0.07314
 N349 N 0.40623 0.27074 0.05147
 C350 C 0.42633 0.25179 0.04907
 N351 N 0.42919 0.23296 0.06901
 N352 N 0.41282 0.23337 0.09071
 C353 C 0.62903 0.74717 0.11642
 N354 N 0.62875 0.76779 0.13474
 N355 N 0.64639 0.76806 0.15535
 C356 C 0.66497 0.74772 0.15844
 N357 N 0.66528 0.72715 0.14006
 N358 N 0.64769 0.72691 0.11942
 C359 C 0.60989 0.74699 0.09339
 N360 N 0.61220 0.72784 0.07371
 N361 N 0.59542 0.72798 0.05245
 C362 C 0.57546 0.74708 0.05017
 N363 N 0.57316 0.76632 0.06982
 N364 N 0.59003 0.76622 0.09108
 C365 C 0.62913 0.25232 -0.11756
 N366 N 0.62670 0.23367 -0.13774
 N367 N 0.64335 0.23445 -0.15921
 C368 C 0.66299 0.25392 -0.16129
 N369 N 0.66543 0.27251 -0.14110
 N370 N 0.64882 0.27171 -0.11964
 C371 C 0.61080 0.25172 -0.09386
 N372 N 0.61400 0.27010 -0.07359
 N373 N 0.59756 0.26971 -0.05200
 C374 C 0.57711 0.25110 -0.04995
 N375 N 0.57406 0.23251 -0.07011
 N376 N 0.59054 0.23288 -0.09173
 C377 C 0.37411 0.74592 -0.11732
 N378 N 0.37553 0.76548 -0.13670
 N379 N 0.35807 0.76542 -0.15748
 C380 C 0.33858 0.74581 -0.15964
 N381 N 0.33726 0.72623 -0.14032
 N382 N 0.35468 0.72630 -0.11955
 C383 C 0.39269 0.74621 -0.09388
 N384 N 0.38986 0.72737 -0.07399
 N385 N 0.40600 0.72788 -0.05226
 C386 C 0.42577 0.74712 -0.04965
 N387 N 0.42855 0.76608 -0.06949
 N388 N 0.41235 0.76559 -0.09125
 C389 C 0.11814 0.37450 0.25279
 N390 N 0.13801 0.37540 0.23347
 N391 N 0.15861 0.35758 0.23374
 C392 C 0.16005 0.33822 0.25331
 N393 N 0.14023 0.33742 0.27265
 N394 N 0.11966 0.35521 0.27238
 C395 C 0.09480 0.39338 0.25217
 N396 N 0.07449 0.39118 0.27088
 N397 N 0.05269 0.40741 0.26990
 C398 C 0.05043 0.42663 0.25030
 N399 N 0.07072 0.42882 0.23150
 N400 N 0.09256 0.41253 0.23246
 C401 C 0.11774 0.62691 0.74830
 N402 N 0.11887 0.64672 0.72919
 N403 N 0.13956 0.66436 0.72873
 C404 C 0.15994 0.66292 0.74738
 N405 N 0.15885 0.64306 0.76650
 N406 N 0.13812 0.62539 0.76697
 C407 C 0.09440 0.60801 0.74894
 N408 N 0.09237 0.58847 0.76830
 N409 N 0.07063 0.57202 0.76914
 C410 C 0.05025 0.57441 0.75054
 N411 N 0.05231 0.59403 0.73130
 N412 N 0.07399 0.61042 0.73046
 C413 C -0.11835 0.62787 0.25059
 N414 N -0.13939 0.62561 0.23270
 N415 N -0.15984 0.64363 0.23289
 C416 C -0.15994 0.66457 0.25091
 N417 N -0.13885 0.66678 0.26870
 N418 N -0.11848 0.64879 0.26853
 C419 C -0.09533 0.60856 0.25045
 N420 N -0.07499 0.61123 0.26898
 N421 N -0.05349 0.59458 0.26867
 C422 C -0.05154 0.57445 0.24993
 N423 N -0.07188 0.57175 0.23130
 N424 N -0.09346 0.58844 0.23162
 C425 C -0.11810 0.37304 0.74924
 N426 N -0.14047 0.37683 0.76527
 N427 N -0.16146 0.35946 0.76433
 C428 C -0.16078 0.33764 0.74740
 N429 N -0.13839 0.33393 0.73142
 N430 N -0.11748 0.35129 0.73231
 C431 C -0.09468 0.39182 0.75012
 N432 N -0.07318 0.38806 0.73304
 N433 N -0.05159 0.40457 0.73384
 C434 C -0.05067 0.42561 0.75164
 N435 N -0.07210 0.42926 0.76895
 N436 N -0.09379 0.41274 0.76811
 C437 C 0.25333 0.11693 0.37401
 N438 N 0.27293 0.11857 0.35449
 N439 N 0.27302 0.13905 0.33686
 C440 C 0.25349 0.15865 0.33805
 N441 N 0.23389 0.15708 0.35761
 N442 N 0.23380 0.13658 0.37528
 C443 C 0.25306 0.09384 0.39290
 N444 N 0.23358 0.09166 0.41252
 N445 N 0.23309 0.07018 0.42900
 C446 C 0.25218 0.05020 0.42653
 N447 N 0.27153 0.05238 0.40682
 N448 N 0.27203 0.07383 0.39041
 C449 C 0.74709 0.11705 0.62635
 N450 N 0.72590 0.12047 0.64393
 N451 N 0.72555 0.14137 0.66110
 C452 C 0.74643 0.15959 0.66141
 N453 N 0.76764 0.15621 0.64383
 N454 N 0.76796 0.13532 0.62658
 C455 C 0.74750 0.09362 0.60783
 N456 N 0.76778 0.09057 0.58913
 N457 N 0.76824 0.06895 0.57279
 C458 C 0.74836 0.04967 0.57452
 N459 N 0.72825 0.05267 0.59336
 N460 N 0.72774 0.07429 0.60959
 C461 C 0.25327 -0.11692 0.62696
 N462 N 0.23387 -0.13667 0.62544
 N463 N 0.23384 -0.15726 0.64301
 C464 C 0.25320 -0.15882 0.66272
 N465 N 0.27262 -0.13914 0.66415
 N466 N 0.27265 -0.11857 0.64661
 C467 C 0.25310 -0.09374 0.60817
 N468 N 0.27199 -0.07368 0.61081
 N469 N 0.27160 -0.05221 0.59442
 C470 C 0.25247 -0.05006 0.57458
 N471 N 0.23345 -0.07008 0.57199
 N472 N 0.23382 -0.09158 0.58844
 C473 C 0.74487 -0.11787 0.37458
 N474 N 0.72547 -0.11943 0.35494
 N475 N 0.72544 -0.13996 0.33733
 C476 C 0.74483 -0.15968 0.33869
 N477 N 0.76423 -0.15818 0.35837
 N478 N 0.76425 -0.13764 0.37601
 C479 C 0.74524 -0.09466 0.39331
 N480 N 0.76463 -0.09258 0.41294
 N481 N 0.76541 -0.07090 0.42917
 C482 C 0.74672 -0.05060 0.42645
 N483 N 0.72743 -0.05271 0.40675
 N484 N 0.72664 -0.07435 0.39056
 C485 C 0.62756 0.74602 -0.11666
 N486 N 0.64692 0.72635 -0.11913
 N487 N 0.66401 0.72615 -0.14023
 C488 C 0.66238 0.74562 -0.15962
 N489 N 0.64298 0.76527 -0.15721
 N490 N 0.62586 0.76547 -0.13611
 C491 C 0.60915 0.74640 -0.09310
 N492 N 0.58956 0.76584 -0.09045
 N493 N 0.57317 0.76628 -0.06878
 C494 C 0.57571 0.74719 -0.04908
 N495 N 0.59547 0.72792 -0.05164
 N496 N 0.61181 0.72747 -0.07330
 C497 C 0.37463 0.25344 -0.11747
 N498 N 0.35487 0.27277 -0.11932
 N499 N 0.33734 0.27279 -0.13998
 C500 C 0.33889 0.25345 -0.15955
 N501 N 0.35871 0.23415 -0.15779
 N502 N 0.37628 0.23414 -0.13711
 C503 C 0.39336 0.25316 -0.09420
 N504 N 0.41316 0.23388 -0.09188
 N505 N 0.42955 0.23338 -0.07028
 C506 C 0.42684 0.25225 -0.05031
 N507 N 0.40692 0.27137 -0.05260
 N508 N 0.39058 0.27189 -0.07417
 C509 C 0.37343 0.74621 0.11750
 N510 N 0.35391 0.72667 0.11982
 N511 N 0.33675 0.72653 0.14086
 C512 C 0.33846 0.74593 0.16035
 N513 N 0.35805 0.76542 0.15813
 N514 N 0.37524 0.76555 0.13707
 C515 C 0.39184 0.74656 0.09391
 N516 N 0.41160 0.76586 0.09136
 N517 N 0.42793 0.76628 0.06964
 C518 C 0.42519 0.74733 0.04978
 N519 N 0.40525 0.72824 0.05225
 N520 N 0.38896 0.72779 0.07394
 C521 C 0.62743 0.25251 0.11733
 N522 N 0.64654 0.27237 0.11999
 N523 N 0.66367 0.27247 0.14098
 C524 C 0.66234 0.25269 0.16007
 N525 N 0.64316 0.23284 0.15750
 N526 N 0.62599 0.23276 0.13650
 C527 C 0.60914 0.25217 0.09374
 N528 N 0.58972 0.23260 0.09088
 N529 N 0.57362 0.23212 0.06906
 C530 C 0.57630 0.25127 0.04941
 N531 N 0.59587 0.27067 0.05221
 N532 N 0.61191 0.27118 0.07401
 C533 C -0.11771 0.62693 0.74707
 N534 N -0.11873 0.64675 0.72797
 N535 N -0.13945 0.66435 0.72749
 C536 C -0.15994 0.66284 0.74612
 N537 N -0.15898 0.64293 0.76517
 N538 N -0.13823 0.62530 0.76565
 C539 C -0.09433 0.60816 0.74788
 N540 N -0.09256 0.58859 0.76722
 N541 N -0.07082 0.57220 0.76826
 C542 C -0.05017 0.57468 0.74988
 N543 N -0.05193 0.59435 0.73069
 N544 N -0.07363 0.61071 0.72965
 C545 C -0.11716 0.37294 0.25293
 N546 N -0.13768 0.37458 0.23443
 N547 N -0.15854 0.35708 0.23512
 C548 C -0.15960 0.33733 0.25432
 N549 N -0.13913 0.33576 0.27284
 N550 N -0.11830 0.35324 0.27215
 C551 C -0.09380 0.39172 0.25206
 N552 N -0.07327 0.38935 0.27043
 N553 N -0.05171 0.40589 0.26952
 C554 C -0.04992 0.42557 0.25034
 N555 N -0.07036 0.42785 0.23180
 N556 N -0.09197 0.41127 0.23270
 C557 C 0.11742 0.37374 0.74890
 N558 N 0.11906 0.35457 0.72915
 N559 N 0.13989 0.33711 0.72849
 C560 C 0.15987 0.33815 0.74757
 N561 N 0.15833 0.35738 0.76729
 N562 N 0.13746 0.37488 0.76795
 C563 C 0.09393 0.39237 0.74983
 N564 N 0.09171 0.41154 0.76955
 N565 N 0.06991 0.42788 0.77060
 C566 C 0.04965 0.42571 0.75184
 N567 N 0.05184 0.40641 0.73227
 N568 N 0.07360 0.39013 0.73122
 C569 C 0.11628 0.62743 0.25226
 N570 N 0.11782 0.64672 0.27187
 N571 N 0.13877 0.66403 0.27256
 C572 C 0.15897 0.66268 0.25365
 N573 N 0.15751 0.64333 0.23405
 N574 N 0.13652 0.62599 0.23336
 C575 C 0.09281 0.60885 0.25142
 N576 N 0.09069 0.58955 0.23182
 N577 N 0.06899 0.57308 0.23102
 C578 C 0.04877 0.57524 0.24990
 N579 N 0.05084 0.59471 0.26930
 N580 N 0.07249 0.61112 0.27011
 C581 C 0.74719 -0.11671 0.62702
 N582 N 0.72781 -0.11838 0.64673
 N583 N 0.72779 -0.13900 0.66419
 C584 C 0.74719 -0.15870 0.66261
 N585 N 0.76659 -0.15708 0.64286
 N586 N 0.76659 -0.13644 0.62537
 C587 C 0.74735 -0.09354 0.60830
 N588 N 0.76656 -0.09141 0.58843
 N589 N 0.76692 -0.06988 0.57203
 C590 C 0.74797 -0.04982 0.57483
 N591 N 0.72890 -0.05195 0.59480
 N592 N 0.72852 -0.07344 0.61114
 C593 C 0.25277 -0.11600 0.37348
 N594 N 0.23341 -0.13577 0.37507
 N595 N 0.23349 -0.15643 0.35755
 C596 C 0.25293 -0.15802 0.33785
 N597 N 0.27230 -0.13829 0.33633
 N598 N 0.27221 -0.11766 0.35381
 C599 C 0.25253 -0.09285 0.39226
 N600 N 0.27140 -0.07277 0.38961
 N601 N 0.27098 -0.05134 0.40607
 C602 C 0.25183 -0.04924 0.42598
 N603 N 0.23282 -0.06926 0.42857
 N604 N 0.23322 -0.09073 0.41205
 C605 C 0.74696 0.11563 0.37361
 N606 N 0.76647 0.13527 0.37499
 N607 N 0.76657 0.15575 0.35732
 C608 C 0.74719 0.15728 0.33763
 N609 N 0.72768 0.13767 0.33631
 N610 N 0.72758 0.11723 0.35396
 C611 C 0.74705 0.09258 0.39248
 N612 N 0.72791 0.07273 0.39014
 N613 N 0.72830 0.05129 0.40656
 C614 C 0.74772 0.04896 0.42610
 N615 N 0.76697 0.06879 0.42841
 N616 N 0.76659 0.09027 0.41194
 C617 C 0.25328 0.11653 0.62710
 N618 N 0.23397 0.13635 0.62553
 N619 N 0.23414 0.15710 0.64294
 C620 C 0.25361 0.15874 0.66253
 N621 N 0.27294 0.13897 0.66401
 N622 N 0.27277 0.11826 0.64664
 C623 C 0.25293 0.09324 0.60849
 N624 N 0.27186 0.07321 0.61105
 N625 N 0.27138 0.05168 0.59472
 C626 C 0.25210 0.04943 0.57504
 N627 N 0.23301 0.06938 0.57256
 N628 N 0.23347 0.09095 0.58894
   
