data_POSCAR
  _audit_creation_date              2014-09-24
  _audit_creation_method            'ToBaCCo'
  _symmetry_space_group_name_H-M    'P1'
  _symmetry_Int_Tables_number       1
  _symmetry_cell_setting            triclinic
  loop_
  _symmetry_equiv_pos_as_xyz
 x,y,z
_cell_length_a 27.8788
_cell_length_b 27.9832
_cell_length_c 27.8238
_cell_angle_alpha 90.007200
_cell_angle_beta 90.112100
_cell_angle_gamma 89.937700
loop_
  _atom_site_label
  _atom_site_type_symbol
  _atom_site_fract_x
  _atom_site_fract_y
  _atom_site_fract_z
C1 C 0.53894 0.97312 -0.39875
 C2 C 0.49451 0.97309 -0.37497
 C3 C 0.45106 0.97318 -0.39999
 C4 C 0.45113 0.97263 -0.45074
 C5 C 0.49529 0.97213 -0.47592
 C6 C 0.53924 0.97079 -0.44995
 C7 C 0.58174 0.96239 -0.47572
 C8 C 0.58186 0.96065 -0.52559
 C9 C 0.53956 0.96763 -0.55238
 C10 C 0.49541 0.97108 -0.52720
 C11 C 0.40813 0.96989 -0.47684
 C12 C 0.40824 0.96867 -0.52669
 C13 C 0.45130 0.97142 -0.55294
 C14 C 0.45149 0.97014 -0.60407
 C15 C 0.49563 0.96603 -0.62796
 C16 C 0.53976 0.96649 -0.60350
 H17 H 0.61530 0.95509 -0.45764
 H18 H 0.61551 0.95202 -0.54276
 H19 H 0.37380 0.96733 -0.45896
 H20 H 0.37398 0.96385 -0.54422
 H21 H 0.49329 0.97574 -0.33609
 H22 H 0.49581 0.96744 -0.66692
 C23 C -0.46147 1.60679 0.01445
 C24 C -0.50498 1.63124 0.01853
 C25 C -0.54940 1.60770 0.01498
 C26 C -0.54967 1.55689 0.01088
 C27 C -0.50555 1.53157 0.00724
 C28 C -0.46140 1.55667 0.00848
 C29 C -0.41824 1.53091 0.00473
 C30 C -0.41830 1.48153 -0.00068
 C31 C -0.46146 1.45569 -0.00105
 C32 C -0.50551 1.48087 0.00301
 C33 C -0.59251 1.53034 0.01347
 C34 C -0.59251 1.48091 0.00849
 C35 C -0.54947 1.45542 0.00311
 C36 C -0.54918 1.40511 -0.00211
 C37 C -0.50555 1.38098 -0.00716
 C38 C -0.46180 1.40532 -0.00584
 H39 H -0.38380 1.54862 0.00613
 H40 H -0.38399 1.46387 -0.00448
 H41 H -0.62667 1.54724 0.02035
 H42 H -0.62681 1.46290 0.00929
 H43 H -0.50388 1.66991 0.02102
 H44 H -0.50559 1.34235 -0.01057
 C45 C 0.02690 0.40306 0.45555
 C46 C 0.03012 0.37918 0.49983
 C47 C 0.02869 0.40330 0.54409
 C48 C 0.02774 0.45415 0.54393
 C49 C 0.02470 0.47936 0.49970
 C50 C 0.02486 0.45391 0.45542
 C51 C 0.02743 0.48023 0.41236
 C52 C 0.02570 0.52979 0.41234
 C53 C 0.02301 0.55558 0.45548
 C54 C 0.02373 0.53039 0.49970
 C55 C 0.03465 0.48056 0.58641
 C56 C 0.03361 0.53017 0.58635
 C57 C 0.02556 0.55609 0.54380
 C58 C 0.02414 0.60707 0.54353
 C59 C 0.02346 0.63079 0.49900
 C60 C 0.02239 0.60605 0.45545
 H61 H 0.03250 0.46305 0.37798
 H62 H 0.02811 0.54773 0.37799
 H63 H 0.04291 0.46324 0.62015
 H64 H 0.04118 0.54786 0.62004
 H65 H 0.02893 0.34043 0.49984
 H66 H 0.02115 0.66948 0.49790
 O67 O -0.12831 1.00726 -0.06575
 O68 O 0.11781 1.00366 -0.06561
 O69 O -0.00677 1.07035 -0.12434
 O70 O -0.00355 0.94110 -0.12447
 O71 O -0.00333 0.88252 -0.06622
 O72 O -0.00648 1.12882 -0.06594
 O73 O 0.05961 1.00357 -0.12449
 O74 O -0.07030 1.00716 -0.12459
 Zr75 Zr -0.00529 1.00567 -0.08540
 O76 O 0.03821 0.96221 -0.04449
 O77 O -0.04865 1.04915 -0.04450
 C78 C -0.11462 1.00790 -0.11030
 C79 C 0.10396 1.00245 -0.11015
 C80 C -0.00711 1.11466 -0.11043
 C81 C -0.00251 0.89678 -0.11066
 H82 H 0.05859 1.06914 -0.06471
 O83 O 0.03797 1.04891 -0.04424
 H84 H -0.06894 0.94194 -0.06484
 O85 O -0.04838 0.96232 -0.04437
 O86 O 0.11803 1.00730 0.06391
 O87 O -0.12812 1.00359 0.06378
 O88 O 0.05982 1.12870 0.00106
 O89 O 0.06016 0.88255 -0.00261
 O90 O -0.07010 0.88256 0.00101
 O91 O -0.07036 1.12869 -0.00265
 O92 O -0.00337 1.07000 0.12277
 O93 O -0.00632 0.94084 0.12260
 O94 O -0.00343 1.12864 0.06457
 O95 O -0.00613 0.88239 0.06420
 O96 O 0.11790 1.07005 0.00098
 O97 O -0.12832 1.07004 -0.00276
 O98 O -0.12817 0.94124 0.00095
 O99 O 0.11806 0.94126 -0.00261
 O100 O 0.06008 1.00693 0.12282
 O101 O -0.06997 1.00324 0.12271
 Zr102 Zr 0.07881 1.00564 -0.00085
 Zr103 Zr -0.08908 1.00563 -0.00094
 Zr104 Zr -0.00523 1.08996 -0.00075
 Zr105 Zr -0.00502 0.92125 -0.00097
 Zr106 Zr -0.00501 1.00549 0.08366
 O107 O -0.04838 0.96212 0.04263
 O108 O 0.03827 1.04902 0.04283
 C109 C 0.10439 1.00779 0.10847
 C110 C -0.11431 1.00218 0.10832
 C111 C 0.10416 1.11437 0.00191
 C112 C 0.10446 0.89692 -0.00339
 C113 C -0.11443 0.89691 0.00204
 C114 C -0.11467 1.11436 -0.00370
 C115 C -0.00247 1.11433 0.10901
 C116 C -0.00673 0.89655 0.10869
 H117 H -0.06897 1.06913 0.06317
 O118 O -0.04837 1.04887 0.04263
 H119 H 0.05885 0.94199 0.06294
 O120 O 0.03819 0.96231 0.04249
 C121 C 0.32846 0.98786 0.30783
 C122 C 0.36242 0.95272 0.29699
 C123 C 0.40271 0.94665 0.32626
 C124 C 0.40949 0.97524 0.36750
 C125 C 0.37523 1.01109 0.37751
 C126 C 0.33495 1.01710 0.34807
 C127 C 0.28781 0.99452 0.27660
 C128 C 0.25467 0.99933 0.24913
 C129 C 0.21643 1.00409 0.21468
 C130 C 0.22755 1.01108 0.16622
 C131 C 0.19105 1.01314 0.13189
 C132 C 0.14268 1.00816 0.14552
 C133 C 0.13175 1.00207 0.19454
 C134 C 0.16847 0.99994 0.22887
 H135 H 0.35787 0.93006 0.26573
 H136 H 0.42808 0.91874 0.31717
 H137 H 0.38032 1.03552 0.40729
 H138 H 0.30927 1.04499 0.35631
 H139 H 0.26456 1.01429 0.15484
 H140 H 0.20086 1.01812 0.09459
 H141 H 0.09497 0.99807 0.20629
 H142 H 0.15950 0.99439 0.26633
 C143 C -0.33613 0.97706 0.30925
 C144 C -0.37241 0.94462 0.29758
 C145 C -0.41292 0.94063 0.32674
 C146 C -0.41770 0.96867 0.36864
 C147 C -0.38084 1.00148 0.37975
 C148 C -0.34036 1.00543 0.35040
 C149 C -0.29572 0.98245 0.27764
 C150 C -0.26294 0.98673 0.24979
 C151 C -0.22527 0.99151 0.21487
 C152 C -0.23710 0.99485 0.16614
 C153 C -0.20104 0.99866 0.13164
 C154 C -0.15239 0.99920 0.14536
 C155 C -0.14081 0.99607 0.19457
 C156 C -0.17708 0.99223 0.22908
 H157 H -0.36961 0.92265 0.26563
 H158 H -0.44022 0.91488 0.31687
 H159 H -0.38412 1.02547 0.41012
 H160 H -0.31283 1.03127 0.35931
 H161 H -0.27429 0.99427 0.15475
 H162 H -0.21141 1.00095 0.09418
 H163 H -0.10379 0.99626 0.20642
 H164 H -0.16754 0.98959 0.26676
 C165 C -0.33760 0.98910 -0.31094
 C166 C -0.37412 0.95766 -0.29756
 C167 C -0.41447 0.95201 -0.32678
 C168 C -0.41887 0.97732 -0.37045
 C169 C -0.38183 1.00926 -0.38325
 C170 C -0.34148 1.01489 -0.35382
 C171 C -0.29700 0.99555 -0.27963
 C172 C -0.26404 1.00016 -0.25193
 C173 C -0.22608 1.00465 -0.21714
 C174 C -0.23756 1.01061 -0.16862
 C175 C -0.20128 1.01247 -0.13404
 C176 C -0.15278 1.00832 -0.14749
 C177 C -0.14151 1.00321 -0.19655
 C178 C -0.17799 1.00129 -0.23113
 H179 H -0.37153 0.93762 -0.26434
 H180 H -0.44180 0.92689 -0.31561
 H181 H -0.38479 1.03122 -0.41517
 H182 H -0.31370 1.03989 -0.36414
 H183 H -0.27468 1.01318 -0.15740
 H184 H -0.21136 1.01665 -0.09670
 H185 H -0.10461 0.99989 -0.20819
 H186 H -0.16874 0.99655 -0.26863
 C187 C 0.32488 0.98169 -0.31260
 C188 C 0.35473 0.94149 -0.30998
 C189 C 0.39536 0.93837 -0.33914
 C190 C 0.40636 0.97532 -0.37137
 C191 C 0.37619 1.01548 -0.37407
 C192 C 0.33554 1.01857 -0.34486
 C193 C 0.28479 0.98595 -0.28043
 C194 C 0.25221 0.98937 -0.25224
 C195 C 0.21465 0.99324 -0.21709
 C196 C 0.16644 0.99427 -0.23117
 C197 C 0.13026 0.99752 -0.19650
 C198 C 0.14196 0.99976 -0.14727
 C199 C 0.19064 0.99881 -0.13367
 C200 C 0.22662 0.99559 -0.16833
 H201 H 0.34700 0.91293 -0.28489
 H202 H 0.41850 0.90737 -0.33632
 H203 H 0.38459 1.04461 -0.39825
 H204 H 0.31290 1.05001 -0.34687
 H205 H 0.15681 0.99242 -0.26886
 H206 H 0.09322 0.99806 -0.20827
 H207 H 0.20109 1.00040 -0.09620
 H208 H 0.26384 0.99476 -0.15705
 C209 C 0.32559 1.31648 0.00052
 C210 C 0.33920 1.34183 0.04175
 C211 C 0.37959 1.37142 0.04074
 C212 C 0.40648 1.37607 -0.00162
 C213 C 0.39261 1.35071 -0.04286
 C214 C 0.35226 1.32114 -0.04182
 C215 C 0.28563 1.28403 0.00209
 C216 C 0.25304 1.25578 0.00311
 C217 C 0.21531 1.22075 0.00391
 C218 C 0.16715 1.23477 0.00146
 C219 C 0.13081 1.20028 0.00119
 C220 C 0.14228 1.15129 0.00327
 C221 C 0.19088 1.13774 0.00610
 C222 C 0.22702 1.17223 0.00640
 H223 H 0.31906 1.33817 0.07480
 H224 H 0.39028 1.39023 0.07305
 H225 H 0.41330 1.35355 -0.07565
 H226 H 0.34224 1.30142 -0.07381
 H227 H 0.15770 1.27228 -0.00051
 H228 H 0.09385 1.21202 -0.00101
 H229 H 0.20114 1.10044 0.00791
 H230 H 0.26419 1.16099 0.00831
 C231 C 0.32759 0.69660 0.00672
 C232 C 0.36296 0.70532 0.04128
 C233 C 0.40318 0.67568 0.04437
 C234 C 0.40850 0.63616 0.01330
 C235 C 0.37273 0.62819 -0.02179
 C236 C 0.33253 0.65801 -0.02482
 C237 C 0.28720 0.72843 0.00280
 C238 C 0.25429 0.75627 0.00003
 C239 C 0.21625 0.79097 -0.00262
 C240 C 0.22760 0.83941 -0.00709
 C241 C 0.19122 0.87372 -0.00793
 C242 C 0.14275 0.86008 -0.00425
 C243 C 0.13162 0.81114 -0.00042
 C244 C 0.16820 0.77683 0.00046
 H245 H 0.35963 0.73529 0.06572
 H246 H 0.42972 0.68316 0.07185
 H247 H 0.37662 0.59991 -0.04808
 H248 H 0.30575 0.65143 -0.05229
 H249 H 0.26467 0.85075 -0.00948
 H250 H 0.20121 0.91097 -0.01111
 H251 H 0.09476 0.79935 0.00249
 H252 H 0.15904 0.73938 0.00399
 C253 C -0.33582 0.69495 0.01306
 C254 C -0.36339 0.69112 0.05491
 C255 C -0.40385 0.66166 0.05562
 C256 C -0.41691 0.63558 0.01455
 C257 C -0.38909 0.63941 -0.02729
 C258 C -0.34862 0.66887 -0.02796
 C259 C -0.29586 0.72741 0.01155
 C260 C -0.26327 0.75565 0.01015
 C261 C -0.22557 0.79067 0.00835
 C262 C -0.23729 0.83926 0.00864
 C263 C -0.20116 0.87370 0.00661
 C264 C -0.15258 0.86006 0.00423
 C265 C -0.14112 0.81101 0.00409
 C266 C -0.17744 0.77657 0.00611
 H267 H -0.35403 0.71143 0.08671
 H268 H -0.42526 0.65949 0.08799
 H269 H -0.39915 0.62010 -0.05950
 H270 H -0.32779 0.67191 -0.06065
 H271 H -0.27443 0.85057 0.01039
 H272 H -0.21143 0.91104 0.00693
 H273 H -0.10416 0.79920 0.00234
 H274 H -0.16799 0.73901 0.00587
 C275 C -0.33630 1.31676 -0.00959
 C276 C -0.36683 1.31905 -0.04956
 C277 C -0.40725 1.34865 -0.04869
 C278 C -0.41732 1.37642 -0.00792
 C279 C -0.38651 1.37414 0.03201
 C280 C -0.34609 1.34454 0.03110
 C281 C -0.29636 1.28416 -0.00948
 C282 C -0.26375 1.25583 -0.00911
 C283 C -0.22599 1.22075 -0.00838
 C284 C -0.23763 1.17218 -0.00967
 C285 C -0.20144 1.13768 -0.00829
 C286 C -0.15287 1.15126 -0.00558
 C287 C -0.14149 1.20029 -0.00454
 C288 C -0.17787 1.23478 -0.00590
 H289 H -0.35979 1.29743 -0.08108
 H290 H -0.43095 1.34962 -0.07957
 H291 H -0.39422 1.39475 0.06404
 H292 H -0.32294 1.34271 0.06237
 H293 H -0.27476 1.16093 -0.01159
 H294 H -0.21164 1.10037 -0.00930
 H295 H -0.10455 1.21204 -0.00249
 H296 H -0.16848 1.27232 -0.00485
 C297 C 0.01544 1.31483 0.33206
 C298 C -0.01535 1.35395 0.33752
 C299 C -0.01139 1.38353 0.37791
 C300 C 0.02388 1.37475 0.41332
 C301 C 0.05409 1.33466 0.40751
 C302 C 0.05010 1.30529 0.36714
 C303 C 0.01072 1.28322 0.29149
 C304 C 0.00739 1.25541 0.25854
 C305 C 0.00403 1.22056 0.22062
 C306 C 0.00400 1.23463 0.17234
 C307 C 0.00169 1.20022 0.13586
 C308 C -0.00058 1.15123 0.14730
 C309 C -0.00069 1.13763 0.19604
 C310 C 0.00160 1.17203 0.23231
 H311 H -0.04290 1.36117 0.31098
 H312 H -0.03700 1.41235 0.38219
 H313 H 0.08162 1.32652 0.43383
 H314 H 0.07392 1.27489 0.36345
 H315 H 0.00599 1.27214 0.16289
 H316 H 0.00190 1.21199 0.09879
 H317 H -0.00240 1.10036 0.20633
 H318 H 0.00169 1.16072 0.26956
 C319 C 0.01471 1.31573 -0.33220
 C320 C -0.01307 1.35714 -0.33671
 C321 C -0.00790 1.38664 -0.37698
 C322 C 0.02552 1.37541 -0.41337
 C323 C 0.05307 1.33335 -0.40823
 C324 C 0.04787 1.30405 -0.36795
 C325 C 0.00827 1.28404 -0.29197
 C326 C 0.00342 1.25617 -0.25929
 C327 C -0.00156 1.22133 -0.22156
 C328 C 0.00047 1.23507 -0.17322
 C329 C -0.00223 1.20056 -0.13690
 C330 C -0.00685 1.15177 -0.14854
 C331 C -0.00962 1.13855 -0.19731
 C332 C -0.00697 1.17307 -0.23344
 H333 H -0.03939 1.36616 -0.30957
 H334 H -0.03150 1.41722 -0.38050
 H335 H 0.07937 1.32341 -0.43506
 H336 H 0.06948 1.27198 -0.36491
 H337 H 0.00474 1.27235 -0.16362
 H338 H 0.00008 1.21204 -0.09980
 H339 H -0.01331 1.10144 -0.20771
 H340 H -0.00855 1.16203 -0.27074
 C341 C 0.01446 0.69529 -0.33282
 C342 C -0.01305 0.65360 -0.33581
 C343 C -0.00952 0.62398 -0.37620
 C344 C 0.02199 0.63537 -0.41418
 C345 C 0.04906 0.67785 -0.41066
 C346 C 0.04551 0.70724 -0.37029
 C347 C 0.00999 0.72698 -0.29231
 C348 C 0.00686 0.75498 -0.25951
 C349 C 0.00372 0.79007 -0.22180
 C350 C 0.00322 0.77620 -0.17347
 C351 C 0.00104 0.81079 -0.13717
 C352 C -0.00064 0.85977 -0.14882
 C353 C -0.00024 0.87317 -0.19761
 C354 C 0.00193 0.83858 -0.23372
 H355 H -0.03781 0.64440 -0.30731
 H356 H -0.03276 0.59306 -0.37845
 H357 H 0.07388 0.68795 -0.43878
 H358 H 0.06684 0.73955 -0.36845
 H359 H 0.00471 0.73872 -0.16384
 H360 H 0.00084 0.79915 -0.10006
 H361 H -0.00146 0.91044 -0.20805
 H362 H 0.00240 0.84973 -0.27101
 C363 C 0.01079 0.69406 0.32972
 C364 C -0.02550 0.66121 0.34053
 C365 C -0.02132 0.63173 0.38093
 C366 C 0.01932 0.63473 0.41072
 C367 C 0.05570 0.66751 0.39951
 C368 C 0.05149 0.69693 0.35914
 C369 C 0.00554 0.72638 0.28981
 C370 C 0.00159 0.75461 0.25730
 C371 C -0.00247 0.78967 0.21966
 C372 C -0.00060 0.77598 0.17131
 C373 C -0.00275 0.81059 0.13504
 C374 C -0.00665 0.85942 0.14676
 C375 C -0.00917 0.87262 0.19554
 C376 C -0.00706 0.83799 0.23162
 H377 H -0.05730 0.65895 0.31821
 H378 H -0.05005 0.60715 0.38948
 H379 H 0.08706 0.67060 0.42234
 H380 H 0.07963 0.72242 0.35129
 H381 H 0.00301 0.73864 0.16165
 H382 H -0.00068 0.79911 0.09794
 H383 H -0.01232 0.90977 0.20598
 H384 H -0.00853 0.84899 0.26893
   
