data_POSCAR
  _audit_creation_date              2014-09-24
  _audit_creation_method            'ToBaCCo'
  _symmetry_space_group_name_H-M    'P1'
  _symmetry_Int_Tables_number       1
  _symmetry_cell_setting            triclinic
  loop_
  _symmetry_equiv_pos_as_xyz
 x,y,z
_cell_length_a 39.5260
_cell_length_b 39.5786
_cell_length_c 11.1877
_cell_angle_alpha 90.342300
_cell_angle_beta 89.878500
_cell_angle_gamma 119.877700
loop_
  _atom_site_label
  _atom_site_type_symbol
  _atom_site_fract_x
  _atom_site_fract_y
  _atom_site_fract_z
C1 C 0.21246 0.48631 0.43849
 C2 C 0.21585 0.48935 0.56602
 C3 C 0.25081 0.49548 0.61959
 C4 C 0.27985 0.49305 0.55360
 C5 C 0.27461 0.48658 0.42836
 C6 C 0.24136 0.48316 0.37345
 H7 H 0.23981 0.48090 0.27688
 H8 H 0.25372 0.49788 0.71606
 C9 C 0.51620 -0.27313 0.42759
 C10 C 0.51847 -0.27305 0.55452
 C11 C 0.51520 -0.24464 0.62123
 C12 C 0.50757 -0.21720 0.56580
 C13 C 0.50630 -0.21686 0.43865
 C14 C 0.50951 -0.24521 0.37245
 H15 H 0.50929 -0.24384 0.27566
 H16 H 0.51542 -0.24611 0.71797
 C17 C 1.27758 0.78599 0.43068
 C18 C 1.27485 0.78590 0.55754
 C19 C 1.24463 0.75366 0.61578
 C20 C 1.21615 0.72191 0.55060
 C21 C 1.21848 0.72218 0.42449
 C22 C 1.24954 0.75339 0.36641
 H23 H 1.25068 0.75299 0.26953
 H24 H 1.24340 0.75322 0.71265
 C25 C 0.78767 0.51155 0.43166
 C26 C 0.78768 0.50707 0.55751
 C27 C 0.75504 0.50123 0.62419
 C28 C 0.72196 0.49912 0.56932
 C29 C 0.72201 0.50258 0.44249
 C30 C 0.75473 0.50873 0.37646
 H31 H 0.75476 0.51181 0.28013
 H32 H 0.75520 0.49749 0.72018
 C33 C 0.48824 0.27420 0.43802
 C34 C 0.49246 0.27626 0.56441
 C35 C 0.49800 0.24792 0.62270
 C36 C 0.49523 0.21544 0.56144
 C37 C 0.49198 0.21439 0.43435
 C38 C 0.48872 0.24377 0.37529
 H39 H 0.48789 0.24386 0.27862
 H40 H 0.49959 0.24862 0.71943
 C41 C 0.72305 0.21767 0.42019
 C42 C 0.71946 0.21629 0.54693
 C43 C 0.74809 0.24761 0.61532
 C44 C 0.78100 0.27895 0.56150
 C45 C 0.78246 0.28101 0.43466
 C46 C 0.75358 0.25064 0.36675
 H47 H 0.75588 0.25207 0.27002
 H48 H 0.74598 0.24618 0.71190
 O49 O 0.94563 0.41786 0.22726
 O50 O 0.90328 0.42678 0.10883
 C51 C 0.91086 0.40977 0.19475
 O52 O 1.05887 0.59198 0.18073
 O53 O 1.10061 0.57615 0.08487
 C54 C 1.09353 0.59790 0.15572
 O55 O 0.94932 0.53836 0.19196
 O56 O 0.90508 0.48357 0.09017
 C57 C 0.91388 0.51215 0.16383
 O58 O 1.05510 0.46806 0.22029
 O59 O 1.09844 0.51774 0.09983
 C60 C 1.09016 0.49290 0.18515
 Zr61 Zr 1.00073 0.45917 0.15648
 O62 O 1.00430 0.46455 0.34511
 O63 O 0.99820 0.40458 0.16036
 Zr64 Zr 1.00328 0.54556 0.13067
 O65 O 1.00727 0.55329 0.31859
 O66 O 1.00366 0.59859 0.10454
 O67 O 0.96731 0.48652 0.16836
 O68 O 1.03583 0.51898 0.16456
 O69 O 1.05307 0.45559 -0.19667
 O70 O 1.09752 0.51143 -0.09974
 C71 C 1.08857 0.48184 -0.16960
 O72 O 0.94730 0.52613 -0.23634
 O73 O 0.90383 0.47687 -0.11536
 C74 C 0.91210 0.50111 -0.20265
 O75 O 1.05635 0.58191 -0.22984
 O76 O 1.09931 0.57244 -0.11723
 C77 C 1.09143 0.59076 -0.19865
 O78 O 0.94404 0.40736 -0.20524
 O79 O 0.90234 0.42030 -0.09729
 C80 C 0.90927 0.40011 -0.17515
 Zr81 Zr 0.99961 0.45109 -0.14396
 O82 O 1.00313 0.44814 -0.33229
 O83 O 0.99434 0.39544 -0.12708
 Zr84 Zr 1.00192 0.53704 -0.16931
 O85 O 1.00543 0.53220 -0.35708
 O86 O 0.99997 0.58914 -0.18998
 Zr87 Zr 0.94331 0.47065 -0.00459
 Zr88 Zr 1.05975 0.52596 -0.00801
 O89 O 1.03485 0.50977 -0.17949
 O90 O 0.96579 0.47685 -0.17917
 O91 O 1.03491 0.46514 0.00742
 O92 O 0.96885 0.53145 -0.02012
 O93 O 0.96599 0.43272 0.00896
 O94 O 1.03770 0.56451 -0.02203
 H95 H 1.05322 0.52901 0.23524
 H96 H 0.95206 0.54341 -0.02595
 H97 H 1.05243 0.51649 -0.24945
 H98 H 0.94784 0.40428 0.01471
 H99 H 1.00455 0.60939 0.18537
 H100 H 1.01542 0.60673 -0.12373
 H101 H 0.98102 0.50905 -0.38408
 H102 H 0.98201 0.45153 -0.36690
 H103 H 1.01270 0.39750 -0.06364
 H104 H 0.99812 0.39823 0.24595
 H105 H 0.98391 0.47047 0.37167
 H106 H 0.98602 0.52920 0.35421
 O107 O 0.41292 0.46972 0.19798
 O108 O 0.42622 0.52447 0.09200
 C109 C 0.40527 0.49672 0.16670
 O110 O 0.58978 0.53234 0.20814
 O111 O 0.57790 0.47789 0.10115
 C112 C 0.59756 0.50521 0.17889
 O113 O 0.53735 0.58800 0.21162
 O114 O 0.48648 0.58135 0.09615
 C115 C 0.51314 0.59911 0.17760
 O116 O 0.46181 0.40967 0.19745
 O117 O 0.51766 0.42013 0.10189
 C118 C 0.48868 0.40080 0.17391
 Zr119 Zr 0.45813 0.45924 0.14481
 O120 O 0.46341 0.46246 0.33360
 O121 O 0.40328 0.40813 0.16222
 Zr122 Zr 0.54469 0.54183 0.14863
 O123 O 0.54317 0.53787 0.33756
 O124 O 0.59751 0.59572 0.15669
 O125 O 0.48475 0.51946 0.16832
 O126 O 0.51719 0.48220 0.17047
 O127 O 0.46575 0.41127 -0.21297
 O128 O 0.51740 0.41883 -0.09992
 C129 C 0.49032 0.40054 -0.17920
 O130 O 0.53967 0.58749 -0.22048
 O131 O 0.48655 0.58017 -0.11414
 C132 C 0.51387 0.59748 -0.19320
 O133 O 0.59181 0.52958 -0.20872
 O134 O 0.57796 0.47571 -0.09697
 C135 C 0.59826 0.50181 -0.17571
 O136 O 0.41819 0.47244 -0.22639
 O137 O 0.42820 0.52524 -0.11369
 C138 C 0.40992 0.49925 -0.19620
 Zr139 Zr 0.45999 0.45917 -0.15745
 O140 O 0.46408 0.45787 -0.34610
 O141 O 0.40368 0.40918 -0.16358
 Zr142 Zr 0.54725 0.54175 -0.15292
 O143 O 0.55014 0.53966 -0.34165
 O144 O 0.60035 0.59552 -0.14784
 Zr145 Zr 0.47520 0.53183 -0.00755
 Zr146 Zr 0.52940 0.46906 -0.00115
 O147 O 0.51936 0.48206 -0.17517
 O148 O 0.48754 0.51926 -0.18055
 O149 O 0.46811 0.43393 -0.00504
 O150 O 0.53653 0.56600 -0.00390
 O151 O 0.43695 0.47111 -0.00884
 O152 O 0.56892 0.52956 0.00021
 H153 H 0.52510 0.47275 0.24106
 H154 H 0.54914 0.59480 -0.00415
 H155 H 0.52770 0.47239 -0.24474
 H156 H 0.40837 0.46047 -0.01289
 H157 H 0.61555 0.59443 0.09792
 H158 H 0.61975 0.59125 -0.10490
 H159 H 0.52609 0.53801 -0.37405
 H160 H 0.46624 0.48220 -0.37737
 H161 H 0.40403 0.38936 -0.11087
 H162 H 0.39244 0.40049 0.08072
 H163 H 0.45701 0.48234 0.36210
 H164 H 0.51995 0.53889 0.36573
 O165 O 0.41036 -0.05615 -0.20719
 O166 O 0.42095 -0.09908 -0.09843
 C167 C 0.40172 -0.09114 -0.17632
 O168 O 0.58553 0.04971 -0.23091
 O169 O 0.57829 0.09464 -0.11914
 C170 C 0.59537 0.08518 -0.20098
 O171 O 0.52667 -0.05975 -0.22859
 O172 O 0.47615 -0.10034 -0.10573
 C173 C 0.50054 -0.09405 -0.19143
 O174 O 0.46543 0.05340 -0.20788
 O175 O 0.52074 0.09691 -0.10640
 C176 C 0.49235 0.08862 -0.18039
 Zr177 Zr 0.45637 -0.00129 -0.14990
 O178 O 0.45542 0.00015 -0.33902
 O179 O 0.40176 -0.00350 -0.14351
 Zr180 Zr 0.54057 -0.00377 -0.16245
 O181 O 0.54164 -0.00584 -0.35137
 O182 O 0.59295 -0.00569 -0.15181
 O183 O 0.48006 -0.03740 -0.17748
 O184 O 0.51558 0.03113 -0.18082
 O185 O 0.47032 0.05677 0.20292
 O186 O 0.52439 0.09824 0.09337
 C187 C 0.49747 0.09124 0.17164
 O188 O 0.53421 -0.05499 0.20765
 O189 O 0.48019 -0.09802 0.10065
 C190 C 0.50702 -0.09002 0.18000
 O191 O 0.59382 0.05331 0.18735
 O192 O 0.58257 0.09617 0.08151
 C193 C 0.60301 0.08829 0.15510
 O194 O 0.41702 -0.05216 0.22204
 O195 O 0.42368 -0.09680 0.10789
 C196 C 0.40670 -0.08770 0.19107
 Zr197 Zr 0.46131 0.00145 0.15167
 O198 O 0.46914 0.00763 0.33947
 O199 O 0.40682 -0.00102 0.16892
 Zr200 Zr 0.54535 -0.00081 0.13843
 O201 O 0.55007 0.00532 0.32681
 O202 O 0.59599 -0.00617 0.13076
 Zr203 Zr 0.47065 -0.05913 -0.00156
 Zr204 Zr 0.53091 0.05714 -0.01018
 O205 O 0.52133 0.03460 0.16429
 O206 O 0.48556 -0.03439 0.17111
 O207 O 0.47015 0.03497 -0.00076
 O208 O 0.53135 -0.03649 -0.01043
 O209 O 0.43514 -0.03343 0.00413
 O210 O 0.56745 0.03246 -0.01593
 H211 H 0.52324 0.04808 -0.25214
 H212 H 0.54183 -0.05461 -0.01197
 H213 H 0.53175 0.05302 0.23269
 H214 H 0.40640 -0.05011 0.00810
 H215 H 0.60014 -0.00784 -0.23525
 H216 H 0.61315 0.01192 0.06843
 H217 H 0.52558 -0.01569 0.36135
 H218 H 0.46646 -0.01691 0.37084
 H219 H 0.40563 0.01580 0.10605
 H220 H 0.40519 0.01914 -0.09590
 H221 H 0.45675 -0.02273 -0.36912
 H222 H 0.52390 0.00305 -0.38123
 C223 C 1.17249 0.47496 0.25730
 C224 C 1.18406 0.49078 0.37298
 C225 C 1.16831 0.51398 0.41531
 C226 C 1.13771 0.51494 0.35386
 C227 C 1.12305 0.49379 0.24704
 C228 C 1.14298 0.47665 0.19579
 C229 C 1.12761 0.43697 0.14338
 C230 C 1.15983 0.43487 0.21103
 H231 H 1.17892 0.53088 0.49684
 H232 H 1.12493 0.53134 0.39120
 H233 H 1.13139 0.43786 0.04473
 H234 H 1.09781 0.41592 0.17580
 H235 H 1.18194 0.43423 0.15094
 H236 H 1.14880 0.41264 0.28298
 C237 C 0.49864 0.68471 0.24994
 C238 C 0.52092 0.70021 0.35427
 C239 C 0.54755 0.68737 0.38228
 C240 C 0.54593 0.65524 0.32247
 C241 C 0.51799 0.63543 0.23195
 C242 C 0.49686 0.65278 0.19154
 C243 C 0.45432 0.63489 0.16866
 C244 C 0.45621 0.67008 0.23004
 H245 H 0.56868 0.70109 0.45335
 H246 H 0.56526 0.64490 0.35159
 H247 H 0.43752 0.60759 0.22039
 H248 H 0.44754 0.63299 0.07163
 H249 H 0.43926 0.66292 0.31458
 H250 H 0.45123 0.68900 0.16797
 C251 C 0.32605 -0.18911 0.27031
 C252 C 0.30716 -0.18252 0.36627
 C253 C 0.31770 -0.14340 0.39031
 C254 C 0.34988 -0.11243 0.33330
 C255 C 0.37212 -0.11978 0.24941
 C256 C 0.35804 -0.15857 0.21474
 C257 C 0.37902 -0.18106 0.20595
 C258 C 0.34383 -0.21467 0.26504
 H259 H 0.30081 -0.13654 0.45143
 H260 H 0.35767 -0.08285 0.35687
 H261 H 0.40555 -0.16839 0.26308
 H262 H 0.38332 -0.18721 0.11182
 H263 H 0.35021 -0.22189 0.35515
 H264 H 0.32743 -0.24006 0.20437
 C265 C 0.81338 0.48593 0.27057
 C266 C 0.81946 0.51480 0.35345
 C267 C 0.85750 0.54749 0.35622
 C268 C 0.88854 0.54720 0.29335
 C269 C 0.88165 0.51527 0.21904
 C270 C 0.84267 0.48659 0.20470
 C271 C 0.81635 0.44822 0.14682
 C272 C 0.78340 0.44722 0.22342
 H273 H 0.86349 0.57279 0.40887
 H274 H 0.91775 0.57170 0.30424
 H275 H 0.81287 0.45123 0.04955
 H276 H 0.82351 0.42529 0.16982
 H277 H 0.77240 0.42441 0.29356
 H278 H 0.76060 0.44896 0.17027
 C279 C 0.51844 0.34363 0.37035
 C280 C 0.48769 0.30543 0.36694
 C281 C 0.45569 0.29835 0.29270
 C282 C 0.45524 0.32937 0.22991
 C283 C 0.48742 0.36773 0.23661
 C284 C 0.51850 0.37284 0.30723
 C285 C 0.55715 0.40290 0.35395
 C286 C 0.55710 0.36987 0.42612
 H287 H 0.43078 0.26924 0.28589
 H288 H 0.43014 0.32332 0.17585
 H289 H 0.55533 0.42518 0.41024
 H290 H 0.57942 0.41430 0.28234
 H291 H 0.55498 0.37324 0.52399
 H292 H 0.57980 0.36282 0.39726
 C293 C 0.68139 0.19058 0.23608
 C294 C 0.69750 0.18469 0.33982
 C295 C 0.68981 0.14639 0.36095
 C296 C 0.66032 0.11477 0.29618
 C297 C 0.63881 0.12105 0.20684
 C298 C 0.65268 0.15967 0.17188
 C299 C 0.63278 0.18202 0.13969
 C300 C 0.66462 0.21618 0.21000
 H301 H 0.70431 0.14060 0.43338
 H302 H 0.65275 0.08550 0.32187
 H303 H 0.60341 0.16985 0.18042
 H304 H 0.63397 0.18756 0.04204
 H305 H 0.65378 0.22408 0.29115
 H306 H 0.68420 0.24117 0.15239
 C307 C 0.51013 0.18938 -0.25782
 C308 C 0.49216 0.18379 -0.37032
 C309 C 0.46723 0.14449 -0.40480
 C310 C 0.46649 0.11360 -0.34100
 C311 C 0.49004 0.12079 -0.23884
 C312 C 0.50929 0.15899 -0.19450
 C313 C 0.54902 0.18423 -0.14346
 C314 C 0.55036 0.21758 -0.21492
 H315 H 0.44795 0.13716 -0.48069
 H316 H 0.44852 0.08423 -0.37489
 H317 H 0.57071 0.17596 -0.17323
 H318 H 0.54806 0.18810 -0.04522
 H319 H 0.57221 0.22797 -0.28832
 H320 H 0.55098 0.24087 -0.15736
 C321 C 0.69682 0.51356 -0.24773
 C322 C 0.69027 0.49373 -0.35749
 C323 C 0.65073 0.46941 -0.39119
 C324 C 0.62060 0.47179 -0.33097
 C325 C 0.62930 0.49791 -0.23478
 C326 C 0.66705 0.51574 -0.18827
 C327 C 0.69328 0.55687 -0.15015
 C328 C 0.72601 0.55463 -0.21488
 H329 H 0.64315 0.45001 -0.46748
 H330 H 0.59087 0.45458 -0.36286
 H331 H 0.69724 0.55968 -0.05155
 H332 H 0.68541 0.57746 -0.19195
 H333 H 0.74881 0.55617 -0.15344
 H334 H 0.73731 0.57404 -0.29392
 C335 C 0.85097 0.32190 -0.40331
 C336 C 0.81207 0.30654 -0.36657
 C337 C 0.80546 0.32249 -0.26140
 C338 C 0.83683 0.35317 -0.19885
 C339 C 0.87571 0.36747 -0.23653
 C340 C 0.88182 0.35149 -0.34030
 C341 C 0.90676 0.33332 -0.35609
 C342 C 0.87301 0.30070 -0.42354
 H343 H 0.77605 0.31274 -0.23062
 H344 H 0.83064 0.36533 -0.12044
 H345 H 0.91340 0.32383 -0.27019
 H346 H 0.93251 0.35124 -0.41358
 H347 H 0.85975 0.27228 -0.37641
 H348 H 0.87994 0.29946 -0.51902
 C349 C 0.51972 -0.17656 -0.25370
 C350 C 0.50006 -0.19195 -0.36233
 C351 C 0.47297 -0.18013 -0.39695
 C352 C 0.47309 -0.14802 -0.34166
 C353 C 0.49877 -0.12843 -0.24688
 C354 C 0.51910 -0.14546 -0.19767
 C355 C 0.56061 -0.12739 -0.15922
 C356 C 0.56146 -0.16141 -0.22037
 H357 H 0.45316 -0.19417 -0.47093
 H358 H 0.45417 -0.13776 -0.37555
 H359 H 0.56347 -0.12739 -0.06039
 H360 H 0.57962 -0.09890 -0.20300
 H361 H 0.56489 -0.18092 -0.15653
 H362 H 0.58110 -0.15271 -0.29929
 C363 C 0.32551 0.46922 -0.40939
 C364 C 0.31251 0.49575 -0.38564
 C365 C 0.33241 0.52413 -0.29565
 C366 C 0.36442 0.52598 -0.23434
 C367 C 0.37730 0.49936 -0.26063
 C368 C 0.35727 0.47124 -0.34890
 C369 C 0.33765 0.42821 -0.33276
 C370 C 0.30267 0.42574 -0.39489
 H371 H 0.32348 0.54521 -0.27325
 H372 H 0.37840 0.54761 -0.16454
 H373 H 0.33215 0.41934 -0.23734
 H374 H 0.35213 0.41505 -0.38528
 H375 H 0.27703 0.41616 -0.33497
 H376 H 0.29624 0.40904 -0.47949
 C377 C 1.14565 0.67571 -0.40751
 C378 C 1.18488 0.68819 -0.38483
 C379 C 1.19353 0.66615 -0.30477
 C380 C 1.16336 0.63413 -0.24388
 C381 C 1.12394 0.62339 -0.26272
 C382 C 1.11600 0.64406 -0.34868
 C383 C 1.09198 0.66346 -0.33728
 C384 C 1.12459 0.69821 -0.40101
 H385 H 1.22358 0.67416 -0.28767
 H386 H 1.17101 0.61870 -0.17979
 H387 H 1.08805 0.66971 -0.24280
 H388 H 1.06466 0.64830 -0.39067
 H389 H 1.13982 0.72463 -0.34343
 H390 H 1.11573 0.70320 -0.49033
 C391 C 0.85585 0.53681 -0.38214
 C392 C 0.81792 0.50499 -0.38383
 C393 C 0.81125 0.47034 -0.32772
 C394 C 0.84196 0.46834 -0.27067
 C395 C 0.87976 0.50115 -0.26724
 C396 C 0.88616 0.53480 -0.32651
 C397 C 0.90295 0.57492 -0.27565
 C398 C 0.86948 0.57694 -0.33403
 H399 H 0.78240 0.44480 -0.32856
 H400 H 0.83601 0.44148 -0.22770
 H401 H 0.93182 0.59533 -0.31540
 H402 H 0.90201 0.57524 -0.17628
 H403 H 0.87939 0.59950 -0.40453
 H404 H 0.84868 0.57777 -0.26855
 C405 C 0.50941 0.31855 -0.25800
 C406 C 0.48840 0.30378 -0.36492
 C407 C 0.46122 0.31588 -0.39350
 C408 C 0.46068 0.34632 -0.33006
 C409 C 0.48703 0.36528 -0.23538
 C410 C 0.50921 0.34887 -0.19621
 C411 C 0.55136 0.36713 -0.16429
 C412 C 0.55159 0.33365 -0.23110
 H413 H 0.44048 0.30223 -0.46546
 H414 H 0.44083 0.35604 -0.35912
 H415 H 0.55585 0.36666 -0.06639
 H416 H 0.56950 0.39585 -0.20773
 H417 H 0.55595 0.31380 -0.17136
 H418 H 0.57020 0.34293 -0.31239
 C419 C 0.64958 0.16111 -0.43400
 C420 C 0.68784 0.18183 -0.38960
 C421 C 0.69601 0.16656 -0.28647
 C422 C 0.66596 0.13457 -0.22515
 C423 C 0.62731 0.11669 -0.26710
 C424 C 0.62043 0.12890 -0.37643
 C425 C 0.58970 0.13800 -0.41429
 C426 C 0.62190 0.17378 -0.47649
 H427 H 0.72543 0.17973 -0.25165
 H428 H 0.67272 0.12452 -0.14359
 H429 H 0.57627 0.14502 -0.33815
 H430 H 0.56855 0.11583 -0.47768
 H431 H 0.62756 0.20178 -0.43549
 H432 H 0.61863 0.17189 -0.57511
 C433 C 1.19006 0.50144 -0.24752
 C434 C 1.18418 0.48222 -0.35797
 C435 C 1.14507 0.45470 -0.38778
 C436 C 1.11373 0.45267 -0.32174
 C437 C 1.12064 0.47793 -0.22379
 C438 C 1.15919 0.49983 -0.18337
 C439 C 1.18248 0.54144 -0.14547
 C440 C 1.21637 0.54329 -0.21540
 H441 H 1.13852 0.43606 -0.46561
 H442 H 1.08431 0.43333 -0.35296
 H443 H 1.18754 0.54459 -0.04731
 H444 H 1.17128 0.55968 -0.18458
 H445 H 1.24097 0.54744 -0.15739
 H446 H 1.22490 0.56281 -0.29430
 C447 C 0.48933 0.65585 -0.40371
 C448 C 0.51823 0.69434 -0.38009
 C449 C 0.54849 0.70046 -0.30082
 C450 C 0.54764 0.66873 -0.24098
 C451 C 0.51599 0.63067 -0.25714
 C452 C 0.48820 0.62483 -0.34362
 C453 C 0.44482 0.60393 -0.33573
 C454 C 0.44604 0.63780 -0.40277
 H455 H 0.57244 0.72966 -0.28463
 H456 H 0.57080 0.67404 -0.17897
 H457 H 0.43457 0.60167 -0.24207
 H458 H 0.43118 0.57631 -0.38808
 H459 H 0.43593 0.65473 -0.34860
 H460 H 0.43337 0.62964 -0.49401
 C461 C 0.34003 -0.18506 -0.34482
 C462 C 0.30605 -0.18361 -0.36839
 C463 C 0.30349 -0.15140 -0.32650
 C464 C 0.33479 -0.12105 -0.26424
 C465 C 0.36808 -0.12368 -0.23563
 C466 C 0.37018 -0.15597 -0.27736
 C467 C 0.37530 -0.18504 -0.20673
 C468 C 0.34321 -0.21657 -0.28230
 H469 H 0.27766 -0.14935 -0.34452
 H470 H 0.33261 -0.09599 -0.23593
 H471 H 0.36697 -0.18587 -0.11131
 H472 H 0.40411 -0.18276 -0.22109
 H473 H 0.31659 -0.23624 -0.23036
 H474 H 0.35382 -0.23164 -0.34299
 C475 C 0.53101 -0.14597 0.40288
 C476 C 0.50588 -0.18491 0.37149
 C477 C 0.47870 -0.19264 0.27927
 C478 C 0.47900 -0.16185 0.21603
 C479 C 0.50621 -0.12271 0.24462
 C480 C 0.53094 -0.11572 0.34212
 C481 C 0.57427 -0.09091 0.35195
 C482 C 0.57412 -0.12425 0.41931
 H483 H 0.45771 -0.22240 0.25504
 H484 H 0.45858 -0.16878 0.14313
 H485 H 0.58298 -0.06467 0.40864
 H486 H 0.58909 -0.08511 0.26369
 H487 H 0.58249 -0.11721 0.51480
 H488 H 0.58884 -0.13787 0.37040
 C489 C 0.33393 0.52439 0.30060
 C490 C 0.30584 0.48883 0.35000
 C491 C 0.30755 0.45521 0.32202
 C492 C 0.33982 0.45791 0.26173
 C493 C 0.36957 0.49398 0.21850
 C494 C 0.36501 0.52671 0.23251
 C495 C 0.35725 0.54742 0.13395
 C496 C 0.32541 0.54670 0.20999
 H497 H 0.28414 0.42697 0.34872
 H498 H 0.34127 0.43155 0.24792
 H499 H 0.34602 0.52928 0.05158
 H500 H 0.38134 0.57729 0.11751
 H501 H 0.29603 0.52966 0.16864
 H502 H 0.33249 0.57595 0.24404
 C503 C 1.15519 0.69295 0.31696
 C504 C 1.18793 0.69074 0.35157
 C505 C 1.18845 0.65610 0.32714
 C506 C 1.15818 0.62607 0.25986
 C507 C 1.12658 0.63000 0.21861
 C508 C 1.12485 0.66301 0.25389
 C509 C 1.11911 0.69093 0.17924
 C510 C 1.15249 0.72370 0.24854
 H511 H 1.21244 0.65259 0.35829
 H512 H 1.15934 0.59981 0.24078
 H513 H 1.09046 0.68891 0.19664
 H514 H 1.12592 0.68981 0.08327
 H515 H 1.14307 0.74057 0.30573
 H516 H 1.17878 0.74156 0.19299
 C517 C 0.46383 0.15858 0.28892
 C518 C 0.49513 0.18489 0.36039
 C519 C 0.52696 0.17843 0.37411
 C520 C 0.52827 0.14834 0.31026
 C521 C 0.49774 0.12414 0.23231
 C522 C 0.46479 0.12838 0.22855
 C523 C 0.44390 0.13182 0.12269
 C524 C 0.44313 0.16521 0.18795
 H525 H 0.55075 0.19669 0.43389
 H526 H 0.55277 0.14368 0.32270
 H527 H 0.41449 0.10578 0.11132
 H528 H 0.46228 0.14105 0.04078
 H529 H 0.41323 0.15855 0.21315
 H530 H 0.46109 0.19358 0.14257
 C531 C 0.67473 0.52633 0.40992
 C532 C 0.68981 0.50250 0.37543
 C533 C 0.67264 0.47755 0.27632
 C534 C 0.64307 0.47878 0.21007
 C535 C 0.62970 0.50459 0.24279
 C536 C 0.64520 0.52706 0.34641
 C537 C 0.66253 0.56992 0.36647
 C538 C 0.69483 0.56882 0.43700
 H539 H 0.68261 0.45768 0.24891
 H540 H 0.63100 0.45982 0.13292
 H541 H 0.64350 0.57677 0.42286
 H542 H 0.67290 0.58688 0.28230
 H543 H 0.69411 0.57467 0.53399
 H544 H 0.72399 0.58511 0.39402
 C545 C 0.81685 0.35100 0.36336
 C546 C 0.81362 0.31400 0.36747
 C547 C 0.83986 0.30792 0.29776
 C548 C 0.87199 0.33943 0.24281
 C549 C 0.87763 0.37730 0.25330
 C550 C 0.84833 0.38193 0.30746
 C551 C 0.85103 0.41056 0.39976
 C552 C 0.81536 0.37718 0.45792
 H553 H 0.83682 0.27921 0.29193
 H554 H 0.89280 0.33437 0.19419
 H555 H 0.84543 0.43340 0.36463
 H556 H 0.87786 0.42179 0.45528
 H557 H 0.78886 0.38000 0.44968
 H558 H 0.82158 0.37172 0.54960
   
