data_POSCAR
  _audit_creation_date              2014-09-24
  _audit_creation_method            'ToBaCCo'
  _symmetry_space_group_name_H-M    'P1'
  _symmetry_Int_Tables_number       1
  _symmetry_cell_setting            triclinic
  loop_
  _symmetry_equiv_pos_as_xyz
 x,y,z
_cell_length_a 39.0189
_cell_length_b 39.0737
_cell_length_c 39.0323
_cell_angle_alpha 89.984300
_cell_angle_beta 90.019100
_cell_angle_gamma 89.988600
loop_
  _atom_site_label
  _atom_site_type_symbol
  _atom_site_fract_x
  _atom_site_fract_y
  _atom_site_fract_z
C1 C 0.25046 0.92606 -0.03303
 C2 C 0.25046 0.90849 -0.00173
 C3 C 0.25104 0.92614 0.02944
 C4 C 0.25181 0.96226 0.02967
 C5 C 0.25164 0.98044 -0.00179
 C6 C 0.25088 0.96233 -0.03331
 C7 C 0.25054 0.98100 -0.06417
 C8 C 0.25086 1.01665 -0.06407
 C9 C 0.25169 1.03509 -0.03312
 C10 C 0.25219 1.01681 -0.00169
 C11 C 0.25271 0.98065 0.06061
 C12 C 0.25345 1.01620 0.06072
 C13 C 0.25317 1.03483 0.02988
 C14 C 0.25378 1.07101 0.02974
 C15 C 0.25314 1.08874 -0.00134
 C16 C 0.25201 1.07133 -0.03262
 H17 H 0.24994 0.96816 -0.08874
 H18 H 0.25051 1.02968 -0.08855
 H19 H 0.25291 0.96771 0.08514
 H20 H 0.25417 1.02900 0.08531
 H21 H 0.24997 0.88070 -0.00155
 H22 H 0.25344 1.11656 -0.00118
 C23 C 0.75008 0.42398 0.46728
 C24 C 0.75002 0.40672 0.49871
 C25 C 0.75109 0.42470 0.52967
 C26 C 0.75242 0.46080 0.52947
 C27 C 0.75230 0.47857 0.49778
 C28 C 0.75103 0.46013 0.46653
 C29 C 0.75074 0.47833 0.43541
 C30 C 0.75160 0.51397 0.43501
 C31 C 0.75295 0.53272 0.46571
 C32 C 0.75342 0.51486 0.49736
 C33 C 0.75385 0.47959 0.56016
 C34 C 0.75516 0.51513 0.55974
 C35 C 0.75493 0.53325 0.52863
 C36 C 0.75610 0.56932 0.52796
 C37 C 0.75547 0.58668 0.49671
 C38 C 0.75382 0.56888 0.46572
 H39 H 0.74975 0.46515 0.41103
 H40 H 0.75125 0.52672 0.41039
 H41 H 0.75404 0.46697 0.58485
 H42 H 0.75628 0.52829 0.58412
 H43 H 0.74915 0.37896 0.49907
 H44 H 0.75616 0.61445 0.49651
 C45 C 0.74576 1.02803 1.06968
 C46 C 0.74588 0.99696 1.08734
 C47 C 0.74682 0.96578 1.06979
 C48 C 0.74776 0.96544 1.03354
 C49 C 0.74754 0.99693 1.01541
 C50 C 0.74647 1.02834 1.03356
 C51 C 0.74619 1.05926 1.01516
 C52 C 0.74696 1.05937 0.97957
 C53 C 0.74814 1.02855 0.96101
 C54 C 0.74847 0.99704 0.97906
 C55 C 0.74897 0.93462 1.01492
 C56 C 0.75001 0.93475 0.97926
 C57 C 0.74979 0.96569 0.96082
 C58 C 0.75087 0.96616 0.92463
 C59 C 0.75043 0.99741 0.90711
 C60 C 0.74904 1.02846 0.92486
 H61 H 0.74533 1.08373 1.02813
 H62 H 0.74668 1.08393 0.96674
 H63 H 0.74918 0.91009 1.02783
 H64 H 0.75097 0.91031 0.96624
 H65 H 0.74532 0.99712 1.11517
 H66 H 0.75121 0.99757 0.87931
 C67 C 0.24640 0.46850 0.57082
 C68 C 0.24598 0.49984 0.58807
 C69 C 0.24596 0.53077 0.57013
 C70 C 0.24624 0.53067 0.53397
 C71 C 0.24677 0.49902 0.51613
 C72 C 0.24690 0.46777 0.53462
 C73 C 0.24757 0.43671 0.51643
 C74 C 0.24815 0.43636 0.48074
 C75 C 0.24800 0.46705 0.46189
 C76 C 0.24723 0.49866 0.47976
 C77 C 0.24603 0.56135 0.51519
 C78 C 0.24634 0.56100 0.47958
 C79 C 0.24696 0.52995 0.46135
 C80 C 0.24737 0.52941 0.42519
 C81 C 0.24823 0.49812 0.40779
 C82 C 0.24861 0.46703 0.42565
 H83 H 0.24770 0.41236 0.52969
 H84 H 0.24870 0.41174 0.46802
 H85 H 0.24559 0.58597 0.52790
 H86 H 0.24613 0.58541 0.46645
 H87 H 0.24574 0.50016 0.61588
 H88 H 0.24866 0.49795 0.37999
 C89 C 0.92440 0.25067 -0.02972
 C90 C 0.90668 0.24940 0.00144
 C91 C 0.92425 0.24878 0.03270
 C92 C 0.96047 0.24959 0.03312
 C93 C 0.97872 0.25074 0.00172
 C94 C 0.96064 0.25121 -0.02983
 C95 C 0.97929 0.25219 -0.06068
 C96 C 1.01488 0.25265 -0.06056
 C97 C 1.03334 0.25226 -0.02960
 C98 C 1.01512 0.25139 0.00184
 C99 C 0.97892 0.24927 0.06409
 C100 C 1.01460 0.25008 0.06423
 C101 C 1.03324 0.25111 0.03339
 C102 C 1.06952 0.25185 0.03311
 C103 C 1.08713 0.25257 0.00194
 C104 C 1.06955 0.25271 -0.02924
 H105 H 0.96650 0.25256 -0.08529
 H106 H 1.02784 0.25335 -0.08508
 H107 H 0.96590 0.24843 0.08856
 H108 H 1.02750 0.24982 0.08879
 H109 H 0.87885 0.24885 0.00142
 H110 H 1.11499 0.25299 0.00193
 C111 C 0.42512 0.75092 0.47091
 C112 C 0.40775 0.75010 0.50225
 C113 C 0.42568 0.74956 0.53333
 C114 C 0.46193 0.74998 0.53327
 C115 C 0.47975 0.75068 0.50160
 C116 C 0.46129 0.75108 0.47031
 C117 C 0.47947 0.75160 0.43919
 C118 C 0.51508 0.75170 0.43878
 C119 C 0.53390 0.75140 0.46948
 C120 C 0.51612 0.75095 0.50118
 C121 C 0.48083 0.74972 0.56397
 C122 C 0.51653 0.75016 0.56356
 C123 C 0.53467 0.75076 0.53243
 C124 C 0.57087 0.75115 0.53162
 C125 C 0.58807 0.75146 0.50023
 C126 C 0.57007 0.75151 0.46932
 H127 H 0.46631 0.75189 0.41478
 H128 H 0.52775 0.75207 0.41412
 H129 H 0.46815 0.74922 0.58863
 H130 H 0.52984 0.74998 0.58790
 H131 H 0.37994 0.74985 0.50246
 H132 H 0.61589 0.75163 0.49986
 C133 C 0.03007 0.74657 -0.07063
 C134 C -0.00096 0.74705 -0.08848
 C135 C -0.03229 0.74815 -0.07115
 C136 C -0.03291 0.74860 -0.03489
 C137 C -0.00153 0.74826 -0.01650
 C138 C 0.03010 0.74731 -0.03443
 C139 C 0.06090 0.74719 -0.01570
 C140 C 0.06069 0.74805 0.01987
 C141 C 0.02968 0.74893 0.03818
 C142 C -0.00174 0.74894 0.01990
 C143 C -0.06393 0.74940 -0.01652
 C144 C -0.06413 0.74985 0.01915
 C145 C -0.03332 0.74967 0.03793
 C146 C -0.03313 0.75021 0.07422
 C147 C -0.00187 0.75036 0.09191
 C148 C 0.02935 0.74981 0.07432
 H149 H 0.08554 0.74650 -0.02844
 H150 H 0.08519 0.74796 0.03288
 H151 H -0.08839 0.74964 -0.02964
 H152 H -0.08875 0.75043 0.03194
 H153 H -0.00072 0.74665 -0.11633
 H154 H -0.00177 0.75092 0.11973
 C155 C 0.52940 0.24938 0.57567
 C156 C 0.49838 0.25038 0.59362
 C157 C 0.46694 0.25043 0.57631
 C158 C 0.46625 0.24965 0.54009
 C159 C 0.49755 0.24846 0.52167
 C160 C 0.52923 0.24823 0.53951
 C161 C 0.55995 0.24687 0.52074
 C162 C 0.55960 0.24573 0.48515
 C163 C 0.52851 0.24606 0.46695
 C164 C 0.49719 0.24751 0.48531
 C165 C 0.43516 0.25005 0.52180
 C166 C 0.43482 0.24936 0.48611
 C167 C 0.46556 0.24808 0.46737
 C168 C 0.46563 0.24737 0.43115
 C169 C 0.49668 0.24577 0.41340
 C170 C 0.52792 0.24504 0.43083
 H171 H 0.58464 0.24661 0.53340
 H172 H 0.58401 0.24466 0.47201
 H173 H 0.41076 0.25099 0.53496
 H174 H 0.41022 0.24979 0.47329
 H175 H 0.49871 0.25112 0.62141
 H176 H 0.49654 0.24518 0.38559
 C177 C 0.93057 -0.02959 0.25451
 C178 C 0.91272 0.00135 0.25388
 C179 C 0.93008 0.03258 0.25259
 C180 C 0.96629 0.03319 0.25211
 C181 C 0.98466 0.00188 0.25258
 C182 C 0.96670 -0.02966 0.25371
 C183 C 0.98531 -0.06045 0.25395
 C184 C 1.02090 -0.06029 0.25299
 C185 C 1.03926 -0.02933 0.25191
 C186 C 1.02102 0.00206 0.25182
 C187 C 0.98458 0.06417 0.25113
 C188 C 1.02028 0.06437 0.25062
 C189 C 1.03905 0.03358 0.25090
 C190 C 1.07535 0.03335 0.25027
 C191 C 1.09302 0.00213 0.25018
 C192 C 1.07540 -0.02902 0.25089
 H193 H 0.97250 -0.08501 0.25479
 H194 H 1.03389 -0.08477 0.25316
 H195 H 0.97141 0.08856 0.25079
 H196 H 1.03307 0.08895 0.24990
 H197 H 0.88490 0.00112 0.25428
 H198 H 1.12085 0.00201 0.24952
 C199 C 0.43041 0.47184 0.75610
 C200 C 0.41302 0.50307 0.75545
 C201 C 0.43083 0.53407 0.75381
 C202 C 0.46707 0.53408 0.75301
 C203 C 0.48496 0.50246 0.75350
 C204 C 0.46654 0.47120 0.75497
 C205 C 0.48470 0.44013 0.75521
 C206 C 0.52030 0.43972 0.75395
 C207 C 0.53913 0.47037 0.75256
 C208 C 0.52133 0.50204 0.75244
 C209 C 0.48587 0.56474 0.75170
 C210 C 0.52159 0.56435 0.75091
 C211 C 0.53983 0.53327 0.75122
 C212 C 0.57606 0.53251 0.75033
 C213 C 0.59330 0.50108 0.75027
 C214 C 0.57529 0.47014 0.75128
 H215 H 0.47152 0.41578 0.75630
 H216 H 0.53293 0.41505 0.75414
 H217 H 0.47309 0.58933 0.75134
 H218 H 0.53480 0.58868 0.74995
 H219 H 0.38521 0.50326 0.75610
 H220 H 0.62110 0.50069 0.74943
 C221 C 1.03433 0.93146 0.74755
 C222 C 1.00312 0.91389 0.74680
 C223 C 0.97197 0.93145 0.74669
 C224 C 0.97160 0.96756 0.74719
 C225 C 1.00303 0.98579 0.74808
 C226 C 1.03460 0.96770 0.74831
 C227 C 1.06542 0.98634 0.74935
 C228 C 1.06526 1.02198 0.75020
 C229 C 1.03426 1.04045 0.74993
 C230 C 1.00285 1.02216 0.74878
 C231 C 0.94061 0.98586 0.74687
 C232 C 0.94042 1.02142 0.74739
 C233 C 0.97123 1.04014 0.74838
 C234 C 0.97124 1.07634 0.74900
 C235 C 1.00237 1.09413 0.75026
 C236 C 1.03376 1.07670 0.75080
 H237 H 1.09000 0.97347 0.74958
 H238 H 1.08975 1.03497 0.75103
 H239 H 0.91614 0.97282 0.74616
 H240 H 0.91577 1.03413 0.74707
 H241 H 1.00300 0.88609 0.74637
 H242 H 1.00216 1.12193 0.75085
 C243 C 0.47072 0.57501 0.24733
 C244 C 0.50207 0.59235 0.24815
 C245 C 0.53314 0.57443 0.24858
 C246 C 0.53307 0.53825 0.24806
 C247 C 0.50139 0.52047 0.24736
 C248 C 0.47010 0.53891 0.24705
 C249 C 0.43896 0.52077 0.24651
 C250 C 0.43854 0.48521 0.24633
 C251 C 0.46924 0.46642 0.24658
 C252 C 0.50095 0.48416 0.24701
 C253 C 0.56378 0.51938 0.24824
 C254 C 0.56336 0.48373 0.24775
 C255 C 0.53221 0.46564 0.24716
 C256 C 0.53137 0.42950 0.24676
 C257 C 0.49998 0.41232 0.24645
 C258 C 0.46908 0.43032 0.24643
 H259 H 0.41454 0.53392 0.24628
 H260 H 0.41386 0.47256 0.24596
 H261 H 0.58845 0.53203 0.24874
 H262 H 0.58770 0.47044 0.24789
 H263 H 0.50229 0.62012 0.24850
 H264 H 0.49960 0.38454 0.24629
 O265 O 0.25473 0.16164 0.19675
 O266 O 0.29621 0.15559 0.24477
 O267 O 0.16561 0.20063 0.24653
 O268 O 0.15236 0.24526 0.28079
 O269 O 0.20605 0.25080 0.15617
 O270 O 0.25373 0.28914 0.14719
 O271 O 0.25343 0.29810 0.33371
 O272 O 0.21327 0.25192 0.34228
 O273 O 0.34143 0.25067 0.29298
 O274 O 0.34869 0.20951 0.24061
 O275 O 0.30057 0.33835 0.24639
 O276 O 0.25068 0.34782 0.20628
 O277 O 0.25343 0.33873 0.29193
 O278 O 0.21579 0.34951 0.24405
 O279 O 0.34172 0.29706 0.24668
 O280 O 0.35530 0.25197 0.21098
 O281 O 0.30034 0.25208 0.33432
 O282 O 0.25425 0.21351 0.34560
 O283 O 0.25439 0.20334 0.15594
 O284 O 0.29141 0.25089 0.14629
 O285 O 0.16451 0.24900 0.19712
 O286 O 0.15562 0.28830 0.24441
 O287 O 0.20770 0.16009 0.24493
 O288 O 0.25221 0.15146 0.28314
 Zr289 Zr 0.25309 0.18870 0.24370
 O290 O 0.28415 0.21833 0.27642
 Zr291 Zr 0.19188 0.24796 0.24375
 O292 O 0.22090 0.28049 0.27585
 Zr293 Zr 0.25230 0.24921 0.18373
 O294 O 0.28420 0.28091 0.21325
 Zr295 Zr 0.25405 0.25131 0.30658
 O296 O 0.22248 0.21843 0.27699
 Zr297 Zr 0.31430 0.25105 0.24639
 O298 O 0.28571 0.21905 0.21337
 Zr299 Zr 0.25388 0.31098 0.24594
 O300 O 0.22153 0.28165 0.21368
 O301 O 0.22090 0.21689 0.21196
 O302 O 0.28609 0.28329 0.27836
 C303 C 0.25535 0.17196 0.16546
 C304 C 0.17621 0.16939 0.24659
 C305 C 0.17463 0.25060 0.16585
 C306 C 0.25323 0.32935 0.32338
 C307 C 0.33166 0.25134 0.32434
 C308 C 0.33193 0.32833 0.24663
 H309 H 0.29842 0.20289 0.29051
 H310 H 0.29849 0.29498 0.19780
 H311 H 0.20639 0.20212 0.19733
 H312 H 0.20531 0.29448 0.29007
 H313 H 0.19687 0.23397 0.33504
 H314 H 0.15904 0.26010 0.30020
 H315 H 0.34686 0.26361 0.19012
 H316 H 0.30960 0.23502 0.15410
 H317 H 0.26999 0.19500 0.33854
 H318 H 0.23754 0.16070 0.30164
 H319 H 0.27059 0.34454 0.19095
 H320 H 0.23694 0.30655 0.15481
 H321 H 0.28883 0.13237 0.23760
 H322 H 0.34899 0.19658 0.26241
 H323 H 0.16312 0.30523 0.22709
 H324 H 0.19742 0.34295 0.26021
 O325 O 0.74976 0.84252 0.20575
 O326 O 0.71183 0.85199 0.25335
 O327 O 0.83934 0.80179 0.25559
 O328 O 0.85101 0.75726 0.29025
 O329 O 0.79932 0.75339 0.16470
 O330 O 0.75117 0.71562 0.15489
 O331 O 0.75000 0.70638 0.34153
 O332 O 0.79002 0.75238 0.35029
 O333 O 0.66205 0.75293 0.30068
 O334 O 0.65263 0.79311 0.25123
 O335 O 0.70241 0.66581 0.25346
 O336 O 0.75231 0.65569 0.21451
 O337 O 0.74905 0.66523 0.30027
 O338 O 0.78747 0.65434 0.25190
 O339 O 0.66167 0.70749 0.25344
 O340 O 0.65086 0.75569 0.21593
 O341 O 0.70343 0.75149 0.34175
 O342 O 0.74439 0.79010 0.35310
 O343 O 0.75060 0.80165 0.16417
 O344 O 0.71363 0.75408 0.15386
 O345 O 0.83986 0.75398 0.20669
 O346 O 0.84770 0.71458 0.25399
 O347 O 0.79775 0.84264 0.25366
 O348 O 0.74844 0.85343 0.29043
 Zr349 Zr 0.75157 0.81520 0.25213
 O350 O 0.71983 0.78584 0.28416
 Zr351 Zr 0.81196 0.75535 0.25267
 O352 O 0.78236 0.72295 0.28413
 Zr353 Zr 0.75236 0.75528 0.19171
 O354 O 0.71981 0.72355 0.22091
 Zr355 Zr 0.74943 0.75267 0.31430
 O356 O 0.78179 0.78560 0.28580
 Zr357 Zr 0.68944 0.75339 0.25399
 O358 O 0.71879 0.78539 0.22147
 Zr359 Zr 0.74935 0.69285 0.25387
 O360 O 0.78225 0.72220 0.22203
 O361 O 0.78381 0.78705 0.22049
 O362 O 0.71723 0.72084 0.28599
 C363 C 0.74937 0.83288 0.17434
 C364 C 0.82909 0.83304 0.25551
 C365 C 0.83057 0.75289 0.17520
 C366 C 0.74961 0.67510 0.33164
 C367 C 0.67211 0.75204 0.33201
 C368 C 0.67112 0.67611 0.25325
 H369 H 0.70602 0.80130 0.29871
 H370 H 0.70565 0.70963 0.20522
 H371 H 0.79854 0.80174 0.20601
 H372 H 0.79772 0.70884 0.29850
 H373 H 0.80510 0.77195 0.34459
 H374 H 0.84312 0.74370 0.31012
 H375 H 0.65709 0.73928 0.19768
 H376 H 0.69514 0.76940 0.16200
 H377 H 0.75742 0.81030 0.34530
 H378 H 0.76783 0.84984 0.30637
 H379 H 0.73345 0.66014 0.19818
 H380 H 0.76744 0.69788 0.16289
 H381 H 0.69415 0.84420 0.23691
 H382 H 0.65637 0.80856 0.27095
 H383 H 0.84021 0.69769 0.23663
 H384 H 0.80499 0.65992 0.26934
 O385 O 0.75107 0.16006 0.79581
 O386 O 0.71589 0.14918 0.74878
 O387 O 0.84076 0.20433 0.75033
 O388 O 0.85134 0.25133 0.71498
 O389 O 0.79649 0.24959 0.84000
 O390 O 0.74949 0.28486 0.85078
 O391 O 0.74937 0.29585 0.66117
 O392 O 0.78537 0.24983 0.64871
 O393 O 0.66149 0.25087 0.70431
 O394 O 0.64934 0.21482 0.75048
 O395 O 0.70452 0.33875 0.74915
 O396 O 0.75085 0.35101 0.78522
 O397 O 0.74994 0.33763 0.70175
 O398 O 0.79106 0.34618 0.75287
 O399 O 0.66272 0.29818 0.74977
 O400 O 0.65442 0.24690 0.79087
 O401 O 0.70198 0.25038 0.66240
 O402 O 0.75336 0.20937 0.65386
 O403 O 0.74953 0.20024 0.83806
 O404 O 0.71007 0.24900 0.84697
 O405 O 0.83872 0.25121 0.79975
 O406 O 0.84741 0.29072 0.75086
 O407 O 0.80059 0.16206 0.74886
 O408 O 0.75166 0.15326 0.70931
 Zr409 Zr 0.75307 0.18847 0.75044
 O410 O 0.71967 0.21772 0.71972
 Zr411 Zr 0.81218 0.24961 0.75233
 O412 O 0.78272 0.28034 0.71914
 Zr413 Zr 0.75109 0.24759 0.81159
 O414 O 0.72017 0.28077 0.78235
 Zr415 Zr 0.74932 0.25031 0.68915
 O416 O 0.78314 0.21925 0.71816
 Zr417 Zr 0.68963 0.25101 0.74981
 O418 O 0.71886 0.21740 0.78086
 Zr419 Zr 0.75015 0.31080 0.74895
 O420 O 0.78141 0.28177 0.78255
 O421 O 0.78390 0.21682 0.78320
 O422 O 0.71755 0.28280 0.71722
 C423 C 0.74952 0.16910 0.82729
 C424 C 0.83178 0.17285 0.74883
 C425 C 0.82797 0.25117 0.83095
 C426 C 0.74964 0.32721 0.67048
 C427 C 0.67072 0.25061 0.67289
 C428 C 0.67311 0.32943 0.74950
 H429 H 0.70531 0.20214 0.70586
 H430 H 0.70629 0.29507 0.79795
 H431 H 0.79857 0.20220 0.79783
 H432 H 0.79826 0.29423 0.70477
 H433 H 0.80591 0.26219 0.65688
 H434 H 0.84317 0.23739 0.69544
 H435 H 0.65576 0.26820 0.80450
 H436 H 0.69418 0.23030 0.84060
 H437 H 0.73205 0.19573 0.65525
 H438 H 0.77043 0.15963 0.69349
 H439 H 0.73809 0.34297 0.80556
 H440 H 0.76336 0.30442 0.84256
 H441 H 0.69624 0.15736 0.76257
 H442 H 0.65745 0.19443 0.73788
 H443 H 0.84102 0.30654 0.76960
 H444 H 0.80480 0.34466 0.73163
 O445 O 0.24657 0.83502 0.79978
 O446 O 0.28445 0.84481 0.75171
 O447 O 0.15691 0.79443 0.74903
 O448 O 0.14480 0.75053 0.71453
 O449 O 0.19754 0.74550 0.83948
 O450 O 0.24575 0.70728 0.84850
 O451 O 0.24588 0.69935 0.66208
 O452 O 0.20545 0.74620 0.65404
 O453 O 0.33392 0.74605 0.70257
 O454 O 0.34436 0.78486 0.75186
 O455 O 0.29277 0.65845 0.74980
 O456 O 0.24336 0.64838 0.78890
 O457 O 0.24664 0.65847 0.70361
 O458 O 0.20801 0.64757 0.75172
 O459 O 0.33425 0.69938 0.74941
 O460 O 0.34512 0.74814 0.78784
 O461 O 0.29228 0.74521 0.66176
 O462 O 0.25123 0.78328 0.65073
 O463 O 0.24625 0.79312 0.84035
 O464 O 0.28317 0.74588 0.84986
 O465 O 0.15676 0.74658 0.79772
 O466 O 0.14859 0.70745 0.74997
 O467 O 0.19797 0.83578 0.75151
 O468 O 0.24735 0.84688 0.71475
 Zr469 Zr 0.24452 0.80824 0.75267
 O470 O 0.27604 0.77883 0.72008
 Zr471 Zr 0.18431 0.74823 0.75161
 O472 O 0.21349 0.71608 0.71966
 Zr473 Zr 0.24426 0.74743 0.81220
 O474 O 0.27652 0.71592 0.78261
 Zr475 Zr 0.24643 0.74585 0.68957
 O476 O 0.21438 0.77876 0.71867
 Zr477 Zr 0.30680 0.74585 0.74950
 O478 O 0.27764 0.77778 0.78248
 Zr479 Zr 0.24637 0.68583 0.74980
 O480 O 0.21386 0.71484 0.78201
 O481 O 0.21257 0.77960 0.78403
 O482 O 0.27858 0.71368 0.71755
 C483 C 0.24726 0.82456 0.83104
 C484 C 0.16667 0.82579 0.74948
 C485 C 0.16626 0.74525 0.82912
 C486 C 0.24624 0.66807 0.67224
 C487 C 0.32369 0.74569 0.67126
 C488 C 0.32418 0.66811 0.74967
 H489 H 0.28979 0.79439 0.70557
 H490 H 0.29068 0.70178 0.79811
 H491 H 0.19793 0.79418 0.79872
 H492 H 0.19803 0.70212 0.70526
 H493 H 0.19076 0.76604 0.65987
 H494 H 0.15270 0.73763 0.69423
 H495 H 0.33984 0.73038 0.80511
 H496 H 0.30189 0.76076 0.84144
 H497 H 0.23995 0.80410 0.65952
 H498 H 0.22807 0.84316 0.69871
 H499 H 0.26234 0.65254 0.80517
 H500 H 0.22883 0.69000 0.84089
 H501 H 0.30216 0.83666 0.76795
 H502 H 0.33930 0.80158 0.73351
 H503 H 0.15579 0.69064 0.76753
 H504 H 0.19070 0.65305 0.73404
 O505 O 0.24859 0.34445 0.70905
 O506 O 0.21059 0.35398 0.75665
 O507 O 0.33810 0.30376 0.75889
 O508 O 0.34958 0.25937 0.79393
 O509 O 0.29810 0.25507 0.66826
 O510 O 0.24987 0.21745 0.65843
 O511 O 0.24868 0.20848 0.84511
 O512 O 0.28873 0.25452 0.85375
 O513 O 0.16077 0.25500 0.80411
 O514 O 0.15140 0.29521 0.75465
 O515 O 0.20094 0.16785 0.75699
 O516 O 0.25101 0.15765 0.71811
 O517 O 0.24757 0.16727 0.80393
 O518 O 0.28595 0.15617 0.75566
 O519 O 0.16026 0.20958 0.75684
 O520 O 0.14959 0.25777 0.71935
 O521 O 0.20215 0.25362 0.84520
 O522 O 0.24309 0.29220 0.85654
 O523 O 0.24948 0.30348 0.66756
 O524 O 0.21241 0.25596 0.65731
 O525 O 0.33861 0.25571 0.71028
 O526 O 0.34646 0.21657 0.75761
 O527 O 0.29653 0.34464 0.75692
 O528 O 0.24728 0.35549 0.79373
 Zr529 Zr 0.25034 0.31720 0.75549
 O530 O 0.21857 0.28790 0.78756
 Zr531 Zr 0.31067 0.25730 0.75620
 O532 O 0.28103 0.22493 0.78766
 Zr533 Zr 0.25111 0.25715 0.69520
 O534 O 0.21850 0.22550 0.72442
 Zr535 Zr 0.24814 0.25473 0.81777
 O536 O 0.28052 0.28763 0.78924
 Zr537 Zr 0.18815 0.25542 0.75743
 O538 O 0.21755 0.28735 0.72487
 Zr539 Zr 0.24796 0.19481 0.75746
 O540 O 0.28093 0.22411 0.72563
 O541 O 0.28257 0.28895 0.72393
 O542 O 0.21587 0.22289 0.78951
 C543 C 0.24826 0.33474 0.67765
 C544 C 0.32788 0.33504 0.75871
 C545 C 0.32934 0.25453 0.67880
 C546 C 0.24819 0.17718 0.83528
 C547 C 0.17084 0.25414 0.83544
 C548 C 0.16965 0.17818 0.75668
 H549 H 0.20478 0.30339 0.80209
 H550 H 0.20433 0.21158 0.70873
 H551 H 0.29733 0.30357 0.70941
 H552 H 0.29636 0.21082 0.80205
 H553 H 0.30378 0.27412 0.84805
 H554 H 0.34177 0.24559 0.81369
 H555 H 0.15585 0.24140 0.70108
 H556 H 0.19396 0.27137 0.66538
 H557 H 0.25597 0.31245 0.84864
 H558 H 0.26668 0.35190 0.80967
 H559 H 0.23207 0.16200 0.70182
 H560 H 0.26608 0.19968 0.66647
 H561 H 0.19295 0.34620 0.74018
 H562 H 0.15512 0.31063 0.77439
 H563 H 0.33884 0.19953 0.74046
 H564 H 0.30355 0.16184 0.77299
 O565 O 0.75822 0.66132 0.69597
 O566 O 0.79968 0.65517 0.74387
 O567 O 0.66918 0.70039 0.74580
 O568 O 0.65607 0.74509 0.78008
 O569 O 0.70951 0.75043 0.65533
 O570 O 0.75715 0.78874 0.64619
 O571 O 0.75723 0.79777 0.83264
 O572 O 0.71721 0.75166 0.84144
 O573 O 0.84519 0.75038 0.79173
 O574 O 0.85236 0.70917 0.73945
 O575 O 0.80430 0.83801 0.74531
 O576 O 0.75431 0.84743 0.70517
 O577 O 0.75720 0.83837 0.79084
 O578 O 0.71958 0.84927 0.74307
 O579 O 0.84545 0.79671 0.74548
 O580 O 0.85880 0.75146 0.70963
 O581 O 0.80420 0.75186 0.83317
 O582 O 0.75813 0.71321 0.84460
 O583 O 0.75788 0.70298 0.65512
 O584 O 0.79481 0.75048 0.64525
 O585 O 0.66806 0.74870 0.69638
 O586 O 0.65927 0.78806 0.74367
 O587 O 0.71119 0.65979 0.74417
 O588 O 0.75581 0.65125 0.78240
 Zr589 Zr 0.75664 0.68838 0.74286
 O590 O 0.78787 0.71801 0.77539
 Zr591 Zr 0.69550 0.74769 0.74294
 O592 O 0.72465 0.78021 0.77491
 Zr593 Zr 0.75581 0.74886 0.68280
 O594 O 0.78782 0.78057 0.71215
 Zr595 Zr 0.75784 0.75101 0.80557
 O596 O 0.72613 0.71815 0.77615
 Zr597 Zr 0.81796 0.75070 0.74524
 O598 O 0.78922 0.71868 0.71239
 Zr599 Zr 0.75759 0.81065 0.74489
 O600 O 0.72511 0.78133 0.71277
 O601 O 0.72444 0.71657 0.71113
 O602 O 0.78984 0.78296 0.77725
 C603 C 0.75883 0.67164 0.66470
 C604 C 0.67972 0.66914 0.74587
 C605 C 0.67812 0.75025 0.66509
 C606 C 0.75701 0.82898 0.82226
 C607 C 0.83549 0.75112 0.82310
 C608 C 0.83567 0.82799 0.74551
 H609 H 0.80217 0.70258 0.78946
 H610 H 0.80207 0.79463 0.69666
 H611 H 0.70989 0.70180 0.69655
 H612 H 0.70910 0.79422 0.78915
 H613 H 0.70074 0.73376 0.83425
 H614 H 0.66285 0.75989 0.79948
 H615 H 0.85045 0.76345 0.68894
 H616 H 0.81307 0.73472 0.65310
 H617 H 0.77397 0.69476 0.83758
 H618 H 0.74109 0.66050 0.80086
 H619 H 0.77429 0.84424 0.68990
 H620 H 0.74041 0.80618 0.65385
 H621 H 0.79222 0.63194 0.73681
 H622 H 0.85260 0.69619 0.76122
 H623 H 0.66671 0.80495 0.72629
 H624 H 0.70116 0.84265 0.75915
 O625 O 0.24977 0.66056 0.29524
 O626 O 0.21432 0.65000 0.24824
 O627 O 0.33953 0.70441 0.24967
 O628 O 0.35054 0.75132 0.21450
 O629 O 0.29558 0.74991 0.33942
 O630 O 0.24873 0.78534 0.35024
 O631 O 0.24884 0.79638 0.16050
 O632 O 0.28473 0.75003 0.14819
 O633 O 0.16075 0.75186 0.20365
 O634 O 0.14834 0.71590 0.24983
 O635 O 0.20426 0.83948 0.24848
 O636 O 0.25049 0.85164 0.28444
 O637 O 0.24967 0.83814 0.20107
 O638 O 0.29087 0.84639 0.25233
 O639 O 0.16223 0.79915 0.24909
 O640 O 0.15352 0.74801 0.29016
 O641 O 0.20127 0.75113 0.16176
 O642 O 0.25237 0.70992 0.15318
 O643 O 0.24840 0.70075 0.33748
 O644 O 0.20911 0.74976 0.34632
 O645 O 0.33783 0.75127 0.29918
 O646 O 0.34677 0.79073 0.25030
 O647 O 0.29913 0.66236 0.24815
 O648 O 0.25016 0.65370 0.20881
 Zr649 Zr 0.25182 0.68899 0.24987
 O650 O 0.21868 0.71842 0.21907
 Zr651 Zr 0.31129 0.74983 0.25177
 O652 O 0.28210 0.78071 0.21851
 Zr653 Zr 0.25019 0.74811 0.31100
 O654 O 0.21953 0.78147 0.28170
 Zr655 Zr 0.24856 0.75084 0.18852
 O656 O 0.28211 0.71960 0.21761
 Zr657 Zr 0.18884 0.75186 0.24917
 O658 O 0.21779 0.71810 0.28029
 Zr659 Zr 0.24970 0.81132 0.24831
 O660 O 0.28071 0.78214 0.28198
 O661 O 0.28283 0.71718 0.28262
 O662 O 0.21695 0.78350 0.21657
 C663 C 0.24826 0.66960 0.32672
 C664 C 0.33035 0.67302 0.24808
 C665 C 0.32707 0.75132 0.33036
 C666 C 0.24931 0.82774 0.16980
 C667 C 0.17001 0.75151 0.17225
 C668 C 0.17282 0.83032 0.24883
 H669 H 0.20425 0.70292 0.20521
 H670 H 0.20573 0.79586 0.29729
 H671 H 0.29743 0.70248 0.29724
 H672 H 0.29774 0.79451 0.20416
 H673 H 0.30516 0.76266 0.15621
 H674 H 0.34222 0.73764 0.19484
 H675 H 0.15508 0.76925 0.30386
 H676 H 0.19318 0.73109 0.33998
 H677 H 0.23104 0.69631 0.15467
 H678 H 0.26884 0.66005 0.19287
 H679 H 0.23798 0.84356 0.30493
 H680 H 0.26269 0.80485 0.34205
 H681 H 0.19482 0.65825 0.26220
 H682 H 0.15634 0.69546 0.23721
 H683 H 0.34052 0.80655 0.26909
 H684 H 0.30449 0.84496 0.23101
 O685 O 0.74474 0.33205 0.29875
 O686 O 0.78238 0.34205 0.25057
 O687 O 0.65511 0.29109 0.24818
 O688 O 0.64293 0.24705 0.21396
 O689 O 0.69613 0.24252 0.33867
 O690 O 0.74447 0.20433 0.34752
 O691 O 0.74423 0.19647 0.16122
 O692 O 0.70352 0.24304 0.15319
 O693 O 0.83209 0.24359 0.20142
 O694 O 0.84244 0.28249 0.25076
 O695 O 0.79140 0.15585 0.24878
 O696 O 0.74217 0.14553 0.28804
 O697 O 0.74521 0.15563 0.20279
 O698 O 0.70677 0.14451 0.25092
 O699 O 0.83271 0.19695 0.24818
 O700 O 0.84360 0.24563 0.28656
 O701 O 0.79035 0.24254 0.16071
 O702 O 0.74906 0.28042 0.14978
 O703 O 0.74473 0.29016 0.33933
 O704 O 0.78170 0.24306 0.34886
 O705 O 0.65523 0.24340 0.29702
 O706 O 0.64712 0.20407 0.24932
 O707 O 0.69601 0.33260 0.25062
 O708 O 0.74520 0.34398 0.21380
 Zr709 Zr 0.74263 0.30529 0.25168
 O710 O 0.77417 0.27606 0.21901
 Zr711 Zr 0.68264 0.24503 0.25083
 O712 O 0.71185 0.21304 0.21881
 Zr713 Zr 0.74275 0.24450 0.31124
 O714 O 0.77508 0.21317 0.28160
 Zr715 Zr 0.74458 0.24296 0.18863
 O716 O 0.71248 0.27570 0.21781
 Zr717 Zr 0.80510 0.24325 0.24841
 O718 O 0.77592 0.27502 0.28146
 Zr719 Zr 0.74492 0.18298 0.24892
 O720 O 0.71236 0.21179 0.28121
 O721 O 0.71087 0.27654 0.28315
 O722 O 0.77692 0.21096 0.21657
 C723 C 0.74562 0.32157 0.32998
 C724 C 0.66478 0.32246 0.24861
 C725 C 0.66483 0.24219 0.32839
 C726 C 0.74475 0.16522 0.17144
 C727 C 0.82177 0.24320 0.17014
 C728 C 0.82274 0.16566 0.24852
 H729 H 0.78780 0.29169 0.20447
 H730 H 0.78934 0.19910 0.29707
 H731 H 0.69622 0.29109 0.29785
 H732 H 0.69641 0.19901 0.20446
 H733 H 0.68871 0.26278 0.15907
 H734 H 0.65088 0.23434 0.19357
 H735 H 0.83841 0.22791 0.30389
 H736 H 0.80042 0.25791 0.34037
 H737 H 0.73751 0.30112 0.15851
 H738 H 0.72593 0.34017 0.19776
 H739 H 0.76119 0.14976 0.30425
 H740 H 0.72748 0.18707 0.34004
 H741 H 0.80017 0.33402 0.26678
 H742 H 0.83739 0.29908 0.23228
 H743 H 0.65435 0.18739 0.26699
 H744 H 0.68933 0.14995 0.23334
 C745 C 0.25477 0.08969 0.05937
 C746 C 0.25548 0.10668 0.08514
 C747 C 0.25599 0.12764 0.11456
 C748 C 0.25600 0.14693 0.13863
 C749 C 0.75758 0.58936 0.55896
 C750 C 0.75857 0.60644 0.58459
 C751 C 0.75930 0.62738 0.61392
 C752 C 0.75942 0.64665 0.63795
 C753 C 0.74702 0.93643 0.08886
 C754 C 0.74728 0.91124 0.10668
 C755 C 0.74773 0.88273 0.12883
 C756 C 0.74833 0.85935 0.14895
 C757 C 0.24645 0.43771 0.59133
 C758 C 0.24657 0.41273 0.60946
 C759 C 0.24687 0.38442 0.63190
 C760 C 0.24734 0.36116 0.65217
 C761 C 0.74866 0.05995 0.90539
 C762 C 0.74843 0.08632 0.88935
 C763 C 0.74838 0.11676 0.86988
 C764 C 0.74866 0.14168 0.85168
 C765 C 0.24706 0.56070 0.40535
 C766 C 0.24690 0.58695 0.38908
 C767 C 0.24694 0.61729 0.36942
 C768 C 0.24730 0.64217 0.35114
 C769 C 0.25003 0.90718 0.93736
 C770 C 0.24963 0.89000 0.91163
 C771 C 0.24907 0.86886 0.88221
 C772 C 0.24840 0.84953 0.85808
 C773 C 0.74923 0.40380 0.43623
 C774 C 0.74856 0.38664 0.41056
 C775 C 0.74773 0.36566 0.38113
 C776 C 0.74689 0.34645 0.35697
 C777 C 0.08859 0.25181 0.06251
 C778 C 0.10652 0.25177 0.08767
 C779 C 0.12888 0.25160 0.11609
 C780 C 0.14914 0.25129 0.13939
 C781 C 0.59144 0.75122 0.56238
 C782 C 0.60966 0.75125 0.58730
 C783 C 0.63222 0.75117 0.61552
 C784 C 0.65259 0.75090 0.63872
 C785 C 0.05976 0.74562 0.91080
 C786 C 0.08564 0.74495 0.89399
 C787 C 0.11520 0.74451 0.87325
 C788 C 0.13938 0.74455 0.85409
 C789 C 0.55898 0.24357 0.41080
 C790 C 0.58464 0.24256 0.39371
 C791 C 0.61401 0.24179 0.37275
 C792 C 0.63806 0.24162 0.35345
 C793 C 0.93721 0.75058 0.09301
 C794 C 0.91139 0.75090 0.11006
 C795 C 0.88186 0.75136 0.13104
 C796 C 0.85765 0.75191 0.15028
 C797 C 0.43582 0.25120 0.59649
 C798 C 0.41012 0.25181 0.61368
 C799 C 0.38064 0.25257 0.63470
 C800 C 0.35643 0.25334 0.65392
 C801 C 0.90594 0.25126 0.94045
 C802 C 0.88991 0.25172 0.91401
 C803 C 0.87052 0.25201 0.88345
 C804 C 0.85238 0.25190 0.85843
 C805 C 0.40529 0.75149 0.43961
 C806 C 0.38912 0.75189 0.41328
 C807 C 0.36964 0.75214 0.38280
 C808 C 0.35147 0.75202 0.35782
 C809 C 0.09413 0.06294 0.24972
 C810 C 0.11117 0.08871 0.24924
 C811 C 0.13212 0.11819 0.24858
 C812 C 0.15133 0.14236 0.24783
 C813 C 0.59639 0.56350 0.74952
 C814 C 0.61386 0.58899 0.74887
 C815 C 0.63526 0.61818 0.74805
 C816 C 0.65472 0.64217 0.74719
 C817 C 0.94132 0.09474 0.74851
 C818 C 0.91488 0.11081 0.74814
 C819 C 0.88435 0.13030 0.74793
 C820 C 0.85934 0.14848 0.74808
 C821 C 0.43943 0.59481 0.24696
 C822 C 0.41311 0.61095 0.24676
 C823 C 0.38266 0.63041 0.24677
 C824 C 0.35772 0.64859 0.24712
 C825 C 0.06373 0.91235 0.74765
 C826 C 0.08881 0.89430 0.74778
 C827 C 0.11710 0.87176 0.74808
 C828 C 0.14030 0.85137 0.74855
 C829 C 0.56211 0.40895 0.24678
 C830 C 0.58700 0.39075 0.24688
 C831 C 0.61519 0.36821 0.24717
 C832 C 0.63838 0.34789 0.24765
 C833 C 0.91094 0.93913 0.25560
 C834 C 0.89410 0.91333 0.25626
 C835 C 0.87334 0.88386 0.25663
 C836 C 0.85412 0.85977 0.25645
 C837 C 0.41032 0.44083 0.75758
 C838 C 0.39323 0.41518 0.75857
 C839 C 0.37226 0.38582 0.75930
 C840 C 0.35296 0.36178 0.75940
 C841 C 0.08837 0.25309 0.94124
 C842 C 0.10536 0.25335 0.91549
 C843 C 0.12630 0.25360 0.88609
 C844 C 0.14564 0.25382 0.86208
 C845 C 0.58961 0.75160 0.43789
 C846 C 0.60651 0.75163 0.41207
 C847 C 0.62748 0.75167 0.38265
 C848 C 0.64687 0.75178 0.35865
 C849 C 0.93848 0.74892 0.90953
 C850 C 0.91345 0.74963 0.89143
 C851 C 0.88515 0.75039 0.86895
 C852 C 0.86191 0.75086 0.84862
 C853 C 0.43452 0.24845 0.41105
 C854 C 0.40947 0.24936 0.39297
 C855 C 0.38121 0.25032 0.37039
 C856 C 0.35804 0.25095 0.34996
 C857 C 0.06081 0.75025 0.09395
 C858 C 0.08722 0.75064 0.11000
 C859 C 0.11774 0.75105 0.12944
 C860 C 0.14269 0.75133 0.14767
 C861 C 0.56113 0.24966 0.59493
 C862 C 0.58768 0.24992 0.61080
 C863 C 0.61832 0.25022 0.63014
 C864 C 0.64333 0.25043 0.64832
 C865 C 0.90427 0.24728 0.06391
 C866 C 0.88715 0.24606 0.08963
 C867 C 0.86612 0.24476 0.11907
 C868 C 0.84682 0.24388 0.14320
 C869 C 0.40603 0.74851 0.56480
 C870 C 0.38907 0.74765 0.59065
 C871 C 0.36811 0.74673 0.62019
 C872 C 0.34881 0.74612 0.64435
 C873 C 0.25107 0.09058 0.93810
 C874 C 0.25021 0.10866 0.91306
 C875 C 0.24928 0.13118 0.88479
 C876 C 0.24865 0.15156 0.86161
 C877 C 0.75276 0.58885 0.43459
 C878 C 0.75184 0.60676 0.40946
 C879 C 0.75083 0.62914 0.38112
 C880 C 0.75014 0.64947 0.35791
 C881 C 0.74524 0.05921 0.08949
 C882 C 0.74498 0.08497 0.10639
 C883 C 0.74481 0.11442 0.12717
 C884 C 0.74475 0.13850 0.14639
 C885 C 0.24587 0.56216 0.58974
 C886 C 0.24589 0.58794 0.60671
 C887 C 0.24600 0.61733 0.62771
 C888 C 0.24611 0.64134 0.64708
 C889 C 0.75247 0.93503 0.90464
 C890 C 0.75378 0.90936 0.88754
 C891 C 0.75517 0.87998 0.86653
 C892 C 0.75616 0.85589 0.84726
 C893 C 0.24972 0.43563 0.40592
 C894 C 0.25067 0.40986 0.38886
 C895 C 0.25172 0.38042 0.36778
 C896 C 0.25251 0.35631 0.34844
 C897 C 0.25069 0.90655 0.06094
 C898 C 0.25034 0.89039 0.08729
 C899 C 0.24992 0.87075 0.11769
 C900 C 0.24960 0.85239 0.14253
 C901 C 0.75071 0.40548 0.56136
 C902 C 0.75039 0.38957 0.58784
 C903 C 0.75003 0.37012 0.61834
 C904 C 0.74980 0.35184 0.64323
 C905 C 0.06328 0.09568 0.75221
 C906 C 0.08901 0.11283 0.75346
 C907 C 0.11848 0.13388 0.75482
 C908 C 0.14264 0.15317 0.75581
 C909 C 0.56460 0.59403 0.24970
 C910 C 0.59046 0.61094 0.25065
 C911 C 0.62001 0.63184 0.25173
 C912 C 0.64417 0.65109 0.25253
 C913 C 0.09496 0.93956 0.25041
 C914 C 0.11092 0.91315 0.24998
 C915 C 0.13022 0.88262 0.24948
 C916 C 0.14834 0.85766 0.24912
 C917 C 0.59455 0.43845 0.75087
 C918 C 0.61053 0.41200 0.75050
 C919 C 0.63007 0.38153 0.75007
 C920 C 0.64841 0.35667 0.74976
 C921 C 0.90964 0.06336 0.25153
 C922 C 0.89143 0.08823 0.25060
 C923 C 0.86880 0.11633 0.24960
 C924 C 0.84836 0.13941 0.24895
 C925 C 0.41075 0.56517 0.75275
 C926 C 0.39269 0.59022 0.75183
 C927 C 0.37013 0.61849 0.75084
 C928 C 0.34974 0.64169 0.75016
 C929 C 0.94081 0.91147 0.74628
 C930 C 0.91524 0.89419 0.74605
 C931 C 0.88609 0.87287 0.74585
 C932 C 0.86225 0.85328 0.74570
 C933 C 0.43766 0.41082 0.24644
 C934 C 0.41185 0.39392 0.24653
 C935 C 0.38248 0.37296 0.24664
 C936 C 0.35852 0.35355 0.24669
   
