data_POSCAR
  _audit_creation_date              2014-09-24
  _audit_creation_method            'ToBaCCo'
  _symmetry_space_group_name_H-M    'P1'
  _symmetry_Int_Tables_number       1
  _symmetry_cell_setting            triclinic
  loop_
  _symmetry_equiv_pos_as_xyz
 x,y,z
_cell_length_a 57.1467
_cell_length_b 57.3177
_cell_length_c 57.4527
_cell_angle_alpha 89.992900
_cell_angle_beta 89.992500
_cell_angle_gamma 89.999300
loop_
  _atom_site_label
  _atom_site_type_symbol
  _atom_site_fract_x
  _atom_site_fract_y
  _atom_site_fract_z
N1 N 0.28479 0.23874 0.22037
 N2 N 0.27544 0.25779 0.21159
 C3 C 0.28750 0.26404 0.19241
 C4 C 0.30521 0.24805 0.18917
 C5 C 0.30310 0.23224 0.20711
 H6 H 0.28364 0.27894 0.18153
 H7 H 0.31395 0.21709 0.21015
 Cu8 Cu 0.24816 0.27235 0.22572
 Cu9 Cu 0.27226 0.22351 0.24798
 Cu10 Cu 0.22284 0.24791 0.27283
 N11 N 0.21987 0.28525 0.23952
 N12 N 0.21008 0.27566 0.25792
 C13 C 0.19072 0.28780 0.26359
 C14 C 0.18836 0.30583 0.24790
 C15 C 0.20703 0.30381 0.23286
 H16 H 0.17913 0.28375 0.27792
 H17 H 0.21083 0.31493 0.21813
 N18 N 0.23824 0.21988 0.28539
 N19 N 0.25710 0.21056 0.27591
 C20 C 0.26318 0.19141 0.28811
 C21 C 0.24738 0.18869 0.30600
 C22 C 0.23180 0.20690 0.30389
 H23 H 0.27786 0.18016 0.28420
 H24 H 0.21683 0.21029 0.31489
 H25 H 0.23824 0.23484 0.24298
 H26 H 0.25713 0.25297 0.26245
 N27 N 0.71389 -0.23912 0.21928
 N28 N 0.72402 -0.25759 0.21012
 C29 C 0.71224 -0.26394 0.19080
 C30 C 0.69389 -0.24860 0.18791
 C31 C 0.69533 -0.23308 0.20615
 H32 H 0.71672 -0.27844 0.17961
 H33 H 0.68388 -0.21844 0.20952
 Cu34 Cu 0.75192 -0.27101 0.22420
 Cu35 Cu 0.72575 -0.22392 0.24724
 Cu36 Cu 0.77532 -0.24784 0.27262
 N37 N 0.77961 -0.28449 0.23860
 N38 N 0.78869 -0.27530 0.25756
 C39 C 0.80783 -0.28758 0.26370
 C40 C 0.81075 -0.30526 0.24771
 C41 C 0.79267 -0.30292 0.23201
 H42 H 0.81885 -0.28383 0.27855
 H43 H 0.78943 -0.31372 0.21691
 N44 N 0.75923 -0.22013 0.28521
 N45 N 0.74033 -0.21104 0.27554
 C46 C 0.73367 -0.19219 0.28788
 C47 C 0.74911 -0.18939 0.30606
 C48 C 0.76508 -0.20727 0.30398
 H49 H 0.71883 -0.18118 0.28390
 H50 H 0.77991 -0.21052 0.31520
 H51 H 0.76034 -0.23382 0.24301
 H52 H 0.74152 -0.25317 0.26125
 N53 N 0.71459 0.23955 0.77995
 N54 N 0.72460 0.25816 0.78894
 C55 C 0.71280 0.26457 0.80823
 C56 C 0.69458 0.24912 0.81133
 C57 C 0.69612 0.23348 0.79319
 H58 H 0.71719 0.27920 0.81929
 H59 H 0.68480 0.21871 0.79001
 Cu60 Cu 0.75237 0.27161 0.77469
 Cu61 Cu 0.72649 0.22426 0.75206
 Cu62 Cu 0.77612 0.24821 0.72662
 N63 N 0.78014 0.28505 0.76044
 N64 N 0.78940 0.27576 0.74163
 C65 C 0.80859 0.28799 0.73558
 C66 C 0.81136 0.30577 0.75150
 C67 C 0.79313 0.30354 0.76704
 H68 H 0.81978 0.28413 0.72089
 H69 H 0.78972 0.31443 0.78204
 N70 N 0.76007 0.22039 0.71413
 N71 N 0.74117 0.21132 0.72383
 C72 C 0.73461 0.19235 0.71160
 C73 C 0.75010 0.18948 0.69347
 C74 C 0.76601 0.20742 0.69547
 H75 H 0.71982 0.18131 0.71565
 H76 H 0.78089 0.21062 0.68428
 H77 H 0.76099 0.23432 0.75620
 H78 H 0.74217 0.25342 0.73773
 N79 N 0.28464 -0.23928 0.78018
 N80 N 0.27484 -0.25791 0.78936
 C81 C 0.28690 -0.26420 0.80853
 C82 C 0.30509 -0.24867 0.81134
 C83 C 0.30326 -0.23309 0.79317
 H84 H 0.28271 -0.27879 0.81971
 H85 H 0.31449 -0.21829 0.78978
 Cu86 Cu 0.24698 -0.27162 0.77551
 Cu87 Cu 0.27224 -0.22403 0.75245
 Cu88 Cu 0.22270 -0.24852 0.72751
 N89 N 0.21929 -0.28538 0.76140
 N90 N 0.20990 -0.27625 0.74256
 C91 C 0.19084 -0.28870 0.73658
 C92 C 0.18827 -0.30645 0.75256
 C93 C 0.20649 -0.30397 0.76808
 H94 H 0.17960 -0.28501 0.72189
 H95 H 0.20998 -0.31475 0.78314
 N96 N 0.23823 -0.22050 0.71492
 N97 N 0.25710 -0.21118 0.72442
 C98 C 0.26322 -0.19208 0.71217
 C99 C 0.24745 -0.18938 0.69425
 C100 C 0.23186 -0.20757 0.69637
 H101 H 0.27789 -0.18082 0.71607
 H102 H 0.21690 -0.21095 0.68536
 H103 H 0.23788 -0.23448 0.75699
 H104 H 0.25676 -0.25346 0.73843
 N105 N 0.71474 -0.24101 0.77919
 N106 N 0.72482 -0.25973 0.78789
 C107 C 0.71290 -0.26664 0.80693
 C108 C 0.69452 -0.25143 0.81016
 C109 C 0.69609 -0.23539 0.79237
 H110 H 0.71729 -0.28146 0.81773
 H111 H 0.68464 -0.22067 0.78938
 Cu112 Cu 0.75277 -0.27288 0.77374
 Cu113 Cu 0.72679 -0.22502 0.75175
 Cu114 Cu 0.77616 -0.24862 0.72582
 N115 N 0.78024 -0.28616 0.75879
 N116 N 0.78928 -0.27657 0.74001
 C117 C 0.80825 -0.28882 0.73340
 C118 C 0.81112 -0.30693 0.74889
 C119 C 0.79318 -0.30488 0.76479
 H120 H 0.81923 -0.28475 0.71860
 H121 H 0.78997 -0.31603 0.77964
 N122 N 0.76042 -0.22046 0.71404
 N123 N 0.74160 -0.21143 0.72390
 C124 C 0.73523 -0.19215 0.71206
 C125 C 0.75082 -0.18906 0.69404
 C126 C 0.76652 -0.20718 0.69567
 H127 H 0.72049 -0.18110 0.71627
 H128 H 0.78135 -0.21031 0.68441
 H129 H 0.74226 -0.25411 0.73720
 H130 H 0.76123 -0.23526 0.75586
 N131 N 0.28669 0.24115 0.77940
 N132 N 0.27671 0.26012 0.78763
 C133 C 0.28831 0.26707 0.80685
 C134 C 0.30636 0.25160 0.81068
 C135 C 0.30492 0.23537 0.79306
 H136 H 0.28393 0.28211 0.81734
 H137 H 0.31619 0.22042 0.79048
 Cu138 Cu 0.24927 0.27358 0.77272
 Cu139 Cu 0.27507 0.22516 0.75187
 Cu140 Cu 0.22561 0.24820 0.72549
 N141 N 0.22122 0.28595 0.75803
 N142 N 0.21203 0.27592 0.73957
 C143 C 0.19265 0.28765 0.73319
 C144 C 0.18967 0.30592 0.74846
 C145 C 0.20797 0.30446 0.76401
 H146 H 0.18150 0.28314 0.71866
 H147 H 0.21124 0.31592 0.77860
 N148 N 0.24184 0.22022 0.71383
 N149 N 0.26068 0.21144 0.72388
 C150 C 0.26741 0.19223 0.71210
 C151 C 0.25207 0.18895 0.69393
 C152 C 0.23609 0.20685 0.69542
 H153 H 0.28223 0.18135 0.71645
 H154 H 0.22134 0.20976 0.68400
 H155 H 0.25959 0.25389 0.73646
 H156 H 0.24067 0.23557 0.75564
 N157 N 0.28698 -0.24085 0.22052
 N158 N 0.27658 -0.25941 0.21185
 C159 C 0.28825 -0.26641 0.19269
 C160 C 0.30680 -0.25142 0.18935
 C161 C 0.30559 -0.23542 0.20720
 H162 H 0.28359 -0.28115 0.18190
 H163 H 0.31726 -0.22087 0.21016
 Cu164 Cu 0.24860 -0.27222 0.22624
 Cu165 Cu 0.27544 -0.22488 0.24816
 Cu166 Cu 0.22595 -0.24786 0.27446
 N167 N 0.22106 -0.28517 0.24135
 N168 N 0.21229 -0.27553 0.26022
 C169 C 0.19321 -0.28758 0.26691
 C170 C 0.18998 -0.30561 0.25140
 C171 C 0.20785 -0.30371 0.23541
 H172 H 0.18240 -0.28345 0.28181
 H173 H 0.21082 -0.31487 0.22053
 N174 N 0.24227 -0.22001 0.28623
 N175 N 0.26113 -0.21124 0.27622
 C176 C 0.26796 -0.19215 0.28811
 C177 C 0.25265 -0.18891 0.30632
 C178 C 0.23660 -0.20674 0.30475
 H179 H 0.28283 -0.18131 0.28380
 H180 H 0.22185 -0.20969 0.31616
 H181 H 0.25964 -0.25380 0.26281
 H182 H 0.24079 -0.23460 0.24441
 N183 N 0.71403 0.24049 0.22099
 N184 N 0.72409 0.25923 0.21231
 C185 C 0.71216 0.26617 0.19330
 C186 C 0.69378 0.25096 0.19006
 C187 C 0.69537 0.23489 0.20782
 H188 H 0.71655 0.28100 0.18252
 H189 H 0.68394 0.22015 0.21080
 Cu190 Cu 0.75205 0.27236 0.22645
 Cu191 Cu 0.72614 0.22447 0.24840
 Cu192 Cu 0.77556 0.24805 0.27427
 N193 N 0.77955 0.28562 0.24136
 N194 N 0.78863 0.27601 0.26010
 C195 C 0.80761 0.28827 0.26667
 C196 C 0.81046 0.30641 0.25121
 C197 C 0.79248 0.30435 0.23537
 H198 H 0.81862 0.28420 0.28143
 H199 H 0.78924 0.31553 0.22055
 N200 N 0.75985 0.21986 0.28604
 N201 N 0.74101 0.21084 0.27620
 C202 C 0.73469 0.19153 0.28802
 C203 C 0.75032 0.18841 0.30600
 C204 C 0.76600 0.20655 0.30436
 H205 H 0.71996 0.18046 0.28381
 H206 H 0.78086 0.20966 0.31560
 H207 H 0.74163 0.25355 0.26301
 H208 H 0.76057 0.23473 0.24429
 C209 C 0.24886 -0.01200 0.50029
 C210 C 0.24887 0.01170 0.50032
 C211 C 0.24890 0.02552 0.47847
 C212 C 0.24888 0.02543 0.52221
 C213 C 0.24889 -0.02583 0.52214
 C214 C 0.24894 -0.02572 0.47840
 C215 C 0.26662 0.04209 0.47485
 C216 C 0.26606 0.05666 0.45540
 C217 C 0.24770 0.05495 0.43938
 C218 C 0.23008 0.03826 0.44268
 C219 C 0.23065 0.02360 0.46218
 C220 C 0.26721 0.02349 0.53841
 C221 C 0.26783 0.03810 0.55793
 C222 C 0.25021 0.05475 0.56133
 C223 C 0.23177 0.05648 0.54541
 C224 C 0.23115 0.04196 0.52593
 C225 C 0.23063 -0.02395 0.53843
 C226 C 0.23007 -0.03863 0.55791
 C227 C 0.24770 -0.05532 0.56118
 C228 C 0.26606 -0.05699 0.54517
 C229 C 0.26662 -0.04239 0.52574
 C230 C 0.23125 -0.04230 0.47464
 C231 C 0.23195 -0.05681 0.45516
 C232 C 0.25041 -0.05503 0.43926
 C233 C 0.26798 -0.03832 0.44269
 C234 C 0.26728 -0.02372 0.46221
 H235 H 0.28075 0.04393 0.48729
 H236 H 0.27972 0.06957 0.45308
 H237 H 0.21571 0.03690 0.43047
 H238 H 0.21660 0.01122 0.46489
 H239 H 0.28127 0.01115 0.53561
 H240 H 0.28227 0.03675 0.57008
 H241 H 0.21698 0.04381 0.51354
 H242 H 0.21657 -0.01157 0.53574
 H243 H 0.21570 -0.03731 0.57013
 H244 H 0.27973 -0.06989 0.54747
 H245 H 0.28075 -0.04420 0.51330
 H246 H 0.21706 -0.04418 0.48700
 H247 H 0.21833 -0.06973 0.45274
 H248 H 0.28242 -0.03691 0.43056
 H249 H 0.28130 -0.01133 0.46503
 H250 H 0.21812 0.06937 0.54780
 C251 C 0.75105 0.01159 0.50004
 C252 C 0.75102 -0.01211 0.50007
 C253 C 0.75106 -0.02594 0.47823
 C254 C 0.75087 -0.02584 0.52196
 C255 C 0.75122 0.02542 0.52187
 C256 C 0.75086 0.02530 0.47815
 C257 C 0.73278 -0.02409 0.46196
 C258 C 0.73222 -0.03879 0.44250
 C259 C 0.74987 -0.05545 0.43922
 C260 C 0.76825 -0.05708 0.45521
 C261 C 0.76881 -0.04247 0.47462
 C262 C 0.73298 -0.04220 0.52562
 C263 C 0.73337 -0.05668 0.54512
 C264 C 0.75172 -0.05508 0.56114
 C265 C 0.76952 -0.03859 0.55781
 C266 C 0.76913 -0.02402 0.53825
 C267 C 0.76904 0.04190 0.52538
 C268 C 0.76860 0.05655 0.54476
 C269 C 0.75026 0.05502 0.56082
 C270 C 0.73254 0.03841 0.55764
 C271 C 0.73299 0.02367 0.53820
 C272 C 0.76906 0.02344 0.46180
 C273 C 0.76941 0.03799 0.44222
 C274 C 0.75163 0.05450 0.43893
 C275 C 0.73333 0.05615 0.45501
 C276 C 0.73298 0.04170 0.47454
 H277 H 0.71871 -0.01173 0.46466
 H278 H 0.71783 -0.03749 0.43030
 H279 H 0.78194 -0.06996 0.45290
 H280 H 0.78296 -0.04424 0.48705
 H281 H 0.71885 -0.04394 0.51317
 H282 H 0.71957 -0.06944 0.54748
 H283 H 0.78330 -0.01178 0.53550
 H284 H 0.78314 0.04361 0.51289
 H285 H 0.78233 0.06940 0.54699
 H286 H 0.71818 0.03719 0.56989
 H287 H 0.71886 0.01136 0.53557
 H288 H 0.78322 0.01118 0.46451
 H289 H 0.78373 0.03669 0.42994
 H290 H 0.71954 0.06893 0.45269
 H291 H 0.71889 0.04347 0.48703
 H292 H 0.78389 -0.03733 0.57004
 C293 C 0.50000 0.24952 0.01219
 C294 C 0.50004 0.24959 -0.01146
 C295 C 0.52204 0.24977 -0.02518
 C296 C 0.47809 0.24963 -0.02522
 C297 C 0.47799 0.24959 0.02591
 C298 C 0.52195 0.24946 0.02596
 C299 C 0.52564 0.26756 -0.04159
 C300 C 0.54522 0.26717 -0.05608
 C301 C 0.56138 0.24891 -0.05447
 C302 C 0.55809 0.23121 -0.03796
 C303 C 0.53846 0.23160 -0.02337
 C304 C 0.46182 0.26793 -0.02336
 C305 C 0.44228 0.26860 -0.03804
 C306 C 0.43893 0.25104 -0.05469
 C307 C 0.45493 0.23265 -0.05634
 C308 C 0.47442 0.23198 -0.04174
 C309 C 0.46163 0.23138 0.02401
 C310 C 0.44201 0.23084 0.03860
 C311 C 0.43866 0.24845 0.05520
 C312 C 0.45474 0.26677 0.05689
 C313 C 0.47432 0.26730 0.04238
 C314 C 0.52560 0.23170 0.04238
 C315 C 0.54508 0.23228 0.05700
 C316 C 0.56108 0.25069 0.05548
 C317 C 0.55776 0.26833 0.03891
 C318 C 0.53824 0.26775 0.02420
 H319 H 0.51308 0.28160 -0.04336
 H320 H 0.54752 0.28088 -0.06887
 H321 H 0.57041 0.21690 -0.03670
 H322 H 0.53574 0.21748 -0.01114
 H323 H 0.46459 0.28193 -0.01101
 H324 H 0.43009 0.28302 -0.03676
 H325 H 0.48686 0.21783 -0.04354
 H326 H 0.46439 0.21734 0.01170
 H327 H 0.42974 0.21650 0.03728
 H328 H 0.45239 0.28042 0.06972
 H329 H 0.48682 0.28139 0.04420
 H330 H 0.51315 0.21755 0.04408
 H331 H 0.54741 0.21861 0.06982
 H332 H 0.56997 0.28274 0.03770
 H333 H 0.53549 0.28182 0.01192
 H334 H 0.45257 0.21905 -0.06923
 C335 C 0.50046 0.75036 -0.01221
 C336 C 0.50049 0.75035 0.01144
 C337 C 0.47852 0.75038 0.02520
 C338 C 0.52248 0.75022 0.02517
 C339 C 0.52242 0.75041 -0.02597
 C340 C 0.47845 0.75028 -0.02593
 C341 C 0.47485 0.76810 0.04166
 C342 C 0.45536 0.76748 0.05625
 C343 C 0.43936 0.74908 0.05467
 C344 C 0.44269 0.73148 0.03807
 C345 C 0.46224 0.73209 0.02338
 C346 C 0.53887 0.76842 0.02336
 C347 C 0.55846 0.76889 0.03799
 C348 C 0.56176 0.75122 0.05454
 C349 C 0.54565 0.73292 0.05613
 C350 C 0.52610 0.73245 0.04159
 C351 C 0.53873 0.73215 -0.02416
 C352 C 0.55829 0.73158 -0.03884
 C353 C 0.56161 0.74920 -0.05543
 C354 C 0.54559 0.76758 -0.05700
 C355 C 0.52608 0.76815 -0.04241
 C356 C 0.47480 0.73255 -0.04240
 C357 C 0.45521 0.73304 -0.05688
 C358 C 0.43909 0.75133 -0.05519
 C359 C 0.44243 0.76896 -0.03862
 C360 C 0.46207 0.76847 -0.02405
 H361 H 0.48730 0.78224 0.04340
 H362 H 0.45300 0.78112 0.06910
 H363 H 0.43049 0.71707 0.03682
 H364 H 0.46500 0.71805 0.01108
 H365 H 0.53615 0.78251 0.01109
 H366 H 0.57075 0.78323 0.03673
 H367 H 0.51358 0.71837 0.04335
 H368 H 0.53599 0.71809 -0.01187
 H369 H 0.57052 0.71719 -0.03759
 H370 H 0.54793 0.78125 -0.06983
 H371 H 0.51361 0.78228 -0.04415
 H372 H 0.48732 0.71848 -0.04421
 H373 H 0.45287 0.71938 -0.06970
 H374 H 0.43014 0.78329 -0.03729
 H375 H 0.46481 0.78252 -0.01175
 H376 H 0.54796 0.71922 0.06893
 C377 C 0.01135 0.50108 0.24787
 C378 C -0.01242 0.50111 0.24795
 C379 C -0.02621 0.47920 0.24799
 C380 C -0.02626 0.52304 0.24807
 C381 C 0.02516 0.52297 0.24786
 C382 C 0.02517 0.47915 0.24792
 C383 C -0.04276 0.47547 0.23034
 C384 C -0.05731 0.45595 0.23095
 C385 C -0.05559 0.44000 0.24930
 C386 C -0.03890 0.44340 0.26685
 C387 C -0.02427 0.46297 0.26623
 C388 C -0.02443 0.53939 0.22993
 C389 C -0.03917 0.55891 0.22944
 C390 C -0.05587 0.56215 0.24703
 C391 C -0.05747 0.54608 0.26528
 C392 C -0.04282 0.52661 0.26576
 C393 C 0.02336 0.53916 0.26615
 C394 C 0.03814 0.55862 0.26680
 C395 C 0.05484 0.56196 0.24925
 C396 C 0.05641 0.54607 0.23084
 C397 C 0.04171 0.52666 0.23019
 C398 C 0.04176 0.47551 0.26557
 C399 C 0.05634 0.45599 0.26505
 C400 C 0.05462 0.43991 0.24681
 C401 C 0.03792 0.44324 0.22925
 C402 C 0.02325 0.46281 0.22977
 H403 H -0.04459 0.48788 0.21623
 H404 H -0.07022 0.45353 0.21735
 H405 H -0.03755 0.43122 0.28121
 H406 H -0.01189 0.46579 0.28022
 H407 H -0.01206 0.53671 0.21590
 H408 H -0.03789 0.57118 0.21515
 H409 H -0.04460 0.51411 0.27980
 H410 H 0.01099 0.53638 0.28015
 H411 H 0.03691 0.57075 0.28121
 H412 H 0.06933 0.54842 0.21724
 H413 H 0.04344 0.51427 0.21605
 H414 H 0.04359 0.48799 0.27961
 H415 H 0.06925 0.45366 0.27866
 H416 H 0.03656 0.43098 0.21497
 H417 H 0.01085 0.46553 0.21578
 H418 H -0.07037 0.54835 0.27891
 C419 C 0.01160 0.49977 0.75205
 C420 C -0.01217 0.49975 0.75204
 C421 C -0.02601 0.47782 0.75190
 C422 C -0.02596 0.52166 0.75204
 C423 C 0.02544 0.52170 0.75199
 C424 C 0.02541 0.47788 0.75206
 C425 C -0.04257 0.47427 0.73420
 C426 C -0.05721 0.45479 0.73464
 C427 C -0.05559 0.43867 0.75285
 C428 C -0.03891 0.44190 0.77045
 C429 C -0.02418 0.46143 0.77001
 C430 C -0.02407 0.53790 0.73381
 C431 C -0.03875 0.55744 0.73321
 C432 C -0.05544 0.56080 0.75077
 C433 C -0.05709 0.54486 0.76912
 C434 C -0.04249 0.52537 0.76973
 C435 C 0.02358 0.53801 0.77016
 C436 C 0.03833 0.55752 0.77071
 C437 C 0.05505 0.56081 0.75315
 C438 C 0.05669 0.54476 0.73488
 C439 C 0.04204 0.52530 0.73433
 C440 C 0.04196 0.47419 0.76973
 C441 C 0.05663 0.45476 0.76909
 C442 C 0.05502 0.43884 0.75071
 C443 C 0.03834 0.44220 0.73315
 C444 C 0.02359 0.46168 0.73378
 H445 H -0.04434 0.48678 0.72018
 H446 H -0.07010 0.45253 0.72099
 H447 H -0.03762 0.42960 0.78471
 H448 H -0.01181 0.46408 0.78403
 H449 H -0.01169 0.53511 0.71981
 H450 H -0.03744 0.56962 0.71885
 H451 H -0.04429 0.51295 0.78383
 H452 H 0.01119 0.53530 0.78416
 H453 H 0.03703 0.56975 0.78503
 H454 H 0.06962 0.54706 0.72127
 H455 H 0.04384 0.51283 0.72028
 H456 H 0.04371 0.48659 0.78386
 H457 H 0.06955 0.45240 0.78270
 H458 H 0.03710 0.43006 0.71875
 H459 H 0.01123 0.46447 0.71977
 H460 H -0.06999 0.54725 0.78274
 C461 C 0.35932 0.24551 0.09933
 C462 C 0.35726 0.22721 0.11911
 C463 C 0.35403 0.24712 0.13672
 C464 C 0.35580 0.26542 0.11725
 C465 C 0.38583 0.24672 0.10361
 C466 C 0.38257 0.26661 0.12124
 C467 C 0.38406 0.22843 0.12309
 C468 C 0.38054 0.24833 0.14097
 C469 C 0.33650 0.24744 0.15533
 C470 C 0.32219 0.24773 0.17074
 C471 C 0.40398 0.24684 0.08561
 C472 C 0.41947 0.24734 0.07138
 H473 H 0.35080 0.24433 0.08201
 H474 H 0.34665 0.21100 0.11847
 H475 H 0.34401 0.28066 0.11508
 H476 H 0.39319 0.28282 0.12189
 H477 H 0.39585 0.21320 0.12527
 H478 H 0.38910 0.24951 0.15828
 C479 C 0.60898 0.74956 0.12916
 C480 C 0.62938 0.73187 0.13099
 C481 C 0.64614 0.75213 0.13630
 C482 C 0.62600 0.76982 0.13474
 C483 C 0.61441 0.75264 0.10314
 C484 C 0.63116 0.77291 0.10844
 C485 C 0.63454 0.73494 0.10469
 C486 C 0.65160 0.75521 0.11029
 C487 C 0.66363 0.75178 0.15495
 C488 C 0.67789 0.75154 0.17040
 C489 C 0.59632 0.75263 0.08508
 C490 C 0.58089 0.75224 0.07078
 H491 H 0.59126 0.74724 0.13672
 H492 H 0.62881 0.71501 0.14047
 H493 H 0.62265 0.78414 0.14731
 H494 H 0.63168 0.78978 0.09895
 H495 H 0.63786 0.72061 0.09212
 H496 H 0.66933 0.75753 0.10274
 C497 C 0.60959 0.25544 -0.12810
 C498 C 0.63254 0.26978 -0.12746
 C499 C 0.64595 0.24821 -0.13607
 C500 C 0.62325 0.23388 -0.13696
 C501 C 0.61418 0.24757 -0.10294
 C502 C 0.62756 0.22598 -0.11153
 C503 C 0.63687 0.26191 -0.10203
 C504 C 0.65056 0.24032 -0.11092
 C505 C 0.66346 0.24866 -0.15469
 C506 C 0.67772 0.24896 -0.17014
 C507 C 0.59603 0.24756 -0.08492
 C508 C 0.58056 0.24794 -0.07067
 H509 H 0.59253 0.26164 -0.13495
 H510 H 0.63474 0.28778 -0.13424
 H511 H 0.61780 0.22237 -0.15153
 H512 H 0.62531 0.20798 -0.10476
 H513 H 0.64229 0.27341 -0.08745
 H514 H 0.66762 0.23409 -0.10408
 C515 C 0.38164 0.73206 -0.11990
 C516 C 0.35500 0.73508 -0.11595
 C517 C 0.35422 0.75224 -0.13648
 C518 C 0.38059 0.74921 -0.14069
 C519 C 0.38615 0.75275 -0.10350
 C520 C 0.38537 0.76991 -0.12403
 C521 C 0.35978 0.75578 -0.09925
 C522 C 0.35871 0.77295 -0.12009
 C523 C 0.33658 0.75187 -0.15500
 C524 C 0.32218 0.75157 -0.17032
 C525 C 0.40435 0.75275 -0.08554
 C526 C 0.41987 0.75235 -0.07134
 H527 H 0.39126 0.71524 -0.11962
 H528 H 0.34233 0.72072 -0.11285
 H529 H 0.38898 0.74651 -0.15790
 H530 H 0.39805 0.78425 -0.12713
 H531 H 0.35143 0.75849 -0.08202
 H532 H 0.34911 0.78978 -0.12040
 C533 C 0.11204 0.37398 0.22378
 C534 C 0.13750 0.37795 0.23218
 C535 C 0.13616 0.35508 0.24607
 C536 C 0.11098 0.35081 0.23768
 C537 C 0.10310 0.38703 0.24538
 C538 C 0.10175 0.36416 0.25927
 C539 C 0.12828 0.39127 0.25376
 C540 C 0.12721 0.36815 0.26766
 C541 C 0.15471 0.33743 0.24663
 C542 C 0.17004 0.32299 0.24718
 C543 C 0.08510 0.40524 0.24536
 C544 C 0.07084 0.42073 0.24577
 H545 H 0.10558 0.37657 0.20574
 H546 H 0.15240 0.38346 0.22106
 H547 H 0.10409 0.33397 0.23106
 H548 H 0.08685 0.35868 0.27039
 H549 H 0.13518 0.40811 0.26038
 H550 H 0.13365 0.36560 0.28571
 C551 C 0.12545 0.61316 0.77058
 C552 C 0.14102 0.61910 0.74933
 C553 C 0.13707 0.64518 0.75409
 C554 C 0.12177 0.63952 0.77536
 C555 C 0.10386 0.61339 0.75464
 C556 C 0.09989 0.63946 0.75941
 C557 C 0.11918 0.61906 0.73339
 C558 C 0.11549 0.64541 0.73814
 C559 C 0.15568 0.66278 0.75363
 C560 C 0.17101 0.67723 0.75315
 C561 C 0.08575 0.59529 0.75464
 C562 C 0.07139 0.57989 0.75422
 H563 H 0.12934 0.59971 0.78393
 H564 H 0.15812 0.61091 0.74516
 H565 H 0.12306 0.64811 0.79262
 H566 H 0.08277 0.64762 0.76355
 H567 H 0.11790 0.61046 0.71612
 H568 H 0.11162 0.65885 0.72477
 C569 C -0.11561 0.62488 0.26792
 C570 C -0.11353 0.64963 0.25730
 C571 C -0.13785 0.64657 0.24631
 C572 C -0.14019 0.62209 0.25694
 C573 C -0.10471 0.61471 0.24567
 C574 C -0.12904 0.61165 0.23469
 C575 C -0.10234 0.63918 0.23503
 C576 C -0.12697 0.63641 0.22405
 C577 C -0.15646 0.66417 0.24680
 C578 C -0.17185 0.67855 0.24725
 C579 C -0.08660 0.59661 0.24563
 C580 C -0.07223 0.58122 0.24600
 H581 H -0.11074 0.61994 0.28597
 H582 H -0.10735 0.66544 0.26662
 H583 H -0.15595 0.61524 0.26594
 H584 H -0.13521 0.59584 0.22538
 H585 H -0.08657 0.64598 0.22602
 H586 H -0.13185 0.64131 0.20600
 C587 C -0.12684 0.38770 0.73958
 C588 C -0.12345 0.36210 0.73166
 C589 C -0.13728 0.35396 0.75311
 C590 C -0.14093 0.37930 0.76102
 C591 C -0.10423 0.38590 0.75394
 C592 C -0.11805 0.37778 0.77540
 C593 C -0.10056 0.36057 0.74603
 C594 C -0.11468 0.35214 0.76749
 C595 C -0.15587 0.33635 0.75254
 C596 C -0.17125 0.32196 0.75203
 C597 C -0.08619 0.40409 0.75409
 C598 C -0.07188 0.41954 0.75379
 H599 H -0.13166 0.40252 0.72809
 H600 H -0.12588 0.35548 0.71367
 H601 H -0.15774 0.38683 0.76715
 H602 H -0.11562 0.38442 0.79339
 H603 H -0.08374 0.35309 0.73988
 H604 H -0.10987 0.33731 0.77897
 C605 C 0.26708 0.10930 0.37128
 C606 C 0.25044 0.11057 0.35001
 C607 C 0.24639 0.13658 0.35510
 C608 C 0.26302 0.13558 0.37608
 C609 C 0.24600 0.10350 0.38684
 C610 C 0.24195 0.12951 0.39191
 C611 C 0.22936 0.10448 0.36588
 C612 C 0.22531 0.13079 0.37067
 C613 C 0.24669 0.15511 0.33751
 C614 C 0.24700 0.17041 0.32312
 C615 C 0.24610 0.08547 0.40492
 C616 C 0.24658 0.07119 0.42031
 H617 H 0.28424 0.10025 0.37173
 H618 H 0.25397 0.10300 0.33258
 H619 H 0.27685 0.14855 0.38013
 H620 H 0.23844 0.13709 0.40935
 H621 H 0.21552 0.09149 0.36187
 H622 H 0.20815 0.13985 0.37026
 C623 C 0.72687 0.11454 0.62418
 C624 C 0.73883 0.11284 0.64833
 C625 C 0.74936 0.13722 0.64455
 C626 C 0.73740 0.13920 0.62068
 C627 C 0.74886 0.10394 0.61302
 C628 C 0.75938 0.12833 0.60925
 C629 C 0.76083 0.10195 0.63687
 C630 C 0.77135 0.12662 0.63337
 C631 C 0.74968 0.15586 0.66201
 C632 C 0.74991 0.17122 0.67634
 C633 C 0.74887 0.08578 0.59507
 C634 C 0.74926 0.07139 0.57979
 H635 H 0.70858 0.10935 0.62021
 H636 H 0.73039 0.10668 0.66461
 H637 H 0.72779 0.15473 0.61418
 H638 H 0.76783 0.13449 0.59297
 H639 H 0.77045 0.08641 0.64333
 H640 H 0.78964 0.13179 0.63730
 C641 C 0.24873 -0.13013 0.60833
 C642 C 0.26660 -0.13209 0.62848
 C643 C 0.24635 -0.13709 0.64535
 C644 C 0.22847 -0.13540 0.62545
 C645 C 0.24601 -0.10398 0.61363
 C646 C 0.22574 -0.10898 0.63048
 C647 C 0.26390 -0.10568 0.63352
 C648 C 0.24364 -0.11096 0.65067
 C649 C 0.24668 -0.15568 0.66287
 C650 C 0.24703 -0.17105 0.67719
 C651 C 0.24612 -0.08592 0.59558
 C652 C 0.24659 -0.07161 0.58022
 H653 H 0.25082 -0.13781 0.59072
 H654 H 0.28340 -0.14180 0.62783
 H655 H 0.21393 -0.14784 0.62230
 H656 H 0.20895 -0.09926 0.63110
 H657 H 0.27846 -0.09325 0.63665
 H658 H 0.24155 -0.10329 0.66829
 C659 C 0.73485 -0.10295 0.36364
 C660 C 0.75696 -0.11211 0.35095
 C661 C 0.74855 -0.13723 0.35510
 C662 C 0.72645 -0.12838 0.36750
 C663 C 0.74819 -0.10414 0.38682
 C664 C 0.73979 -0.12927 0.39095
 C665 C 0.77029 -0.11300 0.37441
 C666 C 0.76189 -0.13840 0.37828
 C667 C 0.74876 -0.15583 0.33758
 C668 C 0.74893 -0.17116 0.32322
 C669 C 0.74828 -0.08608 0.40486
 C670 C 0.74876 -0.07175 0.42021
 H671 H 0.72373 -0.08817 0.35784
 H672 H 0.76406 -0.10524 0.33432
 H673 H 0.70843 -0.13493 0.36447
 H674 H 0.73271 -0.13614 0.40759
 H675 H 0.78831 -0.10645 0.37747
 H676 H 0.77302 -0.15315 0.38412
 C677 C 0.60950 0.75500 -0.12935
 C678 C 0.63253 0.76922 -0.12884
 C679 C 0.64579 0.74752 -0.13735
 C680 C 0.62302 0.73331 -0.13812
 C681 C 0.61410 0.74725 -0.10415
 C682 C 0.62735 0.72554 -0.11265
 C683 C 0.63687 0.76147 -0.10337
 C684 C 0.65043 0.73976 -0.11216
 C685 C 0.66327 0.74779 -0.15599
 C686 C 0.67754 0.74811 -0.17142
 C687 C 0.59605 0.74745 -0.08607
 C688 C 0.58067 0.74802 -0.07173
 H689 H 0.59246 0.76126 -0.13621
 H690 H 0.63481 0.78718 -0.13570
 H691 H 0.61752 0.72176 -0.15263
 H692 H 0.62504 0.70758 -0.10578
 H693 H 0.64235 0.77302 -0.08886
 H694 H 0.66748 0.73351 -0.10533
 C695 C 0.38196 0.23238 -0.11993
 C696 C 0.35531 0.23550 -0.11614
 C697 C 0.35476 0.25281 -0.13656
 C698 C 0.38114 0.24967 -0.14062
 C699 C 0.38645 0.25295 -0.10338
 C700 C 0.38590 0.27024 -0.12380
 C701 C 0.36008 0.25609 -0.09929
 C702 C 0.35924 0.27339 -0.12002
 C703 C 0.33732 0.25253 -0.15523
 C704 C 0.32313 0.25216 -0.17073
 C705 C 0.40449 0.25278 -0.08529
 C706 C 0.41986 0.25225 -0.07096
 H707 H 0.39149 0.21550 -0.11971
 H708 H 0.34254 0.22121 -0.11323
 H709 H 0.38962 0.24703 -0.15780
 H710 H 0.39871 0.28451 -0.12673
 H711 H 0.35165 0.25871 -0.08208
 H712 H 0.34972 0.29027 -0.12028
 C713 C 0.36045 0.74583 0.09930
 C714 C 0.35852 0.72747 0.11903
 C715 C 0.35532 0.74733 0.13670
 C716 C 0.35696 0.76568 0.11728
 C717 C 0.38696 0.74709 0.10347
 C718 C 0.38374 0.76694 0.12117
 C719 C 0.38533 0.72874 0.12290
 C720 C 0.38184 0.74859 0.14085
 C721 C 0.33788 0.74760 0.15538
 C722 C 0.32366 0.74797 0.17085
 C723 C 0.40498 0.74729 0.08536
 C724 C 0.42033 0.74786 0.07100
 H725 H 0.35188 0.74469 0.08200
 H726 H 0.34794 0.71124 0.11838
 H727 H 0.34512 0.78090 0.11520
 H728 H 0.39433 0.78317 0.12184
 H729 H 0.39719 0.71355 0.12501
 H730 H 0.39044 0.74976 0.15814
 C731 C 0.60799 0.24948 0.13027
 C732 C 0.62840 0.23183 0.13220
 C733 C 0.64511 0.25213 0.13752
 C734 C 0.62495 0.26978 0.13586
 C735 C 0.61349 0.25250 0.10427
 C736 C 0.63019 0.27282 0.10957
 C737 C 0.63365 0.23484 0.10592
 C738 C 0.65065 0.25515 0.11152
 C739 C 0.66255 0.25181 0.15620
 C740 C 0.67681 0.25145 0.17164
 C741 C 0.59547 0.25237 0.08615
 C742 C 0.58012 0.25185 0.07180
 H743 H 0.59024 0.24715 0.13778
 H744 H 0.62782 0.21497 0.14171
 H745 H 0.62156 0.28412 0.14840
 H746 H 0.63072 0.28966 0.10004
 H747 H 0.63701 0.22049 0.09339
 H748 H 0.66840 0.25747 0.10402
 C749 C -0.11548 0.62351 0.77075
 C750 C -0.11335 0.64818 0.75993
 C751 C -0.13754 0.64494 0.74872
 C752 C -0.13994 0.62055 0.75955
 C753 C -0.10433 0.61319 0.74870
 C754 C -0.12853 0.60995 0.73750
 C755 C -0.10192 0.63756 0.73787
 C756 C -0.12641 0.63461 0.72666
 C757 C -0.15617 0.66248 0.74876
 C758 C -0.17155 0.67685 0.74882
 C759 C -0.08619 0.59516 0.74897
 C760 C -0.07180 0.57982 0.74955
 H761 H -0.11076 0.61873 0.78888
 H762 H -0.10733 0.66408 0.76918
 H763 H -0.15577 0.61376 0.76847
 H764 H -0.13458 0.59404 0.72827
 H765 H -0.08607 0.64433 0.72896
 H766 H -0.13115 0.63937 0.70854
 C767 C -0.12705 0.38911 0.23728
 C768 C -0.12381 0.36341 0.22964
 C769 C -0.13735 0.35557 0.25138
 C770 C -0.14086 0.38102 0.25901
 C771 C -0.10425 0.38744 0.25136
 C772 C -0.11779 0.37962 0.27310
 C773 C -0.10073 0.36201 0.24371
 C774 C -0.11456 0.35388 0.26547
 C775 C -0.15592 0.33798 0.25134
 C776 C -0.17126 0.32358 0.25129
 C777 C -0.08619 0.40553 0.25109
 C778 C -0.07186 0.42092 0.25051
 H779 H -0.13198 0.40381 0.22569
 H780 H -0.12650 0.35658 0.21176
 H781 H -0.15757 0.38864 0.26528
 H782 H -0.11510 0.38649 0.29097
 H783 H -0.08400 0.35443 0.23743
 H784 H -0.10963 0.33919 0.27706
 C785 C 0.11260 0.37373 0.72656
 C786 C 0.13813 0.37778 0.73469
 C787 C 0.13712 0.35474 0.74832
 C788 C 0.11188 0.35039 0.74019
 C789 C 0.10386 0.38644 0.74843
 C790 C 0.10284 0.36341 0.76207
 C791 C 0.12911 0.39076 0.75655
 C792 C 0.12837 0.36747 0.77018
 C793 C 0.15576 0.33721 0.74831
 C794 C 0.17120 0.32290 0.74836
 C795 C 0.08574 0.40448 0.74880
 C796 C 0.07138 0.41983 0.74946
 H797 H 0.10590 0.37649 0.70863
 H798 H 0.15286 0.38352 0.72347
 H799 H 0.10503 0.33357 0.73347
 H800 H 0.08810 0.35772 0.77329
 H801 H 0.13595 0.40760 0.76326
 H802 H 0.13506 0.36477 0.78811
 C803 C 0.12535 0.61360 0.26770
 C804 C 0.14118 0.61966 0.24667
 C805 C 0.13732 0.64570 0.25166
 C806 C 0.12177 0.63993 0.27270
 C807 C 0.10394 0.61413 0.25153
 C808 C 0.10006 0.64017 0.25651
 C809 C 0.11951 0.61991 0.23050
 C810 C 0.11592 0.64623 0.23547
 C811 C 0.15605 0.66314 0.25165
 C812 C 0.17152 0.67741 0.25157
 C813 C 0.08573 0.59618 0.25118
 C814 C 0.07128 0.58090 0.25052
 H815 H 0.12901 0.59999 0.28096
 H816 H 0.15827 0.61140 0.24261
 H817 H 0.12293 0.64835 0.29005
 H818 H 0.08294 0.64837 0.26056
 H819 H 0.11835 0.61147 0.21315
 H820 H 0.11227 0.65982 0.22219
 C821 C 0.75512 -0.12966 0.60860
 C822 C 0.77262 -0.13190 0.62905
 C823 C 0.75199 -0.13646 0.64558
 C824 C 0.73449 -0.13449 0.62539
 C825 C 0.75283 -0.10346 0.61379
 C826 C 0.73220 -0.10802 0.63033
 C827 C 0.77035 -0.10541 0.63397
 C828 C 0.74971 -0.11026 0.65081
 C829 C 0.75144 -0.15505 0.66305
 C830 C 0.75105 -0.17051 0.67725
 C831 C 0.75297 -0.08549 0.59569
 C832 C 0.75266 -0.07125 0.58026
 H833 H 0.75736 -0.13745 0.59105
 H834 H 0.78923 -0.14194 0.62871
 H835 H 0.71975 -0.14665 0.62205
 H836 H 0.71559 -0.09799 0.63065
 H837 H 0.78510 -0.09324 0.63726
 H838 H 0.74747 -0.10250 0.66837
 C839 C 0.23945 -0.10222 0.36358
 C840 C 0.26152 -0.11138 0.35082
 C841 C 0.25306 -0.13649 0.35495
 C842 C 0.23100 -0.12761 0.36741
 C843 C 0.25285 -0.10347 0.38672
 C844 C 0.24438 -0.12859 0.39082
 C845 C 0.27491 -0.11234 0.37427
 C846 C 0.26644 -0.13773 0.37810
 C847 C 0.25309 -0.15506 0.33746
 C848 C 0.25298 -0.17046 0.32321
 C849 C 0.25243 -0.08549 0.40481
 C850 C 0.25173 -0.07124 0.42021
 H851 H 0.22837 -0.08740 0.35783
 H852 H 0.26855 -0.10454 0.33415
 H853 H 0.21294 -0.13410 0.36443
 H854 H 0.23734 -0.13547 0.40747
 H855 H 0.29297 -0.10587 0.37728
 H856 H 0.27750 -0.15257 0.38387
 C857 C 0.77321 0.10901 0.37028
 C858 C 0.75615 0.10989 0.34932
 C859 C 0.75161 0.13581 0.35445
 C860 C 0.76866 0.13522 0.37511
 C861 C 0.75256 0.10282 0.38623
 C862 C 0.74803 0.12874 0.39134
 C863 C 0.73550 0.10341 0.36559
 C864 C 0.73097 0.12961 0.37043
 C865 C 0.75100 0.15440 0.33697
 C866 C 0.75059 0.16985 0.32277
 C867 C 0.75276 0.08485 0.40435
 C868 C 0.75251 0.07064 0.41979
 H869 H 0.79058 0.10033 0.37044
 H870 H 0.75947 0.10236 0.33183
 H871 H 0.78228 0.14852 0.37884
 H872 H 0.74471 0.13630 0.40882
 H873 H 0.72188 0.09011 0.36188
 H874 H 0.71361 0.13829 0.37031
 C875 C 0.23047 0.11385 0.62479
 C876 C 0.24231 0.11212 0.64899
 C877 C 0.25274 0.13654 0.64530
 C878 C 0.24090 0.13854 0.62139
 C879 C 0.25256 0.10336 0.61371
 C880 C 0.26298 0.12780 0.61003
 C881 C 0.26441 0.10134 0.63762
 C882 C 0.27484 0.12608 0.63422
 C883 C 0.25267 0.15513 0.66276
 C884 C 0.25247 0.17053 0.67703
 C885 C 0.25216 0.08530 0.59570
 C886 C 0.25148 0.07100 0.58035
 H887 H 0.21222 0.10861 0.62073
 H888 H 0.23378 0.10593 0.66521
 H889 H 0.23124 0.15404 0.61488
 H890 H 0.27149 0.13404 0.59381
 H891 H 0.27408 0.08585 0.64410
 H892 H 0.29307 0.13138 0.63828
   
