data_POSCAR
  _audit_creation_date              2014-09-24
  _audit_creation_method            'ToBaCCo'
  _symmetry_space_group_name_H-M    'P1'
  _symmetry_Int_Tables_number       1
  _symmetry_cell_setting            triclinic
  loop_
  _symmetry_equiv_pos_as_xyz
 x,y,z
_cell_length_a 30.1307
_cell_length_b 29.9989
_cell_length_c 15.3273
_cell_angle_alpha 89.869800
_cell_angle_beta 90.121900
_cell_angle_gamma 121.555600
loop_
  _atom_site_label
  _atom_site_type_symbol
  _atom_site_fract_x
  _atom_site_fract_y
  _atom_site_fract_z
C1 C 0.42152 0.89135 0.58770
 C2 C 0.40991 0.86346 0.50916
 C3 C 0.42106 0.88843 0.42844
 C4 C 0.44621 0.94346 0.42439
 C5 C 0.45886 0.97288 0.50259
 C6 C 0.44695 0.94697 0.58463
 C7 C 0.46264 0.97760 0.66079
 C8 C 0.48494 1.03152 0.65697
 C9 C 0.49674 1.05816 0.57659
 C10 C 0.48389 1.02840 0.49855
 C11 C 0.45919 0.96970 0.34389
 C12 C 0.48263 1.02363 0.33987
 C13 C 0.49536 1.05383 0.41629
 C14 C 0.51767 1.10863 0.41224
 C15 C 0.52838 1.13731 0.48956
 C16 C 0.51914 1.11339 0.57202
 H17 H 0.45722 0.96024 0.72472
 H18 H 0.49236 1.05186 0.71839
 H19 H 0.45095 0.94873 0.28286
 H20 H 0.49019 1.04133 0.27577
 H21 H 0.39023 0.82108 0.51063
 H22 H 0.54683 1.17951 0.48534
 C23 C 0.11472 0.52310 0.57113
 C24 C 0.13911 0.52717 0.49152
 C25 C 0.11065 0.50840 0.41444
 C26 C 0.05568 0.48077 0.41700
 C27 C 0.03007 0.47545 0.49728
 C28 C 0.05972 0.49742 0.57453
 C29 C 0.03369 0.49421 0.65240
 C30 C -0.02038 0.46790 0.65533
 C31 C -0.05058 0.44411 0.58036
 C32 C -0.02519 0.44919 0.49994
 C33 C 0.02579 0.45837 0.34150
 C34 C -0.02832 0.43132 0.34459
 C35 C -0.05482 0.42800 0.42229
 C36 C -0.11016 0.40228 0.42534
 C37 C -0.13421 0.39668 0.50662
 C38 C -0.10557 0.41576 0.58375
 H39 H 0.05481 0.51217 0.71196
 H40 H -0.03833 0.46661 0.71712
 H41 H 0.04396 0.46068 0.27946
 H42 H -0.04908 0.41266 0.28513
 H43 H 0.18130 0.54763 0.48877
 H44 H -0.17620 0.37815 0.51015
 C45 C 0.60812 0.49506 0.43095
 C46 C 0.62426 0.48639 0.51119
 C47 C 0.60927 0.49786 0.59066
 C48 C 0.57806 0.52081 0.58850
 C49 C 0.56600 0.53477 0.50700
 C50 C 0.58079 0.52143 0.42795
 C51 C 0.56575 0.53252 0.34797
 C52 C 0.53741 0.55697 0.34518
 C53 C 0.52198 0.57021 0.42227
 C54 C 0.53572 0.55861 0.50416
 C55 C 0.55463 0.52584 0.66415
 C56 C 0.52445 0.54848 0.66128
 C57 C 0.51631 0.56751 0.58264
 C58 C 0.48538 0.59075 0.57860
 C59 C 0.47590 0.60520 0.49659
 C60 C 0.49133 0.59294 0.41930
 H61 H 0.57559 0.52232 0.28642
 H62 H 0.52709 0.56481 0.28173
 H63 H 0.55816 0.51104 0.72646
 H64 H 0.50643 0.54944 0.72153
 H65 H 0.64662 0.46743 0.51147
 H66 H 0.45359 0.62413 0.49218
 O67 O 0.42816 0.67505 -0.07482
 O68 O 0.40856 0.74930 -0.09093
 C69 C 0.37715 0.76440 -0.10635
 O70 O 0.33492 0.74720 -0.06433
 O71 O 0.26135 0.65287 -0.10025
 C72 C 0.24804 0.60746 -0.12540
 O73 O 0.25895 0.57793 -0.08277
 O74 O 0.35359 0.60138 -0.10548
 C75 C 0.40010 0.63583 -0.12378
 O76 O 0.41956 0.67999 0.10192
 O77 O 0.40469 0.75747 0.08328
 C78 C 0.36718 0.75520 0.12533
 O79 O 0.31979 0.72299 0.10730
 O80 O 0.24209 0.62920 0.07009
 C81 C 0.24137 0.59145 0.10936
 O82 O 0.27299 0.57707 0.09194
 O83 O 0.36712 0.59619 0.06709
 C84 C 0.40122 0.63180 0.11619
 Cr85 Cr 0.41254 0.71346 0.00490
 Cr86 Cr 0.29132 0.68710 0.00332
 Cr87 Cr 0.31415 0.59089 -0.00681
 O88 O 0.33937 0.66386 0.00067
 O89 O 0.60769 0.36099 -0.09092
 O90 O 0.57879 0.26234 -0.08188
 C91 C 0.60428 0.24826 -0.12843
 O92 O 0.64993 0.25965 -0.10858
 O93 O 0.74639 0.32812 -0.07225
 C94 C 0.76720 0.37298 -0.10735
 O95 O 0.75567 0.40633 -0.08541
 O96 O 0.68588 0.43105 -0.06170
 C97 C 0.64372 0.40787 -0.10527
 O98 O 0.60559 0.36639 0.08516
 O99 O 0.58130 0.26992 0.09400
 C100 C 0.59303 0.23567 0.10595
 O101 O 0.62888 0.23542 0.06262
 O102 O 0.72507 0.30866 0.09944
 C103 C 0.75602 0.35473 0.12709
 O104 O 0.76164 0.39517 0.08902
 O105 O 0.69056 0.41757 0.11237
 C106 C 0.64346 0.40048 0.13085
 Cr107 Cr 0.59623 0.31583 0.00150
 Cr108 Cr 0.68682 0.28507 -0.00429
 Cr109 Cr 0.72128 0.40957 0.01314
 O110 O 0.66813 0.33695 0.00352
 C111 C 0.37749 0.86388 -0.26677
 C112 C 0.40924 0.86223 -0.33383
 C113 C 0.42857 0.82897 -0.32348
 C114 C 0.41866 0.79924 -0.24868
 C115 C 0.38946 0.80164 -0.17979
 C116 C 0.37005 0.83581 -0.18724
 C117 C 0.35143 0.89131 -0.27810
 C118 C 0.32352 0.89577 -0.20990
 C119 C 0.32080 0.87296 -0.12947
 C120 C 0.34381 0.84337 -0.11787
 H121 H 0.35266 0.90974 -0.33953
 H122 H 0.30460 0.91774 -0.21909
 H123 H 0.30041 0.87788 -0.07586
 H124 H 0.34161 0.82778 -0.05351
 H125 H 0.45228 0.82627 -0.37383
 H126 H 0.43353 0.77328 -0.24561
 C127 C 0.18762 0.60128 -0.34856
 C128 C 0.14870 0.54726 -0.35128
 C129 C 0.14534 0.51446 -0.28315
 C130 C 0.17824 0.53449 -0.21122
 C131 C 0.21697 0.58768 -0.20659
 C132 C 0.22378 0.62110 -0.27812
 C133 C 0.19168 0.63603 -0.41497
 C134 C 0.23280 0.68796 -0.41573
 C135 C 0.27068 0.70624 -0.35095
 C136 C 0.26653 0.67330 -0.28302
 H137 H 0.16326 0.62344 -0.46693
 H138 H 0.23577 0.71390 -0.46767
 H139 H 0.30343 0.74617 -0.35324
 H140 H 0.29803 0.68902 -0.23639
 H141 H 0.11659 0.47293 -0.28548
 H142 H 0.17301 0.50818 -0.15826
 C143 C 0.40919 0.58492 -0.34679
 C144 C 0.46248 0.59931 -0.34725
 C145 C 0.49426 0.62822 -0.27630
 C146 C 0.47412 0.64115 -0.20544
 C147 C 0.42217 0.62809 -0.20484
 C148 C 0.39043 0.60310 -0.27909
 C149 C 0.37336 0.55120 -0.41070
 C150 C 0.32311 0.54216 -0.41529
 C151 C 0.30718 0.56583 -0.35573
 C152 C 0.34030 0.59590 -0.28810
 H153 H 0.38378 0.53131 -0.45730
 H154 H 0.29672 0.51729 -0.46600
 H155 H 0.26872 0.56016 -0.36109
 H156 H 0.32655 0.61416 -0.24418
 H157 H 0.53534 0.64151 -0.27594
 H158 H 0.49929 0.66112 -0.15026
 C159 C 0.52070 0.18261 -0.33506
 C160 C 0.53606 0.14596 -0.35296
 C161 C 0.57279 0.14491 -0.29804
 C162 C 0.59354 0.17805 -0.22661
 C163 C 0.57940 0.21465 -0.20696
 C164 C 0.54303 0.21771 -0.26262
 C165 C 0.48206 0.18385 -0.38583
 C166 C 0.46860 0.22101 -0.37049
 C167 C 0.49237 0.25699 -0.30344
 C168 C 0.52879 0.25526 -0.24967
 H169 H 0.46153 0.15592 -0.43742
 H170 H 0.43956 0.22188 -0.41091
 H171 H 0.48217 0.28617 -0.29238
 H172 H 0.54563 0.28422 -0.19908
 H173 H 0.58652 0.11867 -0.31154
 H174 H 0.62129 0.17490 -0.18606
 C175 C 0.86597 0.37302 -0.26630
 C176 C 0.86504 0.40534 -0.33310
 C177 C 0.83490 0.42788 -0.32197
 C178 C 0.80508 0.41820 -0.24722
 C179 C 0.80486 0.38622 -0.17998
 C180 C 0.83754 0.36522 -0.18755
 C181 C 0.89459 0.34818 -0.27621
 C182 C 0.89804 0.31925 -0.20820
 C183 C 0.87340 0.31469 -0.12920
 C184 C 0.84362 0.33750 -0.11849
 H185 H 0.91475 0.35109 -0.33624
 H186 H 0.92062 0.30095 -0.21641
 H187 H 0.87736 0.29332 -0.07581
 H188 H 0.82680 0.33414 -0.05490
 H189 H 0.83375 0.45255 -0.37256
 H190 H 0.78076 0.43486 -0.24316
 C191 C 0.64536 0.51161 -0.25705
 C192 C 0.62066 0.47976 -0.33173
 C193 C 0.60702 0.42725 -0.32952
 C194 C 0.61528 0.40581 -0.25587
 C195 C 0.63667 0.43519 -0.17991
 C196 C 0.65163 0.48868 -0.17954
 C197 C 0.66568 0.56605 -0.25852
 C198 C 0.68740 0.59628 -0.18381
 C199 C 0.68981 0.57317 -0.10659
 C200 C 0.67222 0.51997 -0.10412
 H201 H 0.66489 0.58565 -0.31730
 H202 H 0.70207 0.63781 -0.18566
 H203 H 0.70587 0.59671 -0.04840
 H204 H 0.67463 0.50388 -0.04243
 H205 H 0.58848 0.40178 -0.38511
 H206 H 0.60514 0.36554 -0.25883
 C207 C 0.81037 0.33626 0.34409
 C208 C 0.85790 0.38564 0.34941
 C209 C 0.87011 0.42182 0.28164
 C210 C 0.83711 0.41023 0.21062
 C211 C 0.78895 0.36295 0.20554
 C212 C 0.77432 0.32610 0.27494
 C213 C 0.79839 0.29613 0.40529
 C214 C 0.74991 0.24999 0.40522
 C215 C 0.71260 0.24269 0.34419
 C216 C 0.72440 0.28005 0.27954
 H217 H 0.82637 0.30011 0.45381
 H218 H 0.74092 0.22015 0.45375
 H219 H 0.67443 0.20765 0.34680
 H220 H 0.69337 0.27268 0.23548
 H221 H 0.90492 0.46049 0.28474
 H222 H 0.84921 0.43941 0.15964
 C223 C 0.50212 0.15653 0.29639
 C224 C 0.53109 0.13594 0.33239
 C225 C 0.57383 0.14160 0.28648
 C226 C 0.59153 0.17178 0.21103
 C227 C 0.56602 0.19592 0.17660
 C228 C 0.51825 0.18466 0.21581
 C229 C 0.45593 0.14746 0.33670
 C230 C 0.42541 0.16422 0.29755
 C231 C 0.43952 0.18916 0.21695
 C232 C 0.48500 0.19883 0.17591
 H233 H 0.44245 0.12642 0.39779
 H234 H 0.39000 0.15674 0.32895
 H235 H 0.41476 0.20059 0.18549
 H236 H 0.49214 0.21536 0.11128
 H237 H 0.59523 0.12443 0.31161
 H238 H 0.62691 0.17788 0.18143
 C239 C 0.58672 0.41396 0.34601
 C240 C 0.61439 0.46927 0.35325
 C241 C 0.65084 0.50003 0.28929
 C242 C 0.65927 0.47693 0.21754
 C243 C 0.63253 0.42235 0.20871
 C244 C 0.59727 0.39034 0.27504
 C245 C 0.54935 0.38151 0.40902
 C246 C 0.52608 0.32738 0.40598
 C247 C 0.53916 0.30459 0.34010
 C248 C 0.57397 0.33550 0.27481
 H249 H 0.53812 0.39754 0.46164
 H250 H 0.49842 0.30309 0.45575
 H251 H 0.52239 0.26278 0.33989
 H252 H 0.58361 0.31619 0.22612
 H253 H 0.67277 0.54227 0.29492
 H254 H 0.68703 0.50193 0.16833
 C255 C 0.15026 0.49176 0.28128
 C256 C 0.14035 0.52499 0.33176
 C257 C 0.16073 0.57681 0.30582
 C258 C 0.19182 0.59664 0.23221
 C259 C 0.20337 0.56522 0.18126
 C260 C 0.18080 0.51147 0.20383
 C261 C 0.13023 0.43930 0.30606
 C262 C 0.13832 0.40619 0.25398
 C263 C 0.16582 0.42448 0.17615
 C264 C 0.18660 0.47639 0.15078
 H265 H 0.10781 0.42344 0.36532
 H266 H 0.12248 0.36591 0.27340
 H267 H 0.17093 0.39823 0.13497
 H268 H 0.20584 0.48792 0.08835
 H269 H 0.15345 0.60258 0.34437
 H270 H 0.20836 0.63761 0.21657
 C271 C 0.36441 0.84809 0.29405
 C272 C 0.40540 0.85520 0.34924
 C273 C 0.43261 0.83046 0.32938
 C274 C 0.41995 0.79892 0.25598
 C275 C 0.37984 0.79132 0.19969
 C276 C 0.35257 0.81728 0.21709
 C277 C 0.33525 0.87139 0.31345
 C278 C 0.29706 0.86670 0.25616
 C279 C 0.28742 0.83908 0.17861
 C280 C 0.31489 0.81474 0.15887
 H281 H 0.34192 0.89367 0.37261
 H282 H 0.27534 0.88518 0.27144
 H283 H 0.25854 0.83655 0.13339
 H284 H 0.30693 0.79509 0.09687
 H285 H 0.46389 0.83554 0.37142
 H286 H 0.44127 0.77961 0.24372
 C287 C 0.41650 0.56049 0.31325
 C288 C 0.46834 0.59817 0.33716
 C289 C 0.49679 0.64363 0.28770
 C290 C 0.47440 0.65272 0.21570
 C291 C 0.42232 0.61728 0.19180
 C292 C 0.39241 0.57067 0.24215
 C293 C 0.38778 0.51319 0.36033
 C294 C 0.33555 0.47793 0.34155
 C295 C 0.31097 0.48903 0.27582
 C296 C 0.33881 0.53473 0.22671
 H297 H 0.40546 0.50310 0.41210
 H298 H 0.31389 0.44214 0.37889
 H299 H 0.27003 0.46204 0.26272
 H300 H 0.31700 0.54129 0.17852
 H301 H 0.53643 0.67269 0.30585
 H302 H 0.49803 0.68844 0.17889
   
