data_POSCAR
  _audit_creation_date              2014-09-24
  _audit_creation_method            'ToBaCCo'
  _symmetry_space_group_name_H-M    'P1'
  _symmetry_Int_Tables_number       1
  _symmetry_cell_setting            triclinic
  loop_
  _symmetry_equiv_pos_as_xyz
 x,y,z
_cell_length_a 60.3429
_cell_length_b 54.0626
_cell_length_c 8.9828
_cell_angle_alpha 90.597200
_cell_angle_beta 90.108000
_cell_angle_gamma 89.969200
loop_
  _atom_site_label
  _atom_site_type_symbol
  _atom_site_fract_x
  _atom_site_fract_y
  _atom_site_fract_z
O1 O 0.27231 0.22604 0.28766
 O2 O 0.22957 0.27385 0.23949
 O3 O 0.27228 0.27398 0.28317
 O4 O 0.22960 0.22574 0.24428
 O5 O 0.22437 0.22673 0.48688
 O6 O 0.26707 0.27504 0.52605
 O7 O 0.22428 0.27490 0.48227
 O8 O 0.26717 0.22705 0.53061
 Cu9 Cu 0.25146 0.24979 0.23970
 Cu10 Cu 0.24513 0.25104 0.53042
 C11 C 0.27723 0.21850 0.41705
 C12 C 0.21953 0.28252 0.35275
 C13 C 0.27714 0.28262 0.41112
 C14 C 0.21957 0.21796 0.35896
 O15 O 0.77139 0.27351 0.19952
 O16 O 0.72882 0.22561 0.24973
 O17 O 0.77152 0.22555 0.20604
 O18 O 0.72874 0.27368 0.24367
 O19 O 0.72327 0.27243 0.00095
 O20 O 0.76620 0.22426 -0.03684
 O21 O 0.72342 0.22428 0.00719
 O22 O 0.76601 0.27228 -0.04331
 Cu23 Cu 0.75066 0.24971 0.24871
 Cu24 Cu 0.74413 0.24817 -0.04201
 C25 C 0.77612 0.28099 0.06982
 C26 C 0.71870 0.21675 0.13694
 C27 C 0.77635 0.21681 0.07839
 C28 C 0.71862 0.28127 0.12873
 O29 O 0.77352 0.72666 0.79674
 O30 O 0.73067 0.77444 0.75164
 O31 O 0.77341 0.77463 0.79393
 O32 O 0.73082 0.72634 0.75480
 O33 O 0.72581 0.72709 0.99786
 O34 O 0.76850 0.77545 1.03686
 O35 O 0.72565 0.77527 0.99468
 O36 O 0.76861 0.72742 1.03992
 Cu37 Cu 0.75261 0.75044 0.75035
 Cu38 Cu 0.74657 0.75141 1.04129
 C39 C 0.77854 0.71896 0.92559
 C40 C 0.72073 0.78299 0.86564
 C41 C 0.77847 0.78320 0.92185
 C42 C 0.72096 0.71846 0.86980
 O43 O 0.27197 0.77448 0.72087
 O44 O 0.22926 0.72646 0.76198
 O45 O 0.27205 0.72653 0.72405
 O46 O 0.22916 0.77461 0.75896
 O47 O 0.22448 0.77382 0.51574
 O48 O 0.26748 0.72570 0.48046
 O49 O 0.22462 0.72561 0.51849
 O50 O 0.26737 0.77369 0.47732
 Cu51 Cu 0.25106 0.75062 0.76540
 Cu52 Cu 0.24544 0.74963 0.47407
 C53 C 0.27716 0.78215 0.59240
 C54 C 0.21959 0.71781 0.64697
 C55 C 0.27727 0.71802 0.59656
 C56 C 0.21936 0.78246 0.64329
 C57 C 1.00167 0.06471 0.08893
 C58 C 1.02134 0.05109 0.10316
 C59 C 1.02113 0.02563 0.07074
 C60 C 1.00175 0.01382 0.01865
 C61 C 0.98234 0.02806 0.00224
 C62 C 0.98204 0.05332 0.04020
 C63 C 1.00178 -0.01323 -0.01792
 C64 C 0.98246 -0.02755 -0.00053
 C65 C 0.98219 -0.05279 -0.03884
 C66 C 1.00177 -0.06409 -0.08876
 C67 C 1.02136 -0.05040 -0.10394
 C68 C 1.02111 -0.02495 -0.07117
 H69 H 1.00175 0.08442 0.11189
 H70 H 1.03609 0.01503 0.08883
 H71 H 0.96729 0.01956 -0.03918
 H72 H 0.96745 -0.01912 0.04179
 H73 H 1.00189 -0.08379 -0.11197
 H74 H 1.03600 -0.01429 -0.09002
 C75 C 0.50224 0.56471 0.60547
 C76 C 0.52184 0.55091 0.61740
 C77 C 0.52143 0.52551 0.58314
 C78 C 0.50188 0.51397 0.53188
 C79 C 0.48255 0.52839 0.51768
 C80 C 0.48247 0.55358 0.55719
 C81 C 0.50160 0.48697 0.49409
 C82 C 0.48219 0.47289 0.51295
 C83 C 0.48157 0.44767 0.47452
 C84 C 0.50092 0.43614 0.42219
 C85 C 0.52063 0.44960 0.40561
 C86 C 0.52071 0.47504 0.43899
 H87 H 0.50247 0.58438 0.62979
 H88 H 0.53635 0.51476 0.59927
 H89 H 0.46738 0.52007 0.47688
 H90 H 0.46752 0.48133 0.56043
 H91 H 0.50066 0.41660 0.39469
 H92 H 0.53567 0.48553 0.41925
 C93 C -0.00075 0.43372 0.03674
 C94 C -0.02009 0.44603 -0.00736
 C95 C -0.01922 0.47154 -0.03408
 C96 C 0.00048 0.48508 -0.01134
 C97 C 0.01960 0.47231 0.03549
 C98 C 0.01924 0.44659 0.05631
 C99 C 0.00105 0.51236 -0.03773
 C100 C 0.02059 0.52398 -0.08678
 C101 C 0.02120 0.54958 -0.11171
 C102 C 0.00180 0.56355 -0.09228
 C103 C -0.01796 0.55238 -0.04616
 C104 C -0.01806 0.52696 -0.01583
 H105 H -0.00134 0.41408 0.05933
 H106 H -0.03392 0.48065 -0.07560
 H107 H 0.03491 0.48224 0.05463
 H108 H 0.03533 0.51316 -0.10904
 H109 H 0.00220 0.58334 -0.10960
 H110 H -0.03322 0.51859 0.02336
 C111 C 0.50118 0.93558 0.58385
 C112 C 0.48159 0.94718 0.53724
 C113 C 0.48196 0.97255 0.50566
 C114 C 0.50137 0.98667 0.52567
 C115 C 0.52073 0.97466 0.57476
 C116 C 0.52088 0.94910 0.60147
 C117 C 0.50134 1.01382 0.49554
 C118 C 0.52061 1.02581 0.44513
 C119 C 0.52069 1.05135 0.41815
 C120 C 0.50102 1.06489 0.43689
 C121 C 0.48153 1.05333 0.48483
 C122 C 0.48197 1.02797 0.51669
 H123 H 0.50110 0.91594 0.60630
 H124 H 0.46708 0.98111 0.46269
 H125 H 0.53571 0.98517 0.59526
 H126 H 0.53554 1.01528 0.42371
 H127 H 0.50089 1.08453 0.41419
 H128 H 0.46717 1.01944 0.56059
 C129 C 1.18016 0.17283 0.18773
 C130 C 1.16867 0.16473 0.31321
 C131 C 1.17442 0.17387 0.45429
 C132 C 1.19144 0.19126 0.46993
 C133 C 1.20297 0.19986 0.34412
 C134 C 1.19718 0.19021 0.20276
 C135 C 1.15049 0.14771 0.29640
 C136 C 1.13500 0.13385 0.28085
 C137 C 1.11656 0.11812 0.26053
 C138 C 1.10056 0.10515 0.24101
 C139 C 1.08114 0.09027 0.21464
 C140 C 1.06155 0.09536 0.29221
 C141 C 1.04221 0.08218 0.25895
 C142 C 1.04222 0.06373 0.14727
 C143 C 1.06215 0.05831 0.07254
 C144 C 1.08146 0.07154 0.10590
 H145 H 1.17580 0.16590 0.07788
 H146 H 1.16559 0.16776 0.55217
 H147 H 1.19535 0.19813 0.58063
 H148 H 1.20561 0.19624 0.10315
 H149 H 1.06111 0.10982 0.37658
 H150 H 1.02719 0.08654 0.31963
 H151 H 1.06262 0.04442 -0.01515
 H152 H 1.09651 0.06754 0.04460
 C153 C 0.67528 0.67318 0.96503
 C154 C 0.66942 0.66415 0.82383
 C155 C 0.68073 0.67244 0.69802
 C156 C 0.69770 0.68990 0.71300
 C157 C 0.70354 0.69933 0.85432
 C158 C 0.69224 0.69065 0.98035
 C159 C 0.65130 0.64704 0.80728
 C160 C 0.63585 0.63313 0.79201
 C161 C 0.61743 0.61736 0.77214
 C162 C 0.60141 0.60439 0.75309
 C163 C 0.58195 0.58956 0.72744
 C164 C 0.58203 0.57107 0.61722
 C165 C 0.56262 0.55798 0.58439
 C166 C 0.54285 0.56331 0.66109
 C167 C 0.54309 0.58149 0.77431
 C168 C 0.56252 0.59453 0.80709
 H169 H 0.66658 0.66694 1.06312
 H170 H 0.67628 0.66562 0.58813
 H171 H 0.70606 0.69619 0.61380
 H172 H 0.69633 0.69752 1.09066
 H173 H 0.59696 0.56717 0.55433
 H174 H 0.56289 0.54429 0.49552
 H175 H 0.52819 0.58578 0.83648
 H176 H 0.56227 0.60880 0.89265
 C177 C -0.17750 0.32610 0.15774
 C178 C -0.17108 0.33334 0.01513
 C179 C -0.18235 0.32405 -0.10976
 C180 C -0.19982 0.30733 -0.09220
 C181 C -0.20617 0.29964 0.05075
 C182 C -0.19492 0.30938 0.17560
 C183 C -0.15240 0.34960 -0.00237
 C184 C -0.13646 0.36286 -0.01414
 C185 C -0.11747 0.37796 -0.02451
 C186 C -0.10099 0.39050 -0.03036
 C187 C -0.08104 0.40507 -0.03353
 C188 C -0.06149 0.39486 -0.09101
 C189 C -0.04175 0.40837 -0.08558
 C190 C -0.04130 0.43227 -0.02220
 C191 C -0.06114 0.44257 0.03254
 C192 C -0.08087 0.42902 0.02707
 H193 H -0.16886 0.33313 0.25518
 H194 H -0.17747 0.32950 -0.22071
 H195 H -0.20812 0.30016 -0.19053
 H196 H -0.19939 0.30387 0.28714
 H197 H -0.06143 0.37633 -0.13811
 H198 H -0.02681 0.40007 -0.13034
 H199 H -0.06127 0.46080 0.08358
 H200 H -0.09588 0.43705 0.07265
 C201 C 0.31969 0.82497 0.42149
 C202 C 0.33068 0.83388 0.54851
 C203 C 0.32368 0.82654 0.68970
 C204 C 0.30600 0.81007 0.70405
 C205 C 0.29506 0.80067 0.57705
 C206 C 0.30197 0.80848 0.43554
 C207 C 0.34960 0.84989 0.53459
 C208 C 0.36571 0.86295 0.52557
 C209 C 0.38484 0.87789 0.51804
 C210 C 0.40135 0.89041 0.51422
 C211 C 0.42125 0.90508 0.51294
 C212 C 0.42106 0.92919 0.57114
 C213 C 0.44061 0.94302 0.57665
 C214 C 0.46065 0.93288 0.52424
 C215 C 0.46061 0.90876 0.46396
 C216 C 0.44103 0.89496 0.45849
 H217 H 0.32500 0.83051 0.31161
 H218 H 0.33209 0.83330 0.78876
 H219 H 0.30111 0.80444 0.81457
 H220 H 0.29392 0.80158 0.33562
 H221 H 0.40587 0.93715 0.61437
 H222 H 0.44017 0.96142 0.62543
 H223 H 0.47571 0.90056 0.42109
 H224 H 0.44136 0.87630 0.41323
 C225 C -0.17918 0.67585 0.09859
 C226 C -0.16834 0.66668 -0.02812
 C227 C -0.17530 0.67402 -0.16956
 C228 C -0.19281 0.69072 -0.18456
 C229 C -0.20363 0.70034 -0.05797
 C230 C -0.19675 0.69256 0.08388
 C231 C -0.14955 0.65044 -0.01419
 C232 C -0.13351 0.63722 -0.00702
 C233 C -0.11440 0.62217 -0.00393
 C234 C -0.09783 0.60971 -0.00590
 C235 C -0.07780 0.59529 -0.01391
 C236 C -0.06335 0.59851 -0.13369
 C237 C -0.04389 0.58462 -0.14348
 C238 C -0.03857 0.56726 -0.03338
 C239 C -0.05320 0.56411 0.08681
 C240 C -0.07270 0.57808 0.09646
 H241 H -0.17388 0.67033 0.20866
 H242 H -0.16700 0.66708 -0.26838
 H243 H -0.19769 0.69630 -0.29533
 H244 H -0.20472 0.69965 0.18347
 H245 H -0.06717 0.61170 -0.22002
 H246 H -0.03314 0.58719 -0.23848
 H247 H -0.04945 0.55107 0.17397
 H248 H -0.08376 0.57548 0.18984
 C249 C 0.32396 1.17402 0.32650
 C250 C 0.33074 1.16686 0.46870
 C251 C 0.31955 1.17595 0.59424
 C252 C 0.30184 1.19242 0.57771
 C253 C 0.29514 1.20003 0.43515
 C254 C 0.30629 1.19047 0.30966
 C255 C 0.34964 1.15086 0.48502
 C256 C 0.36573 1.13778 0.49558
 C257 C 0.38484 1.12279 0.50438
 C258 C 0.40134 1.11024 0.50886
 C259 C 0.42122 1.09551 0.51049
 C260 C 0.44106 1.10564 0.56407
 C261 C 0.46064 1.09180 0.55833
 C262 C 0.46060 1.06764 0.49861
 C263 C 0.44048 1.05748 0.44725
 C264 C 0.42094 1.07135 0.45303
 H265 H 0.33252 1.16712 0.22856
 H266 H 0.32470 1.17056 0.70489
 H267 H 0.29362 1.19946 0.67649
 H268 H 0.30156 1.19593 0.19839
 H269 H 0.44147 1.12432 0.60875
 H270 H 0.47580 1.10001 0.60042
 H271 H 0.43998 1.03906 0.39893
 H272 H 0.40570 1.06338 0.41046
 C273 C 1.17442 -0.17331 -0.45616
 C274 C 1.16840 -0.16426 -0.31552
 C275 C 1.17961 -0.17250 -0.18896
 C276 C 1.19664 -0.18991 -0.20247
 C277 C 1.20271 -0.19945 -0.34339
 C278 C 1.19144 -0.19074 -0.47029
 C279 C 1.15024 -0.14716 -0.30019
 C280 C 1.13478 -0.13323 -0.28537
 C281 C 1.11638 -0.11742 -0.26541
 C282 C 1.10042 -0.10439 -0.24580
 C283 C 1.08106 -0.08945 -0.21893
 C284 C 1.08153 -0.07073 -0.11021
 C285 C 1.06225 -0.05752 -0.07583
 C286 C 1.04221 -0.06296 -0.14947
 C287 C 1.04204 -0.08138 -0.26129
 C288 C 1.06134 -0.09454 -0.29560
 H289 H 1.16580 -0.16709 -0.55488
 H290 H 1.17504 -0.16564 -0.07946
 H291 H 1.20485 -0.19604 -0.10206
 H292 H 1.19558 -0.19752 -0.58068
 H293 H 1.09667 -0.06673 -0.04960
 H294 H 1.06284 -0.04364 0.01193
 H295 H 1.02693 -0.08576 -0.32117
 H296 H 1.06079 -0.10901 -0.37995
 C297 C 0.67849 0.32732 0.30059
 C298 C 0.66678 0.33526 0.17526
 C299 C 0.67233 0.32597 0.03418
 C300 C 0.68938 0.30861 0.01858
 C301 C 0.70109 0.30030 0.14419
 C302 C 0.69554 0.30998 0.28533
 C303 C 0.64862 0.35231 0.19248
 C304 C 0.63318 0.36622 0.20911
 C305 C 0.61485 0.38203 0.23145
 C306 C 0.59897 0.39510 0.25328
 C307 C 0.57975 0.41012 0.28301
 C308 C 0.55986 0.40538 0.20762
 C309 C 0.54073 0.41866 0.24450
 C310 C 0.54125 0.43686 0.35760
 C311 C 0.56147 0.44194 0.43003
 C312 C 0.58057 0.42860 0.39310
 H313 H 0.67429 0.33435 0.41038
 H314 H 0.66333 0.33195 -0.06354
 H315 H 0.69324 0.30153 -0.09158
 H316 H 0.70422 0.30397 0.38424
 H317 H 0.55905 0.39111 0.12220
 H318 H 0.52548 0.41457 0.18549
 H319 H 0.56233 0.45563 0.51870
 H320 H 0.59585 0.43233 0.45275
 C321 C 0.82429 -0.17391 -0.17668
 C322 C 0.83079 -0.16528 -0.03600
 C323 C 0.81943 -0.17311 0.09069
 C324 C 0.80183 -0.18982 0.07699
 C325 C 0.79539 -0.19905 -0.06410
 C326 C 0.80675 -0.19061 -0.19094
 C327 C 0.84966 -0.14915 -0.02236
 C328 C 0.86579 -0.13606 -0.01471
 C329 C 0.88502 -0.12123 -0.01029
 C330 C 0.90169 -0.10897 -0.01055
 C331 C 0.92185 -0.09479 -0.01593
 C332 C 0.92731 -0.07823 0.09922
 C333 C 0.94697 -0.06456 0.09253
 C334 C 0.96139 -0.06736 -0.02947
 C335 C 0.95572 -0.08407 -0.14439
 C336 C 0.93609 -0.09767 -0.13754
 H337 H 0.83300 -0.16799 -0.27550
 H338 H 0.82436 -0.16655 0.20022
 H339 H 0.79354 -0.19576 0.17731
 H340 H 0.80234 -0.19714 -0.30151
 H341 H 0.91642 -0.07592 0.19411
 H342 H 0.95102 -0.05203 0.18338
 H343 H 0.96632 -0.08636 -0.24071
 H344 H 0.93199 -0.11039 -0.22747
 C345 C 0.32392 0.32628 0.31412
 C346 C 0.33053 0.33467 0.45520
 C347 C 0.31921 0.32670 0.58179
 C348 C 0.30153 0.31012 0.56755
 C349 C 0.29500 0.30125 0.42626
 C350 C 0.30628 0.30970 0.29957
 C351 C 0.34943 0.35074 0.46970
 C352 C 0.36554 0.36382 0.47952
 C353 C 0.38468 0.37876 0.48822
 C354 C 0.40121 0.39123 0.49313
 C355 C 0.42115 0.40581 0.49575
 C356 C 0.44106 0.39540 0.54513
 C357 C 0.46068 0.40912 0.54074
 C358 C 0.46062 0.43345 0.48662
 C359 C 0.44045 0.44388 0.43942
 C360 C 0.42087 0.43012 0.44382
 H361 H 0.33259 0.33230 0.21540
 H362 H 0.32423 0.33305 0.69157
 H363 H 0.29321 0.30395 0.66723
 H364 H 0.30168 0.30325 0.18924
 H365 H 0.44147 0.37660 0.58558
 H366 H 0.47588 0.40071 0.57962
 H367 H 0.43994 0.46245 0.39549
 H368 H 0.40557 0.43831 0.40461
 C369 C 0.17924 0.67262 -0.18087
 C370 C 0.16826 0.66340 -0.30709
 C371 C 0.17434 0.67160 -0.44847
 C372 C 0.19121 0.68912 -0.46365
 C373 C 0.20220 0.69870 -0.33731
 C374 C 0.19612 0.69014 -0.19573
 C375 C 0.15026 0.64618 -0.29105
 C376 C 0.13490 0.63215 -0.27669
 C377 C 0.11658 0.61626 -0.25834
 C378 C 0.10062 0.60321 -0.24089
 C379 C 0.08118 0.58833 -0.21745
 C380 C 0.06149 0.59388 -0.29261
 C381 C 0.04211 0.58080 -0.26150
 C382 C 0.04216 0.56198 -0.15442
 C383 C 0.06218 0.55605 -0.08255
 C384 C 0.08155 0.56919 -0.11370
 H385 H 0.17462 0.66646 -0.07083
 H386 H 0.16590 0.66464 -0.54689
 H387 H 0.19549 0.69530 -0.57420
 H388 H 0.20424 0.69713 -0.09630
 H389 H 0.06102 0.60865 -0.37322
 H390 H 0.02702 0.58555 -0.32005
 H391 H 0.06267 0.54184 0.00148
 H392 H 0.09668 0.56482 -0.05439
 C393 C 0.67928 1.17339 0.31784
 C394 C 0.66770 1.16415 0.19423
 C395 C 0.67341 1.17192 0.05133
 C396 C 0.69046 1.18909 0.03195
 C397 C 0.70208 1.19883 0.15575
 C398 C 0.69635 1.19056 0.29905
 C399 C 0.64948 1.14735 0.21456
 C400 C 0.63397 1.13366 0.23262
 C401 C 0.61552 1.11812 0.25535
 C402 C 0.59952 1.10530 0.27654
 C403 C 0.58014 1.09056 0.30442
 C404 C 0.56028 1.09570 0.23017
 C405 C 0.54104 1.08255 0.26436
 C406 C 0.54141 1.06408 0.37358
 C407 C 0.56158 1.05864 0.44503
 C408 C 0.58080 1.07184 0.41080
 H409 H 0.67496 1.16753 0.42905
 H410 H 0.66451 1.16492 -0.04514
 H411 H 0.69433 1.19488 -0.08012
 H412 H 0.70484 1.19751 0.39724
 H413 H 0.55958 1.11013 0.14751
 H414 H 0.52583 1.08692 0.20606
 H415 H 0.56233 1.04472 0.53073
 H416 H 0.59606 1.06778 0.46943
 C417 C 0.17912 0.32679 0.17166
 C418 C 0.16740 0.33575 0.29522
 C419 C 0.17310 0.32782 0.43808
 C420 C 0.19028 0.31076 0.45724
 C421 C 0.20196 0.30137 0.33343
 C422 C 0.19630 0.30973 0.19047
 C423 C 0.14898 0.35229 0.27431
 C424 C 0.13327 0.36564 0.25432
 C425 C 0.11455 0.38064 0.22764
 C426 C 0.09830 0.39285 0.20165
 C427 C 0.07858 0.40661 0.16637
 C428 C 0.07411 0.42931 0.23667
 C429 C 0.05482 0.44244 0.20126
 C430 C 0.03977 0.43293 0.09532
 C431 C 0.04449 0.41014 0.02529
 C432 C 0.06374 0.39710 0.06067
 H433 H 0.17480 0.33274 0.06050
 H434 H 0.16409 0.33458 0.53447
 H435 H 0.19423 0.30471 0.56874
 H436 H 0.20495 0.30288 0.09289
 H437 H 0.08548 0.43682 0.31897
 H438 H 0.05153 0.45981 0.25805
 H439 H 0.03341 0.40252 -0.05833
 H440 H 0.06706 0.37959 0.00524
 C441 C 0.67996 0.82730 0.68839
 C442 C 0.66853 0.83627 0.81314
 C443 C 0.67450 0.82828 0.95536
 C444 C 0.69168 0.81118 0.97278
 C445 C 0.70311 0.80181 0.84786
 C446 C 0.69715 0.81020 0.70547
 C447 C 0.65021 0.85304 0.79462
 C448 C 0.63462 0.86670 0.77795
 C449 C 0.61609 0.88222 0.75674
 C450 C 0.60003 0.89505 0.73683
 C451 C 0.58058 0.90980 0.71047
 C452 C 0.56087 0.90464 0.78598
 C453 C 0.54156 0.91781 0.75332
 C454 C 0.54170 0.93633 0.64439
 C455 C 0.56171 0.94179 0.57163
 C456 C 0.58101 0.92856 0.60433
 H457 H 0.67544 0.83331 0.57772
 H458 H 0.66572 0.83506 1.05267
 H459 H 0.69585 0.80511 1.08387
 H460 H 0.70560 0.80336 0.60706
 H461 H 0.56036 0.89017 0.86846
 H462 H 0.52647 0.91343 0.81257
 H463 H 0.56228 0.95575 0.48610
 H464 H 0.59614 0.93264 0.54472
 C465 C 0.81871 0.17284 -0.08988
 C466 C 0.82993 0.16489 0.03750
 C467 C 0.82314 0.17323 0.17812
 C468 C 0.80544 0.18976 0.19153
 C469 C 0.79427 0.19821 0.06413
 C470 C 0.80096 0.18939 -0.07677
 C471 C 0.84894 0.14893 0.02469
 C472 C 0.86518 0.13599 0.01758
 C473 C 0.88451 0.12131 0.01352
 C474 C 0.90126 0.10915 0.01382
 C475 C 0.92149 0.09508 0.01883
 C476 C 0.93591 0.09809 0.13979
 C477 C 0.95560 0.08458 0.14615
 C478 C 0.96118 0.06781 0.03140
 C479 C 0.94659 0.06487 -0.08993
 C480 C 0.92686 0.07846 -0.09614
 H481 H 0.82387 0.16654 -0.19934
 H482 H 0.83173 0.16723 0.27744
 H483 H 0.80071 0.19617 0.30159
 H484 H 0.79273 0.19556 -0.17697
 H485 H 0.93188 0.11085 0.22957
 H486 H 0.96634 0.08697 0.24197
 H487 H 0.95055 0.05230 -0.18065
 H488 H 0.91584 0.07604 -0.19052
 C489 C 0.32373 0.67425 0.69970
 C490 C 0.33086 0.66607 0.55950
 C491 C 0.31998 0.67421 0.43125
 C492 C 0.30223 0.69077 0.44307
 C493 C 0.29520 0.69943 0.58356
 C494 C 0.30603 0.69080 0.71183
 C495 C 0.34986 0.65007 0.54795
 C496 C 0.36607 0.63709 0.54141
 C497 C 0.38535 0.62233 0.53744
 C498 C 0.40204 0.61008 0.53723
 C499 C 0.42218 0.59585 0.54088
 C500 C 0.42735 0.57937 0.42478
 C501 C 0.44699 0.56563 0.42937
 C502 C 0.46170 0.56826 0.55023
 C503 C 0.45634 0.58489 0.66617
 C504 C 0.43672 0.59857 0.66141
 H505 H 0.33206 0.66810 0.79968
 H506 H 0.32540 0.66803 0.32213
 H507 H 0.29426 0.69708 0.34224
 H508 H 0.30103 0.69708 0.82161
 H509 H 0.41623 0.57718 0.33074
 H510 H 0.45078 0.55317 0.33775
 H511 H 0.46719 0.58705 0.76162
 H512 H 0.43286 0.61122 0.75205
   
