data_POSCAR
  _audit_creation_date              2014-09-24
  _audit_creation_method            'ToBaCCo'
  _symmetry_space_group_name_H-M    'P1'
  _symmetry_Int_Tables_number       1
  _symmetry_cell_setting            triclinic
  loop_
  _symmetry_equiv_pos_as_xyz
 x,y,z
_cell_length_a 27.2713
_cell_length_b 31.1380
_cell_length_c 30.7046
_cell_angle_alpha 87.089000
_cell_angle_beta 90.026400
_cell_angle_gamma 89.133100
loop_
  _atom_site_label
  _atom_site_type_symbol
  _atom_site_fract_x
  _atom_site_fract_y
  _atom_site_fract_z
C1 C 0.18556 1.23857 0.15327
 C2 C 0.22799 1.21341 0.14728
 C3 C 0.24091 1.18134 0.17817
 C4 C 0.21186 1.17387 0.21527
 C5 C 0.16987 1.19820 0.22100
 C6 C 0.15690 1.23103 0.18998
 C7 C 0.16405 1.27235 0.12915
 N8 N 0.12344 1.28580 0.15069
 C9 C 0.11886 1.26044 0.18783
 C10 C 0.14828 1.18294 0.25918
 N11 N 0.17658 1.15016 0.27690
 C12 C 0.21568 1.14462 0.25018
 C13 C 0.28262 1.16138 0.16374
 N14 N 0.29553 1.18046 0.12480
 C15 C 0.26248 1.21250 0.11450
 H16 H 0.17766 1.28649 0.09867
 H17 H 0.09020 1.26303 0.21193
 H18 H 0.11459 1.19504 0.27296
 H19 H 0.24448 1.12058 0.25502
 H20 H 0.30179 1.13455 0.18023
 H21 H 0.26272 1.23298 0.08496
 C22 C 0.80434 0.72259 0.22243
 C23 C 0.76361 0.74924 0.23007
 C24 C 0.76569 0.77928 0.26197
 C25 C 0.80799 0.78179 0.28788
 C26 C 0.84717 0.75429 0.28119
 C27 C 0.84575 0.72535 0.24788
 C28 C 0.81621 0.69642 0.18885
 N29 N 0.86425 0.68430 0.19298
 C30 C 0.88210 0.70136 0.22954
 C31 C 0.88413 0.76478 0.30871
 N32 N 0.86896 0.79835 0.33214
 C33 C 0.82236 0.80929 0.31937
 C34 C 0.72354 0.80419 0.25815
 N35 N 0.69590 0.78930 0.22557
 C36 C 0.71998 0.75589 0.20817
 H37 H 0.79283 0.68996 0.16153
 H38 H 0.91967 0.69900 0.24081
 H39 H 0.92019 0.74983 0.31001
 H40 H 0.80064 0.83542 0.33164
 H41 H 0.71429 0.83185 0.27667
 H42 H 0.70782 0.73928 0.18006
 C43 C 0.77470 1.25445 -0.19334
 C44 C 0.76748 1.21136 -0.18019
 C45 C 0.76420 1.18045 -0.21084
 C46 C 0.76949 1.19240 -0.25531
 C47 C 0.77558 1.23525 -0.26836
 C48 C 0.77811 1.26655 -0.23710
 C49 C 0.78363 1.29011 -0.17018
 N50 N 0.79254 1.32386 -0.19875
 C51 C 0.78876 1.30977 -0.23987
 C52 C 0.78415 1.23700 -0.31254
 N53 N 0.78510 1.19624 -0.32652
 C54 C 0.77565 1.16879 -0.29172
 C55 C 0.75741 1.14150 -0.18827
 N56 N 0.75715 1.14846 -0.14497
 C57 C 0.76377 1.19090 -0.13973
 H58 H 0.78508 1.29082 -0.13500
 H59 H 0.79591 1.32868 -0.26967
 H60 H 0.79315 1.26570 -0.33206
 H61 H 0.77556 1.13406 -0.29225
 H62 H 0.75300 1.11052 -0.20215
 H63 H 0.76453 1.20592 -0.10870
 C64 C 0.21438 0.76198 -0.18627
 C65 C 0.25184 0.78843 -0.17206
 C66 C 0.25468 0.83048 -0.18867
 C67 C 0.22063 0.84662 -0.21970
 C68 C 0.18447 0.82042 -0.23443
 C69 C 0.18156 0.77771 -0.21782
 C70 C 0.20020 0.72082 -0.17385
 N71 N 0.16007 0.71110 -0.19760
 C72 C 0.14887 0.74567 -0.22485
 C73 C 0.15584 0.84506 -0.26335
 N74 N 0.17375 0.88569 -0.26633
 C75 C 0.21356 0.88672 -0.23973
 C76 C 0.29363 0.84896 -0.16886
 N77 N 0.31503 0.81911 -0.14098
 C78 C 0.28971 0.78196 -0.14254
 H79 H 0.21757 0.69982 -0.14904
 H80 H 0.11777 0.74844 -0.24676
 H81 H 0.12384 0.83420 -0.28023
 H82 H 0.23569 0.91456 -0.23463
 H83 H 0.30582 0.88166 -0.17472
 H84 H 0.29798 0.75254 -0.12349
 C85 C 0.61467 1.03622 0.01831
 H86 H 0.60327 1.04301 0.05104
 C87 C 0.65428 1.05775 -0.00063
 H88 H 0.67282 1.08138 0.01780
 C89 C 0.60218 0.99855 -0.04584
 H90 H 0.58128 0.97576 -0.06337
 C91 C 0.64135 1.01992 -0.06637
 H92 H 0.65066 1.01320 -0.09964
 N93 N 0.58983 1.00701 -0.00418
 C94 C 0.47706 1.03049 0.08239
 H95 H 0.48759 1.00632 0.10726
 C96 C 0.44541 1.06415 0.09282
 H97 H 0.43210 1.06544 0.12591
 C98 C 0.48225 1.05838 0.00933
 H99 H 0.49671 1.05566 -0.02324
 C100 C 0.45077 1.09253 0.01830
 H101 H 0.44094 1.11556 -0.00790
 Zn102 Zn 0.53529 0.98208 0.02463
 N103 N 0.49404 1.02785 0.04099
 C104 C 0.60423 0.94473 0.08525
 N105 N 0.55603 0.94734 0.07384
 C106 C 0.52222 0.92190 0.09449
 C107 C 0.53671 0.89150 0.12720
 C108 C 0.62015 0.91530 0.11819
 C109 C 0.52124 0.90777 -0.02177
 C110 C 0.49435 0.87794 -0.04413
 C111 C 0.42602 0.92827 -0.04742
 C112 C 0.45387 0.95679 -0.02453
 N113 N 0.50052 0.94613 -0.01208
 H114 H 0.63086 0.96423 0.06781
 H115 H 0.48423 0.92416 0.08435
 H116 H 0.50954 0.87073 0.14250
 H117 H 0.65891 0.91278 0.12562
 H118 H 0.55816 0.89983 -0.01090
 H119 H 0.51121 0.84736 -0.05108
 H120 H 0.38862 0.93713 -0.05610
 H121 H 0.43749 0.98688 -0.01571
 C122 C 0.43140 1.09553 0.06041
 C123 C 0.66797 1.04986 -0.04356
 C124 C 0.44592 0.88798 -0.05690
 C125 C 0.58636 0.88757 0.13892
 C126 C -0.03438 0.59421 0.99898
 H127 H -0.00673 0.60388 0.97565
 C128 C -0.04673 0.62174 1.03176
 H129 H -0.02777 0.65191 1.03373
 C130 C -0.09087 0.54270 1.02679
 H131 H -0.10606 0.51085 1.02597
 C132 C -0.10520 0.56980 1.05965
 H133 H -0.13158 0.55880 1.08393
 N134 N -0.05387 0.55424 0.99897
 C135 C 0.03339 0.43554 0.99388
 H136 H 0.03617 0.43061 0.95934
 C137 C 0.05193 0.40425 1.02423
 H138 H 0.06881 0.37522 1.01282
 C139 C 0.00653 0.47857 1.05090
 H140 H -0.01035 0.50774 1.06155
 C141 C 0.02402 0.44817 1.08213
 H142 H 0.01999 0.45442 1.11632
 Zn143 Zn -0.02306 0.51023 0.96718
 N144 N 0.00948 0.47107 1.00770
 C145 C 0.06104 0.55820 0.94085
 N146 N 0.02365 0.53398 0.92671
 C147 C 0.01698 0.52882 0.88340
 C148 C 0.04378 0.55296 0.85253
 C149 C 0.08838 0.58351 0.91102
 C150 C -0.07870 0.43866 0.94283
 C151 C -0.10985 0.41693 0.91569
 C152 C -0.13041 0.48464 0.87776
 C153 C -0.09929 0.50516 0.90602
 N154 N -0.07243 0.48176 0.93640
 H155 H 0.06720 0.56041 0.97548
 H156 H -0.01052 0.50729 0.87244
 H157 H 0.03611 0.54949 0.81833
 H158 H 0.11506 0.60527 0.92325
 H159 H -0.05837 0.42070 0.96800
 H160 H -0.11222 0.38233 0.92008
 H161 H -0.14978 0.50359 0.85252
 H162 H -0.09438 0.53956 0.90215
 C163 C 0.04575 0.40991 1.06899
 C164 C -0.08082 0.60868 1.06362
 C165 C -0.13485 0.43977 0.88163
 C166 C 0.07796 0.58272 0.86621
 C167 C 1.03627 0.03210 0.58258
 H168 H 1.03055 0.06603 0.57446
 C169 C 1.06594 0.01888 0.61798
 H170 H 1.08214 0.04307 0.63729
 C171 C 1.02197 -0.04029 0.56674
 H172 H 1.00482 -0.06333 0.54672
 C173 C 1.05134 -0.05494 0.60185
 H174 H 1.05676 -0.08921 0.60783
 N175 N 1.01632 0.00260 0.55695
 C176 C 1.01159 0.06872 0.42839
 H177 H 0.97294 0.06778 0.42061
 C178 C 1.04469 0.08568 0.39753
 H179 H 1.03117 0.09786 0.36605
 C180 C 1.07649 0.05141 0.47784
 H181 H 1.08915 0.03685 0.50853
 C182 C 1.11080 0.06746 0.44780
 H183 H 1.14933 0.06600 0.45632
 Zn184 Zn 0.98286 0.02312 0.50569
 N185 N 1.02791 0.05203 0.46767
 C186 C 0.93280 0.10292 0.50918
 N187 N 0.93169 0.06063 0.52245
 C188 C 0.89772 0.04570 0.55166
 C189 C 0.86389 0.07402 0.56962
 C190 C 0.89960 0.13222 0.52607
 C191 C 0.99708 -0.04804 0.45897
 C192 C 0.98691 -0.08413 0.43597
 C193 C 0.90036 -0.06969 0.44530
 C194 C 0.91231 -0.03354 0.46847
 N195 N 0.96017 -0.02395 0.47527
 H196 H 0.96090 0.11451 0.48701
 H197 H 0.89815 0.01203 0.56226
 H198 H 0.83792 0.06166 0.59359
 H199 H 0.90292 0.16587 0.51620
 H200 H 1.03476 -0.03922 0.46421
 H201 H 1.01727 -0.10233 0.42317
 H202 H 0.86224 -0.07750 0.44060
 H203 H 0.88352 -0.01345 0.48114
 C204 C 1.09509 0.08434 0.40687
 C205 C 1.07486 -0.02520 0.62736
 C206 C 0.93812 -0.09580 0.42930
 C207 C 0.86516 0.11812 0.55744
 N208 N 0.03478 0.36926 1.14020
 N209 N 0.05608 0.33384 1.16281
 C210 C 0.09319 0.31947 1.13820
 C211 C 0.09615 0.34474 1.09954
 C212 C 0.05897 0.37559 1.10219
 H213 H 0.12194 0.34151 1.07311
 H214 H 0.00439 0.38651 1.15100
 H215 H 0.04484 0.32203 1.19355
 N216 N -0.04347 0.64100 1.12724
 N217 N -0.05888 0.66062 1.16467
 C218 C -0.10827 0.66346 1.16330
 C219 C -0.12549 0.64507 1.12583
 C220 C -0.08360 0.63166 1.10425
 H221 H -0.16310 0.64223 1.11526
 H222 H -0.00701 0.63409 1.11948
 H223 H -0.03516 0.67231 1.18780
 N224 N -0.16660 0.43044 0.80628
 N225 N -0.18595 0.39705 0.78331
 C226 C -0.19323 0.36371 0.81217
 C227 C -0.17939 0.37492 0.85360
 C228 C -0.16205 0.41659 0.84848
 H229 H -0.17884 0.35451 0.88316
 H230 H -0.15384 0.45923 0.79185
 H231 H -0.19151 0.39817 0.74964
 N232 N 0.07510 0.62755 0.79648
 N233 N 0.09731 0.66459 0.77920
 C234 C 0.13356 0.67436 0.80661
 C235 C 0.13577 0.64394 0.84143
 C236 C 0.09781 0.61557 0.83437
 H237 H 0.15923 0.64444 0.86980
 H238 H 0.04328 0.61480 0.78377
 H239 H 0.08588 0.68164 0.75076
 N240 N 1.17642 0.07932 0.37022
 N241 N 1.19892 0.09726 0.33299
 C242 C 1.16735 0.12651 0.31449
 C243 C 1.12445 0.12783 0.33891
 C244 C 1.13152 0.09762 0.37335
 H245 H 1.09192 0.14734 0.33215
 H246 H 1.19150 0.05444 0.39027
 H247 H 1.23399 0.08887 0.32246
 N248 N 1.14486 -0.01491 0.67855
 N249 N 1.17312 -0.04033 0.70795
 C250 C 1.15488 -0.08035 0.70895
 C251 C 1.11507 -0.08144 0.68076
 C252 C 1.11003 -0.03988 0.66216
 H253 H 1.09308 -0.10897 0.67417
 H254 H 1.15203 0.01720 0.66980
 H255 H 1.20310 -0.02933 0.72507
 N256 N 0.96057 -0.16788 0.40311
 N257 N 0.94136 -0.19728 0.37535
 C258 C 0.89707 -0.18212 0.36185
 C259 C 0.88671 -0.14327 0.38085
 C260 C 0.92795 -0.13515 0.40586
 H261 H 0.85495 -0.12248 0.37528
 H262 H 0.99460 -0.17151 0.41855
 H263 H 0.95930 -0.22559 0.36722
 N264 N 0.82686 0.19103 0.56533
 N265 N 0.80507 0.21321 0.59874
 C266 C 0.79900 0.18493 0.63292
 C267 C 0.81578 0.14443 0.62212
 C268 C 0.83416 0.14979 0.57991
 H269 H 0.81923 0.11601 0.64372
 H270 H 0.83742 0.20533 0.53540
 H271 H 0.79720 0.24616 0.59709
 N272 N 0.38733 1.16632 0.04475
 N273 N 0.35118 1.18869 0.06182
 C274 C 0.33595 1.16728 0.09838
 C275 C 0.36344 1.12982 0.10507
 C276 C 0.39567 1.13019 0.07014
 H277 H 0.35913 1.10502 0.13067
 H278 H 0.40563 1.17599 0.01615
 H279 H 0.33733 1.21784 0.04831
 N280 N 0.74395 1.09370 -0.04270
 N281 N 0.76795 1.11982 -0.07003
 C282 C 0.74834 1.11742 -0.11000
 C283 C 0.71022 1.08853 -0.10837
 C284 C 0.70810 1.07463 -0.06470
 H285 H 0.68421 1.08266 -0.13394
 H286 H 0.75095 1.09062 -0.00924
 H287 H 0.79556 1.14045 -0.06091
 N288 N 0.42109 0.81325 -0.07384
 N289 N 0.38566 0.79498 -0.09542
 C290 C 0.35724 0.82625 -0.11452
 C291 C 0.37497 0.86599 -0.10479
 C292 C 0.41551 0.85641 -0.07867
 H293 H 0.36009 0.89734 -0.11482
 H294 H 0.44773 0.79623 -0.05530
 H295 H 0.38134 0.76183 -0.09689
 N296 N 0.58386 0.81265 0.17173
 N297 N 0.61343 0.78621 0.19469
 C298 C 0.65178 0.80870 0.20820
 C299 C 0.64709 0.85105 0.19295
 C300 C 0.60355 0.85222 0.16941
 H301 H 0.67390 0.87612 0.19508
 H302 H 0.55282 0.80281 0.15521
 H303 H 0.60869 0.75305 0.19894
   
