data_POSCAR
  _audit_creation_date              2014-09-24
  _audit_creation_method            'ToBaCCo'
  _symmetry_space_group_name_H-M    'P1'
  _symmetry_Int_Tables_number       1
  _symmetry_cell_setting            triclinic
  loop_
  _symmetry_equiv_pos_as_xyz
 x,y,z
_cell_length_a 34.8042
_cell_length_b 34.8162
_cell_length_c 34.8322
_cell_angle_alpha 90.103600
_cell_angle_beta 90.127100
_cell_angle_gamma 89.891600
loop_
  _atom_site_label
  _atom_site_type_symbol
  _atom_site_fract_x
  _atom_site_fract_y
  _atom_site_fract_z
N1 N 0.18459 0.18641 0.18387
 N2 N -0.18192 0.81623 0.18564
 N3 N -0.18720 0.18272 -0.18470
 N4 N 0.18391 0.81506 -0.18398
 N5 N 0.18435 1.18276 0.81904
 N6 N 0.81589 0.81770 0.81355
 N7 N 0.18273 0.81419 1.18415
 N8 N 0.81544 1.18503 1.18463
 O9 O 0.44555 0.92731 0.93579
 O10 O 0.40360 0.96428 0.97063
 C11 C 0.41104 0.93743 0.94590
 O12 O 0.55420 0.93152 1.07240
 O13 O 0.59580 0.96625 1.03522
 C14 C 0.58863 0.94149 1.06199
 O15 O 0.44591 0.92783 1.06897
 O16 O 0.40382 0.96453 1.03396
 C17 C 0.41133 0.93786 1.05881
 O18 O 0.55370 0.93103 0.93192
 O19 O 0.59561 0.96611 0.96869
 C20 C 0.58821 0.94114 0.94205
 Zr21 Zr 0.49963 0.94909 0.95366
 O22 O 0.50416 0.88844 0.95388
 O23 O 0.49503 0.94893 0.89304
 Zr24 Zr 0.49994 0.94955 1.05091
 O25 O 0.50439 0.88890 1.05129
 O26 O 0.49581 0.95028 1.11155
 O27 O 0.46563 0.94174 1.00234
 O28 O 0.53311 0.94230 1.00224
 O29 O 0.55317 1.06453 0.93189
 O30 O 0.59537 1.03036 0.96923
 C31 C 0.58775 1.05495 0.94236
 O32 O 0.44559 1.06835 1.06859
 O33 O 0.40363 1.03125 1.03388
 C34 C 0.41107 1.05815 1.05857
 O35 O 0.55380 1.06496 1.07201
 O36 O 0.59566 1.02991 1.03517
 C37 C 0.58830 1.05496 1.06175
 O38 O 0.44507 1.06773 0.93541
 O39 O 0.40334 1.03106 0.97052
 C40 C 0.41062 1.05770 0.94563
 Zr41 Zr 0.49927 1.04622 0.95341
 O42 O 0.50328 1.10688 0.95305
 O43 O 0.49476 1.04551 0.89279
 Zr44 Zr 0.49965 1.04662 1.05063
 O45 O 0.50374 1.10728 1.05075
 O46 O 0.49553 1.04640 1.11127
 Zr47 Zr 0.44266 0.99781 1.00220
 Zr48 Zr 0.55662 0.99793 1.00201
 O49 O 0.53270 1.05350 1.00196
 O50 O 0.46526 1.05394 1.00205
 O51 O 0.53369 0.99769 0.94594
 O52 O 0.46642 0.99808 1.05780
 O53 O 0.46605 0.99758 0.94657
 O54 O 0.53411 0.99816 1.05817
 H55 H 0.55064 0.91985 1.00223
 H56 H 0.44895 0.99815 1.08022
 H57 H 0.54996 1.07609 1.00197
 H58 H 0.44844 0.99747 0.92418
 H59 H 0.51766 0.96550 1.12147
 H60 H 0.51748 1.03134 1.12127
 H61 H 0.48254 1.11727 1.03465
 H62 H 0.48210 1.11697 0.96906
 H63 H 0.51672 1.03049 0.88279
 H64 H 0.51634 0.96468 0.88293
 H65 H 0.48279 0.87843 0.96960
 H66 H 0.48323 0.87875 1.03525
 O67 O 0.06799 0.44507 -0.06898
 O68 O 0.03034 0.40348 -0.03475
 C69 C 0.05732 0.41065 -0.05930
 O70 O 0.06430 0.55378 0.06779
 O71 O 0.02964 0.59571 0.03064
 C72 C 0.05432 0.58828 0.05757
 O73 O 0.06771 0.44573 0.06443
 O74 O 0.03087 0.40373 0.02952
 C75 C 0.05747 0.41122 0.05453
 O76 O 0.06460 0.55331 -0.07273
 O77 O 0.02958 0.59548 -0.03616
 C78 C 0.05445 0.58788 -0.06277
 Zr79 Zr 0.04665 0.49937 -0.05091
 O80 O 0.10733 0.50350 -0.04986
 O81 O 0.04740 0.49491 -0.11151
 Zr82 Zr 0.04630 0.49974 0.04607
 O83 O 0.10698 0.50387 0.04594
 O84 O 0.04640 0.49571 0.10671
 O85 O 0.05388 0.46521 -0.00231
 O86 O 0.05355 0.53293 -0.00246
 O87 O -0.06885 0.55382 -0.07311
 O88 O -0.03449 0.59564 -0.03556
 C89 C -0.05901 0.58831 -0.06264
 O90 O -0.07247 0.44606 0.06407
 O91 O -0.03510 0.40395 0.02987
 C92 C -0.06194 0.41149 0.05451
 O93 O -0.06872 0.55428 0.06719
 O94 O -0.03362 0.59595 0.03040
 C95 C -0.05845 0.58870 0.05712
 O96 O -0.07225 0.44559 -0.06968
 O97 O -0.03492 0.40376 -0.03506
 C98 C -0.06175 0.41111 -0.05985
 Zr99 Zr -0.05076 0.49970 -0.05145
 O100 O -0.11143 0.50413 -0.05146
 O101 O -0.05063 0.49531 -0.11207
 Zr102 Zr -0.05108 0.50002 0.04556
 O103 O -0.11175 0.50455 0.04437
 O104 O -0.05200 0.49608 0.10619
 Zr105 Zr -0.00233 0.44273 -0.00251
 Zr106 Zr -0.00208 0.55663 -0.00281
 O107 O -0.05780 0.53324 -0.00300
 O108 O -0.05849 0.46554 -0.00291
 O109 O -0.00199 0.53367 -0.05884
 O110 O -0.00243 0.46670 0.05298
 O111 O -0.00210 0.46632 -0.05813
 O112 O -0.00235 0.53403 0.05330
 H113 H 0.07597 0.55042 -0.00239
 H114 H -0.00242 0.44948 0.07560
 H115 H -0.08027 0.55077 -0.00301
 H116 H -0.00206 0.44899 -0.08072
 H117 H 0.03035 0.51696 0.11667
 H118 H -0.03519 0.51661 0.11633
 H119 H -0.12171 0.48216 0.02996
 H120 H -0.12148 0.48258 -0.03600
 H121 H -0.03499 0.51676 -0.12205
 H122 H 0.03072 0.51554 -0.12172
 H123 H 0.11724 0.48131 -0.03514
 H124 H 0.11700 0.48205 0.03071
 O125 O 1.07298 -0.06402 0.55449
 O126 O 1.03598 -0.02914 0.59636
 C127 C 1.06276 -0.05399 0.58896
 O128 O 1.06941 0.07308 0.44677
 O129 O 1.03460 0.03617 0.40473
 C130 C 1.05944 0.06283 0.41224
 O131 O 1.07272 0.06942 0.55501
 O132 O 1.03592 0.03424 0.59657
 C133 C 1.06261 0.05913 0.58941
 O134 O 1.06966 -0.06750 0.44638
 O135 O 1.03487 -0.03041 0.40452
 C136 C 1.05973 -0.05718 0.41190
 Zr137 Zr 1.05141 -0.04592 0.50043
 O138 O 1.11209 -0.04594 0.49639
 O139 O 1.05125 -0.10658 0.50457
 Zr140 Zr 1.05127 0.05139 0.50074
 O141 O 1.11195 0.05132 0.49672
 O142 O 1.05097 0.11204 0.50522
 O143 O 1.05881 0.00269 0.53476
 O144 O 1.05845 0.00278 0.46733
 O145 O 0.93631 -0.06739 0.44595
 O146 O 0.97118 -0.03046 0.40425
 C147 C 0.94632 -0.05714 0.41153
 O148 O 0.93214 0.06909 0.55433
 O149 O 0.96914 0.03428 0.59630
 C150 C 0.94221 0.05895 0.58882
 O151 O 0.93572 0.07275 0.44624
 O152 O 0.97036 0.03547 0.40443
 C153 C 0.94550 0.06225 0.41177
 O154 O 0.93251 -0.06393 0.55396
 O155 O 0.96922 -0.02907 0.59613
 C156 C 0.94250 -0.05387 0.58852
 Zr157 Zr 0.95429 -0.04589 0.50009
 O158 O 0.89362 -0.04605 0.49554
 O159 O 0.95473 -0.10655 0.50427
 Zr160 Zr 0.95411 0.05138 0.50033
 O161 O 0.89345 0.05196 0.49587
 O162 O 0.95474 0.11203 0.50485
 Zr163 Zr 1.00265 0.00266 0.55731
 Zr164 Zr 1.00287 0.00283 0.44345
 O165 O 0.94721 0.00276 0.46696
 O166 O 0.94658 0.00271 0.53431
 O167 O 1.00291 -0.05334 0.46600
 O168 O 1.00260 0.05833 0.53392
 O169 O 1.00280 -0.05295 0.53359
 O170 O 1.00272 0.05895 0.46629
 H171 H 1.08095 0.00280 0.44996
 H172 H 1.00250 0.08071 0.55153
 H173 H 0.92466 0.00268 0.44956
 H174 H 1.00278 -0.07540 0.55103
 H175 H 1.03523 0.12207 0.48377
 H176 H 0.96929 0.12205 0.48267
 H177 H 0.88333 0.03534 0.51649
 H178 H 0.88346 -0.03021 0.51683
 H179 H 0.97008 -0.11656 0.48257
 H180 H 1.03585 -0.11658 0.48287
 H181 H 1.12206 -0.03010 0.51778
 H182 H 1.12197 0.03565 0.51819
 C183 C 1.13341 0.13513 0.28238
 C184 C 1.14718 0.11219 0.25212
 C185 C 1.16435 0.12897 0.22010
 C186 C 1.16806 0.16903 0.21760
 C187 C 1.15469 0.19199 0.24798
 C188 C 1.13761 0.17521 0.28012
 C189 C 1.11413 0.11723 0.31580
 C190 C 1.12178 0.12992 0.35337
 C191 C 1.10392 0.11248 0.38477
 C192 C 1.07789 0.08213 0.37919
 C193 C 1.06997 0.06981 0.34151
 C194 C 1.08791 0.08712 0.31023
 H195 H 1.17424 0.11071 0.19693
 H196 H 1.15739 0.22293 0.24667
 H197 H 1.11068 0.12266 0.41338
 H198 H 1.05001 0.04659 0.33606
 H199 H 1.12698 0.19361 0.30284
 H200 H 1.14210 0.15288 0.35852
 H201 H 1.14477 0.08121 0.25328
 H202 H 1.08099 0.07713 0.28158
 C203 C 0.87166 -0.13077 0.28230
 C204 C 0.85745 -0.10835 0.25188
 C205 C 0.83952 -0.12569 0.22043
 C206 C 0.83550 -0.16577 0.21871
 C207 C 0.84946 -0.18819 0.24918
 C208 C 0.86731 -0.17087 0.28072
 C209 C 0.89119 -0.11235 0.31543
 C210 C 0.88379 -0.12465 0.35308
 C211 C 0.90184 -0.10692 0.38429
 C212 C 0.92779 -0.07659 0.37850
 C213 C 0.93544 -0.06457 0.34075
 C214 C 0.91729 -0.08221 0.30960
 H215 H 0.82920 -0.10786 0.19713
 H216 H 0.84657 -0.21914 0.24844
 H217 H 0.89526 -0.11688 0.41296
 H218 H 0.95532 -0.04134 0.33519
 H219 H 0.87829 -0.18889 0.30357
 H220 H 0.86352 -0.14757 0.35845
 H221 H 0.86000 -0.07737 0.25253
 H222 H 0.92396 -0.07248 0.28087
 C223 C 0.86485 0.12962 0.71796
 C224 C 0.86000 0.16969 0.71939
 C225 C 0.84269 0.18705 0.75117
 C226 C 0.82976 0.16470 0.78204
 C227 C 0.83424 0.12463 0.78046
 C228 C 0.85163 0.10726 0.74877
 C229 C 0.88421 0.11123 0.68476
 C230 C 0.91103 0.08159 0.69057
 C231 C 0.92975 0.06460 0.65944
 C232 C 0.92199 0.07678 0.62173
 C233 C 0.89495 0.10628 0.61591
 C234 C 0.87634 0.12337 0.64710
 H235 H 0.83941 0.21798 0.75178
 H236 H 0.82471 0.10685 0.80406
 H237 H 0.95039 0.04197 0.66501
 H238 H 0.88824 0.11632 0.58726
 H239 H 0.85460 0.07630 0.74828
 H240 H 0.91803 0.07195 0.71929
 H241 H 0.87026 0.18767 0.69627
 H242 H 0.85548 0.14586 0.64174
 C243 C 1.13605 -0.12831 0.71848
 C244 C 1.13958 -0.16853 0.71911
 C245 C 1.15547 -0.18706 0.75098
 C246 C 1.16827 -0.16574 0.78276
 C247 C 1.16513 -0.12553 0.78200
 C248 C 1.14913 -0.10700 0.75022
 C249 C 1.11808 -0.10870 0.68519
 C250 C 1.09182 -0.07857 0.69095
 C251 C 1.07410 -0.06067 0.65972
 C252 C 1.08237 -0.07239 0.62196
 C253 C 1.10899 -0.10227 0.61620
 C254 C 1.12657 -0.12029 0.64749
 H255 H 1.15776 -0.21808 0.75094
 H256 H 1.17463 -0.10855 0.80628
 H257 H 1.05371 -0.03780 0.66526
 H258 H 1.11606 -0.11199 0.58752
 H259 H 1.14713 -0.07596 0.75038
 H260 H 1.08437 -0.06932 0.71969
 H261 H 1.12938 -0.18572 0.69525
 H262 H 1.14703 -0.14316 0.64219
 C263 C 0.28166 1.13416 1.13035
 C264 C 0.28062 1.13911 1.17041
 C265 C 0.24887 1.15636 1.18793
 C266 C 0.21766 1.16914 1.16574
 C267 C 0.21880 1.16446 1.12571
 C268 C 0.25045 1.14713 1.10819
 C269 C 0.31492 1.11507 1.11176
 C270 C 0.30910 1.08815 1.08224
 C271 C 0.34030 1.06980 1.06495
 C272 C 0.37809 1.07806 1.07667
 C273 C 0.38391 1.10519 1.10606
 C274 C 0.35265 1.12342 1.12348
 H275 H 0.24858 1.15979 1.21882
 H276 H 0.19495 1.17388 1.10806
 H277 H 0.33471 1.04902 1.04245
 H278 H 0.41262 1.11226 1.11577
 H279 H 0.25063 1.14407 1.07725
 H280 H 0.28033 1.08079 1.07293
 H281 H 0.30407 1.12904 1.18824
 H282 H 0.35800 1.14437 1.14587
 C283 C 0.28160 0.86304 0.87242
 C284 C 0.28066 0.85968 0.83220
 C285 C 0.24878 0.84368 0.81377
 C286 C 0.21729 0.83059 0.83516
 C287 C 0.21838 0.83352 0.87537
 C288 C 0.25019 0.84963 0.89382
 C289 C 0.31489 0.88122 0.89190
 C290 C 0.30911 0.90727 0.92219
 C291 C 0.34032 0.92528 0.93986
 C292 C 0.37807 0.91753 0.92775
 C293 C 0.38387 0.89107 0.89775
 C294 C 0.35260 0.87320 0.87996
 H295 H 0.24856 0.84157 0.78275
 H296 H 0.19431 0.82382 0.89241
 H297 H 0.33477 0.94548 0.96288
 H298 H 0.41255 0.88438 0.88774
 H299 H 0.25028 0.85149 0.92485
 H300 H 0.28035 0.91436 0.93171
 H301 H 0.30425 0.87014 0.81495
 H302 H 0.35793 0.85290 0.85699
 C303 C 0.71936 0.86789 1.13430
 C304 C 0.74963 0.85412 1.11140
 C305 C 0.78175 0.83684 1.12820
 C306 C 0.78432 0.83302 1.16824
 C307 C 0.75397 0.84646 1.19116
 C308 C 0.72174 0.86364 1.17436
 C309 C 0.68575 0.88710 1.11638
 C310 C 0.69103 0.91328 1.08623
 C311 C 0.65953 0.93113 1.06892
 C312 C 0.62193 0.92315 1.08125
 C313 C 0.61665 0.89715 1.11163
 C314 C 0.64825 0.87939 1.12907
 H315 H 0.80490 0.82691 1.10998
 H316 H 0.75534 0.84367 1.22208
 H317 H 0.66475 0.95107 1.04567
 H318 H 0.58810 0.89035 1.12183
 H319 H 0.69902 0.87428 1.19273
 H320 H 0.71961 0.92024 1.07623
 H321 H 0.74839 0.85658 1.08044
 H322 H 0.64332 0.85909 1.15205
 C323 C 0.71629 1.12981 0.86861
 C324 C 0.71768 1.13399 0.82851
 C325 C 0.74915 1.15163 0.81108
 C326 C 0.77976 1.16556 0.83340
 C327 C 0.77822 1.16175 0.87349
 C328 C 0.74683 1.14403 0.89092
 C329 C 0.68332 1.11035 0.88713
 C330 C 0.68944 1.08439 0.91737
 C331 C 0.65846 1.06621 0.93505
 C332 C 0.62058 1.07367 0.92297
 C333 C 0.61449 1.09951 0.89257
 C334 C 0.64553 1.11760 0.87481
 H335 H 0.74975 1.15437 0.78013
 H336 H 0.80162 1.17204 0.89125
 H337 H 0.66426 1.04642 0.95832
 H338 H 0.58571 1.10594 0.88256
 H339 H 0.74634 1.14162 0.92191
 H340 H 0.71827 1.07783 0.92712
 H341 H 0.69475 1.12299 0.81056
 H342 H 0.63993 1.13775 0.85181
 C343 C 0.13116 0.28273 0.13024
 C344 C 0.17129 0.28122 0.13455
 C345 C 0.18875 0.24983 0.15248
 C346 C 0.16643 0.21943 0.16656
 C347 C 0.12630 0.22109 0.16263
 C348 C 0.10883 0.25241 0.14461
 C349 C 0.11262 0.31566 0.11053
 C350 C 0.08237 0.30955 0.08448
 C351 C 0.06472 0.34052 0.06605
 C352 C 0.07686 0.37835 0.07337
 C353 C 0.10727 0.38442 0.09932
 C354 C 0.12500 0.35340 0.11764
 H355 H 0.21973 0.24912 0.15529
 H356 H 0.10856 0.19784 0.17303
 H357 H 0.04142 0.33477 0.04621
 H358 H 0.11732 0.41316 0.10565
 H359 H 0.07782 0.25300 0.14210
 H360 H 0.07258 0.28074 0.07805
 H361 H 0.18924 0.30399 0.12344
 H362 H 0.14800 0.35898 0.13786
 C363 C -0.13488 0.28096 -0.13337
 C364 C -0.11224 0.25044 -0.14713
 C365 C -0.12936 0.21847 -0.16426
 C366 C -0.16948 0.21629 -0.16795
 C367 C -0.19214 0.24687 -0.15451
 C368 C -0.17502 0.27895 -0.13745
 C369 C -0.11661 0.31443 -0.11432
 C370 C -0.12924 0.35201 -0.12200
 C371 C -0.11158 0.38347 -0.10428
 C372 C -0.08103 0.37797 -0.07837
 C373 C -0.06869 0.34029 -0.07049
 C374 C -0.08623 0.30894 -0.08828
 H375 H -0.11134 0.19512 -0.17420
 H376 H -0.22312 0.24581 -0.15719
 H377 H -0.12180 0.41207 -0.11101
 H378 H -0.04531 0.33492 -0.05062
 H379 H -0.19320 0.30187 -0.12681
 H380 H -0.15238 0.35711 -0.14219
 H381 H -0.08123 0.25138 -0.14479
 H382 H -0.07625 0.28029 -0.08136
 C383 C 0.12789 0.71719 -0.13659
 C384 C 0.16814 0.71819 -0.13970
 C385 C 0.18646 0.75013 -0.15549
 C386 C 0.16492 0.78163 -0.16861
 C387 C 0.12468 0.78047 -0.16596
 C388 C 0.10635 0.74860 -0.15007
 C389 C 0.10850 0.68390 -0.11854
 C390 C 0.07807 0.68971 -0.09274
 C391 C 0.06039 0.65854 -0.07490
 C392 C 0.07266 0.62077 -0.08254
 C393 C 0.10282 0.61494 -0.10871
 C394 C 0.12061 0.64619 -0.12644
 H395 H 0.21750 0.75039 -0.15741
 H396 H 0.10750 0.80452 -0.17570
 H397 H 0.03724 0.66413 -0.05492
 H398 H 0.11294 0.58625 -0.11530
 H399 H 0.07528 0.74847 -0.14842
 H400 H 0.06841 0.71846 -0.08574
 H401 H 0.18551 0.69459 -0.12918
 H402 H 0.14371 0.64084 -0.14653
 C403 C -0.12915 0.71865 0.13341
 C404 C -0.10671 0.74950 0.14662
 C405 C -0.12397 0.78130 0.16398
 C406 C -0.16404 0.78296 0.16844
 C407 C -0.18650 0.75209 0.15545
 C408 C -0.16923 0.72020 0.13817
 C409 C -0.11084 0.68525 0.11424
 C410 C -0.12300 0.64766 0.12224
 C411 C -0.10588 0.61626 0.10392
 C412 C -0.07632 0.62182 0.07704
 C413 C -0.06414 0.65947 0.06913
 C414 C -0.08116 0.69080 0.08756
 H415 H -0.10611 0.80489 0.17357
 H416 H -0.21742 0.75276 0.15871
 H417 H -0.11593 0.58767 0.11073
 H418 H -0.04148 0.66485 0.04859
 H419 H -0.18729 0.69704 0.12791
 H420 H -0.14552 0.64250 0.14300
 H421 H -0.07574 0.74893 0.14372
 H422 H -0.07150 0.71946 0.08046
 C423 C 1.13657 0.13042 0.72054
 C424 C 1.15261 0.10800 0.74996
 C425 C 1.16880 0.12530 0.78237
 C426 C 1.16920 0.16567 0.78651
 C427 C 1.15325 0.18798 0.75660
 C428 C 1.13732 0.17059 0.72406
 C429 C 1.11830 0.11188 0.68672
 C430 C 1.09412 0.08002 0.69158
 C431 C 1.07623 0.06289 0.65999
 C432 C 1.08228 0.07706 0.62269
 C433 C 1.10680 0.10872 0.61778
 C434 C 1.12448 0.12606 0.64949
 H435 H 1.18000 0.10694 0.80484
 H436 H 1.15360 0.21904 0.75815
 H437 H 1.05755 0.03855 0.66487
 H438 H 1.11207 0.12037 0.58947
 H439 H 1.12494 0.18859 0.70191
 H440 H 1.08846 0.06873 0.71996
 H441 H 1.15268 0.07696 0.74788
 H442 H 1.14327 0.15037 0.64487
 C443 C 0.86691 -0.12694 0.71711
 C444 C 0.86282 -0.16710 0.71785
 C445 C 0.84590 -0.18520 0.74934
 C446 C 0.83261 -0.16352 0.78065
 C447 C 0.83638 -0.12337 0.77981
 C448 C 0.85340 -0.10527 0.74840
 C449 C 0.88570 -0.10778 0.68408
 C450 C 0.91195 -0.07775 0.69016
 C451 C 0.93022 -0.06016 0.65916
 C452 C 0.92256 -0.07211 0.62131
 C453 C 0.89601 -0.10192 0.61523
 C454 C 0.87787 -0.11961 0.64628
 H455 H 0.84318 -0.21617 0.74937
 H456 H 0.82656 -0.10609 0.80374
 H457 H 0.95049 -0.03730 0.66494
 H458 H 0.88938 -0.11180 0.58648
 H459 H 0.85579 -0.07426 0.74847
 H460 H 0.91890 -0.06830 0.71898
 H461 H 0.87332 -0.18459 0.69436
 H462 H 0.85743 -0.14236 0.64069
 C463 C 1.13256 -0.13173 0.28208
 C464 C 1.14656 -0.10960 0.25143
 C465 C 1.16339 -0.12729 0.21958
 C466 C 1.16650 -0.16747 0.21765
 C467 C 1.15284 -0.18960 0.24838
 C468 C 1.13611 -0.17192 0.28032
 C469 C 1.11382 -0.11291 0.31545
 C470 C 1.12133 -0.12543 0.35307
 C471 C 1.10377 -0.10746 0.38443
 C472 C 1.07814 -0.07669 0.37881
 C473 C 1.07046 -0.06439 0.34111
 C474 C 1.08813 -0.08225 0.30984
 H475 H 1.17351 -0.10966 0.19613
 H476 H 1.15506 -0.22061 0.24753
 H477 H 1.11035 -0.11765 0.41305
 H478 H 1.05084 -0.04083 0.33565
 H479 H 1.12527 -0.18973 0.30332
 H480 H 1.14127 -0.14877 0.35829
 H481 H 1.14463 -0.07857 0.25216
 H482 H 1.08134 -0.07232 0.28117
 C483 C 0.86977 0.13408 0.28205
 C484 C 0.86485 0.17411 0.27996
 C485 C 0.84683 0.19078 0.24816
 C486 C 0.83320 0.16776 0.21792
 C487 C 0.83777 0.12774 0.22017
 C488 C 0.85588 0.11108 0.25186
 C489 C 0.88962 0.11629 0.31535
 C490 C 0.91600 0.08622 0.30973
 C491 C 0.93435 0.06901 0.34098
 C492 C 0.92670 0.08138 0.37867
 C493 C 0.90052 0.11168 0.38428
 C494 C 0.88225 0.12900 0.35295
 H495 H 0.84351 0.22168 0.24704
 H496 H 0.82773 0.10944 0.19709
 H497 H 0.95441 0.04582 0.33552
 H498 H 0.89394 0.12192 0.41290
 H499 H 0.85883 0.08013 0.25286
 H500 H 0.92270 0.07618 0.28107
 H501 H 0.87556 0.19258 0.30261
 H502 H 0.86181 0.15189 0.35818
 C503 C 0.13135 0.28025 -0.13187
 C504 C 0.10914 0.25132 -0.14910
 C505 C 0.12666 0.21927 -0.16579
 C506 C 0.16703 0.21503 -0.16552
 C507 C 0.18912 0.24448 -0.14841
 C508 C 0.17152 0.27663 -0.13196
 C509 C 0.11257 0.31377 -0.11330
 C510 C 0.12701 0.35107 -0.11848
 C511 C 0.10913 0.38258 -0.10101
 C512 C 0.07658 0.37741 -0.07775
 C513 C 0.06233 0.34001 -0.07242
 C514 C 0.08005 0.30861 -0.09007
 H515 H 0.10846 0.19714 -0.17790
 H516 H 0.22019 0.24285 -0.14819
 H517 H 0.12086 0.41097 -0.10571
 H518 H 0.03732 0.33493 -0.05472
 H519 H 0.18936 0.29841 -0.11870
 H520 H 0.15185 0.35592 -0.13648
 H521 H 0.07810 0.25350 -0.14972
 H522 H 0.06857 0.28015 -0.08517
 C523 C -0.13367 0.28225 0.13041
 C524 C -0.17371 0.28017 0.13520
 C525 C -0.19035 0.24844 0.15320
 C526 C -0.16730 0.21828 0.16694
 C527 C -0.12728 0.22053 0.16252
 C528 C -0.11064 0.25214 0.14443
 C529 C -0.11591 0.31544 0.11052
 C530 C -0.08585 0.30963 0.08430
 C531 C -0.06867 0.34076 0.06589
 C532 C -0.08107 0.37852 0.07335
 C533 C -0.11138 0.38432 0.09937
 C534 C -0.12866 0.35310 0.11769
 H535 H -0.22127 0.24733 0.15640
 H536 H -0.10894 0.19750 0.17265
 H537 H -0.04548 0.33515 0.04596
 H538 H -0.12163 0.41299 0.10580
 H539 H -0.07968 0.25315 0.14159
 H540 H -0.07578 0.28091 0.07774
 H541 H -0.19221 0.30275 0.12439
 H542 H -0.15155 0.35848 0.13802
 C543 C -0.13059 0.71884 -0.13734
 C544 C -0.17075 0.72061 -0.14145
 C545 C -0.18826 0.75289 -0.15776
 C546 C -0.16598 0.78395 -0.17044
 C547 C -0.12583 0.78201 -0.16676
 C548 C -0.10832 0.74982 -0.15035
 C549 C -0.11200 0.68521 -0.11877
 C550 C -0.12438 0.64765 -0.12689
 C551 C -0.10704 0.61611 -0.10897
 C552 C -0.07709 0.62148 -0.08235
 C553 C -0.06469 0.65910 -0.07435
 C554 C -0.08189 0.69054 -0.09238
 H555 H -0.21925 0.75374 -0.16045
 H556 H -0.10807 0.80569 -0.17613
 H557 H -0.11727 0.58755 -0.11583
 H558 H -0.04172 0.66437 -0.05400
 H559 H -0.07730 0.74911 -0.14795
 H560 H -0.14727 0.64264 -0.14740
 H561 H -0.18868 0.69737 -0.13134
 H562 H -0.07204 0.71915 -0.08515
 C563 C 0.12733 0.71741 0.13317
 C564 C 0.10564 0.74876 0.14658
 C565 C 0.12376 0.78029 0.16360
 C566 C 0.16393 0.78118 0.16745
 C567 C 0.18562 0.74980 0.15425
 C568 C 0.16751 0.71819 0.13735
 C569 C 0.10816 0.68425 0.11439
 C570 C 0.12002 0.64648 0.12233
 C571 C 0.10234 0.61531 0.10418
 C572 C 0.07252 0.62122 0.07752
 C573 C 0.06054 0.65903 0.06976
 C574 C 0.07811 0.69016 0.08804
 H575 H 0.10648 0.80427 0.17335
 H576 H 0.21661 0.74987 0.15705
 H577 H 0.11226 0.58659 0.11089
 H578 H 0.03766 0.66468 0.04941
 H579 H 0.18501 0.69465 0.12692
 H580 H 0.14280 0.64102 0.14284
 H581 H 0.07462 0.74880 0.14412
 H582 H 0.06863 0.71895 0.08102
 C583 C 0.28088 1.13289 0.87309
 C584 C 0.25127 1.14928 0.89502
 C585 C 0.21950 1.16619 0.87716
 C586 C 0.21624 1.16695 0.83674
 C587 C 0.24630 1.15057 0.81495
 C588 C 0.27817 1.13393 0.83289
 C589 C 0.31423 1.11425 0.89210
 C590 C 0.35170 1.12026 0.87848
 C591 C 0.38304 1.10223 0.89606
 C592 C 0.37756 1.07755 0.92748
 C593 C 0.34003 1.07168 0.94117
 C594 C 0.30876 1.08993 0.92375
 H595 H 0.19685 1.17771 0.89509
 H596 H 0.24539 1.15114 0.78388
 H597 H 0.41154 1.10740 0.88480
 H598 H 0.33474 1.05290 0.96532
 H599 H 0.30046 1.12129 0.81527
 H600 H 0.35680 1.13917 0.85438
 H601 H 0.25274 1.14912 0.92608
 H602 H 0.28016 1.08446 0.93462
 C603 C 0.28125 0.86322 1.13047
 C604 C 0.27966 0.85939 1.17062
 C605 C 0.24749 0.84313 1.18818
 C606 C 0.21634 0.83021 1.16597
 C607 C 0.21810 0.83362 1.12584
 C608 C 0.25018 0.84998 1.10828
 C609 C 0.31477 0.88173 1.11183
 C610 C 0.30925 0.90783 1.08160
 C611 C 0.34059 0.92584 1.06436
 C612 C 0.37828 0.91810 1.07684
 C613 C 0.38384 0.89174 1.10690
 C614 C 0.35241 0.87384 1.12427
 H615 H 0.24680 0.84064 1.21915
 H616 H 0.19435 0.82407 1.10814
 H617 H 0.33517 0.94598 1.04131
 H618 H 0.41246 0.88509 1.11721
 H619 H 0.25074 0.85215 1.07728
 H620 H 0.28059 0.91488 1.07169
 H621 H 0.30297 0.86969 1.18850
 H622 H 0.35757 0.85355 1.14724
 C623 C 0.71801 1.13072 1.13363
 C624 C 0.74816 1.14446 1.11067
 C625 C 0.77985 1.16260 1.12734
 C626 C 0.78212 1.16733 1.16732
 C627 C 0.75192 1.15385 1.19030
 C628 C 0.72012 1.13581 1.17362
 C629 C 0.68472 1.11083 1.11584
 C630 C 0.64709 1.11833 1.12839
 C631 C 0.61576 1.10004 1.11107
 C632 C 0.62141 1.07371 1.08094
 C633 C 0.65914 1.06590 1.06875
 C634 C 0.69038 1.08429 1.08595
 H635 H 0.80290 1.17253 1.10907
 H636 H 0.75306 1.15729 1.22118
 H637 H 0.58711 1.10675 1.12116
 H638 H 0.66462 1.04573 1.04569
 H639 H 0.69751 1.12521 1.19207
 H640 H 0.64183 1.13890 1.15114
 H641 H 0.74714 1.14137 1.07974
 H642 H 0.71907 1.07749 1.07605
 C643 C 0.71804 0.86824 0.86748
 C644 C 0.74877 0.85412 0.88963
 C645 C 0.78059 0.83717 0.87199
 C646 C 0.78242 0.83407 0.83184
 C647 C 0.75161 0.84787 0.80967
 C648 C 0.71969 0.86471 0.82731
 C649 C 0.68467 0.88706 0.88626
 C650 C 0.64699 0.87960 0.87374
 C651 C 0.61564 0.89718 0.89172
 C652 C 0.62130 0.92277 0.92249
 C653 C 0.65907 0.93042 0.93476
 C654 C 0.69034 0.91272 0.91691
 H655 H 0.80411 0.82695 0.88964
 H656 H 0.75239 0.84566 0.77867
 H657 H 0.58696 0.89063 0.88154
 H658 H 0.66457 0.95000 0.95833
 H659 H 0.69662 0.87563 0.80948
 H660 H 0.64173 0.85969 0.85040
 H661 H 0.74812 0.85603 0.92065
 H662 H 0.71906 0.91946 0.92684
   
