data_POSCAR
  _audit_creation_date              2014-09-24
  _audit_creation_method            'ToBaCCo'
  _symmetry_space_group_name_H-M    'P1'
  _symmetry_Int_Tables_number       1
  _symmetry_cell_setting            triclinic
  loop_
  _symmetry_equiv_pos_as_xyz
 x,y,z
_cell_length_a 19.7792
_cell_length_b 20.2221
_cell_length_c 46.9983
_cell_angle_alpha 95.993600
_cell_angle_beta 92.223600
_cell_angle_gamma 121.483400
loop_
  _atom_site_label
  _atom_site_type_symbol
  _atom_site_fract_x
  _atom_site_fract_y
  _atom_site_fract_z
C1 C 0.09010 0.03423 0.50900
 C2 C 0.92336 -0.06164 0.16112
 C3 C -0.04830 1.03332 0.82747
 O4 O 0.54589 0.04650 -0.02733
 O5 O 0.41853 0.05986 0.02464
 O6 O 0.53024 0.02661 0.02616
 O7 O 0.43864 0.08237 -0.02872
 O8 O 0.34557 -0.04255 -0.04190
 O9 O 0.43989 -0.09847 0.01179
 O10 O 0.32772 -0.06566 0.01140
 O11 O 0.45475 -0.07821 -0.04192
 Cu12 Cu 0.49245 0.06629 0.00027
 Cu13 Cu 0.38266 -0.08386 -0.01645
 C14 C 0.52217 -0.01746 -0.04366
 C15 C 0.35111 -0.00033 0.02673
 C16 C 0.50180 -0.04535 0.02790
 C17 C 0.37628 0.02924 -0.04460
 O18 O -0.00830 0.44654 0.69529
 O19 O -0.03356 0.55921 0.64371
 O20 O -0.00206 0.44776 0.64031
 O21 O -0.05220 0.54671 0.69785
 O22 O 0.07500 0.64052 0.70751
 O23 O 0.12574 0.53941 0.65016
 O24 O 0.09442 0.65058 0.65324
 O25 O 0.11903 0.53945 0.70547
 Cu26 Cu -0.03672 0.49078 0.66814
 Cu27 Cu 0.11631 0.60186 0.67999
 C28 C 0.05952 0.47411 0.70932
 C29 C 0.02638 0.62458 0.63986
 C30 C 0.07004 0.47550 0.63572
 C31 C 0.00262 0.61023 0.71254
 O32 O 0.46743 0.40509 0.36759
 O33 O 0.54020 0.53871 0.31370
 O34 O 0.42255 0.39420 0.31353
 O35 O 0.59050 0.54582 0.36643
 O36 O 0.66147 0.49471 0.35312
 O37 O 0.49883 0.35058 0.29873
 O38 O 0.61707 0.49472 0.30012
 O39 O 0.53612 0.35320 0.35217
 Cu40 Cu 0.49780 0.47566 0.34175
 Cu41 Cu 0.58605 0.41890 0.32469
 C42 C 0.48756 0.35518 0.36867
 C43 C 0.59177 0.54060 0.29806
 C44 C 0.43263 0.34645 0.29717
 C45 C 0.65471 0.54562 0.36865
 C46 C 0.06841 0.08770 0.52610
 C47 C 0.11063 0.16964 0.52833
 C48 C 0.08939 0.21763 0.54701
 N49 N 0.14059 0.29647 0.55280
 N50 N 0.12325 0.34065 0.57024
 C51 C 0.05374 0.30755 0.58240
 N52 N 0.00218 0.22884 0.57637
 N53 N 0.01974 0.18463 0.55907
 C54 C 0.03397 0.35484 0.60215
 C55 C 0.08977 0.43248 0.61384
 H56 H 0.16252 0.20075 0.51705
 H57 H -0.02540 0.32602 0.60894
 H58 H 0.01660 0.05950 0.53778
 H59 H 0.15037 0.46055 0.60824
 C60 C 0.87760 0.86555 0.17550
 C61 C 0.82308 0.85785 0.19488
 C62 C 0.78502 0.79130 0.21119
 N63 N 0.72988 0.78516 0.22878
 N64 N 0.69618 0.72638 0.24423
 C65 C 0.71646 0.67153 0.24272
 N66 N 0.77158 0.67761 0.22510
 N67 N 0.80516 0.73633 0.20958
 C68 C 0.68141 0.60776 0.26044
 C69 C 0.62271 0.59844 0.27798
 H70 H 0.80882 0.90279 0.19851
 H71 H 0.70354 0.56874 0.26018
 H72 H 0.89299 0.82128 0.17266
 H73 H 0.60005 0.63696 0.27782
 C74 C 0.01727 0.05950 -0.15062
 C75 C 0.09150 0.07142 -0.15622
 C76 C 0.13723 0.05801 -0.13459
 N77 N 0.21688 0.08923 -0.13480
 N78 N 0.25651 0.07316 -0.11588
 C79 C 0.21747 0.02422 -0.09649
 N80 N 0.13790 -0.00760 -0.09659
 N81 N 0.09865 0.00925 -0.11517
 C82 C 0.25850 0.00280 -0.07617
 C83 C 0.33903 0.05146 -0.06621
 H84 H 0.11070 0.08019 -0.17751
 H85 H 0.22258 -0.05082 -0.06715
 H86 H 0.00456 0.05621 -0.12835
 H87 H 0.37375 0.10872 -0.07290
 C88 C 0.10443 0.98958 0.53012
 C89 C 0.04238 0.93260 0.54342
 C90 C 0.05317 0.88369 0.56187
 N91 N -0.01169 0.82145 0.57025
 N92 N -0.00346 0.77549 0.58656
 C93 C 0.07007 0.79022 0.59515
 N94 N 0.13500 0.85275 0.58691
 N95 N 0.12674 0.89851 0.57048
 C96 C 0.08028 0.74075 0.61352
 C97 C 0.01594 0.67092 0.61997
 H98 H -0.01748 0.92041 0.53880
 H99 H 0.14028 0.76004 0.62223
 H100 H 0.16424 1.00159 0.53484
 H101 H -0.04386 0.65007 0.61051
 C102 C -0.01811 0.00560 0.18418
 C103 C 0.04809 0.00837 0.19722
 C104 C 0.10967 0.07623 0.21744
 N105 N 0.17912 0.08121 0.22509
 N106 N 0.23687 0.14318 0.24263
 C107 C 0.22739 0.20256 0.25330
 N108 N 0.15753 0.19728 0.24590
 N109 N 0.09980 0.13537 0.22818
 C110 C 0.29153 0.27122 0.27268
 C111 C 0.36766 0.28348 0.27645
 H112 H 0.05768 -0.03894 0.19091
 H113 H 0.27880 0.31226 0.28404
 H114 H -0.02808 0.05250 0.19087
 H115 H 0.38019 0.24343 0.26416
 C116 C 0.87742 0.01296 -0.15766
 C117 C 0.87533 0.07300 -0.14074
 C118 C 0.81205 0.06281 -0.12308
 N119 N 0.74679 -0.00852 -0.12108
 N120 N 0.69207 -0.01439 -0.10397
 C121 C 0.70108 0.05085 -0.08837
 N122 N 0.76609 0.12165 -0.09056
 N123 N 0.82044 0.12749 -0.10757
 C124 C 0.64411 0.04765 -0.06865
 C125 C 0.57386 -0.02067 -0.06477
 H126 H 0.92568 0.13253 -0.13969
 H127 H 0.65909 0.10289 -0.05638
 H128 H 0.82886 -0.04740 -0.15871
 H129 H 0.55666 -0.07628 -0.07729
 C130 C -0.03207 -0.07561 0.13795
 C131 C 0.02797 -0.01431 0.12559
 C132 C 0.07748 -0.02589 0.10557
 N133 N 0.14379 0.03734 0.09845
 N134 N 0.19101 0.02822 0.08116
 C135 C 0.17362 -0.04454 0.07029
 N136 N 0.10688 -0.10786 0.07720
 N137 N 0.05982 -0.09873 0.09462
 C138 C 0.22556 -0.05520 0.05118
 C139 C 0.29994 0.00763 0.04689
 H140 H 0.04272 0.04502 0.13237
 H141 H 0.20502 -0.11361 0.04044
 H142 H -0.04772 -0.13500 0.13057
 H143 H 0.32126 0.06550 0.05838
 C144 C 1.01925 0.97732 0.48684
 C145 C 1.00855 0.90671 0.47374
 C146 C 0.93613 0.84713 0.45493
 N147 N 0.93023 0.78013 0.44292
 N148 N 0.86437 0.72433 0.42647
 C149 C 0.80165 0.73321 0.42148
 N150 N 0.80747 0.80025 0.43351
 N151 N 0.87348 0.85620 0.44996
 C152 C 0.72879 0.67186 0.40314
 C153 C 0.72348 0.60496 0.38898
 H154 H 1.05406 0.89355 0.47826
 H155 H 0.67965 0.68068 0.40000
 H156 H 0.97546 0.99196 0.48113
 H157 H 0.77365 0.59750 0.39162
 C158 C -0.03794 0.09007 0.80914
 C159 C 0.02425 0.16864 0.81160
 C160 C 0.02085 0.21900 0.79177
 N161 N 0.08411 0.29251 0.79119
 N162 N 0.08032 0.33719 0.77297
 C163 C 0.01302 0.30990 0.75482
 N164 N -0.05010 0.23685 0.75559
 N165 N -0.04621 0.19234 0.77366
 C166 C 0.00638 0.35691 0.73442
 C167 C 0.06953 0.43007 0.73033
 H168 H 0.07453 0.19356 0.82796
 H169 H -0.05074 0.33189 0.72177
 H170 H -0.08624 0.06909 0.79211
 H171 H 0.12728 0.45524 0.74252
 C172 C 0.86750 -0.04141 0.14693
 C173 C 0.79955 -0.09661 0.12839
 C174 C 0.74953 -0.07499 0.11280
 N175 N 0.68239 -0.13112 0.09584
 N176 N 0.63761 -0.11210 0.08109
 C177 C 0.65838 -0.03617 0.08274
 N178 N 0.72539 0.01990 0.09975
 N179 N 0.77005 0.00087 0.11454
 C180 C 0.61180 -0.01353 0.06559
 C181 C 0.54176 -0.06850 0.04809
 H182 H 0.78312 -0.15724 0.12503
 H183 H 0.63510 0.04841 0.06596
 H184 H 0.88455 0.01943 0.14934
 H185 H 0.51763 -0.13049 0.04803
 C186 C 0.16660 0.08177 0.49502
 C187 C 0.17418 0.07348 0.46560
 C188 C 0.24367 0.13314 0.45317
 N189 N 0.25952 0.11562 0.42655
 N190 N 0.31762 0.17114 0.41393
 C191 C 0.36138 0.24642 0.42736
 N192 N 0.34559 0.26388 0.45397
 N193 N 0.28817 0.20821 0.46673
 C194 C 0.41805 0.30987 0.41221
 C195 C 0.45094 0.29651 0.38825
 H196 H 0.12710 0.02475 0.45087
 H197 H 0.43059 0.36837 0.41914
 H198 H 0.21880 0.12700 0.50913
 H199 H 0.44549 0.24042 0.38281
 C200 C -0.05974 0.96280 0.80779
 C201 C -0.06893 0.89581 0.81732
 C202 C -0.04239 0.85046 0.79995
 N203 N -0.07916 0.77167 0.79896
 N204 N -0.05529 0.73165 0.78236
 C205 C 0.00695 0.76933 0.76661
 N206 N 0.04473 0.84817 0.76822
 N207 N 0.02030 0.88787 0.78447
 C208 C 0.03256 0.72677 0.74724
 C209 C -0.01920 0.64883 0.73534
 H210 H -0.08752 0.88164 0.83835
 H211 H 0.09078 0.75997 0.73975
 H212 H -0.04520 0.97048 0.78582
 H213 H -0.07951 0.61714 0.74122
   
