data_POSCAR
  _audit_creation_date              2014-09-24
  _audit_creation_method            'ToBaCCo'
  _symmetry_space_group_name_H-M    'P1'
  _symmetry_Int_Tables_number       1
  _symmetry_cell_setting            triclinic
  loop_
  _symmetry_equiv_pos_as_xyz
 x,y,z
_cell_length_a 32.1122
_cell_length_b 32.2022
_cell_length_c 36.5617
_cell_angle_alpha 87.959200
_cell_angle_beta 91.997600
_cell_angle_gamma 91.269800
loop_
  _atom_site_label
  _atom_site_type_symbol
  _atom_site_fract_x
  _atom_site_fract_y
  _atom_site_fract_z
C1 C 1.18728 0.27071 0.31489
 H2 H 1.18975 0.23729 0.31427
 C3 C 1.16377 0.28837 0.34148
 H4 H 1.14797 0.26856 0.36142
 C5 C 1.20558 0.33747 0.29011
 H6 H 1.22236 0.35644 0.27034
 C7 C 1.18239 0.35641 0.31627
 H8 H 1.18118 0.39000 0.31650
 N9 N 1.20732 0.29531 0.28976
 C10 C 1.22409 0.21853 0.19652
 H11 H 1.25721 0.22352 0.19330
 C12 C 1.20150 0.19286 0.17285
 H13 H 1.21714 0.17809 0.15113
 C14 C 1.16319 0.23150 0.22893
 H15 H 1.14842 0.24678 0.25070
 C16 C 1.13938 0.20599 0.20579
 H17 H 1.10629 0.20156 0.20980
 Zn18 Zn 1.23940 0.26834 0.25578
 N19 N 1.20489 0.23660 0.22426
 C20 C 1.27408 0.19088 0.27748
 N21 N 1.27595 0.23255 0.28270
 C22 C 1.30250 0.24915 0.30834
 C23 C 1.32916 0.22358 0.32952
 C24 C 1.30014 0.16421 0.29802
 C25 C 1.24795 0.33175 0.20168
 C26 C 1.26884 0.35637 0.17559
 C27 C 1.33406 0.32928 0.20002
 C28 C 1.31201 0.30515 0.22555
 N29 N 1.26969 0.30656 0.22579
 H30 H 1.25199 0.17804 0.25782
 H31 H 1.30277 0.28228 0.31237
 H32 H 1.35007 0.23713 0.34998
 H33 H 1.29811 0.13107 0.29373
 H34 H 1.21427 0.33156 0.20191
 H35 H 1.25127 0.37545 0.15583
 H36 H 1.36765 0.32710 0.19940
 H37 H 1.32871 0.28414 0.24414
 C38 C 1.15890 0.18624 0.17777
 C39 C 1.16131 0.33160 0.34216
 C40 C 1.31227 0.35467 0.17450
 C41 C 1.32794 0.18069 0.32426
 C42 C 0.67427 -0.21900 0.29507
 H43 H 0.67173 -0.25257 0.29536
 C44 C 0.64822 -0.19644 0.31640
 H45 H 0.62553 -0.21264 0.33325
 C46 C 0.70818 -0.15688 0.27405
 H47 H 0.73226 -0.14164 0.25828
 C48 C 0.68278 -0.13315 0.29503
 H49 H 0.68723 -0.09970 0.29518
 N50 N 0.70347 -0.19902 0.27443
 C51 C 0.73168 -0.28684 0.19098
 H52 H 0.76506 -0.28908 0.19536
 C53 C 0.71143 -0.30845 0.16280
 H54 H 0.72916 -0.32778 0.14564
 C55 C 0.66778 -0.25840 0.20754
 H56 H 0.65096 -0.23825 0.22452
 C57 C 0.64633 -0.27947 0.17967
 H58 H 0.61298 -0.27601 0.17570
 Zn59 Zn 0.73976 -0.23228 0.24895
 N60 N 0.70966 -0.26271 0.21288
 C61 C 0.76299 -0.31031 0.28236
 N62 N 0.76634 -0.26821 0.28428
 C63 C 0.78720 -0.25013 0.31281
 C64 C 0.80643 -0.27458 0.34055
 C65 C 0.78179 -0.33593 0.30958
 C66 C 0.76421 -0.17275 0.19673
 C67 C 0.79130 -0.14804 0.17588
 C68 C 0.84931 -0.17678 0.21149
 C69 C 0.82105 -0.20097 0.23181
 N70 N 0.77935 -0.19842 0.22415
 H71 H 0.74549 -0.32411 0.25996
 H72 H 0.78879 -0.21661 0.31397
 H73 H 0.82318 -0.25988 0.36302
 H74 H 0.77917 -0.36940 0.30779
 H75 H 0.73097 -0.17187 0.19088
 H76 H 0.77895 -0.12807 0.15381
 H77 H 0.88248 -0.17937 0.21729
 H78 H 0.83252 -0.22226 0.25314
 C79 C 0.66836 -0.30472 0.15710
 C80 C 0.65270 -0.15316 0.31651
 C81 C 0.83423 -0.15017 0.18322
 C82 C 0.80373 -0.31788 0.33892
 C83 C 0.68538 0.26498 -0.19178
 H84 H 0.68509 0.23136 -0.19047
 C85 C 0.66641 0.28670 -0.16466
 H86 H 0.65107 0.26975 -0.14263
 C87 C 0.70673 0.32819 -0.22145
 H88 H 0.72323 0.34426 -0.24316
 C89 C 0.68813 0.35112 -0.19484
 H90 H 0.68988 0.38477 -0.19647
 N91 N 0.70491 0.28587 -0.21954
 C92 C 0.71367 0.19748 -0.30672
 H93 H 0.74663 0.20139 -0.31141
 C94 C 0.68951 0.17020 -0.32778
 H95 H 0.70385 0.15323 -0.34893
 C96 C 0.65470 0.21512 -0.27363
 H97 H 0.64129 0.23292 -0.25266
 C98 C 0.62930 0.18807 -0.29422
 H99 H 0.59632 0.18511 -0.28911
 Zn100 Zn 0.73333 0.25384 -0.25310
 N101 N 0.69619 0.21892 -0.27999
 C102 C 0.76891 0.17827 -0.22610
 N103 N 0.77165 0.22050 -0.22520
 C104 C 0.80028 0.23975 -0.20290
 C105 C 0.82797 0.21636 -0.18069
 C106 C 0.79599 0.15375 -0.20435
 C107 C 0.73852 0.31290 -0.31152
 C108 C 0.75772 0.33693 -0.33905
 C109 C 0.82418 0.30997 -0.31751
 C110 C 0.80373 0.28650 -0.29044
 N111 N 0.76165 0.28849 -0.28779
 H112 H 0.74529 0.16340 -0.24313
 H113 H 0.80131 0.27332 -0.20219
 H114 H 0.85044 0.23190 -0.16280
 H115 H 0.79329 0.12019 -0.20498
 H116 H 0.70503 0.31331 -0.30927
 H117 H 0.73890 0.35613 -0.35780
 H118 H 0.85771 0.30789 -0.31933
 H119 H 0.82150 0.26616 -0.27205
 C120 C 0.64701 0.16527 -0.32142
 C121 C 0.66792 0.33018 -0.16609
 C122 C 0.80102 0.33535 -0.34216
 C123 C 0.82573 0.17295 -0.18141
 C124 C 1.17513 -0.21577 -0.19450
 H125 H 1.17354 -0.24930 -0.19139
 C126 C 1.15044 -0.19153 -0.17342
 H127 H 1.12972 -0.20637 -0.15393
 C128 C 1.20519 -0.15531 -0.22274
 H129 H 1.22724 -0.14132 -0.24137
 C130 C 1.18107 -0.12989 -0.20212
 H131 H 1.18442 -0.09640 -0.20506
 N132 N 1.20170 -0.19743 -0.21866
 C133 C 1.22318 -0.29267 -0.29729
 H134 H 1.25678 -0.29446 -0.29504
 C135 C 1.20084 -0.31576 -0.32332
 H136 H 1.21722 -0.33578 -0.34090
 C137 C 1.16083 -0.26318 -0.27820
 H138 H 1.14542 -0.24183 -0.26132
 C139 C 1.13732 -0.28573 -0.30389
 H140 H 1.10386 -0.28214 -0.30626
 Zn141 Zn 1.23587 -0.23279 -0.24405
 N142 N 1.20299 -0.26707 -0.27533
 C143 C 1.26718 -0.30651 -0.20764
 N144 N 1.26711 -0.26422 -0.20837
 C145 C 1.28939 -0.24225 -0.18296
 C146 C 1.31401 -0.26273 -0.15608
 C147 C 1.29145 -0.32825 -0.18116
 C148 C 1.25468 -0.17817 -0.30231
 C149 C 1.27981 -0.15547 -0.32651
 C150 C 1.34059 -0.18093 -0.29264
 C151 C 1.31431 -0.20317 -0.26904
 N152 N 1.27219 -0.20120 -0.27414
 H153 H 1.24870 -0.32342 -0.22764
 H154 H 1.28837 -0.20867 -0.18394
 H155 H 1.33210 -0.24492 -0.13632
 H156 H 1.29183 -0.36189 -0.18100
 H157 H 1.22112 -0.17778 -0.30608
 H158 H 1.26565 -0.13742 -0.34903
 H159 H 1.37408 -0.18291 -0.28866
 H160 H 1.32766 -0.22247 -0.24710
 C161 C 1.15755 -0.31204 -0.32681
 C162 C 1.15358 -0.14823 -0.17718
 C163 C 1.32313 -0.15695 -0.32163
 C164 C 1.31528 -0.30611 -0.15531
 C165 C 0.27289 0.17911 0.69083
 H166 H 0.23947 0.17542 0.69279
 C167 C 0.29359 0.15874 0.66392
 H168 H 0.27618 0.13884 0.64533
 C169 C 0.33635 0.21085 0.71161
 H170 H 0.35276 0.23207 0.72952
 C171 C 0.35822 0.19108 0.68511
 H172 H 0.39148 0.19661 0.68311
 N173 N 0.29445 0.20454 0.71401
 C174 C 0.21660 0.22161 0.80761
 H175 H 0.21838 0.25519 0.80786
 C176 C 0.19449 0.19941 0.83429
 H177 H 0.17907 0.21601 0.85508
 C178 C 0.23457 0.15911 0.78013
 H179 H 0.25051 0.14363 0.75910
 C180 C 0.21268 0.13560 0.80638
 H181 H 0.21156 0.10200 0.80531
 Zn182 Zn 0.26392 0.23559 0.74641
 N183 N 0.23559 0.20137 0.78097
 C184 C 0.18415 0.26675 0.72452
 N185 N 0.22558 0.26740 0.71772
 C186 C 0.24143 0.29158 0.69007
 C187 C 0.21555 0.31770 0.66882
 C188 C 0.15712 0.29245 0.70386
 C189 C 0.32847 0.25442 0.79695
 C190 C 0.35392 0.27977 0.81887
 C191 C 0.31985 0.33991 0.79123
 C192 C 0.29504 0.31349 0.76986
 N193 N 0.29981 0.27159 0.77300
 H194 H 0.17203 0.24669 0.74610
 H195 H 0.27443 0.29110 0.68508
 H196 H 0.22850 0.33732 0.64718
 H197 H 0.12425 0.29223 0.70961
 H198 H 0.33102 0.22099 0.79935
 H199 H 0.37620 0.26592 0.83834
 H200 H 0.31534 0.37316 0.78910
 H201 H 0.27134 0.32655 0.75154
 C202 C 0.19227 0.15603 0.83359
 C203 C 0.33659 0.16505 0.66090
 C204 C 0.34935 0.32286 0.81604
 C205 C 0.17313 0.31842 0.67605
 C206 C 0.77395 0.67839 0.69616
 H207 H 0.74070 0.68010 0.69070
 C208 C 0.79822 0.65476 0.67422
 H209 H 0.78365 0.63816 0.65174
 C210 C 0.83381 0.69899 0.73146
 H211 H 0.84760 0.71692 0.75334
 C212 C 0.85929 0.67572 0.71006
 H213 H 0.89265 0.67559 0.71562
 N214 N 0.79193 0.69973 0.72423
 C215 C 0.68994 0.71734 0.79701
 H216 H 0.69086 0.75085 0.79841
 C217 C 0.66188 0.69381 0.81793
 H218 H 0.64111 0.70930 0.83552
 C219 C 0.71717 0.65615 0.77359
 H220 H 0.73944 0.64153 0.75703
 C221 C 0.68962 0.63141 0.79413
 H222 H 0.69070 0.59785 0.79308
 Zn223 Zn 0.75617 0.73254 0.75061
 N224 N 0.71680 0.69831 0.77538
 C225 C 0.68684 0.76743 0.71095
 N226 N 0.72905 0.76890 0.71593
 C227 C 0.75323 0.79419 0.69441
 C228 C 0.73499 0.81970 0.66684
 C229 C 0.66737 0.79241 0.68371
 C230 C 0.80583 0.74002 0.81444
 C231 C 0.82752 0.76008 0.84277
 C232 C 0.80872 0.82608 0.81402
 C233 C 0.78737 0.80479 0.78621
 N234 N 0.78661 0.76249 0.78676
 H235 H 0.66820 0.74638 0.72758
 H236 H 0.78676 0.79416 0.69847
 H237 H 0.75447 0.83965 0.64978
 H238 H 0.63378 0.79091 0.67985
 H239 H 0.80413 0.70643 0.81452
 H240 H 0.84285 0.74194 0.86461
 H241 H 0.80927 0.85975 0.81337
 H242 H 0.77113 0.82209 0.76447
 C243 C 0.66188 0.65043 0.81664
 C244 C 0.84126 0.65350 0.68116
 C245 C 0.82896 0.80352 0.84255
 C246 C 0.69166 0.81869 0.66139
 C247 C 0.77320 0.18257 0.19944
 H248 H 0.73986 0.18149 0.20285
 C249 C 0.79066 0.15891 0.17282
 H250 H 0.77079 0.13931 0.15584
 C251 C 0.83970 0.21072 0.21639
 H252 H 0.85854 0.23168 0.23280
 C253 C 0.85842 0.18756 0.19008
 H254 H 0.89173 0.19043 0.18657
 N255 N 0.79777 0.20783 0.22055
 C256 C 0.72442 0.23122 0.31585
 H257 H 0.72494 0.26485 0.31468
 C258 C 0.70381 0.20958 0.34388
 H259 H 0.68809 0.22653 0.36423
 C260 C 0.74419 0.16796 0.29074
 H261 H 0.76030 0.15188 0.27019
 C262 C 0.72393 0.14510 0.31833
 H263 H 0.72403 0.11145 0.31868
 Zn264 Zn 0.77055 0.24228 0.25272
 N265 N 0.74353 0.21025 0.28970
 C266 C 0.69022 0.27314 0.23094
 N267 N 0.73153 0.27309 0.22369
 C268 C 0.74690 0.29494 0.19444
 C269 C 0.72062 0.31898 0.17162
 C270 C 0.66278 0.29685 0.20872
 C271 C 0.83805 0.26330 0.30011
 C272 C 0.86356 0.28968 0.32112
 C273 C 0.82823 0.34854 0.29261
 C274 C 0.80338 0.32113 0.27219
 N275 N 0.80850 0.27933 0.27639
 H276 H 0.67848 0.25489 0.25384
 H277 H 0.77978 0.29388 0.18910
 H278 H 0.73320 0.33651 0.14854
 H279 H 0.62996 0.29698 0.21465
 H280 H 0.84089 0.22996 0.30349
 H281 H 0.88619 0.27665 0.34072
 H282 H 0.82307 0.38166 0.28988
 H283 H 0.77902 0.33336 0.25408
 C284 C 0.70336 0.16612 0.34501
 C285 C 0.83362 0.16164 0.16794
 C286 C 0.85824 0.33267 0.31759
 C287 C 0.67825 0.32011 0.17893
 C288 C 0.27797 0.67318 0.19337
 H289 H 0.24434 0.67305 0.19014
 C290 C 0.30128 0.64792 0.17193
 H291 H 0.28561 0.62830 0.15205
 C292 C 0.33964 0.69986 0.22236
 H293 H 0.35454 0.72070 0.24151
 C294 C 0.36414 0.67510 0.20141
 H295 H 0.39779 0.67685 0.20461
 N296 N 0.29733 0.69831 0.21813
 C297 C 0.20395 0.72162 0.29804
 H298 H 0.20569 0.75523 0.29760
 C299 C 0.17703 0.70026 0.32159
 H300 H 0.15798 0.71740 0.33945
 C301 C 0.22714 0.65813 0.27570
 H302 H 0.24714 0.64184 0.25817
 C303 C 0.20061 0.63552 0.29891
 H304 H 0.20009 0.60187 0.29908
 Zn305 Zn 0.26342 0.73286 0.24495
 N306 N 0.22799 0.70044 0.27545
 C307 C 0.18828 0.76001 0.20980
 N308 N 0.23054 0.76502 0.21061
 C309 C 0.24976 0.79056 0.18563
 C310 C 0.22621 0.81284 0.15894
 C311 C 0.16366 0.78163 0.18363
 C312 C 0.31870 0.74642 0.30394
 C313 C 0.34247 0.76873 0.32959
 C314 C 0.32072 0.83247 0.29834
 C315 C 0.29734 0.80888 0.27322
 N316 N 0.29688 0.76662 0.27639
 H317 H 0.17348 0.73871 0.22902
 H318 H 0.28341 0.79338 0.18632
 H319 H 0.24173 0.83319 0.13925
 H320 H 0.13008 0.77739 0.18330
 H321 H 0.31724 0.71283 0.30616
 H322 H 0.35940 0.75212 0.35151
 H323 H 0.32053 0.86611 0.29572
 H324 H 0.27910 0.82437 0.25164
 C325 C 0.17526 0.65684 0.32195
 C326 C 0.34476 0.64894 0.17595
 C327 C 0.34343 0.81220 0.32690
 C328 C 0.18272 0.80827 0.15793
 O329 O 1.06481 0.02867 0.05496
 O330 O 0.92391 -0.03310 0.03136
 O331 O 0.97102 0.08040 0.03637
 O332 O 1.04174 -0.08981 0.01385
 O333 O 0.91876 0.04144 0.01577
 O334 O 1.05771 -0.04176 0.04845
 O335 O 0.98149 -0.06176 0.04729
 O336 O 1.04819 0.08536 0.02702
 C337 C 1.06280 0.06684 0.05463
 C338 C 0.94511 -0.05402 0.05426
 C339 C 0.93381 0.06817 0.03753
 C340 C 1.06247 -0.07840 0.04090
 O341 O 1.07595 -0.03355 -0.02560
 O342 O 0.93719 0.02438 -0.05465
 O343 O 1.03596 0.07888 -0.04250
 O344 O 0.96556 -0.10201 -0.01073
 O345 O 0.93982 -0.04800 -0.04007
 O346 O 1.08590 0.04104 -0.01697
 O347 O 1.01563 -0.05685 -0.04629
 O348 O 0.95824 0.08292 -0.03391
 Co349 Co 1.06586 -0.00108 0.01399
 Co350 Co 0.93621 -0.00311 -0.01055
 Co351 Co 1.00319 0.07459 -0.00280
 Co352 Co 0.99732 -0.05684 0.00023
 O353 O 1.00233 0.00603 0.00118
 C354 C 1.05372 -0.05022 -0.05061
 C355 C 0.93966 0.06267 -0.05805
 C356 C 1.07264 0.06640 -0.04175
 C357 C 0.93723 -0.08680 -0.03303
 O358 O 1.07197 0.53663 0.54722
 O359 O 0.90351 0.45992 0.51054
 O360 O 0.96184 0.57921 0.53086
 O361 O 1.02112 0.43772 0.55993
 O362 O 0.93184 0.52117 0.54519
 O363 O 1.07907 0.46010 0.53914
 O364 O 0.95086 0.44432 0.54855
 O365 O 1.03624 0.58673 0.52018
 C366 C 1.06051 0.57342 0.54577
 C367 C 0.91385 0.44006 0.53881
 C368 C 0.94043 0.55765 0.55253
 C369 C 1.05937 0.44008 0.56265
 O370 O 1.07603 0.47090 0.46941
 O371 O 0.89240 0.53510 0.48433
 O372 O 1.02014 0.56402 0.44929
 O373 O 0.95976 0.42675 0.47511
 O374 O 0.93782 0.48606 0.45226
 O375 O 1.07796 0.54861 0.47668
 O376 O 1.03499 0.41940 0.48886
 O377 O 0.94746 0.56123 0.45873
 Co378 Co 1.06891 0.50404 0.50786
 Co379 Co 0.93729 0.50496 0.49876
 Co380 Co 0.99209 0.56670 0.49125
 Co381 Co 0.99199 0.43748 0.51686
 O382 O 1.00018 0.50142 0.50502
 C383 C 1.06323 0.43387 0.46817
 C384 C 0.90868 0.56379 0.46332
 C385 C 1.05855 0.56242 0.44901
 C386 C 0.94389 0.44815 0.44873
 O387 O 0.55760 0.01269 0.54788
 O388 O 0.41819 -0.05034 0.52133
 O389 O 0.46015 0.07943 0.51198
 O390 O 0.54857 -0.06222 0.54006
 O391 O 0.41900 0.02715 0.52970
 O392 O 0.60362 -0.03518 0.51512
 O393 O 0.47594 -0.06530 0.54898
 O394 O 0.53554 0.07237 0.52604
 C395 C 0.55166 0.05053 0.55203
 C396 C 0.43754 -0.06394 0.54911
 C397 C 0.43157 0.06419 0.53192
 C398 C 0.58744 -0.06431 0.53570
 O399 O 0.56447 -0.02020 0.45427
 O400 O 0.41681 0.03931 0.46011
 O401 O 0.54511 0.05691 0.45231
 O402 O 0.46046 -0.08710 0.47772
 O403 O 0.42498 -0.03684 0.45086
 O404 O 0.59216 0.04022 0.49029
 O405 O 0.53482 -0.07872 0.46757
 O406 O 0.47480 0.06349 0.44067
 Co407 Co 0.55856 -0.00517 0.50099
 Co408 Co 0.42706 -0.00512 0.49083
 Co409 Co 0.50361 0.06254 0.48390
 Co410 Co 0.50422 -0.06721 0.50718
 O411 O 0.49573 -0.00179 0.49437
 C412 C 0.55618 -0.05657 0.44631
 C413 C 0.43660 0.06056 0.43744
 C414 C 0.58204 0.06082 0.46240
 C415 C 0.43659 -0.07355 0.45195
 O416 O 0.56279 0.54062 0.04376
 O417 O 0.41629 0.45858 0.01453
 O418 O 0.48396 0.56020 0.04265
 O419 O 0.54123 0.41354 0.03547
 O420 O 0.42526 0.53187 0.02722
 O421 O 0.57030 0.47017 0.05346
 O422 O 0.46547 0.42416 0.04338
 O423 O 0.54496 0.58899 0.00759
 C424 C 0.56598 0.57786 0.03495
 C425 C 0.42913 0.43684 0.04175
 C426 C 0.44710 0.55213 0.04959
 C427 C 0.56438 0.43236 0.05738
 O428 O 0.58435 0.45758 -0.01815
 O429 O 0.44346 0.54791 -0.04443
 O430 O 0.51760 0.55692 -0.05099
 O431 O 0.45359 0.41770 -0.02777
 O432 O 0.44129 0.47588 -0.05539
 O433 O 0.57756 0.53397 -0.03043
 O434 O 0.53133 0.41627 -0.03442
 O435 O 0.46940 0.60165 -0.01720
 Co436 Co 0.56802 0.50042 0.01093
 Co437 Co 0.43768 0.50268 -0.01302
 Co438 Co 0.49941 0.55610 -0.00417
 Co439 Co 0.49801 0.42510 0.00385
 O440 O 0.50298 0.49327 0.00082
 C441 C 0.56866 0.42842 -0.03717
 C442 C 0.44038 0.58615 -0.03841
 C443 C 0.55545 0.55135 -0.05560
 C444 C 0.44225 0.43758 -0.05599
 C445 C 1.13564 0.15930 0.15383
 C446 C 1.11740 0.13679 0.13287
 C447 C 1.09736 0.11105 0.10710
 C448 C 1.08116 0.09006 0.08385
 C449 C 1.13422 0.66544 0.64566
 C450 C 1.11542 0.64619 0.62243
 C451 C 1.09456 0.62264 0.59524
 C452 C 1.07809 0.60115 0.57233
 C453 C 0.62201 0.13790 0.65601
 C454 C 0.60299 0.11544 0.63533
 C455 C 0.58288 0.09036 0.60885
 C456 C 0.56756 0.07076 0.58411
 C457 C 0.64671 0.67271 0.12865
 C458 C 0.62840 0.65307 0.10540
 C459 C 0.60677 0.62879 0.07919
 C460 C 0.58818 0.60654 0.05807
 C461 C 0.86236 -0.12710 0.15997
 C462 C 0.88436 -0.10844 0.13869
 C463 C 0.90805 -0.08772 0.11157
 C464 C 0.92625 -0.07137 0.08646
 C465 C 0.81991 0.35700 0.63205
 C466 C 0.83857 0.37654 0.60879
 C467 C 0.86239 0.39899 0.58261
 C468 C 0.88467 0.41788 0.56161
 C469 C 0.34946 -0.13540 0.65266
 C470 C 0.37097 -0.11795 0.63034
 C471 C 0.39530 -0.09828 0.60319
 C472 C 0.41518 -0.08219 0.57903
 C473 C 0.33445 0.37619 0.14574
 C474 C 0.35420 0.39246 0.12151
 C475 C 0.37876 0.40960 0.09323
 C476 C 0.40102 0.42277 0.06942
 C477 C 0.85232 0.14812 -0.15732
 C478 C 0.87376 0.12740 -0.13636
 C479 C 0.89785 0.10364 -0.11064
 C480 C 0.91751 0.08422 -0.08742
 C481 C 0.82398 0.65642 0.36699
 C482 C 0.84166 0.63512 0.39022
 C483 C 0.86347 0.61029 0.41684
 C484 C 0.88331 0.58910 0.43871
 C485 C 0.35127 0.15595 0.34476
 C486 C 0.37210 0.13303 0.36421
 C487 C 0.39551 0.10661 0.38809
 C488 C 0.41472 0.08485 0.40980
 C489 C 0.34168 0.67230 -0.12859
 C490 C 0.36420 0.65407 -0.10665
 C491 C 0.39083 0.63199 -0.08168
 C492 C 0.41358 0.61196 -0.06127
 C493 C 1.13050 -0.12303 -0.15372
 C494 C 1.11172 -0.10330 -0.13259
 C495 C 1.09051 -0.08220 -0.10600
 C496 C 1.07318 -0.06626 -0.08161
 C497 C 1.13808 0.35056 0.36982
 C498 C 1.11925 0.36721 0.39298
 C499 C 1.09822 0.38815 0.41985
 C500 C 1.08143 0.40782 0.44234
 C501 C 0.62879 -0.12983 0.34085
 C502 C 0.60989 -0.11110 0.36264
 C503 C 0.58930 -0.09040 0.38989
 C504 C 0.57322 -0.07406 0.41477
 C505 C 0.64893 0.35302 -0.13801
 C506 C 0.63248 0.37153 -0.11442
 C507 C 0.61212 0.39240 -0.08691
 C508 C 0.59331 0.40939 -0.06383
 C509 C 1.16958 0.13435 -0.14104
 C510 C 1.14866 0.11668 -0.11832
 C511 C 1.12315 0.09772 -0.09156
 C512 C 1.10053 0.08281 -0.06872
 C513 C 1.14846 0.63450 0.34686
 C514 C 1.12639 0.61668 0.36859
 C515 C 1.10135 0.59682 0.39521
 C516 C 1.08103 0.58067 0.41909
 C517 C 0.68044 0.14326 0.37257
 C518 C 0.66011 0.12426 0.39496
 C519 C 0.63478 0.10212 0.42010
 C520 C 0.61163 0.08325 0.44030
 C521 C 0.63720 0.62705 -0.16074
 C522 C 0.61630 0.60726 -0.13931
 C523 C 0.59325 0.58564 -0.11228
 C524 C 0.57503 0.56884 -0.08739
 C525 C 0.85132 -0.17504 -0.12866
 C526 C 0.87029 -0.15651 -0.10506
 C527 C 0.89296 -0.13376 -0.07836
 C528 C 0.91283 -0.11314 -0.05677
 C529 C 0.88041 0.36010 0.34206
 C530 C 0.89730 0.38261 0.36392
 C531 C 0.91525 0.40776 0.39135
 C532 C 0.92912 0.42752 0.41653
 C533 C 0.36417 -0.16635 0.35159
 C534 C 0.38266 -0.14649 0.37467
 C535 C 0.40317 -0.12258 0.40187
 C536 C 0.41936 -0.10106 0.42496
 C537 C 0.37241 0.34931 -0.15945
 C538 C 0.39037 0.37120 -0.13781
 C539 C 0.40984 0.39596 -0.11101
 C540 C 0.42526 0.41589 -0.08668
 C541 C 1.15746 -0.16912 0.13092
 C542 C 1.13568 -0.14999 0.10895
 C543 C 1.10983 -0.12678 0.08406
 C544 C 1.08790 -0.10568 0.06373
 C545 C 1.14634 0.34561 0.65461
 C546 C 1.12485 0.36843 0.63571
 C547 C 1.10086 0.39466 0.61214
 C548 C 1.08135 0.41617 0.59047
 C549 C 0.67196 -0.15590 0.63282
 C550 C 0.65451 -0.13489 0.60926
 C551 C 0.63276 -0.11040 0.58238
 C552 C 0.61289 -0.08944 0.56037
 C553 C 0.65101 0.34473 0.15538
 C554 C 0.62940 0.36545 0.13463
 C555 C 0.60547 0.38948 0.10910
 C556 C 0.58613 0.40950 0.08613
 C557 C 0.85210 0.13929 0.13939
 C558 C 0.86834 0.12142 0.11538
 C559 C 0.88882 0.10156 0.08745
 C560 C 0.90811 0.08565 0.06414
 C561 C 0.86662 0.63110 0.65725
 C562 C 0.88633 0.61286 0.63569
 C563 C 0.90743 0.59237 0.60860
 C564 C 0.92361 0.57585 0.58386
 C565 C 0.35830 0.14551 0.63260
 C566 C 0.37620 0.12883 0.60890
 C567 C 0.39655 0.10829 0.58138
 C568 C 0.41314 0.08925 0.55836
 C569 C 0.36930 0.62508 0.15240
 C570 C 0.38908 0.60604 0.13140
 C571 C 0.41107 0.58518 0.10503
 C572 C 0.42848 0.56898 0.08076
   
