data_POSCAR
  _audit_creation_date              2014-09-24
  _audit_creation_method            'ToBaCCo'
  _symmetry_space_group_name_H-M    'P1'
  _symmetry_Int_Tables_number       1
  _symmetry_cell_setting            triclinic
  loop_
  _symmetry_equiv_pos_as_xyz
 x,y,z
_cell_length_a 41.9498
_cell_length_b 42.1051
_cell_length_c 42.1958
_cell_angle_alpha 89.992300
_cell_angle_beta 90.009800
_cell_angle_gamma 90.019000
loop_
  _atom_site_label
  _atom_site_type_symbol
  _atom_site_fract_x
  _atom_site_fract_y
  _atom_site_fract_z
N1 N 0.30059 0.23677 0.21238
 N2 N 0.28733 0.26198 0.19951
 C3 C 0.30430 0.27058 0.17377
 C4 C 0.32932 0.24962 0.17055
 C5 C 0.32640 0.22847 0.19530
 H6 H 0.29894 0.29051 0.15850
 H7 H 0.34185 0.20857 0.20045
 Cu8 Cu 0.24918 0.28100 0.21766
 Cu9 Cu 0.28341 0.21657 0.25025
 Cu10 Cu 0.21612 0.25069 0.28369
 N11 N 0.21178 0.30027 0.23704
 N12 N 0.19897 0.28828 0.26287
 C13 C 0.17353 0.30590 0.27120
 C14 C 0.17038 0.33010 0.24943
 C15 C 0.19489 0.32598 0.22807
 H16 H 0.15842 0.30145 0.29148
 H17 H 0.19992 0.34059 0.20759
 N18 N 0.23693 0.21259 0.30128
 N19 N 0.26256 0.19959 0.28854
 C20 C 0.27096 0.17398 0.30580
 C21 C 0.24961 0.17090 0.33039
 C22 C 0.22835 0.19558 0.32698
 H23 H 0.29103 0.15864 0.30089
 H24 H 0.20816 0.20066 0.34207
 H25 H 0.23671 0.23084 0.24385
 H26 H 0.26257 0.25708 0.26859
 N27 N 0.69874 -0.23716 0.21165
 N28 N 0.71225 -0.26226 0.19881
 C29 C 0.69544 -0.27099 0.17300
 C30 C 0.67028 -0.25020 0.16974
 C31 C 0.67292 -0.22902 0.19449
 H32 H 0.70101 -0.29088 0.15775
 H33 H 0.65730 -0.20925 0.19962
 Cu34 Cu 0.75046 -0.28103 0.21711
 Cu35 Cu 0.71561 -0.21687 0.24959
 Cu36 Cu 0.78295 -0.25055 0.28336
 N37 N 0.78789 -0.30006 0.23671
 N38 N 0.80046 -0.28801 0.26264
 C39 C 0.82593 -0.30550 0.27118
 C40 C 0.82931 -0.32966 0.24943
 C41 C 0.80495 -0.32571 0.22786
 H42 H 0.84084 -0.30097 0.29161
 H43 H 0.80009 -0.34036 0.20737
 N44 N 0.76181 -0.21260 0.30086
 N45 N 0.73615 -0.19976 0.28799
 C46 C 0.72749 -0.17423 0.30522
 C47 C 0.74869 -0.17103 0.32992
 C48 C 0.77013 -0.19556 0.32662
 H49 H 0.70734 -0.15903 0.30020
 H50 H 0.79027 -0.20052 0.34183
 H51 H 0.76243 -0.23081 0.24343
 H52 H 0.73664 -0.25728 0.26799
 N53 N 0.69975 0.23791 0.78735
 N54 N 0.71274 0.26354 0.79966
 C55 C 0.69579 0.27240 0.82532
 C56 C 0.67106 0.25117 0.82907
 C57 C 0.67413 0.22959 0.80471
 H58 H 0.70095 0.29269 0.84017
 H59 H 0.65890 0.20940 0.80001
 Cu60 Cu 0.75050 0.28271 0.78086
 Cu61 Cu 0.71698 0.21723 0.74977
 Cu62 Cu 0.78429 0.25105 0.71593
 N63 N 0.78826 0.30151 0.76169
 N64 N 0.80135 0.28897 0.73626
 C65 C 0.82696 0.30635 0.72787
 C66 C 0.82988 0.33094 0.74922
 C67 C 0.80512 0.32735 0.77038
 H68 H 0.84226 0.30147 0.70783
 H69 H 0.79987 0.34237 0.79050
 N70 N 0.76354 0.21268 0.69882
 N71 N 0.73790 0.19979 0.71171
 C72 C 0.72949 0.17401 0.69472
 C73 C 0.75084 0.17070 0.67015
 C74 C 0.77209 0.19542 0.67330
 H75 H 0.70939 0.15875 0.69976
 H76 H 0.79224 0.20040 0.65810
 H77 H 0.76354 0.23201 0.75609
 H78 H 0.73768 0.25736 0.73048
 N79 N 0.30088 -0.23803 0.78800
 N80 N 0.28738 -0.26316 0.80081
 C81 C 0.30435 -0.27206 0.82644
 C82 C 0.32962 -0.25138 0.82967
 C83 C 0.32685 -0.23009 0.80503
 H84 H 0.29883 -0.29200 0.84164
 H85 H 0.34251 -0.21033 0.79992
 Cu86 Cu 0.24898 -0.28172 0.78270
 Cu87 Cu 0.28381 -0.21750 0.75028
 Cu88 Cu 0.21603 -0.25077 0.71690
 N89 N 0.21131 -0.30052 0.76333
 N90 N 0.19854 -0.28828 0.73759
 C91 C 0.17293 -0.30566 0.72919
 C92 C 0.16967 -0.32993 0.75085
 C93 C 0.19425 -0.32616 0.77221
 H94 H 0.15784 -0.30098 0.70893
 H95 H 0.19925 -0.34095 0.79257
 N96 N 0.23719 -0.21281 0.69940
 N97 N 0.26302 -0.20013 0.71213
 C98 C 0.27168 -0.17457 0.69492
 C99 C 0.25030 -0.17117 0.67040
 C100 C 0.22876 -0.19563 0.67378
 H101 H 0.29196 -0.15949 0.69982
 H102 H 0.20848 -0.20045 0.65870
 H103 H 0.23698 -0.23131 0.75675
 H104 H 0.26246 -0.25771 0.73183
 N105 N 0.69974 -0.23783 0.78790
 N106 N 0.71333 -0.26294 0.80064
 C107 C 0.69650 -0.27190 0.82633
 C108 C 0.67124 -0.25127 0.82965
 C109 C 0.67385 -0.22995 0.80504
 H110 H 0.70210 -0.29186 0.84146
 H111 H 0.65812 -0.21024 0.79999
 Cu112 Cu 0.75160 -0.28149 0.78238
 Cu113 Cu 0.71652 -0.21730 0.75012
 Cu114 Cu 0.78389 -0.25065 0.71619
 N115 N 0.78893 -0.30034 0.76258
 N116 N 0.80144 -0.28816 0.73669
 C117 C 0.82686 -0.30562 0.72799
 C118 C 0.83025 -0.32989 0.74962
 C119 C 0.80597 -0.32605 0.77126
 H120 H 0.84172 -0.30102 0.70755
 H121 H 0.80114 -0.34082 0.79167
 N122 N 0.76270 -0.21267 0.69893
 N123 N 0.73702 -0.19996 0.71187
 C124 C 0.72828 -0.17437 0.69478
 C125 C 0.74946 -0.17103 0.67010
 C126 C 0.77096 -0.19551 0.67326
 H127 H 0.70808 -0.15926 0.69985
 H128 H 0.79109 -0.20035 0.65801
 H129 H 0.73761 -0.25761 0.73161
 H130 H 0.76337 -0.23114 0.75624
 N131 N 0.30099 0.23739 0.78748
 N132 N 0.28799 0.26294 0.79993
 C133 C 0.30500 0.27177 0.82555
 C134 C 0.32978 0.25061 0.82911
 C135 C 0.32669 0.22910 0.80472
 H136 H 0.29983 0.29198 0.84050
 H137 H 0.34195 0.20896 0.79992
 Cu138 Cu 0.25012 0.28203 0.78141
 Cu139 Cu 0.28365 0.21676 0.74995
 Cu140 Cu 0.21607 0.25046 0.71656
 N141 N 0.21225 0.30072 0.76249
 N142 N 0.19906 0.28822 0.73710
 C143 C 0.17336 0.30554 0.72893
 C144 C 0.17047 0.33004 0.75037
 C145 C 0.19537 0.32644 0.77136
 H146 H 0.15793 0.30069 0.70897
 H147 H 0.20066 0.34142 0.79150
 N148 N 0.23683 0.21225 0.69927
 N149 N 0.26257 0.19941 0.71198
 C150 C 0.27095 0.17371 0.69488
 C151 C 0.24947 0.17042 0.67044
 C152 C 0.22817 0.19506 0.67375
 H153 H 0.29112 0.15849 0.69978
 H154 H 0.20792 0.20000 0.65868
 H155 H 0.26274 0.25691 0.73089
 H156 H 0.23709 0.23139 0.75656
 N157 N 0.30183 -0.23686 0.21281
 N158 N 0.28898 -0.26255 0.20049
 C159 C 0.30588 -0.27125 0.17477
 C160 C 0.33045 -0.24986 0.17102
 C161 C 0.32734 -0.22835 0.19540
 H162 H 0.30078 -0.29152 0.15987
 H163 H 0.34246 -0.20807 0.20009
 Cu164 Cu 0.25142 -0.28206 0.21924
 Cu165 Cu 0.28459 -0.21635 0.25039
 Cu166 Cu 0.21685 -0.24982 0.28357
 N167 N 0.21300 -0.30011 0.23771
 N168 N 0.19960 -0.28738 0.26288
 C169 C 0.17357 -0.30435 0.27072
 C170 C 0.17065 -0.32887 0.24930
 C171 C 0.19589 -0.32564 0.22867
 H172 H 0.15794 -0.29927 0.29046
 H173 H 0.20129 -0.34074 0.20865
 N174 N 0.23782 -0.21182 0.30107
 N175 N 0.26365 -0.19907 0.28842
 C176 C 0.27222 -0.17352 0.30566
 C177 C 0.25078 -0.17023 0.33012
 C178 C 0.22929 -0.19471 0.32668
 H179 H 0.29251 -0.15842 0.30086
 H180 H 0.20903 -0.19961 0.34174
 H181 H 0.26361 -0.25638 0.26964
 H182 H 0.23811 -0.23121 0.24345
 N183 N 0.69924 0.23618 0.21241
 N184 N 0.71254 0.26141 0.19960
 C185 C 0.69563 0.27007 0.17386
 C186 C 0.67062 0.24911 0.17058
 C187 C 0.67346 0.22791 0.19528
 H188 H 0.70101 0.29003 0.15865
 H189 H 0.65798 0.20802 0.20037
 Cu190 Cu 0.75061 0.28046 0.21780
 Cu191 Cu 0.71628 0.21595 0.25024
 Cu192 Cu 0.78331 0.25018 0.28405
 N193 N 0.78776 0.29980 0.23752
 N194 N 0.80041 0.28784 0.26343
 C195 C 0.82569 0.30558 0.27201
 C196 C 0.82887 0.32980 0.25031
 C197 C 0.80458 0.32561 0.22873
 H198 H 0.84065 0.30118 0.29242
 H199 H 0.79964 0.34025 0.20825
 N200 N 0.76255 0.21202 0.30142
 N201 N 0.73701 0.19896 0.28853
 C202 C 0.72861 0.17328 0.30568
 C203 C 0.74988 0.17025 0.33034
 C204 C 0.77107 0.19500 0.32711
 H205 H 0.70861 0.15788 0.30064
 H206 H 0.79118 0.20010 0.34231
 H207 H 0.73695 0.25656 0.26864
 H208 H 0.76298 0.23033 0.24407
 C209 C 0.25076 -0.01612 0.40067
 C210 C 0.24931 0.01641 0.40069
 C211 C 0.24884 0.02584 0.43219
 N212 N 0.24988 0.00009 0.45128
 C213 C 0.25104 -0.02561 0.43216
 C214 C 0.24847 0.05778 0.44252
 C215 C 0.24925 0.06757 0.47465
 C216 C 0.25364 0.09876 0.48434
 C217 C 0.25363 0.09866 0.51687
 C218 C 0.24922 0.06741 0.52640
 N219 N 0.24604 0.04870 0.50047
 C220 C 0.24836 0.05743 0.55847
 C221 C 0.24864 0.02546 0.56874
 C222 C 0.24902 0.01596 0.60023
 C223 C 0.25043 -0.01657 0.60021
 C224 C 0.25080 -0.02599 0.56871
 N225 N 0.24971 -0.00025 0.54962
 C226 C 0.25110 -0.05794 0.55838
 C227 C 0.25028 -0.06772 0.52625
 C228 C 0.24582 -0.09890 0.51655
 C229 C 0.24587 -0.09880 0.48402
 C230 C 0.25035 -0.06756 0.47450
 N231 N 0.25355 -0.04885 0.50043
 C232 C 0.25130 -0.05758 0.44243
 H233 H 0.25132 -0.03105 0.37981
 H234 H 0.24886 0.03139 0.37985
 H235 H 0.25999 -0.02513 0.50047
 H236 H 0.25696 0.11949 0.46954
 H237 H 0.25693 0.11930 0.53180
 H238 H 0.24853 0.03090 0.62110
 H239 H 0.25094 -0.03155 0.62105
 H240 H 0.24254 -0.11943 0.46909
 H241 H 0.23967 0.02495 0.50043
 H242 H 0.24245 -0.11962 0.53135
 C243 C 0.74909 -0.01662 0.59999
 C244 C 0.75061 0.01590 0.60002
 C245 C 0.75099 0.02539 0.56855
 N246 N 0.74981 -0.00031 0.54941
 C247 C 0.74866 -0.02605 0.56848
 C248 C 0.75139 0.05736 0.55828
 C249 C 0.75052 0.06722 0.52617
 C250 C 0.74618 0.09844 0.51655
 C251 C 0.74607 0.09841 0.48402
 C252 C 0.75034 0.06717 0.47442
 N253 N 0.75358 0.04840 0.50030
 C254 C 0.75104 0.05726 0.44232
 C255 C 0.75063 0.02532 0.43200
 C256 C 0.75010 0.01590 0.40049
 C257 C 0.74860 -0.01663 0.40046
 C258 C 0.74835 -0.02613 0.43193
 N259 N 0.74958 -0.00043 0.45107
 C260 C 0.74803 -0.05809 0.44220
 C261 C 0.74896 -0.06795 0.47431
 C262 C 0.75342 -0.09915 0.48393
 C263 C 0.75351 -0.09912 0.51646
 C264 C 0.74910 -0.06790 0.52606
 N265 N 0.74581 -0.04913 0.50018
 C266 C 0.74830 -0.05800 0.55815
 H267 H 0.74857 -0.03160 0.62083
 H268 H 0.75118 0.03084 0.62089
 H269 H 0.73939 -0.02540 0.50021
 H270 H 0.74297 0.11915 0.53141
 H271 H 0.74276 0.11910 0.46915
 H272 H 0.75054 0.03088 0.37965
 H273 H 0.74798 -0.03156 0.37959
 H274 H 0.75688 -0.11979 0.53134
 H275 H 0.75987 0.02464 0.50026
 H276 H 0.75672 -0.11984 0.46907
 C277 C 0.39990 0.25162 -0.01648
 C278 C 0.39983 0.25018 0.01598
 C279 C 0.43148 0.24975 0.02548
 N280 N 0.45075 0.25081 -0.00015
 C281 C 0.43159 0.25193 -0.02586
 C282 C 0.44179 0.24936 0.05739
 C283 C 0.47408 0.25013 0.06725
 C284 C 0.48376 0.25437 0.09842
 C285 C 0.51648 0.25436 0.09841
 C286 C 0.52614 0.25011 0.06724
 N287 N 0.50011 0.24702 0.04848
 C288 C 0.55843 0.24929 0.05738
 C289 C 0.56885 0.24973 0.02551
 C290 C 0.60055 0.25020 0.01614
 C291 C 0.60061 0.25173 -0.01632
 C292 C 0.56895 0.25204 -0.02582
 N293 N 0.54969 0.25083 -0.00019
 C294 C 0.55865 0.25235 -0.05772
 C295 C 0.52636 0.25142 -0.06758
 C296 C 0.51670 0.24690 -0.09871
 C297 C 0.48398 0.24683 -0.09871
 C298 C 0.47431 0.25131 -0.06757
 N299 N 0.50032 0.25462 -0.04884
 C300 C 0.44201 0.25216 -0.05773
 H301 H 0.37895 0.25215 -0.03145
 H302 H 0.37882 0.24971 0.03087
 H303 H 0.50029 0.26108 -0.02517
 H304 H 0.46881 0.25759 0.11907
 H305 H 0.53143 0.25756 0.11907
 H306 H 0.62150 0.24971 0.03111
 H307 H 0.62161 0.25231 -0.03120
 H308 H 0.46904 0.24342 -0.11934
 H309 H 0.50014 0.24078 0.02477
 H310 H 0.53166 0.24356 -0.11934
 C311 C 0.60105 0.74663 -0.01607
 C312 C 0.60113 0.74811 0.01639
 C313 C 0.56948 0.74894 0.02587
 N314 N 0.55020 0.74807 0.00023
 C315 C 0.56935 0.74668 -0.02547
 C316 C 0.55918 0.74961 0.05777
 C317 C 0.52688 0.74912 0.06764
 C318 C 0.51720 0.74527 0.09886
 C319 C 0.48448 0.74536 0.09885
 C320 C 0.47482 0.74927 0.06762
 N321 N 0.50086 0.75209 0.04884
 C322 C 0.44253 0.74995 0.05773
 C323 C 0.43211 0.74935 0.02586
 C324 C 0.40042 0.74866 0.01648
 C325 C 0.40035 0.74713 -0.01598
 C326 C 0.43201 0.74701 -0.02547
 N327 N 0.45128 0.74836 0.00015
 C328 C 0.44231 0.74683 -0.05737
 C329 C 0.47460 0.74785 -0.06719
 C330 C 0.48427 0.75270 -0.09826
 C331 C 0.51699 0.75266 -0.09825
 C332 C 0.52665 0.74778 -0.06716
 N333 N 0.50062 0.74434 -0.04847
 C334 C 0.55893 0.74663 -0.05733
 H335 H 0.62199 0.74584 -0.03103
 H336 H 0.62213 0.74838 0.03128
 H337 H 0.50064 0.73752 -0.02489
 H338 H 0.53214 0.74224 0.11955
 H339 H 0.46952 0.74242 0.11954
 H340 H 0.37947 0.74903 0.03144
 H341 H 0.37935 0.74641 -0.03086
 H342 H 0.53195 0.75625 -0.11884
 H343 H 0.50084 0.75795 0.02503
 H344 H 0.46932 0.75633 -0.11886
 C345 C -0.01696 0.40097 0.24944
 C346 C 0.01569 0.40096 0.24800
 C347 C 0.02520 0.43251 0.24753
 N348 N -0.00061 0.45167 0.24855
 C349 C -0.02644 0.43254 0.24970
 C350 C 0.05728 0.44283 0.24723
 C351 C 0.06714 0.47502 0.24798
 C352 C 0.09843 0.48472 0.25250
 C353 C 0.09838 0.51732 0.25242
 C354 C 0.06705 0.52688 0.24784
 N355 N 0.04825 0.50091 0.24461
 C356 C 0.05709 0.55904 0.24687
 C357 C 0.02501 0.56935 0.24701
 C358 C 0.01553 0.60092 0.24725
 C359 C -0.01713 0.60093 0.24866
 C360 C -0.02663 0.56937 0.24915
 N361 N -0.00081 0.55022 0.24814
 C362 C -0.05871 0.55905 0.24954
 C363 C -0.06858 0.52686 0.24883
 C364 C -0.09989 0.51716 0.24452
 C365 C -0.09984 0.48456 0.24464
 C366 C -0.06849 0.47500 0.24902
 N367 N -0.04967 0.50097 0.25209
 C368 C -0.05852 0.44285 0.25000
 H369 H -0.03197 0.38007 0.25001
 H370 H 0.03070 0.38006 0.24757
 H371 H -0.02583 0.50101 0.25841
 H372 H 0.11919 0.46986 0.25597
 H373 H 0.11910 0.53226 0.25580
 H374 H 0.03055 0.62182 0.24670
 H375 H -0.03213 0.62183 0.24909
 H376 H -0.12058 0.46961 0.24142
 H377 H 0.02446 0.50088 0.23813
 H378 H -0.12068 0.53201 0.24118
 C379 C -0.01660 0.60060 0.75000
 C380 C 0.01605 0.60063 0.75149
 C381 C 0.02555 0.56909 0.75194
 N382 N -0.00026 0.54991 0.75083
 C383 C -0.02609 0.56903 0.74967
 C384 C 0.05763 0.55879 0.75231
 C385 C 0.06750 0.52661 0.75152
 C386 C 0.09882 0.51695 0.74715
 C387 C 0.09877 0.48435 0.74714
 C388 C 0.06742 0.47475 0.75151
 N389 N 0.04860 0.50069 0.75470
 C390 C 0.05745 0.44259 0.75231
 C391 C 0.02537 0.43225 0.75201
 C392 C 0.01589 0.40068 0.75161
 C393 C -0.01676 0.40066 0.75013
 C394 C -0.02627 0.43220 0.74977
 N395 N -0.00045 0.45137 0.75091
 C396 C -0.05834 0.44250 0.74938
 C397 C -0.06822 0.47468 0.75020
 C398 C -0.09954 0.48434 0.75453
 C399 C -0.09949 0.51694 0.75452
 C400 C -0.06813 0.52654 0.75019
 N401 N -0.04931 0.50059 0.74704
 C402 C -0.05816 0.55870 0.74932
 H403 H -0.03162 0.62149 0.74944
 H404 H 0.03105 0.62155 0.75199
 H405 H -0.02548 0.50060 0.74073
 H406 H 0.11960 0.53183 0.74384
 H407 H 0.11951 0.46943 0.74383
 H408 H 0.03090 0.37979 0.75210
 H409 H -0.03176 0.37974 0.74958
 H410 H -0.12023 0.53187 0.75777
 H411 H 0.02477 0.50069 0.76103
 H412 H -0.12033 0.46946 0.75779
 C413 C 0.35340 0.24970 0.14632
 C414 C 0.37359 0.24971 0.12599
 C415 C 0.39725 0.24965 0.10219
 C416 C 0.41746 0.24955 0.08186
 C417 C 0.64755 0.74958 0.14675
 C418 C 0.62738 0.74946 0.12639
 C419 C 0.60373 0.74943 0.10257
 C420 C 0.58352 0.74947 0.08224
 C421 C 0.64702 0.25148 -0.14667
 C422 C 0.62684 0.25171 -0.12633
 C423 C 0.60319 0.25195 -0.10252
 C424 C 0.58298 0.25213 -0.08219
 C425 C 0.35379 0.74815 -0.14619
 C426 C 0.37405 0.74781 -0.12592
 C427 C 0.39775 0.74744 -0.10216
 C428 C 0.41798 0.74716 -0.08185
 C429 C 0.14633 0.35439 0.24894
 C430 C 0.12608 0.37471 0.24853
 C431 C 0.10230 0.39842 0.24807
 C432 C 0.08191 0.41861 0.24768
 C433 C 0.14681 0.64716 0.75116
 C434 C 0.12650 0.62689 0.75144
 C435 C 0.10267 0.60321 0.75175
 C436 C 0.08226 0.58302 0.75200
 C437 C -0.14788 0.64738 0.24926
 C438 C -0.12760 0.62710 0.24919
 C439 C -0.10376 0.60342 0.24922
 C440 C -0.08335 0.58326 0.24932
 C441 C -0.14736 0.35396 0.74940
 C442 C -0.12712 0.37430 0.74950
 C443 C -0.10335 0.39805 0.74953
 C444 C -0.08297 0.41826 0.74950
 C445 C 0.24940 0.14678 0.35449
 C446 C 0.24922 0.12650 0.37467
 C447 C 0.24898 0.10272 0.39827
 C448 C 0.24876 0.08236 0.41837
 C449 C 0.75093 0.14644 0.64619
 C450 C 0.75101 0.12610 0.62609
 C451 C 0.75114 0.10226 0.60255
 C452 C 0.75125 0.08189 0.58246
 C453 C 0.25039 -0.14702 0.64632
 C454 C 0.25050 -0.12672 0.62617
 C455 C 0.25067 -0.10291 0.60260
 C456 C 0.25084 -0.08252 0.58251
 C457 C 0.74858 -0.14694 0.35405
 C458 C 0.74847 -0.12670 0.37426
 C459 C 0.74833 -0.10295 0.39788
 C460 C 0.74820 -0.08262 0.41802
 C461 C 0.64718 0.74817 -0.14618
 C462 C 0.62699 0.74774 -0.12589
 C463 C 0.60336 0.74729 -0.10213
 C464 C 0.58319 0.74697 -0.08181
 C465 C 0.35383 0.25092 -0.14669
 C466 C 0.37400 0.25119 -0.12637
 C467 C 0.39759 0.25153 -0.10256
 C468 C 0.41775 0.25181 -0.08222
 C469 C 0.35440 0.75003 0.14672
 C470 C 0.37452 0.74996 0.12636
 C471 C 0.39810 0.74992 0.10254
 C472 C 0.41826 0.74991 0.08220
 C473 C 0.64660 0.24927 0.14636
 C474 C 0.62644 0.24935 0.12602
 C475 C 0.60285 0.24938 0.10221
 C476 C 0.58269 0.24937 0.08187
 C477 C -0.14702 0.64714 0.74964
 C478 C -0.12681 0.62682 0.74962
 C479 C -0.10308 0.60311 0.74956
 C480 C -0.08273 0.58291 0.74947
 C481 C -0.14724 0.35421 0.25010
 C482 C -0.12710 0.37461 0.25000
 C483 C -0.10342 0.39839 0.24994
 C484 C -0.08309 0.41861 0.24993
 C485 C 0.14638 0.35423 0.75083
 C486 C 0.12613 0.37451 0.75120
 C487 C 0.10237 0.39818 0.75161
 C488 C 0.08202 0.41837 0.75194
 C489 C 0.14636 0.64713 0.24867
 C490 C 0.12596 0.62698 0.24818
 C491 C 0.10209 0.60340 0.24766
 C492 C 0.08167 0.58326 0.24727
 C493 C 0.74924 -0.14689 0.64607
 C494 C 0.74904 -0.12661 0.62594
 C495 C 0.74879 -0.10285 0.60239
 C496 C 0.74858 -0.08251 0.58230
 C497 C 0.25081 -0.14620 0.35424
 C498 C 0.25088 -0.12600 0.37446
 C499 C 0.25099 -0.10231 0.39808
 C500 C 0.25112 -0.08204 0.41823
 C501 C 0.75006 0.14611 0.35436
 C502 C 0.75024 0.12585 0.37451
 C503 C 0.75050 0.10210 0.39807
 C504 C 0.75073 0.08177 0.41817
 C505 C 0.24928 0.14625 0.64646
 C506 C 0.24909 0.12596 0.62634
 C507 C 0.24886 0.10220 0.60279
 C508 C 0.24864 0.08189 0.58267
   
