data_POSCAR
  _audit_creation_date              2014-09-24
  _audit_creation_method            'ToBaCCo'
  _symmetry_space_group_name_H-M    'P1'
  _symmetry_Int_Tables_number       1
  _symmetry_cell_setting            triclinic
  loop_
  _symmetry_equiv_pos_as_xyz
 x,y,z
_cell_length_a 38.4705
_cell_length_b 17.9237
_cell_length_c 14.1090
_cell_angle_alpha 90.817100
_cell_angle_beta 90.247000
_cell_angle_gamma 90.926000
loop_
  _atom_site_label
  _atom_site_type_symbol
  _atom_site_fract_x
  _atom_site_fract_y
  _atom_site_fract_z
C1 C 0.82235 0.21965 0.42288
 C2 C 0.83615 0.19778 0.50958
 C3 C 0.81643 0.19478 0.59239
 C4 C 0.78174 0.22087 0.59095
 C5 C 0.76693 0.24296 0.50344
 C6 C 0.78709 0.24111 0.41897
 C7 C 0.77185 0.26372 0.33358
 C8 C 0.73694 0.28087 0.32885
 C9 C 0.71633 0.28132 0.41057
 C10 C 0.73159 0.26512 0.49957
 C11 C 0.76077 0.22128 0.67249
 C12 C 0.72644 0.24541 0.66917
 C13 C 0.71136 0.26912 0.58390
 C14 C 0.67592 0.29123 0.57834
 C15 C 0.66144 0.30280 0.48795
 C16 C 0.68072 0.29709 0.40515
 H17 H 0.78664 0.26803 0.26887
 H18 H 0.72637 0.29446 0.26016
 H19 H 0.77057 0.20206 0.73968
 H20 H 0.71143 0.24228 0.73364
 H21 H 0.86264 0.17929 0.51227
 H22 H 0.63490 0.32157 0.48127
 C23 C 0.32166 0.71483 0.43838
 C24 C 0.33599 0.70144 0.52746
 C25 C 0.31774 0.71537 0.61115
 C26 C 0.28251 0.73671 0.60557
 C27 C 0.26712 0.74873 0.51544
 C28 C 0.28699 0.73909 0.43161
 C29 C 0.27175 0.75432 0.34344
 C30 C 0.23723 0.77510 0.33695
 C31 C 0.21679 0.78288 0.41851
 C32 C 0.23186 0.77086 0.50899
 C33 C 0.26212 0.74538 0.68710
 C34 C 0.22716 0.76348 0.68050
 C35 C 0.21166 0.77965 0.59269
 C36 C 0.17611 0.80009 0.58486
 C37 C 0.16198 0.80993 0.49381
 C38 C 0.18153 0.80188 0.41169
 H39 H 0.28628 0.75020 0.27822
 H40 H 0.22662 0.78463 0.26705
 H41 H 0.27268 0.73658 0.75707
 H42 H 0.21245 0.76305 0.74545
 H43 H 0.36185 0.67868 0.53142
 H44 H 0.13550 0.82897 0.48617
 C45 C 0.17335 0.22811 -0.42323
 C46 C 0.15793 0.22798 -0.51360
 C47 C 0.17728 0.23247 -0.59727
 C48 C 0.21411 0.23814 -0.59082
 C49 C 0.23049 0.24221 -0.50038
 C50 C 0.21017 0.23703 -0.41642
 C51 C 0.22715 0.24499 -0.32822
 C52 C 0.26303 0.25255 -0.32187
 C53 C 0.28357 0.25805 -0.40342
 C54 C 0.26729 0.25324 -0.49384
 C55 C 0.23499 0.24257 -0.67224
 C56 C 0.27093 0.24917 -0.66563
 C57 C 0.28767 0.25956 -0.57765
 C58 C 0.32429 0.27312 -0.57056
 C59 C 0.33930 0.27653 -0.47979
 C60 C 0.31997 0.26888 -0.39693
 H61 H 0.21304 0.24707 -0.26235
 H62 H 0.27435 0.25503 -0.25165
 H63 H 0.22392 0.24145 -0.74273
 H64 H 0.28530 0.24590 -0.73108
 H65 H 0.13053 0.21436 -0.51946
 H66 H 0.36628 0.29298 -0.47188
 C67 C -0.32663 0.73441 -0.41127
 C68 C -0.34220 0.73275 -0.50131
 C69 C -0.32292 0.73776 -0.58513
 C70 C -0.28626 0.74827 -0.57863
 C71 C -0.26991 0.75336 -0.48816
 C72 C -0.29004 0.74534 -0.40444
 C73 C -0.27315 0.75202 -0.31608
 C74 C -0.23743 0.76010 -0.30947
 C75 C -0.21701 0.76994 -0.39046
 C76 C -0.23333 0.76727 -0.48113
 C77 C -0.26567 0.75696 -0.65990
 C78 C -0.22993 0.76900 -0.65312
 C79 C -0.21313 0.77700 -0.56461
 C80 C -0.17651 0.79007 -0.55670
 C81 C -0.16138 0.79148 -0.46599
 C82 C -0.18069 0.78152 -0.38330
 H83 H -0.28713 0.75179 -0.24999
 H84 H -0.22631 0.75918 -0.23922
 H85 H -0.27700 0.75515 -0.73019
 H86 H -0.21577 0.77082 -0.71890
 H87 H -0.36948 0.71755 -0.50632
 H88 H -0.13388 0.80470 -0.45860
 O89 O -0.04345 0.88615 0.20311
 O90 O -0.08498 0.94283 0.11342
 C91 C -0.07559 0.89986 0.18193
 O92 O 0.04957 1.15984 0.14841
 O93 O 0.08704 1.08442 0.06697
 C94 C 0.08059 1.13972 0.12421
 O95 O -0.04701 1.14771 0.17064
 O96 O -0.08675 1.06849 0.09829
 C97 C -0.07856 1.12392 0.15490
 O98 O 0.05325 0.88550 0.17594
 O99 O 0.08890 0.95547 0.08079
 C100 C 0.08371 0.90626 0.14608
 Zr101 Zr 0.00332 0.92391 0.13947
 O102 O 0.01094 0.94373 0.28656
 O103 O 0.00157 0.80768 0.16329
 Zr104 Zr 0.00057 1.11047 0.11524
 O105 O 0.00736 1.12416 0.26347
 O106 O -0.00470 1.22711 0.09981
 O107 O -0.02876 1.01614 0.15140
 O108 O 0.03264 1.02119 0.13959
 O109 O 0.04576 0.86374 -0.15063
 O110 O 0.08537 0.94318 -0.07847
 C111 C 0.07728 0.88805 -0.13541
 O112 O -0.05539 1.11348 -0.17348
 O113 O -0.09058 1.05203 -0.06803
 C114 C -0.08564 1.09300 -0.14188
 O115 O 0.04140 1.13270 -0.17925
 O116 O 0.08304 1.07317 -0.09295
 C117 C 0.07356 1.11915 -0.15827
 O118 O -0.05109 0.85789 -0.13836
 O119 O -0.08889 0.92790 -0.05027
 C120 C -0.08215 0.87491 -0.11089
 Zr121 Zr -0.00212 0.90163 -0.09714
 O122 O -0.00610 0.87892 -0.24446
 O123 O -0.00269 0.78521 -0.07262
 Zr124 Zr -0.00518 1.08862 -0.12162
 O125 O -0.00504 1.07447 -0.27086
 O126 O -0.01131 1.20517 -0.13529
 Zr127 Zr -0.05287 1.00138 0.01775
 Zr128 Zr 0.05115 1.01084 -0.00014
 O129 O 0.02613 0.99660 -0.13218
 O130 O -0.03496 0.99042 -0.12283
 O131 O 0.03192 0.90095 0.01741
 O132 O -0.03287 1.11028 0.00016
 O133 O -0.02945 0.89642 0.02783
 O134 O 0.02860 1.11694 -0.01028
 H135 H 0.04964 1.02669 0.19229
 H136 H -0.04923 1.15230 -0.00346
 H137 H 0.04054 0.99444 -0.19011
 H138 H -0.04421 0.85113 0.03570
 H139 H 0.01458 1.24499 0.05942
 H140 H 0.00808 1.23017 -0.10051
 H141 H -0.02289 1.03594 -0.28707
 H142 H 0.00447 0.92156 -0.27802
 H143 H 0.02079 0.77108 -0.05107
 H144 H 0.01425 0.78360 0.11064
 H145 H -0.01072 0.96499 0.31217
 H146 H -0.01062 1.09316 0.29463
 O147 O 0.45556 0.36788 0.17940
 O148 O 0.41458 0.43465 0.09950
 C149 C 0.42360 0.38501 0.16085
 O150 O 0.55013 0.64487 0.16798
 O151 O 0.58791 0.57616 0.07820
 C152 C 0.58123 0.62762 0.14108
 O153 O 0.45384 0.63107 0.19059
 O154 O 0.41374 0.56091 0.10572
 C155 C 0.42214 0.61046 0.17057
 O156 O 0.55270 0.36979 0.15805
 O157 O 0.58900 0.44646 0.07326
 C158 C 0.58337 0.39313 0.13267
 Zr159 Zr 0.50275 0.40952 0.12299
 O160 O 0.50943 0.41053 0.27210
 O161 O 0.50009 0.29142 0.12177
 Zr162 Zr 0.50131 0.59743 0.13047
 O163 O 0.50813 0.59275 0.27930
 O164 O 0.49734 0.71499 0.13848
 O165 O 0.47122 0.50103 0.14967
 O166 O 0.53270 0.50555 0.14024
 O167 O 0.54560 0.37317 -0.16710
 O168 O 0.58571 0.44552 -0.08580
 C169 C 0.57736 0.39393 -0.14782
 O170 O 0.44709 0.63657 -0.14957
 O171 O 0.41027 0.56351 -0.06139
 C172 C 0.41629 0.61592 -0.12257
 O173 O 0.54333 0.64519 -0.16115
 O174 O 0.58429 0.57703 -0.08334
 C175 C 0.57524 0.62789 -0.14301
 O176 O 0.44897 0.37115 -0.16080
 O177 O 0.41115 0.43651 -0.06674
 C178 C 0.41789 0.38684 -0.13221
 Zr179 Zr 0.49790 0.41279 -0.11511
 O180 O 0.49779 0.41841 -0.26492
 O181 O 0.49536 0.29480 -0.12321
 Zr182 Zr 0.49655 0.60074 -0.10704
 O183 O 0.49185 0.60921 -0.25608
 O184 O 0.49614 0.71801 -0.08925
 Zr185 Zr 0.44749 0.50141 0.01459
 Zr186 Zr 0.55177 0.50873 0.00067
 O187 O 0.52723 0.50887 -0.13278
 O188 O 0.46573 0.50483 -0.12596
 O189 O 0.53152 0.39856 -0.00091
 O190 O 0.46844 0.61055 0.01636
 O191 O 0.47021 0.39536 0.00749
 O192 O 0.53003 0.61584 0.00788
 H193 H 0.54952 0.50635 0.19365
 H194 H 0.45280 0.65383 0.02075
 H195 H 0.54195 0.50963 -0.19016
 H196 H 0.45528 0.34981 0.00795
 H197 H 0.51154 0.73568 0.08647
 H198 H 0.49418 0.73885 -0.15370
 H199 H 0.50536 0.56860 -0.28536
 H200 H 0.47742 0.44792 -0.28373
 H201 H 0.51396 0.27569 -0.08197
 H202 H 0.51812 0.27330 0.07776
 H203 H 0.48899 0.43505 0.30030
 H204 H 0.48828 0.56393 0.30523
 C205 C 0.38115 0.26820 0.34844
 C206 C 0.34625 0.29001 0.35137
 C207 C 0.33626 0.33840 0.27699
 C208 C 0.36060 0.36385 0.20852
 C209 C 0.39618 0.34613 0.21541
 C210 C 0.40439 0.29418 0.28383
 C211 C 0.43453 0.25630 0.32703
 C212 C 0.40853 0.22555 0.39955
 H213 H 0.31049 0.36165 0.27504
 H214 H 0.35189 0.40086 0.15383
 H215 H 0.45379 0.29660 0.35833
 H216 H 0.44542 0.21282 0.27927
 H217 H 0.41447 0.24650 0.47230
 H218 H 0.40419 0.16422 0.39328
 C219 C -0.16288 0.85366 0.29327
 C220 C -0.15421 0.80398 0.36530
 C221 C -0.11994 0.77605 0.36350
 C222 C -0.09483 0.80443 0.30075
 C223 C -0.10305 0.86199 0.23786
 C224 C -0.13805 0.88155 0.23100
 C225 C -0.15383 0.95690 0.23205
 C226 C -0.18100 0.92654 0.29970
 H227 H -0.11195 0.73461 0.41398
 H228 H -0.06854 0.78407 0.30551
 H229 H -0.16472 0.97126 0.16168
 H230 H -0.13631 0.99967 0.26547
 H231 H -0.20751 0.92342 0.26817
 H232 H -0.17942 0.95235 0.37179
 C233 C 0.62814 0.76103 0.30635
 C234 C 0.65912 0.72472 0.32838
 C235 C 0.66789 0.66456 0.26677
 C236 C 0.64383 0.63662 0.19766
 C237 C 0.61044 0.66783 0.18892
 C238 C 0.60530 0.73456 0.23879
 C239 C 0.57566 0.77744 0.27837
 C240 C 0.60131 0.80861 0.35278
 H241 H 0.69147 0.63374 0.27859
 H242 H 0.65022 0.58687 0.15771
 H243 H 0.55516 0.74096 0.30944
 H244 H 0.56625 0.82028 0.22864
 H245 H 0.59395 0.79205 0.42545
 H246 H 0.60708 0.86912 0.34445
 C247 C 0.12949 1.26534 0.29429
 C248 C 0.15911 1.22386 0.31587
 C249 C 0.16672 1.16484 0.25157
 C250 C 0.14280 1.14295 0.17951
 C251 C 0.11032 1.17815 0.17143
 C252 C 0.10644 1.24406 0.22407
 C253 C 0.07731 1.28641 0.26735
 C254 C 0.10314 1.31196 0.34436
 H255 H 0.18911 1.13015 0.26304
 H256 H 0.14824 1.09377 0.13723
 H257 H 0.05629 1.24953 0.29499
 H258 H 0.06854 1.33254 0.22168
 H259 H 0.09528 1.29212 0.41522
 H260 H 0.10968 1.37251 0.34129
 C261 C 0.61834 0.29108 -0.35100
 C262 C 0.65415 0.30572 -0.34256
 C263 C 0.66503 0.35002 -0.26340
 C264 C 0.64065 0.37603 -0.19587
 C265 C 0.60481 0.35920 -0.20636
 C266 C 0.59461 0.31677 -0.28559
 C267 C 0.57371 0.24590 -0.29034
 C268 C 0.59978 0.21768 -0.36220
 H269 H 0.69189 0.36825 -0.25616
 H270 H 0.64973 0.41066 -0.13711
 H271 H 0.54743 0.25429 -0.32113
 H272 H 0.57408 0.21503 -0.22252
 H273 H 0.58845 0.20968 -0.43424
 H274 H 0.61538 0.17034 -0.33632
 C275 C 0.11847 0.79532 -0.34487
 C276 C 0.15390 0.81416 -0.33722
 C277 C 0.16412 0.85850 -0.25764
 C278 C 0.13993 0.87770 -0.18669
 C279 C 0.10469 0.85563 -0.19520
 C280 C 0.09469 0.81538 -0.27642
 C281 C 0.07572 0.74222 -0.28459
 C282 C 0.10178 0.72034 -0.36003
 H283 H 0.19027 0.88133 -0.25183
 H284 H 0.14855 0.91209 -0.12718
 H285 H 0.04893 0.74842 -0.31295
 H286 H 0.07764 0.70874 -0.21907
 H287 H 0.08993 0.71404 -0.43170
 H288 H 0.11887 0.67399 -0.33863
 C289 C 0.36753 0.74742 -0.27873
 C290 C 0.33690 0.70649 -0.29818
 C291 C 0.32820 0.64933 -0.23392
 C292 C 0.35257 0.62688 -0.16476
 C293 C 0.38681 0.65591 -0.16529
 C294 C 0.39192 0.72189 -0.21581
 C295 C 0.42153 0.75695 -0.26776
 C296 C 0.39459 0.78669 -0.33653
 H297 H 0.30402 0.61810 -0.24191
 H298 H 0.34576 0.58257 -0.11729
 H299 H 0.43887 0.71537 -0.30148
 H300 H 0.43487 0.80161 -0.22519
 H301 H 0.39797 0.76434 -0.40942
 H302 H 0.39213 0.84834 -0.33189
 C303 C -0.15345 1.09168 -0.33233
 C304 C -0.16768 1.16337 -0.32788
 C305 C -0.15886 1.20735 -0.24662
 C306 C -0.13314 1.18331 -0.18162
 C307 C -0.11627 1.11473 -0.19635
 C308 C -0.12901 1.06877 -0.26901
 C309 C -0.11453 1.01149 -0.33451
 C310 C -0.14221 1.03557 -0.40563
 H311 H -0.16897 1.26312 -0.23855
 H312 H -0.12484 1.22031 -0.12425
 H313 H -0.11866 0.95371 -0.30891
 H314 H -0.08757 1.02555 -0.35691
 H315 H -0.16244 0.99173 -0.41946
 H316 H -0.13049 1.05934 -0.47036
 C317 C 0.66091 0.66936 -0.26213
 C318 C 0.65182 0.72057 -0.33205
 C319 C 0.61834 0.75165 -0.32535
 C320 C 0.59423 0.72592 -0.25816
 C321 C 0.60261 0.66721 -0.19692
 C322 C 0.63706 0.64361 -0.19617
 C323 C 0.65105 0.56653 -0.20073
 C324 C 0.67732 0.59480 -0.27230
 H325 H 0.61019 0.79356 -0.37498
 H326 H 0.56827 0.74837 -0.25922
 H327 H 0.63192 0.52590 -0.23178
 H328 H 0.66304 0.55008 -0.13250
 H329 H 0.67369 0.56973 -0.34430
 H330 H 0.70447 0.59514 -0.24504
 C331 C 0.16021 1.16504 -0.27240
 C332 C 0.15130 1.21473 -0.34431
 C333 C 0.11720 1.24350 -0.34066
 C334 C 0.09248 1.21608 -0.27595
 C335 C 0.10089 1.15847 -0.21317
 C336 C 0.13579 1.13798 -0.20849
 C337 C 0.15109 1.06217 -0.21019
 C338 C 0.17793 1.09170 -0.27931
 H339 H 0.10903 1.28484 -0.39103
 H340 H 0.06623 1.23681 -0.27951
 H341 H 0.13303 1.02006 -0.24272
 H342 H 0.16234 1.04733 -0.14041
 H343 H 0.17578 1.06564 -0.35116
 H344 H 0.20466 1.09429 -0.24906
 C345 C 0.33054 0.33758 -0.24241
 C346 C 0.33911 0.28011 -0.30578
 C347 C 0.37118 0.24494 -0.29104
 C348 C 0.39594 0.27618 -0.22762
 C349 C 0.38904 0.34292 -0.17697
 C350 C 0.35471 0.36750 -0.17830
 C351 C 0.34089 0.44382 -0.18986
 C352 C 0.31465 0.41122 -0.26021
 H353 H 0.37865 0.19862 -0.33628
 H354 H 0.42150 0.25181 -0.22503
 H355 H 0.36023 0.48198 -0.22296
 H356 H 0.32859 0.46377 -0.12332
 H357 H 0.31874 0.43058 -0.33393
 H358 H 0.28740 0.41364 -0.23456
 C359 C -0.16993 0.83068 -0.21521
 C360 C -0.16108 0.78412 -0.29187
 C361 C -0.12891 0.74783 -0.28511
 C362 C -0.10400 0.77166 -0.21760
 C363 C -0.11115 0.83113 -0.15413
 C364 C -0.14604 0.85139 -0.14562
 C365 C -0.16339 0.92413 -0.12821
 C366 C -0.18899 0.90218 -0.20699
 H367 H -0.12138 0.70765 -0.33899
 H368 H -0.07812 0.74905 -0.22249
 H369 H -0.17564 0.92661 -0.05704
 H370 H -0.14654 0.97259 -0.14424
 H371 H -0.18641 0.93685 -0.27125
 H372 H -0.21599 0.89397 -0.18101
 C373 C 0.33519 0.64880 0.28504
 C374 C 0.34403 0.70214 0.35463
 C375 C 0.37719 0.73619 0.34951
 C376 C 0.40202 0.70955 0.28498
 C377 C 0.39426 0.64787 0.22454
 C378 C 0.35965 0.62261 0.22100
 C379 C 0.34530 0.54514 0.22616
 C380 C 0.31836 0.57402 0.29523
 H381 H 0.38478 0.77935 0.40035
 H382 H 0.42795 0.73390 0.28748
 H383 H 0.36412 0.50718 0.25967
 H384 H 0.33393 0.52597 0.15732
 H385 H 0.32117 0.55140 0.36782
 H386 H 0.29149 0.57226 0.26593
 C387 C -0.12249 1.24122 0.33910
 C388 C -0.15650 1.21210 0.34210
 C389 C -0.16657 1.16494 0.26467
 C390 C -0.14186 1.14112 0.19690
 C391 C -0.10649 1.16251 0.20627
 C392 C -0.09896 1.21889 0.27271
 C393 C -0.06851 1.24574 0.33013
 C394 C -0.09479 1.27261 0.40377
 H395 H -0.19246 1.14035 0.26147
 H396 H -0.14993 1.10143 0.14238
 H397 H -0.05406 1.29203 0.29549
 H398 H -0.05232 1.19927 0.35576
 H399 H -0.09585 1.33442 0.40994
 H400 H -0.09173 1.24341 0.47191
 C401 C 0.63673 0.26316 0.27901
 C402 C 0.66268 0.31167 0.31466
 C403 C 0.66772 0.38006 0.26820
 C404 C 0.64368 0.40325 0.19933
 C405 C 0.61370 0.35952 0.17840
 C406 C 0.61265 0.28685 0.21350
 C407 C 0.58428 0.23927 0.25375
 C408 C 0.61091 0.21237 0.32520
 H409 H 0.68821 0.41837 0.29129
 H410 H 0.64653 0.45862 0.17090
 H411 H 0.57532 0.19485 0.20315
 H412 H 0.56329 0.27215 0.28741
 H413 H 0.61747 0.15265 0.31492
 H414 H 0.60456 0.22878 0.39908
 C415 C 0.13797 0.77149 0.28325
 C416 C 0.16419 0.81839 0.32071
 C417 C 0.16890 0.88875 0.27871
 C418 C 0.14426 0.91509 0.21318
 C419 C 0.11420 0.87216 0.19071
 C420 C 0.11343 0.79802 0.22083
 C421 C 0.08531 0.74895 0.25950
 C422 C 0.11240 0.71907 0.32755
 H423 H 0.18944 0.92620 0.30371
 H424 H 0.14677 0.97176 0.18888
 H425 H 0.07593 0.70659 0.20665
 H426 H 0.06461 0.78055 0.29641
 H427 H 0.11878 0.65975 0.31309
 H428 H 0.10670 0.73260 0.40274
   
