data_POSCAR
  _audit_creation_date              2014-09-24
  _audit_creation_method            'ToBaCCo'
  _symmetry_space_group_name_H-M    'P1'
  _symmetry_Int_Tables_number       1
  _symmetry_cell_setting            triclinic
  loop_
  _symmetry_equiv_pos_as_xyz
 x,y,z
_cell_length_a 26.4765
_cell_length_b 26.4577
_cell_length_c 26.4291
_cell_angle_alpha 90.112900
_cell_angle_beta 89.984200
_cell_angle_gamma 90.002700
loop_
  _atom_site_label
  _atom_site_type_symbol
  _atom_site_fract_x
  _atom_site_fract_y
  _atom_site_fract_z
C1 C 0.34513 1.03070 -0.47755
 C2 C 0.34547 1.03048 -0.52947
 C3 C 0.39451 1.01904 -0.54418
 N4 N 0.42390 1.01212 -0.50299
 C5 C 0.39395 1.01956 -0.46225
 C6 C 0.41048 1.01141 -0.59463
 C7 C 0.46134 1.00286 -0.60872
 C8 C 0.47688 0.98529 -0.65576
 C9 C 0.52879 0.98494 -0.65528
 C10 C 0.54372 1.00236 -0.60798
 N11 N 0.50233 1.01345 -0.58002
 C12 C 0.59443 1.01054 -0.59311
 C13 C 0.60957 1.01951 -0.54261
 C14 C 0.65824 1.03191 -0.52747
 C15 C 0.65773 1.03365 -0.47556
 C16 C 0.60883 1.02224 -0.46070
 N17 N 0.57963 1.01334 -0.50168
 C18 C 0.59291 1.01639 -0.41011
 C19 C 0.54222 1.00806 -0.39567
 C20 C 0.52695 0.99231 -0.34801
 C21 C 0.47503 0.99119 -0.34847
 C22 C 0.45995 1.00635 -0.39638
 N23 N 0.50115 1.01692 -0.42474
 C24 C 0.40922 1.01285 -0.41159
 H25 H 0.31254 1.03767 -0.45379
 H26 H 0.31315 1.03716 -0.55364
 H27 H 0.50113 1.03454 -0.45979
 H28 H 0.45324 0.97426 -0.68733
 H29 H 0.55282 0.97366 -0.68646
 H30 H 0.69086 1.03832 -0.55132
 H31 H 0.68986 1.04163 -0.45151
 H32 H 0.45111 0.98080 -0.31694
 H33 H 0.50209 1.03262 -0.54572
 H34 H 0.55073 0.98287 -0.31608
 C35 C -0.65690 1.52207 0.01775
 C36 C -0.65660 1.47025 0.01624
 C37 C -0.60730 1.45574 0.00576
 N38 N -0.57770 1.49705 0.00054
 C39 C -0.60775 1.53766 0.00826
 C40 C -0.59115 1.40533 -0.00191
 C41 C -0.54016 1.39120 -0.00965
 C42 C -0.52429 1.34413 -0.02678
 C43 C -0.47236 1.34461 -0.02631
 C44 C -0.45779 1.39187 -0.00880
 N45 N -0.49933 1.41987 0.00153
 C46 C -0.40727 1.40663 0.00019
 C47 C -0.39209 1.45681 0.00995
 C48 C -0.34353 1.47140 0.02317
 C49 C -0.34385 1.52318 0.02601
 C50 C -0.39258 1.53850 0.01438
 N51 N -0.42183 1.49789 0.00427
 C52 C -0.40828 1.58922 0.00977
 C53 C -0.45884 1.60420 0.00153
 C54 C -0.47368 1.65254 -0.01221
 C55 C -0.52556 1.65237 -0.01403
 C56 C -0.54115 1.60389 -0.00128
 N57 N -0.50018 1.57496 0.00855
 C58 C -0.59214 1.58858 0.00380
 H59 H -0.68965 1.54561 0.02455
 H60 H -0.68913 1.44606 0.02152
 H61 H -0.50058 1.53921 0.02457
 H62 H -0.54771 1.31251 -0.03798
 H63 H -0.44811 1.31345 -0.03708
 H64 H -0.31114 1.44730 0.02960
 H65 H -0.31175 1.54685 0.03506
 H66 H -0.54917 1.68447 -0.02323
 H67 H -0.49986 1.45411 0.02068
 H68 H -0.44965 1.68475 -0.01982
 C69 C 0.01172 0.52364 0.34390
 C70 C 0.01174 0.47181 0.34321
 C71 C 0.00045 0.45620 0.39206
 N72 N -0.00673 0.49682 0.42230
 C73 C 0.00057 0.53806 0.39312
 C74 C -0.00609 0.40540 0.40716
 C75 C -0.01496 0.39022 0.45772
 C76 C -0.03100 0.34239 0.47211
 C77 C -0.03226 0.34195 0.52408
 C78 C -0.01686 0.38950 0.54025
 N79 N -0.00615 0.41852 0.49951
 C80 C -0.00990 0.40361 0.59148
 C81 C -0.00238 0.45393 0.60795
 C82 C 0.00888 0.46816 0.65726
 C83 C 0.01044 0.51997 0.65789
 C84 C 0.00004 0.53583 0.60895
 N85 N -0.00818 0.49539 0.57870
 C86 C -0.00473 0.58682 0.59377
 C87 C -0.01207 0.60228 0.54305
 C88 C -0.02614 0.65063 0.52831
 C89 C -0.02644 0.65102 0.47630
 C90 C -0.01250 0.60295 0.46054
 N91 N -0.00347 0.57364 0.50146
 C92 C -0.00555 0.58848 0.40950
 H93 H 0.01870 0.54792 0.31172
 H94 H 0.01861 0.44828 0.31037
 H95 H 0.01319 0.53818 0.50106
 H96 H -0.04035 0.31087 0.44766
 H97 H -0.04271 0.31000 0.54737
 H98 H 0.01490 0.44374 0.68952
 H99 H 0.01782 0.54332 0.69074
 H100 H -0.03538 0.68325 0.45278
 H101 H 0.01183 0.45333 0.50026
 H102 H -0.03486 0.68250 0.55253
 O103 O -0.12880 0.99950 -0.06765
 O104 O 0.13110 0.99464 -0.07029
 O105 O -0.00128 1.06404 -0.13137
 O106 O 0.00185 0.92739 -0.13009
 O107 O 0.00214 0.86638 -0.06770
 O108 O -0.00032 1.12655 -0.07022
 O109 O 0.06880 0.99431 -0.13146
 O110 O -0.06773 0.99843 -0.13005
 Zr111 Zr 0.00095 0.99623 -0.08955
 O112 O 0.04706 0.95063 -0.04651
 O113 O -0.04407 1.04281 -0.04631
 C114 C -0.11409 1.00019 -0.11441
 C115 C 0.11549 0.99385 -0.11676
 C116 C -0.00202 1.11079 -0.11667
 C117 C 0.00253 0.88099 -0.11448
 H118 H 0.06849 1.06356 -0.06912
 O119 O 0.04718 1.04221 -0.04711
 H120 H -0.06651 0.92970 -0.06655
 O121 O -0.04453 0.95131 -0.04538
 O122 O 0.13245 0.99937 0.06655
 O123 O -0.12756 0.99719 0.06907
 O124 O 0.07093 1.12705 -0.00084
 O125 O 0.06956 0.86687 -0.00145
 O126 O -0.06705 0.86765 0.00344
 O127 O -0.06564 1.12779 -0.00299
 O128 O 0.00471 1.06707 0.12907
 O129 O 0.00080 0.93043 0.13037
 O130 O 0.00455 1.12815 0.06674
 O131 O -0.00005 0.86802 0.06914
 O132 O 0.13225 1.06497 -0.00087
 O133 O -0.12770 1.06644 -0.00180
 O134 O -0.12845 0.92967 0.00339
 O135 O 0.13151 0.92834 -0.00273
 O136 O 0.07137 1.00037 0.12897
 O137 O -0.06535 0.99742 0.13032
 Zr138 Zr 0.09070 0.99687 -0.00144
 Zr139 Zr -0.08704 0.99779 0.00032
 Zr140 Zr 0.00235 1.08628 -0.00134
 Zr141 Zr 0.00142 0.90836 0.00030
 Zr142 Zr 0.00265 0.99832 0.08852
 O143 O -0.04374 0.95225 0.04621
 O144 O 0.04836 1.04347 0.04453
 C145 C 0.11776 1.00093 0.11331
 C146 C -0.11203 0.99681 0.11556
 C147 C 0.11741 1.11164 -0.00042
 C148 C 0.11618 0.88181 -0.00275
 C149 C -0.11350 0.88305 0.00481
 C150 C -0.11225 1.11291 -0.00334
 C151 C 0.00538 1.11348 0.11350
 C152 C -0.00054 0.88369 0.11564
 H153 H -0.06443 1.06563 0.06667
 O154 O -0.04310 1.04371 0.04514
 H155 H 0.06926 0.93058 0.06682
 O156 O 0.04764 0.95198 0.04516
 C157 C 0.22808 1.00568 0.22125
 C158 C 0.23450 1.04963 0.25121
 C159 C 0.27250 1.05090 0.28916
 C160 C 0.30400 1.00832 0.29668
 C161 C 0.29785 0.96453 0.26642
 C162 C 0.25968 0.96316 0.22864
 C163 C 0.25405 0.91887 0.19901
 C164 C 0.28524 0.87712 0.20651
 C165 C 0.32270 0.87855 0.24331
 C166 C 0.32911 0.92164 0.27304
 C167 C 0.27805 1.09516 0.31884
 C168 C 0.24718 1.13708 0.31099
 C169 C 0.21024 1.13595 0.27366
 C170 C 0.20366 1.09277 0.24412
 C171 C 0.34254 1.00948 0.33568
 C172 C 0.37441 1.01039 0.36822
 C173 C 0.18890 1.00414 0.18294
 C174 C 0.15636 1.00274 0.15114
 H175 H 0.22555 0.91598 0.16980
 H176 H 0.28030 0.84350 0.18364
 H177 H 0.34690 0.84606 0.24890
 H178 H 0.35876 0.92092 0.30120
 H179 H 0.30631 1.09788 0.34829
 H180 H 0.25201 1.17066 0.33396
 H181 H 0.18650 1.16869 0.26757
 H182 H 0.17428 1.09366 0.21568
 C183 C -0.22095 0.99956 0.22507
 C184 C -0.22325 1.04129 0.25863
 C185 C -0.26153 1.04340 0.29626
 C186 C -0.29732 1.00381 0.30004
 C187 C -0.29499 0.96205 0.26651
 C188 C -0.25663 0.95989 0.22893
 C189 C -0.25494 0.91772 0.19591
 C190 C -0.29011 0.87876 0.19996
 C191 C -0.32773 0.88095 0.23659
 C192 C -0.33032 0.92202 0.26960
 C193 C -0.26307 1.08547 0.32942
 C194 C -0.22782 1.12439 0.32543
 C195 C -0.19042 1.12236 0.28858
 C196 C -0.18796 1.08139 0.25547
 C197 C -0.33645 1.00609 0.33843
 C198 C -0.36884 1.00817 0.37043
 C199 C -0.18215 0.99776 0.18635
 C200 C -0.15001 0.99693 0.15410
 H201 H -0.22644 0.91434 0.16674
 H202 H -0.28812 0.84666 0.17459
 H203 H -0.35501 0.85062 0.23952
 H204 H -0.36022 0.92198 0.29753
 H205 H -0.29146 1.08879 0.35869
 H206 H -0.22956 1.15629 0.35109
 H207 H -0.16313 1.15269 0.28562
 H208 H -0.15814 1.08152 0.22746
 C209 C -0.22410 1.00823 -0.22253
 C210 C -0.23273 1.05421 -0.24846
 C211 C -0.27041 1.05669 -0.28668
 C212 C -0.29928 1.01321 -0.29861
 C213 C -0.29100 0.96739 -0.27226
 C214 C -0.25325 0.96488 -0.23415
 C215 C -0.24554 0.91863 -0.20842
 C216 C -0.27436 0.87608 -0.21998
 C217 C -0.31134 0.87855 -0.25721
 C218 C -0.31973 0.92356 -0.28317
 C219 C -0.27827 1.10300 -0.31222
 C220 C -0.24974 1.14567 -0.30029
 C221 C -0.21290 1.14325 -0.26292
 C222 C -0.20436 1.09817 -0.23713
 C223 C -0.33727 1.01532 -0.33811
 C224 C -0.36892 1.01621 -0.37088
 C225 C -0.18507 1.00539 -0.18412
 C226 C -0.15263 1.00292 -0.15227
 H227 H -0.21726 0.91484 -0.17912
 H228 H -0.26798 0.84103 -0.19992
 H229 H -0.33365 0.84540 -0.26604
 H230 H -0.34896 0.92358 -0.31178
 H231 H -0.30650 1.10672 -0.34159
 H232 H -0.25626 1.18080 -0.32017
 H233 H -0.19086 1.17648 -0.25381
 H234 H -0.17535 1.09820 -0.20829
 C235 C 0.22355 0.99901 -0.22693
 C236 C 0.24340 1.04670 -0.24091
 C237 C 0.28130 1.04978 -0.27885
 C238 C 0.29909 1.00516 -0.30257
 C239 C 0.27907 0.95750 -0.28873
 C240 C 0.24115 0.95443 -0.25079
 C241 C 0.22168 0.90640 -0.23755
 C242 C 0.23927 0.86262 -0.26107
 C243 C 0.27631 0.86562 -0.29821
 C244 C 0.29613 0.91240 -0.31203
 C245 C 0.30061 1.09784 -0.29218
 C246 C 0.28295 1.14162 -0.26870
 C247 C 0.24586 1.13861 -0.23161
 C248 C 0.22619 1.09181 -0.21770
 C249 C 0.33801 1.00824 -0.34110
 C250 C 0.37037 1.01053 -0.37309
 C251 C 0.18515 0.99596 -0.18793
 C252 C 0.15331 0.99431 -0.15543
 H253 H 0.19273 0.90215 -0.20896
 H254 H 0.22399 0.82619 -0.25047
 H255 H 0.28978 0.83150 -0.31643
 H256 H 0.32490 0.91279 -0.34112
 H257 H 0.32948 1.10211 -0.32084
 H258 H 0.29813 1.17807 -0.27933
 H259 H 0.23231 1.17272 -0.21343
 H260 H 0.19742 1.09146 -0.18861
 C261 C 0.22718 1.22031 -0.00100
 C262 C 0.22662 1.25910 0.03597
 C263 C 0.26443 1.29724 0.03535
 C264 C 0.30249 1.29642 -0.00231
 C265 C 0.30311 1.25753 -0.03921
 C266 C 0.26544 1.21925 -0.03845
 C267 C 0.26710 1.18050 -0.07543
 C268 C 0.30495 1.17956 -0.11207
 C269 C 0.34156 1.21719 -0.11304
 C270 C 0.34080 1.25585 -0.07716
 C271 C 0.26318 1.33554 0.07282
 C272 C 0.22563 1.33618 0.10977
 C273 C 0.18863 1.29892 0.11034
 C274 C 0.18893 1.26074 0.07395
 C275 C 0.34106 1.33543 -0.00284
 C276 C 0.37288 1.36805 -0.00271
 C277 C 0.18829 1.18165 -0.00061
 C278 C 0.15591 1.14965 -0.00038
 H279 H 0.23937 1.15046 -0.07634
 H280 H 0.30593 1.14943 -0.13980
 H281 H 0.37077 1.21638 -0.14170
 H282 H 0.37006 1.28429 -0.07949
 H283 H 0.29118 1.36530 0.07404
 H284 H 0.22526 1.36575 0.13814
 H285 H 0.15955 1.29957 0.13914
 H286 H 0.15938 1.23256 0.07601
 C287 C 0.22529 0.77250 -0.00179
 C288 C 0.27073 0.78100 0.02519
 C289 C 0.30856 0.74291 0.02644
 C290 C 0.30066 0.69653 0.00080
 C291 C 0.25525 0.68806 -0.02621
 C292 C 0.21748 0.72621 -0.02758
 C293 C 0.17245 0.71695 -0.05495
 C294 C 0.16493 0.67128 -0.08019
 C295 C 0.20182 0.63394 -0.07877
 C296 C 0.24653 0.64201 -0.05214
 C297 C 0.35372 0.75228 0.05356
 C298 C 0.36127 0.79799 0.07874
 C299 C 0.32428 0.83524 0.07751
 C300 C 0.27942 0.82703 0.05119
 C301 C 0.33926 0.65761 0.00207
 C302 C 0.37134 0.62527 0.00297
 C303 C 0.18649 0.81124 -0.00269
 C304 C 0.15431 0.84343 -0.00304
 H305 H 0.14265 0.74485 -0.05717
 H306 H 0.13027 0.66484 -0.10096
 H307 H 0.19578 0.59851 -0.09841
 H308 H 0.27410 0.61181 -0.05216
 H309 H 0.38362 0.72448 0.05557
 H310 H 0.39602 0.80455 0.09930
 H311 H 0.33035 0.87071 0.09709
 H312 H 0.25176 0.85714 0.05140
 C313 C -0.22238 0.77387 0.01147
 C314 C -0.27076 0.78516 0.03134
 C315 C -0.30891 0.74736 0.03181
 C316 C -0.29838 0.69854 0.01248
 C317 C -0.24976 0.68706 -0.00674
 C318 C -0.21161 0.72483 -0.00715
 C319 C -0.16324 0.71245 -0.02639
 C320 C -0.15285 0.66411 -0.04464
 C321 C -0.19024 0.62725 -0.04448
 C322 C -0.23821 0.63837 -0.02583
 C323 C -0.35705 0.75953 0.05172
 C324 C -0.36717 0.80767 0.07069
 C325 C -0.32987 0.84463 0.07022
 C326 C -0.28213 0.83371 0.05087
 C327 C -0.33754 0.66019 0.01202
 C328 C -0.36983 0.62811 0.01122
 C329 C -0.18389 0.81281 0.00953
 C330 C -0.15180 0.84500 0.00749
 H331 H -0.13293 0.73988 -0.02745
 H332 H -0.11563 0.65528 -0.05913
 H333 H -0.18203 0.58980 -0.05886
 H334 H -0.26601 0.60842 -0.02651
 H335 H -0.38728 0.73204 0.05291
 H336 H -0.40417 0.81632 0.08585
 H337 H -0.33789 0.88193 0.08509
 H338 H -0.25429 0.86365 0.05151
 C339 C -0.21994 1.22343 -0.00510
 C340 C -0.22900 1.25169 0.03955
 C341 C -0.26718 1.28942 0.04006
 C342 C -0.29615 1.29854 -0.00403
 C343 C -0.28657 1.27078 -0.04889
 C344 C -0.24824 1.23317 -0.04946
 C345 C -0.23917 1.20601 -0.09478
 C346 C -0.26724 1.21569 -0.13828
 C347 C -0.30479 1.25240 -0.13771
 C348 C -0.31454 1.27973 -0.09362
 C349 C -0.27548 1.31729 0.08509
 C350 C -0.24693 1.30806 0.12840
 C351 C -0.20969 1.27104 0.12794
 C352 C -0.20061 1.24311 0.08413
 C353 C -0.33575 1.33645 -0.00310
 C354 C -0.36843 1.36814 -0.00182
 C355 C -0.18180 1.18410 -0.00514
 C356 C -0.15012 1.15146 -0.00460
 H357 H -0.21030 1.17714 -0.09712
 H358 H -0.25980 1.19460 -0.17262
 H359 H -0.32648 1.25978 -0.17162
 H360 H -0.34412 1.30792 -0.09503
 H361 H -0.30400 1.34650 0.08733
 H362 H -0.25376 1.32974 0.16250
 H363 H -0.18766 1.26397 0.16169
 H364 H -0.17110 1.21486 0.08561
 C365 C 0.00293 1.22297 0.22266
 C366 C 0.03013 1.21631 0.26827
 C367 C 0.02786 1.25394 0.30665
 C368 C -0.00151 1.29802 0.29910
 C369 C -0.02878 1.30463 0.25351
 C370 C -0.02662 1.26694 0.21519
 C371 C -0.05438 1.27425 0.17000
 C372 C -0.08334 1.31763 0.16284
 C373 C -0.08542 1.35451 0.20030
 C374 C -0.05851 1.34831 0.24518
 C375 C 0.05521 1.24639 0.35203
 C376 C 0.08390 1.20285 0.35931
 C377 C 0.08605 1.16602 0.32182
 C378 C 0.05968 1.17252 0.27668
 C379 C -0.00350 1.33661 0.33812
 C380 C -0.00489 1.36875 0.37048
 C381 C 0.00471 1.18430 0.18374
 C382 C 0.00552 1.15204 0.15154
 H383 H -0.05402 1.24662 0.13976
 H384 H -0.10428 1.32263 0.12803
 H385 H -0.10800 1.38812 0.19457
 H386 H -0.06131 1.37806 0.27320
 H387 H 0.05463 1.27392 0.38236
 H388 H 0.10455 1.19765 0.39427
 H389 H 0.10831 1.13222 0.32770
 H390 H 0.06267 1.14287 0.24857
 C391 C -0.00798 1.21795 -0.22765
 C392 C 0.03482 1.22604 -0.25873
 C393 C 0.03360 1.26405 -0.29662
 C394 C -0.01043 1.29370 -0.30323
 C395 C -0.05352 1.28505 -0.27268
 C396 C -0.05230 1.24702 -0.23478
 C397 C -0.09582 1.23903 -0.20468
 C398 C -0.13929 1.26784 -0.21179
 C399 C -0.14049 1.30501 -0.24886
 C400 C -0.09820 1.31371 -0.27905
 C401 C 0.07689 1.27151 -0.32718
 C402 C 0.12007 1.24213 -0.32060
 C403 C 0.12121 1.20488 -0.28363
 C404 C 0.07924 1.19682 -0.25286
 C405 C -0.01108 1.33330 -0.34117
 C406 C -0.01084 1.36622 -0.37267
 C407 C -0.00620 1.17999 -0.18816
 C408 C -0.00438 1.14845 -0.15540
 H409 H -0.09676 1.21045 -0.17546
 H410 H -0.17224 1.26121 -0.18847
 H411 H -0.17438 1.32723 -0.25428
 H412 H -0.10095 1.34302 -0.30742
 H413 H 0.07782 1.29996 -0.35652
 H414 H 0.15279 1.24826 -0.34438
 H415 H 0.15476 1.18205 -0.27880
 H416 H 0.08199 1.16738 -0.22463
 C417 C 0.00142 0.77057 -0.22282
 C418 C -0.03590 0.73228 -0.22100
 C419 C -0.03695 0.69402 -0.25880
 C420 C -0.00083 0.69445 -0.29833
 C421 C 0.03641 0.73282 -0.30022
 C422 C 0.03757 0.77099 -0.26231
 C423 C 0.07507 0.80905 -0.26504
 C424 C 0.11031 0.80946 -0.30419
 C425 C 0.10923 0.77211 -0.34122
 C426 C 0.07280 0.73413 -0.33945
 C427 C -0.07454 0.65606 -0.25615
 C428 C -0.11030 0.65611 -0.21745
 C429 C -0.10946 0.69369 -0.18065
 C430 C -0.07269 0.73134 -0.18210
 C431 C -0.00222 0.65566 -0.33719
 C432 C -0.00344 0.62344 -0.36950
 C433 C 0.00232 0.80974 -0.18434
 C434 C 0.00268 0.84229 -0.15241
 H435 H 0.07748 0.83890 -0.23709
 H436 H 0.13854 0.83900 -0.30587
 H437 H 0.13672 0.77259 -0.37155
 H438 H 0.07344 0.70593 -0.36917
 H439 H -0.07679 0.62606 -0.28395
 H440 H -0.13889 0.62689 -0.21607
 H441 H -0.13751 0.69374 -0.15086
 H442 H -0.07354 0.75969 -0.15255
 C443 C -0.00455 0.77529 0.22562
 C444 C 0.01829 0.78454 0.27318
 C445 C 0.01755 0.74652 0.31110
 C446 C -0.00589 0.69943 0.30116
 C447 C -0.02895 0.69027 0.25368
 C448 C -0.02835 0.72835 0.21582
 C449 C -0.05173 0.71836 0.16867
 C450 C -0.07500 0.67206 0.15919
 C451 C -0.07551 0.63479 0.19618
 C452 C -0.05280 0.64357 0.24295
 C453 C 0.04057 0.75664 0.35839
 C454 C 0.06374 0.80299 0.36791
 C455 C 0.06454 0.84014 0.33081
 C456 C 0.04213 0.83124 0.28392
 C457 C -0.00596 0.66034 0.33960
 C458 C -0.00584 0.62778 0.37143
 C459 C -0.00328 0.81389 0.18669
 C460 C -0.00208 0.84584 0.15428
 H461 H -0.05232 0.74616 0.13870
 H462 H -0.09273 0.66507 0.12293
 H463 H -0.09361 0.59888 0.18863
 H464 H -0.05421 0.61342 0.27052
 H465 H 0.04090 0.72895 0.38846
 H466 H 0.08116 0.81011 0.40428
 H467 H 0.08260 0.87607 0.33838
 H468 H 0.04370 0.86133 0.25629
   
