data_POSCAR
  _audit_creation_date              2014-09-24
  _audit_creation_method            'ToBaCCo'
  _symmetry_space_group_name_H-M    'P1'
  _symmetry_Int_Tables_number       1
  _symmetry_cell_setting            triclinic
  loop_
  _symmetry_equiv_pos_as_xyz
 x,y,z
_cell_length_a 19.1357
_cell_length_b 11.7812
_cell_length_c 12.8640
_cell_angle_alpha 89.620800
_cell_angle_beta 90.562300
_cell_angle_gamma 89.860600
loop_
  _atom_site_label
  _atom_site_type_symbol
  _atom_site_fract_x
  _atom_site_fract_y
  _atom_site_fract_z
O1 O 0.13764 0.12256 0.19543
 O2 O 0.18672 -0.01424 0.09253
 C3 C 0.18990 0.05990 0.16625
 O4 O -0.13650 -0.13936 0.17221
 O5 O -0.18254 0.01343 0.08334
 C6 C -0.18786 -0.07235 0.14602
 O7 O 0.04781 -0.24717 0.18559
 O8 O 0.14423 -0.18807 0.09573
 C9 C 0.11393 -0.25169 0.16455
 O10 O -0.04422 0.24817 0.18485
 O11 O -0.13970 0.19268 0.08844
 C12 C -0.10973 0.25565 0.15787
 Zr13 Zr 0.03400 0.13288 0.13492
 O14 O 0.02761 0.13210 0.29907
 O15 O 0.08076 0.29560 0.13775
 Zr16 Zr -0.02987 -0.13427 0.12892
 O17 O -0.02867 -0.12132 0.29270
 O18 O -0.06922 -0.30163 0.13916
 O19 O 0.06004 -0.03820 0.15285
 O20 O -0.05480 0.03432 0.15021
 O21 O -0.04178 0.25883 -0.17774
 O22 O -0.13790 0.19769 -0.08838
 C23 C -0.10745 0.26455 -0.15390
 O24 O 0.05052 -0.23477 -0.19127
 O25 O 0.14529 -0.18590 -0.09011
 C26 C 0.11572 -0.24363 -0.16392
 O27 O -0.13414 -0.12754 -0.18593
 O28 O -0.18156 0.01791 -0.09179
 C29 C -0.18593 -0.06291 -0.15923
 O30 O 0.13938 0.13336 -0.18338
 O31 O 0.18707 -0.01146 -0.08549
 C32 C 0.19111 0.06781 -0.15541
 Zr33 Zr 0.03533 0.14044 -0.12715
 O34 O 0.02970 0.15110 -0.29135
 O35 O 0.08240 0.30281 -0.12050
 Zr36 Zr -0.02871 -0.12754 -0.13372
 O37 O -0.03458 -0.11832 -0.29802
 O38 O -0.06253 -0.29851 -0.13710
 Zr39 Zr 0.09943 -0.05912 0.00178
 Zr40 Zr -0.09441 0.06361 -0.00082
 O41 O -0.05294 0.04248 -0.15045
 O42 O 0.06131 -0.02972 -0.15033
 O43 O -0.01901 0.19402 0.00353
 O44 O 0.02289 -0.18655 -0.00204
 O45 O 0.09586 0.11959 0.00502
 O46 O -0.09226 -0.11532 -0.00377
 H47 H -0.08465 0.05065 0.21085
 H48 H 0.03832 -0.26685 -0.00302
 H49 H -0.08180 0.06232 -0.21234
 H50 H 0.14009 0.16311 0.00663
 H51 H -0.06094 -0.33820 0.07152
 H52 H -0.10496 -0.30389 -0.09396
 H53 H 0.01241 -0.09799 -0.32340
 H54 H 0.05406 0.08384 -0.31912
 H55 H 0.05095 0.35298 -0.08096
 H56 H 0.05011 0.34780 0.09752
 H57 H 0.04705 0.05877 0.32390
 H58 H -0.04836 -0.19347 0.31930
 O59 O 0.54948 0.74710 0.68257
 O60 O 0.64323 0.69536 0.58323
 C61 C 0.61430 0.75554 0.65516
 O62 O 0.45726 0.25416 0.68577
 O63 O 0.36086 0.31054 0.59100
 C64 C 0.39153 0.24701 0.66022
 O65 O 0.63886 0.37984 0.69135
 O66 O 0.68649 0.51876 0.58801
 C67 C 0.69057 0.44342 0.66150
 O68 O 0.36517 0.64040 0.67537
 O69 O 0.31741 0.49175 0.58476
 C70 C 0.31330 0.57519 0.64946
 Zr71 Zr 0.47079 0.63700 0.62693
 O72 O 0.47174 0.62758 0.79107
 O73 O 0.43674 0.80811 0.62815
 Zr74 Zr 0.53469 0.36954 0.63295
 O75 O 0.53026 0.36889 0.79725
 O76 O 0.58181 0.20666 0.63578
 O77 O 0.56100 0.54032 0.64919
 O78 O 0.44621 0.46833 0.64985
 O79 O 0.36217 0.63204 0.31472
 O80 O 0.31590 0.48908 0.41428
 C81 C 0.31039 0.56923 0.34521
 O82 O 0.63730 0.37009 0.31329
 O83 O 0.68596 0.51288 0.41041
 C84 C 0.68939 0.43447 0.34062
 O85 O 0.45626 0.24532 0.32384
 O86 O 0.36076 0.30644 0.41450
 C87 C 0.39086 0.23953 0.34916
 O88 O 0.54630 0.73860 0.30159
 O89 O 0.64188 0.68798 0.40068
 C90 C 0.61180 0.74627 0.32708
 Zr91 Zr 0.46842 0.63207 0.36424
 O92 O 0.45980 0.62528 0.20023
 O93 O 0.43544 0.80387 0.36278
 Zr94 Zr 0.53312 0.36472 0.36981
 O95 O 0.52409 0.36086 0.20564
 O96 O 0.58011 0.20187 0.37052
 Zr97 Zr 0.59867 0.56180 0.49707
 Zr98 Zr 0.40501 0.44008 0.50006
 O99 O 0.44410 0.46242 0.34896
 O100 O 0.55875 0.53454 0.34587
 O101 O 0.40669 0.61894 0.49613
 O102 O 0.59494 0.38316 0.50119
 O103 O 0.52165 0.68949 0.49413
 O104 O 0.48075 0.30971 0.50272
 H105 H 0.41721 0.45155 0.71143
 H106 H 0.63918 0.33927 0.50265
 H107 H 0.41410 0.44302 0.28846
 H108 H 0.53610 0.77018 0.49198
 H109 H 0.55053 0.15453 0.59746
 H110 H 0.55370 0.15393 0.41971
 H111 H 0.55459 0.42109 0.17741
 H112 H 0.50530 0.59884 0.17365
 H113 H 0.39089 0.80822 0.40093
 H114 H 0.39713 0.81456 0.57852
 H115 H 0.45349 0.70142 0.81554
 H116 H 0.54705 0.44388 0.82087
 N117 N 0.37089 0.07023 0.23762
 N118 N 0.31730 0.02243 0.18950
 C119 C 0.25826 0.07709 0.21655
 C120 C 0.27478 0.16207 0.28616
 C121 C 0.34678 0.15558 0.29653
 H122 H 0.24019 0.22578 0.31765
 H123 H 0.42309 0.04741 0.22680
 H124 H 0.32174 -0.04294 0.13547
 N125 N 0.63025 0.90717 0.20405
 N126 N 0.68349 0.95564 0.15673
 C127 C 0.74294 0.90407 0.18871
 C128 C 0.72718 0.82022 0.26032
 C129 C 0.65517 0.82478 0.26741
 H130 H 0.76263 0.76081 0.29805
 H131 H 0.57789 0.92905 0.19152
 H132 H 0.67871 1.02049 0.10132
 N133 N 0.81814 0.48036 0.68235
 N134 N 0.87205 0.43273 0.73081
 C135 C 0.84832 0.34796 0.79155
 C136 C 0.77630 0.34166 0.78195
 C137 C 0.75931 0.42615 0.71103
 H138 H 0.74192 0.27850 0.81516
 H139 H 0.82221 0.54536 0.62712
 H140 H 0.92416 0.45534 0.71919
 N141 N 0.18532 0.54605 0.66707
 N142 N 0.13294 0.59415 0.71643
 C143 C 0.15873 0.67663 0.77776
 C144 C 0.23047 0.68156 0.76728
 C145 C 0.24508 0.59797 0.69559
 H146 H 0.26630 0.74162 0.80216
 H147 H 0.17966 0.48140 0.61246
 H148 H 0.08045 0.57236 0.70619
 N149 N 0.37238 0.08113 0.77826
 N150 N 0.31912 0.03346 0.82641
 C151 C 0.25974 0.08717 0.79701
 C152 C 0.27579 0.17163 0.72589
 C153 C 0.34781 0.16546 0.71678
 H154 H 0.24075 0.23385 0.69131
 H155 H 0.42466 0.05825 0.78995
 H156 H 0.32395 -0.03172 0.88149
 N157 N 0.63301 0.92083 0.77151
 N158 N 0.68604 0.96909 0.82049
 C159 C 0.74550 0.91629 0.79276
 C160 C 0.72990 0.83195 0.72190
 C161 C 0.65797 0.83723 0.71123
 H162 H 0.76519 0.77046 0.68854
 H163 H 0.58063 0.94282 0.78184
 H164 H 0.68101 1.03400 0.87486
 N165 N 0.18531 0.54067 0.33743
 N166 N 0.12896 0.59310 0.28703
 C167 C 0.15488 0.67186 0.22153
 C168 C 0.22741 0.67168 0.22815
 C169 C 0.24423 0.59028 0.30304
 H170 H 0.26295 0.72874 0.18894
 H171 H 0.18095 0.47942 0.39609
 H172 H 0.07643 0.57556 0.30146
 N173 N 0.81704 0.46905 0.32105
 N174 N 0.87039 0.42163 0.27325
 C175 C 0.84610 0.33707 0.21309
 C176 C 0.77412 0.33045 0.22267
 C177 C 0.75787 0.41493 0.29278
 H178 H 0.73932 0.26793 0.18921
 H179 H 0.82170 0.53439 0.37517
 H180 H 0.92258 0.44481 0.28435
   
