data_POSCAR
  _audit_creation_date              2014-09-24
  _audit_creation_method            'ToBaCCo'
  _symmetry_space_group_name_H-M    'P1'
  _symmetry_Int_Tables_number       1
  _symmetry_cell_setting            triclinic
  loop_
  _symmetry_equiv_pos_as_xyz
 x,y,z
_cell_length_a 37.6709
_cell_length_b 35.5612
_cell_length_c 28.5171
_cell_angle_alpha 100.737400
_cell_angle_beta 96.430900
_cell_angle_gamma 94.696600
loop_
  _atom_site_label
  _atom_site_type_symbol
  _atom_site_fract_x
  _atom_site_fract_y
  _atom_site_fract_z
N1 N 0.55437 0.65421 0.60661
 N2 N 0.54052 0.62807 0.62839
 C3 C 0.50678 0.63533 0.63578
 C4 C 0.49964 0.66804 0.61834
 C5 C 0.53035 0.67934 0.60029
 H6 H 0.48885 0.61838 0.65276
 H7 H 0.53432 0.70320 0.58216
 Cu8 Cu 0.56903 0.58861 0.64691
 Cu9 Cu 0.60065 0.65163 0.58289
 Cu10 Cu 0.64984 0.57844 0.60890
 N11 N 0.59840 0.54951 0.66474
 N12 N 0.62983 0.54589 0.64933
 C13 C 0.64625 0.51977 0.66982
 C14 C 0.62422 0.50641 0.70003
 C15 C 0.59379 0.52554 0.69571
 H16 H 0.67307 0.51240 0.66498
 H17 H 0.57099 0.52361 0.71538
 N18 N 0.66574 0.61470 0.56915
 N19 N 0.64767 0.64364 0.56114
 C20 C 0.66605 0.66446 0.53517
 C21 C 0.69707 0.64782 0.52646
 C22 C 0.69610 0.61630 0.54833
 H23 H 0.65754 0.68981 0.52323
 H24 H 0.71628 0.59645 0.54953
 H25 H 0.60159 0.59306 0.57856
 H26 H 0.62407 0.62506 0.63550
 N27 N 0.94315 0.31011 0.09797
 N28 N 0.95639 0.32108 0.14364
 C29 C 0.98703 0.30480 0.15165
 C30 C 0.99368 0.28361 0.10815
 C31 C 0.96540 0.28776 0.07490
 H32 H 1.00368 0.30907 0.18606
 H33 H 0.96089 0.27473 0.03701
 Cu34 Cu 0.93357 0.35812 0.18734
 Cu35 Cu 0.89701 0.32407 0.07344
 Cu36 Cu 0.87584 0.40939 0.12613
 N37 N 0.91881 0.40830 0.21698
 N38 N 0.89968 0.42917 0.19203
 C39 C 0.89557 0.46256 0.22090
 C40 C 0.91233 0.46243 0.26644
 C41 C 0.92677 0.42763 0.26287
 H42 H 0.87969 0.48429 0.21026
 H43 H 0.94176 0.41713 0.29150
 N44 N 0.84280 0.37538 0.07525
 N45 N 0.85011 0.34053 0.05707
 C46 C 0.82107 0.32132 0.02807
 C47 C 0.79446 0.34582 0.02745
 C48 C 0.80918 0.38000 0.05735
 H49 H 0.81937 0.29176 0.00915
 H50 H 0.79579 0.40549 0.06755
 H51 H 0.92355 0.38251 0.12959
 H52 H 0.88299 0.35975 0.14961
 N53 N 0.39559 0.20572 -0.10980
 N54 N 0.42361 0.18696 -0.11946
 C55 C 0.45194 0.21253 -0.11944
 C56 C 0.44126 0.24907 -0.10961
 C57 C 0.40532 0.24383 -0.10386
 H58 H 0.47807 0.20504 -0.12788
 H59 H 0.38768 0.26602 -0.09572
 Cu60 Cu 0.42124 0.13033 -0.13742
 Cu61 Cu 0.34876 0.17897 -0.10393
 Cu62 Cu 0.34001 0.08380 -0.14369
 N63 N 0.40875 0.07819 -0.17497
 N64 N 0.37610 0.06070 -0.17929
 C65 C 0.37423 0.02606 -0.20850
 C66 C 0.40775 0.02139 -0.22263
 C67 C 0.42919 0.05481 -0.20039
 H68 H 0.35054 0.00548 -0.21777
 H69 H 0.45728 0.06186 -0.20313
 N70 N 0.31295 0.10709 -0.09405
 N71 N 0.31506 0.14463 -0.07941
 C72 C 0.29385 0.15257 -0.04450
 C73 C 0.27840 0.11801 -0.03652
 C74 C 0.29104 0.08981 -0.06857
 H75 H 0.29131 0.18111 -0.02483
 H76 H 0.28534 0.05899 -0.07241
 H77 H 0.38021 0.13772 -0.09466
 H78 H 0.37062 0.14267 -0.15863
 N79 N 0.06314 0.84006 0.38409
 N80 N 0.04560 0.86683 0.36870
 C81 C 0.01021 0.85528 0.36138
 C82 C 0.00527 0.81934 0.37287
 C83 C 0.03942 0.81036 0.38710
 H84 H -0.01040 0.87187 0.34883
 H85 H 0.04651 0.78461 0.39938
 Cu86 Cu 0.07017 0.91495 0.36091
 Cu87 Cu 0.11530 0.84763 0.40059
 Cu88 Cu 0.15448 0.90927 0.33535
 N89 N 0.09600 0.95607 0.33859
 N90 N 0.12844 0.95312 0.32635
 C91 C 0.13874 0.98413 0.30838
 C92 C 0.11145 1.00793 0.31049
 C93 C 0.08478 0.98931 0.32983
 H94 H 0.16414 0.98900 0.29500
 H95 H 0.05874 0.99868 0.33561
 N96 N 0.18122 0.87320 0.36698
 N97 N 0.16671 0.85129 0.39395
 C98 C 0.19275 0.83487 0.41657
 C99 C 0.22514 0.84695 0.40295
 C100 C 0.21690 0.87095 0.37130
 H101 H 0.18861 0.81667 0.44233
 H102 H 0.23580 0.88774 0.35546
 H103 H 0.13014 0.90537 0.39510
 H104 H 0.11284 0.86849 0.33981
 C105 C 0.11372 0.16308 0.17389
 C106 C 0.09134 0.19061 0.16252
 C107 C 0.09568 0.20776 0.12269
 C108 C 0.12404 0.19891 0.09592
 C109 C 0.14720 0.17213 0.10754
 C110 C 0.14168 0.15366 0.14625
 C111 C 0.10711 0.14312 0.21052
 C112 C 0.12761 0.11332 0.21964
 C113 C 0.15614 0.10484 0.19275
 C114 C 0.16309 0.12460 0.15597
 C115 C 0.18995 0.11438 0.12715
 C116 C 0.19555 0.13256 0.08847
 C117 C 0.17440 0.16182 0.07931
 H118 H 0.06906 0.19680 0.18266
 H119 H 0.12725 0.21203 0.06504
 H120 H 0.08496 0.14978 0.23072
 H121 H 0.17237 0.08217 0.19921
 H122 H 0.20603 0.09159 0.13401
 H123 H 0.17788 0.17520 0.04876
 C124 C 0.40885 0.83056 0.63184
 C125 C 0.42400 0.79654 0.63642
 C126 C 0.41125 0.76189 0.60446
 C127 C 0.38358 0.76127 0.56696
 C128 C 0.36901 0.79538 0.56071
 C129 C 0.38124 0.83004 0.59386
 C130 C 0.42098 0.86512 0.66439
 C131 C 0.40508 0.89888 0.66033
 C132 C 0.37782 0.89837 0.62232
 C133 C 0.36627 0.86435 0.58855
 C134 C 0.34061 0.86422 0.54899
 C135 C 0.32969 0.83030 0.51489
 C136 C 0.34327 0.79579 0.52121
 H137 H 0.44548 0.79672 0.66516
 H138 H 0.37438 0.73448 0.54190
 H139 H 0.44219 0.86568 0.69360
 H140 H 0.36619 0.92471 0.61858
 H141 H 0.32976 0.89066 0.54369
 H142 H 0.33456 0.76974 0.49459
 C143 C 0.90220 0.65107 0.38190
 C144 C 0.92222 0.68382 0.37384
 C145 C 0.91057 0.72043 0.38661
 C146 C 0.87863 0.72414 0.40724
 C147 C 0.85879 0.69185 0.41643
 C148 C 0.87076 0.65517 0.40430
 C149 C 0.91263 0.61422 0.36711
 C150 C 0.89285 0.58173 0.37607
 C151 C 0.86258 0.58602 0.40034
 C152 C 0.85094 0.62255 0.41379
 C153 C 0.81932 0.62694 0.43525
 C154 C 0.80691 0.66345 0.44646
 C155 C 0.82693 0.69566 0.43702
 H156 H 0.94640 0.68084 0.35677
 H157 H 0.86955 0.75239 0.41672
 H158 H 0.93596 0.61055 0.34832
 H159 H 0.84733 0.56068 0.40672
 H160 H 0.80385 0.60182 0.44174
 H161 H 0.81757 0.72383 0.44574
 C162 C 0.58570 0.38791 -0.13925
 C163 C 0.55071 0.37234 -0.13622
 C164 C 0.54499 0.34496 -0.10733
 C165 C 0.57447 0.33399 -0.08018
 C166 C 0.60948 0.34984 -0.08189
 C167 C 0.61514 0.37686 -0.11157
 C168 C 0.59195 0.41294 -0.17106
 C169 C 0.62729 0.42631 -0.17606
 C170 C 0.65615 0.41649 -0.14667
 C171 C 0.65038 0.39198 -0.11459
 C172 C 0.67952 0.38107 -0.08702
 C173 C 0.67406 0.35409 -0.05772
 C174 C 0.63904 0.33835 -0.05548
 H175 H 0.52800 0.38025 -0.15776
 H176 H 0.57008 0.31303 -0.05773
 H177 H 0.56951 0.42041 -0.19345
 H178 H 0.68338 0.42715 -0.14987
 H179 H 0.70665 0.39231 -0.08983
 H180 H 0.63494 0.31723 -0.03315
 N181 N 0.05706 0.22722 0.05938
 N182 N 0.02874 0.24649 0.05412
 C183 C 0.02236 0.26229 0.09875
 C184 C 0.04775 0.25220 0.13169
 N185 N 0.06881 0.23012 0.10558
 H186 H 0.04981 0.25884 0.17058
 N187 N 0.41012 0.69420 0.61098
 N188 N 0.43313 0.66841 0.61589
 C189 C 0.46621 0.68643 0.61683
 C190 C 0.46291 0.72393 0.61259
 N191 N 0.42761 0.72761 0.60907
 H192 H 0.48399 0.74623 0.61153
 N193 N 0.91541 0.78367 0.36528
 N194 N 0.94035 0.81086 0.36105
 C195 C 0.97240 0.79797 0.37159
 C196 C 0.96638 0.76179 0.38208
 N197 N 0.93044 0.75398 0.37768
 H198 H 0.98600 0.74343 0.39301
 N199 N 0.47947 0.34374 -0.11240
 N200 N 0.45104 0.31903 -0.11262
 C201 C 0.46359 0.28533 -0.10777
 C202 C 0.50049 0.29016 -0.10427
 N203 N 0.50942 0.32695 -0.10724
 H204 H 0.51897 0.26873 -0.10112
 N205 N 0.09006 0.09615 0.27852
 N206 N 0.08465 0.06848 0.30301
 C207 C 0.10980 0.04431 0.29360
 C208 C 0.13087 0.05802 0.26274
 N209 N 0.11765 0.09046 0.25386
 H210 H 0.15242 0.04435 0.24670
 N211 N 0.66582 0.44736 -0.23107
 N212 N 0.66571 0.46812 -0.26500
 C213 C 0.63337 0.48166 -0.26903
 C214 C 0.61340 0.46834 -0.23639
 N215 N 0.63483 0.44709 -0.21324
 H216 H 0.58645 0.47406 -0.22966
 N217 N 0.45035 0.94545 0.71361
 N218 N 0.45220 0.97852 0.74473
 C219 C 0.41824 0.98768 0.74597
 C220 C 0.39553 0.95946 0.71450
 N221 N 0.41658 0.93370 0.69496
 H222 H 0.36657 0.95754 0.70697
 N223 N 0.90878 0.51759 0.38351
 N224 N 0.91482 0.48527 0.35524
 C225 C 0.91157 0.49176 0.30989
 C226 C 0.90359 0.52901 0.31118
 N227 N 0.90219 0.54411 0.35762
 H228 H 0.89812 0.54337 0.28123
 N229 N 0.22855 0.08277 0.04801
 N230 N 0.25006 0.07756 0.01421
 C231 C 0.25586 0.11161 0.00059
 C232 C 0.23728 0.13795 0.02709
 N233 N 0.22048 0.11877 0.05626
 H234 H 0.23590 0.16788 0.02498
 N235 N 0.75484 0.69788 0.46280
 N236 N 0.72529 0.69469 0.48347
 C237 C 0.72520 0.66171 0.50028
 C238 C 0.75564 0.64469 0.48925
 N239 N 0.77348 0.66816 0.46574
 H240 H 0.76410 0.61824 0.49814
 N241 N 0.70769 0.30449 -0.03090
 N242 N 0.74000 0.30095 -0.00945
 C243 C 0.75755 0.33666 0.00295
 C244 C 0.73514 0.36222 -0.01145
 N245 N 0.70432 0.34101 -0.03255
 H246 H 0.74088 0.39304 -0.00783
 N247 N 0.31877 0.84421 0.43486
 N248 N 0.29143 0.84958 0.40420
 C249 C 0.26127 0.84056 0.42289
 C250 C 0.27092 0.82949 0.46604
 N251 N 0.30697 0.83190 0.47190
 H252 H 0.25375 0.82299 0.49210
   
