data_POSCAR
  _audit_creation_date              2014-09-24
  _audit_creation_method            'ToBaCCo'
  _symmetry_space_group_name_H-M    'P1'
  _symmetry_Int_Tables_number       1
  _symmetry_cell_setting            triclinic
  loop_
  _symmetry_equiv_pos_as_xyz
 x,y,z
_cell_length_a 28.6751
_cell_length_b 28.7119
_cell_length_c 52.9325
_cell_angle_alpha 87.396600
_cell_angle_beta 91.312100
_cell_angle_gamma 120.092400
loop_
  _atom_site_label
  _atom_site_type_symbol
  _atom_site_fract_x
  _atom_site_fract_y
  _atom_site_fract_z
C1 C 0.02047 0.08798 0.53438
 H2 H 0.05810 0.08782 0.53395
 C3 C 0.01597 0.12469 0.54901
 H4 H 0.05015 0.15281 0.56000
 C5 C -0.06951 0.05268 0.51987
 H6 H -0.10223 0.02528 0.50806
 C7 C -0.07569 0.08893 0.53426
 H8 H -0.11339 0.08912 0.53370
 N9 N -0.02189 0.05292 0.52023
 C10 C 0.01471 -0.07404 0.50725
 H11 H 0.01675 -0.07187 0.48682
 C12 C 0.01840 -0.11489 0.52088
 H13 H 0.02376 -0.14405 0.51094
 C14 C 0.00191 -0.04075 0.54514
 H15 H -0.00638 -0.01300 0.55447
 C16 C 0.00538 -0.08097 0.55947
 H17 H 0.00046 -0.08359 0.57982
 Zn18 Zn -0.00838 0.00918 0.49948
 N19 N 0.00623 -0.03827 0.51949
 C20 C 0.09838 0.05659 0.47941
 N21 N 0.05098 0.05677 0.47890
 C22 C 0.04517 0.09438 0.46483
 C23 C 0.08801 0.13387 0.45043
 C24 C 0.14241 0.09556 0.46525
 C25 C -0.11417 -0.07282 0.49146
 C26 C -0.15748 -0.11152 0.47776
 C27 C -0.10688 -0.07059 0.43924
 C28 C -0.06454 -0.03269 0.45369
 N29 N -0.06875 -0.03475 0.47933
 H30 H 0.10248 0.02708 0.49117
 H31 H 0.00730 0.09406 0.46515
 H32 H 0.08313 0.16398 0.43949
 H33 H 0.18028 0.09573 0.46594
 H34 H -0.11591 -0.07423 0.51190
 H35 H -0.19285 -0.14250 0.48773
 H36 H -0.10242 -0.06942 0.41889
 H37 H -0.02758 -0.00313 0.44445
 C38 C 0.01298 -0.11877 0.54719
 C39 C -0.03239 0.12541 0.54885
 C40 C -0.15350 -0.11087 0.45141
 C41 C 0.13715 0.13468 0.45075
 C42 C 1.10438 0.04224 0.13199
 H43 H 1.10434 0.07990 0.13210
 C44 C 1.14224 0.03836 0.11753
 H45 H 1.17137 0.07304 0.10637
 C46 C 1.06747 -0.04852 0.14706
 H47 H 1.03894 -0.08183 0.15899
 C48 C 1.10482 -0.05411 0.13285
 H49 H 1.10473 -0.09192 0.13370
 N50 N 1.06796 -0.00082 0.14631
 C51 C 0.93951 0.03482 0.15825
 H52 H 0.93985 0.03570 0.17866
 C53 C 0.89964 0.03898 0.14438
 H54 H 0.86942 0.04355 0.15410
 C55 C 0.97634 0.02434 0.12068
 H56 H 1.00507 0.01674 0.11158
 C57 C 0.93717 0.02833 0.10610
 H58 H 0.93633 0.02448 0.08581
 Zn59 Zn 1.02232 0.01156 0.16668
 N60 N 0.97654 0.02722 0.14629
 C61 C 1.06757 0.11686 0.18632
 N62 N 1.06805 0.06964 0.18704
 C63 C 1.10449 0.06303 0.20133
 C64 C 1.14237 0.10480 0.21579
 C65 C 1.10493 0.15983 0.20054
 C66 C 0.93949 -0.09462 0.17518
 C67 C 0.89966 -0.13866 0.18909
 C68 C 0.93735 -0.09032 0.22733
 C69 C 0.97649 -0.04716 0.21272
 N70 N 0.97658 -0.04990 0.18711
 H71 H 1.03902 0.12162 0.17441
 H72 H 1.10445 0.02534 0.20119
 H73 H 1.17151 0.09927 0.22695
 H74 H 1.10484 0.19754 0.19973
 H75 H 0.93975 -0.09521 0.15477
 H76 H 0.86938 -0.17351 0.17939
 H77 H 0.93659 -0.08726 0.24762
 H78 H 1.00526 -0.01076 0.22179
 C79 C 0.89806 0.03497 0.11810
 C80 C 1.14265 -0.01013 0.11806
 C81 C 0.89818 -0.13615 0.21536
 C82 C 1.14278 0.15370 0.21531
 C83 C 0.04532 0.95030 0.86831
 H84 H 0.00747 0.91267 0.86796
 C85 C 0.08814 0.95375 0.88275
 H86 H 0.08326 0.91876 0.89368
 C87 C 0.09849 1.04141 0.85377
 H88 H 0.10258 1.07503 0.84202
 C89 C 0.14249 1.04658 0.86798
 H90 H 0.18034 1.08436 0.86732
 N91 N 0.05112 0.99373 0.85424
 C92 C -0.11404 0.95790 0.84168
 H93 H -0.11581 0.95757 0.82124
 C94 C -0.15730 0.95326 0.85540
 H95 H -0.19271 0.94884 0.84549
 C96 C -0.06435 0.96750 0.87945
 H97 H -0.02738 0.97497 0.88868
 C98 C -0.10667 0.96302 0.89390
 H99 H -0.10228 0.96635 0.91424
 Zn100 Zn -0.00823 0.98186 0.83365
 N101 N -0.06859 0.96533 0.85381
 C102 C -0.06936 0.87714 0.81326
 N103 N -0.02175 0.92458 0.81290
 C104 C 0.02062 0.93194 0.79876
 C105 C 0.01611 0.89072 0.78413
 C106 C -0.07556 0.83469 0.79886
 C107 C 0.01481 1.08819 0.82588
 C108 C 0.01848 1.13272 0.81226
 C109 C 0.00550 1.08577 0.77366
 C110 C 0.00204 1.04209 0.78799
 N111 N 0.00635 1.04393 0.81364
 H112 H -0.10209 0.87177 0.82506
 H113 H 0.05824 0.96978 0.79919
 H114 H 0.05029 0.89683 0.77314
 H115 H -0.11325 0.79676 0.79942
 H116 H 0.01684 1.08806 0.84632
 H117 H 0.02383 1.16724 0.82219
 H118 H 0.00059 1.08346 0.75331
 H119 H -0.00622 1.00604 0.77866
 C120 C -0.15326 0.95661 0.88173
 C121 C 0.13724 1.00219 0.88248
 C122 C 0.01308 1.13117 0.78594
 C123 C -0.03226 0.84157 0.78428
 C124 C 0.46412 -0.00644 -0.01369
 C125 C 0.46647 -0.00425 0.01287
 C126 C 0.51061 -0.00200 0.02587
 C127 C 0.55186 -0.00309 0.01270
 C128 C 0.54831 -0.00770 -0.01375
 C129 C 0.50474 -0.00876 -0.02681
 H130 H 0.50246 -0.01137 -0.04722
 H131 H 0.51289 0.00065 0.04629
 C132 C -0.02309 0.44670 0.65340
 C133 C -0.02184 0.44542 0.68003
 C134 C -0.02252 0.48650 0.69303
 C135 C -0.02306 0.52954 0.67973
 C136 C -0.02185 0.53205 0.65310
 C137 C -0.02256 0.49028 0.64009
 H138 H -0.02241 0.49182 0.61958
 H139 H -0.02235 0.48512 0.71355
 C140 C 0.55218 0.55568 0.32100
 C141 C 0.54869 0.55665 0.34745
 C142 C 0.50510 0.51409 0.36050
 C143 C 0.46440 0.47118 0.34736
 C144 C 0.46669 0.47144 0.32080
 C145 C 0.51085 0.51338 0.30781
 H146 H 0.51308 0.51307 0.28739
 H147 H 0.50287 0.51435 0.38092
 C148 C -0.03697 0.24155 0.58847
 N149 N -0.02922 0.24329 0.61387
 N150 N -0.02657 0.28357 0.62658
 C151 C -0.03138 0.32343 0.61427
 N152 N -0.03918 0.32166 0.58888
 N153 N -0.04184 0.28138 0.57617
 C154 C -0.03747 0.19948 0.57464
 C155 C -0.03626 0.16506 0.56292
 C156 C -0.02802 0.36705 0.62792
 C157 C -0.02543 0.40353 0.63944
 C158 C 0.77116 0.74586 0.25571
 N159 N 0.73187 0.70242 0.24398
 N160 N 0.68874 0.66540 0.25682
 C161 C 0.68351 0.67080 0.28176
 N162 N 0.72281 0.71421 0.29350
 N163 N 0.76595 0.75124 0.28065
 C164 C 0.81674 0.78655 0.24168
 C165 C 0.85435 0.82135 0.22975
 C166 C 0.63709 0.63087 0.29556
 C167 C 0.59824 0.59695 0.30712
 C168 C 0.26279 0.00493 -0.07849
 N169 N 0.30446 0.00699 -0.09111
 N170 N 0.34391 0.00440 -0.07850
 C171 C 0.34277 -0.00054 -0.05289
 N172 N 0.30112 -0.00257 -0.04026
 N173 N 0.26167 0.00003 -0.05287
 C174 C 0.21940 0.00582 -0.09212
 C175 C 0.18234 0.00514 -0.10366
 C176 C 0.38520 -0.00336 -0.03930
 C177 C 0.42098 -0.00524 -0.02776
 C178 C 0.00362 0.75193 0.58710
 N179 N 0.00399 0.71159 0.57489
 N180 N -0.00180 0.66802 0.58776
 C181 C -0.00833 0.66339 0.61322
 N182 N -0.00867 0.70373 0.62544
 N183 N -0.00288 0.74730 0.61257
 C184 C 0.00847 0.79819 0.57316
 C185 C 0.01138 0.83648 0.56136
 C186 C -0.01409 0.61670 0.62710
 C187 C -0.01822 0.57784 0.63885
 C188 C 0.26100 0.27600 0.25492
 N189 N 0.30191 0.31900 0.24254
 N190 N 0.34251 0.35732 0.25539
 C191 C 0.34351 0.35369 0.28101
 N192 N 0.30259 0.31071 0.29340
 N193 N 0.26199 0.27239 0.28055
 C194 C 0.21833 0.23379 0.24104
 C195 C 0.18331 0.19770 0.22933
 C196 C 0.38727 0.39487 0.29485
 C197 C 0.42373 0.42958 0.30657
 C198 C 0.73341 -0.03558 -0.07900
 N199 N 0.74016 -0.02610 -0.05393
 N200 N 0.70402 -0.02027 -0.04114
 C201 C 0.66015 -0.02354 -0.05306
 N202 N 0.65339 -0.03305 -0.07812
 N203 N 0.68952 -0.03888 -0.09090
 C204 C 0.77321 -0.04006 -0.09295
 C205 C 0.80732 -0.04248 -0.10478
 C206 C 0.62124 -0.01725 -0.03931
 C207 C 0.58828 -0.01244 -0.02773
 C208 C 0.26091 -0.01420 0.07857
 N209 N 0.26184 -0.00987 0.05294
 N210 N 0.30244 -0.00763 0.04013
 C211 C 0.34341 -0.00945 0.05256
 N212 N 0.34246 -0.01382 0.07819
 N213 N 0.30187 -0.01606 0.09100
 C214 C 0.21824 -0.01464 0.09241
 C215 C 0.18320 -0.01358 0.10408
 C216 C 0.38714 -0.00694 0.03877
 C217 C 0.42357 -0.00526 0.02708
 C218 C 0.73443 0.76959 0.41270
 N219 N 0.74112 0.76679 0.38764
 N220 N 0.70484 0.72482 0.37486
 C221 C 0.66089 0.68429 0.38678
 N222 N 0.65419 0.68711 0.41183
 N223 N 0.69047 0.72907 0.42461
 C224 C 0.77438 0.81387 0.42664
 C225 C 0.80861 0.85039 0.43847
 C226 C 0.62184 0.63910 0.37304
 C227 C 0.58877 0.60134 0.36145
 C228 C 0.00368 0.25109 0.74603
 N229 N -0.00285 0.24918 0.72056
 N230 N -0.00865 0.28695 0.70769
 C231 C -0.00829 0.32765 0.71990
 N232 N -0.00173 0.32956 0.74536
 N233 N 0.00407 0.29180 0.75824
 C234 C 0.00854 0.20969 0.75997
 C235 C 0.01147 0.17432 0.77176
 C236 C -0.01406 0.36856 0.70602
 C237 C -0.01820 0.40327 0.69428
 C238 C 0.77094 0.02583 0.07786
 N239 N 0.73183 0.03019 0.08960
 N240 N 0.68867 0.02406 0.07680
 C241 C 0.68322 0.01320 0.05189
 N242 N 0.72234 0.00887 0.04014
 N243 N 0.76551 0.01500 0.05294
 C244 C 0.81655 0.03075 0.09185
 C245 C 0.85419 0.03359 0.10374
 C246 C 0.63677 0.00668 0.03813
 C247 C 0.59792 0.00174 0.02658
 C248 C 0.26284 0.25793 0.41191
 N249 N 0.26192 0.26177 0.38629
 N250 N 0.30142 0.30394 0.37374
 C251 C 0.34292 0.34364 0.38644
 N252 N 0.34386 0.33979 0.41205
 N253 N 0.30436 0.29762 0.42460
 C254 C 0.21939 0.21350 0.42547
 C255 C 0.18229 0.17698 0.43695
 C256 C 0.38541 0.38901 0.37291
 C257 C 0.42123 0.42677 0.36141
 C258 C -0.03686 0.72083 0.74466
 N259 N -0.02913 0.72684 0.71926
 N260 N -0.02649 0.68922 0.70655
 C261 C -0.03130 0.64454 0.71886
 N262 N -0.03908 0.63851 0.74425
 N263 N -0.04172 0.67613 0.75696
 C264 C -0.03735 0.76241 0.75850
 C265 C -0.03613 0.79805 0.77021
 C266 C -0.02796 0.60428 0.70521
 C267 C -0.02539 0.57038 0.69369
   
