data_POSCAR
  _audit_creation_date              2014-09-24
  _audit_creation_method            'ToBaCCo'
  _symmetry_space_group_name_H-M    'P1'
  _symmetry_Int_Tables_number       1
  _symmetry_cell_setting            triclinic
  loop_
  _symmetry_equiv_pos_as_xyz
 x,y,z
_cell_length_a 34.5876
_cell_length_b 34.7142
_cell_length_c 31.2698
_cell_angle_alpha 92.095500
_cell_angle_beta 90.306800
_cell_angle_gamma 90.727500
loop_
  _atom_site_label
  _atom_site_type_symbol
  _atom_site_fract_x
  _atom_site_fract_y
  _atom_site_fract_z
C1 C 0.23162 0.15571 0.19961
 C2 C 0.22096 0.14227 0.23966
 C3 C 0.19384 0.16208 0.26576
 C4 C 0.17881 0.19685 0.25059
 C5 C 0.18852 0.20995 0.21003
 C6 C 0.21537 0.18955 0.18456
 C7 C 0.25702 0.13456 0.17357
 C8 C 0.26772 0.14723 0.13292
 C9 C 0.25221 0.18186 0.11857
 C10 C 0.22491 0.20221 0.14343
 C11 C 0.20533 0.23368 0.12700
 C12 C 0.17714 0.25292 0.15157
 C13 C 0.17006 0.24197 0.19360
 H14 H 0.23221 0.11477 0.24859
 H15 H 0.15940 0.21424 0.26992
 H16 H 0.26941 0.10854 0.18568
 H17 H 0.25922 0.19152 0.08692
 H18 H 0.21093 0.24240 0.09465
 H19 H 0.14814 0.25678 0.21238
 C20 C -0.23291 0.83306 0.20603
 C21 C -0.21382 0.85594 0.23784
 C22 C -0.17898 0.84378 0.25693
 C23 C -0.16492 0.80701 0.24464
 C24 C -0.18336 0.78421 0.21260
 C25 C -0.21718 0.79742 0.19284
 C26 C -0.26641 0.84621 0.18571
 C27 C -0.28362 0.82496 0.15090
 C28 C -0.26734 0.78922 0.13842
 C29 C -0.23439 0.77558 0.15879
 C30 C -0.21729 0.74121 0.14413
 C31 C -0.18326 0.72843 0.16320
 C32 C -0.16695 0.74945 0.19806
 H33 H -0.22652 0.88315 0.24776
 H34 H -0.13777 0.79702 0.25722
 H35 H -0.27714 0.87440 0.19521
 H36 H -0.28049 0.77136 0.11306
 H37 H -0.22965 0.72498 0.11697
 H38 H -0.14018 0.73986 0.21215
 C39 C -0.24201 0.19540 -0.25232
 C40 C -0.21916 0.17833 -0.28461
 C41 C -0.18394 0.19548 -0.29655
 C42 C -0.17302 0.23123 -0.27706
 C43 C -0.19468 0.24769 -0.24353
 C44 C -0.22934 0.22973 -0.23101
 C45 C -0.27593 0.17701 -0.23912
 C46 C -0.29724 0.19144 -0.20369
 C47 C -0.28407 0.22601 -0.18264
 C48 C -0.25035 0.24514 -0.19604
 C49 C -0.23618 0.27831 -0.17361
 C50 C -0.20041 0.29538 -0.18450
 C51 C -0.18054 0.28025 -0.22039
 H52 H -0.22788 0.15054 -0.29854
 H53 H -0.14665 0.24561 -0.28664
 H54 H -0.28381 0.14967 -0.25477
 H55 H -0.30006 0.23844 -0.15597
 H56 H -0.25245 0.28995 -0.14672
 H57 H -0.15258 0.29203 -0.22879
 C58 C 0.21524 0.82216 -0.20556
 C59 C 0.19593 0.84565 -0.23424
 C60 C 0.15543 0.84256 -0.24013
 C61 C 0.13480 0.81524 -0.21674
 C62 C 0.15387 0.79096 -0.18916
 C63 C 0.19424 0.79401 -0.18377
 C64 C 0.25483 0.82757 -0.19685
 C65 C 0.27404 0.80455 -0.16735
 C66 C 0.25327 0.77425 -0.14873
 C67 C 0.21342 0.76948 -0.15582
 C68 C 0.19201 0.74181 -0.13387
 C69 C 0.15165 0.73961 -0.13854
 C70 C 0.13287 0.76395 -0.16642
 H71 H 0.21234 0.86754 -0.25037
 H72 H 0.10390 0.81135 -0.22133
 H73 H 0.26995 0.85122 -0.21134
 H74 H 0.26770 0.75528 -0.12721
 H75 H 0.20638 0.72315 -0.11190
 H76 H 0.10170 0.76188 -0.17017
 C77 C 0.18242 1.23290 0.79315
 C78 C 0.16948 1.22578 0.75087
 C79 C 0.18182 1.19309 0.72632
 C80 C 0.21113 1.17038 0.74407
 C81 C 0.22491 1.17779 0.78583
 C82 C 0.20958 1.20828 0.81102
 C83 C 0.16700 1.26315 0.81844
 C84 C 0.17640 1.26781 0.86240
 C85 C 0.20368 1.24270 0.87982
 C86 C 0.22078 1.21355 0.85433
 C87 C 0.24843 1.18909 0.87161
 C88 C 0.26487 1.15950 0.84606
 C89 C 0.25261 1.15384 0.80340
 H90 H 0.14925 1.24576 0.73777
 H91 H 0.22147 1.14479 0.72735
 H92 H 0.14517 1.28102 0.80445
 H93 H 0.21250 1.24634 0.91304
 H94 H 0.25754 1.19336 0.90469
 H95 H 0.26424 1.13020 0.78404
 C96 C 0.86441 0.77555 0.80246
 C97 C 0.88669 0.79703 0.77364
 C98 C 0.87777 0.83587 0.76605
 C99 C 0.84467 0.85175 0.78555
 C100 C 0.82136 0.83021 0.81232
 C101 C 0.83161 0.79231 0.82173
 C102 C 0.87508 0.73811 0.81333
 C103 C 0.85369 0.71695 0.84356
 C104 C 0.82011 0.73417 0.86111
 C105 C 0.80906 0.77142 0.85063
 C106 C 0.77583 0.78830 0.86882
 C107 C 0.76495 0.82557 0.85799
 C108 C 0.78796 0.84636 0.83002
 H109 H 0.91214 0.78426 0.75922
 H110 H 0.83597 0.88079 0.77864
 H111 H 0.90154 0.72682 0.79987
 H112 H 0.80153 0.71847 0.88228
 H113 H 0.75821 0.77246 0.89093
 H114 H 0.77992 0.87544 0.82242
 C115 C 0.16760 0.79003 1.18331
 C116 C 0.14555 0.81285 1.21180
 C117 C 0.15713 0.85091 1.22298
 C118 C 0.19155 0.86580 1.20592
 C119 C 0.21422 0.84316 1.17794
 C120 C 0.20201 0.80526 1.16635
 C121 C 0.15522 0.75263 1.17061
 C122 C 0.17585 0.73061 1.13961
 C123 C 0.21059 0.74602 1.12373
 C124 C 0.22400 0.78272 1.13740
 C125 C 0.25888 0.79737 1.12185
 C126 C 0.27143 0.83522 1.13287
 C127 C 0.24861 0.85800 1.16088
 H128 H 0.11887 0.80136 1.22452
 H129 H 0.20092 0.89492 1.21488
 H130 H 0.12802 0.74192 1.18281
 H131 H 0.22782 0.72914 1.10127
 H132 H 0.27624 0.77901 1.10107
 H133 H 0.25707 0.88754 1.16888
 C134 C 0.80213 1.23385 1.26342
 C135 C 0.82114 1.22206 1.30041
 C136 C 0.81248 1.18608 1.31849
 C137 C 0.78202 1.16359 1.29965
 C138 C 0.76221 1.17550 1.26335
 C139 C 0.77221 1.21075 1.24517
 C140 C 0.81464 1.26695 1.24258
 C141 C 0.79761 1.27712 1.20359
 C142 C 0.76573 1.25545 1.18760
 C143 C 0.75367 1.22188 1.20738
 C144 C 0.72558 1.19761 1.18788
 C145 C 0.71686 1.16164 1.20473
 C146 C 0.73459 1.15112 1.24297
 H147 H 0.84290 1.24127 1.31451
 H148 H 0.77524 1.13513 1.31059
 H149 H 0.83951 1.28302 1.25514
 H150 H 0.75160 1.26348 1.15827
 H151 H 0.71255 1.20542 1.15783
 H152 H 0.72785 1.12328 1.25592
 O153 O 0.54844 0.95218 0.89569
 O154 O 0.46379 0.98486 1.05836
 O155 O 0.56691 0.95309 1.00665
 O156 O 0.46001 0.92441 0.94069
 O157 O 0.53453 0.97513 1.05971
 O158 O 0.47604 0.95061 0.88274
 O159 O 0.46402 0.93904 1.01379
 O160 O 0.59054 0.97972 0.93954
 C161 C 0.58210 0.95468 0.91082
 C162 C 0.45478 0.95082 1.04961
 C163 C 0.55731 0.95049 1.04445
 C164 C 0.46025 0.92329 0.90128
 O165 O 0.47335 1.02455 0.88772
 O166 O 0.54451 1.04717 1.03168
 O167 O 0.56325 1.04735 0.95904
 O168 O 0.42872 1.00955 1.00065
 O169 O 0.47335 1.05119 1.02065
 O170 O 0.54749 1.02844 0.89452
 O171 O 0.42898 0.99464 0.92523
 O172 O 0.59953 1.01842 1.01754
 Co173 Co 0.51117 0.98928 0.89758
 Co174 Co 0.50442 1.01222 1.03575
 Co175 Co 0.56129 0.99972 0.98313
 Co176 Co 0.44982 0.96862 0.97049
 O177 O 0.50519 0.99076 0.96804
 C178 C 0.43881 1.02045 0.89940
 C179 C 0.57995 1.04280 1.04199
 C180 C 0.56359 1.05269 0.91985
 C181 C 0.43849 1.04331 1.01312
 O182 O 0.03347 0.45428 0.10342
 O183 O 0.03641 0.53518 -0.03452
 O184 O 0.01450 0.41403 -0.01891
 O185 O 0.04462 0.54364 0.04071
 O186 O 0.04608 0.46565 -0.03605
 O187 O 0.02972 0.52732 0.10393
 O188 O 0.00643 0.58503 -0.00565
 O189 O 0.00980 0.40809 0.05950
 C190 C 0.03349 0.41988 0.08873
 C191 C 0.03038 0.57138 -0.03475
 C192 C 0.04420 0.42989 -0.03416
 C193 C 0.05196 0.54479 0.07964
 O194 O -0.04745 0.52033 0.10440
 O195 O -0.02420 0.45286 -0.06670
 O196 O -0.06609 0.42615 0.05423
 O197 O -0.05594 0.54657 0.00540
 O198 O -0.03892 0.52267 -0.05505
 O199 O -0.03978 0.45001 0.11146
 O200 O -0.02171 0.56699 0.07092
 O201 O -0.06214 0.43754 -0.01803
 Co202 Co -0.00622 0.48832 0.09831
 Co203 Co 0.00294 0.49339 -0.04069
 Co204 Co -0.02449 0.42663 0.01927
 Co205 Co -0.00603 0.54212 0.02207
 O206 O -0.01001 0.48528 0.02798
 C207 C -0.04675 0.55513 0.09603
 C208 C -0.05580 0.43876 -0.05636
 C209 C -0.06574 0.43018 0.09362
 C210 C -0.06214 0.54273 -0.03352
 O211 O 1.08236 0.02785 0.44778
 O212 O 0.92984 0.01491 0.54549
 O213 O 0.96678 0.05858 0.45779
 O214 O 1.04690 0.06071 0.56827
 O215 O 0.92491 0.01484 0.46903
 O216 O 1.09106 0.03384 0.52703
 O217 O 0.97374 0.05776 0.56213
 O218 O 1.03397 0.06435 0.44484
 C219 C 1.06871 0.05968 0.43878
 C220 C 0.93901 0.04843 0.55942
 C221 C 0.93241 0.04906 0.46024
 C222 C 1.08064 0.05970 0.55404
 O223 O 1.07864 -0.04033 0.53302
 O224 O 0.96391 -0.05386 0.46322
 O225 O 1.03434 -0.00845 0.40759
 O226 O 0.97611 -0.01373 0.58976
 O227 O 0.96579 -0.05570 0.53992
 O228 O 1.06092 -0.04559 0.45339
 O229 O 1.04725 -0.01205 0.58607
 O230 O 0.96491 -0.01144 0.41615
 Co231 Co 1.07130 -0.00519 0.49095
 Co232 Co 0.95136 -0.01792 0.50401
 Co233 Co 1.00072 0.02391 0.43726
 Co234 Co 1.01039 0.02157 0.56915
 O235 O 1.00905 0.00525 0.50075
 C236 C 1.07122 -0.03642 0.57206
 C237 C 0.95830 -0.04547 0.42566
 C238 C 1.05074 -0.03966 0.41593
 C239 C 0.96933 -0.04804 0.57869
 C240 C 1.20127 0.11746 0.32545
 C241 C 1.18001 0.14575 0.30417
 C242 C 1.14315 0.15520 0.32069
 C243 C 1.12695 0.13494 0.35433
 C244 C 1.14749 0.10467 0.37253
 C245 C 1.18511 0.09706 0.35882
 C246 C 1.12938 0.08148 0.40265
 C247 C 1.09080 0.08814 0.41437
 C248 C 1.07164 0.12009 0.39823
 C249 C 1.08950 0.14320 0.36844
 H250 H 1.12507 0.17596 0.30558
 H251 H 1.20180 0.07467 0.37323
 H252 H 1.14456 0.05713 0.41513
 H253 H 1.07342 0.16661 0.35521
 H254 H 1.23066 0.11071 0.31673
 H255 H 1.04202 0.12615 0.40699
 C256 C 0.84126 -0.09097 0.28249
 C257 C 0.84272 -0.13145 0.28560
 C258 C 0.86791 -0.14642 0.31661
 C259 C 0.89134 -0.12193 0.34277
 C260 C 0.89006 -0.08172 0.33806
 C261 C 0.86478 -0.06656 0.30813
 C262 C 0.91358 -0.05721 0.36391
 C263 C 0.93752 -0.07221 0.39556
 C264 C 0.93845 -0.11222 0.40038
 C265 C 0.91583 -0.13694 0.37387
 H266 H 0.86866 -0.17709 0.32166
 H267 H 0.86342 -0.03571 0.30422
 H268 H 0.91207 -0.02628 0.36051
 H269 H 0.91709 -0.16774 0.37810
 H270 H 0.82359 -0.07774 0.25861
 H271 H 0.95649 -0.12429 0.42480
 C272 C 0.88360 0.17818 0.68205
 C273 C 0.84349 0.17415 0.67476
 C274 C 0.83031 0.14745 0.64254
 C275 C 0.85664 0.12414 0.61963
 C276 C 0.89663 0.12879 0.62777
 C277 C 0.90982 0.15625 0.65839
 C278 C 0.92298 0.10492 0.60643
 C279 C 0.91020 0.07519 0.57791
 C280 C 0.87044 0.07072 0.56947
 C281 C 0.84384 0.09537 0.58981
 H282 H 0.79967 0.14409 0.63588
 H283 H 0.94044 0.15979 0.66522
 H284 H 0.95356 0.10857 0.61354
 H285 H 0.81327 0.09128 0.58310
 H286 H 0.89506 0.19722 0.70731
 H287 H 0.85999 0.04809 0.54744
 C288 C 1.09733 -0.12248 0.73883
 C289 C 1.13571 -0.13416 0.73087
 C290 C 1.15337 -0.12324 0.69253
 C291 C 1.13287 -0.10246 0.66243
 C292 C 1.09466 -0.09073 0.67127
 C293 C 1.07727 -0.10070 0.70962
 C294 C 1.07444 -0.06933 0.64152
 C295 C 1.09157 -0.06046 0.60246
 C296 C 1.12912 -0.07319 0.59336
 C297 C 1.14976 -0.09372 0.62327
 H298 H 1.18229 -0.13275 0.68472
 H299 H 1.04802 -0.09186 0.71696
 H300 H 1.04533 -0.05984 0.64857
 H301 H 1.17891 -0.10273 0.61578
 H302 H 1.08296 -0.12896 0.76843
 H303 H 1.14292 -0.06637 0.56350
 C304 C 0.28916 1.08411 1.10676
 C305 C 0.29265 1.12462 1.10709
 C306 C 0.32245 1.14147 1.08297
 C307 C 0.35016 1.11807 1.06227
 C308 C 0.34604 1.07756 1.06285
 C309 C 0.31501 1.06094 1.08417
 C310 C 0.37405 1.05402 1.04405
 C311 C 0.40773 1.06996 1.02676
 C312 C 0.41208 1.11018 1.02615
 C313 C 0.38302 1.13414 1.04300
 H314 H 0.32606 1.17255 1.08328
 H315 H 0.31150 1.02989 1.08471
 H316 H 0.37074 1.02295 1.04538
 H317 H 0.38694 1.16513 1.04245
 H318 H 0.26583 1.07011 1.12348
 H319 H 0.43792 1.12295 1.01296
 C320 C 0.32410 0.81020 0.89116
 C321 C 0.31394 0.81521 0.84802
 C322 C 0.34047 0.83436 0.82165
 C323 C 0.37450 0.85129 0.83909
 C324 C 0.38316 0.84721 0.88284
 C325 C 0.35857 0.82543 0.90813
 C326 C 0.41451 0.86745 0.90158
 C327 C 0.43618 0.89374 0.87795
 C328 C 0.42900 0.89591 0.83382
 C329 C 0.39868 0.87441 0.81440
 H330 H 0.33385 0.83785 0.78814
 H331 H 0.36481 0.82216 0.94179
 H332 H 0.41974 0.86528 0.93564
 H333 H 0.39266 0.87777 0.78071
 H334 H 0.30447 0.79644 0.91286
 H335 H 0.44530 0.91587 0.81486
 C336 C 0.68091 0.83117 1.08304
 C337 C 0.68509 0.84005 1.12737
 C338 C 0.65825 0.86551 1.14683
 C339 C 0.62930 0.88264 1.12250
 C340 C 0.62703 0.87465 1.07796
 C341 C 0.65242 0.84834 1.05875
 C342 C 0.60072 0.89452 1.05294
 C343 C 0.57687 0.92280 1.07176
 C344 C 0.57736 0.92867 1.11647
 C345 C 0.60337 0.90872 1.14166
 H346 H 0.65942 0.87186 1.18099
 H347 H 0.65110 0.84197 1.02458
 H348 H 0.60046 0.88959 1.01849
 H349 H 0.60434 0.91494 1.17586
 H350 H 0.70119 0.81289 1.06597
 H351 H 0.55935 0.95039 1.13172
 C352 C 0.64865 1.14541 0.78362
 C353 C 0.67076 1.16989 0.81171
 C354 C 0.66191 1.16991 0.85585
 C355 C 0.63451 1.14378 0.87162
 C356 C 0.61437 1.11820 0.84300
 C357 C 0.62081 1.12010 0.79904
 C358 C 0.58939 1.08998 0.85886
 C359 C 0.58493 1.08623 0.90319
 C360 C 0.60396 1.11278 0.93140
 C361 C 0.62834 1.14141 0.91576
 H362 H 0.67847 1.18767 0.87868
 H363 H 0.60509 1.10119 0.77654
 H364 H 0.57492 1.06976 0.83668
 H365 H 0.64341 1.16081 0.93828
 H366 H 0.65256 1.14576 0.74932
 H367 H 0.60097 1.11069 0.96571
 C368 C 0.12961 0.27074 0.09579
 C369 C 0.15174 0.28145 0.13218
 C370 C 0.14649 0.31781 0.15226
 C371 C 0.11903 0.34314 0.13640
 C372 C 0.09599 0.33165 0.10054
 C373 C 0.10167 0.29547 0.08035
 C374 C 0.06752 0.35640 0.08568
 C375 C 0.06255 0.39310 0.10526
 C376 C 0.08601 0.40437 0.14056
 C377 C 0.11377 0.37954 0.15616
 H378 H 0.16345 0.32606 0.18047
 H379 H 0.08413 0.28608 0.05302
 H380 H 0.04936 0.34711 0.05881
 H381 H 0.13118 0.38884 0.18364
 H382 H 0.13291 0.24253 0.08035
 H383 H 0.08278 0.43240 0.15640
 C384 C -0.18668 0.32507 -0.11127
 C385 C -0.18141 0.32566 -0.15589
 C386 C -0.15474 0.35263 -0.17211
 C387 C -0.13197 0.37635 -0.14424
 C388 C -0.13724 0.37454 -0.09966
 C389 C -0.16525 0.34956 -0.08358
 C390 C -0.11335 0.39651 -0.07164
 C391 C -0.08310 0.41952 -0.08723
 C392 C -0.07838 0.42178 -0.13165
 C393 C -0.10291 0.40068 -0.15997
 H394 H -0.15068 0.35438 -0.20630
 H395 H -0.16946 0.34774 -0.04939
 H396 H -0.11735 0.39433 -0.03743
 H397 H -0.09839 0.40246 -0.19410
 H398 H -0.20605 0.30439 -0.09728
 H399 H -0.05541 0.43938 -0.14442
 C400 C 0.09783 0.72755 -0.08834
 C401 C 0.12820 0.71299 -0.11348
 C402 C 0.13397 0.67310 -0.11711
 C403 C 0.10859 0.64777 -0.09692
 C404 C 0.07777 0.66272 -0.07209
 C405 C 0.07294 0.70264 -0.06755
 C406 C 0.05201 0.63757 -0.05249
 C407 C 0.05649 0.59754 -0.05731
 C408 C 0.08704 0.58284 -0.08217
 C409 C 0.11295 0.60776 -0.10177
 H410 H 0.15720 0.66187 -0.13690
 H411 H 0.04954 0.71455 -0.04855
 H412 H 0.02853 0.64924 -0.03343
 H413 H 0.13631 0.59577 -0.12076
 H414 H 0.09314 0.75833 -0.08528
 H415 H 0.09112 0.55204 -0.08617
 C416 C -0.15113 0.69725 0.10041
 C417 C -0.16197 0.69592 0.14352
 C418 C -0.14975 0.66532 0.16822
 C419 C -0.12596 0.63669 0.15017
 C420 C -0.11373 0.63936 0.10728
 C421 C -0.12699 0.66929 0.08245
 C422 C -0.08787 0.61245 0.09008
 C423 C -0.07489 0.58213 0.11460
 C424 C -0.08847 0.57842 0.15645
 C425 C -0.11353 0.60584 0.17436
 H426 H -0.15830 0.66422 0.20147
 H427 H -0.11814 0.67146 0.04942
 H428 H -0.07782 0.61510 0.05752
 H429 H -0.12288 0.60313 0.20713
 H430 H -0.16015 0.72086 0.08111
 H431 H -0.07879 0.55501 0.17565
 C432 C 1.12413 0.19201 0.67924
 C433 C 1.16265 0.18089 0.68741
 C434 C 1.17949 0.15389 0.65802
 C435 C 1.15710 0.13476 0.62595
 C436 C 1.11788 0.14425 0.62116
 C437 C 1.10227 0.17412 0.64643
 C438 C 1.09406 0.12188 0.59352
 C439 C 1.10841 0.08890 0.57183
 C440 C 1.14816 0.08139 0.57392
 C441 C 1.17245 0.10443 0.60056
 H442 H 1.20966 0.14645 0.66053
 H443 H 1.07221 0.18191 0.64280
 H444 H 1.06352 0.12839 0.59160
 H445 H 1.20264 0.09693 0.60343
 H446 H 1.10894 0.21204 0.70011
 H447 H 1.15993 0.05626 0.55736
 C448 C 0.90578 -0.10117 0.75038
 C449 C 0.90073 -0.14078 0.73958
 C450 C 0.91654 -0.15523 0.70067
 C451 C 0.93314 -0.12977 0.67145
 C452 C 0.93658 -0.09005 0.68264
 C453 C 0.92398 -0.07635 0.72266
 C454 C 0.95073 -0.06416 0.65293
 C455 C 0.95981 -0.07685 0.61106
 C456 C 0.95709 -0.11646 0.60020
 C457 C 0.94439 -0.14278 0.63032
 H458 H 0.91281 -0.18543 0.69133
 H459 H 0.92679 -0.04605 0.73191
 H460 H 0.95255 -0.03369 0.66177
 H461 H 0.94197 -0.17307 0.62092
 H462 H 0.89572 -0.08915 0.78072
 H463 H 0.96418 -0.12699 0.56820
 C464 C 1.12592 -0.08625 0.24345
 C465 C 1.13341 -0.12482 0.25259
 C466 C 1.11908 -0.13972 0.29070
 C467 C 1.09886 -0.11602 0.32006
 C468 C 1.09201 -0.07711 0.31080
 C469 C 1.10520 -0.06270 0.27212
 C470 C 1.07358 -0.05287 0.34114
 C471 C 1.06327 -0.06667 0.38127
 C472 C 1.06938 -0.10560 0.38974
 C473 C 1.08661 -0.13018 0.35923
 H474 H 1.12501 -0.16931 0.29827
 H475 H 1.10022 -0.03297 0.26445
 H476 H 1.06945 -0.02274 0.33455
 H477 H 1.09155 -0.15992 0.36687
 H478 H 1.13622 -0.07429 0.21403
 H479 H 1.06159 -0.11680 0.42045
 C480 C 0.87455 0.18416 0.35808
 C481 C 0.83591 0.17112 0.35166
 C482 C 0.82273 0.14036 0.37675
 C483 C 0.84829 0.12051 0.40286
 C484 C 0.88717 0.13281 0.40642
 C485 C 0.89957 0.16549 0.38535
 C486 C 0.91371 0.11093 0.42875
 C487 C 0.90237 0.07573 0.44602
 C488 C 0.86318 0.06466 0.44451
 C489 C 0.83621 0.08718 0.42353
 H490 H 0.79282 0.13089 0.37563
 H491 H 0.92940 0.17532 0.38791
 H492 H 0.94382 0.12002 0.42993
 H493 H 0.80636 0.07740 0.42146
 H494 H 0.88719 0.20688 0.33987
 H495 H 0.85370 0.03783 0.45791
 C496 C 0.14773 0.28796 -0.06854
 C497 C 0.15715 0.29562 -0.11133
 C498 C 0.14511 0.33087 -0.12787
 C499 C 0.12301 0.35685 -0.10310
 C500 C 0.11149 0.34731 -0.06150
 C501 C 0.12469 0.31320 -0.04425
 C502 C 0.08637 0.37169 -0.03831
 C503 C 0.07395 0.40620 -0.05561
 C504 C 0.08764 0.41662 -0.09583
 C505 C 0.11158 0.39197 -0.11962
 H506 H 0.15342 0.33857 -0.15984
 H507 H 0.11661 0.30564 -0.01221
 H508 H 0.07617 0.36371 -0.00718
 H509 H 0.12054 0.40003 -0.15126
 H510 H 0.15576 0.26116 -0.05447
 H511 H 0.07828 0.44307 -0.10979
 C512 C -0.18224 0.30053 0.13202
 C513 C -0.18387 0.30674 0.17677
 C514 C -0.16480 0.33934 0.19543
 C515 C -0.14294 0.36407 0.17009
 C516 C -0.14106 0.35685 0.12538
 C517 C -0.16147 0.32552 0.10661
 C518 C -0.11745 0.37998 0.10030
 C519 C -0.09461 0.40967 0.11940
 C520 C -0.09742 0.41739 0.16374
 C521 C -0.12165 0.39500 0.18882
 H522 H -0.16604 0.34490 0.22972
 H523 H -0.16016 0.31946 0.07240
 H524 H -0.11546 0.37361 0.06618
 H525 H -0.12275 0.40108 0.22302
 H526 H -0.19565 0.27533 0.11655
 H527 H -0.08025 0.44025 0.17919
 C528 C -0.10957 0.65668 -0.16911
 C529 C -0.13375 0.68011 -0.14302
 C530 C -0.14386 0.66624 -0.10233
 C531 C -0.12866 0.63170 -0.08752
 C532 C -0.10333 0.60985 -0.11361
 C533 C -0.09472 0.62215 -0.15466
 C534 C -0.08516 0.57741 -0.09728
 C535 C -0.09077 0.56744 -0.05446
 C536 C -0.11781 0.58808 -0.02961
 C537 C -0.13677 0.61974 -0.04606
 H538 H -0.16119 0.68336 -0.08033
 H539 H -0.07571 0.60546 -0.17537
 H540 H -0.06402 0.56213 -0.11670
 H541 H -0.15630 0.63601 -0.02555
 H542 H -0.10233 0.66432 -0.20132
 H543 H -0.12267 0.58107 0.00341
 C544 C 0.16564 0.68333 0.07991
 C545 C 0.16115 0.69466 0.12347
 C546 C 0.14026 0.66999 0.15000
 C547 C 0.12303 0.63586 0.13325
 C548 C 0.12545 0.62643 0.08902
 C549 C 0.14748 0.64996 0.06280
 C550 C 0.10449 0.59458 0.07157
 C551 C 0.08142 0.57194 0.09806
 C552 C 0.08191 0.57986 0.14253
 C553 C 0.10232 0.61164 0.15992
 H554 H 0.13774 0.67696 0.18394
 H555 H 0.14987 0.64312 0.02883
 H556 H 0.10451 0.58871 0.03727
 H557 H 0.10068 0.61807 0.19403
 H558 H 0.18092 0.70156 0.05810
 H559 H 0.06456 0.56287 0.16376
 C560 C 0.28994 1.11749 0.90349
 C561 C 0.29468 1.13398 0.86345
 C562 C 0.32748 1.12486 0.83895
 C563 C 0.35479 1.09895 0.85364
 C564 C 0.34931 1.08168 0.89344
 C565 C 0.31701 1.09145 0.91835
 C566 C 0.37633 1.05512 0.90765
 C567 C 0.40920 1.04636 0.88304
 C568 C 0.41462 1.06415 0.84388
 C569 C 0.38747 1.08998 0.82911
 H570 H 0.33170 1.13798 0.80835
 H571 H 0.31254 1.07874 0.94911
 H572 H 0.37226 1.04199 0.93826
 H573 H 0.39214 1.10311 0.79862
 H574 H 0.26478 1.12398 0.92278
 H575 H 0.43984 1.05792 0.82456
 C576 C 0.31862 0.83876 1.07219
 C577 C 0.30753 0.85105 1.11374
 C578 C 0.33081 0.87884 1.13615
 C579 C 0.36381 0.89460 1.11694
 C580 C 0.37464 0.88123 1.07559
 C581 C 0.35212 0.85312 1.05371
 C582 C 0.40677 0.89748 1.05574
 C583 C 0.42691 0.92891 1.07523
 C584 C 0.41644 0.94182 1.11662
 C585 C 0.38554 0.92431 1.13765
 H586 H 0.32321 0.88851 1.16830
 H587 H 0.35972 0.84311 1.02165
 H588 H 0.41447 0.88721 1.02379
 H589 H 0.37767 0.93506 1.16934
 H590 H 0.30100 0.81855 1.05323
 H591 H 0.43150 0.96606 1.13220
 C592 C 0.70691 1.09612 1.17084
 C593 C 0.69297 1.13343 1.17945
 C594 C 0.65807 1.14457 1.16069
 C595 C 0.63786 1.11908 1.13258
 C596 C 0.65292 1.08210 1.12288
 C597 C 0.68711 1.07068 1.14269
 C598 C 0.63383 1.05736 1.09308
 C599 C 0.59953 1.06883 1.07346
 C600 C 0.58403 1.10506 1.08425
 C601 C 0.60323 1.13016 1.11336
 H602 H 0.64710 1.17326 1.16745
 H603 H 0.69892 1.04238 1.13577
 H604 H 0.64553 1.02914 1.08529
 H605 H 0.59116 1.15829 1.12060
 H606 H 0.73402 1.08717 1.18459
 H607 H 0.55745 1.11427 1.06953
 C608 C 0.72726 0.85261 0.91987
 C609 C 0.72997 0.84390 0.87583
 C610 C 0.70123 0.85670 0.84802
 C611 C 0.67072 0.87925 0.86374
 C612 C 0.66923 0.88964 0.90785
 C613 C 0.69718 0.87551 0.93578
 C614 C 0.64023 0.91448 0.92302
 C615 C 0.61213 0.92816 0.89486
 C616 C 0.61288 0.91629 0.85150
 C617 C 0.64221 0.89238 0.83594
 H618 H 0.70330 0.84990 0.81398
 H619 H 0.69627 0.88288 0.96974
 H620 H 0.63938 0.92307 0.95670
 H621 H 0.64278 0.88443 0.80212
 H622 H 0.74938 0.84314 0.94162
 H623 H 0.59132 0.92639 0.82944
   
