data_POSCAR
  _audit_creation_date              2014-09-24
  _audit_creation_method            'ToBaCCo'
  _symmetry_space_group_name_H-M    'P1'
  _symmetry_Int_Tables_number       1
  _symmetry_cell_setting            triclinic
  loop_
  _symmetry_equiv_pos_as_xyz
 x,y,z
_cell_length_a 33.3043
_cell_length_b 33.3350
_cell_length_c 33.2759
_cell_angle_alpha 89.976200
_cell_angle_beta 89.880100
_cell_angle_gamma 89.966300
loop_
  _atom_site_label
  _atom_site_type_symbol
  _atom_site_fract_x
  _atom_site_fract_y
  _atom_site_fract_z
O1 O 0.19342 1.03604 0.45260
 O2 O 0.19659 0.96074 0.53303
 O3 O 0.19448 1.03771 0.53235
 O4 O 0.19706 0.95895 0.45471
 O5 O 0.26337 0.96048 0.45534
 O6 O 0.26047 1.04215 0.52987
 O7 O 0.26286 0.96354 0.53320
 O8 O 0.25974 1.03846 0.45182
 Cu9 Cu 0.18871 0.99837 0.49320
 Cu10 Cu 0.26826 1.00152 0.49260
 C11 C 0.22598 1.04938 0.43792
 C12 C 0.23017 0.94939 0.54695
 C13 C 0.22707 1.05323 0.54473
 C14 C 0.23070 0.94618 0.44193
 O15 O 0.79313 -0.03231 0.46797
 O16 O 0.78502 0.04529 0.54606
 O17 O 0.79028 -0.03203 0.54689
 O18 O 0.78972 0.04466 0.46770
 O19 O 0.72348 0.04217 0.46539
 O20 O 0.72452 -0.03781 0.54235
 O21 O 0.71889 0.04120 0.54341
 O22 O 0.72694 -0.03577 0.46483
 Cu23 Cu 0.79616 0.00673 0.50761
 Cu24 Cu 0.71677 0.00215 0.50394
 C25 C 0.76136 -0.04685 0.45274
 C26 C 0.75057 0.05653 0.55797
 C27 C 0.75770 -0.04853 0.55793
 C28 C 0.75665 0.05638 0.45287
 O29 O 0.23627 0.46007 0.95282
 O30 O 0.22948 0.53846 1.03053
 O31 O 0.23406 0.53806 0.95258
 O32 O 0.23279 0.45957 1.03080
 O33 O 0.29865 0.46369 1.03555
 O34 O 0.30041 0.53892 0.95477
 O35 O 0.29574 0.54144 1.03321
 O36 O 0.30247 0.46209 0.95635
 Cu37 Cu 0.22649 0.49879 0.99158
 Cu38 Cu 0.30595 0.50165 0.99555
 C39 C 0.27051 0.44824 0.94084
 C40 C 0.26144 0.55348 1.04476
 C41 C 0.26758 0.55108 0.93981
 C42 C 0.26555 0.44841 1.04690
 O43 O 0.45696 0.22476 1.03450
 O44 O 0.53620 0.22934 0.95720
 O45 O 0.53521 0.21958 1.03395
 O46 O 0.45772 0.23028 0.95649
 O47 O 0.46146 0.29629 0.96123
 O48 O 0.53647 0.28522 1.04195
 O49 O 0.53886 0.29521 0.96404
 O50 O 0.45938 0.29081 1.04019
 Cu51 Cu 0.49607 0.21938 0.99483
 Cu52 Cu 0.49913 0.29852 1.00249
 C53 C 0.44520 0.25716 1.05080
 C54 C 0.55116 0.26312 0.94767
 C55 C 0.54900 0.25042 1.05154
 C56 C 0.44700 0.26495 0.94505
 O57 O 0.46654 0.77244 -0.04272
 O58 O 0.53901 0.77394 0.04138
 O59 O 0.54455 0.77782 -0.03596
 O60 O 0.46088 0.77683 0.03500
 O61 O 0.46240 0.71065 0.03715
 O62 O 0.54400 0.71176 -0.03892
 O63 O 0.54014 0.70768 0.04043
 O64 O 0.46708 0.70622 -0.04113
 Cu65 Cu 0.50263 0.78182 -0.00057
 Cu66 Cu 0.50366 0.70249 -0.00045
 C67 C 0.45463 0.73876 -0.05629
 C68 C 0.55171 0.74071 0.05522
 C69 C 0.55819 0.74539 -0.05045
 C70 C 0.44755 0.74395 0.04866
 O71 O 1.03257 0.46380 0.24502
 O72 O 0.95688 0.54374 0.24949
 O73 O 1.03493 0.54186 0.25099
 O74 O 0.95432 0.46538 0.24834
 O75 O 0.95511 0.46319 0.31467
 O76 O 1.03580 0.53773 0.31711
 O77 O 0.95681 0.54058 0.31580
 O78 O 1.03417 0.46125 0.31139
 Cu79 Cu 0.99457 0.50395 0.24184
 Cu80 Cu 0.99541 0.50035 0.32136
 C81 C 1.04688 0.44958 0.27731
 C82 C 0.94358 0.55550 0.28322
 C83 C 1.04977 0.55221 0.28468
 C84 C 0.94060 0.45180 0.28137
 O85 O -0.03740 0.46862 0.76441
 O86 O 0.04359 0.54368 0.75941
 O87 O -0.03454 0.54654 0.75517
 O88 O 0.03963 0.46572 0.76874
 O89 O 0.04434 0.45897 0.70285
 O90 O -0.03282 0.53719 0.68964
 O91 O 0.04651 0.53624 0.69356
 O92 O -0.03368 0.46049 0.69861
 Cu93 Cu 0.00254 0.50720 0.76850
 Cu94 Cu 0.00656 0.49773 0.68952
 C95 C -0.04910 0.45154 0.73238
 C96 C 0.05913 0.55249 0.72565
 C97 C -0.04732 0.55499 0.72020
 C98 C 0.05444 0.44845 0.73810
 O99 O 0.45336 0.96436 0.20928
 O100 O 0.53022 1.04365 0.21041
 O101 O 0.53224 0.96676 0.20589
 O102 O 0.45129 1.04174 0.21480
 O103 O 0.45701 1.03987 0.28076
 O104 O 0.53411 0.96132 0.27206
 O105 O 0.53432 1.03900 0.27658
 O106 O 0.45617 0.96058 0.27551
 Cu107 Cu 0.49126 1.00452 0.20347
 Cu108 Cu 0.49539 0.99967 0.28290
 C109 C 0.44166 0.94901 0.24218
 C110 C 0.54579 1.05425 0.24354
 C111 C 0.54713 0.95155 0.23755
 C112 C 0.44082 1.05427 0.24934
 O113 O 1.03279 0.20310 0.54083
 O114 O 0.95634 0.20334 0.46120
 O115 O 1.03332 0.19838 0.46197
 O116 O 0.95543 0.20834 0.53979
 O117 O 0.95966 0.27443 0.53572
 O118 O 1.03756 0.26440 0.45801
 O119 O 0.95961 0.26953 0.45813
 O120 O 1.03819 0.26901 0.53601
 Cu121 Cu 0.99410 0.19663 0.50147
 Cu122 Cu 0.99930 0.27600 0.49667
 C123 C 1.04845 0.23596 0.55199
 C124 C 0.94510 0.23644 0.44606
 C125 C 1.04822 0.22975 0.44626
 C126 C 0.94433 0.24304 0.55088
 O127 O -0.03621 0.80323 0.53951
 O128 O 0.04230 0.80216 0.46111
 O129 O -0.03482 0.80537 0.46067
 O130 O 0.04100 0.80218 0.54032
 O131 O 0.03985 0.73586 0.53924
 O132 O -0.03705 0.73908 0.46008
 O133 O 0.04116 0.73584 0.46119
 O134 O -0.03842 0.73695 0.53780
 Cu135 Cu 0.00332 0.80993 0.50050
 Cu136 Cu 0.00127 0.73025 0.49949
 C137 C -0.05052 0.77015 0.55198
 C138 C 0.05474 0.76872 0.44763
 C139 C -0.04865 0.77282 0.44667
 C140 C 0.05295 0.76859 0.55364
 O141 O 0.77373 0.46678 1.04600
 O142 O 0.77994 0.54403 0.96732
 O143 O 0.77421 0.54461 1.04499
 O144 O 0.77752 0.46541 0.96780
 O145 O 0.71140 0.46812 0.96283
 O146 O 0.70787 0.54455 1.04212
 O147 O 0.71364 0.54593 0.96405
 O148 O 0.70745 0.46801 1.04211
 Cu149 Cu 0.78306 0.50495 1.00670
 Cu150 Cu 0.70340 0.50655 1.00208
 C151 C 0.73954 0.45510 1.05810
 C152 C 0.74785 0.55835 0.95270
 C153 C 0.74037 0.55737 1.05722
 C154 C 0.74495 0.45376 0.95185
 O155 O 0.46577 1.04401 0.77944
 O156 O 0.53907 0.96132 0.78936
 O157 O 0.54449 1.03850 0.79069
 O158 O 0.46091 0.96738 0.78244
 O159 O 0.46712 0.96768 0.71626
 O160 O 0.55389 1.03606 0.72493
 O161 O 0.54436 0.95868 0.72318
 O162 O 0.47778 1.04616 0.71428
 Cu163 Cu 0.50182 1.00305 0.79212
 Cu164 Cu 0.51135 1.00201 0.71300
 C165 C 0.45955 1.05949 0.74505
 C166 C 0.55402 0.94594 0.75774
 C167 C 0.56395 1.04863 0.75949
 C168 C 0.44946 0.95586 0.74805
 C169 C 0.24024 0.21793 0.26934
 C170 C 0.21020 0.24776 0.27099
 C171 C 0.20603 0.27564 0.23933
 C172 C 0.23316 0.27493 0.20663
 C173 C 0.26307 0.24470 0.20482
 C174 C 0.26628 0.21564 0.23580
 C175 C 0.74451 0.78285 0.28643
 C176 C 0.71712 0.78432 0.25419
 C177 C 0.72259 0.75882 0.22079
 C178 C 0.75457 0.73099 0.22017
 C179 C 0.78155 0.72895 0.25278
 C180 C 0.77652 0.75510 0.28575
 C181 C 0.76762 0.21299 0.73801
 C182 C 0.79860 0.24185 0.74004
 C183 C 0.79820 0.27143 0.77043
 C184 C 0.76760 0.27098 0.79990
 C185 C 0.73649 0.24228 0.79773
 C186 C 0.73581 0.21419 0.76602
 C187 C 0.26063 0.77727 0.71008
 C188 C 0.22958 0.74849 0.71220
 C189 C 0.22667 0.72249 0.74563
 C190 C 0.25512 0.72533 0.77694
 C191 C 0.28631 0.75400 0.77472
 C192 C 0.28938 0.77949 0.74100
 C193 C 0.22854 0.25242 0.70812
 C194 C 0.25701 0.22094 0.71065
 C195 C 0.28314 0.21881 0.74421
 C196 C 0.28039 0.24809 0.77492
 C197 C 0.25197 0.27942 0.77221
 C198 C 0.22641 0.28193 0.73852
 C199 C 0.76859 0.74042 0.70566
 C200 C 0.73554 0.76722 0.70696
 C201 C 0.70610 0.76302 0.73743
 C202 C 0.70932 0.73184 0.76610
 C203 C 0.74269 0.70556 0.76499
 C204 C 0.77289 0.71032 0.73537
 C205 C 0.23229 0.73596 0.29051
 C206 C 0.23005 0.70579 0.26060
 C207 C 0.26099 0.70276 0.23148
 C208 C 0.29300 0.73065 0.23135
 C209 C 0.29414 0.76172 0.26017
 C210 C 0.26397 0.76420 0.28994
 C211 C 0.76610 0.25813 0.28945
 C212 C 0.73342 0.23104 0.29067
 C213 C 0.70377 0.23240 0.26038
 C214 C 0.70708 0.26041 0.22865
 C215 C 0.74098 0.28585 0.22635
 C216 C 0.77027 0.28517 0.25696
 C217 C 0.20151 0.06683 0.36971
 C218 C 0.22464 0.07678 0.40344
 C219 C 0.24720 0.11226 0.40352
 C220 C 0.24627 0.13802 0.37018
 C221 C 0.22401 0.12712 0.33566
 C222 C 0.20166 0.09151 0.33578
 C223 C 0.22386 0.15241 0.30197
 C224 C 0.24392 0.18932 0.30323
 C225 C 0.26462 0.20067 0.33807
 C226 C 0.26662 0.17480 0.37100
 H227 H 0.26473 0.12011 0.42979
 H228 H 0.18409 0.08292 0.30980
 H229 H 0.20703 0.14423 0.27535
 H230 H 0.28331 0.18391 0.39737
 H231 H 0.18413 0.03937 0.36928
 H232 H 0.27941 0.22956 0.33957
 C233 C 0.79419 0.92773 0.39050
 C234 C 0.76429 0.92373 0.42000
 C235 C 0.73626 0.89243 0.41722
 C236 C 0.73801 0.86529 0.38511
 C237 C 0.76728 0.87045 0.35467
 C238 C 0.79539 0.90156 0.35777
 C239 C 0.76814 0.84419 0.32186
 C240 C 0.74136 0.81183 0.32000
 C241 C 0.71345 0.80590 0.35102
 C242 C 0.71123 0.83291 0.38301
 H243 H 0.71342 0.88904 0.44024
 H244 H 0.81825 0.90565 0.33492
 H245 H 0.79007 0.84834 0.29810
 H246 H 0.68905 0.82813 0.40639
 H247 H 0.81591 0.95185 0.39219
 H248 H 0.69358 0.78024 0.35056
 C249 C 0.71538 0.11510 0.58876
 C250 C 0.74746 0.08775 0.58905
 C251 C 0.77688 0.09055 0.61904
 C252 C 0.77431 0.12035 0.64861
 C253 C 0.74260 0.14858 0.64742
 C254 C 0.71322 0.14562 0.61746
 C255 C 0.74079 0.17915 0.67628
 C256 C 0.76931 0.18080 0.70722
 C257 C 0.80000 0.15201 0.70882
 C258 C 0.80283 0.12230 0.67944
 H259 H 0.80142 0.06915 0.61968
 H260 H 0.68853 0.16678 0.61631
 H261 H 0.71736 0.20165 0.67474
 H262 H 0.82711 0.10072 0.68100
 H263 H 0.69246 0.11335 0.56579
 H264 H 0.82198 0.15279 0.73274
 C265 C 0.19956 0.91937 0.60816
 C266 C 0.23089 0.91991 0.57987
 C267 C 0.26244 0.89212 0.58317
 C268 C 0.26239 0.86365 0.61427
 C269 C 0.23114 0.86403 0.64312
 C270 C 0.19991 0.89197 0.63983
 C271 C 0.23142 0.83626 0.67463
 C272 C 0.26143 0.80687 0.67677
 C273 C 0.29197 0.80601 0.64768
 C274 C 0.29275 0.83455 0.61688
 H275 H 0.28645 0.89214 0.56111
 H276 H 0.17561 0.89240 0.66153
 H277 H 0.20817 0.83724 0.69744
 H278 H 0.31680 0.83361 0.59492
 H279 H 0.17504 0.94063 0.60612
 H280 H 0.31519 0.78331 0.64894
 C281 C 0.42730 0.26837 0.12198
 C282 C 0.41583 0.25585 0.08349
 C283 C 0.37637 0.24313 0.07643
 C284 C 0.34815 0.24349 0.10782
 C285 C 0.36017 0.25536 0.14684
 C286 C 0.39980 0.26765 0.15363
 C287 C 0.33228 0.25515 0.17835
 C288 C 0.29229 0.24440 0.17117
 C289 C 0.28019 0.23357 0.13232
 C290 C 0.30805 0.23268 0.10088
 H291 H 0.36756 0.23393 0.04647
 H292 H 0.40938 0.27704 0.18326
 H293 H 0.34137 0.26387 0.20838
 H294 H 0.29823 0.22382 0.07116
 H295 H 0.45775 0.27832 0.12757
 H296 H 0.24928 0.22533 0.12658
 C297 C 0.42614 0.70274 0.88487
 C298 C 0.42643 0.73685 0.90970
 C299 C 0.39923 0.76816 0.90226
 C300 C 0.37145 0.76503 0.87074
 C301 C 0.37178 0.73072 0.84569
 C302 C 0.39932 0.69986 0.85291
 C303 C 0.34433 0.72763 0.81405
 C304 C 0.31565 0.75770 0.80792
 C305 C 0.31500 0.79144 0.83311
 C306 C 0.34298 0.79531 0.86408
 H307 H 0.39903 0.79437 0.92154
 H308 H 0.39983 0.67331 0.83413
 H309 H 0.34505 0.70180 0.79428
 H310 H 0.34211 0.82172 0.88302
 H311 H 0.44696 0.67830 0.89001
 H312 H 0.29281 0.81478 0.82868
 C313 C 0.57525 0.71095 0.11939
 C314 C 0.57977 0.74005 0.08921
 C315 C 0.61159 0.76752 0.09130
 C316 C 0.63923 0.76542 0.12301
 C317 C 0.63391 0.73652 0.15376
 C318 C 0.60179 0.70953 0.15173
 C319 C 0.66103 0.73485 0.18583
 C320 C 0.69413 0.76068 0.18677
 C321 C 0.69999 0.78852 0.15573
 C322 C 0.67240 0.79128 0.12428
 H323 H 0.61543 0.78964 0.06770
 H324 H 0.59746 0.68706 0.17488
 H325 H 0.65670 0.71335 0.20990
 H326 H 0.67718 0.81334 0.10084
 H327 H 0.55078 0.68958 0.11815
 H328 H 0.72570 0.80838 0.15618
 C329 C 0.58659 0.29881 0.89215
 C330 C 0.58329 0.26518 0.91736
 C331 C 0.61123 0.23385 0.91396
 C332 C 0.64252 0.23622 0.88584
 C333 C 0.64509 0.26975 0.85987
 C334 C 0.61699 0.30087 0.86326
 C335 C 0.67574 0.27157 0.83102
 C336 C 0.70462 0.24105 0.82885
 C337 C 0.70254 0.20844 0.85541
 C338 C 0.67144 0.20576 0.88342
 H339 H 0.60910 0.20809 0.93377
 H340 H 0.61869 0.32689 0.84379
 H341 H 0.67706 0.29648 0.81013
 H342 H 0.67010 0.18002 0.90326
 H343 H 0.56526 0.32325 0.89442
 H344 H 0.72483 0.18480 0.85405
 C345 C 0.11687 0.42942 0.29277
 C346 C 0.07982 0.42046 0.27495
 C347 C 0.07531 0.38496 0.25286
 C348 C 0.10766 0.35825 0.24881
 C349 C 0.14543 0.36818 0.26554
 C350 C 0.14965 0.40373 0.28764
 C351 C 0.17809 0.34207 0.26043
 C352 C 0.17284 0.30523 0.24084
 C353 C 0.13503 0.29495 0.22555
 C354 C 0.10285 0.32163 0.22870
 H355 H 0.04656 0.37803 0.23929
 H356 H 0.17821 0.41159 0.30101
 H357 H 0.20721 0.34962 0.27281
 H358 H 0.07404 0.31329 0.21617
 H359 H 0.12072 0.45696 0.30960
 H360 H 0.13055 0.26618 0.21111
 C361 C 0.89187 0.41663 0.70256
 C362 C 0.91921 0.42080 0.73434
 C363 C 0.91665 0.39489 0.76755
 C364 C 0.88740 0.36462 0.76872
 C365 C 0.85946 0.36123 0.73695
 C366 C 0.86188 0.38742 0.70408
 C367 C 0.82991 0.33136 0.73833
 C368 C 0.82886 0.30380 0.77020
 C369 C 0.85728 0.30670 0.80113
 C370 C 0.88599 0.33725 0.80073
 H371 H 0.93809 0.39762 0.79188
 H372 H 0.84090 0.38500 0.67936
 H373 H 0.80797 0.32913 0.71442
 H374 H 0.90744 0.33909 0.82508
 H375 H 0.89345 0.43636 0.67673
 H376 H 0.85733 0.28515 0.82547
 C377 C 0.12147 0.57864 0.69305
 C378 C 0.09263 0.58144 0.72379
 C379 C 0.09643 0.61154 0.75310
 C380 C 0.12859 0.63871 0.75159
 C381 C 0.15804 0.63495 0.72114
 C382 C 0.15415 0.60489 0.69198
 C383 C 0.19063 0.66156 0.72014
 C384 C 0.19328 0.69296 0.74811
 C385 C 0.16339 0.69710 0.77761
 C386 C 0.13163 0.66982 0.77977
 H387 H 0.07406 0.61416 0.77668
 H388 H 0.17626 0.60180 0.66824
 H389 H 0.21370 0.65827 0.69736
 H390 H 0.10914 0.67344 0.80306
 H391 H 0.11916 0.55558 0.67025
 H392 H 0.16455 0.72167 0.79883
 C393 C 0.88001 0.58283 0.31204
 C394 C 0.91157 0.58600 0.28420
 C395 C 0.91119 0.61714 0.25575
 C396 C 0.87943 0.64481 0.25494
 C397 C 0.84693 0.64041 0.28201
 C398 C 0.84766 0.60954 0.31064
 C399 C 0.81442 0.66711 0.28009
 C400 C 0.81488 0.69928 0.25286
 C401 C 0.84791 0.70429 0.22713
 C402 C 0.87962 0.67685 0.22761
 H403 H 0.93571 0.61990 0.23444
 H404 H 0.82320 0.60600 0.33187
 H405 H 0.78898 0.66328 0.30008
 H406 H 0.90454 0.68102 0.20705
 H407 H 0.87974 0.55884 0.33400
 H408 H 0.84922 0.72963 0.20684
 C409 C 0.06969 0.21498 0.62029
 C410 C 0.07815 0.23570 0.58458
 C411 C 0.11481 0.25606 0.58037
 C412 C 0.14315 0.25527 0.61159
 C413 C 0.13380 0.23535 0.64799
 C414 C 0.09704 0.21529 0.65202
 C415 C 0.16154 0.23547 0.67959
 C416 C 0.19925 0.25345 0.67462
 C417 C 0.20890 0.27222 0.63816
 C418 C 0.18080 0.27366 0.60701
 H419 H 0.12153 0.27166 0.55256
 H420 H 0.08960 0.19959 0.67957
 H421 H 0.15426 0.22092 0.70783
 H422 H 0.18863 0.28876 0.57924
 H423 H 0.04146 0.19923 0.62390
 H424 H 0.23802 0.28609 0.63408
 C425 C 0.92731 0.78819 0.62099
 C426 C 0.91908 0.77000 0.58392
 C427 C 0.88251 0.75003 0.57817
 C428 C 0.85413 0.74826 0.60933
 C429 C 0.86325 0.76523 0.64722
 C430 C 0.89981 0.78536 0.65265
 C431 C 0.83561 0.76185 0.67890
 C432 C 0.79828 0.74349 0.67255
 C433 C 0.78882 0.72808 0.63453
 C434 C 0.81680 0.72983 0.60329
 H435 H 0.87611 0.73625 0.54937
 H436 H 0.90712 0.79885 0.68133
 H437 H 0.84265 0.77404 0.70825
 H438 H 0.80917 0.71702 0.57438
 H439 H 0.95559 0.80349 0.62576
 H440 H 0.75997 0.71401 0.62939
 C441 C 0.07660 0.78745 0.37867
 C442 C 0.08454 0.76782 0.41509
 C443 C 0.12003 0.74566 0.41952
 C444 C 0.14767 0.74322 0.38773
 C445 C 0.13877 0.76169 0.35047
 C446 C 0.10327 0.78395 0.34635
 C447 C 0.16574 0.75790 0.31821
 C448 C 0.20229 0.73769 0.32348
 C449 C 0.21161 0.72086 0.36096
 C450 C 0.18416 0.72285 0.39263
 H451 H 0.12622 0.73075 0.44781
 H452 H 0.09616 0.79866 0.31820
 H453 H 0.15896 0.77149 0.28941
 H454 H 0.19168 0.70897 0.42108
 H455 H 0.04913 0.80446 0.37490
 H456 H 0.24005 0.70573 0.36541
 C457 C 0.92269 0.21365 0.37874
 C458 C 0.91550 0.23637 0.41348
 C459 C 0.88023 0.25915 0.41671
 C460 C 0.85196 0.25888 0.38549
 C461 C 0.86001 0.23694 0.34994
 C462 C 0.89542 0.21438 0.34691
 C463 C 0.83231 0.23761 0.31826
 C464 C 0.79589 0.25830 0.32248
 C465 C 0.78747 0.27891 0.35824
 C466 C 0.81560 0.27980 0.38930
 H467 H 0.87453 0.27632 0.44382
 H468 H 0.90187 0.19709 0.32009
 H469 H 0.83854 0.22146 0.29067
 H470 H 0.80876 0.29644 0.41642
 H471 H 0.94989 0.19600 0.37597
 H472 H 0.75928 0.29475 0.36177
 C473 C 0.30370 0.42246 0.87875
 C474 C 0.27310 0.41905 0.90765
 C475 C 0.24408 0.38878 0.90363
 C476 C 0.24561 0.36208 0.87104
 C477 C 0.27566 0.36668 0.84127
 C478 C 0.30470 0.39681 0.84554
 C479 C 0.27643 0.34075 0.80806
 C480 C 0.24882 0.30912 0.80531
 C481 C 0.22008 0.30382 0.83570
 C482 C 0.21789 0.33061 0.86790
 H483 H 0.22063 0.38578 0.92609
 H484 H 0.32819 0.40048 0.82326
 H485 H 0.29905 0.34440 0.78488
 H486 H 0.19505 0.32624 0.89072
 H487 H 0.32619 0.44578 0.88126
 H488 H 0.19946 0.27875 0.83456
 C489 C 0.72069 0.44212 0.12878
 C490 C 0.73703 0.42799 0.09261
 C491 C 0.75209 0.38880 0.09025
 C492 C 0.75030 0.36350 0.12395
 C493 C 0.73474 0.37830 0.16072
 C494 C 0.72000 0.41762 0.16280
 C495 C 0.73352 0.35330 0.19457
 C496 C 0.74565 0.31318 0.19155
 C497 C 0.76035 0.29839 0.15493
 C498 C 0.76329 0.32355 0.12147
 H499 H 0.76454 0.37797 0.06213
 H500 H 0.70769 0.42931 0.19060
 H501 H 0.72189 0.36447 0.22289
 H502 H 0.77501 0.31161 0.09353
 H503 H 0.70924 0.47248 0.13086
 H504 H 0.76953 0.26732 0.15237
 C505 C 0.75730 0.62966 0.93402
 C506 C 0.75024 0.58994 0.92232
 C507 C 0.74473 0.58061 0.88166
 C508 C 0.74599 0.61106 0.85258
 C509 C 0.75229 0.65130 0.86460
 C510 C 0.75813 0.66026 0.90534
 C511 C 0.75213 0.68191 0.83574
 C512 C 0.74582 0.67281 0.79508
 C513 C 0.74071 0.63279 0.78319
 C514 C 0.74067 0.60208 0.81176
 H515 H 0.73940 0.54975 0.87282
 H516 H 0.76306 0.69089 0.91502
 H517 H 0.75630 0.71288 0.84477
 H518 H 0.73602 0.57143 0.80202
 H519 H 0.76157 0.63701 0.96544
 H520 H 0.73583 0.62553 0.75185
 C521 C 0.24887 0.62455 0.06306
 C522 C 0.25873 0.58543 0.07489
 C523 C 0.26629 0.57703 0.11546
 C524 C 0.26393 0.60769 0.14430
 C525 C 0.25470 0.64733 0.13210
 C526 C 0.24715 0.65541 0.09143
 C527 C 0.25334 0.67816 0.16075
 C528 C 0.26057 0.66980 0.20144
 C529 C 0.26884 0.63033 0.21346
 C530 C 0.27070 0.59949 0.18508
 H531 H 0.27372 0.54665 0.12448
 H532 H 0.23993 0.68555 0.08160
 H533 H 0.24679 0.70869 0.15157
 H534 H 0.27761 0.56931 0.19498
 H535 H 0.24301 0.63124 0.03175
 H536 H 0.27454 0.62362 0.24478
 C537 C 0.43598 0.11859 0.70886
 C538 C 0.43205 0.09107 0.74076
 C539 C 0.39925 0.09490 0.76729
 C540 C 0.37009 0.12472 0.76100
 C541 C 0.37590 0.15370 0.73053
 C542 C 0.40904 0.15047 0.70475
 C543 C 0.34808 0.18500 0.72594
 C544 C 0.31242 0.18534 0.74846
 C545 C 0.30562 0.15492 0.77684
 C546 C 0.33475 0.12557 0.78399
 H547 H 0.39504 0.07321 0.79124
 H548 H 0.41355 0.17200 0.68075
 H549 H 0.35418 0.20901 0.70493
 H550 H 0.32929 0.10311 0.80690
 H551 H 0.46083 0.11639 0.68791
 H552 H 0.27807 0.15448 0.79415
 C553 C 0.37538 0.92359 0.21919
 C554 C 0.41058 0.91768 0.24151
 C555 C 0.41608 0.88160 0.26259
 C556 C 0.38666 0.85143 0.26110
 C557 C 0.35065 0.85820 0.23961
 C558 C 0.34535 0.89434 0.21872
 C559 C 0.32061 0.82871 0.23937
 C560 C 0.32669 0.79206 0.25913
 C561 C 0.36303 0.78485 0.27905
 C562 C 0.39264 0.81453 0.28051
 H563 H 0.44357 0.87677 0.27933
 H564 H 0.31812 0.89988 0.20184
 H565 H 0.29252 0.83409 0.22386
 H566 H 0.42018 0.80863 0.29677
 H567 H 0.37083 0.95126 0.20272
 H568 H 0.36800 0.75654 0.29424
 C569 C 0.61550 0.07315 0.22587
 C570 C 0.57866 0.08349 0.24346
 C571 C 0.57378 0.12127 0.26138
 C572 C 0.60565 0.14888 0.26135
 C573 C 0.64314 0.13779 0.24453
 C574 C 0.64772 0.09991 0.22683
 C575 C 0.67526 0.16492 0.24532
 C576 C 0.66995 0.20353 0.26113
 C577 C 0.63254 0.21478 0.27690
 C578 C 0.60071 0.18745 0.27752
 H579 H 0.54513 0.12925 0.27470
 H580 H 0.67612 0.09107 0.21356
 H581 H 0.70419 0.15649 0.23288
 H582 H 0.57216 0.19658 0.29024
 H583 H 0.61951 0.04398 0.21206
 H584 H 0.62821 0.24463 0.28900
 C585 C 0.62117 0.92269 0.77961
 C586 C 0.58445 0.91427 0.76093
 C587 C 0.57843 0.87686 0.74258
 C588 C 0.60924 0.84805 0.74256
 C589 C 0.64692 0.85756 0.75967
 C590 C 0.65241 0.89473 0.77857
 C591 C 0.67852 0.82984 0.75736
 C592 C 0.67239 0.79205 0.73993
 C593 C 0.63446 0.78202 0.72474
 C594 C 0.60324 0.81008 0.72540
 H595 H 0.54993 0.87038 0.72829
 H596 H 0.68093 0.90230 0.79221
 H597 H 0.70779 0.83731 0.76944
 H598 H 0.57447 0.80210 0.71255
 H599 H 0.62616 0.95158 0.79363
 H600 H 0.62943 0.75279 0.71148
 C601 C 0.79294 0.91606 0.61155
 C602 C 0.75862 0.92123 0.58736
 C603 C 0.72577 0.89508 0.59278
 C604 C 0.72775 0.86371 0.62094
 C605 C 0.76172 0.86007 0.64603
 C606 C 0.79405 0.88646 0.64121
 C607 C 0.76319 0.82959 0.67502
 C608 C 0.73264 0.80067 0.67728
 C609 C 0.69972 0.80352 0.65111
 C610 C 0.69678 0.83533 0.62386
 H611 H 0.69938 0.89795 0.57395
 H612 H 0.82055 0.88370 0.65985
 H613 H 0.78840 0.82795 0.69547
 H614 H 0.67078 0.83718 0.60444
 H615 H 0.81874 0.93558 0.60830
 H616 H 0.67628 0.78106 0.65178
 C617 C 0.29970 0.41279 0.10116
 C618 C 0.26527 0.41928 0.07747
 C619 C 0.23071 0.39597 0.08500
 C620 C 0.23087 0.36637 0.11506
 C621 C 0.26513 0.36142 0.13953
 C622 C 0.29934 0.38476 0.13236
 C623 C 0.26488 0.33271 0.17033
 C624 C 0.23186 0.30700 0.17541
 C625 C 0.19857 0.31103 0.14991
 C626 C 0.19767 0.34106 0.12059
 H627 H 0.20408 0.39989 0.06670
 H628 H 0.32603 0.38097 0.15054
 H629 H 0.29071 0.32970 0.18987
 H630 H 0.17140 0.34388 0.10164
 H631 H 0.32681 0.43010 0.09633
 H632 H 0.17342 0.29067 0.15243
 C633 C 0.19241 0.08573 0.60078
 C634 C 0.22631 0.08197 0.57562
 C635 C 0.25984 0.10673 0.58282
 C636 C 0.25939 0.13475 0.61431
 C637 C 0.22630 0.13619 0.64091
 C638 C 0.19286 0.11177 0.63371
 C639 C 0.22689 0.16267 0.67370
 C640 C 0.25856 0.19009 0.67832
 C641 C 0.28985 0.19038 0.65002
 C642 C 0.29106 0.16200 0.61916
 H643 H 0.28586 0.10512 0.56323
 H644 H 0.16686 0.11310 0.65331
 H645 H 0.20220 0.16287 0.69496
 H646 H 0.31610 0.16224 0.59831
 H647 H 0.16609 0.06725 0.59614
 H648 H 0.31310 0.21294 0.65144
 C649 C 0.20142 0.91317 0.38150
 C650 C 0.23176 0.91485 0.41069
 C651 C 0.26322 0.88675 0.40955
 C652 C 0.26411 0.85695 0.37976
 C653 C 0.23395 0.85618 0.34990
 C654 C 0.20276 0.88439 0.35105
 C655 C 0.23516 0.82684 0.31977
 C656 C 0.26486 0.79699 0.32024
 C657 C 0.29424 0.79741 0.35039
 C658 C 0.29427 0.82755 0.37958
 H659 H 0.28647 0.88762 0.43230
 H660 H 0.17922 0.88398 0.32861
 H661 H 0.21255 0.82662 0.29639
 H662 H 0.31738 0.82741 0.40245
 H663 H 0.17702 0.93467 0.38183
 H664 H 0.31691 0.77416 0.35151
 C665 C 0.78884 0.08602 0.39223
 C666 C 0.75715 0.08618 0.42014
 C667 C 0.72636 0.11477 0.41646
 C668 C 0.72757 0.14335 0.38542
 C669 C 0.75917 0.14227 0.35696
 C670 C 0.78960 0.11350 0.36060
 C671 C 0.76010 0.17026 0.32557
 C672 C 0.73096 0.20054 0.32320
 C673 C 0.70009 0.20200 0.35194
 C674 C 0.69807 0.17329 0.38253
 H675 H 0.70206 0.11529 0.43820
 H676 H 0.81416 0.11247 0.33921
 H677 H 0.78371 0.16885 0.30316
 H678 H 0.67382 0.17484 0.40423
 H679 H 0.81276 0.06410 0.39452
 H680 H 0.67766 0.22549 0.35071
 C681 C 0.61027 0.78315 0.91470
 C682 C 0.58844 0.74731 0.92014
 C683 C 0.59615 0.71468 0.89430
 C684 C 0.62376 0.71861 0.86249
 C685 C 0.64603 0.75446 0.85826
 C686 C 0.63937 0.78632 0.88473
 C687 C 0.67421 0.75818 0.82722
 C688 C 0.67871 0.72768 0.79857
 C689 C 0.65554 0.69264 0.80207
 C690 C 0.62884 0.68778 0.83422
 H691 H 0.57920 0.68709 0.89747
 H692 H 0.65597 0.81411 0.88165
 H693 H 0.69269 0.78485 0.82527
 H694 H 0.61176 0.66023 0.83662
 H695 H 0.60531 0.80881 0.93407
 H696 H 0.65867 0.66878 0.78021
 C697 C 0.07465 0.19372 0.38616
 C698 C 0.07725 0.22606 0.41306
 C699 C 0.10635 0.25587 0.40683
 C700 C 0.13237 0.25369 0.37376
 C701 C 0.12849 0.22186 0.34593
 C702 C 0.09982 0.19182 0.35260
 C703 C 0.15333 0.22064 0.31194
 C704 C 0.18304 0.24988 0.30632
 C705 C 0.18776 0.28050 0.33480
 C706 C 0.16218 0.28281 0.36797
 H707 H 0.10874 0.28069 0.42776
 H708 H 0.09673 0.16703 0.33178
 H709 H 0.14988 0.19688 0.28998
 H710 H 0.16591 0.30712 0.38925
 H711 H 0.05224 0.17055 0.39040
 H712 H 0.21125 0.30266 0.33121
 C713 C 0.59816 0.20903 0.08689
 C714 C 0.57811 0.24594 0.08167
 C715 C 0.58761 0.27808 0.10743
 C716 C 0.61616 0.27331 0.13799
 C717 C 0.63728 0.23669 0.14165
 C718 C 0.62798 0.20474 0.11603
 C719 C 0.66723 0.23265 0.17096
 C720 C 0.67474 0.26396 0.19808
 C721 C 0.65213 0.29942 0.19556
 C722 C 0.62370 0.30444 0.16523
 H723 H 0.57202 0.30651 0.10453
 H724 H 0.64351 0.17629 0.11876
 H725 H 0.68479 0.20533 0.17259
 H726 H 0.60737 0.33250 0.16332
 H727 H 0.59162 0.18362 0.06772
 H728 H 0.65701 0.32350 0.21680
 C729 C 0.42651 0.29442 0.87954
 C730 C 0.41833 0.26852 0.91176
 C731 C 0.38403 0.24413 0.91077
 C732 C 0.35814 0.24534 0.87761
 C733 C 0.36761 0.27006 0.84434
 C734 C 0.40161 0.29482 0.84579
 C735 C 0.34281 0.26970 0.81034
 C736 C 0.30770 0.24651 0.81004
 C737 C 0.29744 0.22361 0.84387
 C738 C 0.32292 0.22231 0.87712
 H739 H 0.37752 0.22440 0.93587
 H740 H 0.40902 0.31431 0.82078
 H741 H 0.35026 0.28795 0.78441
 H742 H 0.31484 0.20374 0.90261
 H743 H 0.45301 0.31325 0.87989
 H744 H 0.26977 0.20659 0.84439
 C745 C 0.38744 0.77716 0.07826
 C746 C 0.41486 0.74510 0.07859
 C747 C 0.41219 0.71593 0.10896
 C748 C 0.38306 0.71944 0.13939
 C749 C 0.35559 0.75185 0.13864
 C750 C 0.35782 0.78030 0.10778
 C751 C 0.32651 0.75544 0.16891
 C752 C 0.32499 0.72755 0.20038
 C753 C 0.35251 0.69568 0.20129
 C754 C 0.38124 0.69150 0.17089
 H755 H 0.43358 0.69141 0.10968
 H756 H 0.33704 0.80531 0.10680
 H757 H 0.30483 0.77969 0.16793
 H758 H 0.40209 0.66657 0.17209
 H759 H 0.38899 0.79993 0.05508
 H760 H 0.35139 0.67384 0.22537
 C761 C 0.90047 0.58613 0.67897
 C762 C 0.92166 0.58326 0.71550
 C763 C 0.91003 0.60812 0.74775
 C764 C 0.87753 0.63464 0.74386
 C765 C 0.85498 0.63525 0.70795
 C766 C 0.86701 0.61126 0.67553
 C767 C 0.82066 0.65962 0.70523
 C768 C 0.80991 0.68508 0.73716
 C769 C 0.83402 0.68594 0.77176
 C770 C 0.86702 0.66040 0.77545
 H771 H 0.92638 0.60712 0.77589
 H772 H 0.85045 0.61180 0.64753
 H773 H 0.80210 0.65843 0.67858
 H774 H 0.88434 0.66085 0.80297
 H775 H 0.90860 0.56765 0.65344
 H776 H 0.82671 0.70593 0.79636
 C777 C 0.40842 0.10726 0.28832
 C778 C 0.41152 0.08436 0.25286
 C779 C 0.38480 0.09231 0.22103
 C780 C 0.35518 0.12206 0.22488
 C781 C 0.35412 0.14637 0.25963
 C782 C 0.38081 0.13869 0.29118
 C783 C 0.32609 0.17765 0.26242
 C784 C 0.29666 0.18277 0.23266
 C785 C 0.29659 0.15694 0.19929
 C786 C 0.32624 0.12759 0.19485
 H787 H 0.38600 0.07439 0.19385
 H788 H 0.37995 0.15663 0.31832
 H789 H 0.32721 0.19799 0.28771
 H790 H 0.32609 0.10877 0.16831
 H791 H 0.42846 0.10196 0.31338
 H792 H 0.27381 0.15990 0.17631
 C793 C 0.10483 0.58263 0.32206
 C794 C 0.08242 0.57885 0.28634
 C795 C 0.09414 0.60137 0.25242
 C796 C 0.12739 0.62725 0.25433
 C797 C 0.15066 0.62900 0.28976
 C798 C 0.13905 0.60670 0.32344
 C799 C 0.18494 0.65333 0.29109
 C800 C 0.19468 0.67841 0.25862
 C801 C 0.17048 0.67765 0.22407
 C802 C 0.13765 0.65168 0.22158
 H803 H 0.07699 0.59950 0.22482
 H804 H 0.15624 0.60815 0.35102
 H805 H 0.20391 0.65292 0.31745
 H806 H 0.11992 0.65121 0.19433
 H807 H 0.09683 0.56581 0.34877
 H808 H 0.17717 0.69713 0.19889
 C809 C 0.87794 0.42568 0.31253
 C810 C 0.90660 0.42346 0.28157
 C811 C 0.90236 0.39432 0.25138
 C812 C 0.86999 0.36725 0.25250
 C813 C 0.84086 0.37042 0.28335
 C814 C 0.84510 0.39973 0.31316
 C815 C 0.80809 0.34407 0.28409
 C816 C 0.80483 0.31341 0.25544
 C817 C 0.83430 0.30979 0.22542
 C818 C 0.86636 0.33682 0.22362
 H819 H 0.92462 0.39222 0.22764
 H820 H 0.82320 0.40239 0.33714
 H821 H 0.78516 0.34719 0.30703
 H822 H 0.88852 0.33366 0.19994
 H823 H 0.88061 0.44808 0.33595
 H824 H 0.83238 0.28602 0.20334
 C825 C 0.07654 0.38652 0.77359
 C826 C 0.08319 0.41537 0.74357
 C827 C 0.11704 0.41208 0.71858
 C828 C 0.14430 0.38037 0.72378
 C829 C 0.13669 0.35072 0.75328
 C830 C 0.10277 0.35411 0.77805
 C831 C 0.16321 0.31829 0.75756
 C832 C 0.19821 0.31619 0.73416
 C833 C 0.20609 0.34622 0.70567
 C834 C 0.17909 0.37781 0.70012
 H835 H 0.12245 0.43457 0.69565
 H836 H 0.09665 0.33184 0.80098
 H837 H 0.15665 0.29469 0.77894
 H838 H 0.18555 0.40036 0.67756
 H839 H 0.05046 0.38861 0.79300
 H840 H 0.23304 0.34490 0.68745
 C841 C 0.92877 0.79985 0.38103
 C842 C 0.92213 0.77427 0.41385
 C843 C 0.88784 0.74993 0.41491
 C844 C 0.86003 0.75135 0.38338
 C845 C 0.86760 0.77622 0.34970
 C846 C 0.90196 0.80042 0.34887
 C847 C 0.84053 0.77665 0.31759
 C848 C 0.80527 0.75390 0.31952
 C849 C 0.79708 0.73046 0.35353
 C850 C 0.82464 0.72864 0.38503
 H851 H 0.88253 0.73055 0.44056
 H852 H 0.90799 0.81988 0.32347
 H853 H 0.84644 0.79502 0.29134
 H854 H 0.81814 0.70979 0.41077
 H855 H 0.95524 0.81870 0.37990
 H856 H 0.76960 0.71319 0.35532
 C857 C 0.87629 0.26433 0.57269
 C858 C 0.91342 0.24687 0.58193
 C859 C 0.92093 0.23284 0.62090
 C860 C 0.89136 0.23627 0.65075
 C861 C 0.85342 0.25273 0.64098
 C862 C 0.84624 0.26682 0.60193
 C863 C 0.82333 0.25466 0.67039
 C864 C 0.83108 0.24140 0.70959
 C865 C 0.86912 0.22644 0.71951
 C866 C 0.89901 0.22350 0.69017
 H867 H 0.94990 0.21976 0.62796
 H868 H 0.81746 0.27976 0.59404
 H869 H 0.79389 0.26640 0.66298
 H870 H 0.92799 0.21114 0.69823
 H871 H 0.87035 0.27528 0.54262
 H872 H 0.87527 0.21619 0.74978
 C873 C 0.07360 0.79010 0.62176
 C874 C 0.08157 0.76774 0.58697
 C875 C 0.11673 0.74476 0.58429
 C876 C 0.14435 0.74480 0.61604
 C877 C 0.13562 0.76659 0.65152
 C878 C 0.10015 0.78905 0.65412
 C879 C 0.16291 0.76623 0.68346
 C880 C 0.19967 0.74622 0.67951
 C881 C 0.20868 0.72543 0.64401
 C882 C 0.18087 0.72409 0.61270
 H883 H 0.12299 0.72787 0.55714
 H884 H 0.09320 0.80617 0.68093
 H885 H 0.15630 0.78253 0.71088
 H886 H 0.18822 0.70756 0.58563
 H887 H 0.04643 0.80784 0.62410
 H888 H 0.23719 0.71012 0.64075
 C889 C 0.71129 0.58042 0.12185
 C890 C 0.73855 0.58647 0.09023
 C891 C 0.76405 0.61994 0.09067
 C892 C 0.76202 0.64753 0.12245
 C893 C 0.73534 0.64049 0.15487
 C894 C 0.71007 0.60692 0.15425
 C895 C 0.73406 0.66737 0.18715
 C896 C 0.75777 0.70203 0.18666
 C897 C 0.78306 0.70974 0.15384
 C898 C 0.78576 0.68228 0.12223
 H899 H 0.78474 0.62485 0.06595
 H900 H 0.68923 0.60132 0.17866
 H901 H 0.71415 0.66183 0.21237
 H902 H 0.80592 0.68848 0.09740
 H903 H 0.69154 0.55460 0.12186
 H904 H 0.80073 0.73698 0.15280
 C905 C 0.28982 0.56957 0.87121
 C906 C 0.26861 0.57957 0.90624
 C907 C 0.24858 0.61650 0.90882
 C908 C 0.25014 0.64363 0.87654
 C909 C 0.27055 0.63278 0.84079
 C910 C 0.29032 0.59573 0.83845
 C911 C 0.27118 0.65931 0.80813
 C912 C 0.25323 0.69719 0.81134
 C913 C 0.23420 0.70842 0.84723
 C914 C 0.23207 0.68157 0.87945
 H915 H 0.23261 0.62433 0.93615
 H916 H 0.30637 0.58713 0.81144
 H917 H 0.28623 0.65096 0.78044
 H918 H 0.21670 0.69058 0.90672
 H919 H 0.30537 0.54109 0.86897
 H920 H 0.22062 0.73782 0.85004
 C921 C 0.72657 0.43156 0.88313
 C922 C 0.74606 0.42376 0.91962
 C923 C 0.76641 0.38732 0.92511
 C924 C 0.76682 0.35849 0.89438
 C925 C 0.74812 0.36706 0.85718
 C926 C 0.72809 0.40367 0.85187
 C927 C 0.74937 0.33870 0.82613
 C928 C 0.76743 0.30126 0.83243
 C929 C 0.78485 0.29238 0.86969
 C930 C 0.78514 0.32105 0.90031
 H931 H 0.78103 0.38116 0.95354
 H932 H 0.71333 0.41056 0.82371
 H933 H 0.73568 0.34527 0.79733
 H934 H 0.79924 0.31380 0.92871
 H935 H 0.71080 0.45963 0.87861
 H936 H 0.79863 0.26339 0.87481
 C937 C 0.61316 0.93151 0.20877
 C938 C 0.58077 0.92315 0.23447
 C939 C 0.58169 0.88871 0.25869
 C940 C 0.61482 0.86275 0.25734
 C941 C 0.64813 0.87223 0.23262
 C942 C 0.64687 0.90652 0.20824
 C943 C 0.68198 0.84716 0.23262
 C944 C 0.68216 0.81188 0.25558
 C945 C 0.64836 0.80177 0.27863
 C946 C 0.61521 0.82739 0.28016
 H947 H 0.55649 0.88206 0.27829
 H948 H 0.67194 0.91403 0.18884
 H949 H 0.70796 0.85469 0.21446
 H950 H 0.58972 0.81932 0.29875
 H951 H 0.61292 0.95814 0.19010
 H952 H 0.64770 0.77399 0.29547
 C953 C 0.63304 0.06052 0.78442
 C954 C 0.59925 0.07451 0.76363
 C955 C 0.59935 0.11312 0.74700
 C956 C 0.63301 0.13801 0.75160
 C957 C 0.66748 0.12340 0.77176
 C958 C 0.66718 0.08459 0.78802
 C959 C 0.70140 0.14803 0.77570
 C960 C 0.70062 0.18746 0.76110
 C961 C 0.66604 0.20211 0.74212
 C962 C 0.63265 0.17739 0.73686
 H963 H 0.57299 0.12395 0.73128
 H964 H 0.69315 0.07303 0.80379
 H965 H 0.72810 0.13697 0.79065
 H966 H 0.60643 0.18919 0.72166
 H967 H 0.63317 0.03070 0.79736
 H968 H 0.66519 0.23263 0.73097
 C969 C 0.37765 0.94127 0.76076
 C970 C 0.41490 0.92884 0.74550
 C971 C 0.41958 0.88972 0.73081
 C972 C 0.38734 0.86263 0.73247
 C973 C 0.34966 0.87549 0.74753
 C974 C 0.34504 0.91499 0.76120
 C975 C 0.31754 0.84840 0.74949
 C976 C 0.32302 0.80837 0.73791
 C977 C 0.36049 0.79559 0.72352
 C978 C 0.39236 0.82264 0.72035
 H979 H 0.44864 0.88001 0.71970
 H980 H 0.31650 0.92524 0.77307
 H981 H 0.28852 0.85806 0.76075
 H982 H 0.42102 0.81218 0.70901
 H983 H 0.37391 0.97138 0.77247
 H984 H 0.36488 0.76467 0.71452
   
