data_POSCAR
  _audit_creation_date              2014-09-24
  _audit_creation_method            'ToBaCCo'
  _symmetry_space_group_name_H-M    'P1'
  _symmetry_Int_Tables_number       1
  _symmetry_cell_setting            triclinic
  loop_
  _symmetry_equiv_pos_as_xyz
 x,y,z
_cell_length_a 44.8869
_cell_length_b 28.9338
_cell_length_c 20.0627
_cell_angle_alpha 89.996200
_cell_angle_beta 89.964900
_cell_angle_gamma 89.946300
loop_
  _atom_site_label
  _atom_site_type_symbol
  _atom_site_fract_x
  _atom_site_fract_y
  _atom_site_fract_z
C1 C 0.68474 0.31821 0.50148
 C2 C 0.69596 0.30114 0.56224
 C3 C 0.72122 0.27218 0.56011
 C4 C 0.73698 0.26366 0.50033
 C5 C 0.72566 0.28323 0.44105
 C6 C 0.69914 0.30901 0.44090
 C7 C 0.76493 0.23450 0.50038
 C8 C 0.77607 0.21407 0.44132
 C9 C 0.80288 0.18831 0.44071
 C10 C 0.81708 0.17981 0.50215
 C11 C 0.80579 0.19779 0.56184
 C12 C 0.78083 0.22678 0.55999
 H13 H 0.66582 0.34138 0.50091
 H14 H 0.72770 0.25475 0.60533
 H15 H 0.73705 0.27859 0.39422
 H16 H 0.76449 0.21949 0.39510
 H17 H 0.83594 0.15655 0.50457
 H18 H 0.77422 0.24316 0.60603
 C19 C 0.18537 0.81956 0.50223
 C20 C 0.19628 0.80208 0.56294
 C21 C 0.22155 0.77313 0.56103
 C22 C 0.23746 0.76482 0.50136
 C23 C 0.22633 0.78466 0.44203
 C24 C 0.19987 0.81053 0.44181
 C25 C 0.26532 0.73551 0.50145
 C26 C 0.27664 0.71594 0.44210
 C27 C 0.30308 0.69003 0.44201
 C28 C 0.31740 0.68075 0.50252
 C29 C 0.30632 0.69800 0.56323
 C30 C 0.28103 0.72691 0.56128
 H31 H 0.16657 0.84297 0.50159
 H32 H 0.22791 0.75559 0.60625
 H33 H 0.23782 0.78015 0.39528
 H34 H 0.26530 0.72068 0.39525
 H35 H 0.33619 0.65732 0.50192
 H36 H 0.27451 0.74422 0.60660
 C37 C 0.31578 0.32210 -0.50139
 C38 C 0.30505 0.30374 -0.56118
 C39 C 0.28077 0.27331 -0.55963
 C40 C 0.26532 0.26375 -0.49970
 C41 C 0.27631 0.28391 -0.44031
 C42 C 0.30203 0.31163 -0.44060
 C43 C 0.23791 0.23345 -0.49982
 C44 C 0.22689 0.21294 -0.44063
 C45 C 0.20045 0.18635 -0.44027
 C46 C 0.18662 0.17709 -0.50180
 C47 C 0.19767 0.19536 -0.56138
 C48 C 0.22228 0.22492 -0.55962
 H49 H 0.33438 0.34594 -0.50229
 H50 H 0.27448 0.25717 -0.60600
 H51 H 0.26531 0.27840 -0.39322
 H52 H 0.23819 0.21894 -0.39421
 H53 H 0.16817 0.15311 -0.50436
 H54 H 0.22871 0.24122 -0.60580
 C55 C -0.18313 0.82081 -0.50053
 C56 C -0.19418 0.80382 -0.56143
 C57 C -0.21931 0.77464 -0.55966
 C58 C -0.23503 0.76561 -0.50001
 C59 C -0.22388 0.78512 -0.44052
 C60 C -0.19753 0.81123 -0.44009
 C61 C -0.26259 0.73565 -0.50027
 C62 C -0.27382 0.71566 -0.44100
 C63 C -0.29968 0.68826 -0.44132
 C64 C -0.31345 0.67804 -0.50221
 C65 C -0.30243 0.69617 -0.56201
 C66 C -0.27798 0.72630 -0.56027
 H67 H -0.16431 0.84413 -0.49972
 H68 H -0.22559 0.75733 -0.60508
 H69 H -0.23520 0.78006 -0.39371
 H70 H -0.26287 0.72114 -0.39388
 H71 H -0.33225 0.65458 -0.50320
 H72 H -0.27149 0.74237 -0.60657
 O73 O 0.04200 0.92035 -0.12285
 O74 O 0.07523 0.96036 -0.05784
 C75 C 0.06891 0.93145 -0.10518
 O76 O -0.04078 1.08339 -0.11713
 O77 O -0.07366 1.04063 -0.05493
 C78 C -0.06760 1.07163 -0.09973
 O79 O 0.04285 1.07767 -0.12443
 O80 O 0.07548 1.03687 -0.05909
 C81 C 0.06964 1.06555 -0.10689
 O82 O -0.04169 0.91697 -0.11689
 O83 O -0.07396 0.96090 -0.05496
 C84 C -0.06838 0.92979 -0.09972
 Zr85 Zr 0.00036 0.94106 -0.08306
 O86 O -0.00291 0.93718 -0.18810
 O87 O 0.00335 0.86810 -0.07756
 Zr88 Zr 0.00092 1.05817 -0.08400
 O89 O -0.00255 1.06076 -0.18912
 O90 O 0.00460 1.13110 -0.08050
 O91 O 0.02699 0.99927 -0.09729
 O92 O -0.02510 0.99986 -0.09543
 O93 O -0.04035 0.91704 0.11951
 O94 O -0.07346 0.95992 0.05799
 C95 C -0.06719 0.92895 0.10268
 O96 O 0.04276 1.07926 0.12299
 O97 O 0.07528 1.03851 0.05734
 C98 C 0.06948 1.06752 0.10489
 O99 O -0.04062 1.08322 0.11913
 O100 O -0.07351 1.04042 0.05730
 C101 C -0.06746 1.07115 0.10228
 O102 O 0.04333 0.92139 0.12339
 O103 O 0.07569 0.96214 0.05741
 C104 C 0.07007 0.93350 0.10538
 Zr105 Zr 0.00117 0.94165 0.08474
 O106 O -0.00162 0.93944 0.19000
 O107 O 0.00442 0.86866 0.08143
 Zr108 Zr 0.00112 1.05884 0.08369
 O109 O -0.00146 1.06318 0.18879
 O110 O 0.00434 1.13173 0.07704
 Zr111 Zr 0.04517 0.99957 -0.00041
 Zr112 Zr -0.04361 1.00018 0.00110
 O113 O -0.02454 1.00034 0.09700
 O114 O 0.02757 1.00020 0.09704
 O115 O -0.02607 0.93252 0.00143
 O116 O 0.02715 1.06670 -0.00057
 O117 O 0.02679 0.93272 0.00040
 O118 O -0.02579 1.06764 0.00015
 H119 H -0.03828 0.99999 -0.13503
 H120 H 0.04101 1.09333 -0.00113
 H121 H -0.03752 1.00041 0.13695
 H122 H 0.04051 0.90586 0.00057
 H123 H -0.01339 1.14314 -0.05783
 H124 H -0.01472 1.14342 0.05889
 H125 H 0.01159 1.03873 0.20699
 H126 H 0.01349 0.96104 0.20768
 H127 H -0.01366 0.85690 0.05897
 H128 H -0.01536 0.85661 -0.05740
 H129 H 0.01107 0.96021 -0.20669
 H130 H 0.01177 1.03805 -0.20734
 O131 O 0.45966 0.42129 0.12275
 O132 O 0.42706 0.46239 0.05760
 C133 C 0.43291 0.43329 0.10503
 O134 O 0.54391 0.58267 0.11708
 O135 O 0.57655 0.53876 0.05575
 C136 C 0.57066 0.57013 0.10014
 O137 O 0.46000 0.57902 0.12347
 O138 O 0.42739 0.53834 0.05812
 C139 C 0.43319 0.56705 0.10586
 O140 O 0.54337 0.41618 0.11773
 O141 O 0.57601 0.45897 0.05525
 C142 C 0.57017 0.42822 0.10034
 Zr143 Zr 0.50156 0.44124 0.08364
 O144 O 0.50458 0.43813 0.18880
 O145 O 0.49802 0.36833 0.07902
 Zr146 Zr 0.50197 0.55852 0.08383
 O147 O 0.50518 0.56141 0.18896
 O148 O 0.49889 0.63151 0.07984
 O149 O 0.47542 0.50015 0.09709
 O150 O 0.52745 0.49959 0.09596
 O151 O 0.54292 0.41632 -0.11826
 O152 O 0.57613 0.45893 -0.05668
 C153 C 0.56980 0.42796 -0.10131
 O154 O 0.46042 0.57944 -0.12330
 O155 O 0.42741 0.53967 -0.05747
 C156 C 0.43357 0.56841 -0.10513
 O157 O 0.54408 0.58251 -0.11845
 O158 O 0.57639 0.53887 -0.05629
 C159 C 0.57078 0.56981 -0.10126
 O160 O 0.45914 0.42192 -0.12356
 O161 O 0.42694 0.46345 -0.05809
 C162 C 0.43247 0.43453 -0.10580
 Zr163 Zr 0.50130 0.44135 -0.08430
 O164 O 0.50430 0.43819 -0.18946
 O165 O 0.49759 0.36844 -0.08007
 Zr166 Zr 0.50207 0.55859 -0.08411
 O167 O 0.50508 0.56192 -0.18925
 O168 O 0.49920 0.63158 -0.07920
 Zr169 Zr 0.45756 0.50053 -0.00008
 Zr170 Zr 0.54609 0.49931 -0.00042
 O171 O 0.52736 0.49957 -0.09664
 O172 O 0.47532 0.50041 -0.09738
 O173 O 0.52816 0.43195 -0.00051
 O174 O 0.47602 0.56731 -0.00006
 O175 O 0.47535 0.43326 -0.00022
 O176 O 0.52884 0.56715 -0.00017
 H177 H 0.54062 0.49943 0.13558
 H178 H 0.46234 0.59420 0.00021
 H179 H 0.54048 0.49942 -0.13637
 H180 H 0.46140 0.40673 -0.00038
 H181 H 0.51712 0.64310 0.05775
 H182 H 0.51783 0.64303 -0.05871
 H183 H 0.49092 0.53899 -0.20737
 H184 H 0.49013 0.46118 -0.20752
 H185 H 0.51586 0.35642 -0.05864
 H186 H 0.51642 0.35642 0.05790
 H187 H 0.49027 0.46090 0.20690
 H188 H 0.49075 0.53889 0.20710
 C189 C 0.36073 0.34283 0.30935
 C190 C 0.34198 0.35590 0.25849
 C191 C 0.31124 0.35039 0.26196
 C192 C 0.29935 0.33138 0.32065
 C193 C 0.31822 0.31864 0.37447
 C194 C 0.34942 0.32390 0.36798
 O195 O 0.38911 0.35235 0.29725
 C196 C 0.38827 0.37208 0.23762
 C197 C 0.35999 0.37527 0.21169
 C198 C 0.35402 0.39673 0.15107
 C199 C 0.37819 0.41563 0.11586
 C200 C 0.40762 0.41254 0.14154
 C201 C 0.41258 0.39015 0.20329
 H202 H 0.29687 0.36129 0.22159
 H203 H 0.27540 0.32826 0.32517
 H204 H 0.36443 0.31457 0.40803
 H205 H 0.33153 0.39933 0.13197
 H206 H 0.37394 0.43266 0.06874
 H207 H 0.43462 0.38775 0.22493
 C208 C -0.13882 0.84497 0.31292
 C209 C -0.15664 0.84934 0.25764
 C210 C -0.18655 0.83722 0.25798
 C211 C -0.19867 0.82054 0.31790
 C212 C -0.18102 0.81694 0.37697
 C213 C -0.15037 0.82905 0.37312
 O214 O -0.11102 0.85866 0.30260
 C215 C -0.11136 0.87238 0.23956
 C216 C -0.13876 0.86776 0.20970
 C217 C -0.14425 0.88225 0.14462
 C218 C -0.12053 0.90238 0.10916
 C219 C -0.09200 0.90690 0.13889
 C220 C -0.08745 0.89135 0.20496
 H221 H -0.20025 0.84121 0.21396
 H222 H -0.22229 0.81311 0.31855
 H223 H -0.13549 0.82563 0.41523
 H224 H -0.16609 0.87883 0.12234
 H225 H -0.12432 0.91428 0.05869
 H226 H -0.06612 0.89515 0.22954
 C227 C 0.64228 0.65917 0.30626
 C228 C 0.66122 0.64629 0.25559
 C229 C 0.69199 0.65083 0.26021
 C230 C 0.70367 0.66884 0.31973
 C231 C 0.68460 0.68152 0.37329
 C232 C 0.65340 0.67702 0.36581
 O233 O 0.61389 0.65055 0.29301
 C234 C 0.61491 0.63159 0.23286
 C235 C 0.64332 0.62800 0.20767
 C236 C 0.64946 0.60687 0.14683
 C237 C 0.62535 0.58847 0.11083
 C238 C 0.59583 0.59181 0.13592
 C239 C 0.59069 0.61418 0.19764
 H240 H 0.70651 0.64005 0.22002
 H241 H 0.72763 0.67136 0.32496
 H242 H 0.63823 0.68628 0.40563
 H243 H 0.67203 0.60387 0.12834
 H244 H 0.62972 0.57133 0.06386
 H245 H 0.56858 0.61659 0.21900
 C246 C 0.14189 1.15790 0.30856
 C247 C 0.16062 1.14437 0.25789
 C248 C 0.19140 1.14910 0.26161
 C249 C 0.20334 1.16780 0.32041
 C250 C 0.18449 1.18100 0.37406
 C251 C 0.15324 1.17658 0.36727
 O252 O 0.11346 1.14890 0.29633
 C253 C 0.11424 1.12902 0.23681
 C254 C 0.14254 1.12525 0.21106
 C255 C 0.14848 1.10342 0.15071
 C256 C 0.12425 1.08470 0.11559
 C257 C 0.09480 1.08833 0.14111
 C258 C 0.08988 1.11115 0.20256
 H259 H 0.20575 1.13779 0.22141
 H260 H 0.22732 1.17026 0.32517
 H261 H 0.13824 1.18622 0.40721
 H262 H 0.17098 1.10032 0.13179
 H263 H 0.12848 1.06730 0.06875
 H264 H 0.06783 1.11394 0.22411
 C265 C 0.64087 0.34256 -0.31153
 C266 C 0.65882 0.34699 -0.25648
 C267 C 0.68872 0.33468 -0.25711
 C268 C 0.70068 0.31778 -0.31710
 C269 C 0.68290 0.31419 -0.37597
 C270 C 0.65226 0.32641 -0.37178
 O271 O 0.61313 0.35651 -0.30101
 C272 C 0.61363 0.37046 -0.23809
 C273 C 0.64108 0.36575 -0.20848
 C274 C 0.64673 0.38049 -0.14359
 C275 C 0.62312 0.40098 -0.10806
 C276 C 0.59453 0.40559 -0.13754
 C277 C 0.58984 0.38979 -0.20342
 H278 H 0.70252 0.33870 -0.21328
 H279 H 0.72429 0.31026 -0.31797
 H280 H 0.63728 0.32299 -0.41369
 H281 H 0.66861 0.37701 -0.12150
 H282 H 0.62703 0.41307 -0.05775
 H283 H 0.56847 0.39364 -0.22785
 C284 C 0.14064 0.84430 -0.31292
 C285 C 0.15831 0.84896 -0.25748
 C286 C 0.18811 0.83607 -0.25692
 C287 C 0.20034 0.81855 -0.31627
 C288 C 0.18290 0.81496 -0.37561
 C289 C 0.15227 0.82741 -0.37244
 O290 O 0.11296 0.85892 -0.30360
 C291 C 0.11321 0.87357 -0.24102
 C292 C 0.14045 0.86858 -0.21051
 C293 C 0.14586 0.88372 -0.14578
 C294 C 0.12219 0.90475 -0.11123
 C295 C 0.09378 0.90963 -0.14156
 C296 C 0.08934 0.89360 -0.20738
 H297 H 0.20167 0.84023 -0.21274
 H298 H 0.22391 0.81070 -0.31637
 H299 H 0.13750 0.82384 -0.41470
 H300 H 0.16757 0.87994 -0.12298
 H301 H 0.12591 0.91684 -0.06083
 H302 H 0.06809 0.89746 -0.23231
 C303 C 0.36179 0.65557 -0.31257
 C304 C 0.34403 0.65057 -0.25728
 C305 C 0.31419 0.66330 -0.25683
 C306 C 0.30203 0.68101 -0.31612
 C307 C 0.31958 0.68494 -0.37530
 C308 C 0.35023 0.67264 -0.37201
 O309 O 0.38950 0.64112 -0.30319
 C310 C 0.38919 0.62622 -0.24074
 C311 C 0.36188 0.63089 -0.21034
 C312 C 0.35644 0.61548 -0.14572
 C313 C 0.38014 0.59456 -0.11119
 C314 C 0.40862 0.59005 -0.14142
 C315 C 0.41307 0.60631 -0.20714
 H316 H 0.30056 0.65888 -0.21277
 H317 H 0.27845 0.68876 -0.31633
 H318 H 0.36508 0.67649 -0.41413
 H319 H 0.33468 0.61900 -0.12298
 H320 H 0.37640 0.58227 -0.06089
 H321 H 0.43436 0.60274 -0.23202
 C322 C -0.13890 1.16172 -0.30570
 C323 C -0.15789 1.14864 -0.25525
 C324 C -0.18866 1.15284 -0.26021
 C325 C -0.20032 1.17067 -0.31985
 C326 C -0.18121 1.18358 -0.37324
 C327 C -0.14999 1.17947 -0.36538
 O328 O -0.11051 1.15319 -0.29221
 C329 C -0.11159 1.13408 -0.23214
 C330 C -0.14003 1.13034 -0.20726
 C331 C -0.14628 1.10889 -0.14673
 C332 C -0.12223 1.09029 -0.11071
 C333 C -0.09266 1.09375 -0.13543
 C334 C -0.08741 1.11649 -0.19685
 H335 H -0.20321 1.14184 -0.22021
 H336 H -0.22427 1.17279 -0.32535
 H337 H -0.13479 1.18885 -0.40507
 H338 H -0.16889 1.10573 -0.12856
 H339 H -0.12671 1.07278 -0.06410
 H340 H -0.06527 1.11896 -0.21799
 C341 C 0.64488 0.65234 -0.30918
 C342 C 0.66352 0.63494 -0.26096
 C343 C 0.69435 0.63411 -0.26819
 C344 C 0.70641 0.65196 -0.32753
 C345 C 0.68760 0.67004 -0.37817
 C346 C 0.65635 0.67027 -0.36830
 O347 O 0.61623 0.64857 -0.29376
 C348 C 0.61675 0.62822 -0.23453
 C349 C 0.64512 0.61915 -0.21211
 C350 C 0.65067 0.59634 -0.15238
 C351 C 0.62601 0.58162 -0.11488
 C352 C 0.59645 0.58992 -0.13747
 C353 C 0.59194 0.61429 -0.19784
 H354 H 0.70859 0.61974 -0.22991
 H355 H 0.73032 0.65082 -0.33452
 H356 H 0.64134 0.68399 -0.40563
 H357 H 0.67318 0.58924 -0.13593
 H358 H 0.63000 0.56293 -0.06898
 H359 H 0.56980 0.62059 -0.21726
 C360 C 0.14460 1.14450 -0.31631
 C361 C 0.16261 1.13432 -0.26306
 C362 C 0.19326 1.14099 -0.26455
 C363 C 0.20587 1.15877 -0.32339
 C364 C 0.18785 1.16910 -0.38015
 C365 C 0.15655 1.16177 -0.37524
 O366 O 0.11603 1.13567 -0.30518
 C367 C 0.11598 1.11921 -0.24352
 C368 C 0.14392 1.11749 -0.21546
 C369 C 0.14898 1.10013 -0.15183
 C370 C 0.12428 1.08357 -0.11604
 C371 C 0.09519 1.08502 -0.14399
 C372 C 0.09110 1.10353 -0.20860
 H373 H 0.20706 1.13239 -0.22210
 H374 H 0.22983 1.16223 -0.32496
 H375 H 0.14140 1.17059 -0.41520
 H376 H 0.17116 1.09882 -0.13082
 H377 H 0.12787 1.06954 -0.06665
 H378 H 0.06933 1.10459 -0.23181
 C379 C 0.35769 0.34975 -0.31073
 C380 C 0.33918 0.36803 -0.26290
 C381 C 0.30829 0.36814 -0.26921
 C382 C 0.29605 0.34885 -0.32740
 C383 C 0.31476 0.33015 -0.37776
 C384 C 0.34604 0.33036 -0.36859
 O385 O 0.38638 0.35422 -0.29636
 C386 C 0.38606 0.37596 -0.23819
 C387 C 0.35775 0.38522 -0.21544
 C388 C 0.35237 0.40912 -0.15655
 C389 C 0.37715 0.42440 -0.12002
 C390 C 0.40665 0.41562 -0.14275
 C391 C 0.41099 0.39057 -0.20256
 H392 H 0.29415 0.38313 -0.23120
 H393 H 0.27211 0.34958 -0.33392
 H394 H 0.36097 0.31614 -0.40574
 H395 H 0.32992 0.41632 -0.13980
 H396 H 0.37326 0.44353 -0.07444
 H397 H 0.43308 0.38371 -0.22193
 C398 C -0.14239 0.84608 -0.30673
 C399 C -0.16107 0.86457 -0.25938
 C400 C -0.19184 0.86627 -0.26745
 C401 C -0.20380 0.84826 -0.32675
 C402 C -0.18495 0.82913 -0.37657
 C403 C -0.15376 0.82791 -0.36577
 O404 O -0.11378 0.84931 -0.29079
 C405 C -0.11435 0.87044 -0.23212
 C406 C -0.14272 0.88050 -0.21055
 C407 C -0.14831 0.90434 -0.15167
 C408 C -0.12366 0.91901 -0.11413
 C409 C -0.09409 0.90969 -0.13583
 C410 C -0.08956 0.88432 -0.19536
 H411 H -0.20611 0.88152 -0.22988
 H412 H -0.22764 0.85021 -0.33446
 H413 H -0.13872 0.81343 -0.40246
 H414 H -0.17081 0.91226 -0.13594
 H415 H -0.12769 0.93851 -0.06895
 H416 H -0.06740 0.87724 -0.21416
 C417 C 0.35868 0.65285 0.31094
 C418 C 0.34016 0.63376 0.26389
 C419 C 0.30932 0.63276 0.27109
 C420 C 0.29712 0.65197 0.32939
 C421 C 0.31581 0.67162 0.37896
 C422 C 0.34706 0.67232 0.36886
 O423 O 0.38736 0.64888 0.29590
 C424 C 0.38699 0.62666 0.23809
 C425 C 0.35867 0.61665 0.21624
 C426 C 0.35322 0.59214 0.15799
 C427 C 0.37794 0.57694 0.12114
 C428 C 0.40749 0.58632 0.14298
 C429 C 0.41191 0.61208 0.20214
 H430 H 0.29520 0.61705 0.23373
 H431 H 0.27325 0.65041 0.33663
 H432 H 0.36198 0.68721 0.40538
 H433 H 0.33075 0.58437 0.14198
 H434 H 0.37396 0.55727 0.07611
 H435 H 0.43403 0.61942 0.22081
 C436 C -0.14153 1.14886 0.31418
 C437 C -0.15979 1.13863 0.26138
 C438 C -0.19052 1.14388 0.26436
 C439 C -0.20293 1.16053 0.32407
 C440 C -0.18465 1.17128 0.38025
 C441 C -0.15329 1.16499 0.37409
 O442 O -0.11292 1.14114 0.30160
 C443 C -0.11314 1.12540 0.23952
 C444 C -0.14126 1.12302 0.21258
 C445 C -0.14662 1.10587 0.14893
 C446 C -0.12204 1.08992 0.11207
 C447 C -0.09278 1.09183 0.13895
 C448 C -0.08838 1.11047 0.20343
 H449 H -0.20453 1.13508 0.22236
 H450 H -0.22694 1.16288 0.32663
 H451 H -0.13801 1.17390 0.41372
 H452 H -0.16896 1.10395 0.12889
 H453 H -0.12586 1.07557 0.06300
 H454 H -0.06649 1.11163 0.22601
 C455 C 0.64393 0.34412 0.30767
 C456 C 0.66262 0.36243 0.26025
 C457 C 0.69339 0.36412 0.26833
 C458 C 0.70534 0.34620 0.32769
 C459 C 0.68650 0.32711 0.37752
 C460 C 0.65531 0.32598 0.36676
 O461 O 0.61532 0.34745 0.29168
 C462 C 0.61592 0.36844 0.23290
 C463 C 0.64431 0.37830 0.21133
 C464 C 0.64997 0.40192 0.15234
 C465 C 0.62537 0.41668 0.11470
 C466 C 0.59576 0.40769 0.13644
 C467 C 0.59115 0.38246 0.19606
 H468 H 0.70764 0.37929 0.23072
 H469 H 0.72917 0.34816 0.33537
 H470 H 0.64027 0.31154 0.40347
 H471 H 0.67248 0.40966 0.13660
 H472 H 0.62946 0.43608 0.06947
 H473 H 0.56898 0.37562 0.21486
 C474 C 0.14453 0.84780 0.31040
 C475 C 0.16310 0.86726 0.26370
 C476 C 0.19392 0.86848 0.27126
 C477 C 0.20603 0.84909 0.32953
 C478 C 0.18727 0.82910 0.37874
 C479 C 0.15606 0.82819 0.36828
 O480 O 0.11588 0.85155 0.29509
 C481 C 0.11631 0.87400 0.23748
 C482 C 0.14463 0.88440 0.21599
 C483 C 0.15010 0.90921 0.15795
 C484 C 0.12538 0.92428 0.12098
 C485 C 0.09584 0.91446 0.14248
 C486 C 0.09142 0.88844 0.20142
 H487 H 0.20808 0.88445 0.23418
 H488 H 0.22988 0.85078 0.33703
 H489 H 0.14109 0.81303 0.40452
 H490 H 0.17257 0.91731 0.14222
 H491 H 0.12935 0.94419 0.07615
 H492 H 0.06930 0.88075 0.21986
   
