data_POSCAR
  _audit_creation_date              2014-09-24
  _audit_creation_method            'ToBaCCo'
  _symmetry_space_group_name_H-M    'P1'
  _symmetry_Int_Tables_number       1
  _symmetry_cell_setting            triclinic
  loop_
  _symmetry_equiv_pos_as_xyz
 x,y,z
_cell_length_a 45.2125
_cell_length_b 48.5624
_cell_length_c 28.1742
_cell_angle_alpha 90.018500
_cell_angle_beta 89.936800
_cell_angle_gamma 116.599100
loop_
  _atom_site_label
  _atom_site_type_symbol
  _atom_site_fract_x
  _atom_site_fract_y
  _atom_site_fract_z
C1 C 0.48762 0.93424 0.54382
 C2 C 0.48034 0.91925 0.49960
 C3 C 0.48769 0.93548 0.45698
 C4 C 0.50412 0.96795 0.45738
 C5 C 0.51329 0.98395 0.50119
 C6 C 0.50560 0.96709 0.54459
 C7 C 0.51923 0.98339 0.58666
 C8 C 0.53735 1.01522 0.58690
 C9 C 0.54279 1.03273 0.54514
 C10 C 0.53169 1.01678 0.50140
 C11 C 0.51357 0.98462 0.41488
 C12 C 0.53165 1.01641 0.41502
 C13 C 0.54035 1.03331 0.45771
 C14 C 0.56024 1.06582 0.45798
 C15 C 0.57207 1.08067 0.50157
 C16 C 0.56204 1.06534 0.54529
 H17 H 0.51817 0.97185 0.61977
 H18 H 0.54880 1.02549 0.62015
 H19 H 0.50826 0.97315 0.38079
 H20 H 0.54014 1.02704 0.38088
 H21 H 0.46700 0.89433 0.49784
 H22 H 0.58668 1.10549 0.50157
 C23 C -0.06805 0.46681 0.45873
 C24 C -0.08356 0.45422 0.50178
 C25 C -0.06923 0.46698 0.54571
 C26 C -0.03635 0.49147 0.54621
 C27 C -0.01967 0.50353 0.50254
 C28 C -0.03577 0.49145 0.45876
 C29 C -0.01873 0.50363 0.41611
 C30 C 0.01333 0.52729 0.41623
 C31 C 0.03016 0.53918 0.45899
 C32 C 0.01350 0.52737 0.50256
 C33 C -0.01869 0.50291 0.58876
 C34 C 0.01336 0.52658 0.58872
 C35 C 0.03019 0.53890 0.54611
 C36 C 0.06328 0.56240 0.54584
 C37 C 0.07884 0.57454 0.50255
 C38 C 0.06318 0.56268 0.45930
 H39 H -0.02972 0.49470 0.38197
 H40 H 0.02477 0.53609 0.38222
 H41 H -0.02866 0.49321 0.62293
 H42 H 0.02480 0.53491 0.62283
 H43 H -0.10858 0.43574 0.50062
 H44 H 0.10441 0.59199 0.50248
 C45 C 0.45879 0.53094 0.54313
 C46 C 0.45832 0.54425 0.49903
 C47 C 0.46347 0.53232 0.45643
 C48 C 0.47255 0.50801 0.45737
 C49 C 0.47525 0.49522 0.50151
 C50 C 0.46798 0.50635 0.54453
 C51 C 0.47210 0.49372 0.58752
 C52 C 0.48176 0.47032 0.58844
 C53 C 0.49048 0.45980 0.54672
 C54 C 0.48592 0.47163 0.50258
 C55 C 0.48031 0.49704 0.41535
 C56 C 0.48992 0.47361 0.41632
 C57 C 0.49268 0.46044 0.45942
 C58 C 0.50307 0.43703 0.46051
 C59 C 0.50703 0.42533 0.50395
 C60 C 0.50247 0.43709 0.54746
 H61 H 0.46894 0.50204 0.62164
 H62 H 0.48168 0.46051 0.62276
 H63 H 0.47977 0.50689 0.38115
 H64 H 0.49570 0.46629 0.38278
 H65 H 0.45098 0.56266 0.49719
 H66 H 0.51627 0.40820 0.50338
 O67 O 0.38468 0.66991 -0.04170
 O68 O 0.38536 0.72294 -0.05504
 C69 C 0.37052 0.73908 -0.06395
 O70 O 0.34613 0.73767 -0.03976
 O71 O 0.29020 0.68839 -0.05146
 C72 C 0.27448 0.65988 -0.06034
 O73 O 0.27838 0.63933 -0.03703
 O74 O 0.33258 0.63440 -0.05259
 C75 C 0.36290 0.64696 -0.06372
 O76 O 0.38562 0.67909 0.05326
 O77 O 0.38906 0.73337 0.03973
 C78 C 0.36956 0.74053 0.06339
 O79 O 0.33887 0.72952 0.05500
 O80 O 0.28164 0.68183 0.04383
 C81 C 0.27623 0.65751 0.06691
 O82 O 0.28981 0.64040 0.05701
 O83 O 0.34270 0.63311 0.04156
 C84 C 0.36889 0.65090 0.06350
 Cr85 Cr 0.38433 0.70063 -0.00083
 Cr86 Cr 0.31505 0.70829 0.00187
 Cr87 Cr 0.31187 0.63858 0.00222
 O88 O 0.33710 0.68250 0.00118
 O89 O 0.61047 0.31308 -0.05305
 O90 O 0.61727 0.26317 -0.03899
 C91 C 0.64029 0.26126 -0.06245
 O92 O 0.67062 0.27715 -0.05309
 O93 O 0.72129 0.32993 -0.03935
 C94 C 0.72214 0.35297 -0.06189
 O95 O 0.70405 0.36590 -0.05163
 O96 O 0.64523 0.36198 -0.03663
 C97 C 0.62219 0.34168 -0.06120
 O98 O 0.60664 0.32047 0.04171
 O99 O 0.61672 0.27204 0.05530
 C100 C 0.63638 0.26070 0.06491
 O101 O 0.66292 0.26717 0.04191
 O102 O 0.71227 0.32092 0.05566
 C103 C 0.72325 0.34923 0.06534
 O104 O 0.71501 0.36725 0.04247
 O105 O 0.65534 0.36035 0.05761
 C106 C 0.62493 0.34399 0.06620
 Cr107 Cr 0.61460 0.29320 0.00127
 Cr108 Cr 0.69065 0.29949 0.00131
 Cr109 Cr 0.67918 0.36215 0.00290
 O110 O 0.66152 0.31825 0.00185
 C111 C 0.45163 0.87826 -0.33813
 N112 N 0.45615 0.90782 -0.33689
 N113 N 0.46808 0.92607 -0.37464
 C114 C 0.47603 0.91558 -0.41512
 N115 N 0.47066 0.88569 -0.41630
 N116 N 0.45904 0.86753 -0.37855
 C117 C 0.43923 0.85804 -0.29659
 N118 N 0.44181 0.83128 -0.29490
 N119 N 0.43082 0.81276 -0.25741
 C120 C 0.41652 0.82013 -0.22038
 N121 N 0.41375 0.84683 -0.22208
 N122 N 0.42505 0.86554 -0.25946
 C123 C 0.40457 0.79945 -0.17929
 N124 N 0.38392 0.80238 -0.14683
 N125 N 0.37290 0.78313 -0.11003
 C126 C 0.38240 0.76047 -0.10422
 N127 N 0.40316 0.75769 -0.13657
 N128 N 0.41391 0.77672 -0.17351
 C129 C 0.12303 0.59249 -0.33294
 N130 N 0.12101 0.61315 -0.36360
 N131 N 0.10169 0.60361 -0.40184
 C132 C 0.08346 0.57307 -0.41054
 N133 N 0.08586 0.55246 -0.38018
 N134 N 0.10517 0.56198 -0.34201
 C135 C 0.14464 0.60281 -0.29112
 N136 N 0.14743 0.58193 -0.26177
 N137 N 0.16739 0.59114 -0.22423
 C138 C 0.18529 0.62158 -0.21460
 N139 N 0.18243 0.64248 -0.24385
 N140 N 0.16247 0.63326 -0.28145
 C141 C 0.20783 0.63161 -0.17376
 N142 N 0.22560 0.66200 -0.16357
 N143 N 0.24658 0.67102 -0.12712
 C144 C 0.25057 0.64998 -0.09955
 N145 N 0.23272 0.61961 -0.10968
 N146 N 0.21172 0.61059 -0.14607
 C147 C 0.42912 0.56452 -0.34072
 N148 N 0.44557 0.58332 -0.37728
 N149 N 0.45497 0.57237 -0.41466
 C150 C 0.44904 0.54233 -0.41661
 N151 N 0.43190 0.52350 -0.38028
 N152 N 0.42215 0.53433 -0.34311
 C153 C 0.41925 0.57669 -0.29917
 N154 N 0.39580 0.55742 -0.26878
 N155 N 0.38694 0.56851 -0.23099
 C156 C 0.40151 0.59921 -0.22191
 N157 N 0.42509 0.61846 -0.25216
 N158 N 0.43368 0.60741 -0.29024
 C159 C 0.39178 0.61143 -0.18029
 N160 N 0.41152 0.64019 -0.16395
 N161 N 0.40255 0.65136 -0.12637
 C162 C 0.37335 0.63429 -0.10408
 N163 N 0.35356 0.60557 -0.12052
 N164 N 0.36271 0.59427 -0.15777
 C165 C 0.58481 0.12080 -0.33536
 N166 N 0.60443 0.12980 -0.37439
 N167 N 0.59717 0.11174 -0.41249
 C168 C 0.57034 0.08363 -0.41303
 N169 N 0.55059 0.07491 -0.37389
 N170 N 0.55767 0.09307 -0.33584
 C171 C 0.59280 0.14103 -0.29371
 N172 N 0.57041 0.13543 -0.25829
 N173 N 0.57768 0.15423 -0.22099
 C174 C 0.60769 0.17917 -0.21763
 N175 N 0.63009 0.18464 -0.25291
 N176 N 0.62273 0.16600 -0.29034
 C177 C 0.61594 0.20009 -0.17679
 N178 N 0.64759 0.22163 -0.16977
 N179 N 0.65528 0.24091 -0.13312
 C180 C 0.63156 0.23954 -0.10231
 N181 N 0.59985 0.21804 -0.10934
 N182 N 0.59219 0.19858 -0.14585
 C183 C 0.87059 0.43366 -0.33632
 N184 N 0.86756 0.41502 -0.37375
 N185 N 0.88705 0.42584 -0.41161
 C186 C 0.91092 0.45553 -0.41324
 N187 N 0.91344 0.47418 -0.37588
 N188 N 0.89370 0.46351 -0.33821
 C189 C 0.84904 0.42177 -0.29468
 N190 N 0.84495 0.44132 -0.26391
 N191 N 0.82509 0.43047 -0.22640
 C192 C 0.80896 0.39972 -0.21797
 N193 N 0.81324 0.38019 -0.24854
 N194 N 0.83278 0.39101 -0.28637
 C195 C 0.78691 0.38776 -0.17684
 N196 N 0.77796 0.35876 -0.16069
 N197 N 0.75768 0.34781 -0.12363
 C198 C 0.74531 0.36535 -0.10174
 N199 N 0.75416 0.39430 -0.11801
 N200 N 0.77476 0.40538 -0.15470
 C201 C 0.53479 0.40863 -0.33339
 N202 N 0.52330 0.39001 -0.37179
 N203 N 0.51258 0.39914 -0.40980
 C204 C 0.51232 0.42706 -0.41086
 N205 N 0.52430 0.44574 -0.37243
 N206 N 0.53524 0.43673 -0.33445
 C207 C 0.54703 0.39866 -0.29180
 N208 N 0.56340 0.41881 -0.25655
 N209 N 0.57497 0.40980 -0.21925
 C210 C 0.57040 0.38027 -0.21573
 N211 N 0.55389 0.36010 -0.25086
 N212 N 0.54251 0.36916 -0.28828
 C213 C 0.58343 0.37030 -0.17499
 N214 N 0.57515 0.34003 -0.16851
 N215 N 0.58727 0.33093 -0.13199
 C216 C 0.60829 0.35178 -0.10074
 N217 N 0.61661 0.38208 -0.10723
 N218 N 0.60431 0.39117 -0.14362
 C219 C 0.87383 0.43203 0.33693
 N220 N 0.87798 0.41276 0.36817
 N221 N 0.89686 0.42384 0.40651
 C222 C 0.91257 0.45464 0.41477
 N223 N 0.90817 0.47388 0.38372
 N224 N 0.88924 0.46279 0.34545
 C225 C 0.85240 0.41981 0.29526
 N226 N 0.84640 0.43894 0.26597
 N227 N 0.82642 0.42781 0.22871
 C228 C 0.81175 0.39715 0.21930
 N229 N 0.81785 0.37803 0.24847
 N230 N 0.83778 0.38915 0.28580
 C231 C 0.78925 0.38481 0.17872
 N232 N 0.77556 0.35431 0.16827
 N233 N 0.75473 0.34303 0.13193
 C234 C 0.74676 0.36182 0.10477
 N235 N 0.76048 0.39233 0.11519
 N236 N 0.78137 0.40363 0.15147
 C237 C 0.58209 0.12202 0.33971
 N238 N 0.60379 0.12915 0.37622
 N239 N 0.59665 0.11097 0.41420
 C240 C 0.56787 0.08451 0.41686
 N241 N 0.54601 0.07779 0.38043
 N242 N 0.55294 0.09614 0.34265
 C243 C 0.59004 0.14207 0.29788
 N244 N 0.56580 0.14051 0.26799
 N245 N 0.57307 0.15900 0.23032
 C246 C 0.60486 0.17942 0.22087
 N247 N 0.62911 0.18081 0.25057
 N248 N 0.62181 0.16258 0.28854
 C249 C 0.61289 0.19998 0.17965
 N250 N 0.64431 0.21425 0.16272
 N251 N 0.65170 0.23325 0.12569
 C252 C 0.62801 0.23893 0.10461
 N253 N 0.59660 0.22473 0.12163
 N254 N 0.58913 0.20544 0.15830
 C255 C 0.53556 0.40776 0.34018
 N256 N 0.55688 0.42358 0.37537
 N257 N 0.54634 0.43279 0.41347
 C258 C 0.51414 0.42679 0.41765
 N259 N 0.49267 0.41087 0.38258
 N260 N 0.50321 0.40148 0.34448
 C261 C 0.54778 0.39790 0.29839
 N262 N 0.52670 0.37851 0.26559
 N263 N 0.53830 0.36959 0.22810
 C264 C 0.57139 0.37989 0.22203
 N265 N 0.59237 0.39931 0.25476
 N266 N 0.58079 0.40807 0.29227
 C267 C 0.58472 0.37043 0.18100
 N268 N 0.61780 0.38413 0.17285
 N269 N 0.63040 0.37571 0.13612
 C270 C 0.61044 0.35313 0.10624
 N271 N 0.57730 0.33932 0.11435
 N272 N 0.56464 0.34788 0.15105
 C273 C 0.12306 0.59245 0.33814
 N274 N 0.10676 0.56205 0.34903
 N275 N 0.08726 0.55263 0.38707
 C276 C 0.08329 0.57323 0.41564
 N277 N 0.09987 0.60369 0.40509
 N278 N 0.11926 0.61312 0.36683
 C279 C 0.14514 0.60260 0.29674
 N280 N 0.15867 0.63235 0.28184
 N281 N 0.17906 0.64137 0.24460
 C282 C 0.18679 0.62100 0.22117
 N283 N 0.17325 0.59130 0.23613
 N284 N 0.15274 0.58226 0.27310
 C285 C 0.20982 0.63075 0.18082
 N286 N 0.22134 0.61143 0.16299
 N287 N 0.24248 0.62007 0.12675
 C288 C 0.25275 0.64828 0.10672
 N289 N 0.24114 0.66762 0.12438
 N290 N 0.22012 0.65904 0.16091
 C291 C 0.45636 0.88202 0.33372
 N292 N 0.44385 0.90187 0.34536
 N293 N 0.45422 0.91931 0.38414
 C294 C 0.47739 0.91741 0.41273
 N295 N 0.48974 0.89743 0.40129
 N296 N 0.47955 0.88018 0.36233
 C297 C 0.44436 0.86223 0.29169
 N298 N 0.46025 0.84597 0.27592
 N299 N 0.44892 0.82742 0.23847
 C300 C 0.42114 0.82426 0.21567
 N301 N 0.40525 0.84052 0.23143
 N302 N 0.41673 0.85926 0.26866
 C303 C 0.40806 0.80307 0.17536
 N304 N 0.37716 0.79518 0.15866
 N305 N 0.36494 0.77532 0.12288
 C306 C 0.38327 0.76281 0.10227
 N307 N 0.41426 0.77085 0.11876
 N308 N 0.42639 0.79053 0.15478
 C309 C 0.44075 0.56739 0.33328
 N310 N 0.46215 0.58667 0.36582
 N311 N 0.46991 0.57552 0.40451
 C312 C 0.45683 0.54466 0.41182
 N313 N 0.43530 0.52540 0.37936
 N314 N 0.42747 0.53655 0.34076
 C315 C 0.43120 0.57968 0.29154
 N316 N 0.40721 0.56055 0.26174
 N317 N 0.39782 0.57176 0.22467
 C318 C 0.41215 0.60250 0.21596
 N319 N 0.43628 0.62162 0.24560
 N320 N 0.44559 0.61042 0.28276
 C321 C 0.40129 0.61494 0.17572
 N322 N 0.41693 0.64546 0.16539
 N323 N 0.40674 0.65685 0.12942
 C324 C 0.38046 0.63816 0.10256
 N325 N 0.36483 0.60763 0.11287
 N326 N 0.37509 0.59622 0.14876
   
