data_POSCAR
  _audit_creation_date              2014-09-24
  _audit_creation_method            'ToBaCCo'
  _symmetry_space_group_name_H-M    'P1'
  _symmetry_Int_Tables_number       1
  _symmetry_cell_setting            triclinic
  loop_
  _symmetry_equiv_pos_as_xyz
 x,y,z
_cell_length_a 60.9438
_cell_length_b 61.6726
_cell_length_c 27.7714
_cell_angle_alpha 89.709900
_cell_angle_beta 89.657200
_cell_angle_gamma 120.140100
loop_
  _atom_site_label
  _atom_site_type_symbol
  _atom_site_fract_x
  _atom_site_fract_y
  _atom_site_fract_z
C1 C 0.14893 0.41703 0.49600
 C2 C 0.16195 0.42002 0.45225
 C3 C 0.18454 0.41909 0.45345
 C4 C 0.19351 0.41423 0.49654
 C5 C 0.17977 0.41122 0.53960
 C6 C 0.15819 0.41406 0.54044
 C7 C 0.21805 0.41394 0.49669
 C8 C 0.23311 0.42032 0.53838
 C9 C 0.25642 0.42088 0.53824
 C10 C 0.26543 0.41618 0.49528
 C11 C 0.25126 0.41046 0.45292
 C12 C 0.22726 0.40844 0.45440
 H13 H 0.13051 0.41556 0.49526
 H14 H 0.19601 0.42370 0.42115
 H15 H 0.18667 0.40787 0.57279
 H16 H 0.22747 0.42585 0.57089
 H17 H 0.28384 0.41751 0.49462
 H18 H 0.21599 0.40271 0.42207
 C19 C 0.57594 -0.27114 0.50017
 C20 C 0.57100 -0.26173 0.45786
 C21 C 0.57095 -0.23897 0.46060
 C22 C 0.57671 -0.22524 0.50371
 C23 C 0.58190 -0.23524 0.54515
 C24 C 0.57998 -0.25901 0.54478
 C25 C 0.57555 -0.20145 0.50614
 C26 C 0.57024 -0.19351 0.55014
 C27 C 0.56837 -0.17179 0.55257
 C28 C 0.57060 -0.15842 0.51023
 C29 C 0.57482 -0.16631 0.46569
 C30 C 0.57838 -0.18711 0.46416
 H31 H 0.57811 -0.28744 0.49794
 H32 H 0.56481 -0.23279 0.42973
 H33 H 0.58616 -0.22502 0.57832
 H34 H 0.56653 -0.20449 0.58272
 H35 H 0.56901 -0.14171 0.51190
 H36 H 0.58261 -0.19236 0.42977
 C37 C 1.26511 0.85080 0.50273
 C38 C 1.25314 0.84269 0.45786
 C39 C 1.22964 0.81999 0.45700
 C40 C 1.21984 0.80435 0.49822
 C41 C 1.23345 0.81253 0.54158
 C42 C 1.25573 0.83585 0.54423
 C43 C 1.19636 0.77896 0.49526
 C44 C 1.18120 0.76729 0.53657
 C45 C 1.16050 0.74244 0.53537
 C46 C 1.15373 0.73050 0.49034
 C47 C 1.16811 0.74180 0.44869
 C48 C 1.18963 0.76566 0.45159
 H49 H 1.28176 0.86917 0.50619
 H50 H 1.21948 0.81369 0.42369
 H51 H 1.22746 0.80056 0.57320
 H52 H 1.18640 0.77723 0.57014
 H53 H 1.13664 0.71247 0.48681
 H54 H 1.20141 0.77329 0.41973
 C55 C 0.85211 0.58541 0.49964
 C56 C 0.83876 0.58181 0.45676
 C57 C 0.81660 0.58342 0.45705
 C58 C 0.80819 0.58995 0.49914
 C59 C 0.82288 0.59467 0.54127
 C60 C 0.84402 0.59131 0.54236
 C61 C 0.78367 0.59048 0.49974
 C62 C 0.77087 0.58831 0.54369
 C63 C 0.74789 0.58858 0.54562
 C64 C 0.73684 0.58942 0.50183
 C65 C 0.74823 0.59010 0.45746
 C66 C 0.77211 0.59188 0.45667
 H67 H 0.86861 0.58314 0.49989
 H68 H 0.80572 0.57863 0.42437
 H69 H 0.81821 0.60092 0.57395
 H70 H 0.77901 0.58690 0.57693
 H71 H 0.71842 0.58802 0.50163
 H72 H 0.78097 0.59354 0.42206
 C73 C 0.43174 0.27200 0.49956
 C74 C 0.43327 0.26040 0.45761
 C75 C 0.42917 0.23603 0.46021
 C76 C 0.42183 0.22223 0.50373
 C77 C 0.41976 0.23422 0.54558
 C78 C 0.42606 0.25968 0.54465
 C79 C 0.41773 0.19600 0.50524
 C80 C 0.42057 0.18549 0.54838
 C81 C 0.41765 0.16127 0.54990
 C82 C 0.41345 0.14828 0.50617
 C83 C 0.41132 0.15854 0.46254
 C84 C 0.41219 0.18169 0.46285
 H85 H 0.43408 0.29054 0.49623
 H86 H 0.43246 0.22835 0.42790
 H87 H 0.41432 0.22410 0.57926
 H88 H 0.42463 0.19599 0.58114
 H89 H 0.41379 0.13092 0.50517
 H90 H 0.40880 0.18843 0.42934
 C91 C 0.73249 0.15404 0.50377
 C92 C 0.74211 0.16681 0.45999
 C93 C 0.76593 0.18872 0.45887
 C94 C 0.78103 0.19746 0.50043
 C95 C 0.77109 0.18377 0.54392
 C96 C 0.74659 0.16261 0.54614
 C97 C 0.80645 0.22123 0.49842
 C98 C 0.81715 0.23555 0.54018
 C99 C 0.84080 0.25806 0.53895
 C100 C 0.85295 0.26685 0.49389
 C101 C 0.84243 0.25346 0.45154
 C102 C 0.81982 0.23030 0.45440
 H103 H 0.71374 0.13756 0.50498
 H104 H 0.77206 0.19921 0.42544
 H105 H 0.78214 0.18921 0.57646
 H106 H 0.80726 0.22887 0.57404
 H107 H 0.86979 0.28517 0.49084
 H108 H 0.81284 0.21960 0.42176
 O109 O 0.97022 0.49707 -0.09859
 O110 O 1.03096 0.52874 0.08595
 O111 O 0.95314 0.49329 0.04746
 O112 O 1.04777 0.54140 -0.06069
 O113 O 0.98846 0.52161 0.07623
 O114 O 1.01200 0.53325 -0.08927
 O115 O 1.04352 0.54876 0.02061
 O116 O 0.95690 0.50444 -0.03452
 C117 C 0.95971 0.50739 -0.07846
 C118 C 1.04160 0.54929 0.06465
 C119 C 0.96553 0.51342 0.07000
 C120 C 1.03466 0.54863 -0.08277
 O121 O 1.03160 0.50313 -0.09890
 O122 O 0.97070 0.47250 0.08753
 O123 O 0.95385 0.45904 -0.05808
 O124 O 1.04848 0.50780 0.04658
 O125 O 1.01323 0.47947 0.07679
 O126 O 0.98967 0.46704 -0.08774
 O127 O 1.04446 0.49604 -0.03421
 O128 O 0.95780 0.45197 0.02369
 Co129 Co 1.00090 0.50017 -0.08499
 Co130 Co 1.00086 0.50056 0.07281
 Co131 Co 0.95962 0.47934 -0.00546
 Co132 Co 1.04187 0.52136 -0.00692
 O133 O 1.00081 0.50036 -0.00613
 C134 C 1.04196 0.49289 -0.07791
 C135 C 0.96048 0.45179 0.06757
 C136 C 0.96688 0.45186 -0.08083
 C137 C 1.03611 0.48757 0.06952
 O138 O 0.48067 0.46794 -0.08345
 O139 O 0.46691 0.47694 0.08179
 O140 O 0.49749 0.45338 0.02804
 O141 O 0.45248 0.49395 -0.03061
 O142 O 0.50416 0.47296 0.09278
 O143 O 0.47414 0.50342 -0.09416
 O144 O 0.45801 0.50362 0.05145
 O145 O 0.50888 0.46107 -0.05308
 C146 C 0.48874 0.45333 -0.07653
 C147 C 0.45111 0.48362 0.07470
 C148 C 0.49490 0.45254 0.07199
 C149 C 0.45290 0.49252 -0.07469
 O150 O 0.52353 0.53464 -0.08199
 O151 O 0.53362 0.52254 0.08331
 O152 O 0.55040 0.50772 -0.02805
 O153 O 0.50393 0.54706 0.02914
 O154 O 0.49595 0.52624 0.09321
 O155 O 0.53041 0.49947 -0.09263
 O156 O 0.49465 0.54097 -0.05261
 O157 O 0.54294 0.49624 0.05308
 Co158 Co 0.50207 0.50127 -0.07922
 Co159 Co 0.50027 0.49976 0.07883
 Co160 Co 0.52275 0.48152 -0.00007
 Co161 Co 0.47943 0.51946 -0.00064
 O162 O 0.50111 0.50049 -0.00025
 C163 C 0.51544 0.54919 -0.07470
 C164 C 0.54950 0.51589 0.07665
 C165 C 0.55107 0.51048 -0.07193
 C166 C 0.50558 0.54707 0.07317
 O167 O 0.53212 0.01101 -0.07584
 O168 O 0.51893 -0.01286 0.08953
 O169 O 0.54579 0.04207 0.03342
 O170 O 0.50397 -0.04387 -0.01897
 O171 O 0.52505 0.02863 0.09818
 O172 O 0.49747 -0.03113 -0.08493
 O173 O 0.49086 -0.04817 0.06201
 O174 O 0.53835 0.04594 -0.04848
 C175 C 0.54657 0.03380 -0.07086
 C176 C 0.51126 -0.03542 0.08407
 C177 C 0.54599 0.03955 0.07735
 C178 C 0.50730 -0.04163 -0.06288
 O179 O 0.46441 -0.01443 -0.07672
 O180 O 0.47506 0.01016 0.08749
 O181 O 0.49186 0.04091 -0.02302
 O182 O 0.44904 -0.04465 0.03345
 O183 O 0.46857 -0.03140 0.09843
 O184 O 0.49941 0.02773 -0.08715
 O185 O 0.45806 -0.04909 -0.04708
 O186 O 0.50342 0.04546 0.05864
 Co187 Co 0.49826 -0.00170 -0.07248
 Co188 Co 0.49698 -0.00140 0.08487
 Co189 Co 0.51775 0.03931 0.00525
 Co190 Co 0.47757 -0.04220 0.00732
 O191 O 0.49766 -0.00149 0.00623
 C192 C 0.44994 -0.03715 -0.07033
 C193 C 0.48299 0.03279 0.08159
 C194 C 0.48888 0.03799 -0.06676
 C195 C 0.44803 -0.04151 0.07693
 C196 C 1.14801 0.42085 0.32078
 C197 C 1.13268 0.43173 0.32222
 C198 C 1.12763 0.43928 0.36615
 C199 C 1.13746 0.43570 0.40868
 C200 C 1.15265 0.42432 0.40846
 C201 C 1.15801 0.41726 0.36340
 C202 C 1.12175 0.43522 0.27921
 C203 C 1.11178 0.43883 0.24521
 C204 C 1.09937 0.44393 0.20794
 C205 C 1.08832 0.44910 0.17832
 C206 C 1.07483 0.45635 0.14574
 C207 C 1.04845 0.44522 0.14997
 C208 C 1.03562 0.45470 0.12356
 C209 C 1.04910 0.47555 0.09279
 C210 C 1.07546 0.48589 0.08711
 C211 C 1.08825 0.47637 0.11358
 H212 H 1.15198 0.41486 0.28685
 H213 H 1.11606 0.44805 0.36758
 H214 H 1.13371 0.44278 0.44140
 H215 H 1.16895 0.40788 0.36083
 H216 H 1.03791 0.42982 0.17503
 H217 H 1.01530 0.44629 0.12857
 H218 H 1.08632 0.50187 0.06350
 H219 H 1.10869 0.48523 0.11028
 C220 C 0.55084 0.68509 0.37205
 C221 C 0.55699 0.69756 0.32769
 C222 C 0.56697 0.72351 0.32592
 C223 C 0.57119 0.73700 0.36865
 C224 C 0.56573 0.72473 0.41407
 C225 C 0.55507 0.69839 0.41464
 C226 C 0.55323 0.68324 0.28471
 C227 C 0.54955 0.66955 0.25117
 C228 C 0.54454 0.65170 0.21506
 C229 C 0.53959 0.63505 0.18703
 C230 C 0.53278 0.61366 0.15711
 C231 C 0.53055 0.61494 0.10714
 C232 C 0.52229 0.59337 0.07930
 C233 C 0.51601 0.57034 0.10136
 C234 C 0.51889 0.56945 0.15136
 C235 C 0.52721 0.59096 0.17896
 H236 H 0.54275 0.66492 0.37379
 H237 H 0.57187 0.73337 0.29165
 H238 H 0.57990 0.75716 0.36575
 H239 H 0.54912 0.68763 0.44784
 H240 H 0.53478 0.63243 0.08989
 H241 H 0.52026 0.59457 0.04081
 H242 H 0.51437 0.55204 0.16927
 H243 H 0.52887 0.58977 0.21760
 C244 C 0.30472 -0.11723 0.36982
 C245 C 0.29112 -0.12042 0.32773
 C246 C 0.26464 -0.13468 0.32883
 C247 C 0.25185 -0.14623 0.37189
 C248 C 0.26539 -0.14386 0.41475
 C249 C 0.29217 -0.12873 0.41261
 C250 C 0.30512 -0.11006 0.28363
 C251 C 0.31908 -0.10113 0.24928
 C252 C 0.33772 -0.09044 0.21264
 C253 C 0.35534 -0.08113 0.18468
 C254 C 0.37807 -0.06985 0.15562
 C255 C 0.37760 -0.07562 0.10677
 C256 C 0.40036 -0.06606 0.08054
 C257 C 0.42375 -0.05089 0.10320
 C258 C 0.42392 -0.04485 0.15196
 C259 C 0.40125 -0.05424 0.17788
 H260 H 0.32529 -0.10646 0.36925
 H261 H 0.25389 -0.13715 0.29637
 H262 H 0.23136 -0.15661 0.37115
 H263 H 0.30401 -0.12687 0.44294
 H264 H 0.35975 -0.08782 0.08927
 H265 H 0.39971 -0.07092 0.04294
 H266 H 0.44161 -0.03304 0.17026
 H267 H 0.40186 -0.04975 0.21570
 C268 C 0.86656 0.55434 0.37054
 C269 C 0.86775 0.56690 0.32765
 C270 C 0.85853 0.58359 0.32639
 C271 C 0.84854 0.58804 0.36821
 C272 C 0.84781 0.57591 0.41174
 C273 C 0.85665 0.55878 0.41232
 C274 C 0.87932 0.56314 0.28570
 C275 C 0.88960 0.55959 0.25198
 C276 C 0.90217 0.55480 0.21438
 C277 C 0.91324 0.55000 0.18404
 C278 C 0.92671 0.54328 0.15021
 C279 C 0.95314 0.55467 0.15273
 C280 C 0.96601 0.54572 0.12485
 C281 C 0.95251 0.52511 0.09434
 C282 C 0.92609 0.51455 0.09034
 C283 C 0.91327 0.52355 0.11827
 H284 H 0.87360 0.54133 0.37184
 H285 H 0.85944 0.59345 0.29337
 H286 H 0.84204 0.60146 0.36687
 H287 H 0.85596 0.54889 0.44514
 H288 H 0.96370 0.56987 0.17757
 H289 H 0.98637 0.55428 0.12861
 H290 H 0.91521 0.49874 0.06700
 H291 H 0.89279 0.51451 0.11626
 C292 C 0.46213 0.31260 0.36460
 C293 C 0.44733 0.30078 0.32431
 C294 C 0.42885 0.27534 0.32669
 C295 C 0.42478 0.26191 0.36974
 C296 C 0.43905 0.27390 0.41084
 C297 C 0.45804 0.29927 0.40760
 C298 C 0.45015 0.31550 0.28204
 C299 C 0.45295 0.32924 0.24873
 C300 C 0.45694 0.34698 0.21261
 C301 C 0.46113 0.36355 0.18449
 C302 C 0.46719 0.38491 0.15452
 C303 C 0.47116 0.38459 0.10488
 C304 C 0.47940 0.40644 0.07730
 C305 C 0.48395 0.42879 0.09940
 C306 C 0.47913 0.42865 0.14895
 C307 C 0.47080 0.40685 0.17627
 H308 H 0.47645 0.33231 0.36310
 H309 H 0.41720 0.26608 0.29575
 H310 H 0.40990 0.24243 0.37143
 H311 H 0.46950 0.30886 0.43853
 H312 H 0.46849 0.36769 0.08777
 H313 H 0.48297 0.40608 0.03913
 H314 H 0.48228 0.44553 0.16681
 H315 H 0.46780 0.40728 0.21467
 C316 C 0.72444 0.14654 0.33055
 C317 C 0.69827 0.13730 0.33184
 C318 C 0.68657 0.13845 0.37450
 C319 C 0.70088 0.14842 0.41600
 C320 C 0.72711 0.15736 0.41536
 C321 C 0.73882 0.15658 0.37207
 C322 C 0.68298 0.12570 0.29028
 C323 C 0.66902 0.11530 0.25716
 C324 C 0.65123 0.10239 0.22080
 C325 C 0.63471 0.09082 0.19218
 C326 C 0.61342 0.07651 0.16143
 C327 C 0.59066 0.05795 0.18214
 C328 C 0.56895 0.04545 0.15423
 C329 C 0.56969 0.05133 0.10508
 C330 C 0.59284 0.06934 0.08394
 C331 C 0.61462 0.08199 0.11214
 H332 H 0.73365 0.14564 0.29774
 H333 H 0.66631 0.13136 0.37582
 H334 H 0.69142 0.14912 0.44860
 H335 H 0.75897 0.16315 0.37071
 H336 H 0.58953 0.05359 0.22024
 H337 H 0.55143 0.03152 0.17136
 H338 H 0.59390 0.07419 0.04612
 H339 H 0.63216 0.09640 0.09583
 C340 C 0.43716 0.15444 -0.32548
 C341 C 0.42490 0.12838 -0.32071
 C342 C 0.40966 0.11325 -0.35783
 C343 C 0.40703 0.12406 -0.40005
 C344 C 0.41968 0.15042 -0.40623
 C345 C 0.43454 0.16540 -0.36761
 C346 C 0.42948 0.11704 -0.27956
 C347 C 0.43398 0.10707 -0.24678
 C348 C 0.44015 0.09493 -0.21074
 C349 C 0.44631 0.08422 -0.18228
 C350 C 0.45478 0.07116 -0.15148
 C351 C 0.46050 0.05389 -0.17191
 C352 C 0.47100 0.04265 -0.14385
 C353 C 0.47592 0.04855 -0.09485
 C354 C 0.46934 0.06528 -0.07403
 C355 C 0.45891 0.07664 -0.10236
 H356 H 0.44935 0.16634 -0.29715
 H357 H 0.40003 0.09301 -0.35443
 H358 H 0.39448 0.11154 -0.42723
 H359 H 0.44548 0.18561 -0.37043
 H360 H 0.45740 0.04954 -0.20989
 H361 H 0.47567 0.02968 -0.16075
 H362 H 0.47291 0.07009 -0.03632
 H363 H 0.45462 0.09006 -0.08627
 C364 C 0.70676 0.59538 -0.36203
 C365 C 0.70920 0.58252 -0.32284
 C366 C 0.72523 0.57252 -0.32622
 C367 C 0.73843 0.57490 -0.36907
 C368 C 0.73565 0.58721 -0.40978
 C369 C 0.71982 0.59775 -0.40498
 C370 C 0.69332 0.57757 -0.28107
 C371 C 0.67865 0.57244 -0.24797
 C372 C 0.65987 0.56523 -0.21193
 C373 C 0.64244 0.55799 -0.18383
 C374 C 0.62009 0.54806 -0.15399
 C375 C 0.62105 0.54408 -0.10453
 C376 C 0.59860 0.53235 -0.07715
 C377 C 0.57507 0.52431 -0.09928
 C378 C 0.57445 0.52898 -0.14866
 C379 C 0.59681 0.54078 -0.17576
 H380 H 0.69437 0.60322 -0.35973
 H381 H 0.72689 0.56213 -0.29625
 H382 H 0.74945 0.56560 -0.37064
 H383 H 0.71777 0.60838 -0.43394
 H384 H 0.63900 0.54957 -0.08742
 H385 H 0.59956 0.52901 -0.03910
 H386 H 0.55663 0.52320 -0.16655
 H387 H 0.59588 0.54373 -0.21403
 C388 C 0.88960 0.30135 -0.37365
 C389 C 0.87442 0.30019 -0.33478
 C390 C 0.84811 0.28478 -0.33706
 C391 C 0.83694 0.27070 -0.37828
 C392 C 0.85193 0.27186 -0.41845
 C393 C 0.87857 0.28739 -0.41497
 C394 C 0.88585 0.31592 -0.29378
 C395 C 0.89576 0.32994 -0.26064
 C396 C 0.90768 0.34740 -0.22353
 C397 C 0.91809 0.36329 -0.19349
 C398 C 0.93068 0.38344 -0.15994
 C399 C 0.91641 0.38925 -0.12841
 C400 C 0.92837 0.41099 -0.10079
 C401 C 0.95474 0.42724 -0.10470
 C402 C 0.96907 0.42062 -0.13476
 C403 C 0.95707 0.39887 -0.16232
 H404 H 0.91005 0.31320 -0.37216
 H405 H 0.83615 0.28404 -0.30733
 H406 H 0.81645 0.26003 -0.37905
 H407 H 0.89122 0.28833 -0.44344
 H408 H 0.89595 0.37749 -0.12651
 H409 H 0.91686 0.41555 -0.07781
 H410 H 0.98942 0.43272 -0.13841
 H411 H 0.96827 0.39461 -0.18681
 C412 C 0.57391 -0.15238 -0.31655
 C413 C 0.55685 -0.14347 -0.31459
 C414 C 0.54270 -0.14499 -0.35523
 C415 C 0.54600 -0.15479 -0.39804
 C416 C 0.56355 -0.16320 -0.40085
 C417 C 0.57719 -0.16230 -0.35946
 C418 C 0.55452 -0.13147 -0.27215
 C419 C 0.55194 -0.12056 -0.23870
 C420 C 0.54803 -0.10695 -0.20234
 C421 C 0.54379 -0.09474 -0.17402
 C422 C 0.53753 -0.07969 -0.14388
 C423 C 0.53462 -0.06073 -0.16532
 C424 C 0.52565 -0.04776 -0.13831
 C425 C 0.51947 -0.05355 -0.08932
 C426 C 0.52348 -0.07186 -0.06733
 C427 C 0.53234 -0.08500 -0.09464
 H428 H 0.58503 -0.15119 -0.28534
 H429 H 0.52943 -0.13817 -0.35408
 H430 H 0.53497 -0.15561 -0.42913
 H431 H 0.59094 -0.16851 -0.36077
 H432 H 0.53854 -0.05650 -0.20339
 H433 H 0.52295 -0.03361 -0.15607
 H434 H 0.51885 -0.07667 -0.02962
 H435 H 0.53444 -0.09972 -0.07775
 C436 C 0.27481 0.42079 -0.33139
 C437 C 0.30116 0.43659 -0.33399
 C438 C 0.31273 0.44790 -0.37789
 C439 C 0.29815 0.44315 -0.41925
 C440 C 0.27172 0.42696 -0.41728
 C441 C 0.26015 0.41604 -0.37279
 C442 C 0.31670 0.44076 -0.29236
 C443 C 0.33083 0.44471 -0.25916
 C444 C 0.34874 0.45001 -0.22256
 C445 C 0.36526 0.45526 -0.19357
 C446 C 0.38648 0.46254 -0.16214
 C447 C 0.40995 0.46855 -0.18232
 C448 C 0.43136 0.47766 -0.15343
 C449 C 0.42961 0.48089 -0.10377
 C450 C 0.40580 0.47404 -0.08328
 C451 C 0.38432 0.46500 -0.11245
 H452 H 0.26567 0.41189 -0.29760
 H453 H 0.33311 0.46020 -0.38028
 H454 H 0.30755 0.45214 -0.45279
 H455 H 0.23986 0.40335 -0.37033
 H456 H 0.41184 0.46671 -0.22070
 H457 H 0.44939 0.48259 -0.17015
 H458 H 0.40395 0.47635 -0.04510
 H459 H 0.36623 0.46044 -0.09649
 C460 C 1.12390 0.68957 -0.37740
 C461 C 1.12384 0.70228 -0.33607
 C462 C 1.13528 0.72840 -0.33721
 C463 C 1.14702 0.74180 -0.37959
 C464 C 1.14754 0.72924 -0.42183
 C465 C 1.13555 0.70275 -0.41960
 C466 C 1.11252 0.68800 -0.29272
 C467 C 1.10286 0.67434 -0.25839
 C468 C 1.09137 0.65659 -0.22076
 C469 C 1.08143 0.64012 -0.19095
 C470 C 1.06938 0.61906 -0.15829
 C471 C 1.08413 0.61281 -0.12923
 C472 C 1.07271 0.59029 -0.10300
 C473 C 1.04641 0.57369 -0.10587
 C474 C 1.03162 0.58064 -0.13353
 C475 C 1.04306 0.60315 -0.15966
 H476 H 1.11534 0.66934 -0.37677
 H477 H 1.13520 0.73843 -0.30536
 H478 H 1.15499 0.76189 -0.37907
 H479 H 1.13619 0.69190 -0.44946
 H480 H 1.10455 0.62490 -0.12821
 H481 H 1.08456 0.58549 -0.08183
 H482 H 1.01130 0.56831 -0.13628
 H483 H 1.03149 0.60770 -0.18232
 C484 C 0.85246 0.57622 -0.32889
 C485 C 0.87863 0.58543 -0.32759
 C486 C 0.89383 0.59873 -0.36728
 C487 C 0.88280 0.60189 -0.40881
 C488 C 0.85635 0.59168 -0.41129
 C489 C 0.84139 0.57937 -0.37037
 C490 C 0.88949 0.57900 -0.28784
 C491 C 0.89851 0.57254 -0.25617
 C492 C 0.90912 0.56385 -0.22116
 C493 C 0.91830 0.55557 -0.19336
 C494 C 0.92951 0.54473 -0.16310
 C495 C 0.94502 0.53665 -0.18427
 C496 C 0.95497 0.52478 -0.15644
 C497 C 0.94959 0.52077 -0.10681
 C498 C 0.93440 0.52936 -0.08540
 C499 C 0.92433 0.54121 -0.11351
 H500 H 0.84046 0.56572 -0.29859
 H501 H 0.91410 0.60589 -0.36679
 H502 H 0.89486 0.61169 -0.43949
 H503 H 0.82096 0.57100 -0.37130
 H504 H 0.94917 0.53924 -0.22255
 H505 H 0.96675 0.51857 -0.17394
 H506 H 0.93001 0.52658 -0.04724
 H507 H 0.91229 0.54733 -0.09672
 C508 C 0.41582 0.27456 -0.32838
 C509 C 0.43188 0.30060 -0.32805
 C510 C 0.44580 0.31286 -0.36936
 C511 C 0.44377 0.29940 -0.41086
 C512 C 0.42755 0.27305 -0.41253
 C513 C 0.41371 0.26087 -0.37008
 C514 C 0.43461 0.31530 -0.28590
 C515 C 0.43821 0.32924 -0.25271
 C516 C 0.44376 0.34716 -0.21626
 C517 C 0.44945 0.36357 -0.18715
 C518 C 0.45726 0.38435 -0.15478
 C519 C 0.47754 0.39096 -0.12344
 C520 C 0.48720 0.41294 -0.09646
 C521 C 0.47678 0.42869 -0.10072
 C522 C 0.45578 0.42140 -0.13092
 C523 C 0.44616 0.39942 -0.15782
 H524 H 0.40483 0.26484 -0.29656
 H525 H 0.45856 0.33297 -0.36940
 H526 H 0.45600 0.30987 -0.44083
 H527 H 0.40045 0.24092 -0.36904
 H528 H 0.48640 0.37955 -0.12098
 H529 H 0.50331 0.41800 -0.07342
 H530 H 0.44728 0.43308 -0.13493
 H531 H 0.43056 0.39460 -0.18215
 C532 C 0.70533 0.11271 -0.36182
 C533 C 0.70609 0.12741 -0.32292
 C534 C 0.72203 0.15348 -0.32522
 C535 C 0.73634 0.16486 -0.36695
 C536 C 0.73475 0.15030 -0.40707
 C537 C 0.71958 0.12404 -0.40355
 C538 C 0.68882 0.11591 -0.28276
 C539 C 0.67341 0.10606 -0.25064
 C540 C 0.65436 0.09425 -0.21474
 C541 C 0.63733 0.08395 -0.18560
 C542 C 0.61608 0.07132 -0.15272
 C543 C 0.60888 0.08517 -0.12343
 C544 C 0.58673 0.07292 -0.09528
 C545 C 0.57141 0.04664 -0.09630
 C546 C 0.57928 0.03285 -0.12457
 C547 C 0.60142 0.04512 -0.15261
 H548 H 0.69307 0.09253 -0.36053
 H549 H 0.72267 0.16509 -0.29549
 H550 H 0.74762 0.18512 -0.36875
 H551 H 0.71818 0.11232 -0.43363
 H552 H 0.62001 0.10546 -0.12333
 H553 H 0.58121 0.08406 -0.07385
 H554 H 0.56794 0.01259 -0.12610
 H555 H 0.60672 0.03419 -0.17524
 C556 C 1.13821 0.40696 -0.32888
 C557 C 1.12543 0.42049 -0.32829
 C558 C 1.12299 0.43115 -0.37082
 C559 C 1.13341 0.42867 -0.41371
 C560 C 1.14662 0.41524 -0.41557
 C561 C 1.14875 0.40435 -0.37203
 C562 C 1.11516 0.42449 -0.28461
 C563 C 1.10606 0.42950 -0.25081
 C564 C 1.09494 0.43706 -0.21476
 C565 C 1.08514 0.44475 -0.18713
 C566 C 1.07317 0.45524 -0.15806
 C567 C 1.05756 0.46277 -0.18048
 C568 C 1.04722 0.47474 -0.15413
 C569 C 1.05232 0.47936 -0.10481
 C570 C 1.06755 0.47123 -0.08210
 C571 C 1.07803 0.45931 -0.10871
 H572 H 1.14011 0.39851 -0.29605
 H573 H 1.11341 0.44195 -0.37070
 H574 H 1.13211 0.43863 -0.44470
 H575 H 1.15787 0.39319 -0.37095
 H576 H 1.05373 0.45978 -0.21866
 H577 H 1.03541 0.48059 -0.17252
 H578 H 1.07172 0.47449 -0.04408
 H579 H 1.09018 0.45366 -0.09104
 C580 C 0.59133 0.72930 -0.32674
 C581 C 0.57827 0.70308 -0.32532
 C582 C 0.56676 0.68967 -0.36683
 C583 C 0.56782 0.70218 -0.40943
 C584 C 0.58061 0.72871 -0.41198
 C585 C 0.59253 0.74203 -0.36957
 C586 C 0.57551 0.68929 -0.28155
 C587 C 0.57161 0.67579 -0.24712
 C588 C 0.56546 0.65806 -0.20963
 C589 C 0.55906 0.64151 -0.18011
 C590 C 0.55027 0.62030 -0.14797
 C591 C 0.56157 0.60538 -0.14970
 C592 C 0.55079 0.58268 -0.12424
 C593 C 0.52844 0.57452 -0.09688
 C594 C 0.51785 0.59014 -0.09361
 C595 C 0.52866 0.61286 -0.11919
 H596 H 0.60048 0.73990 -0.29474
 H597 H 0.55632 0.66935 -0.36603
 H598 H 0.55719 0.69062 -0.43940
 H599 H 0.60336 0.76228 -0.36918
 H600 H 0.57817 0.61084 -0.17216
 H601 H 0.55947 0.57113 -0.12732
 H602 H 0.50071 0.58441 -0.07270
 H603 H 0.51963 0.62415 -0.11791
 C604 C 0.31055 -0.13457 -0.36890
 C605 C 0.29816 -0.13587 -0.32552
 C606 C 0.27163 -0.14750 -0.32406
 C607 C 0.25762 -0.15736 -0.36619
 C608 C 0.27008 -0.15548 -0.41017
 C609 C 0.29666 -0.14430 -0.41087
 C610 C 0.31311 -0.12441 -0.28340
 C611 C 0.32695 -0.11407 -0.25000
 C612 C 0.34454 -0.10133 -0.21310
 C613 C 0.36066 -0.09010 -0.18347
 C614 C 0.38111 -0.07648 -0.15040
 C615 C 0.38773 -0.08948 -0.11756
 C616 C 0.40962 -0.07651 -0.08993
 C617 C 0.42524 -0.05038 -0.09504
 C618 C 0.41786 -0.03734 -0.12663
 C619 C 0.39596 -0.05035 -0.15423
 H620 H 0.33105 -0.12570 -0.37043
 H621 H 0.26185 -0.14859 -0.29066
 H622 H 0.23718 -0.16578 -0.36472
 H623 H 0.30672 -0.14295 -0.44406
 H624 H 0.37646 -0.10971 -0.11449
 H625 H 0.41476 -0.08705 -0.06577
 H626 H 0.42947 -0.01721 -0.13128
 H627 H 0.39110 -0.04011 -0.17974
 C628 C 0.55277 -0.13565 0.37464
 C629 C 0.57010 -0.12992 0.33681
 C630 C 0.58912 -0.13627 0.34062
 C631 C 0.59080 -0.14822 0.38243
 C632 C 0.57354 -0.15376 0.42083
 C633 C 0.55442 -0.14748 0.41620
 C634 C 0.56796 -0.11736 0.29476
 C635 C 0.56466 -0.10676 0.26140
 C636 C 0.55920 -0.09433 0.22460
 C637 C 0.55334 -0.08375 0.19515
 C638 C 0.54501 -0.07121 0.16241
 C639 C 0.55550 -0.04519 0.16478
 C640 C 0.54513 -0.03336 0.13782
 C641 C 0.52399 -0.04747 0.10834
 C642 C 0.51422 -0.07346 0.10468
 C643 C 0.52463 -0.08525 0.13168
 H644 H 0.53790 -0.13095 0.37203
 H645 H 0.60265 -0.13192 0.31151
 H646 H 0.60576 -0.15277 0.38504
 H647 H 0.54051 -0.15197 0.44464
 H648 H 0.57115 -0.03415 0.18869
 H649 H 0.55313 -0.01330 0.14129
 H650 H 0.49804 -0.08480 0.08213
 H651 H 0.51625 -0.10542 0.12978
 C652 C 0.29137 0.39929 0.36244
 C653 C 0.29044 0.41266 0.32237
 C654 C 0.27474 0.42317 0.32352
 C655 C 0.26087 0.42124 0.36523
 C656 C 0.26264 0.40888 0.40650
 C657 C 0.27753 0.39735 0.40420
 C658 C 0.30753 0.41782 0.28227
 C659 C 0.32286 0.42324 0.25011
 C660 C 0.34190 0.43071 0.21424
 C661 C 0.35902 0.43793 0.18525
 C662 C 0.38049 0.44745 0.15282
 C663 C 0.38633 0.46790 0.12247
 C664 C 0.40887 0.47910 0.09538
 C665 C 0.42591 0.47006 0.09860
 C666 C 0.41937 0.44889 0.12775
 C667 C 0.39685 0.43772 0.15474
 H668 H 0.30352 0.39114 0.36203
 H669 H 0.27402 0.43373 0.29289
 H670 H 0.24986 0.43060 0.36603
 H671 H 0.27905 0.38746 0.43518
 H672 H 0.37388 0.47567 0.12088
 H673 H 0.41335 0.49532 0.07318
 H674 H 0.43206 0.44143 0.13094
 H675 H 0.39260 0.42200 0.17827
 C676 C 1.15064 0.72677 0.31711
 C677 C 1.14213 0.70103 0.31662
 C678 C 1.14351 0.68907 0.35847
 C679 C 1.15265 0.70252 0.40098
 C680 C 1.16056 0.72820 0.40232
 C681 C 1.15992 0.74033 0.35974
 C682 C 1.13059 0.68624 0.27447
 C683 C 1.12003 0.67240 0.24133
 C684 C 1.10678 0.65456 0.20529
 C685 C 1.09486 0.63797 0.17716
 C686 C 1.08008 0.61662 0.14708
 C687 C 1.06172 0.59418 0.16869
 C688 C 1.04870 0.57252 0.14135
 C689 C 1.05383 0.57295 0.09184
 C690 C 1.07164 0.59576 0.06984
 C691 C 1.08481 0.61750 0.09745
 H692 H 1.14957 0.73620 0.28495
 H693 H 1.13700 0.66917 0.35850
 H694 H 1.15327 0.69277 0.43304
 H695 H 1.16576 0.76007 0.35987
 H696 H 1.05791 0.59327 0.20703
 H697 H 1.03496 0.55528 0.15921
 H698 H 1.07595 0.59660 0.03174
 H699 H 1.09904 0.63477 0.08038
 C700 C 0.40003 0.10842 0.37100
 C701 C 0.41620 0.12298 0.33332
 C702 C 0.42893 0.14915 0.33621
 C703 C 0.42630 0.16072 0.37727
 C704 C 0.41093 0.14625 0.41624
 C705 C 0.39736 0.11996 0.41214
 C706 C 0.42149 0.11113 0.29381
 C707 C 0.42686 0.10133 0.26191
 C708 C 0.43408 0.08988 0.22598
 C709 C 0.44092 0.08006 0.19666
 C710 C 0.44980 0.06815 0.16348
 C711 C 0.47112 0.08266 0.13422
 C712 C 0.48139 0.07113 0.10593
 C713 C 0.47051 0.04490 0.10680
 C714 C 0.44852 0.03042 0.13493
 C715 C 0.43829 0.04198 0.16312
 H716 H 0.39011 0.08814 0.36926
 H717 H 0.44164 0.16062 0.30747
 H718 H 0.43731 0.18096 0.37950
 H719 H 0.38519 0.10830 0.44127
 H720 H 0.48026 0.10293 0.13432
 H721 H 0.49829 0.08277 0.08462
 H722 H 0.43963 0.01019 0.13628
 H723 H 0.42184 0.03054 0.18569
 C724 C 0.73093 0.59814 0.32940
 C725 C 0.70516 0.57970 0.32861
 C726 C 0.69388 0.56462 0.36931
 C727 C 0.70804 0.56802 0.41072
 C728 C 0.73381 0.58668 0.41237
 C729 C 0.74524 0.60157 0.37106
 C730 C 0.68971 0.57599 0.28687
 C731 C 0.67527 0.57165 0.25394
 C732 C 0.65688 0.56528 0.21764
 C733 C 0.64014 0.55890 0.18854
 C734 C 0.61905 0.55020 0.15601
 C735 C 0.60244 0.55962 0.15940
 C736 C 0.58026 0.54911 0.13214
 C737 C 0.57431 0.52890 0.10126
 C738 C 0.59159 0.52019 0.09669
 C739 C 0.61377 0.53074 0.12401
 H740 H 0.73989 0.60993 0.29807
 H741 H 0.67402 0.55021 0.36912
 H742 H 0.69882 0.55588 0.44152
 H743 H 0.76504 0.61608 0.37132
 H744 H 0.60622 0.57457 0.18423
 H745 H 0.56737 0.55627 0.13642
 H746 H 0.58759 0.50471 0.07313
 H747 H 0.62639 0.52318 0.12124
 C748 C 0.89134 0.29267 0.35568
 C749 C 0.87584 0.29301 0.31901
 C750 C 0.84943 0.27848 0.32390
 C751 C 0.83855 0.26449 0.36604
 C752 C 0.85398 0.26498 0.40404
 C753 C 0.88051 0.27872 0.39785
 C754 C 0.88697 0.31021 0.27892
 C755 C 0.89637 0.32567 0.24703
 C756 C 0.90754 0.34493 0.21179
 C757 C 0.91724 0.36236 0.18377
 C758 C 0.92907 0.38435 0.15314
 C759 C 0.92406 0.38286 0.10368
 C760 C 0.93463 0.40474 0.07525
 C761 C 0.95016 0.42831 0.09618
 C762 C 0.95543 0.42949 0.14564
 C763 C 0.94497 0.40770 0.17381
 H764 H 0.91180 0.30390 0.35242
 H765 H 0.83722 0.27874 0.29598
 H766 H 0.81809 0.25438 0.36989
 H767 H 0.89288 0.27927 0.42624
 H768 H 0.91173 0.36489 0.08728
 H769 H 0.93030 0.40327 0.03723
 H770 H 0.96745 0.44732 0.16276
 H771 H 0.94899 0.40912 0.21198
   
