data_POSCAR
  _audit_creation_date              2014-09-24
  _audit_creation_method            'ToBaCCo'
  _symmetry_space_group_name_H-M    'P1'
  _symmetry_Int_Tables_number       1
  _symmetry_cell_setting            triclinic
  loop_
  _symmetry_equiv_pos_as_xyz
 x,y,z
_cell_length_a 43.8799
_cell_length_b 38.8921
_cell_length_c 16.9863
_cell_angle_alpha 89.959600
_cell_angle_beta 89.895100
_cell_angle_gamma 90.117200
loop_
  _atom_site_label
  _atom_site_type_symbol
  _atom_site_fract_x
  _atom_site_fract_y
  _atom_site_fract_z
O1 O 0.28422 0.20936 0.18645
 O2 O 0.22792 0.27726 0.14628
 O3 O 0.28540 0.27619 0.18688
 O4 O 0.22631 0.21070 0.14931
 O5 O 0.21332 0.21206 0.27462
 O6 O 0.27293 0.27648 0.31269
 O7 O 0.21559 0.27834 0.27218
 O8 O 0.27093 0.20959 0.31173
 Cu9 Cu 0.25731 0.24329 0.15467
 Cu10 Cu 0.24201 0.24420 0.30539
 C11 C 0.28730 0.19795 0.25606
 C12 C 0.21180 0.28908 0.20221
 C13 C 0.28947 0.28731 0.25644
 C14 C 0.20919 0.20065 0.20536
 O15 O 0.72642 0.21846 0.34416
 O16 O 0.78572 0.28248 0.29902
 O17 O 0.72747 0.28501 0.33105
 O18 O 0.78425 0.21583 0.30757
 O19 O 0.77202 0.21190 0.18200
 O20 O 0.71669 0.28194 0.20445
 O21 O 0.77463 0.27900 0.17283
 O22 O 0.71408 0.21622 0.21811
 Cu23 Cu 0.75715 0.25079 0.33306
 Cu24 Cu 0.74342 0.24680 0.18157
 C25 C 0.70974 0.20712 0.28904
 C26 C 0.79055 0.29165 0.22827
 C27 C 0.71211 0.29501 0.27187
 C28 C 0.78782 0.20206 0.24037
 O29 O 0.72676 0.78023 0.65955
 O30 O 0.78494 0.71351 0.69170
 O31 O 0.72694 0.71334 0.65748
 O32 O 0.78462 0.78011 0.69718
 O33 O 0.77247 0.77861 0.82304
 O34 O 0.71467 0.71231 0.78345
 O35 O 0.77260 0.71165 0.81758
 O36 O 0.71495 0.77881 0.78576
 Cu37 Cu 0.75698 0.74698 0.66382
 Cu38 Cu 0.74256 0.74520 0.81509
 C39 C 0.71070 0.79073 0.71699
 C40 C 0.78882 0.70128 0.76028
 C41 C 0.71070 0.70168 0.71357
 C42 C 0.78867 0.79062 0.76728
 O43 O 0.21586 0.78311 0.72986
 O44 O 0.27229 0.71736 0.67903
 O45 O 0.21506 0.71686 0.72296
 O46 O 0.27325 0.78403 0.69108
 O47 O 0.28621 0.78074 0.81622
 O48 O 0.22900 0.71286 0.84717
 O49 O 0.28629 0.71413 0.80341
 O50 O 0.22844 0.77931 0.85521
 Cu51 Cu 0.24287 0.75063 0.69321
 Cu52 Cu 0.25890 0.74637 0.84295
 C53 C 0.21198 0.79205 0.80102
 C54 C 0.28929 0.70480 0.73206
 C55 C 0.21164 0.70376 0.79108
 C56 C 0.28977 0.79381 0.74830
 C57 C 0.99544 0.06810 0.14235
 C58 C 1.02285 0.05599 0.11044
 C59 C 1.02277 0.02560 0.06594
 C60 C 0.99595 0.00592 0.05652
 C61 C 0.96889 0.01820 0.09167
 C62 C 0.96818 0.04986 0.13147
 C63 C 0.99597 -0.02626 0.00740
 C64 C 0.96886 -0.03856 -0.02772
 C65 C 0.96897 -0.06789 -0.07574
 C66 C 0.99660 -0.08417 -0.09261
 C67 C 1.02382 -0.07248 -0.05920
 C68 C 1.02326 -0.04447 -0.00725
 H69 H 0.99515 0.09270 0.17224
 H70 H 1.04384 0.01780 0.03840
 H71 H 0.94798 0.00360 0.08802
 H72 H 0.94748 -0.02527 -0.01991
 H73 H 0.99685 -0.10671 -0.13012
 H74 H 1.04441 -0.03687 0.02018
 C75 C 0.49897 0.57273 0.60882
 C76 C 0.52636 0.55609 0.59119
 C77 C 0.52566 0.52541 0.54797
 C78 C 0.49829 0.51257 0.51527
 C79 C 0.47108 0.53063 0.53221
 C80 C 0.47118 0.55991 0.58080
 C81 C 0.49845 0.48114 0.46292
 C82 C 0.47131 0.46305 0.44467
 C83 C 0.47161 0.43461 0.39362
 C84 C 0.49946 0.42251 0.36456
 C85 C 0.52677 0.43901 0.38371
 C86 C 0.52599 0.46883 0.42990
 H87 H 0.49936 0.59658 0.64176
 H88 H 0.54697 0.51201 0.54070
 H89 H 0.44952 0.52240 0.50830
 H90 H 0.44964 0.47074 0.46894
 H91 H 0.49994 0.39938 0.32905
 H92 H 0.54731 0.48213 0.43846
 C93 C -0.00059 0.41797 0.09609
 C94 C -0.02820 0.43381 0.07740
 C95 C -0.02815 0.46324 0.02968
 C96 C -0.00082 0.47614 -0.00355
 C97 C 0.02654 0.45839 0.01316
 C98 C 0.02688 0.43022 0.06487
 C99 C -0.00079 0.50833 -0.05312
 C100 C 0.02611 0.52779 -0.06413
 C101 C 0.02618 0.55813 -0.10904
 C102 C -0.00133 0.57041 -0.13983
 C103 C -0.02862 0.55242 -0.12744
 C104 C -0.02792 0.52083 -0.08739
 H105 H -0.00057 0.39528 0.13318
 H106 H -0.04968 0.47602 0.02068
 H107 H 0.04793 0.46633 -0.01261
 H108 H 0.04731 0.51991 -0.03766
 H109 H -0.00167 0.59494 -0.17008
 H110 H -0.04895 0.50651 -0.08309
 C111 C 0.49940 0.92507 0.63229
 C112 C 0.47167 0.94108 0.61518
 C113 C 0.47156 0.97066 0.56795
 C114 C 0.49863 0.98323 0.53297
 C115 C 0.52615 0.96573 0.54900
 C116 C 0.52676 0.93741 0.60034
 C117 C 0.49805 1.01425 0.48008
 C118 C 0.52438 1.03456 0.46824
 C119 C 0.52409 1.06329 0.41783
 C120 C 0.49647 1.07297 0.38257
 C121 C 0.46961 1.05445 0.39679
 C122 C 0.47089 1.02441 0.44233
 H123 H 0.49960 0.90205 0.66829
 H124 H 0.45010 0.98371 0.55976
 H125 H 0.54731 0.97389 0.52220
 H126 H 0.54510 1.02883 0.49978
 H127 H 0.49558 1.09550 0.34527
 H128 H 0.45032 1.00929 0.44789
 C129 C 1.13384 0.13522 0.15831
 C130 C 1.13938 0.14728 0.23556
 C131 C 1.16489 0.16801 0.25114
 C132 C 1.18509 0.17765 0.19050
 C133 C 1.17979 0.16503 0.11418
 C134 C 1.15464 0.14408 0.09830
 C135 C 1.10574 0.11407 0.14381
 C136 C 1.09797 0.10097 0.06908
 C137 C 1.07120 0.08205 0.05846
 C138 C 1.05146 0.07574 0.12186
 C139 C 1.05907 0.08842 0.19655
 C140 C 1.08595 0.10737 0.20801
 C141 C 1.11915 0.13918 0.29671
 C142 C 1.09299 0.11972 0.28321
 H143 H 1.12342 0.14836 0.35592
 H144 H 1.07793 0.11444 0.33240
 H145 H 1.16848 0.17733 0.31057
 H146 H 1.19487 0.17169 0.06593
 H147 H 1.06567 0.07279 0.00009
 H148 H 1.04409 0.08328 0.24605
 H149 H 1.15175 0.13554 0.03841
 H150 H 1.11209 0.10517 0.01796
 C151 C 0.63736 0.63143 0.66129
 C152 C 0.63956 0.64687 0.73651
 C153 C 0.66416 0.66869 0.75411
 C154 C 0.68639 0.67626 0.69704
 C155 C 0.68430 0.66071 0.62280
 C156 C 0.66025 0.63848 0.60514
 C157 C 0.61008 0.60944 0.64378
 C158 C 0.60595 0.59260 0.57116
 C159 C 0.57922 0.57438 0.55570
 C160 C 0.55591 0.57231 0.61211
 C161 C 0.56029 0.58776 0.68587
 C162 C 0.58716 0.60614 0.70214
 C163 C 0.61671 0.64134 0.79288
 C164 C 0.59096 0.62167 0.77584
 H165 H 0.61842 0.65309 0.85055
 H166 H 0.57359 0.61887 0.82085
 H167 H 0.66539 0.68073 0.81157
 H168 H 0.70114 0.66605 0.57772
 H169 H 0.57634 0.56286 0.49814
 H170 H 0.54258 0.58583 0.73026
 H171 H 0.65974 0.62774 0.54669
 H172 H 0.62281 0.59358 0.52496
 C173 C -0.13645 0.35983 0.17663
 C174 C -0.15647 0.34897 0.11630
 C175 C -0.18086 0.32677 0.13381
 C176 C -0.18608 0.31536 0.21133
 C177 C -0.16696 0.32763 0.27152
 C178 C -0.14252 0.34944 0.25454
 C179 C -0.10937 0.38140 0.15450
 C180 C -0.08654 0.39075 0.20881
 C181 C -0.06069 0.40878 0.18413
 C182 C -0.05714 0.41840 0.10517
 C183 C -0.08017 0.41032 0.05110
 C184 C -0.10588 0.39138 0.07478
 C185 C -0.15190 0.36007 0.03869
 C186 C -0.12737 0.38115 0.01857
 H187 H -0.16744 0.35212 -0.00743
 H188 H -0.12470 0.38877 -0.04246
 H189 H -0.19560 0.31818 0.08653
 H190 H -0.17043 0.31988 0.33216
 H191 H -0.04310 0.41479 0.22668
 H192 H -0.07723 0.41720 -0.01034
 H193 H -0.12860 0.35766 0.30328
 H194 H -0.08770 0.38354 0.27002
 C195 C 0.36336 0.86534 0.70767
 C196 C 0.34192 0.85838 0.64753
 C197 C 0.31748 0.83580 0.66175
 C198 C 0.31395 0.81987 0.73539
 C199 C 0.33455 0.82787 0.79578
 C200 C 0.35890 0.85029 0.78230
 C201 C 0.39038 0.88754 0.68829
 C202 C 0.41405 0.89416 0.74230
 C203 C 0.43990 0.91264 0.71937
 C204 C 0.44270 0.92534 0.64246
 C205 C 0.41870 0.92023 0.58925
 C206 C 0.39286 0.90112 0.61116
 C207 C 0.34531 0.87339 0.57306
 C208 C 0.37014 0.89443 0.55538
 H209 H 0.32873 0.86835 0.52725
 H210 H 0.37197 0.90494 0.49643
 H211 H 0.30157 0.83010 0.61477
 H212 H 0.33229 0.81619 0.85339
 H213 H 0.45805 0.91655 0.76157
 H214 H 0.42088 0.92959 0.52935
 H215 H 0.37413 0.85504 0.83082
 H216 H 0.41349 0.88459 0.80183
 C217 C -0.13888 0.62900 -0.19468
 C218 C -0.14003 0.64712 -0.26692
 C219 C -0.16425 0.66969 -0.28240
 C220 C -0.18711 0.67535 -0.22594
 C221 C -0.18603 0.65719 -0.15467
 C222 C -0.16239 0.63420 -0.13927
 C223 C -0.11197 0.60627 -0.17904
 C224 C -0.10886 0.58688 -0.10945
 C225 C -0.08230 0.56833 -0.09476
 C226 C -0.05816 0.56841 -0.14903
 C227 C -0.06164 0.58621 -0.22037
 C228 C -0.08830 0.60502 -0.23575
 C229 C -0.11651 0.64349 -0.32217
 C230 C -0.09109 0.62314 -0.30665
 H231 H -0.11739 0.65730 -0.37756
 H232 H -0.07315 0.62191 -0.35049
 H233 H -0.16470 0.68379 -0.33747
 H234 H -0.20340 0.66099 -0.11014
 H235 H -0.08016 0.55498 -0.03906
 H236 H -0.04331 0.58595 -0.26327
 H237 H -0.16266 0.62139 -0.08297
 H238 H -0.12635 0.58618 -0.06483
 C239 C 0.35863 1.12601 0.31215
 C240 C 0.35793 1.14232 0.23762
 C241 C 0.33387 1.16455 0.21831
 C242 C 0.31076 1.17170 0.27317
 C243 C 0.31125 1.15508 0.34643
 C244 C 0.33471 1.13242 0.36565
 C245 C 0.38561 1.10408 0.33222
 C246 C 0.38849 1.08682 0.40478
 C247 C 0.41525 1.06940 0.42366
 C248 C 0.43981 1.06847 0.37073
 C249 C 0.43651 1.08385 0.29644
 C250 C 0.40970 1.10162 0.27692
 C251 C 0.38181 1.13738 0.18396
 C252 C 0.40723 1.11769 0.20340
 H253 H 0.38124 1.14974 0.12677
 H254 H 0.42549 1.11549 0.16064
 H255 H 0.33383 1.17738 0.16162
 H256 H 0.29364 1.16000 0.38973
 H257 H 0.41722 1.05790 0.48153
 H258 H 0.45515 1.08274 0.25454
 H259 H 0.33401 1.12093 0.42337
 H260 H 0.37071 1.08711 0.44863
 C261 C 1.13551 -0.14272 -0.14572
 C262 C 1.15336 -0.15647 -0.08393
 C263 C 1.17903 -0.17673 -0.10127
 C264 C 1.18721 -0.18356 -0.17970
 C265 C 1.17023 -0.16855 -0.24055
 C266 C 1.14484 -0.14836 -0.22402
 C267 C 1.10712 -0.12333 -0.12509
 C268 C 1.08667 -0.11108 -0.18246
 C269 C 1.05990 -0.09444 -0.16041
 C270 C 1.05290 -0.08921 -0.08085
 C271 C 1.07325 -0.10074 -0.02306
 C272 C 1.10004 -0.11821 -0.04456
 C273 C 1.14519 -0.15036 -0.00538
 C274 C 1.11928 -0.13136 0.01386
 H275 H 1.15894 -0.16063 0.04205
 H276 H 1.11387 -0.12752 0.07551
 H277 H 1.19210 -0.18795 -0.05366
 H278 H 1.17621 -0.17294 -0.30160
 H279 H 1.04452 -0.08552 -0.20585
 H280 H 1.06771 -0.09710 0.03861
 H281 H 1.13272 -0.13780 -0.27357
 H282 H 1.09055 -0.11453 -0.24461
 C283 C 0.63746 0.36553 0.30356
 C284 C 0.65805 0.35917 0.36598
 C285 C 0.68299 0.33709 0.35466
 C286 C 0.68783 0.32107 0.28171
 C287 C 0.66813 0.32861 0.21906
 C288 C 0.64332 0.35051 0.22963
 C289 C 0.60979 0.38702 0.31983
 C290 C 0.58682 0.39286 0.26340
 C291 C 0.56036 0.41075 0.28339
 C292 C 0.55625 0.42364 0.35968
 C293 C 0.57951 0.41924 0.41534
 C294 C 0.60594 0.40072 0.39640
 C295 C 0.65329 0.37424 0.43981
 C296 C 0.62789 0.39472 0.45455
 H297 H 0.66920 0.36968 0.48739
 H298 H 0.62499 0.40532 0.51308
 H299 H 0.69820 0.33174 0.40335
 H300 H 0.67140 0.31683 0.16191
 H301 H 0.54279 0.41409 0.23934
 H302 H 0.57631 0.42874 0.47479
 H303 H 0.62880 0.35485 0.17949
 H304 H 0.58842 0.38312 0.20415
 C305 C 0.86093 -0.14043 -0.18077
 C306 C 0.83991 -0.15021 -0.12154
 C307 C 0.81566 -0.17243 -0.13951
 C308 C 0.81158 -0.18508 -0.21640
 C309 C 0.83158 -0.17377 -0.27585
 C310 C 0.85592 -0.15188 -0.25837
 C311 C 0.88795 -0.11902 -0.15760
 C312 C 0.91167 -0.11059 -0.21038
 C313 C 0.93750 -0.09294 -0.18435
 C314 C 0.94013 -0.08277 -0.10552
 C315 C 0.91617 -0.08977 -0.05320
 C316 C 0.89046 -0.10830 -0.07818
 C317 C 0.84345 -0.13822 -0.04436
 C318 C 0.86800 -0.11743 -0.02334
 H319 H 0.82714 -0.14536 0.00081
 H320 H 0.86990 -0.10920 0.03740
 H321 H 0.80020 -0.18023 -0.09287
 H322 H 0.82899 -0.18251 -0.33601
 H323 H 0.95576 -0.08767 -0.22568
 H324 H 0.91835 -0.08244 0.00814
 H325 H 0.87068 -0.14455 -0.30636
 H326 H 0.91120 -0.11827 -0.27133
 C327 C 0.36401 0.35671 0.30427
 C328 C 0.34413 0.34629 0.36554
 C329 C 0.31942 0.32440 0.34924
 C330 C 0.31417 0.31239 0.27245
 C331 C 0.33347 0.32345 0.21157
 C332 C 0.35800 0.34532 0.22703
 C333 C 0.39101 0.37865 0.32482
 C334 C 0.41271 0.38931 0.26861
 C335 C 0.43834 0.40806 0.29126
 C336 C 0.44304 0.41693 0.37031
 C337 C 0.42111 0.40749 0.42654
 C338 C 0.39533 0.38823 0.40451
 C339 C 0.34932 0.35725 0.44294
 C340 C 0.37432 0.37780 0.46197
 H341 H 0.33400 0.34945 0.48981
 H342 H 0.37752 0.38520 0.52291
 H343 H 0.30462 0.31617 0.39686
 H344 H 0.32993 0.31476 0.15171
 H345 H 0.45478 0.41550 0.24670
 H346 H 0.42469 0.41403 0.48787
 H347 H 0.37212 0.35259 0.17776
 H348 H 0.41065 0.38306 0.20705
 C349 C 0.13713 0.63709 -0.16157
 C350 C 0.14178 0.65038 -0.23828
 C351 C 0.16709 0.67145 -0.25439
 C352 C 0.18796 0.68009 -0.19473
 C353 C 0.18368 0.66594 -0.11928
 C354 C 0.15875 0.64475 -0.10292
 C355 C 0.10908 0.61596 -0.14602
 C356 C 0.10191 0.60230 -0.07130
 C357 C 0.07516 0.58346 -0.05956
 C358 C 0.05484 0.57772 -0.12181
 C359 C 0.06184 0.59101 -0.19652
 C360 C 0.08865 0.61003 -0.20902
 C361 C 0.12086 0.64312 -0.29822
 C362 C 0.09492 0.62334 -0.28394
 H363 H 0.12445 0.65316 -0.35706
 H364 H 0.07932 0.61872 -0.33221
 H365 H 0.16996 0.68186 -0.31318
 H366 H 0.19936 0.67169 -0.07185
 H367 H 0.07008 0.57387 -0.00110
 H368 H 0.04640 0.58639 -0.24518
 H369 H 0.15668 0.63505 -0.04369
 H370 H 0.11643 0.60609 -0.02091
 C371 C 0.63372 1.14268 0.34802
 C372 C 0.62945 1.17775 0.32843
 C373 C 0.65450 1.19822 0.30723
 C374 C 0.68396 1.18467 0.30818
 C375 C 0.68854 1.15044 0.33026
 C376 C 0.66366 1.12947 0.34939
 C377 C 0.60613 1.12146 0.36775
 C378 C 0.60736 1.08571 0.38086
 C379 C 0.58087 1.06705 0.39758
 C380 C 0.55246 1.08350 0.40281
 C381 C 0.55119 1.11923 0.39076
 C382 C 0.57748 1.13803 0.37145
 C383 C 0.60037 1.19239 0.33159
 C384 C 0.57503 1.17311 0.35405
 H385 H 0.59719 1.21933 0.31744
 H386 H 0.55304 1.18574 0.35627
 H387 H 0.65121 1.22503 0.29166
 H388 H 0.71137 1.13992 0.33224
 H389 H 0.58263 1.03946 0.40475
 H390 H 0.52966 1.13262 0.39593
 H391 H 0.66837 1.10325 0.36608
 H392 H 0.62842 1.07156 0.37666
 C393 C 0.13698 0.35734 0.15323
 C394 C 0.15617 0.34599 0.09147
 C395 C 0.18128 0.32482 0.10803
 C396 C 0.18755 0.31449 0.18558
 C397 C 0.16915 0.32688 0.24687
 C398 C 0.14429 0.34806 0.23114
 C399 C 0.10924 0.37790 0.13264
 C400 C 0.08785 0.38869 0.18939
 C401 C 0.06153 0.40609 0.16695
 C402 C 0.05586 0.41347 0.08757
 C403 C 0.07736 0.40378 0.03061
 C404 C 0.10378 0.38576 0.05243
 C405 C 0.14982 0.35519 0.01345
 C406 C 0.12427 0.37477 -0.00560
 H407 H 0.16462 0.34673 -0.03383
 H408 H 0.12018 0.38084 -0.06697
 H409 H 0.19540 0.31558 0.06011
 H410 H 0.17354 0.31957 0.30732
 H411 H 0.04539 0.41374 0.21197
 H412 H 0.07296 0.40917 -0.03096
 H413 H 0.13088 0.35635 0.28082
 H414 H 0.09066 0.38351 0.25128
 C415 C 0.63610 0.86064 0.67757
 C416 C 0.65489 0.85027 0.61409
 C417 C 0.67977 0.82834 0.62755
 C418 C 0.68621 0.81624 0.70365
 C419 C 0.66808 0.82742 0.76669
 C420 C 0.64344 0.84933 0.75406
 C421 C 0.60872 0.88237 0.66012
 C422 C 0.58792 0.89276 0.71871
 C423 C 0.56182 0.91121 0.69896
 C424 C 0.55578 0.92005 0.62053
 C425 C 0.57680 0.91091 0.56190
 C426 C 0.60302 0.89192 0.58099
 C427 C 0.64838 0.86125 0.53737
 C428 C 0.62306 0.88168 0.52121
 H429 H 0.66287 0.85353 0.48880
 H430 H 0.61881 0.88907 0.46070
 H431 H 0.69367 0.82004 0.57831
 H432 H 0.67258 0.81871 0.82612
 H433 H 0.54610 0.91843 0.74531
 H434 H 0.57216 0.91743 0.50103
 H435 H 0.63025 0.85664 0.80493
 H436 H 0.59103 0.88649 0.77998
 C437 C 0.85836 0.12708 0.20015
 C438 C 0.85794 0.14652 0.27059
 C439 C 0.83416 0.16988 0.28502
 C440 C 0.81108 0.17497 0.22908
 C441 C 0.81130 0.15527 0.16000
 C442 C 0.83445 0.13152 0.14578
 C443 C 0.88502 0.10391 0.18485
 C444 C 0.88763 0.08365 0.11646
 C445 C 0.91410 0.06496 0.10140
 C446 C 0.93864 0.06572 0.15417
 C447 C 0.93562 0.08428 0.22463
 C448 C 0.90909 0.10334 0.24025
 C449 C 0.88178 0.14345 0.32488
 C450 C 0.90690 0.12252 0.30979
 H451 H 0.88143 0.15819 0.37900
 H452 H 0.92514 0.12180 0.35270
 H453 H 0.83433 0.18510 0.33846
 H454 H 0.79367 0.15852 0.11608
 H455 H 0.91584 0.05105 0.04637
 H456 H 0.95426 0.08457 0.26645
 H457 H 0.83351 0.11757 0.09105
 H458 H 0.86986 0.08247 0.07282
 C459 C 0.36210 0.63680 0.66269
 C460 C 0.35961 0.64814 0.74169
 C461 C 0.33527 0.66934 0.76463
 C462 C 0.31336 0.67995 0.70971
 C463 C 0.31555 0.66810 0.63187
 C464 C 0.33947 0.64677 0.60861
 C465 C 0.38919 0.61547 0.63985
 C466 C 0.39411 0.60331 0.56261
 C467 C 0.42040 0.58479 0.54378
 C468 C 0.44243 0.57790 0.60130
 C469 C 0.43738 0.58916 0.67871
 C470 C 0.41112 0.60784 0.69829
 C471 C 0.38178 0.63893 0.79697
 C472 C 0.40698 0.61926 0.77573
 H473 H 0.37984 0.64749 0.85749
 H474 H 0.42370 0.61323 0.82053
 H475 H 0.33389 0.67833 0.82492
 H476 H 0.29892 0.67575 0.58822
 H477 H 0.42387 0.57659 0.48352
 H478 H 0.45410 0.58349 0.72382
 H479 H 0.34002 0.63887 0.54782
 H480 H 0.37821 0.60815 0.51562
   
