data_POSCAR
  _audit_creation_date              2014-09-24
  _audit_creation_method            'ToBaCCo'
  _symmetry_space_group_name_H-M    'P1'
  _symmetry_Int_Tables_number       1
  _symmetry_cell_setting            triclinic
  loop_
  _symmetry_equiv_pos_as_xyz
 x,y,z
_cell_length_a 50.1893
_cell_length_b 50.1568
_cell_length_c 38.2308
_cell_angle_alpha 89.837000
_cell_angle_beta 90.167300
_cell_angle_gamma 88.132400
loop_
  _atom_site_label
  _atom_site_type_symbol
  _atom_site_fract_x
  _atom_site_fract_y
  _atom_site_fract_z
O1 O -0.02818 0.29070 0.02947
 O2 O 0.02454 0.29140 -0.03784
 O3 O -0.02762 0.28988 -0.03856
 O4 O 0.02374 0.29314 0.03014
 O5 O 0.02708 0.24919 0.03130
 O6 O -0.02447 0.24590 -0.03697
 O7 O 0.02703 0.24746 -0.03650
 O8 O -0.02450 0.24676 0.03133
 Cu9 Cu -0.00222 0.29571 -0.00439
 Cu10 Cu 0.00153 0.24294 -0.00253
 C11 C -0.03521 0.26851 0.04200
 C12 C 0.03489 0.26944 -0.04866
 C13 C -0.03484 0.26733 -0.04947
 C14 C 0.03433 0.27171 0.04232
 O15 O 0.52237 0.79492 0.46893
 O16 O 0.46944 0.79112 0.53554
 O17 O 0.52129 0.79547 0.53717
 O18 O 0.47057 0.79075 0.46760
 O19 O 0.47641 0.74696 0.46756
 O20 O 0.52562 0.75157 0.53864
 O21 O 0.47439 0.74724 0.53593
 O22 O 0.52814 0.75113 0.47137
 Cu23 Cu 0.49540 0.79748 0.50220
 Cu24 Cu 0.50152 0.74483 0.50333
 C25 C 0.53463 0.77362 0.45935
 C26 C 0.46287 0.76847 0.54705
 C27 C 0.53216 0.77428 0.54977
 C28 C 0.46486 0.76802 0.45566
 O29 O 1.02784 0.70925 0.03599
 O30 O 0.97608 0.70504 -0.03231
 O31 O 1.02799 0.70879 -0.03230
 O32 O 0.97579 0.70614 0.03552
 O33 O 0.97149 0.75003 0.03395
 O34 O 1.02371 0.75265 -0.03280
 O35 O 0.97232 0.74899 -0.03396
 O36 O 1.02322 0.75308 0.03512
 Cu37 Cu 1.00242 0.70290 0.00187
 Cu38 Cu 0.99728 0.75555 0.00054
 C39 C 1.03450 0.73193 0.04724
 C40 C 0.96531 0.72632 -0.04472
 C41 C 1.03485 0.73128 -0.04414
 C42 C 0.96448 0.72771 0.04597
 O43 O 0.52777 0.20903 0.53210
 O44 O 0.47689 0.20585 0.46277
 O45 O 0.52876 0.21004 0.46382
 O46 O 0.47588 0.20577 0.53049
 O47 O 0.47177 0.24972 0.53102
 O48 O 0.52402 0.25391 0.46448
 O49 O 0.47257 0.24979 0.46291
 O50 O 0.52319 0.25291 0.53236
 Cu51 Cu 0.50285 0.20325 0.49724
 Cu52 Cu 0.49743 0.25596 0.49769
 C53 C 0.53417 0.23153 0.54412
 C54 C 0.46590 0.22728 0.45118
 C55 C 0.53544 0.23282 0.45282
 C56 C 0.46477 0.22711 0.54204
 O57 O 0.70515 0.02759 -0.03293
 O58 O 0.70329 -0.02247 0.03820
 O59 O 0.70322 0.02985 0.03509
 O60 O 0.70465 -0.02452 -0.02996
 O61 O 0.74855 -0.02695 -0.02596
 O62 O 0.74724 0.02909 0.03534
 O63 O 0.74713 -0.02250 0.04147
 O64 O 0.74914 0.02515 -0.03120
 Cu65 Cu 0.69962 0.00271 0.00240
 Cu66 Cu 0.75240 0.00090 0.00503
 C67 C 0.72761 0.03522 -0.04370
 C68 C 0.72501 -0.03106 0.05205
 C69 C 0.72510 0.03923 0.04543
 C70 C 0.72692 -0.03537 -0.03841
 O71 O 0.19938 0.47389 0.53279
 O72 O 0.20168 0.52617 0.46456
 O73 O 0.20149 0.47383 0.46457
 O74 O 0.19960 0.52597 0.53287
 O75 O 0.24361 0.52447 0.53466
 O76 O 0.24545 0.47226 0.46765
 O77 O 0.24564 0.52448 0.46758
 O78 O 0.24339 0.47225 0.53465
 Cu79 Cu 0.19609 0.50014 0.49838
 Cu80 Cu 0.24890 0.49822 0.50135
 C81 C 0.22112 0.46385 0.54481
 C82 C 0.22415 0.53461 0.45505
 C83 C 0.22389 0.46373 0.45514
 C84 C 0.22140 0.53438 0.54493
 O85 O 0.29968 0.96967 -0.03456
 O86 O 0.29976 1.02280 0.03186
 O87 O 0.29805 0.97068 0.03347
 O88 O 0.30084 1.02191 -0.03598
 O89 O 0.25694 1.02407 -0.03783
 O90 O 0.25413 0.97380 0.03178
 O91 O 0.25583 1.02557 0.02983
 O92 O 0.25578 0.97217 -0.03604
 Cu93 Cu 0.30399 0.99596 -0.00116
 Cu94 Cu 0.25130 0.99913 -0.00327
 C95 C 0.27769 0.96157 -0.04646
 C96 C 0.27781 1.03351 0.04191
 C97 C 0.27549 0.96345 0.04440
 C98 C 0.27927 1.03203 -0.04852
 O99 O 0.79293 0.52641 0.53714
 O100 O 0.79738 0.47432 0.46925
 O101 O 0.79690 0.52661 0.46938
 O102 O 0.79321 0.47423 0.53704
 O103 O 0.74936 0.47582 0.53245
 O104 O 0.75309 0.52715 0.46414
 O105 O 0.75352 0.47540 0.46494
 O106 O 0.74913 0.52760 0.53188
 Cu107 Cu 0.79954 0.50028 0.50365
 Cu108 Cu 0.74690 0.50163 0.49788
 C109 C 0.77020 0.53602 0.54594
 C110 C 0.77613 0.46578 0.45575
 C111 C 0.77557 0.53587 0.45529
 C112 C 0.77057 0.46603 0.54622
 C113 C 0.28586 0.30406 0.31515
 C114 C 0.30600 0.28500 0.31360
 C115 C 0.29626 0.26390 0.29461
 N116 N 0.27070 0.26931 0.28500
 C117 C 0.26427 0.29385 0.29757
 C118 C 0.31000 0.23919 0.28936
 C119 C 0.30073 0.21914 0.26687
 C120 C 0.31084 0.19308 0.26570
 C121 C 0.29756 0.18052 0.23924
 C122 C 0.27988 0.19931 0.22473
 N123 N 0.28207 0.22282 0.24157
 C124 C 0.26341 0.19485 0.19540
 C125 C 0.24224 0.21251 0.18536
 C126 C 0.22839 0.21124 0.15403
 C127 C 0.20844 0.23052 0.15547
 C128 C 0.21072 0.24291 0.18766
 N129 N 0.23139 0.23186 0.20592
 C130 C 0.19269 0.26268 0.20068
 C131 C 0.19759 0.27762 0.23117
 C132 C 0.17848 0.29277 0.24902
 C133 C 0.19143 0.30503 0.27605
 C134 C 0.21812 0.29714 0.27383
 N135 N 0.22170 0.28052 0.24630
 C136 C 0.23853 0.30619 0.29601
 H137 H 0.28691 0.32308 0.32829
 H138 H 0.32542 0.28649 0.32564
 H139 H 0.23990 0.27381 0.23615
 H140 H 0.32636 0.18402 0.28192
 H141 H 0.30079 0.15996 0.23138
 H142 H 0.23220 0.19776 0.13242
 H143 H 0.19381 0.23479 0.13519
 H144 H 0.18221 0.31828 0.29510
 H145 H 0.27352 0.24102 0.23375
 H146 H 0.15739 0.29477 0.24320
 C147 C 0.78826 0.77513 0.16041
 C148 C 0.76917 0.79526 0.16216
 C149 C 0.75670 0.79273 0.19426
 N150 N 0.76753 0.77177 0.21216
 C151 C 0.78683 0.76098 0.19150
 C152 C 0.73719 0.81087 0.20765
 C153 C 0.72192 0.80554 0.23772
 C154 C 0.70679 0.82445 0.25595
 C155 C 0.69411 0.81110 0.28226
 C156 C 0.70179 0.78438 0.27931
 N157 N 0.71867 0.78116 0.25201
 C158 C 0.69225 0.76362 0.30054
 C159 C 0.70488 0.73799 0.30227
 C160 C 0.69462 0.71607 0.31909
 C161 C 0.71403 0.69622 0.31809
 C162 C 0.73536 0.70645 0.30006
 N163 N 0.72976 0.73203 0.29059
 C164 C 0.76032 0.69309 0.29542
 C165 C 0.78034 0.70250 0.27304
 C166 C 0.80646 0.69260 0.27206
 C167 C 0.81894 0.70580 0.24546
 C168 C 0.80006 0.72328 0.23076
 N169 N 0.77656 0.72101 0.24756
 C170 C 0.80445 0.73971 0.20138
 H171 H 0.80178 0.77148 0.13882
 H172 H 0.76509 0.81019 0.14220
 H173 H 0.75833 0.72941 0.23960
 H174 H 0.70505 0.84567 0.25083
 H175 H 0.68075 0.82008 0.30136
 H176 H 0.67532 0.71459 0.33136
 H177 H 0.71260 0.67663 0.32969
 H178 H 0.83951 0.70269 0.23767
 H179 H 0.72532 0.76306 0.24146
 H180 H 0.81560 0.67722 0.28845
 C181 C 0.78499 0.19614 0.18032
 C182 C 0.80550 0.21349 0.18163
 C183 C 0.79628 0.23546 0.20049
 N184 N 0.77072 0.23222 0.21033
 C185 C 0.76376 0.20818 0.19803
 C186 C 0.81059 0.25892 0.20569
 C187 C 0.80186 0.27977 0.22808
 C188 C 0.81252 0.30492 0.22914
 C189 C 0.79963 0.31865 0.25555
 C190 C 0.78160 0.30145 0.27009
 N191 N 0.78323 0.27775 0.25335
 C192 C 0.76529 0.30742 0.29929
 C193 C 0.74384 0.29166 0.30967
 C194 C 0.72983 0.29482 0.34067
 C195 C 0.70957 0.27717 0.33967
 C196 C 0.71187 0.26376 0.30811
 N197 N 0.73279 0.27269 0.28977
 C198 C 0.69362 0.24513 0.29567
 C199 C 0.69807 0.22952 0.26543
 C200 C 0.67864 0.21562 0.24806
 C201 C 0.69112 0.20241 0.22086
 C202 C 0.71787 0.20846 0.22253
 N203 N 0.72195 0.22487 0.24991
 C204 C 0.73787 0.19792 0.20004
 H205 H 0.78558 0.17698 0.16734
 H206 H 0.82484 0.21037 0.16962
 H207 H 0.74034 0.23035 0.25962
 H208 H 0.82813 0.31256 0.21282
 H209 H 0.80333 0.33892 0.26337
 H210 H 0.73369 0.30857 0.36172
 H211 H 0.69469 0.27466 0.35974
 H212 H 0.68155 0.18975 0.20206
 H213 H 0.77434 0.26032 0.26125
 H214 H 0.65763 0.21512 0.25427
 C215 C 0.28710 0.68977 0.31377
 C216 C 0.30739 0.70736 0.31247
 C217 C 0.29760 0.72967 0.29453
 N218 N 0.27188 0.72637 0.28523
 C219 C 0.26540 0.70199 0.29701
 C220 C 0.31150 0.75349 0.28999
 C221 C 0.30209 0.77487 0.26860
 C222 C 0.31246 0.80018 0.26822
 C223 C 0.29862 0.81463 0.24305
 C224 C 0.28031 0.79771 0.22855
 N225 N 0.28277 0.77345 0.24399
 C226 C 0.26280 0.80458 0.20071
 C227 C 0.24142 0.78876 0.19022
 C228 C 0.22641 0.79301 0.16011
 C229 C 0.20653 0.77493 0.16079
 C230 C 0.20997 0.76029 0.19137
 N231 N 0.23131 0.76879 0.20935
 C232 C 0.19229 0.74096 0.20347
 C233 C 0.19774 0.72440 0.23276
 C234 C 0.17892 0.70983 0.25027
 C235 C 0.19223 0.69604 0.27652
 C236 C 0.21887 0.70239 0.27414
 N237 N 0.22206 0.71956 0.24723
 C238 C 0.23953 0.69158 0.29568
 H239 H 0.28812 0.67035 0.32622
 H240 H 0.32695 0.70417 0.32399
 H241 H 0.24012 0.72556 0.23714
 H242 H 0.32844 0.80752 0.28421
 H243 H 0.30182 0.83520 0.23608
 H244 H 0.22934 0.80777 0.13988
 H245 H 0.19110 0.77303 0.14120
 H246 H 0.18325 0.68284 0.29522
 H247 H 0.27372 0.75622 0.23577
 H248 H 0.15777 0.70933 0.24485
 C249 C 0.72304 0.29306 0.66018
 C250 C 0.70362 0.27450 0.66125
 C251 C 0.70776 0.25992 0.69176
 N252 N 0.72904 0.26894 0.70935
 C253 C 0.73844 0.28917 0.69003
 C254 C 0.69070 0.24018 0.70421
 C255 C 0.69683 0.22367 0.73329
 C256 C 0.67855 0.20867 0.75116
 C257 C 0.69249 0.19498 0.77695
 C258 C 0.71895 0.20181 0.77387
 N259 N 0.72143 0.21919 0.74704
 C260 C 0.74014 0.19122 0.79468
 C261 C 0.76579 0.20214 0.79526
 C262 C 0.78805 0.19023 0.81110
 C263 C 0.80792 0.20827 0.80934
 C264 C 0.79730 0.23053 0.79205
 N265 N 0.77151 0.22677 0.78360
 C266 C 0.81056 0.25473 0.78744
 C267 C 0.80031 0.27612 0.76674
 C268 C 0.81002 0.30171 0.76660
 C269 C 0.79551 0.31607 0.74199
 C270 C 0.77749 0.29881 0.72756
 N271 N 0.78074 0.27446 0.74254
 C272 C 0.75953 0.30548 0.70015
 H273 H 0.72541 0.30788 0.63989
 H274 H 0.68803 0.27223 0.64197
 H275 H 0.77208 0.25704 0.73421
 H276 H 0.65734 0.20781 0.74626
 H277 H 0.68404 0.18153 0.79578
 H278 H 0.78971 0.17073 0.82324
 H279 H 0.82774 0.20540 0.82016
 H280 H 0.79810 0.33681 0.73532
 H281 H 0.73919 0.22554 0.73643
 H282 H 0.82601 0.30929 0.78237
 C283 C 0.28372 0.68932 0.68580
 C284 C 0.30377 0.70723 0.68651
 C285 C 0.29380 0.72959 0.70395
 N286 N 0.26821 0.72606 0.71340
 C287 C 0.26197 0.70146 0.70229
 C288 C 0.30750 0.75355 0.70819
 C289 C 0.29829 0.77469 0.72986
 C290 C 0.30856 0.80004 0.73025
 C291 C 0.29551 0.81397 0.75637
 C292 C 0.27777 0.79671 0.77140
 N293 N 0.27972 0.77278 0.75522
 C294 C 0.26148 0.80284 0.80059
 C295 C 0.24013 0.78697 0.81103
 C296 C 0.22603 0.79014 0.84195
 C297 C 0.20596 0.77227 0.84100
 C298 C 0.20849 0.75870 0.80958
 N299 N 0.22934 0.76776 0.79125
 C300 C 0.19049 0.73980 0.79722
 C301 C 0.19537 0.72377 0.76747
 C302 C 0.17622 0.70948 0.75012
 C303 C 0.18912 0.69573 0.72370
 C304 C 0.21585 0.70183 0.72582
 N305 N 0.21948 0.71888 0.75267
 C306 C 0.23627 0.69071 0.70436
 H307 H 0.28497 0.66973 0.67404
 H308 H 0.32333 0.70416 0.67513
 H309 H 0.23770 0.72460 0.76268
 H310 H 0.32406 0.80768 0.71377
 H311 H 0.29893 0.83441 0.76368
 H312 H 0.22971 0.80399 0.86294
 H313 H 0.19106 0.76970 0.86104
 H314 H 0.17983 0.68269 0.70512
 H315 H 0.27113 0.75531 0.76358
 H316 H 0.15514 0.70903 0.75588
 C317 C 0.28413 0.30415 0.68219
 C318 C 0.30441 0.28518 0.68222
 C319 C 0.29511 0.26329 0.70009
 N320 N 0.26965 0.26813 0.71042
 C321 C 0.26286 0.29308 0.69942
 C322 C 0.30911 0.23854 0.70384
 C323 C 0.30061 0.21793 0.72608
 C324 C 0.31100 0.19195 0.72624
 C325 C 0.29861 0.17877 0.75293
 C326 C 0.28115 0.19709 0.76853
 N327 N 0.28263 0.22093 0.75217
 C328 C 0.26550 0.19191 0.79830
 C329 C 0.24437 0.20911 0.80944
 C330 C 0.23124 0.20702 0.84112
 C331 C 0.21082 0.22585 0.84060
 C332 C 0.21212 0.23879 0.80858
 N333 N 0.23265 0.22853 0.78958
 C334 C 0.19324 0.25813 0.79623
 C335 C 0.19743 0.27376 0.76605
 C336 C 0.17773 0.28854 0.74851
 C337 C 0.19010 0.30176 0.72182
 C338 C 0.21703 0.29476 0.72385
 N339 N 0.22133 0.27774 0.75095
 C340 C 0.23701 0.30505 0.70207
 H341 H 0.28489 0.32371 0.67028
 H342 H 0.32366 0.28727 0.67006
 H343 H 0.23982 0.27147 0.76085
 H344 H 0.32617 0.18337 0.70924
 H345 H 0.30228 0.15810 0.76020
 H346 H 0.23577 0.19323 0.86230
 H347 H 0.19649 0.22943 0.86130
 H348 H 0.18033 0.31504 0.70307
 H349 H 0.27409 0.23889 0.76076
 H350 H 0.15663 0.28968 0.75431
 C351 C 0.78608 0.80379 0.82090
 C352 C 0.80578 0.78431 0.81902
 C353 C 0.79537 0.76343 0.80026
 N354 N 0.76981 0.76942 0.79107
 C355 C 0.76407 0.79408 0.80370
 C356 C 0.80851 0.73842 0.79485
 C357 C 0.79839 0.71853 0.77279
 C358 C 0.80772 0.69220 0.77168
 C359 C 0.79347 0.67981 0.74598
 C360 C 0.77600 0.69895 0.73184
 N361 N 0.77931 0.72253 0.74808
 C362 C 0.75855 0.69465 0.70348
 C363 C 0.73803 0.71301 0.69327
 C364 C 0.72355 0.71149 0.66246
 C365 C 0.70435 0.73152 0.66364
 C366 C 0.70763 0.74453 0.69524
 N367 N 0.72825 0.73318 0.71332
 C368 C 0.69040 0.76506 0.70809
 C369 C 0.69612 0.78001 0.73829
 C370 C 0.67766 0.79574 0.75643
 C371 C 0.69125 0.80744 0.78335
 C372 C 0.71768 0.79868 0.78073
 N373 N 0.72049 0.78208 0.75308
 C374 C 0.73858 0.80699 0.80265
 H375 H 0.78767 0.82276 0.83402
 H376 H 0.82535 0.78536 0.83074
 H377 H 0.73840 0.77478 0.74273
 H378 H 0.82329 0.68284 0.78753
 H379 H 0.79589 0.65911 0.73838
 H380 H 0.72641 0.69730 0.64142
 H381 H 0.68948 0.73580 0.64367
 H382 H 0.68260 0.82089 0.80260
 H383 H 0.77104 0.74087 0.74031
 H384 H 0.65657 0.79841 0.75095
 C385 C 0.27688 0.10009 0.11170
 C386 C 0.30142 0.08849 0.10114
 C387 C 0.30177 0.06645 0.07887
 C388 C 0.27780 0.05583 0.06718
 C389 C 0.25374 0.06755 0.07913
 N390 N 0.25391 0.08903 0.10070
 C391 C 0.27498 0.12405 0.13428
 N392 N 0.25193 0.12910 0.15214
 C393 C 0.24806 0.15119 0.17221
 C394 C 0.26797 0.17004 0.17475
 C395 C 0.29191 0.16535 0.15673
 C396 C 0.29552 0.14241 0.13644
 H397 H 0.32080 0.05792 0.07053
 H398 H 0.23478 0.05992 0.07102
 H399 H 0.22933 0.15423 0.18584
 H400 H 0.30757 0.17968 0.15794
 H401 H 0.32017 0.09610 0.11001
 H402 H 0.31385 0.13967 0.12191
 C403 C 0.76418 0.59952 0.62018
 C404 C 0.74096 0.58770 0.60788
 C405 C 0.74300 0.56676 0.58410
 C406 C 0.76807 0.55747 0.57235
 C407 C 0.79083 0.56968 0.58540
 N408 N 0.78833 0.59023 0.60843
 C409 C 0.76297 0.62280 0.64390
 N410 N 0.78320 0.64027 0.64336
 C411 C 0.78269 0.66288 0.66296
 C412 C 0.76077 0.66898 0.68440
 C413 C 0.74015 0.65091 0.68632
 C414 C 0.74120 0.62775 0.66629
 H415 H 0.72490 0.55808 0.57455
 H416 H 0.81055 0.56325 0.57689
 H417 H 0.79901 0.67640 0.66113
 H418 H 0.72309 0.65498 0.70300
 H419 H 0.72132 0.59499 0.61554
 H420 H 0.72512 0.61400 0.66841
 C421 C 0.72642 0.90773 0.12757
 C422 C 0.70191 0.91651 0.11316
 C423 C 0.70117 0.93741 0.08884
 C424 C 0.72487 0.94941 0.07849
 C425 C 0.74885 0.94042 0.09441
 N426 N 0.74898 0.92014 0.11796
 C427 C 0.72853 0.88431 0.15126
 N428 N 0.70775 0.86763 0.15441
 C429 C 0.70965 0.84466 0.17342
 C430 C 0.73367 0.83722 0.19011
 C431 C 0.75501 0.85447 0.18821
 C432 C 0.75254 0.87797 0.16881
 H433 H 0.68215 0.94363 0.07751
 H434 H 0.76765 0.94910 0.08776
 H435 H 0.69277 0.83180 0.17454
 H436 H 0.77377 0.84933 0.20102
 H437 H 0.68356 0.90711 0.12021
 H438 H 0.76947 0.89074 0.16701
 C439 C 0.22107 0.39755 0.61483
 C440 C 0.20030 0.41692 0.61686
 C441 C 0.20004 0.43870 0.59388
 C442 C 0.22081 0.44142 0.56978
 C443 C 0.24129 0.42175 0.56896
 N444 N 0.24075 0.40047 0.59089
 C445 C 0.22217 0.37379 0.63755
 N446 N 0.23062 0.35006 0.62366
 C447 C 0.23417 0.32771 0.64345
 C448 C 0.23030 0.32876 0.67976
 C449 C 0.22112 0.35291 0.69459
 C450 C 0.21677 0.37545 0.67348
 H451 H 0.18384 0.45347 0.59510
 H452 H 0.25745 0.42299 0.55038
 H453 H 0.24091 0.30934 0.63105
 H454 H 0.21798 0.35443 0.72253
 H455 H 0.18423 0.41492 0.63543
 H456 H 0.21043 0.39419 0.68530
 C457 C 0.90313 0.26600 0.11868
 C458 C 0.92074 0.24393 0.11455
 C459 C 0.94096 0.24486 0.08969
 C460 C 0.94388 0.26778 0.06912
 C461 C 0.92608 0.28957 0.07435
 N462 N 0.90622 0.28802 0.09836
 C463 C 0.88032 0.26518 0.14298
 N464 N 0.85714 0.27849 0.13428
 C465 C 0.83491 0.27736 0.15439
 C466 C 0.83532 0.26222 0.18524
 C467 C 0.85912 0.24903 0.19538
 C468 C 0.88169 0.25042 0.17429
 H469 H 0.95422 0.22758 0.08644
 H470 H 0.92755 0.30755 0.05886
 H471 H 0.81678 0.28783 0.14602
 H472 H 0.86000 0.23726 0.21917
 H473 H 0.91847 0.22581 0.12953
 H474 H 0.89993 0.24005 0.18240
 C475 C 0.40021 0.76291 0.62187
 C476 C 0.41855 0.74143 0.61773
 C477 C 0.43906 0.74332 0.59341
 C478 C 0.44155 0.76662 0.57345
 C479 C 0.42298 0.78776 0.57866
 N480 N 0.40287 0.78529 0.60210
 C481 C 0.37722 0.76117 0.64573
 N482 N 0.35374 0.77380 0.63677
 C483 C 0.33145 0.77206 0.65665
 C484 C 0.33214 0.75704 0.68761
 C485 C 0.35621 0.74448 0.69796
 C486 C 0.37881 0.74642 0.67703
 H487 H 0.45293 0.72652 0.59015
 H488 H 0.42409 0.80600 0.56361
 H489 H 0.31312 0.78206 0.64812
 H490 H 0.35732 0.73285 0.72186
 H491 H 0.41666 0.72307 0.63231
 H492 H 0.39729 0.73659 0.68533
 C493 C 0.09629 0.73705 0.12152
 C494 C 0.08305 0.76042 0.10942
 C495 C 0.06232 0.75869 0.08525
 C496 C 0.05462 0.73374 0.07274
 C497 C 0.06823 0.71081 0.08583
 N498 N 0.08850 0.71306 0.10924
 C499 C 0.11960 0.73785 0.14541
 N500 N 0.13771 0.71699 0.14541
 C501 C 0.16045 0.71702 0.16487
 C502 C 0.16615 0.73915 0.18550
 C503 C 0.14741 0.76041 0.18705
 C504 C 0.12406 0.75981 0.16723
 H505 H 0.05267 0.77702 0.07597
 H506 H 0.06314 0.69110 0.07709
 H507 H 0.17448 0.70022 0.16333
 H508 H 0.15117 0.77767 0.20308
 H509 H 0.08906 0.77998 0.11747
 H510 H 0.10987 0.77643 0.16901
 C511 C 0.59530 0.23567 0.62191
 C512 C 0.58153 0.25910 0.61103
 C513 C 0.56134 0.25766 0.58606
 C514 C 0.55479 0.23300 0.57171
 C515 C 0.56883 0.21001 0.58350
 N516 N 0.58857 0.21193 0.60771
 C517 C 0.61824 0.23627 0.64633
 N518 N 0.63702 0.21604 0.64520
 C519 C 0.65966 0.21617 0.66481
 C520 C 0.66452 0.23780 0.68672
 C521 C 0.64507 0.25830 0.68953
 C522 C 0.62181 0.25755 0.66959
 H523 H 0.55116 0.27594 0.57760
 H524 H 0.56448 0.19059 0.57308
 H525 H 0.67431 0.19998 0.66228
 H526 H 0.64824 0.27515 0.70652
 H527 H 0.58674 0.27851 0.62059
 H528 H 0.60706 0.27360 0.67225
 C529 C 0.73033 0.10106 0.88583
 C530 C 0.75204 0.09513 0.90793
 C531 C 0.75142 0.07304 0.92994
 C532 C 0.72901 0.05706 0.93047
 C533 C 0.70779 0.06342 0.90757
 N534 N 0.70902 0.08493 0.88583
 C535 C 0.73046 0.12485 0.86321
 N536 N 0.72492 0.12278 0.82846
 C537 C 0.72700 0.14386 0.80620
 C538 C 0.73505 0.16861 0.81881
 C539 C 0.73961 0.17136 0.85479
 C540 C 0.73761 0.14949 0.87698
 H541 H 0.76814 0.06894 0.94733
 H542 H 0.69023 0.05145 0.90712
 H543 H 0.72311 0.14114 0.77860
 H544 H 0.74550 0.19027 0.86547
 H545 H 0.76932 0.10753 0.90814
 H546 H 0.74185 0.15168 0.90461
 C547 C 0.22729 0.60191 0.38698
 C548 C 0.24822 0.59638 0.41050
 C549 C 0.24741 0.57397 0.43194
 C550 C 0.22558 0.55726 0.43048
 C551 C 0.20506 0.56335 0.40639
 N552 N 0.20652 0.58515 0.38520
 C553 C 0.22784 0.62568 0.36433
 N554 N 0.22306 0.62347 0.32939
 C555 C 0.22568 0.64444 0.30708
 C556 C 0.23360 0.66920 0.31981
 C557 C 0.23733 0.67212 0.35593
 C558 C 0.23473 0.65037 0.37820
 H559 H 0.26357 0.57006 0.45028
 H560 H 0.18798 0.55081 0.40440
 H561 H 0.22242 0.64160 0.27936
 H562 H 0.24309 0.69106 0.36667
 H563 H 0.26512 0.60921 0.41210
 H564 H 0.23834 0.65270 0.40595
 C565 C 0.27632 0.89664 0.88403
 C566 C 0.30091 0.90598 0.89558
 C567 C 0.30144 0.92779 0.91818
 C568 C 0.27755 0.94050 0.92935
 C569 C 0.25343 0.93097 0.91624
 N570 N 0.25347 0.90965 0.89440
 C571 C 0.27419 0.87294 0.86122
 N572 N 0.25121 0.86985 0.84283
 C573 C 0.24704 0.84808 0.82272
 C574 C 0.26653 0.82748 0.82075
 C575 C 0.29044 0.83018 0.83918
 C576 C 0.29437 0.85284 0.85948
 H577 H 0.32060 0.93448 0.92712
 H578 H 0.23446 0.94013 0.92367
 H579 H 0.22836 0.84660 0.80874
 H580 H 0.30577 0.81449 0.83841
 H581 H 0.31960 0.89680 0.88722
 H582 H 0.31262 0.85400 0.87441
 C583 C 0.77839 0.40082 0.38353
 C584 C 0.80238 0.40959 0.39792
 C585 C 0.80180 0.43115 0.42102
 C586 C 0.77748 0.44404 0.42969
 C587 C 0.75412 0.43516 0.41388
 N588 N 0.75517 0.41411 0.39166
 C589 C 0.77710 0.37736 0.36024
 N590 N 0.75472 0.37455 0.34052
 C591 C 0.75095 0.35285 0.32019
 C592 C 0.77021 0.33204 0.31940
 C593 C 0.79359 0.33446 0.33905
 C594 C 0.79714 0.35708 0.35957
 H595 H 0.82033 0.43750 0.43241
 H596 H 0.73494 0.44464 0.41953
 H597 H 0.73270 0.35156 0.30522
 H598 H 0.80872 0.31857 0.33912
 H599 H 0.82139 0.40014 0.39151
 H600 H 0.81489 0.35802 0.37552
 C601 C 0.09763 0.26744 0.87847
 C602 C 0.08745 0.29218 0.89037
 C603 C 0.06623 0.29302 0.91402
 C604 C 0.05532 0.26924 0.92625
 C605 C 0.06597 0.24496 0.91319
 N606 N 0.08646 0.24473 0.89011
 C607 C 0.12094 0.26545 0.85480
 N608 N 0.13686 0.28671 0.85036
 C609 C 0.15951 0.28513 0.83089
 C610 C 0.16737 0.26102 0.81490
 C611 C 0.15089 0.23915 0.81822
 C612 C 0.12776 0.24124 0.83821
 H613 H 0.05875 0.31227 0.92316
 H614 H 0.05824 0.22605 0.92145
 H615 H 0.17175 0.30242 0.82868
 H616 H 0.15630 0.22031 0.80594
 H617 H 0.09586 0.31065 0.88165
 H618 H 0.11555 0.22396 0.84102
 C619 C 0.60053 0.77600 0.38927
 C620 C 0.58012 0.79573 0.38660
 C621 C 0.55856 0.79525 0.40968
 C622 C 0.55711 0.77481 0.43468
 C623 C 0.57786 0.75543 0.43627
 N624 N 0.59887 0.75666 0.41411
 C625 C 0.62398 0.77558 0.36614
 N626 N 0.64807 0.76757 0.37960
 C627 C 0.67023 0.76483 0.35947
 C628 C 0.66865 0.76922 0.32325
 C629 C 0.64411 0.77790 0.30885
 C630 C 0.62174 0.78133 0.33028
 H631 H 0.54293 0.81060 0.40779
 H632 H 0.57762 0.73955 0.45548
 H633 H 0.68890 0.75842 0.37153
 H634 H 0.64218 0.78139 0.28098
 H635 H 0.58109 0.81156 0.36738
 H636 H 0.60274 0.78728 0.31873
 C637 C 0.90141 0.72384 0.88147
 C638 C 0.90823 0.70095 0.90118
 C639 C 0.92961 0.70146 0.92459
 C640 C 0.94399 0.72478 0.92867
 C641 C 0.93693 0.74700 0.90782
 N642 N 0.91616 0.74597 0.88502
 C643 C 0.87805 0.72496 0.85787
 N644 N 0.87864 0.74055 0.82866
 C645 C 0.85713 0.74404 0.80723
 C646 C 0.83304 0.73218 0.81549
 C647 C 0.83196 0.71594 0.84527
 C648 C 0.85449 0.71207 0.86638
 H649 H 0.93447 0.68386 0.94011
 H650 H 0.94772 0.76528 0.90987
 H651 H 0.85849 0.75684 0.78451
 H652 H 0.81351 0.70679 0.85253
 H653 H 0.89717 0.68288 0.89856
 H654 H 0.85308 0.70014 0.88990
 C655 C 0.40238 0.22537 0.37691
 C656 C 0.40949 0.20218 0.39582
 C657 C 0.43076 0.20255 0.41939
 C658 C 0.44472 0.22603 0.42440
 C659 C 0.43738 0.24858 0.40434
 N660 N 0.41673 0.24767 0.38135
 C661 C 0.37914 0.22653 0.35319
 N662 N 0.37972 0.24238 0.32424
 C663 C 0.35831 0.24574 0.30263
 C664 C 0.33437 0.23343 0.31044
 C665 C 0.33330 0.21697 0.34000
 C666 C 0.35572 0.21326 0.36131
 H667 H 0.43584 0.18470 0.43430
 H668 H 0.44786 0.26698 0.40714
 H669 H 0.35963 0.25871 0.28006
 H670 H 0.31496 0.20747 0.34688
 H671 H 0.39875 0.18399 0.39246
 H672 H 0.35436 0.20110 0.38462
 C673 C 0.72862 0.89652 0.89518
 C674 C 0.74906 0.89975 0.91972
 C675 C 0.74872 0.92232 0.94084
 C676 C 0.72781 0.94143 0.93801
 C677 C 0.70773 0.93751 0.91308
 N678 N 0.70876 0.91555 0.89222
 C679 C 0.72883 0.87297 0.87228
 N680 N 0.72412 0.87604 0.83738
 C681 C 0.72618 0.85515 0.81478
 C682 C 0.73335 0.82954 0.82717
 C683 C 0.73700 0.82581 0.86324
 C684 C 0.73501 0.84750 0.88582
 H685 H 0.76453 0.92459 0.95983
 H686 H 0.69138 0.95196 0.91002
 H687 H 0.72300 0.85865 0.78711
 H688 H 0.74220 0.80623 0.87370
 H689 H 0.76531 0.88512 0.92222
 H690 H 0.73849 0.84448 0.91354
 C691 C 0.22644 0.39622 0.38749
 C692 C 0.24730 0.40008 0.41119
 C693 C 0.24669 0.42254 0.43248
 C694 C 0.22512 0.44098 0.43072
 C695 C 0.20465 0.43651 0.40649
 N696 N 0.20592 0.41463 0.38543
 C697 C 0.22684 0.37250 0.36483
 N698 N 0.22220 0.37521 0.32986
 C699 C 0.22477 0.35418 0.30753
 C700 C 0.23249 0.32878 0.32024
 C701 C 0.23601 0.32540 0.35639
 C702 C 0.23347 0.34723 0.37869
 H703 H 0.26281 0.42517 0.45093
 H704 H 0.18776 0.45039 0.40428
 H705 H 0.22165 0.35741 0.27979
 H706 H 0.24161 0.30600 0.36713
 H707 H 0.26402 0.38593 0.41300
 H708 H 0.23696 0.34449 0.40646
 C709 C 0.27985 0.09621 0.88040
 C710 C 0.30418 0.08484 0.89234
 C711 C 0.30413 0.06310 0.91531
 C712 C 0.27992 0.05258 0.92645
 C713 C 0.25611 0.06400 0.91276
 N714 N 0.25673 0.08516 0.89062
 C715 C 0.27812 0.12012 0.85756
 N716 N 0.25498 0.12529 0.83974
 C717 C 0.25088 0.14762 0.82004
 C718 C 0.27061 0.16666 0.81795
 C719 C 0.29475 0.16179 0.83568
 C720 C 0.29861 0.13855 0.85556
 H721 H 0.32305 0.05487 0.92473
 H722 H 0.23691 0.05654 0.92008
 H723 H 0.23204 0.15077 0.80654
 H724 H 0.31029 0.17625 0.83473
 H725 H 0.32308 0.09246 0.88415
 H726 H 0.31703 0.13571 0.87003
 C727 C 0.77640 0.60055 0.38253
 C728 C 0.79913 0.59475 0.40302
 C729 C 0.79923 0.57311 0.42609
 C730 C 0.77669 0.55743 0.42897
 C731 C 0.75468 0.56348 0.40728
 N732 N 0.75510 0.58455 0.38490
 C733 C 0.77452 0.62406 0.35920
 N734 N 0.75914 0.62305 0.32985
 C735 C 0.75512 0.64451 0.30845
 C736 C 0.76631 0.66891 0.31680
 C737 C 0.78224 0.67048 0.34680
 C738 C 0.78656 0.64805 0.36797
 H739 H 0.81665 0.56906 0.44227
 H740 H 0.73702 0.55169 0.40838
 H741 H 0.74262 0.64277 0.28550
 H742 H 0.79092 0.68917 0.35404
 H743 H 0.81661 0.60675 0.40129
 H744 H 0.79829 0.64981 0.39160
 C745 C 0.09596 0.73568 0.88103
 C746 C 0.08299 0.75915 0.89295
 C747 C 0.06258 0.75761 0.91739
 C748 C 0.05493 0.73276 0.93043
 C749 C 0.06836 0.70971 0.91769
 N750 N 0.08832 0.71177 0.89391
 C751 C 0.11882 0.73639 0.85660
 N752 N 0.13704 0.71563 0.85662
 C753 C 0.15946 0.71572 0.83670
 C754 C 0.16466 0.73781 0.81562
 C755 C 0.14580 0.75894 0.81407
 C756 C 0.12277 0.75825 0.83428
 H757 H 0.05309 0.77604 0.92640
 H758 H 0.06331 0.69009 0.92688
 H759 H 0.17364 0.69902 0.83824
 H760 H 0.14921 0.77616 0.79771
 H761 H 0.08895 0.77865 0.88449
 H762 H 0.10843 0.77476 0.83245
 C763 C 0.59863 0.23940 0.37860
 C764 C 0.58494 0.26248 0.39056
 C765 C 0.56414 0.26021 0.41433
 C766 C 0.55689 0.23507 0.42655
 C767 C 0.57098 0.21246 0.41394
 N768 N 0.59129 0.21517 0.39081
 C769 C 0.62182 0.24080 0.35477
 N770 N 0.64007 0.22007 0.35430
 C771 C 0.66262 0.22056 0.33467
 C772 C 0.66792 0.24304 0.31436
 C773 C 0.64910 0.26423 0.31342
 C774 C 0.62594 0.26314 0.33335
 H775 H 0.55400 0.27824 0.42353
 H776 H 0.56613 0.19268 0.42276
 H777 H 0.67675 0.20381 0.33571
 H778 H 0.65257 0.28173 0.29762
 H779 H 0.59057 0.28222 0.38269
 H780 H 0.61162 0.27967 0.33186
 C781 C 0.90362 0.26327 0.87361
 C782 C 0.92142 0.24138 0.87836
 C783 C 0.94162 0.24274 0.90337
 C784 C 0.94435 0.26594 0.92328
 C785 C 0.92641 0.28754 0.91732
 N786 N 0.90655 0.28555 0.89331
 C787 C 0.88069 0.26200 0.84950
 N788 N 0.85733 0.27473 0.85845
 C789 C 0.83497 0.27326 0.83851
 C790 C 0.83546 0.25842 0.80753
 C791 C 0.85945 0.24585 0.79712
 C792 C 0.88213 0.24749 0.81813
 H793 H 0.95504 0.22562 0.90723
 H794 H 0.92773 0.30572 0.93231
 H795 H 0.81671 0.28323 0.84713
 H796 H 0.86038 0.23430 0.77324
 H797 H 0.91926 0.22310 0.86380
 H798 H 0.90052 0.23754 0.80994
 C799 C 0.40375 0.76224 0.37813
 C800 C 0.42204 0.74077 0.38315
 C801 C 0.44214 0.74269 0.40827
 C802 C 0.44428 0.76603 0.42809
 C803 C 0.42584 0.78718 0.42187
 N804 N 0.40614 0.78466 0.39773
 C805 C 0.38097 0.76052 0.35373
 N806 N 0.35761 0.77363 0.36182
 C807 C 0.33548 0.77212 0.34146
 C808 C 0.33616 0.75686 0.31083
 C809 C 0.36013 0.74378 0.30135
 C810 C 0.38259 0.74547 0.32280
 H811 H 0.45591 0.72588 0.41232
 H812 H 0.42665 0.80546 0.43676
 H813 H 0.31724 0.78248 0.34940
 H814 H 0.36124 0.73189 0.27775
 H815 H 0.42037 0.72237 0.36871
 H816 H 0.40097 0.73522 0.31518
 C817 C 0.27027 0.90067 0.11978
 C818 C 0.24719 0.91538 0.10976
 C819 C 0.24906 0.93617 0.08575
 C820 C 0.27381 0.94245 0.07150
 C821 C 0.29649 0.92750 0.08246
 N822 N 0.29414 0.90713 0.10573
 C823 C 0.26899 0.87722 0.14330
 N824 N 0.28805 0.85734 0.14064
 C825 C 0.28710 0.83441 0.15965
 C826 C 0.26587 0.83048 0.18260
 C827 C 0.24658 0.85099 0.18676
 C828 C 0.24813 0.87444 0.16737
 H829 H 0.23101 0.94703 0.07791
 H830 H 0.31595 0.93158 0.07198
 H831 H 0.30241 0.81896 0.15610
 H832 H 0.23010 0.84858 0.20461
 H833 H 0.22769 0.91043 0.11926
 H834 H 0.23305 0.89005 0.17119
 C835 C 0.76522 0.40214 0.61993
 C836 C 0.74194 0.41599 0.60871
 C837 C 0.74379 0.43711 0.58518
 C838 C 0.76871 0.44457 0.57265
 C839 C 0.79155 0.43042 0.58474
 N840 N 0.78923 0.40972 0.60749
 C841 C 0.76414 0.37848 0.64307
 N842 N 0.78400 0.35935 0.64119
 C843 C 0.78347 0.33632 0.66003
 C844 C 0.76189 0.33150 0.68205
 C845 C 0.74170 0.35124 0.68540
 C846 C 0.74279 0.37480 0.66612
 H847 H 0.72563 0.44732 0.57640
 H848 H 0.81116 0.43541 0.57560
 H849 H 0.79946 0.32149 0.65711
 H850 H 0.72493 0.34817 0.70255
 H851 H 0.72238 0.41013 0.61695
 H852 H 0.72703 0.38981 0.66928
 C853 C 0.72501 0.10856 0.10949
 C854 C 0.74587 0.10363 0.08587
 C855 C 0.74599 0.08069 0.06553
 C856 C 0.72514 0.06289 0.06817
 C857 C 0.70453 0.06854 0.09203
 N858 N 0.70512 0.09083 0.11226
 C859 C 0.72508 0.13239 0.13183
 N860 N 0.72112 0.12997 0.16690
 C861 C 0.72391 0.15089 0.18907
 C862 C 0.73127 0.17579 0.17606
 C863 C 0.73404 0.17896 0.13984
 C864 C 0.73118 0.15727 0.11768
 H865 H 0.76218 0.07709 0.04729
 H866 H 0.68820 0.05513 0.09485
 H867 H 0.72139 0.14788 0.21690
 H868 H 0.73936 0.19801 0.12892
 H869 H 0.76213 0.11720 0.08358
 H870 H 0.73419 0.15974 0.08983
 C871 C 0.22172 0.59979 0.61599
 C872 C 0.20083 0.58188 0.61768
 C873 C 0.20046 0.56044 0.59433
 C874 C 0.22121 0.55656 0.57018
 C875 C 0.24182 0.57478 0.56971
 N876 N 0.24139 0.59581 0.59199
 C877 C 0.22285 0.62321 0.63906
 N878 N 0.23134 0.64656 0.62553
 C879 C 0.23459 0.66852 0.64559
 C880 C 0.23026 0.66743 0.68180
 C881 C 0.22118 0.64364 0.69627
 C882 C 0.21718 0.62154 0.67490
 H883 H 0.18418 0.54681 0.59532
 H884 H 0.25798 0.57264 0.55113
 H885 H 0.24132 0.68662 0.63345
 H886 H 0.21774 0.64206 0.72414
 H887 H 0.18476 0.58476 0.63625
 H888 H 0.21081 0.60308 0.68645
 C889 C 0.89884 0.72692 0.11710
 C890 C 0.91033 0.70260 0.10545
 C891 C 0.93211 0.70275 0.08275
 C892 C 0.94253 0.72699 0.07172
 C893 C 0.93094 0.75078 0.08476
 N894 N 0.90974 0.75012 0.10670
 C895 C 0.87511 0.72845 0.14006
 N896 N 0.87010 0.75138 0.15825
 C897 C 0.84809 0.75511 0.17845
 C898 C 0.82924 0.73520 0.18077
 C899 C 0.83393 0.71132 0.16255
 C900 C 0.85681 0.70784 0.14213
 H901 H 0.94056 0.68392 0.07352
 H902 H 0.93843 0.76994 0.07721
 H903 H 0.84509 0.77376 0.19230
 H904 H 0.81961 0.69564 0.16364
 H905 H 0.90281 0.68365 0.11376
 H906 H 0.85953 0.68960 0.12740
 C907 C 0.40045 0.22535 0.61475
 C908 C 0.40699 0.20242 0.59518
 C909 C 0.42848 0.20267 0.57205
 C910 C 0.44319 0.22579 0.56812
 C911 C 0.43633 0.24807 0.58873
 N912 N 0.41551 0.24727 0.61129
 C913 C 0.37728 0.22665 0.63845
 N914 N 0.37832 0.24205 0.66767
 C915 C 0.35716 0.24539 0.68952
 C916 C 0.33300 0.23345 0.68179
 C917 C 0.33141 0.21753 0.65187
 C918 C 0.35357 0.21389 0.63025
 H919 H 0.43319 0.18504 0.55668
 H920 H 0.44739 0.26619 0.58678
 H921 H 0.35892 0.25789 0.71239
 H922 H 0.31290 0.20827 0.64508
 H923 H 0.39571 0.18449 0.59777
 H924 H 0.35182 0.20208 0.60675
 C925 C 0.09775 0.27416 0.11709
 C926 C 0.08583 0.29818 0.10484
 C927 C 0.06485 0.29744 0.08082
 C928 C 0.05559 0.27290 0.06911
 C929 C 0.06749 0.24941 0.08281
 N930 N 0.08796 0.25064 0.10598
 C931 C 0.12101 0.27327 0.14103
 N932 N 0.12684 0.25011 0.15856
 C933 C 0.14892 0.24674 0.17889
 C934 C 0.16705 0.26727 0.18186
 C935 C 0.16134 0.29150 0.16475
 C936 C 0.13837 0.29462 0.14425
 H937 H 0.05606 0.31606 0.07119
 H938 H 0.06085 0.23004 0.07478
 H939 H 0.15277 0.22779 0.19187
 H940 H 0.17513 0.30763 0.16635
 H941 H 0.09241 0.31735 0.11363
 H942 H 0.13503 0.31311 0.13009
 C943 C 0.59503 0.77750 0.62538
 C944 C 0.58374 0.80142 0.61188
 C945 C 0.56282 0.80050 0.58771
 C946 C 0.55305 0.77588 0.57706
 C947 C 0.56430 0.75255 0.59209
 N948 N 0.58469 0.75395 0.61536
 C949 C 0.61832 0.77661 0.64936
 N950 N 0.62364 0.75372 0.66769
 C951 C 0.64579 0.75015 0.68787
 C952 C 0.66458 0.77015 0.68978
 C953 C 0.65937 0.79418 0.67194
 C954 C 0.63627 0.79753 0.65166
 H955 H 0.55457 0.81901 0.57700
 H956 H 0.55726 0.73313 0.58495
 H957 H 0.64921 0.73138 0.70145
 H958 H 0.67363 0.80992 0.67274
 H959 H 0.59080 0.82064 0.61972
 H960 H 0.63333 0.81580 0.63689
   
