data_POSCAR
  _audit_creation_date              2014-09-24
  _audit_creation_method            'ToBaCCo'
  _symmetry_space_group_name_H-M    'P1'
  _symmetry_Int_Tables_number       1
  _symmetry_cell_setting            triclinic
  loop_
  _symmetry_equiv_pos_as_xyz
 x,y,z
_cell_length_a 46.1104
_cell_length_b 46.3729
_cell_length_c 38.3980
_cell_angle_alpha 90.020900
_cell_angle_beta 90.361400
_cell_angle_gamma 91.440000
loop_
  _atom_site_label
  _atom_site_type_symbol
  _atom_site_fract_x
  _atom_site_fract_y
  _atom_site_fract_z
O1 O -0.02658 0.30728 0.01756
 O2 O 0.03697 0.30560 -0.03960
 O3 O -0.01952 0.30359 -0.04940
 O4 O 0.02962 0.30536 0.02735
 O5 O 0.02699 0.25773 0.02925
 O6 O -0.01965 0.25595 -0.04794
 O7 O 0.03602 0.25800 -0.03786
 O8 O -0.02835 0.25965 0.01915
 Cu9 Cu 0.00525 0.31024 -0.01126
 Cu10 Cu 0.00361 0.25310 -0.00925
 C11 C -0.03823 0.28389 0.02823
 C12 C 0.04748 0.28168 -0.04837
 C13 C -0.02782 0.27923 -0.06164
 C14 C 0.03641 0.28159 0.04138
 O15 O 0.45964 0.79623 0.52897
 O16 O 0.52430 0.79827 0.47430
 O17 O 0.46811 0.79414 0.46243
 O18 O 0.51549 0.79460 0.54096
 O19 O 0.51452 0.74694 0.54007
 O20 O 0.46917 0.74652 0.46189
 O21 O 0.52463 0.75065 0.47320
 O22 O 0.45926 0.74856 0.52889
 Cu23 Cu 0.49194 0.80056 0.50166
 Cu24 Cu 0.49191 0.74344 0.50089
 C25 C 0.44846 0.77229 0.53838
 C26 C 0.53553 0.77505 0.46441
 C27 C 0.46060 0.76994 0.44900
 C28 C 0.52281 0.77054 0.55387
 O29 O 1.01822 0.73067 0.03692
 O30 O 0.96524 0.72960 -0.03568
 O31 O 1.02173 0.72975 -0.03084
 O32 O 0.96161 0.73093 0.03176
 O33 O 0.96087 0.77841 0.02724
 O34 O 1.02532 0.77728 -0.02833
 O35 O 0.96943 0.77707 -0.03926
 O36 O 1.01673 0.77821 0.03827
 Cu37 Cu 0.99161 0.72540 0.00069
 Cu38 Cu 0.99325 0.78253 -0.00062
 C39 C 1.02622 0.75471 0.05025
 C40 C 0.95859 0.75324 -0.05003
 C41 C 1.03424 0.75337 -0.03955
 C42 C 0.95048 0.75491 0.03927
 O43 O 0.53005 0.22274 0.52852
 O44 O 0.47899 0.21046 0.45574
 O45 O 0.53435 0.22187 0.46095
 O46 O 0.47380 0.21442 0.52348
 O47 O 0.46681 0.26128 0.51939
 O48 O 0.52669 0.26861 0.45757
 O49 O 0.47112 0.25723 0.45310
 O50 O 0.52288 0.26958 0.52563
 Cu51 Cu 0.50503 0.21267 0.49261
 Cu52 Cu 0.49636 0.26890 0.48865
 C53 C 0.53533 0.24819 0.53937
 C54 C 0.46616 0.23165 0.44229
 C55 C 0.54060 0.24664 0.44849
 C56 C 0.45975 0.23672 0.53151
 O57 O 0.71737 -0.02660 0.02393
 O58 O 0.73042 0.03555 -0.03321
 O59 O 0.72639 -0.02038 -0.04233
 O60 O 0.72634 0.02870 0.03397
 O61 O 0.77358 0.02315 0.03968
 O62 O 0.77374 -0.02465 -0.03598
 O63 O 0.77773 0.03080 -0.02763
 O64 O 0.76458 -0.03170 0.03070
 Cu65 Cu 0.72042 0.00486 -0.00505
 Cu66 Cu 0.77710 -0.00107 0.00230
 C67 C 0.73855 -0.03969 0.03714
 C68 C 0.75613 0.04379 -0.04042
 C69 C 0.75032 -0.03083 -0.05198
 C70 C 0.75020 0.03404 0.04984
 O71 O 0.20723 0.52268 0.47472
 O72 O 0.20031 0.46391 0.53920
 O73 O 0.20958 0.51977 0.54251
 O74 O 0.19844 0.46683 0.47174
 O75 O 0.24568 0.46014 0.47036
 O76 O 0.25698 0.51478 0.53856
 O77 O 0.24778 0.45870 0.53836
 O78 O 0.25429 0.51534 0.47133
 Cu79 Cu 0.19913 0.49394 0.50737
 Cu80 Cu 0.25593 0.48651 0.50464
 C81 C 0.23195 0.52881 0.46183
 C82 C 0.22285 0.45131 0.54973
 C83 C 0.23527 0.52672 0.55195
 C84 C 0.22024 0.45446 0.45906
 O85 O 0.30715 1.02093 0.04083
 O86 O 0.30837 0.95984 -0.01963
 O87 O 0.31334 1.01607 -0.02586
 O88 O 0.29819 0.96522 0.04653
 O89 O 0.25120 0.96994 0.03735
 O90 O 0.26625 1.01902 -0.03530
 O91 O 0.26129 0.96334 -0.02909
 O92 O 0.26011 1.02527 0.03180
 Cu93 Cu 0.31146 0.99007 0.01136
 Cu94 Cu 0.25503 0.99476 0.00025
 C95 C 0.28365 1.03365 0.04660
 C96 C 0.28522 0.95109 -0.03460
 C97 C 0.29217 1.02627 -0.04287
 C98 C 0.27194 0.95909 0.05422
 O99 O 0.80216 0.53036 0.52966
 O100 O 0.79540 0.47007 0.46709
 O101 O 0.80391 0.52592 0.46234
 O102 O 0.79210 0.47462 0.53457
 O103 O 0.74492 0.48146 0.53122
 O104 O 0.75657 0.53167 0.45870
 O105 O 0.74815 0.47648 0.46369
 O106 O 0.75491 0.53662 0.52613
 Cu107 Cu 0.80315 0.49954 0.49882
 Cu108 Cu 0.74641 0.50716 0.49462
 C109 C 0.77971 0.54383 0.53841
 C110 C 0.77060 0.46311 0.45466
 C111 C 0.78210 0.53749 0.44824
 C112 C 0.76643 0.46936 0.54513
 O113 O 0.23189 0.20838 0.23429
 O114 O 0.23117 0.27773 0.28057
 O115 O 0.20497 0.25660 0.22649
 O116 O 0.25946 0.23098 0.28875
 O117 O 0.29449 0.24689 0.25422
 O118 O 0.23986 0.27404 0.19279
 O119 O 0.26685 0.29446 0.24752
 O120 O 0.26665 0.22531 0.20007
 Cu121 Cu 0.22841 0.24144 0.26084
 Cu122 Cu 0.27050 0.26169 0.22011
 C123 C 0.24905 0.20516 0.20897
 C124 C 0.24898 0.29781 0.27213
 C125 C 0.21311 0.27009 0.19932
 C126 C 0.28623 0.23523 0.28250
 O127 O 0.75137 0.79417 0.24882
 O128 O 0.75632 0.72242 0.28861
 O129 O 0.78715 0.75201 0.24549
 O130 O 0.71929 0.76361 0.29307
 O131 O 0.69412 0.74420 0.24951
 O132 O 0.76165 0.73411 0.20122
 O133 O 0.73107 0.70332 0.24487
 O134 O 0.72534 0.77544 0.20555
 Cu135 Cu 0.75583 0.76021 0.27351
 Cu136 Cu 0.72535 0.73751 0.22090
 C137 C 0.73822 0.79690 0.21994
 C138 C 0.74486 0.70063 0.27335
 C139 C 0.78585 0.74117 0.21517
 C140 C 0.69526 0.75504 0.27981
 O141 O 0.81049 0.23272 0.24701
 O142 O 0.74691 0.22071 0.30252
 O143 O 0.76543 0.19822 0.24514
 O144 O 0.79036 0.25775 0.30294
 O145 O 0.76582 0.28825 0.27074
 O146 O 0.74052 0.22907 0.21380
 O147 O 0.72223 0.25180 0.27125
 O148 O 0.78617 0.26325 0.21458
 Cu149 Cu 0.78086 0.22438 0.27761
 Cu150 Cu 0.75137 0.26130 0.23941
 C151 C 0.80908 0.24940 0.22096
 C152 C 0.72379 0.23410 0.29647
 C153 C 0.74867 0.20361 0.21964
 C154 C 0.78179 0.28312 0.29694
 O155 O 0.24050 0.70249 0.27644
 O156 O 0.26166 0.75997 0.21526
 O157 O 0.28085 0.74274 0.27484
 O158 O 0.21945 0.72150 0.21730
 O159 O 0.19177 0.75205 0.24501
 O160 O 0.25264 0.77268 0.30280
 O161 O 0.23379 0.79039 0.24298
 O162 O 0.21208 0.73229 0.30421
 Cu163 Cu 0.25328 0.72850 0.24321
 Cu164 Cu 0.21964 0.76474 0.27657
 C165 C 0.22302 0.70756 0.30096
 C166 C 0.25165 0.78500 0.21885
 C167 C 0.27720 0.76158 0.29839
 C168 C 0.19526 0.73365 0.22102
 O169 O 0.77218 0.26932 0.70456
 O170 O 0.75569 0.21130 0.76693
 O171 O 0.73214 0.22881 0.70820
 O172 O 0.79374 0.25324 0.76335
 O173 O 0.76471 0.28166 0.79241
 O174 O 0.70359 0.25835 0.73623
 O175 O 0.72598 0.23965 0.79502
 O176 O 0.74363 0.29842 0.73335
 Cu177 Cu 0.76616 0.23758 0.73289
 Cu178 Cu 0.73143 0.27225 0.76720
 C179 C 0.76105 0.29381 0.70854
 C180 C 0.73845 0.21567 0.79190
 C181 C 0.70755 0.24006 0.71224
 C182 C 0.78970 0.27175 0.78714
 O183 O 0.29039 0.73209 0.75466
 O184 O 0.22239 0.72540 0.80379
 O185 O 0.24876 0.69334 0.75918
 O186 O 0.26307 0.76452 0.79954
 O187 O 0.23770 0.78502 0.75777
 O188 O 0.22795 0.71476 0.71445
 O189 O 0.19845 0.74361 0.75921
 O190 O 0.26740 0.75500 0.71277
 Cu191 Cu 0.25867 0.72684 0.78362
 Cu192 Cu 0.23060 0.75189 0.73176
 C193 C 0.29043 0.74448 0.72521
 C194 C 0.19882 0.73300 0.78967
 C195 C 0.23641 0.69209 0.72955
 C196 C 0.25192 0.78674 0.78612
 O197 O 0.27416 0.20892 0.79149
 O198 O 0.26803 0.27953 0.74866
 O199 O 0.23691 0.25022 0.79458
 O200 O 0.30417 0.23731 0.74569
 O201 O 0.27794 0.21822 0.70279
 O202 O 0.21128 0.22901 0.75261
 O203 O 0.24099 0.25959 0.70707
 O204 O 0.24856 0.18851 0.74891
 Cu205 Cu 0.27330 0.24620 0.77437
 Cu206 Cu 0.24208 0.22191 0.72355
 C207 C 0.26252 0.18667 0.77741
 C208 C 0.25370 0.28159 0.72048
 C209 C 0.21272 0.24110 0.78221
 C210 C 0.30240 0.22565 0.71580
 O211 O 0.78363 0.75096 0.76542
 O212 O 0.72434 0.77339 0.70813
 O213 O 0.74802 0.79357 0.76486
 O214 O 0.75765 0.72864 0.71026
 O215 O 0.72603 0.70487 0.74315
 O216 O 0.71657 0.76903 0.79722
 O217 O 0.69277 0.74923 0.74068
 O218 O 0.75254 0.72654 0.79829
 Cu219 Cu 0.75666 0.76394 0.73389
 Cu220 Cu 0.71895 0.73485 0.77310
 C221 C 0.77828 0.73537 0.79186
 C222 C 0.69847 0.76541 0.71474
 C223 C 0.73037 0.79226 0.79020
 C224 C 0.74301 0.70578 0.71734
 C225 C 0.28441 0.05717 0.06918
 C226 C 0.25977 0.07176 0.07940
 C227 C 0.26212 0.09736 0.10202
 N228 N 0.23852 0.10675 0.11920
 N229 N 0.24052 0.13001 0.13959
 C230 C 0.26615 0.14485 0.14330
 N231 N 0.28965 0.13562 0.12586
 N232 N 0.28771 0.11224 0.10574
 C233 C 0.26858 0.17104 0.16484
 C234 C 0.24774 0.17789 0.18940
 H235 H 0.23840 0.06397 0.07143
 H236 H 0.28747 0.18511 0.16154
 H237 H 0.30536 0.06420 0.07948
 H238 H 0.22981 0.16294 0.19431
 C239 C 0.78272 0.56824 0.56282
 C240 C 0.75866 0.58021 0.57854
 C241 C 0.76092 0.60504 0.60237
 N242 N 0.73792 0.61161 0.62244
 N243 N 0.73925 0.63423 0.64380
 C244 C 0.76356 0.65133 0.64573
 N245 N 0.78653 0.64492 0.62543
 N246 N 0.78529 0.62211 0.60423
 C247 C 0.76478 0.67674 0.66885
 C248 C 0.74457 0.67993 0.69532
 H249 H 0.73732 0.57059 0.57394
 H250 H 0.78179 0.69297 0.66515
 H251 H 0.80429 0.57660 0.56898
 H252 H 0.72879 0.66270 0.70010
 C253 C 0.73225 0.93552 0.05988
 C254 C 0.75232 0.92502 0.08364
 C255 C 0.74500 0.90056 0.10666
 N256 N 0.76191 0.89495 0.13477
 N257 N 0.75554 0.87271 0.15558
 C258 C 0.73207 0.85519 0.14895
 N259 N 0.71528 0.86071 0.12073
 N260 N 0.72152 0.88306 0.10008
 C261 C 0.72575 0.82955 0.17040
 C262 C 0.73943 0.82506 0.20232
 H263 H 0.77342 0.93563 0.08635
 H264 H 0.71083 0.81324 0.16005
 H265 H 0.71048 0.92618 0.05909
 H266 H 0.75325 0.84194 0.21347
 C267 C 0.21959 0.42741 0.57473
 C268 C 0.24316 0.41597 0.59241
 C269 C 0.24017 0.39034 0.61489
 N270 N 0.26194 0.38354 0.63713
 N271 N 0.25996 0.35986 0.65674
 C272 C 0.23623 0.34196 0.65462
 N273 N 0.21452 0.34869 0.63225
 N274 N 0.21638 0.37250 0.61287
 C275 C 0.23444 0.31495 0.67477
 C276 C 0.25286 0.30976 0.70289
 H277 H 0.26446 0.42610 0.58977
 H278 H 0.21838 0.29868 0.66709
 H279 H 0.19799 0.41850 0.57921
 H280 H 0.26761 0.32674 0.71196
 C281 C 0.93659 0.28536 0.05146
 C282 C 0.92723 0.26198 0.07159
 C283 C 0.90327 0.26409 0.09658
 N284 N 0.89933 0.24331 0.12106
 N285 N 0.87793 0.24498 0.14407
 C286 C 0.85954 0.26741 0.14338
 N287 N 0.86329 0.28807 0.11868
 N288 N 0.88485 0.28652 0.09580
 C289 C 0.83543 0.26900 0.16831
 C290 C 0.83428 0.25141 0.19772
 H291 H 0.93876 0.24193 0.07035
 H292 H 0.81826 0.28398 0.16327
 H293 H 0.92624 0.30593 0.05431
 H294 H 0.85223 0.23746 0.20332
 C295 C 0.42259 0.77276 0.56037
 C296 C 0.41439 0.74999 0.58208
 C297 C 0.38952 0.75236 0.60565
 N298 N 0.38648 0.73416 0.63313
 N299 N 0.36427 0.73658 0.65491
 C300 C 0.34424 0.75721 0.64990
 N301 N 0.34714 0.77518 0.62224
 N302 N 0.36944 0.77292 0.60064
 C303 C 0.31906 0.75959 0.67290
 C304 C 0.31734 0.74549 0.70486
 H305 H 0.42742 0.73090 0.58331
 H306 H 0.30119 0.77252 0.66410
 H307 H 0.41082 0.79267 0.56137
 H308 H 0.33573 0.73372 0.71450
 C309 C 0.04582 0.75592 0.07803
 C310 C 0.06015 0.73183 0.09063
 C311 C 0.08217 0.73449 0.11849
 N312 N 0.10129 0.71311 0.12388
 N313 N 0.12189 0.71581 0.14830
 C314 C 0.12394 0.73992 0.16839
 N315 N 0.10458 0.76107 0.16330
 N316 N 0.08416 0.75847 0.13875
 C317 C 0.14683 0.74385 0.19495
 C318 C 0.17125 0.72674 0.19669
 H319 H 0.05651 0.71094 0.07849
 H320 H 0.14527 0.76216 0.21231
 H321 H 0.05105 0.77691 0.08918
 H322 H 0.17372 0.70924 0.17833
 C323 C 0.55623 0.25315 0.56803
 C324 C 0.57403 0.23131 0.58003
 C325 C 0.59584 0.23597 0.60775
 N326 N 0.61578 0.21556 0.61413
 N327 N 0.63593 0.21955 0.63882
 C328 C 0.63675 0.24405 0.65822
 N329 N 0.61664 0.26434 0.65206
 N330 N 0.59659 0.26043 0.62723
 C331 C 0.65918 0.24918 0.68511
 C332 C 0.68368 0.23225 0.68813
 H333 H 0.57270 0.21024 0.56785
 H334 H 0.65724 0.26799 0.70159
 H335 H 0.55834 0.27462 0.57903
 H336 H 0.68650 0.21429 0.67053
 C337 C 0.76086 0.06705 0.93710
 C338 C 0.73800 0.08304 0.92377
 C339 C 0.74227 0.10625 0.89808
 N340 N 0.72012 0.12398 0.89047
 N341 N 0.72329 0.14463 0.86657
 C342 C 0.74868 0.14814 0.84918
 N343 N 0.77078 0.13032 0.85667
 N344 N 0.76768 0.10980 0.88074
 C345 C 0.75245 0.17045 0.82226
 C346 C 0.73318 0.19292 0.81794
 H347 H 0.71603 0.07854 0.93243
 H348 H 0.77167 0.16978 0.80624
 H349 H 0.78295 0.07275 0.92985
 H350 H 0.71496 0.19486 0.83538
 C351 C 0.23531 0.55159 0.43541
 C352 C 0.21362 0.57110 0.42774
 C353 C 0.21790 0.59394 0.40142
 N354 N 0.19886 0.61572 0.39874
 N355 N 0.20280 0.63659 0.37520
 C356 C 0.22586 0.63631 0.35335
 N357 N 0.24472 0.61442 0.35587
 N358 N 0.24087 0.59369 0.37949
 C359 C 0.23094 0.65906 0.32721
 C360 C 0.21565 0.68465 0.32624
 H361 H 0.19344 0.57016 0.44202
 H362 H 0.24835 0.65596 0.30887
 H363 H 0.25600 0.55356 0.42231
 H364 H 0.19899 0.68851 0.34532
 C365 C 0.28669 0.92615 0.94194
 C366 C 0.26437 0.91816 0.91904
 C367 C 0.26642 0.89259 0.89651
 N368 N 0.24723 0.88826 0.86997
 N369 N 0.24872 0.86496 0.84976
 C370 C 0.26938 0.84507 0.85548
 N371 N 0.28845 0.84935 0.88212
 N372 N 0.28708 0.87272 0.90216
 C373 C 0.27048 0.81855 0.83455
 C374 C 0.25435 0.81475 0.80402
 H375 H 0.24525 0.93119 0.91710
 H376 H 0.28388 0.80129 0.84393
 H377 H 0.30647 0.91401 0.94224
 H378 H 0.24201 0.83245 0.79376
 C379 C 0.76739 0.43959 0.42910
 C380 C 0.78963 0.42071 0.42173
 C381 C 0.78601 0.39778 0.39535
 N382 N 0.80539 0.37626 0.39340
 N383 N 0.80213 0.35538 0.36968
 C384 C 0.77949 0.35544 0.34686
 N385 N 0.76032 0.37710 0.34862
 N386 N 0.76346 0.39782 0.37245
 C387 C 0.77506 0.33259 0.32063
 C388 C 0.78975 0.30665 0.32124
 H389 H 0.80989 0.42235 0.43610
 H390 H 0.75816 0.33565 0.30134
 H391 H 0.74661 0.43685 0.41605
 H392 H 0.80565 0.30272 0.34146
 C393 C 0.07194 0.28195 0.93043
 C394 C 0.08358 0.25698 0.91655
 C395 C 0.10963 0.25807 0.89455
 N396 N 0.11496 0.23601 0.87248
 N397 N 0.13846 0.23672 0.85245
 C398 C 0.15768 0.25939 0.85399
 N399 N 0.15254 0.28130 0.87638
 N400 N 0.12886 0.28074 0.89615
 C401 C 0.18405 0.25999 0.83252
 C402 C 0.18590 0.24335 0.80245
 H403 H 0.07270 0.23627 0.92053
 H404 H 0.20210 0.27402 0.84023
 H405 H 0.08186 0.30267 0.92387
 H406 H 0.16698 0.23110 0.79349
 C407 C 0.56163 0.77710 0.44279
 C408 C 0.57007 0.75494 0.42094
 C409 C 0.59544 0.75851 0.39814
 N410 N 0.59832 0.74123 0.36993
 N411 N 0.62103 0.74459 0.34888
 C412 C 0.64178 0.76525 0.35542
 N413 N 0.63907 0.78231 0.38384
 N414 N 0.61623 0.77912 0.40469
 C415 C 0.66747 0.76849 0.33311
 C416 C 0.66835 0.75627 0.30002
 H417 H 0.55688 0.73533 0.41899
 H418 H 0.68624 0.78035 0.34322
 H419 H 0.57352 0.79755 0.44239
 H420 H 0.64902 0.74584 0.28924
 C421 C 0.93785 0.75357 0.92077
 C422 C 0.91824 0.73081 0.91418
 C423 C 0.89557 0.73289 0.88717
 N424 N 0.87238 0.71424 0.88711
 N425 N 0.85122 0.71670 0.86353
 C426 C 0.85263 0.73779 0.83899
 N427 N 0.87600 0.75614 0.83879
 N428 N 0.89702 0.75382 0.86248
 C429 C 0.82929 0.74161 0.81326
 C430 C 0.80204 0.72800 0.81582
 H431 H 0.91824 0.71188 0.93071
 H432 H 0.83317 0.75725 0.79276
 H433 H 0.93649 0.77326 0.90574
 H434 H 0.79752 0.71322 0.83705
 C435 C 0.44516 0.22635 0.41398
 C436 C 0.42070 0.24309 0.41053
 C437 C 0.39890 0.23785 0.38306
 N438 N 0.37116 0.24586 0.38807
 N439 N 0.35132 0.24215 0.36301
 C440 C 0.35857 0.23057 0.33186
 N441 N 0.38639 0.22275 0.32673
 N442 N 0.40617 0.22609 0.35199
 C443 C 0.33732 0.22883 0.30320
 C444 C 0.30760 0.22825 0.30955
 H445 H 0.41655 0.25954 0.42979
 H446 H 0.34518 0.22958 0.27668
 H447 H 0.44774 0.20772 0.39736
 H448 H 0.29986 0.22492 0.33587
 C449 C 0.75164 0.94950 0.91816
 C450 C 0.72754 0.93406 0.90550
 C451 C 0.73068 0.91136 0.87907
 N452 N 0.70954 0.89077 0.87485
 N453 N 0.71297 0.86912 0.85254
 C454 C 0.73760 0.86736 0.83347
 N455 N 0.75849 0.88825 0.83720
 N456 N 0.75515 0.90978 0.85969
 C457 C 0.74222 0.84291 0.80987
 C458 C 0.72533 0.81767 0.81198
 H459 H 0.70654 0.93681 0.91736
 H460 H 0.76024 0.84416 0.79193
 H461 H 0.77290 0.94514 0.90781
 H462 H 0.70827 0.81600 0.83121
 C463 C 0.21580 0.43308 0.43120
 C464 C 0.23896 0.42317 0.41180
 C465 C 0.23544 0.40023 0.38564
 N466 N 0.25800 0.39374 0.36479
 N467 N 0.25560 0.37217 0.34195
 C468 C 0.23057 0.35625 0.33926
 N469 N 0.20800 0.36277 0.36009
 N470 N 0.21034 0.38443 0.38280
 C471 C 0.22820 0.33125 0.31585
 C472 C 0.24955 0.32506 0.29164
 H473 H 0.26052 0.43237 0.41605
 H474 H 0.20948 0.31684 0.31852
 H475 H 0.19394 0.42516 0.42576
 H476 H 0.26755 0.34012 0.28757
 C477 C 0.29747 0.04609 0.93044
 C478 C 0.27502 0.05615 0.90945
 C479 C 0.27878 0.08021 0.88489
 N480 N 0.25737 0.08574 0.86163
 N481 N 0.25925 0.10869 0.84087
 C482 C 0.28254 0.12714 0.84281
 N483 N 0.30402 0.12159 0.86602
 N484 N 0.30224 0.09849 0.88663
 C485 C 0.28370 0.15375 0.82200
 C486 C 0.26440 0.15848 0.79462
 H487 H 0.25343 0.04654 0.91156
 H488 H 0.29959 0.17038 0.82908
 H489 H 0.31947 0.05406 0.92630
 H490 H 0.24981 0.14122 0.78597
 C491 C 0.78653 0.55849 0.42009
 C492 C 0.76350 0.56695 0.39913
 C493 C 0.76582 0.59161 0.37532
 N494 N 0.74375 0.59697 0.35291
 N495 N 0.74449 0.62047 0.33299
 C496 C 0.76725 0.63956 0.33496
 N497 N 0.78938 0.63414 0.35727
 N498 N 0.78873 0.61054 0.37704
 C499 C 0.76727 0.66669 0.31533
 C500 C 0.74705 0.67197 0.28916
 H501 H 0.74262 0.55587 0.40125
 H502 H 0.78320 0.68329 0.32238
 H503 H 0.80799 0.56804 0.41650
 H504 H 0.73237 0.65487 0.28028
 C505 C 0.05836 0.75346 0.93891
 C506 C 0.06766 0.72884 0.92194
 C507 C 0.09457 0.72960 0.90185
 N508 N 0.09695 0.71340 0.87263
 N509 N 0.12136 0.71430 0.85421
 C510 C 0.14435 0.73105 0.86478
 N511 N 0.14213 0.74683 0.89432
 N512 N 0.11759 0.74630 0.91239
 C513 C 0.17141 0.73214 0.84505
 C514 C 0.17161 0.72984 0.80895
 H515 H 0.05453 0.70913 0.92214
 H516 H 0.19140 0.73740 0.85892
 H517 H 0.07011 0.77372 0.93488
 H518 H 0.15134 0.72812 0.79458
 C519 C 0.56404 0.25046 0.42303
 C520 C 0.58271 0.22845 0.41441
 C521 C 0.60625 0.23287 0.38911
 N522 N 0.62691 0.21277 0.38570
 N523 N 0.64857 0.21672 0.36327
 C524 C 0.65029 0.24086 0.34325
 N525 N 0.62947 0.26082 0.34641
 N526 N 0.60789 0.25694 0.36897
 C527 C 0.67438 0.24574 0.31881
 C528 C 0.69882 0.22870 0.31934
 H529 H 0.58059 0.20771 0.42724
 H530 H 0.67339 0.26386 0.30107
 H531 H 0.56697 0.27152 0.41118
 H532 H 0.70031 0.21142 0.33819
 C533 C 0.95271 0.27713 0.90812
 C534 C 0.93302 0.29833 0.89970
 C535 C 0.91011 0.29263 0.87355
 N536 N 0.88572 0.30841 0.87334
 N537 N 0.86396 0.30187 0.85147
 C538 C 0.86590 0.27940 0.82893
 N539 N 0.89051 0.26402 0.82870
 N540 N 0.91215 0.27044 0.85068
 C541 C 0.84173 0.27089 0.80570
 C542 C 0.81409 0.28196 0.80908
 H543 H 0.93247 0.31795 0.91498
 H544 H 0.84552 0.25430 0.78650
 H545 H 0.95154 0.25665 0.89453
 H546 H 0.81002 0.29802 0.82882
 C547 C 0.44150 0.76815 0.41838
 C548 C 0.42064 0.78852 0.41111
 C549 C 0.39763 0.78241 0.38517
 N550 N 0.37288 0.79764 0.38537
 N551 N 0.35107 0.79075 0.36371
 C552 C 0.35327 0.76843 0.34100
 N553 N 0.37820 0.75356 0.34040
 N554 N 0.39991 0.76035 0.36215
 C555 C 0.32909 0.75969 0.31784
 C556 C 0.30153 0.77101 0.32093
 H557 H 0.41927 0.80760 0.42725
 H558 H 0.33288 0.74312 0.29862
 H559 H 0.44131 0.74814 0.40379
 H560 H 0.29754 0.78718 0.34058
 C561 C 0.26481 0.93921 0.08284
 C562 C 0.28462 0.92005 0.09659
 C563 C 0.27581 0.89844 0.12280
 N564 N 0.29251 0.87528 0.12885
 N565 N 0.28412 0.85502 0.15152
 C566 C 0.25881 0.85729 0.16915
 N567 N 0.24234 0.88067 0.16349
 N568 N 0.25062 0.90081 0.14064
 C569 C 0.24899 0.83486 0.19379
 C570 C 0.26138 0.80779 0.19470
 H571 H 0.30640 0.91954 0.08624
 H572 H 0.23090 0.83939 0.21063
 H573 H 0.24254 0.93828 0.09167
 H574 H 0.27851 0.80284 0.17664
 C575 C 0.76104 0.44896 0.57366
 C576 C 0.78190 0.42989 0.58508
 C577 C 0.77525 0.40790 0.61156
 N578 N 0.79320 0.38548 0.61616
 N579 N 0.78686 0.36487 0.63924
 C580 C 0.76241 0.36603 0.65870
 N581 N 0.74466 0.38865 0.65444
 N582 N 0.75091 0.40916 0.63120
 C583 C 0.75484 0.34321 0.68379
 C584 C 0.76879 0.31694 0.68398
 H585 H 0.80301 0.42992 0.57285
 H586 H 0.73718 0.34678 0.70164
 H587 H 0.73942 0.44779 0.58456
 H588 H 0.78554 0.31288 0.66506
 C589 C 0.75158 0.05282 0.08059
 C590 C 0.72972 0.07154 0.08961
 C591 C 0.73382 0.09186 0.11882
 N592 N 0.71692 0.11528 0.12152
 N593 N 0.72175 0.13464 0.14671
 C594 C 0.74353 0.13116 0.17025
 N595 N 0.76004 0.10748 0.16792
 N596 N 0.75533 0.08824 0.14264
 C597 C 0.75034 0.15304 0.19701
 C598 C 0.73877 0.18047 0.19592
 H599 H 0.71038 0.07278 0.07358
 H600 H 0.76657 0.14812 0.21651
 H601 H 0.77160 0.05312 0.09553
 H602 H 0.72335 0.18575 0.17565
 C603 C 0.24039 0.54983 0.57743
 C604 C 0.21917 0.55858 0.60045
 C605 C 0.22335 0.58509 0.62091
 N606 N 0.21018 0.58809 0.65217
 N607 N 0.21348 0.61252 0.67026
 C608 C 0.22968 0.63491 0.65737
 N609 N 0.24251 0.63200 0.62596
 N610 N 0.23958 0.60746 0.60816
 C611 C 0.23264 0.66237 0.67603
 C612 C 0.23227 0.66411 0.71219
 H613 H 0.19924 0.54596 0.60330
 H614 H 0.23727 0.68165 0.66090
 H615 H 0.26142 0.56081 0.57751
 H616 H 0.23112 0.64464 0.72774
 C617 C 0.92468 0.75576 0.06124
 C618 C 0.91708 0.73345 0.08384
 C619 C 0.88998 0.73411 0.10353
 N620 N 0.88792 0.72104 0.13505
 N621 N 0.86341 0.72198 0.15317
 C622 C 0.84001 0.73564 0.14010
 N623 N 0.84192 0.74823 0.10833
 N624 N 0.86653 0.74765 0.09045
 C625 C 0.81296 0.73711 0.15973
 C626 C 0.81278 0.73711 0.19594
 H627 H 0.93169 0.71584 0.08808
 H628 H 0.79306 0.74086 0.14547
 H629 H 0.91148 0.77475 0.05995
 H630 H 0.83305 0.73650 0.21033
 C631 C 0.43415 0.23465 0.55390
 C632 C 0.42990 0.21334 0.57896
 C633 C 0.40334 0.21293 0.59996
 N634 N 0.40389 0.20445 0.63379
 N635 N 0.38003 0.20555 0.65318
 C636 C 0.35474 0.21481 0.63924
 N637 N 0.35410 0.22268 0.60527
 N638 N 0.37799 0.22196 0.58606
 C639 C 0.32829 0.21674 0.66013
 C640 C 0.32908 0.22099 0.69603
 H641 H 0.44685 0.19826 0.58467
 H642 H 0.30771 0.21741 0.64641
 H643 H 0.41845 0.25155 0.55150
 H644 H 0.34977 0.22289 0.70947
 C645 C 0.05528 0.28090 0.07214
 C646 C 0.07722 0.30141 0.07845
 C647 C 0.09868 0.29667 0.10623
 N648 N 0.12569 0.30885 0.10425
 N649 N 0.14590 0.30262 0.12790
 C650 C 0.13969 0.28414 0.15445
 N651 N 0.11253 0.27251 0.15681
 N652 N 0.09244 0.27855 0.13307
 C653 C 0.16183 0.27572 0.17986
 C654 C 0.19137 0.28116 0.17491
 H655 H 0.08053 0.31924 0.06057
 H656 H 0.15468 0.26319 0.20216
 H657 H 0.05399 0.26168 0.08815
 H658 H 0.19877 0.29293 0.15215
 C659 C 0.54103 0.76912 0.58519
 C660 C 0.56085 0.79083 0.59480
 C661 C 0.58221 0.78580 0.62265
 N662 N 0.60749 0.80140 0.62380
 N663 N 0.62791 0.79530 0.64722
 C664 C 0.62370 0.77350 0.67044
 N665 N 0.59818 0.75835 0.66976
 N666 N 0.57788 0.76430 0.64622
 C667 C 0.64652 0.76538 0.69522
 C668 C 0.67512 0.77523 0.69175
 H669 H 0.56276 0.81032 0.57935
 H670 H 0.64099 0.74990 0.71538
 H671 H 0.54104 0.74875 0.59902
 H672 H 0.68085 0.78989 0.67079
   
