data_POSCAR
  _audit_creation_date              2014-09-24
  _audit_creation_method            'ToBaCCo'
  _symmetry_space_group_name_H-M    'P1'
  _symmetry_Int_Tables_number       1
  _symmetry_cell_setting            triclinic
  loop_
  _symmetry_equiv_pos_as_xyz
 x,y,z
_cell_length_a 11.9953
_cell_length_b 12.1002
_cell_length_c 12.0374
_cell_angle_alpha 91.439700
_cell_angle_beta 89.123600
_cell_angle_gamma 92.600000
loop_
  _atom_site_label
  _atom_site_type_symbol
  _atom_site_fract_x
  _atom_site_fract_y
  _atom_site_fract_z
C1 C 0.00740 0.49995 0.25694
 C2 C 0.00585 0.49192 0.74642
 C3 C 0.25870 0.00615 0.50881
 C4 C 0.72225 0.00959 0.50859
 C5 C 0.51266 0.24331 0.99712
 C6 C 0.48010 0.74442 1.00961
 B7 B 1.02801 1.11428 0.05696
 B8 B 1.00075 1.09477 -0.08241
 B9 B 1.12129 1.04519 -0.02862
 B10 B 1.08986 0.99612 0.10264
 B11 B 0.94968 1.01403 0.13059
 B12 B 0.89520 1.07450 0.01430
 B13 B 0.96385 0.86743 -0.05111
 B14 B 0.99335 0.88615 0.08420
 B15 B 0.87215 0.93685 0.03281
 B16 B 0.90563 0.98545 -0.09780
 B17 B 1.04286 0.96446 -0.12395
 B18 B 1.09821 0.90654 -0.00997
 B19 B 0.60787 0.51289 0.41081
 B20 B 0.63829 0.52059 0.54876
 B21 B 0.57947 0.62921 0.48666
 B22 B 0.48446 0.57535 0.39383
 B23 B 0.48425 0.43521 0.39192
 B24 B 0.58094 0.40091 0.48870
 B25 B 0.41296 0.51136 0.60067
 B26 B 0.38022 0.50350 0.46450
 B27 B 0.44333 0.39419 0.52282
 B28 B 0.53486 0.44645 0.61729
 B29 B 0.53724 0.58489 0.61953
 B30 B 0.44294 0.62584 0.52187
 C31 C 1.04231 1.40930 0.17113
 C32 C 1.11581 1.42294 0.08430
 C33 C 1.12642 1.31910 0.03813
 C34 C 1.05630 1.24607 0.09663
 O35 O 1.00731 1.30186 0.17986
 H36 H 1.15830 1.49873 0.05892
 H37 H 1.17549 1.30054 -0.03538
 C38 C 1.01093 0.62647 0.23524
 C39 C 0.94130 0.68927 0.29949
 C40 C 0.90388 0.76525 0.23439
 C41 C 0.98469 0.77578 0.15530
 O42 O 1.04352 0.68363 0.14650
 H43 H 0.90508 0.66944 0.37641
 H44 H 0.83355 0.81556 0.25141
 C45 C 0.99775 1.36463 -0.23320
 C46 C 1.00389 1.29103 -0.32102
 C47 C 1.00351 1.18853 -0.27994
 C48 C 0.99906 1.20114 -0.16641
 O49 O 0.99405 1.30977 -0.13793
 H50 H 1.00652 1.31041 -0.40670
 H51 H 1.00499 1.11424 -0.33028
 C52 C 0.96348 0.57575 -0.16431
 C53 C 0.88629 0.55636 -0.08331
 C54 C 0.86894 0.65819 -0.03266
 C55 C 0.93340 0.73646 -0.08977
 O56 O 0.98470 0.68498 -0.17203
 H57 H 0.84269 0.47797 -0.07082
 H58 H 0.81698 0.67290 0.03951
 C59 C 1.23135 1.02660 0.38103
 C60 C 1.24058 1.13082 0.33648
 C61 C 1.22106 1.12143 0.22850
 C62 C 1.18226 1.01538 0.20689
 O63 O 1.19854 0.95432 0.29864
 H64 H 1.25470 1.21062 0.37468
 H65 H 1.22539 1.19164 0.17711
 C66 C 1.16276 0.96513 -0.41200
 C67 C 1.09077 0.87591 -0.42813
 C68 C 1.03003 0.86593 -0.33013
 C69 C 1.08022 0.93773 -0.25366
 O70 O 1.16077 0.99412 -0.30463
 H71 H 1.08339 0.82440 -0.50254
 H72 H 0.95805 0.81177 -0.31693
 C73 C 0.80981 0.99326 0.41467
 C74 C 0.90104 0.93957 0.43323
 C75 C 0.96835 0.95846 0.34505
 C76 C 0.91263 1.01760 0.26743
 O77 O 0.81456 1.04260 0.31463
 H78 H 0.90540 0.87786 0.49469
 H79 H 1.03068 0.90174 0.32907
 C80 C 0.75760 0.97559 -0.37065
 C81 C 0.72748 0.87495 -0.32572
 C82 C 0.76411 0.87428 -0.22218
 C83 C 0.82104 0.97287 -0.20370
 O84 O 0.81693 1.03623 -0.29460
 H85 H 0.68763 0.80360 -0.36051
 H86 H 0.75929 0.80169 -0.17332
 C87 C 1.42139 1.15111 -0.02445
 C88 C 1.43031 1.07072 -0.10633
 C89 C 1.32396 1.03354 -0.12843
 C90 C 1.25349 1.08628 -0.05418
 O91 O 1.31411 1.15993 0.00689
 H92 H 1.50511 1.04492 -0.14888
 H93 H 1.30388 0.96449 -0.18359
 C94 C 0.63019 1.21624 0.03388
 C95 C 0.70536 1.30460 0.04261
 C96 C 0.80751 1.26577 0.03515
 C97 C 0.79272 1.15449 0.02260
 O98 O 0.68428 1.12471 0.01313
 H99 H 0.68583 1.38892 0.02840
 H100 H 0.88190 1.31595 0.02565
 C101 C 1.36458 0.76862 -0.03403
 C102 C 1.29163 0.67787 -0.04902
 C103 C 1.18878 0.71458 -0.03865
 C104 C 1.20065 0.82647 -0.02191
 O105 O 1.30821 0.85845 -0.01191
 H106 H 1.31198 0.59156 -0.05306
 H107 H 1.11631 0.66098 -0.03551
 C108 C 0.57186 0.83503 0.02820
 C109 C 0.56210 0.91867 0.10467
 C110 C 0.66890 0.95261 0.12933
 C111 C 0.74011 0.89674 0.05894
 O112 O 0.67954 0.82212 0.00011
 H113 H 0.48587 0.94745 0.14230
 H114 H 0.68808 1.02388 0.18076
 C115 C 0.87982 0.47476 0.27328
 C116 C 0.81293 0.47903 0.18338
 C117 C 0.70738 0.49595 0.21802
 C118 C 0.71388 0.50581 0.32965
 O119 O 0.81900 0.49747 0.36318
 H120 H 0.84266 0.47982 0.10104
 H121 H 0.63499 0.49893 0.16751
 C122 C 0.08472 0.48565 0.35443
 C123 C 0.07998 0.39199 0.41416
 C124 C 0.17961 0.39032 0.46530
 C125 C 0.24475 0.48185 0.43298
 O126 O 0.18464 0.53981 0.36432
 H127 H 0.01602 0.32621 0.41047
 H128 H 0.19966 0.32482 0.51750
 C129 C 0.92765 0.51292 0.65221
 C130 C 0.93959 0.60641 0.59161
 C131 C 0.83572 0.62884 0.56194
 C132 C 0.76698 0.53936 0.58921
 O133 O 0.82286 0.47077 0.64984
 H134 H 1.01339 0.65863 0.58017
 H135 H 0.81718 0.70401 0.52427
 C136 C 0.12939 0.52662 0.71679
 C137 C 0.17265 0.63328 0.72441
 C138 C 0.28114 0.62925 0.71522
 C139 C 0.30478 0.52516 0.68189
 O140 O 0.21069 0.46019 0.68481
 H141 H 0.13742 0.71124 0.73635
 H142 H 0.33262 0.70149 0.72566
 C143 C 0.44932 0.70067 0.12612
 C144 C 0.36004 0.74159 0.18766
 C145 C 0.35843 0.69329 0.28383
 C146 C 0.45240 0.63506 0.28529
 O147 O 0.50788 0.63656 0.18822
 H148 H 0.29971 0.80070 0.16839
 H149 H 0.29255 0.69971 0.34357
 C150 C 0.52562 0.66908 0.91792
 C151 C 0.61530 0.60550 0.92467
 C152 C 0.64429 0.58211 0.81708
 C153 C 0.56555 0.62591 0.74892
 O154 O 0.49532 0.67983 0.81291
 H155 H 0.65542 0.58142 0.99887
 H156 H 0.70744 0.52635 0.79477
 C157 C 0.47312 0.31715 0.09688
 C158 C 0.38439 0.38253 0.09373
 C159 C 0.36773 0.41840 0.20061
 C160 C 0.45225 0.38011 0.26578
 O161 O 0.51553 0.31596 0.20095
 H162 H 0.33870 0.40254 0.02101
 H163 H 0.30584 0.47586 0.22332
 C164 C 0.53981 0.29035 0.87876
 C165 C 0.62008 0.24033 0.81259
 C166 C 0.63849 0.30300 0.72637
 C167 C 0.55678 0.37694 0.72791
 O168 O 0.49773 0.37383 0.82452
 H169 H 0.66793 0.16911 0.82725
 H170 H 0.70851 0.29529 0.67320
 C171 C 0.61490 0.94276 0.48126
 C172 C 0.58776 0.90527 0.37691
 C173 C 0.62030 0.80196 0.36087
 C174 C 0.64264 0.75077 0.46076
 O175 O 0.60683 0.84623 0.41723
 H176 H 0.56154 0.96710 0.31294
 H177 H 0.63453 0.75924 0.27458
 C178 C 0.70922 0.13303 0.50771
 C179 C 0.80363 0.20056 0.50480
 C180 C 0.77043 0.29958 0.47957
 C181 C 0.65502 0.29258 0.47600
 O182 O 0.61733 0.18808 0.49052
 H183 H 0.88888 0.17711 0.51279
 H184 H 0.82860 0.36752 0.48241
 C185 C 0.34228 0.91724 0.52429
 C186 C 0.41448 0.92582 0.61133
 C187 C 0.45343 0.82527 0.62150
 C188 C 0.40285 0.75513 0.54273
 O189 O 0.33130 0.81257 0.48557
 H190 H 0.43821 0.99752 0.66223
 H191 H 0.51539 0.80994 0.67978
 C192 C 0.30989 0.11933 0.55751
 C193 C 0.28193 0.17244 0.65756
 C194 C 0.33856 0.26782 0.66112
 C195 C 0.39104 0.27796 0.56051
 O196 O 0.38266 0.18436 0.50102
 H197 H 0.22442 0.15771 0.72445
 H198 H 0.33281 0.32537 0.72964
   
