data_POSCAR
  _audit_creation_date              2014-09-24
  _audit_creation_method            'ToBaCCo'
  _symmetry_space_group_name_H-M    'P1'
  _symmetry_Int_Tables_number       1
  _symmetry_cell_setting            triclinic
  loop_
  _symmetry_equiv_pos_as_xyz
 x,y,z
_cell_length_a 20.5334
_cell_length_b 20.5334
_cell_length_c 53.2678
_cell_angle_alpha 89.719600
_cell_angle_beta 90.280300
_cell_angle_gamma 119.839400
loop_
  _atom_site_label
  _atom_site_type_symbol
  _atom_site_fract_x
  _atom_site_fract_y
  _atom_site_fract_z
Si1 Si 0.00301 0.00083 0.50011
 Si2 Si 1.00082 0.00302 0.16655
 Si3 Si -0.00357 0.99644 0.83333
 O4 O 0.46379 0.06045 0.02346
 O5 O 0.59048 0.05922 -0.02538
 O6 O 0.46650 0.06542 -0.02536
 O7 O 0.59375 0.06641 0.02339
 O8 O 0.53261 -0.05775 0.02393
 O9 O 0.40392 -0.05874 -0.02503
 O10 O 0.52789 -0.06493 -0.02484
 O11 O 0.40265 -0.06372 0.02378
 Cu12 Cu 0.53483 0.07532 -0.00102
 Cu13 Cu 0.46057 -0.07373 -0.00051
 C14 C 0.41156 -0.00183 0.03177
 C15 C 0.58051 -0.00345 -0.03324
 C16 C 0.41355 0.00356 -0.03335
 C17 C 0.58519 0.00488 0.03182
 O18 O 0.06044 0.46380 0.64320
 O19 O 0.05922 0.59049 0.69204
 O20 O 0.06542 0.46651 0.69202
 O21 O 0.06641 0.59376 0.64327
 O22 O -0.05775 0.53262 0.64273
 O23 O -0.05874 0.40393 0.69169
 O24 O -0.06494 0.52789 0.69150
 O25 O -0.06372 0.40266 0.64288
 Cu26 Cu 0.07531 0.53483 0.66768
 Cu27 Cu -0.07373 0.46057 0.66716
 C28 C -0.00183 0.41156 0.63489
 C29 C -0.00346 0.58051 0.69989
 C30 C 0.00356 0.41356 0.70001
 C31 C 0.00488 0.58519 0.63484
 O32 O 0.46765 0.40875 0.30891
 O33 O 0.59541 0.53589 0.35780
 O34 O 0.47170 0.40615 0.35770
 O35 O 0.59739 0.53246 0.30902
 O36 O 0.53588 0.59542 0.30885
 O37 O 0.40875 0.46766 0.35775
 O38 O 0.53245 0.59740 0.35764
 O39 O 0.40614 0.47170 0.30895
 Cu40 Cu 0.53927 0.46457 0.33336
 Cu41 Cu 0.46457 0.53928 0.33329
 C42 C 0.41503 0.41885 0.30078
 C43 C 0.58542 0.58841 0.36587
 C44 C 0.41884 0.41503 0.36588
 C45 C 0.58841 0.58543 0.30079
 C46 C -0.01600 0.16105 0.55183
 C47 C -0.00206 0.14636 0.57907
 C48 C 0.00137 0.19836 0.59560
 C49 C -0.00945 0.26006 0.58329
 C50 C -0.08475 0.21794 0.56924
 C51 C -0.08819 0.16582 0.55268
 C52 C 0.04683 0.24138 0.54611
 C53 C 0.05026 0.29341 0.56264
 C54 C -0.01783 0.10551 0.53422
 C55 C -0.01416 0.06166 0.52018
 C56 C -0.00549 0.31581 0.60128
 C57 C -0.00286 0.36047 0.61643
 H58 H 0.00441 0.09912 0.58489
 H59 H 0.01083 0.19569 0.61556
 H60 H -0.13121 0.22820 0.57205
 H61 H -0.13752 0.13142 0.54130
 H62 H 0.08518 0.25611 0.53039
 H63 H 0.09152 0.35266 0.56111
 C64 C 0.84032 0.82298 0.21813
 C65 C 0.85427 0.85082 0.24537
 C66 C 0.80200 0.80194 0.26179
 C67 C 0.74078 0.72991 0.24940
 C68 C 0.78348 0.69717 0.23554
 C69 C 0.83588 0.74617 0.21908
 C70 C 0.76001 0.80567 0.21216
 C71 C 0.70771 0.75676 0.22859
 C72 C 0.89611 0.87702 0.20061
 C73 C 0.94008 0.92478 0.18662
 C74 C 0.68472 0.67781 0.26728
 C75 C 0.63980 0.63559 0.28237
 H76 H 0.90123 0.90424 0.25126
 H77 H 0.80415 0.81351 0.28174
 H78 H 0.77340 0.64051 0.23840
 H79 H 0.87070 0.73157 0.20784
 H80 H 0.74549 0.82964 0.19636
 H81 H 0.64843 0.73885 0.22688
 C82 C 0.17365 0.01636 -0.11613
 C83 C 0.19173 -0.04616 -0.12188
 C84 C 0.24117 -0.04914 -0.10543
 C85 C 0.26773 0.01068 -0.08482
 C86 C 0.19557 -0.00051 -0.07240
 C87 C 0.14615 0.00246 -0.08885
 C88 C 0.25006 0.08884 -0.11540
 C89 C 0.29960 0.08586 -0.09891
 C90 C 0.11901 0.01758 -0.13367
 C91 C 0.07070 0.01314 -0.14765
 C92 C 0.32038 0.00711 -0.06691
 C93 C 0.36298 0.00463 -0.05179
 H94 H 0.16788 -0.08465 -0.13756
 H95 H 0.25965 -0.09014 -0.10699
 H96 H 0.18429 -0.00988 -0.05243
 H97 H 0.09257 -0.00430 -0.08296
 H98 H 0.26401 0.13802 -0.12680
 H99 H 0.35608 0.13257 -0.09619
 C100 C 0.02158 0.83899 0.55182
 C101 C 0.00745 0.85290 0.57902
 C102 C 0.00364 0.80027 0.59552
 C103 C 0.01430 0.73879 0.58323
 C104 C 0.08976 0.78111 0.56941
 C105 C 0.09358 0.83386 0.55287
 C106 C -0.04140 0.75894 0.54589
 C107 C -0.04522 0.70629 0.56240
 C108 C 0.02376 0.89517 0.53423
 C109 C 0.02023 0.93949 0.52019
 C110 C 0.00985 0.68234 0.60120
 C111 C 0.00669 0.63707 0.61635
 H112 H 0.00115 0.90008 0.58483
 H113 H -0.00599 0.80235 0.61545
 H114 H 0.13605 0.77053 0.57235
 H115 H 0.14307 0.86848 0.54165
 H116 H -0.07957 0.74484 0.53006
 H117 H -0.08663 0.64714 0.56073
 C118 C 0.16215 0.18246 0.21806
 C119 C 0.16670 0.25930 0.21892
 C120 C 0.21930 0.30807 0.23539
 C121 C 0.26206 0.27508 0.24935
 C122 C 0.29487 0.24841 0.22863
 C123 C 0.24237 0.19973 0.21218
 C124 C 0.14843 0.15430 0.24532
 C125 C 0.20090 0.20295 0.26176
 C126 C 0.10613 0.12866 0.20054
 C127 C 0.06196 0.08106 0.18656
 C128 C 0.31833 0.32693 0.26725
 C129 C 0.36342 0.36894 0.28235
 H130 H 0.13182 0.27409 0.20762
 H131 H 0.22948 0.36473 0.23820
 H132 H 0.35411 0.26627 0.22698
 H133 H 0.25669 0.17590 0.19644
 H134 H 0.10149 0.10084 0.25121
 H135 H 0.19893 0.19115 0.28172
 C136 C 0.81676 -0.02129 -0.11546
 C137 C 0.79966 0.04185 -0.12159
 C138 C 0.75098 0.04596 -0.10527
 C139 C 0.72414 -0.01346 -0.08439
 C140 C 0.79618 -0.00301 -0.07187
 C141 C 0.84483 -0.00712 -0.08819
 C142 C 0.73985 -0.09313 -0.11451
 C143 C 0.69108 -0.08902 -0.09815
 C144 C 0.87058 -0.02379 -0.13286
 C145 C 0.91824 -0.02050 -0.14675
 C146 C 0.67230 -0.00873 -0.06662
 C147 C 0.63034 -0.00540 -0.05160
 H148 H 0.82359 0.07992 -0.13743
 H149 H 0.73323 0.08752 -0.10710
 H150 H 0.80792 0.00668 -0.05192
 H151 H 0.89823 -0.00099 -0.08221
 H152 H 0.72501 -0.14271 -0.12567
 H153 H 0.63438 -0.13515 -0.09531
 C154 C 0.16104 -0.01599 0.11482
 C155 C 0.14636 -0.00204 0.08758
 C156 C 0.19836 0.00139 0.07106
 C157 C 0.26005 -0.00945 0.08337
 C158 C 0.21793 -0.08475 0.09741
 C159 C 0.16580 -0.08819 0.11397
 C160 C 0.24137 0.04683 0.12055
 C161 C 0.29340 0.05026 0.10402
 C162 C 0.10551 -0.01782 0.13244
 C163 C 0.06165 -0.01415 0.14648
 C164 C 0.31580 -0.00548 0.06538
 C165 C 0.36046 -0.00285 0.05023
 H166 H 0.09913 0.00444 0.08177
 H167 H 0.19570 0.01086 0.05110
 H168 H 0.22818 -0.13122 0.09461
 H169 H 0.13140 -0.13752 0.12535
 H170 H 0.25611 0.08517 0.13627
 H171 H 0.35266 0.09151 0.10556
 C172 C 0.82297 0.84032 0.44853
 C173 C 0.85081 0.85428 0.42129
 C174 C 0.80193 0.80201 0.40486
 C175 C 0.72991 0.74079 0.41726
 C176 C 0.69716 0.78348 0.43112
 C177 C 0.74617 0.83588 0.44758
 C178 C 0.80567 0.76001 0.45450
 C179 C 0.75676 0.70771 0.43807
 C180 C 0.87701 0.89612 0.46605
 C181 C 0.92478 0.94008 0.48004
 C182 C 0.67781 0.68472 0.39938
 C183 C 0.63559 0.63980 0.38429
 H184 H 0.90423 0.90124 0.41540
 H185 H 0.81350 0.80416 0.38492
 H186 H 0.64050 0.77340 0.42826
 H187 H 0.73156 0.87069 0.45882
 H188 H 0.82964 0.74549 0.47030
 H189 H 0.73885 0.64844 0.43977
 C190 C 0.01636 0.17365 0.78279
 C191 C 0.00246 0.14616 0.75551
 C192 C -0.00051 0.19557 0.73906
 C193 C 0.01068 0.26773 0.75147
 C194 C 0.08585 0.29961 0.76557
 C195 C 0.08883 0.25006 0.78206
 C196 C -0.04617 0.19173 0.78854
 C197 C -0.04915 0.24117 0.77208
 C198 C 0.01758 0.11901 0.80032
 C199 C 0.01314 0.07070 0.81431
 C200 C 0.00711 0.32038 0.73356
 C201 C 0.00462 0.36299 0.71845
 H202 H -0.00430 0.09258 0.74961
 H203 H -0.00987 0.18430 0.71908
 H204 H 0.13256 0.35609 0.76285
 H205 H 0.13802 0.26402 0.79346
 H206 H -0.08466 0.16787 0.80422
 H207 H -0.09015 0.25965 0.77365
 C208 C 0.83898 0.02158 0.11484
 C209 C 0.85289 0.00746 0.08764
 C210 C 0.80027 0.00365 0.07114
 C211 C 0.73878 0.01430 0.08342
 C212 C 0.78110 0.08977 0.09724
 C213 C 0.83386 0.09359 0.11379
 C214 C 0.75894 -0.04140 0.12077
 C215 C 0.70628 -0.04522 0.10426
 C216 C 0.89516 0.02376 0.13243
 C217 C 0.93948 0.02024 0.14647
 C218 C 0.68234 0.00985 0.06546
 C219 C 0.63706 0.00670 0.05031
 H220 H 0.90008 0.00116 0.08183
 H221 H 0.80235 -0.00597 0.05121
 H222 H 0.77053 0.13605 0.09431
 H223 H 0.86848 0.14308 0.12501
 H224 H 0.74484 -0.07957 0.13660
 H225 H 0.64713 -0.08663 0.10592
 C226 C 0.18245 0.16215 0.44859
 C227 C 0.25928 0.16669 0.44773
 C228 C 0.30806 0.21929 0.43126
 C229 C 0.27508 0.26206 0.41730
 C230 C 0.24842 0.29487 0.43803
 C231 C 0.19974 0.24237 0.45448
 C232 C 0.15428 0.14845 0.42134
 C233 C 0.20294 0.20092 0.40490
 C234 C 0.12865 0.10614 0.46612
 C235 C 0.08105 0.06196 0.48010
 C236 C 0.32693 0.31833 0.39941
 C237 C 0.36893 0.36343 0.38431
 H238 H 0.27407 0.13180 0.45903
 H239 H 0.36471 0.22946 0.42845
 H240 H 0.26629 0.35412 0.43968
 H241 H 0.17593 0.25669 0.47023
 H242 H 0.10082 0.10152 0.41545
 H243 H 0.19112 0.19896 0.38494
 C244 C -0.02130 0.81677 0.78211
 C245 C 0.04186 0.79967 0.78825
 C246 C 0.04596 0.75099 0.77192
 C247 C -0.01347 0.72414 0.75105
 C248 C -0.00303 0.79617 0.73853
 C249 C -0.00714 0.84483 0.75484
 C250 C -0.09313 0.73985 0.78117
 C251 C -0.08902 0.69108 0.76482
 C252 C -0.02379 0.87059 0.79951
 C253 C -0.02050 0.91825 0.81341
 C254 C -0.00873 0.67231 0.73328
 C255 C -0.00540 0.63035 0.71826
 H256 H 0.07993 0.82361 0.80408
 H257 H 0.08753 0.73325 0.77375
 H258 H 0.00666 0.80792 0.71858
 H259 H -0.00101 0.89822 0.74886
 H260 H -0.14271 0.72501 0.79233
 H261 H -0.13515 0.63437 0.76198
   
