data_POSCAR
  _audit_creation_date              2014-09-24
  _audit_creation_method            'ToBaCCo'
  _symmetry_space_group_name_H-M    'P1'
  _symmetry_Int_Tables_number       1
  _symmetry_cell_setting            triclinic
  loop_
  _symmetry_equiv_pos_as_xyz
 x,y,z
_cell_length_a 42.7123
_cell_length_b 42.8727
_cell_length_c 8.6314
_cell_angle_alpha 90.426400
_cell_angle_beta 89.952200
_cell_angle_gamma 90.026900
loop_
  _atom_site_label
  _atom_site_type_symbol
  _atom_site_fract_x
  _atom_site_fract_y
  _atom_site_fract_z
O1 O 0.28350 0.22022 0.15362
 O2 O 0.22319 0.28076 0.09907
 O3 O 0.28273 0.28081 0.16504
 O4 O 0.22391 0.22014 0.08426
 O5 O 0.21254 0.21835 0.33306
 O6 O 0.27187 0.27862 0.41456
 O7 O 0.21233 0.27887 0.34864
 O8 O 0.27179 0.21803 0.40223
 Cu9 Cu 0.25452 0.25066 0.10080
 Cu10 Cu 0.24095 0.24828 0.39923
 C11 C 0.28802 0.20886 0.28732
 C12 C 0.20736 0.29011 0.21523
 C13 C 0.28756 0.28997 0.30320
 C14 C 0.20788 0.20896 0.19494
 O15 O 0.72283 0.21920 0.36724
 O16 O 0.78248 0.28036 0.31776
 O17 O 0.72251 0.27994 0.37662
 O18 O 0.78266 0.21975 0.30575
 O19 O 0.77308 0.22126 0.05495
 O20 O 0.71305 0.28107 0.12568
 O21 O 0.77290 0.28180 0.06720
 O22 O 0.71331 0.22051 0.11637
 Cu23 Cu 0.75367 0.24967 0.36643
 Cu24 Cu 0.74201 0.25130 0.06669
 C25 C 0.70772 0.20947 0.24973
 C26 C 0.78815 0.29147 0.18457
 C27 C 0.70733 0.29069 0.26219
 C28 C 0.78833 0.21037 0.16863
 O29 O 0.72282 0.78070 0.61850
 O30 O 0.78254 0.72008 0.68227
 O31 O 0.72272 0.71999 0.61928
 O32 O 0.78261 0.78077 0.68115
 O33 O 0.77241 0.78125 0.93139
 O34 O 0.71307 0.72028 0.87030
 O35 O 0.77257 0.72084 0.93299
 O36 O 0.71268 0.78096 0.86901
 Cu37 Cu 0.75377 0.75033 0.62565
 Cu38 Cu 0.74152 0.75093 0.92535
 C39 C 0.70737 0.79108 0.73367
 C40 C 0.78796 0.71025 0.81814
 C41 C 0.70762 0.70974 0.73515
 C42 C 0.78801 0.79129 0.81661
 O43 O 0.22325 0.72185 0.91785
 O44 O 0.28279 0.78195 0.83901
 O45 O 0.22292 0.78235 0.89955
 O46 O 0.28312 0.72135 0.85814
 O47 O 0.27378 0.71827 0.60725
 O48 O 0.21314 0.77875 0.64951
 O49 O 0.27298 0.77866 0.58866
 O50 O 0.21392 0.71827 0.66713
 Cu51 Cu 0.25410 0.75225 0.90322
 Cu52 Cu 0.24239 0.74813 0.60363
 C53 C 0.20826 0.70985 0.80508
 C54 C 0.28821 0.79050 0.70097
 C55 C 0.20744 0.79086 0.78142
 C56 C 0.28892 0.70952 0.72586
 C57 C 0.96974 -0.06484 -0.08002
 C58 C 0.99820 -0.08042 -0.10098
 C59 C 1.02685 -0.06494 -0.08535
 C60 C 1.02729 -0.03265 -0.05021
 C61 C 0.99862 -0.01628 -0.03287
 C62 C 0.96974 -0.03240 -0.04785
 C63 C 0.94165 -0.01557 -0.03266
 C64 C 0.94186 0.01624 0.00011
 C65 C 0.97016 0.03275 0.01465
 C66 C 0.99884 0.01632 -0.00125
 C67 C 1.05561 -0.01623 -0.03429
 C68 C 1.05582 0.01555 -0.00061
 C69 C 1.02773 0.03240 0.01453
 C70 C 1.02771 0.06481 0.04744
 C71 C 0.99922 0.08054 0.06497
 C72 C 0.97057 0.06519 0.04664
 H73 H 0.91912 -0.02674 -0.04686
 H74 H 0.91948 0.02769 0.01440
 H75 H 1.07797 -0.02778 -0.04770
 H76 H 1.07835 0.02672 0.01373
 H77 H 0.99809 -0.10528 -0.12571
 H78 H 0.99937 0.10544 0.08844
 C79 C 0.52733 0.56472 0.56769
 C80 C 0.49893 0.58062 0.58343
 C81 C 0.47026 0.56504 0.57213
 C82 C 0.46974 0.53261 0.54066
 C83 C 0.49836 0.51619 0.52271
 C84 C 0.52728 0.53230 0.53588
 C85 C 0.55533 0.51572 0.51340
 C86 C 0.55505 0.48388 0.48106
 C87 C 0.52670 0.46734 0.46987
 C88 C 0.49806 0.48366 0.49004
 C89 C 0.44138 0.51636 0.52282
 C90 C 0.44107 0.48453 0.49035
 C91 C 0.46913 0.46761 0.47542
 C92 C 0.46907 0.43523 0.44189
 C93 C 0.49750 0.41961 0.42029
 C94 C 0.52617 0.43507 0.43488
 H95 H 0.57782 0.52730 0.51856
 H96 H 0.57734 0.47243 0.46330
 H97 H 0.41906 0.52819 0.53173
 H98 H 0.41853 0.47343 0.47494
 H99 H 0.49912 0.60543 0.60925
 H100 H 0.49733 0.39481 0.39432
 C101 C -0.03075 0.43531 0.06851
 C102 C -0.00224 0.41990 0.08893
 C103 C 0.02634 0.43520 0.06821
 C104 C 0.02666 0.46722 0.02954
 C105 C -0.00208 0.48338 0.01151
 C106 C -0.03091 0.46730 0.02942
 C107 C -0.05907 0.48374 0.01021
 C108 C -0.05899 0.51533 -0.02546
 C109 C -0.03076 0.53195 -0.03987
 C110 C -0.00200 0.51576 -0.02288
 C111 C 0.05491 0.48360 0.01116
 C112 C 0.05498 0.51521 -0.02425
 C113 C 0.02682 0.53188 -0.03938
 C114 C 0.02669 0.56419 -0.07239
 C115 C -0.00185 0.57971 -0.09063
 C116 C -0.03047 0.56426 -0.07274
 H117 H -0.08153 0.47238 0.02313
 H118 H -0.08141 0.52655 -0.04180
 H119 H 0.07732 0.47220 0.02473
 H120 H 0.07745 0.52641 -0.03970
 H121 H -0.00231 0.39534 0.11852
 H122 H -0.00179 0.60456 -0.11355
 C123 C 0.46969 0.93584 0.56418
 C124 C 0.49820 0.92055 0.58709
 C125 C 0.52682 0.93582 0.56632
 C126 C 0.52719 0.96759 0.52323
 C127 C 0.49847 0.98371 0.50366
 C128 C 0.46962 0.96784 0.52476
 C129 C 0.44150 0.98452 0.50838
 C130 C 0.44163 1.01588 0.46835
 C131 C 0.46990 1.03201 0.44568
 C132 C 0.49861 1.01579 0.46320
 C133 C 0.55547 0.98378 0.50132
 C134 C 0.55558 1.01504 0.45890
 C135 C 0.52744 1.03158 0.44034
 C136 C 0.52730 1.06339 0.39745
 C137 C 0.49877 1.07889 0.37831
 C138 C 0.47022 1.06388 0.40436
 H139 H 0.41902 0.97357 0.52741
 H140 H 0.41923 1.02731 0.45456
 H141 H 0.57786 0.97244 0.51652
 H142 H 0.57805 1.02609 0.44064
 H143 H 0.49816 0.89603 0.61735
 H144 H 0.49883 1.10339 0.34765
 C145 C 1.13631 0.14354 0.10812
 C146 C 1.15399 0.15521 -0.01617
 C147 C 1.17810 0.17649 0.01262
 C148 C 1.18464 0.18652 0.16470
 C149 C 1.16658 0.17400 0.28558
 N150 N 1.14326 0.15336 0.25443
 C151 C 1.10935 0.12206 0.08673
 N152 N 1.08937 0.11803 0.20809
 C153 C 1.06366 0.09945 0.19890
 C154 C 1.05680 0.08346 0.06111
 C155 C 1.07696 0.08701 -0.06565
 C156 C 1.10342 0.10601 -0.05312
 H157 H 1.19119 0.18546 -0.08491
 H158 H 1.17061 0.18082 0.40489
 H159 H 1.04845 0.09735 0.29867
 H160 H 1.07208 0.07519 -0.17433
 H161 H 1.14906 0.14884 -0.13493
 H162 H 1.11879 0.10780 -0.15201
 C163 C 0.63524 0.64193 0.67215
 C164 C 0.64593 0.64903 0.82212
 C165 C 0.66980 0.67087 0.84220
 C166 C 0.68319 0.68564 0.71363
 C167 C 0.67209 0.67767 0.56552
 N168 N 0.64853 0.65656 0.54889
 C169 C 0.60868 0.62042 0.64528
 N170 N 0.59020 0.62476 0.51873
 C171 C 0.56460 0.60681 0.48982
 C172 C 0.55648 0.58277 0.59124
 C173 C 0.57539 0.57743 0.72075
 C174 C 0.60161 0.59609 0.74792
 H175 H 0.67753 0.67641 0.95864
 H176 H 0.68164 0.68864 0.46332
 H177 H 0.55038 0.61150 0.38886
 H178 H 0.56958 0.55908 0.80148
 H179 H 0.63539 0.63869 0.92354
 H180 H 0.61609 0.59140 0.84779
 C181 C -0.13928 0.35715 0.13602
 C182 C -0.15655 0.34792 0.00522
 C183 C -0.18095 0.32647 0.02111
 C184 C -0.18832 0.31412 0.16729
 C185 C -0.17081 0.32457 0.29567
 N186 N -0.14709 0.34531 0.27675
 C187 C -0.11218 0.37864 0.12261
 N188 N -0.10420 0.39060 -0.01794
 C189 C -0.07886 0.40940 -0.03723
 C190 C -0.05977 0.41697 0.08950
 C191 C -0.06749 0.40511 0.23527
 C192 C -0.09375 0.38610 0.25257
 H193 H -0.19371 0.31932 -0.08159
 H194 H -0.17554 0.31600 0.41101
 H195 H -0.07327 0.41796 -0.15164
 H196 H -0.05300 0.41037 0.33508
 H197 H -0.15104 0.35680 -0.10869
 H198 H -0.09922 0.37696 0.36600
 C199 C 0.36134 0.85671 0.61912
 C200 C 0.34533 0.84332 0.49270
 C201 C 0.32109 0.82214 0.51930
 C202 C 0.31282 0.81403 0.67108
 C203 C 0.32923 0.82804 0.79402
 N204 N 0.35275 0.84855 0.76530
 C205 C 0.38826 0.87824 0.59990
 N206 N 0.40771 0.88301 0.72292
 C207 C 0.43333 0.90173 0.71507
 C208 C 0.44063 0.91710 0.57709
 C209 C 0.42096 0.91280 0.44888
 C210 C 0.39461 0.89368 0.45998
 H211 H 0.30923 0.81170 0.42094
 H212 H 0.32368 0.82246 0.91297
 H213 H 0.44813 0.90443 0.81606
 H214 H 0.42615 0.92412 0.34007
 H215 H 0.35175 0.84824 0.37432
 H216 H 0.37957 0.89132 0.36002
 C217 C -0.13864 0.64384 -0.11339
 C218 C -0.15482 0.65607 0.01542
 C219 C -0.17911 0.67732 -0.00707
 C220 C -0.18729 0.68668 -0.15706
 C221 C -0.17067 0.67387 -0.28259
 N222 N -0.14710 0.65323 -0.25784
 C223 C -0.11173 0.62221 -0.09815
 N224 N -0.09224 0.61833 -0.22192
 C225 C -0.06664 0.59955 -0.21738
 C226 C -0.05942 0.58320 -0.08221
 C227 C -0.07909 0.58660 0.04669
 C228 C -0.10543 0.60578 0.03892
 H229 H -0.19112 0.68682 0.09324
 H230 H -0.17613 0.68045 -0.40029
 H231 H -0.05181 0.59755 -0.31876
 H232 H -0.07395 0.57450 0.15340
 H233 H -0.14851 0.65018 0.13276
 H234 H -0.12049 0.60738 0.13922
 C235 C 0.36142 1.14245 0.35620
 C236 C 0.33959 1.14817 0.47527
 C237 C 0.31551 1.16961 0.45213
 C238 C 0.31269 1.18513 0.31036
 C239 C 0.33433 1.17812 0.19279
 N240 N 0.35783 1.15743 0.21866
 C241 C 0.38852 1.12104 0.37426
 N242 N 0.40607 1.11403 0.24661
 C243 C 0.43186 1.09551 0.25286
 C244 C 0.44132 1.08276 0.39405
 C245 C 0.42392 1.08964 0.52735
 C246 C 0.39756 1.10873 0.51836
 H247 H 0.29913 1.17406 0.54553
 H248 H 0.33297 1.18945 0.08136
 H249 H 0.44504 1.09086 0.14804
 H250 H 0.43107 1.08056 0.63866
 H251 H 0.34067 1.13646 0.58535
 H252 H 0.38519 1.11407 0.62431
 C253 C 1.13461 -0.14375 -0.16778
 C254 C 1.14148 -0.15608 -0.31494
 C255 C 1.16591 -0.17740 -0.33230
 C256 C 1.18367 -0.18666 -0.20335
 C257 C 1.17634 -0.17326 -0.05841
 N258 N 1.15233 -0.15261 -0.04464
 C259 C 1.10784 -0.12216 -0.14454
 N260 N 1.08849 -0.11557 -0.26544
 C261 C 1.06298 -0.09690 -0.24960
 C262 C 1.05572 -0.08360 -0.10534
 C263 C 1.07523 -0.08987 0.02099
 C264 C 1.10138 -0.10906 0.00182
 H265 H 1.17056 -0.18686 -0.44674
 H266 H 1.18932 -0.17944 0.04457
 H267 H 1.04821 -0.09265 -0.34909
 H268 H 1.06995 -0.08022 0.13437
 H269 H 1.12797 -0.14958 -0.41572
 H270 H 1.11611 -0.11385 0.10079
 C271 C 0.63363 0.35672 0.33518
 C272 C 0.64066 0.34641 0.18445
 C273 C 0.66498 0.32526 0.16080
 C274 C 0.68242 0.31420 0.28674
 C275 C 0.67500 0.32543 0.43553
 N276 N 0.65109 0.34603 0.45577
 C277 C 0.60695 0.37813 0.36384
 N278 N 0.58722 0.38529 0.24529
 C279 C 0.56177 0.40387 0.26512
 C280 C 0.55498 0.41650 0.41123
 C281 C 0.57490 0.40971 0.53532
 C282 C 0.60096 0.39054 0.51212
 H283 H 0.66987 0.31731 0.04389
 H284 H 0.68789 0.31759 0.53583
 H285 H 0.54668 0.40856 0.16731
 H286 H 0.57000 0.41891 0.65001
 H287 H 0.62739 0.35438 0.08556
 H288 H 0.61603 0.38529 0.60926
 C289 C 0.86065 -0.14353 -0.11695
 C290 C 0.84354 -0.15422 0.01141
 C291 C 0.81907 -0.17537 -0.01079
 C292 C 0.81161 -0.18631 -0.16028
 C293 C 0.82916 -0.17482 -0.28549
 N294 N 0.85285 -0.15422 -0.26073
 C295 C 0.88784 -0.12212 -0.10212
 N296 N 0.90723 -0.11885 -0.22644
 C297 C 0.93305 -0.10034 -0.22287
 C298 C 0.94064 -0.08362 -0.08810
 C299 C 0.92111 -0.08643 0.04149
 C300 C 0.89454 -0.10535 0.03474
 H301 H 0.80644 -0.18357 0.08992
 H302 H 0.82442 -0.18239 -0.40310
 H303 H 0.94775 -0.09881 -0.32481
 H304 H 0.92655 -0.07403 0.14796
 H305 H 0.84916 -0.14719 0.12853
 H306 H 0.87968 -0.10648 0.13577
 C307 C 0.36040 0.35652 0.38761
 C308 C 0.34402 0.34373 0.51355
 C309 C 0.31985 0.32244 0.48618
 C310 C 0.31202 0.31366 0.33415
 C311 C 0.32876 0.32715 0.21173
 N312 N 0.35220 0.34776 0.24125
 C313 C 0.38738 0.37798 0.40722
 N314 N 0.40697 0.38215 0.28443
 C315 C 0.43269 0.40073 0.29221
 C316 C 0.43994 0.41660 0.42987
 C317 C 0.42013 0.41297 0.55792
 C318 C 0.39368 0.39392 0.54693
 H319 H 0.30771 0.31242 0.58415
 H320 H 0.32355 0.32109 0.09254
 H321 H 0.44761 0.40294 0.19144
 H322 H 0.42530 0.42475 0.66640
 H323 H 0.35012 0.34919 0.63210
 H324 H 0.37854 0.39201 0.64670
 C325 C 0.13505 0.64350 -0.11783
 C326 C 0.15091 0.65664 0.00974
 C327 C 0.17518 0.67788 -0.01511
 C328 C 0.18364 0.68626 -0.16626
 C329 C 0.16739 0.67246 -0.29032
 N330 N 0.14383 0.65192 -0.26329
 C331 C 0.10808 0.62196 -0.10080
 N332 N 0.08881 0.61753 -0.22482
 C333 C 0.06318 0.59879 -0.21921
 C334 C 0.05571 0.58302 -0.08264
 C335 C 0.07518 0.58694 0.04657
 C336 C 0.10153 0.60615 0.03782
 H337 H 0.18693 0.68814 0.08401
 H338 H 0.17307 0.67824 -0.40887
 H339 H 0.04851 0.59637 -0.32087
 H340 H 0.06984 0.57526 0.15426
 H341 H 0.14433 0.65145 0.12761
 H342 H 0.11641 0.60825 0.13845
 C343 C 0.63469 1.14216 0.30732
 C344 C 0.64147 1.15356 0.15896
 C345 C 0.66558 1.17515 0.13987
 C346 C 0.68305 1.18549 0.26802
 C347 C 0.67590 1.17314 0.41407
 N348 N 0.65221 1.15219 0.42983
 C349 C 0.60821 1.12036 0.33239
 N350 N 0.58890 1.11283 0.21214
 C351 C 0.56351 1.09406 0.22964
 C352 C 0.55632 1.08169 0.37507
 C353 C 0.57585 1.08888 0.50067
 C354 C 0.60188 1.10812 0.47979
 H355 H 0.67028 1.18400 0.02501
 H356 H 0.68880 1.18038 0.51602
 H357 H 0.54873 1.08911 0.13066
 H358 H 0.57061 1.07999 0.61496
 H359 H 0.62811 1.14615 0.05864
 H360 H 0.61657 1.11369 0.57834
 C361 C 0.13393 0.35675 0.15538
 C362 C 0.14075 0.34555 0.30395
 C363 C 0.16498 0.32419 0.32354
 C364 C 0.18258 0.31387 0.19570
 C365 C 0.17541 0.32602 0.04932
 N366 N 0.15156 0.34675 0.03301
 C367 C 0.10730 0.37832 0.13042
 N368 N 0.08813 0.38591 0.25128
 C369 C 0.06269 0.40455 0.23442
 C370 C 0.05527 0.41675 0.08902
 C371 C 0.07461 0.40950 -0.03731
 C372 C 0.10072 0.39035 -0.01705
 H373 H 0.16970 0.31551 0.43870
 H374 H 0.18842 0.31877 -0.05237
 H375 H 0.04806 0.40960 0.33400
 H376 H 0.06921 0.41831 -0.15149
 H377 H 0.12732 0.35294 0.40414
 H378 H 0.11532 0.38474 -0.11599
 C379 C 0.63410 0.85751 0.66436
 C380 C 0.64100 0.84729 0.81463
 C381 C 0.66518 0.82599 0.83726
 C382 C 0.68262 0.81475 0.71080
 C383 C 0.67535 0.82592 0.56259
 N384 N 0.65158 0.84663 0.54334
 C385 C 0.60756 0.87902 0.63633
 N386 N 0.58839 0.88732 0.75605
 C387 C 0.56302 0.90597 0.73661
 C388 C 0.55570 0.91743 0.58965
 C389 C 0.57503 0.90942 0.46437
 C390 C 0.60105 0.89028 0.48724
 H391 H 0.66997 0.81808 0.95372
 H392 H 0.68825 0.81795 0.46186
 H393 H 0.54838 0.91157 0.83538
 H394 H 0.56968 0.91763 0.34903
 H395 H 0.62770 0.85541 0.91385
 H396 H 0.61564 0.88409 0.38911
 C397 C 0.86225 0.14461 0.09267
 C398 C 0.84608 0.15696 -0.03490
 C399 C 0.82162 0.17799 -0.01006
 C400 C 0.81326 0.18700 0.14110
 C401 C 0.82986 0.17405 0.26533
 N402 N 0.85360 0.15364 0.23818
 C403 C 0.88932 0.12319 0.07526
 N404 N 0.90876 0.11935 0.19877
 C405 C 0.93441 0.10063 0.19296
 C406 C 0.94169 0.08424 0.05679
 C407 C 0.92210 0.08765 -0.07205
 C408 C 0.89576 0.10684 -0.06316
 H409 H 0.80964 0.18759 -0.10948
 H410 H 0.82428 0.18033 0.38394
 H411 H 0.94918 0.09866 0.29426
 H412 H 0.92731 0.07550 -0.17953
 H413 H 0.85252 0.15131 -0.15292
 H414 H 0.88076 0.10847 -0.16347
 C415 C 0.36258 0.64266 0.67576
 C416 C 0.35228 0.65122 0.82469
 C417 C 0.32800 0.67277 0.84111
 C418 C 0.31383 0.68574 0.70981
 C419 C 0.32462 0.67633 0.56305
 N420 N 0.34854 0.65557 0.55003
 C421 C 0.38940 0.62135 0.65144
 N422 N 0.40705 0.62452 0.52101
 C423 C 0.43258 0.60647 0.49230
 C424 C 0.44145 0.58348 0.59782
 C425 C 0.42345 0.57935 0.73177
 C426 C 0.39734 0.59819 0.75902
 H427 H 0.32055 0.67950 0.95658
 H428 H 0.31450 0.68587 0.45871
 H429 H 0.44608 0.61018 0.38786
 H430 H 0.42982 0.56175 0.81547
 H431 H 0.36338 0.64221 0.92767
 H432 H 0.38351 0.59445 0.86230
   
