data_POSCAR
  _audit_creation_date              2014-09-24
  _audit_creation_method            'ToBaCCo'
  _symmetry_space_group_name_H-M    'P1'
  _symmetry_Int_Tables_number       1
  _symmetry_cell_setting            triclinic
  loop_
  _symmetry_equiv_pos_as_xyz
 x,y,z
_cell_length_a 49.8058
_cell_length_b 49.7426
_cell_length_c 16.0232
_cell_angle_alpha 89.735300
_cell_angle_beta 90.524400
_cell_angle_gamma 120.032000
loop_
  _atom_site_label
  _atom_site_type_symbol
  _atom_site_fract_x
  _atom_site_fract_y
  _atom_site_fract_z
C1 C 0.23104 0.46895 0.52415
 C2 C 0.23212 0.47312 0.43994
 C3 C 0.20746 0.47567 0.39421
 C4 C 0.25825 0.47586 0.38986
 C5 C 0.25533 0.46574 0.56960
 C6 C 0.20598 0.46831 0.57489
 C7 C 0.17637 0.45218 0.39948
 C8 C 0.15308 0.45557 0.36030
 C9 C 0.16044 0.48265 0.31370
 C10 C 0.19200 0.50547 0.30601
 C11 C 0.21516 0.50203 0.34584
 C12 C 0.25263 0.45393 0.32754
 C13 C 0.27719 0.45568 0.28167
 C14 C 0.30767 0.47980 0.29598
 C15 C 0.31322 0.50197 0.35810
 C16 C 0.28867 0.50004 0.40443
 C17 C 0.27324 0.48756 0.63079
 C18 C 0.29760 0.48621 0.67045
 C19 C 0.30419 0.46252 0.65063
 C20 C 0.28576 0.44037 0.59022
 C21 C 0.26146 0.44186 0.55029
 C22 C 0.20225 0.49441 0.57938
 C23 C 0.17749 0.49299 0.62360
 C24 C 0.15605 0.46536 0.66392
 C25 C 0.16007 0.43942 0.65977
 C26 C 0.18507 0.44100 0.61658
 H27 H 0.17009 0.43121 0.43459
 H28 H 0.12970 0.43648 0.36680
 H29 H 0.19892 0.52645 0.27020
 H30 H 0.23911 0.52031 0.34039
 H31 H 0.22928 0.43512 0.31557
 H32 H 0.27236 0.43824 0.23459
 H33 H 0.29338 0.51724 0.45214
 H34 H 0.26896 0.50629 0.64593
 H35 H 0.31154 0.50437 0.71451
 H36 H 0.29033 0.42198 0.57341
 H37 H 0.24769 0.42466 0.50354
 H38 H 0.21822 0.51568 0.54749
 H39 H 0.17465 0.51319 0.62391
 H40 H 0.14376 0.41786 0.68991
 H41 H 0.18762 0.42064 0.61353
 H42 H 0.33650 0.52041 0.37231
 C43 C 0.51739 -0.23655 0.53392
 C44 C 0.51083 -0.24064 0.45064
 C45 C 0.50656 -0.26867 0.40682
 C46 C 0.50860 -0.21694 0.39911
 C47 C 0.51997 -0.20941 0.57904
 C48 C 0.52199 -0.25918 0.58375
 C49 C 0.52716 -0.26558 0.34360
 C50 C 0.52491 -0.29189 0.30600
 C51 C 0.50178 -0.32174 0.33069
 C52 C 0.48028 -0.32471 0.39125
 C53 C 0.48275 -0.29836 0.42951
 C54 C 0.53316 -0.18617 0.39702
 C55 C 0.53039 -0.16377 0.35108
 C56 C 0.50333 -0.17174 0.30483
 C57 C 0.47897 -0.20280 0.30532
 C58 C 0.48172 -0.22520 0.35182
 C59 C 0.49488 -0.20406 0.58133
 C60 C 0.49798 -0.17768 0.62094
 C61 C 0.52626 -0.15626 0.65918
 C62 C 0.55126 -0.16176 0.65685
 C63 C 0.54803 -0.18833 0.61802
 C64 C 0.50282 -0.27408 0.65199
 C65 C 0.50555 -0.29684 0.69646
 C66 C 0.52783 -0.30513 0.67367
 C67 C 0.54778 -0.28908 0.60694
 C68 C 0.54494 -0.26635 0.56266
 H69 H 0.54547 -0.24279 0.32490
 H70 H 0.54119 -0.28882 0.25749
 H71 H 0.46202 -0.34747 0.41032
 H72 H 0.46642 -0.30108 0.47756
 H73 H 0.55437 -0.17945 0.43160
 H74 H 0.54952 -0.14006 0.35170
 H75 H 0.46254 -0.24888 0.35257
 H76 H 0.47305 -0.22014 0.55155
 H77 H 0.47848 -0.17375 0.61979
 H78 H 0.57328 -0.14552 0.68548
 H79 H 0.56764 -0.19210 0.61656
 H80 H 0.48516 -0.26859 0.66963
 H81 H 0.48984 -0.30769 0.74773
 H82 H 0.56540 -0.29443 0.58787
 H83 H 0.56040 -0.25462 0.51110
 H84 H 0.45749 -0.20981 0.27208
 C85 C 1.25068 0.74991 0.54190
 C86 C 1.24979 0.75128 0.45707
 C87 C 1.27426 0.77789 0.40964
 C88 C 1.22396 0.72629 0.40777
 C89 C 1.22443 0.72539 0.58963
 C90 C 1.27732 0.77334 0.59183
 C91 C 1.28188 0.80849 0.42750
 C92 C 1.30491 0.83329 0.38225
 C93 C 1.32071 0.82818 0.31725
 C94 C 1.31247 0.79716 0.29895
 C95 C 1.28948 0.77245 0.34450
 C96 C 1.20586 0.73349 0.35480
 C97 C 1.18100 0.71007 0.30988
 C98 C 1.17416 0.67910 0.31560
 C99 C 1.19248 0.67194 0.36843
 C100 C 1.21720 0.69536 0.41382
 C101 C 1.22930 0.70606 0.64387
 C102 C 1.20469 0.68301 0.68936
 C103 C 1.17465 0.67894 0.68250
 C104 C 1.17017 0.69902 0.62863
 C105 C 1.19482 0.72193 0.58303
 C106 C 1.30713 0.77759 0.58192
 C107 C 1.33179 0.79913 0.63139
 C108 C 1.32731 0.81728 0.69090
 C109 C 1.29706 0.81250 0.70092
 C110 C 1.27244 0.79066 0.65226
 H111 H 1.26990 0.81319 0.47633
 H112 H 1.31029 0.85663 0.39823
 H113 H 1.32343 0.79125 0.25031
 H114 H 1.28376 0.74896 0.32941
 H115 H 1.21068 0.75721 0.34938
 H116 H 1.16717 0.71619 0.27007
 H117 H 1.23099 0.68935 0.45409
 H118 H 1.25214 0.70863 0.65026
 H119 H 1.20924 0.66826 0.73008
 H120 H 1.14800 0.69762 0.62034
 H121 H 1.19083 0.73713 0.54263
 H122 H 1.31121 0.76401 0.53643
 H123 H 1.35456 0.80188 0.62218
 H124 H 1.29170 0.82476 0.74725
 H125 H 1.24945 0.78733 0.66151
 H126 H 1.18746 0.64825 0.37611
 C127 C 0.74638 0.49892 0.54682
 C128 C 0.74623 0.49704 0.46187
 C129 C 0.77178 0.49613 0.41683
 C130 C 0.72140 0.49769 0.41110
 C131 C 0.71890 0.49483 0.59280
 C132 C 0.77385 0.50491 0.59823
 C133 C 0.78740 0.51732 0.35223
 C134 C 0.81395 0.51932 0.31714
 C135 C 0.82534 0.50019 0.34639
 C136 C 0.80902 0.47820 0.40856
 C137 C 0.78211 0.47571 0.44219
 C138 C 0.71449 0.52152 0.42246
 C139 C 0.69063 0.52177 0.37681
 C140 C 0.67355 0.49860 0.31749
 C141 C 0.68089 0.47500 0.30483
 C142 C 0.70476 0.47470 0.35102
 C143 C 0.69052 0.46696 0.58728
 C144 C 0.66507 0.46286 0.63353
 C145 C 0.66726 0.48680 0.68481
 C146 C 0.69612 0.51468 0.69048
 C147 C 0.72161 0.51843 0.64543
 C148 C 0.77029 0.48555 0.66600
 C149 C 0.79606 0.48995 0.71218
 C150 C 0.82615 0.51370 0.69148
 C151 C 0.82944 0.53395 0.62521
 C152 C 0.80349 0.52974 0.57994
 H153 H 0.77985 0.53325 0.33156
 H154 H 0.82630 0.53675 0.26987
 H155 H 0.81728 0.46310 0.43157
 H156 H 0.77003 0.45869 0.49059
 H157 H 0.72751 0.53991 0.46710
 H158 H 0.68555 0.54024 0.38778
 H159 H 0.70981 0.45615 0.34123
 H160 H 0.68823 0.44826 0.54793
 H161 H 0.64346 0.44103 0.62811
 H162 H 0.69980 0.53345 0.73130
 H163 H 0.74355 0.53989 0.65141
 H164 H 0.74758 0.46648 0.68194
 H165 H 0.79242 0.47408 0.76307
 H166 H 0.85165 0.55314 0.60733
 H167 H 0.80661 0.54559 0.52950
 H168 H 0.66786 0.45631 0.26118
 C169 C 0.51181 0.26125 0.54629
 C170 C 0.51370 0.26148 0.46144
 C171 C 0.51299 0.28605 0.41018
 C172 C 0.51477 0.23615 0.41567
 C173 C 0.50944 0.23512 0.59706
 C174 C 0.51111 0.28665 0.59268
 C175 C 0.48839 0.29201 0.41696
 C176 C 0.48817 0.31553 0.36973
 C177 C 0.51213 0.33314 0.31340
 C178 C 0.53653 0.32676 0.30549
 C179 C 0.53681 0.30328 0.35327
 C180 C 0.49078 0.21765 0.35969
 C181 C 0.49015 0.19229 0.32062
 C182 C 0.51376 0.18518 0.33623
 C183 C 0.53848 0.20456 0.38941
 C184 C 0.53889 0.22973 0.42936
 C185 C 0.53107 0.24094 0.66091
 C186 C 0.52948 0.21656 0.70846
 C187 C 0.50592 0.18557 0.69316
 C188 C 0.48392 0.18014 0.62993
 C189 C 0.48550 0.20460 0.58298
 C190 C 0.53604 0.31720 0.58952
 C191 C 0.53509 0.34084 0.63413
 C192 C 0.50894 0.33435 0.68276
 C193 C 0.48392 0.30364 0.68431
 C194 C 0.48518 0.28004 0.64079
 H195 H 0.46939 0.27848 0.45901
 H196 H 0.46907 0.31989 0.37696
 H197 H 0.55578 0.34020 0.26426
 H198 H 0.55593 0.29891 0.34704
 H199 H 0.47211 0.22241 0.34787
 H200 H 0.47129 0.17840 0.27790
 H201 H 0.55778 0.24400 0.47168
 H202 H 0.54954 0.26444 0.67319
 H203 H 0.54702 0.22259 0.75605
 H204 H 0.46529 0.15681 0.61649
 H205 H 0.46808 0.19969 0.53536
 H206 H 0.55625 0.32269 0.55256
 H207 H 0.55469 0.36404 0.62835
 H208 H 0.46338 0.29766 0.72044
 H209 H 0.46567 0.25658 0.64375
 H210 H 0.55713 0.19979 0.40148
 C211 C 0.75594 0.24261 0.54364
 C212 C 0.75886 0.24173 0.45956
 C213 C 0.73383 0.21770 0.40696
 C214 C 0.78681 0.26541 0.41580
 C215 C 0.78045 0.26749 0.59556
 C216 C 0.72788 0.21898 0.58751
 C217 C 0.72338 0.18608 0.41955
 C218 C 0.69841 0.16366 0.37297
 C219 C 0.68372 0.17241 0.31217
 C220 C 0.69471 0.20423 0.29863
 C221 C 0.71967 0.22661 0.34534
 C222 C 0.80746 0.25715 0.38143
 C223 C 0.83418 0.27939 0.34092
 C224 C 0.84012 0.30995 0.33197
 C225 C 0.81930 0.31815 0.36636
 C226 C 0.79288 0.29603 0.40827
 C227 C 0.77367 0.28737 0.64056
 C228 C 0.79668 0.31177 0.68738
 C229 C 0.82721 0.31667 0.69084
 C230 C 0.83352 0.29602 0.64672
 C231 C 0.81042 0.27169 0.59980
 C232 C 0.69879 0.21618 0.57232
 C233 C 0.67237 0.19286 0.61178
 C234 C 0.67459 0.17177 0.66594
 C235 C 0.70394 0.17522 0.68269
 C236 C 0.73035 0.19874 0.64407
 H237 H 0.73428 0.17879 0.46626
 H238 H 0.69042 0.13936 0.38480
 H239 H 0.68369 0.21209 0.25418
 H240 H 0.72736 0.25094 0.33518
 H241 H 0.80305 0.23358 0.38707
 H242 H 0.85003 0.27265 0.31544
 H243 H 0.77714 0.30271 0.43476
 H244 H 0.75056 0.28434 0.63809
 H245 H 0.78998 0.32649 0.71943
 H246 H 0.85653 0.29878 0.64790
 H247 H 0.81594 0.25621 0.56644
 H248 H 0.69659 0.23189 0.52951
 H249 H 0.65007 0.19090 0.59882
 H250 H 0.70657 0.15997 0.72619
 H251 H 0.75270 0.20083 0.65705
 H252 H 0.82369 0.34174 0.36210
 O253 O 1.03785 0.56791 0.15535
 O254 O 1.07388 0.56187 0.08197
 C255 C 1.06621 0.57498 0.13952
 O256 O 0.95136 0.42937 0.12990
 O257 O 0.91943 0.43927 0.04734
 C258 C 0.92413 0.42319 0.10331
 O259 O 1.03791 0.47523 0.15272
 O260 O 1.07412 0.51750 0.07957
 C261 C 1.06636 0.49614 0.13610
 O262 O 0.95050 0.52620 0.12992
 O263 O 0.91896 0.48560 0.04331
 C264 C 0.92347 0.50600 0.09973
 Zr265 Zr 0.99543 0.53425 0.09885
 O266 O 0.98914 0.53068 0.22973
 O267 O 0.99858 0.57830 0.09941
 Zr268 Zr 0.99573 0.46624 0.09587
 O269 O 0.99226 0.46010 0.22682
 O270 O 0.99703 0.42472 0.08127
 O271 O 1.02259 0.51375 0.11952
 O272 O 0.96840 0.48654 0.10718
 O273 O 0.95803 0.53171 -0.15909
 O274 O 0.92257 0.48705 -0.09298
 C275 C 0.92981 0.50990 -0.14391
 O276 O 1.04615 0.48025 -0.15170
 O277 O 1.07789 0.52076 -0.06521
 C278 C 1.07334 0.50131 -0.12466
 O279 O 0.95878 0.43339 -0.16154
 O280 O 0.92278 0.44081 -0.09252
 C281 C 0.93041 0.42606 -0.14514
 O282 O 1.04469 0.57276 -0.15098
 O283 O 1.07708 0.56493 -0.06457
 C284 C 1.07203 0.57965 -0.12410
 Zr285 Zr 1.00063 0.53778 -0.11147
 O286 O 1.00026 0.53861 -0.24355
 O287 O 1.00401 0.58192 -0.10759
 Zr288 Zr 1.00124 0.47001 -0.11374
 O289 O 1.00113 0.47071 -0.24587
 O290 O 1.00459 0.42924 -0.11407
 Zr291 Zr 1.04431 0.52535 0.00198
 Zr292 Zr 0.95237 0.47895 -0.01711
 O293 O 0.97453 0.49060 -0.13357
 O294 O 1.02888 0.51811 -0.12324
 O295 O 0.97045 0.52735 -0.01185
 O296 O 1.02559 0.47695 -0.00329
 O297 O 1.02499 0.55451 -0.00069
 O298 O 0.97080 0.44896 -0.01463
 H299 H 0.95313 0.47890 0.15303
 H300 H 1.03983 0.46845 -0.00092
 H301 H 0.96171 0.48430 -0.18516
 H302 H 1.03906 0.57727 0.00267
 H303 H 0.99639 0.41672 0.13838
 H304 H 0.98818 0.41405 -0.07695
 H305 H 1.01933 0.49044 -0.26376
 H306 H 1.01706 0.53508 -0.26269
 H307 H 0.98549 0.57944 -0.07842
 H308 H 0.98143 0.57675 0.06429
 H309 H 1.00525 0.52681 0.25396
 H310 H 0.98498 0.47382 0.24893
 O311 O 0.56626 0.52646 0.15515
 O312 O 0.56171 0.48854 0.06553
 C313 C 0.57470 0.50729 0.12797
 O314 O 0.42640 0.46743 0.14702
 O315 O 0.43310 0.51170 0.08295
 C316 C 0.41843 0.48822 0.13272
 O317 O 0.47609 0.43067 0.13976
 O318 O 0.51840 0.44237 0.05890
 C319 C 0.49820 0.42603 0.11553
 O320 O 0.52159 0.56866 0.16117
 O321 O 0.47734 0.55879 0.09036
 C322 C 0.49932 0.57429 0.14402
 Zr323 Zr 0.53035 0.53426 0.11264
 O324 O 0.52816 0.53209 0.24459
 O325 O 0.57341 0.57622 0.11884
 Zr326 Zr 0.46461 0.46432 0.10102
 O327 O 0.46186 0.46113 0.23275
 O328 O 0.42552 0.41919 0.08959
 O329 O 0.51259 0.48641 0.11830
 O330 O 0.48286 0.51093 0.12714
 O331 O 0.52111 0.57655 -0.12709
 O332 O 0.47741 0.56292 -0.05058
 C333 C 0.49884 0.58095 -0.10214
 O334 O 0.47618 0.43920 -0.16635
 O335 O 0.51842 0.44672 -0.08912
 C336 C 0.49842 0.43355 -0.14917
 O337 O 0.42613 0.47559 -0.14183
 O338 O 0.43253 0.51524 -0.05582
 C339 C 0.41776 0.49475 -0.11339
 O340 O 0.56703 0.53623 -0.14820
 O341 O 0.56189 0.49296 -0.08139
 C342 C 0.57546 0.51586 -0.13367
 Zr343 Zr 0.53033 0.54035 -0.09702
 O344 O 0.52814 0.54505 -0.22796
 O345 O 0.57305 0.58266 -0.09046
 Zr346 Zr 0.46467 0.47033 -0.10817
 O347 O 0.46232 0.47526 -0.23888
 O348 O 0.42562 0.42499 -0.11370
 Zr349 Zr 0.52301 0.48151 -0.00614
 Zr350 Zr 0.47237 0.52312 0.01045
 O351 O 0.48278 0.51783 -0.11322
 O352 O 0.51270 0.49343 -0.12392
 O353 O 0.52033 0.55523 0.01362
 O354 O 0.47490 0.45016 -0.00917
 O355 O 0.54987 0.53017 0.00386
 O356 O 0.44442 0.47446 0.00059
 H357 H 0.47536 0.51587 0.17870
 H358 H 0.46751 0.42766 -0.01428
 H359 H 0.47503 0.52544 -0.15956
 H360 H 0.57278 0.54016 0.00446
 H361 H 0.40863 0.42123 0.06292
 H362 H 0.40905 0.42493 -0.08001
 H363 H 0.48287 0.48091 -0.26173
 H364 H 0.52831 0.52719 -0.25426
 H365 H 0.57020 0.59673 -0.05285
 H366 H 0.57096 0.59224 0.08860
 H367 H 0.52716 0.51250 0.26186
 H368 H 0.48253 0.46611 0.25412
 O369 O 0.48136 0.05069 0.16709
 O370 O 0.52089 0.08309 0.08020
 C371 C 0.50265 0.07808 0.14272
 O372 O 0.52572 -0.04243 0.13279
 O373 O 0.47943 -0.07509 0.06761
 C374 C 0.50288 -0.06982 0.11497
 O375 O 0.57064 0.04378 0.14211
 O376 O 0.56407 0.07985 0.06889
 C377 C 0.57876 0.07212 0.12242
 O378 O 0.43115 -0.03621 0.16219
 O379 O 0.43444 -0.07195 0.07918
 C380 C 0.42190 -0.06455 0.13880
 Zr381 Zr 0.46789 0.00646 0.11591
 O382 O 0.46894 0.00712 0.24802
 O383 O 0.42745 0.01017 0.11401
 Zr384 Zr 0.53296 0.00166 0.09837
 O385 O 0.53449 -0.00135 0.23000
 O386 O 0.57524 0.00159 0.08794
 O387 O 0.51620 0.03166 0.12307
 O388 O 0.48604 -0.02296 0.12297
 O389 O 0.42159 -0.03570 -0.12647
 O390 O 0.43021 -0.07192 -0.06113
 C391 C 0.41401 -0.06409 -0.10870
 O392 O 0.56185 0.04442 -0.16136
 O393 O 0.55975 0.08041 -0.07637
 C394 C 0.57128 0.07284 -0.13810
 O395 O 0.51631 -0.04316 -0.15311
 O396 O 0.47458 -0.07527 -0.07179
 C397 C 0.49446 -0.07047 -0.12968
 O398 O 0.47199 0.05052 -0.13898
 O399 O 0.51662 0.08302 -0.06689
 C400 C 0.49486 0.07785 -0.12046
 Zr401 Zr 0.46181 0.00645 -0.09342
 O402 O 0.45598 0.00266 -0.22471
 O403 O 0.42304 0.01281 -0.08203
 Zr404 Zr 0.52683 0.00155 -0.11117
 O405 O 0.52191 -0.00164 -0.24271
 O406 O 0.56847 0.00007 -0.11534
 Zr407 Zr 0.52310 0.05039 0.00164
 Zr408 Zr 0.47185 -0.04222 0.00315
 O409 O 0.47895 -0.02293 -0.11730
 O410 O 0.50913 0.03162 -0.11923
 O411 O 0.44451 -0.02098 0.01310
 O412 O 0.54960 0.02835 -0.00808
 O413 O 0.47529 0.03403 0.01211
 O414 O 0.51957 -0.02645 -0.00732
 H415 H 0.47995 -0.03720 0.17143
 H416 H 0.57247 0.04119 -0.01210
 H417 H 0.46977 -0.03690 -0.16601
 H418 H 0.46804 0.04926 0.01575
 H419 H 0.57295 -0.01196 0.04019
 H420 H 0.57295 -0.00043 -0.17527
 H421 H 0.51966 0.01607 -0.26190
 H422 H 0.47552 0.01888 -0.24976
 H423 H 0.40943 -0.00183 -0.03881
 H424 H 0.42240 0.01114 0.17318
 H425 H 0.47878 -0.00488 0.26680
 H426 H 0.53252 0.01595 0.25344
 C427 C 1.13887 0.48765 0.27579
 C428 C 1.10659 0.46823 0.28269
 C429 C 1.08426 0.47232 0.23993
 C430 C 1.09025 0.49536 0.18025
 H431 H 1.09713 0.44850 0.32413
 H432 H 1.06036 0.45533 0.25350
 H433 H 1.14731 0.50856 0.23897
 H434 H 1.11373 0.51267 0.16465
 C435 C 0.49938 0.65002 0.29335
 C436 C 0.52446 0.64873 0.26972
 C437 C 0.52310 0.62111 0.23181
 C438 C 0.49881 0.60004 0.18722
 H439 H 0.54737 0.66829 0.28171
 H440 H 0.54399 0.61952 0.23598
 H441 H 0.47663 0.62945 0.28976
 H442 H 0.47867 0.60264 0.17768
 C443 C 0.34396 -0.14572 0.27428
 C444 C 0.36064 -0.14705 0.21038
 C445 C 0.38555 -0.11986 0.16627
 C446 C 0.39589 -0.08989 0.18459
 H447 H 0.35665 -0.16903 0.18693
 H448 H 0.39630 -0.12542 0.11586
 H449 H 0.34843 -0.12320 0.29498
 H450 H 0.38592 -0.08338 0.23465
 C451 C 0.85490 0.50375 0.31636
 C452 C 0.86369 0.51010 0.23687
 C453 C 0.89281 0.51239 0.20881
 C454 C 0.89574 0.50599 0.12986
 H455 H 0.84855 0.51197 0.19110
 H456 H 0.91123 0.51767 0.25371
 H457 H 0.86900 0.49929 0.35999
 H458 H 0.87622 0.49825 0.08717
 C459 C 0.51103 0.35840 0.26693
 C460 C 0.52602 0.37075 0.19516
 C461 C 0.52384 0.39556 0.14930
 C462 C 0.49980 0.40040 0.15675
 H463 H 0.54098 0.36313 0.16879
 H464 H 0.54250 0.40983 0.10704
 H465 H 0.49667 0.36673 0.29359
 H466 H 0.48039 0.38544 0.19591
 C467 C 0.65633 0.14761 0.26760
 C468 C 0.64494 0.15181 0.19545
 C469 C 0.61727 0.12693 0.15232
 C470 C 0.60663 0.09658 0.16441
 H471 H 0.65555 0.17442 0.16638
 H472 H 0.60585 0.13421 0.10723
 H473 H 0.64525 0.12495 0.29664
 H474 H 0.61866 0.08891 0.20603
 C475 C 0.50328 0.15971 -0.26273
 C476 C 0.52224 0.16098 -0.20040
 C477 C 0.51959 0.13349 -0.15626
 C478 C 0.49568 0.10440 -0.16391
 H479 H 0.54151 0.18283 -0.18015
 H480 H 0.53868 0.13787 -0.11486
 H481 H 0.48465 0.13725 -0.28216
 H482 H 0.47600 0.09924 -0.20340
 C483 C 0.64081 0.48180 -0.27094
 C484 C 0.63796 0.50439 -0.23422
 C485 C 0.60961 0.49772 -0.18960
 C486 C 0.60300 0.52033 -0.17824
 H487 H 0.65574 0.52849 -0.24018
 H488 H 0.59401 0.47441 -0.16755
 H489 H 0.62093 0.45845 -0.26962
 H490 H 0.61804 0.54308 -0.20484
 C491 C 0.85176 0.34131 -0.26477
 C492 C 0.84933 0.36287 -0.22017
 C493 C 0.87543 0.38897 -0.17552
 C494 C 0.90553 0.39930 -0.19018
 H495 H 0.82732 0.36178 -0.21270
 H496 H 0.86912 0.40092 -0.13026
 H497 H 0.87408 0.34262 -0.26692
 H498 H 0.91251 0.38853 -0.23708
 C499 C 0.53062 -0.12766 -0.30035
 C500 C 0.50762 -0.12634 -0.26185
 C501 C 0.51271 -0.09763 -0.22145
 C502 C 0.49110 -0.09822 -0.17158
 H503 H 0.48488 -0.14691 -0.25789
 H504 H 0.53425 -0.07612 -0.23176
 H505 H 0.55376 -0.10753 -0.29887
 H506 H 0.47015 -0.12013 -0.15968
 C507 C 0.33070 0.46086 -0.31163
 C508 C 0.34604 0.47660 -0.24325
 C509 C 0.37326 0.47546 -0.21116
 C510 C 0.38981 0.49377 -0.14769
 H511 H 0.33885 0.49075 -0.20995
 H512 H 0.38012 0.46025 -0.24048
 H513 H 0.33793 0.44605 -0.34165
 H514 H 0.38286 0.50920 -0.12010
 C515 C 1.15065 0.65494 -0.27075
 C516 C 1.12094 0.64828 -0.27136
 C517 C 1.09556 0.62222 -0.22566
 C518 C 1.09910 0.60584 -0.16399
 H519 H 1.11347 0.66124 -0.30951
 H520 H 1.07240 0.61672 -0.24434
 H521 H 1.15677 0.64064 -0.23320
 H522 H 1.12187 0.61143 -0.14181
 C523 C 0.85132 0.51547 -0.26284
 C524 C 0.88153 0.53466 -0.27971
 C525 C 0.90729 0.53419 -0.23391
 C526 C 0.90386 0.51022 -0.18733
 H527 H 0.88861 0.55171 -0.32884
 H528 H 0.93023 0.55412 -0.24207
 H529 H 0.84546 0.49952 -0.21112
 H530 H 0.88142 0.48959 -0.18061
 C531 C 0.50651 0.35703 -0.27053
 C532 C 0.53000 0.38587 -0.25499
 C533 C 0.52649 0.40821 -0.20230
 C534 C 0.50077 0.41048 -0.20134
 H535 H 0.55336 0.39304 -0.27421
 H536 H 0.54662 0.42441 -0.16637
 H537 H 0.48436 0.35016 -0.24177
 H538 H 0.48141 0.39594 -0.24207
 C539 C 0.64623 0.14691 -0.29431
 C540 C 0.64263 0.11890 -0.27684
 C541 C 0.61487 0.09359 -0.23650
 C542 C 0.59717 0.09845 -0.18311
 H543 H 0.66016 0.11347 -0.29608
 H544 H 0.61043 0.07019 -0.24665
 H545 H 0.62737 0.15134 -0.28328
 H546 H 0.60279 0.12190 -0.16798
 C547 C 1.12848 0.46237 -0.29317
 C548 C 1.12837 0.48606 -0.25435
 C549 C 1.10007 0.48202 -0.21430
 C550 C 1.10116 0.50388 -0.16385
 H551 H 1.14936 0.50850 -0.25089
 H552 H 1.07820 0.46096 -0.22609
 H553 H 1.10784 0.43958 -0.29120
 H554 H 1.12332 0.52435 -0.15013
 C555 C 0.53084 0.67106 -0.28678
 C556 C 0.51258 0.65266 -0.22552
 C557 C 0.51657 0.62723 -0.19182
 C558 C 0.49700 0.60771 -0.13478
 H559 H 0.49393 0.65524 -0.20067
 H560 H 0.53513 0.62402 -0.21526
 H561 H 0.54886 0.66674 -0.30900
 H562 H 0.47837 0.61101 -0.11236
 C563 C 0.35310 -0.16086 -0.26201
 C564 C 0.35331 -0.13873 -0.21384
 C565 C 0.38167 -0.11598 -0.16949
 C566 C 0.38516 -0.08863 -0.14638
 H567 H 0.33337 -0.13564 -0.21027
 H568 H 0.40040 -0.12085 -0.15979
 H569 H 0.37471 -0.16102 -0.26791
 H570 H 0.36727 -0.08305 -0.16198
 C571 C 0.50126 -0.14662 0.26047
 C572 C 0.48192 -0.15106 0.19621
 C573 C 0.48068 -0.12528 0.15282
 C574 C 0.50439 -0.09598 0.15304
 H575 H 0.46576 -0.17428 0.17478
 H576 H 0.45961 -0.13095 0.11878
 H577 H 0.51683 -0.12332 0.28253
 H578 H 0.52603 -0.09028 0.18363
 C579 C 0.33316 0.48053 0.24733
 C580 C 0.35933 0.50696 0.22948
 C581 C 0.38496 0.50826 0.18067
 C582 C 0.39135 0.48509 0.17774
 H583 H 0.36172 0.52902 0.24726
 H584 H 0.40031 0.53016 0.15048
 H585 H 0.32946 0.45876 0.22208
 H586 H 0.37750 0.46392 0.21264
 C587 C 1.14742 0.65489 0.26740
 C588 C 1.14604 0.62869 0.24074
 C589 C 1.12034 0.60489 0.18942
 C590 C 1.09115 0.59964 0.19050
 H591 H 1.16553 0.62516 0.25165
 H592 H 1.12570 0.59006 0.15225
 H593 H 1.12933 0.65981 0.24915
 H594 H 1.08500 0.61285 0.23174
 C595 C 0.51332 0.15810 0.29664
 C596 C 0.48681 0.13157 0.28096
 C597 C 0.48524 0.10405 0.24131
 C598 C 0.50636 0.10563 0.18724
 H599 H 0.46501 0.12909 0.30132
 H600 H 0.46451 0.08193 0.25258
 H601 H 0.53537 0.15958 0.28449
 H602 H 0.52604 0.12793 0.17104
 C603 C 0.64772 0.49953 0.27323
 C604 C 0.63578 0.48563 0.19965
 C605 C 0.61010 0.48679 0.15530
 C606 C 0.60079 0.50728 0.17202
 H607 H 0.64470 0.47230 0.16971
 H608 H 0.59883 0.47012 0.10540
 H609 H 0.63872 0.51277 0.30315
 H610 H 0.61232 0.52479 0.21958
 C611 C 0.86846 0.33297 0.28837
 C612 C 0.86885 0.35497 0.23942
 C613 C 0.89742 0.37822 0.19794
 C614 C 0.89631 0.39732 0.14097
 H615 H 0.84772 0.35579 0.22928
 H616 H 0.91940 0.38017 0.21551
 H617 H 0.88908 0.33092 0.29380
 H618 H 0.87403 0.39462 0.12308
   
