data_POSCAR
  _audit_creation_date              2014-09-24
  _audit_creation_method            'ToBaCCo'
  _symmetry_space_group_name_H-M    'P1'
  _symmetry_Int_Tables_number       1
  _symmetry_cell_setting            triclinic
  loop_
  _symmetry_equiv_pos_as_xyz
 x,y,z
_cell_length_a 49.4432
_cell_length_b 49.5281
_cell_length_c 39.6416
_cell_angle_alpha 90.062000
_cell_angle_beta 90.092900
_cell_angle_gamma 95.381500
loop_
  _atom_site_label
  _atom_site_type_symbol
  _atom_site_fract_x
  _atom_site_fract_y
  _atom_site_fract_z
C1 C 0.06528 0.26322 0.01589
 C2 C 0.06491 0.26269 -0.01867
 C3 C 0.04426 0.27803 -0.02883
 N4 N 0.03176 0.28757 -0.00156
 C5 C 0.04461 0.27852 0.02577
 C6 C 0.03753 0.28362 -0.06275
 C7 C 0.01258 0.29394 -0.07116
 C8 C 0.00777 0.30781 -0.10066
 C9 C -0.01910 0.31269 -0.10031
 C10 C -0.03002 0.30175 -0.07057
 N11 N -0.01048 0.29071 -0.05265
 C12 C -0.05775 0.30109 -0.06137
 C13 C -0.06599 0.29801 -0.02728
 C14 C -0.09234 0.29068 -0.01641
 C15 C -0.09175 0.29144 0.01809
 C16 C -0.06501 0.29869 0.02721
 N17 N -0.04924 0.30269 -0.00050
 C18 C -0.05581 0.30274 0.06067
 C19 C -0.02818 0.30353 0.06967
 C20 C -0.01749 0.31163 0.10079
 C21 C 0.00943 0.30661 0.10042
 C22 C 0.01431 0.29553 0.06910
 N23 N -0.00868 0.29385 0.05049
 C24 C 0.03863 0.28483 0.05955
 H25 H 0.07897 0.25318 0.03191
 H26 H 0.07818 0.25195 -0.03445
 H27 H -0.01176 0.28341 0.02783
 H28 H 0.02215 0.31380 -0.12044
 H29 H -0.02944 0.32312 -0.11975
 H30 H -0.11015 0.28507 -0.03167
 H31 H -0.10898 0.28683 0.03460
 H32 H 0.02362 0.31010 0.12114
 H33 H -0.01346 0.27899 -0.03093
 H34 H -0.02813 0.31971 0.12181
 C35 C 0.58258 0.75310 0.52944
 C36 C 0.58320 0.75998 0.49593
 C37 C 0.55954 0.77206 0.48943
 N38 N 0.54468 0.77309 0.51786
 C39 C 0.55870 0.76147 0.54234
 C40 C 0.55276 0.78318 0.45810
 C41 C 0.52651 0.79051 0.45027
 C42 C 0.52013 0.80540 0.42225
 C43 C 0.49237 0.80635 0.42246
 C44 C 0.48254 0.79193 0.45055
 N45 N 0.50350 0.78234 0.46731
 C46 C 0.45470 0.78635 0.45875
 C47 C 0.44572 0.77618 0.49058
 C48 C 0.41936 0.76584 0.49799
 C49 C 0.41893 0.75936 0.53166
 C50 C 0.44502 0.76602 0.54372
 N51 N 0.46133 0.77638 0.51862
 C52 C 0.45327 0.76365 0.57764
 C53 C 0.48081 0.76711 0.58760
 C54 C 0.48979 0.77157 0.62048
 C55 C 0.51745 0.77036 0.62019
 C56 C 0.52456 0.76519 0.58715
 N57 N 0.50214 0.76347 0.56739
 C58 C 0.55073 0.75970 0.57651
 H59 H 0.59798 0.74311 0.54269
 H60 H 0.59919 0.75639 0.47833
 H61 H 0.50092 0.75635 0.54269
 H62 H 0.53400 0.81434 0.40338
 H63 H 0.48072 0.81623 0.40379
 H64 H 0.40223 0.76306 0.48089
 H65 H 0.40143 0.75068 0.54558
 H66 H 0.53074 0.77248 0.64194
 H67 H 0.50185 0.76835 0.48688
 H68 H 0.47758 0.77474 0.64252
 C69 C 1.07380 0.67761 0.00937
 C70 C 1.07439 0.68107 0.04372
 C71 C 1.05308 0.69622 0.05166
 N72 N 1.03924 0.70180 0.02345
 C73 C 1.05229 0.69097 -0.00253
 C74 C 1.04752 0.70642 0.08406
 C75 C 1.02057 0.71169 0.09221
 C76 C 1.01294 0.72867 0.11769
 C77 C 0.98496 0.72655 0.11802
 C78 C 0.97631 0.70871 0.09242
 N79 N 0.99809 0.69997 0.07661
 C80 C 0.94898 0.69969 0.08504
 C81 C 0.94139 0.68873 0.05317
 C82 C 0.91667 0.67451 0.04536
 C83 C 0.91617 0.67126 0.01091
 C84 C 0.94052 0.68377 -0.00104
 N85 N 0.95600 0.69411 0.02486
 C86 C 0.94730 0.68861 -0.03521
 C87 C 0.97442 0.69680 -0.04449
 C88 C 0.98248 0.71063 -0.07370
 C89 C 1.01044 0.71261 -0.07413
 C90 C 1.01864 0.69955 -0.04541
 N91 N 0.99655 0.69058 -0.02711
 C92 C 1.04567 0.69483 -0.03689
 H93 H 1.08770 0.66665 -0.00520
 H94 H 1.08886 0.67338 0.06092
 H95 H 0.99653 0.67831 -0.00571
 H96 H 1.02607 0.74143 0.13420
 H97 H 0.97246 0.73715 0.13499
 H98 H 0.90049 0.66777 0.06260
 H99 H 0.89954 0.66142 -0.00368
 H100 H 1.02321 0.72253 -0.09345
 H101 H 0.99762 0.68486 0.05820
 H102 H 0.96958 0.71853 -0.09267
 C103 C 0.41601 0.26233 0.51037
 C104 C 0.41667 0.25973 0.47594
 C105 C 0.43934 0.24635 0.46845
 N106 N 0.45253 0.24072 0.49710
 C107 C 0.43838 0.25060 0.52273
 C108 C 0.44675 0.23828 0.43581
 C109 C 0.47184 0.22801 0.42879
 C110 C 0.47759 0.21408 0.39971
 C111 C 0.50463 0.20969 0.40133
 C112 C 0.51465 0.22121 0.43128
 N113 N 0.49450 0.23227 0.44788
 C114 C 0.54221 0.22320 0.44130
 C115 C 0.55080 0.23061 0.47432
 C116 C 0.57748 0.23786 0.48384
 C117 C 0.57724 0.24222 0.51801
 C118 C 0.55042 0.23736 0.52824
 N119 N 0.53432 0.23020 0.50151
 C120 C 0.54138 0.23801 0.56200
 C121 C 0.51362 0.23650 0.57076
 C122 C 0.50338 0.23065 0.60273
 C123 C 0.47595 0.23328 0.60131
 C124 C 0.47025 0.24084 0.56855
 N125 N 0.49332 0.24266 0.55009
 C126 C 0.44477 0.24804 0.55723
 H127 H 0.40089 0.27190 0.52464
 H128 H 0.40210 0.26689 0.45848
 H129 H 0.49575 0.25101 0.52611
 H130 H 0.46380 0.20800 0.37926
 H131 H 0.51574 0.19959 0.38234
 H132 H 0.59527 0.23991 0.46783
 H133 H 0.59482 0.24824 0.53350
 H134 H 0.46190 0.23042 0.62218
 H135 H 0.49684 0.24498 0.46877
 H136 H 0.51458 0.22533 0.62486
 C137 C 0.74036 -0.08885 -0.01997
 C138 C 0.73732 -0.08782 0.01425
 C139 C 0.73671 -0.06068 0.02285
 N140 N 0.73980 -0.04520 -0.00526
 C141 C 0.74168 -0.06233 -0.03158
 C142 C 0.73715 -0.05033 0.05634
 C143 C 0.73681 -0.02218 0.06328
 C144 C 0.74259 -0.00975 0.09427
 C145 C 0.73732 0.01685 0.09115
 C146 C 0.72758 0.01995 0.05874
 N147 N 0.72756 -0.00381 0.04185
 C148 C 0.71645 0.04338 0.04651
 C149 C 0.71235 0.04754 0.01173
 C150 C 0.69625 0.06623 -0.00179
 C151 C 0.69945 0.06521 -0.03613
 C152 C 0.71778 0.04622 -0.04240
 N153 N 0.72538 0.03521 -0.01307
 C154 C 0.72827 0.04000 -0.07450
 C155 C 0.74084 0.01561 -0.07957
 C156 C 0.75803 0.01071 -0.10607
 C157 C 0.76328 -0.01595 -0.10385
 C158 C 0.75016 -0.02651 -0.07517
 N159 N 0.73659 -0.00706 -0.06049
 C160 C 0.74835 -0.05410 -0.06508
 H161 H 0.74293 -0.10708 -0.03417
 H162 H 0.73717 -0.10516 0.03078
 H163 H 0.72243 -0.01007 -0.04111
 H164 H 0.74918 -0.01873 0.11732
 H165 H 0.73962 0.03193 0.11097
 H166 H 0.68345 0.07915 0.01168
 H167 H 0.68940 0.07709 -0.05437
 H168 H 0.77520 -0.02615 -0.12180
 H169 H 0.71827 -0.00802 0.01863
 H170 H 0.76572 0.02471 -0.12549
 C171 C 0.24368 0.43238 0.48452
 C172 C 0.24098 0.43354 0.51894
 C173 C 0.22957 0.45744 0.52604
 N174 N 0.22522 0.47087 0.49718
 C175 C 0.23401 0.45569 0.47182
 C176 C 0.22226 0.46606 0.55848
 C177 C 0.21402 0.49214 0.56470
 C178 C 0.20029 0.49945 0.59324
 C179 C 0.19850 0.52696 0.59117
 C180 C 0.21148 0.53572 0.56160
 N181 N 0.22065 0.51430 0.54548
 C182 C 0.21709 0.56318 0.55195
 C183 C 0.22600 0.57088 0.51920
 C184 C 0.23751 0.59644 0.51015
 C185 C 0.24255 0.59552 0.47614
 C186 C 0.23374 0.56949 0.46553
 N187 N 0.22357 0.55450 0.49188
 C188 C 0.23402 0.56007 0.43189
 C189 C 0.22828 0.53240 0.42357
 C190 C 0.22129 0.52260 0.39165
 C191 C 0.22078 0.49482 0.39323
 C192 C 0.22757 0.48847 0.42606
 N193 N 0.23184 0.51148 0.44445
 C194 C 0.23257 0.46235 0.43731
 H195 H 0.25206 0.41636 0.47051
 H196 H 0.24686 0.41853 0.53664
 H197 H 0.24060 0.51313 0.46832
 H198 H 0.19275 0.48637 0.61368
 H199 H 0.18934 0.53923 0.60981
 H200 H 0.24214 0.61383 0.52641
 H201 H 0.25176 0.61210 0.46108
 H202 H 0.21665 0.48093 0.37236
 H203 H 0.23395 0.51528 0.52514
 H204 H 0.21759 0.53431 0.36935
 C205 C 0.32312 0.94815 0.00546
 C206 C 0.32082 0.94748 -0.02903
 C207 C 0.30041 0.96371 -0.03737
 N208 N 0.29049 0.97459 -0.00928
 C209 C 0.30415 0.96487 0.01692
 C210 C 0.28920 0.96624 -0.06996
 C211 C 0.27555 0.98938 -0.07837
 C212 C 0.25874 0.99170 -0.10608
 C213 C 0.25151 1.01778 -0.10626
 C214 C 0.26284 1.03051 -0.07764
 N215 N 0.27759 1.01306 -0.06093
 C216 C 0.26154 1.05815 -0.06885
 C217 C 0.26552 1.06764 -0.03523
 C218 C 0.26361 1.09416 -0.02477
 C219 C 0.26410 1.09403 0.00971
 C220 C 0.26645 1.06747 0.01962
 N221 N 0.26699 1.05139 -0.00798
 C222 C 0.26411 1.05778 0.05333
 C223 C 0.26740 1.03043 0.06185
 C224 C 0.26037 1.01797 0.09243
 C225 C 0.26946 0.99260 0.09154
 C226 C 0.28253 0.99041 0.06093
 N227 N 0.28103 1.01343 0.04294
 C228 C 0.29723 0.96857 0.05100
 H229 H 0.33678 0.93719 0.02044
 H230 H 0.33239 0.93592 -0.04605
 H231 H 0.29175 1.01846 0.02090
 H232 H 0.25223 0.97636 -0.12454
 H233 H 0.23922 1.02600 -0.12554
 H234 H 0.26044 1.11164 -0.04007
 H235 H 0.26143 1.11145 0.02539
 H236 H 0.26712 0.97776 0.11158
 H237 H 0.29064 1.01799 -0.04073
 H238 H 0.25034 1.02622 0.11376
 C239 C 0.81979 0.42589 0.50058
 C240 C 0.81565 0.42631 0.46636
 C241 C 0.79960 0.44726 0.46010
 N242 N 0.79408 0.45980 0.48922
 C243 C 0.80632 0.44672 0.51398
 C244 C 0.78795 0.45284 0.42861
 C245 C 0.77530 0.47690 0.42271
 C246 C 0.75834 0.48107 0.39570
 C247 C 0.75201 0.50745 0.39782
 C248 C 0.76489 0.51861 0.42641
 N249 N 0.77918 0.49988 0.44129
 C250 C 0.76483 0.54599 0.43663
 C251 C 0.77334 0.55546 0.46898
 C252 C 0.77567 0.58241 0.47898
 C253 C 0.78249 0.58278 0.51254
 C254 C 0.78395 0.55603 0.52208
 N255 N 0.77810 0.53936 0.49547
 C256 C 0.78800 0.54726 0.55550
 C257 C 0.78892 0.51966 0.56416
 C258 C 0.78437 0.50890 0.59614
 C259 C 0.78775 0.48171 0.59398
 C260 C 0.79525 0.47670 0.56100
 N261 N 0.79579 0.49998 0.54299
 C262 C 0.80297 0.45162 0.54873
 H263 H 0.83109 0.41166 0.51414
 H264 H 0.82314 0.41244 0.44825
 H265 H 0.80327 0.50300 0.51863
 H266 H 0.75138 0.46672 0.37624
 H267 H 0.73951 0.51723 0.38003
 H268 H 0.77225 0.60000 0.46396
 H269 H 0.78517 0.60069 0.52827
 H270 H 0.78520 0.46745 0.61462
 H271 H 0.79327 0.50347 0.46066
 H272 H 0.77893 0.51932 0.61876
 O273 O 0.21854 0.26933 0.28787
 O274 O 0.23681 0.21664 0.22855
 O275 O 0.25320 0.23295 0.28830
 O276 O 0.20208 0.25307 0.22801
 O277 O 0.23291 0.28223 0.20463
 O278 O 0.28388 0.26236 0.26504
 O279 O 0.26786 0.24594 0.20575
 O280 O 0.24935 0.29853 0.26451
 Cu281 Cu 0.22451 0.24006 0.26046
 Cu282 Cu 0.26150 0.27525 0.23258
 C283 C 0.23104 0.29292 0.28652
 C284 C 0.25564 0.22225 0.20719
 C285 C 0.27732 0.24429 0.28701
 C286 C 0.20875 0.27102 0.20592
 O287 O 0.73652 0.78633 0.23124
 O288 O 0.75531 0.73000 0.28350
 O289 O 0.77512 0.75448 0.23045
 O290 O 0.71443 0.76046 0.28356
 O291 O 0.69078 0.73097 0.25074
 O292 O 0.75023 0.72652 0.19674
 O293 O 0.73111 0.70074 0.25075
 O294 O 0.71122 0.75773 0.19890
 Cu295 Cu 0.74759 0.76073 0.26073
 Cu296 Cu 0.71839 0.72602 0.22109
 C297 C 0.72105 0.78174 0.20589
 C298 C 0.74688 0.70581 0.27580
 C299 C 0.77267 0.73973 0.20418
 C300 C 0.69221 0.74660 0.27616
 O301 O 0.77819 0.23590 0.23986
 O302 O 0.70803 0.22644 0.27164
 O303 O 0.73424 0.20646 0.22143
 O304 O 0.75146 0.25581 0.28962
 O305 O 0.74082 0.28900 0.25636
 O306 O 0.72429 0.23983 0.18807
 O307 O 0.69687 0.25946 0.23863
 O308 O 0.76718 0.26944 0.20754
 Cu309 Cu 0.74404 0.22776 0.25884
 Cu310 Cu 0.73090 0.26762 0.21925
 C311 C 0.78470 0.25431 0.21825
 C312 C 0.69064 0.24185 0.26131
 C313 C 0.72711 0.21490 0.19282
 C314 C 0.74892 0.28079 0.28463
 O315 O 0.29560 0.76908 0.18399
 O316 O 0.27099 0.71662 0.24530
 O317 O 0.25266 0.73687 0.18991
 O318 O 0.31597 0.74787 0.23832
 O319 O 0.29821 0.77817 0.27013
 O320 O 0.23446 0.76786 0.22046
 O321 O 0.25253 0.74754 0.27549
 O322 O 0.27890 0.80023 0.21569
 Cu323 Cu 0.28580 0.73951 0.21153
 Cu324 Cu 0.26443 0.77663 0.24862
 C325 C 0.29060 0.79346 0.18891
 C326 C 0.25729 0.72310 0.27069
 C327 C 0.23304 0.75080 0.19636
 C328 C 0.31790 0.76441 0.26287
 O329 O 0.77546 0.25048 0.67828
 O330 O 0.76052 0.20017 0.74607
 O331 O 0.73554 0.21466 0.69226
 O332 O 0.80175 0.23478 0.73134
 O333 O 0.78331 0.26526 0.76221
 O334 O 0.71721 0.24616 0.72155
 O335 O 0.74223 0.23124 0.77624
 O336 O 0.75846 0.28165 0.70970
 Cu337 Cu 0.77022 0.22195 0.70895
 Cu338 Cu 0.74830 0.25912 0.74542
 C339 C 0.76947 0.27464 0.68261
 C340 C 0.74908 0.20732 0.77291
 C341 C 0.71514 0.22720 0.69976
 C342 C 0.80382 0.25312 0.75386
 O343 O 0.24971 0.77908 0.79437
 O344 O 0.23548 0.71655 0.74381
 O345 O 0.21475 0.73642 0.79855
 O346 O 0.26852 0.76038 0.73874
 O347 O 0.29820 0.73947 0.76821
 O348 O 0.24490 0.71763 0.82983
 O349 O 0.26452 0.69648 0.77520
 O350 O 0.27968 0.75877 0.82426
 Cu351 Cu 0.23904 0.75000 0.76581
 Cu352 Cu 0.27482 0.72595 0.80224
 C353 C 0.26689 0.77927 0.81829
 C354 C 0.24796 0.69591 0.75067
 C355 C 0.22086 0.72389 0.82501
 C356 C 0.29246 0.75374 0.74300
 O357 O 0.19848 0.25529 0.76525
 O358 O 0.24940 0.23883 0.70227
 O359 O 0.23373 0.21971 0.76103
 O360 O 0.21291 0.27342 0.70552
 O361 O 0.24281 0.30300 0.73004
 O362 O 0.26496 0.24873 0.78420
 O363 O 0.27938 0.26884 0.72592
 O364 O 0.22931 0.28391 0.78978
 Cu365 Cu 0.22055 0.24390 0.73109
 Cu366 Cu 0.25709 0.27912 0.75991
 C367 C 0.20537 0.27218 0.78859
 C368 C 0.27314 0.25118 0.70331
 C369 C 0.25297 0.22494 0.78195
 C370 C 0.22430 0.29739 0.70815
 O371 O 0.74026 0.74633 0.72843
 O372 O 0.78820 0.72613 0.79271
 O373 O 0.76750 0.70434 0.73665
 O374 O 0.75916 0.76724 0.78455
 O375 O 0.72382 0.74615 0.81054
 O376 O 0.73435 0.68304 0.76629
 O377 O 0.75383 0.70706 0.82245
 O378 O 0.70635 0.72368 0.75544
 Cu379 Cu 0.76738 0.73795 0.75787
 Cu380 Cu 0.72640 0.71254 0.79166
 C381 C 0.71514 0.73845 0.73087
 C382 C 0.77906 0.71408 0.81912
 C383 C 0.75180 0.68309 0.74285
 C384 C 0.73940 0.76753 0.80503
 C385 C 0.27576 0.09877 0.08648
 C386 C 0.26876 0.11806 0.11002
 C387 C 0.24360 0.11417 0.12706
 C388 C 0.22581 0.09110 0.12004
 C389 C 0.23267 0.07230 0.09595
 C390 C 0.25770 0.07591 0.07896
 C391 C 0.23642 0.13362 0.15033
 C392 C 0.25385 0.15719 0.15622
 C393 C 0.27889 0.16117 0.13887
 C394 C 0.28631 0.14145 0.11619
 C395 C 0.29597 0.18499 0.14420
 C396 C 0.28829 0.20483 0.16631
 C397 C 0.26354 0.20108 0.18385
 C398 C 0.24647 0.17707 0.17883
 H399 H 0.29511 0.10172 0.07348
 H400 H 0.20634 0.08790 0.13264
 H401 H 0.21812 0.05522 0.08997
 H402 H 0.21713 0.13063 0.16342
 H403 H 0.30553 0.14452 0.10292
 H404 H 0.31520 0.18837 0.13107
 H405 H 0.30186 0.22308 0.16985
 H406 H 0.22726 0.17403 0.19206
 C407 C 0.76860 0.57079 0.60481
 C408 C 0.77054 0.59121 0.62954
 C409 C 0.79419 0.60960 0.63147
 C410 C 0.81589 0.60658 0.60948
 C411 C 0.81402 0.58580 0.58548
 C412 C 0.79032 0.56798 0.58275
 C413 C 0.79562 0.63087 0.65505
 C414 C 0.77385 0.63378 0.67704
 C415 C 0.75072 0.61468 0.67599
 C416 C 0.74912 0.59365 0.65213
 C417 C 0.72930 0.61716 0.69851
 C418 C 0.73034 0.63881 0.72116
 C419 C 0.75268 0.65861 0.72154
 C420 C 0.77461 0.65573 0.69967
 H421 H 0.75020 0.55716 0.60252
 H422 H 0.83422 0.62037 0.61069
 H423 H 0.83088 0.58390 0.56849
 H424 H 0.81354 0.64528 0.65607
 H425 H 0.73114 0.57934 0.65096
 H426 H 0.71152 0.60259 0.69823
 H427 H 0.71313 0.64056 0.73763
 H428 H 0.79201 0.67077 0.69986
 C429 C 0.71862 0.91000 0.08841
 C430 C 0.72173 0.88997 0.11274
 C431 C 0.74522 0.89179 0.13329
 C432 C 0.76528 0.91345 0.12894
 C433 C 0.76246 0.93278 0.10388
 C434 C 0.73913 0.93133 0.08334
 C435 C 0.74870 0.87151 0.15715
 C436 C 0.72944 0.84895 0.15990
 C437 C 0.70610 0.84693 0.13907
 C438 C 0.70215 0.86770 0.11603
 C439 C 0.68744 0.82382 0.14106
 C440 C 0.69215 0.80265 0.16299
 C441 C 0.71524 0.80453 0.18384
 C442 C 0.73360 0.82796 0.18249
 H443 H 0.70059 0.90863 0.07263
 H444 H 0.78355 0.91497 0.14422
 H445 H 0.77894 0.94845 0.09982
 H446 H 0.76675 0.87290 0.17288
 H447 H 0.68427 0.86614 0.10000
 H448 H 0.66949 0.82189 0.12520
 H449 H 0.67773 0.78480 0.16365
 H450 H 0.75167 0.82943 0.19817
 C451 C 0.20884 0.42193 0.58781
 C452 C 0.21277 0.40320 0.61347
 C453 C 0.23187 0.41017 0.63941
 C454 C 0.24623 0.43596 0.63963
 C455 C 0.24243 0.45434 0.61376
 C456 C 0.22411 0.44730 0.58742
 C457 C 0.23682 0.39105 0.66419
 C458 C 0.22323 0.36490 0.66310
 C459 C 0.20378 0.35810 0.63755
 C460 C 0.19852 0.37735 0.61305
 C461 C 0.19032 0.33193 0.63648
 C462 C 0.19660 0.31242 0.65990
 C463 C 0.21638 0.31871 0.68495
 C464 C 0.22931 0.34521 0.68669
 H465 H 0.19459 0.41657 0.56753
 H466 H 0.26087 0.44168 0.65935
 H467 H 0.25432 0.47386 0.61376
 H468 H 0.25171 0.39630 0.68382
 H469 H 0.18385 0.37200 0.59320
 H470 H 0.17529 0.32639 0.61715
 H471 H 0.18624 0.29221 0.65801
 H472 H 0.24455 0.35039 0.70590
 C473 C 0.91768 0.28451 0.11066
 C474 C 0.89489 0.28461 0.13172
 C475 C 0.87821 0.30627 0.12969
 C476 C 0.88519 0.32794 0.10767
 C477 C 0.90763 0.32744 0.08647
 C478 C 0.92358 0.30547 0.08726
 C479 C 0.85421 0.30539 0.14856
 C480 C 0.84635 0.28289 0.16890
 C481 C 0.86346 0.26169 0.17191
 C482 C 0.88778 0.26280 0.15353
 C483 C 0.85547 0.23928 0.19239
 C484 C 0.83024 0.23733 0.20854
 C485 C 0.81259 0.25774 0.20447
 C486 C 0.82112 0.28080 0.18524
 H487 H 0.92993 0.26746 0.11102
 H488 H 0.87271 0.34473 0.10592
 H489 H 0.91200 0.34368 0.06844
 H490 H 0.84114 0.32172 0.14641
 H491 H 0.90061 0.24625 0.15523
 H492 H 0.86839 0.22292 0.19518
 H493 H 0.82418 0.21939 0.22330
 H494 H 0.80780 0.29681 0.18218
 C495 C 0.41162 0.77334 0.61022
 C496 C 0.39255 0.76681 0.63587
 C497 C 0.39469 0.74345 0.65588
 C498 C 0.41554 0.72682 0.64958
 C499 C 0.43418 0.73329 0.62380
 C500 C 0.43250 0.75662 0.60409
 C501 C 0.37593 0.73700 0.68177
 C502 C 0.35472 0.75331 0.68759
 C503 C 0.35228 0.77642 0.66727
 C504 C 0.37137 0.78318 0.64176
 C505 C 0.33055 0.79219 0.67257
 C506 C 0.31122 0.78493 0.69742
 C507 C 0.31358 0.76210 0.71785
 C508 C 0.33559 0.74655 0.71304
 H509 H 0.41035 0.79142 0.59511
 H510 H 0.41741 0.70880 0.66456
 H511 H 0.45015 0.72017 0.61930
 H512 H 0.37768 0.71914 0.69716
 H513 H 0.36956 0.80098 0.62629
 H514 H 0.32830 0.80992 0.65719
 H515 H 0.29440 0.79720 0.70071
 H516 H 0.33736 0.72869 0.72840
 C517 C 0.09527 0.72225 0.09637
 C518 C 0.11698 0.72724 0.11900
 C519 C 0.11277 0.72293 0.15387
 C520 C 0.08687 0.71323 0.16536
 C521 C 0.06544 0.70764 0.14253
 C522 C 0.06919 0.71210 0.10760
 C523 C 0.13458 0.72806 0.17653
 C524 C 0.16070 0.73669 0.16453
 C525 C 0.16486 0.74042 0.12944
 C526 C 0.14294 0.73613 0.10704
 C527 C 0.19104 0.74790 0.11715
 C528 C 0.21302 0.75124 0.13928
 C529 C 0.20915 0.74795 0.17412
 C530 C 0.18290 0.74104 0.18682
 H531 H 0.09871 0.72677 0.06988
 H532 H 0.08328 0.70948 0.19197
 H533 H 0.04610 0.69899 0.15228
 H534 H 0.13133 0.72486 0.20334
 H535 H 0.14622 0.73915 0.08020
 H536 H 0.19458 0.75070 0.09036
 H537 H 0.23318 0.75658 0.12922
 H538 H 0.18000 0.73818 0.21372
 C539 C 0.58003 0.22035 0.59342
 C540 C 0.60120 0.22385 0.61705
 C541 C 0.60397 0.24740 0.63748
 C542 C 0.58511 0.26672 0.63441
 C543 C 0.56432 0.26325 0.61045
 C544 C 0.56195 0.24033 0.58944
 C545 C 0.62597 0.25163 0.65987
 C546 C 0.64556 0.23293 0.66152
 C547 C 0.64248 0.20917 0.64149
 C548 C 0.62015 0.20463 0.61971
 C549 C 0.66226 0.19073 0.64274
 C550 C 0.68546 0.19627 0.66256
 C551 C 0.68916 0.22016 0.68188
 C552 C 0.66874 0.23810 0.68190
 H553 H 0.57807 0.20258 0.57727
 H554 H 0.58685 0.28484 0.64992
 H555 H 0.55044 0.27878 0.60767
 H556 H 0.62829 0.26986 0.67520
 H557 H 0.61802 0.18658 0.60403
 H558 H 0.66017 0.17239 0.62767
 H559 H 0.70080 0.18202 0.66228
 H560 H 0.67142 0.25665 0.69657
 C561 C 0.73278 0.08694 0.90386
 C562 C 0.73311 0.10535 0.87694
 C563 C 0.72837 0.09568 0.84372
 C564 C 0.72203 0.06788 0.83821
 C565 C 0.72110 0.04973 0.86522
 C566 C 0.72714 0.05878 0.89841
 C567 C 0.73027 0.11392 0.81654
 C568 C 0.73636 0.14180 0.82227
 C569 C 0.73982 0.15157 0.85570
 C570 C 0.73847 0.13328 0.88276
 C571 C 0.74482 0.17950 0.86152
 C572 C 0.74692 0.19759 0.83447
 C573 C 0.74464 0.18804 0.80112
 C574 C 0.73922 0.16009 0.79514
 H575 H 0.73806 0.09455 0.92890
 H576 H 0.71782 0.06014 0.81299
 H577 H 0.71557 0.02844 0.86008
 H578 H 0.72716 0.10641 0.79097
 H579 H 0.74170 0.14077 0.90832
 H580 H 0.74731 0.18735 0.88698
 H581 H 0.75120 0.21906 0.83959
 H582 H 0.73716 0.15265 0.76944
 C583 C 0.22695 0.60234 0.39913
 C584 C 0.23467 0.62105 0.37354
 C585 C 0.25670 0.61653 0.35216
 C586 C 0.27073 0.59352 0.35690
 C587 C 0.26326 0.57532 0.38283
 C588 C 0.24140 0.57958 0.40416
 C589 C 0.26462 0.63523 0.32671
 C590 C 0.25122 0.65875 0.32282
 C591 C 0.22938 0.66345 0.34440
 C592 C 0.22103 0.64441 0.36935
 C593 C 0.21655 0.68736 0.34101
 C594 C 0.22554 0.70665 0.31686
 C595 C 0.24719 0.70216 0.29527
 C596 C 0.25972 0.67797 0.29812
 H597 H 0.20997 0.60559 0.41545
 H598 H 0.28769 0.58978 0.34083
 H599 H 0.27465 0.55790 0.38643
 H600 H 0.28150 0.63172 0.31034
 H601 H 0.20427 0.64801 0.38588
 H602 H 0.19981 0.69132 0.35735
 H603 H 0.21551 0.72513 0.31504
 H604 H 0.27662 0.67445 0.28180
 C605 C 0.28491 0.91729 0.91849
 C606 C 0.28369 0.89537 0.89605
 C607 C 0.28673 0.90008 0.86109
 C608 C 0.29239 0.92672 0.84942
 C609 C 0.29424 0.94850 0.87210
 C610 C 0.28976 0.94425 0.90692
 C611 C 0.28389 0.87811 0.83847
 C612 C 0.27864 0.85149 0.85060
 C613 C 0.27691 0.84686 0.88581
 C614 C 0.27910 0.86881 0.90821
 C615 C 0.27292 0.82031 0.89814
 C616 C 0.27034 0.79846 0.87584
 C617 C 0.27101 0.80281 0.84089
 C618 C 0.27511 0.82935 0.82825
 H619 H 0.28087 0.91327 0.94498
 H620 H 0.29537 0.93074 0.82276
 H621 H 0.29927 0.96875 0.86231
 H622 H 0.28571 0.88173 0.81155
 H623 H 0.27721 0.86521 0.93514
 H624 H 0.27176 0.81644 0.92503
 H625 H 0.26710 0.77808 0.88589
 H626 H 0.27592 0.83265 0.80122
 C627 C 0.77605 0.40512 0.40844
 C628 C 0.77434 0.38534 0.38299
 C629 C 0.78289 0.39249 0.34990
 C630 C 0.79413 0.41901 0.34324
 C631 C 0.79649 0.43838 0.36899
 C632 C 0.78706 0.43176 0.40164
 C633 C 0.77987 0.37310 0.32401
 C634 C 0.76898 0.34650 0.33098
 C635 C 0.76169 0.33905 0.36443
 C636 C 0.76412 0.35859 0.39014
 C637 C 0.75183 0.31218 0.37154
 C638 C 0.74863 0.29299 0.34564
 C639 C 0.75469 0.30049 0.31217
 C640 C 0.76507 0.32725 0.30501
 H641 H 0.76863 0.39988 0.43354
 H642 H 0.80105 0.42478 0.31811
 H643 H 0.80526 0.45873 0.36336
 H644 H 0.78590 0.37871 0.29848
 H645 H 0.75801 0.35300 0.41565
 H646 H 0.74637 0.30608 0.39706
 H647 H 0.74054 0.27247 0.35160
 H648 H 0.77006 0.33303 0.27922
 C649 C 0.08402 0.28812 0.91446
 C650 C 0.10246 0.28365 0.88864
 C651 C 0.09317 0.26988 0.85896
 C652 C 0.06553 0.26122 0.85539
 C653 C 0.04725 0.26597 0.88105
 C654 C 0.05621 0.27922 0.91110
 C655 C 0.11165 0.26500 0.83333
 C656 C 0.13928 0.27396 0.83689
 C657 C 0.14846 0.28817 0.86633
 C658 C 0.13002 0.29284 0.89205
 C659 C 0.17599 0.29743 0.86962
 C660 C 0.19433 0.29250 0.84412
 C661 C 0.18556 0.27804 0.81493
 C662 C 0.15790 0.26888 0.81147
 H663 H 0.09122 0.29913 0.93689
 H664 H 0.05804 0.25067 0.83280
 H665 H 0.02608 0.25856 0.87777
 H666 H 0.10453 0.25426 0.81067
 H667 H 0.13714 0.30357 0.91473
 H668 H 0.18336 0.30841 0.89197
 H669 H 0.21552 0.29973 0.84749
 H670 H 0.15085 0.25784 0.78901
 C671 C 0.57428 0.76905 0.40481
 C672 C 0.59681 0.76963 0.38323
 C673 C 0.61955 0.78867 0.38889
 C674 C 0.61906 0.80722 0.41560
 C675 C 0.59672 0.80621 0.43727
 C676 C 0.57444 0.78690 0.43228
 C677 C 0.64265 0.78836 0.36838
 C678 C 0.64343 0.76904 0.34254
 C679 C 0.62047 0.75034 0.33662
 C680 C 0.59730 0.75085 0.35685
 C681 C 0.62117 0.73112 0.31082
 C682 C 0.64446 0.73014 0.29125
 C683 C 0.66762 0.74832 0.29708
 C684 C 0.66689 0.76787 0.32276
 H685 H 0.55716 0.75396 0.40126
 H686 H 0.63625 0.82197 0.42032
 H687 H 0.59710 0.81995 0.45858
 H688 H 0.66018 0.80277 0.37295
 H689 H 0.57986 0.73627 0.35248
 H690 H 0.60375 0.71668 0.30590
 H691 H 0.64438 0.71489 0.27165
 H692 H 0.68453 0.78210 0.32740
 C693 C 0.90096 0.69849 0.94379
 C694 C 0.88085 0.69745 0.91865
 C695 C 0.88587 0.68596 0.88687
 C696 C 0.91023 0.67424 0.88152
 C697 C 0.92964 0.67430 0.90720
 C698 C 0.92553 0.68690 0.93837
 C699 C 0.86654 0.68652 0.86094
 C700 C 0.84186 0.69761 0.86677
 C701 C 0.83615 0.70749 0.89926
 C702 C 0.85585 0.70778 0.92480
 C703 C 0.81090 0.71722 0.90554
 C704 C 0.79178 0.71795 0.87965
 C705 C 0.79788 0.70962 0.84692
 C706 C 0.82286 0.69926 0.84061
 H707 H 0.89758 0.70855 0.96750
 H708 H 0.91427 0.66497 0.85750
 H709 H 0.94817 0.66487 0.90254
 H710 H 0.87071 0.67838 0.83628
 H711 H 0.85173 0.71603 0.94942
 H712 H 0.80607 0.72459 0.93035
 H713 H 0.77266 0.72615 0.88481
 H714 H 0.82749 0.69265 0.81535
 C715 C 0.40140 0.22712 0.40819
 C716 C 0.38249 0.23153 0.38285
 C717 C 0.38999 0.24972 0.35624
 C718 C 0.41637 0.26283 0.35515
 C719 C 0.43494 0.25857 0.38070
 C720 C 0.42749 0.24101 0.40755
 C721 C 0.37088 0.25495 0.33154
 C722 C 0.34426 0.24251 0.33330
 C723 C 0.33682 0.22407 0.35963
 C724 C 0.35604 0.21856 0.38415
 C725 C 0.31013 0.21178 0.36127
 C726 C 0.29085 0.21806 0.33742
 C727 C 0.29794 0.23672 0.31147
 C728 C 0.32483 0.24863 0.30942
 H729 H 0.39573 0.21347 0.42890
 H730 H 0.42246 0.27677 0.33491
 H731 H 0.45501 0.26939 0.37994
 H732 H 0.37659 0.26907 0.31130
 H733 H 0.35027 0.20461 0.40453
 H734 H 0.30408 0.19755 0.38123
 H735 H 0.27030 0.20854 0.33954
 H736 H 0.33062 0.26298 0.28948
 C737 C 0.73246 0.90571 0.90265
 C738 C 0.73768 0.88353 0.88253
 C739 C 0.76409 0.88157 0.86974
 C740 C 0.78483 0.90201 0.87732
 C741 C 0.77961 0.92374 0.89819
 C742 C 0.75340 0.92574 0.91115
 C743 C 0.76947 0.85884 0.85046
 C744 C 0.74891 0.83777 0.84467
 C745 C 0.72255 0.83986 0.85771
 C746 C 0.71703 0.86285 0.87609
 C747 C 0.70218 0.81864 0.85280
 C748 C 0.70788 0.79528 0.83564
 C749 C 0.73394 0.79281 0.82255
 C750 C 0.75435 0.81434 0.82675
 H751 H 0.71223 0.90701 0.91273
 H752 H 0.80526 0.90076 0.86801
 H753 H 0.79629 0.93841 0.90525
 H754 H 0.78975 0.85725 0.84073
 H755 H 0.69683 0.86431 0.88615
 H756 H 0.68191 0.81993 0.86264
 H757 H 0.69175 0.77910 0.83248
 H758 H 0.77454 0.81256 0.81688
 C759 C 0.22049 0.41719 0.40961
 C760 C 0.22533 0.39755 0.38533
 C761 C 0.24743 0.40242 0.36280
 C762 C 0.26431 0.42672 0.36499
 C763 C 0.25941 0.44606 0.38928
 C764 C 0.23751 0.44148 0.41168
 C765 C 0.25240 0.38290 0.33855
 C766 C 0.23570 0.35846 0.33663
 C767 C 0.21366 0.35350 0.35915
 C768 C 0.20854 0.37313 0.38329
 C769 C 0.19722 0.32888 0.35725
 C770 C 0.20272 0.30925 0.33349
 C771 C 0.22463 0.31396 0.31103
 C772 C 0.24093 0.33876 0.31267
 H773 H 0.20354 0.41369 0.42689
 H774 H 0.28134 0.43074 0.34797
 H775 H 0.27275 0.46467 0.39072
 H776 H 0.26936 0.38666 0.32132
 H777 H 0.19163 0.36934 0.40058
 H778 H 0.18024 0.32471 0.37430
 H779 H 0.18984 0.29033 0.33276
 H780 H 0.25798 0.34264 0.29563
 C781 C 0.27354 0.09883 0.89777
 C782 C 0.26636 0.11881 0.87529
 C783 C 0.24027 0.11638 0.86031
 C784 C 0.22171 0.09420 0.86845
 C785 C 0.22877 0.07478 0.89157
 C786 C 0.25480 0.07673 0.90624
 C787 C 0.23294 0.13646 0.83806
 C788 C 0.25112 0.15928 0.83128
 C789 C 0.27706 0.16191 0.84667
 C790 C 0.28464 0.14149 0.86824
 C791 C 0.29485 0.18513 0.84059
 C792 C 0.28696 0.20568 0.81966
 C793 C 0.26134 0.20316 0.80400
 C794 C 0.24358 0.17977 0.80976
 H795 H 0.29355 0.10068 0.90929
 H796 H 0.20150 0.09223 0.85758
 H797 H 0.21358 0.05862 0.89876
 H798 H 0.21294 0.13457 0.82653
 H799 H 0.30456 0.14348 0.88000
 H800 H 0.31476 0.18751 0.85226
 H801 H 0.30101 0.22348 0.81550
 H802 H 0.22365 0.17774 0.79805
 C803 C 0.77385 0.58463 0.39645
 C804 C 0.76489 0.60387 0.37411
 C805 C 0.73686 0.60372 0.36675
 C806 C 0.71825 0.58461 0.38246
 C807 C 0.72731 0.56598 0.40538
 C808 C 0.75513 0.56575 0.41229
 C809 C 0.72789 0.62290 0.34427
 C810 C 0.74649 0.64279 0.32993
 C811 C 0.77444 0.64327 0.33803
 C812 C 0.78349 0.62355 0.35957
 C813 C 0.79287 0.66383 0.32501
 C814 C 0.78369 0.68405 0.30464
 C815 C 0.75611 0.68359 0.29611
 C816 C 0.73758 0.66269 0.30835
 H817 H 0.79532 0.58455 0.40205
 H818 H 0.69669 0.58429 0.37734
 H819 H 0.71266 0.55160 0.41764
 H820 H 0.70642 0.62270 0.33849
 H821 H 0.80493 0.62388 0.36557
 H822 H 0.81430 0.66458 0.33109
 H823 H 0.79819 0.70007 0.29535
 H824 H 0.71620 0.66257 0.30215
 C825 C 0.09334 0.70466 0.94458
 C826 C 0.11348 0.70477 0.91970
 C827 C 0.10641 0.69631 0.88657
 C828 C 0.07956 0.68639 0.87944
 C829 C 0.05982 0.68520 0.90474
 C830 C 0.06612 0.69483 0.93767
 C831 C 0.12628 0.69795 0.86117
 C832 C 0.15332 0.70717 0.86882
 C833 C 0.16062 0.71408 0.90249
 C834 C 0.14061 0.71330 0.92755
 C835 C 0.18784 0.72193 0.91051
 C836 C 0.20757 0.72369 0.88528
 C837 C 0.20032 0.71829 0.85154
 C838 C 0.17318 0.70983 0.84339
 H839 H 0.09891 0.71312 0.96911
 H840 H 0.07386 0.67923 0.85434
 H841 H 0.03962 0.67625 0.89847
 H842 H 0.12071 0.69209 0.83553
 H843 H 0.14615 0.71925 0.95317
 H844 H 0.19382 0.72703 0.93622
 H845 H 0.22838 0.73046 0.89192
 H846 H 0.16759 0.70549 0.81736
 C847 C 0.56715 0.23335 0.38703
 C848 C 0.58844 0.22930 0.36472
 C849 C 0.60584 0.20887 0.37162
 C850 C 0.60113 0.19230 0.40006
 C851 C 0.57995 0.19650 0.42213
 C852 C 0.56316 0.21733 0.41613
 C853 C 0.62813 0.20584 0.35059
 C854 C 0.63352 0.22326 0.32305
 C855 C 0.61569 0.24314 0.31551
 C856 C 0.59312 0.24589 0.33624
 C857 C 0.62128 0.26055 0.28802
 C858 C 0.64503 0.25924 0.26923
 C859 C 0.66353 0.24035 0.27745
 C860 C 0.65714 0.22185 0.30381
 H861 H 0.55418 0.24944 0.38240
 H862 H 0.61417 0.17646 0.40562
 H863 H 0.57696 0.18389 0.44436
 H864 H 0.64175 0.19052 0.35629
 H865 H 0.57971 0.26147 0.33082
 H866 H 0.60774 0.27579 0.28173
 H867 H 0.64938 0.27369 0.24904
 H868 H 0.67116 0.20713 0.31042
 C869 C 0.92265 0.28771 0.88347
 C870 C 0.90114 0.28719 0.86028
 C871 C 0.87936 0.30313 0.86625
 C872 C 0.87991 0.32001 0.89463
 C873 C 0.90111 0.32005 0.91789
 C874 C 0.92234 0.30332 0.91322
 C875 C 0.85691 0.30121 0.84448
 C876 C 0.85561 0.28298 0.81734
 C877 C 0.87767 0.26754 0.81080
 C878 C 0.90047 0.27000 0.83207
 C879 C 0.87611 0.24915 0.78380
 C880 C 0.85243 0.24516 0.76444
 C881 C 0.82998 0.25966 0.77157
 C882 C 0.83206 0.27912 0.79752
 H883 H 0.93866 0.27451 0.87949
 H884 H 0.86356 0.33264 0.89935
 H885 H 0.90079 0.33306 0.93985
 H886 H 0.84001 0.31311 0.84945
 H887 H 0.91718 0.25778 0.82742
 H888 H 0.89288 0.23725 0.77831
 H889 H 0.85144 0.23015 0.74449
 H890 H 0.81495 0.29052 0.80322
 C891 C 0.43290 0.77677 0.40223
 C892 C 0.41187 0.77948 0.37897
 C893 C 0.39152 0.79687 0.38636
 C894 C 0.39308 0.81188 0.41644
 C895 C 0.41409 0.80908 0.43944
 C896 C 0.43385 0.79117 0.43282
 C897 C 0.36969 0.79851 0.36396
 C898 C 0.36781 0.78282 0.33437
 C899 C 0.38858 0.76603 0.32661
 C900 C 0.41049 0.76455 0.34885
 C901 C 0.38679 0.75045 0.29706
 C902 C 0.36422 0.75073 0.27592
 C903 C 0.34294 0.76663 0.28379
 C904 C 0.34517 0.78309 0.31284
 H905 H 0.44812 0.76292 0.39709
 H906 H 0.37778 0.82543 0.42246
 H907 H 0.41464 0.82044 0.46283
 H908 H 0.35388 0.81152 0.36992
 H909 H 0.42616 0.75132 0.34307
 H910 H 0.40259 0.73759 0.29063
 H911 H 0.36318 0.73792 0.25371
 H912 H 0.32897 0.79547 0.31924
 C913 C 0.29682 0.91992 0.06911
 C914 C 0.30069 0.90008 0.09336
 C915 C 0.31006 0.90794 0.12594
 C916 C 0.31738 0.93545 0.13280
 C917 C 0.31451 0.95504 0.10798
 C918 C 0.30332 0.94758 0.07630
 C919 C 0.31144 0.88823 0.15119
 C920 C 0.30419 0.86074 0.14393
 C921 C 0.29687 0.85280 0.11058
 C922 C 0.29485 0.87253 0.08564
 C923 C 0.29093 0.82527 0.10292
 C924 C 0.29085 0.80583 0.12835
 C925 C 0.29616 0.81363 0.16194
 C926 C 0.30337 0.84108 0.16956
 H927 H 0.28816 0.91386 0.04480
 H928 H 0.32510 0.94184 0.15742
 H929 H 0.32024 0.97616 0.11385
 H930 H 0.31769 0.89432 0.17653
 H931 H 0.28831 0.86648 0.06038
 H932 H 0.28561 0.81883 0.07743
 H933 H 0.28506 0.78478 0.12206
 H934 H 0.30764 0.84715 0.19546
 C935 C 0.79092 0.40338 0.56645
 C936 C 0.79186 0.38196 0.58936
 C937 C 0.80669 0.38612 0.61973
 C938 C 0.82179 0.41113 0.62554
 C939 C 0.82153 0.43208 0.60193
 C940 C 0.80544 0.42871 0.57269
 C941 C 0.80590 0.36536 0.64389
 C942 C 0.79104 0.34028 0.63760
 C943 C 0.77773 0.33558 0.60622
 C944 C 0.77793 0.35656 0.58249
 C945 C 0.76398 0.31008 0.59936
 C946 C 0.76260 0.28970 0.62380
 C947 C 0.77439 0.29474 0.65562
 C948 C 0.78886 0.31993 0.66235
 H949 H 0.77856 0.40051 0.54388
 H950 H 0.83367 0.41454 0.64840
 H951 H 0.83337 0.45120 0.60686
 H952 H 0.81662 0.36878 0.66763
 H953 H 0.76706 0.35320 0.55884
 H954 H 0.75393 0.30605 0.57532
 H955 H 0.75127 0.27037 0.61842
 H956 H 0.79811 0.32370 0.68694
 C957 C 0.72050 0.09192 0.06621
 C958 C 0.71666 0.11168 0.09070
 C959 C 0.70278 0.10415 0.12091
 C960 C 0.69131 0.07738 0.12500
 C961 C 0.69453 0.05800 0.10004
 C962 C 0.70999 0.06482 0.07101
 C963 C 0.70106 0.12333 0.14674
 C964 C 0.71256 0.15011 0.14241
 C965 C 0.72475 0.15804 0.11125
 C966 C 0.72699 0.13873 0.08575
 C967 C 0.73509 0.18508 0.10639
 C968 C 0.73436 0.20387 0.13257
 C969 C 0.72385 0.19582 0.16425
 C970 C 0.71260 0.16898 0.16894
 H971 H 0.73232 0.09743 0.04382
 H972 H 0.68017 0.07133 0.14771
 H973 H 0.68575 0.03737 0.10389
 H974 H 0.69117 0.11734 0.17033
 H975 H 0.73711 0.14466 0.06228
 H976 H 0.74422 0.19158 0.08256
 H977 H 0.74324 0.22445 0.12857
 H978 H 0.70426 0.16276 0.19330
 C979 C 0.22944 0.58465 0.60782
 C980 C 0.22807 0.60545 0.63160
 C981 C 0.21181 0.62688 0.62498
 C982 C 0.19661 0.62667 0.59505
 C983 C 0.19789 0.60570 0.57164
 C984 C 0.21455 0.58474 0.57764
 C985 C 0.21137 0.64833 0.64810
 C986 C 0.22703 0.64862 0.67770
 C987 C 0.24266 0.62677 0.68466
 C988 C 0.24304 0.60533 0.66162
 C989 C 0.25816 0.62697 0.71426
 C990 C 0.25900 0.64904 0.73624
 C991 C 0.24432 0.67136 0.72913
 C992 C 0.22789 0.67074 0.70006
 H993 H 0.24240 0.56854 0.61247
 H994 H 0.18393 0.64282 0.58962
 H995 H 0.18615 0.60596 0.54857
 H996 H 0.19924 0.66497 0.64279
 H997 H 0.25535 0.58879 0.66679
 H998 H 0.27011 0.61031 0.72007
 H999 H 0.27175 0.64888 0.75846
 H1000 H 0.21645 0.68778 0.69426
 C1001 C 0.90438 0.71670 0.10049
 C1002 C 0.88353 0.72009 0.12358
 C1003 C 0.88611 0.71163 0.15739
 C1004 C 0.90936 0.69942 0.16727
 C1005 C 0.92968 0.69536 0.14378
 C1006 C 0.92739 0.70396 0.11021
 C1007 C 0.86527 0.71517 0.18057
 C1008 C 0.84150 0.72620 0.17002
 C1009 C 0.83873 0.73397 0.13591
 C1010 C 0.85995 0.73133 0.11311
 C1011 C 0.81454 0.74378 0.12494
 C1012 C 0.79309 0.74555 0.14741
 C1013 C 0.79581 0.73835 0.18134
 C1014 C 0.82013 0.72900 0.19275
 H1015 H 0.90259 0.72369 0.07473
 H1016 H 0.91165 0.69267 0.19302
 H1017 H 0.94721 0.68542 0.15176
 H1018 H 0.86729 0.70885 0.20657
 H1019 H 0.85785 0.73747 0.08704
 H1020 H 0.81203 0.74964 0.09888
 H1021 H 0.77436 0.75274 0.13838
 H1022 H 0.82200 0.72308 0.21892
 C1023 C 0.39864 0.23782 0.58305
 C1024 C 0.37876 0.24321 0.60671
 C1025 C 0.38438 0.26429 0.63054
 C1026 C 0.40969 0.27964 0.63022
 C1027 C 0.42926 0.27427 0.60642
 C1028 C 0.42391 0.25337 0.58273
 C1029 C 0.36460 0.26977 0.65423
 C1030 C 0.33921 0.25457 0.65433
 C1031 C 0.33349 0.23358 0.63045
 C1032 C 0.35334 0.22798 0.60683
 C1033 C 0.30797 0.21860 0.63060
 C1034 C 0.28829 0.22433 0.65418
 C1035 C 0.29381 0.24509 0.67812
 C1036 C 0.31940 0.26011 0.67796
 H1037 H 0.39453 0.22165 0.56476
 H1038 H 0.41430 0.29589 0.64825
 H1039 H 0.44861 0.28649 0.60633
 H1040 H 0.36895 0.28592 0.67252
 H1041 H 0.34898 0.21186 0.58851
 H1042 H 0.30322 0.20245 0.61246
 H1043 H 0.26876 0.21243 0.65375
 H1044 H 0.32396 0.27624 0.69620
 C1045 C 0.08488 0.29243 0.08573
 C1046 C 0.10395 0.28643 0.11019
 C1047 C 0.09638 0.26717 0.13563
 C1048 C 0.06984 0.25441 0.13628
 C1049 C 0.05105 0.26041 0.11172
 C1050 C 0.05846 0.27932 0.08625
 C1051 C 0.11550 0.26078 0.15979
 C1052 C 0.14214 0.27328 0.15877
 C1053 C 0.14966 0.29265 0.13348
 C1054 C 0.13050 0.29916 0.10941
 C1055 C 0.17632 0.30505 0.13256
 C1056 C 0.19545 0.29816 0.15626
 C1057 C 0.18827 0.27876 0.18135
 C1058 C 0.16145 0.26651 0.18251
 H1059 H 0.09056 0.30707 0.06606
 H1060 H 0.06370 0.23962 0.15557
 H1061 H 0.03074 0.25010 0.11231
 H1062 H 0.10971 0.24593 0.17919
 H1063 H 0.13631 0.31393 0.08992
 H1064 H 0.18243 0.31996 0.11339
 H1065 H 0.21594 0.30794 0.15478
 H1066 H 0.15561 0.25154 0.20172
 C1067 C 0.59595 0.76607 0.60610
 C1068 C 0.61451 0.75790 0.63000
 C1069 C 0.60703 0.73536 0.65100
 C1070 C 0.58132 0.72113 0.64737
 C1071 C 0.56321 0.72906 0.62307
 C1072 C 0.57031 0.75156 0.60231
 C1073 C 0.62539 0.72730 0.67515
 C1074 C 0.65132 0.74120 0.67824
 C1075 C 0.65900 0.76342 0.65681
 C1076 C 0.64047 0.77177 0.63303
 C1077 C 0.68515 0.77686 0.65951
 C1078 C 0.70350 0.76849 0.68328
 C1079 C 0.69593 0.74672 0.70507
 C1080 C 0.66974 0.73316 0.70236
 H1081 H 0.60145 0.78353 0.59022
 H1082 H 0.57529 0.70376 0.66315
 H1083 H 0.54356 0.71759 0.62037
 H1084 H 0.61956 0.71012 0.69139
 H1085 H 0.64632 0.78892 0.61675
 H1086 H 0.69142 0.79386 0.64323
 H1087 H 0.72353 0.77932 0.68494
 H1088 H 0.66374 0.71620 0.71886
   
