data_POSCAR
  _audit_creation_date              2014-09-24
  _audit_creation_method            'ToBaCCo'
  _symmetry_space_group_name_H-M    'P1'
  _symmetry_Int_Tables_number       1
  _symmetry_cell_setting            triclinic
  loop_
  _symmetry_equiv_pos_as_xyz
 x,y,z
_cell_length_a 19.9724
_cell_length_b 19.9027
_cell_length_c 34.2472
_cell_angle_alpha 88.871000
_cell_angle_beta 91.177900
_cell_angle_gamma 95.789500
loop_
  _atom_site_label
  _atom_site_type_symbol
  _atom_site_fract_x
  _atom_site_fract_y
  _atom_site_fract_z
C1 C 0.03337 0.36962 0.96330
 C2 C 0.04217 0.33460 0.99840
 C3 C 0.02952 0.36129 1.03501
 C4 C 0.01351 0.42983 1.03607
 C5 C 0.00616 0.46698 1.00041
 C6 C 0.01554 0.43639 0.96402
 C7 C 0.00849 0.47390 0.92929
 C8 C -0.00929 0.53944 0.92990
 C9 C -0.01835 0.57134 0.96532
 C10 C -0.01039 0.53516 1.00102
 C11 C 0.00710 0.46371 1.07129
 C12 C -0.01141 0.52906 1.07181
 C13 C -0.01888 0.56698 1.03721
 C14 C -0.03753 0.63444 1.03740
 C15 C -0.04941 0.66678 1.00143
 C16 C -0.03659 0.63808 0.96585
 H17 H 0.01703 0.45329 0.90107
 H18 H -0.01656 0.56446 0.90205
 H19 H 0.01762 0.44177 1.09940
 H20 H -0.02080 0.54824 1.10016
 H21 H 0.05403 0.28282 0.99644
 H22 H -0.06210 0.71853 1.00090
 C23 C 0.36097 0.00783 0.53672
 C24 C 0.32443 0.00563 0.50152
 C25 C 0.35622 0.00629 0.46555
 C26 C 0.42723 0.00830 0.46451
 C27 C 0.46532 0.00992 0.50002
 C28 C 0.43191 0.00974 0.53629
 C29 C 0.46979 0.00740 0.57114
 C30 C 0.53896 0.00483 0.57063
 C31 C 0.57351 0.00550 0.53525
 C32 C 0.53646 0.00805 0.49937
 C33 C 0.46062 0.00436 0.42915
 C34 C 0.52992 0.00196 0.42841
 C35 C 0.56962 0.00491 0.46298
 C36 C 0.64015 -0.00150 0.46287
 C37 C 0.67463 -0.00493 0.49890
 C38 C 0.64342 -0.00029 0.53471
 H39 H 0.44610 0.00527 0.59931
 H40 H 0.56431 -0.00014 0.59852
 H41 H 0.43318 0.00057 0.40159
 H42 H 0.55064 -0.00544 0.40022
 H43 H 0.26993 0.00334 0.50213
 H44 H 0.72854 -0.00822 0.49924
 C45 C 0.11132 0.04512 0.28506
 H46 H 0.10597 0.08845 0.26619
 C47 C 0.16457 0.04712 0.31240
 H48 H 0.19951 0.09226 0.31431
 C49 C 0.07182 -0.06546 0.30622
 H50 H 0.03659 -0.10990 0.30337
 C51 C 0.12391 -0.06557 0.33389
 H52 H 0.12700 -0.10996 0.35238
 N53 N 0.06539 -0.01019 0.28298
 C54 C -0.07930 -0.10082 0.19760
 H55 H -0.11836 -0.06744 0.20051
 C56 C -0.08698 -0.15223 0.17032
 H57 H -0.13260 -0.15854 0.15257
 C58 C 0.02921 -0.13039 0.21587
 H59 H 0.07550 -0.11991 0.23250
 C60 C 0.02322 -0.18313 0.18926
 H61 H 0.06488 -0.21331 0.18607
 Zn62 Zn -0.01157 -0.01054 0.24901
 N63 N -0.02137 -0.08996 0.21907
 C64 C 0.01269 0.05013 0.17590
 N65 N -0.00093 0.06456 0.21340
 C66 C -0.00468 0.12952 0.22435
 C67 C 0.00216 0.18238 0.19658
 C68 C 0.02120 0.10118 0.14760
 C69 C -0.10307 -0.06527 0.30374
 C70 C -0.15351 -0.06718 0.33127
 C71 C -0.18200 0.04105 0.30679
 C72 C -0.13008 0.04122 0.27981
 N73 N -0.09001 -0.01034 0.27988
 H74 H 0.01772 -0.00116 0.16770
 H75 H -0.01303 0.14040 0.25457
 H76 H -0.00183 0.23367 0.20555
 H77 H 0.03144 0.08795 0.11794
 H78 H -0.07358 -0.10750 0.30191
 H79 H -0.16111 -0.11049 0.35090
 H80 H -0.21156 0.08369 0.30757
 H81 H -0.12121 0.08327 0.25961
 C82 C -0.03475 -0.19331 0.16534
 C83 C 0.17052 -0.00834 0.33781
 C84 C -0.19242 -0.01269 0.33385
 C85 C 0.01523 0.16821 0.15761
 C86 C -0.01749 0.14052 0.77802
 H87 H -0.05526 0.13924 0.75495
 C88 C -0.01187 0.19356 0.80449
 H89 H -0.04585 0.23252 0.80158
 C90 C 0.07174 0.09079 0.81037
 H91 H 0.10332 0.04978 0.81281
 C92 C 0.07959 0.14305 0.83711
 H93 H 0.11752 0.14161 0.86008
 N94 N 0.02314 0.08981 0.78198
 C95 C 0.09789 -0.05306 0.70318
 H96 H 0.06038 -0.09568 0.70709
 C97 C 0.14884 -0.05665 0.67636
 H98 H 0.15063 -0.10284 0.66039
 C99 C 0.13774 0.06018 0.71740
 H100 H 0.13181 0.10630 0.73253
 C101 C 0.18983 0.05871 0.69081
 H102 H 0.22390 0.10383 0.68603
 Zn103 Zn 0.01263 0.01143 0.75126
 N104 N 0.09212 0.00526 0.72234
 C105 C -0.04862 0.00476 0.67653
 N106 N -0.06159 0.01330 0.71489
 C107 C -0.12512 0.02206 0.72636
 C108 C -0.17843 0.02026 0.69895
 C109 C -0.10030 0.00073 0.64862
 C110 C 0.04880 -0.10504 0.79262
 C111 C 0.04094 -0.15851 0.81966
 C112 C -0.06892 -0.12620 0.83433
 C113 C -0.05900 -0.07341 0.80689
 N114 N -0.00110 -0.06405 0.78636
 H115 H 0.00181 0.00069 0.66709
 H116 H -0.13463 0.03111 0.75662
 H117 H -0.22872 0.02681 0.70842
 H118 H -0.08863 -0.00723 0.61841
 H119 H 0.09583 -0.09532 0.77759
 H120 H 0.08175 -0.18984 0.82432
 H121 H -0.11521 -0.13219 0.85051
 H122 H -0.09713 -0.03917 0.80269
 C123 C 0.19451 0.00033 0.66900
 C124 C 0.03647 0.19461 0.83496
 C125 C -0.01842 -0.16951 0.84113
 C126 C -0.16616 0.00792 0.65971
 N127 N -0.08102 -0.27565 0.07183
 C128 C -0.04051 -0.32662 0.07139
 N129 N 0.00142 -0.33389 0.10265
 N130 N 0.00241 -0.29268 0.13292
 C131 C -0.03864 -0.24231 0.13327
 N132 N -0.08050 -0.23482 0.10215
 N133 N -0.00362 0.32581 0.10116
 C134 C 0.02973 0.31603 0.06781
 N135 N 0.05911 0.25756 0.06510
 N136 N 0.05556 0.21167 0.09389
 C137 C 0.02238 0.22182 0.12704
 N138 N -0.00689 0.28007 0.13026
 N139 N 0.32987 0.05423 0.59945
 C140 C 0.32209 0.00391 0.57303
 N141 N 0.27394 -0.04816 0.57887
 N142 N 0.23502 -0.05006 0.61001
 C143 C 0.24223 0.00026 0.63644
 N144 N 0.29060 0.05245 0.63056
 N145 N -0.26261 -0.04402 0.57104
 C146 C -0.31268 -0.00268 0.57021
 N147 N -0.31589 0.04103 0.60000
 N148 N -0.27096 0.04292 0.62947
 C149 C -0.22045 0.00199 0.62981
 N150 N -0.21743 -0.04165 0.60014
 N151 N -0.08495 -0.27579 0.92420
 C152 C -0.03569 -0.31721 0.93069
 N153 N 0.01867 -0.31062 0.90726
 N154 N 0.02331 -0.26488 0.87828
 C155 C -0.02588 -0.22336 0.87174
 N156 N -0.08030 -0.23006 0.89519
 N157 N -0.01184 0.32781 0.89952
 C158 C 0.03858 0.33144 0.92687
 N159 N 0.08937 0.29172 0.92303
 N160 N 0.08978 0.25008 0.89311
 C161 C 0.03924 0.24604 0.86585
 N162 N -0.01131 0.28625 0.86950
 N163 N -0.26666 -0.04184 0.43076
 C164 C -0.32112 -0.00601 0.42898
 N165 N -0.33322 0.02819 0.39516
 N166 N -0.29302 0.02603 0.36460
 C167 C -0.23928 -0.01082 0.36658
 N168 N -0.22708 -0.04464 0.40028
 N169 N 0.26244 -0.05105 0.42800
 C170 C 0.31221 0.00041 0.43033
 N171 N 0.31642 0.04882 0.40172
 N172 N 0.27232 0.04562 0.37184
 C173 C 0.22239 -0.00603 0.36950
 N174 N 0.21869 -0.05437 0.39813
   
