data_POSCAR
  _audit_creation_date              2014-09-24
  _audit_creation_method            'ToBaCCo'
  _symmetry_space_group_name_H-M    'P1'
  _symmetry_Int_Tables_number       1
  _symmetry_cell_setting            triclinic
  loop_
  _symmetry_equiv_pos_as_xyz
 x,y,z
_cell_length_a 30.1257
_cell_length_b 30.2014
_cell_length_c 25.7636
_cell_angle_alpha 90.072500
_cell_angle_beta 90.290900
_cell_angle_gamma 93.004300
loop_
  _atom_site_label
  _atom_site_type_symbol
  _atom_site_fract_x
  _atom_site_fract_y
  _atom_site_fract_z
O1 O -0.02979 0.30017 0.04321
 O2 O 0.04805 0.27308 -0.06084
 O3 O -0.03272 0.30040 -0.05819
 O4 O 0.05238 0.27906 0.03946
 O5 O 0.02906 0.20863 0.04345
 O6 O -0.05638 0.22997 -0.05568
 O7 O 0.02374 0.20289 -0.05758
 O8 O -0.05394 0.22983 0.04473
 Cu9 Cu 0.01183 0.29525 -0.00951
 Cu10 Cu -0.01675 0.21077 -0.00581
 C11 C -0.05541 0.26927 0.06131
 C12 C 0.04911 0.23323 -0.07687
 C13 C -0.05900 0.26895 -0.07374
 C14 C 0.05545 0.24051 0.05818
 O15 O 0.46939 0.82779 0.55031
 O16 O 0.55972 0.80043 0.46036
 O17 O 0.47666 0.81886 0.44929
 O18 O 0.55455 0.81750 0.55898
 O19 O 0.53937 0.74573 0.56930
 O20 O 0.45735 0.74811 0.46178
 O21 O 0.54097 0.72923 0.46965
 O22 O 0.45411 0.75625 0.56200
 Cu23 Cu 0.51662 0.82324 0.50358
 Cu24 Cu 0.49631 0.73775 0.51678
 C25 C 0.44652 0.79631 0.57176
 C26 C 0.56550 0.75995 0.44965
 C27 C 0.45352 0.78417 0.43699
 C28 C 0.56084 0.78152 0.58241
 O29 O 1.03970 0.68127 0.05006
 O30 O 0.94839 0.70215 -0.04201
 O31 O 1.03299 0.68289 -0.05062
 O32 O 0.95406 0.67939 0.05674
 O33 O 0.96329 0.75201 0.06596
 O34 O 1.04725 0.75476 -0.03936
 O35 O 0.96408 0.77406 -0.03488
 O36 O 1.05141 0.75356 0.05949
 Cu37 Cu 0.99220 0.68031 0.00188
 Cu38 Cu 1.00671 0.76531 0.01448
 C39 C 1.06121 0.71436 0.07062
 C40 C 0.94089 0.74197 -0.05422
 C41 C 1.05432 0.71858 -0.06295
 C42 C 0.94469 0.71483 0.07952
 O43 O 0.52245 0.18396 0.54949
 O44 O 0.44387 0.18332 0.44059
 O45 O 0.52914 0.17322 0.44895
 O46 O 0.43955 0.20156 0.53910
 O47 O 0.45784 0.27269 0.52793
 O48 O 0.54374 0.24472 0.43592
 O49 O 0.45871 0.25500 0.42886
 O50 O 0.54108 0.25468 0.53549
 Cu51 Cu 0.48216 0.17834 0.49573
 Cu52 Cu 0.50192 0.26388 0.48069
 C53 C 0.54526 0.21906 0.56094
 C54 C 0.43734 0.21897 0.41661
 C55 C 0.55170 0.20463 0.42701
 C56 C 0.43394 0.24217 0.54913
 O57 O 0.70338 -0.03808 0.03840
 O58 O 0.72509 0.04017 -0.06968
 O59 O 0.70186 -0.04432 -0.06300
 O60 O 0.72575 0.04590 0.03104
 O61 O 0.79690 0.03171 0.02991
 O62 O 0.77187 -0.06244 -0.05886
 O63 O 0.79504 0.02191 -0.07117
 O64 O 0.77471 -0.05149 0.04097
 Cu65 Cu 0.70689 0.00240 -0.01610
 Cu66 Cu 0.79175 -0.01657 -0.01503
 C67 C 0.73562 -0.05740 0.05876
 C68 C 0.76386 0.04429 -0.08898
 C69 C 0.73252 -0.06927 -0.07613
 C70 C 0.76544 0.05421 0.04648
 O71 O 0.21072 0.47088 0.56141
 O72 O 0.23192 0.55751 0.46318
 O73 O 0.20648 0.47385 0.46005
 O74 O 0.23207 0.55519 0.56366
 O75 O 0.30228 0.53751 0.56357
 O76 O 0.27763 0.46007 0.45524
 O77 O 0.30301 0.54294 0.46258
 O78 O 0.28062 0.45267 0.55565
 Cu79 Cu 0.21313 0.51584 0.51231
 Cu80 Cu 0.29800 0.49663 0.50919
 C81 C 0.24205 0.44674 0.57479
 C82 C 0.27121 0.56521 0.44651
 C83 C 0.23779 0.45374 0.43929
 C84 C 0.27139 0.56013 0.58146
 O85 O 0.29787 1.04549 0.06224
 O86 O 0.27196 0.95840 -0.03502
 O87 O 0.29775 1.04171 -0.03910
 O88 O 0.27264 0.96165 0.06577
 O89 O 0.20303 0.98115 0.06674
 O90 O 0.22711 1.05773 -0.04143
 O91 O 0.20142 0.97495 -0.03462
 O92 O 0.22845 1.06530 0.05791
 Cu93 Cu 0.29212 1.00001 0.01374
 Cu94 Cu 0.20786 1.02140 0.01237
 C95 C 0.26778 1.07102 0.07568
 C96 C 0.23229 0.95184 -0.05137
 C97 C 0.26653 1.06312 -0.05853
 C98 C 0.23359 0.95781 0.08418
 O99 O 0.79658 0.52932 0.53918
 O100 O 0.77112 0.45054 0.43212
 O101 O 0.79732 0.53461 0.43749
 O102 O 0.77294 0.44556 0.53255
 O103 O 0.70222 0.46149 0.53192
 O104 O 0.72793 0.55448 0.44181
 O105 O 0.70162 0.47040 0.43105
 O106 O 0.72570 0.54442 0.54192
 Cu107 Cu 0.79160 0.48846 0.48491
 Cu108 Cu 0.70733 0.50945 0.48644
 C109 C 0.76504 0.54943 0.55963
 C110 C 0.73189 0.44690 0.41361
 C111 C 0.76716 0.56021 0.42421
 C112 C 0.73333 0.43821 0.54828
 C113 C 0.25560 0.25144 0.18776
 C114 C 0.22617 0.28653 0.19136
 C115 C 0.23572 0.32149 0.22624
 C116 C 0.27353 0.32243 0.25829
 C117 C 0.30349 0.28822 0.25406
 C118 C 0.29432 0.25340 0.21880
 H119 H 0.31867 0.22862 0.21451
 H120 H 0.21343 0.34848 0.22821
 C121 C 0.78079 0.81483 0.24058
 C122 C 0.80970 0.77960 0.24427
 C123 C 0.80060 0.74553 0.28058
 C124 C 0.76406 0.74655 0.31481
 C125 C 0.73726 0.78392 0.31318
 C126 C 0.74576 0.81698 0.27590
 H127 H 0.72498 0.84523 0.27484
 H128 H 0.82361 0.71934 0.28358
 C129 C 0.77185 0.24400 0.19373
 C130 C 0.73406 0.21392 0.19560
 C131 C 0.70272 0.21804 0.23517
 C132 C 0.70881 0.25004 0.27462
 C133 C 0.74680 0.27957 0.27307
 C134 C 0.77755 0.27628 0.23297
 H135 H 0.80533 0.30042 0.23209
 H136 H 0.67319 0.19597 0.23482
 C137 C 0.21463 0.76463 0.22521
 C138 C 0.25351 0.79307 0.22696
 C139 C 0.28513 0.78792 0.26632
 C140 C 0.27900 0.75529 0.30495
 C141 C 0.23985 0.72712 0.30332
 C142 C 0.20805 0.73266 0.26434
 H143 H 0.17785 0.71153 0.26463
 H144 H 0.31397 0.81083 0.26735
 C145 C 0.72018 0.24638 0.68954
 C146 C 0.76007 0.27341 0.69184
 C147 C 0.79204 0.26494 0.72992
 C148 C 0.78469 0.23150 0.76749
 C149 C 0.74476 0.20460 0.76507
 C150 C 0.71328 0.21241 0.72649
 H151 H 0.68373 0.19046 0.72464
 H152 H 0.82297 0.28491 0.73008
 C153 C 0.28692 0.75359 0.72358
 C154 C 0.24831 0.72474 0.72426
 C155 C 0.21595 0.72975 0.76247
 C156 C 0.22089 0.76253 0.80140
 C157 C 0.25986 0.79118 0.80083
 C158 C 0.29233 0.78591 0.76270
 H159 H 0.32234 0.80728 0.76401
 H160 H 0.18752 0.70641 0.76214
 C161 C 0.24764 0.26751 0.69465
 C162 C 0.26893 0.22668 0.69523
 C163 C 0.25939 0.19597 0.73493
 C164 C 0.23023 0.20523 0.77542
 C165 C 0.20821 0.24542 0.77412
 C166 C 0.21695 0.27566 0.73409
 H167 H 0.19824 0.30526 0.73349
 H168 H 0.27537 0.16464 0.73439
 C169 C 0.72198 0.67515 0.74339
 C170 C 0.69278 0.71010 0.74702
 C171 C 0.70167 0.74412 0.78352
 C172 C 0.73894 0.74403 0.81701
 C173 C 0.76663 0.70743 0.81486
 C174 C 0.75776 0.67377 0.77821
 H175 H 0.77911 0.64597 0.77687
 H176 H 0.67817 0.76982 0.78689
 C177 C 0.27852 0.10563 0.11013
 C178 C 0.25138 0.13855 0.11860
 C179 C 0.26356 0.17432 0.15551
 C180 C 0.24755 0.21458 0.14983
 H181 H 0.22042 0.14008 0.09713
 H182 H 0.28481 0.16676 0.18793
 H183 H 0.31087 0.10671 0.12892
 H184 H 0.22702 0.22023 0.11613
 C185 C 0.77423 0.57884 0.60443
 C186 C 0.74120 0.59458 0.63230
 C187 C 0.74976 0.62532 0.67595
 C188 C 0.71580 0.64043 0.70283
 H189 H 0.70698 0.58512 0.62234
 H190 H 0.78359 0.63721 0.68443
 H191 H 0.80851 0.58735 0.61492
 H192 H 0.68239 0.62879 0.69231
 C193 C 0.72736 0.91299 0.10347
 C194 C 0.76077 0.89647 0.13037
 C195 C 0.75263 0.86560 0.17389
 C196 C 0.78679 0.84937 0.19979
 H197 H 0.79486 0.90536 0.11972
 H198 H 0.71877 0.85464 0.18318
 H199 H 0.69326 0.90481 0.11460
 H200 H 0.82013 0.86008 0.18832
 C201 C 0.23352 0.41242 0.61410
 C202 C 0.25574 0.37532 0.61528
 C203 C 0.24809 0.34354 0.65770
 C204 C 0.25515 0.30039 0.65205
 H205 H 0.27921 0.36833 0.58496
 H206 H 0.23685 0.35655 0.69419
 H207 H 0.20775 0.41750 0.64239
 H208 H 0.26681 0.28901 0.61490
 C209 C 0.91299 0.27898 0.10234
 C210 C 0.87546 0.25397 0.10789
 C211 C 0.84536 0.26037 0.15148
 C212 C 0.80345 0.24336 0.14954
 H213 H 0.86696 0.22784 0.08007
 H214 H 0.85875 0.27706 0.18570
 H215 H 0.92039 0.30694 0.12793
 H216 H 0.79219 0.22743 0.11380
 C217 C 0.41091 0.80635 0.60853
 C218 C 0.38398 0.77405 0.62844
 C219 C 0.34905 0.78276 0.66657
 C220 C 0.32195 0.74921 0.68343
 H221 H 0.38796 0.73999 0.61674
 H222 H 0.34565 0.81626 0.68044
 H223 H 0.40683 0.84056 0.61943
 H224 H 0.32582 0.71702 0.66632
 C225 C 0.09570 0.70733 0.10566
 C226 C 0.12029 0.74110 0.12675
 C227 C 0.15551 0.73398 0.16524
 C228 C 0.18050 0.76854 0.18375
 H229 H 0.11414 0.77499 0.11608
 H230 H 0.16071 0.70061 0.17847
 H231 H 0.10257 0.67355 0.11592
 H232 H 0.17543 0.80085 0.16754
 C233 C 0.57630 0.21788 0.60481
 C234 C 0.61366 0.24353 0.60697
 C235 C 0.64432 0.23970 0.65105
 C236 C 0.68763 0.25092 0.64647
 H237 H 0.62254 0.26577 0.57523
 H238 H 0.63091 0.22696 0.68729
 H239 H 0.56945 0.19335 0.63481
 H240 H 0.69966 0.26370 0.60956
 C241 C 0.77310 0.07379 0.87027
 C242 C 0.74366 0.10188 0.85235
 C243 C 0.75614 0.13438 0.81163
 C244 C 0.73258 0.17013 0.80411
 H245 H 0.71091 0.10266 0.86954
 H246 H 0.78573 0.12991 0.78882
 H247 H 0.80627 0.07498 0.85395
 H248 H 0.70199 0.17346 0.82542
 C249 C 0.28051 0.60018 0.40798
 C250 C 0.24929 0.62672 0.39162
 C251 C 0.25993 0.66186 0.35372
 C252 C 0.23023 0.69144 0.34147
 H253 H 0.21585 0.62308 0.40696
 H254 H 0.29252 0.66384 0.33593
 H255 H 0.31407 0.60453 0.39313
 H256 H 0.19689 0.68777 0.35712
 C257 C 0.22153 0.91734 0.90952
 C258 C 0.25198 0.89054 0.89190
 C259 C 0.24044 0.85623 0.85286
 C260 C 0.26955 0.82622 0.84012
 H261 H 0.28569 0.89343 0.90695
 H262 H 0.20783 0.85520 0.83475
 H263 H 0.18768 0.91384 0.89499
 H264 H 0.30285 0.82907 0.85642
 C265 C 0.72067 0.41475 0.37195
 C266 C 0.74706 0.38205 0.36009
 C267 C 0.73396 0.34863 0.32045
 C268 C 0.75751 0.31282 0.31397
 H269 H 0.77809 0.37902 0.38098
 H270 H 0.70479 0.35309 0.29656
 H271 H 0.68889 0.41670 0.35238
 H272 H 0.78773 0.30938 0.33629
 C273 C 0.07814 0.22189 0.88404
 C274 C 0.10896 0.25044 0.86444
 C275 C 0.13933 0.23592 0.82423
 C276 C 0.17746 0.25876 0.81495
 H277 H 0.11306 0.28402 0.87933
 H278 H 0.13085 0.20579 0.80260
 H279 H 0.07618 0.18791 0.87009
 H280 H 0.18494 0.28991 0.83489
 C281 C 0.60087 0.74776 0.41375
 C282 C 0.63267 0.77697 0.39770
 C283 C 0.66809 0.76389 0.36230
 C284 C 0.70196 0.79259 0.35122
 H285 H 0.63301 0.81096 0.41140
 H286 H 0.66615 0.73121 0.34476
 H287 H 0.60134 0.71351 0.40122
 H288 H 0.70189 0.82585 0.36718
 C289 C 0.90477 0.75151 0.90937
 C290 C 0.87387 0.72052 0.89505
 C291 C 0.83683 0.73101 0.86037
 C292 C 0.80381 0.70070 0.85134
 H293 H 0.87526 0.68710 0.91010
 H294 H 0.83666 0.76327 0.84201
 H295 H 0.90258 0.78523 0.89561
 H296 H 0.80584 0.66788 0.86796
 C297 C 0.40372 0.21781 0.37503
 C298 C 0.39366 0.25376 0.34830
 C299 C 0.35658 0.25166 0.31083
 C300 C 0.34408 0.28818 0.28691
 H301 H 0.41155 0.28526 0.35563
 H302 H 0.33763 0.22048 0.30518
 H303 H 0.38550 0.18651 0.36750
 H304 H 0.36265 0.31921 0.29432
 C305 C 0.72194 0.89400 0.88754
 C306 C 0.74466 0.85713 0.88692
 C307 C 0.73363 0.82163 0.84897
 C308 C 0.74716 0.78042 0.85572
 H309 H 0.77113 0.85290 0.91488
 H310 H 0.71511 0.83012 0.81463
 H311 H 0.69366 0.89676 0.86177
 H312 H 0.76581 0.77357 0.89056
 C313 C 0.22740 0.42271 0.39633
 C314 C 0.25928 0.40651 0.36713
 C315 C 0.24880 0.37412 0.32556
 C316 C 0.28131 0.35883 0.29652
 H317 H 0.29379 0.41679 0.37442
 H318 H 0.21482 0.36117 0.32045
 H319 H 0.19282 0.41331 0.38827
 H320 H 0.31501 0.37169 0.30349
 C321 C 0.27592 0.09275 0.90101
 C322 C 0.24454 0.11675 0.87957
 C323 C 0.25461 0.14790 0.83689
 C324 C 0.22288 0.17301 0.81839
 H325 H 0.21064 0.11362 0.89367
 H326 H 0.28800 0.15077 0.82140
 H327 H 0.30976 0.09639 0.88684
 H328 H 0.19073 0.17036 0.83679
 C329 C 0.77826 0.59634 0.38730
 C330 C 0.75678 0.63402 0.38625
 C331 C 0.76846 0.66896 0.34784
 C332 C 0.75583 0.71059 0.35398
 H333 H 0.73082 0.63936 0.41422
 H334 H 0.78656 0.65971 0.31367
 H335 H 0.80607 0.59244 0.36144
 H336 H 0.73775 0.71813 0.38882
 C337 C 0.08533 0.71715 0.89703
 C338 C 0.11530 0.75018 0.88646
 C339 C 0.14629 0.74597 0.84275
 C340 C 0.18755 0.76495 0.84425
 H341 H 0.11812 0.77954 0.91077
 H342 H 0.13440 0.72683 0.80959
 H343 H 0.08603 0.68675 0.87461
 H344 H 0.19738 0.78257 0.87940
 C345 C 0.58744 0.19475 0.39061
 C346 C 0.61430 0.22740 0.37152
 C347 C 0.64894 0.21950 0.33309
 C348 C 0.67495 0.25367 0.31592
 H349 H 0.61023 0.26130 0.38384
 H350 H 0.65277 0.18617 0.31887
 H351 H 0.59159 0.16067 0.37922
 H352 H 0.67093 0.28587 0.33311
 C353 C 0.90739 0.27838 0.88669
 C354 C 0.87905 0.24687 0.86777
 C355 C 0.84618 0.25688 0.82750
 C356 C 0.81857 0.22461 0.80860
 H357 H 0.88030 0.21311 0.88179
 H358 H 0.84440 0.29069 0.81403
 H359 H 0.90620 0.31207 0.87248
 H360 H 0.82079 0.19201 0.82512
 C361 C 0.42259 0.78641 0.39290
 C362 C 0.38482 0.76136 0.38987
 C363 C 0.35442 0.76582 0.34540
 C364 C 0.31141 0.75266 0.34873
 H365 H 0.37558 0.73869 0.42106
 H366 H 0.36789 0.77980 0.30980
 H367 H 0.42997 0.81126 0.36340
 H368 H 0.29956 0.73890 0.38524
 C369 C 0.22312 0.92577 0.12590
 C370 C 0.25121 0.89499 0.13965
 C371 C 0.23927 0.86180 0.17964
 C372 C 0.26407 0.82697 0.18699
 H373 H 0.28282 0.89327 0.12001
 H374 H 0.20973 0.86547 0.20280
 H375 H 0.19090 0.92644 0.14437
 H376 H 0.29476 0.82456 0.16561
 C377 C 0.72282 0.40256 0.58606
 C378 C 0.75335 0.37553 0.60364
 C379 C 0.74148 0.34000 0.64110
 C380 C 0.77071 0.31012 0.65477
 H381 H 0.78725 0.37912 0.58972
 H382 H 0.70835 0.33812 0.65742
 H383 H 0.68885 0.39831 0.59960
 H384 H 0.80450 0.31394 0.64054
 C385 C 0.77554 0.08991 0.08445
 C386 C 0.74422 0.11531 0.10314
 C387 C 0.75521 0.15035 0.14163
 C388 C 0.72475 0.17836 0.15661
 H389 H 0.71015 0.11048 0.08968
 H390 H 0.78854 0.15340 0.15776
 H391 H 0.80964 0.09525 0.09761
 H392 H 0.69089 0.17336 0.14246
 C393 C 0.28162 0.59253 0.62319
 C394 C 0.25272 0.62241 0.63726
 C395 C 0.26386 0.65576 0.67761
 C396 C 0.23867 0.69044 0.68414
 H397 H 0.22086 0.62330 0.61759
 H398 H 0.29317 0.65240 0.70159
 H399 H 0.31409 0.59273 0.64155
 H400 H 0.20827 0.69251 0.66178
 C401 C 0.91103 0.71201 0.12098
 C402 C 0.89945 0.74713 0.14837
 C403 C 0.86252 0.74346 0.18595
 C404 C 0.85011 0.77932 0.21138
 H405 H 0.91621 0.77925 0.14164
 H406 H 0.84377 0.71208 0.19046
 H407 H 0.89427 0.67996 0.12812
 H408 H 0.86898 0.81037 0.20543
 C409 C 0.39986 0.25492 0.58602
 C410 C 0.36895 0.22610 0.60469
 C411 C 0.33586 0.24078 0.64183
 C412 C 0.30135 0.21399 0.65567
 H413 H 0.36771 0.19177 0.59216
 H414 H 0.34004 0.27373 0.65848
 H415 H 0.39992 0.28945 0.59764
 H416 H 0.29889 0.18024 0.64110
 C417 C 0.09030 0.23265 0.09703
 C418 C 0.11923 0.26536 0.11210
 C419 C 0.15604 0.25805 0.14836
 C420 C 0.18695 0.29068 0.15712
 H421 H 0.11669 0.29830 0.09601
 H422 H 0.15845 0.22604 0.16684
 H423 H 0.09290 0.19951 0.11246
 H424 H 0.18250 0.32305 0.14024
 C425 C 0.59427 0.78216 0.62435
 C426 C 0.60421 0.74601 0.65085
 C427 C 0.64090 0.74779 0.68907
 C428 C 0.65288 0.71103 0.71297
 H429 H 0.58639 0.71458 0.64294
 H430 H 0.65986 0.77885 0.69544
 H431 H 0.61240 0.81338 0.63249
 H432 H 0.63415 0.68020 0.70494
   
