data_POSCAR
  _audit_creation_date              2014-09-24
  _audit_creation_method            'ToBaCCo'
  _symmetry_space_group_name_H-M    'P1'
  _symmetry_Int_Tables_number       1
  _symmetry_cell_setting            triclinic
  loop_
  _symmetry_equiv_pos_as_xyz
 x,y,z
_cell_length_a 42.0661
_cell_length_b 42.0629
_cell_length_c 42.0555
_cell_angle_alpha 90.019800
_cell_angle_beta 90.015600
_cell_angle_gamma 90.022100
loop_
  _atom_site_label
  _atom_site_type_symbol
  _atom_site_fract_x
  _atom_site_fract_y
  _atom_site_fract_z
O1 O 0.34846 0.39297 0.03051
 O2 O 0.39225 0.34934 -0.03152
 O3 O 0.34816 0.39303 -0.03141
 O4 O 0.39233 0.34912 0.03040
 O5 O 0.35525 0.31205 0.03032
 O6 O 0.31129 0.35581 -0.03133
 O7 O 0.35518 0.31225 -0.03147
 O8 O 0.31153 0.35574 0.03046
 Cu9 Cu 0.37402 0.37485 -0.00052
 Cu10 Cu 0.32962 0.33025 -0.00051
 C11 C 0.32245 0.38183 0.04106
 C12 C 0.38123 0.32326 -0.04206
 C13 C 0.32204 0.38199 -0.04194
 C14 C 0.38133 0.32300 0.04090
 O15 O 0.60780 0.65073 -0.03152
 O16 O 0.65160 0.60704 0.03045
 O17 O 0.60781 0.65097 0.03040
 O18 O 0.65183 0.60698 -0.03148
 O19 O 0.68875 0.64414 -0.03141
 O20 O 0.64496 0.68798 0.03031
 O21 O 0.68859 0.64422 0.03039
 O22 O 0.64493 0.68776 -0.03148
 Cu23 Cu 0.62604 0.62520 -0.00054
 Cu24 Cu 0.67051 0.66972 -0.00056
 C25 C 0.61884 0.67680 -0.04204
 C26 C 0.67765 0.61815 0.04099
 C27 C 0.61886 0.67707 0.04090
 C28 C 0.67795 0.61798 -0.04203
 O29 O 0.65147 0.39315 0.96955
 O30 O 0.60764 0.34943 1.03149
 O31 O 0.65165 0.39320 1.03146
 O32 O 0.60758 0.34931 0.96957
 O33 O 0.64467 0.31227 0.96962
 O34 O 0.68854 0.35603 1.03137
 O35 O 0.64473 0.31238 1.03141
 O36 O 0.68840 0.35595 0.96958
 Cu37 Cu 0.62587 0.37500 1.00053
 Cu38 Cu 0.67028 0.33045 1.00050
 C39 C 0.67750 0.38203 0.95900
 C40 C 0.61867 0.32335 1.04199
 C41 C 0.67776 0.38218 1.04201
 C42 C 0.61859 0.32321 0.95904
 O43 O 0.39233 0.65075 1.03170
 O44 O 0.34839 0.60700 0.96977
 O45 O 0.39230 0.65086 0.96977
 O46 O 0.34829 0.60697 1.03169
 O47 O 0.31140 0.64414 1.03165
 O48 O 0.35521 0.68790 0.96988
 O49 O 0.31146 0.64420 0.96985
 O50 O 0.35524 0.68780 1.03167
 Cu51 Cu 0.37404 0.62517 1.00074
 Cu52 Cu 0.32964 0.66971 1.00077
 C53 C 0.38133 0.67685 1.04222
 C54 C 0.32235 0.61810 0.95925
 C55 C 0.38128 0.67696 0.95927
 C56 C 0.32219 0.61798 1.04226
 O57 O -0.03136 0.39222 0.34892
 O58 O 0.03060 0.34861 0.39278
 O59 O 0.03055 0.39244 0.34884
 O60 O -0.03129 0.34817 0.39260
 O61 O -0.03102 0.31127 0.35541
 O62 O 0.03066 0.35532 0.31180
 O63 O 0.03075 0.31165 0.35558
 O64 O -0.03112 0.35512 0.31184
 Cu65 Cu -0.00039 0.37408 0.37451
 Cu66 Cu -0.00016 0.32965 0.32995
 C67 C -0.04180 0.38115 0.32281
 C68 C 0.04122 0.32260 0.38171
 C69 C 0.04114 0.38145 0.32275
 C70 C -0.04175 0.32202 0.38154
 O71 O 0.03071 0.65116 0.60710
 O72 O -0.03133 0.60763 0.65095
 O73 O -0.03119 0.65160 0.60718
 O74 O 0.03057 0.60738 0.65110
 O75 O 0.03069 0.64456 0.68809
 O76 O -0.03091 0.68856 0.64432
 O77 O -0.03108 0.64479 0.68797
 O78 O 0.03087 0.68817 0.64425
 Cu79 Cu -0.00032 0.62572 0.62536
 Cu80 Cu -0.00008 0.67022 0.66985
 C81 C 0.04135 0.67718 0.61815
 C82 C -0.04178 0.61874 0.67703
 C83 C -0.04163 0.67777 0.61819
 C84 C 0.04114 0.61840 0.67719
 O85 O 1.03128 0.60753 0.34904
 O86 O 0.96936 0.65120 0.39293
 O87 O 0.96937 0.60734 0.34900
 O88 O 1.03125 0.65149 0.39283
 O89 O 1.03103 0.68842 0.35569
 O90 O 0.96930 0.64447 0.31199
 O91 O 0.96926 0.68817 0.35576
 O92 O 1.03107 0.64465 0.31202
 Cu93 Cu 1.00032 0.62566 0.37467
 Cu94 Cu 1.00015 0.67012 0.33016
 C95 C 1.04173 0.61861 0.32295
 C96 C 0.95877 0.67723 0.38187
 C97 C 0.95879 0.61835 0.32292
 C98 C 1.04174 0.67762 0.38181
 O99 O 0.96907 0.34857 0.60698
 O100 O 1.03102 0.39219 0.65099
 O101 O 1.03097 0.34823 0.60716
 O102 O 0.96911 0.39241 0.65096
 O103 O 0.96896 0.35526 0.68794
 O104 O 1.03067 0.31128 0.64428
 O105 O 1.03074 0.35504 0.68799
 O106 O 0.96889 0.31157 0.64412
 Cu107 Cu 1.00006 0.37407 0.62530
 Cu108 Cu 0.99979 0.32959 0.66978
 C109 C 0.95844 0.32253 0.61800
 C110 C 1.04144 0.38109 0.67709
 C111 C 1.04142 0.32208 0.61817
 C112 C 0.95851 0.38140 0.67703
 O113 O 0.34872 -0.03087 0.39256
 O114 O 0.39247 0.03130 0.34900
 O115 O 0.34857 0.03105 0.39287
 O116 O 0.39271 -0.03060 0.34882
 O117 O 0.35563 -0.03053 0.31173
 O118 O 0.31161 0.03099 0.35567
 O119 O 0.35535 0.03125 0.31195
 O120 O 0.31179 -0.03080 0.35532
 Cu121 Cu 0.37433 0.00022 0.37455
 Cu122 Cu 0.32990 0.00023 0.32996
 C123 C 0.32270 -0.04143 0.38139
 C124 C 0.38140 0.04185 0.32294
 C125 C 0.32248 0.04152 0.38182
 C126 C 0.38173 -0.04107 0.32267
 O127 O 0.60746 0.03115 0.65106
 O128 O 0.65123 -0.03104 0.60754
 O129 O 0.60727 -0.03078 0.65131
 O130 O 0.65127 0.03086 0.60711
 O131 O 0.68827 0.03096 0.64428
 O132 O 0.64438 -0.03056 0.68835
 O133 O 0.68820 -0.03082 0.64474
 O134 O 0.64462 0.03123 0.68807
 Cu135 Cu 0.62558 0.00003 0.62553
 Cu136 Cu 0.67007 0.00022 0.67007
 C137 C 0.61855 0.04178 0.67709
 C138 C 0.67728 -0.04151 0.61869
 C139 C 0.61828 -0.04118 0.67745
 C140 C 0.67738 0.04140 0.61811
 O141 O 0.39236 0.96883 0.65122
 O142 O 0.34854 1.03086 0.60755
 O143 O 0.39254 1.03073 0.65128
 O144 O 0.34856 0.96895 0.60726
 O145 O 0.31157 0.96895 0.64442
 O146 O 0.35545 1.03062 0.68834
 O147 O 0.31160 1.03073 0.64476
 O148 O 0.35522 0.96884 0.68822
 Cu149 Cu 0.37423 0.99984 0.62560
 Cu150 Cu 0.32976 0.99978 0.67014
 C151 C 0.38129 0.95827 0.67727
 C152 C 0.32250 1.04137 0.61869
 C153 C 0.38154 1.04121 0.67740
 C154 C 0.32247 0.95843 0.61829
 O155 O 0.65208 1.03139 0.39258
 O156 O 0.60814 0.96933 0.34891
 O157 O 0.65199 0.96947 0.39284
 O158 O 0.60798 1.03124 0.34889
 O159 O 0.64503 1.03113 0.31180
 O160 O 0.68895 0.96948 0.35566
 O161 O 0.64525 0.96934 0.31188
 O162 O 0.68893 1.03127 0.35537
 Cu163 Cu 0.62633 1.00036 0.37453
 Cu164 Cu 0.67073 1.00030 0.32997
 C165 C 0.67815 1.04195 0.38150
 C166 C 0.61918 0.95877 0.32284
 C167 C 0.67807 0.95895 0.38180
 C168 C 0.61895 1.04171 0.32275
 C169 C 0.82562 0.78420 0.48397
 C170 C 0.82562 0.78415 0.51746
 C171 C 0.80500 0.80442 0.53397
 C172 C 0.78472 0.82502 0.51741
 C173 C 0.78480 0.82513 0.48392
 C174 C 0.80511 0.80455 0.46742
 H175 H 0.80544 0.80487 0.44162
 H176 H 0.80522 0.80466 0.55977
 C177 C 0.17438 0.21581 0.48400
 C178 C 0.17430 0.21581 0.51749
 C179 C 0.19490 0.19553 0.53401
 C180 C 0.21525 0.17500 0.51746
 C181 C 0.21527 0.17496 0.48397
 C182 C 0.19497 0.19553 0.46746
 H183 H 0.19471 0.19526 0.44166
 H184 H 0.19461 0.19524 0.55980
 C185 C 0.17479 0.78380 0.51599
 C186 C 0.17473 0.78380 0.48251
 C187 C 0.19533 0.80410 0.46599
 C188 C 0.21565 0.82467 0.48255
 C189 C 0.21565 0.82471 0.51604
 C190 C 0.19536 0.80412 0.53255
 H191 H 0.19508 0.80440 0.55834
 H192 H 0.19505 0.80439 0.44020
 C193 C 0.82537 0.21552 0.51555
 C194 C 0.82545 0.21548 0.48206
 C195 C 0.80487 0.19514 0.46553
 C196 C 0.78453 0.17458 0.48208
 C197 C 0.78451 0.17459 0.51557
 C198 C 0.80479 0.19521 0.53209
 H199 H 0.80504 0.19498 0.55788
 H200 H 0.80517 0.19482 0.43974
 C201 C 0.48294 0.82485 0.78439
 C202 C 0.51642 0.82494 0.78438
 C203 C 0.53296 0.80434 0.80463
 C204 C 0.51645 0.78398 0.82518
 C205 C 0.48297 0.78395 0.82527
 C206 C 0.46642 0.80425 0.80471
 H207 H 0.44064 0.80451 0.80500
 H208 H 0.55875 0.80463 0.80489
 C209 C 0.48314 0.17529 0.21588
 C210 C 0.51662 0.17526 0.21588
 C211 C 0.53313 0.19588 0.19561
 C212 C 0.51658 0.21619 0.17504
 C213 C 0.48310 0.21616 0.17495
 C214 C 0.46659 0.19585 0.19554
 H215 H 0.44081 0.19554 0.19525
 H216 H 0.55892 0.19563 0.19534
 C217 C 0.51694 0.17546 0.78397
 C218 C 0.48346 0.17536 0.78398
 C219 C 0.46693 0.19597 0.80424
 C220 C 0.48344 0.21633 0.82479
 C221 C 0.51692 0.21637 0.82486
 C222 C 0.53346 0.19608 0.80428
 H223 H 0.55925 0.19583 0.80456
 H224 H 0.44114 0.19565 0.80452
 C225 C 0.51736 0.82527 0.21567
 C226 C 0.48388 0.82531 0.21571
 C227 C 0.46733 0.80466 0.19547
 C228 C 0.48383 0.78430 0.17491
 C229 C 0.51731 0.78432 0.17480
 C230 C 0.53387 0.80466 0.19535
 H231 H 0.55966 0.80495 0.19503
 H232 H 0.44154 0.80492 0.19524
 C233 C 0.78419 0.48354 0.82515
 C234 C 0.78412 0.51703 0.82519
 C235 C 0.80435 0.53357 0.80455
 C236 C 0.82490 0.51705 0.78420
 C237 C 0.82501 0.48356 0.78419
 C238 C 0.80449 0.46702 0.80454
 H239 H 0.80480 0.44124 0.80483
 H240 H 0.80459 0.55936 0.80482
 C241 C 0.21577 0.48344 0.17486
 C242 C 0.21588 0.51692 0.17485
 C243 C 0.19566 0.53347 0.19549
 C244 C 0.17507 0.51695 0.21581
 C245 C 0.17493 0.48347 0.21579
 C246 C 0.19544 0.46693 0.19544
 H247 H 0.19509 0.44114 0.19513
 H248 H 0.19545 0.55926 0.19524
 C249 C 0.78414 0.51651 0.17490
 C250 C 0.78401 0.48303 0.17485
 C251 C 0.80422 0.46645 0.19548
 C252 C 0.82482 0.48294 0.21583
 C253 C 0.82497 0.51642 0.21586
 C254 C 0.80447 0.53300 0.19552
 H255 H 0.80484 0.55878 0.19524
 H256 H 0.80442 0.44066 0.19519
 C257 C 0.21534 0.51639 0.82560
 C258 C 0.21543 0.48291 0.82561
 C259 C 0.19519 0.46635 0.80497
 C260 C 0.17462 0.48285 0.78462
 C261 C 0.17450 0.51633 0.78463
 C262 C 0.19502 0.53289 0.80499
 H263 H 0.19470 0.55868 0.80528
 H264 H 0.19497 0.44056 0.80522
 C265 C 0.26962 0.43330 0.11157
 C266 C 0.29794 0.44595 0.09953
 C267 C 0.31534 0.42911 0.07675
 C268 C 0.30454 0.39943 0.06570
 C269 C 0.27613 0.38686 0.07812
 C270 C 0.25882 0.40371 0.10090
 C271 C 0.25119 0.45091 0.13430
 C272 C 0.23529 0.46566 0.15299
 H273 H 0.30644 0.46889 0.10759
 H274 H 0.33709 0.43945 0.06764
 H275 H 0.26717 0.36408 0.07013
 H276 H 0.23688 0.39376 0.11003
 C277 C 0.73040 0.56668 0.11155
 C278 C 0.70206 0.55406 0.09952
 C279 C 0.68468 0.57090 0.07671
 C280 C 0.69554 0.60054 0.06563
 C281 C 0.72398 0.61307 0.07805
 C282 C 0.74126 0.59622 0.10086
 C283 C 0.74879 0.54906 0.13432
 C284 C 0.76466 0.53431 0.15303
 H285 H 0.69350 0.53115 0.10760
 H286 H 0.66291 0.56059 0.06761
 H287 H 0.73299 0.63582 0.07005
 H288 H 0.76322 0.60615 0.10998
 C289 C 0.73033 0.43346 0.88848
 C290 C 0.70202 0.44611 0.90051
 C291 C 0.68462 0.42930 0.92330
 C292 C 0.69542 0.39963 0.93437
 C293 C 0.72382 0.38707 0.92196
 C294 C 0.74114 0.40389 0.89917
 C295 C 0.74877 0.45105 0.86572
 C296 C 0.76467 0.46578 0.84702
 H297 H 0.69352 0.46904 0.89243
 H298 H 0.66287 0.43963 0.93241
 H299 H 0.73278 0.36430 0.92996
 H300 H 0.76307 0.39394 0.89004
 C301 C 0.26933 0.56657 0.88885
 C302 C 0.25855 0.59615 0.89955
 C303 C 0.27593 0.61301 0.92229
 C304 C 0.30437 0.60048 0.93466
 C305 C 0.31514 0.57079 0.92358
 C306 C 0.29767 0.55394 0.90084
 C307 C 0.25084 0.54894 0.86613
 C308 C 0.23489 0.53418 0.84745
 H309 H 0.23659 0.60608 0.89046
 H310 H 0.26698 0.63579 0.93029
 H311 H 0.33691 0.56048 0.93265
 H312 H 0.30616 0.53100 0.89276
 C313 C 0.11138 0.26978 0.43364
 C314 C 0.10092 0.25899 0.40397
 C315 C 0.07827 0.27631 0.38696
 C316 C 0.06576 0.30471 0.39945
 C317 C 0.07662 0.31551 0.42922
 C318 C 0.09927 0.29810 0.44621
 C319 C 0.13399 0.25133 0.45139
 C320 C 0.15259 0.23540 0.46621
 H321 H 0.11011 0.23705 0.39407
 H322 H 0.07043 0.26735 0.36413
 H323 H 0.06743 0.33725 0.43950
 H324 H 0.10717 0.30660 0.46922
 C325 C 0.11167 0.72989 0.56629
 C326 C 0.09954 0.70156 0.55373
 C327 C 0.07683 0.68419 0.57070
 C328 C 0.06595 0.69503 0.60043
 C329 C 0.07848 0.72344 0.61291
 C330 C 0.10118 0.74072 0.59593
 C331 C 0.13433 0.74830 0.54856
 C332 C 0.15297 0.76423 0.53376
 H333 H 0.10746 0.69303 0.53075
 H334 H 0.06763 0.66244 0.56042
 H335 H 0.07063 0.73244 0.63572
 H336 H 0.11039 0.76267 0.60582
 C337 C 0.88862 0.73014 0.43371
 C338 C 0.90069 0.70182 0.44630
 C339 C 0.92334 0.68437 0.42934
 C340 C 0.93423 0.69515 0.39959
 C341 C 0.92177 0.72356 0.38709
 C342 C 0.89912 0.74091 0.40406
 C343 C 0.86601 0.74862 0.45143
 C344 C 0.84741 0.76459 0.46621
 H345 H 0.89275 0.69334 0.46929
 H346 H 0.93249 0.66263 0.43963
 H347 H 0.92964 0.73250 0.36426
 H348 H 0.88996 0.76285 0.39415
 C349 C 0.88833 0.26963 0.56596
 C350 C 0.90043 0.29797 0.55342
 C351 C 0.92307 0.31541 0.57044
 C352 C 0.93391 0.30462 0.60021
 C353 C 0.92141 0.27620 0.61266
 C354 C 0.89877 0.25885 0.59563
 C355 C 0.86573 0.25114 0.54817
 C356 C 0.84714 0.23516 0.53334
 H357 H 0.89254 0.30646 0.53041
 H358 H 0.93225 0.33717 0.56019
 H359 H 0.92923 0.26724 0.63550
 H360 H 0.88959 0.23690 0.60550
 C361 C 0.43299 0.11222 0.27002
 C362 C 0.40341 0.10155 0.25922
 C363 C 0.38652 0.07884 0.27658
 C364 C 0.39903 0.06648 0.30504
 C365 C 0.42871 0.07755 0.31586
 C366 C 0.44559 0.10026 0.29840
 C367 C 0.45065 0.13487 0.25151
 C368 C 0.46540 0.15350 0.23551
 H369 H 0.39349 0.11062 0.23724
 H370 H 0.36375 0.07085 0.26760
 H371 H 0.43900 0.06848 0.33764
 H372 H 0.46853 0.10833 0.30692
 C373 C 0.56706 0.11230 0.72991
 C374 C 0.55444 0.10027 0.70155
 C375 C 0.57128 0.07750 0.68413
 C376 C 0.60095 0.06644 0.69496
 C377 C 0.61348 0.07887 0.72340
 C378 C 0.59663 0.10164 0.74072
 C379 C 0.54943 0.13500 0.74839
 C380 C 0.53470 0.15365 0.76436
 H381 H 0.53151 0.10833 0.69303
 H382 H 0.56097 0.06839 0.66237
 H383 H 0.63624 0.07089 0.73239
 H384 H 0.60656 0.11075 0.76269
 C385 C 0.43280 0.88791 0.73025
 C386 C 0.44541 0.89985 0.70187
 C387 C 0.42856 0.92257 0.68440
 C388 C 0.39890 0.93366 0.69520
 C389 C 0.38638 0.92132 0.72367
 C390 C 0.40324 0.89861 0.74104
 C391 C 0.45043 0.86525 0.74877
 C392 C 0.46517 0.84663 0.76477
 H393 H 0.46833 0.89176 0.69336
 H394 H 0.43886 0.93162 0.66261
 H395 H 0.36362 0.92933 0.73264
 H396 H 0.39332 0.88955 0.76302
 C397 C 0.56755 0.88841 0.26982
 C398 C 0.55497 0.90036 0.29821
 C399 C 0.57185 0.92308 0.31569
 C400 C 0.60152 0.93416 0.30490
 C401 C 0.61402 0.92181 0.27642
 C402 C 0.59712 0.89910 0.25903
 C403 C 0.54989 0.86573 0.25129
 C404 C 0.53514 0.84709 0.23529
 H405 H 0.53204 0.89229 0.30672
 H406 H 0.56157 0.93214 0.33749
 H407 H 0.63678 0.92980 0.26745
 H408 H 0.60703 0.89004 0.23704
 C409 C 0.43308 0.27038 0.88775
 C410 C 0.40354 0.25947 0.89840
 C411 C 0.38655 0.27681 0.92105
 C412 C 0.39893 0.30535 0.93337
 C413 C 0.42857 0.31627 0.92232
 C414 C 0.44554 0.29884 0.89966
 C415 C 0.45083 0.25191 0.86515
 C416 C 0.46565 0.23594 0.84656
 H417 H 0.39372 0.23742 0.88936
 H418 H 0.36382 0.26775 0.92904
 H419 H 0.43877 0.33813 0.93136
 H420 H 0.46844 0.30744 0.89161
 C421 C 0.56689 0.72981 0.88795
 C422 C 0.55442 0.70136 0.89985
 C423 C 0.57142 0.68388 0.92245
 C424 C 0.60111 0.69474 0.93345
 C425 C 0.61351 0.72327 0.92114
 C426 C 0.59649 0.74066 0.89855
 C427 C 0.54911 0.74833 0.86543
 C428 C 0.53426 0.76433 0.84689
 H429 H 0.53148 0.69281 0.89184
 H430 H 0.56121 0.66204 0.93147
 H431 H 0.63628 0.73228 0.92909
 H432 H 0.60631 0.76270 0.88952
 C433 C 0.43336 0.72999 0.11217
 C434 C 0.40376 0.74082 0.10157
 C435 C 0.38672 0.72338 0.07900
 C436 C 0.39909 0.69483 0.06671
 C437 C 0.42878 0.68399 0.07771
 C438 C 0.44581 0.70152 0.10029
 C439 C 0.45116 0.74856 0.13468
 C440 C 0.46601 0.76460 0.15321
 H441 H 0.39396 0.76286 0.11058
 H442 H 0.36395 0.73238 0.07105
 H443 H 0.43897 0.66214 0.06870
 H444 H 0.46874 0.69298 0.10830
 C445 C 0.56687 0.27035 0.11213
 C446 C 0.55437 0.29879 0.10024
 C447 C 0.57132 0.31626 0.07759
 C448 C 0.60097 0.30540 0.06653
 C449 C 0.61338 0.27688 0.07882
 C450 C 0.59642 0.25950 0.10146
 C451 C 0.54914 0.25183 0.13471
 C452 C 0.53435 0.23584 0.15329
 H453 H 0.53146 0.30734 0.10831
 H454 H 0.56110 0.33810 0.06858
 H455 H 0.63613 0.26786 0.07083
 H456 H 0.60626 0.23747 0.11047
 C457 C 0.26946 0.11186 0.56743
 C458 C 0.29783 0.09999 0.55477
 C459 C 0.31532 0.07722 0.57153
 C460 C 0.30454 0.06601 0.60115
 C461 C 0.27607 0.07828 0.61374
 C462 C 0.25868 0.10104 0.59696
 C463 C 0.25091 0.13456 0.54988
 C464 C 0.23490 0.15321 0.53520
 H465 H 0.30632 0.10817 0.53187
 H466 H 0.33711 0.06823 0.56118
 H467 H 0.26712 0.07018 0.63647
 H468 H 0.23670 0.11004 0.60693
 C469 C 0.73040 0.11130 0.43205
 C470 C 0.74157 0.09994 0.40289
 C471 C 0.72420 0.07717 0.38606
 C472 C 0.69526 0.06533 0.39819
 C473 C 0.68413 0.07720 0.42753
 C474 C 0.70164 0.09997 0.44431
 C475 C 0.74892 0.13404 0.44964
 C476 C 0.76491 0.15273 0.46434
 H477 H 0.76385 0.10852 0.39324
 H478 H 0.73364 0.06877 0.36362
 H479 H 0.66204 0.06877 0.43772
 H480 H 0.69283 0.10859 0.46694
 C481 C 0.73041 0.88804 0.56742
 C482 C 0.74117 0.89887 0.59696
 C483 C 0.72374 0.92161 0.61375
 C484 C 0.69526 0.93384 0.60117
 C485 C 0.68448 0.92261 0.57153
 C486 C 0.70200 0.89987 0.55476
 C487 C 0.74899 0.86539 0.54985
 C488 C 0.76504 0.84678 0.53515
 H489 H 0.76317 0.88992 0.60693
 H490 H 0.73269 0.92973 0.63649
 H491 H 0.66268 0.93157 0.56119
 H492 H 0.69352 0.89168 0.53185
 C493 C 0.26976 0.88794 0.43261
 C494 C 0.29812 0.89987 0.44529
 C495 C 0.31557 0.92269 0.42854
 C496 C 0.30477 0.93388 0.39891
 C497 C 0.27633 0.92154 0.38631
 C498 C 0.25897 0.89874 0.40307
 C499 C 0.25125 0.86519 0.45015
 C500 C 0.23527 0.84651 0.46483
 H501 H 0.30663 0.89171 0.46819
 H502 H 0.33734 0.93173 0.43889
 H503 H 0.26736 0.92963 0.36357
 H504 H 0.23700 0.88969 0.39309
 C505 C 0.11169 0.43261 0.73032
 C506 C 0.09992 0.44515 0.70184
 C507 C 0.07724 0.42830 0.68430
 C508 C 0.06601 0.39869 0.69512
 C509 C 0.07818 0.38622 0.72369
 C510 C 0.10085 0.40310 0.74114
 C511 C 0.13430 0.45027 0.74891
 C512 C 0.15288 0.46504 0.76494
 H513 H 0.10811 0.46803 0.69331
 H514 H 0.06833 0.43856 0.66243
 H515 H 0.07006 0.36351 0.73268
 H516 H 0.10977 0.39322 0.76320
 C517 C 0.11207 0.56714 0.26995
 C518 C 0.10024 0.55458 0.29840
 C519 C 0.07752 0.57142 0.31586
 C520 C 0.06632 0.60102 0.30499
 C521 C 0.07855 0.61349 0.27646
 C522 C 0.10127 0.59663 0.25908
 C523 C 0.13472 0.54950 0.25143
 C524 C 0.15332 0.53474 0.23544
 H525 H 0.10842 0.53171 0.30695
 H526 H 0.06856 0.56117 0.33771
 H527 H 0.07045 0.63620 0.26744
 H528 H 0.11024 0.60651 0.23704
 C529 C 0.88783 0.43267 0.26988
 C530 C 0.89965 0.44518 0.29836
 C531 C 0.92238 0.42832 0.31580
 C532 C 0.93359 0.39875 0.30487
 C533 C 0.92137 0.38632 0.27630
 C534 C 0.89864 0.40319 0.25895
 C535 C 0.86518 0.45034 0.25139
 C536 C 0.84657 0.46512 0.23543
 H537 H 0.89147 0.46804 0.30696
 H538 H 0.93134 0.43855 0.33767
 H539 H 0.92948 0.36363 0.26724
 H540 H 0.88968 0.39335 0.23689
 C541 C 0.88787 0.56726 0.73004
 C542 C 0.89868 0.59677 0.74091
 C543 C 0.92139 0.61364 0.72352
 C544 C 0.93361 0.60116 0.69498
 C545 C 0.92240 0.57156 0.68411
 C546 C 0.89969 0.55471 0.70159
 C547 C 0.86524 0.54961 0.74857
 C548 C 0.84665 0.53484 0.76456
 H549 H 0.88973 0.60665 0.76295
 H550 H 0.92950 0.63635 0.73255
 H551 H 0.93135 0.56129 0.66226
 H552 H 0.89151 0.53183 0.69303
 C553 C 0.73017 0.56711 0.88872
 C554 C 0.70137 0.55495 0.90007
 C555 C 0.68390 0.57182 0.92283
 C556 C 0.69507 0.60117 0.93466
 C557 C 0.72407 0.61318 0.92282
 C558 C 0.74140 0.59627 0.90008
 C559 C 0.74862 0.54947 0.86591
 C560 C 0.76455 0.53476 0.84715
 H561 H 0.69248 0.53235 0.89147
 H562 H 0.66176 0.56170 0.93124
 H563 H 0.73357 0.63562 0.93119
 H564 H 0.76371 0.60587 0.89149
 C565 C 0.26958 0.43284 0.88899
 C566 C 0.29839 0.44503 0.90031
 C567 C 0.31594 0.42817 0.92299
 C568 C 0.30484 0.39879 0.93480
 C569 C 0.27583 0.38674 0.92300
 C570 C 0.25841 0.40366 0.90032
 C571 C 0.25105 0.45048 0.86624
 C572 C 0.23506 0.46519 0.84753
 H573 H 0.30722 0.46766 0.89173
 H574 H 0.33808 0.43832 0.93138
 H575 H 0.26639 0.36429 0.93135
 H576 H 0.23610 0.39403 0.89175
 C577 C 0.26991 0.56706 0.11143
 C578 C 0.29871 0.55492 0.10007
 C579 C 0.31620 0.57180 0.07736
 C580 C 0.30505 0.60116 0.06556
 C581 C 0.27606 0.61317 0.07741
 C582 C 0.25871 0.59623 0.10012
 C583 C 0.25144 0.54939 0.13420
 C584 C 0.23549 0.53466 0.15292
 H585 H 0.30757 0.53230 0.10863
 H586 H 0.33833 0.56169 0.06893
 H587 H 0.26659 0.63561 0.06907
 H588 H 0.23640 0.60583 0.10872
 C589 C 0.73002 0.43300 0.11130
 C590 C 0.74124 0.40385 0.09993
 C591 C 0.72389 0.38695 0.07717
 C592 C 0.69490 0.39897 0.06533
 C593 C 0.68375 0.42832 0.07718
 C594 C 0.70123 0.44517 0.09994
 C595 C 0.74848 0.45062 0.13412
 C596 C 0.76442 0.46533 0.15288
 H597 H 0.76354 0.39424 0.10853
 H598 H 0.73337 0.36452 0.06880
 H599 H 0.66162 0.43844 0.06876
 H600 H 0.69236 0.46777 0.10855
 C601 C 0.88909 0.73011 0.56750
 C602 C 0.90057 0.74134 0.59661
 C603 C 0.92333 0.72397 0.61346
 C604 C 0.93506 0.69494 0.60143
 C605 C 0.92311 0.68377 0.57212
 C606 C 0.90034 0.70127 0.55532
 C607 C 0.86628 0.74860 0.54991
 C608 C 0.84753 0.76455 0.53521
 H609 H 0.89207 0.76368 0.60623
 H610 H 0.93179 0.73347 0.63587
 H611 H 0.93144 0.66161 0.56199
 H612 H 0.89165 0.69239 0.53275
 C613 C 0.88896 0.26957 0.43210
 C614 C 0.90022 0.29839 0.44434
 C615 C 0.92298 0.31593 0.42758
 C616 C 0.93493 0.30482 0.39826
 C617 C 0.92319 0.27580 0.38617
 C618 C 0.90043 0.25839 0.40298
 C619 C 0.86614 0.25104 0.44965
 C620 C 0.84739 0.23507 0.46433
 H621 H 0.89153 0.30723 0.46692
 H622 H 0.93131 0.33808 0.43775
 H623 H 0.93165 0.26634 0.36376
 H624 H 0.89192 0.23606 0.39332
 C625 C 0.11073 0.26976 0.56751
 C626 C 0.09947 0.29859 0.55534
 C627 C 0.07670 0.31609 0.57214
 C628 C 0.06474 0.30491 0.60143
 C629 C 0.07648 0.27588 0.61345
 C630 C 0.09924 0.25852 0.59660
 C631 C 0.13356 0.25129 0.54992
 C632 C 0.15233 0.23536 0.53523
 H633 H 0.10817 0.30748 0.53278
 H634 H 0.06837 0.33825 0.56201
 H635 H 0.06801 0.26638 0.63584
 H636 H 0.10775 0.23619 0.60621
 C637 C 0.11114 0.72987 0.43246
 C638 C 0.09983 0.70106 0.44465
 C639 C 0.07702 0.68359 0.42785
 C640 C 0.06509 0.69477 0.39855
 C641 C 0.07689 0.72377 0.38651
 C642 C 0.09969 0.74111 0.40336
 C643 C 0.13399 0.74832 0.45005
 C644 C 0.15277 0.76424 0.46475
 H645 H 0.10850 0.69218 0.46722
 H646 H 0.06865 0.66145 0.43799
 H647 H 0.06844 0.73327 0.36411
 H648 H 0.10825 0.76343 0.39375
 C649 C 0.56654 0.88850 0.73053
 C650 C 0.55409 0.90030 0.70201
 C651 C 0.57099 0.92303 0.68456
 C652 C 0.60056 0.93430 0.69550
 C653 C 0.61290 0.92214 0.72413
 C654 C 0.59599 0.89942 0.74149
 C655 C 0.54889 0.86569 0.74896
 C656 C 0.53415 0.84692 0.76485
 H657 H 0.53128 0.89206 0.69335
 H658 H 0.56081 0.93192 0.66265
 H659 H 0.63557 0.93029 0.73322
 H660 H 0.60581 0.89049 0.76357
 C661 C 0.43367 0.88874 0.26961
 C662 C 0.44609 0.90062 0.29812
 C663 C 0.42913 0.92330 0.31557
 C664 C 0.39952 0.93444 0.30465
 C665 C 0.38720 0.92220 0.27603
 C666 C 0.40418 0.89953 0.25867
 C667 C 0.45138 0.86599 0.25117
 C668 C 0.46614 0.84726 0.23527
 H669 H 0.46894 0.89248 0.30678
 H670 H 0.43929 0.93226 0.33748
 H671 H 0.36450 0.93025 0.26694
 H672 H 0.39438 0.89054 0.23659
 C673 C 0.56696 0.11190 0.26975
 C674 C 0.59645 0.10113 0.25879
 C675 C 0.61345 0.07845 0.27614
 C676 C 0.60116 0.06622 0.30476
 C677 C 0.57156 0.07736 0.31570
 C678 C 0.55458 0.10003 0.29827
 C679 C 0.54921 0.13463 0.25133
 C680 C 0.53441 0.15334 0.23543
 H681 H 0.60622 0.11010 0.23672
 H682 H 0.63614 0.07041 0.26704
 H683 H 0.56142 0.06841 0.33761
 H684 H 0.53173 0.10816 0.30693
 C685 C 0.43330 0.11170 0.73027
 C686 C 0.44573 0.09981 0.70178
 C687 C 0.42882 0.07702 0.68439
 C688 C 0.39927 0.06579 0.69537
 C689 C 0.38694 0.07804 0.72397
 C690 C 0.40386 0.10083 0.74126
 C691 C 0.45096 0.13455 0.74864
 C692 C 0.46571 0.15335 0.76448
 H693 H 0.46854 0.10802 0.69309
 H694 H 0.43899 0.06806 0.66250
 H695 H 0.36427 0.06993 0.73308
 H696 H 0.39406 0.10982 0.76332
 C697 C 0.56729 0.73021 0.11133
 C698 C 0.59682 0.74104 0.10050
 C699 C 0.61366 0.72364 0.07775
 C700 C 0.60119 0.69510 0.06548
 C701 C 0.57156 0.68429 0.07666
 C702 C 0.55472 0.70178 0.09942
 C703 C 0.54970 0.74873 0.13412
 C704 C 0.53502 0.76470 0.15287
 H705 H 0.60674 0.76305 0.10950
 H706 H 0.63639 0.73264 0.06968
 H707 H 0.56128 0.66245 0.06769
 H708 H 0.53184 0.69322 0.10759
 C709 C 0.43302 0.27005 0.11139
 C710 C 0.44553 0.29849 0.09947
 C711 C 0.42866 0.31592 0.07669
 C712 C 0.39905 0.30503 0.06549
 C713 C 0.38664 0.27648 0.07777
 C714 C 0.40352 0.25915 0.10054
 C715 C 0.45064 0.25161 0.13422
 C716 C 0.46536 0.23570 0.15299
 H717 H 0.46839 0.30711 0.10765
 H718 H 0.43889 0.33777 0.06771
 H719 H 0.36394 0.26742 0.06969
 H720 H 0.39365 0.23712 0.10955
 C721 C 0.56697 0.27030 0.88845
 C722 C 0.55444 0.29871 0.90041
 C723 C 0.57129 0.31612 0.92323
 C724 C 0.60090 0.30525 0.93442
 C725 C 0.61333 0.27673 0.92209
 C726 C 0.59646 0.25941 0.89928
 C727 C 0.54935 0.25187 0.86561
 C728 C 0.53465 0.23595 0.84682
 H729 H 0.53158 0.30731 0.89225
 H730 H 0.56105 0.33795 0.93225
 H731 H 0.63604 0.26769 0.93016
 H732 H 0.60635 0.23741 0.89024
 C733 C 0.43293 0.72996 0.88879
 C734 C 0.40342 0.74083 0.89962
 C735 C 0.38655 0.72348 0.92239
 C736 C 0.39897 0.69495 0.93467
 C737 C 0.42858 0.68409 0.92348
 C738 C 0.44545 0.70153 0.90071
 C739 C 0.45055 0.74843 0.86598
 C740 C 0.46525 0.76436 0.84723
 H741 H 0.39354 0.76284 0.89061
 H742 H 0.36384 0.73251 0.93046
 H743 H 0.43882 0.66225 0.93247
 H744 H 0.46831 0.69294 0.89255
 C745 C 0.73104 0.88864 0.43366
 C746 C 0.70257 0.90054 0.44610
 C747 C 0.68515 0.92326 0.42916
 C748 C 0.69606 0.93441 0.39955
 C749 C 0.72464 0.92215 0.38720
 C750 C 0.74197 0.89944 0.40416
 C751 C 0.74944 0.86586 0.45136
 C752 C 0.76530 0.84710 0.46614
 H753 H 0.69393 0.89240 0.46895
 H754 H 0.66328 0.93223 0.43935
 H755 H 0.73371 0.93020 0.36450
 H756 H 0.76401 0.89043 0.39433
 C757 C 0.26950 0.88813 0.56636
 C758 C 0.29798 0.90004 0.55394
 C759 C 0.31540 0.92275 0.57090
 C760 C 0.30448 0.93389 0.60052
 C761 C 0.27590 0.92162 0.61285
 C762 C 0.25856 0.89891 0.59587
 C763 C 0.25108 0.86538 0.54863
 C764 C 0.23519 0.84665 0.53384
 H765 H 0.30662 0.89190 0.53107
 H766 H 0.33728 0.93173 0.56073
 H767 H 0.26682 0.92967 0.63556
 H768 H 0.23651 0.88990 0.60567
 C769 C 0.26929 0.11166 0.43371
 C770 C 0.25841 0.10085 0.40419
 C771 C 0.27582 0.07820 0.38723
 C772 C 0.30441 0.06600 0.39959
 C773 C 0.31528 0.07717 0.42923
 C774 C 0.29779 0.09983 0.44617
 C775 C 0.25080 0.13437 0.45142
 C776 C 0.23486 0.15306 0.46620
 H777 H 0.23635 0.10980 0.39435
 H778 H 0.26678 0.07014 0.36450
 H779 H 0.33717 0.06825 0.43942
 H780 H 0.30640 0.10798 0.46905
 C781 C 0.73050 0.11138 0.56596
 C782 C 0.74132 0.10083 0.59559
 C783 C 0.72393 0.07823 0.61264
 C784 C 0.69541 0.06583 0.60026
 C785 C 0.68461 0.07674 0.57051
 C786 C 0.70209 0.09935 0.55347
 C787 C 0.74898 0.13404 0.54818
 C788 C 0.76492 0.15270 0.53336
 H789 H 0.76332 0.10993 0.60544
 H790 H 0.73291 0.07036 0.63545
 H791 H 0.66279 0.06766 0.56030
 H792 H 0.69354 0.10729 0.53051
 C793 C 0.88843 0.56651 0.26990
 C794 C 0.89915 0.59607 0.25906
 C795 C 0.92187 0.61301 0.27642
 C796 C 0.93423 0.60059 0.30493
 C797 C 0.92315 0.57093 0.31577
 C798 C 0.90042 0.55400 0.29832
 C799 C 0.86566 0.54884 0.25143
 C800 C 0.84692 0.53412 0.23547
 H801 H 0.89009 0.60595 0.23707
 H802 H 0.92986 0.63576 0.26741
 H803 H 0.93220 0.56069 0.33759
 H804 H 0.89234 0.53109 0.30688
 C805 C 0.88831 0.43335 0.73010
 C806 C 0.90031 0.44585 0.70168
 C807 C 0.92297 0.42888 0.68421
 C808 C 0.93398 0.39919 0.69502
 C809 C 0.92161 0.38678 0.72353
 C810 C 0.89895 0.40376 0.74091
 C811 C 0.86560 0.45107 0.74860
 C812 C 0.84691 0.46582 0.76456
 H813 H 0.89228 0.46878 0.69313
 H814 H 0.93203 0.43912 0.66239
 H815 H 0.92955 0.36401 0.73253
 H816 H 0.88988 0.39389 0.76291
 C817 C 0.11125 0.56648 0.73042
 C818 C 0.09930 0.55396 0.70198
 C819 C 0.07665 0.57091 0.68446
 C820 C 0.06563 0.60062 0.69524
 C821 C 0.07795 0.61304 0.72378
 C822 C 0.10059 0.59608 0.74121
 C823 C 0.13394 0.54879 0.74896
 C824 C 0.15261 0.53405 0.76497
 H825 H 0.10733 0.53103 0.69345
 H826 H 0.06763 0.56067 0.66262
 H827 H 0.07001 0.63582 0.73276
 H828 H 0.10962 0.60597 0.76322
 C829 C 0.11147 0.43333 0.26978
 C830 C 0.09949 0.44584 0.29821
 C831 C 0.07677 0.42890 0.31564
 C832 C 0.06569 0.39923 0.30479
 C833 C 0.07804 0.38682 0.27626
 C834 C 0.10076 0.40377 0.25892
 C835 C 0.13424 0.45101 0.25132
 C836 C 0.15298 0.46574 0.23538
 H837 H 0.10757 0.46874 0.30680
 H838 H 0.06773 0.43913 0.33747
 H839 H 0.07006 0.36407 0.26723
 H840 H 0.10981 0.39390 0.23691
   
