data_POSCAR
  _audit_creation_date              2014-09-24
  _audit_creation_method            'ToBaCCo'
  _symmetry_space_group_name_H-M    'P1'
  _symmetry_Int_Tables_number       1
  _symmetry_cell_setting            triclinic
  loop_
  _symmetry_equiv_pos_as_xyz
 x,y,z
_cell_length_a 25.1064
_cell_length_b 25.1187
_cell_length_c 24.8840
_cell_angle_alpha 88.605400
_cell_angle_beta 90.156100
_cell_angle_gamma 120.589700
loop_
  _atom_site_label
  _atom_site_type_symbol
  _atom_site_fract_x
  _atom_site_fract_y
  _atom_site_fract_z
C1 C 0.53560 0.09338 0.06947
 H2 H 0.57877 0.09407 0.06478
 C3 C 0.53359 0.13814 0.09981
 H4 H 0.57600 0.17327 0.11766
 C5 C 0.42950 0.04854 0.04845
 H6 H 0.38934 0.01422 0.02748
 C7 C 0.42507 0.09195 0.07942
 H8 H 0.38076 0.08910 0.08277
 N9 N 0.48429 0.05015 0.04408
 C10 C 0.51152 -0.10474 0.01590
 H11 H 0.51059 -0.10575 -0.02755
 C12 C 0.51443 -0.15105 0.04563
 H13 H 0.51560 -0.18768 0.02461
 C14 C 0.50781 -0.05735 0.09586
 H15 H 0.50424 -0.02132 0.11534
 C16 C 0.51073 -0.10266 0.12714
 H17 H 0.51063 -0.10005 0.17049
 Zn18 Zn 0.49688 -0.00218 -0.00095
 N19 N 0.50792 -0.05935 0.04129
 C20 C 0.61774 0.04161 -0.04561
 N21 N 0.56858 0.05032 -0.04257
 C22 C 0.57103 0.10150 -0.06484
 C23 C 0.62530 0.14779 -0.08949
 C24 C 0.67265 0.08628 -0.07111
 C25 C 0.37356 -0.09021 -0.02280
 C26 C 0.32278 -0.12821 -0.05447
 C27 C 0.38598 -0.07851 -0.13350
 C28 C 0.43524 -0.04117 -0.10018
 N29 N 0.42831 -0.04776 -0.04593
 H30 H 0.61517 0.00108 -0.02696
 H31 H 0.53142 0.10744 -0.06142
 H32 H 0.62711 0.18910 -0.10568
 H33 H 0.71203 0.07968 -0.07233
 H34 H 0.36978 -0.09559 0.02055
 H35 H 0.28147 -0.16283 -0.03354
 H36 H 0.39353 -0.07023 -0.17638
 H37 H 0.47937 -0.00741 -0.11784
 C38 C 0.51307 -0.15098 0.10211
 C39 C 0.47792 0.13839 0.10504
 C40 C 0.32804 -0.12392 -0.11131
 C41 C 0.67716 0.14080 -0.09205
 C42 C -0.09706 0.46350 0.60759
 H43 H -0.09868 0.42006 0.61489
 C44 C -0.14333 0.46495 0.57769
 H45 H -0.18020 0.42252 0.56139
 C46 C -0.04729 0.57156 0.62061
 H47 H -0.01060 0.61273 0.63844
 C48 C -0.09217 0.57527 0.59003
 H49 H -0.08956 0.61941 0.58424
 N50 N -0.05045 0.51619 0.62857
 C51 C 0.10386 0.48608 0.65485
 H52 H 0.10881 0.49088 0.69795
 C53 C 0.14655 0.47889 0.62481
 H54 H 0.18442 0.47839 0.64525
 C55 C 0.05015 0.48433 0.57585
 H56 H 0.01310 0.48750 0.55683
 C57 C 0.09182 0.47711 0.54424
 H58 H 0.08548 0.47360 0.50117
 Zn59 Zn 0.00577 0.50645 0.67253
 N60 N 0.05712 0.48908 0.63006
 C61 C -0.03602 0.38993 0.72711
 N62 N -0.04251 0.44034 0.72159
 C63 C -0.08701 0.44418 0.74916
 C64 C -0.12698 0.39640 0.78434
 C65 C -0.07484 0.34110 0.76230
 C66 C 0.09801 0.63141 0.68151
 C67 C 0.13904 0.68552 0.70782
 C68 C 0.09743 0.63153 0.79280
 C69 C 0.05696 0.57861 0.76487
 N70 N 0.05769 0.57953 0.71020
 H71 H -0.00112 0.38724 0.70405
 H72 H -0.09190 0.48428 0.74315
 H73 H -0.16292 0.40015 0.80468
 H74 H -0.06861 0.30162 0.76661
 H75 H 0.09852 0.63057 0.63807
 H76 H 0.17033 0.72645 0.68417
 H77 H 0.09694 0.62906 0.83628
 H78 H 0.02588 0.53650 0.78704
 C79 C 0.14151 0.47536 0.56856
 C80 C -0.14129 0.52129 0.56886
 C81 C 0.13929 0.68608 0.76430
 C82 C -0.12111 0.34394 0.79159
 C83 C 0.55597 0.45220 0.40649
 H84 H 0.51564 0.40734 0.39971
 C85 C 0.60393 0.45670 0.43795
 H86 H 0.60020 0.41470 0.45426
 C87 C 0.61078 0.56052 0.38948
 H88 H 0.61350 0.60064 0.36972
 C89 C 0.65972 0.56726 0.42144
 H90 H 0.69930 0.61304 0.42676
 N91 N 0.56021 0.50353 0.38281
 C92 C 0.37253 0.46274 0.35302
 H93 H 0.37200 0.46512 0.30956
 C94 C 0.32345 0.45872 0.38282
 H95 H 0.28458 0.45652 0.36184
 C96 C 0.42540 0.46571 0.43293
 H97 H 0.46613 0.47071 0.45241
 C98 C 0.37733 0.46150 0.46423
 H99 H 0.38181 0.46304 0.50754
 Zn100 Zn 0.49419 0.48868 0.33695
 N101 N 0.42275 0.46747 0.37837
 C102 C 0.42680 0.37274 0.28304
 N103 N 0.48256 0.42434 0.29181
 C104 C 0.53558 0.43191 0.26995
 C105 C 0.53422 0.38639 0.23832
 C106 C 0.42317 0.32617 0.25063
 C107 C 0.51483 0.60853 0.31925
 C108 C 0.51825 0.65763 0.28870
 C109 C 0.51890 0.60620 0.20814
 C110 C 0.51516 0.55803 0.24016
 N111 N 0.51229 0.55957 0.29463
 H112 H 0.38534 0.36745 0.30137
 H113 H 0.57925 0.47333 0.27779
 H114 H 0.57710 0.39326 0.22152
 H115 H 0.37875 0.28503 0.24411
 H116 H 0.51166 0.60821 0.36262
 H117 H 0.51905 0.69562 0.30905
 H118 H 0.51871 0.60283 0.16484
 H119 H 0.51191 0.51826 0.22124
 C120 C 0.32631 0.45991 0.43925
 C121 C 0.65683 0.51474 0.44596
 C122 C 0.51880 0.65611 0.23228
 C123 C 0.47760 0.33262 0.22839
 C124 C 0.22270 0.44621 0.55603
 C125 C 0.18981 0.47340 0.53566
 C126 C 0.20763 0.50265 0.48431
 C127 C 0.25192 0.49847 0.45291
 C128 C 0.27966 0.46494 0.47196
 C129 C 0.26634 0.44214 0.52512
 C130 C 0.24724 0.37917 0.54742
 C131 C 0.19942 0.38363 0.58130
 H132 H 0.18712 0.52834 0.46800
 H133 H 0.26399 0.52125 0.41366
 H134 H 0.28431 0.37891 0.57174
 H135 H 0.22652 0.34297 0.51658
 H136 H 0.20903 0.38595 0.62507
 H137 H 0.15088 0.35003 0.57018
 C138 C 0.53915 0.76533 0.11566
 C139 C 0.51109 0.79742 0.13435
 C140 C 0.47812 0.77644 0.18363
 C141 C 0.47995 0.73015 0.21530
 C142 C 0.51470 0.70349 0.19854
 C143 C 0.54085 0.71967 0.14681
 C144 C 0.60493 0.73936 0.12837
 C145 C 0.60308 0.78942 0.09423
 H146 H 0.45168 0.79631 0.19831
 H147 H 0.45479 0.71599 0.25316
 H148 H 0.60636 0.70354 0.10409
 H149 H 0.63911 0.75791 0.16140
 H150 H 0.60347 0.78235 0.05035
 H151 H 0.63618 0.83710 0.10740
 C152 C 0.28931 0.82974 0.80194
 C153 C 0.28000 0.83752 0.85648
 C154 C 0.21776 0.80212 0.87557
 C155 C 0.17094 0.75574 0.84443
 C156 C 0.18427 0.74249 0.79320
 C157 C 0.24298 0.78349 0.77159
 C158 C 0.28674 0.76993 0.74324
 C159 C 0.33761 0.81999 0.77625
 H160 H 0.20412 0.80903 0.91471
 H161 H 0.12488 0.72861 0.86164
 H162 H 0.29080 0.78224 0.69964
 H163 H 0.27831 0.72281 0.75308
 H164 H 0.37114 0.86057 0.75118
 H165 H 0.35886 0.80199 0.80524
 C166 C 0.74703 0.48063 0.54939
 C167 C 0.80900 0.52299 0.53849
 C168 C 0.82112 0.56613 0.49582
 C169 C 0.77189 0.56432 0.46584
 C170 C 0.70911 0.51964 0.47806
 C171 C 0.69989 0.47898 0.52109
 C172 C 0.65168 0.42750 0.55559
 C173 C 0.70537 0.42978 0.58747
 H174 H 0.86840 0.60017 0.48481
 H175 H 0.78334 0.59691 0.43248
 H176 H 0.62446 0.38365 0.53385
 H177 H 0.62394 0.44218 0.57904
 H178 H 0.70896 0.38777 0.58335
 H179 H 0.70874 0.44607 0.62915
 C180 C 0.52313 0.22299 0.17230
 C181 C 0.47677 0.18850 0.13518
 C182 C 0.43285 0.20696 0.12503
 C183 C 0.43255 0.25375 0.15517
 C184 C 0.47675 0.28393 0.19547
 C185 C 0.52335 0.26948 0.20120
 C186 C 0.54573 0.25298 0.25088
 C187 C 0.54530 0.20174 0.21935
 H188 H 0.39832 0.18530 0.09431
 H189 H 0.39762 0.26595 0.14721
 H190 H 0.51105 0.23559 0.28424
 H191 H 0.59301 0.29005 0.26180
 H192 H 0.51029 0.15452 0.23427
 H193 H 0.59242 0.20929 0.21254
 C194 C -0.22988 0.18155 0.84704
 C195 C -0.26362 0.19169 0.88593
 C196 C -0.24045 0.25298 0.90195
 C197 C -0.19067 0.30270 0.87399
 C198 C -0.16373 0.29226 0.82867
 C199 C -0.18133 0.23067 0.81886
 C200 C -0.19883 0.19634 0.76757
 C201 C -0.25188 0.14262 0.79849
 H202 H -0.26304 0.26269 0.93409
 H203 H -0.17597 0.34925 0.88605
 H204 H -0.16317 0.18587 0.75374
 H205 H -0.21443 0.21786 0.73649
 H206 H -0.24660 0.10138 0.80254
 H207 H -0.29830 0.13288 0.78535
   
