data_POSCAR
  _audit_creation_date              2014-09-24
  _audit_creation_method            'ToBaCCo'
  _symmetry_space_group_name_H-M    'P1'
  _symmetry_Int_Tables_number       1
  _symmetry_cell_setting            triclinic
  loop_
  _symmetry_equiv_pos_as_xyz
 x,y,z
_cell_length_a 36.9346
_cell_length_b 35.4468
_cell_length_c 35.6002
_cell_angle_alpha 90.007800
_cell_angle_beta 90.320500
_cell_angle_gamma 90.078700
loop_
  _atom_site_label
  _atom_site_type_symbol
  _atom_site_fract_x
  _atom_site_fract_y
  _atom_site_fract_z
N1 N 0.18112 1.25298 0.15674
 N2 N 0.16062 1.25605 0.18659
 C3 C 0.13596 1.28338 0.18079
 C4 C 0.14108 1.29842 0.14511
 C5 C 0.17020 1.27820 0.13085
 H6 H 0.11550 1.29102 0.20097
 H7 H 0.18266 1.28120 0.10364
 Cu8 Cu 0.16720 1.22324 0.22976
 Cu9 Cu 0.22008 1.21611 0.15334
 Cu10 Cu 0.22527 1.15037 0.22494
 N11 N 0.16552 1.18187 0.26548
 N12 N 0.18864 1.15384 0.26382
 C13 C 0.18090 1.12870 0.29088
 C14 C 0.15093 1.14136 0.31068
 C15 C 0.14207 1.17546 0.29358
 H16 H 0.19544 1.10257 0.29475
 H17 H 0.11990 1.19407 0.30033
 N18 N 0.25961 1.15170 0.18288
 N19 N 0.25753 1.17653 0.15538
 C20 C 0.28370 1.16912 0.13023
 C21 C 0.30322 1.13802 0.14245
 C22 C 0.28710 1.12786 0.17600
 H23 H 0.28797 1.18504 0.10477
 H24 H 0.29417 1.10418 0.19366
 H25 H 0.19256 1.17778 0.18626
 H26 H 0.22834 1.20683 0.20998
 N27 N 0.81723 0.74211 0.16057
 N28 N 0.84091 0.74124 0.18826
 C29 C 0.86395 0.71235 0.18259
 C30 C 0.85408 0.69405 0.14963
 C31 C 0.82418 0.71374 0.13661
 H32 H 0.88688 0.70588 0.20043
 H33 H 0.80977 0.70916 0.11050
 Cu34 Cu 0.84169 0.78054 0.22657
 Cu35 Cu 0.78178 0.78234 0.15482
 Cu36 Cu 0.78532 0.85463 0.22005
 N37 N 0.84166 0.82038 0.26436
 N38 N 0.82150 0.85053 0.25967
 C39 C 0.82981 0.87603 0.28628
 C40 C 0.85639 0.86105 0.30952
 C41 C 0.86293 0.82534 0.29491
 H42 H 0.81701 0.90332 0.28867
 H43 H 0.88327 0.80552 0.30430
 N44 N 0.75024 0.85347 0.17828
 N45 N 0.74839 0.82567 0.15375
 C46 C 0.72151 0.83296 0.12906
 C47 C 0.70553 0.86705 0.13851
 C48 C 0.72460 0.87911 0.16994
 H49 H 0.71431 0.81482 0.10581
 H50 H 0.72022 0.90468 0.18573
 H51 H 0.81320 0.82269 0.18104
 H52 H 0.77950 0.79734 0.21081
 N53 N 0.80884 1.26474 -0.16130
 N54 N 0.83082 1.26708 -0.19006
 C55 C 0.85604 1.29363 -0.18304
 C56 C 0.84960 1.30888 -0.14781
 C57 C 0.81925 1.28979 -0.13498
 H58 H 0.87805 1.30036 -0.20178
 H59 H 0.80599 1.29324 -0.10823
 Cu60 Cu 0.82576 1.23375 -0.23297
 Cu61 Cu 0.76978 1.22778 -0.15918
 Cu62 Cu 0.76911 1.15948 -0.22873
 N63 N 0.82980 1.19163 -0.26742
 N64 N 0.80775 1.16261 -0.26573
 C65 C 0.81779 1.13687 -0.29142
 C66 C 0.84807 1.15034 -0.31031
 C67 C 0.85466 1.18543 -0.29415
 H68 H 0.80443 1.11000 -0.29515
 H69 H 0.87645 1.20478 -0.30030
 N70 N 0.73252 1.16165 -0.18862
 N71 N 0.73273 1.18780 -0.16224
 C72 C 0.70544 1.18104 -0.13828
 C73 C 0.68710 1.14895 -0.14995
 C74 C 0.70508 1.13750 -0.18207
 H75 H 0.70011 1.19754 -0.11341
 H76 H 0.69900 1.11309 -0.19915
 H77 H 0.79936 1.18890 -0.18955
 H78 H 0.76415 1.21617 -0.21602
 N79 N 0.19305 0.72788 -0.16202
 N80 N 0.16684 0.72992 -0.18703
 C81 C 0.14071 0.70507 -0.17797
 C82 C 0.15112 0.68630 -0.14543
 C83 C 0.18469 0.70150 -0.13634
 H84 H 0.11584 0.70144 -0.19371
 H85 H 0.20134 0.69503 -0.11212
 Cu86 Cu 0.16882 0.76589 -0.22832
 Cu87 Cu 0.23484 0.76152 -0.16358
 Cu88 Cu 0.21291 0.84593 -0.20675
 N89 N 0.16468 0.81054 -0.25971
 N90 N 0.18043 0.84228 -0.24980
 C91 C 0.16997 0.86984 -0.27335
 C92 C 0.14668 0.85455 -0.30011
 C93 C 0.14431 0.81655 -0.29063
 H94 H 0.17915 0.89872 -0.27116
 H95 H 0.12743 0.79531 -0.30373
 N96 N 0.25482 0.84000 -0.17266
 N97 N 0.26366 0.80763 -0.15683
 C98 C 0.29365 0.81256 -0.13573
 C99 C 0.30446 0.84989 -0.13870
 C100 C 0.27920 0.86636 -0.16243
 H101 H 0.30656 0.79056 -0.11946
 H102 H 0.27837 0.89551 -0.17133
 H103 H 0.19635 0.79960 -0.17565
 H104 H 0.22893 0.79162 -0.21475
 C105 C 0.50030 0.99952 -0.00224
 C106 C -0.00100 0.49851 1.00374
 C107 C 1.00213 0.00210 0.50611
 C108 C 0.07977 0.38446 1.09068
 C109 C 0.10811 0.36587 1.07163
 C110 C 0.12840 0.33777 1.08984
 C111 C 0.12093 0.32718 1.12715
 C112 C 0.09270 0.34591 1.14590
 C113 C 0.07254 0.37410 1.12808
 C114 C 0.05869 0.41423 1.07002
 C115 C 0.02962 0.43409 1.08609
 C116 C 0.01076 0.46140 1.06554
 C117 C 0.02078 0.47057 1.02848
 C118 C 0.04881 0.44942 1.01198
 C119 C 0.06804 0.42215 1.03239
 C120 C 0.11603 0.37521 1.03434
 C121 C 0.09638 0.40266 1.01513
 H122 H 0.13772 0.36097 1.01968
 H123 H 0.10352 0.40875 0.98626
 H124 H 0.14978 0.32407 1.07437
 H125 H 0.08590 0.33914 1.17462
 H126 H -0.01233 0.47449 1.07870
 H127 H 0.05573 0.45440 0.98284
 H128 H 0.05141 0.38735 1.14413
 H129 H 0.02059 0.42862 1.11432
 C130 C -0.08924 0.60714 1.08873
 C131 C -0.07184 0.62651 1.11856
 C132 C -0.09063 0.65417 1.13896
 C133 C -0.12675 0.66303 1.13006
 C134 C -0.14419 0.64288 1.10126
 C135 C -0.12584 0.61528 1.08095
 C136 C -0.06785 0.57890 1.06668
 C137 C -0.08195 0.56009 1.03502
 C138 C -0.06097 0.53430 1.01518
 C139 C -0.02541 0.52536 1.02674
 C140 C -0.01066 0.54582 1.05720
 C141 C -0.03154 0.57196 1.07732
 C142 C -0.03571 0.61841 1.12761
 C143 C -0.01607 0.59158 1.10759
 H144 H -0.02235 0.63310 1.15054
 H145 H 0.01180 0.58638 1.11572
 H146 H -0.07672 0.66939 1.16113
 H147 H -0.17222 0.64839 1.09422
 H148 H -0.07273 0.52209 0.99009
 H149 H 0.01737 0.54132 1.06519
 H150 H -0.14086 0.60078 1.05927
 H151 H -0.10889 0.56541 1.02453
 C152 C -0.08546 0.39136 0.91165
 C153 C -0.11352 0.37169 0.93024
 C154 C -0.13463 0.34513 0.91068
 C155 C -0.12850 0.33769 0.87249
 C156 C -0.10101 0.35768 0.85401
 C157 C -0.07982 0.38415 0.87321
 C158 C -0.06319 0.41906 0.93381
 C159 C -0.03358 0.43880 0.91860
 C160 C -0.01375 0.46435 0.94042
 C161 C -0.02335 0.47195 0.97795
 C162 C -0.05174 0.45060 0.99363
 C163 C -0.07178 0.42486 0.97202
 C164 C -0.12039 0.37856 0.96827
 C165 C -0.10008 0.40469 0.98865
 H166 H -0.14191 0.36356 0.98251
 H167 H -0.10656 0.40905 1.01799
 H168 H -0.15561 0.33006 0.92557
 H169 H -0.09578 0.35310 0.82450
 H170 H 0.00967 0.47738 0.92777
 H171 H -0.05831 0.45426 1.02305
 H172 H -0.05929 0.39870 0.85737
 H173 H -0.02484 0.43447 0.89007
 C174 C 0.09024 0.60544 0.91968
 C175 C 0.07338 0.62545 0.88999
 C176 C 0.09336 0.65148 0.86868
 C177 C 0.13024 0.65792 0.87628
 C178 C 0.14697 0.63740 0.90527
 C179 C 0.12738 0.61152 0.92662
 C180 C 0.06783 0.57837 0.94217
 C181 C 0.08148 0.55875 0.97353
 C182 C 0.05977 0.53340 0.99319
 C183 C 0.02389 0.52575 0.98169
 C184 C 0.00950 0.54749 0.95199
 C185 C 0.03112 0.57309 0.93199
 C186 C 0.03671 0.61935 0.88171
 C187 C 0.01610 0.59358 0.90210
 H188 H 0.02375 0.63460 0.85894
 H189 H -0.01209 0.58972 0.89440
 H190 H 0.07990 0.66699 0.84645
 H191 H 0.17544 0.64109 0.91154
 H192 H 0.07131 0.52029 1.01791
 H193 H -0.01873 0.54410 0.94419
 H194 H 0.14193 0.59650 0.94826
 H195 H 0.10871 0.56294 0.98377
 C196 C 1.09438 0.08315 0.39699
 C197 C 1.08161 0.11827 0.38356
 C198 C 1.10078 0.13778 0.35563
 C199 C 1.13267 0.12273 0.34014
 C200 C 1.14554 0.08815 0.35435
 C201 C 1.12683 0.06876 0.38230
 C202 C 1.07243 0.06263 0.42588
 C203 C 1.08194 0.02692 0.43991
 C204 C 1.05999 0.00836 0.46580
 C205 C 1.02789 0.02480 0.47963
 C206 C 1.01826 0.06049 0.46474
 C207 C 1.04010 0.07935 0.43862
 C208 C 1.04950 0.13355 0.39771
 C209 C 1.02920 0.11452 0.42462
 H210 H 1.03970 0.16052 0.38757
 H211 H 1.00439 0.12743 0.43439
 H212 H 1.09012 0.16440 0.34569
 H213 H 1.17016 0.07552 0.34402
 H214 H 1.06848 -0.01943 0.47419
 H215 H 0.99290 0.07353 0.47242
 H216 H 1.13824 0.04242 0.39175
 H217 H 1.10592 0.01234 0.43078
 C218 C 1.09001 -0.08702 0.61356
 C219 C 1.10577 -0.06717 0.64396
 C220 C 1.12571 -0.08655 0.67144
 C221 C 1.12824 -0.12617 0.67093
 C222 C 1.11102 -0.14592 0.64151
 C223 C 1.09261 -0.12663 0.61295
 C224 C 1.06956 -0.06504 0.58444
 C225 C 1.05816 -0.08057 0.55006
 C226 C 1.03807 -0.05904 0.52449
 C227 C 1.02628 -0.02209 0.53328
 C228 C 1.04148 -0.00568 0.56600
 C229 C 1.06294 -0.02648 0.59111
 C230 C 1.10027 -0.02826 0.64766
 C231 C 1.07843 -0.00856 0.62240
 H232 H 1.11200 -0.01302 0.67116
 H233 H 1.07402 0.02127 0.62718
 H234 H 1.13751 -0.07055 0.69435
 H235 H 1.11221 -0.17637 0.63995
 H236 H 1.03240 -0.07150 0.49738
 H237 H 1.03745 0.02371 0.57223
 H238 H 1.07978 -0.14315 0.59113
 H239 H 1.06548 -0.10892 0.54202
 C240 C 0.91156 -0.08359 0.39882
 C241 C 0.89300 -0.06262 0.37102
 C242 C 0.87326 -0.08126 0.34284
 C243 C 0.87420 -0.12083 0.33961
 C244 C 0.89438 -0.14146 0.36622
 C245 C 0.91224 -0.12318 0.39585
 C246 C 0.93183 -0.06251 0.42870
 C247 C 0.94511 -0.07964 0.46155
 C248 C 0.96551 -0.05885 0.48754
 C249 C 0.97614 -0.02121 0.48007
 C250 C 0.95831 -0.00323 0.44974
 C251 C 0.93623 -0.02325 0.42456
 C252 C 0.89582 -0.02321 0.37031
 C253 C 0.91801 -0.00406 0.39573
 H254 H 0.88195 -0.00706 0.34877
 H255 H 0.92059 0.02629 0.39305
 H256 H 0.85922 -0.06446 0.32196
 H257 H 0.89585 -0.17192 0.36476
 H258 H 0.97232 -0.07253 0.51372
 H259 H 0.96083 0.02672 0.44562
 H260 H 0.92742 -0.14024 0.41553
 H261 H 0.93902 -0.10875 0.46801
 C262 C 0.91237 0.09365 0.60850
 C263 C 0.88095 0.07627 0.62304
 C264 C 0.85946 0.09533 0.64938
 C265 C 0.86866 0.13187 0.66186
 C266 C 0.89937 0.14930 0.64625
 C267 C 0.92079 0.13061 0.62003
 C268 C 0.93537 0.07178 0.58160
 C269 C 0.96835 0.08552 0.56763
 C270 C 0.98926 0.06379 0.54341
 C271 C 0.97784 0.02774 0.53114
 C272 C 0.94533 0.01355 0.54647
 C273 C 0.92416 0.03514 0.57108
 C274 C 0.87126 0.03985 0.61141
 C275 C 0.89228 0.01982 0.58586
 H276 H 0.84708 0.02653 0.62234
 H277 H 0.88365 -0.00832 0.57790
 H278 H 0.83579 0.08114 0.66026
 H279 H 0.90743 0.17751 0.65423
 H280 H 1.01538 0.07499 0.53554
 H281 H 0.93655 -0.01482 0.53998
 H282 H 0.94387 0.14570 0.60926
 H283 H 0.97913 0.11259 0.57581
 C284 C 0.38951 1.07912 0.08576
 C285 C 0.36973 1.10767 0.06696
 C286 C 0.34195 1.12700 0.08563
 C287 C 0.33346 1.11854 0.12312
 C288 C 0.35377 1.09084 0.14190
 C289 C 0.38140 1.07144 0.12361
 C290 C 0.41829 1.05844 0.06451
 C291 C 0.43782 1.02798 0.07982
 C292 C 0.46423 1.00952 0.05886
 C293 C 0.47302 1.02148 0.02226
 C294 C 0.45197 1.05057 0.00625
 C295 C 0.42522 1.06921 0.02700
 C296 C 0.37773 1.11674 0.02962
 C297 C 0.40503 1.09809 0.01016
 H298 H 0.36270 1.13869 0.01521
 H299 H 0.41021 1.10624 -0.01866
 H300 H 0.32669 1.14830 0.07059
 H301 H 0.34852 1.08401 0.17097
 H302 H 0.47730 0.98526 0.07136
 H303 H 0.45635 1.05861 -0.02274
 H304 H 0.39608 1.05066 0.13969
 H305 H 0.43266 1.01739 0.10767
 C306 C 0.60163 1.09186 -0.09011
 C307 C 0.61985 1.07351 -0.11981
 C308 C 0.64709 1.09248 -0.13974
 C309 C 0.65672 1.12973 -0.13056
 C310 C 0.63775 1.14818 -0.10190
 C311 C 0.61056 1.12965 -0.08201
 C312 C 0.57402 1.06999 -0.06828
 C313 C 0.55633 1.08475 -0.03662
 C314 C 0.53201 1.06279 -0.01624
 C315 C 0.52345 1.02563 -0.02730
 C316 C 0.54193 1.01056 -0.05844
 C317 C 0.56673 1.03230 -0.07892
 C318 C 0.61112 1.03618 -0.12914
 C319 C 0.58501 1.01609 -0.10927
 H320 H 0.62489 1.02216 -0.15203
 H321 H 0.57947 0.98719 -0.11743
 H322 H 0.66132 1.07772 -0.16181
 H323 H 0.64387 1.17712 -0.09458
 H324 H 0.52079 1.07485 0.00904
 H325 H 0.53760 0.98132 -0.06619
 H326 H 0.59706 1.14543 -0.06033
 H327 H 0.56164 1.11284 -0.02635
 C328 C 0.39262 0.90623 -0.08172
 C329 C 0.37836 0.92093 -0.11567
 C330 C 0.34990 0.90223 -0.13422
 C331 C 0.33551 0.86859 -0.11980
 C332 C 0.35059 0.85331 -0.08693
 C333 C 0.37873 0.87182 -0.06808
 C334 C 0.42168 0.92818 -0.06174
 C335 C 0.43517 0.91800 -0.02612
 C336 C 0.46106 0.94025 -0.00795
 C337 C 0.47555 0.97272 -0.02510
 C338 C 0.46129 0.98344 -0.06035
 C339 C 0.43474 0.96163 -0.07859
 C340 C 0.39249 0.95424 -0.13087
 C341 C 0.42030 0.97394 -0.11292
 H342 H 0.38182 0.96534 -0.15704
 H343 H 0.43019 0.99965 -0.12579
 H344 H 0.33907 0.91391 -0.16006
 H345 H 0.34014 0.82735 -0.07520
 H346 H 0.46934 0.93235 0.02018
 H347 H 0.46966 1.00974 -0.07312
 H348 H 0.38911 0.85876 -0.04288
 H349 H 0.42528 0.89363 -0.01122
 C350 C 0.61748 0.92493 0.08239
 C351 C 0.62962 0.88957 0.06904
 C352 C 0.65820 0.87083 0.08739
 C353 C 0.67504 0.88666 0.11922
 C354 C 0.66251 0.92154 0.13255
 C355 C 0.63419 0.94037 0.11455
 C356 C 0.58726 0.94429 0.06173
 C357 C 0.57454 0.98032 0.07161
 C358 C 0.54649 0.99723 0.05144
 C359 C 0.52919 0.97850 0.02138
 C360 C 0.54327 0.94327 0.01021
 C361 C 0.57160 0.92599 0.03029
 C362 C 0.61315 0.87309 0.03751
 C363 C 0.58470 0.89084 0.01864
 H364 H 0.62236 0.84597 0.02726
 H365 H 0.57286 0.87685 -0.00556
 H366 H 0.66718 0.84387 0.07667
 H367 H 0.67448 0.93469 0.15704
 H368 H 0.53833 1.02544 0.05934
 H369 H 0.53279 0.92943 -0.01469
 H370 H 0.62581 0.96692 0.12641
 H371 H 0.58620 0.99631 0.09442
   
