data_POSCAR
  _audit_creation_date              2014-09-24
  _audit_creation_method            'ToBaCCo'
  _symmetry_space_group_name_H-M    'P1'
  _symmetry_Int_Tables_number       1
  _symmetry_cell_setting            triclinic
  loop_
  _symmetry_equiv_pos_as_xyz
 x,y,z
_cell_length_a 22.5243
_cell_length_b 40.6653
_cell_length_c 35.7160
_cell_angle_alpha 90.000000
_cell_angle_beta 89.997900
_cell_angle_gamma 90.280800
loop_
  _atom_site_label
  _atom_site_type_symbol
  _atom_site_fract_x
  _atom_site_fract_y
  _atom_site_fract_z
O1 O 0.32031 0.21760 0.26636
 O2 O 0.26496 0.28157 0.20244
 O3 O 0.32040 0.28164 0.26642
 O4 O 0.26488 0.21752 0.20236
 O5 O 0.17874 0.21729 0.23207
 O6 O 0.23425 0.28141 0.29613
 O7 O 0.17881 0.28134 0.23215
 O8 O 0.23416 0.21737 0.29607
 Cu9 Cu 0.30133 0.24960 0.23140
 Cu10 Cu 0.19779 0.24933 0.26710
 C11 C 0.28660 0.20670 0.29201
 C12 C 0.21254 0.29226 0.20652
 C13 C 0.28670 0.29234 0.29209
 C14 C 0.21243 0.20658 0.20640
 O15 O 0.67960 0.28266 0.26639
 O16 O 0.73489 0.21869 0.20245
 O17 O 0.67951 0.21862 0.26645
 O18 O 0.73497 0.28273 0.20237
 O19 O 0.82114 0.28296 0.23204
 O20 O 0.76569 0.21885 0.29613
 O21 O 0.82107 0.21892 0.23212
 O22 O 0.76578 0.28288 0.29606
 Cu23 Cu 0.69854 0.25065 0.23142
 Cu24 Cu 0.80212 0.25093 0.26708
 C25 C 0.71334 0.29355 0.29203
 C26 C 0.78732 0.20800 0.20650
 C27 C 0.71324 0.20791 0.29210
 C28 C 0.78743 0.29367 0.20638
 O29 O 0.76571 0.78293 0.70389
 O30 O 0.82109 0.71896 0.76780
 O31 O 0.76565 0.71889 0.70382
 O32 O 0.82117 0.78300 0.76787
 O33 O 0.73504 0.78278 0.79759
 O34 O 0.67951 0.71866 0.73354
 O35 O 0.73495 0.71873 0.79752
 O36 O 0.67957 0.78270 0.73361
 Cu37 Cu 0.80210 0.75097 0.73285
 Cu38 Cu 0.69857 0.75069 0.76856
 C39 C 0.71329 0.79360 0.70796
 C40 C 0.78736 0.70804 0.79343
 C41 C 0.71320 0.70795 0.70787
 C42 C 0.78749 0.79371 0.79355
 O43 O 0.23412 0.71733 0.70390
 O44 O 0.17884 0.78130 0.76785
 O45 O 0.23418 0.78137 0.70383
 O46 O 0.17876 0.71726 0.76793
 O47 O 0.26493 0.71748 0.79759
 O48 O 0.32037 0.78160 0.73350
 O49 O 0.26503 0.78153 0.79752
 O50 O 0.32031 0.71756 0.73356
 Cu51 Cu 0.19777 0.74929 0.73289
 Cu52 Cu 0.30136 0.74956 0.76854
 C53 C 0.28656 0.70666 0.70793
 C54 C 0.21260 0.79221 0.79347
 C55 C 0.28664 0.79230 0.70785
 C56 C 0.21248 0.70655 0.79358
 C57 C 1.03136 0.02256 0.02245
 C58 C 0.96878 0.02262 0.02222
 C59 C 0.93766 0.00017 -0.00024
 C60 C 0.96866 -0.02232 -0.02247
 C61 C 1.03124 -0.02235 -0.02227
 C62 C 1.06236 0.00008 0.00020
 H63 H 1.11051 0.00004 0.00037
 H64 H 0.88952 0.00021 -0.00040
 C65 C 0.53127 0.52253 0.52253
 C66 C 0.46869 0.52247 0.52237
 C67 C 0.43765 0.50007 0.49982
 C68 C 0.46873 0.47773 0.47742
 C69 C 0.53132 0.47779 0.47758
 C70 C 0.56235 0.50019 0.50014
 H71 H 0.61050 0.50024 0.50026
 H72 H 0.38951 0.50002 0.49970
 C73 C -0.03148 0.47761 0.02233
 C74 C 0.03110 0.47772 0.02233
 C75 C 0.06224 0.50023 -0.00003
 C76 C 0.03126 0.52264 -0.02238
 C77 C -0.03133 0.52254 -0.02237
 C78 C -0.06246 0.50002 -0.00002
 H79 H -0.11061 0.49995 -0.00001
 H80 H 0.11039 0.50030 -0.00004
 C81 C 0.46859 0.97766 0.52244
 C82 C 0.53118 0.97786 0.52247
 C83 C 0.56223 1.00034 0.50003
 C84 C 0.53117 1.02261 0.47754
 C85 C 0.46858 1.02238 0.47747
 C86 C 0.43753 0.99992 0.49993
 H87 H 0.38938 0.99975 0.49989
 H88 H 0.61038 1.00051 0.50007
 C89 C 1.11562 0.08698 0.13354
 C90 C 1.17872 0.10228 0.13191
 C91 C 1.15125 0.13656 0.13644
 C92 C 1.08853 0.12164 0.13846
 C93 C 1.11076 0.09088 0.09087
 C94 C 1.08324 0.12516 0.09543
 C95 C 1.17342 0.10579 0.08882
 C96 C 1.14628 0.14048 0.09376
 C97 C 1.17365 0.16202 0.16185
 C98 C 1.19194 0.18298 0.18280
 C99 C 1.08647 0.06576 0.06577
 C100 C 1.06347 0.04566 0.04563
 H101 H 1.10276 0.06468 0.14959
 H102 H 1.21821 0.09315 0.14724
 H103 H 1.05379 0.12843 0.15906
 H104 H 1.04363 0.13422 0.08014
 H105 H 1.20803 0.09898 0.06814
 H106 H 1.15904 0.16279 0.07770
 C107 C 0.61577 0.58686 0.63368
 C108 C 0.67869 0.60237 0.63186
 C109 C 0.65089 0.63655 0.63660
 C110 C 0.58836 0.62142 0.63880
 C111 C 0.61048 0.59085 0.59104
 C112 C 0.58263 0.62503 0.59581
 C113 C 0.67296 0.60598 0.58880
 C114 C 0.64550 0.64056 0.59396
 C115 C 0.67327 0.66202 0.66201
 C116 C 0.69155 0.68299 0.68294
 C117 C 0.58625 0.56573 0.56592
 C118 C 0.56331 0.54562 0.54575
 H119 H 0.60329 0.56448 0.64970
 H120 H 0.71843 0.59334 0.64702
 H121 H 0.55373 0.62805 0.65955
 H122 H 0.54279 0.63399 0.58069
 H123 H 0.70746 0.59933 0.56798
 H124 H 0.65787 0.66295 0.57793
 C125 C -0.08290 0.40061 0.12857
 C126 C -0.14565 0.40023 0.14632
 C127 C -0.15142 0.36361 0.13630
 C128 C -0.08900 0.36363 0.11895
 C129 C -0.11092 0.40917 0.09058
 C130 C -0.11659 0.37255 0.08058
 C131 C -0.17329 0.40918 0.10792
 C132 C -0.17939 0.37214 0.09830
 C133 C -0.17382 0.33820 0.16178
 C134 C -0.19210 0.31726 0.18275
 C135 C -0.08663 0.43428 0.06547
 C136 C -0.06361 0.45443 0.04539
 H137 H -0.04288 0.41262 0.14066
 H138 H -0.15775 0.41131 0.17366
 H139 H -0.05449 0.34470 0.12378
 H140 H -0.10438 0.36148 0.05325
 H141 H -0.20766 0.42818 0.10308
 H142 H -0.21931 0.36011 0.08613
 C143 C 0.41723 0.87514 0.59572
 C144 C 0.41142 0.87880 0.63870
 C145 C 0.34891 0.86364 0.63648
 C146 C 0.35439 0.85958 0.59386
 C147 C 0.38934 0.90930 0.59087
 C148 C 0.32688 0.89414 0.58862
 C149 C 0.38396 0.91334 0.63350
 C150 C 0.32107 0.89780 0.63167
 C151 C 0.32653 0.83819 0.66193
 C152 C 0.30827 0.81724 0.68288
 C153 C 0.41358 0.93441 0.56574
 C154 C 0.43654 0.95453 0.54560
 H155 H 0.45711 0.86618 0.58064
 H156 H 0.44602 0.87222 0.65949
 H157 H 0.34209 0.83716 0.57785
 H158 H 0.29241 0.90075 0.56776
 H159 H 0.39637 0.93575 0.64949
 H160 H 0.28129 0.90683 0.64679
 C161 C -0.08222 0.62518 -0.09502
 C162 C -0.08819 0.62170 -0.13802
 C163 C -0.15059 0.63666 -0.13563
 C164 C -0.14494 0.64053 -0.09298
 C165 C -0.11034 0.59091 -0.09035
 C166 C -0.17267 0.60586 -0.08792
 C167 C -0.11588 0.58705 -0.13299
 C168 C -0.17866 0.60238 -0.13098
 C169 C -0.17287 0.66214 -0.16090
 C170 C -0.19107 0.68310 -0.18173
 C171 C -0.08619 0.56576 -0.06540
 C172 C -0.06331 0.54564 -0.04539
 H173 H -0.04222 0.63420 -0.07995
 H174 H -0.05361 0.62850 -0.15881
 H175 H -0.15703 0.66284 -0.07682
 H176 H -0.20713 0.59904 -0.06705
 H177 H -0.10368 0.56476 -0.14913
 H178 H -0.21855 0.59329 -0.14610
 C179 C 0.41710 1.12457 0.40414
 C180 C 0.41142 1.12088 0.36115
 C181 C 0.34886 1.13565 0.36331
 C182 C 0.35422 1.13973 0.40595
 C183 C 0.38930 1.09023 0.40894
 C184 C 0.32680 1.10499 0.41114
 C185 C 0.38405 1.08617 0.36631
 C186 C 0.32111 1.10131 0.36808
 C187 C 0.32648 1.16098 0.33787
 C188 C 0.30821 1.18184 0.31693
 C189 C 0.41355 1.06527 0.43409
 C190 C 0.43652 1.04530 0.45427
 H191 H 0.45692 1.13378 0.41926
 H192 H 0.44606 1.12770 0.34040
 H193 H 0.34180 1.16206 0.42195
 H194 H 0.29229 1.09816 0.43196
 H195 H 0.39657 1.06385 0.35032
 H196 H 0.28140 1.09203 0.35292
 C197 C 1.17261 -0.10575 -0.08772
 C198 C 1.14483 -0.14040 -0.09286
 C199 C 1.15057 -0.13647 -0.13550
 C200 C 1.17868 -0.10222 -0.13077
 C201 C 1.11030 -0.09077 -0.09017
 C202 C 1.11594 -0.08685 -0.13280
 C203 C 1.08214 -0.12502 -0.09492
 C204 C 1.08821 -0.12149 -0.13791
 C205 C 1.17286 -0.16193 -0.16080
 C206 C 1.19106 -0.18287 -0.18166
 C207 C 1.08614 -0.06563 -0.06521
 C208 C 1.06324 -0.04550 -0.04523
 H209 H 1.20703 -0.09897 -0.06682
 H210 H 1.15686 -0.16273 -0.07673
 H211 H 1.21862 -0.09312 -0.14585
 H212 H 1.10380 -0.06454 -0.14892
 H213 H 1.04210 -0.13405 -0.07989
 H214 H 1.05365 -0.12824 -0.15874
 C215 C 0.61596 0.37319 0.41910
 C216 C 0.58855 0.36430 0.38063
 C217 C 0.65109 0.36452 0.36344
 C218 C 0.67888 0.37303 0.40154
 C219 C 0.61063 0.40982 0.40922
 C220 C 0.67311 0.41008 0.39204
 C221 C 0.58279 0.40128 0.37113
 C222 C 0.64566 0.40115 0.35354
 C223 C 0.67347 0.33924 0.33794
 C224 C 0.69173 0.31840 0.31697
 C225 C 0.58637 0.43478 0.43438
 C226 C 0.56340 0.45479 0.45449
 H227 H 0.60350 0.36200 0.44636
 H228 H 0.55394 0.34527 0.37564
 H229 H 0.71863 0.36109 0.41377
 H230 H 0.70760 0.42918 0.39704
 H231 H 0.54294 0.41320 0.35899
 H232 H 0.65801 0.41235 0.32628
 C233 C 0.91727 -0.09931 -0.12876
 C234 C 0.91111 -0.13628 -0.11910
 C235 C 0.84871 -0.13630 -0.13646
 C236 C 0.85453 -0.09969 -0.14653
 C237 C 0.88923 -0.09070 -0.09080
 C238 C 0.82688 -0.09068 -0.10815
 C239 C 0.88351 -0.12731 -0.08075
 C240 C 0.82071 -0.12771 -0.09848
 C241 C 0.82629 -0.16173 -0.16190
 C242 C 0.80799 -0.18268 -0.18285
 C243 C 0.91353 -0.06559 -0.06569
 C244 C 0.93654 -0.04546 -0.04559
 H245 H 0.95731 -0.08734 -0.14086
 H246 H 0.94559 -0.15524 -0.12389
 H247 H 0.84247 -0.08863 -0.17389
 H248 H 0.79253 -0.07166 -0.10334
 H249 H 0.89568 -0.13836 -0.05340
 H250 H 0.78077 -0.13972 -0.08631
 C251 C 0.38420 0.41341 0.36628
 C252 C 0.41158 0.37885 0.36116
 C253 C 0.34903 0.36373 0.36336
 C254 C 0.32126 0.39792 0.36809
 C255 C 0.38948 0.40942 0.40892
 C256 C 0.32699 0.39432 0.41115
 C257 C 0.41729 0.37524 0.40416
 C258 C 0.35441 0.35972 0.40600
 C259 C 0.32663 0.33827 0.33795
 C260 C 0.30834 0.31730 0.31702
 C261 C 0.41373 0.43454 0.43404
 C262 C 0.43669 0.45464 0.45420
 H263 H 0.39671 0.43579 0.35026
 H264 H 0.44621 0.37220 0.34041
 H265 H 0.28154 0.40697 0.35293
 H266 H 0.29249 0.40098 0.43197
 H267 H 0.45712 0.36626 0.41927
 H268 H 0.34202 0.33734 0.42203
 C269 C 0.17311 0.59105 -0.10795
 C270 C 0.14550 0.60000 -0.14635
 C271 C 0.15128 0.63662 -0.13633
 C272 C 0.17923 0.62809 -0.09833
 C273 C 0.11074 0.59107 -0.09063
 C274 C 0.11641 0.62769 -0.08063
 C275 C 0.08274 0.59963 -0.12862
 C276 C 0.08885 0.63661 -0.11901
 C277 C 0.17371 0.66203 -0.16181
 C278 C 0.19200 0.68296 -0.18279
 C279 C 0.08642 0.56596 -0.06551
 C280 C 0.06339 0.54582 -0.04543
 H281 H 0.20748 0.57205 -0.10309
 H282 H 0.15762 0.58891 -0.17369
 H283 H 0.21914 0.64012 -0.08615
 H284 H 0.10419 0.63877 -0.05330
 H285 H 0.04273 0.58763 -0.14072
 H286 H 0.05435 0.65555 -0.12385
 C287 C 0.67297 1.09116 0.39208
 C288 C 0.64557 1.09995 0.35356
 C289 C 0.65092 1.13661 0.36350
 C290 C 0.67866 1.12824 0.40161
 C291 C 0.61045 1.09104 0.40921
 C292 C 0.61570 1.12770 0.41912
 C293 C 0.58268 1.09944 0.37110
 C294 C 0.58835 1.13645 0.38063
 C295 C 0.67332 1.16203 0.33803
 C296 C 0.69160 1.18297 0.31706
 C297 C 0.58619 1.06593 0.43433
 C298 C 0.56323 1.04579 0.45444
 H299 H 0.70747 1.07227 0.39709
 H300 H 0.65801 1.08884 0.32630
 H301 H 0.71836 1.14041 0.41388
 H302 H 0.60316 1.13880 0.44637
 H303 H 0.54287 1.08729 0.35892
 H304 H 0.55372 1.15528 0.37563
 C305 C 0.17250 0.39443 0.08787
 C306 C 0.17848 0.39791 0.13093
 C307 C 0.15045 0.36362 0.13557
 C308 C 0.14481 0.35974 0.09293
 C309 C 0.11015 0.40935 0.09030
 C310 C 0.08207 0.37507 0.09497
 C311 C 0.11569 0.41322 0.13294
 C312 C 0.08804 0.37855 0.13797
 C313 C 0.17276 0.33814 0.16084
 C314 C 0.19097 0.31719 0.18168
 C315 C 0.08598 0.43450 0.06535
 C316 C 0.06309 0.45462 0.04534
 H317 H 0.20695 0.40126 0.06701
 H318 H 0.21836 0.40701 0.14605
 H319 H 0.15693 0.33745 0.07677
 H320 H 0.04209 0.36604 0.07989
 H321 H 0.10346 0.43550 0.14909
 H322 H 0.05346 0.37174 0.15876
 C323 C 0.61588 0.87333 0.58098
 C324 C 0.67879 0.87318 0.59855
 C325 C 0.65098 0.86461 0.63663
 C326 C 0.58845 0.86438 0.61943
 C327 C 0.61049 0.90995 0.59090
 C328 C 0.58263 0.90136 0.62897
 C329 C 0.67296 0.91021 0.60810
 C330 C 0.64548 0.90123 0.64658
 C331 C 0.67338 0.83931 0.66210
 C332 C 0.69166 0.81846 0.68304
 C333 C 0.58622 0.93491 0.56576
 C334 C 0.56324 0.95490 0.54562
 H335 H 0.60345 0.86216 0.55370
 H336 H 0.71856 0.86127 0.58632
 H337 H 0.55386 0.84533 0.62438
 H338 H 0.54275 0.91324 0.64112
 H339 H 0.70742 0.92933 0.60313
 H340 H 0.65781 0.91241 0.67386
 C341 C 0.82705 0.09114 0.10696
 C342 C 0.85427 0.10010 0.14552
 C343 C 0.84938 0.13672 0.13544
 C344 C 0.82183 0.12818 0.09728
 C345 C 0.88969 0.09110 0.09001
 C346 C 0.88490 0.12772 0.07995
 C347 C 0.91728 0.09966 0.12816
 C348 C 0.91207 0.13664 0.11849
 C349 C 0.82707 0.16215 0.16077
 C350 C 0.80887 0.18308 0.18164
 C351 C 0.91387 0.06596 0.06506
 C352 C 0.93678 0.04581 0.04511
 H353 H 0.79238 0.07216 0.10192
 H354 H 0.84152 0.08904 0.17279
 H355 H 0.78235 0.14023 0.08485
 H356 H 0.89776 0.13877 0.05269
 H357 H 0.95687 0.08764 0.14051
 H358 H 0.94687 0.15556 0.12351
 C359 C 0.32684 0.59015 0.60790
 C360 C 0.35428 0.59908 0.64640
 C361 C 0.34883 0.63571 0.63651
 C362 C 0.32107 0.62720 0.59840
 C363 C 0.38933 0.59042 0.59073
 C364 C 0.38399 0.62705 0.58086
 C365 C 0.41715 0.59896 0.62883
 C366 C 0.41138 0.63595 0.61934
 C367 C 0.32643 0.66099 0.66201
 C368 C 0.30816 0.68182 0.68298
 C369 C 0.41361 0.56547 0.56558
 C370 C 0.43661 0.54547 0.54546
 H371 H 0.29237 0.57106 0.60288
 H372 H 0.34190 0.58788 0.67367
 H373 H 0.28132 0.63914 0.58617
 H374 H 0.39647 0.63825 0.55361
 H375 H 0.45700 0.58705 0.64098
 H376 H 0.44598 0.65498 0.62434
   
