data_POSCAR
  _audit_creation_date              2014-09-24
  _audit_creation_method            'ToBaCCo'
  _symmetry_space_group_name_H-M    'P1'
  _symmetry_Int_Tables_number       1
  _symmetry_cell_setting            triclinic
  loop_
  _symmetry_equiv_pos_as_xyz
 x,y,z
_cell_length_a 45.0530
_cell_length_b 33.1319
_cell_length_c 34.4092
_cell_angle_alpha 90.064300
_cell_angle_beta 90.015100
_cell_angle_gamma 85.462500
loop_
  _atom_site_label
  _atom_site_type_symbol
  _atom_site_fract_x
  _atom_site_fract_y
  _atom_site_fract_z
C1 C 1.22894 0.22337 0.20391
 C2 C 1.24943 0.24863 0.18017
 C3 C 1.26616 0.27224 0.20252
 C4 C 1.26085 0.26854 0.24662
 C5 C 1.24950 0.19920 0.23244
 C6 C 1.26617 0.22285 0.25478
 C7 C 1.21039 0.25390 0.22911
 C8 C 1.22699 0.27742 0.25152
 H9 H 1.25122 0.24707 0.14870
 H10 H 1.27441 0.28788 0.26477
 H11 H 1.25073 0.16641 0.23484
 H12 H 1.18623 0.25522 0.23074
 C13 C 0.73142 -0.27812 0.20349
 C14 C 0.75144 -0.25236 0.17962
 C15 C 0.76785 -0.22831 0.20190
 C16 C 0.76279 -0.23213 0.24600
 C17 C 0.75230 -0.30182 0.23194
 C18 C 0.76864 -0.27771 0.25421
 C19 C 0.71256 -0.24798 0.22876
 C20 C 0.72893 -0.22403 0.25105
 H21 H 0.75283 -0.25341 0.14811
 H22 H 0.77617 -0.21245 0.26405
 H23 H 0.75350 -0.33456 0.23492
 H24 H 0.68843 -0.24728 0.23061
 C25 C 0.72947 0.22370 -0.29681
 C26 C 0.74907 0.24742 -0.31960
 C27 C 0.76648 0.27241 -0.29597
 C28 C 0.76097 0.26887 -0.25414
 C29 C 0.74874 0.20052 -0.26945
 C30 C 0.76611 0.22553 -0.24589
 C31 C 0.71144 0.25285 -0.27334
 C32 C 0.72878 0.27774 -0.24976
 H33 H 0.75103 0.24577 -0.35108
 H34 H 0.77444 0.28836 -0.23589
 H35 H 0.75011 0.16768 -0.26707
 H36 H 0.68727 0.25388 -0.27150
 C37 C 1.23140 -0.27806 -0.29576
 C38 C 1.25174 -0.25289 -0.31976
 C39 C 1.26823 -0.22884 -0.29759
 C40 C 1.26293 -0.23207 -0.25350
 C41 C 1.25199 -0.30170 -0.26695
 C42 C 1.26842 -0.27758 -0.24483
 C43 C 1.21263 -0.24741 -0.27094
 C44 C 1.22910 -0.22345 -0.24880
 H45 H 1.25329 -0.25434 -0.35125
 H46 H 1.27639 -0.21238 -0.23556
 H47 H 1.25315 -0.33444 -0.26388
 H48 H 1.18848 -0.24630 -0.26933
 C49 C 0.23168 0.22367 0.79754
 C50 C 0.25070 0.24783 0.82043
 C51 C 0.26804 0.27302 0.79728
 C52 C 0.26324 0.26952 0.75547
 C53 C 0.21284 0.25384 0.77221
 C54 C 0.22933 0.27779 0.75007
 C55 C 0.25242 0.19979 0.76887
 C56 C 0.26892 0.22389 0.74676
 H57 H 0.25239 0.24615 0.85192
 H58 H 0.27668 0.28918 0.73749
 H59 H 0.18871 0.25463 0.77029
 H60 H 0.25359 0.16705 0.76588
 C61 C 0.72881 0.72434 0.79624
 C62 C 0.74839 0.74827 0.81895
 C63 C 0.76586 0.77303 0.79521
 C64 C 0.76041 0.76911 0.75339
 C65 C 0.71084 0.75330 0.77254
 C66 C 0.72823 0.77796 0.74886
 C67 C 0.74813 0.70092 0.76907
 C68 C 0.76557 0.72569 0.74541
 H69 H 0.75042 0.74673 0.85042
 H70 H 0.77392 0.78842 0.73505
 H71 H 0.68667 0.75439 0.77068
 H72 H 0.74950 0.66806 0.76690
 C73 C 0.73124 0.22184 0.29604
 C74 C 0.75139 0.24727 0.32012
 C75 C 0.76787 0.27135 0.29804
 C76 C 0.76276 0.26787 0.25392
 C77 C 0.71246 0.25226 0.27103
 C78 C 0.72892 0.27624 0.24895
 C79 C 0.75201 0.19819 0.26739
 C80 C 0.76843 0.22234 0.24533
 H81 H 0.75275 0.24606 0.35164
 H82 H 0.77621 0.28757 0.23604
 H83 H 0.68832 0.25314 0.26919
 H84 H 0.75310 0.16548 0.26413
 C85 C 0.22892 0.72318 0.29595
 C86 C 0.24927 0.74880 0.31960
 C87 C 0.26598 0.77231 0.29717
 C88 C 0.26079 0.76815 0.25306
 C89 C 0.21035 0.75337 0.27048
 C90 C 0.22692 0.77680 0.24798
 C91 C 0.24963 0.69885 0.26765
 C92 C 0.26627 0.72238 0.24521
 H93 H 0.25094 0.74763 0.35109
 H94 H 0.27434 0.78739 0.23483
 H95 H 0.18619 0.75466 0.26888
 H96 H 0.25094 0.66603 0.26546
 O97 O 1.03671 0.06867 0.06736
 O98 O 1.07111 0.03003 0.03120
 C99 C 1.06381 0.05694 0.05750
 O100 O 0.95833 -0.07214 0.06472
 O101 O 0.92433 -0.03223 0.02906
 C102 C 0.93135 -0.06022 0.05450
 O103 O 1.04129 -0.07197 0.06990
 O104 O 1.07331 -0.03796 0.03247
 C105 C 1.06772 -0.06277 0.06007
 O106 O 0.95357 0.07562 0.06285
 O107 O 0.92206 0.03821 0.02780
 C108 C 0.92731 0.06622 0.05265
 Zr109 Zr 0.99594 0.05036 0.04517
 O110 O 0.99213 0.05028 0.10653
 O111 O 0.99702 0.11414 0.04500
 Zr112 Zr 0.99935 -0.05180 0.04596
 O113 O 0.99551 -0.05248 0.10725
 O114 O 1.00501 -0.11586 0.04464
 O115 O 1.02413 -0.00179 0.05371
 O116 O 0.97169 0.00058 0.05229
 O117 O 0.95485 0.07456 -0.07195
 O118 O 0.92268 0.03778 -0.03743
 C119 C 0.92839 0.06546 -0.06238
 O120 O 1.04261 -0.07325 -0.07421
 O121 O 1.07390 -0.03852 -0.03621
 C122 C 1.06881 -0.06376 -0.06367
 O123 O 0.95956 -0.07379 -0.07147
 O124 O 0.92492 -0.03298 -0.03766
 C125 C 0.93238 -0.06171 -0.06226
 O126 O 1.03807 0.06728 -0.07374
 O127 O 1.07174 0.02938 -0.03590
 C128 C 1.06496 0.05578 -0.06277
 Zr129 Zr 0.99686 0.04931 -0.05279
 O130 O 0.99423 0.04738 -0.11422
 O131 O 0.99795 0.11305 -0.05410
 Zr132 Zr 1.00023 -0.05280 -0.05188
 O133 O 0.99749 -0.05460 -0.11325
 O134 O 1.00593 -0.11682 -0.04961
 Zr135 Zr 1.04265 -0.00318 -0.00261
 Zr136 Zr 0.95347 0.00083 -0.00410
 O137 O 0.97269 -0.00059 -0.05989
 O138 O 1.02521 -0.00298 -0.05954
 O139 O 0.96953 0.05898 -0.00429
 O140 O 1.02612 -0.06084 -0.00249
 O141 O 1.02199 0.05609 -0.00344
 O142 O 0.97331 -0.05903 -0.00331
 H143 H 0.95820 0.00156 0.07506
 H144 H 1.04056 -0.08502 -0.00209
 H145 H 0.95955 -0.00006 -0.08300
 H146 H 1.03436 0.07952 -0.00338
 H147 H 0.98765 -0.12568 0.03096
 H148 H 0.98851 -0.12640 -0.03591
 H149 H 1.01163 -0.03589 -0.12349
 H150 H 1.01273 0.03271 -0.12394
 H151 H 0.98169 0.12467 -0.03721
 H152 H 0.98039 0.12539 0.02852
 H153 H 1.01008 0.03500 0.11709
 H154 H 1.00945 -0.03356 0.11766
 O155 O 1.03805 0.56695 0.57405
 O156 O 1.07175 0.52902 0.53622
 C157 C 1.06494 0.55535 0.56318
 O158 O 0.95936 0.42632 0.57105
 O159 O 0.92487 0.46723 0.53716
 C160 C 0.93222 0.43849 0.56173
 O161 O 1.04244 0.42659 0.57420
 O162 O 1.07387 0.46119 0.53640
 C163 C 1.06869 0.43599 0.56382
 O164 O 0.95485 0.57455 0.57192
 O165 O 0.92271 0.53790 0.53712
 C166 C 0.92839 0.56552 0.56221
 Zr167 Zr 0.99687 0.54928 0.55276
 O168 O 0.99408 0.54767 0.61418
 O169 O 0.99809 0.61301 0.55394
 Zr170 Zr 1.00012 0.44714 0.55168
 O171 O 0.99725 0.44528 0.61303
 O172 O 1.00573 0.38312 0.54919
 O173 O 1.02513 0.49691 0.55954
 O174 O 0.97264 0.49944 0.55967
 O175 O 0.95388 0.57563 0.43696
 O176 O 0.92223 0.53836 0.47183
 C177 C 0.92758 0.56631 0.44702
 O178 O 1.04139 0.42789 0.43000
 O179 O 1.07339 0.46180 0.46765
 C180 C 1.06781 0.43705 0.43995
 O181 O 0.95841 0.42788 0.43493
 O182 O 0.92440 0.46796 0.47048
 C183 C 0.93143 0.43988 0.44509
 O184 O 1.03704 0.56849 0.43286
 O185 O 1.07132 0.52977 0.46908
 C186 C 1.06411 0.55670 0.44281
 Zr187 Zr 0.99619 0.55029 0.45481
 O188 O 0.99253 0.55018 0.39344
 O189 O 0.99735 0.61406 0.45514
 Zr190 Zr 0.99943 0.44813 0.45384
 O191 O 0.99569 0.44740 0.39253
 O192 O 1.00500 0.38407 0.45505
 Zr193 Zr 1.04272 0.49662 0.50269
 Zr194 Zr 0.95354 0.50092 0.50380
 O195 O 0.97188 0.50058 0.44750
 O196 O 1.02431 0.49806 0.44630
 O197 O 0.96966 0.55901 0.50417
 O198 O 1.02611 0.43902 0.50238
 O199 O 1.02215 0.55595 0.50355
 O200 O 0.97328 0.44101 0.50298
 H201 H 0.95947 0.50000 0.58275
 H202 H 1.04052 0.41482 0.50199
 H203 H 0.95843 0.50158 0.42467
 H204 H 1.03457 0.57933 0.50362
 H205 H 0.98826 0.37359 0.53556
 H206 H 0.98763 0.37431 0.46869
 H207 H 1.00965 0.46630 0.38220
 H208 H 1.01048 0.53481 0.38294
 H209 H 0.98070 0.62535 0.47159
 H210 H 0.98163 0.62465 0.53739
 H211 H 1.01234 0.53247 0.62398
 H212 H 1.01138 0.46395 0.62340
 O213 O 0.53907 0.06793 0.56992
 O214 O 0.57301 0.02909 0.53326
 C215 C 0.56604 0.05611 0.55959
 O216 O 0.46043 -0.07312 0.56821
 O217 O 0.42630 -0.03333 0.53264
 C218 C 0.43343 -0.06135 0.55798
 O219 O 0.54375 -0.07262 0.57208
 O220 O 0.57554 -0.03844 0.53429
 C221 C 0.57014 -0.06340 0.56188
 O222 O 0.45592 0.07530 0.56656
 O223 O 0.42405 0.03794 0.53205
 C224 C 0.42955 0.06601 0.55673
 Zr225 Zr 0.49809 0.04962 0.54851
 O226 O 0.49477 0.04893 0.60992
 O227 O 0.49930 0.11336 0.54878
 Zr228 Zr 0.50127 -0.05235 0.54941
 O229 O 0.49776 -0.05176 0.61076
 O230 O 0.50679 -0.11642 0.54952
 O231 O 0.52627 -0.00257 0.55667
 O232 O 0.47367 0.00005 0.55594
 O233 O 0.45621 0.07382 0.43152
 O234 O 0.42421 0.03740 0.46670
 C235 C 0.42979 0.06487 0.44149
 O236 O 0.54376 -0.07442 0.42912
 O237 O 0.57543 -0.04045 0.46731
 C238 C 0.57010 -0.06546 0.43973
 O239 O 0.46045 -0.07427 0.43240
 O240 O 0.42620 -0.03313 0.46654
 C241 C 0.43337 -0.06192 0.44190
 O242 O 0.53928 0.06619 0.42853
 O243 O 0.57302 0.02812 0.46603
 C244 C 0.56617 0.05447 0.43916
 Zr245 Zr 0.49832 0.04850 0.45028
 O246 O 0.49518 0.04664 0.38889
 O247 O 0.49961 0.11222 0.44907
 Zr248 Zr 0.50138 -0.05357 0.45139
 O249 O 0.49821 -0.05508 0.39004
 O250 O 0.50677 -0.11762 0.45326
 Zr251 Zr 0.54417 -0.00416 0.50001
 Zr252 Zr 0.45514 0.00041 0.49974
 O253 O 0.47393 -0.00123 0.44367
 O254 O 0.52647 -0.00397 0.44325
 O255 O 0.47140 0.05841 0.49924
 O256 O 0.52748 -0.06173 0.50055
 O257 O 0.52375 0.05521 0.49940
 O258 O 0.47488 -0.05952 0.50039
 H259 H 0.46020 0.00099 0.57874
 H260 H 0.54175 -0.08607 0.50092
 H261 H 0.46064 -0.00068 0.42071
 H262 H 0.53621 0.07854 0.49918
 H263 H 0.49041 -0.12636 0.53395
 H264 H 0.48952 -0.12709 0.46741
 H265 H 0.51311 -0.03758 0.37962
 H266 H 0.51331 0.03121 0.37897
 H267 H 0.48326 0.12393 0.46577
 H268 H 0.48316 0.12468 0.53155
 H269 H 0.51301 0.03405 0.62015
 H270 H 0.51321 -0.03493 0.62087
 O271 O 0.53951 0.56565 0.07059
 O272 O 0.57336 0.52796 0.03279
 C273 C 0.56644 0.55424 0.05976
 O274 O 0.46141 0.42429 0.06731
 O275 O 0.42687 0.46446 0.03278
 C276 C 0.43427 0.43603 0.05763
 O277 O 0.54434 0.42519 0.07066
 O278 O 0.57566 0.46003 0.03295
 C279 C 0.57055 0.43479 0.06034
 O280 O 0.45633 0.57254 0.06840
 O281 O 0.42437 0.53567 0.03354
 C282 C 0.42992 0.56328 0.05869
 Zr283 Zr 0.49845 0.54766 0.04920
 O284 O 0.49561 0.54604 0.11061
 O285 O 0.49940 0.61144 0.05033
 Zr286 Zr 0.50206 0.44549 0.04806
 O287 O 0.49909 0.44364 0.10940
 O288 O 0.50791 0.38148 0.04554
 O289 O 0.52686 0.49545 0.05601
 O290 O 0.47438 0.49763 0.05603
 O291 O 0.45564 0.57417 -0.06638
 O292 O 0.42406 0.53659 -0.03172
 C293 C 0.42937 0.56475 -0.05631
 O294 O 0.54351 0.42639 -0.07343
 O295 O 0.57530 0.46058 -0.03572
 C296 C 0.56987 0.43568 -0.06337
 O297 O 0.46047 0.42597 -0.06872
 O298 O 0.42634 0.46597 -0.03328
 C299 C 0.43345 0.43782 -0.05859
 O300 O 0.53898 0.56706 -0.07026
 O301 O 0.57333 0.52830 -0.03408
 C302 C 0.56608 0.55539 -0.06021
 Zr303 Zr 0.49796 0.54858 -0.04890
 O304 O 0.49438 0.54760 -0.11028
 O305 O 0.49892 0.61234 -0.04967
 Zr306 Zr 0.50144 0.44655 -0.04984
 O307 O 0.49776 0.44618 -0.11115
 O308 O 0.50718 0.38250 -0.04890
 Zr309 Zr 0.54447 0.49532 -0.00081
 Zr310 Zr 0.45536 0.49909 0.00013
 O311 O 0.47370 0.49883 -0.05618
 O312 O 0.52624 0.49656 -0.05730
 O313 O 0.47136 0.55725 0.00048
 O314 O 0.52808 0.43758 -0.00122
 O315 O 0.52372 0.55453 -0.00000
 O316 O 0.47531 0.43927 -0.00071
 H317 H 0.46114 0.49800 0.07904
 H318 H 0.54255 0.41344 -0.00157
 H319 H 0.46021 0.49981 -0.07896
 H320 H 0.53604 0.57800 0.00012
 H321 H 0.49053 0.37184 0.03180
 H322 H 0.48998 0.37260 -0.03498
 H323 H 0.51193 0.46485 -0.12138
 H324 H 0.51295 0.53369 -0.12067
 H325 H 0.48338 0.62362 -0.03153
 H326 H 0.48267 0.62299 0.03417
 H327 H 0.51389 0.53090 0.12043
 H328 H 0.51317 0.46235 0.11982
 C329 C 1.17298 0.15459 0.14326
 N330 N 1.16353 0.12089 0.16010
 N331 N 1.14266 0.10064 0.14309
 C332 C 1.13054 0.11359 0.10880
 N333 N 1.14004 0.14723 0.09191
 N334 N 1.16091 0.16747 0.10892
 C335 C 1.19380 0.17795 0.16299
 C336 C 1.21031 0.19817 0.18070
 C337 C 1.10724 0.09284 0.09120
 C338 C 1.08743 0.07609 0.07614
 C339 C 1.17584 0.65187 0.64512
 N340 N 1.16579 0.61931 0.66329
 N341 N 1.14461 0.59904 0.64708
 C342 C 1.13279 0.61089 0.61230
 N343 N 1.14290 0.64337 0.59408
 N344 N 1.16408 0.66364 0.61029
 C345 C 1.19666 0.67561 0.66412
 C346 C 1.21304 0.69626 0.68139
 C347 C 1.10906 0.59044 0.59568
 C348 C 1.08889 0.57402 0.58127
 C349 C 0.67524 0.15534 0.64335
 N350 N 0.66146 0.16940 0.61046
 N351 N 0.64071 0.14874 0.59369
 C352 C 0.63306 0.11349 0.60936
 N353 N 0.64690 0.09936 0.64219
 N354 N 0.66764 0.12002 0.65897
 C355 C 0.69580 0.17909 0.66312
 C356 C 0.71204 0.19961 0.68100
 C357 C 0.60976 0.09235 0.59224
 C358 C 0.58987 0.07536 0.57764
 C359 C 0.67625 0.65170 0.14356
 N360 N 0.66610 0.61907 0.16151
 N361 N 0.64520 0.59862 0.14485
 C362 C 0.63378 0.61031 0.10981
 N363 N 0.64399 0.64285 0.09181
 N364 N 0.66489 0.66331 0.10847
 C365 C 0.69687 0.67553 0.16294
 C366 C 0.71314 0.69620 0.18045
 C367 C 0.61031 0.58965 0.09270
 C368 C 0.59030 0.57307 0.07802
 C369 C 0.82665 -0.15818 0.14950
 N370 N 0.82219 -0.14786 0.11168
 N371 N 0.84192 -0.12728 0.09275
 C372 C 0.86672 -0.11639 0.11108
 N373 N 0.87115 -0.12666 0.14892
 N374 N 0.85142 -0.14724 0.16785
 C375 C 0.80602 -0.18192 0.16925
 C376 C 0.78869 -0.20263 0.18485
 C377 C 0.88866 -0.09575 0.09036
 C378 C 0.90774 -0.07914 0.07350
 C379 C 0.82693 0.33780 0.65337
 N380 N 0.83758 0.32552 0.61805
 N381 N 0.85756 0.34619 0.59971
 C382 C 0.86749 0.37989 0.61603
 N383 N 0.85683 0.39221 0.65136
 N384 N 0.83683 0.37153 0.66972
 C385 C 0.80541 0.31522 0.67295
 C386 C 0.78724 0.29551 0.68824
 C387 C 0.88969 0.40143 0.59662
 C388 C 0.90879 0.41877 0.58046
 C389 C 0.32784 -0.16007 0.65013
 N390 N 0.34717 -0.13889 0.67055
 N391 N 0.36713 -0.11829 0.65209
 C392 C 0.36834 -0.11821 0.61269
 N393 N 0.34898 -0.13933 0.59230
 N394 N 0.32902 -0.15993 0.61075
 C395 C 0.30693 -0.18336 0.66980
 C396 C 0.28936 -0.20368 0.68534
 C397 C 0.39063 -0.09742 0.59290
 C398 C 0.40986 -0.08061 0.57662
 C399 C 0.32844 0.33720 0.15025
 N400 N 0.34340 0.32025 0.11933
 N401 N 0.36358 0.34030 0.10068
 C402 C 0.36941 0.37800 0.11229
 N403 N 0.35445 0.39499 0.14322
 N404 N 0.33424 0.37493 0.16188
 C405 C 0.30659 0.31539 0.17004
 C406 C 0.28822 0.29624 0.18559
 C407 C 0.39170 0.39913 0.09262
 C408 C 0.41085 0.41628 0.07636
 C409 C 0.82298 0.17258 -0.16847
 N410 N 0.81630 0.13704 -0.15237
 N411 N 0.83582 0.11631 -0.12936
 C412 C 0.86263 0.13051 -0.12173
 N413 N 0.86927 0.16611 -0.13774
 N414 N 0.84976 0.18683 -0.16075
 C415 C 0.80272 0.19337 -0.19532
 C416 C 0.78566 0.20936 -0.21870
 C417 C 0.88456 0.10701 -0.09918
 C418 C 0.90395 0.08762 -0.08157
 C419 C 0.82358 0.67018 0.33723
 N420 N 0.81854 0.63241 0.34946
 N421 N 0.83736 0.61251 0.37394
 C422 C 0.86174 0.62984 0.38703
 N423 N 0.86672 0.66767 0.37491
 N424 N 0.84791 0.68757 0.35041
 C425 C 0.80440 0.69026 0.30882
 C426 C 0.78826 0.70575 0.28421
 C427 C 0.88350 0.60713 0.41034
 C428 C 0.90294 0.58819 0.42817
 C429 C 0.32388 0.16931 0.33418
 N430 N 0.31854 0.13220 0.34794
 N431 N 0.33809 0.11207 0.37134
 C432 C 0.36356 0.12848 0.38176
 N433 N 0.36886 0.16563 0.36810
 N434 N 0.34931 0.18576 0.34469
 C435 C 0.30366 0.18975 0.30708
 C436 C 0.28668 0.20567 0.28358
 C437 C 0.38571 0.10569 0.40455
 C438 C 0.40525 0.08675 0.42228
 C439 C 0.32417 0.67007 -0.16297
 N440 N 0.31901 0.63247 -0.15041
 N441 N 0.33817 0.61227 -0.12659
 C442 C 0.36305 0.62912 -0.11457
 N443 N 0.36816 0.66679 -0.12701
 N444 N 0.34899 0.68699 -0.15084
 C445 C 0.30466 0.69034 -0.19085
 C446 C 0.28827 0.70590 -0.21513
 C447 C 0.38508 0.60609 -0.09200
 C448 C 0.40467 0.58689 -0.07472
 C449 C 1.18178 -0.15330 -0.17015
 N450 N 1.17401 -0.17021 -0.13613
 N451 N 1.15309 -0.15159 -0.11363
 C452 C 1.13921 -0.11560 -0.12460
 N453 N 1.14711 -0.09856 -0.15849
 N454 N 1.16802 -0.11719 -0.18099
 C455 C 1.20095 -0.17603 -0.19680
 C456 C 1.21504 -0.19674 -0.22013
 C457 C 1.11493 -0.09732 -0.10222
 C458 C 1.09399 -0.08214 -0.08425
 C459 C 1.17947 0.34711 0.33073
 N460 N 1.17211 0.33037 0.36502
 N461 N 1.15137 0.34901 0.38780
 C462 C 1.13723 0.38486 0.37689
 N463 N 1.14469 0.40171 0.34270
 N464 N 1.16542 0.38307 0.31992
 C465 C 1.19873 0.32448 0.30395
 C466 C 1.21293 0.30394 0.28049
 C467 C 1.11327 0.40337 0.39988
 C468 C 1.09265 0.41868 0.41848
 C469 C 0.68175 -0.15544 0.33116
 N470 N 0.66877 -0.11848 0.32156
 N471 N 0.64816 -0.09996 0.34458
 C472 C 0.63980 -0.11793 0.37779
 N473 N 0.65287 -0.15481 0.38749
 N474 N 0.67349 -0.17332 0.36447
 C475 C 0.70078 -0.17771 0.30396
 C476 C 0.71483 -0.19793 0.28021
 C477 C 0.61583 -0.09955 0.40071
 C478 C 0.59511 -0.08417 0.41899
 C479 C 0.68207 0.34520 -0.17136
 N480 N 0.67362 0.32772 -0.13792
 N481 N 0.65281 0.34644 -0.11531
 C482 C 0.63966 0.38313 -0.12555
 N483 N 0.64821 0.40071 -0.15888
 N484 N 0.66902 0.38198 -0.18149
 C485 C 0.70133 0.32264 -0.19822
 C486 C 0.71544 0.30230 -0.22191
 C487 C 0.61556 0.40180 -0.10289
 C488 C 0.59483 0.41723 -0.08456
 C489 C 1.17577 0.15367 -0.14360
 N490 N 1.16677 0.12006 -0.16116
 N491 N 1.14559 0.09961 -0.14516
 C492 C 1.13274 0.11229 -0.11121
 N493 N 1.14180 0.14583 -0.09359
 N494 N 1.16297 0.16627 -0.10959
 C495 C 1.19670 0.17743 -0.16245
 C496 C 1.21320 0.19804 -0.17962
 C497 C 1.10906 0.09148 -0.09479
 C498 C 1.08893 0.07476 -0.08060
 C499 C 1.17310 0.65454 0.35694
 N500 N 1.16422 0.62019 0.34064
 N501 N 1.14343 0.59990 0.35774
 C502 C 1.13084 0.61342 0.39159
 N503 N 1.13977 0.64771 0.40794
 N504 N 1.16055 0.66801 0.39084
 C505 C 1.19386 0.67789 0.33708
 C506 C 1.21032 0.69807 0.31927
 C507 C 1.10759 0.59260 0.40924
 C508 C 1.08779 0.57582 0.42428
 C509 C 0.67604 0.15148 0.35545
 N510 N 0.66535 0.11949 0.33696
 N511 N 0.64446 0.09903 0.35356
 C512 C 0.63360 0.11007 0.38907
 N513 N 0.64436 0.14196 0.40761
 N514 N 0.66525 0.16243 0.39102
 C515 C 0.69665 0.17538 0.33622
 C516 C 0.71292 0.19611 0.31887
 C517 C 0.61011 0.08949 0.40613
 C518 C 0.59008 0.07305 0.42084
 C519 C 0.67453 0.65606 -0.14396
 N520 N 0.66749 0.62030 -0.15927
 N521 N 0.64685 0.59942 -0.14257
 C522 C 0.63256 0.61376 -0.11011
 N523 N 0.63966 0.64947 -0.09473
 N524 N 0.66029 0.67034 -0.11144
 C525 C 0.69507 0.67992 -0.16364
 C526 C 0.71132 0.70042 -0.18150
 C527 C 0.60944 0.59226 -0.09299
 C528 C 0.58972 0.57497 -0.07835
 C529 C 0.82736 -0.16205 -0.15545
 N530 N 0.82103 -0.12268 -0.14537
 N531 N 0.84118 -0.10233 -0.12685
 C532 C 0.86826 -0.12074 -0.11771
 N533 N 0.87457 -0.16008 -0.12781
 N534 N 0.85444 -0.18042 -0.14631
 C535 C 0.80536 -0.18453 -0.17428
 C536 C 0.78689 -0.20409 -0.18919
 C537 C 0.89012 -0.09900 -0.09771
 C538 C 0.90904 -0.08153 -0.08122
 C539 C 0.82659 0.34126 0.35094
 N540 N 0.82526 0.34530 0.39015
 N541 N 0.84497 0.36605 0.40897
 C542 C 0.86660 0.38345 0.38913
 N543 N 0.86791 0.37948 0.34990
 N544 N 0.84820 0.35871 0.33108
 C545 C 0.80601 0.31757 0.33102
 C546 C 0.78871 0.29691 0.31528
 C547 C 0.88867 0.40421 0.40949
 C548 C 0.90781 0.42090 0.42616
 C549 C 0.32751 -0.16128 0.34953
 N550 N 0.33915 -0.17495 0.38388
 N551 N 0.35922 -0.15457 0.40246
 C552 C 0.36823 -0.11978 0.38735
 N553 N 0.35658 -0.10606 0.35299
 N554 N 0.33649 -0.12646 0.33440
 C555 C 0.30594 -0.18361 0.32964
 C556 C 0.28780 -0.20320 0.31407
 C557 C 0.39056 -0.09853 0.40694
 C558 C 0.40978 -0.08143 0.42317
 C559 C 0.32770 0.33871 -0.15090
 N560 N 0.33473 0.33029 -0.11328
 N561 N 0.35473 0.35079 -0.09473
 C562 C 0.36829 0.38044 -0.11319
 N563 N 0.36126 0.38892 -0.15082
 N564 N 0.34124 0.36840 -0.16938
 C565 C 0.30643 0.31604 -0.17081
 C566 C 0.28850 0.29623 -0.18645
 C567 C 0.39062 0.40150 -0.09355
 C568 C 0.40985 0.41848 -0.07730
 C569 C 1.17928 -0.15336 0.16903
 N570 N 1.17180 -0.17002 0.13471
 N571 N 1.15108 -0.15124 0.11201
 C572 C 1.13708 -0.11530 0.12302
 N573 N 1.14466 -0.09853 0.15724
 N574 N 1.16537 -0.11732 0.17994
 C575 C 1.19857 -0.17609 0.19570
 C576 C 1.21281 -0.19668 0.21907
 C577 C 1.11314 -0.09662 0.10009
 C578 C 1.09255 -0.08120 0.08152
 C579 C 1.18170 0.34686 0.67082
 N580 N 1.17359 0.32941 0.63717
 N581 N 1.15262 0.34781 0.61461
 C582 C 1.13899 0.38413 0.62515
 N583 N 1.14721 0.40170 0.65868
 N584 N 1.16818 0.38329 0.68123
 C585 C 1.20105 0.32449 0.69758
 C586 C 1.21526 0.30412 0.72107
 C587 C 1.11472 0.40237 0.60263
 C588 C 1.09383 0.41756 0.58454
 C589 C 0.68183 -0.15471 0.67010
 N590 N 0.67309 -0.17242 0.63688
 N591 N 0.65244 -0.15355 0.61414
 C592 C 0.63977 -0.11646 0.62401
 N593 N 0.64862 -0.09865 0.65712
 N594 N 0.66926 -0.11752 0.67986
 C595 C 0.70094 -0.17729 0.69710
 C596 C 0.71495 -0.19759 0.72090
 C597 C 0.61579 -0.09759 0.60126
 C598 C 0.59512 -0.08201 0.58294
 C599 C 0.68218 0.34559 0.16917
 N600 N 0.67463 0.32831 0.13520
 N601 N 0.65409 0.34687 0.11213
 C602 C 0.64038 0.38320 0.12246
 N603 N 0.64805 0.40061 0.15632
 N604 N 0.66858 0.38203 0.17938
 C605 C 0.70103 0.32308 0.19633
 C606 C 0.71494 0.30261 0.21999
 C607 C 0.61641 0.40144 0.09951
 C608 C 0.59565 0.41655 0.08117
 C609 C 0.82317 0.17032 0.16204
 N610 N 0.81822 0.13244 0.14998
 N611 N 0.83703 0.11248 0.12551
 C612 C 0.86132 0.12987 0.11227
 N613 N 0.86621 0.16782 0.12421
 N614 N 0.84740 0.18778 0.14869
 C615 C 0.80405 0.19042 0.19051
 C616 C 0.78797 0.20588 0.21521
 C617 C 0.88313 0.10710 0.08907
 C618 C 0.90261 0.08811 0.07135
 C619 C 0.82262 0.67215 0.66841
 N620 N 0.84861 0.68766 0.65887
 N621 N 0.86819 0.66699 0.63586
 C622 C 0.86239 0.63020 0.62166
 N623 N 0.83637 0.61473 0.63113
 N624 N 0.81679 0.63540 0.65413
 C625 C 0.80230 0.69310 0.69514
 C626 C 0.78518 0.70927 0.71839
 C627 C 0.88446 0.60689 0.59910
 C628 C 0.90391 0.58761 0.58145
 C629 C 0.32495 0.17126 0.66505
 N630 N 0.31945 0.13401 0.65177
 N631 N 0.33855 0.11381 0.62781
 C632 C 0.36371 0.13031 0.61633
 N633 N 0.36916 0.16762 0.62950
 N634 N 0.35006 0.18782 0.65348
 C635 C 0.30538 0.19161 0.69293
 C636 C 0.28891 0.20726 0.71714
 C637 C 0.38557 0.10730 0.59333
 C638 C 0.40500 0.08813 0.57562
 C639 C 0.32411 0.66806 0.16623
 N640 N 0.31901 0.63055 0.15324
 N641 N 0.33853 0.61022 0.12990
 C642 C 0.36375 0.62681 0.11880
 N643 N 0.36881 0.66437 0.13171
 N644 N 0.34929 0.68470 0.15505
 C645 C 0.30388 0.68882 0.19319
 C646 C 0.28686 0.70498 0.21655
 C647 C 0.38585 0.60393 0.09595
 C648 C 0.40537 0.58501 0.07810
   
