data_POSCAR
  _audit_creation_date              2014-09-24
  _audit_creation_method            'ToBaCCo'
  _symmetry_space_group_name_H-M    'P1'
  _symmetry_Int_Tables_number       1
  _symmetry_cell_setting            triclinic
  loop_
  _symmetry_equiv_pos_as_xyz
 x,y,z
_cell_length_a 39.6145
_cell_length_b 38.9071
_cell_length_c 14.2483
_cell_angle_alpha 89.433100
_cell_angle_beta 90.331900
_cell_angle_gamma 120.427800
loop_
  _atom_site_label
  _atom_site_type_symbol
  _atom_site_fract_x
  _atom_site_fract_y
  _atom_site_fract_z
C1 C 0.16511 0.48154 0.46872
 C2 C 0.18955 0.49217 0.38908
 C3 C 0.23004 0.50932 0.40220
 C4 C 0.24608 0.51244 0.49217
 C5 C 0.22083 0.50064 0.57044
 C6 C 0.18078 0.48772 0.56034
 C7 C 0.28926 0.52939 0.50421
 C8 C 0.30833 0.54985 0.58682
 C9 C 0.34864 0.56597 0.59778
 C10 C 0.37066 0.56298 0.52579
 C11 C 0.35247 0.54144 0.44445
 C12 C 0.31186 0.52505 0.43366
 H13 H 0.13433 0.47037 0.45869
 H14 H 0.24903 0.51986 0.34139
 H15 H 0.23246 0.50264 0.64036
 H16 H 0.29237 0.55373 0.64304
 H17 H 0.40198 0.57654 0.53533
 H18 H 0.29795 0.50805 0.37116
 C19 C 0.56334 -0.28594 0.45557
 C20 C 0.55583 -0.26523 0.38490
 C21 C 0.54585 -0.23709 0.41097
 C22 C 0.54813 -0.22548 0.50523
 C23 C 0.55386 -0.24808 0.57538
 C24 C 0.55835 -0.28066 0.55103
 C25 C 0.54301 -0.19079 0.52763
 C26 C 0.52756 -0.18787 0.61424
 C27 C 0.51969 -0.15701 0.62907
 C28 C 0.52605 -0.12962 0.55696
 C29 C 0.54196 -0.13152 0.47091
 C30 C 0.55160 -0.16113 0.45847
 H31 H 0.57034 -0.30821 0.43554
 H32 H 0.53718 -0.22359 0.35634
 H33 H 0.55346 -0.24145 0.64878
 H34 H 0.51979 -0.21026 0.66851
 H35 H 0.51716 -0.10779 0.56742
 H36 H 0.56514 -0.16121 0.39283
 C37 C 1.30330 0.85799 0.51218
 C38 C 1.28392 0.84257 0.42571
 C39 C 1.24978 0.80458 0.42552
 C40 C 1.23639 0.78098 0.50785
 C41 C 1.25886 0.79601 0.59043
 C42 C 1.29083 0.83478 0.59438
 C43 C 1.19900 0.74124 0.50936
 C44 C 1.17900 0.72588 0.59476
 C45 C 1.14449 0.68887 0.60040
 C46 C 1.12805 0.66751 0.51711
 C47 C 1.14753 0.68147 0.43045
 C48 C 1.18293 0.71830 0.42749
 H49 H 1.33000 0.88650 0.51599
 H50 H 1.23368 0.79373 0.36056
 H51 H 1.25181 0.77783 0.65319
 H52 H 1.18959 0.74300 0.65848
 H53 H 1.10103 0.63934 0.52018
 H54 H 1.19818 0.72830 0.36123
 C55 C 0.82927 0.47737 0.49538
 C56 C 0.81218 0.47678 0.40863
 C57 C 0.77739 0.47799 0.40695
 C58 C 0.76136 0.48379 0.49009
 C59 C 0.77972 0.48474 0.57615
 C60 C 0.81296 0.48090 0.57908
 C61 C 0.72720 0.49083 0.48653
 C62 C 0.70566 0.48845 0.56819
 C63 C 0.67641 0.49900 0.56622
 C64 C 0.66637 0.50853 0.47878
 C65 C 0.68619 0.50966 0.39681
 C66 C 0.71674 0.50175 0.40123
 H67 H 0.85455 0.47364 0.49843
 H68 H 0.76358 0.47477 0.33958
 H69 H 0.76949 0.48966 0.64186
 H70 H 0.71149 0.47877 0.63444
 H71 H 0.64171 0.51300 0.47174
 H72 H 0.73245 0.50521 0.33698
 C73 C 0.45817 0.32991 0.50471
 C74 C 0.46264 0.31618 0.41745
 C75 C 0.46374 0.28079 0.41442
 C76 C 0.45778 0.25723 0.49563
 C77 C 0.45311 0.27162 0.58206
 C78 C 0.45422 0.30827 0.58809
 C79 C 0.45701 0.21822 0.48941
 C80 C 0.46581 0.20119 0.56787
 C81 C 0.46656 0.16539 0.55888
 C82 C 0.45932 0.14759 0.47043
 C83 C 0.44987 0.16335 0.39303
 C84 C 0.44817 0.19800 0.40289
 H85 H 0.46115 0.35899 0.50795
 H86 H 0.47007 0.27234 0.34768
 H87 H 0.44836 0.25438 0.64569
 H88 H 0.47394 0.21661 0.63393
 H89 H 0.46142 0.12108 0.46097
 H90 H 0.43962 0.20862 0.34209
 C91 C 0.67597 0.13853 0.55522
 C92 C 0.68785 0.15582 0.46661
 C93 C 0.72765 0.18315 0.45001
 C94 C 0.75574 0.19290 0.52259
 C95 C 0.74274 0.17391 0.61091
 C96 C 0.70309 0.14719 0.62741
 C97 C 0.79798 0.22398 0.50848
 C98 C 0.82137 0.24676 0.58490
 C99 C 0.86096 0.27662 0.57240
 C100 C 0.87642 0.28414 0.48122
 C101 C 0.85335 0.26314 0.40379
 C102 C 0.81469 0.23256 0.41820
 H103 H 0.64499 0.11891 0.56883
 H104 H 0.73590 0.19805 0.38250
 H105 H 0.76313 0.17963 0.66766
 H106 H 0.80798 0.24231 0.65282
 H107 H 0.90593 0.30868 0.46975
 H108 H 0.79763 0.21616 0.35788
 O109 O 0.93550 0.48495 -0.10030
 O110 O 1.02963 0.49363 0.18717
 O111 O 0.92976 0.47419 0.06926
 O112 O 1.05928 0.55215 -0.08801
 O113 O 0.95848 0.46029 0.18227
 O114 O 1.00031 0.53872 -0.10594
 O115 O 1.06037 0.54478 0.09077
 O116 O 0.88863 0.42668 -0.06066
 C117 C 0.90067 0.45748 -0.11529
 C118 C 1.05121 0.53084 0.17280
 C119 C 0.93813 0.47520 0.15474
 C120 C 1.03555 0.56237 -0.11551
 O121 O 1.02449 0.49407 -0.19953
 O122 O 0.95849 0.39679 0.09233
 O123 O 0.93424 0.39881 -0.07000
 O124 O 1.07520 0.48809 0.06911
 O125 O 1.02606 0.43048 0.09510
 O126 O 0.95787 0.43778 -0.18867
 O127 O 1.06642 0.48947 -0.10692
 O128 O 0.90863 0.40153 0.08926
 Co129 Co 0.98069 0.48738 -0.13679
 Co130 Co 0.99290 0.44709 0.12865
 Co131 Co 0.93439 0.43846 -0.00375
 Co132 Co 1.05844 0.51413 -0.00850
 O133 O 0.99436 0.47206 -0.00211
 C134 C 1.05314 0.48861 -0.18757
 C135 C 0.92372 0.38198 0.11486
 C136 C 0.94083 0.40323 -0.15556
 C137 C 1.06163 0.45345 0.09956
 O138 O 0.46296 0.45803 -0.09840
 O139 O 0.49539 0.54805 0.18706
 O140 O 0.48698 0.44957 0.07290
 O141 O 0.46075 0.57610 -0.07384
 O142 O 0.51350 0.49413 0.18587
 O143 O 0.44183 0.51177 -0.09212
 O144 O 0.45546 0.54185 0.07290
 O145 O 0.50623 0.43799 -0.08368
 C146 C 0.47458 0.43401 -0.12331
 C147 C 0.46211 0.54173 0.15909
 C148 C 0.49168 0.45827 0.15941
 C149 C 0.43521 0.54069 -0.10556
 O150 O 0.50540 0.55997 -0.19350
 O151 O 0.58242 0.54591 0.10548
 O152 O 0.56411 0.50893 -0.09692
 O153 O 0.51812 0.60862 0.07281
 O154 O 0.56548 0.59842 0.10490
 O155 O 0.52514 0.51054 -0.19906
 O156 O 0.53580 0.60169 -0.08616
 O157 O 0.56043 0.48479 0.06457
 Co158 Co 0.48592 0.51120 -0.13391
 Co159 Co 0.53745 0.54552 0.13464
 Co160 Co 0.52338 0.48237 -0.01633
 Co161 Co 0.49572 0.56819 -0.01145
 O162 O 0.51492 0.52968 -0.00078
 C163 C 0.53022 0.59484 -0.17048
 C164 C 0.58592 0.51571 0.10503
 C165 C 0.55743 0.51390 -0.17949
 C166 C 0.55162 0.62089 0.10603
 O167 O 0.53328 0.00547 -0.15205
 O168 O 0.52540 -0.00727 0.17904
 O169 O 0.57038 0.06747 0.04832
 O170 O 0.48200 -0.07152 -0.02864
 O171 O 0.54367 0.06369 0.17636
 O172 O 0.46838 -0.05368 -0.15506
 O173 O 0.47625 -0.06383 0.13393
 O174 O 0.55865 0.06645 -0.10993
 C175 C 0.56236 0.03914 -0.14592
 C176 C 0.50801 -0.04445 0.17909
 C177 C 0.57425 0.07379 0.13277
 C178 C 0.48067 -0.07332 -0.11481
 O179 O 0.43615 -0.00938 -0.14362
 O180 O 0.46821 0.04051 0.16189
 O181 O 0.49453 0.07729 -0.07091
 O182 O 0.41418 -0.05032 0.09570
 O183 O 0.45309 -0.02604 0.20886
 O184 O 0.50002 0.04849 -0.18723
 O185 O 0.41538 -0.06443 -0.06479
 O186 O 0.51323 0.08950 0.08366
 Co187 Co 0.48527 -0.00104 -0.14162
 Co188 Co 0.49700 0.01685 0.16338
 Co189 Co 0.53044 0.06925 -0.01024
 Co190 Co 0.45089 -0.05629 0.03198
 O191 O 0.49081 0.00714 0.01091
 C192 C 0.40900 -0.04335 -0.12270
 C193 C 0.48288 0.07527 0.13329
 C194 C 0.49073 0.07199 -0.15585
 C195 C 0.41919 -0.04165 0.17944
 C196 C 1.17506 0.48923 0.29718
 C197 C 1.13776 0.46434 0.27283
 C198 C 1.12187 0.46917 0.18333
 C199 C 1.08536 0.44234 0.15796
 H200 H 1.11771 0.44158 0.32129
 H201 H 1.13762 0.49755 0.14662
 H202 H 1.19527 0.50793 0.24274
 H203 H 1.07007 0.41401 0.19504
 C204 C 0.55375 0.72456 0.28994
 C205 C 0.57259 0.70708 0.25585
 C206 C 0.55797 0.68142 0.17339
 C207 C 0.57367 0.65917 0.15332
 H208 H 0.59584 0.70701 0.29619
 H209 H 0.53046 0.67514 0.14182
 H210 H 0.53477 0.72948 0.24347
 H211 H 0.60095 0.66555 0.18653
 C212 C 0.29943 -0.13805 0.33872
 C213 C 0.32937 -0.10051 0.32997
 C214 C 0.35286 -0.08593 0.24315
 C215 C 0.38748 -0.05218 0.24677
 H216 H 0.33953 -0.08085 0.38967
 H217 H 0.34502 -0.10510 0.18247
 H218 H 0.28795 -0.15537 0.27518
 H219 H 0.39571 -0.03479 0.31063
 C220 C 0.82966 0.47368 0.31933
 C221 C 0.86832 0.48913 0.30899
 C222 C 0.88529 0.48223 0.22431
 C223 C 0.92238 0.49034 0.22588
 H224 H 0.88795 0.50578 0.36588
 H225 H 0.86664 0.46695 0.16482
 H226 H 0.81032 0.45862 0.26072
 H227 H 0.93978 0.50284 0.28876
 C228 C 0.46961 0.33960 0.32899
 C229 C 0.45990 0.36771 0.31690
 C230 C 0.47156 0.39306 0.23167
 C231 C 0.47213 0.42767 0.23261
 H232 H 0.44480 0.37364 0.37174
 H233 H 0.48333 0.38552 0.17192
 H234 H 0.48371 0.33365 0.27152
 H235 H 0.46341 0.43644 0.29584
 C236 C 0.65675 0.14691 0.39730
 C237 C 0.65526 0.13159 0.31282
 C238 C 0.61788 0.11289 0.26060
 C239 C 0.61310 0.09501 0.17794
 H240 H 0.67984 0.12949 0.28708
 H241 H 0.59289 0.11243 0.29280
 H242 H 0.63087 0.14655 0.42328
 H243 H 0.63788 0.09621 0.14289
 C244 C 0.47507 0.14624 -0.36785
 C245 C 0.47680 0.15372 -0.27535
 C246 C 0.48434 0.13008 -0.20379
 C247 C 0.47837 0.09340 -0.21996
 H248 H 0.47329 0.17779 -0.24987
 H249 H 0.49570 0.14375 -0.13629
 H250 H 0.47993 0.12256 -0.38943
 H251 H 0.46592 0.07850 -0.28544
 C252 C 0.65744 0.49859 -0.34928
 C253 C 0.63421 0.51437 -0.34074
 C254 C 0.61209 0.51055 -0.25426
 C255 C 0.58538 0.52199 -0.25584
 H256 H 0.63061 0.53048 -0.39835
 H257 H 0.61555 0.49616 -0.19244
 H258 H 0.66243 0.48544 -0.28712
 H259 H 0.58098 0.53439 -0.32013
 C260 C 0.88523 0.30186 -0.35527
 C261 C 0.87493 0.30051 -0.26478
 C262 C 0.89832 0.33236 -0.19577
 C263 C 0.92669 0.36930 -0.21973
 H264 H 0.84752 0.27645 -0.23855
 H265 H 0.88808 0.32644 -0.12381
 H266 H 0.91432 0.32484 -0.37584
 H267 H 0.93598 0.37687 -0.29182
 C268 C 0.50071 -0.15482 -0.28487
 C269 C 0.52153 -0.13707 -0.20758
 C270 C 0.50844 -0.11750 -0.13990
 C271 C 0.49035 -0.09843 -0.17120
 H272 H 0.55070 -0.13255 -0.19920
 H273 H 0.51794 -0.11446 -0.06750
 H274 H 0.47147 -0.15949 -0.29286
 H275 H 0.48435 -0.09866 -0.24556
 C276 C 0.36796 0.58105 -0.31161
 C277 C 0.36170 0.55474 -0.24348
 C278 C 0.39308 0.56284 -0.17659
 C279 C 0.39837 0.53307 -0.14840
 H280 H 0.33744 0.52437 -0.24979
 H281 H 0.41528 0.59351 -0.16278
 H282 H 0.39447 0.61006 -0.31069
 H283 H 0.37719 0.50262 -0.16717
 C284 C 1.12994 0.67311 -0.30969
 C285 C 1.09399 0.64264 -0.29240
 C286 C 1.08479 0.62105 -0.20225
 C287 C 1.04764 0.59712 -0.17713
 H288 H 1.07152 0.63162 -0.34602
 H289 H 1.10818 0.62048 -0.16365
 H290 H 1.14957 0.68598 -0.25023
 H291 H 1.02473 0.59879 -0.21533
 C292 C 0.83016 0.47969 -0.32972
 C293 C 0.86892 0.49948 -0.31718
 C294 C 0.88846 0.49600 -0.23268
 C295 C 0.87499 0.46225 -0.18245
 H296 H 0.88774 0.51948 -0.37181
 H297 H 0.91758 0.52082 -0.21937
 H298 H 0.81073 0.46274 -0.27256
 H299 H 0.84649 0.43664 -0.19682
 C300 C 0.45517 0.32374 -0.32219
 C301 C 0.45014 0.35473 -0.30586
 C302 C 0.46214 0.37597 -0.21597
 C303 C 0.45351 0.40410 -0.19615
 H304 H 0.43940 0.36644 -0.36006
 H305 H 0.48153 0.37138 -0.17031
 H306 H 0.46164 0.31048 -0.26249
 H307 H 0.43325 0.40785 -0.24048
 C308 C 0.68867 0.13168 -0.27756
 C309 C 0.66003 0.09400 -0.26593
 C310 C 0.63105 0.08289 -0.19088
 C311 C 0.59826 0.04747 -0.19430
 H312 H 0.65340 0.07312 -0.32274
 H313 H 0.63353 0.10548 -0.14273
 H314 H 0.69661 0.15292 -0.22114
 H315 H 0.59621 0.02502 -0.24236
 C316 C 1.15881 0.48366 -0.35778
 C317 C 1.12279 0.47910 -0.35697
 C318 C 1.10437 0.48115 -0.26872
 C319 C 1.07147 0.48293 -0.27132
 H320 H 1.10726 0.47677 -0.42128
 H321 H 1.11863 0.48308 -0.20221
 H322 H 1.17321 0.48757 -0.29043
 H323 H 1.05798 0.48171 -0.33860
 C324 C 0.55516 0.69164 -0.37907
 C325 C 0.54831 0.65466 -0.39871
 C326 C 0.53734 0.62242 -0.32897
 C327 C 0.54758 0.62808 -0.23858
 H328 H 0.54473 0.64432 -0.46997
 H329 H 0.51933 0.59228 -0.35450
 H330 H 0.55393 0.69893 -0.30646
 H331 H 0.56674 0.65787 -0.21244
 C332 C 0.31281 -0.15091 -0.31627
 C333 C 0.32876 -0.11319 -0.28744
 C334 C 0.35435 -0.09914 -0.20389
 C335 C 0.37334 -0.06057 -0.18071
 H336 H 0.32465 -0.09201 -0.32863
 H337 H 0.36146 -0.11948 -0.16848
 H338 H 0.31550 -0.17233 -0.27236
 H339 H 0.36744 -0.04009 -0.21966
 C340 C 0.54415 -0.10656 0.38896
 C341 C 0.54785 -0.07052 0.39691
 C342 C 0.54347 -0.04826 0.31743
 C343 C 0.52074 -0.06599 0.24231
 H344 H 0.55385 -0.05643 0.46490
 H345 H 0.55491 -0.01673 0.32816
 H346 H 0.54189 -0.11886 0.31979
 H347 H 0.50642 -0.09801 0.23464
 C348 C 0.37568 0.53649 0.36992
 C349 C 0.40869 0.53580 0.38905
 C350 C 0.43628 0.53625 0.31869
 C351 C 0.43141 0.53605 0.22569
 H352 H 0.41738 0.53626 0.46135
 H353 H 0.46294 0.53863 0.34615
 H354 H 0.36507 0.53360 0.29878
 H355 H 0.40500 0.53330 0.19601
 C356 C 1.13199 0.65817 0.34206
 C357 C 1.10669 0.61870 0.34053
 C358 C 1.09198 0.59612 0.25216
 C359 C 1.06623 0.55686 0.25565
 H360 H 1.09705 0.60190 0.40547
 H361 H 1.10248 0.61123 0.18522
 H362 H 1.14273 0.67390 0.27584
 H363 H 1.05629 0.54246 0.32359
 C364 C 0.44577 0.14541 0.29996
 C365 C 0.42662 0.10578 0.29084
 C366 C 0.43472 0.08460 0.21744
 C367 C 0.46870 0.10076 0.17042
 H368 H 0.40779 0.08733 0.34744
 H369 H 0.41543 0.05253 0.21681
 H370 H 0.46236 0.16486 0.24223
 H371 H 0.48890 0.13258 0.17029
 C372 C 0.67334 0.51672 0.30491
 C373 C 0.66274 0.54412 0.29463
 C374 C 0.64125 0.54686 0.21314
 C375 C 0.61760 0.51563 0.15913
 H376 H 0.66803 0.56457 0.35146
 H377 H 0.63976 0.57387 0.20858
 H378 H 0.67170 0.49839 0.24638
 H379 H 0.61727 0.48773 0.16558
 C380 C 0.86691 0.27760 0.30713
 C381 C 0.90492 0.29817 0.28432
 C382 C 0.92045 0.32628 0.20439
 C383 C 0.90259 0.34538 0.17119
 H384 H 0.92638 0.29766 0.33079
 H385 H 0.95039 0.33645 0.18394
 H386 H 0.84513 0.27480 0.25663
 H387 H 0.87349 0.33718 0.19451
   
