data_POSCAR
  _audit_creation_date              2014-09-24
  _audit_creation_method            'ToBaCCo'
  _symmetry_space_group_name_H-M    'P1'
  _symmetry_Int_Tables_number       1
  _symmetry_cell_setting            triclinic
  loop_
  _symmetry_equiv_pos_as_xyz
 x,y,z
_cell_length_a 38.4971
_cell_length_b 38.5051
_cell_length_c 38.1803
_cell_angle_alpha 88.551700
_cell_angle_beta 89.913100
_cell_angle_gamma 89.814400
loop_
  _atom_site_label
  _atom_site_type_symbol
  _atom_site_fract_x
  _atom_site_fract_y
  _atom_site_fract_z
C1 C 1.26269 0.21340 0.27608
 C2 C 1.24077 0.22918 0.25116
 C3 C 1.21916 0.20887 0.23072
 C4 C 1.21930 0.17278 0.23522
 C5 C 1.24126 0.15677 0.25996
 C6 C 1.26298 0.17719 0.28041
 C7 C 1.23818 0.26700 0.24829
 C8 C 1.25750 0.28564 0.22318
 C9 C 1.25384 0.32179 0.22004
 C10 C 1.23064 0.33925 0.24194
 C11 C 1.21127 0.32030 0.26691
 C12 C 1.21514 0.28432 0.27009
 H13 H 1.27903 0.22935 0.29227
 H14 H 1.20179 0.22125 0.21182
 H15 H 1.27524 0.27197 0.20619
 H16 H 1.20007 0.26969 0.28941
 H17 H 1.24120 0.12872 0.26343
 H18 H 1.22774 0.36725 0.23969
 C19 C 0.76456 -0.29452 0.27074
 C20 C 0.74441 -0.27364 0.24816
 C21 C 0.72133 -0.28894 0.22494
 C22 C 0.71837 -0.32512 0.22420
 C23 C 0.73854 -0.34618 0.24690
 C24 C 0.76165 -0.33075 0.27028
 C25 C 0.74586 -0.23576 0.25045
 C26 C 0.77043 -0.21657 0.23112
 C27 C 0.77168 -0.18037 0.23377
 C28 C 0.74840 -0.16337 0.25593
 C29 C 0.72389 -0.18272 0.27529
 C30 C 0.72264 -0.21880 0.27246
 H31 H 0.78206 -0.28243 0.28902
 H32 H 0.70547 -0.27264 0.20773
 H33 H 0.78838 -0.22978 0.21402
 H34 H 0.70376 -0.23377 0.28753
 H35 H 0.73608 -0.37422 0.24647
 H36 H 0.74935 -0.13537 0.25808
 C37 C 0.77103 0.21360 -0.23052
 C38 C 0.74660 0.23282 -0.25006
 C39 C 0.72335 0.21586 -0.27183
 C40 C 0.72442 0.17973 -0.27421
 C41 C 0.74880 0.16032 -0.25463
 C42 C 0.77211 0.17735 -0.23271
 C43 C 0.74515 0.27072 -0.24810
 C44 C 0.76535 0.29129 -0.27085
 C45 C 0.76218 0.32752 -0.27091
 C46 C 0.73877 0.34328 -0.24788
 C47 C 0.71857 0.32251 -0.22500
 C48 C 0.72179 0.28633 -0.22522
 H49 H 0.78896 0.22684 -0.21356
 H50 H 0.70453 0.23086 -0.28703
 H51 H 0.78302 0.27894 -0.28893
 H52 H 0.70584 0.27025 -0.20793
 H53 H 0.74958 0.13227 -0.25639
 H54 H 0.73604 0.37132 -0.24792
 C55 C 1.25643 -0.28653 -0.22511
 C56 C 1.23639 -0.26756 -0.24944
 C57 C 1.21370 -0.28472 -0.27157
 C58 C 1.21094 -0.32084 -0.26951
 C59 C 1.23099 -0.34008 -0.24530
 C60 C 1.25380 -0.32281 -0.22305
 C61 C 1.23827 -0.22967 -0.25143
 C62 C 1.26063 -0.21310 -0.27541
 C63 C 1.26071 -0.17683 -0.27859
 C64 C 1.23845 -0.15709 -0.25791
 C65 C 1.21608 -0.17381 -0.23408
 C66 C 1.21603 -0.21001 -0.23077
 H67 H 1.27396 -0.27301 -0.20793
 H68 H 1.19817 -0.26987 -0.29036
 H69 H 1.27758 -0.22841 -0.29172
 H70 H 1.19846 -0.22295 -0.21248
 H71 H 1.22896 -0.36818 -0.24395
 H72 H 1.23845 -0.12897 -0.26044
 C73 C 0.22680 0.27414 0.73092
 C74 C 0.24530 0.24904 0.75072
 C75 C 0.22709 0.22442 0.77132
 C76 C 0.19063 0.22505 0.77242
 C77 C 0.17234 0.25002 0.75225
 C78 C 0.19036 0.27450 0.73138
 C79 C 0.28368 0.24905 0.75049
 C80 C 0.30187 0.27501 0.76786
 C81 C 0.33833 0.27510 0.76816
 C82 C 0.35672 0.24931 0.75029
 C83 C 0.33865 0.22340 0.73252
 C84 C 0.30218 0.22321 0.73301
 H85 H 0.24079 0.29314 0.71496
 H86 H 0.24138 0.20527 0.78691
 H87 H 0.28751 0.29481 0.78157
 H88 H 0.28815 0.20327 0.71938
 H89 H 0.14416 0.25053 0.75285
 H90 H 0.38490 0.24935 0.75018
 C91 C 0.73049 0.76820 0.72903
 C92 C 0.74775 0.74183 0.74818
 C93 C 0.72854 0.71596 0.76586
 C94 C 0.69217 0.71663 0.76476
 C95 C 0.67497 0.74282 0.74533
 C96 C 0.69413 0.76854 0.72733
 C97 C 0.78586 0.74180 0.75056
 C98 C 0.80266 0.76660 0.77064
 C99 C 0.83890 0.76630 0.77364
 C100 C 0.85856 0.74150 0.75590
 C101 C 0.84178 0.71682 0.73550
 C102 C 0.80546 0.71682 0.73317
 H103 H 0.74543 0.78818 0.71535
 H104 H 0.74195 0.69590 0.78109
 H105 H 0.78746 0.78574 0.78437
 H106 H 0.79245 0.69775 0.71745
 H107 H 0.64678 0.74333 0.74442
 H108 H 0.88665 0.74142 0.75794
 C109 C 0.72016 0.28507 0.23514
 C110 C 0.73952 0.25895 0.25241
 C111 C 0.72234 0.23220 0.27100
 C112 C 0.68599 0.23175 0.27255
 C113 C 0.66672 0.25770 0.25494
 C114 C 0.68381 0.28425 0.23608
 C115 C 0.77767 0.25911 0.25015
 C116 C 0.79691 0.28451 0.26715
 C117 C 0.83325 0.28463 0.26493
 C118 C 0.85041 0.25968 0.24500
 C119 C 0.83115 0.23448 0.22764
 C120 C 0.79490 0.23403 0.23057
 H121 H 0.73338 0.30545 0.22028
 H122 H 0.73727 0.21200 0.28442
 H123 H 0.78360 0.30379 0.28251
 H124 H 0.78001 0.21458 0.21712
 H125 H 0.63857 0.25710 0.25571
 H126 H 0.87851 0.25986 0.24305
 C127 C 0.23136 0.77763 0.23083
 C128 C 0.24985 0.75286 0.25105
 C129 C 0.23167 0.72752 0.27075
 C130 C 0.19522 0.72706 0.27053
 C131 C 0.17690 0.75171 0.25001
 C132 C 0.19490 0.77692 0.22999
 C133 C 0.28822 0.75290 0.25095
 C134 C 0.30663 0.77836 0.26884
 C135 C 0.34310 0.77816 0.26902
 C136 C 0.36124 0.75263 0.25056
 C137 C 0.34291 0.72726 0.23232
 C138 C 0.30649 0.72734 0.23289
 H139 H 0.24542 0.79695 0.21531
 H140 H 0.24598 0.70841 0.28637
 H141 H 0.29254 0.79800 0.28302
 H142 H 0.29228 0.70780 0.21886
 H143 H 0.14871 0.75119 0.24951
 H144 H 0.38940 0.75251 0.25041
 O145 O 1.05940 0.01718 0.04559
 O146 O 0.94044 -0.01643 0.04683
 O147 O 0.98054 0.06025 0.04259
 O148 O 1.02109 -0.05780 0.04758
 O149 O 0.93292 0.04160 0.02298
 O150 O 1.06830 -0.04044 0.02524
 O151 O 0.96218 -0.06480 0.03131
 O152 O 1.03906 0.06568 0.02652
 C153 C 1.05467 0.04841 0.04979
 C154 C 0.94507 -0.04771 0.05282
 C155 C 0.94890 0.05786 0.04562
 C156 C 1.05288 -0.05603 0.04955
 O157 O 1.05966 -0.01581 -0.04133
 O158 O 0.94019 0.01656 -0.04218
 O159 O 1.02017 0.05893 -0.04305
 O160 O 0.98172 -0.05957 -0.03800
 O161 O 0.93370 -0.04154 -0.01838
 O162 O 1.06764 0.04196 -0.02091
 O163 O 1.04018 -0.06444 -0.02199
 O164 O 0.96113 0.06518 -0.02675
 Co165 Co 1.05721 0.00069 0.00215
 Co166 Co 0.94326 0.00008 0.00232
 Co167 Co 1.00029 0.05665 -0.00002
 Co168 Co 1.00125 -0.05579 0.00458
 O169 O 1.00043 0.00041 0.00226
 C170 C 1.05533 -0.04708 -0.04547
 C171 C 0.94442 0.04785 -0.04826
 C172 C 1.05199 0.05744 -0.04514
 C173 C 0.95007 -0.05750 -0.04109
 O174 O 1.06664 0.52802 0.53411
 O175 O 0.91384 0.47339 0.51289
 O176 O 0.97066 0.56426 0.52305
 O177 O 1.01945 0.44979 0.55175
 O178 O 0.95175 0.51498 0.54474
 O179 O 1.06831 0.46285 0.52818
 O180 O 0.95866 0.45163 0.54046
 O181 O 1.03345 0.57041 0.51290
 C182 C 1.05620 0.55886 0.53427
 C183 C 0.92615 0.45058 0.53502
 C184 C 0.95717 0.54678 0.54803
 C185 C 1.05151 0.44949 0.55296
 O186 O 1.06436 0.47160 0.46051
 O187 O 0.92431 0.53514 0.48755
 O188 O 1.02303 0.55312 0.44451
 O189 O 0.97116 0.43525 0.47211
 O190 O 0.94764 0.48329 0.45580
 O191 O 1.07083 0.53588 0.46735
 O192 O 1.03300 0.42994 0.48459
 O193 O 0.96403 0.54783 0.45250
 Co194 Co 1.06135 0.49958 0.49746
 Co195 Co 0.95175 0.49803 0.50042
 Co196 Co 0.99798 0.55440 0.48452
 Co197 Co 0.99622 0.44686 0.51073
 O198 O 1.00403 0.50126 0.49709
 C199 C 1.05402 0.44095 0.46136
 C200 C 0.93301 0.55070 0.46032
 C201 C 1.05498 0.55181 0.44361
 C202 C 0.95423 0.45250 0.44990
 O203 O 0.56856 0.02685 0.53942
 O204 O 0.42815 -0.03500 0.51237
 O205 O 0.47577 0.06408 0.52986
 O206 O 0.52704 -0.05450 0.55422
 O207 O 0.45172 0.01611 0.54533
 O208 O 0.57476 -0.03717 0.53131
 O209 O 0.46820 -0.04871 0.54660
 O210 O 0.53752 0.06925 0.51624
 C211 C 0.55883 0.05773 0.53895
 C212 C 0.43730 -0.05170 0.53869
 C213 C 0.45837 0.04685 0.55170
 C214 C 0.55894 -0.05296 0.55510
 O215 O 0.57020 -0.02816 0.46460
 O216 O 0.41759 0.02723 0.48909
 O217 O 0.52269 0.05044 0.44912
 O218 O 0.47447 -0.06392 0.47580
 O219 O 0.45497 -0.01422 0.45540
 O220 O 0.57183 0.03670 0.47170
 O221 O 0.53747 -0.07077 0.48556
 O222 O 0.46236 0.04882 0.46167
 Co223 Co 0.56519 -0.00039 0.50190
 Co224 Co 0.45554 0.00203 0.50021
 Co225 Co 0.50024 0.05298 0.49056
 Co226 Co 0.50199 -0.05495 0.51436
 O227 O 0.50794 -0.00165 0.50288
 C228 C 0.56021 -0.05906 0.46426
 C229 C 0.43014 0.05090 0.46817
 C230 C 0.55469 0.05020 0.44727
 C231 C 0.46018 -0.04610 0.45149
 O232 O 0.56092 0.52849 0.03391
 O233 O 0.40780 0.47429 0.01122
 O234 O 0.46511 0.56510 0.02262
 O235 O 0.51270 0.45106 0.05157
 O236 O 0.44543 0.51592 0.04395
 O237 O 0.56188 0.46349 0.02837
 O238 O 0.45236 0.45264 0.03908
 O239 O 0.52825 0.57117 0.01257
 C240 C 0.55116 0.55954 0.03381
 C241 C 0.42008 0.45098 0.03278
 C242 C 0.45093 0.54779 0.04733
 C243 C 0.54470 0.45144 0.05349
 O244 O 0.55853 0.47187 -0.03959
 O245 O 0.41867 0.53589 -0.01333
 O246 O 0.51759 0.55391 -0.05575
 O247 O 0.46605 0.43594 -0.02882
 O248 O 0.44214 0.48385 -0.04530
 O249 O 0.56522 0.53589 -0.03297
 O250 O 0.52768 0.43029 -0.01509
 O251 O 0.45869 0.54878 -0.04791
 Co252 Co 0.55550 0.49994 -0.00268
 Co253 Co 0.44593 0.49880 -0.00051
 Co254 Co 0.49257 0.55520 -0.01583
 Co255 Co 0.49038 0.44763 0.01022
 O256 O 0.49831 0.50195 -0.00339
 C257 C 0.54886 0.44106 -0.03829
 C258 C 0.42773 0.55193 -0.04009
 C259 C 0.54944 0.55140 -0.05700
 C260 C 0.44894 0.45296 -0.05111
 C261 C 1.14144 0.11650 0.11700
 C262 C 1.13041 0.14198 0.14564
 C263 C 1.15258 0.12110 0.17218
 C264 C 1.16392 0.09586 0.14387
 C265 C 1.11031 0.09346 0.12696
 C266 C 1.13246 0.07254 0.15349
 C267 C 1.09889 0.11870 0.15526
 C268 C 1.12147 0.09808 0.18228
 C269 C 1.17653 0.13758 0.19604
 C270 C 1.19628 0.15272 0.21449
 C271 C 1.08826 0.07812 0.10061
 C272 C 1.07185 0.06499 0.07780
 H273 H 1.14931 0.12394 0.08985
 H274 H 1.12993 0.17074 0.14274
 H275 H 1.19091 0.08666 0.13954
 H276 H 1.13292 0.04377 0.15635
 H277 H 1.07189 0.12788 0.15953
 H278 H 1.11370 0.09070 0.20947
 C279 C 1.13317 0.64111 0.60380
 C280 C 1.11971 0.65842 0.63744
 C281 C 1.14581 0.63653 0.65905
 C282 C 1.15956 0.61951 0.62585
 C283 C 1.10631 0.61216 0.60947
 C284 C 1.13243 0.59035 0.63115
 C285 C 1.09245 0.62915 0.64266
 C286 C 1.11896 0.60757 0.66476
 C287 C 1.16863 0.65018 0.68581
 C288 C 1.18790 0.66246 0.70684
 C289 C 1.08597 0.59656 0.58185
 C290 C 1.07119 0.58095 0.55953
 H291 H 1.13866 0.65477 0.57845
 H292 H 1.11483 0.68662 0.64048
 H293 H 1.18738 0.61559 0.61932
 H294 H 1.13740 0.56216 0.62819
 H295 H 1.06459 0.63301 0.64911
 H296 H 1.11350 0.59391 0.69011
 C297 C 0.64150 0.13908 0.60218
 C298 C 0.63037 0.15925 0.63501
 C299 C 0.65593 0.13716 0.65710
 C300 C 0.66738 0.11729 0.62468
 C301 C 0.61314 0.11218 0.61055
 C302 C 0.63874 0.09018 0.63270
 C303 C 0.60159 0.13203 0.64296
 C304 C 0.62758 0.11025 0.66550
 C305 C 0.68034 0.15101 0.68244
 C306 C 0.70059 0.16327 0.70262
 C307 C 0.59096 0.09619 0.58450
 C308 C 0.57486 0.08026 0.56328
 H309 H 0.64688 0.15084 0.57589
 H310 H 0.62728 0.18786 0.63633
 H311 H 0.69466 0.11128 0.61751
 H312 H 0.64191 0.06157 0.63146
 H313 H 0.57428 0.13798 0.65007
 H314 H 0.62223 0.09848 0.69178
 C315 C 0.63508 0.63929 0.09844
 C316 C 0.62410 0.65881 0.13174
 C317 C 0.64938 0.63598 0.15341
 C318 C 0.66068 0.61673 0.12053
 C319 C 0.60640 0.61252 0.10609
 C320 C 0.63172 0.58977 0.12783
 C321 C 0.59500 0.63174 0.13896
 C322 C 0.62070 0.60920 0.16107
 C323 C 0.67390 0.64880 0.17932
 C324 C 0.69427 0.65997 0.20012
 C325 C 0.58398 0.59724 0.07968
 C326 C 0.56759 0.58177 0.05827
 H327 H 0.64068 0.65159 0.07244
 H328 H 0.62129 0.68740 0.13369
 H329 H 0.68790 0.61058 0.11326
 H330 H 0.63461 0.56118 0.12595
 H331 H 0.56775 0.63784 0.14616
 H332 H 0.61513 0.59689 0.18706
 C333 C 0.85582 -0.12011 0.11707
 C334 C 0.86629 -0.14646 0.14648
 C335 C 0.84208 -0.12755 0.17179
 C336 C 0.83131 -0.10144 0.14270
 C337 C 0.88560 -0.09635 0.12825
 C338 C 0.86140 -0.07741 0.15355
 C339 C 0.89645 -0.12245 0.15732
 C340 C 0.87183 -0.10381 0.18308
 C341 C 0.81727 -0.14546 0.19501
 C342 C 0.79654 -0.16092 0.21314
 C343 C 0.90867 -0.07909 0.10278
 C344 C 0.92620 -0.06485 0.08060
 H345 H 0.84949 -0.12667 0.08967
 H346 H 0.86800 -0.17505 0.14380
 H347 H 0.80428 -0.09298 0.13692
 H348 H 0.85969 -0.04881 0.15619
 H349 H 0.92349 -0.13088 0.16304
 H350 H 0.87809 -0.09729 0.21051
 C351 C 0.82871 0.38390 0.60102
 C352 C 0.84031 0.35697 0.62949
 C353 C 0.82109 0.37806 0.65721
 C354 C 0.80913 0.40475 0.62915
 C355 C 0.86159 0.40504 0.60817
 C356 C 0.84239 0.42616 0.63588
 C357 C 0.87351 0.37834 0.63625
 C358 C 0.85398 0.39919 0.66436
 C359 C 0.79899 0.36182 0.68419
 C360 C 0.78137 0.34672 0.70575
 C361 C 0.88441 0.42021 0.58119
 C362 C 0.90340 0.43342 0.55962
 H363 H 0.81860 0.37772 0.57469
 H364 H 0.83921 0.32831 0.62718
 H365 H 0.78244 0.41549 0.62658
 H366 H 0.84352 0.45482 0.63817
 H367 H 0.90020 0.36759 0.63884
 H368 H 0.86409 0.40537 0.69069
 C369 C 0.33714 -0.12165 0.59521
 C370 C 0.34762 -0.14925 0.62351
 C371 C 0.32604 -0.12959 0.65050
 C372 C 0.31515 -0.10227 0.62262
 C373 C 0.36875 -0.09993 0.60538
 C374 C 0.34717 -0.08028 0.63237
 C375 C 0.37962 -0.12725 0.63327
 C376 C 0.35766 -0.10786 0.66064
 C377 C 0.30256 -0.14614 0.67575
 C378 C 0.28340 -0.15998 0.69661
 C379 C 0.39281 -0.08322 0.58080
 C380 C 0.41298 -0.06907 0.56118
 H381 H 0.32906 -0.12709 0.56800
 H382 H 0.34748 -0.17782 0.62024
 H383 H 0.28835 -0.09223 0.61862
 H384 H 0.34731 -0.05171 0.63565
 H385 H 0.40642 -0.13730 0.63728
 H386 H 0.36577 -0.10241 0.68784
 C387 C 0.32333 0.37807 0.09250
 C388 C 0.33491 0.35139 0.12126
 C389 C 0.31337 0.37124 0.14817
 C390 C 0.30141 0.39763 0.11985
 C391 C 0.35469 0.40070 0.10149
 C392 C 0.33315 0.42055 0.12840
 C393 C 0.36661 0.37430 0.12982
 C394 C 0.34472 0.39387 0.15712
 C395 C 0.29094 0.35436 0.17431
 C396 C 0.27315 0.33960 0.19586
 C397 C 0.37794 0.41752 0.07607
 C398 C 0.39721 0.43221 0.05585
 H399 H 0.31488 0.37175 0.06562
 H400 H 0.33533 0.32274 0.11866
 H401 H 0.27435 0.40703 0.11612
 H402 H 0.33273 0.44919 0.13101
 H403 H 0.39366 0.36489 0.13358
 H404 H 0.35320 0.40021 0.18399
 C405 C 0.89575 0.10974 -0.16117
 C406 C 0.86319 0.09241 -0.17698
 C407 C 0.84205 0.12531 -0.16944
 C408 C 0.87418 0.14292 -0.15408
 C409 C 0.88532 0.09518 -0.12485
 C410 C 0.86414 0.12807 -0.11741
 C411 C 0.85318 0.07758 -0.14022
 C412 C 0.83171 0.11072 -0.13311
 C413 C 0.81738 0.14273 -0.19320
 C414 C 0.79677 0.15796 -0.21173
 C415 C 0.90824 0.07851 -0.09885
 C416 C 0.92566 0.06466 -0.07631
 H417 H 0.92236 0.10916 -0.17239
 H418 H 0.86247 0.07794 -0.20174
 H419 H 0.88253 0.16999 -0.16006
 H420 H 0.86481 0.14259 -0.09267
 H421 H 0.84483 0.05051 -0.13424
 H422 H 0.80513 0.11126 -0.12182
 C423 C 0.87524 0.60473 0.35242
 C424 C 0.84402 0.58559 0.33624
 C425 C 0.82166 0.61824 0.34095
 C426 C 0.85255 0.63758 0.35675
 C427 C 0.86367 0.59183 0.38901
 C428 C 0.84130 0.62448 0.39369
 C429 C 0.83280 0.57241 0.37327
 C430 C 0.81005 0.60535 0.37753
 C431 C 0.79895 0.63446 0.31445
 C432 C 0.78103 0.64975 0.29325
 C433 C 0.88769 0.57749 0.41539
 C434 C 0.90807 0.56557 0.43641
 H435 H 0.90232 0.60439 0.34240
 H436 H 0.84487 0.56976 0.31235
 H437 H 0.86047 0.66455 0.34964
 H438 H 0.84045 0.64033 0.41756
 H439 H 0.82495 0.54543 0.38042
 H440 H 0.78296 0.60572 0.38753
 C441 C 0.37682 0.11266 0.36254
 C442 C 0.34235 0.09715 0.34932
 C443 C 0.32500 0.13278 0.35324
 C444 C 0.35912 0.14857 0.36605
 C445 C 0.36585 0.10335 0.40029
 C446 C 0.34851 0.13899 0.40426
 C447 C 0.33171 0.08758 0.38745
 C448 C 0.31398 0.12349 0.39098
 C449 C 0.30241 0.14882 0.32682
 C450 C 0.28387 0.16203 0.30497
 C451 C 0.38867 0.08607 0.42570
 C452 C 0.40759 0.07067 0.44569
 H453 H 0.40296 0.10801 0.35122
 H454 H 0.33952 0.08018 0.32643
 H455 H 0.37007 0.17384 0.35686
 H456 H 0.35137 0.15592 0.42717
 H457 H 0.32075 0.06231 0.39662
 H458 H 0.28784 0.12813 0.40226
 C459 C 0.36842 0.60927 -0.14554
 C460 C 0.33457 0.59258 -0.15898
 C461 C 0.31550 0.62709 -0.15344
 C462 C 0.34899 0.64402 -0.14037
 C463 C 0.35844 0.59799 -0.10800
 C464 C 0.33936 0.63250 -0.10246
 C465 C 0.32496 0.58101 -0.12103
 C466 C 0.30548 0.61582 -0.11590
 C467 C 0.29226 0.64406 -0.17881
 C468 C 0.27383 0.65907 -0.19967
 C469 C 0.38278 0.58191 -0.08311
 C470 C 0.40318 0.56847 -0.06314
 H471 H 0.39459 0.60642 -0.15740
 H472 H 0.33229 0.57638 -0.18251
 H473 H 0.35859 0.67012 -0.14866
 H474 H 0.34164 0.64871 -0.07894
 H475 H 0.31540 0.55491 -0.11272
 H476 H 0.27930 0.61869 -0.10408
 C477 C 1.10595 -0.08794 -0.16335
 C478 C 1.14581 -0.08270 -0.16594
 C479 C 1.15031 -0.12206 -0.16949
 C480 C 1.11088 -0.12764 -0.16738
 C481 C 1.10951 -0.09310 -0.12351
 C482 C 1.11405 -0.13245 -0.12710
 C483 C 1.14895 -0.08756 -0.12570
 C484 C 1.15379 -0.12714 -0.12965
 C485 C 1.17361 -0.13904 -0.19382
 C486 C 1.19305 -0.15421 -0.21272
 C487 C 1.08821 -0.07710 -0.09681
 C488 C 1.07227 -0.06365 -0.07376
 H489 H 1.08593 -0.07164 -0.17677
 H490 H 1.15919 -0.06252 -0.18221
 H491 H 1.09560 -0.14432 -0.18491
 H492 H 1.10070 -0.15264 -0.11083
 H493 H 1.16429 -0.07090 -0.10819
 H494 H 1.17377 -0.14340 -0.11612
 C495 C 1.09221 0.38045 0.34885
 C496 C 1.12594 0.39803 0.33519
 C497 C 1.14439 0.36269 0.33729
 C498 C 1.11107 0.34476 0.35048
 C499 C 1.10397 0.38667 0.38658
 C500 C 1.12244 0.35132 0.38870
 C501 C 1.13734 0.40449 0.37329
 C502 C 1.15608 0.36895 0.37502
 C503 C 1.16780 0.34927 0.31078
 C504 C 1.18761 0.33708 0.29006
 C505 C 1.08334 0.40228 0.41411
 C506 C 1.06857 0.41818 0.43634
 H507 H 1.06563 0.38522 0.33854
 H508 H 1.12774 0.41707 0.31295
 H509 H 1.10060 0.32003 0.34061
 H510 H 1.12066 0.33230 0.41096
 H511 H 1.14793 0.42922 0.38306
 H512 H 1.18264 0.36421 0.38541
 C513 C 0.60492 -0.11718 0.35274
 C514 C 0.64107 -0.10239 0.34270
 C515 C 0.65611 -0.13934 0.34469
 C516 C 0.62034 -0.15447 0.35431
 C517 C 0.61401 -0.11342 0.39162
 C518 C 0.62905 -0.15038 0.39365
 C519 C 0.64981 -0.09839 0.38192
 C520 C 0.66516 -0.13555 0.38357
 C521 C 0.68018 -0.15367 0.31914
 C522 C 0.70021 -0.16619 0.29875
 C523 C 0.59218 -0.09712 0.41792
 C524 C 0.57625 -0.08121 0.43942
 H525 H 0.57983 -0.10956 0.34044
 H526 H 0.64633 -0.08281 0.32153
 H527 H 0.60854 -0.17771 0.34255
 H528 H 0.62378 -0.16993 0.41484
 H529 H 0.66170 -0.07516 0.39361
 H530 H 0.69023 -0.14314 0.39593
 C531 C 0.59624 0.38268 -0.14819
 C532 C 0.63216 0.39861 -0.15721
 C533 C 0.64822 0.36207 -0.15552
 C534 C 0.61269 0.34582 -0.14691
 C535 C 0.60435 0.38605 -0.10904
 C536 C 0.62040 0.34950 -0.10728
 C537 C 0.63993 0.40219 -0.11775
 C538 C 0.65630 0.36547 -0.11637
 C539 C 0.67325 0.34904 -0.18097
 C540 C 0.69402 0.33769 -0.20139
 C541 C 0.58158 0.40180 -0.08309
 C542 C 0.56508 0.41788 -0.06210
 H543 H 0.57123 0.38980 -0.16095
 H544 H 0.63731 0.41869 -0.17793
 H545 H 0.60179 0.32248 -0.15929
 H546 H 0.61525 0.32946 -0.08653
 H547 H 0.65094 0.42554 -0.10544
 H548 H 0.68130 0.35838 -0.10358
 C549 C 1.14330 0.12694 -0.11506
 C550 C 1.14851 0.12044 -0.15463
 C551 C 1.13863 0.15851 -0.16280
 C552 C 1.13369 0.16531 -0.12360
 C553 C 1.10482 0.11708 -0.11861
 C554 C 1.09497 0.15516 -0.12681
 C555 C 1.10971 0.11022 -0.15781
 C556 C 1.10014 0.14866 -0.16636
 C557 C 1.15752 0.18217 -0.18691
 C558 C 1.17305 0.20208 -0.20623
 C559 C 1.08593 0.09470 -0.09328
 C560 C 1.07043 0.07717 -0.07174
 H561 H 1.16092 0.11780 -0.09374
 H562 H 1.17073 0.10636 -0.16630
 H563 H 1.14371 0.18819 -0.10970
 H564 H 1.07276 0.16927 -0.11515
 H565 H 1.09968 0.08733 -0.17166
 H566 H 1.08254 0.15782 -0.18769
 C567 C 1.14854 0.61544 0.37024
 C568 C 1.14593 0.61717 0.32971
 C569 C 1.14296 0.65695 0.33103
 C570 C 1.14585 0.65555 0.37119
 C571 C 1.10873 0.61319 0.37247
 C572 C 1.10581 0.65298 0.37374
 C573 C 1.10579 0.61453 0.33231
 C574 C 1.10315 0.65470 0.33326
 C575 C 1.16201 0.68196 0.30852
 C576 C 1.17761 0.70296 0.29051
 C577 C 1.08956 0.58973 0.39653
 C578 C 1.07378 0.57165 0.41737
 H579 H 1.16706 0.59906 0.38565
 H580 H 1.16264 0.60267 0.31136
 H581 H 1.16248 0.67265 0.38701
 H582 H 1.08912 0.66753 0.39206
 H583 H 1.08914 0.59742 0.31653
 H584 H 1.08463 0.67109 0.31786
 C585 C 0.64383 0.11510 0.37062
 C586 C 0.64003 0.11738 0.33019
 C587 C 0.63606 0.15700 0.33233
 C588 C 0.64013 0.15507 0.37235
 C589 C 0.60419 0.11181 0.37390
 C590 C 0.60028 0.15144 0.37595
 C591 C 0.60005 0.11367 0.33389
 C592 C 0.59642 0.15371 0.33561
 C593 C 0.65383 0.18298 0.31014
 C594 C 0.66847 0.20497 0.29267
 C595 C 0.58644 0.08791 0.39839
 C596 C 0.57188 0.06976 0.41994
 H597 H 0.66313 0.09894 0.38524
 H598 H 0.65661 0.10369 0.31110
 H599 H 0.65676 0.17236 0.38795
 H600 H 0.58374 0.16521 0.39501
 H601 H 0.58338 0.09634 0.31835
 H602 H 0.57711 0.16989 0.32100
 C603 C 0.64323 0.60836 -0.13449
 C604 C 0.63989 0.60872 -0.17496
 C605 C 0.63805 0.64859 -0.17497
 C606 C 0.64169 0.64853 -0.13491
 C607 C 0.60344 0.60742 -0.13153
 C608 C 0.60168 0.64729 -0.13161
 C609 C 0.59973 0.60739 -0.17158
 C610 C 0.59827 0.64765 -0.17201
 C611 C 0.65747 0.67245 -0.19806
 C612 C 0.67364 0.69289 -0.21600
 C613 C 0.58418 0.58574 -0.10621
 C614 C 0.56832 0.56927 -0.08428
 H615 H 0.66150 0.59194 -0.11880
 H616 H 0.65584 0.59316 -0.19309
 H617 H 0.65914 0.66571 -0.12006
 H618 H 0.58577 0.66293 -0.11352
 H619 H 0.58226 0.59019 -0.18635
 H620 H 0.58001 0.66409 -0.18769
 C621 C 0.88333 -0.15072 -0.10510
 C622 C 0.85894 -0.14111 -0.13610
 C623 C 0.88169 -0.16314 -0.16018
 C624 C 0.90585 -0.17308 -0.12953
 C625 C 0.90586 -0.11904 -0.11475
 C626 C 0.92860 -0.14107 -0.13883
 C627 C 0.88171 -0.10903 -0.14538
 C628 C 0.90422 -0.13146 -0.16988
 C629 C 0.86775 -0.18816 -0.18476
 C630 C 0.85532 -0.20894 -0.20418
 C631 C 0.92003 -0.09545 -0.08889
 C632 C 0.93290 -0.07731 -0.06719
 H633 H 0.87482 -0.15837 -0.07821
 H634 H 0.83012 -0.14143 -0.13525
 H635 H 0.91568 -0.19965 -0.12329
 H636 H 0.95743 -0.14076 -0.13968
 H637 H 0.87190 -0.08244 -0.15156
 H638 H 0.91271 -0.12386 -0.19679
 C639 C 0.88790 0.40871 0.34057
 C640 C 0.90782 0.38598 0.31411
 C641 C 0.88491 0.35490 0.32496
 C642 C 0.86477 0.37724 0.35096
 C643 C 0.91388 0.39742 0.36920
 C644 C 0.89094 0.36630 0.37988
 C645 C 0.93409 0.37510 0.34323
 C646 C 0.91088 0.34369 0.35362
 C647 C 0.86776 0.33037 0.30188
 C648 C 0.85262 0.30967 0.28433
 C649 C 0.92921 0.41956 0.39574
 C650 C 0.94105 0.43584 0.41949
 H651 H 0.87864 0.43569 0.33546
 H652 H 0.91460 0.39377 0.28676
 H653 H 0.83609 0.37785 0.35396
 H654 H 0.88409 0.35839 0.40719
 H655 H 0.96278 0.37452 0.34031
 H656 H 0.92017 0.31673 0.35881
 C657 C 0.44101 -0.12802 0.34786
 C658 C 0.41787 -0.15923 0.35909
 C659 C 0.39229 -0.14945 0.32955
 C660 C 0.41517 -0.11855 0.31790
 C661 C 0.42024 -0.10476 0.37256
 C662 C 0.39465 -0.09490 0.34304
 C663 C 0.39734 -0.13569 0.38407
 C664 C 0.37157 -0.12617 0.35427
 C665 C 0.37588 -0.17501 0.30674
 C666 C 0.36151 -0.19630 0.28905
 C667 C 0.43525 -0.08121 0.39834
 C668 C 0.44699 -0.06380 0.42145
 H669 H 0.46974 -0.12854 0.34538
 H670 H 0.42732 -0.18589 0.36558
 H671 H 0.42240 -0.11174 0.29043
 H672 H 0.38521 -0.06823 0.33662
 H673 H 0.39005 -0.14260 0.41151
 H674 H 0.34284 -0.12564 0.35680
 C675 C 0.41375 0.35434 -0.12529
 C676 C 0.37483 0.35074 -0.13439
 C677 C 0.38461 0.34801 -0.17329
 C678 C 0.42340 0.35130 -0.16448
 C679 C 0.41057 0.39399 -0.13044
 C680 C 0.42045 0.39136 -0.16932
 C681 C 0.37178 0.39065 -0.13926
 C682 C 0.38137 0.38764 -0.17854
 C683 C 0.36919 0.32168 -0.19589
 C684 C 0.35538 0.29980 -0.21328
 C685 C 0.42464 0.41806 -0.10464
 C686 C 0.43589 0.43559 -0.08139
 H687 H 0.42719 0.34077 -0.10314
 H688 H 0.35599 0.33380 -0.12011
 H689 H 0.44454 0.33487 -0.17500
 H690 H 0.43931 0.40834 -0.18351
 H691 H 0.35062 0.40706 -0.12874
 H692 H 0.36790 0.40113 -0.20070
 C693 C 1.09010 -0.14015 0.14963
 C694 C 1.11578 -0.16898 0.13868
 C695 C 1.14173 -0.15645 0.16616
 C696 C 1.11634 -0.12794 0.17749
 C697 C 1.10692 -0.11521 0.12253
 C698 C 1.13287 -0.10262 0.14999
 C699 C 1.13233 -0.14374 0.11127
 C700 C 1.15856 -0.13151 0.13907
 C701 C 1.16113 -0.18007 0.18994
 C702 C 1.17702 -0.20001 0.20896
 C703 C 1.08752 -0.09296 0.09745
 C704 C 1.07166 -0.07557 0.07605
 H705 H 1.06174 -0.14350 0.15377
 H706 H 1.10891 -0.19649 0.13421
 H707 H 1.10993 -0.12166 0.20497
 H708 H 1.13970 -0.07509 0.15443
 H709 H 1.13875 -0.15005 0.08380
 H710 H 1.18691 -0.12817 0.13493
 C711 C 1.09437 0.38255 0.66538
 C712 C 1.09786 0.34284 0.66044
 C713 C 1.13683 0.34522 0.66878
 C714 C 1.13366 0.38457 0.67411
 C715 C 1.10305 0.38861 0.62639
 C716 C 1.14201 0.39100 0.63473
 C717 C 1.10626 0.34926 0.62113
 C718 C 1.14545 0.35133 0.62979
 C719 C 1.15580 0.32046 0.69174
 C720 C 1.17149 0.29969 0.71004
 C721 C 1.08434 0.41188 0.60167
 C722 C 1.06920 0.42982 0.58016
 H723 H 1.07319 0.39563 0.67981
 H724 H 1.07985 0.32279 0.67118
 H725 H 1.14513 0.39887 0.69614
 H726 H 1.16003 0.41104 0.62396
 H727 H 1.09482 0.33489 0.59912
 H728 H 1.16660 0.33826 0.61530
 C729 C 0.60315 -0.12056 0.66542
 C730 C 0.60547 -0.16023 0.65987
 C731 C 0.64453 -0.15898 0.66789
 C732 C 0.64255 -0.11970 0.67383
 C733 C 0.61171 -0.11426 0.62647
 C734 C 0.65077 -0.11299 0.63446
 C735 C 0.61374 -0.15356 0.62061
 C736 C 0.65303 -0.15265 0.62893
 C737 C 0.66265 -0.18468 0.69017
 C738 C 0.67745 -0.20643 0.70786
 C739 C 0.59318 -0.09058 0.60234
 C740 C 0.57767 -0.07253 0.58137
 H741 H 0.58245 -0.10706 0.68015
 H742 H 0.58704 -0.17995 0.67054
 H743 H 0.65463 -0.10610 0.69600
 H744 H 0.66918 -0.09328 0.62376
 H745 H 0.60169 -0.16725 0.59847
 H746 H 0.67371 -0.16613 0.61416
 C747 C 0.58527 0.38971 0.16936
 C748 C 0.59049 0.35010 0.16507
 C749 C 0.62895 0.35416 0.17477
 C750 C 0.62410 0.39339 0.17950
 C751 C 0.59524 0.39557 0.13068
 C752 C 0.63370 0.39963 0.14038
 C753 C 0.60015 0.35633 0.12607
 C754 C 0.63883 0.36008 0.13609
 C755 C 0.64807 0.33013 0.19805
 C756 C 0.66416 0.30956 0.21599
 C757 C 0.57678 0.41732 0.10475
 C758 C 0.56193 0.43375 0.08203
 H759 H 0.56304 0.40219 0.18273
 H760 H 0.57294 0.32946 0.17546
 H761 H 0.63418 0.40833 0.20178
 H762 H 0.65125 0.42026 0.12996
 H763 H 0.59012 0.34130 0.10382
 H764 H 0.66103 0.34764 0.12263
 C765 C 0.92406 0.14348 0.14114
 C766 C 0.89916 0.17384 0.13135
 C767 C 0.87617 0.16354 0.16282
 C768 C 0.90084 0.13352 0.17301
 C769 C 0.90238 0.11940 0.11831
 C770 C 0.87940 0.10903 0.14977
 C771 C 0.87772 0.14944 0.10819
 C772 C 0.85449 0.13947 0.14001
 C773 C 0.86120 0.18862 0.18689
 C774 C 0.84810 0.20951 0.20591
 C775 C 0.91761 0.09581 0.09290
 C776 C 0.93116 0.07767 0.07151
 H777 H 0.95286 0.14486 0.14134
 H778 H 0.90719 0.20073 0.12404
 H779 H 0.91024 0.12729 0.19992
 H780 H 0.87141 0.08213 0.15704
 H781 H 0.86831 0.15571 0.08129
 H782 H 0.82569 0.13810 0.13981
 C783 C 0.94153 0.62742 0.65319
 C784 C 0.91676 0.65801 0.64365
 C785 C 0.89302 0.64691 0.67429
 C786 C 0.91751 0.61666 0.68430
 C787 C 0.92040 0.60395 0.62925
 C788 C 0.89666 0.59278 0.65986
 C789 C 0.89590 0.63423 0.61940
 C790 C 0.87197 0.62340 0.65031
 C791 C 0.87644 0.67151 0.69784
 C792 C 0.86141 0.69211 0.71574
 C793 C 0.93461 0.58136 0.60236
 C794 C 0.94537 0.56448 0.57847
 H795 H 0.97031 0.62877 0.65410
 H796 H 0.92487 0.68506 0.63720
 H797 H 0.92624 0.60975 0.71129
 H798 H 0.88856 0.56571 0.66624
 H799 H 0.88709 0.64125 0.59246
 H800 H 0.84319 0.62201 0.64931
 C801 C 0.43727 0.12961 0.65374
 C802 C 0.41249 0.15958 0.64232
 C803 C 0.38825 0.14991 0.67305
 C804 C 0.41277 0.12025 0.68489
 C805 C 0.41678 0.10476 0.63062
 C806 C 0.39254 0.09499 0.66133
 C807 C 0.39224 0.13446 0.61892
 C808 C 0.36780 0.12504 0.64991
 C809 C 0.37161 0.17582 0.69551
 C810 C 0.35713 0.19743 0.71288
 C811 C 0.43224 0.08112 0.60502
 C812 C 0.44447 0.06389 0.58192
 H813 H 0.46601 0.13126 0.65517
 H814 H 0.42060 0.18634 0.63459
 H815 H 0.42113 0.11464 0.71227
 H816 H 0.38445 0.06821 0.66898
 H817 H 0.38382 0.14016 0.59157
 H818 H 0.33906 0.12339 0.64844
 C819 C 0.43699 0.63219 0.14918
 C820 C 0.41255 0.66287 0.13900
 C821 C 0.38957 0.65376 0.17086
 C822 C 0.41377 0.62342 0.18147
 C823 C 0.41467 0.60800 0.12706
 C824 C 0.39169 0.59881 0.15889
 C825 C 0.39047 0.63838 0.11659
 C826 C 0.36731 0.62954 0.14871
 C827 C 0.37452 0.67985 0.19410
 C828 C 0.36091 0.70149 0.21207
 C829 C 0.42811 0.58387 0.10088
 C830 C 0.43872 0.56601 0.07752
 H831 H 0.46581 0.63303 0.14919
 H832 H 0.42105 0.68942 0.13095
 H833 H 0.42327 0.61753 0.20841
 H834 H 0.38321 0.57224 0.16688
 H835 H 0.38091 0.64436 0.08968
 H836 H 0.33849 0.62868 0.14865
   
