data_POSCAR
  _audit_creation_date              2014-09-24
  _audit_creation_method            'ToBaCCo'
  _symmetry_space_group_name_H-M    'P1'
  _symmetry_Int_Tables_number       1
  _symmetry_cell_setting            triclinic
  loop_
  _symmetry_equiv_pos_as_xyz
 x,y,z
_cell_length_a 34.8417
_cell_length_b 34.8772
_cell_length_c 10.9601
_cell_angle_alpha 89.898400
_cell_angle_beta 90.024600
_cell_angle_gamma 120.037500
loop_
  _atom_site_label
  _atom_site_type_symbol
  _atom_site_fract_x
  _atom_site_fract_y
  _atom_site_fract_z
C1 C 0.24451 0.48966 0.55638
 C2 C 0.24393 0.48941 0.43230
 C3 C 0.20709 0.48844 0.36200
 C4 C 0.28089 0.49087 0.36218
 C5 C 0.28093 0.48941 0.62530
 C6 C 0.20929 0.49087 0.62832
 C7 C 0.16345 0.45386 0.37800
 C8 C 0.12854 0.45427 0.31684
 C9 C 0.13648 0.48890 0.23513
 C10 C 0.18091 0.52245 0.21510
 C11 C 0.21567 0.52221 0.27823
 C12 C 0.27606 0.45200 0.31007
 C13 C 0.31221 0.45221 0.25414
 C14 C 0.35314 0.49163 0.24625
 C15 C 0.35756 0.53072 0.29551
 C16 C 0.32177 0.53029 0.35432
 C17 C 0.30850 0.52523 0.70055
 C18 C 0.34439 0.52621 0.76045
 C19 C 0.35342 0.49145 0.74539
 C20 C 0.32501 0.45512 0.67207
 C21 C 0.28885 0.45394 0.61368
 C22 C 0.20911 0.53070 0.64330
 C23 C 0.17507 0.53133 0.70913
 C24 C 0.14023 0.49192 0.75762
 C25 C 0.14059 0.45216 0.74290
 C26 C 0.17543 0.45183 0.68079
 H27 H 0.15632 0.42652 0.43849
 H28 H 0.09530 0.42719 0.33423
 H29 H 0.18905 0.54964 0.15281
 H30 H 0.24927 0.54895 0.26346
 H31 H 0.24472 0.42129 0.31640
 H32 H 0.30820 0.42176 0.21618
 H33 H 0.32600 0.56044 0.39505
 H34 H 0.30272 0.55281 0.71105
 H35 H 0.36530 0.55440 0.81737
 H36 H 0.33052 0.42744 0.66016
 H37 H 0.26721 0.42550 0.55842
 H38 H 0.23519 0.56110 0.60363
 H39 H 0.17517 0.56228 0.71901
 H40 H 0.11405 0.42149 0.78003
 H41 H 0.17538 0.42093 0.67034
 H42 H 0.38904 0.56119 0.29166
 C43 C 0.50818 -0.24663 0.56242
 C44 C 0.50880 -0.24605 0.43840
 C45 C 0.50887 -0.28188 0.36696
 C46 C 0.50771 -0.21026 0.36917
 C47 C 0.50885 -0.20996 0.63247
 C48 C 0.50790 -0.28329 0.63185
 C49 C 0.54757 -0.28453 0.35742
 C50 C 0.54665 -0.32051 0.29915
 C51 C 0.50747 -0.35334 0.24419
 C52 C 0.46964 -0.34871 0.24572
 C53 C 0.47014 -0.31358 0.30840
 C54 C 0.54729 -0.17431 0.32610
 C55 C 0.54688 -0.13875 0.26859
 C56 C 0.50667 -0.13948 0.24975
 C57 C 0.46691 -0.17616 0.28958
 C58 C 0.46748 -0.21113 0.35038
 C59 C 0.47206 -0.21716 0.70202
 C60 C 0.47195 -0.18197 0.76227
 C61 C 0.50819 -0.13871 0.75170
 C62 C 0.54533 -0.13174 0.68361
 C63 C 0.54586 -0.16716 0.62600
 C64 C 0.46862 -0.31700 0.68361
 C65 C 0.46850 -0.35197 0.74656
 C66 C 0.50711 -0.35535 0.75226
 C67 C 0.54633 -0.32154 0.69901
 C68 C 0.54700 -0.28510 0.64376
 H69 H 0.57834 -0.25908 0.39665
 H70 H 0.57672 -0.32242 0.29616
 H71 H 0.43948 -0.37260 0.20044
 H72 H 0.44024 -0.31138 0.31244
 H73 H 0.57855 -0.17334 0.34001
 H74 H 0.57785 -0.11088 0.23766
 H75 H 0.43671 -0.23868 0.38368
 H76 H 0.44296 -0.24968 0.70786
 H77 H 0.44315 -0.18859 0.81558
 H78 H 0.57410 -0.09896 0.67528
 H79 H 0.57494 -0.16109 0.57478
 H80 H 0.43785 -0.31675 0.67401
 H81 H 0.43763 -0.37735 0.78585
 H82 H 0.57697 -0.32236 0.70362
 H83 H 0.57798 -0.25861 0.60825
 H84 H 0.43566 -0.17714 0.27652
 C85 C 1.24639 0.75496 0.56443
 C86 C 1.24613 0.75539 0.44017
 C87 C 1.28220 0.79171 0.36915
 C88 C 1.21030 0.71887 0.36987
 C89 C 1.20958 0.71908 0.63508
 C90 C 1.28300 0.79098 0.63458
 C91 C 1.28787 0.83437 0.37165
 C92 C 1.32422 0.86948 0.31445
 C93 C 1.35415 0.86216 0.24588
 C94 C 1.34607 0.81844 0.23501
 C95 C 1.31087 0.78370 0.29799
 C96 C 1.17543 0.72355 0.32282
 C97 C 1.14007 0.68822 0.26265
 C98 C 1.14008 0.64840 0.24459
 C99 C 1.17583 0.64433 0.28794
 C100 C 1.21046 0.67917 0.35175
 C101 C 1.21741 0.69183 0.71321
 C102 C 1.18247 0.65732 0.77711
 C103 C 1.13868 0.64880 0.76264
 C104 C 1.13128 0.67699 0.68602
 C105 C 1.16644 0.71206 0.62461
 C106 C 1.31805 0.78617 0.67928
 C107 C 1.35278 0.82069 0.74369
 C108 C 1.35474 0.86181 0.75644
 C109 C 1.31950 0.86641 0.71067
 C110 C 1.28307 0.83063 0.65564
 H111 H 1.26432 0.84064 0.41871
 H112 H 1.32812 0.90222 0.32185
 H113 H 1.36760 0.81112 0.18093
 H114 H 1.30633 0.75068 0.29242
 H115 H 1.17508 0.75416 0.33576
 H116 H 1.11291 0.69205 0.22930
 H117 H 1.23724 0.67518 0.38747
 H118 H 1.25035 0.69652 0.72320
 H119 H 1.18980 0.63664 0.83520
 H120 H 1.09833 0.67221 0.67340
 H121 H 1.15990 0.73362 0.56802
 H122 H 1.31878 0.75591 0.66360
 H123 H 1.37918 0.81588 0.77782
 H124 H 1.31918 0.89712 0.72158
 H125 H 1.25536 0.83426 0.62651
 H126 H 1.17632 0.61378 0.27537
 C127 C 0.75525 0.50953 0.56507
 C128 C 0.75557 0.51082 0.44095
 C129 C 0.79138 0.51051 0.36963
 C130 C 0.71899 0.51016 0.37096
 C131 C 0.71960 0.51060 0.63659
 C132 C 0.79165 0.50886 0.63356
 C133 C 0.83290 0.54899 0.35970
 C134 C 0.86786 0.54773 0.30155
 C135 C 0.86129 0.50838 0.24749
 C136 C 0.81873 0.47067 0.25005
 C137 C 0.78417 0.47156 0.31229
 C138 C 0.72353 0.54965 0.32389
 C139 C 0.68822 0.54940 0.26242
 C140 C 0.64861 0.50937 0.24317
 C141 C 0.64467 0.46974 0.28731
 C142 C 0.67945 0.47017 0.35203
 C143 C 0.69218 0.47549 0.71448
 C144 C 0.65764 0.47590 0.77805
 C145 C 0.64912 0.51113 0.76322
 C146 C 0.67745 0.54677 0.68694
 C147 C 0.71265 0.54676 0.62612
 C148 C 0.78625 0.46933 0.68283
 C149 C 0.82109 0.46905 0.74557
 C150 C 0.86295 0.50779 0.75305
 C151 C 0.86828 0.54716 0.70140
 C152 C 0.83250 0.54795 0.64663
 H153 H 0.83843 0.57983 0.39870
 H154 H 0.89994 0.57767 0.29794
 H155 H 0.81236 0.44031 0.20596
 H156 H 0.75197 0.44179 0.31704
 H157 H 0.75402 0.58073 0.33748
 H158 H 0.69192 0.58032 0.22903
 H159 H 0.67555 0.43944 0.38776
 H160 H 0.69660 0.44712 0.72431
 H161 H 0.63684 0.44782 0.83588
 H162 H 0.67266 0.57490 0.67413
 H163 H 0.73429 0.57489 0.56968
 H164 H 0.75537 0.43853 0.67159
 H165 H 0.81578 0.43801 0.78315
 H166 H 0.89965 0.57786 0.70725
 H167 H 0.83693 0.57903 0.61228
 H168 H 0.61421 0.43866 0.27474
 C169 C 0.48982 0.24480 0.56564
 C170 C 0.48863 0.24396 0.44155
 C171 C 0.48843 0.27972 0.36959
 C172 C 0.48953 0.20822 0.37175
 C173 C 0.48884 0.20808 0.63700
 C174 C 0.49034 0.28158 0.63469
 C175 C 0.44955 0.28198 0.35859
 C176 C 0.44999 0.31702 0.29556
 C177 C 0.48899 0.34949 0.23858
 C178 C 0.52719 0.34553 0.24356
 C179 C 0.52702 0.31113 0.30962
 C180 C 0.45009 0.17334 0.32434
 C181 C 0.45043 0.13842 0.26302
 C182 C 0.49049 0.13888 0.24427
 C183 C 0.53018 0.17461 0.28818
 C184 C 0.52961 0.20882 0.35296
 C185 C 0.52403 0.21584 0.71454
 C186 C 0.52361 0.18095 0.77845
 C187 C 0.48831 0.13719 0.76425
 C188 C 0.45260 0.12981 0.68818
 C189 C 0.45262 0.16497 0.62701
 C190 C 0.52980 0.31542 0.68511
 C191 C 0.52988 0.34978 0.75089
 C192 C 0.49096 0.35246 0.76087
 C193 C 0.45159 0.31862 0.70846
 C194 C 0.45107 0.28285 0.64979
 H195 H 0.41898 0.25686 0.39977
 H196 H 0.41978 0.31864 0.29126
 H197 H 0.55748 0.36954 0.19875
 H198 H 0.55708 0.30927 0.31516
 H199 H 0.41896 0.17270 0.33757
 H200 H 0.41953 0.11122 0.22936
 H201 H 0.56031 0.23566 0.38879
 H202 H 0.55247 0.24863 0.72393
 H203 H 0.55174 0.18829 0.83605
 H204 H 0.42442 0.09687 0.67579
 H205 H 0.42446 0.15843 0.57071
 H206 H 0.56072 0.31569 0.67238
 H207 H 0.56098 0.37541 0.78842
 H208 H 0.42080 0.31908 0.71550
 H209 H 0.42005 0.25641 0.61446
 H210 H 0.56137 0.17537 0.27534
 C211 C 0.75568 0.24641 0.56434
 C212 C 0.75496 0.24615 0.44025
 C213 C 0.71908 0.20934 0.37068
 C214 C 0.79002 0.28304 0.36871
 C215 C 0.79261 0.28269 0.63330
 C216 C 0.71929 0.21065 0.63560
 C217 C 0.71275 0.16644 0.37855
 C218 C 0.67788 0.13154 0.31613
 C219 C 0.64915 0.13908 0.24282
 C220 C 0.65665 0.18250 0.23160
 C221 C 0.69135 0.21732 0.29510
 C222 C 0.82182 0.27699 0.30690
 C223 C 0.85739 0.31271 0.24830
 C224 C 0.86065 0.35444 0.24748
 C225 C 0.82812 0.36016 0.30619
 C226 C 0.79315 0.32473 0.36750
 C227 C 0.78420 0.30818 0.71621
 C228 C 0.81924 0.34417 0.77546
 C229 C 0.86355 0.35565 0.75202
 C230 C 0.87152 0.32914 0.67063
 C231 C 0.83643 0.29275 0.61366
 C232 C 0.67982 0.21113 0.65591
 C233 C 0.64492 0.17642 0.71956
 C234 C 0.64863 0.14021 0.76056
 C235 C 0.68822 0.13986 0.74025
 C236 C 0.72365 0.17530 0.68016
 H237 H 0.73475 0.15997 0.43334
 H238 H 0.67342 0.09864 0.32557
 H239 H 0.63529 0.18949 0.17551
 H240 H 0.69612 0.25039 0.28700
 H241 H 0.81987 0.24500 0.30777
 H242 H 0.88224 0.30779 0.20315
 H243 H 0.76889 0.32985 0.41533
 H244 H 0.75057 0.30082 0.73315
 H245 H 0.81147 0.36332 0.83805
 H246 H 0.90490 0.33612 0.65120
 H247 H 0.84354 0.27266 0.55284
 H248 H 0.67603 0.23821 0.62181
 H249 H 0.61453 0.17717 0.73359
 H250 H 0.69178 0.11233 0.77153
 H251 H 0.75403 0.17462 0.66524
 H252 H 0.83061 0.39232 0.30783
 O253 O 0.93858 0.53845 -0.21624
 O254 O 0.88977 0.47643 -0.10894
 C255 C 0.89860 0.50739 -0.18854
 O256 O 1.06306 0.46138 -0.20955
 O257 O 1.11195 0.52364 -0.10346
 C258 C 1.10290 0.49216 -0.18076
 O259 O 0.93912 0.40259 -0.22163
 O260 O 0.89018 0.41328 -0.10769
 C261 C 0.89907 0.39225 -0.19047
 O262 O 1.06305 0.60318 -0.20762
 O263 O 1.11176 0.58935 -0.10263
 C264 C 1.10302 0.61241 -0.17931
 Zr265 Zr 1.00096 0.54997 -0.15193
 O266 O 1.00429 0.55270 -0.34485
 O267 O 0.99953 0.60975 -0.14112
 Zr268 Zr 1.00095 0.45332 -0.15636
 O269 O 1.00238 0.46152 -0.34768
 O270 O 1.00038 0.39277 -0.17770
 O271 O 0.96129 0.48186 -0.17841
 O272 O 1.03973 0.52102 -0.17633
 O273 O 1.06276 0.60198 0.21151
 O274 O 1.11156 0.58834 0.10598
 C275 C 1.10258 0.61086 0.18313
 O276 O 0.93784 0.40086 0.21651
 O277 O 0.88929 0.41344 0.10507
 C278 C 0.89814 0.39194 0.18639
 O279 O 1.06222 0.45993 0.20825
 O280 O 1.11134 0.52187 0.10229
 C281 C 1.10239 0.49017 0.17962
 O282 O 0.93857 0.53682 0.22040
 O283 O 0.88976 0.47733 0.10511
 C284 C 0.89869 0.50716 0.18801
 Zr285 Zr 1.00077 0.54845 0.15552
 O286 O 1.00507 0.54786 0.34822
 O287 O 0.99742 0.60732 0.16191
 Zr288 Zr 1.00034 0.45140 0.15195
 O289 O 1.00454 0.45394 0.34482
 O290 O 0.99624 0.38876 0.15220
 Zr291 Zr 0.93473 0.46771 -0.00065
 Zr292 Zr 1.06697 0.53367 0.00033
 O293 O 1.03916 0.51904 0.17649
 O294 O 0.96087 0.48009 0.17764
 O295 O 1.04059 0.57639 0.00215
 O296 O 0.96218 0.42604 -0.00270
 O297 O 0.96224 0.53688 0.00163
 O298 O 1.04008 0.46440 -0.00207
 H299 H 1.05985 0.53129 -0.24785
 H300 H 0.94223 0.39350 -0.00286
 H301 H 1.05915 0.52873 0.24819
 H302 H 0.94251 0.54972 0.00186
 H303 H 0.99130 0.37715 -0.09856
 H304 H 1.01933 0.39068 0.09581
 H305 H 0.97846 0.45502 0.37605
 H306 H 0.97799 0.52138 0.37838
 H307 H 1.01422 0.62544 0.09074
 H308 H 0.99958 0.61929 -0.22639
 H309 H 0.98142 0.52335 -0.37538
 H310 H 1.00360 0.43601 -0.38286
 O311 O 0.40040 0.46172 0.21710
 O312 O 0.41220 0.52212 0.10396
 C313 C 0.39098 0.49199 0.18605
 O314 O 0.60179 0.53964 0.20866
 O315 O 0.58846 0.47715 0.10404
 C316 C 0.61092 0.50887 0.18088
 O317 O 0.53621 0.59809 0.21776
 O318 O 0.47656 0.58706 0.10229
 C319 C 0.50644 0.60813 0.18507
 O320 O 0.45971 0.39740 0.20739
 O321 O 0.52187 0.41067 0.10102
 C322 C 0.49013 0.38794 0.17796
 Zr323 Zr 0.45103 0.45054 0.15042
 O324 O 0.45185 0.44802 0.34336
 O325 O 0.38969 0.39078 0.13897
 Zr326 Zr 0.54758 0.54730 0.15435
 O327 O 0.54066 0.53938 0.34570
 O328 O 0.60753 0.60799 0.17571
 O329 O 0.47929 0.51873 0.17541
 O330 O 0.51881 0.47963 0.17516
 O331 O 0.46014 0.39707 -0.20706
 O332 O 0.52396 0.41229 -0.10677
 C333 C 0.49165 0.38870 -0.18133
 O334 O 0.53788 0.59981 -0.21677
 O335 O 0.47550 0.58615 -0.11074
 C336 C 0.50667 0.60853 -0.18961
 O337 O 0.60285 0.54049 -0.20887
 O338 O 0.58971 0.47853 -0.10232
 C339 C 0.61252 0.51017 -0.17954
 O340 O 0.40223 0.46306 -0.22459
 O341 O 0.41229 0.52229 -0.10967
 C342 C 0.39178 0.49257 -0.19315
 Zr343 Zr 0.45249 0.45149 -0.15703
 O344 O 0.45789 0.45142 -0.34945
 O345 O 0.39000 0.39286 -0.16510
 Zr346 Zr 0.54906 0.54856 -0.15408
 O347 O 0.54982 0.54503 -0.34692
 O348 O 0.60784 0.61109 -0.15768
 Zr349 Zr 0.46688 0.53246 -0.00301
 Zr350 Zr 0.53350 0.46678 -0.00105
 O351 O 0.52031 0.48092 -0.17776
 O352 O 0.48091 0.51977 -0.18058
 O353 O 0.46432 0.42396 -0.00287
 O354 O 0.53613 0.57416 -0.00024
 O355 O 0.42536 0.46323 -0.00401
 O356 O 0.57581 0.53607 0.00079
 H357 H 0.52863 0.46944 0.24690
 H358 H 0.54884 0.60669 -0.00032
 H359 H 0.53066 0.47105 -0.24890
 H360 H 0.39273 0.45025 -0.00471
 H361 H 0.61408 0.62361 0.09657
 H362 H 0.62841 0.61006 -0.09722
 H363 H 0.52397 0.54657 -0.37809
 H364 H 0.45810 0.47816 -0.38070
 H365 H 0.38764 0.37537 -0.09144
 H366 H 0.38021 0.38098 0.22410
 H367 H 0.45893 0.47756 0.37368
 H368 H 0.56718 0.56521 0.38085
 O369 O 0.39956 -0.06265 -0.21390
 O370 O 0.41337 -0.11114 -0.10721
 C371 C 0.39090 -0.10250 -0.18607
 O372 O 0.60207 0.06282 -0.20735
 O373 O 0.58790 0.11130 -0.10227
 C374 C 0.61082 0.10255 -0.17879
 O375 O 0.53707 -0.06127 -0.21992
 O376 O 0.47741 -0.11028 -0.10512
 C377 C 0.50735 -0.10121 -0.18803
 O378 O 0.45885 0.06162 -0.20686
 O379 O 0.52104 0.11051 -0.10133
 C380 C 0.48928 0.10162 -0.17819
 Zr381 Zr 0.45098 -0.00020 -0.15264
 O382 O 0.45545 0.00358 -0.34545
 O383 O 0.38827 -0.00452 -0.16121
 Zr384 Zr 0.54789 0.00054 -0.15492
 O385 O 0.54145 0.00209 -0.34631
 O386 O 0.60796 -0.00001 -0.17539
 O387 O 0.47969 -0.03962 -0.17751
 O388 O 0.51876 0.03907 -0.17598
 O389 O 0.46020 0.06181 0.21177
 O390 O 0.52228 0.11082 0.10468
 C391 C 0.49084 0.10166 0.18252
 O392 O 0.53680 -0.06232 0.21908
 O393 O 0.47614 -0.11107 0.10685
 C394 C 0.50635 -0.10209 0.18866
 O395 O 0.60123 0.06180 0.21190
 O396 O 0.58858 0.11061 0.10316
 C397 C 0.61092 0.10166 0.18156
 O398 O 0.40060 -0.06233 0.21930
 O399 O 0.41243 -0.11084 0.10727
 C400 C 0.39078 -0.10221 0.18875
 Zr401 Zr 0.45151 -0.00021 0.15560
 O402 O 0.45624 0.00395 0.34832
 O403 O 0.38868 -0.00472 0.16307
 Zr404 Zr 0.54845 -0.00008 0.15394
 O405 O 0.54956 0.00393 0.34681
 O406 O 0.60735 -0.00363 0.15487
 Zr407 Zr 0.46700 -0.06596 0.00069
 Zr408 Zr 0.53266 0.06612 0.00082
 O409 O 0.51925 0.03841 0.17718
 O410 O 0.48021 -0.03983 0.17886
 O411 O 0.46330 0.03927 0.00161
 O412 O 0.53628 -0.03808 -0.00067
 O413 O 0.42513 -0.03859 0.00162
 O414 O 0.57540 0.03963 -0.00035
 H415 H 0.52876 0.05943 -0.24701
 H416 H 0.54908 -0.05783 -0.00046
 H417 H 0.52929 0.05837 0.24887
 H418 H 0.39251 -0.05824 0.00185
 H419 H 0.61525 -0.00732 -0.09470
 H420 H 0.62879 0.02000 0.10013
 H421 H 0.52220 -0.02206 0.37767
 H422 H 0.45467 -0.02353 0.37869
 H423 H 0.38956 0.01796 0.10704
 H424 H 0.38796 0.01551 -0.09804
 H425 H 0.45598 -0.02300 -0.37459
 H426 H 0.56832 0.00343 -0.38117
   
