data_POSCAR
  _audit_creation_date              2014-09-24
  _audit_creation_method            'ToBaCCo'
  _symmetry_space_group_name_H-M    'P1'
  _symmetry_Int_Tables_number       1
  _symmetry_cell_setting            triclinic
  loop_
  _symmetry_equiv_pos_as_xyz
 x,y,z
_cell_length_a 36.1136
_cell_length_b 35.9901
_cell_length_c 14.8689
_cell_angle_alpha 90.057100
_cell_angle_beta 90.132200
_cell_angle_gamma 121.384700
loop_
  _atom_site_label
  _atom_site_type_symbol
  _atom_site_fract_x
  _atom_site_fract_y
  _atom_site_fract_z
C1 C 0.11786 0.44327 0.49551
 C2 C 0.13871 0.44755 0.41516
 C3 C 0.17618 0.44526 0.41424
 C4 C 0.19228 0.43762 0.49516
 C5 C 0.17159 0.43637 0.57741
 C6 C 0.13520 0.44077 0.57683
 C7 C 0.23109 0.43262 0.49325
 C8 C 0.25828 0.44222 0.56973
 C9 C 0.29456 0.43755 0.56612
 C10 C 0.30355 0.42312 0.48720
 C11 C 0.28053 0.41868 0.40860
 C12 C 0.24310 0.42081 0.41239
 H13 H 0.08982 0.44688 0.49541
 H14 H 0.19314 0.45114 0.35123
 H15 H 0.18368 0.43282 0.64137
 H16 H 0.25272 0.45497 0.63058
 H17 H 0.33281 0.42173 0.48359
 H18 H 0.22508 0.41519 0.35073
 C19 C 0.52749 -0.32543 0.51496
 C20 C 0.52781 -0.30690 0.43210
 C21 C 0.53807 -0.26360 0.42967
 C22 C 0.55071 -0.23756 0.50879
 C23 C 0.55297 -0.25671 0.59041
 C24 C 0.54000 -0.30075 0.59424
 C25 C 0.55964 -0.19158 0.50716
 C26 C 0.55932 -0.17047 0.58772
 C27 C 0.56470 -0.12901 0.58603
 C28 C 0.56905 -0.10869 0.50365
 C29 C 0.56713 -0.12949 0.42297
 C30 C 0.56470 -0.16956 0.42476
 H31 H 0.51793 -0.35942 0.51760
 H32 H 0.53510 -0.25132 0.36579
 H33 H 0.56435 -0.23805 0.65178
 H34 H 0.55237 -0.18659 0.65191
 H35 H 0.57002 -0.07807 0.50199
 H36 H 0.56480 -0.18366 0.36091
 C37 C 1.32194 0.89869 0.51190
 C38 C 1.30323 0.88138 0.42803
 C39 C 1.26370 0.84139 0.42413
 C40 C 1.24483 0.81625 0.50292
 C41 C 1.26663 0.83362 0.58578
 C42 C 1.30445 0.87470 0.59050
 C43 C 1.20545 0.77068 0.49844
 C44 C 1.18301 0.74856 0.57784
 C45 C 1.15040 0.70437 0.57593
 C46 C 1.13745 0.68273 0.49322
 C47 C 1.15645 0.70447 0.41301
 C48 C 1.19097 0.74772 0.41573
 H49 H 1.35278 0.92926 0.51538
 H50 H 1.24940 0.82967 0.35875
 H51 H 1.25625 0.81488 0.64684
 H52 H 1.19084 0.76493 0.64198
 H53 H 1.11198 0.64865 0.49098
 H54 H 1.20645 0.76221 0.35283
 C55 C 0.83543 0.48542 0.48658
 C56 C 0.81754 0.48793 0.40468
 C57 C 0.78354 0.49586 0.40500
 C58 C 0.76939 0.50518 0.48579
 C59 C 0.79014 0.50534 0.56707
 C60 C 0.82220 0.49440 0.56810
 C61 C 0.73370 0.51517 0.48504
 C62 C 0.71003 0.51064 0.56423
 C63 C 0.67733 0.52064 0.56524
 C64 C 0.66622 0.53272 0.48481
 C65 C 0.68697 0.53462 0.40391
 C66 C 0.72167 0.52769 0.40485
 H67 H 0.86126 0.47848 0.48650
 H68 H 0.76865 0.49472 0.34136
 H69 H 0.78214 0.51446 0.62992
 H70 H 0.71589 0.49828 0.62537
 H71 H 0.63928 0.53796 0.48340
 H72 H 0.73823 0.53152 0.34215
 C73 C 0.44634 0.32770 0.50770
 C74 C 0.45064 0.30975 0.42834
 C75 C 0.44824 0.26989 0.43053
 C76 C 0.43970 0.24613 0.51168
 C77 C 0.43508 0.26515 0.59179
 C78 C 0.43984 0.30653 0.59015
 C79 C 0.43888 0.20368 0.51242
 C80 C 0.44340 0.18577 0.59379
 C81 C 0.44661 0.14855 0.59306
 C82 C 0.44683 0.12982 0.51086
 C83 C 0.44362 0.14724 0.42970
 C84 C 0.43731 0.18236 0.43059
 H85 H 0.45016 0.35965 0.50569
 H86 H 0.45497 0.25918 0.36844
 H87 H 0.42882 0.24897 0.65584
 H88 H 0.44661 0.20137 0.65768
 H89 H 0.45221 0.10284 0.50967
 H90 H 0.43291 0.19327 0.36627
 C91 C 0.69535 0.12472 0.51743
 C92 C 0.71600 0.13843 0.43452
 C93 C 0.75920 0.17278 0.43097
 C94 C 0.78109 0.19647 0.50966
 C95 C 0.75830 0.18281 0.59267
 C96 C 0.71597 0.14667 0.59657
 C97 C 0.82614 0.23635 0.50403
 C98 C 0.85115 0.25589 0.58272
 C99 C 0.89134 0.29487 0.57774
 C100 C 0.90979 0.31132 0.49418
 C101 C 0.88503 0.29527 0.41645
 C102 C 0.84335 0.25799 0.42083
 H103 H 0.66174 0.09831 0.51974
 H104 H 0.77456 0.18134 0.36595
 H105 H 0.77187 0.20057 0.65434
 H106 H 0.83924 0.24276 0.64862
 H107 H 0.94100 0.34155 0.49077
 H108 H 0.82409 0.24812 0.36015
 O109 O 0.95331 0.52406 -0.12045
 O110 O 1.03130 0.57524 0.13052
 O111 O 0.90728 0.45669 0.06628
 O112 O 1.08715 0.57387 -0.10222
 O113 O 0.95028 0.52359 0.10443
 O114 O 1.03009 0.57492 -0.13106
 O115 O 1.08782 0.57884 0.06780
 O116 O 0.90995 0.45657 -0.09993
 C117 C 0.91655 0.49191 -0.13044
 C118 C 1.07133 0.59386 0.12029
 C119 C 0.91320 0.49078 0.10382
 C120 C 1.06980 0.59270 -0.13664
 O121 O 1.04165 0.51054 -0.19510
 O122 O 0.95901 0.45981 0.17287
 O123 O 0.95995 0.42006 -0.08795
 O124 O 1.07846 0.50256 0.07763
 O125 O 1.03799 0.50840 0.17970
 O126 O 0.96430 0.46118 -0.19452
 O127 O 1.06958 0.49280 -0.08697
 O128 O 0.95349 0.41656 0.06899
 Co129 Co 0.99757 0.51636 -0.14786
 Co130 Co 0.99488 0.51546 0.13154
 Co131 Co 0.93833 0.44333 -0.01330
 Co132 Co 1.07286 0.53378 -0.01195
 O133 O 1.00129 0.50242 -0.00964
 C134 C 1.06167 0.49264 -0.16755
 C135 C 0.95192 0.42343 0.14933
 C136 C 0.95917 0.42585 -0.16892
 C137 C 1.06623 0.49960 0.15652
 O138 O 0.48749 0.46269 -0.17557
 O139 O 0.43869 0.49155 0.17419
 O140 O 0.51881 0.44002 0.08797
 O141 O 0.41648 0.48646 -0.09550
 O142 O 0.46499 0.44146 0.14587
 O143 O 0.46620 0.51694 -0.19145
 O144 O 0.40190 0.48026 0.05563
 O145 O 0.48185 0.42556 -0.05836
 C146 C 0.47464 0.42657 -0.13992
 C147 C 0.40315 0.47473 0.13672
 C148 C 0.48700 0.42405 0.14063
 C149 C 0.42697 0.49396 -0.17430
 O150 O 0.53987 0.57644 -0.11666
 O151 O 0.54408 0.50963 0.16636
 O152 O 0.56369 0.46534 -0.07349
 O153 O 0.46705 0.56489 0.08911
 O154 O 0.51431 0.55794 0.17113
 O155 O 0.56562 0.52447 -0.11641
 O156 O 0.47991 0.57312 -0.07964
 O157 O 0.57663 0.52199 0.04128
 Co158 Co 0.51278 0.51855 -0.13644
 Co159 Co 0.49089 0.50023 0.14879
 Co160 Co 0.52700 0.47523 -0.00970
 Co161 Co 0.44611 0.52497 -0.00726
 O162 O 0.49150 0.50425 0.00388
 C163 C 0.51715 0.59331 -0.11537
 C164 C 0.57857 0.52494 0.12465
 C165 C 0.57640 0.49656 -0.13298
 C166 C 0.49497 0.57765 0.15277
 O167 O 0.55640 0.06551 -0.16124
 O168 O 0.49814 -0.04137 0.18384
 O169 O 0.58397 0.09166 0.11001
 O170 O 0.49574 -0.06835 -0.08646
 O171 O 0.56507 0.02893 0.16577
 O172 O 0.54520 -0.00724 -0.14205
 O173 O 0.51224 -0.06330 0.06683
 O174 O 0.59402 0.08674 -0.04442
 C175 C 0.59270 0.08301 -0.12683
 C176 C 0.51532 -0.05965 0.14909
 C177 C 0.59272 0.06810 0.15732
 C178 C 0.52902 -0.04707 -0.13450
 O179 O 0.46171 -0.03853 -0.16298
 O180 O 0.51940 0.06589 0.18639
 O181 O 0.52203 0.09501 -0.08320
 O182 O 0.43378 -0.06642 0.10708
 O183 O 0.45211 -0.00430 0.16479
 O184 O 0.47307 0.03396 -0.14157
 O185 O 0.42419 -0.05940 -0.04653
 O186 O 0.50572 0.08938 0.07116
 Co187 Co 0.50908 0.01334 -0.13504
 Co188 Co 0.50865 0.01231 0.15868
 Co189 Co 0.54755 0.08367 0.01337
 Co190 Co 0.47033 -0.05737 0.01048
 O191 O 0.50893 0.01299 0.01183
 C192 C 0.42552 -0.05585 -0.12889
 C193 C 0.50231 0.08460 0.15324
 C194 C 0.48884 0.07367 -0.13205
 C195 C 0.42469 -0.04351 0.15557
 C196 C 1.07543 0.47885 0.32320
 C197 C 1.07409 0.43524 0.31863
 C198 C 1.12302 0.45974 0.34048
 C199 C 1.12442 0.50329 0.34478
 C200 C 1.13443 0.46633 0.24009
 C201 C 1.08518 0.44204 0.21753
 C202 C 1.08646 0.48536 0.22326
 C203 C 1.13537 0.50994 0.24365
 H204 H 1.05168 0.48482 0.35721
 H205 H 1.04897 0.40408 0.34935
 H206 H 1.14102 0.52864 0.39753
 H207 H 1.15869 0.46101 0.20643
 H208 H 1.06831 0.41703 0.16432
 H209 H 1.16001 0.54110 0.21215
 C210 C 0.49859 0.60122 0.31754
 C211 C 0.54258 0.64318 0.33502
 C212 C 0.51848 0.66736 0.35232
 C213 C 0.47451 0.62547 0.33463
 C214 C 0.52229 0.67978 0.25193
 C215 C 0.54629 0.65503 0.23434
 C216 C 0.50241 0.61306 0.21687
 C217 C 0.47807 0.63707 0.23319
 H218 H 0.48868 0.56870 0.34528
 H219 H 0.56913 0.64540 0.37702
 H220 H 0.44498 0.61319 0.37649
 H221 H 0.53214 0.71231 0.22448
 H222 H 0.57577 0.66709 0.19244
 H223 H 0.45157 0.63442 0.19042
 C224 C 0.39712 -0.05474 0.32041
 C225 C 0.35686 -0.05062 0.33039
 C226 C 0.32930 -0.09975 0.34973
 C227 C 0.36948 -0.10384 0.33963
 C228 C 0.31888 -0.10971 0.24876
 C229 C 0.34719 -0.06002 0.22836
 C230 C 0.38724 -0.06436 0.21936
 C231 C 0.35958 -0.11348 0.23841
 H232 H 0.42927 -0.03213 0.35104
 H233 H 0.35556 -0.02484 0.36867
 H234 H 0.37890 -0.12183 0.38575
 H235 H 0.28650 -0.13227 0.21892
 H236 H 0.33836 -0.04180 0.18166
 H237 H 0.36088 -0.13930 0.20025
 C238 C 0.88129 0.52750 0.21097
 C239 C 0.83137 0.49865 0.22166
 C240 C 0.83795 0.48642 0.31745
 C241 C 0.88743 0.51523 0.30691
 C242 C 0.83844 0.44683 0.28031
 C243 C 0.83245 0.45895 0.18328
 C244 C 0.88201 0.48802 0.17373
 C245 C 0.88805 0.47563 0.26978
 H246 H 0.89890 0.56077 0.18202
 H247 H 0.80792 0.50825 0.20133
 H248 H 0.91039 0.53838 0.35791
 H249 H 0.82094 0.41363 0.30959
 H250 H 0.80998 0.43594 0.13157
 H251 H 0.91059 0.46526 0.29222
 C252 C 0.47739 0.40059 0.30751
 C253 C 0.43449 0.35683 0.31823
 C254 C 0.46060 0.33562 0.34330
 C255 C 0.50349 0.37926 0.33212
 C256 C 0.46191 0.32415 0.24381
 C257 C 0.43585 0.34598 0.21821
 C258 C 0.47868 0.38978 0.20771
 C259 C 0.50502 0.36861 0.23168
 H260 H 0.48402 0.43152 0.33787
 H261 H 0.40538 0.35213 0.35396
 H262 H 0.53129 0.39295 0.37975
 H263 H 0.45534 0.29232 0.21801
 H264 H 0.40811 0.33251 0.17050
 H265 H 0.53415 0.37380 0.19530
 C266 C 0.66257 0.13677 0.23589
 C267 C 0.65219 0.13003 0.33730
 C268 C 0.68858 0.12029 0.35132
 C269 C 0.69955 0.12734 0.25027
 C270 C 0.65642 0.07146 0.33534
 C271 C 0.62000 0.08122 0.32157
 C272 C 0.63042 0.08793 0.22045
 C273 C 0.66667 0.07797 0.23336
 H274 H 0.66485 0.16351 0.19446
 H275 H 0.64613 0.15145 0.38066
 H276 H 0.73260 0.14636 0.22123
 H277 H 0.65394 0.04461 0.37677
 H278 H 0.58723 0.06239 0.35192
 H279 H 0.67225 0.05637 0.18958
 C280 C 0.43100 0.09284 -0.20555
 C281 C 0.45500 0.14245 -0.22697
 C282 C 0.45500 0.13191 -0.32754
 C283 C 0.43077 0.08285 -0.30696
 C284 C 0.49902 0.13529 -0.31668
 C285 C 0.49929 0.14541 -0.21555
 C286 C 0.47508 0.09631 -0.19568
 C287 C 0.47489 0.08623 -0.29639
 H288 H 0.40318 0.07520 -0.15896
 H289 H 0.44667 0.16568 -0.19845
 H290 H 0.40253 0.05695 -0.34488
 H291 H 0.52709 0.15271 -0.36281
 H292 H 0.52756 0.17098 -0.17721
 H293 H 0.48305 0.06316 -0.32635
 C294 C 0.58796 0.49337 -0.30783
 C295 C 0.62751 0.53761 -0.33619
 C296 C 0.65289 0.51480 -0.35483
 C297 C 0.61357 0.47063 -0.32693
 C298 C 0.67025 0.52349 -0.25746
 C299 C 0.64452 0.54618 -0.23822
 C300 C 0.60512 0.50211 -0.21058
 C301 C 0.63037 0.47920 -0.22850
 H302 H 0.55385 0.48022 -0.32892
 H303 H 0.62609 0.56209 -0.37899
 H304 H 0.60090 0.43954 -0.36416
 H305 H 0.70436 0.53612 -0.23695
 H306 H 0.65709 0.57724 -0.20092
 H307 H 0.63124 0.45510 -0.18341
 C308 C 0.95779 0.39226 -0.32892
 C309 C 0.95627 0.34864 -0.31839
 C310 C 0.90856 0.32412 -0.34841
 C311 C 0.90992 0.36752 -0.35882
 C312 C 0.89315 0.32008 -0.25059
 C313 C 0.94131 0.34529 -0.21931
 C314 C 0.94278 0.38851 -0.23145
 C315 C 0.89496 0.36383 -0.26084
 H316 H 0.98373 0.42224 -0.36152
 H317 H 0.98034 0.34052 -0.34187
 H318 H 0.89661 0.37671 -0.41622
 H319 H 0.86662 0.29037 -0.21808
 H320 H 0.95484 0.33702 -0.16089
 H321 H 0.87010 0.37084 -0.23695
 C322 C 0.58308 -0.07222 -0.20590
 C323 C 0.55474 -0.12135 -0.23119
 C324 C 0.55837 -0.10879 -0.33128
 C325 C 0.58682 -0.06018 -0.30700
 C326 C 0.51715 -0.10642 -0.32429
 C327 C 0.51334 -0.11868 -0.22384
 C328 C 0.54174 -0.07006 -0.19985
 C329 C 0.54547 -0.05781 -0.30004
 H330 H 0.61010 -0.05793 -0.15638
 H331 H 0.55868 -0.14762 -0.20292
 H332 H 0.61713 -0.03608 -0.34178
 H333 H 0.48995 -0.12049 -0.37343
 H334 H 0.48296 -0.14270 -0.18917
 H335 H 0.54181 -0.03155 -0.32930
 C336 C 0.37938 0.50941 -0.28942
 C337 C 0.37626 0.48690 -0.38015
 C338 C 0.32815 0.45301 -0.36056
 C339 C 0.33094 0.47547 -0.27070
 C340 C 0.34126 0.42321 -0.31471
 C341 C 0.38957 0.45711 -0.33359
 C342 C 0.39233 0.47947 -0.24393
 C343 C 0.34432 0.44573 -0.22401
 H344 H 0.39578 0.54510 -0.27882
 H345 H 0.38917 0.50397 -0.44513
 H346 H 0.30678 0.48291 -0.24437
 H347 H 0.32514 0.38752 -0.32505
 H348 H 0.41395 0.44989 -0.35944
 H349 H 0.33144 0.42868 -0.15902
 C350 C 1.14300 0.65720 -0.21700
 C351 C 1.13831 0.64288 -0.31662
 C352 C 1.13140 0.68012 -0.34365
 C353 C 1.13650 0.69510 -0.24472
 C354 C 1.08206 0.65031 -0.33167
 C355 C 1.08894 0.61295 -0.30456
 C356 C 1.09365 0.62745 -0.20551
 C357 C 1.08667 0.66468 -0.23196
 H358 H 1.16790 0.65985 -0.16914
 H359 H 1.15951 0.63375 -0.35194
 H360 H 1.15604 0.72903 -0.21940
 H361 H 1.05688 0.64735 -0.37916
 H362 H 1.07002 0.57907 -0.33030
 H363 H 1.06532 0.67346 -0.19627
 C364 C 0.89065 0.53377 -0.24094
 C365 C 0.89398 0.51916 -0.33686
 C366 C 0.84423 0.49404 -0.34537
 C367 C 0.84046 0.50862 -0.24984
 C368 C 0.84114 0.45281 -0.30683
 C369 C 0.89101 0.47793 -0.29816
 C370 C 0.88760 0.49256 -0.20252
 C371 C 0.83783 0.46729 -0.21031
 H372 H 0.91109 0.56718 -0.21333
 H373 H 0.91727 0.54049 -0.38914
 H374 H 0.81967 0.52143 -0.22930
 H375 H 0.82083 0.41941 -0.33456
 H376 H 0.91147 0.46478 -0.31903
 H377 H 0.81485 0.44600 -0.15761
 C378 C 0.45981 0.39649 -0.30277
 C379 C 0.48618 0.37456 -0.31715
 C380 C 0.44348 0.33066 -0.33024
 C381 C 0.41702 0.35258 -0.31503
 C382 C 0.44205 0.32109 -0.22870
 C383 C 0.48490 0.36559 -0.21562
 C384 C 0.45870 0.38783 -0.20091
 C385 C 0.41582 0.34392 -0.21234
 H386 H 0.46724 0.42736 -0.33535
 H387 H 0.51546 0.38760 -0.36009
 H388 H 0.38903 0.34735 -0.35634
 H389 H 0.43470 0.28983 -0.19830
 H390 H 0.51304 0.37119 -0.17438
 H391 H 0.38692 0.33156 -0.16853
 C392 C 0.67357 0.10162 -0.18665
 C393 C 0.66486 0.08564 -0.28566
 C394 C 0.68945 0.13310 -0.31850
 C395 C 0.69903 0.14967 -0.22043
 C396 C 0.64731 0.13396 -0.31789
 C397 C 0.62271 0.08649 -0.28571
 C398 C 0.63150 0.10264 -0.18729
 C399 C 0.65623 0.15017 -0.21955
 H400 H 0.68416 0.08826 -0.13186
 H401 H 0.66826 0.05892 -0.31342
 H402 H 0.73081 0.17589 -0.19398
 H403 H 0.63624 0.14713 -0.37219
 H404 H 0.59157 0.06027 -0.31460
 H405 H 0.65254 0.17669 -0.19174
 C406 C 1.07605 0.47614 -0.33238
 C407 C 1.12536 0.49658 -0.34242
 C408 C 1.11849 0.45052 -0.34650
 C409 C 1.06916 0.43006 -0.33557
 C410 C 1.12441 0.45065 -0.24411
 C411 C 1.13080 0.49678 -0.23964
 C412 C 1.08147 0.47629 -0.23062
 C413 C 1.07464 0.43038 -0.23253
 H414 H 1.05647 0.48706 -0.36860
 H415 H 1.14666 0.52406 -0.38768
 H416 H 1.04456 0.40251 -0.37673
 H417 H 1.14441 0.44008 -0.20854
 H418 H 1.15574 0.52473 -0.19947
 H419 H 1.05297 0.40338 -0.18672
 C420 C 0.50549 0.65548 -0.19301
 C421 C 0.54956 0.69487 -0.22522
 C422 C 0.53765 0.67804 -0.32291
 C423 C 0.49390 0.63947 -0.29137
 C424 C 0.55933 0.65120 -0.31128
 C425 C 0.57109 0.66725 -0.21277
 C426 C 0.52718 0.62857 -0.18188
 C427 C 0.51549 0.61254 -0.28010
 H428 H 0.48341 0.65722 -0.14370
 H429 H 0.56372 0.72904 -0.20249
 H430 H 0.46199 0.62769 -0.32412
 H431 H 0.58135 0.64914 -0.36029
 H432 H 0.60282 0.67864 -0.17962
 H433 H 0.50098 0.57888 -0.30599
 C434 C 0.39261 -0.05448 -0.28213
 C435 C 0.37820 -0.09819 -0.32847
 C436 C 0.33094 -0.10929 -0.32455
 C437 C 0.34526 -0.06562 -0.27795
 C438 C 0.32482 -0.13154 -0.23252
 C439 C 0.37252 -0.12010 -0.23647
 C440 C 0.38710 -0.07640 -0.18996
 C441 C 0.33994 -0.08732 -0.18460
 H442 H 0.42047 -0.02244 -0.30311
 H443 H 0.39423 -0.10253 -0.38776
 H444 H 0.33402 -0.04315 -0.29591
 H445 H 0.29675 -0.16347 -0.21186
 H446 H 0.38393 -0.14248 -0.21884
 H447 H 0.32452 -0.08275 -0.12454
 C448 C 0.54214 -0.06407 0.30723
 C449 C 0.51608 -0.11165 0.33814
 C450 C 0.55824 -0.11258 0.33836
 C451 C 0.58429 -0.06499 0.30685
 C452 C 0.54983 -0.12876 0.24001
 C453 C 0.50753 -0.12746 0.23975
 C454 C 0.53343 -0.07986 0.20860
 C455 C 0.57571 -0.08052 0.20733
 H456 H 0.53934 -0.03733 0.33686
 H457 H 0.49136 -0.12429 0.39231
 H458 H 0.61592 -0.03927 0.33494
 H459 H 0.55327 -0.15549 0.21257
 H460 H 0.47583 -0.15310 0.21176
 H461 H 0.60002 -0.06764 0.15245
 C462 C 0.33822 0.47561 0.21894
 C463 C 0.29584 0.43022 0.22252
 C464 C 0.30477 0.42631 0.32251
 C465 C 0.34661 0.47163 0.31878
 C466 C 0.33025 0.40448 0.29720
 C467 C 0.32219 0.40856 0.19600
 C468 C 0.36387 0.45391 0.19447
 C469 C 0.37194 0.44967 0.29471
 H470 H 0.34187 0.50508 0.18641
 H471 H 0.26403 0.42177 0.19352
 H472 H 0.35716 0.49802 0.36942
 H473 H 0.32688 0.37512 0.32972
 H474 H 0.31258 0.38292 0.14409
 H475 H 0.40301 0.45754 0.32680
 C476 C 1.09037 0.61496 0.28529
 C477 C 1.13949 0.63897 0.30311
 C478 C 1.13870 0.68022 0.32583
 C479 C 1.08958 0.65627 0.30767
 C480 C 1.14803 0.69497 0.22677
 C481 C 1.14830 0.65292 0.20314
 C482 C 1.09909 0.62909 0.18583
 C483 C 1.09835 0.67040 0.20807
 H484 H 1.06691 0.58187 0.31078
 H485 H 1.15624 0.62588 0.34281
 H486 H 1.06523 0.65739 0.35118
 H487 H 1.17207 0.72824 0.20299
 H488 H 1.17230 0.65144 0.15918
 H489 H 1.08140 0.68323 0.16825
 C490 C 0.50288 0.15135 0.23873
 C491 C 0.45665 0.14425 0.24462
 C492 C 0.45454 0.13212 0.34483
 C493 C 0.50051 0.13959 0.33918
 C494 C 0.43452 0.08388 0.31994
 C495 C 0.43684 0.09542 0.21879
 C496 C 0.48291 0.10306 0.21448
 C497 C 0.48047 0.09135 0.31503
 H498 H 0.53113 0.17905 0.20489
 H499 H 0.44654 0.16610 0.21599
 H500 H 0.52689 0.15767 0.38918
 H501 H 0.40637 0.05613 0.35384
 H502 H 0.41080 0.07715 0.16831
 H503 H 0.49016 0.06971 0.34646
 C504 C 0.61187 0.54289 0.28191
 C505 C 0.61785 0.50509 0.30753
 C506 C 0.66687 0.53766 0.31708
 C507 C 0.66087 0.57549 0.29037
 C508 C 0.67353 0.53035 0.21744
 C509 C 0.62404 0.49772 0.20828
 C510 C 0.61731 0.53515 0.18145
 C511 C 0.66654 0.56813 0.18931
 H512 H 0.58688 0.54852 0.31105
 H513 H 0.59699 0.47881 0.35556
 H514 H 0.67593 0.60751 0.32487
 H515 H 0.69924 0.52517 0.19114
 H516 H 0.60890 0.46550 0.17452
 H517 H 0.68660 0.59400 0.13996
 C518 C 0.95323 0.39095 0.30871
 C519 C 0.90715 0.37040 0.34767
 C520 C 0.90089 0.32484 0.33642
 C521 C 0.94692 0.34526 0.29748
 C522 C 0.88168 0.32061 0.24189
 C523 C 0.88828 0.36653 0.25276
 C524 C 0.93434 0.38692 0.21445
 C525 C 0.92803 0.34152 0.20180
 H526 H 0.98235 0.42012 0.33645
 H527 H 0.89823 0.38225 0.40797
 H528 H 0.97085 0.33603 0.31614
 H529 H 0.85220 0.29151 0.21454
 H530 H 0.86450 0.37593 0.23384
 H531 H 0.93711 0.33028 0.14084
   
