data_POSCAR
  _audit_creation_date              2014-09-24
  _audit_creation_method            'ToBaCCo'
  _symmetry_space_group_name_H-M    'P1'
  _symmetry_Int_Tables_number       1
  _symmetry_cell_setting            triclinic
  loop_
  _symmetry_equiv_pos_as_xyz
 x,y,z
_cell_length_a 31.4203
_cell_length_b 33.4486
_cell_length_c 31.2762
_cell_angle_alpha 91.878600
_cell_angle_beta 90.561200
_cell_angle_gamma 89.736700
loop_
  _atom_site_label
  _atom_site_type_symbol
  _atom_site_fract_x
  _atom_site_fract_y
  _atom_site_fract_z
N1 N 0.17942 0.20506 0.31529
 N2 N 0.20950 0.17762 0.31287
 C3 C 0.20366 0.15124 0.34388
 C4 C 0.16797 0.16278 0.36671
 C5 C 0.15350 0.19716 0.34793
 H6 H 0.22144 0.12372 0.34697
 H7 H 0.12401 0.21282 0.35475
 Cu8 Cu 0.24708 0.17389 0.26380
 Cu9 Cu 0.17052 0.24323 0.27024
 Cu10 Cu 0.25650 0.25353 0.20261
 N11 N 0.28361 0.17266 0.21391
 N12 N 0.28763 0.20407 0.19006
 C13 C 0.31343 0.19473 0.15699
 C14 C 0.32559 0.15520 0.16022
 C15 C 0.30624 0.14208 0.19659
 H16 H 0.32130 0.21471 0.13176
 H17 H 0.30764 0.11219 0.20873
 N18 N 0.20924 0.29239 0.20645
 N19 N 0.17583 0.28782 0.23110
 C20 C 0.14601 0.31508 0.22105
 C21 C 0.16133 0.33755 0.18840
 C22 C 0.20151 0.32261 0.18006
 H23 H 0.11418 0.31636 0.23388
 H24 H 0.22179 0.33043 0.15390
 H25 H 0.20648 0.21913 0.21955
 H26 H 0.23400 0.24604 0.26503
 N27 N -0.15411 0.82730 0.24922
 N28 N -0.18141 0.85686 0.24501
 C29 C -0.17075 0.88700 0.27257
 C30 C -0.13507 0.87554 0.29537
 C31 C -0.12545 0.83741 0.28001
 H32 H -0.18792 0.91496 0.27622
 H33 H -0.09960 0.81847 0.29042
 Cu34 Cu -0.22882 0.85228 0.20458
 Cu35 Cu -0.15878 0.77788 0.21456
 Cu36 Cu -0.22358 0.78475 0.12401
 N37 N -0.27708 0.84348 0.16586
 N38 N -0.27455 0.81745 0.13351
 C39 C -0.30918 0.82123 0.10817
 C40 C -0.33501 0.85080 0.12600
 C41 C -0.31361 0.86436 0.16248
 H42 H -0.31379 0.80564 0.07763
 H43 H -0.32232 0.88972 0.18295
 N44 N -0.17979 0.74283 0.13035
 N45 N -0.15642 0.73949 0.16542
 C46 C -0.12955 0.70834 0.16006
 C47 C -0.13630 0.69142 0.11981
 C48 C -0.16835 0.71382 0.10173
 H49 H -0.10578 0.69940 0.18314
 H50 H -0.18189 0.70962 0.06999
 H51 H -0.17731 0.81147 0.16457
 H52 H -0.22030 0.78101 0.18796
 N53 N -0.19491 0.17974 -0.24479
 N54 N -0.23191 0.17238 -0.26333
 C55 C -0.22558 0.15034 -0.29968
 C56 C -0.18224 0.14372 -0.30361
 C57 C -0.16386 0.16269 -0.26834
 H58 H -0.25054 0.13873 -0.32058
 H59 H -0.13040 0.16314 -0.25987
 Cu60 Cu -0.28428 0.18908 -0.23494
 Cu61 Cu -0.18946 0.20813 -0.18988
 Cu62 Cu -0.27994 0.25552 -0.15189
 N63 N -0.33060 0.19472 -0.19411
 N64 N -0.32872 0.22002 -0.16101
 C65 C -0.36030 0.21177 -0.13381
 C66 C -0.38302 0.17966 -0.15088
 C67 C -0.36353 0.16986 -0.18926
 H68 H -0.36340 0.22505 -0.10197
 H69 H -0.36944 0.14343 -0.20930
 N70 N -0.22261 0.27157 -0.13296
 N71 N -0.18845 0.25171 -0.14596
 C72 C -0.15375 0.26939 -0.12879
 C73 C -0.16658 0.30196 -0.10392
 C74 C -0.21049 0.30260 -0.10710
 H75 H -0.12140 0.26058 -0.13601
 H76 H -0.23183 0.32468 -0.09297
 H77 H -0.25001 0.20361 -0.16568
 H78 H -0.23989 0.24297 -0.20519
 N79 N 0.14869 0.78423 -0.28322
 N80 N 0.17861 0.81159 -0.28132
 C81 C 0.16434 0.84481 -0.29976
 C82 C 0.12333 0.83804 -0.31442
 C83 C 0.11431 0.79914 -0.30366
 H84 H 0.18295 0.87159 -0.30313
 H85 H 0.08527 0.78282 -0.31061
 Cu86 Cu 0.23427 0.80156 -0.25640
 Cu87 Cu 0.15868 0.73149 -0.25945
 Cu88 Cu 0.23903 0.73258 -0.18197
 N89 N 0.28156 0.79975 -0.21616
 N90 N 0.28296 0.77329 -0.18600
 C91 C 0.31401 0.78348 -0.15769
 C92 C 0.33296 0.81809 -0.17113
 C93 C 0.31176 0.82745 -0.20837
 H94 H 0.31962 0.76906 -0.12769
 H95 H 0.31500 0.85466 -0.22579
 N96 N 0.19723 0.68894 -0.18864
 N97 N 0.16680 0.68842 -0.21815
 C98 C 0.14136 0.65682 -0.21211
 C99 C 0.15664 0.63664 -0.17729
 C100 C 0.19207 0.65759 -0.16333
 H101 H 0.11224 0.65065 -0.22976
 H102 H 0.21086 0.65181 -0.13504
 H103 H 0.18897 0.76181 -0.21221
 H104 H 0.22442 0.72979 -0.24645
 N105 N 0.22920 1.20511 0.67673
 N106 N 0.19908 1.23245 0.67995
 C107 C 0.16593 1.22118 0.65475
 C108 C 0.17613 1.18500 0.63465
 C109 C 0.21663 1.17596 0.64883
 H110 H 0.13555 1.23649 0.65378
 H111 H 0.23372 1.14821 0.64286
 Cu112 Cu 0.20403 1.27756 0.72077
 Cu113 Cu 0.27757 1.20458 0.71618
 Cu114 Cu 0.25857 1.25847 0.81029
 N115 N 0.20410 1.31523 0.76958
 N116 N 0.22644 1.30790 0.80424
 C117 C 0.21657 1.33520 0.83507
 C118 C 0.18652 1.36112 0.81903
 C119 C 0.17904 1.34741 0.77742
 H120 H 0.22690 1.33372 0.86808
 H121 H 0.15415 1.35751 0.75615
 N122 N 0.30010 1.21420 0.80606
 N123 N 0.30873 1.19482 0.76969
 C124 C 0.33481 1.16382 0.77773
 C125 C 0.34257 1.16366 0.82123
 C126 C 0.32047 1.19606 0.83820
 H127 H 0.34402 1.14095 0.75432
 H128 H 0.31705 1.20393 0.87181
 H129 H 0.23431 1.22297 0.76042
 H130 H 0.27522 1.26120 0.74864
 N131 N 0.81319 0.82895 0.73786
 N132 N 0.84929 0.81100 0.74710
 C133 C 0.88084 0.82730 0.72468
 C134 C 0.86334 0.85694 0.70027
 C135 C 0.82042 0.85715 0.70916
 H136 H 0.91399 0.81858 0.72624
 H137 H 0.79633 0.87658 0.69602
 Cu138 Cu 0.85102 0.76854 0.78801
 Cu139 Cu 0.75972 0.81425 0.76401
 Cu140 Cu 0.77059 0.75966 0.85609
 N141 N 0.84840 0.72404 0.82625
 N142 N 0.81694 0.72080 0.85335
 C143 C 0.82497 0.68997 0.87892
 C144 C 0.86340 0.67312 0.86695
 C145 C 0.87736 0.69527 0.83342
 H146 H 0.80532 0.68157 0.90535
 H147 H 0.90726 0.69187 0.81687
 N148 N 0.71909 0.79060 0.84254
 N149 N 0.71439 0.81003 0.80670
 C150 C 0.67845 0.83198 0.80890
 C151 C 0.65993 0.82627 0.84800
 C152 C 0.68625 0.79969 0.86847
 H153 H 0.66906 0.85396 0.78598
 H154 H 0.68380 0.79069 0.90124
 H155 H 0.79247 0.80683 0.81952
 H156 H 0.77411 0.75957 0.79198
 N157 N 0.18622 0.84105 1.27953
 N158 N 0.15474 0.81542 1.27510
 C159 C 0.12108 0.82931 1.29756
 C160 C 0.13244 0.86537 1.31703
 C161 C 0.17391 0.87190 1.30518
 H162 H 0.09092 0.81418 1.30013
 H163 H 0.19376 0.89703 1.31481
 Cu164 Cu 0.16198 0.76632 1.24096
 Cu165 Cu 0.24114 0.83198 1.25257
 Cu166 Cu 0.24086 0.75932 1.17061
 N167 N 0.17240 0.71668 1.20865
 N168 N 0.20328 0.71418 1.18055
 C169 C 0.19936 0.67969 1.15746
 C170 C 0.16431 0.65958 1.17203
 C171 C 0.14801 0.68378 1.20454
 H172 H 0.21802 0.67163 1.12958
 H173 H 0.11821 0.67960 1.22077
 N174 N 0.28493 0.80110 1.17675
 N175 N 0.28559 0.82794 1.20867
 C176 C 0.31609 0.85497 1.20147
 C177 C 0.33583 0.84447 1.16352
 C178 C 0.31515 0.81036 1.14854
 H179 H 0.32063 0.88247 1.22009
 H180 H 0.31930 0.79564 1.11755
 H181 H 0.20971 0.80783 1.20081
 H182 H 0.23906 0.77110 1.23380
 N183 N 0.78573 1.17827 1.29278
 N184 N 0.81863 1.20245 1.29302
 C185 C 0.84392 1.19445 1.32667
 C186 C 0.82583 1.16365 1.34852
 C187 C 0.78879 1.15430 1.32642
 H188 H 0.87493 1.20752 1.33259
 H189 H 0.76787 1.12943 1.33190
 Cu190 Cu 0.82859 1.23785 1.24591
 Cu191 Cu 0.74633 1.17456 1.24432
 Cu192 Cu 0.79424 1.20185 1.15052
 N193 N 0.84438 1.26305 1.19322
 N194 N 0.83114 1.24843 1.15589
 C195 C 0.84768 1.27005 1.12464
 C196 C 0.87239 1.29991 1.14343
 C197 C 0.86964 1.29474 1.18698
 H198 H 0.84201 1.26448 1.09081
 H199 H 0.88521 1.31239 1.21209
 N200 N 0.74428 1.16645 1.15186
 N201 N 0.72487 1.15763 1.18758
 C202 C 0.69148 1.13382 1.17811
 C203 C 0.68995 1.12740 1.13438
 C204 C 0.72365 1.14852 1.11859
 H205 H 0.67040 1.12144 1.20134
 H206 H 0.73241 1.15072 1.08541
 H207 H 0.80056 1.17748 1.21050
 H208 H 0.76443 1.22137 1.20420
 O209 O 0.53673 0.96791 0.90905
 O210 O 0.44661 0.97673 1.07191
 O211 O 0.54657 0.94307 1.00203
 O212 O 0.40226 0.95795 0.94117
 O213 O 0.52339 0.96698 1.06390
 O214 O 0.46328 0.93963 0.91505
 O215 O 0.40794 0.94940 1.01995
 O216 O 0.54617 0.93885 0.96717
 C217 C 0.54832 0.93639 0.92654
 C218 C 0.42050 0.95035 1.05802
 C219 C 0.54291 0.94012 1.04297
 C220 C 0.42479 0.93298 0.92064
 O221 O 0.43172 1.01186 0.90123
 O222 O 0.53071 1.04572 1.04305
 O223 O 0.54577 1.04637 0.96320
 O224 O 0.39904 1.02561 1.03392
 O225 O 0.45708 1.05518 1.05137
 O226 O 0.50455 1.04030 0.90743
 O227 O 0.40085 1.03775 0.95637
 O228 O 0.57747 1.00494 1.02163
 Co229 Co 0.48359 0.99033 0.91532
 Co230 Co 0.48890 1.00990 1.05149
 Co231 Co 0.54344 0.99363 0.97521
 Co232 Co 0.40970 0.99303 0.98707
 O233 O 0.47951 0.99653 0.98500
 C234 C 0.41025 1.03956 0.91807
 C235 C 0.56855 1.03503 1.04388
 C236 C 0.53165 1.05984 0.92903
 C237 C 0.41788 1.05418 1.05210
 O238 O 0.04039 0.45847 0.09087
 O239 O 0.03145 0.51882 -0.08783
 O240 O 0.08035 0.44713 -0.03431
 O241 O 0.07811 0.54123 0.03757
 O242 O 0.03217 0.44417 -0.08205
 O243 O 0.03509 0.53434 0.08912
 O244 O 0.07610 0.52995 -0.03773
 O245 O 0.05927 0.41448 0.03884
 C246 C 0.06093 0.42769 0.07736
 C247 C 0.06725 0.53100 -0.07614
 C248 C 0.07132 0.44227 -0.07274
 C249 C 0.07010 0.54603 0.07592
 O250 O -0.04422 0.53017 0.06372
 O251 O -0.04820 0.44806 -0.05680
 O252 O -0.01218 0.40866 0.02717
 O253 O -0.00124 0.56697 -0.04145
 O254 O -0.04693 0.52061 -0.05445
 O255 O -0.04010 0.45358 0.07361
 O256 O -0.00174 0.57373 0.03529
 O257 O -0.02098 0.40642 -0.01171
 Co258 Co -0.00130 0.49397 0.07194
 Co259 Co -0.00556 0.48368 -0.06380
 Co260 Co 0.03068 0.43122 -0.00951
 Co261 Co 0.03588 0.54807 -0.00148
 O262 O 0.01276 0.48984 0.00330
 C263 C -0.03643 0.56515 0.05304
 C264 C -0.04937 0.41501 -0.03960
 C265 C -0.03491 0.41800 0.06114
 C266 C -0.03780 0.55662 -0.05311
 O267 O 1.08225 0.03229 0.47509
 O268 O 0.90586 0.03373 0.55015
 O269 O 0.95718 0.07340 0.46153
 O270 O 1.02774 0.07451 0.56055
 O271 O 0.90617 0.03235 0.46865
 O272 O 1.07908 0.03347 0.55529
 O273 O 0.95813 0.04878 0.59692
 O274 O 1.03135 0.07291 0.46980
 C275 C 1.06958 0.06615 0.46597
 C276 C 0.91964 0.05091 0.58450
 C277 C 0.91898 0.06580 0.45779
 C278 C 1.06667 0.06916 0.56113
 O279 O 1.05805 -0.04337 0.54992
 O280 O 0.93307 -0.04225 0.46684
 O281 O 1.03542 0.00019 0.42547
 O282 O 0.97307 -0.01813 0.59638
 O283 O 0.92476 -0.04152 0.54868
 O284 O 1.05139 -0.04200 0.47339
 O285 O 1.01134 -0.02428 0.59706
 O286 O 0.95884 -0.00032 0.42156
 Co287 Co 1.06080 -0.00291 0.51313
 Co288 Co 0.92483 -0.00340 0.50850
 Co289 Co 0.99588 0.03455 0.44975
 Co290 Co 1.00674 0.02546 0.57448
 O291 O 0.99295 0.01112 0.51103
 C292 C 1.04128 -0.04808 0.58519
 C293 C 0.94129 -0.03323 0.42931
 C294 C 1.04788 -0.03398 0.43519
 C295 C 0.93959 -0.03997 0.58591
 C296 C 1.11062 0.08276 0.39651
 C297 C 1.09885 0.12551 0.38330
 C298 C 1.14446 0.13891 0.39462
 C299 C 1.15648 0.09629 0.40756
 C300 C 1.13128 0.15014 0.44071
 C301 C 1.08525 0.13637 0.42964
 C302 C 1.09726 0.09381 0.44258
 C303 C 1.14284 0.10701 0.45405
 H304 H 1.10183 0.05475 0.37858
 H305 H 1.08086 0.13313 0.35391
 H306 H 1.18583 0.07960 0.39852
 H307 H 1.14013 0.17807 0.45872
 H308 H 1.05572 0.15258 0.43905
 H309 H 1.16065 0.09861 0.48320
 C310 C 0.87611 -0.06849 0.39048
 C311 C 0.87576 -0.05734 0.34297
 C312 C 0.88713 -0.10094 0.33048
 C313 C 0.88738 -0.11233 0.37773
 C314 C 0.93495 -0.09124 0.33298
 C315 C 0.92373 -0.04733 0.34590
 C316 C 0.92387 -0.05867 0.39317
 C317 C 0.93545 -0.10222 0.38085
 H318 H 0.85200 -0.05893 0.41447
 H319 H 0.85118 -0.03862 0.32747
 H320 H 0.87215 -0.13927 0.39051
 H321 H 0.95894 -0.10090 0.30892
 H322 H 0.93898 -0.02042 0.33306
 H323 H 0.96037 -0.12029 0.39672
 C324 C 0.90581 0.09846 0.65209
 C325 C 0.87910 0.13500 0.63897
 C326 C 0.84131 0.11873 0.66386
 C327 C 0.86781 0.08231 0.67705
 C328 C 0.82496 0.09574 0.62360
 C329 C 0.86333 0.11167 0.59827
 C330 C 0.88985 0.07534 0.61174
 C331 C 0.85198 0.05897 0.63647
 H332 H 0.93922 0.09965 0.66397
 H333 H 0.89007 0.16652 0.64025
 H334 H 0.86950 0.07034 0.70971
 H335 H 0.79141 0.09489 0.61221
 H336 H 0.86180 0.12344 0.56551
 H337 H 0.84104 0.02748 0.63525
 C338 C 1.10205 -0.09794 0.60384
 C339 C 1.11329 -0.09128 0.65150
 C340 C 1.09705 -0.13361 0.65998
 C341 C 1.08577 -0.14038 0.61236
 C342 C 1.05209 -0.11701 0.66898
 C343 C 1.06834 -0.07434 0.66012
 C344 C 1.05715 -0.08098 0.61247
 C345 C 1.04048 -0.12319 0.62069
 H346 H 1.12300 -0.09018 0.57699
 H347 H 1.14311 -0.07720 0.66373
 H348 H 1.09341 -0.16770 0.59277
 H349 H 1.03197 -0.12502 0.69636
 H350 H 1.06089 -0.04690 0.67959
 H351 H 1.01061 -0.13624 0.60740
 C352 C 0.35461 1.10791 1.06570
 C353 C 0.33144 1.09491 1.10645
 C354 C 0.34993 1.13147 1.13109
 C355 C 0.37274 1.14499 1.09075
 C356 C 0.38914 1.10719 1.14464
 C357 C 0.37090 1.07036 1.11971
 C358 C 0.39378 1.08360 1.07935
 C359 C 0.41236 1.12020 1.10394
 H360 H 0.34075 1.10784 1.03291
 H361 H 0.29793 1.08467 1.10777
 H362 H 0.37336 1.17594 1.07903
 H363 H 0.40314 1.10705 1.17736
 H364 H 0.37041 1.03942 1.13142
 H365 H 0.44591 1.13029 1.10257
 C366 C 0.38199 0.90575 0.85354
 C367 C 0.39956 0.86484 0.83707
 C368 C 0.35915 0.84476 0.85334
 C369 C 0.34144 0.88538 0.86951
 C370 C 0.38042 0.83789 0.89703
 C371 C 0.42133 0.85861 0.88117
 C372 C 0.40331 0.89915 0.89721
 C373 C 0.36292 0.87897 0.91338
 H374 H 0.38280 0.93402 0.83593
 H375 H 0.41440 0.85893 0.80540
 H376 H 0.30842 0.89640 0.86454
 H377 H 0.37950 0.80970 0.91475
 H378 H 0.45449 0.84804 0.88624
 H379 H 0.34792 0.88530 0.94490
 C380 C 0.56312 0.88503 1.10394
 C381 C 0.59168 0.85189 1.08281
 C382 C 0.63083 0.87064 1.10542
 C383 C 0.60284 0.90320 1.12691
 C384 C 0.63875 0.89721 1.06718
 C385 C 0.59925 0.87898 1.04421
 C386 C 0.57120 0.91156 1.06567
 C387 C 0.61059 0.92989 1.08848
 H388 H 0.53202 0.87986 1.11912
 H389 H 0.58435 0.81946 1.08067
 H390 H 0.60430 0.91340 1.16102
 H391 H 0.67006 0.90231 1.05218
 H392 H 0.59729 0.86896 1.01008
 H393 H 0.61837 0.96225 1.09090
 C394 C 0.57160 1.09127 0.86700
 C395 C 0.55198 1.13151 0.85392
 C396 C 0.59175 1.15287 0.87201
 C397 C 0.61141 1.11282 0.88498
 C398 C 0.57096 1.15843 0.91619
 C399 C 0.53065 1.13630 0.89839
 C400 C 0.55065 1.09632 0.91115
 C401 C 0.59041 1.11781 0.92924
 H402 H 0.57187 1.06337 0.84675
 H403 H 0.53637 1.13726 0.82271
 H404 H 0.64478 1.10314 0.87927
 H405 H 0.57088 1.18646 0.93620
 H406 H 0.49728 1.14572 0.90447
 H407 H 0.60622 1.11187 0.96029
 C408 C 0.12581 0.42271 0.13443
 C409 C 0.10926 0.40088 0.17401
 C410 C 0.13554 0.36381 0.16032
 C411 C 0.15248 0.38526 0.12124
 C412 C 0.09781 0.34700 0.13380
 C413 C 0.07122 0.38432 0.14702
 C414 C 0.08821 0.40569 0.10797
 C415 C 0.11453 0.36858 0.09448
 H416 H 0.13688 0.45418 0.13428
 H417 H 0.10742 0.41390 0.20705
 H418 H 0.18610 0.38566 0.11072
 H419 H 0.08648 0.31561 0.13378
 H420 H 0.03745 0.38414 0.15716
 H421 H 0.11656 0.35530 0.06155
 C422 C -0.08655 0.37230 -0.09937
 C423 C -0.08910 0.32864 -0.08557
 C424 C -0.13785 0.33272 -0.08355
 C425 C -0.13547 0.37630 -0.09746
 C426 C -0.13513 0.34632 -0.03615
 C427 C -0.08590 0.34252 -0.03811
 C428 C -0.08347 0.38605 -0.05202
 C429 C -0.13214 0.39051 -0.04985
 H430 H -0.06628 0.38317 -0.12542
 H431 H -0.07070 0.30339 -0.10016
 H432 H -0.15604 0.38989 -0.12216
 H433 H -0.15599 0.33538 -0.01066
 H434 H -0.06487 0.32862 -0.01407
 H435 H -0.14938 0.41625 -0.03476
 C436 C 0.13573 0.57539 -0.09251
 C437 C 0.15255 0.56551 -0.13811
 C438 C 0.13417 0.60551 -0.15299
 C439 C 0.11769 0.61557 -0.10776
 C440 C 0.09175 0.58537 -0.16556
 C441 C 0.10963 0.54489 -0.15022
 C442 C 0.09335 0.55525 -0.10501
 C443 C 0.07517 0.59526 -0.12008
 H444 H 0.15365 0.57102 -0.06226
 H445 H 0.18468 0.55357 -0.14587
 H446 H 0.12097 0.64493 -0.09046
 H447 H 0.07365 0.58971 -0.19572
 H448 H 0.10604 0.51549 -0.16732
 H449 H 0.04308 0.60736 -0.11240
 C450 C -0.11377 0.59743 0.07129
 C451 C -0.11014 0.61525 0.11755
 C452 C -0.11163 0.65755 0.09981
 C453 C -0.11567 0.64028 0.05376
 C454 C -0.06285 0.65822 0.09645
 C455 C -0.06112 0.61562 0.11403
 C456 C -0.06500 0.59825 0.06805
 C457 C -0.06645 0.64054 0.05025
 H458 H -0.13436 0.57206 0.06061
 H459 H -0.12829 0.60519 0.14548
 H460 H -0.13856 0.65073 0.02925
 H461 H -0.04208 0.68348 0.10706
 H462 H -0.03833 0.60515 0.13865
 H463 H -0.04817 0.65053 0.02238
 C464 C 1.09041 0.12043 0.62255
 C465 C 1.13854 0.11487 0.63080
 C466 C 1.14649 0.15622 0.61234
 C467 C 1.09855 0.16208 0.60423
 C468 C 1.15210 0.13723 0.56731
 C469 C 1.14383 0.09551 0.58563
 C470 C 1.09589 0.10127 0.57756
 C471 C 1.10363 0.14255 0.55886
 H472 H 1.06482 0.11337 0.64529
 H473 H 1.15304 0.10367 0.66065
 H474 H 1.08007 0.18967 0.61202
 H475 H 1.17789 0.14476 0.54500
 H476 H 1.16226 0.06789 0.57774
 H477 H 1.08886 0.15349 0.52904
 C478 C 0.93550 -0.07209 0.66426
 C479 C 0.88800 -0.07060 0.67716
 C480 C 0.88563 -0.11629 0.67060
 C481 C 0.93285 -0.11823 0.65816
 C482 C 0.87224 -0.11206 0.62359
 C483 C 0.87478 -0.06611 0.62982
 C484 C 0.92196 -0.06793 0.61724
 C485 C 0.91963 -0.11361 0.61067
 H486 H 0.96188 -0.05550 0.68056
 H487 H 0.87470 -0.05314 0.70475
 H488 H 0.95632 -0.14016 0.67016
 H489 H 0.84598 -0.12869 0.60715
 H490 H 0.85097 -0.04455 0.61769
 H491 H 0.93283 -0.13096 0.58295
 C492 C 1.07618 -0.10619 0.40887
 C493 C 1.06118 -0.11556 0.36225
 C494 C 1.10696 -0.10885 0.34706
 C495 C 1.12208 -0.09982 0.39321
 C496 C 1.09757 -0.06429 0.34058
 C497 C 1.05150 -0.07049 0.35632
 C498 C 1.06685 -0.06163 0.40242
 C499 C 1.11252 -0.05505 0.38706
 H500 H 1.06706 -0.12314 0.43727
 H501 H 1.04016 -0.14066 0.35173
 H502 H 1.15135 -0.11211 0.40811
 H503 H 1.10670 -0.04736 0.31217
 H504 H 1.02234 -0.05787 0.34163
 H505 H 1.13338 -0.02981 0.39758
 C506 C 0.84944 0.11388 0.44429
 C507 C 0.86613 0.15272 0.42433
 C508 C 0.84781 0.13856 0.38069
 C509 C 0.83063 0.10020 0.40011
 C510 C 0.88986 0.11734 0.36923
 C511 C 0.90849 0.13124 0.41302
 C512 C 0.89148 0.09284 0.43248
 C513 C 0.87302 0.07883 0.38885
 H514 H 0.83320 0.11208 0.47552
 H515 H 0.86305 0.18342 0.43858
 H516 H 0.79838 0.08754 0.39459
 H517 H 0.90638 0.11889 0.33811
 H518 H 0.94075 0.14391 0.41852
 H519 H 0.87607 0.04814 0.37452
 C520 C 0.09213 0.40815 -0.14858
 C521 C 0.13438 0.42571 -0.16488
 C522 C 0.15715 0.38642 -0.15412
 C523 C 0.11534 0.36874 -0.13824
 C524 C 0.16795 0.40289 -0.10882
 C525 C 0.14465 0.44248 -0.11898
 C526 C 0.10293 0.42447 -0.10323
 C527 C 0.12593 0.38524 -0.09278
 H528 H 0.06064 0.41054 -0.16472
 H529 H 0.13823 0.44211 -0.19487
 H530 H 0.10345 0.33819 -0.14631
 H531 H 0.19939 0.40062 -0.09257
 H532 H 0.15637 0.47303 -0.11062
 H533 H 0.12280 0.36849 -0.06294
 C534 C -0.06372 0.38386 0.13068
 C535 C -0.11207 0.37626 0.12525
 C536 C -0.10296 0.33110 0.12118
 C537 C -0.05492 0.33834 0.12689
 C538 C -0.09914 0.33346 0.07234
 C539 C -0.10800 0.37906 0.07610
 C540 C -0.06001 0.38628 0.08179
 C541 C -0.05078 0.34114 0.07780
 H542 H -0.04885 0.40496 0.15447
 H543 H -0.13742 0.39044 0.14511
 H544 H -0.03322 0.32142 0.14798
 H545 H -0.11362 0.31194 0.04880
 H546 H -0.12948 0.39600 0.05483
 H547 H -0.02527 0.32704 0.05810
 C548 C -0.05302 0.63034 -0.07741
 C549 C -0.06752 0.62755 -0.12468
 C550 C -0.11230 0.64121 -0.11103
 C551 C -0.09804 0.64424 -0.06387
 C552 C -0.12618 0.59760 -0.10599
 C553 C -0.08102 0.58364 -0.11947
 C554 C -0.06666 0.58664 -0.07236
 C555 C -0.11140 0.60010 -0.05845
 H556 H -0.02277 0.64376 -0.06537
 H557 H -0.04914 0.63866 -0.15196
 H558 H -0.10520 0.66974 -0.04145
 H559 H -0.15655 0.58452 -0.11813
 H560 H -0.07376 0.55835 -0.14213
 H561 H -0.12900 0.58843 -0.03095
 C562 C 0.07964 0.61337 0.11974
 C563 C 0.10035 0.60629 0.16387
 C564 C 0.14111 0.62657 0.14863
 C565 C 0.12053 0.63382 0.10475
 C566 C 0.15909 0.58611 0.13227
 C567 C 0.11784 0.56532 0.14707
 C568 C 0.09740 0.57288 0.10323
 C569 C 0.13816 0.59313 0.08803
 H570 H 0.04669 0.62436 0.11427
 H571 H 0.08487 0.61185 0.19527
 H572 H 0.12174 0.66226 0.08747
 H573 H 0.19208 0.57527 0.13772
 H574 H 0.11644 0.53672 0.16403
 H575 H 0.15353 0.58744 0.05659
 C576 C 0.37016 1.10973 0.91047
 C577 C 0.39654 1.13614 0.88090
 C578 C 0.36212 1.13071 0.84596
 C579 C 0.33558 1.10465 0.87523
 C580 C 0.38502 1.09342 0.82727
 C581 C 0.41969 1.09840 0.86262
 C582 C 0.39303 1.07243 0.89184
 C583 C 0.35869 1.06699 0.85688
 H584 H 0.36418 1.11617 0.94495
 H585 H 0.41200 1.16489 0.89046
 H586 H 0.30074 1.10756 0.88015
 H587 H 0.39115 1.08699 0.79284
 H588 H 0.45445 1.09525 0.85744
 H589 H 0.34332 1.03822 0.84730
 C590 C 0.36860 0.88994 1.07172
 C591 C 0.39074 0.85896 1.10013
 C592 C 0.36126 0.87183 1.13706
 C593 C 0.33899 0.90256 1.10890
 C594 C 0.39348 0.90351 1.15320
 C595 C 0.42334 0.89108 1.11573
 C596 C 0.40089 0.92174 1.08765
 C597 C 0.37141 0.93455 1.12460
 H598 H 0.35831 0.88434 1.03799
 H599 H 0.39852 0.82761 1.09027
 H600 H 0.30404 0.90701 1.10625
 H601 H 0.40351 0.90871 1.18704
 H602 H 0.45821 0.88674 1.11826
 H603 H 0.36354 0.96584 1.13448
 C604 C 0.60258 1.06537 1.11640
 C605 C 0.65120 1.05768 1.11609
 C606 C 0.65839 1.10252 1.10969
 C607 C 0.61019 1.11049 1.11033
 C608 C 0.65730 1.09591 1.06079
 C609 C 0.64968 1.05073 1.06689
 C610 C 0.60150 1.05880 1.06756
 C611 C 0.60869 1.10361 1.06117
 H612 H 0.57979 1.05244 1.13899
 H613 H 0.66902 1.03905 1.13897
 H614 H 0.59426 1.13531 1.12847
 H615 H 0.68002 1.10866 1.03801
 H616 H 0.66551 1.02578 1.04886
 H617 H 0.59066 1.12227 1.03848
 C618 C 0.62054 0.89718 0.92012
 C619 C 0.61249 0.85173 0.91513
 C620 C 0.62735 0.85299 0.86849
 C621 C 0.63559 0.89820 0.87340
 C622 C 0.58157 0.86075 0.85289
 C623 C 0.56623 0.86000 0.89996
 C624 C 0.57477 0.90513 0.90467
 C625 C 0.58957 0.90637 0.85807
 H626 H 0.63642 0.91234 0.94804
 H627 H 0.62208 0.82908 0.93856
 H628 H 0.66445 0.91373 0.86240
 H629 H 0.56591 0.84534 0.82502
 H630 H 0.53727 0.84477 0.91114
 H631 H 0.57982 0.92912 0.83480
   
