data_POSCAR
  _audit_creation_date              2014-09-24
  _audit_creation_method            'ToBaCCo'
  _symmetry_space_group_name_H-M    'P1'
  _symmetry_Int_Tables_number       1
  _symmetry_cell_setting            triclinic
  loop_
  _symmetry_equiv_pos_as_xyz
 x,y,z
_cell_length_a 21.8969
_cell_length_b 25.3512
_cell_length_c 14.9452
_cell_angle_alpha 89.999300
_cell_angle_beta 90.000800
_cell_angle_gamma 90.248400
loop_
  _atom_site_label
  _atom_site_type_symbol
  _atom_site_fract_x
  _atom_site_fract_y
  _atom_site_fract_z
O1 O 0.20464 0.30034 0.15458
 O2 O 0.32050 0.19862 0.19802
 O3 O 0.20480 0.19770 0.15403
 O4 O 0.32022 0.30044 0.19870
 O5 O 0.29447 0.30020 0.34159
 O6 O 0.17858 0.19791 0.29665
 O7 O 0.29441 0.19776 0.34077
 O8 O 0.17896 0.29977 0.29750
 Cu9 Cu 0.26497 0.24929 0.16192
 Cu10 Cu 0.23412 0.24882 0.33350
 C11 C 0.17158 0.31691 0.21849
 C12 C 0.32785 0.18150 0.27705
 C13 C 0.17123 0.18092 0.21747
 C14 C 0.32764 0.31721 0.27797
 O15 O 0.79452 0.19796 0.15791
 O16 O 0.67907 0.30002 0.20108
 O17 O 0.79458 0.30044 0.15683
 O18 O 0.67867 0.19817 0.20187
 O19 O 0.70490 0.19800 0.34449
 O20 O 0.82031 0.30073 0.29973
 O21 O 0.70475 0.30060 0.34401
 O22 O 0.82061 0.19889 0.30066
 Cu23 Cu 0.73423 0.24906 0.16505
 Cu24 Cu 0.76509 0.24959 0.33662
 C25 C 0.82794 0.18172 0.22166
 C26 C 0.67167 0.31714 0.28011
 C27 C 0.82774 0.31747 0.22044
 C28 C 0.67131 0.18121 0.28108
 O29 O 0.70568 0.80244 0.65800
 O30 O 0.82106 0.70036 0.70118
 O31 O 0.70536 0.69990 0.65758
 O32 O 0.82135 0.80217 0.70272
 O33 O 0.79500 0.80233 0.84530
 O34 O 0.67969 0.69960 0.80051
 O35 O 0.79543 0.69979 0.84411
 O36 O 0.67950 0.80147 0.80072
 Cu37 Cu 0.76582 0.75129 0.66548
 Cu38 Cu 0.73494 0.75075 0.83704
 C39 C 0.67228 0.81872 0.72173
 C40 C 0.82855 0.68330 0.78021
 C41 C 0.67222 0.68286 0.72124
 C42 C 0.82863 0.81912 0.78196
 O43 O 0.29423 0.69806 0.65724
 O44 O 0.17884 0.80012 0.70054
 O45 O 0.29455 0.80054 0.65689
 O46 O 0.17855 0.69828 0.70196
 O47 O 0.20496 0.69802 0.84451
 O48 O 0.32021 0.80083 0.79982
 O49 O 0.20449 0.80063 0.84347
 O50 O 0.32043 0.69898 0.79995
 Cu51 Cu 0.23406 0.74918 0.66478
 Cu52 Cu 0.26497 0.74966 0.83633
 C53 C 0.32766 0.68178 0.72094
 C54 C 0.17138 0.81717 0.77958
 C55 C 0.32770 0.81755 0.72055
 C56 C 0.17133 0.68124 0.78116
 C57 C 1.05600 0.09484 0.10033
 C58 C 1.00024 0.11678 0.12667
 C59 C 0.94427 0.09389 0.10253
 C60 C 0.94383 0.04680 0.05173
 C61 C 0.99994 0.02354 0.02559
 C62 C 1.05617 0.04780 0.04947
 C63 C 1.11113 0.02404 0.02279
 C64 C 1.11100 -0.02242 -0.02678
 C65 C 1.05591 -0.04722 -0.05120
 C66 C 0.99981 -0.02390 -0.02516
 C67 C 0.88874 0.02202 0.02728
 C68 C 0.88861 -0.02438 -0.02246
 C69 C 0.94357 -0.04812 -0.04916
 C70 C 0.94373 -0.09511 -0.10013
 C71 C 0.99948 -0.11714 -0.12622
 C72 C 1.05545 -0.09435 -0.10189
 H73 H 1.15496 0.04093 0.04050
 H74 H 1.15473 -0.03845 -0.04632
 H75 H 0.84501 0.03801 0.04688
 H76 H 0.84478 -0.04123 -0.04022
 H77 H 1.00039 0.15411 0.16212
 H78 H 0.99928 -0.15448 -0.16164
 C79 C 0.55583 0.59438 0.60182
 C80 C 0.49996 0.61662 0.62700
 C81 C 0.44406 0.59403 0.60183
 C82 C 0.44372 0.54710 0.55066
 C83 C 0.49989 0.52356 0.52550
 C84 C 0.55610 0.54741 0.55074
 C85 C 0.61110 0.52332 0.52512
 C86 C 0.61106 0.47700 0.47519
 C87 C 0.55601 0.45262 0.44943
 C88 C 0.49985 0.47621 0.47447
 C89 C 0.38868 0.52273 0.52486
 C90 C 0.38864 0.47648 0.47476
 C91 C 0.44364 0.45240 0.44914
 C92 C 0.44390 0.40547 0.39796
 C93 C 0.49975 0.38314 0.37304
 C94 C 0.55566 0.40563 0.39840
 H95 H 0.65490 0.53981 0.54394
 H96 H 0.65483 0.46073 0.45649
 H97 H 0.34490 0.53896 0.54362
 H98 H 0.34483 0.46001 0.45589
 H99 H 0.49999 0.65391 0.66253
 H100 H 0.49967 0.34582 0.33757
 C101 C -0.05593 0.40572 0.10062
 C102 C -0.00013 0.38324 0.12542
 C103 C 0.05583 0.40579 0.10047
 C104 C 0.05631 0.45298 0.04998
 C105 C 0.00019 0.47667 0.02493
 C106 C -0.05608 0.45280 0.04984
 C107 C -0.11102 0.47700 0.02424
 C108 C -0.11085 0.52342 -0.02542
 C109 C -0.05575 0.54784 -0.05078
 C110 C 0.00035 0.52418 -0.02563
 C111 C 0.11141 0.47749 0.02484
 C112 C 0.11156 0.52403 -0.02453
 C113 C 0.05661 0.54814 -0.05028
 C114 C 0.05646 0.59525 -0.10093
 C115 C 0.00071 0.61754 -0.12640
 C116 C -0.05527 0.59495 -0.10153
 H117 H -0.15486 0.46049 0.04278
 H118 H -0.15459 0.53974 -0.04420
 H119 H 0.15514 0.46117 0.04363
 H120 H 0.15539 0.54069 -0.04283
 H121 H -0.00029 0.34582 0.16055
 H122 H 0.00092 0.65490 -0.16173
 C123 C 0.44436 0.90582 0.60125
 C124 C 0.50022 0.88386 0.62711
 C125 C 0.55612 0.90667 0.60250
 C126 C 0.55644 0.95363 0.55138
 C127 C 0.50026 0.97681 0.52532
 C128 C 0.44407 0.95267 0.54985
 C129 C 0.38907 0.97637 0.52324
 C130 C 0.38909 1.02255 0.47295
 C131 C 0.44412 1.04723 0.44792
 C132 C 0.50028 1.02408 0.47408
 C133 C 0.61147 0.97838 0.52656
 C134 C 0.61147 1.02467 0.47654
 C135 C 0.55645 1.04830 0.44979
 C136 C 0.55617 1.09518 0.39852
 C137 C 0.50036 1.11696 0.37204
 C138 C 0.44445 1.09411 0.39657
 H139 H 0.34526 0.95966 0.54147
 H140 H 0.34531 1.03847 0.45341
 H141 H 0.65524 0.96247 0.54611
 H142 H 0.65526 1.04152 0.45852
 H143 H 0.50021 0.84659 0.66272
 H144 H 0.50042 1.15417 0.33625
 C145 C 1.12394 0.14520 0.20078
 C146 C 1.11273 0.12496 0.11951
 H147 H 1.09358 0.13523 0.25565
 H148 H 1.14397 0.13231 0.06461
 C149 C 0.62224 0.64535 0.70350
 C150 C 0.61266 0.62400 0.62277
 H151 H 0.59035 0.63731 0.75733
 H152 H 0.64552 0.63029 0.56961
 C153 C -0.12230 0.35497 0.20257
 C154 C -0.11281 0.37628 0.12178
 H155 H -0.09031 0.36297 0.25629
 H156 H -0.14576 0.37001 0.06871
 C157 C 0.37771 0.85503 0.70282
 C158 C 0.38758 0.87608 0.62194
 H159 H 0.40937 0.86332 0.75684
 H160 H 0.35498 0.86950 0.56854
 C161 C -0.12149 0.64606 -0.20258
 C162 C -0.11197 0.62438 -0.12215
 H163 H -0.08962 0.63846 -0.25652
 H164 H -0.14484 0.63025 -0.06893
 C165 C 0.37805 1.14453 0.29461
 C166 C 0.38757 1.12313 0.37526
 H167 H 0.41012 1.13703 0.24089
 H168 H 0.35453 1.12897 0.42827
 C169 C 1.12145 -0.14556 -0.20315
 C170 C 1.11221 -0.12363 -0.12285
 H171 H 1.08936 -0.13819 -0.25690
 H172 H 1.14533 -0.12924 -0.06988
 C173 C 0.62186 0.35453 0.29732
 C174 C 0.61239 0.37623 0.37775
 H175 H 0.59002 0.36218 0.24336
 H176 H 0.64523 0.37031 0.43098
 C177 C 0.87591 -0.14520 -0.20111
 C178 C 0.88699 -0.12509 -0.11970
 H179 H 0.90637 -0.13519 -0.25583
 H180 H 0.85564 -0.13250 -0.06495
 C181 C 0.37760 0.35471 0.29585
 C182 C 0.38707 0.37598 0.37667
 H183 H 0.40958 0.36276 0.24214
 H184 H 0.35412 0.36965 0.42971
 C185 C 0.12411 0.64549 -0.20195
 C186 C 0.11324 0.62514 -0.12066
 H187 H 0.09352 0.63562 -0.25659
 H188 H 0.14476 0.63234 -0.06604
 C189 C 0.62402 1.14550 0.29785
 C190 C 0.61284 1.12534 0.37918
 H191 H 0.59366 1.13548 0.24301
 H192 H 0.64409 1.13278 0.43403
 C193 C 0.12182 0.35435 0.20133
 C194 C 0.11251 0.37629 0.12104
 H195 H 0.08990 0.36188 0.25523
 H196 H 0.14546 0.37052 0.06789
 C197 C 0.62228 0.85589 0.70425
 C198 C 0.61297 0.87758 0.62376
 H199 H 0.59016 0.86332 0.75793
 H200 H 0.64609 0.87186 0.57082
 C201 C 0.87808 0.14468 0.20421
 C202 C 0.88746 0.12302 0.12372
 H203 H 0.91022 0.13730 0.25789
 H204 H 0.85434 0.12870 0.07078
 C205 C 0.37769 0.64465 0.70343
 C206 C 0.38727 0.62327 0.62277
 H207 H 0.40960 0.63698 0.75728
 H208 H 0.35440 0.62927 0.56960
   
