data_POSCAR
  _audit_creation_date              2014-09-24
  _audit_creation_method            'ToBaCCo'
  _symmetry_space_group_name_H-M    'P1'
  _symmetry_Int_Tables_number       1
  _symmetry_cell_setting            triclinic
  loop_
  _symmetry_equiv_pos_as_xyz
 x,y,z
_cell_length_a 57.4490
_cell_length_b 57.5388
_cell_length_c 23.1596
_cell_angle_alpha 90.018000
_cell_angle_beta 90.018800
_cell_angle_gamma 120.000500
loop_
  _atom_site_label
  _atom_site_type_symbol
  _atom_site_fract_x
  _atom_site_fract_y
  _atom_site_fract_z
C1 C 0.18449 0.46856 0.44741
 C2 C 0.17265 0.46867 0.49999
 C3 C 0.18456 0.46861 0.55254
 C4 C 0.20905 0.46835 0.55314
 C5 C 0.22129 0.46820 0.49998
 C6 C 0.20898 0.46829 0.44681
 C7 C 0.22153 0.46822 0.39470
 C8 C 0.24573 0.46814 0.39472
 C9 C 0.25829 0.46815 0.44682
 C10 C 0.24598 0.46814 0.49997
 C11 C 0.22168 0.46836 0.60524
 C12 C 0.24589 0.46832 0.60521
 C13 C 0.25842 0.46826 0.55309
 C14 C 0.28314 0.46842 0.55238
 C15 C 0.29496 0.46838 0.49972
 C16 C 0.28293 0.46829 0.44731
 H17 H 0.21272 0.46825 0.35338
 H18 H 0.25456 0.46812 0.35344
 H19 H 0.21291 0.46845 0.64656
 H20 H 0.25477 0.46837 0.64650
 H21 H 0.15389 0.46900 0.50003
 H22 H 0.31400 0.46863 0.49938
 C23 C 0.53163 -0.28358 0.44924
 C24 C 0.53153 -0.29559 0.50163
 C25 C 0.53157 -0.28375 0.55432
 C26 C 0.53179 -0.25906 0.55516
 C27 C 0.53194 -0.24661 0.50211
 C28 C 0.53187 -0.25892 0.44887
 C29 C 0.53192 -0.24632 0.39684
 C30 C 0.53196 -0.22210 0.39699
 C31 C 0.53193 -0.20962 0.44916
 C32 C 0.53197 -0.22193 0.50226
 C33 C 0.53176 -0.24654 0.60735
 C34 C 0.53177 -0.22233 0.60749
 C35 C 0.53182 -0.20969 0.55545
 C36 C 0.53163 -0.18520 0.55489
 C37 C 0.53165 -0.17331 0.50229
 C38 C 0.53176 -0.18517 0.44980
 H39 H 0.53191 -0.25513 0.35552
 H40 H 0.53197 -0.21324 0.35575
 H41 H 0.53168 -0.25543 0.64861
 H42 H 0.53170 -0.21357 0.64884
 H43 H 0.53122 -0.31464 0.50126
 H44 H 0.53137 -0.15457 0.50206
 C45 C 1.18521 0.71692 0.55338
 C46 C 1.17338 0.70508 0.50068
 C47 C 1.18532 0.71711 0.44831
 C48 C 1.20978 0.74175 0.44789
 C49 C 1.22204 0.75407 0.50108
 C50 C 1.20972 0.74163 0.55416
 C51 C 1.22229 0.75417 0.60632
 C52 C 1.24651 0.77838 0.60641
 C53 C 1.25911 0.79100 0.55435
 C54 C 1.24675 0.77876 0.50115
 C55 C 1.22233 0.75431 0.39583
 C56 C 1.24656 0.77851 0.39587
 C57 C 1.25915 0.79107 0.44802
 C58 C 1.28387 0.81555 0.44870
 C59 C 1.29578 0.82740 0.50132
 C60 C 1.28382 0.81549 0.55383
 H61 H 1.21347 0.74529 0.64758
 H62 H 1.25533 0.78715 0.64777
 H63 H 1.21350 0.74547 0.35452
 H64 H 1.25540 0.78732 0.35458
 H65 H 1.15462 0.68604 0.50030
 H66 H 1.31485 0.84616 0.50141
 C67 C 0.71653 0.53163 0.44895
 C68 C 0.70457 0.53152 0.50144
 C69 C 0.71651 0.53157 0.55403
 C70 C 0.74126 0.53182 0.55460
 C71 C 0.75365 0.53198 0.50141
 C72 C 0.74123 0.53189 0.44831
 C73 C 0.75377 0.53195 0.39614
 C74 C 0.77803 0.53201 0.39601
 C75 C 0.79064 0.53200 0.44804
 C76 C 0.77838 0.53203 0.50127
 C77 C 0.75390 0.53181 0.60665
 C78 C 0.77816 0.53185 0.60652
 C79 C 0.79073 0.53191 0.55433
 C80 C 0.81527 0.53175 0.55349
 C81 C 0.82710 0.53177 0.50079
 C82 C 0.81514 0.53185 0.44841
 H83 H 0.74486 0.53192 0.35491
 H84 H 0.78684 0.53202 0.35468
 H85 H 0.74506 0.53172 0.64800
 H86 H 0.78701 0.53179 0.64777
 H87 H 0.68549 0.53119 0.50124
 H88 H 0.84589 0.53151 0.50040
 C89 C 0.46800 0.18511 0.55384
 C90 C 0.46804 0.17314 0.50144
 C91 C 0.46795 0.18491 0.44881
 C92 C 0.46773 0.20933 0.44795
 C93 C 0.46766 0.22171 0.50095
 C94 C 0.46779 0.20955 0.55420
 C95 C 0.46783 0.22219 0.60617
 C96 C 0.46784 0.24640 0.60595
 C97 C 0.46779 0.25887 0.55369
 C98 C 0.46765 0.24637 0.50068
 C99 C 0.46769 0.22174 0.39570
 C100 C 0.46767 0.24594 0.39542
 C101 C 0.46770 0.25859 0.44739
 C102 C 0.46789 0.28322 0.44764
 C103 C 0.46799 0.29531 0.49996
 C104 C 0.46800 0.28356 0.55273
 H105 H 0.46790 0.21345 0.64753
 H106 H 0.46791 0.25533 0.64716
 H107 H 0.46771 0.21283 0.35453
 H108 H 0.46767 0.25470 0.35405
 H109 H 0.46834 0.15442 0.50162
 H110 H 0.46828 0.31434 0.49948
 C111 C 0.71719 0.18539 0.44844
 C112 C 0.70522 0.17352 0.50092
 C113 C 0.71713 0.18541 0.55347
 C114 C 0.74179 0.20987 0.55416
 C115 C 0.75419 0.22214 0.50108
 C116 C 0.74184 0.20986 0.44791
 C117 C 0.75440 0.22239 0.39583
 C118 C 0.77862 0.24662 0.39589
 C119 C 0.79115 0.25918 0.44803
 C120 C 0.77887 0.24683 0.50116
 C121 C 0.75429 0.22240 0.60631
 C122 C 0.77852 0.24663 0.60642
 C123 C 0.79114 0.25922 0.55434
 C124 C 0.81564 0.28393 0.55372
 C125 C 0.82750 0.29582 0.50110
 C126 C 0.81560 0.28384 0.44862
 H127 H 0.74555 0.21356 0.35454
 H128 H 0.78746 0.25548 0.35463
 H129 H 0.74539 0.21357 0.64754
 H130 H 0.78730 0.25548 0.64776
 H131 H 0.68619 0.15478 0.50086
 H132 H 0.84625 0.31487 0.50086
 N133 N 0.97213 0.52769 0.06123
 N134 N 0.95362 0.53427 0.07286
 N135 N 1.02867 0.53968 0.10085
 N136 N 1.04715 0.55314 0.14030
 N137 N 1.02867 0.55598 0.06115
 N138 N 1.04717 0.58105 0.07265
 N139 N 0.97221 0.51142 0.10091
 N140 N 0.95379 0.50644 0.14047
 C141 C 0.94218 0.52050 0.12193
 C142 C 1.05869 0.57877 0.12167
 N143 N 1.02882 0.47335 0.06175
 N144 N 1.04725 0.46670 0.07371
 N145 N 0.97229 0.46146 0.10122
 N146 N 0.95387 0.44809 0.14080
 N147 N 0.97227 0.44506 0.06172
 N148 N 0.95381 0.42001 0.07348
 N149 N 1.02877 0.48972 0.10123
 N150 N 1.04713 0.49470 0.14098
 Mn151 Mn 1.00049 0.50057 0.10152
 C152 C 1.05868 0.48054 0.12276
 C153 C 0.94233 0.42241 0.12245
 N154 N 1.02863 0.55585 -0.06358
 N155 N 1.04708 0.58090 -0.07537
 N156 N 0.97213 0.51117 -0.10301
 N157 N 0.95363 0.50606 -0.14252
 N158 N 0.97208 0.52753 -0.06350
 N159 N 0.95353 0.53404 -0.07516
 N160 N 1.02861 0.53945 -0.10308
 N161 N 1.04701 0.55282 -0.14269
 Mn162 Mn 1.00038 0.54203 -0.00117
 C163 C 1.05855 0.57851 -0.12438
 C164 C 0.94202 0.52014 -0.12410
 N165 N 0.97222 0.44490 -0.06301
 N166 N 0.95373 0.41983 -0.07454
 N167 N 1.02868 0.48947 -0.10270
 N168 N 1.04715 0.49450 -0.14217
 N169 N 1.02877 0.47321 -0.06300
 N170 N 1.04731 0.46669 -0.07451
 N171 N 0.97221 0.46120 -0.10270
 N172 N 0.95375 0.44774 -0.14218
 Mn173 Mn 1.00052 0.45886 -0.00064
 Mn174 Mn 1.00041 0.50032 -0.10335
 Cl175 Cl 1.00045 0.50045 -0.00091
 C176 C 0.94221 0.42210 -0.12358
 C177 C 1.05878 0.48047 -0.12354
 N178 N 0.47232 0.44427 0.06057
 N179 N 0.46569 0.41920 0.07210
 N180 N 0.46040 0.48878 0.10030
 N181 N 0.44694 0.49379 0.13972
 N182 N 0.44407 0.47252 0.06052
 N183 N 0.41897 0.46597 0.07193
 N184 N 0.48862 0.46058 0.10034
 N185 N 0.49357 0.44713 0.13985
 C186 C 0.47946 0.42149 0.12121
 C187 C 0.42127 0.47975 0.12099
 N188 N 0.52692 0.55522 0.06155
 N189 N 0.53357 0.58026 0.07353
 N190 N 0.53871 0.51058 0.10092
 N191 N 0.55207 0.50553 0.14055
 N192 N 0.55517 0.52696 0.06150
 N193 N 0.58024 0.53355 0.07338
 N194 N 0.51049 0.53879 0.10095
 N195 N 0.50549 0.55214 0.14066
 Mn196 Mn 0.49955 0.49968 0.10110
 C197 C 0.51970 0.57784 0.12251
 C198 C 0.57780 0.51967 0.12232
 N199 N 0.44424 0.47270 -0.06421
 N200 N 0.41916 0.46612 -0.07607
 N201 N 0.48892 0.46088 -0.10359
 N202 N 0.49402 0.44753 -0.14313
 N203 N 0.47251 0.44446 -0.06416
 N204 N 0.46595 0.41943 -0.07592
 N205 N 0.46069 0.48908 -0.10363
 N206 N 0.44733 0.49414 -0.14325
 Mn207 Mn 0.45802 0.45822 -0.00182
 C208 C 0.42159 0.48000 -0.12502
 C209 C 0.47987 0.42185 -0.12483
 N210 N 0.55536 0.52715 -0.06323
 N211 N 0.58046 0.53371 -0.07465
 N212 N 0.51080 0.53909 -0.10298
 N213 N 0.50576 0.55254 -0.14234
 N214 N 0.52709 0.55538 -0.06318
 N215 N 0.53362 0.58044 -0.07450
 N216 N 0.53902 0.51089 -0.10301
 N217 N 0.55250 0.50589 -0.14245
 Mn218 Mn 0.54140 0.54144 -0.00084
 Mn219 Mn 0.49986 0.49999 -0.10378
 Cl220 Cl 0.49971 0.49983 -0.00134
 C221 C 0.57817 0.51994 -0.12373
 C222 C 0.51981 0.57816 -0.12354
 N223 N 0.44425 -0.02887 0.06346
 N224 N 0.41918 -0.04728 0.07538
 N225 N 0.48889 0.02761 0.10286
 N226 N 0.49395 0.04605 0.14237
 N227 N 0.47246 0.02760 0.06335
 N228 N 0.46587 0.04606 0.07503
 N229 N 0.46072 -0.02878 0.10295
 N230 N 0.44736 -0.04710 0.14267
 C231 C 0.42162 -0.05867 0.12444
 C232 C 0.47977 0.05757 0.12397
 N233 N 0.55537 0.02774 0.06286
 N234 N 0.58046 0.04626 0.07438
 N235 N 0.51085 -0.02868 0.10257
 N236 N 0.50586 -0.04710 0.14205
 N237 N 0.52716 -0.02871 0.06287
 N238 N 0.53377 -0.04718 0.07439
 N239 N 0.53902 0.02770 0.10255
 N240 N 0.55246 0.04616 0.14201
 Mn241 Mn 0.49987 -0.00054 0.10320
 C242 C 0.57814 0.05774 0.12341
 C243 C 0.51997 -0.05865 0.12343
 N244 N 0.47231 0.02755 -0.06136
 N245 N 0.46574 0.04604 -0.07282
 N246 N 0.46047 -0.02886 -0.10100
 N247 N 0.44703 -0.04731 -0.14046
 N248 N 0.44412 -0.02891 -0.06130
 N249 N 0.41903 -0.04743 -0.07280
 N250 N 0.48863 0.02753 -0.10106
 N251 N 0.49364 0.04598 -0.14048
 Mn252 Mn 0.45802 -0.00066 0.00103
 C253 C 0.47954 0.05753 -0.12184
 C254 C 0.42136 -0.05891 -0.12182
 N255 N 0.52702 -0.02878 -0.06186
 N256 N 0.53365 -0.04721 -0.07362
 N257 N 0.53877 0.02761 -0.10137
 N258 N 0.55212 0.04608 -0.14084
 N259 N 0.55521 0.02769 -0.06185
 N260 N 0.58027 0.04623 -0.07347
 N261 N 0.51060 -0.02878 -0.10137
 N262 N 0.50558 -0.04719 -0.14096
 Mn263 Mn 0.54146 -0.00052 0.00051
 Mn264 Mn 0.49962 -0.00062 -0.10168
 Cl265 Cl 0.49974 -0.00059 0.00076
 C266 C 0.51977 -0.05870 -0.12261
 C267 C 0.57783 0.05770 -0.12239
 C268 C 1.13710 0.47156 0.21676
 C269 C 1.15300 0.49342 0.26299
 C270 C 1.14324 0.47141 0.30932
 C271 C 1.12766 0.44952 0.26399
 C272 C 1.11230 0.47429 0.22917
 C273 C 1.10260 0.45231 0.27557
 C274 C 1.12791 0.49613 0.27458
 C275 C 1.11842 0.47414 0.32144
 C276 C 1.15945 0.47007 0.35667
 C277 C 1.17171 0.46924 0.39812
 C278 C 1.09414 0.47618 0.18742
 C279 C 1.07835 0.47801 0.15617
 H280 H 1.14457 0.47052 0.17318
 H281 H 1.17392 0.51030 0.25834
 H282 H 1.12775 0.43034 0.26017
 H283 H 1.08169 0.43542 0.28035
 H284 H 1.12785 0.51533 0.27855
 H285 H 1.11088 0.47519 0.36493
 C286 C 0.50316 0.63226 0.27107
 C287 C 0.52392 0.64321 0.32071
 C288 C 0.52877 0.67155 0.30858
 C289 C 0.50800 0.66086 0.25947
 C290 C 0.52589 0.63767 0.22869
 C291 C 0.53075 0.66599 0.21626
 C292 C 0.54664 0.64840 0.27786
 C293 C 0.55155 0.67702 0.26627
 C294 C 0.53011 0.68914 0.35578
 C295 C 0.53095 0.70228 0.39709
 C296 C 0.52402 0.61761 0.18706
 C297 C 0.52220 0.60000 0.15588
 H298 H 0.48323 0.61366 0.27266
 H299 H 0.52112 0.63399 0.36411
 H300 H 0.49213 0.66621 0.25243
 H301 H 0.53354 0.67512 0.17278
 H302 H 0.56251 0.64308 0.28504
 H303 H 0.57147 0.69564 0.26481
 C304 C 0.36847 -0.11065 0.29531
 C305 C 0.34133 -0.11246 0.30949
 C306 C 0.32798 -0.14320 0.31077
 C307 C 0.35493 -0.14158 0.29711
 C308 C 0.36177 -0.11228 0.23067
 C309 C 0.34846 -0.14302 0.23181
 C310 C 0.33484 -0.11386 0.24425
 C311 C 0.32115 -0.14494 0.24619
 C312 C 0.31043 -0.15941 0.35805
 C313 C 0.29733 -0.17167 0.39945
 C314 C 0.38182 -0.09412 0.18899
 C315 C 0.39944 -0.07833 0.15779
 H316 H 0.38812 -0.09639 0.31518
 H317 H 0.33824 -0.10005 0.34191
 H318 H 0.36302 -0.15314 0.31933
 H319 H 0.35161 -0.15538 0.19935
 H320 H 0.32679 -0.10227 0.22202
 H321 H 0.30145 -0.15925 0.22657
 C322 C 0.86424 0.53051 0.21520
 C323 C 0.84731 0.50805 0.25948
 C324 C 0.85722 0.52926 0.30763
 C325 C 0.87384 0.55174 0.26426
 C326 C 0.88830 0.52654 0.22766
 C327 C 0.89815 0.54772 0.27588
 C328 C 0.87166 0.50410 0.27111
 C329 C 0.88131 0.52529 0.31979
 C330 C 0.84095 0.53050 0.35490
 C331 C 0.82862 0.53125 0.39625
 C332 C 0.90655 0.52475 0.18607
 C333 C 0.92242 0.52297 0.15502
 H334 H 0.85745 0.53264 0.17166
 H335 H 0.82621 0.49176 0.25327
 H336 H 0.87453 0.57135 0.26198
 H337 H 0.91924 0.56401 0.28223
 H338 H 0.87095 0.48448 0.27353
 H339 H 0.88818 0.52315 0.36325
 C340 C 0.46952 0.33365 0.21429
 C341 C 0.49192 0.33927 0.25893
 C342 C 0.47054 0.32780 0.30675
 C343 C 0.44812 0.32185 0.26301
 C344 C 0.47331 0.36157 0.22679
 C345 C 0.45197 0.35007 0.27467
 C346 C 0.49569 0.36746 0.27060
 C347 C 0.47433 0.35574 0.31894
 C348 C 0.46928 0.31031 0.35403
 C349 C 0.46850 0.29726 0.39542
 C350 C 0.47514 0.38161 0.18523
 C351 C 0.47695 0.39925 0.15422
 H352 H 0.46756 0.32481 0.17072
 H353 H 0.50833 0.33461 0.25299
 H354 H 0.42854 0.30287 0.26042
 H355 H 0.43555 0.35471 0.28075
 H356 H 0.51528 0.38642 0.27333
 H357 H 0.47630 0.36467 0.36243
 C358 C 0.64799 0.10185 0.27955
 C359 C 0.67711 0.12469 0.26798
 C360 C 0.67221 0.14309 0.30812
 C361 C 0.64338 0.12047 0.32023
 C362 C 0.63822 0.11184 0.22858
 C363 C 0.63338 0.13025 0.26879
 C364 C 0.66704 0.13443 0.21617
 C365 C 0.66249 0.15315 0.25721
 C366 C 0.68984 0.15946 0.35517
 C367 C 0.70301 0.17185 0.39639
 C368 C 0.61809 0.09350 0.18723
 C369 C 0.60040 0.07757 0.15635
 H370 H 0.64183 0.08058 0.28836
 H371 H 0.69530 0.12261 0.26817
 H372 H 0.63379 0.11486 0.36346
 H373 H 0.61520 0.13235 0.26873
 H374 H 0.67653 0.13995 0.17285
 H375 H 0.66867 0.17444 0.24856
 C376 C 0.49498 0.12658 -0.27323
 C377 C 0.47239 0.11758 -0.31869
 C378 C 0.47079 0.14295 -0.30588
 C379 C 0.49340 0.15221 -0.26093
 C380 C 0.47356 0.11166 -0.22662
 C381 C 0.47197 0.13702 -0.21350
 C382 C 0.45099 0.10246 -0.27163
 C383 C 0.44933 0.12807 -0.25935
 C384 C 0.46950 0.15932 -0.35283
 C385 C 0.46868 0.17167 -0.39404
 C386 C 0.47537 0.09331 -0.18543
 C387 C 0.47713 0.07737 -0.15467
 H388 H 0.51377 0.12579 -0.27856
 H389 H 0.47256 0.10973 -0.36240
 H390 H 0.51081 0.17286 -0.25705
 H391 H 0.47181 0.14479 -0.16972
 H392 H 0.43356 0.08182 -0.27563
 H393 H 0.43055 0.12890 -0.25417
 C394 C 0.66550 0.52797 -0.21579
 C395 C 0.65937 0.50640 -0.26281
 C396 C 0.67233 0.52877 -0.30823
 C397 C 0.67882 0.55037 -0.26211
 C398 C 0.63832 0.52598 -0.22872
 C399 C 0.65132 0.54832 -0.27420
 C400 C 0.63192 0.50442 -0.27491
 C401 C 0.64513 0.52677 -0.32085
 C402 C 0.68995 0.53007 -0.35534
 C403 C 0.70307 0.53090 -0.39670
 C404 C 0.61816 0.52415 -0.18741
 C405 C 0.60045 0.52238 -0.15659
 H406 H 0.67364 0.52844 -0.17206
 H407 H 0.66289 0.48918 -0.25865
 H408 H 0.69833 0.56928 -0.25738
 H409 H 0.64781 0.56554 -0.27848
 H410 H 0.61243 0.48550 -0.27980
 H411 H 0.63690 0.52629 -0.36450
 C412 C 0.89778 0.34970 -0.27540
 C413 C 0.87281 0.32188 -0.26344
 C414 C 0.85703 0.32808 -0.30849
 C415 C 0.88177 0.35560 -0.32099
 C416 C 0.88820 0.36204 -0.22884
 C417 C 0.87239 0.36816 -0.27397
 C418 C 0.86348 0.33454 -0.21603
 C419 C 0.84738 0.34039 -0.26199
 C420 C 0.84073 0.31049 -0.35565
 C421 C 0.82843 0.29738 -0.39703
 C422 C 0.90650 0.38216 -0.18743
 C423 C 0.92240 0.39984 -0.15653
 H424 H 0.91869 0.35372 -0.28052
 H425 H 0.87277 0.30263 -0.25964
 H426 H 0.88915 0.36412 -0.36460
 H427 H 0.87239 0.38739 -0.27791
 H428 H 0.85618 0.32611 -0.17234
 H429 H 0.82646 0.33634 -0.25700
 C430 C 0.50721 -0.12363 -0.28076
 C431 C 0.53196 -0.11608 -0.31922
 C432 C 0.52871 -0.14384 -0.30748
 C433 C 0.50395 -0.15162 -0.26953
 C434 C 0.52587 -0.11264 -0.22802
 C435 C 0.52260 -0.14038 -0.21599
 C436 C 0.55061 -0.10488 -0.26601
 C437 C 0.54742 -0.13290 -0.25481
 C438 C 0.53006 -0.16015 -0.35453
 C439 C 0.53092 -0.17245 -0.39585
 C440 C 0.52401 -0.09434 -0.18668
 C441 C 0.52222 -0.07846 -0.15574
 H442 H 0.49065 -0.11964 -0.29108
 H443 H 0.53581 -0.10623 -0.36212
 H444 H 0.48478 -0.17103 -0.27148
 H445 H 0.51874 -0.15016 -0.17301
 H446 H 0.56979 -0.08547 -0.26415
 H447 H 0.56397 -0.13692 -0.24468
 C448 C 0.34586 0.48916 -0.22778
 C449 C 0.35297 0.49723 -0.29196
 C450 C 0.32753 0.47126 -0.31012
 C451 C 0.32005 0.46311 -0.24670
 C452 C 0.36157 0.47404 -0.23058
 C453 C 0.33614 0.44804 -0.24870
 C454 C 0.36892 0.48215 -0.29407
 C455 C 0.34329 0.45618 -0.31275
 C456 C 0.30985 0.46994 -0.35716
 C457 C 0.29665 0.46911 -0.39843
 C458 C 0.38172 0.47585 -0.18920
 C459 C 0.39939 0.47760 -0.15822
 H460 H 0.34714 0.50274 -0.19233
 H461 H 0.35971 0.51745 -0.31023
 H462 H 0.29973 0.45527 -0.22780
 H463 H 0.32944 0.42783 -0.23044
 H464 H 0.38920 0.49000 -0.31322
 H465 H 0.34207 0.44260 -0.34816
 C466 C 1.10299 0.65108 -0.27600
 C467 C 1.12809 0.67878 -0.26381
 C468 C 1.14371 0.67256 -0.30922
 C469 C 1.11884 0.64515 -0.32194
 C470 C 1.11250 0.63851 -0.22982
 C471 C 1.12814 0.63235 -0.27530
 C472 C 1.13735 0.66589 -0.21680
 C473 C 1.15328 0.66001 -0.26310
 C474 C 1.16005 0.69023 -0.35622
 C475 C 1.17239 0.70341 -0.39746
 C476 C 1.09420 0.61836 -0.18848
 C477 C 1.07831 0.60070 -0.15752
 H478 H 1.08212 0.64721 -0.28091
 H479 H 1.12828 0.69809 -0.25961
 H480 H 1.11136 0.63677 -0.36562
 H481 H 1.12799 0.61306 -0.27965
 H482 H 1.14475 0.67418 -0.17304
 H483 H 1.17416 0.66390 -0.25832
 C484 C 0.87105 0.53972 -0.22080
 C485 C 0.88063 0.55337 -0.28063
 C486 C 0.85677 0.52892 -0.30901
 C487 C 0.84684 0.51526 -0.25004
 C488 C 0.88794 0.52607 -0.22943
 C489 C 0.86408 0.50163 -0.25784
 C490 C 0.89775 0.53969 -0.28846
 C491 C 0.87370 0.51530 -0.31736
 C492 C 0.84045 0.53024 -0.35608
 C493 C 0.82811 0.53107 -0.39737
 C494 C 0.90626 0.52425 -0.18806
 C495 C 0.92218 0.52250 -0.15715
 H496 H 0.87017 0.54974 -0.18056
 H497 H 0.88725 0.57466 -0.29051
 H498 H 0.82570 0.50525 -0.23481
 H499 H 0.85746 0.48033 -0.24803
 H500 H 0.91887 0.54972 -0.30391
 H501 H 0.87465 0.50526 -0.35753
 C502 C 0.45395 0.35214 -0.28107
 C503 C 0.47710 0.35670 -0.32198
 C504 C 0.47093 0.32792 -0.30986
 C505 C 0.44771 0.32307 -0.26949
 C506 C 0.47383 0.36191 -0.23029
 C507 C 0.46765 0.33314 -0.21788
 C508 C 0.49702 0.36670 -0.27073
 C509 C 0.49085 0.33765 -0.25915
 C510 C 0.46957 0.31028 -0.35693
 C511 C 0.46871 0.29710 -0.39818
 C512 C 0.47569 0.38203 -0.18890
 C513 C 0.47747 0.39968 -0.15794
 H514 H 0.43879 0.35830 -0.28970
 H515 H 0.48098 0.36624 -0.36524
 H516 H 0.42743 0.30491 -0.26951
 H517 H 0.46379 0.32370 -0.17453
 H518 H 0.51731 0.38485 -0.27084
 H519 H 0.50600 0.33146 -0.25068
 C520 C 0.65167 0.10278 -0.27153
 C521 C 0.64523 0.11744 -0.31939
 C522 C 0.67196 0.14312 -0.30658
 C523 C 0.67871 0.12871 -0.25927
 C524 C 0.63787 0.11184 -0.22735
 C525 C 0.66459 0.13751 -0.21425
 C526 C 0.63121 0.12629 -0.27474
 C527 C 0.65819 0.15224 -0.26246
 C528 C 0.68966 0.15950 -0.35347
 C529 C 0.70289 0.17188 -0.39459
 C530 C 0.61771 0.09349 -0.18615
 C531 C 0.60003 0.07755 -0.15535
 H532 H 0.64879 0.08226 -0.27485
 H533 H 0.63742 0.10933 -0.36307
 H534 H 0.69847 0.12992 -0.25344
 H535 H 0.67230 0.14554 -0.17048
 H536 H 0.61147 0.12511 -0.28072
 H537 H 0.66109 0.17277 -0.25926
 C538 C 1.13729 0.47145 -0.21673
 C539 C 1.12780 0.44950 -0.26425
 C540 C 1.14350 0.47147 -0.30928
 C541 C 1.15331 0.49338 -0.26267
 C542 C 1.11259 0.47434 -0.22915
 C543 C 1.12832 0.49627 -0.27426
 C544 C 1.10284 0.45246 -0.27582
 C545 C 1.11877 0.47437 -0.32139
 C546 C 1.15964 0.47013 -0.35666
 C547 C 1.17185 0.46930 -0.39815
 C548 C 1.09440 0.47621 -0.18755
 C549 C 1.07855 0.47801 -0.15654
 H550 H 1.14468 0.47027 -0.17316
 H551 H 1.12780 0.43026 -0.26069
 H552 H 1.17426 0.51019 -0.25782
 H553 H 1.12835 0.51552 -0.27797
 H554 H 1.08190 0.43565 -0.28081
 H555 H 1.11130 0.47556 -0.36488
 C556 C 0.54771 0.65036 -0.27522
 C557 C 0.52569 0.64451 -0.32056
 C558 C 0.52873 0.67212 -0.30806
 C559 C 0.55081 0.67826 -0.26326
 C560 C 0.52588 0.63820 -0.22843
 C561 C 0.52892 0.66579 -0.21562
 C562 C 0.50385 0.63213 -0.27330
 C563 C 0.50687 0.66000 -0.26132
 C564 C 0.53006 0.68968 -0.35519
 C565 C 0.53089 0.70278 -0.39653
 C566 C 0.52403 0.61809 -0.18710
 C567 C 0.52225 0.60041 -0.15631
 H568 H 0.56448 0.64619 -0.28053
 H569 H 0.52438 0.63591 -0.36417
 H570 H 0.57012 0.69745 -0.25968
 H571 H 0.53022 0.67430 -0.17192
 H572 H 0.48452 0.61296 -0.27702
 H573 H 0.49011 0.66418 -0.25615
 C574 C 0.36096 -0.13747 -0.25335
 C575 C 0.32990 -0.15327 -0.24747
 C576 C 0.32766 -0.14348 -0.30783
 C577 C 0.35840 -0.12799 -0.31429
 C578 C 0.36141 -0.11265 -0.22753
 C579 C 0.35908 -0.10298 -0.28796
 C580 C 0.33068 -0.12810 -0.22081
 C581 C 0.32811 -0.11866 -0.28203
 C582 C 0.31021 -0.15960 -0.35528
 C583 C 0.29719 -0.17179 -0.39683
 C584 C 0.38145 -0.09450 -0.18587
 C585 C 0.39911 -0.07866 -0.15483
 H586 H 0.37467 -0.14502 -0.24110
 H587 H 0.31767 -0.17415 -0.23141
 H588 H 0.36963 -0.12808 -0.35319
 H589 H 0.37127 -0.08213 -0.30425
 H590 H 0.31953 -0.12793 -0.18183
 H591 H 0.31440 -0.11111 -0.29435
 C592 C 0.54262 -0.10199 0.28500
 C593 C 0.51841 -0.12377 0.31910
 C594 C 0.52905 -0.14320 0.30915
 C595 C 0.55332 -0.12163 0.27558
 C596 C 0.52619 -0.11232 0.22905
 C597 C 0.53685 -0.13172 0.21881
 C598 C 0.50194 -0.13390 0.26267
 C599 C 0.51258 -0.15362 0.25327
 C600 C 0.53035 -0.15938 0.35644
 C601 C 0.53114 -0.17167 0.39778
 C602 C 0.52432 -0.09417 0.18744
 C603 C 0.52249 -0.07836 0.15643
 H604 H 0.55495 -0.08058 0.29766
 H605 H 0.51083 -0.12064 0.36080
 H606 H 0.57446 -0.11678 0.28143
 H607 H 0.54441 -0.13476 0.17703
 H608 H 0.48079 -0.13876 0.25693
 H609 H 0.50026 -0.17506 0.24080
 C610 C 0.34930 0.45195 0.27343
 C611 C 0.35526 0.47400 0.31866
 C612 C 0.32756 0.47091 0.30652
 C613 C 0.32130 0.44879 0.26183
 C614 C 0.36131 0.47366 0.22644
 C615 C 0.33362 0.47057 0.21399
 C616 C 0.36749 0.49573 0.27120
 C617 C 0.33953 0.49265 0.25959
 C618 C 0.31008 0.46965 0.35383
 C619 C 0.29702 0.46888 0.39521
 C620 C 0.38135 0.47548 0.18487
 C621 C 0.39901 0.47728 0.15390
 H622 H 0.35352 0.43523 0.27871
 H623 H 0.36401 0.47540 0.36216
 H624 H 0.30208 0.42949 0.25854
 H625 H 0.32497 0.46918 0.17041
 H626 H 0.38669 0.51505 0.27465
 H627 H 0.33529 0.50936 0.25444
 C628 C 1.13717 0.66626 0.21488
 C629 C 1.12769 0.67874 0.26236
 C630 C 1.14340 0.67246 0.30742
 C631 C 1.15320 0.66033 0.26085
 C632 C 1.11247 0.63870 0.22729
 C633 C 1.12821 0.63250 0.27243
 C634 C 1.10274 0.65086 0.27392
 C635 C 1.11868 0.64488 0.31953
 C636 C 1.15959 0.68995 0.35477
 C637 C 1.17186 0.70301 0.39617
 C638 C 1.09429 0.61866 0.18568
 C639 C 1.07845 0.60101 0.15466
 H640 H 1.14455 0.67480 0.17130
 H641 H 1.12769 0.69797 0.25877
 H642 H 1.17415 0.66444 0.25603
 H643 H 1.12825 0.61328 0.27617
 H644 H 1.08180 0.64677 0.27888
 H645 H 1.11122 0.63624 0.36302
 C646 C 0.49547 0.12702 0.27490
 C647 C 0.49297 0.15215 0.26280
 C648 C 0.47081 0.14260 0.30883
 C649 C 0.47333 0.11774 0.32146
 C650 C 0.47368 0.11146 0.22933
 C651 C 0.45155 0.10197 0.27542
 C652 C 0.47116 0.13631 0.21640
 C653 C 0.44897 0.12707 0.26333
 C654 C 0.46947 0.15893 0.35581
 C655 C 0.46864 0.17132 0.39694
 C656 C 0.47554 0.09320 0.18796
 C657 C 0.47733 0.07733 0.15703
 H658 H 0.51462 0.12682 0.27926
 H659 H 0.50998 0.17299 0.25814
 H660 H 0.47421 0.11024 0.36511
 H661 H 0.43453 0.08114 0.28020
 H662 H 0.47029 0.14372 0.17266
 H663 H 0.42984 0.12730 0.25911
 C664 C 0.66518 0.52848 0.21588
 C665 C 0.67790 0.55058 0.26303
 C666 C 0.67156 0.52873 0.30841
 C667 C 0.65919 0.50667 0.26215
 C668 C 0.63769 0.52583 0.22840
 C669 C 0.63143 0.50403 0.27385
 C670 C 0.65009 0.54787 0.27471
 C671 C 0.64405 0.52608 0.32063
 C672 C 0.68915 0.53009 0.35564
 C673 C 0.70231 0.53093 0.39693
 C674 C 0.61762 0.52395 0.18675
 C675 C 0.59999 0.52214 0.15561
 H676 H 0.67362 0.52945 0.17226
 H677 H 0.69723 0.56973 0.25912
 H678 H 0.66315 0.48975 0.25753
 H679 H 0.61211 0.48487 0.27790
 H680 H 0.64615 0.56479 0.27946
 H681 H 0.63552 0.52510 0.36416
 C682 C 0.89820 0.36016 0.28870
 C683 C 0.87308 0.35937 0.31487
 C684 C 0.85763 0.32870 0.30813
 C685 C 0.88256 0.32924 0.28249
 C686 C 0.88859 0.36255 0.22822
 C687 C 0.87319 0.33188 0.22123
 C688 C 0.86366 0.36199 0.25388
 C689 C 0.84791 0.33100 0.24771
 C690 C 0.84140 0.31113 0.35530
 C691 C 0.82909 0.29800 0.39658
 C692 C 0.90678 0.38260 0.18667
 C693 C 0.92261 0.40023 0.15562
 H694 H 0.91905 0.37234 0.30520
 H695 H 0.87290 0.37052 0.35384
 H696 H 0.89015 0.31557 0.29476
 H697 H 0.87344 0.32082 0.18218
 H698 H 0.85608 0.37567 0.24167
 H699 H 0.82702 0.31877 0.23143
   
