data_POSCAR
  _audit_creation_date              2014-09-24
  _audit_creation_method            'ToBaCCo'
  _symmetry_space_group_name_H-M    'P1'
  _symmetry_Int_Tables_number       1
  _symmetry_cell_setting            triclinic
  loop_
  _symmetry_equiv_pos_as_xyz
 x,y,z
_cell_length_a 18.8579
_cell_length_b 18.8848
_cell_length_c 18.7991
_cell_angle_alpha 90.134300
_cell_angle_beta 90.054300
_cell_angle_gamma 90.050600
loop_
  _atom_site_label
  _atom_site_type_symbol
  _atom_site_fract_x
  _atom_site_fract_y
  _atom_site_fract_z
C1 C 0.30293 0.91783 -0.46391
 C2 C 0.30407 0.91302 -0.53684
 C3 C 0.35583 0.95960 -0.55995
 N4 N 0.38690 0.99199 -0.50401
 C5 C 0.35365 0.96759 -0.44538
 C6 C 0.37185 0.97567 -0.63122
 C7 C 0.44283 0.99015 -0.65218
 C8 C 0.46458 1.00841 -0.72006
 C9 C 0.53688 1.01271 -0.71887
 C10 C 0.55892 0.99717 -0.65015
 N11 N 0.50089 0.98227 -0.61028
 C12 C 0.63070 0.99095 -0.62702
 C13 C 0.64725 0.97490 -0.55537
 C14 C 0.70693 0.93909 -0.53227
 C15 C 0.70645 0.94164 -0.45956
 C16 C 0.64458 0.97605 -0.43995
 N17 N 0.60854 0.99641 -0.49880
 C18 C 0.62330 0.99318 -0.36980
 C19 C 0.55308 1.01538 -0.35656
 C20 C 0.53061 1.05865 -0.30150
 C21 C 0.45767 1.05736 -0.30205
 C22 C 0.43748 1.01543 -0.35926
 N23 N 0.49610 0.99101 -0.39269
 C24 C 0.36779 0.99396 -0.37678
 H25 H 0.27134 0.88530 -0.42892
 H26 H 0.27246 0.87732 -0.56895
 H27 H 0.49715 0.95258 -0.43266
 H28 H 0.43331 1.01518 -0.76746
 H29 H 0.56799 1.02297 -0.76560
 H30 H 0.74598 0.91160 -0.56399
 H31 H 0.74738 0.91939 -0.42663
 H32 H 0.42457 1.08464 -0.26420
 H33 H 0.50098 0.96177 -0.55903
 H34 H 0.56275 1.08969 -0.26550
 C35 C -0.72378 1.54067 0.01060
 C36 C -0.72433 1.46862 0.00717
 C37 C -0.65503 1.44719 -0.00398
 N38 N -0.61224 1.50479 -0.00837
 C39 C -0.65408 1.56235 0.00155
 C40 C -0.63261 1.37635 -0.01567
 C41 C -0.56080 1.36137 -0.03036
 C42 C -0.53634 1.30861 -0.07538
 C43 C -0.46362 1.30777 -0.06915
 C44 C -0.44589 1.35983 -0.02025
 N45 N -0.50522 1.39396 0.00123
 C46 C -0.37760 1.37362 0.00725
 C47 C -0.35887 1.44387 0.02516
 C48 C -0.29998 1.46537 0.06368
 C49 C -0.30018 1.53798 0.06322
 C50 C -0.35716 1.55864 0.02180
 N51 N -0.39384 1.50109 -0.00010
 C52 C -0.37237 1.62816 -0.00113
 C53 C -0.44299 1.64751 -0.01898
 C54 C -0.46337 1.70839 -0.05473
 C55 C -0.53599 1.70859 -0.05700
 C56 C -0.55897 1.64970 -0.01991
 N57 N -0.50198 1.61168 0.00162
 C58 C -0.63068 1.63379 -0.00374
 H59 H -0.77112 1.57194 0.01568
 H60 H -0.77190 1.43722 0.00955
 H61 H -0.50337 1.56786 0.03525
 H62 H -0.56743 1.27542 -0.11056
 H63 H -0.42817 1.27443 -0.09946
 H64 H -0.26086 1.43357 0.09038
 H65 H -0.26379 1.57109 0.09265
 H66 H -0.56778 1.74744 -0.08454
 H67 H -0.50810 1.43216 0.04138
 H68 H -0.43111 1.74952 -0.07729
 C69 C -0.07365 0.54040 0.30964
 C70 C -0.07557 0.46761 0.30990
 C71 C -0.02558 0.44573 0.35918
 N72 N 0.00526 0.50238 0.39039
 C73 C -0.02298 0.56012 0.35912
 C74 C -0.00412 0.37562 0.37302
 C75 C 0.01818 0.35735 0.44285
 C76 C 0.05540 0.29706 0.46241
 C77 C 0.06147 0.29843 0.53510
 C78 C 0.02523 0.35761 0.55896
 N79 N 0.00069 0.39434 0.50232
 C80 C 0.01165 0.37436 0.63123
 C81 C 0.00587 0.44591 0.65435
 C82 C -0.00025 0.46775 0.72451
 C83 C -0.00047 0.53979 0.72448
 C84 C 0.00549 0.56123 0.65431
 N85 N 0.01083 0.50346 0.61157
 C86 C 0.01078 0.63269 0.63113
 C87 C 0.02603 0.64896 0.55929
 C88 C 0.06257 0.70818 0.53599
 C89 C 0.05873 0.70835 0.46309
 C90 C 0.02211 0.64771 0.44330
 N91 N 0.00313 0.61139 0.50243
 C92 C 0.00068 0.62932 0.37348
 H93 H -0.10824 0.57456 0.27929
 H94 H -0.11204 0.43502 0.27980
 H95 H -0.03092 0.56788 0.50402
 H96 H 0.07652 0.25554 0.42936
 H97 H 0.09055 0.26028 0.56641
 H98 H -0.00112 0.43663 0.77231
 H99 H -0.00133 0.57124 0.77224
 H100 H 0.08041 0.74941 0.42991
 H101 H -0.03315 0.43794 0.50444
 H102 H 0.09011 0.74722 0.56786
 O103 O -0.09426 1.00602 0.18550
 O104 O -0.09869 0.99941 -0.18011
 O105 O -0.18359 1.09864 0.00592
 O106 O -0.18270 0.90730 -0.00109
 O107 O -0.09576 0.82124 -0.00163
 O108 O -0.09747 1.18569 0.00667
 O109 O -0.18432 1.00067 -0.09242
 O110 O -0.18171 1.00511 0.09942
 Zr111 Zr -0.12532 1.00337 0.00267
 O112 O -0.06540 0.93947 -0.06262
 O113 O -0.06454 1.06785 0.06683
 C114 C -0.15976 1.00635 0.16477
 C115 C -0.16380 0.99809 -0.15808
 C116 C -0.16281 1.16406 0.00811
 C117 C -0.16122 0.84209 -0.00300
 H118 H -0.09661 1.09779 -0.09192
 O119 O -0.06574 1.06781 -0.06196
 H120 H -0.09393 0.90908 0.09634
 O121 O -0.06389 0.93955 0.06605
 O122 O 0.09313 1.00592 -0.18232
 O123 O 0.09622 0.99937 0.18389
 O124 O -0.00011 1.18605 -0.09432
 O125 O -0.00239 0.82228 -0.09574
 O126 O 0.00223 0.82135 0.09657
 O127 O -0.00272 1.18630 0.09809
 O128 O 0.18186 1.09991 -0.00287
 O129 O 0.18246 0.90955 0.00254
 O130 O 0.09507 1.18613 -0.00187
 O131 O 0.09624 0.82263 0.00296
 O132 O -0.00115 1.09953 -0.18139
 O133 O -0.00006 1.09982 0.18475
 O134 O 0.00393 0.90765 0.18384
 O135 O -0.00440 0.90892 -0.18220
 O136 O 0.18072 1.00716 -0.09635
 O137 O 0.18208 1.00101 0.09643
 Zr138 Zr -0.00208 1.00405 -0.12354
 Zr139 Zr 0.00058 1.00381 0.12656
 Zr140 Zr -0.00112 1.12862 0.00192
 Zr141 Zr -0.00021 0.87937 0.00093
 Zr142 Zr 0.12399 1.00455 0.00040
 O143 O 0.06437 0.93997 0.06504
 O144 O 0.06267 1.06855 -0.06341
 C145 C 0.15875 1.00736 -0.16174
 C146 C 0.16125 0.99783 0.16210
 C147 C 0.00028 1.16479 -0.16000
 C148 C -0.00405 0.84365 -0.16125
 C149 C 0.00434 0.84234 0.16223
 C150 C -0.00207 1.16519 0.16365
 C151 C 0.16056 1.16506 -0.00418
 C152 C 0.16158 0.84420 0.00379
 H153 H 0.09477 1.09828 0.09565
 O154 O 0.06396 1.06825 0.06548
 H155 H 0.09318 0.91028 -0.09402
 O156 O 0.06295 0.94038 -0.06349
 C157 C 0.22639 0.92690 0.26600
 C158 C 0.30752 0.93050 0.25301
 C159 C 0.31506 0.98040 0.31743
 C160 C 0.23414 0.97700 0.33094
 C161 C 0.30431 1.04571 0.26923
 C162 C 0.29679 0.99565 0.20421
 C163 C 0.21679 0.99178 0.21785
 C164 C 0.22357 1.04178 0.28191
 H165 H 0.19350 0.87813 0.26408
 H166 H 0.34217 0.88448 0.24114
 H167 H 0.20498 0.97142 0.38182
 H168 H 0.33574 1.09543 0.27080
 H169 H 0.32207 1.00367 0.15152
 H170 H 0.18850 1.08767 0.29307
 C171 C -0.29470 1.00149 0.20746
 C172 C -0.30051 0.94203 0.26368
 C173 C -0.31241 0.99833 0.32177
 C174 C -0.30639 1.05822 0.26607
 C175 C -0.23140 1.00321 0.33529
 C176 C -0.21959 0.94634 0.27701
 C177 C -0.21467 1.00532 0.22127
 C178 C -0.22551 1.06210 0.27865
 H179 H -0.32038 1.00111 0.15429
 H180 H -0.33140 0.89234 0.25735
 H181 H -0.34090 1.10563 0.26187
 H182 H -0.20167 1.00773 0.38603
 H183 H -0.18316 0.90036 0.28109
 H184 H -0.19397 1.11152 0.28396
 C185 C -0.27111 1.05605 -0.22853
 C186 C -0.25982 1.04343 -0.30913
 C187 C -0.32258 0.99116 -0.30947
 C188 C -0.33401 1.00338 -0.22881
 C189 C -0.27189 0.92909 -0.29277
 C190 C -0.20865 0.98159 -0.29271
 C191 C -0.22044 0.99455 -0.21299
 C192 C -0.28248 0.94197 -0.21234
 H193 H -0.27028 1.10844 -0.20165
 H194 H -0.25047 1.08550 -0.34920
 H195 H -0.38384 1.00886 -0.19806
 H196 H -0.27297 0.87521 -0.31646
 H197 H -0.15663 0.97241 -0.31873
 H198 H -0.29100 0.90011 -0.17184
 C199 C 0.29218 1.02598 -0.20998
 C200 C 0.31283 0.95782 -0.25091
 C201 C 0.30902 0.99893 -0.32152
 C202 C 0.28841 1.06717 -0.28113
 C203 C 0.22973 0.97944 -0.32971
 C204 C 0.23348 0.93814 -0.25886
 C205 C 0.21366 1.00605 -0.21860
 C206 C 0.20926 1.04731 -0.28863
 H207 H 0.31747 1.04543 -0.16028
 H208 H 0.35571 0.92065 -0.23545
 H209 H 0.30926 1.12124 -0.29104
 H210 H 0.19906 0.96317 -0.37732
 H211 H 0.21077 0.88484 -0.24893
 H212 H 0.16598 1.08369 -0.30433
 C213 C 0.20251 1.30044 -0.00659
 C214 C 0.26320 1.30954 0.04833
 C215 C 0.31621 1.31923 -0.01358
 C216 C 0.25606 1.31010 -0.06831
 C217 C 0.33028 1.23845 -0.01426
 C218 C 0.27649 1.22891 0.04704
 C219 C 0.21669 1.22054 -0.00780
 C220 C 0.26964 1.22911 -0.06925
 H221 H 0.14941 1.32558 -0.00316
 H222 H 0.26060 1.34208 0.09753
 H223 H 0.24761 1.34361 -0.11600
 H224 H 0.38165 1.20991 -0.01532
 H225 H 0.28425 1.19499 0.09457
 H226 H 0.27179 1.19525 -0.11758
 C227 C 0.27228 0.77733 0.06386
 C228 C 0.25946 0.69665 0.05854
 C229 C 0.31793 0.69078 0.00114
 C230 C 0.33160 0.77152 0.00744
 C231 C 0.26294 0.70348 -0.05806
 C232 C 0.20398 0.70920 -0.00107
 C233 C 0.21792 0.78903 0.00422
 C234 C 0.27639 0.78419 -0.05232
 H235 H 0.27537 0.80836 0.11402
 H236 H 0.25258 0.66154 0.10533
 H237 H 0.38251 0.80024 0.01419
 H238 H 0.25892 0.67307 -0.10852
 H239 H 0.15091 0.68388 -0.00432
 H240 H 0.28298 0.82088 -0.09792
 C241 C -0.23028 0.73515 0.05693
 C242 C -0.31102 0.74610 0.04660
 C243 C -0.31270 0.68317 -0.00572
 C244 C -0.23182 0.67222 0.00413
 C245 C -0.29784 0.73375 -0.06864
 C246 C -0.29643 0.79713 -0.01604
 C247 C -0.21653 0.78567 -0.00531
 C248 C -0.21727 0.72356 -0.05802
 H249 H -0.20211 0.73606 0.10878
 H250 H -0.34973 0.75555 0.09004
 H251 H -0.20039 0.62284 0.00839
 H252 H -0.32236 0.73254 -0.12232
 H253 H -0.32281 0.84895 -0.02458
 H254 H -0.17808 0.71495 -0.10124
 C255 C -0.28356 1.21778 0.06097
 C256 C -0.27367 1.29787 0.07506
 C257 C -0.32221 1.31478 0.01101
 C258 C -0.33288 1.23460 -0.00251
 C259 C -0.25757 1.31529 -0.03906
 C260 C -0.20852 1.29849 0.02478
 C261 C -0.21954 1.21910 0.01059
 C262 C -0.26808 1.23511 -0.05294
 H263 H -0.29359 1.17707 0.10231
 H264 H -0.27661 1.32100 0.12930
 H265 H -0.38285 1.20474 -0.01097
 H266 H -0.24686 1.35563 -0.08055
 H267 H -0.15697 1.32458 0.03623
 H268 H -0.26535 1.20894 -0.10579
 C269 C 0.01553 1.21098 0.29838
 C270 C 0.06222 1.27860 0.29611
 C271 C -0.00324 1.32348 0.31644
 C272 C -0.04983 1.25644 0.31857
 C273 C -0.02067 1.33378 0.23655
 C274 C 0.04430 1.28806 0.21658
 C275 C -0.00242 1.22152 0.21943
 C276 C -0.06749 1.26640 0.23859
 H277 H 0.03067 1.16005 0.32352
 H278 H 0.11685 1.28429 0.31741
 H279 H -0.08885 1.24330 0.36071
 H280 H -0.03285 1.38250 0.20616
 H281 H 0.08320 1.30050 0.17409
 H282 H -0.12095 1.26091 0.21437
 C283 C -0.05675 1.23238 -0.27132
 C284 C -0.05071 1.31300 -0.25864
 C285 C 0.00706 1.31783 -0.31685
 C286 C 0.00010 1.23712 -0.33027
 C287 C 0.06542 1.30487 -0.26106
 C288 C 0.00802 1.29999 -0.20236
 C289 C 0.00203 1.22019 -0.21619
 C290 C 0.05899 1.22414 -0.27427
 H291 H -0.10706 1.20198 -0.27481
 H292 H -0.09684 1.34895 -0.25226
 H293 H -0.00643 1.20785 -0.38107
 H294 H 0.11600 1.33468 -0.25672
 H295 H 0.01108 1.32543 -0.14914
 H296 H 0.10446 1.18754 -0.28007
 C297 C 0.00574 0.70893 -0.20331
 C298 C -0.05301 0.69354 -0.25901
 C299 C 0.00459 0.68961 -0.31744
 C300 C 0.06291 0.70509 -0.26226
 C301 C -0.00478 0.76986 -0.33162
 C302 C -0.06142 0.77381 -0.27232
 C303 C -0.00265 0.78835 -0.21770
 C304 C 0.05407 0.78539 -0.27615
 H305 H 0.00974 0.68420 -0.14993
 H306 H -0.09811 0.65637 -0.25198
 H307 H 0.11432 0.67682 -0.25802
 H308 H -0.01198 0.79768 -0.38303
 H309 H -0.11256 0.80272 -0.27569
 H310 H 0.09790 0.82399 -0.28306
 C311 C 0.02263 0.79666 0.29671
 C312 C -0.04305 0.75149 0.31629
 C313 C 0.00309 0.68425 0.31420
 C314 C 0.06892 0.72888 0.29454
 C315 C -0.01387 0.67389 0.23429
 C316 C -0.06028 0.74140 0.23632
 C317 C 0.00516 0.78600 0.21762
 C318 C 0.05152 0.71930 0.21478
 H319 H 0.03799 0.84758 0.32205
 H320 H -0.08225 0.76469 0.35828
 H321 H 0.12318 0.72307 0.31671
 H322 H -0.02661 0.62468 0.20467
 H323 H -0.11361 0.74714 0.21199
 H324 H 0.09065 0.70673 0.17249
   
