data_POSCAR
  _audit_creation_date              2014-09-24
  _audit_creation_method            'ToBaCCo'
  _symmetry_space_group_name_H-M    'P1'
  _symmetry_Int_Tables_number       1
  _symmetry_cell_setting            triclinic
  loop_
  _symmetry_equiv_pos_as_xyz
 x,y,z
_cell_length_a 32.8796
_cell_length_b 32.9433
_cell_length_c 33.2660
_cell_angle_alpha 89.411500
_cell_angle_beta 89.747100
_cell_angle_gamma 89.714500
loop_
  _atom_site_label
  _atom_site_type_symbol
  _atom_site_fract_x
  _atom_site_fract_y
  _atom_site_fract_z
N1 N 0.10129 0.15795 0.21946
 N2 N 0.12274 0.12457 0.22489
 C3 C 0.11242 0.10758 0.26052
 C4 C 0.08383 0.13242 0.27864
 C5 C 0.07724 0.16390 0.25163
 H6 H 0.12693 0.08109 0.27367
 H7 H 0.05769 0.19003 0.25573
 Cu8 Cu 0.16675 0.11058 0.18817
 Cu9 Cu 0.10998 0.19389 0.17378
 Cu10 Cu 0.18069 0.16412 0.10240
 N11 N 0.21619 0.10560 0.15620
 N12 N 0.22046 0.12437 0.12137
 C13 C 0.25641 0.11370 0.10482
 C14 C 0.27618 0.08790 0.13144
 C15 C 0.24980 0.08346 0.16374
 H16 H 0.26809 0.12545 0.07658
 H17 H 0.25457 0.06543 0.19068
 N18 N 0.14646 0.21334 0.09670
 N19 N 0.11784 0.22338 0.12281
 C20 C 0.10202 0.25968 0.11222
 C21 C 0.12256 0.27375 0.07880
 C22 C 0.15062 0.24381 0.06968
 H23 H 0.08036 0.27681 0.12986
 H24 H 0.17407 0.24531 0.04680
 H25 H 0.12924 0.14872 0.13629
 H26 H 0.17034 0.17876 0.16032
 N27 N -0.09480 0.86108 0.21524
 N28 N -0.12039 0.89179 0.21704
 C29 C -0.11606 0.91046 0.25263
 C30 C -0.08623 0.89017 0.27415
 C31 C -0.07363 0.85895 0.24966
 H32 H -0.13636 0.93368 0.26392
 H33 H -0.05368 0.83411 0.25806
 Cu34 Cu -0.16301 0.89758 0.17727
 Cu35 Cu -0.09731 0.82034 0.17340
 Cu36 Cu -0.17413 0.83225 0.10193
 N37 N -0.21313 0.89518 0.14691
 N38 N -0.21653 0.87185 0.11528
 C39 C -0.25331 0.87817 0.09836
 C40 C -0.27445 0.90576 0.12179
 C41 C -0.24805 0.91574 0.15241
 H42 H -0.26457 0.86222 0.07243
 H43 H -0.25355 0.93673 0.17665
 N44 N -0.13635 0.78516 0.10373
 N45 N -0.10616 0.78172 0.12968
 C46 C -0.08946 0.74450 0.12666
 C47 C -0.11031 0.72336 0.09795
 C48 C -0.14005 0.74974 0.08417
 H49 H -0.06695 0.73194 0.14692
 H50 H -0.16456 0.74253 0.06391
 H51 H -0.12330 0.85617 0.12970
 H52 H -0.15932 0.82635 0.16146
 N53 N -0.09984 0.13174 -0.21089
 N54 N -0.12521 0.10105 -0.20982
 C55 C -0.12311 0.08099 -0.24480
 C56 C -0.09484 0.09997 -0.26916
 C57 C -0.08099 0.13236 -0.24694
 H58 H -0.14438 0.05795 -0.25395
 H59 H -0.06219 0.15697 -0.25794
 Cu60 Cu -0.16673 0.09796 -0.16867
 Cu61 Cu -0.10052 0.17360 -0.16936
 Cu62 Cu -0.17398 0.16284 -0.09316
 N63 N -0.21651 0.10311 -0.13797
 N64 N -0.21876 0.12612 -0.10600
 C65 C -0.25619 0.12237 -0.08945
 C66 C -0.27885 0.09720 -0.11382
 C67 C -0.25265 0.08563 -0.14425
 H68 H -0.26693 0.13896 -0.06355
 H69 H -0.25924 0.06582 -0.16910
 N70 N -0.13535 0.20883 -0.09670
 N71 N -0.10676 0.21229 -0.12463
 C72 C -0.08983 0.24934 -0.12211
 C73 C -0.10909 0.27037 -0.09185
 C74 C -0.13790 0.24400 -0.07653
 H75 H -0.06870 0.26201 -0.14377
 H76 H -0.16145 0.25124 -0.05490
 H77 H -0.12395 0.13850 -0.12370
 H78 H -0.16146 0.16883 -0.15312
 N79 N 0.11224 0.88701 -0.21501
 N80 N 0.14471 0.90968 -0.21069
 C81 C 0.15257 0.92902 -0.24572
 C82 C 0.12290 0.91857 -0.27304
 C83 C 0.09754 0.89217 -0.25249
 H84 H 0.17889 0.94782 -0.25146
 H85 H 0.07249 0.87525 -0.26486
 Cu86 Cu 0.17600 0.90871 -0.16102
 Cu87 Cu 0.09556 0.84759 -0.17408
 Cu88 Cu 0.16588 0.82928 -0.09828
 N89 N 0.21841 0.89482 -0.12253
 N90 N 0.21544 0.86124 -0.10105
 C91 C 0.25081 0.85410 -0.08221
 C92 C 0.27733 0.88524 -0.09179
 C93 C 0.25559 0.91107 -0.11697
 H94 H 0.25670 0.82809 -0.06296
 H95 H 0.26694 0.93781 -0.13241
 N96 N 0.11860 0.79417 -0.10733
 N97 N 0.09268 0.80034 -0.13701
 C98 C 0.06947 0.76702 -0.14075
 C99 C 0.08081 0.73901 -0.11159
 C100 C 0.11187 0.75727 -0.09086
 H101 H 0.04851 0.76192 -0.16514
 H102 H 0.13140 0.74270 -0.06891
 H103 H 0.12415 0.86905 -0.12324
 H104 H 0.15525 0.83836 -0.15861
 N105 N 0.13486 1.10364 0.78662
 N106 N 0.10416 1.12936 0.78626
 C107 C 0.08554 1.12787 0.75036
 C108 C 0.10582 1.09980 0.72707
 C109 C 0.13705 1.08519 0.75081
 H110 H 0.06231 1.14898 0.74033
 H111 H 0.16167 1.06554 0.74138
 Cu112 Cu 0.09843 1.16958 0.82786
 Cu113 Cu 0.17401 1.10129 0.83038
 Cu114 Cu 0.15886 1.16963 0.90804
 N115 N 0.10499 1.21793 0.85990
 N116 N 0.12694 1.21740 0.89285
 C117 C 0.12702 1.25486 0.90875
 C118 C 0.10484 1.28013 0.88366
 C119 C 0.09143 1.25591 0.85291
 H120 H 0.14443 1.26362 0.93477
 H121 H 0.07425 1.26544 0.82677
 N122 N 0.20348 1.12938 0.90753
 N123 N 0.20965 1.10378 0.87779
 C124 C 0.24687 1.08704 0.88182
 C125 C 0.26499 1.10294 0.91547
 C126 C 0.23675 1.12974 0.93093
 H127 H 0.26184 1.06886 0.85922
 H128 H 0.24215 1.15171 0.95423
 H129 H 0.13522 1.12264 0.87328
 H130 H 0.16830 1.16104 0.84817
 N131 N 0.88131 0.89512 0.78446
 N132 N 0.90348 0.86210 0.78904
 C133 C 0.92311 0.85434 0.75437
 C134 C 0.91343 0.88480 0.72714
 C135 C 0.88715 0.91038 0.74721
 H136 H 0.94170 0.82776 0.74887
 H137 H 0.87075 0.93603 0.73461
 Cu138 Cu 0.90197 0.83100 0.83885
 Cu139 Cu 0.84133 0.91157 0.82441
 Cu140 Cu 0.81899 0.83897 0.89732
 N141 N 0.88990 0.79056 0.87977
 N142 N 0.85632 0.79304 0.90125
 C143 C 0.85027 0.75750 0.92050
 C144 C 0.88193 0.73167 0.91092
 C145 C 0.90679 0.75360 0.88526
 H146 H 0.82329 0.74988 0.93764
 H147 H 0.93239 0.74200 0.86828
 N148 N 0.78521 0.88778 0.88825
 N149 N 0.79301 0.91454 0.85944
 C150 C 0.76052 0.93917 0.85490
 C151 C 0.73127 0.92771 0.88261
 C152 C 0.74798 0.89544 0.90355
 H153 H 0.75720 0.96172 0.83126
 H154 H 0.73231 0.87629 0.92511
 H155 H 0.86027 0.88025 0.87621
 H156 H 0.83143 0.85164 0.83770
 N157 N 0.13948 0.90048 1.21014
 N158 N 0.10778 0.87647 1.21362
 C159 C 0.09072 0.88156 1.25021
 C160 C 0.11316 0.91011 1.27063
 C161 C 0.14389 0.92129 1.24438
 H162 H 0.06641 0.86311 1.26245
 H163 H 0.16926 0.94096 1.25079
 Cu164 Cu 0.09692 0.83594 1.17283
 Cu165 Cu 0.17566 0.89997 1.16349
 Cu166 Cu 0.16504 0.81769 1.09994
 N167 N 0.09570 0.78591 1.14204
 N168 N 0.12117 0.78027 1.11201
 C169 C 0.11499 0.74344 1.09618
 C170 C 0.08477 0.72453 1.11806
 C171 C 0.07326 0.75210 1.14721
 H172 H 0.13356 0.72999 1.07288
 H173 H 0.05141 0.74734 1.17118
 N174 N 0.21284 0.85326 1.09924
 N175 N 0.21633 0.88564 1.12203
 C176 C 0.25384 0.90132 1.11685
 C177 C 0.27497 0.87696 1.09030
 C178 C 0.24821 0.84687 1.07983
 H179 H 0.26608 0.92617 1.13394
 H180 H 0.25488 0.82094 1.06121
 H181 H 0.14029 0.87056 1.12217
 H182 H 0.16893 0.83824 1.15860
 N183 N 0.87601 1.11450 1.22098
 N184 N 0.89596 1.14890 1.21768
 C185 C 0.91554 1.15577 1.25240
 C186 C 0.90809 1.12347 1.27823
 C187 C 0.88325 1.09765 1.25728
 H188 H 0.93248 1.18292 1.25911
 H189 H 0.86869 1.07055 1.26880
 Cu190 Cu 0.89099 1.18235 1.16931
 Cu191 Cu 0.83656 1.09763 1.18121
 Cu192 Cu 0.81740 1.16504 1.10255
 N193 N 0.88602 1.21579 1.12099
 N194 N 0.85644 1.20901 1.09543
 C195 C 0.85454 1.23990 1.06880
 C196 C 0.88449 1.26749 1.07808
 C197 C 0.90421 1.25113 1.11110
 H198 H 0.83115 1.24360 1.04629
 H199 H 0.92710 1.26599 1.12891
 N200 N 0.78199 1.11851 1.11534
 N201 N 0.78882 1.09371 1.14604
 C202 C 0.75574 1.07055 1.15223
 C203 C 0.72710 1.08087 1.12369
 C204 C 0.74475 1.11096 1.10050
 H205 H 0.75171 1.04976 1.17729
 H206 H 0.72988 1.12876 1.07730
 H207 H 0.85871 1.12918 1.13048
 H208 H 0.82266 1.15697 1.16421
 O209 O 0.44137 1.05767 1.08678
 O210 O 0.39724 1.02632 1.04394
 C211 C 0.40516 1.04733 1.07567
 O212 O 0.55266 1.07552 0.93226
 O213 O 0.60000 1.04172 0.97064
 C214 C 0.58988 1.06597 0.94145
 O215 O 0.43934 1.08095 0.94392
 O216 O 0.39638 1.03644 0.97603
 C217 C 0.40338 1.06793 0.95342
 O218 O 0.55484 1.05513 1.08921
 O219 O 0.60087 1.03243 1.04244
 C220 C 0.59170 1.04913 1.07638
 Zr221 Zr 0.49864 1.04474 1.06032
 O222 O 0.50072 1.10897 1.06092
 O223 O 0.49650 1.04630 1.12375
 Zr224 Zr 0.49736 1.05868 0.96067
 O225 O 0.50176 1.12110 0.97457
 O226 O 0.49252 1.07637 0.89964
 O227 O 0.46080 1.05821 1.01206
 O228 O 0.53408 1.06037 1.01096
 O229 O 0.55991 0.92831 1.07337
 O230 O 0.60363 0.96685 1.03516
 C231 C 0.59593 0.94129 1.06406
 O232 O 0.44498 0.93083 0.93032
 O233 O 0.39873 0.96642 0.96830
 C234 C 0.40818 0.93883 0.94237
 O235 O 0.55830 0.94751 0.91852
 O236 O 0.60260 0.97585 0.96326
 C237 C 0.59459 0.95720 0.93019
 O238 O 0.44695 0.91457 1.06266
 O239 O 0.40000 0.95763 1.03397
 C240 C 0.40985 0.92547 1.05442
 Zr241 Zr 0.50304 0.94247 1.04714
 O242 O 0.51343 0.88026 1.03480
 O243 O 0.49807 0.92740 1.10890
 Zr244 Zr 0.50130 0.95680 0.94719
 O245 O 0.51143 0.89413 0.93808
 O246 O 0.49312 0.96519 0.88457
 Zr247 Zr 0.43941 0.99845 1.00478
 Zr248 Zr 0.56095 1.00279 1.00323
 O249 O 0.53860 0.94360 0.99583
 O250 O 0.46627 0.94063 0.99682
 O251 O 0.53613 0.99383 1.06126
 O252 O 0.46382 1.00739 0.94682
 O253 O 0.46606 0.99092 1.06180
 O254 O 0.53469 1.01000 0.94576
 H255 H 0.55303 1.08351 1.01343
 H256 H 0.44472 1.00920 0.92392
 H257 H 0.55898 0.92157 0.99281
 H258 H 0.44875 0.98579 1.08574
 H259 H 0.48788 1.05135 0.88424
 H260 H 0.51190 0.98699 0.87585
 H261 H 0.49246 0.87926 0.95598
 H262 H 0.48787 0.86894 1.02418
 H263 H 0.50812 0.95109 1.12386
 H264 H 0.49714 1.01772 1.13305
 H265 H 0.47236 1.11893 1.05878
 H266 H 0.47484 1.12991 0.98476
 O267 O -0.07369 0.55102 0.06998
 O268 O -0.03878 0.59936 0.03375
 C269 C -0.06519 0.58848 0.06065
 O270 O 0.08237 0.44409 0.05308
 O271 O 0.04088 0.39940 0.02054
 C272 C 0.07246 0.40780 0.04197
 O273 O 0.06488 0.55531 0.07176
 O274 O 0.02872 0.60145 0.03391
 C275 C 0.05261 0.59196 0.06348
 O276 O -0.07678 0.43798 0.05576
 O277 O -0.03235 0.39613 0.02252
 C278 C -0.06440 0.40241 0.04438
 Zr279 Zr -0.05014 0.49573 0.04655
 O280 O -0.04123 0.48592 0.10891
 O281 O -0.11320 0.49618 0.05905
 Zr282 Zr 0.05184 0.50000 0.04266
 O283 O 0.05442 0.48787 0.10522
 O284 O 0.11523 0.51073 0.04222
 O285 O -0.00080 0.53362 0.05411
 O286 O 0.00263 0.46143 0.05026
 O287 O -0.07731 0.44453 -0.07231
 O288 O -0.03301 0.39933 -0.04259
 C289 C -0.06460 0.40790 -0.06425
 O290 O 0.06098 0.56461 -0.08233
 O291 O 0.02679 0.60588 -0.03842
 C292 C 0.04977 0.60004 -0.06965
 O293 O 0.07237 0.45182 -0.08253
 O294 O 0.03772 0.40338 -0.04630
 C295 C 0.06406 0.41441 -0.07325
 O296 O -0.07934 0.55885 -0.07144
 O297 O -0.04130 0.60313 -0.03440
 C298 C -0.07005 0.59504 -0.05953
 Zr299 Zr -0.05392 0.50179 -0.05519
 O300 O -0.05238 0.50121 -0.11884
 O301 O -0.11816 0.50283 -0.05729
 Zr302 Zr 0.04834 0.50632 -0.05865
 O303 O 0.05022 0.50566 -0.12216
 O304 O 0.11219 0.51442 -0.05736
 Zr305 Zr -0.00386 0.56154 -0.00331
 Zr306 Zr 0.00157 0.44041 -0.00921
 O307 O -0.00159 0.46900 -0.06606
 O308 O -0.00493 0.54068 -0.06307
 O309 O -0.05850 0.46312 -0.00593
 O310 O 0.05607 0.53915 -0.00641
 O311 O -0.06121 0.53324 -0.00229
 O312 O 0.05959 0.46753 -0.01031
 H313 H 0.00415 0.44050 0.07181
 H314 H 0.07835 0.55928 -0.00605
 H315 H -0.00210 0.45187 -0.09038
 H316 H -0.08656 0.54952 -0.00050
 H317 H 0.12694 0.49464 0.02004
 H318 H 0.12467 0.48845 -0.04851
 H319 H 0.02510 0.51923 -0.13163
 H320 H -0.04520 0.52888 -0.12821
 H321 H -0.12788 0.48614 -0.03435
 H322 H -0.12708 0.49844 0.03283
 H323 H -0.03794 0.51286 0.12136
 H324 H 0.03430 0.50585 0.11835
 O325 O 1.08236 -0.05982 0.44176
 O326 O 1.03947 -0.02661 0.39802
 C327 C 1.07001 -0.05047 0.40578
 O328 O 0.94065 -0.07851 0.55682
 O329 O 0.97319 -0.03701 0.60133
 C330 C 0.95015 -0.06764 0.59295
 O331 O 0.94277 -0.07896 0.44494
 O332 O 0.97179 -0.03435 0.39994
 C333 C 0.95049 -0.06630 0.40866
 O334 O 1.08814 -0.05577 0.55505
 O335 O 1.04322 -0.02858 0.60061
 C336 C 1.07613 -0.04827 0.59158
 Zr337 Zr 1.05986 -0.04266 0.49897
 O338 O 1.06302 -0.10687 0.50272
 O339 O 1.12411 -0.04262 0.49608
 Zr340 Zr 0.95757 -0.05296 0.50065
 O341 O 0.95789 -0.11707 0.50232
 O342 O 0.89323 -0.05402 0.49787
 O343 O 1.00923 -0.05536 0.46400
 O344 O 1.01031 -0.05606 0.53472
 O345 O 1.07136 0.07877 0.55591
 O346 O 1.03656 0.03833 0.60068
 C347 C 1.06270 0.06643 0.59207
 O348 O 0.93150 0.07752 0.44703
 O349 O 0.96523 0.03839 0.40084
 C350 C 0.94138 0.06829 0.41040
 O351 O 0.92463 0.06683 0.55880
 O352 O 0.96624 0.03178 0.60221
 C353 C 0.93680 0.05693 0.59465
 O354 O 1.05904 0.08870 0.44415
 O355 O 1.03108 0.04412 0.39962
 C356 C 1.04970 0.07742 0.40811
 Zr357 Zr 1.04871 0.05907 0.50007
 O358 O 1.04432 0.12280 0.50646
 O359 O 1.11250 0.06439 0.49286
 Zr360 Zr 0.94629 0.04804 0.50190
 O361 O 0.92912 0.10976 0.50595
 O362 O 0.88357 0.03475 0.49701
 Zr363 Zr 1.00246 0.00394 0.44018
 Zr364 Zr 1.00404 0.00172 0.56056
 O365 O 0.99735 0.06052 0.53594
 O366 O 0.99626 0.06197 0.46601
 O367 O 1.06262 0.00840 0.53507
 O368 O 0.94408 -0.00238 0.46561
 O369 O 1.06130 0.00994 0.46412
 O370 O 0.94449 -0.00403 0.53786
 H371 H 1.01411 -0.07992 0.55270
 H372 H 0.92090 -0.00390 0.44677
 H373 H 0.99582 0.08417 0.55403
 H374 H 1.08428 0.01378 0.44507
 H375 H 0.88257 -0.04626 0.52461
 H376 H 0.87356 0.02775 0.52430
 H377 H 0.95442 0.12522 0.51007
 H378 H 1.02022 0.13181 0.49101
 H379 H 1.12534 0.04923 0.51535
 H380 H 1.13237 -0.01482 0.48837
 H381 H 1.05353 -0.11769 0.47675
 H382 H 0.98663 -0.12559 0.49991
 C383 C 1.06849 0.12898 0.31761
 C384 C 1.04708 0.15928 0.33698
 C385 C 1.03982 0.14449 0.37463
 C386 C 1.05661 0.10613 0.37515
 O387 O 1.07386 0.09637 0.34059
 H388 H 1.03812 0.18876 0.32531
 H389 H 1.02272 0.15913 0.39833
 C390 C 0.91902 -0.10899 0.31780
 C391 C 0.90799 -0.14066 0.34280
 C392 C 0.91764 -0.12839 0.38045
 C393 C 0.93430 -0.09030 0.37547
 O394 O 0.93500 -0.07824 0.33738
 H395 H 0.89425 -0.16912 0.33443
 H396 H 0.91351 -0.14534 0.40820
 C397 C 0.90569 0.09743 0.68696
 C398 C 0.88226 0.12197 0.66254
 C399 C 0.88987 0.10908 0.62451
 C400 C 0.91749 0.07767 0.62868
 O401 O 0.92707 0.07034 0.66669
 H402 H 0.86193 0.14617 0.67154
 H403 H 0.87757 0.12172 0.59695
 C404 C 1.12283 -0.07280 0.68350
 C405 C 1.15744 -0.07222 0.66000
 C406 C 1.14420 -0.06489 0.62182
 C407 C 1.10255 -0.06093 0.62501
 O408 O 1.08939 -0.06586 0.66245
 H409 H 1.18850 -0.07713 0.66964
 H410 H 1.16280 -0.06141 0.59506
 C411 C 0.31519 1.07149 1.12764
 C412 C 0.33575 1.05227 1.15861
 C413 C 0.37278 1.04246 1.14314
 C414 C 0.37186 1.05562 1.10377
 O415 O 0.33695 1.07321 1.09399
 H416 H 0.32537 1.04653 1.18903
 H417 H 0.39726 1.02655 1.15833
 C418 C 0.31808 0.88789 0.91945
 C419 C 0.34019 0.85553 0.93472
 C420 C 0.37799 0.87030 0.94146
 C421 C 0.37608 0.91072 0.93075
 O422 O 0.33970 0.92175 0.91740
 H423 H 0.33008 0.82475 0.94023
 H424 H 0.40331 0.85421 0.95506
 C425 C 0.68562 0.91956 1.11716
 C426 C 0.66416 0.93928 1.14701
 C427 C 0.62693 0.94696 1.13120
 C428 C 0.62852 0.93231 1.09265
 O429 O 0.66414 0.91561 1.08372
 H430 H 0.67423 0.94694 1.17689
 H431 H 0.60205 0.96312 1.14535
 C432 C 0.68007 1.08721 0.88944
 C433 C 0.65770 1.07169 0.85814
 C434 C 0.61974 1.06600 0.87325
 C435 C 0.62183 1.07743 0.91286
 O436 O 0.65847 1.09031 0.92303
 H437 H 0.66781 1.06504 0.82791
 H438 H 0.59430 1.05223 0.85808
 C439 C 0.12164 0.31579 0.06406
 C440 C 0.15591 0.33857 0.05651
 C441 C 0.14188 0.37687 0.04887
 C442 C 0.10016 0.37429 0.05185
 O443 O 0.08769 0.33729 0.06115
 H444 H 0.18731 0.32869 0.05778
 H445 H 0.15976 0.40332 0.04113
 C446 C -0.10902 0.31460 -0.08761
 C447 C -0.14203 0.33895 -0.09637
 C448 C -0.12904 0.37761 -0.09053
 C449 C -0.08914 0.37384 -0.07839
 O450 O -0.07677 0.33556 -0.07672
 H451 H -0.17180 0.32955 -0.10628
 H452 H -0.14681 0.40520 -0.09357
 C453 C 0.07318 0.69520 -0.11241
 C454 C 0.07898 0.67215 -0.14625
 C455 C 0.07226 0.63319 -0.13415
 C456 C 0.06232 0.63544 -0.09387
 O457 O 0.06312 0.67314 -0.08040
 H458 H 0.08805 0.68254 -0.17592
 H459 H 0.07373 0.60636 -0.15262
 C460 C -0.10926 0.67923 0.09364
 C461 C -0.13664 0.65331 0.11177
 C462 C -0.12306 0.61522 0.10293
 C463 C -0.08847 0.62101 0.08000
 O464 O -0.07987 0.65987 0.07453
 H465 H -0.16288 0.66134 0.12980
 H466 H -0.13699 0.58673 0.11160
 C467 C 1.10421 0.09776 0.68328
 C468 C 1.13218 0.11622 0.65828
 C469 C 1.11945 0.10798 0.62036
 C470 C 1.08494 0.08474 0.62530
 O471 O 1.07545 0.07859 0.66354
 H472 H 1.15851 0.13371 0.66683
 H473 H 1.13409 0.11691 0.59246
 C474 C 0.92226 -0.11454 0.68398
 C475 C 0.91936 -0.14811 0.65986
 C476 C 0.92767 -0.13432 0.62204
 C477 C 0.93585 -0.09355 0.62614
 O478 O 0.93233 -0.08128 0.66373
 H479 H 0.91147 -0.17876 0.66876
 H480 H 0.92880 -0.15202 0.59483
 C481 C 1.11271 -0.08270 0.31413
 C482 C 1.14589 -0.09009 0.33827
 C483 C 1.13361 -0.08011 0.37599
 C484 C 1.09396 -0.06674 0.37201
 O485 O 1.08099 -0.06842 0.33437
 H486 H 1.17538 -0.10169 0.32932
 H487 H 1.15172 -0.08147 0.40308
 C488 C 0.91758 0.12062 0.32119
 C489 C 0.91912 0.15362 0.34619
 C490 C 0.92585 0.13779 0.38353
 C491 C 0.92856 0.09637 0.37835
 O492 O 0.92356 0.08575 0.34047
 H493 H 0.91528 0.18533 0.33817
 H494 H 0.92997 0.15451 0.41104
 C495 C 0.10168 0.32434 -0.11440
 C496 C 0.11738 0.35042 -0.14306
 C497 C 0.10671 0.38831 -0.13056
 C498 C 0.08479 0.38220 -0.09559
 O499 O 0.08183 0.34338 -0.08558
 H500 H 0.13439 0.34263 -0.16984
 H501 H 0.11310 0.41684 -0.14566
 C502 C -0.11292 0.30957 0.06334
 C503 C -0.14598 0.33109 0.04902
 C504 C -0.13208 0.36930 0.04208
 C505 C -0.09150 0.36810 0.05210
 O506 O -0.07953 0.33184 0.06495
 H507 H -0.17673 0.32038 0.04491
 H508 H -0.14909 0.39477 0.02988
 C509 C -0.11721 0.68765 -0.08282
 C510 C -0.15094 0.66329 -0.08619
 C511 C -0.13699 0.62478 -0.08020
 C512 C -0.09598 0.62872 -0.07285
 O513 O -0.08375 0.66689 -0.07450
 H514 H -0.18189 0.67257 -0.09259
 H515 H -0.15478 0.59724 -0.07966
 C516 C 0.07395 0.68153 0.11547
 C517 C 0.07102 0.65591 0.14829
 C518 C 0.06465 0.61839 0.13274
 C519 C 0.06360 0.62410 0.09162
 O520 O 0.06933 0.66245 0.08094
 H521 H 0.07421 0.66360 0.17967
 H522 H 0.06000 0.59037 0.14938
 C523 C 0.30892 1.10546 0.92145
 C524 C 0.33244 1.13604 0.90529
 C525 C 0.37136 1.12618 0.91536
 C526 C 0.36843 1.09025 0.93696
 O527 O 0.33050 1.07748 0.94060
 H528 H 0.32234 1.16185 0.88747
 H529 H 0.39861 1.14279 0.90736
 C530 C 0.31868 0.87774 1.08140
 C531 C 0.34293 0.84351 1.08038
 C532 C 0.38105 0.85726 1.07200
 C533 C 0.37692 0.89874 1.06780
 O534 O 0.33911 0.91138 1.07358
 H535 H 0.33386 0.81233 1.08547
 H536 H 0.40832 0.83916 1.06802
 C537 C 0.68410 1.06948 1.12355
 C538 C 0.66149 1.06187 1.15777
 C539 C 0.62294 1.05542 1.14456
 C540 C 0.62524 1.05889 1.10328
 O541 O 0.66230 1.06751 1.09037
 H542 H 0.67180 1.06170 1.18863
 H543 H 0.59662 1.04761 1.16264
 C544 C 0.68819 0.93938 0.88287
 C545 C 0.66559 0.94632 0.84866
 C546 C 0.62672 0.95206 0.86191
 C547 C 0.62880 0.94873 0.90319
 O548 O 0.66603 0.94097 0.91607
 H549 H 0.67606 0.94609 0.81778
 H550 H 0.60022 0.95892 0.84384
   
