data_POSCAR
  _audit_creation_date              2014-09-24
  _audit_creation_method            'ToBaCCo'
  _symmetry_space_group_name_H-M    'P1'
  _symmetry_Int_Tables_number       1
  _symmetry_cell_setting            triclinic
  loop_
  _symmetry_equiv_pos_as_xyz
 x,y,z
_cell_length_a 51.7658
_cell_length_b 51.9641
_cell_length_c 42.0690
_cell_angle_alpha 89.962200
_cell_angle_beta 89.958300
_cell_angle_gamma 89.982600
loop_
  _atom_site_label
  _atom_site_type_symbol
  _atom_site_fract_x
  _atom_site_fract_y
  _atom_site_fract_z
O1 O 0.02469 0.30763 -0.03005
 O2 O -0.02574 0.30768 0.03197
 O3 O 0.02473 0.30775 0.03185
 O4 O -0.02578 0.30764 -0.02994
 O5 O -0.02566 0.26508 -0.02974
 O6 O 0.02469 0.26519 0.03188
 O7 O -0.02561 0.26512 0.03200
 O8 O 0.02464 0.26507 -0.02984
 Cu9 Cu -0.00053 0.31198 0.00095
 Cu10 Cu -0.00048 0.26084 0.00109
 C11 C 0.03324 0.28630 -0.04031
 C12 C -0.03425 0.28636 0.04235
 C13 C 0.03330 0.28646 0.04217
 C14 C -0.03430 0.28630 -0.04017
 O15 O 0.52506 0.80709 0.46836
 O16 O 0.47468 0.80696 0.53039
 O17 O 0.52514 0.80705 0.53026
 O18 O 0.47459 0.80692 0.46846
 O19 O 0.47480 0.76436 0.46859
 O20 O 0.52517 0.76449 0.53019
 O21 O 0.47488 0.76440 0.53034
 O22 O 0.52511 0.76453 0.46847
 Cu23 Cu 0.49985 0.81132 0.49936
 Cu24 Cu 0.49999 0.76017 0.49940
 C25 C 0.53366 0.78580 0.45806
 C26 C 0.46623 0.78563 0.54074
 C27 C 0.53374 0.78575 0.54055
 C28 C 0.46611 0.78558 0.45819
 O29 O 1.02620 0.69316 0.03025
 O30 O 0.97562 0.69363 -0.03149
 O31 O 1.02607 0.69348 -0.03168
 O32 O 0.97573 0.69325 0.03041
 O33 O 0.97590 0.73581 0.03065
 O34 O 1.02609 0.73603 -0.03126
 O35 O 0.97579 0.73619 -0.03106
 O36 O 1.02621 0.73571 0.03049
 Cu37 Cu 1.00090 0.68907 -0.00066
 Cu38 Cu 1.00102 0.74022 -0.00026
 C39 C 1.03480 0.71439 0.04070
 C40 C 0.96711 0.71503 -0.04159
 C41 C 1.03463 0.71483 -0.04186
 C42 C 0.96725 0.71453 0.04089
 O43 O 0.52520 0.19211 0.53124
 O44 O 0.47480 0.19145 0.46933
 O45 O 0.52527 0.19194 0.46933
 O46 O 0.47474 0.19174 0.53124
 O47 O 0.47446 0.23429 0.53087
 O48 O 0.52481 0.23450 0.46915
 O49 O 0.47450 0.23401 0.46915
 O50 O 0.52475 0.23467 0.53089
 Cu51 Cu 0.50004 0.18750 0.50031
 Cu52 Cu 0.49959 0.23865 0.49998
 C53 C 0.53354 0.21353 0.54141
 C54 C 0.46608 0.21266 0.45890
 C55 C 0.53362 0.21330 0.45890
 C56 C 0.46602 0.21302 0.54140
 O57 O 0.69714 -0.02441 0.03058
 O58 O 0.69699 0.02596 -0.03128
 O59 O 0.69680 -0.02431 -0.03131
 O60 O 0.69724 0.02585 0.03064
 O61 O 0.73996 0.02565 0.03021
 O62 O 0.73952 -0.02437 -0.03158
 O63 O 0.73971 0.02574 -0.03153
 O64 O 0.73986 -0.02446 0.03014
 Cu65 Cu 0.69272 0.00079 -0.00031
 Cu66 Cu 0.74406 0.00063 -0.00073
 C67 C 0.71857 -0.03299 0.04070
 C68 C 0.71837 0.03440 -0.04176
 C69 C 0.71812 -0.03287 -0.04179
 C70 C 0.71871 0.03426 0.04079
 O71 O 0.19742 0.47456 0.53114
 O72 O 0.19736 0.52466 0.46902
 O73 O 0.19764 0.47440 0.46924
 O74 O 0.19724 0.52484 0.53093
 O75 O 0.23996 0.52493 0.53098
 O76 O 0.24036 0.47466 0.46947
 O77 O 0.24008 0.52477 0.46923
 O78 O 0.24014 0.47480 0.53121
 Cu79 Cu 0.19309 0.49960 0.50008
 Cu80 Cu 0.24443 0.49981 0.50024
 C81 C 0.21882 0.46616 0.54155
 C82 C 0.21874 0.53322 0.45873
 C83 C 0.21910 0.46597 0.45904
 C84 C 0.21858 0.53346 0.54126
 O85 O 0.30184 1.02566 0.03112
 O86 O 0.30219 0.97549 -0.03090
 O87 O 0.30202 1.02576 -0.03079
 O88 O 0.30209 0.97539 0.03099
 O89 O 0.25937 0.97530 0.03081
 O90 O 0.25931 1.02554 -0.03083
 O91 O 0.25947 0.97541 -0.03093
 O92 O 0.25912 1.02542 0.03093
 Cu93 Cu 0.30636 1.00060 0.00011
 Cu94 Cu 0.25502 1.00040 -0.00002
 C95 C 0.28038 1.03406 0.04141
 C96 C 0.28085 0.96691 -0.04127
 C97 C 0.28062 1.03421 -0.04115
 C98 C 0.28071 0.96678 0.04122
 O99 O 0.80328 0.47506 0.46940
 O100 O 0.80372 0.52538 0.53114
 O101 O 0.80336 0.47511 0.53131
 O102 O 0.80351 0.52531 0.46924
 O103 O 0.76079 0.52549 0.46953
 O104 O 0.76064 0.47546 0.53141
 O105 O 0.76100 0.52558 0.53126
 O106 O 0.76055 0.47538 0.46967
 Cu107 Cu 0.80779 0.50019 0.50026
 Cu108 Cu 0.75645 0.50050 0.50049
 C109 C 0.78181 0.46668 0.45921
 C110 C 0.78241 0.53404 0.54151
 C111 C 0.78193 0.46676 0.54173
 C112 C 0.78213 0.53392 0.45901
 C113 C 0.20462 0.22466 0.17121
 C114 C 0.22219 0.20494 0.17197
 C115 C 0.23883 0.21001 0.19702
 N116 N 0.23189 0.23215 0.21155
 C117 C 0.21098 0.24119 0.19589
 C118 C 0.26037 0.19461 0.20519
 C119 C 0.27800 0.20010 0.23003
 C120 C 0.30099 0.18695 0.23487
 C121 C 0.31287 0.19812 0.26059
 C122 C 0.29687 0.21786 0.27090
 N123 N 0.27544 0.21863 0.25246
 C124 C 0.30265 0.23439 0.29671
 C125 C 0.28863 0.25686 0.30467
 C126 C 0.29505 0.27343 0.32928
 C127 C 0.27751 0.29318 0.32848
 C128 C 0.26083 0.28807 0.30347
 N129 N 0.26772 0.26589 0.28902
 C130 C 0.23931 0.30349 0.29529
 C131 C 0.22164 0.29795 0.27052
 C132 C 0.19863 0.31108 0.26571
 C133 C 0.18672 0.29988 0.24004
 C134 C 0.20272 0.28014 0.22972
 N135 N 0.22417 0.27940 0.24811
 C136 C 0.19694 0.26363 0.20390
 H137 H 0.18885 0.22650 0.15448
 H138 H 0.22270 0.18879 0.15574
 H139 H 0.24040 0.26822 0.24415
 H140 H 0.30866 0.17112 0.22105
 H141 H 0.33139 0.19252 0.27029
 H142 H 0.31083 0.27162 0.34599
 H143 H 0.27704 0.30937 0.34464
 H144 H 0.16818 0.30547 0.23036
 H145 H 0.25923 0.22984 0.25639
 H146 H 0.19097 0.32692 0.27952
 C147 C 0.79549 0.77525 0.17046
 C148 C 0.77773 0.79480 0.17130
 C149 C 0.76111 0.78947 0.19633
 N150 N 0.76824 0.76735 0.21076
 C151 C 0.78925 0.75857 0.19506
 C152 C 0.73941 0.80464 0.20455
 C153 C 0.72179 0.79887 0.22934
 C154 C 0.69864 0.81176 0.23419
 C155 C 0.68684 0.80039 0.25985
 C156 C 0.70303 0.78079 0.27013
 N157 N 0.72450 0.78031 0.25171
 C158 C 0.69740 0.76416 0.29591
 C159 C 0.71166 0.74183 0.30386
 C160 C 0.70544 0.72517 0.32849
 C161 C 0.72321 0.70563 0.32767
 C162 C 0.73982 0.71095 0.30262
 N163 N 0.73267 0.73306 0.28816
 C164 C 0.76152 0.69579 0.29441
 C165 C 0.77913 0.70154 0.26959
 C166 C 0.80228 0.68865 0.26474
 C167 C 0.81407 0.70001 0.23906
 C168 C 0.79787 0.71960 0.22878
 N169 N 0.77641 0.72009 0.24720
 C170 C 0.80350 0.73624 0.20299
 H171 H 0.81129 0.77363 0.15372
 H172 H 0.77709 0.81101 0.15514
 H173 H 0.76007 0.73112 0.24328
 H174 H 0.69083 0.82755 0.22041
 H175 H 0.66823 0.80577 0.26955
 H176 H 0.68964 0.72680 0.34524
 H177 H 0.72387 0.68944 0.34385
 H178 H 0.83267 0.69463 0.22936
 H179 H 0.74083 0.76928 0.25564
 H180 H 0.81010 0.67288 0.27853
 C181 C 0.77707 0.20643 0.17123
 C182 C 0.79610 0.22474 0.17213
 C183 C 0.79021 0.24104 0.19722
 N184 N 0.76824 0.23318 0.21161
 C185 C 0.76012 0.21203 0.19585
 C186 C 0.80471 0.26310 0.20551
 C187 C 0.79835 0.28037 0.23037
 C188 C 0.81054 0.30380 0.23533
 C189 C 0.79872 0.31511 0.26100
 C190 C 0.77954 0.29835 0.27117
 N191 N 0.77978 0.27702 0.25270
 C192 C 0.76260 0.30338 0.29690
 C193 C 0.74064 0.28846 0.30475
 C194 C 0.72365 0.29411 0.32930
 C195 C 0.70463 0.27579 0.32841
 C196 C 0.71057 0.25944 0.30339
 N197 N 0.73257 0.26728 0.28903
 C198 C 0.69610 0.23735 0.29513
 C199 C 0.70249 0.22006 0.27031
 C200 C 0.69034 0.19660 0.26540
 C201 C 0.70216 0.18530 0.23971
 C202 C 0.72128 0.20209 0.22949
 N203 N 0.72103 0.22344 0.24795
 C204 C 0.73818 0.19710 0.20372
 H205 H 0.77597 0.19069 0.15445
 H206 H 0.81234 0.22596 0.15598
 H207 H 0.73155 0.24008 0.24406
 H208 H 0.82615 0.31211 0.22161
 H209 H 0.80350 0.33378 0.27077
 H210 H 0.72472 0.30988 0.34604
 H211 H 0.68836 0.27460 0.34452
 H212 H 0.69740 0.16662 0.22997
 H213 H 0.76920 0.26041 0.25653
 H214 H 0.67477 0.18827 0.27915
 C215 C 0.27633 0.70524 0.32796
 C216 C 0.29537 0.72354 0.32716
 C217 C 0.28952 0.73996 0.30215
 N218 N 0.26756 0.73217 0.28772
 C219 C 0.25942 0.71096 0.30337
 C220 C 0.30403 0.76206 0.29399
 C221 C 0.29770 0.77945 0.26924
 C222 C 0.30983 0.80295 0.26448
 C223 C 0.29807 0.81436 0.23884
 C224 C 0.27899 0.79760 0.22848
 N225 N 0.27922 0.77616 0.24682
 C226 C 0.26216 0.80269 0.20269
 C227 C 0.24028 0.78775 0.19466
 C228 C 0.22342 0.79341 0.17000
 C229 C 0.20442 0.77506 0.17074
 C230 C 0.21024 0.75868 0.19579
 N231 N 0.23214 0.76653 0.21031
 C232 C 0.19572 0.73658 0.20397
 C233 C 0.20198 0.71925 0.22881
 C234 C 0.18974 0.69582 0.23370
 C235 C 0.20146 0.68445 0.25941
 C236 C 0.22062 0.70117 0.26966
 N237 N 0.22048 0.72253 0.25120
 C238 C 0.23746 0.69608 0.29545
 H239 H 0.27520 0.68944 0.34468
 H240 H 0.31159 0.72468 0.34332
 H241 H 0.23106 0.73912 0.25509
 H242 H 0.32536 0.81123 0.27832
 H243 H 0.30283 0.83309 0.22921
 H244 H 0.22456 0.80920 0.15327
 H245 H 0.18824 0.77388 0.15452
 H246 H 0.19662 0.66578 0.26914
 H247 H 0.26874 0.75953 0.24282
 H248 H 0.17417 0.68756 0.21992
 C249 C 0.77665 0.20550 0.82888
 C250 C 0.79437 0.22508 0.82980
 C251 C 0.78823 0.24173 0.80515
 N252 N 0.76731 0.23292 0.78934
 C253 C 0.76015 0.21079 0.80374
 C254 C 0.80248 0.26407 0.79728
 C255 C 0.79693 0.28070 0.77147
 C256 C 0.81315 0.30029 0.76123
 C257 C 0.80143 0.31167 0.73554
 C258 C 0.77829 0.29880 0.73063
 N259 N 0.77551 0.28024 0.75301
 C260 C 0.76073 0.30459 0.70582
 C261 C 0.73906 0.28943 0.69754
 C262 C 0.72247 0.29481 0.67252
 C263 C 0.70473 0.27525 0.67161
 C264 C 0.71096 0.25852 0.69615
 N265 N 0.73194 0.26727 0.71188
 C266 C 0.69674 0.23614 0.70398
 C267 C 0.70235 0.21944 0.72970
 C268 C 0.68619 0.19976 0.73983
 C269 C 0.69793 0.18836 0.76551
 C270 C 0.72101 0.20133 0.77052
 N271 N 0.72374 0.21995 0.74822
 C272 C 0.73853 0.19559 0.79539
 H273 H 0.77596 0.18930 0.84504
 H274 H 0.81009 0.22673 0.84663
 H275 H 0.74003 0.23106 0.74443
 H276 H 0.83173 0.30565 0.77098
 H277 H 0.80928 0.32744 0.72178
 H278 H 0.72312 0.31105 0.65642
 H279 H 0.68896 0.27366 0.65486
 H280 H 0.69013 0.17253 0.77921
 H281 H 0.75916 0.26923 0.75691
 H282 H 0.66765 0.19434 0.73004
 C283 C 0.20399 0.77609 0.82783
 C284 C 0.22308 0.79434 0.82875
 C285 C 0.24008 0.78863 0.80424
 N286 N 0.23195 0.76747 0.78851
 C287 C 0.20991 0.75971 0.80283
 C288 C 0.26211 0.80346 0.79644
 C289 C 0.27906 0.79832 0.77075
 C290 C 0.29829 0.81499 0.76055
 C291 C 0.31010 0.80358 0.73493
 C292 C 0.29783 0.78018 0.73003
 N293 N 0.27923 0.77694 0.75233
 C294 C 0.30417 0.76283 0.70525
 C295 C 0.28961 0.74080 0.69696
 C296 C 0.29551 0.72443 0.67194
 C297 C 0.27641 0.70619 0.67100
 C298 C 0.25942 0.71189 0.69553
 N299 N 0.26757 0.73304 0.71128
 C300 C 0.23740 0.69706 0.70333
 C301 C 0.22047 0.70218 0.72904
 C302 C 0.20125 0.68550 0.73926
 C303 C 0.18945 0.69690 0.76490
 C304 C 0.20171 0.72031 0.76979
 N305 N 0.22029 0.72356 0.74746
 C306 C 0.19537 0.73766 0.79456
 H307 H 0.18770 0.77496 0.84391
 H308 H 0.22418 0.81011 0.84549
 H309 H 0.23089 0.74015 0.74358
 H310 H 0.30313 0.83366 0.77027
 H311 H 0.32575 0.81181 0.72121
 H312 H 0.31180 0.72556 0.65586
 H313 H 0.27530 0.69043 0.65425
 H314 H 0.17382 0.68866 0.77864
 H315 H 0.26861 0.76037 0.75619
 H316 H 0.19642 0.66683 0.72955
 C317 C 0.27633 0.29333 0.67148
 C318 C 0.29532 0.27497 0.67234
 C319 C 0.28942 0.25866 0.69744
 N320 N 0.26748 0.26657 0.71187
 C321 C 0.25940 0.28776 0.69612
 C322 C 0.30388 0.23655 0.70572
 C323 C 0.29753 0.21928 0.73060
 C324 C 0.30968 0.19581 0.73554
 C325 C 0.29790 0.18453 0.76128
 C326 C 0.27880 0.20135 0.77151
 N327 N 0.27903 0.22268 0.75300
 C328 C 0.26193 0.19638 0.79733
 C329 C 0.24001 0.21135 0.80522
 C330 C 0.22309 0.20578 0.82987
 C331 C 0.20408 0.22412 0.82899
 C332 C 0.20997 0.24042 0.80387
 N333 N 0.23191 0.23252 0.78944
 C334 C 0.19549 0.26252 0.79557
 C335 C 0.20184 0.27979 0.77070
 C336 C 0.18969 0.30326 0.76576
 C337 C 0.20149 0.31455 0.74004
 C338 C 0.22060 0.29775 0.72982
 N339 N 0.22036 0.27640 0.74832
 C340 C 0.23749 0.30273 0.70403
 H341 H 0.27524 0.30909 0.65469
 H342 H 0.31154 0.27372 0.65617
 H343 H 0.23088 0.25976 0.74446
 H344 H 0.32522 0.18745 0.72176
 H345 H 0.30266 0.16585 0.77105
 H346 H 0.22419 0.19004 0.84668
 H347 H 0.18787 0.22537 0.84517
 H348 H 0.19672 0.33324 0.73027
 H349 H 0.26852 0.23934 0.75686
 H350 H 0.17413 0.31160 0.77952
 C351 C 0.70521 0.72481 0.67126
 C352 C 0.72441 0.70666 0.67048
 C353 C 0.74121 0.71243 0.69516
 N354 N 0.73285 0.73353 0.71084
 C355 C 0.71086 0.74120 0.69634
 C356 C 0.76325 0.69769 0.70316
 C357 C 0.78001 0.70287 0.72898
 C358 C 0.79925 0.68626 0.73931
 C359 C 0.81088 0.69771 0.76500
 C360 C 0.79850 0.72107 0.76981
 N361 N 0.78000 0.72425 0.74738
 C362 C 0.80465 0.73846 0.79461
 C363 C 0.78993 0.76042 0.80279
 C364 C 0.79561 0.77683 0.82782
 C365 C 0.77640 0.79497 0.82861
 C366 C 0.75957 0.78917 0.80399
 N367 N 0.76792 0.76805 0.78833
 C368 C 0.73750 0.80387 0.79603
 C369 C 0.72072 0.79869 0.77023
 C370 C 0.70144 0.81527 0.75995
 C371 C 0.68982 0.80383 0.73425
 C372 C 0.70224 0.78050 0.72938
 N373 N 0.72076 0.77733 0.75179
 C374 C 0.69613 0.76314 0.70454
 H375 H 0.68903 0.72588 0.65505
 H376 H 0.72572 0.69091 0.65373
 H377 H 0.73146 0.76081 0.75571
 H378 H 0.80421 0.66760 0.72964
 H379 H 0.82648 0.68953 0.77883
 H380 H 0.81182 0.77580 0.84400
 H381 H 0.77511 0.81074 0.84534
 H382 H 0.67419 0.81200 0.72044
 H383 H 0.76935 0.74080 0.74341
 H384 H 0.69644 0.83391 0.76966
 C385 C 0.28005 0.05289 0.06375
 C386 C 0.27923 0.06985 0.08329
 C387 C 0.27759 0.09037 0.10618
 C388 C 0.25761 0.09050 0.12865
 C389 C 0.25507 0.11113 0.14976
 C390 C 0.27250 0.13172 0.14850
 C391 C 0.29271 0.13143 0.12632
 C392 C 0.29525 0.11079 0.10519
 C393 C 0.26891 0.15361 0.16896
 C394 C 0.26533 0.17214 0.18565
 H395 H 0.24377 0.07487 0.12953
 H396 H 0.23930 0.11122 0.16671
 H397 H 0.30623 0.14731 0.12503
 H398 H 0.31071 0.11094 0.08782
 C399 C 0.78238 0.55409 0.56490
 C400 C 0.78184 0.57125 0.58415
 C401 C 0.78056 0.59208 0.60661
 C402 C 0.76282 0.59115 0.63176
 C403 C 0.76040 0.61208 0.65242
 C404 C 0.77571 0.63403 0.64802
 C405 C 0.79372 0.63481 0.62317
 C406 C 0.79614 0.61387 0.60250
 C407 C 0.77200 0.65617 0.66799
 C408 C 0.76832 0.67493 0.68422
 H409 H 0.75059 0.57444 0.63506
 H410 H 0.74632 0.61133 0.67146
 H411 H 0.80555 0.65174 0.61945
 H412 H 0.80982 0.61485 0.58303
 C413 C 0.71887 0.94702 0.06422
 C414 C 0.71971 0.92995 0.08362
 C415 C 0.72140 0.90930 0.10634
 C416 C 0.70452 0.88829 0.10435
 C417 C 0.70719 0.86753 0.12530
 C418 C 0.72676 0.86771 0.14830
 C419 C 0.74340 0.88888 0.15056
 C420 C 0.74073 0.90963 0.12963
 C421 C 0.73055 0.84574 0.16859
 C422 C 0.73428 0.82716 0.18515
 H423 H 0.68959 0.88777 0.08633
 H424 H 0.69429 0.85120 0.12325
 H425 H 0.75868 0.88916 0.16815
 H426 H 0.75397 0.92572 0.13128
 C427 C 0.21904 0.44620 0.56510
 C428 C 0.21973 0.42912 0.58448
 C429 C 0.22116 0.40839 0.60710
 C430 C 0.24120 0.40778 0.62946
 C431 C 0.24355 0.38688 0.65022
 C432 C 0.22587 0.36652 0.64872
 C433 C 0.20560 0.36729 0.62667
 C434 C 0.20326 0.38819 0.60590
 C435 C 0.22928 0.34433 0.66873
 C436 C 0.23272 0.32554 0.68501
 H437 H 0.25522 0.42323 0.63049
 H438 H 0.25936 0.38641 0.66706
 H439 H 0.19190 0.35158 0.62521
 H440 H 0.18776 0.38842 0.58860
 C441 C 0.94678 0.28615 0.06464
 C442 C 0.92967 0.28540 0.08408
 C443 C 0.90894 0.28377 0.10682
 C444 C 0.88551 0.29643 0.10099
 C445 C 0.86479 0.29347 0.12202
 C446 C 0.86740 0.27783 0.14898
 C447 C 0.89096 0.26549 0.15507
 C448 C 0.91168 0.26846 0.13404
 C449 C 0.84557 0.27336 0.16943
 C450 C 0.82710 0.26902 0.18608
 H451 H 0.88313 0.30820 0.07992
 H452 H 0.84661 0.30298 0.11699
 H453 H 0.89314 0.25324 0.17575
 H454 H 0.92966 0.25846 0.13869
 C455 C 0.44625 0.78535 0.56436
 C456 C 0.42919 0.78455 0.58385
 C457 C 0.40852 0.78290 0.60666
 C458 C 0.41069 0.76632 0.63280
 C459 C 0.38998 0.76344 0.65387
 C460 C 0.36702 0.77714 0.64889
 C461 C 0.36499 0.79403 0.62303
 C462 C 0.38571 0.79691 0.60196
 C463 C 0.34515 0.77283 0.66930
 C464 C 0.32663 0.76861 0.68589
 H465 H 0.42820 0.75530 0.63656
 H466 H 0.39170 0.75022 0.67368
 H467 H 0.34727 0.80460 0.61887
 H468 H 0.38377 0.80968 0.58173
 C469 C 0.05380 0.71444 0.06291
 C470 C 0.07093 0.71504 0.08231
 C471 C 0.09166 0.71649 0.10502
 C472 C 0.11528 0.70433 0.09870
 C473 C 0.13599 0.70714 0.11976
 C474 C 0.13316 0.72212 0.14722
 C475 C 0.10943 0.73394 0.15380
 C476 C 0.08872 0.73113 0.13274
 C477 C 0.15495 0.72647 0.16774
 C478 C 0.17338 0.73073 0.18445
 H479 H 0.11781 0.69308 0.07725
 H480 H 0.15430 0.69803 0.11435
 H481 H 0.10708 0.74569 0.17487
 H482 H 0.07059 0.74073 0.13778
 C483 C 0.55356 0.21401 0.56494
 C484 C 0.57066 0.21497 0.58433
 C485 C 0.59138 0.21680 0.60699
 C486 C 0.59095 0.23611 0.63022
 C487 C 0.61181 0.23897 0.65101
 C488 C 0.63319 0.22254 0.64867
 C489 C 0.63346 0.20298 0.62577
 C490 C 0.61259 0.20011 0.60496
 C491 C 0.65532 0.22661 0.66869
 C492 C 0.67404 0.23063 0.68498
 H493 H 0.57471 0.24920 0.63189
 H494 H 0.61147 0.25425 0.66852
 H495 H 0.64995 0.19025 0.62365
 H496 H 0.61317 0.18520 0.58698
 C497 C 0.71853 0.05331 0.93598
 C498 C 0.71922 0.07035 0.91651
 C499 C 0.72075 0.09096 0.89372
 C500 C 0.70409 0.11214 0.89610
 C501 C 0.70666 0.13287 0.87510
 C502 C 0.72589 0.13250 0.85165
 C503 C 0.74230 0.11117 0.84899
 C504 C 0.73973 0.09044 0.86997
 C505 C 0.72964 0.15447 0.83133
 C506 C 0.73337 0.17305 0.81477
 H507 H 0.68943 0.11280 0.91447
 H508 H 0.69395 0.14933 0.87746
 H509 H 0.75732 0.11074 0.83105
 H510 H 0.75280 0.07423 0.86802
 C511 C 0.21892 0.55311 0.43509
 C512 C 0.21957 0.57011 0.41560
 C513 C 0.22098 0.59073 0.39281
 C514 C 0.20294 0.61082 0.39372
 C515 C 0.20527 0.63162 0.37279
 C516 C 0.22566 0.63240 0.35088
 C517 C 0.24348 0.61213 0.34967
 C518 C 0.24114 0.59133 0.37058
 C519 C 0.22910 0.65453 0.33077
 C520 C 0.23258 0.67329 0.31445
 H521 H 0.18735 0.61060 0.41091
 H522 H 0.19147 0.64727 0.37403
 H523 H 0.25939 0.61261 0.33294
 H524 H 0.25527 0.57596 0.36978
 C525 C 0.28075 0.94693 0.93522
 C526 C 0.28009 0.92984 0.91586
 C527 C 0.27863 0.90912 0.89324
 C528 C 0.25834 0.90833 0.87125
 C529 C 0.25595 0.88744 0.85052
 C530 C 0.27386 0.86724 0.85167
 C531 C 0.29438 0.86819 0.87335
 C532 C 0.29676 0.88909 0.89410
 C533 C 0.27042 0.84504 0.83168
 C534 C 0.26695 0.82626 0.81542
 H535 H 0.24414 0.92364 0.87049
 H536 H 0.23994 0.88684 0.83397
 H537 H 0.30826 0.85261 0.87454
 H538 H 0.31246 0.88944 0.91111
 C539 C 0.78143 0.44670 0.43572
 C540 C 0.78058 0.42964 0.41636
 C541 C 0.77893 0.40897 0.39372
 C542 C 0.75735 0.40705 0.37379
 C543 C 0.75493 0.38620 0.35303
 C544 C 0.77409 0.36717 0.35210
 C545 C 0.79586 0.36925 0.37171
 C546 C 0.79828 0.39012 0.39249
 C547 C 0.77075 0.34497 0.33213
 C548 C 0.76736 0.32618 0.31587
 H549 H 0.74222 0.42145 0.37465
 H550 H 0.73796 0.38470 0.33808
 H551 H 0.81072 0.35457 0.37128
 H552 H 0.81498 0.39136 0.40790
 C553 C 0.05330 0.28604 0.93616
 C554 C 0.07045 0.28521 0.91678
 C555 C 0.09123 0.28349 0.89413
 C556 C 0.11482 0.29575 0.90025
 C557 C 0.13557 0.29270 0.87928
 C558 C 0.13282 0.27738 0.85210
 C559 C 0.10912 0.26545 0.84572
 C560 C 0.08837 0.26850 0.86669
 C561 C 0.15465 0.27285 0.83166
 C562 C 0.17311 0.26846 0.81502
 H563 H 0.11729 0.30728 0.92149
 H564 H 0.15385 0.30191 0.88453
 H565 H 0.10684 0.25345 0.82486
 H566 H 0.07027 0.25882 0.86181
 C567 C 0.55374 0.78563 0.43458
 C568 C 0.57094 0.78494 0.41527
 C569 C 0.59182 0.78344 0.39275
 C570 C 0.59006 0.76682 0.36664
 C571 C 0.61101 0.76407 0.34591
 C572 C 0.63380 0.77794 0.35121
 C573 C 0.63542 0.79488 0.37703
 C574 C 0.61447 0.79763 0.39776
 C575 C 0.65593 0.77379 0.33116
 C576 C 0.67467 0.76971 0.31489
 H577 H 0.57269 0.75566 0.36264
 H578 H 0.60961 0.75082 0.32611
 H579 H 0.65301 0.80559 0.38144
 H580 H 0.61609 0.81043 0.41797
 C581 C 0.94700 0.71545 0.93497
 C582 C 0.92984 0.71639 0.91564
 C583 C 0.90907 0.71820 0.89303
 C584 C 0.91131 0.73459 0.86671
 C585 C 0.89054 0.73759 0.84579
 C586 C 0.86743 0.72422 0.85109
 C587 C 0.86532 0.70754 0.87715
 C588 C 0.88609 0.70454 0.89808
 C589 C 0.84555 0.72857 0.83071
 C590 C 0.82706 0.73277 0.81409
 H591 H 0.92894 0.74535 0.86267
 H592 H 0.89234 0.75064 0.82581
 H593 H 0.84749 0.69721 0.88156
 H594 H 0.88410 0.69192 0.91844
 C595 C 0.44599 0.21263 0.43545
 C596 C 0.42880 0.21318 0.41616
 C597 C 0.40792 0.21454 0.39366
 C598 C 0.41032 0.22982 0.36636
 C599 C 0.38940 0.23255 0.34560
 C600 C 0.36602 0.22002 0.35206
 C601 C 0.36376 0.20441 0.37908
 C602 C 0.38467 0.20167 0.39984
 C603 C 0.34397 0.22432 0.33197
 C604 C 0.32530 0.22857 0.31567
 H605 H 0.42816 0.23997 0.36145
 H606 H 0.39131 0.24480 0.32488
 H607 H 0.34571 0.19475 0.38439
 H608 H 0.38256 0.18992 0.42097
 C609 C 0.71815 0.94715 0.93472
 C610 C 0.71872 0.93005 0.91539
 C611 C 0.72004 0.90930 0.89284
 C612 C 0.73806 0.91015 0.86800
 C613 C 0.74052 0.88927 0.84727
 C614 C 0.72496 0.86746 0.85128
 C615 C 0.70665 0.86676 0.87581
 C616 C 0.70419 0.88764 0.89656
 C617 C 0.72870 0.84534 0.83127
 C618 C 0.73240 0.82661 0.81501
 H619 H 0.75050 0.92675 0.86501
 H620 H 0.75483 0.88995 0.82848
 H621 H 0.69462 0.84993 0.87922
 H622 H 0.69029 0.88673 0.91578
 C623 C 0.21950 0.44596 0.43556
 C624 C 0.22043 0.42890 0.41618
 C625 C 0.22224 0.40827 0.39346
 C626 C 0.24355 0.40688 0.37299
 C627 C 0.24614 0.38614 0.35208
 C628 C 0.22742 0.36668 0.35153
 C629 C 0.20593 0.36822 0.37170
 C630 C 0.20334 0.38898 0.39264
 C631 C 0.23092 0.34466 0.33126
 C632 C 0.23443 0.32604 0.31470
 H633 H 0.25834 0.42163 0.37352
 H634 H 0.26290 0.38507 0.33669
 H635 H 0.19140 0.35322 0.37157
 H636 H 0.18684 0.38980 0.40846
 C637 C 0.28041 0.05315 0.93664
 C638 C 0.27976 0.07024 0.91726
 C639 C 0.27837 0.09095 0.89460
 C640 C 0.29582 0.11151 0.89638
 C641 C 0.29347 0.13237 0.87553
 C642 C 0.27367 0.13274 0.85285
 C643 C 0.25646 0.11201 0.85078
 C644 C 0.25880 0.09116 0.87161
 C645 C 0.27021 0.15487 0.83275
 C646 C 0.26674 0.17362 0.81640
 H647 H 0.31094 0.11160 0.91416
 H648 H 0.30680 0.14836 0.87743
 H649 H 0.24099 0.11216 0.83344
 H650 H 0.24513 0.07542 0.87014
 C651 C 0.78194 0.55384 0.43539
 C652 C 0.78119 0.57085 0.41590
 C653 C 0.77958 0.59143 0.39307
 C654 C 0.79603 0.61274 0.39551
 C655 C 0.79339 0.63343 0.37446
 C656 C 0.77428 0.63288 0.35089
 C657 C 0.75809 0.61140 0.34817
 C658 C 0.76073 0.59072 0.36920
 C659 C 0.77046 0.65478 0.33050
 C660 C 0.76670 0.67332 0.31387
 H661 H 0.81059 0.61355 0.41397
 H662 H 0.80593 0.65000 0.37687
 H663 H 0.74317 0.61082 0.33013
 H664 H 0.74782 0.57439 0.36719
 C665 C 0.05351 0.71512 0.93576
 C666 C 0.07053 0.71590 0.91621
 C667 C 0.09114 0.71755 0.89333
 C668 C 0.08902 0.73433 0.86739
 C669 C 0.10970 0.73721 0.84627
 C670 C 0.13257 0.72331 0.85100
 C671 C 0.13454 0.70622 0.87665
 C672 C 0.11386 0.70334 0.89778
 C673 C 0.15443 0.72763 0.83056
 C674 C 0.17293 0.73187 0.81395
 H675 H 0.07159 0.74551 0.86382
 H676 H 0.10802 0.75059 0.82661
 H677 H 0.15219 0.69548 0.88063
 H678 H 0.11575 0.69041 0.91786
 C679 C 0.55371 0.21364 0.43540
 C680 C 0.57086 0.21456 0.41603
 C681 C 0.59163 0.21639 0.39337
 C682 C 0.61470 0.20291 0.39849
 C683 C 0.63549 0.20600 0.37756
 C684 C 0.63327 0.22259 0.35143
 C685 C 0.61007 0.23576 0.34603
 C686 C 0.58929 0.23266 0.36696
 C687 C 0.65517 0.22709 0.33109
 C688 C 0.67368 0.23145 0.31452
 H689 H 0.61677 0.19038 0.41893
 H690 H 0.65339 0.19583 0.38204
 H691 H 0.60819 0.24873 0.32600
 H692 H 0.57158 0.24329 0.36286
 C693 C 0.94563 0.28603 0.93636
 C694 C 0.92848 0.28523 0.91703
 C695 C 0.90769 0.28358 0.89444
 C696 C 0.88534 0.29842 0.89865
 C697 C 0.86447 0.29559 0.87785
 C698 C 0.86587 0.27791 0.85277
 C699 C 0.88837 0.26336 0.84828
 C700 C 0.90924 0.26620 0.86907
 C701 C 0.84380 0.27373 0.83268
 C702 C 0.82513 0.26964 0.81634
 H703 H 0.88389 0.31182 0.91828
 H704 H 0.84711 0.30683 0.88163
 H705 H 0.88960 0.24954 0.82907
 H706 H 0.92637 0.25453 0.86570
 C707 C 0.44605 0.78528 0.43469
 C708 C 0.42893 0.78441 0.41531
 C709 C 0.40821 0.78265 0.39262
 C710 C 0.38503 0.79593 0.39790
 C711 C 0.36431 0.79292 0.37690
 C712 C 0.36668 0.77662 0.35054
 C713 C 0.38999 0.76365 0.34499
 C714 C 0.41070 0.76666 0.36599
 C715 C 0.34485 0.77219 0.33011
 C716 C 0.32640 0.76789 0.31347
 H717 H 0.38284 0.80824 0.41850
 H718 H 0.34634 0.80293 0.38150
 H719 H 0.39198 0.75089 0.32478
 H720 H 0.42848 0.75620 0.36176
 C721 C 0.28053 0.94673 0.06465
 C722 C 0.27987 0.92957 0.08393
 C723 C 0.27846 0.90876 0.10645
 C724 C 0.29656 0.88872 0.10535
 C725 C 0.29422 0.86774 0.12601
 C726 C 0.27378 0.86673 0.14782
 C727 C 0.25591 0.88694 0.14922
 C728 C 0.25824 0.90792 0.12858
 C729 C 0.27038 0.84445 0.16769
 C730 C 0.26695 0.82558 0.18384
 H731 H 0.31219 0.88913 0.08822
 H732 H 0.30807 0.85215 0.12463
 H733 H 0.23995 0.88629 0.16589
 H734 H 0.24407 0.92325 0.12953
 C735 C 0.78162 0.44682 0.56532
 C736 C 0.78075 0.42979 0.58478
 C737 C 0.77901 0.40919 0.60756
 C738 C 0.75947 0.40945 0.63062
 C739 C 0.75674 0.38873 0.65158
 C740 C 0.77354 0.36765 0.64958
 C741 C 0.79332 0.36754 0.62682
 C742 C 0.79605 0.38827 0.60585
 C743 C 0.76970 0.34569 0.66988
 C744 C 0.76592 0.32711 0.68643
 H745 H 0.74610 0.42546 0.63206
 H746 H 0.74130 0.38895 0.66898
 H747 H 0.80634 0.35128 0.62498
 H748 H 0.81114 0.38781 0.58801
 C749 C 0.71908 0.05417 0.06436
 C750 C 0.71993 0.07117 0.08380
 C751 C 0.72159 0.09178 0.10653
 C752 C 0.74289 0.09331 0.12697
 C753 C 0.74534 0.11410 0.14781
 C754 C 0.72651 0.13346 0.14832
 C755 C 0.70501 0.13176 0.12821
 C756 C 0.70256 0.11095 0.10734
 C757 C 0.72993 0.15559 0.16837
 C758 C 0.73337 0.17434 0.18468
 H759 H 0.75778 0.07865 0.12643
 H760 H 0.76211 0.11530 0.16315
 H761 H 0.69040 0.14669 0.12830
 H762 H 0.68607 0.11002 0.09153
 C763 C 0.21867 0.55351 0.56469
 C764 C 0.21934 0.57063 0.58400
 C765 C 0.22083 0.59138 0.60658
 C766 C 0.24126 0.59228 0.62838
 C767 C 0.24366 0.61318 0.64909
 C768 C 0.22564 0.63328 0.64811
 C769 C 0.20499 0.63222 0.62662
 C770 C 0.20259 0.61131 0.60589
 C771 C 0.22907 0.65548 0.66808
 C772 C 0.23255 0.67427 0.68434
 H773 H 0.25555 0.57704 0.62901
 H774 H 0.25977 0.61387 0.66549
 H775 H 0.19101 0.64772 0.62556
 H776 H 0.18679 0.61087 0.58903
 C777 C 0.94718 0.71468 0.06439
 C778 C 0.92999 0.71538 0.08371
 C779 C 0.90913 0.71692 0.10625
 C780 C 0.91065 0.73406 0.13187
 C781 C 0.88969 0.73683 0.15259
 C782 C 0.86713 0.72247 0.14776
 C783 C 0.86576 0.70502 0.12244
 C784 C 0.88672 0.70225 0.10172
 C785 C 0.84498 0.72662 0.16777
 C786 C 0.82623 0.73068 0.18402
 H787 H 0.92783 0.74559 0.13549
 H788 H 0.89090 0.75047 0.17199
 H789 H 0.84835 0.69393 0.11839
 H790 H 0.88529 0.68905 0.08188
 C791 C 0.44595 0.21320 0.56493
 C792 C 0.42882 0.21398 0.58434
 C793 C 0.40808 0.21566 0.60705
 C794 C 0.38466 0.20300 0.60126
 C795 C 0.36392 0.20602 0.62228
 C796 C 0.36653 0.22170 0.64916
 C797 C 0.39008 0.23404 0.65521
 C798 C 0.41081 0.23102 0.63420
 C799 C 0.34470 0.22621 0.66961
 C800 C 0.32625 0.23059 0.68625
 H801 H 0.38229 0.19119 0.58026
 H802 H 0.34575 0.19650 0.61729
 H803 H 0.39226 0.24632 0.67584
 H804 H 0.42879 0.24101 0.63882
 C805 C 0.05343 0.28627 0.06557
 C806 C 0.07066 0.28554 0.08480
 C807 C 0.09158 0.28398 0.10722
 C808 C 0.08924 0.26842 0.13429
 C809 C 0.11018 0.26552 0.15497
 C810 C 0.13353 0.27817 0.14867
 C811 C 0.13573 0.29406 0.12189
 C812 C 0.11479 0.29696 0.10120
 C813 C 0.15560 0.27375 0.16870
 C814 C 0.17428 0.26946 0.18496
 H815 H 0.07142 0.25819 0.13907
 H816 H 0.10832 0.25308 0.17552
 H817 H 0.15375 0.30381 0.11671
 H818 H 0.11685 0.30892 0.08025
 C819 C 0.55383 0.78555 0.56401
 C820 C 0.57099 0.78478 0.58336
 C821 C 0.59176 0.78314 0.60599
 C822 C 0.58925 0.76748 0.63294
 C823 C 0.61002 0.76458 0.65389
 C824 C 0.63338 0.77733 0.64799
 C825 C 0.63577 0.79330 0.62130
 C826 C 0.61500 0.79620 0.60034
 C827 C 0.65524 0.77302 0.66841
 C828 C 0.67373 0.76883 0.68505
 H829 H 0.57142 0.75719 0.63744
 H830 H 0.60801 0.75207 0.67436
 H831 H 0.65379 0.80315 0.61643
 H832 H 0.61720 0.80826 0.57949
   
