data_POSCAR
  _audit_creation_date              2014-09-24
  _audit_creation_method            'ToBaCCo'
  _symmetry_space_group_name_H-M    'P1'
  _symmetry_Int_Tables_number       1
  _symmetry_cell_setting            triclinic
  loop_
  _symmetry_equiv_pos_as_xyz
 x,y,z
_cell_length_a 45.3129
_cell_length_b 47.1084
_cell_length_c 43.2107
_cell_angle_alpha 91.981000
_cell_angle_beta 89.280500
_cell_angle_gamma 93.585800
loop_
  _atom_site_label
  _atom_site_type_symbol
  _atom_site_fract_x
  _atom_site_fract_y
  _atom_site_fract_z
C1 C 0.20291 0.52688 1.03972
 H2 H 0.20406 0.54555 1.02575
 C3 C 0.18146 0.52393 1.06308
 H4 H 0.16615 0.54054 1.06606
 C5 C 0.22024 0.48188 1.05004
 H6 H 0.23504 0.46528 1.04458
 C7 C 0.19910 0.47793 1.07348
 H8 H 0.19936 0.45872 1.08643
 N9 N 0.22165 0.50597 1.03358
 C10 C 0.29319 0.54741 0.97973
 H11 H 0.29253 0.53373 0.95909
 C12 C 0.31386 0.57060 0.98195
 H13 H 0.32922 0.57466 0.96297
 C14 C 0.27467 0.55812 1.03006
 H15 H 0.25962 0.55293 1.04891
 C16 C 0.29539 0.58124 1.03349
 H17 H 0.29601 0.59390 1.05491
 Zn18 Zn 0.24715 0.50946 0.99879
 N19 N 0.27387 0.54184 1.00341
 C20 C 0.22473 0.53589 0.94645
 N21 N 0.22251 0.51256 0.96423
 C22 C 0.20075 0.49170 0.95952
 C23 C 0.18016 0.49376 0.93608
 C24 C 0.20466 0.53877 0.92270
 C25 C 0.28965 0.47377 1.01722
 C26 C 0.30637 0.44990 1.01686
 C27 C 0.28244 0.43339 0.96934
 C28 C 0.26619 0.45770 0.97057
 N29 N 0.26970 0.47702 0.99458
 H30 H 0.24157 0.55266 0.95105
 H31 H 0.19904 0.47373 0.97450
 H32 H 0.16257 0.47727 0.93324
 H33 H 0.20687 0.55744 0.90874
 H34 H 0.29225 0.48966 1.03583
 H35 H 0.32218 0.44783 1.03509
 H36 H 0.27883 0.41788 0.95048
 H37 H 0.25056 0.46088 0.95253
 C38 C 0.31520 0.58772 1.00917
 C39 C 0.17874 0.49887 1.08022
 C40 C 0.30263 0.42910 0.99291
 C41 C 0.18182 0.51766 0.91745
 C42 C 0.79547 0.51021 -0.03158
 H43 H 0.79483 0.52444 -0.01141
 C44 C 0.81718 0.51483 -0.05426
 H45 H 0.83339 0.53255 -0.05121
 C46 C 0.77548 0.46936 -0.05935
 H47 H 0.75955 0.45138 -0.06101
 C48 C 0.79681 0.47326 -0.08274
 H49 H 0.79654 0.45857 -0.10257
 N50 N 0.77478 0.48817 -0.03477
 C51 C 0.70256 0.52014 0.02136
 H52 H 0.69922 0.50357 0.03801
 C53 C 0.68496 0.54349 0.02276
 H54 H 0.66792 0.54461 0.04047
 C55 C 0.72808 0.53812 -0.02269
 H56 H 0.74452 0.53578 -0.04074
 C57 C 0.71101 0.56179 -0.02214
 H58 H 0.71505 0.57771 -0.03943
 Zn59 Zn 0.74638 0.48537 -0.00232
 N60 N 0.72381 0.51799 -0.00096
 C61 C 0.76786 0.50297 0.05779
 N62 N 0.76814 0.48296 0.03435
 C63 C 0.78631 0.46112 0.03486
 C64 C 0.80540 0.45882 0.05954
 C65 C 0.78659 0.50143 0.08309
 C66 C 0.70485 0.44917 -0.03466
 C67 C 0.68397 0.42635 -0.03888
 C68 C 0.69318 0.41231 0.01315
 C69 C 0.71459 0.43490 0.01600
 N70 N 0.71990 0.45287 -0.00769
 H71 H 0.75368 0.52049 0.05662
 H72 H 0.78644 0.44584 0.01559
 H73 H 0.82031 0.44172 0.05893
 H74 H 0.78613 0.51751 0.10156
 H75 H 0.70895 0.46412 -0.05290
 H76 H 0.67295 0.42363 -0.06094
 H77 H 0.68845 0.39925 0.03293
 H78 H 0.72615 0.43869 0.03762
 C79 C 0.68906 0.56472 0.00078
 C80 C 0.81780 0.49648 -0.08053
 C81 C 0.67727 0.40780 -0.01454
 C82 C 0.80588 0.47924 0.08404
 C83 C -0.02836 0.28478 0.49806
 H84 H -0.04473 0.28590 0.51643
 C85 C -0.02924 0.30272 0.47319
 H86 H -0.04616 0.31792 0.47371
 C87 C 0.01473 0.26488 0.47771
 H88 H 0.03210 0.25039 0.47983
 C89 C 0.01477 0.28248 0.45232
 H90 H 0.03171 0.27999 0.43478
 N91 N -0.00671 0.26630 0.49984
 C92 C -0.05088 0.21096 0.56642
 H93 H -0.03682 0.21494 0.58635
 C94 C -0.07619 0.19263 0.56851
 H95 H -0.08169 0.18311 0.59045
 C96 C -0.06029 0.21835 0.51360
 H97 H -0.05349 0.22777 0.49199
 C98 C -0.08539 0.19965 0.51445
 H99 H -0.09740 0.19481 0.49324
 Zn100 Zn -0.00713 0.24507 0.53608
 N101 N -0.04345 0.22337 0.53926
 C102 C -0.02504 0.27925 0.58783
 N103 N -0.00215 0.27229 0.56898
 C104 C 0.02433 0.28749 0.57008
 C105 C 0.02867 0.31067 0.59074
 C106 C -0.02185 0.30270 0.60848
 C107 C 0.02386 0.20044 0.51057
 C108 C 0.04633 0.18155 0.50756
 C109 C 0.06696 0.20122 0.55553
 C110 C 0.04411 0.21979 0.55759
 N111 N 0.02353 0.21951 0.53490
 H112 H -0.04631 0.26769 0.58567
 H113 H 0.04188 0.28207 0.55415
 H114 H 0.04999 0.32239 0.59113
 H115 H -0.04081 0.30878 0.62206
 H116 H 0.00682 0.20023 0.49324
 H117 H 0.04629 0.16663 0.48793
 H118 H 0.08356 0.20223 0.57340
 H119 H 0.04292 0.23438 0.57733
 C120 C -0.09345 0.18609 0.54206
 C121 C -0.00740 0.30206 0.44959
 C122 C 0.06846 0.18200 0.53006
 C123 C 0.00514 0.31913 0.60967
 C124 C 0.98426 0.73194 0.50923
 H125 H 0.96656 0.74561 0.50524
 C126 C 0.98219 0.71396 0.53426
 H127 H 0.96328 0.71470 0.54978
 C128 C 1.03005 0.71399 0.49377
 H129 H 1.04861 0.71414 0.47777
 C130 C 1.02886 0.69563 0.51846
 H131 H 1.04649 0.68144 0.52113
 N132 N 1.00841 0.73229 0.49018
 C133 C 0.96552 0.78773 0.43380
 H134 H 0.96942 0.77678 0.41188
 C135 C 0.94302 0.80676 0.43653
 H136 H 0.93017 0.81042 0.41629
 C137 C 0.97910 0.79766 0.48595
 H138 H 0.99347 0.79415 0.50507
 C139 C 0.95625 0.81588 0.49008
 H140 H 0.95301 0.82541 0.51288
 Zn141 Zn 1.01326 0.75774 0.45723
 N142 N 0.98271 0.78331 0.45853
 C143 C 0.98692 0.71949 0.41404
 N144 N 1.01259 0.73490 0.42055
 C145 C 1.03793 0.73040 0.40441
 C146 C 1.03832 0.70874 0.38151
 C147 C 0.98623 0.69790 0.39110
 C148 C 1.06510 0.77937 0.48812
 C149 C 1.08990 0.79801 0.49287
 C150 C 1.08246 0.81708 0.44258
 C151 C 1.05772 0.79808 0.43880
 N152 N 1.04944 0.77986 0.46151
 H153 H 0.96733 0.72297 0.42787
 H154 H 1.05827 0.74234 0.41060
 H155 H 1.05893 0.70447 0.36980
 H156 H 0.96595 0.68489 0.38733
 H157 H 1.05776 0.76539 0.50632
 H158 H 1.10174 0.79767 0.51446
 H159 H 1.08808 0.83216 0.42476
 H160 H 1.04454 0.79841 0.41813
 C161 C 0.93776 0.82092 0.46516
 C162 C 1.00493 0.69583 0.53942
 C163 C 1.09854 0.81756 0.47019
 C164 C 1.01238 0.69173 0.37523
 C165 C 0.47190 -0.00948 0.29190
 H166 H 0.48866 -0.02477 0.29318
 C167 C 0.44864 -0.00975 0.31347
 H168 H 0.44769 -0.02531 0.33138
 C169 C 0.45375 0.03033 0.26794
 H170 H 0.45606 0.04627 0.25057
 C171 C 0.43019 0.03085 0.28903
 H172 H 0.41428 0.04691 0.28720
 N173 N 0.47406 0.01040 0.26974
 C174 C 0.52981 -0.02223 0.19535
 H175 H 0.54555 -0.00413 0.19336
 C176 C 0.53174 -0.04584 0.17522
 H177 H 0.54873 -0.04475 0.15744
 C178 C 0.48755 -0.04363 0.21990
 H179 H 0.47029 -0.04263 0.23729
 C180 C 0.48853 -0.06772 0.20015
 H181 H 0.47235 -0.08514 0.20389
 Zn182 Zn 0.50774 0.01164 0.24322
 N183 N 0.50825 -0.02168 0.21741
 C184 C 0.56180 -0.00530 0.26666
 N185 N 0.54154 0.01482 0.26884
 C186 C 0.54360 0.03599 0.29108
 C187 C 0.56665 0.03736 0.31242
 C188 C 0.58525 -0.00462 0.28733
 C189 C 0.48560 0.04039 0.19469
 C190 C 0.48274 0.06213 0.17408
 C191 C 0.52395 0.08850 0.19879
 C192 C 0.52612 0.06606 0.21892
 N193 N 0.50675 0.04282 0.21679
 H194 H 0.55941 -0.02244 0.24948
 H195 H 0.52691 0.05143 0.29268
 H196 H 0.56784 0.05421 0.33013
 H197 H 0.60067 -0.02128 0.28567
 H198 H 0.47081 0.02147 0.19320
 H199 H 0.46582 0.05956 0.15657
 H200 H 0.53903 0.10716 0.20128
 H201 H 0.54307 0.06738 0.23637
 C202 C 0.51106 -0.06944 0.17733
 C203 C 0.42757 0.01082 0.31241
 C204 C 0.50179 0.08681 0.17618
 C205 C 0.58775 0.01673 0.31080
 C206 C 0.53486 -0.03584 0.71168
 H207 H 0.51601 -0.05099 0.70922
 C208 C 0.55839 -0.03686 0.69071
 H209 H 0.55720 -0.05275 0.67199
 C210 C 0.55805 0.00424 0.73816
 H211 H 0.55755 0.02050 0.75638
 C212 C 0.58230 0.00384 0.71778
 H213 H 0.60057 0.01955 0.72099
 N214 N 0.53503 -0.01555 0.73481
 C215 C 0.47462 -0.05153 0.80489
 H216 H 0.45773 -0.03627 0.80602
 C217 C 0.47325 -0.07427 0.82497
 H218 H 0.45496 -0.07660 0.84124
 C219 C 0.51931 -0.06667 0.78273
 H220 H 0.53766 -0.06331 0.76682
 C221 C 0.51876 -0.08969 0.80224
 H222 H 0.53679 -0.10375 0.80106
 Zn223 Zn 0.50017 -0.01560 0.75947
 N224 N 0.49744 -0.04814 0.78432
 C225 C 0.44443 -0.03445 0.73158
 N226 N 0.46853 -0.01571 0.73123
 C227 C 0.47168 0.00465 0.70971
 C228 C 0.44974 0.00743 0.68799
 C229 C 0.42173 -0.03235 0.71019
 C230 C 0.51997 0.02258 0.80846
 C231 C 0.51834 0.04610 0.82903
 C232 C 0.47423 0.05839 0.80313
 C233 C 0.47673 0.03481 0.78312
 N234 N 0.49936 0.01745 0.78598
 H235 H 0.44256 -0.05074 0.74863
 H236 H 0.49128 0.01900 0.70971
 H237 H 0.45284 0.02381 0.67107
 H238 H 0.40230 -0.04689 0.71122
 H239 H 0.53744 0.00816 0.81069
 H240 H 0.53464 0.04965 0.84709
 H241 H 0.45609 0.07194 0.80026
 H242 H 0.46014 0.03021 0.76566
 C243 C 0.49563 -0.09365 0.82390
 C244 C 0.58262 -0.01687 0.69353
 C245 C 0.49503 0.06420 0.82665
 C246 C 0.42410 -0.01090 0.68829
 C247 C 0.22926 0.04379 0.50657
 C248 C 0.25074 0.04209 0.53357
 C249 C 0.26854 0.01978 0.53108
 C250 C 0.26341 0.00117 0.50137
 C251 C 0.24974 0.04456 0.47787
 C252 C 0.26763 0.02233 0.47508
 C253 C 0.21266 0.01460 0.50461
 C254 C 0.23028 -0.00758 0.50188
 H255 H 0.25192 0.05749 0.55275
 H256 H 0.27774 -0.01706 0.49921
 H257 H 0.25142 0.06201 0.46223
 H258 H 0.18874 0.01173 0.50530
 C259 C 0.77822 -0.03960 0.49364
 C260 C 0.75667 -0.04328 0.52105
 C261 C 0.73849 -0.02146 0.52587
 C262 C 0.74376 0.00245 0.50262
 C263 C 0.75855 -0.03456 0.46589
 C264 C 0.74047 -0.01265 0.47052
 C265 C 0.79455 -0.01053 0.49978
 C266 C 0.77679 0.01121 0.50536
 H267 H 0.75660 -0.06140 0.53579
 H268 H 0.72948 0.02059 0.50607
 H269 H 0.75863 -0.04706 0.44447
 H270 H 0.81843 -0.00739 0.50035
 C271 C 0.44230 0.27174 0.99629
 C272 C 0.44316 0.24876 0.97020
 C273 C 0.46811 0.23386 0.96967
 C274 C 0.49011 0.24343 0.99543
 C275 C 0.44673 0.25528 1.02578
 C276 C 0.47150 0.24018 1.02537
 C277 C 0.47090 0.29007 0.99246
 C278 C 0.49590 0.27565 0.99152
 H279 H 0.42509 0.24415 0.95430
 H280 H 0.51043 0.23147 0.99504
 H281 H 0.43031 0.25328 1.04402
 H282 H 0.47112 0.31298 0.99068
 C283 C 0.54771 0.72170 0.00524
 C284 C 0.54250 0.73846 -0.02401
 C285 C 0.51840 0.75448 -0.02209
 C286 C 0.50152 0.75211 0.00892
 C287 C 0.54934 0.74485 0.03125
 C288 C 0.52516 0.76075 0.03333
 C289 C 0.51860 0.70453 0.01102
 C290 C 0.49455 0.72019 0.01285
 H291 H 0.55848 0.74052 -0.04274
 H292 H 0.48152 0.76454 0.01039
 H293 H 0.56842 0.74892 0.04593
 H294 H 0.51706 0.68156 0.01252
 C295 C 0.99299 0.44516 0.28237
 C296 C 0.96471 0.44494 0.26310
 C297 C 0.96418 0.46650 0.24292
 C298 C 0.99231 0.48661 0.24389
 C299 C 1.01781 0.44503 0.25773
 C300 C 1.01772 0.46690 0.23786
 C301 C 0.99613 0.47486 0.29784
 C302 C 0.99582 0.49649 0.27788
 H303 H 0.94715 0.42839 0.26452
 H304 H 0.99223 0.50428 0.22761
 H305 H 1.03405 0.42918 0.25605
 H306 H 0.99905 0.47842 0.32255
 C307 C 0.00101 0.56235 0.71653
 C308 C -0.02684 0.55845 0.73687
 C309 C -0.02713 0.53562 0.75548
 C310 C 0.00072 0.51854 0.75186
 C311 C 0.02642 0.56374 0.73996
 C312 C 0.02646 0.54070 0.75816
 C313 C 0.00318 0.53385 0.69897
 C314 C 0.00333 0.51089 0.71714
 H315 H -0.04421 0.57321 0.73729
 H316 H 0.00085 0.50009 0.76709
 H317 H 0.04253 0.58154 0.74262
 H318 H 0.00427 0.53221 0.67391
 C319 C 0.13910 0.12574 0.52053
 C320 C 0.12945 0.13930 0.49441
 C321 C 0.10644 0.15777 0.49771
 C322 C 0.09300 0.16262 0.52685
 C323 C 0.10303 0.14886 0.55282
 C324 C 0.12603 0.13033 0.54976
 C325 C 0.16301 0.10597 0.51710
 C326 C 0.17214 0.09186 0.54303
 C327 C 0.19421 0.07242 0.53945
 C328 C 0.20768 0.06728 0.51029
 C329 C 0.19772 0.08142 0.48443
 C330 C 0.17565 0.10092 0.48777
 C331 C 0.13599 0.11603 0.57527
 C332 C 0.15861 0.09707 0.57194
 C333 C 0.14286 0.13396 0.46548
 C334 C 0.16551 0.11503 0.46220
 H335 H 0.12608 0.11936 0.59795
 H336 H 0.16547 0.08630 0.59215
 H337 H 0.13563 0.14431 0.44515
 H338 H 0.17507 0.11132 0.43942
 H339 H 0.09914 0.16853 0.47767
 H340 H 0.09258 0.15215 0.57525
 H341 H 0.20036 0.06072 0.55929
 H342 H 0.20618 0.07670 0.46145
 C343 C 0.63350 0.63534 0.00220
 C344 C 0.64129 0.62245 -0.02626
 C345 C 0.65967 0.59957 -0.02659
 C346 C 0.67018 0.58945 0.00130
 C347 C 0.66225 0.60279 0.02964
 C348 C 0.64384 0.62568 0.03022
 C349 C 0.61350 0.65891 0.00272
 C350 C 0.60493 0.67116 0.03122
 C351 C 0.58473 0.69254 0.03168
 C352 C 0.57327 0.70211 0.00389
 C353 C 0.58222 0.68937 -0.02451
 C354 C 0.60239 0.66794 -0.02522
 C355 C 0.63522 0.63886 0.05828
 C356 C 0.61603 0.66116 0.05877
 C357 C 0.63012 0.63240 -0.05380
 C358 C 0.61096 0.65471 -0.05328
 H359 H 0.64307 0.63165 0.08006
 H360 H 0.60960 0.67046 0.08093
 H361 H 0.63597 0.62264 -0.07592
 H362 H 0.60254 0.66147 -0.07502
 H363 H 0.66521 0.58921 -0.04850
 H364 H 0.67046 0.59541 0.05120
 H365 H 0.57704 0.70090 0.05380
 H366 H 0.57259 0.69508 -0.04604
 C367 C 0.86733 -0.12240 0.47871
 C368 C 0.86466 -0.14397 0.45553
 C369 C 0.88749 -0.16263 0.45127
 C370 C 0.91341 -0.15919 0.46929
 C371 C 0.91576 -0.13677 0.49187
 C372 C 0.89259 -0.11889 0.49719
 C373 C 0.84337 -0.10287 0.48353
 C374 C 0.84576 -0.08195 0.50737
 C375 C 0.82330 -0.06314 0.51155
 C376 C 0.79954 -0.06344 0.49066
 C377 C 0.79682 -0.08551 0.46766
 C378 C 0.81870 -0.10531 0.46408
 C379 C 0.89423 -0.09755 0.52073
 C380 C 0.87101 -0.07963 0.52601
 C381 C 0.83920 -0.14637 0.43710
 C382 C 0.81674 -0.12723 0.44112
 H383 H 0.91356 -0.09477 0.53529
 H384 H 0.87312 -0.06344 0.54442
 H385 H 0.83680 -0.16294 0.41913
 H386 H 0.79776 -0.12953 0.42604
 H387 H 0.88480 -0.17991 0.43418
 H388 H 0.93566 -0.13291 0.50534
 H389 H 0.82501 -0.04732 0.53036
 H390 H 0.77797 -0.08750 0.45251
 C391 C 0.35504 0.35631 0.99327
 C392 C 0.34952 0.36880 0.96504
 C393 C 0.33180 0.39220 0.96486
 C394 C 0.31980 0.40321 0.99271
 C395 C 0.32505 0.38992 1.02069
 C396 C 0.34283 0.36665 1.02114
 C397 C 0.37488 0.33266 0.99384
 C398 C 0.38150 0.32113 1.02226
 C399 C 0.40206 0.30012 1.02302
 C400 C 0.41587 0.29026 0.99552
 C401 C 0.40835 0.30185 0.96714
 C402 C 0.38800 0.32303 0.96618
 C403 C 0.34924 0.35396 1.04902
 C404 C 0.36834 0.33167 1.04959
 C405 C 0.36251 0.35810 0.93770
 C406 C 0.38142 0.33561 0.93826
 H407 H 0.33989 0.36171 1.07067
 H408 H 0.37320 0.32290 1.07168
 H409 H 0.35840 0.36748 0.91574
 H410 H 0.39140 0.32835 0.91672
 H411 H 0.32820 0.40240 0.94325
 H412 H 0.31552 0.39786 1.04218
 H413 H 0.40824 0.29288 1.04533
 H414 H 0.41951 0.29538 0.94596
 C415 C 0.84159 0.11593 0.53654
 C416 C 0.83740 0.14016 0.51953
 C417 C 0.85763 0.16389 0.52282
 C418 C 0.88240 0.16311 0.54226
 C419 C 0.88552 0.13885 0.55987
 C420 C 0.86525 0.11530 0.55713
 C421 C 0.82196 0.09009 0.53132
 C422 C 0.82727 0.06549 0.54723
 C423 C 0.81056 0.04028 0.54009
 C424 C 0.78920 0.03927 0.51667
 C425 C 0.78280 0.06435 0.50208
 C426 C 0.79946 0.08994 0.50916
 C427 C 0.86904 0.09059 0.57353
 C428 C 0.85030 0.06610 0.56872
 C429 C 0.81382 0.13969 0.49862
 C430 C 0.79522 0.11498 0.49346
 H431 H 0.88712 0.08994 0.58961
 H432 H 0.85446 0.04722 0.58119
 H433 H 0.81024 0.15830 0.48545
 H434 H 0.77790 0.11526 0.47644
 H435 H 0.85460 0.18255 0.50953
 H436 H 0.90464 0.13751 0.57442
 H437 H 0.81520 0.02097 0.55160
 H438 H 0.76637 0.06351 0.48400
 C439 C 0.38586 0.65205 0.01653
 C440 C 0.36690 0.65157 -0.00897
 C441 C 0.34320 0.63095 -0.01088
 C442 C 0.33834 0.61116 0.01263
 C443 C 0.35691 0.61261 0.03856
 C444 C 0.38099 0.63276 0.04042
 C445 C 0.41214 0.67217 0.01747
 C446 C 0.43221 0.67119 0.04187
 C447 C 0.45852 0.68843 0.04116
 C448 C 0.46464 0.70662 0.01646
 C449 C 0.44370 0.70855 -0.00697
 C450 C 0.41754 0.69091 -0.00687
 C451 C 0.40092 0.63330 0.06510
 C452 C 0.42620 0.65209 0.06572
 C453 C 0.37258 0.67114 -0.03247
 C454 C 0.39740 0.69057 -0.03137
 H455 H 0.39737 0.61856 0.08368
 H456 H 0.44146 0.65128 0.08473
 H457 H 0.35801 0.67110 -0.05217
 H458 H 0.40128 0.70490 -0.05027
 H459 H 0.32882 0.62995 -0.03080
 H460 H 0.35341 0.59718 0.05651
 H461 H 0.47481 0.68695 0.05911
 H462 H 0.44873 0.72230 -0.02620
 C463 C 0.16343 -0.11384 0.48753
 C464 C 0.16359 -0.12862 0.45874
 C465 C 0.14294 -0.15172 0.45336
 C466 C 0.12230 -0.15995 0.47656
 C467 C 0.12309 -0.14531 0.50555
 C468 C 0.14340 -0.12213 0.51108
 C469 C 0.18356 -0.08831 0.49258
 C470 C 0.18197 -0.07255 0.52068
 C471 C 0.19909 -0.04691 0.52432
 C472 C 0.21761 -0.03707 0.50014
 C473 C 0.22019 -0.05367 0.47271
 C474 C 0.20281 -0.07926 0.46861
 C475 C 0.14333 -0.10644 0.53931
 C476 C 0.16224 -0.08199 0.54400
 C477 C 0.18379 -0.11945 0.43566
 C478 C 0.20310 -0.09522 0.44053
 H479 H 0.12802 -0.11270 0.55767
 H480 H 0.16094 -0.07005 0.56581
 H481 H 0.18427 -0.13076 0.41341
 H482 H 0.21786 -0.08852 0.42188
 H483 H 0.14259 -0.16300 0.43106
 H484 H 0.10697 -0.15114 0.52335
 H485 H 0.19705 -0.03389 0.54534
 H486 H 0.23410 -0.04573 0.45392
 C487 C 0.60370 0.34542 0.98074
 C488 C 0.60349 0.36996 0.96325
 C489 C 0.62772 0.38987 0.96458
 C490 C 0.65255 0.38532 0.98273
 C491 C 0.65275 0.35995 0.99932
 C492 C 0.62816 0.34017 0.99878
 C493 C 0.57727 0.32547 0.98111
 C494 C 0.57661 0.30172 1.00002
 C495 C 0.55039 0.28414 1.00217
 C496 C 0.52514 0.29053 0.98571
 C497 C 0.52699 0.31339 0.96543
 C498 C 0.55269 0.33122 0.96351
 C499 C 0.62718 0.31563 1.01652
 C500 C 0.60180 0.29683 1.01727
 C501 C 0.57867 0.37458 0.94540
 C502 C 0.55376 0.35542 0.94537
 H503 H 0.64593 0.31125 1.03051
 H504 H 0.60172 0.27858 1.03185
 H505 H 0.57834 0.39337 0.93166
 H506 H 0.53487 0.36000 0.93167
 H507 H 0.62657 0.40941 0.95229
 H508 H 0.67176 0.35571 1.01296
 H509 H 0.54915 0.26659 1.01778
 H510 H 0.50792 0.31801 0.95200
 C511 C 0.48970 0.15403 1.11374
 C512 C 0.46498 0.13916 1.12666
 C513 C 0.46922 0.11770 1.14746
 C514 C 0.49793 0.11065 1.15516
 C515 C 0.52256 0.12602 1.14223
 C516 C 0.51853 0.14776 1.12144
 C517 C 0.48525 0.17640 1.09147
 C518 C 0.50988 0.19125 1.07829
 C519 C 0.50540 0.21237 1.05688
 C520 C 0.47653 0.21852 1.04865
 C521 C 0.45218 0.20310 1.06201
 C522 C 0.45639 0.18224 1.08351
 C523 C 0.54267 0.16315 1.10791
 C524 C 0.53843 0.18453 1.08675
 C525 C 0.43644 0.14583 1.11830
 C526 C 0.43222 0.16695 1.09701
 H527 H 0.56506 0.15856 1.11363
 H528 H 0.55766 0.19580 1.07682
 H529 H 0.41720 0.13449 1.12813
 H530 H 0.40984 0.17132 1.09103
 H531 H 0.45011 0.10649 1.15771
 H532 H 0.54475 0.12065 1.14775
 H533 H 0.52429 0.22407 1.04684
 H534 H 0.42985 0.20679 1.05523
 C535 C 0.00233 0.64290 0.61821
 C536 C 0.02922 0.65675 0.60915
 C537 C 0.02988 0.67414 0.58348
 C538 C 0.00393 0.67753 0.56671
 C539 C -0.02288 0.66351 0.57618
 C540 C -0.02379 0.64613 0.60190
 C541 C 0.00165 0.62412 0.64482
 C542 C -0.02504 0.60962 0.65332
 C543 C -0.02527 0.59074 0.67769
 C544 C 0.00088 0.58639 0.69387
 C545 C 0.02751 0.60112 0.68470
 C546 C 0.02794 0.62014 0.66045
 C547 C -0.05020 0.63160 0.61140
 C548 C -0.05080 0.61361 0.63666
 C549 C 0.05499 0.65269 0.62575
 C550 C 0.05439 0.63460 0.65089
 H551 H -0.07051 0.63393 0.59903
 H552 H -0.07155 0.60252 0.64300
 H553 H 0.07587 0.66330 0.61900
 H554 H 0.07484 0.63172 0.66279
 H555 H 0.05052 0.68517 0.57667
 H556 H -0.04288 0.66569 0.56320
 H557 H -0.04561 0.57856 0.68319
 H558 H 0.04825 0.59699 0.69523
 C559 C 0.50021 0.83973 -0.11132
 C560 C 0.50689 0.83419 -0.14267
 C561 C 0.50455 0.85579 -0.16391
 C562 C 0.49578 0.88286 -0.15397
 C563 C 0.48863 0.88783 -0.12248
 C564 C 0.49094 0.86638 -0.10104
 C565 C 0.50369 0.81743 -0.08870
 C566 C 0.49770 0.82321 -0.05724
 C567 C 0.50196 0.80229 -0.03569
 C568 C 0.51224 0.77575 -0.04537
 C569 C 0.51777 0.77019 -0.07711
 C570 C 0.51360 0.79099 -0.09887
 C571 C 0.48478 0.87122 -0.06941
 C572 C 0.48812 0.85002 -0.04788
 C573 C 0.51627 0.80731 -0.15205
 C574 C 0.51956 0.78608 -0.13053
 H575 H 0.47760 0.89168 -0.06116
 H576 H 0.48341 0.85474 -0.02367
 H577 H 0.52142 0.80273 -0.17620
 H578 H 0.52714 0.76576 -0.13870
 H579 H 0.50977 0.85163 -0.18813
 H580 H 0.48226 0.90865 -0.11448
 H581 H 0.49822 0.80711 -0.01131
 H582 H 0.52545 0.74976 -0.08482
 C583 C 0.99264 0.36035 0.37688
 C584 C 0.96599 0.35220 0.39183
 C585 C 0.96600 0.33246 0.41533
 C586 C 0.99254 0.32093 0.42457
 C587 C 1.01908 0.32933 0.40870
 C588 C 1.01922 0.34903 0.38507
 C589 C 0.99277 0.38150 0.35249
 C590 C 1.01953 0.39012 0.33793
 C591 C 1.01959 0.41058 0.31510
 C592 C 0.99300 0.42201 0.30618
 C593 C 0.96657 0.41372 0.32204
 C594 C 0.96625 0.39323 0.34478
 C595 C 1.04559 0.35809 0.36987
 C596 C 1.04575 0.37831 0.34674
 C597 C 0.93979 0.36415 0.38319
 C598 C 0.93994 0.38442 0.36015
 H599 H 1.06632 0.34959 0.37602
 H600 H 1.06658 0.38480 0.33572
 H601 H 0.91903 0.35799 0.39455
 H602 H 0.91930 0.39328 0.35437
 H603 H 0.94497 0.32569 0.42567
 H604 H 1.04007 0.32192 0.41557
 H605 H 1.04050 0.41790 0.30492
 H606 H 0.94622 0.42346 0.31708
 C607 C 0.51691 0.85801 0.11688
 C608 C 0.48946 0.86408 0.12997
 C609 C 0.48757 0.88797 0.15009
 C610 C 0.51294 0.90611 0.15721
 C611 C 0.54035 0.89921 0.14365
 C612 C 0.54241 0.87538 0.12360
 C613 C 0.51901 0.83297 0.09565
 C614 C 0.54656 0.82688 0.08269
 C615 C 0.54846 0.80315 0.06248
 C616 C 0.52306 0.78550 0.05519
 C617 C 0.49558 0.79194 0.06835
 C618 C 0.49344 0.81566 0.08867
 C619 C 0.56961 0.86855 0.11022
 C620 C 0.57164 0.84473 0.09008
 C621 C 0.46434 0.84624 0.12246
 C622 C 0.46629 0.82246 0.10217
 H623 H 0.58950 0.88178 0.11528
 H624 H 0.59303 0.84026 0.08022
 H625 H 0.44296 0.85070 0.13234
 H626 H 0.44638 0.80929 0.09700
 H627 H 0.46597 0.89285 0.15895
 H628 H 0.56057 0.91159 0.14944
 H629 H 0.56961 0.79876 0.05199
 H630 H 0.47598 0.77834 0.06313
 C631 C 0.00985 0.39934 0.66000
 C632 C -0.00608 0.37599 0.67285
 C633 C -0.00680 0.34946 0.65693
 C634 C 0.00789 0.34638 0.62813
 C635 C 0.02403 0.37008 0.61592
 C636 C 0.02518 0.39650 0.63176
 C637 C 0.00970 0.42752 0.67588
 C638 C 0.02509 0.45091 0.66257
 C639 C 0.02384 0.47785 0.67695
 C640 C 0.00676 0.48175 0.70407
 C641 C -0.00779 0.45793 0.71767
 C642 C -0.00650 0.43072 0.70356
 C643 C 0.04078 0.42031 0.61948
 C644 C 0.04083 0.44706 0.63471
 C645 C -0.02146 0.37985 0.70099
 C646 C -0.02172 0.40676 0.71605
 H647 H 0.05277 0.41832 0.59774
 H648 H 0.05285 0.46498 0.62428
 H649 H -0.03378 0.36201 0.71121
 H650 H -0.03425 0.40889 0.73744
 H651 H -0.01903 0.33136 0.66675
 H652 H 0.03484 0.36832 0.59349
 H653 H 0.03588 0.49585 0.66672
 H654 H -0.02097 0.46059 0.73845
 C655 C 0.48422 0.13599 0.88877
 C656 C 0.51266 0.13051 0.87771
 C657 C 0.51630 0.10670 0.85781
 C658 C 0.49167 0.08864 0.84885
 C659 C 0.46340 0.09434 0.86059
 C660 C 0.45954 0.11798 0.88046
 C661 C 0.48014 0.16116 0.90932
 C662 C 0.45168 0.16660 0.92026
 C663 C 0.44787 0.19053 0.93975
 C664 C 0.47226 0.20904 0.94830
 C665 C 0.50069 0.20324 0.93712
 C666 C 0.50476 0.17930 0.91759
 C667 C 0.43143 0.12405 0.89202
 C668 C 0.42757 0.14795 0.91160
 C669 C 0.53677 0.14913 0.88654
 C670 C 0.53289 0.17310 0.90612
 H671 H 0.41223 0.11027 0.88580
 H672 H 0.40550 0.15189 0.91996
 H673 H 0.55883 0.14519 0.87817
 H674 H 0.55208 0.18690 0.91231
 H675 H 0.53809 0.10260 0.84874
 H676 H 0.44439 0.08032 0.85428
 H677 H 0.42599 0.19438 0.94871
 H678 H 0.51957 0.21748 0.94330
 C679 C 1.01048 0.61166 0.32556
 C680 C 0.98913 0.63094 0.31911
 C681 C 0.99058 0.65783 0.33427
 C682 C 1.01325 0.66540 0.35558
 C683 C 1.03511 0.64620 0.36079
 C684 C 1.03363 0.61916 0.34615
 C685 C 1.00778 0.58261 0.31162
 C686 C 1.02814 0.56286 0.31957
 C687 C 1.02440 0.53480 0.30785
 C688 C 1.00067 0.52655 0.28818
 C689 C 0.98104 0.54674 0.27951
 C690 C 0.98425 0.57482 0.29156
 C691 C 1.05414 0.59909 0.35268
 C692 C 1.05138 0.57136 0.33969
 C693 C 0.96624 0.62257 0.29846
 C694 C 0.96392 0.59502 0.28481
 H695 H 1.07210 0.60466 0.36852
 H696 H 1.06731 0.55633 0.34583
 H697 H 0.94971 0.63728 0.29317
 H698 H 0.94569 0.58930 0.26935
 H699 H 0.97372 0.67257 0.33020
 H700 H 1.05229 0.65169 0.37758
 H701 H 1.03971 0.51926 0.31424
 H702 H 0.96263 0.54030 0.26459
 C703 C 1.10981 0.48549 0.14649
 C704 C 1.12197 0.46203 0.13147
 C705 C 1.14489 0.46659 0.10980
 C706 C 1.15587 0.49448 0.10272
 C707 C 1.14306 0.51775 0.11829
 C708 C 1.12019 0.51335 0.14013
 C709 C 1.08574 0.48074 0.16939
 C710 C 1.07374 0.50421 0.18469
 C711 C 1.05117 0.49955 0.20678
 C712 C 1.04065 0.47166 0.21356
 C713 C 1.05273 0.44839 0.19770
 C714 C 1.07535 0.45281 0.17567
 C715 C 1.10759 0.53633 0.15588
 C716 C 1.08478 0.53183 0.17781
 C717 C 1.11085 0.43439 0.13823
 C718 C 1.08792 0.42986 0.15995
 H719 H 1.11544 0.55798 0.15125
 H720 H 1.07575 0.55013 0.18948
 H721 H 1.11999 0.41608 0.12668
 H722 H 1.08006 0.40820 0.16457
 H723 H 1.15302 0.44817 0.09758
 H724 H 1.15143 0.53939 0.11451
 H725 H 1.04238 0.51758 0.21922
 H726 H 1.04448 0.42686 0.20242
 C727 C 0.65154 -0.01866 0.62444
 C728 C 0.63834 -0.04432 0.63499
 C729 C 0.61659 -0.04357 0.65830
 C730 C 0.60748 -0.01738 0.67066
 C731 C 0.62131 0.00819 0.66003
 C732 C 0.64341 0.00765 0.63697
 C733 C 0.67403 -0.01936 0.59947
 C734 C 0.68727 0.00629 0.58887
 C735 C 0.70855 0.00549 0.56502
 C736 C 0.71628 -0.02072 0.55144
 C737 C 0.70261 -0.04622 0.56239
 C738 C 0.68165 -0.04566 0.58650
 C739 C 0.65723 0.03289 0.62583
 C740 C 0.67887 0.03221 0.60229
 C741 C 0.64682 -0.07025 0.62171
 C742 C 0.66803 -0.07091 0.59778
 H743 H 0.65121 0.05334 0.63532
 H744 H 0.68893 0.05217 0.59435
 H745 H 0.63677 -0.09021 0.62966
 H746 H 0.67376 -0.09135 0.58801
 H747 H 0.60663 -0.06341 0.66665
 H748 H 0.61432 0.02849 0.66899
 H749 H 0.71927 0.02526 0.55740
 H750 H 0.70788 -0.06652 0.55190
 C751 C -0.11711 0.51275 0.84833
 C752 C -0.12444 0.48455 0.85646
 C753 C -0.14590 0.47923 0.87960
 C754 C -0.15994 0.50189 0.89452
 C755 C -0.15247 0.53000 0.88575
 C756 C -0.13100 0.53555 0.86280
 C757 C -0.09432 0.51854 0.82433
 C758 C -0.08684 0.54675 0.81644
 C759 C -0.06495 0.55218 0.79388
 C760 C -0.05065 0.52963 0.77901
 C761 C -0.05850 0.50146 0.78724
 C762 C -0.08030 0.49578 0.80992
 C763 C -0.12304 0.56349 0.85415
 C764 C -0.10128 0.56900 0.83140
 C765 C -0.11000 0.46231 0.84145
 C766 C -0.08832 0.46783 0.81854
 H767 H -0.13362 0.58126 0.86517
 H768 H -0.09569 0.59087 0.82550
 H769 H -0.11544 0.44046 0.84749
 H770 H -0.07769 0.45007 0.80757
 H771 H -0.15125 0.45756 0.88638
 H772 H -0.16349 0.54756 0.89666
 H773 H -0.05869 0.57402 0.78843
 H774 H -0.04795 0.48393 0.77590
 C775 C 0.35904 0.01535 0.38157
 C776 C 0.36615 -0.01136 0.36923
 C777 C 0.38856 -0.01283 0.34657
 C778 C 0.40370 0.01221 0.33622
 C779 C 0.39622 0.03879 0.34897
 C780 C 0.37394 0.04049 0.37162
 C781 C 0.33558 0.01707 0.40544
 C782 C 0.32861 0.04379 0.41781
 C783 C 0.30637 0.04535 0.44051
 C784 C 0.29098 0.02044 0.45083
 C785 C 0.29838 -0.00623 0.43827
 C786 C 0.32066 -0.00803 0.41550
 C787 C 0.36636 0.06683 0.38460
 C788 C 0.34408 0.06846 0.40732
 C789 C 0.35069 -0.03602 0.37983
 C790 C 0.32834 -0.03438 0.40256
 H791 H 0.37774 0.08637 0.37713
 H792 H 0.33892 0.08920 0.41673
 H793 H 0.35593 -0.05677 0.37050
 H794 H 0.31699 -0.05392 0.41008
 H795 H 0.39398 -0.03335 0.33674
 H796 H 0.40806 0.05814 0.34161
 H797 H 0.30146 0.06595 0.45050
 H798 H 0.28660 -0.02550 0.44587
 C799 C 0.11567 0.52750 0.84920
 C800 C 0.12629 0.55125 0.86719
 C801 C 0.14802 0.54791 0.88933
 C802 C 0.15923 0.52107 0.89349
 C803 C 0.14837 0.49749 0.87511
 C804 C 0.12654 0.50058 0.85297
 C805 C 0.09268 0.53088 0.82601
 C806 C 0.08194 0.50710 0.80809
 C807 C 0.06009 0.51045 0.78605
 C808 C 0.04916 0.53735 0.78180
 C809 C 0.06015 0.56096 0.80000
 C810 C 0.08189 0.55783 0.82219
 C811 C 0.11531 0.47731 0.83454
 C812 C 0.09337 0.48051 0.81249
 C813 C 0.11487 0.57785 0.86280
 C814 C 0.09306 0.58109 0.84064
 H815 H 0.12352 0.45643 0.83722
 H816 H 0.08529 0.46201 0.79878
 H817 H 0.12288 0.59633 0.87657
 H818 H 0.08488 0.60198 0.83793
 H819 H 0.15582 0.56609 0.90370
 H820 H 0.15706 0.47682 0.87788
 H821 H 0.05202 0.49228 0.77182
 H822 H 0.05153 0.58165 0.79715
 C823 C 0.65486 0.01064 0.37887
 C824 C 0.62643 0.01773 0.38839
 C825 C 0.60481 0.02075 0.36596
 C826 C 0.61140 0.01639 0.33424
 C827 C 0.64026 0.00993 0.32513
 C828 C 0.66204 0.00695 0.34734
 C829 C 0.67730 0.00617 0.40238
 C830 C 0.70547 -0.00164 0.39282
 C831 C 0.72633 -0.00699 0.41523
 C832 C 0.71911 -0.00487 0.44701
 C833 C 0.69095 0.00360 0.45620
 C834 C 0.66990 0.00903 0.43395
 C835 C 0.69067 -0.00030 0.33868
 C836 C 0.71203 -0.00450 0.36104
 C837 C 0.62001 0.02091 0.42019
 C838 C 0.64136 0.01663 0.44257
 H839 H 0.69651 -0.00311 0.31443
 H840 H 0.73373 -0.01042 0.35339
 H841 H 0.59816 0.02640 0.42785
 H842 H 0.63537 0.01895 0.46684
 H843 H 0.58258 0.02538 0.37321
 H844 H 0.64561 0.00686 0.30077
 H845 H 0.74810 -0.01300 0.40792
 H846 H 0.68505 0.00495 0.48057
 C847 C 0.87085 0.47440 0.15467
 C848 C 0.85568 0.44938 0.14330
 C849 C 0.83377 0.45122 0.12100
 C850 C 0.82728 0.47780 0.10964
 C851 C 0.84243 0.50275 0.12170
 C852 C 0.86426 0.50115 0.14423
 C853 C 0.89445 0.47249 0.17756
 C854 C 0.90987 0.49744 0.18877
 C855 C 0.93254 0.49543 0.21029
 C856 C 0.93991 0.46869 0.22047
 C857 C 0.92423 0.44389 0.20872
 C858 C 0.90142 0.44568 0.18745
 C859 C 0.88002 0.52570 0.15613
 C860 C 0.90239 0.52388 0.17807
 C861 C 0.86305 0.42296 0.15405
 C862 C 0.88560 0.42114 0.17570
 H863 H 0.87514 0.54648 0.14829
 H864 H 0.91408 0.54331 0.18655
 H865 H 0.85149 0.40351 0.14544
 H866 H 0.89077 0.40032 0.18321
 H867 H 0.82196 0.43194 0.11228
 H868 H 0.83793 0.52327 0.11287
 H869 H 0.94416 0.51468 0.21920
 H870 H 0.93007 0.42309 0.21556
 C871 C 0.35647 0.00150 0.62233
 C872 C 0.37106 0.02513 0.63740
 C873 C 0.39261 0.02078 0.65936
 C874 C 0.39997 -0.00695 0.66614
 C875 C 0.38482 -0.03049 0.65110
 C876 C 0.36304 -0.02635 0.62909
 C877 C 0.33402 0.00606 0.59886
 C878 C 0.31941 -0.01751 0.58364
 C879 C 0.29805 -0.01297 0.56133
 C880 C 0.29136 0.01489 0.55429
 C881 C 0.30648 0.03822 0.56968
 C882 C 0.32770 0.03394 0.59204
 C883 C 0.34791 -0.04942 0.61343
 C884 C 0.32645 -0.04508 0.59113
 C885 C 0.36401 0.05270 0.63003
 C886 C 0.34273 0.05703 0.60768
 H887 H 0.35273 -0.07103 0.61840
 H888 H 0.31533 -0.06347 0.57961
 H889 H 0.37515 0.07109 0.64153
 H890 H 0.33801 0.07864 0.60261
 H891 H 0.40368 0.03903 0.67121
 H892 H 0.39045 -0.05189 0.65597
 H893 H 0.28631 -0.03108 0.54993
 H894 H 0.30203 0.05976 0.56404
   
