data_POSCAR
  _audit_creation_date              2014-09-24
  _audit_creation_method            'ToBaCCo'
  _symmetry_space_group_name_H-M    'P1'
  _symmetry_Int_Tables_number       1
  _symmetry_cell_setting            triclinic
  loop_
  _symmetry_equiv_pos_as_xyz
 x,y,z
_cell_length_a 26.2857
_cell_length_b 26.7792
_cell_length_c 27.2939
_cell_angle_alpha 90.192000
_cell_angle_beta 87.293400
_cell_angle_gamma 90.558200
loop_
  _atom_site_label
  _atom_site_type_symbol
  _atom_site_fract_x
  _atom_site_fract_y
  _atom_site_fract_z
C1 C 0.28498 0.24361 0.22195
 C2 C 0.24685 0.27982 0.22315
 C3 C 0.20846 0.27976 0.26059
 C4 C 0.20840 0.24304 0.29717
 C5 C 0.24611 0.20626 0.29605
 C6 C 0.28447 0.20695 0.25851
 H7 H 0.24703 0.30809 0.19482
 H8 H 0.17932 0.24305 0.32659
 H9 H 0.31379 0.17891 0.25773
 C10 C 0.71289 -0.24857 0.20841
 C11 C 0.74903 -0.28697 0.20653
 C12 C 0.78576 -0.28996 0.24216
 C13 C 0.78660 -0.25366 0.27932
 C14 C 0.75089 -0.21514 0.28151
 C15 C 0.71444 -0.21252 0.24582
 H16 H 0.74845 -0.31426 0.17720
 H17 H 0.81534 -0.25542 0.30639
 H18 H 0.68761 -0.18208 0.24736
 C19 C 0.71085 0.25009 0.77353
 C20 C 0.71111 0.21543 0.73494
 C21 C 0.74793 0.21863 0.69621
 C22 C 0.78473 0.25696 0.69615
 C23 C 0.78520 0.29169 0.73484
 C24 C 0.74855 0.28746 0.77380
 H25 H 0.68305 0.18558 0.73505
 H26 H 0.81371 0.25877 0.66674
 H27 H 0.74894 0.31359 0.80420
 C28 C 0.29269 -0.24452 0.79723
 C29 C 0.25567 -0.28266 0.79838
 C30 C 0.21886 -0.28488 0.76269
 C31 C 0.21890 -0.24785 0.72636
 C32 C 0.25523 -0.20919 0.72535
 C33 C 0.29211 -0.20778 0.76078
 H34 H 0.25589 -0.31042 0.82709
 H35 H 0.19061 -0.24908 0.69872
 H36 H 0.32039 -0.17819 0.75999
 C37 C 0.71853 -0.24074 0.77917
 C38 C 0.75612 -0.27744 0.77922
 C39 C 0.79216 -0.28163 0.73985
 C40 C 0.79125 -0.24751 0.70095
 C41 C 0.75460 -0.20979 0.70124
 C42 C 0.71830 -0.20661 0.74038
 H43 H 0.75675 -0.30329 0.80967
 H44 H 0.81964 -0.24945 0.67107
 H45 H 0.69018 -0.17736 0.74052
 C46 C 0.28036 0.24564 0.79612
 C47 C 0.28231 0.20818 0.76010
 C48 C 0.24700 0.20728 0.72319
 C49 C 0.20995 0.24447 0.72215
 C50 C 0.20774 0.28217 0.75792
 C51 C 0.24320 0.28275 0.79468
 H52 H 0.31166 0.18017 0.76072
 H53 H 0.18333 0.24411 0.69309
 H54 H 0.24206 0.31244 0.82172
 C55 C 0.29236 -0.24689 0.22232
 C56 C 0.25442 -0.28400 0.22069
 C57 C 0.21658 -0.28809 0.25842
 C58 C 0.21677 -0.25479 0.29813
 C59 C 0.25363 -0.21669 0.29954
 C60 C 0.29121 -0.21279 0.26152
 H61 H 0.25487 -0.31005 0.19024
 H62 H 0.18742 -0.25790 0.32717
 H63 H 0.31915 -0.18290 0.26262
 C64 C 0.70909 0.24271 0.20178
 C65 C 0.70961 0.20464 0.23690
 C66 C 0.74487 0.20622 0.27387
 C67 C 0.77988 0.24589 0.27531
 C68 C 0.77951 0.28417 0.24052
 C69 C 0.74372 0.28268 0.20409
 H70 H 0.68200 0.17451 0.23600
 H71 H 0.80739 0.24705 0.30367
 H72 H 0.74310 0.31212 0.17708
 O73 O 0.29070 0.04607 0.45918
 O74 O 0.29346 -0.04988 0.55510
 O75 O 0.29212 -0.05129 0.46012
 O76 O 0.29225 0.04712 0.55441
 O77 O 0.20806 0.04487 0.55988
 O78 O 0.20791 -0.05263 0.46462
 O79 O 0.20926 -0.05170 0.56023
 O80 O 0.20652 0.04457 0.46423
 Cu81 Cu 0.30062 -0.00176 0.50660
 Cu82 Cu 0.19942 -0.00389 0.51263
 C83 C 0.24821 0.06157 0.44543
 C84 C 0.25185 -0.06686 0.57409
 C85 C 0.25000 -0.06859 0.44638
 C86 C 0.25020 0.06229 0.57344
 O87 O 0.70796 0.04940 0.53882
 O88 O 0.70878 -0.05031 0.44546
 O89 O 0.70968 -0.04822 0.54046
 O90 O 0.70610 0.04667 0.44374
 O91 O 0.79029 0.04905 0.43846
 O92 O 0.79386 -0.04539 0.53572
 O93 O 0.79296 -0.04743 0.44036
 O94 O 0.79214 0.05170 0.53396
 Cu95 Cu 0.69962 -0.00083 0.49275
 Cu96 Cu 0.80082 0.00230 0.48674
 C97 C 0.74996 0.06745 0.55215
 C98 C 0.75105 -0.06554 0.42695
 C99 C 0.75236 -0.06301 0.55433
 C100 C 0.74756 0.06364 0.42449
 O101 O 0.44902 0.28637 0.04825
 O102 O 0.54629 0.28676 -0.05344
 O103 O 0.44751 0.28761 -0.04742
 O104 O 0.54789 0.28613 0.04187
 O105 O 0.54530 0.20357 0.04230
 O106 O 0.44665 0.20505 -0.04883
 O107 O 0.54609 0.20420 -0.05323
 O108 O 0.44665 0.20384 0.04625
 Cu109 Cu 0.49777 0.29507 -0.00261
 Cu110 Cu 0.49610 0.19582 -0.00360
 C111 C 0.43140 0.24500 0.06447
 C112 C 0.56282 0.24551 -0.07038
 C113 C 0.43028 0.24658 -0.06343
 C114 C 0.56320 0.24462 0.05757
 O115 O 0.55409 0.71668 0.04780
 O116 O 0.45576 0.71750 -0.04367
 O117 O 0.55451 0.71913 -0.04796
 O118 O 0.45554 0.71762 0.05198
 O119 O 0.45569 0.80019 0.05269
 O120 O 0.55540 0.80169 -0.04631
 O121 O 0.45617 0.80006 -0.04259
 O122 O 0.55482 0.79925 0.04902
 Cu123 Cu 0.50495 0.70940 0.00188
 Cu124 Cu 0.50560 0.80863 0.00330
 C125 C 0.57088 0.75774 0.06414
 C126 C 0.43938 0.75883 -0.05872
 C127 C 0.57161 0.76071 -0.06411
 C128 C 0.43896 0.75871 0.06930
 O129 O 0.04214 0.45000 0.29532
 O130 O -0.05595 0.54651 0.28757
 O131 O -0.05658 0.44989 0.28889
 O132 O 0.04249 0.54750 0.29412
 O133 O 0.05346 0.54466 0.21334
 O134 O -0.04759 0.44939 0.20792
 O135 O -0.04501 0.54661 0.20675
 O136 O 0.05027 0.44739 0.21436
 Cu137 Cu -0.00781 0.49860 0.29967
 Cu138 Cu 0.00382 0.49696 0.20242
 C139 C 0.06240 0.43196 0.25609
 C140 C -0.06697 0.56300 0.24589
 C141 C -0.06903 0.43336 0.24749
 C142 C 0.06478 0.56253 0.25457
 O143 O 0.05696 0.55203 0.71474
 O144 O -0.04393 0.45639 0.70647
 O145 O -0.04142 0.55396 0.70806
 O146 O 0.05428 0.45525 0.71226
 O147 O 0.04443 0.45349 0.79314
 O148 O -0.05187 0.55209 0.78890
 O149 O -0.05392 0.45535 0.78735
 O150 O 0.04663 0.55135 0.79559
 Cu151 Cu 0.00737 0.50462 0.70223
 Cu152 Cu -0.00449 0.50299 0.79944
 C153 C 0.06876 0.56800 0.75657
 C154 C -0.06590 0.43957 0.74551
 C155 C -0.06296 0.56964 0.74766
 C156 C 0.06538 0.43747 0.75336
 C157 C 0.40391 0.26041 0.15875
 C158 C 0.35389 0.29057 0.16169
 C159 C 0.32506 0.24367 0.18079
 C160 C 0.37473 0.21351 0.17833
 C161 C 0.31388 0.22799 0.12806
 C162 C 0.34311 0.27482 0.10847
 C163 C 0.39261 0.24464 0.10615
 C164 C 0.36388 0.19778 0.12521
 H165 H 0.44140 0.27379 0.17090
 H166 H 0.34957 0.32878 0.17712
 H167 H 0.38858 0.18829 0.20689
 H168 H 0.27646 0.21456 0.11580
 H169 H 0.33049 0.30000 0.07929
 H170 H 0.36816 0.15955 0.10983
 C171 C 0.59697 0.73921 0.15530
 C172 C 0.64643 0.70824 0.15305
 C173 C 0.67574 0.75392 0.17203
 C174 C 0.62652 0.78488 0.17478
 C175 C 0.68810 0.77162 0.11920
 C176 C 0.65838 0.72601 0.09976
 C177 C 0.60937 0.75696 0.10256
 C178 C 0.63849 0.80262 0.12150
 H179 H 0.55905 0.72589 0.16971
 H180 H 0.64967 0.66932 0.16634
 H181 H 0.61230 0.80906 0.20544
 H182 H 0.72593 0.78500 0.10463
 H183 H 0.67112 0.70185 0.06849
 H184 H 0.63501 0.84147 0.10812
 C185 C 0.65155 0.27707 -0.11257
 C186 C 0.68132 0.23125 -0.13284
 C187 C 0.67078 0.24759 -0.18535
 C188 C 0.64140 0.29345 -0.16554
 C189 C 0.62125 0.21625 -0.18425
 C190 C 0.63141 0.19986 -0.13129
 C191 C 0.60220 0.24575 -0.11158
 C192 C 0.59157 0.26214 -0.16397
 H193 H 0.66363 0.30207 -0.08266
 H194 H 0.71862 0.21850 -0.12038
 H195 H 0.64572 0.33204 -0.17999
 H196 H 0.60802 0.19117 -0.21358
 H197 H 0.62705 0.16130 -0.11680
 H198 H 0.55423 0.27486 -0.17636
 C199 C 0.37307 0.80503 -0.11527
 C200 C 0.38310 0.78640 -0.16856
 C201 C 0.33238 0.75699 -0.16483
 C202 C 0.32199 0.77556 -0.11193
 C203 C 0.35974 0.71069 -0.14609
 C204 C 0.41074 0.74011 -0.14939
 C205 C 0.40027 0.75874 -0.09661
 C206 C 0.34974 0.72931 -0.09275
 H207 H 0.37879 0.84391 -0.10225
 H208 H 0.39762 0.80983 -0.19973
 H209 H 0.28509 0.79016 -0.09684
 H210 H 0.35413 0.67179 -0.15908
 H211 H 0.44769 0.72554 -0.16443
 H212 H 0.33639 0.70588 -0.06114
 C213 C 0.12811 0.37585 0.30482
 C214 C 0.11779 0.32038 0.29201
 C215 C 0.16834 0.31940 0.26109
 C216 C 0.17907 0.37438 0.27389
 C217 C 0.14087 0.33521 0.21509
 C218 C 0.09000 0.33668 0.24594
 C219 C 0.10085 0.39156 0.25877
 C220 C 0.15128 0.39060 0.22790
 H221 H 0.12262 0.39301 0.34174
 H222 H 0.10347 0.29149 0.31840
 H223 H 0.21610 0.38954 0.28544
 H224 H 0.14626 0.31813 0.17812
 H225 H 0.05292 0.32161 0.23440
 H226 H 0.16475 0.41987 0.20154
 C227 C 0.16622 0.59777 0.74807
 C228 C 0.16899 0.64591 0.71678
 C229 C 0.18134 0.67624 0.76286
 C230 C 0.17911 0.62842 0.79423
 C231 C 0.12434 0.68549 0.77438
 C232 C 0.11156 0.65480 0.72834
 C233 C 0.10933 0.60712 0.75963
 C234 C 0.12159 0.63726 0.80572
 H235 H 0.18296 0.56123 0.73725
 H236 H 0.18884 0.64964 0.68014
 H237 H 0.20663 0.61660 0.82142
 H238 H 0.10736 0.72192 0.78522
 H239 H 0.08334 0.66525 0.70125
 H240 H 0.10164 0.63342 0.84229
 C241 C -0.11867 0.63253 0.19749
 C242 C -0.17630 0.62355 0.20919
 C243 C -0.17749 0.67116 0.24110
 C244 C -0.12038 0.68057 0.22937
 C245 C -0.16540 0.64059 0.28675
 C246 C -0.16367 0.59267 0.25492
 C247 C -0.10666 0.60219 0.24319
 C248 C -0.10788 0.64966 0.27500
 H249 H -0.09899 0.62893 0.16078
 H250 H -0.20424 0.61191 0.18203
 H251 H -0.10284 0.71708 0.21879
 H252 H -0.18494 0.64398 0.32356
 H253 H -0.18100 0.55606 0.26548
 H254 H -0.07936 0.66006 0.30207
 C255 C -0.15167 0.40294 0.70893
 C256 C -0.14169 0.34828 0.69257
 C257 C -0.17669 0.32996 0.73588
 C258 C -0.18717 0.38422 0.75206
 C259 C -0.13116 0.32741 0.76915
 C260 C -0.09570 0.34615 0.72593
 C261 C -0.10621 0.40022 0.74218
 C262 C -0.14116 0.38200 0.78539
 H263 H -0.15973 0.43448 0.68426
 H264 H -0.14157 0.33509 0.65398
 H265 H -0.22509 0.39985 0.76268
 H266 H -0.12294 0.29598 0.79389
 H267 H -0.05761 0.33090 0.71532
 H268 H -0.14071 0.39619 0.82363
 C269 C 0.29502 0.12527 0.38209
 C270 C 0.27322 0.11639 0.33110
 C271 C 0.24613 0.16710 0.33545
 C272 C 0.26786 0.17628 0.38609
 C273 C 0.19835 0.14181 0.35944
 C274 C 0.22550 0.09079 0.35554
 C275 C 0.24732 0.10006 0.40605
 C276 C 0.22016 0.15057 0.41056
 H277 H 0.33490 0.11829 0.39169
 H278 H 0.29491 0.10160 0.29843
 H279 H 0.28532 0.21182 0.39834
 H280 H 0.15849 0.14874 0.34979
 H281 H 0.20807 0.05519 0.34339
 H282 H 0.19838 0.16424 0.44369
 C283 C 0.72003 0.10545 0.63967
 C284 C 0.76750 0.12614 0.66467
 C285 C 0.74889 0.17963 0.65644
 C286 C 0.70134 0.15937 0.63180
 C287 C 0.77859 0.18204 0.60647
 C288 C 0.79725 0.12815 0.61437
 C289 C 0.74972 0.10794 0.58985
 C290 C 0.73104 0.16129 0.58147
 H291 H 0.69598 0.07353 0.65299
 H292 H 0.78255 0.11202 0.69928
 H293 H 0.66182 0.17260 0.63915
 H294 H 0.80264 0.21354 0.59219
 H295 H 0.83678 0.11494 0.60702
 H296 H 0.71602 0.17529 0.54680
 C297 C 0.23672 -0.09377 0.66771
 C298 C 0.20670 -0.14379 0.66978
 C299 C 0.25489 -0.17036 0.68570
 C300 C 0.28494 -0.12065 0.68408
 C301 C 0.27112 -0.18120 0.63184
 C302 C 0.22298 -0.15423 0.61545
 C303 C 0.25303 -0.10470 0.61397
 C304 C 0.30121 -0.13115 0.62983
 H305 H 0.22254 -0.05736 0.68201
 H306 H 0.16777 -0.14919 0.68662
 H307 H 0.31044 -0.10599 0.71214
 H308 H 0.28535 -0.21753 0.61742
 H309 H 0.19753 -0.16766 0.58678
 H310 H 0.34014 -0.12578 0.61300
 C311 C 0.72079 -0.10382 0.34218
 C312 C 0.76837 -0.12173 0.31175
 C313 C 0.75174 -0.17620 0.32125
 C314 C 0.70410 -0.15875 0.35131
 C315 C 0.78243 -0.17771 0.36794
 C316 C 0.79910 -0.12282 0.35878
 C317 C 0.75147 -0.10543 0.38870
 C318 C 0.73477 -0.15977 0.39834
 H319 H 0.69546 -0.07300 0.33197
 H320 H 0.78226 -0.10642 0.27576
 H321 H 0.66495 -0.17391 0.34798
 H322 H 0.80785 -0.20796 0.37933
 H323 H 0.83826 -0.10766 0.36207
 H324 H 0.72092 -0.17496 0.43440
 C325 C 0.65985 0.73047 -0.10725
 C326 C 0.64912 0.71476 -0.16043
 C327 C 0.67880 0.76117 -0.17952
 C328 C 0.68992 0.77684 -0.12679
 C329 C 0.62960 0.79204 -0.17750
 C330 C 0.59962 0.74561 -0.15795
 C331 C 0.61081 0.76132 -0.10534
 C332 C 0.64032 0.80776 -0.12431
 H333 H 0.67187 0.70516 -0.07791
 H334 H 0.65296 0.67643 -0.17571
 H335 H 0.72746 0.78976 -0.11439
 H336 H 0.61643 0.81744 -0.20623
 H337 H 0.56203 0.73272 -0.17029
 H338 H 0.63643 0.84607 -0.10901
 C339 C 0.39336 0.21775 -0.14871
 C340 C 0.33764 0.19991 -0.13880
 C341 C 0.31916 0.24659 -0.16526
 C342 C 0.37443 0.26437 -0.17551
 C343 C 0.31599 0.27590 -0.11658
 C344 C 0.33498 0.22920 -0.08979
 C345 C 0.39014 0.24705 -0.10017
 C346 C 0.37172 0.29373 -0.12647
 H347 H 0.42562 0.19387 -0.16157
 H348 H 0.32325 0.16124 -0.14403
 H349 H 0.39030 0.27887 -0.21115
 H350 H 0.28408 0.29977 -0.10285
 H351 H 0.31925 0.21474 -0.05408
 H352 H 0.38613 0.33238 -0.12116
 C353 C 0.35048 0.72651 0.11123
 C354 C 0.36064 0.71018 0.16423
 C355 C 0.33093 0.75591 0.18393
 C356 C 0.32037 0.77216 0.13140
 C357 C 0.38024 0.78757 0.18304
 C358 C 0.41025 0.74184 0.16279
 C359 C 0.39960 0.75813 0.11038
 C360 C 0.37009 0.80386 0.13002
 H361 H 0.33868 0.70144 0.08126
 H362 H 0.35666 0.67155 0.17865
 H363 H 0.28305 0.78470 0.11881
 H364 H 0.39351 0.81276 0.21226
 H365 H 0.44767 0.72935 0.17519
 H366 H 0.37424 0.84243 0.11550
 C367 C 0.65174 0.21366 0.09108
 C368 C 0.68141 0.25966 0.10964
 C369 C 0.67072 0.24190 0.16278
 C370 C 0.64152 0.19581 0.14460
 C371 C 0.62132 0.27222 0.16670
 C372 C 0.63155 0.29003 0.11324
 C373 C 0.60241 0.24399 0.09518
 C374 C 0.59168 0.22617 0.14815
 H375 H 0.66385 0.18966 0.05948
 H376 H 0.71867 0.27331 0.09388
 H377 H 0.64568 0.15677 0.15723
 H378 H 0.60912 0.29627 0.19822
 H379 H 0.62717 0.32884 0.10001
 H380 H 0.55427 0.21251 0.16357
 C381 C -0.13725 0.62656 0.78877
 C382 C -0.12564 0.68156 0.77457
 C383 C -0.17047 0.68022 0.74034
 C384 C -0.18256 0.62561 0.75450
 C385 C -0.13506 0.66300 0.69705
 C386 C -0.08978 0.66390 0.73134
 C387 C -0.10193 0.60948 0.74556
 C388 C -0.14671 0.60800 0.71137
 H389 H -0.13786 0.61121 0.82653
 H390 H -0.11722 0.71221 0.80054
 H391 H -0.22105 0.60996 0.76389
 H392 H -0.13369 0.67720 0.65886
 H393 H -0.05114 0.67918 0.72197
 H394 H -0.15500 0.57725 0.68548
 C395 C -0.11026 0.34538 0.27445
 C396 C -0.16732 0.35349 0.28858
 C397 C -0.18147 0.32533 0.24180
 C398 C -0.12485 0.31683 0.22771
 C399 C -0.18072 0.37448 0.21262
 C400 C -0.16607 0.40304 0.25945
 C401 C -0.10960 0.39437 0.24528
 C402 C -0.12369 0.36634 0.19852
 H403 H -0.08081 0.33381 0.29984
 H404 H -0.18572 0.34794 0.32564
 H405 H -0.10825 0.28097 0.21458
 H406 H -0.20965 0.38714 0.18719
 H407 H -0.18251 0.43899 0.27255
 H408 H -0.10532 0.37185 0.16145
 C409 C 0.13527 0.37789 0.70987
 C410 C 0.18252 0.37684 0.74164
 C411 C 0.16887 0.32278 0.75637
 C412 C 0.12194 0.32344 0.72466
 C413 C 0.13667 0.34138 0.80125
 C414 C 0.14992 0.39594 0.78644
 C415 C 0.10317 0.39645 0.75472
 C416 C 0.08940 0.34253 0.76952
 H417 H 0.13455 0.39329 0.67221
 H418 H 0.22122 0.39055 0.73009
 H419 H 0.10959 0.29380 0.69919
 H420 H 0.13748 0.32589 0.83887
 H421 H 0.16103 0.42620 0.81180
 H422 H 0.05064 0.32892 0.78101
 C423 C 0.11882 0.63222 0.30183
 C424 C 0.17593 0.62427 0.28778
 C425 C 0.17609 0.67209 0.25670
 C426 C 0.11938 0.68051 0.27074
 C427 C 0.16196 0.64182 0.21111
 C428 C 0.16142 0.59357 0.24217
 C429 C 0.10490 0.60207 0.25624
 C430 C 0.10491 0.64984 0.22523
 H431 H 0.10070 0.62792 0.33916
 H432 H 0.20560 0.61410 0.31349
 H433 H 0.10226 0.71663 0.28240
 H434 H 0.17915 0.64555 0.17336
 H435 H 0.17829 0.55734 0.23050
 H436 H 0.07520 0.65998 0.19954
 C437 C 0.73685 -0.15658 0.58549
 C438 C 0.78489 -0.17403 0.61114
 C439 C 0.75474 -0.17180 0.66089
 C440 C 0.70675 -0.15482 0.63559
 C441 C 0.77144 -0.11716 0.66823
 C442 C 0.80160 -0.11899 0.61812
 C443 C 0.75362 -0.10207 0.59297
 C444 C 0.72349 -0.09975 0.64255
 H445 H 0.72261 -0.17231 0.55098
 H446 H 0.81012 -0.20454 0.59748
 H447 H 0.66769 -0.16995 0.64299
 H448 H 0.78571 -0.10130 0.70266
 H449 H 0.84066 -0.10385 0.61071
 H450 H 0.69828 -0.06876 0.65508
 C451 C 0.20302 -0.12791 0.38250
 C452 C 0.23354 -0.12495 0.33262
 C453 C 0.25196 -0.17862 0.34009
 C454 C 0.22148 -0.18202 0.38959
 C455 C 0.29911 -0.15900 0.36579
 C456 C 0.28061 -0.10492 0.35868
 C457 C 0.25017 -0.10835 0.40805
 C458 C 0.26865 -0.16190 0.41567
 H459 H 0.16344 -0.11471 0.38959
 H460 H 0.21906 -0.11010 0.29806
 H461 H 0.19721 -0.21378 0.40287
 H462 H 0.33870 -0.17217 0.35873
 H463 H 0.30487 -0.07277 0.34632
 H464 H 0.28310 -0.17662 0.45030
 C465 C 0.69796 0.12704 0.36796
 C466 C 0.72751 0.17737 0.36656
 C467 C 0.74470 0.16687 0.31288
 C468 C 0.71516 0.11690 0.31385
 C469 C 0.79289 0.14078 0.32940
 C470 C 0.77566 0.15092 0.38351
 C471 C 0.74616 0.10110 0.38441
 C472 C 0.76340 0.09046 0.33085
 H473 H 0.65887 0.12118 0.38426
 H474 H 0.71267 0.21352 0.38087
 H475 H 0.69029 0.10224 0.28527
 H476 H 0.83198 0.14666 0.31310
 H477 H 0.80050 0.16453 0.41261
 H478 H 0.77821 0.05424 0.31667
 C479 C 0.21828 0.14853 0.61383
 C480 C 0.20202 0.13814 0.66812
 C481 C 0.24901 0.16769 0.68409
 C482 C 0.26522 0.17845 0.63023
 C483 C 0.28094 0.11973 0.68319
 C484 C 0.23393 0.08985 0.66675
 C485 C 0.25020 0.10074 0.61301
 C486 C 0.29719 0.13013 0.62890
 H487 H 0.19255 0.15998 0.58487
 H488 H 0.16283 0.14165 0.68469
 H489 H 0.27814 0.21531 0.61559
 H490 H 0.30674 0.10716 0.71161
 H491 H 0.22104 0.05294 0.68129
 H492 H 0.33638 0.12660 0.61233
   
