data_POSCAR
  _audit_creation_date              2014-09-24
  _audit_creation_method            'ToBaCCo'
  _symmetry_space_group_name_H-M    'P1'
  _symmetry_Int_Tables_number       1
  _symmetry_cell_setting            triclinic
  loop_
  _symmetry_equiv_pos_as_xyz
 x,y,z
_cell_length_a 32.7788
_cell_length_b 34.1235
_cell_length_c 32.9320
_cell_angle_alpha 93.479800
_cell_angle_beta 90.872800
_cell_angle_gamma 91.610700
loop_
  _atom_site_label
  _atom_site_type_symbol
  _atom_site_fract_x
  _atom_site_fract_y
  _atom_site_fract_z
C1 C 0.28897 0.46619 1.02587
 C2 C 0.25616 0.46025 1.05794
 C3 C 0.22732 0.48838 1.05991
 C4 C 0.23425 0.52022 1.02926
 C5 C 0.26509 0.46947 0.98602
 C6 C 0.23612 0.49735 0.98759
 C7 C 0.30639 0.50760 1.03699
 C8 C 0.27797 0.53574 1.03837
 H9 H 0.25782 0.43796 1.07982
 H10 H 0.21202 0.54394 1.03020
 H11 H 0.26905 0.44938 0.95973
 H12 H 0.33859 0.51431 1.04239
 C13 C 0.71204 0.53559 -0.01854
 C14 C 0.73736 0.53590 0.02100
 C15 C 0.76602 0.50762 0.02160
 C16 C 0.76647 0.48132 -0.01814
 C17 C 0.74367 0.53831 -0.05223
 C18 C 0.77218 0.50996 -0.05216
 C19 C 0.69439 0.49352 -0.02503
 C20 C 0.72262 0.46532 -0.02453
 H21 H 0.73268 0.55727 0.04586
 H22 H 0.78919 0.45785 -0.01892
 H23 H 0.74303 0.56044 -0.07440
 H24 H 0.66269 0.48626 -0.03212
 C25 C 0.04673 0.21825 0.49404
 C26 C 0.03998 0.23818 0.45693
 C27 C 0.00842 0.26649 0.45915
 C28 C -0.01061 0.26953 0.49911
 C29 C 0.05481 0.25139 0.52725
 C30 C 0.02487 0.27849 0.53005
 C31 C 0.00478 0.20118 0.50510
 C32 C -0.02516 0.22776 0.50756
 H33 H 0.05698 0.23140 0.42962
 H34 H -0.03506 0.29089 0.50217
 H35 H 0.07964 0.25144 0.54917
 H36 H -0.00069 0.17066 0.51126
 C37 C 0.95241 0.78363 0.51312
 C38 C 0.94249 0.74897 0.48238
 C39 C 0.97179 0.72145 0.47973
 C40 C 1.00861 0.73098 0.50843
 C41 C 0.96080 0.76431 0.55331
 C42 C 0.99014 0.73664 0.55116
 C43 C 0.99421 0.79949 0.50088
 C44 C 1.02336 0.77213 0.49806
 H45 H 0.91432 0.74629 0.46466
 H46 H 1.03284 0.70913 0.50521
 H47 H 0.94524 0.77169 0.58109
 H48 H 1.00069 0.83034 0.49701
 C49 C 0.50394 0.05870 0.21821
 C50 C 0.46406 0.04547 0.23802
 C51 C 0.46719 0.01195 0.25812
 C52 C 0.51015 -0.00506 0.25703
 C53 C 0.53476 0.06247 0.25382
 C54 C 0.53872 0.02898 0.27397
 C55 C 0.51658 0.02500 0.19306
 C56 C 0.51988 -0.01024 0.21406
 H57 H 0.43684 0.06267 0.23919
 H58 H 0.51250 -0.03206 0.27390
 H59 H 0.55337 0.08877 0.26091
 H60 H 0.51991 0.02586 0.16044
 C61 C 0.48641 -0.05956 0.77625
 C62 C 0.45404 -0.06157 0.74221
 C63 C 0.45410 -0.02975 0.71921
 C64 C 0.48732 0.00144 0.73223
 C65 C 0.52664 -0.05293 0.75396
 C66 C 0.52739 -0.02118 0.73060
 C67 C 0.47950 -0.02078 0.80048
 C68 C 0.48018 0.01112 0.77771
 H69 H 0.43413 -0.08712 0.73566
 H70 H 0.48644 0.02774 0.71424
 H71 H 0.55188 -0.07237 0.75555
 H72 H 0.47581 -0.01869 0.83317
 C73 C 0.27732 0.00400 0.39850
 H74 H 0.25372 0.02548 0.39995
 C75 C 0.30530 0.00385 0.36693
 H76 H 0.30315 0.02582 0.34469
 C77 C 0.30978 -0.04948 0.42682
 H78 H 0.31154 -0.06982 0.45069
 C79 C 0.33827 -0.05075 0.39579
 H80 H 0.36164 -0.07256 0.39570
 N81 N 0.28043 -0.02210 0.42789
 C82 C 0.17206 0.01912 0.47401
 H83 H 0.15902 -0.01029 0.47257
 C84 C 0.14600 0.05072 0.47577
 H85 H 0.11344 0.04478 0.47680
 C86 C 0.22978 0.06229 0.47418
 H87 H 0.26237 0.06677 0.47228
 C88 C 0.20472 0.09490 0.47581
 H89 H 0.21863 0.12402 0.47561
 Zn90 Zn 0.24699 -0.01978 0.47394
 N91 N 0.21326 0.02520 0.47424
 C92 C 0.28475 -0.05082 0.54172
 N93 N 0.28265 -0.01804 0.52032
 C94 C 0.30819 0.01353 0.52946
 C95 C 0.33646 0.01318 0.56169
 C96 C 0.31238 -0.05242 0.57401
 C97 C 0.21204 -0.09355 0.44252
 C98 C 0.18727 -0.12750 0.44402
 C99 C 0.16548 -0.10423 0.51074
 C100 C 0.19026 -0.07072 0.50783
 N101 N 0.21316 -0.06604 0.47425
 H102 H 0.26615 -0.07659 0.53295
 H103 H 0.30749 0.03872 0.51130
 H104 H 0.35624 0.03873 0.56858
 H105 H 0.31385 -0.07925 0.58986
 H106 H 0.23021 -0.08916 0.41597
 H107 H 0.18657 -0.14913 0.41854
 H108 H 0.14714 -0.10696 0.53754
 H109 H 0.19147 -0.04828 0.53251
 C110 C 0.16213 0.08937 0.47723
 C111 C 0.33664 -0.02350 0.36556
 C112 C 0.16381 -0.13324 0.47863
 C113 C 0.33889 -0.02024 0.58437
 C114 C 0.68228 0.03936 0.55808
 H115 H 0.67712 0.05848 0.53359
 C116 C 0.65317 0.03601 0.58826
 H117 H 0.62560 0.05250 0.58623
 C118 C 0.72336 -0.00735 0.58818
 H119 H 0.75023 -0.02488 0.58768
 C120 C 0.69552 -0.01099 0.61941
 H121 H 0.70210 -0.03070 0.64304
 N122 N 0.71633 0.01755 0.55832
 C123 C 0.81371 0.06963 0.48932
 H124 H 0.81846 0.04560 0.46710
 C125 C 0.83930 0.10303 0.49038
 H126 H 0.86448 0.10413 0.46959
 C127 C 0.77680 0.09607 0.54549
 H128 H 0.75267 0.09293 0.56716
 C129 C 0.80169 0.13014 0.54752
 H130 H 0.79687 0.15312 0.57096
 Zn131 Zn 0.75097 0.01982 0.51317
 N132 N 0.78317 0.06678 0.51656
 C133 C 0.71856 0.04857 0.44137
 N134 N 0.71684 0.01833 0.46636
 C135 C 0.68859 -0.01152 0.46030
 C136 C 0.66075 -0.01187 0.42772
 C137 C 0.69124 0.04952 0.40868
 C138 C 0.81593 -0.02385 0.54053
 C139 C 0.84235 -0.05519 0.54112
 C140 C 0.80900 -0.08373 0.47999
 C141 C 0.78309 -0.05191 0.48065
 N142 N 0.78650 -0.02312 0.51105
 H143 H 0.74056 0.07247 0.44717
 H144 H 0.68727 -0.03471 0.48128
 H145 H 0.63804 -0.03550 0.42374
 H146 H 0.69311 0.07390 0.38915
 H147 H 0.81867 -0.00008 0.56378
 H148 H 0.86571 -0.05508 0.56468
 H149 H 0.80536 -0.10675 0.45598
 H150 H 0.76020 -0.05043 0.45692
 C151 C 0.83309 0.13388 0.51947
 C152 C 0.65943 0.01036 0.61949
 C153 C 0.83879 -0.08584 0.51078
 C154 C 0.66171 0.01915 0.40161
 C155 C 0.48032 0.19043 1.03070
 H156 H 0.45897 0.18497 1.00548
 C157 C 0.47789 0.16770 1.06433
 H158 H 0.45505 0.14418 1.06410
 C159 C 0.53683 0.22711 1.06035
 H160 H 0.55975 0.25027 1.05861
 C161 C 0.53512 0.20543 1.09493
 H162 H 0.55667 0.21249 1.11970
 N163 N 0.50930 0.21955 1.02939
 C164 C 0.46057 0.31144 0.95893
 H165 H 0.47982 0.31054 0.93252
 C166 C 0.43157 0.34052 0.96405
 H167 H 0.42816 0.36134 0.94082
 C168 C 0.44219 0.28544 1.02141
 H169 H 0.44696 0.26455 1.04423
 C170 C 0.41307 0.31402 1.02783
 H171 H 0.39587 0.31459 1.05566
 Zn172 Zn 0.50851 0.24914 0.98298
 N173 N 0.46547 0.28482 0.98758
 C174 C 0.46873 0.21555 0.91098
 N175 N 0.50074 0.21322 0.93746
 C176 C 0.52646 0.18264 0.93458
 C177 C 0.52062 0.15282 0.90407
 C178 C 0.46186 0.18633 0.87983
 C179 C 0.56341 0.31023 1.00631
 C180 C 0.59790 0.33483 1.00427
 C181 C 0.62079 0.29375 0.94726
 C182 C 0.58561 0.27005 0.95013
 N183 N 0.55788 0.27858 0.97948
 H184 H 0.44798 0.23951 0.91450
 H185 H 0.55089 0.18095 0.95681
 H186 H 0.54046 0.12798 0.90306
 H187 H 0.43608 0.18806 0.85912
 H188 H 0.54035 0.31692 1.02863
 H189 H 0.60055 0.36106 1.02435
 H190 H 0.64234 0.28722 0.92334
 H191 H 0.58022 0.24534 0.92846
 C192 C 0.40779 0.34251 0.99930
 C193 C 0.50519 0.17536 1.09736
 C194 C 0.62722 0.32643 0.97471
 C195 C 0.48813 0.15468 0.87623
 C196 C 0.45527 0.80569 -0.03860
 H197 H 0.43664 0.81277 -0.01247
 C198 C 0.45266 0.82798 -0.07261
 H199 H 0.43172 0.85195 -0.07238
 C200 C 0.50774 0.76811 -0.06885
 H201 H 0.52986 0.74540 -0.06694
 C202 C 0.50616 0.78968 -0.10346
 H203 H 0.52670 0.78286 -0.12818
 N204 N 0.48283 0.77669 -0.03708
 C205 C 0.44485 0.69631 0.05352
 H206 H 0.47396 0.69233 0.06836
 C207 C 0.41167 0.67152 0.06137
 H208 H 0.41606 0.64865 0.08221
 C209 C 0.40561 0.72835 0.00528
 H210 H 0.40345 0.74956 -0.01753
 C211 C 0.37142 0.70469 0.01277
 H212 H 0.34327 0.70887 -0.00382
 Zn213 Zn 0.49009 0.75158 0.01231
 N214 N 0.44150 0.72380 0.02556
 C215 C 0.50629 0.78214 0.09389
 N216 N 0.50515 0.79043 0.05399
 C217 C 0.51486 0.82707 0.04249
 C218 C 0.52425 0.85746 0.07141
 C219 C 0.51635 0.81172 0.12402
 C220 C 0.52273 0.68128 -0.01711
 C221 C 0.55198 0.65278 -0.02326
 C222 C 0.59991 0.69404 0.01761
 C223 C 0.56950 0.72174 0.02327
 N224 N 0.53187 0.71487 0.00586
 H225 H 0.49921 0.75268 0.10243
 H226 H 0.51532 0.83308 0.01073
 H227 H 0.52989 0.88653 0.06098
 H228 H 0.51716 0.80456 0.15558
 H229 H 0.49258 0.67670 -0.03068
 H230 H 0.54409 0.62627 -0.04179
 H231 H 0.62959 0.69973 0.03196
 H232 H 0.57600 0.74875 0.04139
 C233 C 0.37428 0.67521 0.04056
 C234 C 0.47878 0.82046 -0.10539
 C235 C 0.59121 0.65895 -0.00584
 C236 C 0.52510 0.85021 0.11295
 C237 C 1.03078 0.46282 0.19513
 H238 H 1.00537 0.44243 0.18843
 C239 C 1.06443 0.46239 0.16977
 H240 H 1.06471 0.44136 0.14381
 C241 C 1.05989 0.51641 0.23575
 H242 H 1.05768 0.53791 0.26099
 C243 C 1.09411 0.51723 0.21088
 H244 H 1.11836 0.53894 0.21776
 N245 N 1.02940 0.48896 0.22790
 C246 C 0.95647 0.44146 0.32248
 H247 H 0.94000 0.46749 0.33158
 C248 C 0.95726 0.41013 0.34794
 H249 H 0.94154 0.41291 0.37656
 C250 C 0.99914 0.40799 0.27549
 H251 H 1.01625 0.40736 0.24779
 C252 C 1.00017 0.37574 0.29967
 H253 H 1.01738 0.35051 0.28945
 Zn254 Zn 0.98090 0.48710 0.25859
 N255 N 0.97771 0.44020 0.28728
 C256 C 0.90947 0.46007 0.21223
 N257 N 0.93779 0.48958 0.22002
 C258 C 0.93908 0.52164 0.19746
 C259 C 0.91114 0.52514 0.16569
 C260 C 0.88111 0.46213 0.18018
 C261 C 1.00851 0.53463 0.32734
 C262 C 1.00673 0.56474 0.35797
 C263 C 0.94380 0.58503 0.32775
 C264 C 0.94694 0.55477 0.29760
 N265 N 0.97905 0.53038 0.29773
 H266 H 0.90950 0.43457 0.23020
 H267 H 0.96248 0.54427 0.20382
 H268 H 0.91319 0.55070 0.14780
 H269 H 0.85890 0.43834 0.17408
 H270 H 1.03329 0.51434 0.32734
 H271 H 1.03095 0.56783 0.38072
 H272 H 0.91746 0.60345 0.32737
 H273 H 0.92303 0.55022 0.27475
 C274 C 0.97973 0.37670 0.33696
 C275 C 1.09685 0.48964 0.17766
 C276 C 0.97383 0.59036 0.35868
 C277 C 0.88194 0.49497 0.15630
 C278 C -0.02881 0.48445 0.81054
 H279 H -0.00377 0.46467 0.81281
 C280 C -0.06217 0.48121 0.83607
 H281 H -0.06272 0.45835 0.85746
 C282 C -0.05825 0.53791 0.77936
 H283 H -0.05654 0.55999 0.75724
 C284 C -0.09213 0.53590 0.80455
 H285 H -0.11580 0.55708 0.80176
 N286 N -0.02744 0.51241 0.78286
 C287 C 0.05562 0.46576 0.69049
 H288 H 0.07993 0.48793 0.69234
 C289 C 0.05711 0.43433 0.66144
 H290 H 0.08265 0.43303 0.64103
 C291 C -0.00822 0.44244 0.71328
 H292 H -0.03401 0.44597 0.73306
 C293 C -0.00763 0.41016 0.68508
 H294 H -0.03257 0.38877 0.68454
 Zn295 Zn 0.02040 0.51544 0.75146
 N296 N 0.02302 0.46964 0.71536
 C297 C 0.09371 0.48932 0.78720
 N298 N 0.06520 0.51757 0.78923
 C299 C 0.06516 0.54500 0.82101
 C300 C 0.09401 0.54426 0.85266
 C301 C 0.12321 0.48763 0.81802
 C302 C 0.02124 0.55599 0.67876
 C303 C 0.02139 0.58824 0.65473
 C304 C 0.01649 0.63071 0.71564
 C305 C 0.01762 0.59760 0.73871
 N306 N 0.02007 0.56099 0.72010
 H307 H 0.09274 0.46688 0.76269
 H308 H 0.04151 0.56640 0.82290
 H309 H 0.09293 0.56603 0.87789
 H310 H 0.14464 0.46403 0.81631
 H311 H 0.02142 0.52698 0.66395
 H312 H 0.02228 0.58361 0.62192
 H313 H 0.01401 0.65962 0.73075
 H314 H 0.01564 0.60118 0.77140
 C315 C 0.02506 0.40599 0.65817
 C316 C -0.09450 0.50719 0.83344
 C317 C 0.01891 0.62610 0.67315
 C318 C 0.12312 0.51480 0.85182
 C319 C 0.06707 0.14950 0.47128
 C320 C 0.07842 0.18636 0.48975
 C321 C 0.11858 0.19044 0.50623
 C322 C 0.14600 0.15922 0.50227
 C323 C 0.13430 0.12312 0.48137
 C324 C 0.09376 0.11892 0.46763
 C325 C 0.07648 0.10490 0.42693
 C326 C 0.04705 0.13853 0.43106
 H327 H 0.12960 0.21781 0.52121
 H328 H 0.17634 0.16361 0.51545
 H329 H 0.06104 0.07553 0.42752
 H330 H 0.09874 0.10796 0.40208
 H331 H 0.01476 0.12849 0.43420
 H332 H 0.05218 0.16093 0.40841
 C333 C 0.63855 0.55913 -0.01655
 C334 C 0.68064 0.56766 -0.01816
 C335 C 0.69287 0.60763 -0.01944
 C336 C 0.66404 0.63758 -0.01654
 C337 C 0.62219 0.62834 -0.01197
 C338 C 0.61028 0.58863 -0.01380
 C339 C 0.58434 0.56752 0.01509
 C340 C 0.61525 0.53530 0.01257
 H341 H 0.72492 0.61577 -0.02141
 H342 H 0.67464 0.66788 -0.01687
 H343 H 0.55413 0.55823 0.00141
 H344 H 0.58326 0.58319 0.04565
 H345 H 0.60224 0.50738 -0.00200
 H346 H 0.63231 0.53226 0.04161
 C347 C 0.90218 -0.16810 0.54759
 C348 C 0.92080 -0.18462 0.51289
 C349 C 0.91052 -0.16764 0.47587
 C350 C 0.88348 -0.13596 0.47483
 C351 C 0.86621 -0.11960 0.51093
 C352 C 0.87684 -0.13713 0.54655
 C353 C 0.87039 -0.13460 0.59120
 C354 C 0.89914 -0.16926 0.59275
 H355 H 0.92400 -0.17847 0.44769
 H356 H 0.87705 -0.12369 0.44594
 H357 H 0.83836 -0.14211 0.59901
 H358 H 0.88348 -0.10705 0.60646
 H359 H 0.88360 -0.19662 0.60200
 H360 H 0.92864 -0.16135 0.60870
 C361 C 0.31687 0.39878 1.03910
 C362 C 0.32141 0.43534 1.02219
 C363 C 0.35725 0.44218 1.00007
 C364 C 0.38590 0.41262 0.99339
 C365 C 0.37904 0.37487 1.00766
 C366 C 0.34494 0.36950 1.03208
 C367 C 0.31248 0.33790 1.02839
 C368 C 0.28170 0.36982 1.03588
 H369 H 0.36254 0.47007 0.98674
 H370 H 0.41285 0.41925 0.97622
 H371 H 0.31433 0.31766 1.05351
 H372 H 0.31013 0.32327 0.99729
 H373 H 0.26572 0.36760 1.06521
 H374 H 0.26146 0.37386 1.00913
 C375 C 0.90033 0.21933 0.49133
 C376 C 0.93303 0.21643 0.51861
 C377 C 0.92647 0.19449 0.55298
 C378 C 0.89102 0.17057 0.55551
 C379 C 0.86212 0.16773 0.52333
 C380 C 0.86582 0.19498 0.49326
 C381 C 0.86104 0.19080 0.44800
 C382 C 0.89900 0.21726 0.44592
 H383 H 0.95061 0.19250 0.57553
 H384 H 0.88863 0.15097 0.58009
 H385 H 0.83291 0.20468 0.43723
 H386 H 0.86571 0.16061 0.43481
 H387 H 0.89252 0.24609 0.43366
 H388 H 0.92559 0.20208 0.43230
 C389 C 0.28746 0.60242 0.01315
 C390 C 0.28956 0.57749 0.04512
 C391 C 0.31121 0.59115 0.08064
 C392 C 0.33554 0.62585 0.08107
 C393 C 0.33963 0.64672 0.04546
 C394 C 0.31216 0.63619 0.01317
 C395 C 0.31942 0.63027 -0.03148
 C396 C 0.29235 0.59343 -0.03138
 H397 H 0.31247 0.57312 0.10656
 H398 H 0.35381 0.63411 0.10803
 H399 H 0.35181 0.62415 -0.03842
 H400 H 0.30584 0.65368 -0.04895
 H401 H 0.30902 0.56593 -0.03829
 H402 H 0.26315 0.59568 -0.04859
 C403 C 0.07786 -0.20603 0.45149
 C404 C 0.06597 -0.21712 0.48988
 C405 C 0.09383 -0.20975 0.52252
 C406 C 0.12871 -0.18537 0.51800
 C407 C 0.13612 -0.16819 0.48071
 C408 C 0.11243 -0.18243 0.44693
 C409 C 0.09286 -0.16126 0.41370
 C410 C 0.05504 -0.18730 0.41855
 H411 H 0.08629 -0.21885 0.55251
 H412 H 0.14755 -0.17707 0.54460
 H413 H 0.10803 -0.16697 0.38406
 H414 H 0.08813 -0.12976 0.42253
 H415 H 0.04864 -0.20813 0.39179
 H416 H 0.02834 -0.17066 0.42959
 C417 C 0.71668 0.39685 0.99798
 C418 C 0.71103 0.42356 0.96798
 C419 C 0.68597 0.41137 0.93413
 C420 C 0.66161 0.37679 0.93448
 C421 C 0.66139 0.35445 0.96905
 C422 C 0.69184 0.36330 0.99889
 C423 C 0.69123 0.36566 1.04434
 C424 C 0.71820 0.40259 1.04328
 H425 H 0.68183 0.43067 0.90955
 H426 H 0.63961 0.37017 0.90997
 H427 H 0.70711 0.34080 1.05731
 H428 H 0.66088 0.37172 1.05730
 H429 H 0.74929 0.39874 1.05602
 H430 H 0.70300 0.42974 1.05468
 C431 C 0.53701 0.11749 1.18639
 C432 C 0.50161 0.09534 1.19435
 C433 C 0.46514 0.10582 1.17481
 C434 C 0.46561 0.13419 1.14552
 C435 C 0.50271 0.15195 1.13388
 C436 C 0.53748 0.14513 1.15730
 C437 C 0.57973 0.13534 1.14466
 C438 C 0.57928 0.10508 1.17667
 H439 H 0.43660 0.09023 1.17942
 H440 H 0.43717 0.14019 1.13031
 H441 H 0.60194 0.16009 1.15189
 H442 H 0.58076 0.12214 1.11298
 H443 H 0.60113 0.11256 1.20230
 H444 H 0.58042 0.07438 1.16348
 C445 C -0.02279 0.71186 0.62073
 C446 C 0.00218 0.71400 0.58656
 C447 C 0.03860 0.69277 0.58698
 C448 C 0.04568 0.66579 0.61691
 C449 C 0.01712 0.66024 0.64774
 C450 C -0.01532 0.68587 0.65068
 C451 C -0.05963 0.67707 0.65619
 C452 C -0.06796 0.70537 0.62337
 H453 H 0.06079 0.69516 0.56329
 H454 H 0.07223 0.64765 0.61458
 H455 H -0.07010 0.68775 0.68673
 H456 H -0.06853 0.64608 0.64695
 H457 H -0.08350 0.73218 0.63514
 H458 H -0.08166 0.69083 0.59504
 C459 C 0.51839 0.88448 -0.18682
 C460 C 0.48396 0.90532 -0.19759
 C461 C 0.44602 0.89295 -0.18216
 C462 C 0.44363 0.86342 -0.15422
 C463 C 0.47925 0.84589 -0.14033
 C464 C 0.51597 0.85551 -0.15900
 C465 C 0.55623 0.86747 -0.13974
 C466 C 0.55896 0.89930 -0.16985
 H467 H 0.41835 0.90749 -0.19019
 H468 H 0.41418 0.85584 -0.14200
 H469 H 0.57929 0.84449 -0.14481
 H470 H 0.55354 0.87915 -0.10765
 H471 H 0.58402 0.89463 -0.19182
 H472 H 0.55778 0.92954 -0.15533
 C473 C 1.02420 0.29308 0.39323
 C474 C 0.99781 0.28919 0.42608
 C475 C 0.96065 0.30935 0.42413
 C476 C 0.95339 0.33585 0.39374
 C477 C 0.98322 0.34371 0.36460
 C478 C 1.01725 0.31972 0.36371
 C479 C 1.06147 0.33063 0.36109
 C480 C 1.06924 0.30166 0.39330
 H481 H 0.93700 0.30557 0.44613
 H482 H 0.92495 0.35120 0.39426
 H483 H 1.06844 0.36168 0.37176
 H484 H 1.07426 0.32138 0.33106
 H485 H 1.08080 0.31584 0.42271
 H486 H 1.08664 0.27597 0.38163
 C487 C 0.51581 0.91768 0.20804
 C488 C 0.53005 0.95369 0.19443
 C489 C 0.55327 0.95225 0.15863
 C490 C 0.55583 0.91718 0.13431
 C491 C 0.53370 0.88302 0.14411
 C492 C 0.51701 0.88330 0.18312
 C493 C 0.47613 0.86916 0.19642
 C494 C 0.47470 0.90660 0.22364
 H495 H 0.56821 0.97847 0.14836
 H496 H 0.57268 0.91791 0.10637
 H497 H 0.47807 0.84231 0.21376
 H498 H 0.45287 0.86755 0.17139
 H499 H 0.47574 0.90123 0.25659
 H500 H 0.45052 0.92668 0.21447
 C501 C -0.01011 0.32790 0.57704
 C502 C 0.02543 0.31122 0.56200
 C503 C 0.06240 0.32688 0.58017
 C504 C 0.06245 0.35717 0.61168
 C505 C 0.02552 0.37306 0.62634
 C506 C -0.01008 0.35649 0.60787
 C507 C -0.05544 0.35853 0.60770
 C508 C -0.05553 0.32616 0.57318
 H509 H 0.09149 0.31616 0.56999
 H510 H 0.09153 0.36767 0.62468
 H511 H -0.06614 0.38718 0.59794
 H512 H -0.06916 0.34837 0.63600
 H513 H -0.06684 0.33650 0.54381
 H514 H -0.06883 0.29758 0.58181
 C515 C 0.50361 0.08160 0.78757
 C516 C 0.47585 0.05132 0.79589
 C517 C 0.44596 0.05959 0.82534
 C518 C 0.44790 0.09512 0.84951
 C519 C 0.48024 0.12246 0.84514
 C520 C 0.50614 0.11614 0.81216
 C521 C 0.55151 0.11903 0.80974
 C522 C 0.54890 0.08124 0.78290
 H523 H 0.42289 0.03752 0.83160
 H524 H 0.42640 0.09960 0.87389
 H525 H 0.56753 0.11545 0.83916
 H526 H 0.56196 0.14488 0.79329
 H527 H 0.56300 0.05592 0.79691
 H528 H 0.55840 0.08604 0.75141
 C529 C 0.94778 0.68714 0.41398
 C530 C 0.96831 0.68609 0.45141
 C531 C 0.98569 0.65032 0.46071
 C532 C 0.98634 0.61850 0.43129
 C533 C 0.97000 0.62189 0.39168
 C534 C 0.94870 0.65602 0.38494
 C535 C 0.95172 0.68290 0.35089
 C536 C 0.95066 0.71697 0.38277
 H537 H 0.99982 0.64720 0.49023
 H538 H 1.00068 0.59183 0.43936
 H539 H 0.92417 0.68064 0.33070
 H540 H 0.98131 0.68088 0.33493
 H541 H 0.92248 0.73420 0.38097
 H542 H 0.97964 0.73479 0.38538
 C543 C 1.18258 0.52396 0.11110
 C544 C 1.19511 0.48892 0.09118
 C545 C 1.17903 0.45343 0.10522
 C546 C 1.14844 0.45355 0.13471
 C547 C 1.13317 0.48916 0.15131
 C548 C 1.15286 0.52396 0.14082
 C549 C 1.13510 0.56103 0.12799
 C550 C 1.16691 0.56084 0.09494
 H551 H 1.18863 0.42541 0.09208
 H552 H 1.13574 0.42570 0.14339
 H553 H 1.13983 0.58559 0.15149
 H554 H 1.10329 0.55672 0.11599
 H555 H 1.18952 0.58573 0.09893
 H556 H 1.15294 0.55617 0.06400
 C557 C 0.59398 -0.03785 0.69757
 C558 C 0.56302 -0.01098 0.70531
 C559 C 0.56758 0.02590 0.68838
 C560 C 0.60009 0.03394 0.66238
 C561 C 0.62838 0.00486 0.65138
 C562 C 0.62553 -0.03019 0.67131
 C563 C 0.62526 -0.07162 0.65393
 C564 C 0.59073 -0.08009 0.68254
 H565 H 0.54554 0.04840 0.69368
 H566 H 0.60192 0.06249 0.64986
 H567 H 0.65376 -0.08674 0.66146
 H568 H 0.61585 -0.07437 0.62127
 H569 H 0.59952 -0.10020 0.70630
 H570 H 0.56118 -0.08780 0.66655
 C571 C -0.15845 0.48922 0.92621
 C572 C -0.19580 0.50553 0.91679
 C573 C -0.20188 0.51644 0.87653
 C574 C -0.16959 0.51553 0.84871
 C575 C -0.13029 0.50401 0.86057
 C576 C -0.12654 0.48867 0.89899
 C577 C -0.09548 0.49761 0.93216
 C578 C -0.13048 0.49809 0.96195
 H579 H -0.23117 0.52672 0.86676
 H580 H -0.17529 0.52498 0.81843
 H581 H -0.07998 0.52680 0.93002
 H582 H -0.07473 0.47282 0.93584
 H583 H -0.13534 0.52753 0.97721
 H584 H -0.12990 0.47352 0.98261
 C585 C 0.44041 -0.02371 0.31671
 C586 C 0.43313 -0.00496 0.28085
 C587 C 0.39211 -0.00108 0.26851
 C588 C 0.36008 -0.00993 0.29477
 C589 C 0.36848 -0.02262 0.33398
 C590 C 0.40889 -0.03219 0.34271
 C591 C 0.43492 -0.02188 0.37966
 C592 C 0.46943 -0.01264 0.35114
 H593 H 0.38483 0.01099 0.23971
 H594 H 0.32909 -0.00456 0.28526
 H595 H 0.44065 -0.04785 0.39751
 H596 H 0.42425 0.00439 0.39767
 H597 H 0.49495 -0.03332 0.35254
 H598 H 0.47887 0.01899 0.35255
 C599 C 0.21637 0.48947 0.91361
 C600 C 0.20668 0.50164 0.95357
 C601 C 0.16679 0.51482 0.96038
 C602 C 0.13949 0.51912 0.92752
 C603 C 0.15135 0.51034 0.88696
 C604 C 0.18953 0.49366 0.88131
 C605 C 0.22315 0.50464 0.85375
 C606 C 0.25257 0.50005 0.88916
 H607 H 0.15651 0.52194 0.99092
 H608 H 0.10922 0.52944 0.93400
 H609 H 0.22136 0.53540 0.84462
 H610 H 0.22685 0.48220 0.82827
 H611 H 0.26790 0.52814 0.90059
 H612 H 0.27318 0.47498 0.88402
 C613 C 0.58784 0.05907 0.32644
 C614 C 0.57066 0.02543 0.30575
 C615 C 0.58761 -0.01097 0.31374
 C616 C 0.61777 -0.01333 0.34445
 C617 C 0.63185 0.02070 0.36757
 C618 C 0.61758 0.05679 0.35639
 C619 C 0.60014 0.08945 0.38221
 C620 C 0.56742 0.09192 0.34937
 H621 H 0.57756 -0.03768 0.29671
 H622 H 0.62959 -0.04176 0.35038
 H623 H 0.62099 0.11576 0.38512
 H624 H 0.58810 0.07955 0.41140
 H625 H 0.56942 0.11972 0.33350
 H626 H 0.53633 0.08340 0.35940
 C627 C 0.81021 0.53715 0.07986
 C628 C 0.79594 0.50416 0.05566
 C629 C 0.81441 0.46810 0.06237
 C630 C 0.84257 0.46485 0.09475
 C631 C 0.85369 0.49777 0.12093
 C632 C 0.83867 0.53403 0.11109
 C633 C 0.81965 0.56487 0.13786
 C634 C 0.78796 0.56802 0.10422
 H635 H 0.80614 0.44184 0.04377
 H636 H 0.85511 0.43646 0.09959
 H637 H 0.83972 0.59159 0.14274
 H638 H 0.80696 0.55320 0.16599
 H639 H 0.78932 0.59685 0.09023
 H640 H 0.75702 0.55788 0.11316
 C641 C 0.38909 -0.04891 0.68193
 C642 C 0.42621 -0.02762 0.68371
 C643 C 0.43667 -0.00660 0.64958
 C644 C 0.40866 -0.00423 0.61687
 C645 C 0.36960 -0.02280 0.61766
 C646 C 0.36165 -0.04656 0.64994
 C647 C 0.32579 -0.04759 0.67729
 C648 C 0.35595 -0.05018 0.71245
 H649 H 0.46615 0.00829 0.64815
 H650 H 0.41754 0.01241 0.59132
 H651 H 0.30654 -0.07475 0.67143
 H652 H 0.30890 -0.01974 0.67846
 H653 H 0.35404 -0.07883 0.72678
 H654 H 0.35665 -0.02385 0.73410
   
