data_POSCAR
  _audit_creation_date              2014-09-24
  _audit_creation_method            'ToBaCCo'
  _symmetry_space_group_name_H-M    'P1'
  _symmetry_Int_Tables_number       1
  _symmetry_cell_setting            triclinic
  loop_
  _symmetry_equiv_pos_as_xyz
 x,y,z
_cell_length_a 33.6442
_cell_length_b 33.9859
_cell_length_c 14.2522
_cell_angle_alpha 90.014600
_cell_angle_beta 89.949300
_cell_angle_gamma 120.008900
loop_
  _atom_site_label
  _atom_site_type_symbol
  _atom_site_fract_x
  _atom_site_fract_y
  _atom_site_fract_z
C1 C 0.42293 0.90338 0.58977
 C2 C 0.41456 0.88043 0.50347
 C3 C 0.42888 0.90376 0.41813
 C4 C 0.45131 0.95174 0.41743
 C5 C 0.45958 0.97592 0.50294
 C6 C 0.44495 0.95172 0.58913
 C7 C 0.45052 0.97653 0.67186
 C8 C 0.47252 1.02359 0.67121
 C9 C 0.49028 1.04860 0.58782
 C10 C 0.48228 1.02444 0.50217
 C11 C 0.46442 0.97609 0.33280
 C12 C 0.48607 1.02321 0.33186
 C13 C 0.49649 1.04848 0.41575
 C14 C 0.51857 1.09682 0.41513
 C15 C 0.52564 1.11983 0.50110
 C16 C 0.51366 1.09689 0.58778
 H17 H 0.43662 0.96009 0.73833
 H18 H 0.47376 1.03981 0.73721
 H19 H 0.45704 0.95888 0.26578
 H20 H 0.49318 1.03912 0.26364
 H21 H 0.40042 0.84399 0.50213
 H22 H 0.54607 1.15647 0.50105
 C23 C -0.09762 0.42354 0.41677
 C24 C -0.12115 0.40782 0.50197
 C25 C -0.09803 0.41809 0.58871
 C26 C -0.04912 0.44319 0.58867
 C27 C -0.02480 0.45890 0.50256
 C28 C -0.04912 0.44901 0.41659
 C29 C -0.02424 0.46431 0.33223
 C30 C 0.02346 0.48982 0.33224
 C31 C 0.04834 0.50113 0.41661
 C32 C 0.02406 0.48505 0.50245
 C33 C -0.02358 0.45172 0.67212
 C34 C 0.02400 0.47759 0.67199
 C35 C 0.04851 0.49549 0.58831
 C36 C 0.09692 0.52276 0.58841
 C37 C 0.12034 0.53774 0.50295
 C38 C 0.09688 0.52749 0.41727
 H39 H -0.04135 0.45623 0.26489
 H40 H 0.04059 0.50015 0.26501
 H41 H -0.03967 0.43776 0.73889
 H42 H 0.04141 0.48261 0.73847
 H43 H -0.15821 0.39133 0.50021
 H44 H 0.15723 0.56020 0.50337
 C45 C 0.57372 0.47584 0.41746
 C46 C 0.58892 0.46745 0.50255
 C47 C 0.58010 0.48157 0.58913
 C48 C 0.55723 0.50729 0.58899
 C49 C 0.54158 0.51607 0.50323
 C50 C 0.54984 0.50025 0.41737
 C51 C 0.53479 0.51005 0.33319
 C52 C 0.51132 0.53405 0.33325
 C53 C 0.50187 0.54932 0.41750
 C54 C 0.51750 0.54071 0.50329
 C55 C 0.55146 0.52641 0.67188
 C56 C 0.52805 0.55037 0.67195
 C57 C 0.50907 0.55657 0.58912
 C58 C 0.48389 0.58002 0.58940
 C59 C 0.46997 0.58915 0.50288
 C60 C 0.47800 0.57373 0.41773
 H61 H 0.54159 0.49987 0.26591
 H62 H 0.50130 0.54107 0.26602
 H63 H 0.56618 0.52453 0.73789
 H64 H 0.52649 0.56514 0.73800
 H65 H 0.60393 0.44577 0.50083
 H66 H 0.44863 0.60464 0.50127
 O67 O 0.41108 0.70333 -0.10958
 O68 O 0.37408 0.75354 -0.08072
 C69 C 0.33808 0.74206 -0.12871
 O70 O 0.29969 0.70759 -0.10984
 O71 O 0.24891 0.62094 -0.07940
 C72 C 0.25971 0.59580 -0.12608
 O73 O 0.29461 0.59235 -0.10778
 O74 O 0.38252 0.62950 -0.08070
 C75 C 0.40721 0.66520 -0.12851
 O76 O 0.42066 0.69709 0.07810
 O77 O 0.37972 0.74418 0.10540
 C78 C 0.34396 0.74642 0.12293
 O79 O 0.30660 0.72398 0.07777
 O80 O 0.25889 0.63649 0.10615
 C81 C 0.25679 0.59902 0.12470
 O82 O 0.27959 0.58432 0.08034
 O83 O 0.36812 0.62467 0.10580
 C84 C 0.40613 0.66007 0.12309
 Cr85 Cr 0.39415 0.72237 -0.00154
 Cr86 Cr 0.28071 0.67221 -0.00120
 Cr87 Cr 0.33130 0.60995 -0.00047
 O88 O 0.33538 0.66815 -0.00016
 O89 O 0.62733 0.37906 -0.08129
 O90 O 0.58851 0.29205 -0.10847
 C91 C 0.59151 0.25732 -0.12787
 O92 O 0.61598 0.24557 -0.08092
 O93 O 0.70371 0.29451 -0.11108
 C94 C 0.73895 0.33222 -0.12981
 O95 O 0.75105 0.36796 -0.08175
 O96 O 0.70169 0.40603 -0.11043
 C97 C 0.66351 0.40297 -0.12921
 O98 O 0.62226 0.36482 0.10522
 O99 O 0.58017 0.27723 0.08007
 C100 C 0.59460 0.25441 0.12476
 O101 O 0.63174 0.25519 0.10506
 O102 O 0.72019 0.30107 0.07662
 C103 C 0.74342 0.33803 0.12169
 O104 O 0.74179 0.37377 0.10429
 O105 O 0.69571 0.41581 0.07728
 C106 C 0.65844 0.40208 0.12242
 Cr107 Cr 0.60677 0.32827 -0.00105
 Cr108 Cr 0.66788 0.27626 -0.00242
 Cr109 Cr 0.72035 0.38870 -0.00249
 O110 O 0.66497 0.33107 -0.00107
 C111 C 0.41353 0.87862 -0.32529
 C112 C 0.38147 0.83469 -0.31579
 C113 C 0.37736 0.81026 -0.22780
 C114 C 0.34084 0.76945 -0.21104
 H115 H 0.35759 0.81648 -0.37195
 H116 H 0.40510 0.82541 -0.17724
 H117 H 0.43335 0.89564 -0.26347
 H118 H 0.31250 0.75518 -0.26031
 C119 C 0.12302 0.54060 -0.32302
 C120 C 0.16417 0.54468 -0.30885
 C121 C 0.19062 0.56722 -0.22391
 C122 C 0.23073 0.56959 -0.20585
 H123 H 0.17880 0.53237 -0.36102
 H124 H 0.17763 0.58327 -0.17685
 H125 H 0.10829 0.55177 -0.26875
 H126 H 0.24317 0.55273 -0.25200
 C127 C 0.46863 0.58979 -0.32570
 C128 C 0.45704 0.62203 -0.31599
 C129 C 0.43643 0.62611 -0.22801
 C130 C 0.43209 0.66243 -0.21090
 H131 H 0.46302 0.64595 -0.37189
 H132 H 0.42363 0.59848 -0.17771
 H133 H 0.46539 0.56983 -0.26402
 H134 H 0.44634 0.69062 -0.25990
 C135 C 0.52954 0.12183 -0.32743
 C136 C 0.54009 0.16518 -0.31617
 C137 C 0.56157 0.18958 -0.22856
 C138 C 0.56580 0.23002 -0.20976
 H139 H 0.53270 0.18292 -0.37038
 H140 H 0.57517 0.17472 -0.17997
 H141 H 0.53440 0.10539 -0.26706
 H142 H 0.55095 0.24412 -0.25716
 C143 C 0.87660 0.40797 -0.32663
 C144 C 0.83275 0.37492 -0.31671
 C145 C 0.80775 0.37081 -0.22907
 C146 C 0.76663 0.33457 -0.21197
 H147 H 0.81503 0.35054 -0.37214
 H148 H 0.82275 0.39852 -0.17899
 H149 H 0.89295 0.42849 -0.26529
 H150 H 0.75233 0.30631 -0.26077
 C151 C 0.58950 0.46606 -0.32603
 C152 C 0.62144 0.45374 -0.31644
 C153 C 0.62506 0.43303 -0.22852
 C154 C 0.66125 0.42791 -0.21154
 H155 H 0.64546 0.45921 -0.37238
 H156 H 0.59719 0.42083 -0.17817
 H157 H 0.56949 0.46326 -0.26432
 H158 H 0.68971 0.44155 -0.26060
 C159 C 0.87533 0.41839 0.33073
 C160 C 0.83702 0.37978 0.30884
 C161 C 0.80848 0.37833 0.22921
 C162 C 0.77364 0.33916 0.19766
 H163 H 0.82617 0.34957 0.35111
 H164 H 0.81587 0.41009 0.19646
 H165 H 0.88662 0.44779 0.28569
 H166 H 0.76750 0.30724 0.22739
 C167 C 0.53787 0.12228 0.33202
 C168 C 0.54491 0.16432 0.31737
 C169 C 0.56991 0.19036 0.23363
 C170 C 0.56687 0.22607 0.20387
 H171 H 0.53176 0.17962 0.36590
 H172 H 0.59149 0.18029 0.19620
 H173 H 0.54793 0.10748 0.27618
 H174 H 0.54330 0.23455 0.23790
 C175 C 0.57823 0.45377 0.33135
 C176 C 0.61689 0.45376 0.30940
 C177 C 0.61805 0.42678 0.22973
 C178 C 0.65749 0.43103 0.19834
 H179 H 0.64744 0.47288 0.35174
 H180 H 0.58589 0.40257 0.19690
 H181 H 0.54845 0.43597 0.28639
 H182 H 0.68981 0.45667 0.22817
 C183 C 0.12370 0.54892 0.33096
 C184 C 0.16282 0.54943 0.31126
 C185 C 0.19131 0.57554 0.23094
 C186 C 0.22651 0.57097 0.20137
 H187 H 0.17436 0.53128 0.35590
 H188 H 0.18358 0.59929 0.19604
 H189 H 0.11147 0.56557 0.28381
 H190 H 0.23285 0.54565 0.23316
 C191 C 0.42461 0.87730 0.33210
 C192 C 0.38618 0.83874 0.31075
 C193 C 0.38496 0.81078 0.23073
 C194 C 0.34538 0.77629 0.19930
 H195 H 0.35574 0.82732 0.35373
 H196 H 0.41704 0.81831 0.19761
 H197 H 0.45425 0.88945 0.28644
 H198 H 0.31318 0.77017 0.22944
 C199 C 0.45603 0.57871 0.33171
 C200 C 0.45684 0.61738 0.30985
 C201 C 0.42990 0.61911 0.23025
 C202 C 0.43500 0.65848 0.19898
 H203 H 0.47659 0.64754 0.35222
 H204 H 0.40505 0.58747 0.19736
 H205 H 0.43761 0.54930 0.28671
 H206 H 0.46129 0.69026 0.22887
   
