data_POSCAR
  _audit_creation_date              2014-09-24
  _audit_creation_method            'ToBaCCo'
  _symmetry_space_group_name_H-M    'P1'
  _symmetry_Int_Tables_number       1
  _symmetry_cell_setting            triclinic
  loop_
  _symmetry_equiv_pos_as_xyz
 x,y,z
_cell_length_a 40.7922
_cell_length_b 40.7741
_cell_length_c 46.0943
_cell_angle_alpha 90.064500
_cell_angle_beta 89.967100
_cell_angle_gamma 120.023100
loop_
  _atom_site_label
  _atom_site_type_symbol
  _atom_site_fract_x
  _atom_site_fract_y
  _atom_site_fract_z
O1 O 0.03627 0.54514 1.27793
 O2 O -0.03730 0.50824 1.22123
 O3 O -0.03739 0.50847 1.27772
 O4 O 0.03636 0.54544 1.22144
 O5 O 0.03644 0.49138 1.22133
 O6 O -0.03739 0.45438 1.27772
 O7 O -0.03723 0.45424 1.22122
 O8 O 0.03628 0.49105 1.27783
 Cu9 Cu -0.00052 0.53224 1.24959
 Cu10 Cu -0.00047 0.46735 1.24952
 C11 C 0.04884 0.52436 1.28762
 C12 C -0.04990 0.47488 1.21142
 C13 C -0.04999 0.47514 1.28741
 C14 C 0.04901 0.52475 1.21170
 O15 O 0.45434 0.49192 1.27881
 O16 O 0.49126 0.45513 1.22211
 O17 O 0.49090 0.45480 1.27862
 O18 O 0.45409 0.49164 1.22229
 O19 O 0.50813 0.54579 1.22230
 O20 O 0.54499 0.50891 1.27874
 O21 O 0.54530 0.50928 1.22223
 O22 O 0.50837 0.54598 1.27882
 Cu23 Cu 0.46724 0.46796 1.25045
 Cu24 Cu 0.53210 0.53291 1.25053
 C25 C 0.47503 0.52530 1.28861
 C26 C 0.52462 0.47595 1.21243
 C27 C 0.52422 0.47552 1.28836
 C28 C 0.47478 0.52498 1.21260
 O29 O 0.50811 0.96299 1.27926
 O30 O 0.54516 1.03665 1.22261
 O31 O 0.54538 1.03672 1.27912
 O32 O 0.50841 0.96294 1.22275
 O33 O 0.45439 0.96303 1.22269
 O34 O 0.49145 1.03689 1.27917
 O35 O 0.49115 1.03675 1.22265
 O36 O 0.45419 0.96316 1.27921
 Cu37 Cu 0.53216 0.99981 1.25094
 Cu38 Cu 0.46740 0.99997 1.25093
 C39 C 0.47476 0.95042 1.28903
 C40 C 0.52445 1.04928 1.21289
 C41 C 0.52481 1.04950 1.28890
 C42 C 0.47511 0.95038 1.21300
 O43 O 0.96360 0.50865 0.72129
 O44 O 1.03747 0.54566 0.77770
 O45 O 1.03731 0.54584 0.72118
 O46 O 0.96377 0.50900 0.77781
 O47 O 0.96378 0.45492 0.77780
 O48 O 1.03739 0.49185 0.72106
 O49 O 1.03748 0.49157 0.77758
 O50 O 0.96369 0.45461 0.72128
 Cu51 Cu 1.00054 0.53270 0.74950
 Cu52 Cu 1.00059 0.46783 0.74942
 C53 C 0.95102 0.47528 0.71159
 C54 C 1.05008 0.52490 0.78734
 C55 C 1.05000 0.52522 0.71131
 C56 C 0.95121 0.47568 0.78756
 O57 O 0.49152 0.45454 0.72179
 O58 O 0.45477 0.49159 0.77826
 O59 O 0.45453 0.49122 0.72175
 O60 O 0.49125 0.45441 0.77829
 O61 O 0.54540 0.50846 0.77833
 O62 O 0.50864 0.54530 0.72169
 O63 O 0.50892 0.54565 0.77819
 O64 O 0.54563 0.50863 0.72183
 Cu65 Cu 0.46759 0.46752 0.75002
 Cu66 Cu 0.53257 0.53243 0.75001
 C67 C 0.52488 0.47528 0.71211
 C68 C 0.47560 0.52497 0.78793
 C69 C 0.47528 0.52452 0.71199
 C70 C 0.52458 0.47511 0.78804
 O71 O 0.54529 0.03639 0.72132
 O72 O 0.50851 -0.03737 0.77775
 O73 O 0.50870 -0.03732 0.72124
 O74 O 0.54557 0.03633 0.77783
 O75 O 0.49150 0.03632 0.77795
 O76 O 0.45464 -0.03739 0.72126
 O77 O 0.45444 -0.03737 0.77777
 O78 O 0.49118 0.03631 0.72145
 Cu79 Cu 0.53243 -0.00049 0.74952
 Cu80 Cu 0.46753 -0.00054 0.74961
 C81 C 0.52449 0.04895 0.71169
 C82 C 0.47517 -0.04995 0.78746
 C83 C 0.47536 -0.05002 0.71144
 C84 C 0.52486 0.04891 0.78763
 O85 O 0.38914 0.66874 0.96698
 O86 O 0.39071 0.73267 0.97577
 C87 C 0.36706 0.73783 0.96150
 O88 O 0.33193 0.72076 0.96680
 O89 O 0.26795 0.65842 0.97542
 C90 C 0.26282 0.62953 0.96121
 O91 O 0.27986 0.61148 0.96665
 O92 O 0.34213 0.60987 0.97561
 C93 C 0.37110 0.63363 0.96152
 O94 O 0.39046 0.65839 1.02472
 O95 O 0.38881 0.72071 1.03351
 C96 C 0.37075 0.73778 1.03884
 O97 O 0.34194 0.73262 1.02456
 O98 O 0.27958 0.66864 1.03318
 C99 C 0.26249 0.63351 1.03852
 O100 O 0.26772 0.60980 1.02435
 O101 O 0.33159 0.61140 1.03332
 C102 C 0.36667 0.62945 1.03882
 Cr103 Cr 0.38767 0.69407 1.00024
 Cr104 Cr 0.30640 0.69406 0.99999
 Cr105 Cr 0.30638 0.61275 0.99999
 O106 O 0.33348 0.66696 1.00008
 O107 O 0.61133 0.33163 0.96716
 O108 O 0.60978 0.26764 0.97571
 C109 C 0.63342 0.26224 0.96161
 O110 O 0.66852 0.27920 0.96707
 O111 O 0.73254 0.34166 0.97553
 C112 C 0.73793 0.37072 0.96148
 O113 O 0.72101 0.38889 0.96701
 O114 O 0.65860 0.39044 0.97562
 C115 C 0.62949 0.36671 0.96162
 O116 O 0.60990 0.34175 1.02497
 O117 O 0.61147 0.27933 1.03352
 C118 C 0.62962 0.26239 1.03899
 O119 O 0.65865 0.26776 1.02490
 O120 O 0.72110 0.33180 1.03336
 C121 C 0.73804 0.36691 1.03885
 O122 O 0.73263 0.39057 1.02482
 O123 O 0.66867 0.38904 1.03343
 C124 C 0.63360 0.37089 1.03897
 Cr125 Cr 0.61277 0.30616 1.00034
 Cr126 Cr 0.69413 0.30618 1.00022
 Cr127 Cr 0.69415 0.38758 1.00022
 O128 O 0.66702 0.33331 1.00026
 O129 O 0.66819 0.38843 0.53312
 O130 O 0.73212 0.39008 0.52427
 C131 C 0.73731 0.36636 0.53841
 O132 O 0.72021 0.33124 0.53300
 O133 O 0.65787 0.26729 0.52415
 C134 C 0.62895 0.26208 0.53831
 O135 O 0.61090 0.27914 0.53293
 O136 O 0.60935 0.34151 0.52423
 C137 C 0.63307 0.37038 0.53847
 O138 O 0.65793 0.39013 0.47541
 O139 O 0.72022 0.38851 0.46656
 C140 C 0.73726 0.37045 0.46112
 O141 O 0.73208 0.34153 0.47526
 O142 O 0.66816 0.27917 0.46643
 C143 C 0.63305 0.26210 0.46102
 O144 O 0.60934 0.26731 0.47519
 O145 O 0.61101 0.33130 0.46648
 C146 C 0.62904 0.36644 0.46118
 Cr147 Cr 0.69356 0.38718 0.49983
 Cr148 Cr 0.69353 0.30586 0.49971
 Cr149 Cr 0.61226 0.30587 0.49971
 O150 O 0.66645 0.33297 0.49975
 O151 O 0.33165 0.61127 0.53305
 O152 O 0.26764 0.60967 0.52464
 C153 C 0.26227 0.63335 0.53873
 O154 O 0.27921 0.66845 0.53325
 O155 O 0.34165 0.73246 0.52468
 C156 C 0.37077 0.73788 0.53864
 O157 O 0.38891 0.72096 0.53304
 O158 O 0.39040 0.65849 0.52441
 C159 C 0.36676 0.62943 0.53849
 O160 O 0.34148 0.60963 0.47522
 O161 O 0.27905 0.61120 0.46681
 C162 C 0.26214 0.62937 0.46136
 O163 O 0.26757 0.65847 0.47543
 O164 O 0.33154 0.72094 0.46686
 C165 C 0.36661 0.73787 0.46129
 O166 O 0.39030 0.73244 0.47524
 O167 O 0.38868 0.66840 0.46660
 C168 C 0.37052 0.63329 0.46113
 Cr169 Cr 0.30603 0.61259 0.49993
 Cr170 Cr 0.30607 0.69400 0.50005
 Cr171 Cr 0.38742 0.69400 0.49983
 O172 O 0.33317 0.66687 0.49993
 C173 C 0.47007 0.59007 0.34336
 C174 C 0.43355 0.56737 0.35441
 C175 C 0.41068 0.53077 0.34348
 C176 C 0.42428 0.51682 0.32165
 C177 C 0.46112 0.53935 0.31038
 C178 C 0.48379 0.57626 0.32155
 C179 C 0.41970 0.58157 0.37712
 C180 C 0.40827 0.59349 0.39623
 C181 C 0.39503 0.60745 0.41872
 C182 C 0.38382 0.61930 0.43803
 H183 H 0.48803 0.61846 0.35168
 H184 H 0.38235 0.51294 0.35189
 H185 H 0.40587 0.48833 0.31373
 H186 H 0.51224 0.59456 0.31354
 C187 C 0.46902 0.88052 0.34386
 C188 C 0.43244 0.86688 0.35475
 C189 C 0.40985 0.88081 0.34370
 C190 C 0.42375 0.90834 0.32191
 C191 C 0.46063 0.92247 0.31077
 C192 C 0.48305 0.90806 0.32206
 C193 C 0.41818 0.83883 0.37743
 C194 C 0.40624 0.81547 0.39651
 C195 C 0.39230 0.78827 0.41896
 C196 C 0.38050 0.76518 0.43823
 H197 H 0.48677 0.86994 0.35227
 H198 H 0.38149 0.87046 0.35199
 H199 H 0.40552 0.91856 0.31389
 H200 H 0.51152 0.91806 0.31416
 C201 C 0.11972 0.52987 0.34345
 C202 C 0.13349 0.56638 0.35461
 C203 C 0.11978 0.58928 0.34374
 C204 C 0.09234 0.57571 0.32187
 C205 C 0.07822 0.53898 0.31057
 C206 C 0.09228 0.51623 0.32158
 C207 C 0.16143 0.58018 0.37735
 C208 C 0.18471 0.59159 0.39649
 C209 C 0.21182 0.60481 0.41899
 C210 C 0.23486 0.61604 0.43829
 H211 H 0.13011 0.51189 0.35171
 H212 H 0.13023 0.61759 0.35224
 H213 H 0.08211 0.59394 0.31388
 H214 H 0.08203 0.48785 0.31338
 C215 C 0.52973 0.40984 0.34380
 C216 C 0.56624 0.43253 0.35489
 C217 C 0.58915 0.46921 0.34413
 C218 C 0.57557 0.48321 0.32240
 C219 C 0.53884 0.46065 0.31116
 C220 C 0.51608 0.42376 0.32207
 C221 C 0.58003 0.41827 0.37750
 C222 C 0.59140 0.40629 0.39653
 C223 C 0.60457 0.39230 0.41894
 C224 C 0.61575 0.38042 0.43817
 H225 H 0.51175 0.38141 0.35199
 H226 H 0.61746 0.48702 0.35260
 H227 H 0.59379 0.51171 0.31447
 H228 H 0.48769 0.40567 0.31390
 C229 C 0.53058 0.11959 0.34360
 C230 C 0.56716 0.13323 0.35446
 C231 C 0.58976 0.11929 0.34343
 C232 C 0.57585 0.09169 0.32168
 C233 C 0.53896 0.07753 0.31058
 C234 C 0.51654 0.09198 0.32184
 C235 C 0.58141 0.16129 0.37711
 C236 C 0.59336 0.18464 0.39620
 C237 C 0.60731 0.21180 0.41866
 C238 C 0.61913 0.23485 0.43795
 H239 H 0.51285 0.13021 0.35202
 H240 H 0.61813 0.12967 0.35172
 H241 H 0.59406 0.08143 0.31367
 H242 H 0.48806 0.08195 0.31395
 C243 C 0.87900 0.41019 0.34332
 C244 C 0.86531 0.43311 0.35420
 C245 C 0.87904 0.46961 0.34311
 C246 C 0.90649 0.48324 0.32128
 C247 C 0.92057 0.46049 0.31025
 C248 C 0.90645 0.42376 0.32147
 C249 C 0.83746 0.41936 0.37696
 C250 C 0.81428 0.40802 0.39612
 C251 C 0.78731 0.39488 0.41867
 C252 C 0.76439 0.38372 0.43801
 H253 H 0.86855 0.38189 0.35178
 H254 H 0.86864 0.48758 0.35142
 H255 H 0.91675 0.51164 0.31312
 H256 H 0.91670 0.40555 0.31346
 C257 C 0.53100 0.41107 1.15641
 C258 C 0.56764 0.43402 1.14558
 C259 C 0.59028 0.47056 1.15672
 C260 C 0.57635 0.48417 1.17854
 C261 C 0.53950 0.46137 1.18952
 C262 C 0.51700 0.42461 1.17824
 C263 C 0.58192 0.42023 1.12289
 C264 C 0.59389 0.40882 1.10380
 C265 C 0.60786 0.39557 1.08133
 C266 C 0.61969 0.38431 1.06205
 H267 H 0.51322 0.38274 1.14794
 H268 H 0.61868 0.48858 1.14849
 H269 H 0.59441 0.51258 1.18673
 H270 H 0.48853 0.40635 1.18620
 C271 C 0.88059 0.41010 1.15661
 C272 C 0.86676 0.43277 1.14556
 C273 C 0.88040 0.46935 1.15651
 C274 C 0.90787 0.48331 1.17836
 C275 C 0.92220 0.46082 1.18964
 C276 C 0.90805 0.42393 1.17846
 C277 C 0.83879 0.41858 1.12283
 C278 C 0.81550 0.40666 1.10371
 C279 C 0.78837 0.39273 1.08121
 C280 C 0.76533 0.38089 1.06192
 H281 H 0.87023 0.38173 1.14828
 H282 H 0.86988 0.48715 1.14809
 H283 H 0.91790 0.51179 1.18631
 H284 H 0.91821 0.40565 1.18647
 C285 C 0.53012 0.12021 1.15703
 C286 C 0.56660 0.13391 1.14589
 C287 C 0.58944 0.12016 1.15680
 C288 C 0.57583 0.09273 1.17868
 C289 C 0.53912 0.07866 1.18995
 C290 C 0.51644 0.09279 1.17890
 C291 C 0.58044 0.16183 1.12312
 C292 C 0.59186 0.18508 1.10397
 C293 C 0.60510 0.21216 1.08143
 C294 C 0.61632 0.23516 1.06210
 H295 H 0.51218 0.13063 1.14874
 H296 H 0.61773 0.13055 1.14833
 H297 H 0.59401 0.08247 1.18670
 H298 H 0.48807 0.08258 1.18708
 C299 C 0.46862 0.58983 1.15667
 C300 C 0.43203 0.56685 1.14578
 C301 C 0.40931 0.53034 1.15687
 C302 C 0.42315 0.51676 1.17871
 C303 C 0.45997 0.53957 1.18974
 C304 C 0.48254 0.57632 1.17852
 C305 C 0.41789 0.58055 1.12302
 C306 C 0.40603 0.59187 1.10386
 C307 C 0.39219 0.60499 1.08131
 C308 C 0.38046 0.61615 1.06195
 H309 H 0.48644 0.61814 1.14821
 H310 H 0.38095 0.51232 1.14858
 H311 H 0.40506 0.48836 1.18687
 H312 H 0.51098 0.59458 1.18653
 C313 C 0.12005 0.59038 1.15615
 C314 C 0.13388 0.56770 1.14504
 C315 C 0.12020 0.53106 1.15585
 C316 C 0.09268 0.51708 1.17764
 C317 C 0.07848 0.53963 1.18888
 C318 C 0.09254 0.57648 1.17793
 C319 C 0.16184 0.58191 1.12236
 C320 C 0.18511 0.59383 1.10327
 C321 C 0.21221 0.60775 1.08081
 C322 C 0.23523 0.61958 1.06154
 H323 H 0.13045 0.61878 1.14791
 H324 H 0.13072 0.51327 1.14737
 H325 H 0.08245 0.48861 1.18559
 H326 H 0.08221 0.59455 1.18611
 C327 C 0.41023 0.87949 1.15690
 C328 C 0.43311 0.86576 1.14602
 C329 C 0.46956 0.87943 1.15718
 C330 C 0.48318 0.90684 1.17908
 C331 C 0.46047 0.92096 1.19010
 C332 C 0.42378 0.90691 1.17881
 C333 C 0.41938 0.83794 1.12320
 C334 C 0.40807 0.81478 1.10398
 C335 C 0.39499 0.78782 1.08138
 C336 C 0.38390 0.76491 1.06199
 H337 H 0.38197 0.86911 1.14839
 H338 H 0.48751 0.86900 1.14889
 H339 H 0.51153 0.91705 1.18729
 H340 H 0.40559 0.91719 1.18681
 C341 C 0.53092 0.41024 0.65618
 C342 C 0.56753 0.43314 0.64532
 C343 C 0.59030 0.46966 0.65643
 C344 C 0.57649 0.48334 0.67825
 C345 C 0.53965 0.46061 0.68925
 C346 C 0.51703 0.42385 0.67802
 C347 C 0.58165 0.41934 0.62259
 C348 C 0.59350 0.40796 0.60345
 C349 C 0.60737 0.39480 0.58092
 C350 C 0.61916 0.38363 0.56158
 H351 H 0.51306 0.38192 0.64771
 H352 H 0.61868 0.48762 0.64815
 H353 H 0.59463 0.51174 0.68642
 H354 H 0.48856 0.40565 0.68601
 C355 C 0.52984 0.11991 0.65611
 C356 C 0.56633 0.13372 0.64498
 C357 C 0.58929 0.12006 0.65578
 C358 C 0.57577 0.09257 0.67759
 C359 C 0.53906 0.07839 0.68886
 C360 C 0.51626 0.09243 0.67792
 C361 C 0.58004 0.16164 0.62228
 C362 C 0.59136 0.18487 0.60316
 C363 C 0.60449 0.21192 0.58067
 C364 C 0.61566 0.23489 0.56137
 H365 H 0.51184 0.13029 0.64788
 H366 H 0.61758 0.13056 0.64728
 H367 H 0.59402 0.08236 0.68553
 H368 H 0.48788 0.08212 0.68612
 C369 C 0.87990 0.40960 0.65601
 C370 C 0.86603 0.43226 0.64496
 C371 C 0.87973 0.46890 0.65582
 C372 C 0.90729 0.48291 0.67760
 C373 C 0.92152 0.46039 0.68878
 C374 C 0.90745 0.42353 0.67777
 C375 C 0.83802 0.41801 0.62230
 C376 C 0.81471 0.40606 0.60322
 C377 C 0.78758 0.39211 0.58076
 C378 C 0.76455 0.38028 0.56147
 H379 H 0.86950 0.38120 0.64773
 H380 H 0.86919 0.48669 0.64740
 H381 H 0.91753 0.51139 0.68559
 H382 H 0.91779 0.40546 0.68590
 C383 C 0.46919 0.58942 0.65597
 C384 C 0.43257 0.56651 0.64510
 C385 C 0.40983 0.53001 0.65622
 C386 C 0.42366 0.51638 0.67806
 C387 C 0.46049 0.53913 0.68908
 C388 C 0.48310 0.57586 0.67782
 C389 C 0.41839 0.58031 0.62239
 C390 C 0.40650 0.59170 0.60328
 C391 C 0.39257 0.60491 0.58081
 C392 C 0.38074 0.61612 0.56153
 H393 H 0.48705 0.61772 0.64751
 H394 H 0.38144 0.51203 0.64796
 H395 H 0.40552 0.48800 0.68623
 H396 H 0.51156 0.59409 0.68581
 C397 C 0.47048 0.88041 0.65659
 C398 C 0.43397 0.86657 0.64554
 C399 C 0.41107 0.88022 0.65650
 C400 C 0.42463 0.90771 0.67838
 C401 C 0.46147 0.92205 0.68966
 C402 C 0.48417 0.90788 0.67846
 C403 C 0.42015 0.83859 0.62277
 C404 C 0.40872 0.81530 0.60362
 C405 C 0.39545 0.78818 0.58108
 C406 C 0.38418 0.76515 0.56175
 H407 H 0.48846 0.87003 0.64825
 H408 H 0.38275 0.86970 0.64808
 H409 H 0.40622 0.91774 0.68633
 H410 H 0.51261 0.91805 0.68647
 C411 C 0.11978 0.53084 0.65634
 C412 C 0.13344 0.56743 0.64547
 C413 C 0.11957 0.59007 0.65659
 C414 C 0.09208 0.57621 0.67842
 C415 C 0.07792 0.53931 0.68953
 C416 C 0.09228 0.51684 0.67818
 C417 C 0.16146 0.58167 0.62275
 C418 C 0.18478 0.59361 0.60364
 C419 C 0.21194 0.60757 0.58114
 C420 C 0.23499 0.61940 0.56183
 H421 H 0.13032 0.51305 0.64788
 H422 H 0.12994 0.61845 0.64832
 H423 H 0.08190 0.59448 0.68648
 H424 H 0.08225 0.48836 0.68607
 C425 C 0.47031 0.59063 0.84362
 C426 C 0.43381 0.56795 0.85474
 C427 C 0.41082 0.53131 0.84388
 C428 C 0.42432 0.51732 0.82204
 C429 C 0.46105 0.53986 0.81079
 C430 C 0.48387 0.57672 0.82178
 C431 C 0.42011 0.58216 0.87747
 C432 C 0.40879 0.59407 0.89661
 C433 C 0.39564 0.60797 0.91913
 C434 C 0.38444 0.61976 0.93845
 H435 H 0.48833 0.61902 0.85189
 H436 H 0.38252 0.51352 0.85236
 H437 H 0.40605 0.48885 0.81405
 H438 H 0.51226 0.59479 0.81360
 C439 C 0.12112 0.58982 0.84334
 C440 C 0.13481 0.56690 0.85417
 C441 C 0.12106 0.53041 0.84300
 C442 C 0.09362 0.51679 0.82115
 C443 C 0.07953 0.53954 0.81019
 C444 C 0.09366 0.57627 0.82149
 C445 C 0.16267 0.58064 0.87693
 C446 C 0.18586 0.59198 0.89611
 C447 C 0.21282 0.60511 0.91868
 C448 C 0.23572 0.61626 0.93806
 H449 H 0.13156 0.61812 0.85186
 H450 H 0.13146 0.51243 0.85124
 H451 H 0.08335 0.48840 0.81294
 H452 H 0.08341 0.59449 0.81353
 C453 C 0.40985 0.87929 0.84330
 C454 C 0.43262 0.86561 0.85442
 C455 C 0.46920 0.87925 0.84350
 C456 C 0.48304 0.90661 0.82159
 C457 C 0.46041 0.92068 0.81035
 C458 C 0.42361 0.90664 0.82141
 C459 C 0.41856 0.83785 0.87724
 C460 C 0.40673 0.81474 0.89645
 C461 C 0.39287 0.78783 0.91903
 C462 C 0.38105 0.76495 0.93840
 H463 H 0.38150 0.86892 0.85163
 H464 H 0.48706 0.86884 0.85198
 H465 H 0.51148 0.91683 0.81356
 H466 H 0.40548 0.91687 0.81323
 C467 C 0.52996 0.40963 0.84382
 C468 C 0.56649 0.43232 0.85492
 C469 C 0.58944 0.46893 0.84403
 C470 C 0.57590 0.48286 0.82219
 C471 C 0.53916 0.46030 0.81095
 C472 C 0.51636 0.42348 0.82199
 C473 C 0.58026 0.41813 0.87764
 C474 C 0.59165 0.40625 0.89676
 C475 C 0.60487 0.39236 0.91925
 C476 C 0.61611 0.38058 0.93855
 H477 H 0.51194 0.38126 0.85210
 H478 H 0.61775 0.48675 0.85248
 H479 H 0.59417 0.51130 0.81418
 H480 H 0.48796 0.40539 0.81383
 C481 C 0.88025 0.41076 0.84366
 C482 C 0.86654 0.43366 0.85459
 C483 C 0.88032 0.47017 0.84348
 C484 C 0.90776 0.48381 0.82160
 C485 C 0.92182 0.46106 0.81052
 C486 C 0.90770 0.42433 0.82177
 C487 C 0.83859 0.41986 0.87736
 C488 C 0.81531 0.40846 0.89651
 C489 C 0.78820 0.39525 0.91904
 C490 C 0.76518 0.38404 0.93837
 H491 H 0.86981 0.38246 0.85211
 H492 H 0.86994 0.48816 0.85179
 H493 H 0.91801 0.51219 0.81344
 H494 H 0.91791 0.40610 0.81373
 C495 C 0.53102 0.11989 0.84381
 C496 C 0.56763 0.13360 0.85469
 C497 C 0.59034 0.11984 0.84350
 C498 C 0.57650 0.09240 0.82161
 C499 C 0.53968 0.07832 0.81059
 C500 C 0.51710 0.09244 0.82191
 C501 C 0.58181 0.16154 0.87747
 C502 C 0.59371 0.18481 0.89664
 C503 C 0.60762 0.21192 0.91918
 C504 C 0.61945 0.23496 0.93851
 H505 H 0.51319 0.13034 0.85232
 H506 H 0.61872 0.13023 0.85177
 H507 H 0.59461 0.08214 0.81339
 H508 H 0.48865 0.08222 0.81392
   
