data_POSCAR
  _audit_creation_date              2014-09-24
  _audit_creation_method            'ToBaCCo'
  _symmetry_space_group_name_H-M    'P1'
  _symmetry_Int_Tables_number       1
  _symmetry_cell_setting            triclinic
  loop_
  _symmetry_equiv_pos_as_xyz
 x,y,z
_cell_length_a 32.3962
_cell_length_b 31.8762
_cell_length_c 32.7859
_cell_angle_alpha 89.449700
_cell_angle_beta 90.160100
_cell_angle_gamma 89.428100
loop_
  _atom_site_label
  _atom_site_type_symbol
  _atom_site_fract_x
  _atom_site_fract_y
  _atom_site_fract_z
N1 N 0.19097 1.27747 0.16669
 N2 N 0.16076 1.27486 0.19316
 C3 C 0.13083 1.30252 0.18274
 C4 C 0.14283 1.32388 0.14757
 C5 C 0.18153 1.30709 0.13860
 H6 H 0.10230 1.30602 0.19939
 H7 H 0.20124 1.31479 0.11312
 Cu8 Cu 0.16297 1.23512 0.23851
 Cu9 Cu 0.23929 1.24068 0.16997
 Cu10 Cu 0.21915 1.14798 0.22193
 N11 N 0.16006 1.18686 0.27495
 N12 N 0.18206 1.15282 0.26828
 C13 C 0.17234 1.12339 0.29617
 C14 C 0.14229 1.13968 0.32197
 C15 C 0.13553 1.18034 0.30741
 H16 H 0.18557 1.09215 0.29658
 H17 H 0.11359 1.20323 0.31854
 N18 N 0.26526 1.15425 0.18331
 N19 N 0.27361 1.18985 0.16439
 C20 C 0.30635 1.18398 0.13984
 C21 C 0.31943 1.14255 0.14351
 C22 C 0.29265 1.12479 0.17153
 H23 H 0.31901 1.20797 0.12015
 H24 H 0.29238 1.09252 0.18192
 H25 H 0.19755 1.19657 0.18440
 H26 H 0.23355 1.20949 0.22688
 N27 N 0.81082 0.72782 0.16350
 N28 N 0.84354 0.73169 0.18689
 C29 C 0.87179 0.70246 0.17658
 C30 C 0.85594 0.67882 0.14497
 C31 C 0.81699 0.69581 0.13769
 H32 H 0.90213 0.69961 0.19014
 H33 H 0.79493 0.68632 0.11484
 Cu34 Cu 0.84652 0.77613 0.22694
 Cu35 Cu 0.76331 0.76567 0.16743
 Cu36 Cu 0.78280 0.85846 0.21852
 N37 N 0.84586 0.81963 0.26816
 N38 N 0.82081 0.85209 0.26442
 C39 C 0.82859 0.87940 0.29440
 C40 C 0.86052 0.86335 0.31855
 C41 C 0.87040 0.82503 0.30085
 H42 H 0.81285 0.90926 0.29724
 H43 H 0.89455 0.80328 0.30996
 N44 N 0.73548 0.85138 0.18152
 N45 N 0.72749 0.81589 0.16283
 C46 C 0.69395 0.82148 0.13896
 C47 C 0.67999 0.86251 0.14291
 C48 C 0.70711 0.88039 0.17033
 H49 H 0.68135 0.79764 0.11943
 H50 H 0.70705 0.91252 0.18054
 H51 H 0.80332 0.81308 0.17700
 H52 H 0.77379 0.79619 0.22297
 N53 N 0.81032 1.27255 -0.16477
 N54 N 0.84301 1.26809 -0.18803
 C55 C 0.87139 1.29652 -0.17731
 C56 C 0.85566 1.32025 -0.14559
 C57 C 0.81664 1.30416 -0.13864
 H58 H 0.90173 1.29876 -0.19071
 H59 H 0.79464 1.31400 -0.11583
 Cu60 Cu 0.84579 1.22398 -0.22846
 Cu61 Cu 0.76262 1.23594 -0.16935
 Cu62 Cu 0.78166 1.14323 -0.22133
 N63 N 0.84509 1.18088 -0.27005
 N64 N 0.81989 1.14902 -0.26682
 C65 C 0.82771 1.12175 -0.29692
 C66 C 0.85983 1.13719 -0.32060
 C67 C 0.86978 1.17512 -0.30251
 H68 H 0.81187 1.09230 -0.30014
 H69 H 0.89409 1.19633 -0.31119
 N70 N 0.73430 1.15114 -0.18460
 N71 N 0.72651 1.18661 -0.16554
 C72 C 0.69292 1.18162 -0.14196
 C73 C 0.67871 1.14102 -0.14648
 C74 C 0.70574 1.12277 -0.17394
 H75 H 0.68045 1.20554 -0.12222
 H76 H 0.70550 1.09076 -0.18449
 H77 H 0.80236 1.18760 -0.17919
 H78 H 0.77295 1.20578 -0.22516
 N79 N 0.18574 0.72653 -0.15675
 N80 N 0.15729 0.72704 -0.18537
 C81 C 0.12979 0.69666 -0.17738
 C82 C 0.14155 0.67591 -0.14174
 C83 C 0.17739 0.69581 -0.12967
 H84 H 0.10248 0.69110 -0.19543
 H85 H 0.19547 0.68948 -0.10254
 Cu86 Cu 0.15720 0.76957 -0.22837
 Cu87 Cu 0.22950 0.76792 -0.15467
 Cu88 Cu 0.22992 0.84397 -0.23102
 N89 N 0.15776 0.81238 -0.27109
 N90 N 0.18636 0.84127 -0.27200
 C91 C 0.17838 0.86822 -0.30292
 C92 C 0.14247 0.85588 -0.32258
 C93 C 0.13050 0.82002 -0.30140
 H94 H 0.19680 0.89550 -0.30949
 H95 H 0.10334 0.80147 -0.30669
 N96 N 0.27132 0.84141 -0.18685
 N97 N 0.27116 0.81247 -0.15783
 C98 C 0.30152 0.82061 -0.13099
 C99 C 0.32184 0.85655 -0.14352
 C100 C 0.30179 0.86870 -0.17921
 H101 H 0.30741 0.80242 -0.10360
 H102 H 0.30795 0.89619 -0.19761
 H103 H 0.19716 0.81544 -0.18452
 H104 H 0.23053 0.78087 -0.21646
 Si105 Si 0.49816 1.00262 -0.00255
 Si106 Si -0.00424 0.49766 1.00054
 Si107 Si 1.00003 -0.00078 0.49937
 C108 C 0.07344 0.41300 1.07858
 C109 C 0.05731 0.39622 1.11461
 C110 C 0.08036 0.36727 1.13774
 C111 C 0.12013 0.35438 1.12513
 C112 C 0.13622 0.37226 1.08900
 C113 C 0.11302 0.40119 1.06599
 C114 C 0.04886 0.44125 1.05385
 C115 C 0.02792 0.46425 1.03281
 H116 H 0.02664 0.40517 1.12464
 H117 H 0.06647 0.35492 1.16521
 H118 H 0.16653 0.36383 1.07790
 H119 H 0.12582 0.41401 1.03808
 C120 C -0.07984 0.58397 1.07678
 C121 C -0.11712 0.60080 1.06209
 C122 C -0.13848 0.63104 1.08460
 C123 C -0.12271 0.64501 1.12211
 C124 C -0.08557 0.62723 1.13693
 C125 C -0.06431 0.59699 1.11438
 C126 C -0.05653 0.55484 1.05249
 C127 C -0.03623 0.53132 1.03192
 H128 H -0.12933 0.59106 1.03291
 H129 H -0.16678 0.64405 1.07204
 H130 H -0.07266 0.63676 1.16581
 H131 H -0.03545 0.58418 1.12603
 C132 C -0.07971 0.41308 0.92353
 C133 C -0.06437 0.40008 0.88583
 C134 C -0.08575 0.37049 0.86300
 C135 C -0.12284 0.35337 0.87762
 C136 C -0.13842 0.36731 0.91524
 C137 C -0.11693 0.39689 0.93804
 C138 C -0.05632 0.44158 0.94805
 C139 C -0.03603 0.46461 0.96883
 H140 H -0.03556 0.41240 0.87431
 H141 H -0.07299 0.36097 0.83404
 H142 H -0.16668 0.35478 0.92765
 H143 H -0.12901 0.40663 0.96728
 C144 C 0.07343 0.58233 0.92464
 C145 C 0.11020 0.59789 0.94067
 C146 C 0.13280 0.62764 0.91878
 C147 C 0.11885 0.64244 0.88047
 C148 C 0.08222 0.62581 0.86428
 C149 C 0.05968 0.59606 0.88627
 C150 C 0.04891 0.55376 0.94838
 C151 C 0.02798 0.53071 0.96881
 H152 H 0.12110 0.58752 0.97041
 H153 H 0.16077 0.63939 0.93238
 H154 H 0.07049 0.63600 0.83489
 H155 H 0.03121 0.58423 0.87358
 C156 C 1.07739 0.07533 0.41509
 C157 C 1.06793 0.11731 0.40624
 C158 C 1.08987 0.13893 0.37611
 C159 C 1.12162 0.11876 0.35401
 C160 C 1.13139 0.07664 0.36414
 C161 C 1.10940 0.05522 0.39429
 C162 C 1.05298 0.05208 0.44392
 C163 C 1.03214 0.03167 0.46695
 H164 H 1.04311 0.13318 0.42216
 H165 H 1.08118 0.17119 0.36995
 H166 H 1.15560 0.05962 0.34862
 H167 H 1.11696 0.02266 0.40089
 C168 C 1.07706 -0.07922 0.58375
 C169 C 1.11482 -0.06404 0.59768
 C170 C 1.13692 -0.08588 0.62793
 C171 C 1.12147 -0.12337 0.64509
 C172 C 1.08382 -0.13885 0.62980
 C173 C 1.06184 -0.11686 0.59954
 C174 C 1.05289 -0.05500 0.55496
 C175 C 1.03214 -0.03393 0.53192
 H176 H 1.12688 -0.03486 0.58566
 H177 H 1.16572 -0.07265 0.63806
 H178 H 1.07058 -0.16753 0.64143
 H179 H 1.03257 -0.12889 0.58898
 C180 C 0.92341 -0.07532 0.41409
 C181 C 0.88913 -0.05622 0.39550
 C182 C 0.86771 -0.07682 0.36467
 C183 C 0.88038 -0.11702 0.35160
 C184 C 0.91432 -0.13639 0.37163
 C185 C 0.93566 -0.11561 0.40246
 C186 C 0.94739 -0.05250 0.44330
 C187 C 0.96801 -0.03249 0.46659
 H188 H 0.87940 -0.02497 0.40428
 H189 H 0.84173 -0.06056 0.35086
 H190 H 0.92524 -0.16726 0.36326
 H191 H 0.96223 -0.13069 0.41666
 C192 C 0.92313 0.07502 0.58420
 C193 C 0.88869 0.05659 0.60228
 C194 C 0.86713 0.07750 0.63299
 C195 C 0.87983 0.11732 0.64645
 C196 C 0.91393 0.13603 0.62692
 C197 C 0.93540 0.11495 0.59622
 C198 C 0.94723 0.05184 0.55513
 C199 C 0.96794 0.03150 0.53196
 H200 H 0.87893 0.02562 0.59321
 H201 H 0.84103 0.06174 0.64642
 H202 H 0.92487 0.16660 0.63559
 H203 H 0.96209 0.12951 0.58241
 C204 C 0.41302 1.07820 0.07467
 C205 C 0.40019 1.11860 0.06297
 C206 C 0.37035 1.13995 0.08578
 C207 C 0.35279 1.12104 0.12054
 C208 C 0.36656 1.08070 0.13242
 C209 C 0.39640 1.05947 0.10961
 C210 C 0.44179 1.05510 0.04994
 C211 C 0.46499 1.03484 0.02907
 H212 H 0.41274 1.13333 0.03586
 H213 H 0.36045 1.17079 0.07551
 H214 H 0.35421 1.06528 0.15919
 H215 H 0.40611 1.02819 0.11894
 C216 C 0.58281 1.07844 -0.07982
 C217 C 0.59650 1.11776 -0.06726
 C218 C 0.62699 1.13867 -0.08944
 C219 C 0.64437 1.12036 -0.12442
 C220 C 0.62963 1.08123 -0.13727
 C221 C 0.59913 1.06045 -0.11508
 C222 C 0.55383 1.05538 -0.05538
 C223 C 0.53070 1.03504 -0.03456
 H224 H 0.58421 1.13189 -0.03986
 H225 H 0.63762 1.16858 -0.07846
 H226 H 0.64181 1.06636 -0.16426
 H227 H 0.58879 1.02998 -0.12505
 C228 C 0.41475 0.92431 -0.07788
 C229 C 0.40038 0.93941 -0.11555
 C230 C 0.37087 0.91699 -0.13733
 C231 C 0.35511 0.87910 -0.12164
 C232 C 0.37057 0.86378 -0.08408
 C233 C 0.40008 0.88628 -0.06238
 C234 C 0.44300 0.94881 -0.05423
 C235 C 0.46573 0.96988 -0.03393
 H236 H 0.41150 0.96889 -0.12781
 H237 H 0.36010 0.92987 -0.16611
 H238 H 0.35957 0.83477 -0.07093
 H239 H 0.41096 0.87433 -0.03318
 C240 C 0.58418 0.92658 0.07515
 C241 C 0.59757 0.88670 0.06322
 C242 C 0.62807 0.86536 0.08574
 C243 C 0.64574 0.88378 0.12044
 C244 C 0.63133 0.92353 0.13264
 C245 C 0.60083 0.94475 0.11011
 C246 C 0.55499 0.94989 0.05050
 C247 C 0.53153 0.97030 0.02955
 H248 H 0.58500 0.87242 0.03608
 H249 H 0.63844 0.83498 0.07525
 H250 H 0.64374 0.93853 0.15940
 H251 H 0.59069 0.97563 0.11962
   
