data_POSCAR
  _audit_creation_date              2014-09-24
  _audit_creation_method            'ToBaCCo'
  _symmetry_space_group_name_H-M    'P1'
  _symmetry_Int_Tables_number       1
  _symmetry_cell_setting            triclinic
  loop_
  _symmetry_equiv_pos_as_xyz
 x,y,z
_cell_length_a 44.2575
_cell_length_b 44.4004
_cell_length_c 44.5296
_cell_angle_alpha 90.378700
_cell_angle_beta 90.092300
_cell_angle_gamma 89.858900
loop_
  _atom_site_label
  _atom_site_type_symbol
  _atom_site_fract_x
  _atom_site_fract_y
  _atom_site_fract_z
C1 C 0.18949 0.21345 0.22744
 N2 N 0.20771 0.18908 0.23121
 C3 C 0.23089 0.18364 0.21190
 N4 N 0.23576 0.20276 0.18875
 C5 C 0.21769 0.22717 0.18479
 N6 N 0.19457 0.23240 0.20420
 C7 C 0.68406 0.71289 0.72564
 N8 N 0.68826 0.73144 0.70192
 C9 C 0.71092 0.72622 0.68206
 N10 N 0.72953 0.70217 0.68604
 C11 C 0.72557 0.68344 0.70968
 N12 N 0.70278 0.68888 0.72945
 C13 C 0.31782 0.79277 0.72495
 N14 N 0.31323 0.77331 0.70170
 C15 C 0.28991 0.77754 0.68235
 N16 N 0.27105 0.80145 0.68636
 C17 C 0.27539 0.82105 0.70949
 N18 N 0.29886 0.81655 0.72875
 C19 C 0.81649 0.28429 0.22900
 N20 N 0.81124 0.26526 0.20550
 C21 C 0.78678 0.26931 0.18744
 N22 N 0.76754 0.29251 0.19301
 C23 C 0.77255 0.31164 0.21642
 N24 N 0.79704 0.30743 0.23429
 C25 C 0.81304 0.71183 0.26882
 N26 N 0.79398 0.68836 0.26407
 C27 C 0.77005 0.68390 0.28253
 N28 N 0.76525 0.70312 0.30592
 C29 C 0.78415 0.72666 0.31089
 N30 N 0.80805 0.73094 0.29228
 C31 C 0.31885 0.21157 -0.22544
 N32 N 0.29945 0.18831 -0.22983
 C33 C 0.27577 0.18399 -0.21092
 N34 N 0.27162 0.20324 -0.18746
 C35 C 0.29087 0.22663 -0.18282
 N36 N 0.31441 0.23070 -0.20185
 C37 C 0.68391 0.29006 -0.22582
 N38 N 0.68832 0.27102 -0.20244
 C39 C 0.71182 0.27518 -0.18325
 N40 N 0.73105 0.29860 -0.18756
 C41 C 0.72688 0.31779 -0.21085
 N42 N 0.70322 0.31335 -0.22991
 C43 C 0.18345 0.78613 0.27218
 N44 N 0.18746 0.76768 0.29603
 C45 C 0.21035 0.77254 0.31578
 N46 N 0.22938 0.79612 0.31152
 C47 C 0.22563 0.81478 0.28774
 N48 N 0.20258 0.80966 0.26811
 C49 C 0.46577 0.43759 0.48155
 N50 N 0.48417 0.44249 0.45773
 C51 C 0.47908 0.46608 0.43909
 N52 N 0.45538 0.48481 0.44442
 C53 C 0.43680 0.48012 0.46821
 N54 N 0.44208 0.45648 0.48669
 C55 C -0.03606 -0.06415 0.97395
 N56 N -0.01723 -0.05968 0.95038
 C57 C -0.02237 -0.03690 0.93084
 N58 N -0.04660 -0.01848 0.93498
 C59 C -0.06565 -0.02271 0.95846
 N60 N -0.06024 -0.04562 0.97790
 C61 C 1.03919 0.56965 0.97433
 N62 N 1.06239 0.55011 0.97881
 C63 C 1.06680 0.52642 0.95980
 N64 N 1.04778 0.52234 0.93620
 C65 C 1.02447 0.54172 0.93147
 N66 N 1.02027 0.56530 0.95058
 C67 C 0.53801 0.06345 0.47798
 N68 N 0.51921 0.05913 0.45417
 C69 C 0.52331 0.03533 0.43530
 N70 N 0.54641 0.01576 0.44036
 C71 C 0.56534 0.01986 0.46413
 N72 N 0.56098 0.04376 0.48282
 C73 C -0.03659 0.06196 0.51928
 N74 N -0.05989 0.04271 0.51443
 C75 C -0.06421 0.01873 0.53269
 N76 N -0.04490 0.01411 0.55603
 C77 C -0.02150 0.03321 0.56108
 N78 N -0.01743 0.05712 0.54264
 C79 C 0.46475 0.56531 0.02155
 N80 N 0.44141 0.54613 0.01628
 C81 C 0.43622 0.52269 0.03499
 N82 N 0.45455 0.51850 0.05914
 C83 C 0.47792 0.53757 0.06460
 N84 N 0.48290 0.56091 0.04573
 C85 C 0.53467 -0.06230 0.01902
 N86 N 0.51632 -0.05745 0.04298
 C87 C 0.52121 -0.03382 0.06194
 N88 N 0.54471 -0.01495 0.05678
 C89 C 0.56324 -0.01956 0.03284
 N90 N 0.55813 -0.04324 0.01409
 C91 C 1.03804 0.43161 0.52078
 N92 N 1.06061 0.45162 0.51581
 C93 C 1.06460 0.47565 0.53438
 N94 N 1.04577 0.47966 0.55817
 C95 C 1.02307 0.45980 0.56339
 N96 N 1.01931 0.43585 0.54464
 C97 C 0.42258 0.01000 0.21083
 H98 H 0.42397 0.03005 0.22469
 C99 C 0.44243 0.00606 0.18678
 H100 H 0.45903 0.02329 0.18213
 C101 C 0.39955 -0.03704 0.20046
 H102 H 0.38327 -0.05411 0.20626
 C103 C 0.41894 -0.04190 0.17617
 H104 H 0.41730 -0.06292 0.16390
 N105 N 0.40138 -0.01121 0.21694
 C106 C 0.32938 0.03650 0.26448
 H107 H 0.32768 0.02288 0.28447
 C108 C 0.31019 0.06122 0.26071
 H109 H 0.29430 0.06660 0.27836
 C110 C 0.35310 0.04610 0.21788
 H111 H 0.36958 0.03999 0.20106
 C112 C 0.33440 0.07101 0.21320
 H113 H 0.33690 0.08400 0.19285
 Zn114 Zn 0.37564 -0.00427 0.25026
 N115 N 0.35053 0.02964 0.24339
 C116 C 0.39859 0.02827 0.30061
 N117 N 0.40069 0.00240 0.28420
 C118 C 0.42149 -0.01909 0.29100
 C119 C 0.44090 -0.01529 0.31550
 C120 C 0.41751 0.03298 0.32531
 C121 C 0.32928 -0.04436 0.23491
 C122 C 0.30944 -0.06850 0.23843
 C123 C 0.33231 -0.07846 0.28665
 C124 C 0.35167 -0.05411 0.28222
 N125 N 0.35002 -0.03779 0.25653
 H126 H 0.38239 0.04540 0.29454
 H127 H 0.42284 -0.03935 0.27743
 H128 H 0.45657 -0.03320 0.32080
 H129 H 0.41544 0.05366 0.33820
 H130 H 0.32831 -0.03088 0.21478
 H131 H 0.29382 -0.07363 0.22045
 H132 H 0.33401 -0.09128 0.30721
 H133 H 0.36785 -0.04822 0.29944
 C134 C 0.31251 0.07882 0.23465
 C135 C 0.44053 -0.01993 0.16880
 C136 C 0.31069 -0.08584 0.26476
 C137 C 0.43915 0.01120 0.33295
 C138 C 0.07957 -0.01136 0.70754
 H139 H 0.07839 -0.03152 0.72100
 C140 C 0.05963 -0.00743 0.68356
 H141 H 0.04317 -0.02477 0.67855
 C142 C 0.10206 0.03602 0.69822
 H143 H 0.11811 0.05324 0.70444
 C144 C 0.08256 0.04088 0.67402
 H145 H 0.08392 0.06203 0.66223
 N146 N 0.10049 0.01005 0.71416
 C147 C 0.17272 -0.03634 0.76208
 H148 H 0.17396 -0.02252 0.78215
 C149 C 0.19258 -0.06055 0.75832
 H150 H 0.20850 -0.06540 0.77608
 C151 C 0.14954 -0.04687 0.71519
 H152 H 0.13301 -0.04128 0.69826
 C153 C 0.16892 -0.07132 0.71053
 H154 H 0.16692 -0.08451 0.69007
 Zn155 Zn 0.12596 0.00340 0.74767
 N156 N 0.15157 -0.03014 0.74081
 C157 C 0.10305 -0.02920 0.79742
 N158 N 0.10072 -0.00345 0.78120
 C159 C 0.07956 0.01779 0.78790
 C160 C 0.05998 0.01384 0.81212
 C161 C 0.08399 -0.03405 0.82185
 C162 C 0.17205 0.04372 0.73335
 C163 C 0.19180 0.06788 0.73741
 C164 C 0.16840 0.07793 0.78543
 C165 C 0.14913 0.05354 0.78046
 N166 N 0.15112 0.03715 0.75463
 H167 H 0.11956 -0.04612 0.79142
 H168 H 0.07806 0.03796 0.77448
 H169 H 0.04400 0.03154 0.81739
 H170 H 0.08623 -0.05463 0.83461
 H171 H 0.17326 0.03018 0.71310
 H172 H 0.20762 0.07301 0.71970
 H173 H 0.16648 0.09078 0.80611
 H174 H 0.13279 0.04764 0.79739
 C175 C 0.19093 -0.07833 0.73210
 C176 C 0.06115 0.01877 0.66622
 C177 C 0.19027 0.08522 0.76393
 C178 C 0.06197 -0.01254 0.82937
 C179 C 0.57724 0.48276 0.20980
 H180 H 0.57583 0.46243 0.22298
 C181 C 0.55800 0.48677 0.18524
 H182 H 0.54236 0.46898 0.17952
 C183 C 0.60028 0.53001 0.20113
 H184 H 0.61651 0.54698 0.20756
 C185 C 0.58155 0.53493 0.17639
 H186 H 0.58376 0.55562 0.16383
 N187 N 0.59805 0.50409 0.21705
 C188 C 0.66954 0.45667 0.26493
 H189 H 0.67062 0.47004 0.28530
 C190 C 0.68961 0.43274 0.26065
 H191 H 0.70606 0.42766 0.27794
 C192 C 0.64721 0.44758 0.21735
 H193 H 0.63118 0.45391 0.20019
 C194 C 0.66684 0.42344 0.21213
 H195 H 0.66560 0.41178 0.19078
 Zn196 Zn 0.62319 0.49697 0.25070
 N197 N 0.64865 0.46340 0.24357
 C198 C 0.59955 0.46380 0.29970
 N199 N 0.59777 0.48994 0.28405
 C200 C 0.57687 0.51134 0.29104
 C201 C 0.55725 0.50724 0.31519
 C202 C 0.58039 0.45877 0.32404
 C203 C 0.66981 0.53677 0.23696
 C204 C 0.68974 0.56073 0.24121
 C205 C 0.66617 0.57091 0.28912
 C206 C 0.64671 0.54669 0.28396
 N207 N 0.64859 0.53045 0.25802
 H208 H 0.61558 0.44660 0.29318
 H209 H 0.57551 0.53166 0.27783
 H210 H 0.54085 0.52461 0.32056
 H211 H 0.58195 0.43751 0.33563
 H212 H 0.67122 0.52308 0.21681
 H213 H 0.70642 0.56550 0.22413
 H214 H 0.66455 0.58298 0.31022
 H215 H 0.63040 0.54071 0.30090
 C216 C 0.68824 0.41555 0.23415
 C217 C 0.55996 0.51329 0.16822
 C218 C 0.68787 0.57839 0.26736
 C219 C 0.55911 0.48090 0.33231
 C220 C 0.92111 0.51399 0.70759
 H221 H 0.92224 0.53437 0.72100
 C222 C 0.94057 0.51008 0.68320
 H223 H 0.95605 0.52804 0.67784
 C224 C 0.89864 0.46647 0.69826
 H225 H 0.88256 0.44934 0.70439
 C226 C 0.91764 0.46164 0.67368
 H227 H 0.91577 0.44086 0.66094
 N228 N 0.90047 0.49248 0.71446
 C229 C 0.82857 0.53961 0.76277
 H230 H 0.82755 0.52623 0.78296
 C231 C 0.80877 0.56385 0.75903
 H232 H 0.79311 0.56913 0.77691
 C233 C 0.85115 0.54906 0.71558
 H234 H 0.86742 0.54304 0.69851
 C235 C 0.83183 0.57350 0.71093
 H236 H 0.83363 0.58624 0.69035
 Zn237 Zn 0.87523 0.49948 0.74816
 N238 N 0.84944 0.53289 0.74135
 C239 C 0.89856 0.53299 0.79770
 N240 N 0.90073 0.50695 0.78159
 C241 C 0.92188 0.48578 0.78835
 C242 C 0.94156 0.49009 0.81254
 C243 C 0.91776 0.53821 0.82209
 C244 C 0.82924 0.45863 0.73412
 C245 C 0.80969 0.43438 0.73828
 C246 C 0.83335 0.42532 0.78630
 C247 C 0.85243 0.44976 0.78122
 N248 N 0.85023 0.46570 0.75533
 H249 H 0.88207 0.54985 0.79166
 H250 H 0.92326 0.46537 0.77501
 H251 H 0.95748 0.47241 0.81785
 H252 H 0.91563 0.55902 0.83477
 H253 H 0.82783 0.47183 0.71382
 H254 H 0.79386 0.42886 0.72059
 H255 H 0.83545 0.41283 0.80702
 H256 H 0.86881 0.45605 0.79812
 C257 C 0.81018 0.58111 0.73268
 C258 C 0.93908 0.48346 0.66594
 C259 C 0.81145 0.41748 0.76485
 C260 C 0.93974 0.51676 0.82971
 C261 C 0.20853 0.42162 0.01560
 H262 H 0.22182 0.42264 0.03600
 C263 C 0.18424 0.44135 0.01167
 H264 H 0.17876 0.45694 0.02960
 C265 C 0.19950 0.39925 -0.03201
 H266 H 0.20575 0.38314 -0.04918
 C267 C 0.17500 0.41849 -0.03685
 H268 H 0.16242 0.41678 -0.05768
 N269 N 0.21555 0.40098 -0.00599
 C270 C 0.26415 0.32941 0.04034
 H271 H 0.28453 0.32839 0.02697
 C272 C 0.26016 0.30939 0.06403
 H273 H 0.27768 0.29304 0.06891
 C274 C 0.21632 0.35157 0.04973
 H275 H 0.19897 0.36754 0.04363
 C276 C 0.21139 0.33198 0.07364
 H277 H 0.19005 0.33318 0.08536
 Zn278 Zn 0.24942 0.37578 0.00077
 N279 N 0.24254 0.35020 0.03389
 C280 C 0.29887 0.39938 0.03429
 N281 N 0.28293 0.40117 0.00821
 C282 C 0.28957 0.42226 -0.01275
 C283 C 0.31356 0.44214 -0.00824
 C284 C 0.32307 0.41881 0.03972
 C285 C 0.23532 0.32981 -0.03998
 C286 C 0.23943 0.31023 -0.06430
 C287 C 0.28764 0.33373 -0.07369
 C288 C 0.28260 0.35284 -0.04917
 N289 N 0.25663 0.35073 -0.03304
 H290 H 0.29262 0.38319 0.05115
 H291 H 0.27612 0.42361 -0.03301
 H292 H 0.31859 0.45872 -0.02524
 H293 H 0.33484 0.41726 0.06094
 H294 H 0.21496 0.32849 -0.02663
 H295 H 0.22164 0.29445 -0.06972
 H296 H 0.30841 0.33576 -0.08635
 H297 H 0.29957 0.36919 -0.04298
 C298 C 0.23370 0.31071 0.08127
 C299 C 0.16723 0.44007 -0.01503
 C300 C 0.26606 0.31191 -0.08142
 C301 C 0.33090 0.44038 0.01808
 C302 C 0.70991 0.08000 -0.01531
 H303 H 0.72304 0.07854 -0.03574
 C304 C 0.68565 0.06050 -0.01089
 H305 H 0.68009 0.04412 -0.02816
 C306 C 0.70175 0.10268 0.03230
 H307 H 0.70855 0.11862 0.04942
 C308 C 0.67730 0.08362 0.03764
 H309 H 0.66589 0.08521 0.05904
 N310 N 0.71728 0.10079 0.00601
 C311 C 0.76600 0.17153 -0.04121
 H312 H 0.78650 0.17237 -0.02796
 C313 C 0.76211 0.19125 -0.06522
 H314 H 0.78019 0.20666 -0.07048
 C315 C 0.71816 0.14953 -0.05050
 H316 H 0.70091 0.13351 -0.04450
 C317 C 0.71334 0.16880 -0.07471
 H318 H 0.69243 0.16722 -0.08730
 Zn319 Zn 0.75130 0.12550 -0.00124
 N320 N 0.74432 0.15102 -0.03449
 C321 C 0.80073 0.10143 -0.03460
 N322 N 0.78454 0.09962 -0.00874
 C323 C 0.79122 0.07867 0.01240
 C324 C 0.81545 0.05888 0.00832
 C325 C 0.82518 0.08211 -0.03960
 C326 C 0.73834 0.17176 0.03975
 C327 C 0.74322 0.19127 0.06397
 C328 C 0.79155 0.16731 0.07229
 C329 C 0.78574 0.14828 0.04787
 N330 N 0.75930 0.15054 0.03242
 H331 H 0.79476 0.11780 -0.05143
 H332 H 0.77783 0.07761 0.03268
 H333 H 0.82074 0.04317 0.02601
 H334 H 0.83798 0.08399 -0.06022
 H335 H 0.71777 0.17349 0.02670
 H336 H 0.72621 0.20796 0.06957
 H337 H 0.81303 0.16537 0.08370
 H338 H 0.80261 0.13200 0.04109
 C339 C 0.73533 0.19015 -0.08226
 C340 C 0.66878 0.06231 0.01569
 C341 C 0.76992 0.18899 0.08084
 C342 C 0.83276 0.06039 -0.01811
 C343 C 0.20792 0.57985 0.48645
 H344 H 0.22128 0.57859 0.46615
 C345 C 0.18415 0.55974 0.49077
 H346 H 0.17919 0.54311 0.47356
 C347 C 0.19876 0.60256 0.53386
 H348 H 0.20502 0.61875 0.55096
 C349 C 0.17477 0.58290 0.53911
 H350 H 0.16315 0.58430 0.56040
 N351 N 0.21458 0.60090 0.50774
 C352 C 0.26275 0.67197 0.46055
 H353 H 0.28307 0.67318 0.47404
 C354 C 0.25897 0.69135 0.43625
 H355 H 0.27696 0.70688 0.43104
 C356 C 0.21530 0.64929 0.45086
 H357 H 0.19817 0.63313 0.45680
 C358 C 0.21059 0.66822 0.42636
 H359 H 0.18989 0.66624 0.41349
 Zn360 Zn 0.24822 0.62616 0.50071
 N361 N 0.24121 0.65128 0.46719
 C362 C 0.29780 0.60226 0.46759
 N363 N 0.28194 0.60077 0.49367
 C364 C 0.28886 0.58003 0.51495
 C365 C 0.31309 0.56026 0.51078
 C366 C 0.32222 0.58293 0.46248
 C367 C 0.23382 0.67249 0.54108
 C368 C 0.23795 0.69236 0.56517
 C369 C 0.28650 0.66925 0.57451
 C370 C 0.28145 0.64986 0.55022
 N371 N 0.25531 0.65164 0.53423
 H372 H 0.29133 0.61813 0.45047
 H373 H 0.27547 0.57889 0.53522
 H374 H 0.31836 0.54398 0.52803
 H375 H 0.33394 0.58424 0.44125
 H376 H 0.21332 0.67353 0.52784
 H377 H 0.22006 0.70811 0.57053
 H378 H 0.30742 0.66749 0.58705
 H379 H 0.29856 0.63358 0.54410
 C380 C 0.23245 0.68972 0.41885
 C381 C 0.16704 0.56122 0.51722
 C382 C 0.26476 0.69102 0.58213
 C383 C 0.33038 0.56177 0.48447
 C384 C 0.70972 0.91922 0.51176
 H385 H 0.72301 0.92064 0.53213
 C386 C 0.68570 0.93912 0.50724
 H387 H 0.68049 0.95578 0.52436
 C388 C 0.70091 0.89620 0.46441
 H389 H 0.70737 0.87996 0.44744
 C390 C 0.67666 0.91563 0.45899
 H391 H 0.66504 0.91403 0.43766
 N392 N 0.71665 0.89810 0.49062
 C393 C 0.76461 0.82695 0.53829
 H394 H 0.78510 0.82574 0.52512
 C395 C 0.76056 0.80750 0.56245
 H396 H 0.77850 0.79191 0.56792
 C397 C 0.71697 0.84969 0.54728
 H398 H 0.69988 0.86592 0.54111
 C399 C 0.71199 0.83070 0.57163
 H400 H 0.69111 0.83269 0.58417
 Zn401 Zn 0.75039 0.87291 0.49805
 N402 N 0.74310 0.84770 0.53136
 C403 C 0.79949 0.89667 0.53197
 N404 N 0.78385 0.89831 0.50571
 C405 C 0.79077 0.91921 0.48466
 C406 C 0.81477 0.93906 0.48927
 C407 C 0.82371 0.91605 0.53750
 C408 C 0.73692 0.82654 0.45754
 C409 C 0.74151 0.80672 0.43351
 C410 C 0.78991 0.83008 0.42473
 C411 C 0.78440 0.84943 0.44898
 N412 N 0.75807 0.84759 0.46457
 H413 H 0.79302 0.88063 0.54888
 H414 H 0.77755 0.92044 0.46424
 H415 H 0.82003 0.95550 0.47221
 H416 H 0.83529 0.91464 0.55884
 H417 H 0.71645 0.82517 0.47070
 H418 H 0.72436 0.79016 0.42817
 H419 H 0.81131 0.83167 0.41319
 H420 H 0.80138 0.86562 0.45552
 C421 C 0.73380 0.80913 0.57942
 C422 C 0.66861 0.93732 0.48075
 C423 C 0.76809 0.80853 0.41652
 C424 C 0.83183 0.93743 0.51578
 C425 C 0.01687 0.20681 0.41971
 H426 H 0.03704 0.22047 0.42119
 C427 C 0.01316 0.18239 0.43896
 H428 H 0.03103 0.17724 0.45469
 C429 C -0.03028 0.19683 0.39648
 H430 H -0.04734 0.20271 0.38017
 C431 C -0.03490 0.17220 0.41522
 H432 H -0.05545 0.15917 0.41295
 N433 N -0.00455 0.21336 0.39880
 C434 C 0.04281 0.26115 0.32783
 H435 H 0.02930 0.28144 0.32649
 C436 C 0.06697 0.25679 0.30814
 H437 H 0.07207 0.27394 0.29173
 C438 C 0.05205 0.21384 0.35039
 H439 H 0.04570 0.19679 0.36634
 C440 C 0.07641 0.20855 0.33115
 H441 H 0.08818 0.18726 0.33263
 Zn442 Zn 0.00219 0.24695 0.37375
 N443 N 0.03605 0.23997 0.34866
 C444 C 0.03429 0.29749 0.39712
 N445 N 0.00870 0.28073 0.39912
 C446 C -0.01278 0.28710 0.42003
 C447 C -0.00930 0.31154 0.43962
 C448 C 0.03869 0.32216 0.41624
 C449 C -0.03799 0.23215 0.32736
 C450 C -0.06258 0.23572 0.30799
 C451 C -0.07324 0.28356 0.33191
 C452 C -0.04842 0.27910 0.35076
 N453 N -0.03159 0.25352 0.34843
 H454 H 0.05141 0.29176 0.38079
 H455 H -0.03282 0.27326 0.42127
 H456 H -0.02724 0.31652 0.45534
 H457 H 0.05912 0.33537 0.41424
 H458 H -0.02410 0.21212 0.32586
 H459 H -0.06761 0.21789 0.29213
 H460 H -0.08653 0.30396 0.33422
 H461 H -0.04267 0.29613 0.36719
 C462 C 0.08434 0.23038 0.30982
 C463 C -0.01316 0.16477 0.43691
 C464 C -0.08054 0.26184 0.31008
 C465 C 0.01687 0.32938 0.43797
 C466 C -0.01547 0.71178 0.07653
 H467 H -0.03584 0.72525 0.07523
 C468 C -0.01136 0.68751 0.05686
 H469 H -0.02915 0.68224 0.04103
 C470 C 0.03181 0.70223 0.09963
 H471 H 0.04875 0.70824 0.11606
 C472 C 0.03684 0.67773 0.08042
 H473 H 0.05760 0.66492 0.08245
 N474 N 0.00584 0.71852 0.09753
 C475 C -0.04251 0.76676 0.16837
 H476 H -0.02927 0.78718 0.16966
 C477 C -0.06702 0.76279 0.18765
 H478 H -0.07268 0.78072 0.20320
 C479 C -0.05129 0.71919 0.14563
 H480 H -0.04490 0.70206 0.12952
 C481 C -0.07599 0.71430 0.16442
 H482 H -0.08857 0.69348 0.16237
 Zn483 Zn -0.00150 0.75226 0.12273
 N484 N -0.03531 0.74524 0.14771
 C485 C -0.03525 0.80116 0.09876
 N486 N -0.00877 0.78560 0.09743
 C487 C 0.01269 0.79236 0.07676
 C488 C 0.00823 0.81605 0.05677
 C489 C -0.04065 0.82506 0.07921
 C490 C 0.03868 0.73855 0.16914
 C491 C 0.06252 0.74302 0.18921
 C492 C 0.07198 0.79119 0.16620
 C493 C 0.04789 0.78580 0.14658
 N494 N 0.03202 0.75966 0.14817
 H495 H -0.05248 0.79481 0.11462
 H496 H 0.03327 0.77920 0.07576
 H497 H 0.02560 0.82114 0.04047
 H498 H -0.06221 0.83650 0.08035
 H499 H 0.02530 0.71823 0.17032
 H500 H 0.06751 0.72592 0.20576
 H501 H 0.08369 0.81247 0.16484
 H502 H 0.04165 0.80276 0.13044
 C503 C -0.08406 0.73612 0.18590
 C504 C 0.01527 0.67021 0.05853
 C505 C 0.07974 0.76945 0.18776
 C506 C -0.01856 0.83295 0.05799
 C507 C 0.48489 0.20900 0.57923
 H508 H 0.46455 0.22251 0.57810
 C509 C 0.48862 0.18446 0.55978
 H510 H 0.47059 0.17907 0.54427
 C511 C 0.53250 0.19955 0.60170
 H512 H 0.54973 0.20568 0.61778
 C513 C 0.53715 0.17481 0.58273
 H514 H 0.55790 0.16196 0.58462
 N515 N 0.50653 0.21587 0.59985
 C516 C 0.46012 0.26452 0.67166
 H517 H 0.47375 0.28469 0.67277
 C518 C 0.43602 0.26087 0.69150
 H519 H 0.43106 0.27879 0.70729
 C520 C 0.44993 0.21727 0.64884
 H521 H 0.45562 0.20015 0.63247
 C522 C 0.42560 0.21271 0.66819
 H523 H 0.41259 0.19214 0.66632
 Zn524 Zn 0.49985 0.24969 0.62516
 N525 N 0.46643 0.24301 0.65071
 C526 C 0.46628 0.29915 0.60221
 N527 N 0.49251 0.28324 0.60012
 C528 C 0.51364 0.29003 0.57912
 C529 C 0.50916 0.31417 0.55967
 C530 C 0.46088 0.32349 0.58322
 C531 C 0.54054 0.23537 0.67096
 C532 C 0.56492 0.23931 0.69052
 C533 C 0.57485 0.28724 0.66721
 C534 C 0.55025 0.28238 0.64812
 N535 N 0.53383 0.25663 0.65014
 H536 H 0.44928 0.29279 0.61830
 H537 H 0.53401 0.27660 0.57751
 H538 H 0.52630 0.31934 0.54316
 H539 H 0.43954 0.33526 0.58502
 H540 H 0.52695 0.21519 0.67222
 H541 H 0.57014 0.22158 0.70623
 H542 H 0.58774 0.30784 0.66525
 H543 H 0.54425 0.29932 0.63186
 C544 C 0.41848 0.23451 0.69001
 C545 C 0.51519 0.16706 0.56131
 C546 C 0.58234 0.26572 0.68893
 C547 C 0.48271 0.33152 0.56179
 C548 C 0.51397 0.71013 0.92117
 H549 H 0.53464 0.72305 0.92232
 C550 C 0.50937 0.68631 0.94092
 H551 H 0.52672 0.68087 0.95721
 C552 C 0.46600 0.70201 0.89891
 H553 H 0.44883 0.70865 0.88301
 C554 C 0.46047 0.67799 0.91822
 H555 H 0.43887 0.66674 0.91689
 N556 N 0.49258 0.71726 0.90044
 C557 C 0.54062 0.76333 0.82885
 H558 H 0.52753 0.78390 0.82763
 C559 C 0.56433 0.75835 0.80879
 H560 H 0.56952 0.77531 0.79222
 C561 C 0.54918 0.71593 0.85149
 H562 H 0.54271 0.69911 0.86764
 C563 C 0.57312 0.71003 0.83188
 H564 H 0.58451 0.68852 0.83328
 Zn565 Zn 0.50024 0.75043 0.87512
 N566 N 0.53369 0.74237 0.84984
 C567 C 0.53432 0.79973 0.89827
 N568 N 0.50797 0.78416 0.90018
 C569 C 0.48679 0.79140 0.92111
 C570 C 0.49136 0.81563 0.94071
 C571 C 0.53981 0.82418 0.91741
 C572 C 0.45943 0.73638 0.82923
 C573 C 0.43525 0.74065 0.80953
 C574 C 0.42649 0.78938 0.83240
 C575 C 0.45086 0.78417 0.85165
 N576 N 0.46661 0.75788 0.84990
 H577 H 0.55133 0.79303 0.88218
 H578 H 0.46630 0.77826 0.92254
 H579 H 0.47418 0.82114 0.95717
 H580 H 0.56123 0.83570 0.91578
 H581 H 0.47248 0.71575 0.82822
 H582 H 0.42961 0.72274 0.79397
 H583 H 0.41413 0.81041 0.83413
 H584 H 0.45724 0.80126 0.86780
 C585 C 0.58113 0.73157 0.81028
 C586 C 0.48253 0.66964 0.93941
 C587 C 0.41853 0.76763 0.81083
 C588 C 0.51796 0.83262 0.93882
 C589 C 0.16415 0.21965 0.24803
 C590 C 0.15790 0.20196 0.27151
 C591 C 0.13271 0.20702 0.29285
 C592 C 0.10952 0.22604 0.28824
 H593 H 0.17232 0.18278 0.27607
 H594 H 0.13363 0.19388 0.31317
 H595 H 0.15082 0.23954 0.24356
 H596 H 0.10872 0.23946 0.26810
 C597 C 0.65918 0.71921 0.74673
 C598 C 0.65340 0.70178 0.77053
 C599 C 0.62867 0.70716 0.79234
 C600 C 0.60574 0.72661 0.78820
 H601 H 0.66787 0.68260 0.77495
 H602 H 0.62976 0.69402 0.81265
 H603 H 0.64576 0.73904 0.74229
 H604 H 0.60476 0.74003 0.76808
 C605 C 0.34302 0.78845 0.74620
 C606 C 0.36269 0.76554 0.74357
 C607 C 0.38850 0.76006 0.76405
 C608 C 0.39241 0.77367 0.79080
 H609 H 0.36045 0.74993 0.72491
 H610 H 0.40483 0.74367 0.75623
 H611 H 0.34526 0.80495 0.76399
 H612 H 0.37638 0.79039 0.79849
 C613 C -0.15856 0.28058 0.24791
 C614 C -0.13821 0.25831 0.24434
 C615 C -0.11152 0.25362 0.26394
 C616 C -0.10743 0.26694 0.29081
 H617 H -0.14048 0.24272 0.22566
 H618 H -0.09472 0.23808 0.25540
 H619 H -0.15597 0.29687 0.26585
 H620 H -0.12402 0.28270 0.29931
 C621 C -0.16119 0.71609 0.24837
 C622 C -0.14148 0.73880 0.25167
 C623 C -0.11514 0.74409 0.23191
 C624 C -0.11067 0.73046 0.20526
 H625 H -0.14413 0.75433 0.27035
 H626 H -0.09890 0.76029 0.24018
 H627 H -0.15858 0.69967 0.23055
 H628 H -0.12665 0.71396 0.19710
 C629 C 0.34293 0.21536 0.75469
 C630 C 0.36318 0.23773 0.75749
 C631 C 0.38905 0.24254 0.73702
 C632 C 0.39231 0.22922 0.71004
 H633 H 0.36150 0.25334 0.77623
 H634 H 0.40599 0.25816 0.74501
 H635 H 0.34497 0.19905 0.73669
 H636 H 0.37563 0.21332 0.70209
 C637 C 0.65852 0.28587 0.75310
 C638 C 0.63850 0.26342 0.75592
 C639 C 0.61246 0.25820 0.73561
 C640 C 0.60870 0.27139 0.70879
 H641 H 0.64059 0.24809 0.77463
 H642 H 0.59582 0.24241 0.74361
 H643 H 0.65642 0.30212 0.73527
 H644 H 0.62509 0.28749 0.70090
 C645 C 0.15830 0.78026 0.25123
 C646 C 0.15275 0.79765 0.22729
 C647 C 0.12778 0.79278 0.20558
 C648 C 0.10455 0.77385 0.20979
 H649 H 0.16760 0.81641 0.22269
 H650 H 0.12898 0.80588 0.18525
 H651 H 0.14447 0.76085 0.25588
 H652 H 0.10347 0.76043 0.22990
 C653 C 0.25091 0.15734 0.21565
 C654 C 0.24730 0.13743 0.23790
 C655 C 0.26664 0.11060 0.24272
 C656 C 0.29341 0.10580 0.22932
 H657 H 0.22867 0.14031 0.25341
 H658 H 0.25799 0.09433 0.25845
 H659 H 0.26865 0.15448 0.19923
 H660 H 0.30194 0.12188 0.21335
 C661 C 0.74619 0.65761 0.71346
 C662 C 0.74363 0.63818 0.73627
 C663 C 0.76369 0.61189 0.74114
 C664 C 0.79034 0.60755 0.72733
 H665 H 0.72537 0.64103 0.75222
 H666 H 0.75573 0.59565 0.75726
 H667 H 0.76350 0.65470 0.69662
 H668 H 0.79819 0.62363 0.71101
 C669 C 0.74696 0.34172 0.78520
 C670 C 0.74404 0.36173 0.76283
 C671 C 0.76447 0.38755 0.75763
 C672 C 0.79155 0.39132 0.77076
 H673 H 0.72515 0.35990 0.74743
 H674 H 0.75630 0.40405 0.74182
 H675 H 0.76514 0.34386 0.80130
 H676 H 0.79961 0.37514 0.78695
 C677 C 0.24557 -0.16116 0.28395
 C678 C 0.24331 -0.14161 0.26111
 C679 C 0.26380 -0.11574 0.25629
 C680 C 0.29063 -0.11202 0.26998
 H681 H 0.22497 -0.14385 0.24510
 H682 H 0.25597 -0.09922 0.24033
 H683 H 0.26313 -0.15851 0.30064
 H684 H 0.29839 -0.12835 0.28615
 C685 C 0.25560 -0.15461 0.71306
 C686 C 0.25845 -0.13416 0.73528
 C687 C 0.23805 -0.10805 0.73996
 C688 C 0.21095 -0.10467 0.72676
 H689 H 0.27717 -0.13587 0.75089
 H690 H 0.24618 -0.09107 0.75546
 H691 H 0.23763 -0.15254 0.69673
 H692 H 0.20289 -0.12140 0.71098
 C693 C 0.75191 0.33701 0.22267
 C694 C 0.72721 0.34229 0.20597
 C695 C 0.70566 0.36740 0.21095
 C696 C 0.71019 0.39060 0.22992
 H697 H 0.72185 0.32714 0.18757
 H698 H 0.68508 0.36629 0.19790
 H699 H 0.75745 0.35120 0.24167
 H700 H 0.73041 0.39152 0.24350
 C701 C 0.74977 0.65819 0.27690
 C702 C 0.72571 0.65254 0.29427
 C703 C 0.70450 0.62717 0.28972
 C704 C 0.70956 0.60351 0.27145
 H705 H 0.72053 0.66767 0.31274
 H706 H 0.68379 0.62843 0.30250
 H707 H 0.75493 0.64410 0.25771
 H708 H 0.73004 0.60235 0.25832
 C709 C 0.25559 0.16017 0.78482
 C710 C 0.25828 0.14012 0.76221
 C711 C 0.23760 0.11446 0.75685
 C712 C 0.21040 0.11128 0.76975
 H713 H 0.27713 0.14177 0.74682
 H714 H 0.24564 0.09759 0.74117
 H715 H 0.23748 0.15814 0.80093
 H716 H 0.20240 0.12788 0.78573
 C717 C 0.22343 0.24750 0.15939
 C718 C 0.20653 0.27210 0.15435
 C719 C 0.21104 0.29342 0.12931
 C720 C 0.22986 0.28889 0.10607
 H721 H 0.18832 0.27758 0.16968
 H722 H 0.19780 0.31389 0.13055
 H723 H 0.24224 0.24183 0.14499
 H724 H 0.24365 0.26882 0.10503
 C725 C 0.71488 0.74683 0.65656
 C726 C 0.73673 0.74301 0.63601
 C727 C 0.74183 0.76294 0.60995
 C728 C 0.72811 0.78961 0.60572
 H729 H 0.75178 0.72384 0.63782
 H730 H 0.75795 0.75472 0.59362
 H731 H 0.69902 0.76527 0.65497
 H732 H 0.71152 0.79766 0.62163
 C733 C 0.77837 0.74706 0.33649
 C734 C 0.79620 0.77064 0.34290
 C735 C 0.79138 0.79184 0.36828
 C736 C 0.77254 0.78693 0.39136
 H737 H 0.81523 0.77543 0.32845
 H738 H 0.80444 0.81236 0.36756
 H739 H 0.75863 0.74235 0.34988
 H740 H 0.75922 0.76660 0.39200
 C741 C 0.28663 0.24772 -0.15746
 C742 C 0.26399 0.24482 -0.13768
 C743 C 0.25866 0.26512 -0.11169
 C744 C 0.27190 0.29205 -0.10772
 H745 H 0.24857 0.22605 -0.13996
 H746 H 0.24270 0.25703 -0.09529
 H747 H 0.30298 0.26562 -0.15517
 H748 H 0.28817 0.30003 -0.12386
 C749 C 0.71596 0.25413 -0.15809
 C750 C 0.73858 0.25688 -0.13816
 C751 C 0.74373 0.23655 -0.11236
 C752 C 0.72972 0.21007 -0.10835
 H753 H 0.75418 0.27551 -0.14020
 H754 H 0.76016 0.24429 -0.09608
 H755 H 0.69951 0.23633 -0.15613
 H756 H 0.71296 0.20248 -0.12432
 C757 C 0.21408 0.75205 0.34144
 C758 C 0.23608 0.75554 0.36194
 C759 C 0.24089 0.73573 0.38819
 C760 C 0.22706 0.70918 0.39238
 H761 H 0.25145 0.77437 0.35997
 H762 H 0.25690 0.74391 0.40465
 H763 H 0.19787 0.73402 0.34326
 H764 H 0.21065 0.70115 0.37626
 C765 C 0.28546 0.75606 0.65737
 C766 C 0.26286 0.75891 0.63745
 C767 C 0.25734 0.73820 0.61181
 C768 C 0.27067 0.71122 0.60815
 H769 H 0.24759 0.77792 0.63934
 H770 H 0.24123 0.74606 0.59535
 H771 H 0.30161 0.73787 0.65553
 H772 H 0.28714 0.70345 0.62429
 C773 C 0.78075 0.24908 0.16178
 C774 C 0.79889 0.22587 0.15466
 C775 C 0.79378 0.20495 0.12911
 C776 C 0.77468 0.21024 0.10624
 H777 H 0.81838 0.22117 0.16863
 H778 H 0.80687 0.18438 0.12948
 H779 H 0.76055 0.25357 0.14891
 H780 H 0.76142 0.23070 0.10593
 C781 C 0.47182 0.41176 0.50132
 C782 C 0.45464 0.40567 0.52532
 C783 C 0.45961 0.38012 0.54600
 C784 C 0.47835 0.35686 0.54065
 H785 H 0.43596 0.42050 0.53083
 H786 H 0.44673 0.38093 0.56659
 H787 H 0.49117 0.39795 0.49581
 H788 H 0.49163 0.35618 0.52033
 C789 C -0.02989 0.91090 -0.00524
 C790 C -0.04748 0.90525 0.01857
 C791 C -0.04242 0.88052 0.04020
 C792 C -0.02298 0.85759 0.03605
 H793 H -0.06661 0.91982 0.02315
 H794 H -0.05585 0.88164 0.06043
 H795 H -0.01011 0.89737 -0.00985
 H796 H -0.00919 0.85661 0.01608
 C797 C 0.03523 0.59381 -0.00575
 C798 C 0.01294 0.61421 -0.00877
 C799 C 0.00783 0.64021 0.01164
 C800 C 0.02106 0.64391 0.03859
 H801 H -0.00244 0.61253 -0.02765
 H802 H -0.00796 0.65692 0.00358
 H803 H 0.05129 0.59578 0.01245
 H804 H 0.03722 0.62753 0.04656
 C805 C 0.53397 0.08918 0.49869
 C806 C 0.51182 0.10958 0.49527
 C807 C 0.50679 0.13596 0.51523
 C808 C 0.52059 0.14037 0.54179
 H809 H 0.49653 0.10746 0.47636
 H810 H 0.49069 0.15235 0.50714
 H811 H 0.55010 0.09114 0.51682
 H812 H 0.53708 0.12431 0.54974
 C813 C -0.03258 0.08776 0.49904
 C814 C -0.01006 0.10767 0.50246
 C815 C -0.00507 0.13405 0.48289
 C816 C -0.01848 0.13816 0.45614
 H817 H 0.00549 0.10520 0.52110
 H818 H 0.01072 0.15059 0.49135
 H819 H -0.04905 0.09024 0.48130
 H820 H -0.03451 0.12182 0.44777
 C821 C 0.47075 0.59089 1.00151
 C822 C 0.45380 0.59656 0.97717
 C823 C 0.45877 0.62182 0.95617
 C824 C 0.47807 0.64468 0.96092
 H825 H 0.43527 0.58162 0.97167
 H826 H 0.44551 0.62107 0.93578
 H827 H 0.48986 0.60489 1.00719
 H828 H 0.49185 0.64525 0.98095
 C829 C 0.52908 0.91316 0.99999
 C830 C 0.54615 0.90685 0.97579
 C831 C 0.54115 0.88116 0.95497
 C832 C 0.52240 0.85803 0.96016
 H833 H 0.56478 0.92154 0.97012
 H834 H 0.55400 0.88174 0.93435
 H835 H 0.50989 0.89922 1.00539
 H836 H 0.50911 0.85754 0.98048
 C837 C 0.03458 0.40710 0.50120
 C838 C 0.01293 0.38621 0.50456
 C839 C 0.00845 0.35985 0.48444
 C840 C 0.02193 0.35600 0.45766
 H841 H -0.00238 0.38777 0.52347
 H842 H -0.00703 0.34299 0.49258
 H843 H 0.05055 0.40533 0.48295
 H844 H 0.03779 0.37252 0.44961
 C845 C 0.41090 0.50021 0.47422
 C846 C 0.40467 0.52412 0.45698
 C847 C 0.37907 0.54516 0.46175
 C848 C 0.35581 0.54028 0.48042
 H849 H 0.41944 0.52930 0.43835
 H850 H 0.37981 0.56561 0.44873
 H851 H 0.39716 0.49503 0.49352
 H852 H 0.35522 0.52013 0.49386
 C853 C 0.90965 -0.00337 -0.03783
 C854 C 0.88972 -0.00615 -0.01527
 C855 C 0.86331 0.01385 -0.01038
 C856 C 0.85925 0.04061 -0.02373
 H857 H 0.89212 -0.02448 0.00050
 H858 H 0.84676 0.00577 0.00543
 H859 H 0.90687 0.01417 -0.05432
 H860 H 0.87559 0.04862 -0.03979
 C861 C 0.58890 0.00064 0.02685
 C862 C 0.59526 0.02455 0.04433
 C863 C 0.62068 0.04562 0.03940
 C864 C 0.64348 0.04088 0.02003
 H865 H 0.58076 0.02966 0.06327
 H866 H 0.62018 0.06596 0.05285
 H867 H 0.60239 -0.00451 0.00729
 H868 H 0.64382 0.02081 0.00620
 C869 C 0.08940 0.49686 0.52835
 C870 C 0.09476 0.52107 0.54573
 C871 C 0.11941 0.54304 0.54080
 C872 C 0.14243 0.53901 0.52153
 H873 H 0.08003 0.52570 0.56461
 H874 H 0.11815 0.56340 0.55417
 H875 H 0.10312 0.49214 0.50884
 H876 H 0.14353 0.51890 0.50781
 C877 C 0.09188 0.50502 -0.03566
 C878 C 0.11148 0.50765 -0.01277
 C879 C 0.13724 0.48703 -0.00727
 C880 C 0.14103 0.46014 -0.02077
 H881 H 0.10928 0.52644 0.00270
 H882 H 0.15368 0.49487 0.00894
 H883 H 0.09410 0.48709 -0.05202
 H884 H 0.12486 0.45239 -0.03727
 C885 C 0.58928 1.00007 0.46971
 C886 C 0.59519 0.97589 0.45234
 C887 C 0.62037 0.95441 0.45738
 C888 C 0.64359 0.95916 0.47628
 H889 H 0.58058 0.97077 0.43345
 H890 H 0.61935 0.93378 0.44440
 H891 H 0.60310 1.00487 0.48918
 H892 H 0.64454 0.97955 0.48960
 C893 C 0.91154 0.99938 0.52711
 C894 C 0.90570 0.97514 0.54406
 C895 C 0.88028 0.95404 0.53899
 C896 C 0.85696 0.95903 0.52030
 H897 H 0.92056 0.96968 0.56261
 H898 H 0.88124 0.93340 0.55170
 H899 H 0.89743 1.00456 0.50800
 H900 H 0.85608 0.97936 0.50716
 C901 C 0.41071 0.50227 0.02881
 C902 C 0.40454 0.47856 0.04627
 C903 C 0.37931 0.45725 0.04124
 C904 C 0.35601 0.46206 0.02250
 H905 H 0.41911 0.47373 0.06522
 H906 H 0.38034 0.43673 0.05413
 H907 H 0.39723 0.50702 0.00915
 H908 H 0.35510 0.48238 0.00931
 C909 C 0.49879 0.47165 0.41307
 C910 C 0.52264 0.45407 0.40661
 C911 C 0.54331 0.45852 0.38091
 C912 C 0.53791 0.47701 0.35775
 H913 H 0.52808 0.43546 0.42128
 H914 H 0.56394 0.44546 0.38149
 H915 H 0.49338 0.49096 0.39943
 H916 H 0.51754 0.49046 0.35728
 C917 C -0.00148 -0.03260 0.90550
 C918 C -0.00508 -0.01047 0.88541
 C919 C 0.01510 -0.00516 0.85948
 C920 C 0.04226 -0.01817 0.85565
 H921 H -0.02431 0.00453 0.88743
 H922 H 0.00668 0.01049 0.84294
 H923 H 0.01694 -0.04849 0.90355
 H924 H 0.05059 -0.03415 0.87188
 C925 C -0.00099 0.02767 0.58658
 C926 C 0.02267 0.04555 0.59268
 C927 C 0.04406 0.04114 0.61790
 C928 C 0.03939 0.02258 0.64113
 H929 H 0.02738 0.06437 0.57808
 H930 H 0.06451 0.05434 0.61693
 H931 H -0.00563 0.00813 0.60011
 H932 H 0.01915 0.00907 0.64199
 C933 C 0.49805 0.53337 0.09063
 C934 C 0.49453 0.51074 0.11014
 C935 C 0.51402 0.50550 0.13668
 C936 C 0.54078 0.51892 0.14148
 H937 H 0.47587 0.49526 0.10715
 H938 H 0.50550 0.48950 0.15275
 H939 H 0.51581 0.54976 0.09360
 H940 H 0.54921 0.53517 0.12563
 C941 C 0.50144 -0.02840 0.08807
 C942 C 0.47760 -0.04600 0.09406
 C943 C 0.45674 -0.04175 0.11972
 C944 C 0.46195 -0.02360 0.14342
 H945 H 0.47227 -0.06446 0.07896
 H946 H 0.43611 -0.05468 0.11863
 H947 H 0.50671 -0.00921 0.10214
 H948 H 0.48234 -0.01029 0.14438
 C949 C 1.00242 0.46378 0.58908
 C950 C 1.00507 0.48673 0.60866
 C951 C 0.98517 0.49181 0.63495
 C952 C 0.95867 0.47786 0.63942
 H953 H 1.02335 0.50266 0.60597
 H954 H 0.99319 0.50821 0.65112
 H955 H 0.98506 0.44696 0.59178
 H956 H 0.95079 0.46122 0.62345
 C957 C 1.00357 0.53753 0.90596
 C958 C 1.00665 0.51484 0.88612
 C959 C 0.98651 0.50944 0.86005
 C960 C 0.95954 0.52275 0.85599
 H961 H 1.02546 0.49937 0.88844
 H962 H 0.99474 0.49334 0.84368
 H963 H 0.98565 0.55391 0.90364
 H964 H 0.95143 0.53915 0.87212
 C965 C 0.50258 0.03119 0.40966
 C966 C 0.50545 0.00827 0.39006
 C967 C 0.48549 0.00309 0.36379
 C968 C 0.45871 0.01672 0.35952
 H969 H 0.52396 -0.00751 0.39269
 H970 H 0.49370 -0.01306 0.34746
 H971 H 0.48500 0.04787 0.40699
 H972 H 0.45061 0.03310 0.37567
   
