data_POSCAR
  _audit_creation_date              2014-09-24
  _audit_creation_method            'ToBaCCo'
  _symmetry_space_group_name_H-M    'P1'
  _symmetry_Int_Tables_number       1
  _symmetry_cell_setting            triclinic
  loop_
  _symmetry_equiv_pos_as_xyz
 x,y,z
_cell_length_a 32.8242
_cell_length_b 32.8922
_cell_length_c 32.8946
_cell_angle_alpha 90.024600
_cell_angle_beta 90.032200
_cell_angle_gamma 89.975400
loop_
  _atom_site_label
  _atom_site_type_symbol
  _atom_site_fract_x
  _atom_site_fract_y
  _atom_site_fract_z
C1 C 0.28876 0.34299 0.01940
 C2 C 0.29000 0.34480 -0.02397
 C3 C 0.31571 0.31730 -0.04449
 C4 C 0.34314 0.29109 -0.02454
 C5 C 0.34173 0.28938 0.01883
 C6 C 0.31516 0.31589 0.03932
 H7 H 0.31628 0.31669 0.07200
 H8 H 0.31388 0.31582 -0.07708
 C9 C 0.71078 0.65828 0.01936
 C10 C 0.70905 0.65664 -0.02388
 C11 C 0.68265 0.68343 -0.04420
 C12 C 0.65536 0.70958 -0.02401
 C13 C 0.65738 0.71148 0.01937
 C14 C 0.68454 0.68529 0.03962
 H15 H 0.68399 0.68463 0.07231
 H16 H 0.68390 0.68428 -0.07682
 C17 C 0.70917 0.34407 0.97903
 C18 C 0.71109 0.34212 1.02241
 C19 C 0.68460 0.31500 1.04250
 C20 C 0.65757 0.28889 1.02202
 C21 C 0.65594 0.29088 0.97881
 C22 C 0.68286 0.31722 0.95870
 H23 H 0.68372 0.31641 0.92606
 H24 H 0.68356 0.31541 1.07519
 C25 C 0.28888 0.65866 0.98218
 C26 C 0.29089 0.65679 1.02553
 C27 C 0.31660 0.68460 1.04570
 C28 C 0.34248 0.71204 1.02531
 C29 C 0.34353 0.71045 0.98192
 C30 C 0.31568 0.68498 0.96187
 H31 H 0.31528 0.68517 0.92922
 H32 H 0.31695 0.68452 1.07837
 C33 C 0.02173 0.28798 0.34125
 C34 C -0.02155 0.29037 0.34392
 C35 C -0.04214 0.31701 0.31760
 C36 C -0.02209 0.34348 0.29077
 C37 C 0.02120 0.34125 0.28817
 C38 C 0.04178 0.31386 0.31379
 H39 H 0.07454 0.31400 0.31371
 H40 H -0.07486 0.31675 0.31761
 C41 C 0.02022 0.71131 0.65747
 C42 C -0.02321 0.70924 0.65540
 C43 C -0.04345 0.68301 0.68257
 C44 C -0.02312 0.65589 0.70878
 C45 C 0.02030 0.65810 0.71072
 C46 C 0.04050 0.68519 0.68455
 H47 H 0.07326 0.68468 0.68400
 H48 H -0.07615 0.68420 0.68383
 C49 C 0.97926 0.71040 0.34076
 C50 C 1.02254 0.70799 0.34303
 C51 C 1.04291 0.68210 0.31575
 C52 C 1.02262 0.65668 0.28783
 C53 C 0.97910 0.65601 0.28879
 C54 C 0.95889 0.68401 0.31403
 H55 H 0.92616 0.68477 0.31341
 H56 H 1.07564 0.68134 0.31675
 C57 C 0.98065 0.28818 0.65784
 C58 C 1.02405 0.29093 0.65536
 C59 C 1.04413 0.31762 0.68225
 C60 C 1.02358 0.34389 0.70898
 C61 C 0.98032 0.34127 0.71118
 C62 C 0.96023 0.31391 0.68521
 H63 H 0.92748 0.31398 0.68499
 H64 H 1.07685 0.31763 0.68294
 C65 C 0.34247 0.01913 0.28973
 C66 C 0.34452 -0.02423 0.29142
 C67 C 0.31672 -0.04465 0.31689
 C68 C 0.28928 -0.02454 0.34300
 C69 C 0.29087 0.01883 0.34461
 C70 C 0.31622 0.03920 0.31686
 H71 H 0.31597 0.07187 0.31676
 H72 H 0.31681 -0.07733 0.31683
 C73 C 0.65686 0.02095 0.71010
 C74 C 0.65799 -0.02233 0.71189
 C75 C 0.68409 -0.04312 0.68511
 C76 C 0.70996 -0.02324 0.65751
 C77 C 0.71170 0.02004 0.65864
 C78 C 0.68469 0.04080 0.68449
 H79 H 0.68489 0.07348 0.68414
 H80 H 0.68374 -0.07580 0.68530
 C81 C 0.34141 0.98092 0.71190
 C82 C 0.34278 1.02428 0.71013
 C83 C 0.31460 1.04426 0.68475
 C84 C 0.28747 1.02377 0.65863
 C85 C 0.28969 0.98042 0.65706
 C86 C 0.31541 0.96042 0.68480
 H87 H 0.31573 0.92774 0.68488
 H88 H 0.31421 1.07692 0.68480
 C89 C 0.65889 0.98026 0.28885
 C90 C 0.65672 1.02346 0.29119
 C91 C 0.68392 1.04376 0.31729
 C92 C 0.71156 1.02340 0.34304
 C93 C 0.71034 0.97998 0.34378
 C94 C 0.68528 0.95989 0.31556
 H95 H 0.68578 0.92722 0.31485
 H96 H 0.68307 1.07644 0.31797
 O97 O 0.83637 0.89035 0.53920
 O98 O 0.89178 0.83604 0.45892
 O99 O 0.83554 0.89181 0.46137
 O100 O 0.89297 0.83411 0.53743
 O101 O 0.84495 0.78702 0.53847
 O102 O 0.78847 0.84377 0.45985
 O103 O 0.84528 0.78743 0.45962
 O104 O 0.78838 0.84321 0.53870
 Cu105 Cu 0.86902 0.86778 0.49935
 Cu106 Cu 0.81196 0.81049 0.49909
 C107 C 0.80249 0.87670 0.55174
 C108 C 0.87841 0.80216 0.44624
 C109 C 0.80202 0.87797 0.44817
 C110 C 0.87904 0.80064 0.55053
 O111 O 0.10919 0.16227 0.45911
 O112 O 0.16236 0.10882 0.54152
 O113 O 0.10719 0.16577 0.53746
 O114 O 0.16538 0.10623 0.46325
 O115 O 0.21228 0.15439 0.46090
 O116 O 0.15616 0.21186 0.53924
 O117 O 0.21169 0.15453 0.53970
 O118 O 0.15567 0.21088 0.46042
 Cu119 Cu 0.13120 0.13105 0.50034
 Cu120 Cu 0.18883 0.18771 0.50001
 C121 C 0.12268 0.19617 0.44664
 C122 C 0.19655 0.12193 0.55377
 C123 C 0.12163 0.19896 0.55080
 C124 C 0.19882 0.11999 0.44972
 O125 O 0.16338 0.89033 0.45881
 O126 O 0.10919 0.83725 0.54078
 O127 O 0.16564 0.89300 0.53717
 O128 O 0.10758 0.83397 0.46249
 O129 O 0.15625 0.78752 0.46109
 O130 O 0.21228 0.84458 0.53991
 O131 O 0.15543 0.78836 0.53987
 O132 O 0.21244 0.84430 0.46104
 Cu133 Cu 0.13168 0.86841 0.49976
 Cu134 Cu 0.18895 0.81137 0.50056
 C135 C 0.19760 0.87700 0.44684
 C136 C 0.12239 0.80326 0.55334
 C137 C 0.19888 0.87904 0.55102
 C138 C 0.12184 0.80064 0.44932
 O139 O 0.89257 0.16198 0.54086
 O140 O 0.83739 0.10735 0.46041
 O141 O 0.89370 0.16352 0.46266
 O142 O 0.83696 0.10598 0.53937
 O143 O 0.78926 0.15346 0.54015
 O144 O 0.84531 0.21028 0.46147
 O145 O 0.78884 0.15395 0.46144
 O146 O 0.84562 0.21022 0.54022
 Cu147 Cu 0.86987 0.12985 0.50069
 Cu148 Cu 0.81239 0.18677 0.50087
 C149 C 0.87897 0.19580 0.55347
 C150 C 0.80342 0.12088 0.44787
 C151 C 0.87955 0.19691 0.44955
 C152 C 0.80342 0.11977 0.55259
 O153 O 0.45942 0.89279 0.83794
 O154 O 0.53812 0.83556 0.89292
 O155 O 0.53868 0.89223 0.83758
 O156 O 0.46030 0.83633 0.89371
 O157 O 0.45900 0.78924 0.84573
 O158 O 0.53774 0.84561 0.78914
 O159 O 0.53796 0.78859 0.84481
 O160 O 0.45883 0.84609 0.78959
 Cu161 Cu 0.49917 0.86913 0.87021
 Cu162 Cu 0.49826 0.81265 0.81241
 C163 C 0.44617 0.87949 0.80422
 C164 C 0.55072 0.80198 0.87871
 C165 C 0.55120 0.87872 0.80371
 C166 C 0.44716 0.80284 0.87986
 O167 O 0.53843 0.16287 0.10821
 O168 O 0.45798 0.10802 0.16305
 O169 O 0.45936 0.16361 0.10700
 O170 O 0.53641 0.10744 0.16511
 O171 O 0.53750 0.15604 0.21155
 O172 O 0.45842 0.21144 0.15424
 O173 O 0.45852 0.15505 0.21110
 O174 O 0.53727 0.21164 0.15446
 Cu175 Cu 0.49816 0.13074 0.13105
 Cu176 Cu 0.49782 0.18841 0.18761
 C177 C 0.55089 0.19689 0.12149
 C178 C 0.44536 0.12165 0.19684
 C179 C 0.44610 0.19721 0.12053
 C180 C 0.54962 0.12183 0.19839
 O181 O 0.53807 0.10839 0.83540
 O182 O 0.45984 0.16528 0.89112
 O183 O 0.45991 0.10885 0.83500
 O184 O 0.53799 0.16461 0.89176
 O185 O 0.53900 0.21214 0.84425
 O186 O 0.46006 0.15625 0.78736
 O187 O 0.45998 0.21278 0.84359
 O188 O 0.53910 0.15582 0.78780
 Cu189 Cu 0.49890 0.13201 0.86809
 Cu190 Cu 0.49960 0.18907 0.81092
 C191 C 0.55126 0.12196 0.80181
 C192 C 0.44723 0.19901 0.87731
 C193 C 0.44733 0.12258 0.80124
 C194 C 0.55112 0.19819 0.87814
 O195 O 0.46018 0.83756 0.10906
 O196 O 0.54105 0.89265 0.16311
 O197 O 0.53933 0.83664 0.10756
 O198 O 0.46268 0.89325 0.16577
 O199 O 0.46190 0.84488 0.21242
 O200 O 0.54051 0.78903 0.15498
 O201 O 0.54082 0.84583 0.21134
 O202 O 0.46162 0.78904 0.15552
 Cu203 Cu 0.50064 0.86973 0.13154
 Cu204 Cu 0.50132 0.81234 0.18835
 C205 C 0.44777 0.80364 0.12258
 C206 C 0.55392 0.87913 0.19684
 C207 C 0.55270 0.80313 0.12121
 C208 C 0.44975 0.87904 0.19921
 O209 O 0.89335 0.53758 0.83393
 O210 O 0.83574 0.46155 0.89180
 O211 O 0.89213 0.45902 0.83620
 O212 O 0.83690 0.53936 0.89033
 O213 O 0.78892 0.53885 0.84312
 O214 O 0.84573 0.45981 0.78745
 O215 O 0.78879 0.46003 0.84360
 O216 O 0.84532 0.53866 0.78682
 Cu217 Cu 0.86940 0.49950 0.86776
 Cu218 Cu 0.81240 0.49927 0.81037
 C219 C 0.87943 0.55072 0.80042
 C220 C 0.80222 0.44836 0.87787
 C221 C 0.87881 0.44639 0.80229
 C222 C 0.80301 0.55184 0.87663
 O223 O 0.16356 0.45992 0.10812
 O224 O 0.10831 0.54007 0.16278
 O225 O 0.16566 0.53817 0.10764
 O226 O 0.10755 0.46113 0.16362
 O227 O 0.15488 0.46028 0.21147
 O228 O 0.21208 0.53937 0.15635
 O229 O 0.15456 0.53899 0.21166
 O230 O 0.21171 0.46056 0.15516
 Cu231 Cu 0.13147 0.49998 0.13078
 Cu232 Cu 0.18808 0.49975 0.18855
 C233 C 0.19739 0.44733 0.12180
 C234 C 0.12150 0.55249 0.19684
 C235 C 0.19896 0.55139 0.12211
 C236 C 0.12122 0.44782 0.19714
 O237 O 0.89161 0.46063 0.16346
 O238 O 0.83590 0.53880 0.10645
 O239 O 0.89164 0.53831 0.16302
 O240 O 0.83567 0.45966 0.10710
 O241 O 0.78727 0.46031 0.15381
 O242 O 0.84359 0.53935 0.21010
 O243 O 0.78748 0.53907 0.15314
 O244 O 0.84356 0.46052 0.21055
 Cu245 Cu 0.86836 0.49931 0.13010
 Cu246 Cu 0.81057 0.49986 0.18664
 C247 C 0.87760 0.44804 0.19709
 C248 C 0.80208 0.55187 0.11980
 C249 C 0.87769 0.55142 0.19648
 C250 C 0.80181 0.44698 0.12065
 O251 O 0.16358 0.54169 0.89306
 O252 O 0.10799 0.46341 0.83615
 O253 O 0.16447 0.46330 0.89285
 O254 O 0.10848 0.54183 0.83675
 O255 O 0.15595 0.54156 0.78907
 O256 O 0.21222 0.46266 0.84548
 O257 O 0.15601 0.46277 0.78906
 O258 O 0.21200 0.54148 0.84634
 Cu259 Cu 0.13130 0.50235 0.86944
 Cu260 Cu 0.18892 0.50218 0.81270
 C261 C 0.19746 0.55442 0.87970
 C262 C 0.12202 0.45040 0.80264
 C263 C 0.19817 0.45026 0.87919
 C264 C 0.12237 0.55455 0.80313
 C265 C 0.26591 0.40543 0.10302
 C266 C 0.25417 0.36110 0.09256
 C267 C 0.26236 0.36976 0.04682
 C268 C 0.27429 0.41380 0.05754
 C269 C 0.21745 0.38228 0.04134
 C270 C 0.20928 0.37419 0.08688
 C271 C 0.22135 0.41811 0.09673
 C272 C 0.22929 0.42674 0.05162
 H273 H 0.28569 0.41491 0.12870
 H274 H 0.26286 0.33405 0.11076
 H275 H 0.30149 0.43029 0.04618
 H276 H 0.19522 0.37194 0.01835
 H277 H 0.18245 0.35798 0.09948
 H278 H 0.21892 0.45432 0.03513
 C279 C 0.73387 0.59385 0.10120
 C280 C 0.74550 0.63845 0.09197
 C281 C 0.73732 0.63095 0.04604
 C282 C 0.72554 0.58659 0.05551
 C283 C 0.78227 0.61864 0.04023
 C284 C 0.79042 0.62561 0.08599
 C285 C 0.77848 0.58141 0.09468
 C286 C 0.77058 0.57388 0.04936
 H287 H 0.71405 0.58367 0.12656
 H288 H 0.73671 0.66496 0.11090
 H289 H 0.69841 0.57037 0.04357
 H290 H 0.80432 0.62953 0.01736
 H291 H 0.81722 0.64156 0.09902
 H292 H 0.78109 0.54672 0.03225
 C293 C 0.78627 0.41310 0.94865
 C294 C 0.74037 0.41899 0.95810
 C295 C 0.73380 0.37298 0.95210
 C296 C 0.77929 0.36690 0.94221
 C297 C 0.72499 0.38041 0.90621
 C298 C 0.73209 0.42638 0.91250
 C299 C 0.77748 0.42019 0.90340
 C300 C 0.77072 0.37458 0.89656
 H301 H 0.81191 0.42677 0.96590
 H302 H 0.72683 0.43942 0.98108
 H303 H 0.79893 0.34193 0.95368
 H304 H 0.69973 0.36878 0.88704
 H305 H 0.71272 0.45100 0.89985
 H306 H 0.78323 0.35651 0.87093
 C307 C 0.26556 0.59665 0.89861
 C308 C 0.25347 0.64081 0.90935
 C309 C 0.26207 0.63200 0.95502
 C310 C 0.27430 0.58810 0.94399
 C311 C 0.21731 0.61907 0.96069
 C312 C 0.20876 0.62732 0.91523
 C313 C 0.22117 0.58356 0.90508
 C314 C 0.22947 0.57475 0.95009
 H315 H 0.28528 0.58747 0.87279
 H316 H 0.26166 0.66801 0.89117
 H317 H 0.30171 0.57176 0.95511
 H318 H 0.19505 0.62917 0.98375
 H319 H 0.18171 0.64336 0.90285
 H320 H 0.21948 0.54699 0.96650
 C321 C 0.05252 0.22810 0.42505
 C322 C 0.05885 0.27299 0.41237
 C323 C 0.04874 0.26132 0.36811
 C324 C 0.04275 0.21651 0.38040
 C325 C 0.09462 0.25287 0.36009
 C326 C 0.10449 0.26438 0.40461
 C327 C 0.09779 0.21990 0.41702
 C328 C 0.08848 0.20805 0.37291
 H329 H 0.03565 0.21771 0.45239
 H330 H 0.04729 0.30014 0.42876
 H331 H 0.01951 0.19468 0.36977
 H332 H 0.11334 0.26154 0.33339
 H333 H 0.13017 0.28396 0.41454
 H334 H 0.10116 0.18124 0.35678
 C335 C 0.05198 0.77125 0.57390
 C336 C 0.05830 0.72639 0.58681
 C337 C 0.04739 0.73815 0.63086
 C338 C 0.04150 0.78294 0.61837
 C339 C 0.09314 0.74678 0.63962
 C340 C 0.10376 0.73517 0.59531
 C341 C 0.09710 0.77959 0.58264
 C342 C 0.08707 0.79153 0.62656
 H343 H 0.03539 0.78146 0.54631
 H344 H 0.04722 0.69914 0.57026
 H345 H 0.01824 0.80490 0.62868
 H346 H 0.11147 0.73829 0.66667
 H347 H 0.12967 0.71563 0.58589
 H348 H 0.09942 0.81841 0.64283
 C349 C 0.91304 0.79067 0.37277
 C350 C 0.95869 0.78191 0.38040
 C351 C 0.95249 0.73723 0.36769
 C352 C 0.90668 0.74601 0.35952
 C353 C 0.94215 0.72528 0.41180
 C354 C 0.94868 0.77004 0.42491
 C355 C 0.90348 0.77853 0.41672
 C356 C 0.89659 0.73420 0.40388
 H357 H 0.90056 0.81768 0.35681
 H358 H 0.98204 0.80373 0.37004
 H359 H 0.88800 0.73771 0.33266
 H360 H 0.95352 0.69796 0.42802
 H361 H 0.96552 0.78012 0.45241
 H362 H 0.87077 0.71467 0.41351
 C363 C 0.94918 0.22824 0.57411
 C364 C 0.94268 0.27305 0.58710
 C365 C 0.95357 0.26127 0.63115
 C366 C 0.95964 0.21652 0.61857
 C367 C 0.90783 0.25247 0.63977
 C368 C 0.89723 0.26409 0.59546
 C369 C 0.90409 0.21972 0.58273
 C370 C 0.91410 0.20777 0.62664
 H371 H 0.96581 0.21814 0.54651
 H372 H 0.95365 0.30037 0.57064
 H373 H 0.98292 0.19458 0.62890
 H374 H 0.88938 0.26079 0.66678
 H375 H 0.87125 0.28353 0.58601
 H376 H 0.90182 0.18082 0.64281
 C377 C 0.40389 0.10299 0.26541
 C378 C 0.35949 0.09203 0.25408
 C379 C 0.36868 0.04644 0.26266
 C380 C 0.41280 0.05768 0.27415
 C381 C 0.38096 0.04064 0.21781
 C382 C 0.37234 0.08604 0.20926
 C383 C 0.41635 0.09641 0.22092
 C384 C 0.42550 0.05145 0.22923
 H385 H 0.41327 0.12893 0.28486
 H386 H 0.33227 0.11006 0.26274
 H387 H 0.42966 0.04674 0.30128
 H388 H 0.37064 0.01737 0.19591
 H389 H 0.35577 0.09823 0.18248
 H390 H 0.45321 0.03509 0.21887
 C391 C 0.57440 0.08758 0.73209
 C392 C 0.62059 0.09383 0.72577
 C393 C 0.62781 0.04792 0.73439
 C394 C 0.58162 0.04193 0.74023
 C395 C 0.63322 0.05749 0.77995
 C396 C 0.62573 0.10323 0.77156
 C397 C 0.57991 0.09646 0.77754
 C398 C 0.58681 0.05115 0.78616
 H399 H 0.55004 0.10037 0.71246
 H400 H 0.63277 0.11305 0.70088
 H401 H 0.56149 0.01883 0.72642
 H402 H 0.65789 0.04571 0.79980
 H403 H 0.64367 0.12874 0.78449
 H404 H 0.57262 0.03391 0.81146
 C405 C 0.40404 0.89798 0.73622
 C406 C 0.35961 0.90846 0.74780
 C407 C 0.36816 0.95410 0.73900
 C408 C 0.41234 0.94334 0.72728
 C409 C 0.38073 0.96020 0.78376
 C410 C 0.37275 0.91473 0.79252
 C411 C 0.41680 0.90485 0.78061
 C412 C 0.42534 0.94987 0.77210
 H413 H 0.41358 0.87210 0.71675
 H414 H 0.33254 0.89011 0.73934
 H415 H 0.42884 0.95438 0.69999
 H416 H 0.37026 0.98344 0.80564
 H417 H 0.35655 0.90245 0.81946
 H418 H 0.45292 0.96658 0.78224
 C419 C 0.62729 0.91413 0.20839
 C420 C 0.61932 0.95963 0.21720
 C421 C 0.63212 0.95350 0.26186
 C422 C 0.64063 0.90785 0.25303
 C423 C 0.58800 0.94282 0.27382
 C424 C 0.57480 0.94930 0.22908
 C425 C 0.58333 0.90426 0.22055
 C426 C 0.59626 0.89743 0.26486
 H427 H 0.64335 0.90181 0.18137
 H428 H 0.62955 0.98295 0.19534
 H429 H 0.66772 0.88941 0.26127
 H430 H 0.57165 0.95405 0.30114
 H431 H 0.54711 0.96592 0.21906
 H432 H 0.58681 0.87156 0.28435
 C433 C 0.41115 0.21537 0.94763
 C434 C 0.41672 0.26129 0.95676
 C435 C 0.37064 0.26759 0.95024
 C436 C 0.36482 0.22206 0.94081
 C437 C 0.37846 0.27596 0.90433
 C438 C 0.42449 0.26912 0.91115
 C439 C 0.41857 0.22372 0.90239
 C440 C 0.37288 0.23018 0.89510
 H441 H 0.42506 0.18997 0.96498
 H442 H 0.43695 0.27497 0.97985
 H443 H 0.33989 0.20249 0.95246
 H444 H 0.36701 0.30090 0.88470
 H445 H 0.44919 0.28841 0.89854
 H446 H 0.35508 0.21736 0.86943
 C447 C 0.62510 0.77067 0.89603
 C448 C 0.63336 0.77860 0.94174
 C449 C 0.62762 0.73303 0.95097
 C450 C 0.61960 0.72484 0.90504
 C451 C 0.58156 0.73926 0.95768
 C452 C 0.58707 0.78523 0.94876
 C453 C 0.57945 0.77707 0.90350
 C454 C 0.57359 0.73163 0.91205
 H455 H 0.64278 0.78361 0.87036
 H456 H 0.65835 0.79813 0.95337
 H457 H 0.63094 0.70002 0.88520
 H458 H 0.56141 0.72546 0.98072
 H459 H 0.57325 0.81057 0.96628
 H460 H 0.54885 0.71238 0.89942
 C461 C 0.37353 0.79139 0.08935
 C462 C 0.38029 0.78260 0.04365
 C463 C 0.36828 0.73775 0.05019
 C464 C 0.36092 0.74660 0.09607
 C465 C 0.41284 0.72634 0.05965
 C466 C 0.42527 0.77129 0.05282
 C467 C 0.41792 0.77978 0.09803
 C468 C 0.40574 0.73531 0.10526
 H469 H 0.35748 0.81825 0.10205
 H470 H 0.36914 0.80442 0.02072
 H471 H 0.33454 0.73826 0.11543
 H472 H 0.42926 0.69923 0.04800
 H473 H 0.45237 0.78178 0.03558
 H474 H 0.41616 0.71596 0.13087
 C475 C 0.62494 0.20884 0.08793
 C476 C 0.61797 0.21736 0.04222
 C477 C 0.63020 0.26218 0.04847
 C478 C 0.63769 0.25364 0.09433
 C479 C 0.58571 0.27379 0.05800
 C480 C 0.57308 0.22887 0.05142
 C481 C 0.58060 0.22061 0.09667
 C482 C 0.59295 0.26510 0.10361
 H483 H 0.64097 0.18201 0.10071
 H484 H 0.62894 0.19559 0.01912
 H485 H 0.66422 0.26232 0.11336
 H486 H 0.56939 0.30093 0.04630
 H487 H 0.54592 0.21848 0.03418
 H488 H 0.58269 0.28465 0.12915
 C489 C 0.20777 0.08757 0.62745
 C490 C 0.21705 0.04205 0.62003
 C491 C 0.26173 0.04872 0.63295
 C492 C 0.25235 0.09441 0.64096
 C493 C 0.27385 0.05906 0.58888
 C494 C 0.22909 0.05210 0.57554
 C495 C 0.22012 0.09713 0.58356
 C496 C 0.26439 0.10447 0.59665
 H497 H 0.18049 0.09981 0.64319
 H498 H 0.19511 0.01883 0.63032
 H499 H 0.26000 0.11340 0.66780
 H500 H 0.30137 0.04789 0.57277
 H501 H 0.21922 0.03525 0.54800
 H502 H 0.28375 0.13042 0.58709
 C503 C 0.73490 0.10353 0.40595
 C504 C 0.74618 0.09412 0.36127
 C505 C 0.73724 0.04830 0.36883
 C506 C 0.72583 0.05798 0.41323
 C507 C 0.78218 0.04170 0.38086
 C508 C 0.79106 0.08735 0.37391
 C509 C 0.77947 0.09624 0.41817
 C510 C 0.77087 0.05108 0.42570
 H511 H 0.71556 0.12925 0.41622
 H512 H 0.73773 0.11328 0.33482
 H513 H 0.69864 0.04647 0.42965
 H514 H 0.80399 0.01865 0.36987
 H515 H 0.81799 0.09991 0.35786
 H516 H 0.78135 0.03391 0.45281
 C517 C 0.77213 0.89485 0.62628
 C518 C 0.78021 0.94063 0.63385
 C519 C 0.73447 0.94988 0.62857
 C520 C 0.72615 0.90393 0.62129
 C521 C 0.74018 0.95602 0.58249
 C522 C 0.78627 0.94713 0.58754
 C523 C 0.77797 0.90178 0.58056
 C524 C 0.73233 0.91033 0.57519
 H525 H 0.78532 0.86939 0.64409
 H526 H 0.80006 0.95248 0.65846
 H527 H 0.70139 0.88453 0.63352
 H528 H 0.72614 0.97914 0.56254
 H529 H 0.81146 0.96457 0.57334
 H530 H 0.71269 0.89747 0.55089
 C531 C 0.23011 0.94680 0.42529
 C532 C 0.27512 0.94009 0.41270
 C533 C 0.26358 0.95023 0.36842
 C534 C 0.21867 0.95665 0.38060
 C535 C 0.25466 0.90447 0.36037
 C536 C 0.26608 0.89460 0.40492
 C537 C 0.22155 0.90170 0.41727
 C538 C 0.20982 0.91107 0.37315
 H539 H 0.21970 0.96366 0.45263
 H540 H 0.30232 0.95146 0.42921
 H541 H 0.19679 0.97980 0.36992
 H542 H 0.26292 0.88549 0.33372
 H543 H 0.28547 0.86879 0.41486
 H544 H 0.18286 0.89864 0.35699
 C545 C 0.10480 0.37600 0.77173
 C546 C 0.05903 0.36761 0.77954
 C547 C 0.04985 0.37313 0.73390
 C548 C 0.09580 0.38126 0.72587
 C549 C 0.04288 0.41907 0.74005
 C550 C 0.05172 0.41377 0.78605
 C551 C 0.09705 0.42156 0.77799
 C552 C 0.08856 0.42718 0.73248
 H553 H 0.13056 0.35848 0.78482
 H554 H 0.04754 0.34262 0.79907
 H555 H 0.11563 0.36966 0.70116
 H556 H 0.01953 0.43885 0.72612
 H557 H 0.03392 0.42744 0.81127
 H558 H 0.10110 0.45185 0.71317
 C559 C 0.05115 0.57413 0.22883
 C560 C 0.05768 0.58672 0.27379
 C561 C 0.04774 0.63104 0.26225
 C562 C 0.04150 0.61888 0.21740
 C563 C 0.09366 0.63889 0.25361
 C564 C 0.10333 0.59432 0.26504
 C565 C 0.09641 0.58197 0.22056
 C566 C 0.08725 0.62613 0.20883
 H567 H 0.03417 0.54688 0.21833
 H568 H 0.04604 0.57026 0.30085
 H569 H 0.01851 0.62969 0.19542
 H570 H 0.11263 0.66552 0.26205
 H571 H 0.12905 0.58427 0.28453
 H572 H 0.09991 0.64222 0.18201
 C573 C 0.91139 0.42567 0.26745
 C574 C 0.90499 0.37965 0.27420
 C575 C 0.95106 0.37228 0.26602
 C576 C 0.95719 0.41830 0.25975
 C577 C 0.94182 0.36643 0.22045
 C578 C 0.89594 0.37405 0.22839
 C579 C 0.90284 0.41970 0.22199
 C580 C 0.94830 0.41266 0.21382
 H581 H 0.89845 0.45020 0.28671
 H582 H 0.88543 0.36782 0.29900
 H583 H 0.98029 0.43847 0.27353
 H584 H 0.95374 0.34158 0.20096
 H585 H 0.87045 0.35606 0.21544
 H586 H 0.96578 0.42654 0.18851
 C587 C 0.91346 0.57375 0.73047
 C588 C 0.90606 0.61960 0.72369
 C589 C 0.95195 0.62800 0.73217
 C590 C 0.95906 0.58208 0.73841
 C591 C 0.94236 0.63362 0.77769
 C592 C 0.89668 0.62498 0.76945
 C593 C 0.90456 0.57947 0.77588
 C594 C 0.94978 0.58747 0.78434
 H595 H 0.90117 0.54897 0.71111
 H596 H 0.88623 0.63077 0.69875
 H597 H 0.98239 0.56214 0.72472
 H598 H 0.95362 0.65866 0.79733
 H599 H 0.87072 0.64242 0.78225
 H600 H 0.96730 0.57382 0.80977
 C601 C 0.73276 0.57455 0.91000
 C602 C 0.74028 0.58188 0.95572
 C603 C 0.73409 0.62791 0.94956
 C604 C 0.72609 0.62056 0.90356
 C605 C 0.77981 0.63368 0.94061
 C606 C 0.78637 0.58742 0.94712
 C607 C 0.77835 0.58042 0.90172
 C608 C 0.77204 0.62607 0.89477
 H609 H 0.71347 0.55006 0.89699
 H610 H 0.72632 0.56170 0.97863
 H611 H 0.70128 0.63241 0.88394
 H612 H 0.79932 0.65847 0.95264
 H613 H 0.81165 0.57348 0.96469
 H614 H 0.78516 0.64401 0.86940
 C615 C 0.26817 0.42681 0.91275
 C616 C 0.26054 0.41870 0.95832
 C617 C 0.26647 0.37273 0.95132
 C618 C 0.27463 0.38091 0.90545
 C619 C 0.22074 0.36736 0.94213
 C620 C 0.21441 0.41359 0.94943
 C621 C 0.22256 0.42134 0.90423
 C622 C 0.22867 0.37578 0.89645
 H623 H 0.28760 0.45143 0.90026
 H624 H 0.27460 0.43863 0.98141
 H625 H 0.29942 0.36953 0.88554
 H626 H 0.20102 0.34250 0.95363
 H627 H 0.18914 0.42747 0.96704
 H628 H 0.21551 0.35836 0.87070
 C629 C 0.21571 0.58796 0.05221
 C630 C 0.22194 0.63417 0.05952
 C631 C 0.26769 0.62884 0.05045
 C632 C 0.26185 0.58287 0.04344
 C633 C 0.27580 0.62070 0.09635
 C634 C 0.22980 0.62578 0.10521
 C635 C 0.22379 0.58020 0.09744
 C636 C 0.26941 0.57476 0.08905
 H637 H 0.19049 0.57401 0.03457
 H638 H 0.20221 0.65903 0.04798
 H639 H 0.27592 0.56303 0.02027
 H640 H 0.30046 0.63212 0.11640
 H641 H 0.21656 0.64320 0.13091
 H642 H 0.28886 0.55015 0.10162
 C643 C 0.78988 0.37315 0.08709
 C644 C 0.74502 0.36039 0.09351
 C645 C 0.73640 0.36791 0.04761
 C646 C 0.78132 0.38009 0.04138
 C647 C 0.72472 0.41228 0.05718
 C648 C 0.73347 0.40502 0.10281
 C649 C 0.77802 0.41735 0.09589
 C650 C 0.76976 0.42488 0.05067
 H651 H 0.81679 0.35720 0.09989
 H652 H 0.73666 0.33397 0.11273
 H653 H 0.80335 0.36918 0.01850
 H654 H 0.69755 0.42858 0.04543
 H655 H 0.71392 0.41525 0.12836
 H656 H 0.78028 0.45206 0.03366
 C657 C 0.91311 0.73074 0.57347
 C658 C 0.95873 0.73870 0.58167
 C659 C 0.95177 0.73252 0.62759
 C660 C 0.90586 0.72402 0.61933
 C661 C 0.94219 0.77805 0.63320
 C662 C 0.94944 0.78462 0.58704
 C663 C 0.90421 0.77614 0.57920
 C664 C 0.89649 0.76979 0.62472
 H665 H 0.90073 0.71137 0.54873
 H666 H 0.98203 0.72500 0.56170
 H667 H 0.88608 0.69909 0.63056
 H668 H 0.95357 0.79769 0.65818
 H669 H 0.96687 0.81005 0.57329
 H670 H 0.87057 0.78263 0.64218
 C671 C 0.91332 0.26700 0.42700
 C672 C 0.95899 0.25922 0.41897
 C673 C 0.95215 0.26560 0.37307
 C674 C 0.90622 0.27386 0.38111
 C675 C 0.94278 0.22006 0.36724
 C676 C 0.94997 0.21330 0.41336
 C677 C 0.90465 0.22159 0.42105
 C678 C 0.89704 0.22809 0.37553
 H679 H 0.90078 0.28624 0.45175
 H680 H 0.98234 0.27294 0.43890
 H681 H 0.88651 0.29875 0.36964
 H682 H 0.95428 0.20060 0.34218
 H683 H 0.96760 0.18790 0.42694
 H684 H 0.87125 0.21522 0.35790
 C685 C 0.08785 0.26924 0.57350
 C686 C 0.04220 0.26142 0.58166
 C687 C 0.04916 0.26769 0.62759
 C688 C 0.09510 0.27606 0.61939
 C689 C 0.05865 0.22215 0.63327
 C690 C 0.05138 0.21549 0.58712
 C691 C 0.09663 0.22384 0.57931
 C692 C 0.10436 0.23027 0.62483
 H693 H 0.10029 0.28852 0.54875
 H694 H 0.01891 0.27512 0.56167
 H695 H 0.11499 0.30091 0.63062
 H696 H 0.04728 0.20260 0.65829
 H697 H 0.03392 0.19006 0.57339
 H698 H 0.13024 0.21741 0.64235
 C699 C 0.05142 0.78432 0.41314
 C700 C 0.05855 0.77784 0.36699
 C701 C 0.04905 0.73229 0.37248
 C702 C 0.04227 0.73840 0.41843
 C703 C 0.09496 0.72384 0.38047
 C704 C 0.10427 0.76962 0.37523
 C705 C 0.09672 0.77587 0.42081
 C706 C 0.08793 0.73044 0.42643
 H707 H 0.03386 0.80968 0.42690
 H708 H 0.04709 0.79749 0.34206
 H709 H 0.01883 0.72466 0.43820
 H710 H 0.11456 0.69896 0.36880
 H711 H 0.13007 0.78252 0.35768
 H712 H 0.10044 0.71102 0.45106
 C713 C 0.62508 0.91228 0.79210
 C714 C 0.63815 0.90568 0.74744
 C715 C 0.63062 0.95147 0.73866
 C716 C 0.61808 0.95793 0.78334
 C717 C 0.58625 0.94182 0.72675
 C718 C 0.59353 0.89626 0.73567
 C719 C 0.58087 0.90341 0.78001
 C720 C 0.57330 0.94860 0.77153
 H721 H 0.64091 0.89962 0.81911
 H722 H 0.66482 0.88671 0.73906
 H723 H 0.62888 0.98110 0.80512
 H724 H 0.57013 0.95341 0.69944
 H725 H 0.58343 0.87061 0.71619
 H726 H 0.54602 0.96582 0.78164
 C727 C 0.37557 0.89590 0.23074
 C728 C 0.38122 0.90525 0.27648
 C729 C 0.37257 0.95101 0.26810
 C730 C 0.36670 0.94144 0.22260
 C731 C 0.41850 0.95829 0.26160
 C732 C 0.42709 0.91280 0.26944
 C733 C 0.42109 0.90392 0.22407
 C734 C 0.41286 0.94902 0.21571
 H735 H 0.35814 0.86993 0.21800
 H736 H 0.37030 0.88540 0.30147
 H737 H 0.34145 0.95265 0.20313
 H738 H 0.43842 0.98167 0.27520
 H739 H 0.45211 0.90060 0.28862
 H740 H 0.42632 0.96654 0.19021
 C741 C 0.57305 0.08844 0.26862
 C742 C 0.58122 0.04288 0.26079
 C743 C 0.62726 0.04986 0.26677
 C744 C 0.61910 0.09566 0.27507
 C745 C 0.63261 0.05919 0.22117
 C746 C 0.58636 0.05187 0.21483
 C747 C 0.57851 0.09707 0.22313
 C748 C 0.62418 0.10481 0.22924
 H749 H 0.54838 0.10088 0.28806
 H750 H 0.56159 0.01941 0.27465
 H751 H 0.63088 0.11531 0.29985
 H752 H 0.65759 0.04780 0.20151
 H753 H 0.57255 0.03421 0.18958
 H754 H 0.64162 0.13059 0.21619
 C755 C 0.37305 0.10487 0.77021
 C756 C 0.37857 0.09533 0.72449
 C757 C 0.37060 0.04950 0.73318
 C758 C 0.36486 0.05925 0.77864
 C759 C 0.41666 0.04284 0.73947
 C760 C 0.42458 0.08838 0.73134
 C761 C 0.41870 0.09745 0.77667
 C762 C 0.41115 0.05229 0.78533
 H763 H 0.35536 0.13069 0.78288
 H764 H 0.36727 0.11490 0.69944
 H765 H 0.33991 0.04779 0.79830
 H766 H 0.43682 0.01965 0.72590
 H767 H 0.44931 0.10080 0.71198
 H768 H 0.42502 0.03508 0.81085
 C769 C 0.57337 0.77119 0.05080
 C770 C 0.61800 0.78292 0.04070
 C771 C 0.63052 0.73812 0.04646
 C772 C 0.58632 0.72631 0.05698
 C773 C 0.63900 0.74655 0.09220
 C774 C 0.62592 0.79130 0.08625
 C775 C 0.58186 0.77934 0.09590
 C776 C 0.59454 0.73490 0.10245
 H777 H 0.54580 0.78147 0.03415
 H778 H 0.62850 0.80499 0.01770
 H779 H 0.56985 0.69910 0.04567
 H780 H 0.66601 0.73799 0.11061
 H781 H 0.64210 0.81815 0.09881
 H782 H 0.58492 0.71528 0.12815
 C783 C 0.42559 0.22923 0.05007
 C784 C 0.38094 0.21764 0.03982
 C785 C 0.36854 0.26247 0.04570
 C786 C 0.41275 0.27413 0.05636
 C787 C 0.35998 0.25393 0.09140
 C788 C 0.37295 0.20916 0.08533
 C789 C 0.41702 0.22101 0.09513
 C790 C 0.40444 0.26546 0.10178
 H791 H 0.45313 0.21892 0.03341
 H792 H 0.37040 0.19566 0.01673
 H793 H 0.42932 0.30130 0.04513
 H794 H 0.33295 0.26250 0.10975
 H795 H 0.35668 0.18233 0.09776
 H796 H 0.41407 0.28500 0.12757
 C797 C 0.57363 0.26795 0.91247
 C798 C 0.58098 0.25994 0.95810
 C799 C 0.62709 0.26620 0.95204
 C800 C 0.61972 0.27470 0.90613
 C801 C 0.63293 0.22069 0.94254
 C802 C 0.58659 0.21405 0.94895
 C803 C 0.57957 0.22256 0.90365
 C804 C 0.62531 0.22895 0.89680
 H805 H 0.54906 0.28732 0.89967
 H806 H 0.56071 0.27361 0.98116
 H807 H 0.63156 0.29968 0.88681
 H808 H 0.65780 0.20110 0.95434
 H809 H 0.57266 0.18863 0.96622
 H810 H 0.64332 0.21615 0.87127
 C811 C 0.41225 0.78723 0.95071
 C812 C 0.36595 0.78011 0.94459
 C813 C 0.37228 0.73479 0.95469
 C814 C 0.41838 0.74152 0.96037
 C815 C 0.37943 0.72575 0.90882
 C816 C 0.37336 0.77132 0.89894
 C817 C 0.41907 0.77823 0.90548
 C818 C 0.42550 0.73302 0.91479
 H819 H 0.42599 0.81297 0.96772
 H820 H 0.34096 0.79967 0.95617
 H821 H 0.43904 0.72818 0.98329
 H822 H 0.36775 0.70037 0.88990
 H823 H 0.35506 0.78361 0.87335
 H824 H 0.45016 0.71372 0.90207
 C825 C 0.77086 0.89690 0.37434
 C826 C 0.72519 0.90698 0.37997
 C827 C 0.73445 0.95278 0.37276
 C828 C 0.77987 0.94249 0.36686
 C829 C 0.74085 0.95860 0.41879
 C830 C 0.73214 0.91307 0.42600
 C831 C 0.77746 0.90357 0.41999
 C832 C 0.78667 0.94875 0.41309
 H833 H 0.78323 0.87120 0.35628
 H834 H 0.69975 0.88821 0.36809
 H835 H 0.79969 0.95391 0.34204
 H836 H 0.72742 0.98164 0.43922
 H837 H 0.71258 0.90050 0.45049
 H838 H 0.81240 0.96573 0.42695
 C839 C 0.26861 0.91406 0.57411
 C840 C 0.25984 0.95955 0.58168
 C841 C 0.26581 0.95331 0.62773
 C842 C 0.27511 0.90756 0.62015
 C843 C 0.22032 0.94304 0.63307
 C844 C 0.21395 0.94970 0.58682
 C845 C 0.22321 0.90458 0.57955
 C846 C 0.22937 0.89751 0.62522
 H847 H 0.28841 0.90171 0.54970
 H848 H 0.27343 0.98286 0.56170
 H849 H 0.30035 0.88859 0.63214
 H850 H 0.20027 0.95420 0.65783
 H851 H 0.18836 0.96680 0.57284
 H852 H 0.21681 0.87167 0.64291
 C853 C 0.26869 0.08485 0.42755
 C854 C 0.26009 0.03937 0.41981
 C855 C 0.26660 0.04567 0.37385
 C856 C 0.27573 0.09142 0.38162
 C857 C 0.22115 0.05592 0.36794
 C858 C 0.21423 0.04919 0.41410
 C859 C 0.22334 0.09430 0.42152
 C860 C 0.23005 0.10144 0.37596
 H861 H 0.28817 0.09719 0.45223
 H862 H 0.27352 0.01612 0.44000
 H863 H 0.30111 0.11042 0.37004
 H864 H 0.20141 0.04476 0.34292
 H865 H 0.18851 0.03204 0.42770
 H866 H 0.21765 0.12729 0.35813
 C867 C 0.77128 0.04965 0.57416
 C868 C 0.78329 0.04006 0.61874
 C869 C 0.73854 0.04634 0.63144
 C870 C 0.72644 0.05627 0.58726
 C871 C 0.74728 0.09211 0.63922
 C872 C 0.79199 0.08567 0.62599
 C873 C 0.77971 0.09481 0.58198
 C874 C 0.73532 0.10180 0.59480
 H875 H 0.78134 0.03262 0.54679
 H876 H 0.80526 0.01695 0.62933
 H877 H 0.69907 0.04470 0.57118
 H878 H 0.73898 0.11090 0.66599
 H879 H 0.81908 0.09829 0.64178
 H880 H 0.71572 0.12749 0.58495
 C881 C 0.94845 0.58678 0.21224
 C882 C 0.94208 0.63303 0.21895
 C883 C 0.95200 0.62717 0.26437
 C884 C 0.95794 0.58113 0.25805
 C885 C 0.90603 0.61990 0.27321
 C886 C 0.89632 0.62549 0.22754
 C887 C 0.90311 0.57983 0.22104
 C888 C 0.91226 0.57388 0.26637
 H889 H 0.96570 0.57291 0.18674
 H890 H 0.95367 0.65784 0.19925
 H891 H 0.98102 0.56081 0.27164
 H892 H 0.88698 0.63181 0.29840
 H893 H 0.87065 0.64351 0.21495
 H894 H 0.89955 0.54939 0.28580
 C895 C 0.89737 0.40426 0.73434
 C896 C 0.94299 0.41222 0.72584
 C897 C 0.95328 0.36808 0.73775
 C898 C 0.90742 0.35987 0.74610
 C899 C 0.95913 0.38063 0.78252
 C900 C 0.94917 0.42517 0.77069
 C901 C 0.90393 0.41693 0.77876
 C902 C 0.91343 0.37295 0.79086
 H903 H 0.87167 0.41397 0.71466
 H904 H 0.95456 0.42852 0.69867
 H905 H 0.88882 0.33302 0.73757
 H906 H 0.98232 0.37020 0.80449
 H907 H 0.96587 0.45265 0.78101
 H908 H 0.90075 0.35693 0.81771
 C909 C 0.10401 0.59616 0.73465
 C910 C 0.05856 0.58760 0.72582
 C911 C 0.04756 0.63163 0.73751
 C912 C 0.09328 0.64048 0.74617
 C913 C 0.04165 0.61923 0.78229
 C914 C 0.05222 0.57477 0.77067
 C915 C 0.09730 0.58360 0.77906
 C916 C 0.08718 0.62751 0.79092
 H917 H 0.12997 0.58670 0.71521
 H918 H 0.04749 0.57100 0.69859
 H919 H 0.11153 0.66756 0.73767
 H920 H 0.01839 0.62957 0.80422
 H921 H 0.03572 0.54715 0.78091
 H922 H 0.09950 0.64382 0.81779
 C923 C 0.10304 0.40558 0.26500
 C924 C 0.05732 0.41285 0.27365
 C925 C 0.04771 0.36859 0.26162
 C926 C 0.09366 0.36108 0.25311
 C927 C 0.04153 0.38119 0.21691
 C928 C 0.05083 0.42586 0.22885
 C929 C 0.09616 0.41830 0.22065
 C930 C 0.08732 0.37421 0.20843
 H931 H 0.12862 0.41562 0.28467
 H932 H 0.04556 0.42890 0.30091
 H933 H 0.11274 0.33452 0.26148
 H934 H 0.01843 0.37046 0.19498
 H935 H 0.03368 0.45312 0.21867
 H936 H 0.10016 0.35845 0.18148
   
