data_POSCAR
  _audit_creation_date              2014-09-24
  _audit_creation_method            'ToBaCCo'
  _symmetry_space_group_name_H-M    'P1'
  _symmetry_Int_Tables_number       1
  _symmetry_cell_setting            triclinic
  loop_
  _symmetry_equiv_pos_as_xyz
 x,y,z
_cell_length_a 25.8332
_cell_length_b 25.7801
_cell_length_c 25.8714
_cell_angle_alpha 80.473800
_cell_angle_beta 99.494600
_cell_angle_gamma 70.904600
loop_
  _atom_site_label
  _atom_site_type_symbol
  _atom_site_fract_x
  _atom_site_fract_y
  _atom_site_fract_z
O1 O 0.58081 0.48628 0.04136
 O2 O 0.43232 0.50748 0.04042
 O3 O 0.52056 0.42153 0.04459
 O4 O 0.49183 0.57210 0.03933
 O5 O 0.47152 0.59109 -0.04965
 O6 O 0.50108 0.43996 -0.04432
 O7 O 0.41150 0.52598 -0.04836
 O8 O 0.55935 0.50637 -0.04761
 Cu9 Cu 0.50857 0.49496 0.05029
 Cu10 Cu 0.48369 0.51762 -0.05637
 C11 C 0.59509 0.49413 -0.00318
 C12 C 0.39658 0.51929 -0.00404
 C13 C 0.51475 0.40512 0.00108
 C14 C 0.47772 0.60714 -0.00592
 O15 O 0.04962 0.55018 0.50035
 O16 O 0.04449 0.40811 0.51076
 O17 O 0.04719 0.48423 0.43416
 O18 O 0.04684 0.47341 0.57774
 O19 O -0.04607 0.51014 0.55592
 O20 O -0.04573 0.52228 0.41247
 O21 O -0.04847 0.44514 0.48929
 O22 O -0.04319 0.58727 0.47925
 Cu23 Cu 0.05639 0.47538 0.50800
 Cu24 Cu -0.05519 0.51995 0.48211
 C25 C 0.00420 0.59317 0.48843
 C26 C -0.00291 0.40240 0.50110
 C27 C 0.00082 0.50448 0.39886
 C28 C 0.00018 0.49017 0.59137
 O29 O 0.48827 0.04483 0.56784
 O30 O 0.47933 0.04281 0.42480
 O31 O 0.41355 0.04007 0.49114
 O32 O 0.55545 0.04560 0.50272
 O33 O 0.59270 -0.04746 0.52586
 O34 O 0.45083 -0.05306 0.51219
 O35 O 0.51812 -0.05021 0.44721
 O36 O 0.52536 -0.04816 0.59055
 Cu37 Cu 0.48049 0.05264 0.49430
 Cu38 Cu 0.52536 -0.05905 0.52118
 C39 C 0.50763 -0.00119 0.60379
 C40 C 0.49787 -0.00395 0.41153
 C41 C 0.40802 -0.00755 0.50023
 C42 C 0.59835 0.00003 0.51599
 C43 C 0.49524 -0.01565 0.02356
 C44 C 0.50545 0.02100 -0.01395
 C45 C 0.50529 0.01276 -0.06927
 C46 C 0.51281 0.07358 -0.00378
 C47 C 0.49592 -0.00861 0.07926
 C48 C 0.48756 -0.06761 0.01234
 C49 C 0.55498 -0.01895 -0.08204
 C50 C 0.55524 -0.02348 -0.13511
 C51 C 0.50611 0.00481 -0.17643
 C52 C 0.45641 0.03655 -0.16344
 C53 C 0.45601 0.04034 -0.11023
 C54 C 0.55937 0.08598 -0.01527
 C55 C 0.56368 0.13801 -0.01171
 C56 C 0.52176 0.17842 0.00396
 C57 C 0.47568 0.16576 0.01637
 C58 C 0.47082 0.11419 0.01173
 C59 C 0.44530 0.01413 0.09487
 C60 C 0.44587 0.01673 0.14847
 C61 C 0.49703 -0.00449 0.18763
 C62 C 0.54772 -0.02709 0.17182
 C63 C 0.54715 -0.02891 0.11798
 C64 C 0.43588 -0.07467 0.01203
 C65 C 0.43002 -0.12549 0.00580
 C66 C 0.47551 -0.16962 -0.00112
 C67 C 0.52693 -0.16228 -0.00157
 C68 C 0.53317 -0.11205 0.00602
 H69 H 0.59375 -0.03929 -0.05110
 H70 H 0.59423 -0.04756 -0.14422
 H71 H 0.41794 0.05853 -0.19455
 H72 H 0.41751 0.06552 -0.10104
 H73 H 0.59203 0.05572 -0.02789
 H74 H 0.59958 0.14687 -0.02146
 H75 H 0.43320 0.10701 0.01824
 H76 H 0.40533 0.02969 0.06558
 H77 H 0.40620 0.03390 0.15965
 H78 H 0.58774 -0.04338 0.20116
 H79 H 0.58653 -0.04715 0.10663
 H80 H 0.40023 -0.04113 0.01714
 H81 H 0.39007 -0.13047 0.00642
 H82 H 0.56281 -0.19623 -0.00587
 H83 H 0.57398 -0.10840 0.00830
 H84 H 0.44227 0.19674 0.02752
 C85 C -0.02232 0.50110 0.97471
 C86 C 0.01820 0.50226 1.01458
 C87 C 0.07291 0.50478 1.00615
 C88 C 0.00878 0.50306 1.06922
 C89 C -0.07646 0.49933 0.98511
 C90 C -0.01450 0.49951 0.91951
 C91 C 0.12324 0.46550 1.04060
 C92 C 0.17487 0.47012 1.03697
 C93 C 0.17744 0.51433 0.99889
 C94 C 0.12719 0.55298 0.96339
 C95 C 0.07528 0.54845 0.96722
 C96 C 0.02149 0.45240 1.10705
 C97 C 0.01783 0.45311 1.16019
 C98 C 0.00057 0.50459 1.17584
 C99 C -0.01419 0.55540 1.13726
 C100 C -0.00963 0.55457 1.08433
 C101 C -0.12303 0.54946 0.97623
 C102 C -0.17553 0.54746 0.98079
 C103 C -0.18188 0.49530 0.99541
 C104 C -0.13458 0.44519 1.00665
 C105 C -0.08229 0.44721 1.00099
 C106 C -0.05255 0.54162 0.87551
 C107 C -0.04818 0.53877 0.82301
 C108 C -0.00590 0.49342 0.81331
 C109 C 0.03299 0.45174 0.85750
 C110 C 0.02861 0.45470 0.91022
 H111 H 0.12262 0.43133 1.07078
 H112 H 0.21293 0.43907 1.06416
 H113 H 0.12788 0.58768 0.93389
 H114 H 0.03690 0.57988 0.94089
 H115 H 0.03565 0.41237 1.09572
 H116 H 0.02892 0.41350 1.18923
 H117 H -0.01944 0.59394 1.05536
 H118 H -0.11899 0.59001 0.96449
 H119 H -0.21139 0.58660 0.97241
 H120 H -0.13862 0.40456 1.01779
 H121 H -0.04658 0.40819 1.00799
 H122 H -0.08579 0.57684 0.88169
 H123 H -0.07799 0.57216 0.78990
 H124 H 0.06574 0.41609 0.85125
 H125 H 0.05799 0.42144 0.94371
 H126 H -0.02731 0.59550 1.14856
 C127 C 0.02491 -0.02759 0.49987
 C128 C -0.02002 0.01754 0.50183
 C129 C -0.07511 0.01273 0.50531
 C130 C -0.01685 0.07419 0.50115
 C131 C 0.08148 -0.02450 0.50044
 C132 C 0.01989 -0.08280 0.49677
 C133 C -0.12406 0.04967 0.46728
 C134 C -0.17654 0.04734 0.47100
 C135 C -0.18114 0.00823 0.51311
 C136 C -0.13201 -0.02875 0.55128
 C137 C -0.07945 -0.02631 0.54757
 C138 C 0.00306 0.10075 0.46118
 C139 C 0.00594 0.15388 0.46162
 C140 C -0.01254 0.18193 0.50109
 C141 C -0.03375 0.15599 0.54016
 C142 C -0.03571 0.10255 0.54028
 C143 C 0.10791 -0.00426 0.54018
 C144 C 0.16071 -0.00093 0.53940
 C145 C 0.18862 -0.01930 0.49982
 C146 C 0.16292 -0.04104 0.46109
 C147 C 0.10977 -0.04344 0.46131
 C148 C 0.05668 -0.13179 0.53492
 C149 C 0.05369 -0.18429 0.53190
 C150 C 0.01403 -0.18889 0.49039
 C151 C -0.02274 -0.13973 0.45204
 C152 C -0.01962 -0.08715 0.45503
 H153 H -0.12152 0.08021 0.43453
 H154 H -0.21350 0.07579 0.44056
 H155 H -0.13437 -0.05880 0.58455
 H156 H -0.04225 -0.05433 0.57799
 H157 H 0.01636 0.08037 0.42971
 H158 H 0.02172 0.17351 0.43065
 H159 H -0.05157 0.08303 0.57126
 H160 H 0.08763 0.00907 0.57168
 H161 H 0.18017 0.01518 0.57016
 H162 H 0.18360 -0.05528 0.43011
 H163 H 0.09037 -0.05959 0.43052
 H164 H 0.08755 -0.12926 0.56729
 H165 H 0.08204 -0.22127 0.56243
 H166 H -0.05319 -0.14210 0.41920
 H167 H -0.04758 -0.04994 0.42453
 H168 H -0.04801 0.17677 0.57109
 C169 C -0.30213 0.46272 1.04179
 C170 C -0.34696 0.49153 0.99627
 C171 C -0.33668 0.52063 0.95051
 C172 C -0.28308 0.52195 0.95059
 C173 C -0.23836 0.49332 0.99601
 C174 C -0.24806 0.46303 1.04139
 H175 H -0.30892 0.44002 1.07760
 H176 H -0.37046 0.54360 0.91501
 H177 H -0.27640 0.54515 0.91499
 H178 H -0.21406 0.44066 1.07685
 C179 C 0.30107 0.53367 0.94754
 C180 C 0.34103 0.52298 0.99608
 C181 C 0.32493 0.51310 1.04512
 C182 C 0.27151 0.51160 1.04571
 C183 C 0.23254 0.52014 0.99740
 C184 C 0.24742 0.53234 0.94825
 H185 H 0.31157 0.54169 0.90890
 H186 H 0.35400 0.50519 1.08340
 H187 H 0.26078 0.50327 1.08419
 H188 H 0.21825 0.53899 0.91040
 C189 C 0.05866 -0.34578 0.49742
 C190 C 0.00645 -0.35282 0.48634
 C191 C -0.04335 -0.30473 0.47458
 C192 C -0.04091 -0.25145 0.47510
 C193 C 0.01127 -0.24490 0.48736
 C194 C 0.06097 -0.29252 0.49794
 H195 H 0.09799 -0.38148 0.50631
 H196 H -0.08440 -0.30820 0.46578
 H197 H -0.07991 -0.21556 0.46722
 H198 H 0.10180 -0.28858 0.50660
 C199 C -0.05482 0.33575 0.50589
 C200 C -0.00501 0.34566 0.50252
 C201 C 0.04239 0.30123 0.49890
 C202 C 0.03979 0.24812 0.49797
 C203 C -0.00994 0.23825 0.50153
 C204 C -0.05710 0.28237 0.50585
 H205 H -0.09197 0.36922 0.50871
 H206 H 0.08124 0.30776 0.49594
 H207 H 0.07679 0.21453 0.49504
 H208 H -0.09599 0.27573 0.50835
 C209 C 0.53195 -0.05008 -0.30080
 C210 C 0.50855 0.00005 -0.34190
 C211 C 0.48492 0.05164 -0.32750
 C212 C 0.48386 0.05292 -0.27392
 C213 C 0.50712 0.00291 -0.23320
 C214 C 0.53160 -0.04855 -0.24703
 H215 H 0.55059 -0.09064 -0.31003
 H216 H 0.46649 0.09122 -0.35768
 H217 H 0.46535 0.09322 -0.26417
 H218 H 0.54965 -0.08771 -0.21629
 C219 C 0.52920 -0.05301 0.33992
 C220 C 0.49678 -0.00438 0.35417
 C221 C 0.46450 0.04426 0.31317
 C222 C 0.46444 0.04419 0.25910
 C223 C 0.49728 -0.00425 0.24497
 C224 C 0.52973 -0.05281 0.28592
 H225 H 0.55471 -0.09106 0.37059
 H226 H 0.43913 0.08240 0.32285
 H227 H 0.43928 0.08226 0.22832
 H228 H 0.55496 -0.09089 0.27605
 C229 C 0.48319 -0.30164 -0.05020
 C230 C 0.47110 -0.33347 -0.00746
 C231 C 0.45709 -0.30955 0.03571
 C232 C 0.45618 -0.25516 0.03657
 C233 C 0.47062 -0.22442 -0.00503
 C234 C 0.48366 -0.24782 -0.04865
 H235 H 0.49463 -0.31931 -0.08370
 H236 H 0.44765 -0.33324 0.06915
 H237 H 0.44634 -0.23791 0.07073
 H238 H 0.49491 -0.22469 -0.08110
 C239 C 0.51551 0.31227 0.04924
 C240 C 0.52152 0.34547 0.00335
 C241 C 0.53041 0.32220 -0.04132
 C242 C 0.53241 0.26714 -0.04036
 C243 C 0.52441 0.23480 0.00481
 C244 C 0.51636 0.25768 0.04974
 H245 H 0.50823 0.32919 0.08413
 H246 H 0.53515 0.34680 -0.07721
 H247 H 0.53829 0.25046 -0.07563
 H248 H 0.51031 0.23341 0.08507
 C249 C -0.29721 -0.04796 0.53072
 C250 C -0.34477 0.00215 0.51858
 C251 C -0.33770 0.05425 0.50675
 C252 C -0.28445 0.05617 0.50588
 C253 C -0.23711 0.00607 0.51680
 C254 C -0.24393 -0.04602 0.52986
 H255 H -0.30125 -0.08879 0.53990
 H256 H -0.37344 0.09361 0.49745
 H257 H -0.28031 0.09695 0.49657
 H258 H -0.20833 -0.08531 0.53795
 C259 C 0.30669 0.03722 0.50163
 C260 C 0.35142 -0.01002 0.49817
 C261 C 0.34201 -0.06014 0.49465
 C262 C 0.28890 -0.06295 0.49461
 C263 C 0.24453 -0.01601 0.49898
 C264 C 0.25385 0.03409 0.50247
 H265 H 0.31281 0.07630 0.50468
 H266 H 0.37570 -0.09719 0.49195
 H267 H 0.28270 -0.10212 0.49214
 H268 H 0.22008 0.07095 0.50542
 C269 C 0.04840 0.47107 1.32762
 C270 C 0.00103 0.50600 1.34163
 C271 C -0.04659 0.54078 1.30062
 C272 C -0.04670 0.54072 1.24658
 C273 C 0.00037 0.50511 1.23280
 C274 C 0.04789 0.47032 1.27373
 H275 H 0.08554 0.44360 1.35839
 H276 H -0.08366 0.56812 1.31032
 H277 H -0.08381 0.56782 1.21558
 H278 H 0.08488 0.44296 1.26392
 C279 C -0.05217 0.50308 0.66421
 C280 C -0.00062 0.48766 0.64877
 C281 C 0.04965 0.47185 0.68835
 C282 C 0.04820 0.47279 0.74202
 C283 C -0.00353 0.48955 0.75710
 C284 C -0.05359 0.50389 0.71772
 H285 H -0.09162 0.51505 0.63482
 H286 H 0.09004 0.45984 0.67768
 H287 H 0.08742 0.46186 0.77142
 H288 H -0.09402 0.51584 0.72830
   
