data_POSCAR
  _audit_creation_date              2014-09-24
  _audit_creation_method            'ToBaCCo'
  _symmetry_space_group_name_H-M    'P1'
  _symmetry_Int_Tables_number       1
  _symmetry_cell_setting            triclinic
  loop_
  _symmetry_equiv_pos_as_xyz
 x,y,z
_cell_length_a 33.9736
_cell_length_b 34.5538
_cell_length_c 34.5204
_cell_angle_alpha 89.279700
_cell_angle_beta 67.544100
_cell_angle_gamma 110.838700
loop_
  _atom_site_label
  _atom_site_type_symbol
  _atom_site_fract_x
  _atom_site_fract_y
  _atom_site_fract_z
O1 O 0.55751 0.53028 0.02993
 O2 O 0.44802 0.51048 0.02107
 O3 O 0.49459 0.46513 0.02250
 O4 O 0.51219 0.57649 0.02609
 O5 O 0.54964 0.59126 -0.04381
 O6 O 0.53159 0.48007 -0.04743
 O7 O 0.48469 0.52605 -0.04880
 O8 O 0.59498 0.54524 -0.03998
 Cu9 Cu 0.49940 0.51914 0.03185
 Cu10 Cu 0.54387 0.53708 -0.05201
 C11 C 0.59489 0.54061 -0.00333
 C12 C 0.44739 0.51534 -0.01519
 C13 C 0.51055 0.45363 -0.01306
 C14 C 0.53365 0.60290 -0.00838
 O15 O -0.06373 0.51209 0.52970
 O16 O -0.04439 0.41376 0.52368
 O17 O -0.05170 0.46359 0.57918
 O18 O -0.05422 0.46287 0.47293
 O19 O 0.02116 0.49929 0.44322
 O20 O 0.02364 0.50020 0.54873
 O21 O 0.03101 0.45016 0.49345
 O22 O 0.01156 0.54853 0.49953
 Cu23 Cu -0.06108 0.45951 0.52932
 Cu24 Cu 0.02933 0.50324 0.49320
 C25 C -0.02947 0.54726 0.51562
 C26 C -0.00340 0.41510 0.50791
 C27 C -0.01334 0.48175 0.58200
 C28 C -0.01680 0.48100 0.43985
 O29 O 0.50080 0.02148 0.54920
 O30 O 0.53000 0.03123 0.43470
 O31 O 0.46008 0.03010 0.50100
 O32 O 0.57079 0.02146 0.48210
 O33 O 0.53720 -0.04740 0.48903
 O34 O 0.42652 -0.03893 0.50928
 O35 O 0.49549 -0.03758 0.44182
 O36 O 0.46784 -0.04740 0.55648
 Cu37 Cu 0.51888 0.03296 0.49114
 Cu38 Cu 0.47860 -0.04977 0.49987
 C39 C 0.47938 -0.01456 0.57260
 C40 C 0.51684 -0.00132 0.41881
 C41 C 0.42446 -0.00299 0.50796
 C42 C 0.57289 -0.01453 0.48234
 C43 C 0.50535 -0.05093 -0.08251
 C44 C 0.48808 -0.02008 -0.08472
 C45 C 0.48483 0.00625 -0.05399
 C46 C 0.50048 0.00329 -0.02207
 C47 C 0.51896 -0.02738 -0.02147
 C48 C 0.52026 -0.05522 -0.05071
 C49 C 0.49704 0.03148 0.01076
 C50 C 0.49477 0.01865 0.05078
 C51 C 0.49374 0.04522 0.08113
 C52 C 0.49152 0.08393 0.07281
 C53 C 0.49154 0.09690 0.03417
 C54 C 0.49588 0.07125 0.00275
 H55 H 0.50716 -0.07181 -0.10569
 H56 H 0.46916 0.02835 -0.05487
 H57 H 0.53311 -0.02971 0.00126
 H58 H 0.49439 -0.01187 0.05864
 H59 H 0.48979 0.10415 0.09664
 H60 H 0.49794 0.08247 -0.02760
 C61 C -0.08485 0.50442 1.09692
 C62 C -0.08547 0.51272 1.05731
 C63 C -0.04930 0.51183 1.02022
 C64 C -0.01408 0.50038 1.02221
 C65 C -0.01550 0.49061 1.06272
 C66 C -0.05006 0.49344 1.10003
 C67 C 0.02374 0.49840 0.98232
 C68 C 0.06726 0.50384 0.98143
 C69 C 0.10269 0.50137 0.94465
 C70 C 0.09528 0.49570 0.90745
 C71 C 0.05312 0.49209 0.90669
 C72 C 0.01712 0.49192 0.94454
 H73 H -0.11122 0.50717 1.12550
 H74 H -0.04925 0.51966 0.98985
 H75 H 0.00961 0.47989 1.06576
 H76 H 0.07442 0.51107 1.00902
 H77 H 0.12225 0.49354 0.87900
 H78 H -0.01572 0.48743 0.94393
 C79 C -0.09070 -0.10932 0.49138
 C80 C -0.05509 -0.11170 0.50112
 C81 C -0.02474 -0.07534 0.50793
 C82 C -0.02711 -0.03590 0.50209
 C83 C -0.06295 -0.03437 0.49173
 C84 C -0.09574 -0.07101 0.48775
 C85 C 0.00764 0.00312 0.50694
 C86 C -0.00208 0.03928 0.51602
 C87 C 0.03116 0.07615 0.51896
 C88 C 0.07339 0.07592 0.51601
 C89 C 0.08365 0.04022 0.50798
 C90 C 0.05144 0.00474 0.50193
 H91 H -0.11414 -0.13725 0.48595
 H92 H 0.00030 -0.07845 0.51845
 H93 H -0.06614 -0.00487 0.48723
 H94 H -0.03512 0.03952 0.52018
 H95 H 0.09804 0.10350 0.52064
 H96 H 0.06146 -0.02123 0.49251
 C97 C -0.31890 0.56164 0.96537
 C98 C -0.27865 0.56397 0.96937
 C99 C -0.28068 0.55025 1.00869
 C100 C -0.32331 0.53546 1.04444
 C101 C -0.36338 0.53353 1.04061
 C102 C -0.36180 0.54596 1.00092
 N103 N -0.23969 0.54993 1.01132
 N104 N -0.24150 0.53152 1.04451
 C105 C -0.20157 0.52955 1.04799
 C106 C -0.20804 0.50258 1.08236
 C107 C -0.17034 0.49770 1.08569
 C108 C -0.12507 0.52032 1.05487
 C109 C -0.11858 0.54848 1.02097
 C110 C -0.15653 0.55285 1.01739
 H111 H -0.31653 0.57157 0.93440
 H112 H -0.24601 0.57547 0.94156
 H113 H -0.32581 0.52486 1.07526
 H114 H -0.39583 0.52129 1.06862
 H115 H -0.24263 0.48437 1.10607
 H116 H -0.17689 0.47518 1.11177
 H117 H -0.08423 0.56705 0.99712
 H118 H -0.15071 0.57421 0.99071
 C119 C 0.36384 0.49628 1.01939
 C120 C 0.32237 0.49237 1.01735
 C121 C 0.32134 0.50212 0.97845
 C122 C 0.36232 0.51487 0.94106
 C123 C 0.40390 0.51832 0.94288
 C124 C 0.40539 0.50963 0.98222
 N125 N 0.27835 0.49924 0.97813
 N126 N 0.27536 0.51249 0.94521
 C127 C 0.23194 0.50943 0.94571
 C128 C 0.23133 0.52827 0.90995
 C129 C 0.18955 0.52610 0.90964
 C130 C 0.14741 0.50464 0.94514
 C131 C 0.14821 0.48567 0.98098
 C132 C 0.19003 0.48813 0.98135
 H133 H 0.36323 0.48904 1.05030
 H134 H 0.29097 0.48235 1.04635
 H135 H 0.36225 0.52233 0.91054
 H136 H 0.43497 0.52860 0.91355
 H137 H 0.26339 0.54494 0.88236
 H138 H 0.19032 0.54160 0.88176
 H139 H 0.11640 0.46832 1.00856
 H140 H 0.18952 0.47311 1.00935
 C141 C -0.08215 -0.41591 0.53520
 C142 C -0.08943 -0.37851 0.53639
 C143 C -0.05195 -0.33972 0.52006
 C144 C -0.00675 -0.33862 0.50275
 C145 C 0.00069 -0.37592 0.50156
 C146 C -0.03692 -0.41518 0.51758
 N147 N -0.06061 -0.30202 0.52091
 N148 N -0.02783 -0.26596 0.50554
 C149 C -0.03579 -0.22796 0.50567
 C150 C 0.00226 -0.18982 0.48708
 C151 C -0.00405 -0.15213 0.48583
 C152 C -0.04876 -0.15193 0.50336
 C153 C -0.08700 -0.19033 0.52227
 C154 C -0.08060 -0.22808 0.52343
 H155 H -0.11207 -0.44536 0.54794
 H156 H -0.12443 -0.37975 0.54982
 H157 H 0.02285 -0.30898 0.48995
 H158 H 0.03602 -0.37385 0.48779
 H159 H 0.03693 -0.18938 0.47315
 H160 H 0.02607 -0.12318 0.47047
 H161 H -0.12181 -0.19114 0.53645
 H162 H -0.11058 -0.25724 0.53809
 C163 C 0.04909 0.37609 0.48595
 C164 C 0.05647 0.33882 0.48604
 C165 C 0.01949 0.30055 0.50733
 C166 C -0.02536 0.29974 0.52828
 C167 C -0.03287 0.33694 0.52799
 C168 C 0.00432 0.37556 0.50700
 N169 N 0.02846 0.26308 0.50695
 N170 N -0.00283 0.22756 0.52782
 C171 C 0.00663 0.19028 0.52655
 C172 C -0.02877 0.15224 0.55102
 C173 C -0.02083 0.11513 0.54938
 C174 C 0.02281 0.11556 0.52303
 C175 C 0.05839 0.15396 0.49889
 C176 C 0.05044 0.19096 0.50066
 H177 H 0.07843 0.40529 0.46945
 H178 H 0.09116 0.33977 0.46969
 H179 H -0.05453 0.27045 0.54482
 H180 H -0.06774 0.33550 0.54459
 H181 H -0.06265 0.15135 0.57120
 H182 H -0.04877 0.08615 0.56873
 H183 H 0.09213 0.15524 0.47775
 H184 H 0.07836 0.21994 0.48131
 C185 C 0.44631 -0.05783 -0.35733
 C186 C 0.43871 -0.06136 -0.31447
 C187 C 0.45356 -0.02552 -0.29709
 C188 C 0.47497 0.01429 -0.32275
 C189 C 0.48261 0.01797 -0.36560
 C190 C 0.46913 -0.01811 -0.38373
 N191 N 0.44958 -0.03059 -0.25438
 N192 N 0.46415 0.00057 -0.23717
 C193 C 0.46341 -0.00491 -0.19571
 C194 C 0.48429 0.03041 -0.18041
 C195 C 0.49021 0.02566 -0.14298
 C196 C 0.47524 -0.01465 -0.12031
 C197 C 0.45177 -0.04991 -0.13440
 C198 C 0.44597 -0.04512 -0.17183
 H199 H 0.43512 -0.08636 -0.36986
 H200 H 0.42228 -0.09222 -0.29498
 H201 H 0.48680 0.04249 -0.30999
 H202 H 0.49998 0.04914 -0.38464
 H203 H 0.49792 0.06155 -0.19859
 H204 H 0.50867 0.05335 -0.13302
 H205 H 0.43913 -0.08130 -0.11713
 H206 H 0.42938 -0.07291 -0.18283
 C207 C 0.55377 0.04255 0.34668
 C208 C 0.55667 0.04898 0.30554
 C209 C 0.53035 0.01683 0.29071
 C210 C 0.50265 -0.02279 0.31675
 C211 C 0.50000 -0.02942 0.35787
 C212 C 0.52463 0.00355 0.37360
 N213 N 0.53018 0.02626 0.25036
 N214 N 0.50402 0.00011 0.23617
 C215 C 0.50296 0.01131 0.19662
 C216 C 0.47338 -0.01837 0.18241
 C217 C 0.47023 -0.00758 0.14482
 C218 C 0.49659 0.03325 0.12104
 C219 C 0.52652 0.06283 0.13525
 C220 C 0.52971 0.05200 0.17266
 H221 H 0.57333 0.06849 0.35782
 H222 H 0.57818 0.07960 0.28567
 H223 H 0.48210 -0.04816 0.30583
 H224 H 0.47720 -0.05977 0.37792
 H225 H 0.45240 -0.04975 0.20073
 H226 H 0.44667 -0.03089 0.13472
 H227 H 0.54778 0.09430 0.11717
 H228 H 0.55285 0.07555 0.18295
 C229 C 0.51780 -0.33974 0.03068
 C230 C 0.51945 -0.29868 0.03063
 C231 C 0.54218 -0.26993 -0.00748
 C232 C 0.56464 -0.28232 -0.04557
 C233 C 0.56299 -0.32330 -0.04560
 C234 C 0.53889 -0.35271 -0.00758
 N235 N 0.53936 -0.22950 -0.00714
 N236 N 0.55810 -0.20264 -0.04106
 C237 C 0.55299 -0.16326 -0.04178
 C238 C 0.57204 -0.13693 -0.08095
 C239 C 0.56315 -0.10074 -0.08371
 C240 C 0.53505 -0.09019 -0.04713
 C241 C 0.51782 -0.11557 -0.00748
 C242 C 0.52657 -0.15192 -0.00480
 H243 H 0.49898 -0.36159 0.06050
 H244 H 0.50190 -0.28958 0.06019
 H245 H 0.58245 -0.26071 -0.07549
 H246 H 0.57973 -0.33220 -0.07559
 H247 H 0.59252 -0.14529 -0.10965
 H248 H 0.57734 -0.08149 -0.11459
 H249 H 0.49576 -0.10840 0.02117
 H250 H 0.51145 -0.17179 0.02587
 C251 C 0.52969 0.39742 -0.05214
 C252 C 0.52788 0.35632 -0.05240
 C253 C 0.50193 0.32639 -0.01505
 C254 C 0.47696 0.33789 0.02262
 C255 C 0.47897 0.37899 0.02300
 C256 C 0.50575 0.40936 -0.01426
 N257 N 0.50305 0.28528 -0.01555
 N258 N 0.47866 0.25666 0.01728
 C259 C 0.48040 0.21588 0.01885
 C260 C 0.45138 0.18664 0.05634
 C261 C 0.45425 0.14767 0.06068
 C262 C 0.48652 0.13717 0.02752
 C263 C 0.51473 0.16605 -0.01075
 C264 C 0.51178 0.20523 -0.01506
 H265 H 0.55073 0.42008 -0.08135
 H266 H 0.54735 0.34794 -0.08161
 H267 H 0.45667 0.31541 0.05198
 H268 H 0.46007 0.38711 0.05266
 H269 H 0.42699 0.19444 0.08263
 H270 H 0.43149 0.12580 0.09026
 H271 H 0.54006 0.15892 -0.03673
 H272 H 0.53467 0.22744 -0.04436
 C273 C -0.34149 0.01744 0.46154
 C274 C -0.30028 0.01376 0.45685
 C275 C -0.29996 -0.02555 0.46650
 C276 C -0.34123 -0.06151 0.47984
 C277 C -0.38232 -0.05795 0.48410
 C278 C -0.38303 -0.01838 0.47553
 N279 N -0.25788 -0.02799 0.46409
 N280 N -0.25713 -0.06177 0.47830
 C281 C -0.21572 -0.06452 0.47733
 C282 C -0.21929 -0.10001 0.50047
 C283 C -0.18020 -0.10249 0.50303
 C284 C -0.13645 -0.06960 0.48185
 C285 C -0.13276 -0.03464 0.45721
 C286 C -0.17209 -0.03196 0.45520
 H287 H -0.34089 0.04833 0.45450
 H288 H -0.26870 0.04170 0.44654
 H289 H -0.34185 -0.09229 0.48737
 H290 H -0.41372 -0.08613 0.49495
 H291 H -0.25277 -0.12525 0.51773
 H292 H -0.18460 -0.12956 0.52285
 H293 H -0.09956 -0.00916 0.43972
 H294 H -0.16846 -0.00438 0.43671
 C295 C 0.33934 -0.03607 0.52778
 C296 C 0.29827 -0.03365 0.53037
 C297 C 0.29759 0.00479 0.51832
 C298 C 0.33833 0.04132 0.50469
 C299 C 0.37941 0.03903 0.50246
 C300 C 0.38045 0.00019 0.51344
 N301 N 0.25535 0.00556 0.51941
 N302 N 0.25297 0.03832 0.50493
 C303 C 0.21042 0.03827 0.50595
 C304 C 0.21033 0.07441 0.48732
 C305 C 0.16934 0.07512 0.48754
 C306 C 0.12763 0.03955 0.50663
 C307 C 0.12791 0.00333 0.52535
 C308 C 0.16888 0.00263 0.52495
 H309 H 0.33898 -0.06643 0.53659
 H310 H 0.26703 -0.06197 0.54104
 H311 H 0.33854 0.07145 0.49538
 H312 H 0.41055 0.06748 0.49119
 H313 H 0.24216 0.10202 0.47242
 H314 H 0.17037 0.10333 0.47243
 H315 H 0.09625 -0.02432 0.54093
 H316 H 0.16799 -0.02568 0.53971
 C317 C 0.02439 0.50108 1.36044
 C318 C 0.02435 0.50222 1.31998
 C319 C -0.01697 0.48365 1.31505
 C320 C -0.05859 0.46344 1.35134
 C321 C -0.05862 0.46224 1.39195
 C322 C -0.01711 0.48123 1.39697
 N323 N -0.01562 0.48665 1.27305
 N324 N -0.05170 0.47085 1.26587
 C325 C -0.05004 0.47493 1.22379
 C326 C -0.09126 0.45793 1.21841
 C327 C -0.09121 0.46312 1.17814
 C328 C -0.04973 0.48548 1.14236
 C329 C -0.00818 0.50169 1.14769
 C330 C -0.00830 0.49655 1.18803
 H331 H 0.05699 0.51599 1.36307
 H332 H 0.05663 0.51794 1.29231
 H333 H -0.09103 0.44887 1.34837
 H334 H -0.09116 0.44670 1.41939
 H335 H -0.12363 0.44107 1.24564
 H336 H -0.12370 0.44974 1.17501
 H337 H 0.02425 0.51940 1.12086
 H338 H 0.02408 0.51002 1.19131
 C339 C -0.05065 0.45776 0.66132
 C340 C -0.04780 0.45592 0.70069
 C341 C -0.00571 0.47723 0.70365
 C342 C 0.03361 0.50080 0.66664
 C343 C 0.03086 0.50258 0.62734
 C344 C -0.01124 0.48095 0.62413
 N345 N -0.00352 0.47438 0.74425
 N346 N 0.03384 0.49392 0.74844
 C347 C 0.03757 0.49186 0.78833
 C348 C 0.07944 0.51671 0.78986
 C349 C 0.08450 0.51633 0.82812
 C350 C 0.04770 0.49070 0.86581
 C351 C 0.00569 0.46531 0.86410
 C352 C 0.00062 0.46592 0.82568
 H353 H -0.08356 0.44067 0.65994
 H354 H -0.07839 0.43767 0.72893
 H355 H 0.06658 0.51763 0.66797
 H356 H 0.06187 0.52075 0.59939
 H357 H 0.10812 0.53690 0.76131
 H358 H 0.11701 0.53687 0.82835
 H359 H -0.02315 0.44483 0.89236
 H360 H -0.03204 0.44622 0.82520
   
