data_POSCAR
  _audit_creation_date              2014-09-24
  _audit_creation_method            'ToBaCCo'
  _symmetry_space_group_name_H-M    'P1'
  _symmetry_Int_Tables_number       1
  _symmetry_cell_setting            triclinic
  loop_
  _symmetry_equiv_pos_as_xyz
 x,y,z
_cell_length_a 30.7275
_cell_length_b 30.9515
_cell_length_c 29.9771
_cell_angle_alpha 91.447400
_cell_angle_beta 88.881400
_cell_angle_gamma 91.171000
loop_
  _atom_site_label
  _atom_site_type_symbol
  _atom_site_fract_x
  _atom_site_fract_y
  _atom_site_fract_z
C1 C 0.22313 0.18872 0.21841
 C2 C 0.19954 0.17006 0.25364
 C3 C 0.16261 0.19017 0.27178
 C4 C 0.14956 0.22987 0.25536
 C5 C 0.17310 0.24917 0.22010
 C6 C 0.20996 0.22838 0.20135
 C7 C 0.25868 0.16739 0.19886
 C8 C 0.28093 0.18481 0.16210
 C9 C 0.26833 0.22446 0.14518
 C10 C 0.23283 0.24647 0.16465
 C11 C 0.21864 0.28527 0.14702
 C12 C 0.18194 0.30580 0.16546
 C13 C 0.15950 0.28795 0.20205
 H14 H 0.20928 0.13918 0.26621
 H15 H 0.12070 0.24517 0.26926
 H16 H 0.26829 0.13650 0.21150
 H17 H 0.28541 0.23760 0.11639
 H18 H 0.23527 0.29882 0.11820
 H19 H 0.13066 0.30359 0.21553
 C20 C -0.24002 0.82285 0.22222
 C21 C -0.21838 0.84384 0.25770
 C22 C -0.17768 0.82968 0.27102
 C23 C -0.15878 0.79373 0.24941
 C24 C -0.18007 0.77231 0.21386
 C25 C -0.22080 0.78700 0.20004
 C26 C -0.27964 0.83833 0.20732
 C27 C -0.30001 0.81878 0.17032
 C28 C -0.28127 0.78280 0.14856
 C29 C -0.24165 0.76674 0.16315
 C30 C -0.22162 0.73189 0.14049
 C31 C -0.18114 0.71741 0.15416
 C32 C -0.16064 0.73743 0.19087
 H33 H -0.23266 0.87195 0.27415
 H34 H -0.12708 0.78313 0.25949
 H35 H -0.29386 0.86657 0.22357
 H36 H -0.29676 0.76821 0.11949
 H37 H -0.23702 0.71658 0.11177
 H38 H -0.12912 0.72635 0.20091
 C39 C -0.23977 0.17612 -0.22700
 C40 C -0.21936 0.15844 -0.26540
 C41 C -0.18077 0.17713 -0.28248
 C42 C -0.16267 0.21421 -0.26153
 C43 C -0.18272 0.23242 -0.22307
 C44 C -0.22142 0.21326 -0.20570
 C45 C -0.27718 0.15624 -0.20845
 C46 C -0.29616 0.17295 -0.16888
 C47 C -0.27839 0.21018 -0.14816
 C48 C -0.24100 0.23040 -0.16619
 C49 C -0.22189 0.26640 -0.14435
 C50 C -0.18337 0.28518 -0.16124
 C51 C -0.16399 0.26846 -0.20066
 H52 H -0.23281 0.12943 -0.28135
 H53 H -0.13249 0.22814 -0.27452
 H54 H -0.29073 0.12706 -0.22402
 H55 H -0.29285 0.22263 -0.11724
 H56 H -0.23634 0.27921 -0.11361
 H57 H -0.13388 0.28290 -0.21324
 C58 C 0.22717 0.82460 -0.25649
 C59 C 0.20698 0.84333 -0.29257
 C60 C 0.17099 0.82281 -0.31265
 C61 C 0.15545 0.78277 -0.29722
 C62 C 0.17547 0.76339 -0.26119
 C63 C 0.21152 0.78440 -0.24081
 C64 C 0.26121 0.84646 -0.23425
 C65 C 0.27941 0.82860 -0.19659
 C66 C 0.26477 0.78831 -0.18173
 C67 C 0.23073 0.76618 -0.20339
 C68 C 0.21392 0.72743 -0.18655
 C69 C 0.17769 0.70708 -0.20598
 C70 C 0.15874 0.72464 -0.24353
 H71 H 0.21832 0.87467 -0.30403
 H72 H 0.12708 0.76743 -0.31228
 H73 H 0.27245 0.87800 -0.24514
 H74 H 0.27870 0.77506 -0.15216
 H75 H 0.22777 0.71405 -0.15700
 H76 H 0.13014 0.70904 -0.25784
 C77 C 0.18636 1.22638 0.77939
 C78 C 0.16675 1.20468 0.74336
 C79 C 0.18435 1.16646 0.72580
 C80 C 0.22271 1.15042 0.74310
 C81 C 0.24293 1.17207 0.77911
 C82 C 0.22448 1.21007 0.79768
 C83 C 0.16703 1.26284 0.79888
 C84 C 0.18469 1.28273 0.83697
 C85 C 0.22289 1.26715 0.85517
 C86 C 0.24304 1.23074 0.83563
 C87 C 0.28001 1.21325 0.85456
 C88 C 0.29815 1.17546 0.83612
 C89 C 0.27992 1.15523 0.79835
 H90 H 0.13680 1.21665 0.73005
 H91 H 0.23595 1.12051 0.72957
 H92 H 0.13713 1.27476 0.78539
 H93 H 0.23608 1.28243 0.88508
 H94 H 0.29380 1.22811 0.88438
 H95 H 0.29365 1.12548 0.78498
 C96 C 0.82849 0.76399 0.76906
 C97 C 0.84650 0.78337 0.73097
 C98 C 0.82683 0.81936 0.71315
 C99 C 0.78825 0.83528 0.73231
 C100 C 0.76992 0.81631 0.77042
 C101 C 0.79020 0.78067 0.78915
 C102 C 0.84953 0.72989 0.78891
 C103 C 0.83306 0.71278 0.82877
 C104 C 0.79485 0.72892 0.84861
 C105 C 0.77333 0.76301 0.82911
 C106 C 0.73663 0.78130 0.85008
 C107 C 0.71708 0.81704 0.83166
 C108 C 0.73323 0.83407 0.79170
 H109 H 0.87681 0.77169 0.71643
 H110 H 0.77363 0.86366 0.71881
 H111 H 0.87951 0.71763 0.77414
 H112 H 0.78267 0.71591 0.87983
 H113 H 0.72425 0.76884 0.88145
 H114 H 0.71825 0.86224 0.77820
 C115 C 0.18055 0.75909 1.24346
 C116 C 0.15928 0.78229 1.27790
 C117 C 0.17654 0.82191 1.29338
 C118 C 0.21596 0.83798 1.27565
 C119 C 0.23771 0.81513 1.24120
 C120 C 0.21981 0.77562 1.22468
 C121 C 0.16182 0.72094 1.22582
 C122 C 0.18126 0.69953 1.18914
 C123 C 0.22055 0.71556 1.17057
 C124 C 0.24006 0.75368 1.18814
 C125 C 0.27807 0.77159 1.16846
 C126 C 0.29562 0.81100 1.18487
 C127 C 0.27571 0.83231 1.22138
 H128 H 0.12843 0.77042 1.29147
 H129 H 0.22877 0.86901 1.28753
 H130 H 0.13104 0.70889 1.23946
 H131 H 0.23505 0.69930 1.14162
 H132 H 0.29315 0.75573 1.13961
 H133 H 0.28896 0.86317 1.23326
 C134 C 0.82474 1.23728 1.25363
 C135 C 0.83935 1.22199 1.29424
 C136 C 0.81782 1.18708 1.31456
 C137 C 0.78055 1.16831 1.29528
 C138 C 0.76555 1.18317 1.25466
 C139 C 0.78785 1.21764 1.23352
 C140 C 0.84802 1.26997 1.23137
 C141 C 0.83514 1.28274 1.18922
 C142 C 0.79828 1.26372 1.16944
 C143 C 0.77460 1.23098 1.19122
 C144 C 0.73945 1.20966 1.17037
 C145 C 0.71787 1.17506 1.19113
 C146 C 0.73046 1.16226 1.23337
 H147 H 0.86875 1.23573 1.30880
 H148 H 0.76463 1.14064 1.31063
 H149 H 0.87702 1.28442 1.24604
 H150 H 0.78900 1.27339 1.13648
 H151 H 0.72992 1.21884 1.13733
 H152 H 0.71406 1.13492 1.24877
 O153 O 0.53304 0.93642 0.93731
 O154 O 0.45435 0.96924 1.09246
 O155 O 0.56685 0.94494 1.03518
 O156 O 0.38888 0.96778 0.97060
 O157 O 0.53354 0.96610 1.09444
 O158 O 0.44995 0.94114 0.93945
 O159 O 0.43044 0.93696 1.03208
 O160 O 0.58927 0.97157 0.96367
 C161 C 0.57348 0.94064 0.94094
 C162 C 0.43538 0.93725 1.07332
 C163 C 0.55794 0.93974 1.07489
 C164 C 0.40833 0.94487 0.93931
 O165 O 0.45905 1.02532 0.92024
 O166 O 0.54340 1.04932 1.07027
 O167 O 0.56767 1.04955 0.98301
 O168 O 0.40456 1.01506 1.05288
 O169 O 0.46157 1.05385 1.06850
 O170 O 0.54030 1.02150 0.92121
 O171 O 0.42295 1.04113 0.98034
 O172 O 0.60467 1.01781 1.04598
 Co173 Co 0.49573 0.98209 0.93602
 Co174 Co 0.49782 1.00867 1.07566
 Co175 Co 0.56199 0.99780 1.01139
 Co176 Co 0.43142 0.98873 1.00483
 O177 O 0.49663 0.99406 1.00670
 C178 C 0.43199 1.04847 0.94073
 C179 C 0.58483 1.04490 1.07325
 C180 C 0.56321 1.05032 0.94138
 C181 C 0.42099 1.04878 1.07016
 O182 O 0.03834 0.47044 0.08177
 O183 O 0.04021 0.54152 -0.09799
 O184 O 0.02248 0.41167 -0.04621
 O185 O 0.06589 0.56080 0.03631
 O186 O 0.05027 0.46318 -0.08553
 O187 O 0.02061 0.54821 0.08780
 O188 O 0.07181 0.56871 -0.04066
 O189 O 0.05861 0.43851 0.02115
 C190 C 0.06543 0.44772 0.06077
 C191 C 0.06971 0.56426 -0.08153
 C192 C 0.05040 0.42486 -0.07383
 C193 C 0.05704 0.56217 0.07620
 O194 O -0.05783 0.53138 0.05702
 O195 O -0.03622 0.45340 -0.08343
 O196 O -0.01120 0.39539 0.03642
 O197 O -0.01350 0.58933 -0.04659
 O198 O -0.04182 0.53528 -0.08760
 O199 O -0.04575 0.45295 0.06150
 O200 O -0.02020 0.58761 0.03517
 O201 O -0.05377 0.43714 -0.01613
 Co202 Co -0.00910 0.50093 0.06453
 Co203 Co 0.00335 0.49827 -0.08078
 Co204 Co 0.00286 0.44148 0.00320
 Co205 Co 0.02432 0.57092 -0.00355
 O206 O 0.00704 0.50514 -0.00761
 C207 C -0.05479 0.57117 0.05133
 C208 C -0.06156 0.43504 -0.05662
 C209 C -0.03758 0.41308 0.06629
 C210 C -0.04063 0.57448 -0.07502
 O211 O 1.06649 0.06780 0.45720
 O212 O 0.91228 0.02848 0.54364
 O213 O 0.96561 0.06234 0.43409
 O214 O 1.03878 0.02769 0.59404
 O215 O 0.91002 0.03175 0.46294
 O216 O 1.06838 0.06358 0.53971
 O217 O 0.96944 0.05656 0.57136
 O218 O 1.03351 0.03712 0.40091
 C219 C 1.05861 0.06591 0.41633
 C220 C 0.92985 0.05795 0.56661
 C221 C 0.92652 0.06322 0.44330
 C222 C 1.06443 0.05663 0.58049
 O223 O 1.08364 -0.02159 0.53442
 O224 O 0.93996 -0.04863 0.45204
 O225 O 1.01961 -0.04091 0.41965
 O226 O 0.95871 -0.01998 0.60451
 O227 O 0.94257 -0.05227 0.53911
 O228 O 1.08159 -0.01706 0.44825
 O229 O 1.02280 -0.04750 0.56495
 O230 O 0.95347 -0.01062 0.39051
 Co231 Co 1.06906 0.02218 0.49506
 Co232 Co 0.93269 -0.00866 0.49923
 Co233 Co 0.99017 0.00986 0.43200
 Co234 Co 0.99350 0.00412 0.56314
 O235 O 1.00089 0.01143 0.49743
 C236 C 1.06342 -0.04952 0.55808
 C237 C 0.93262 -0.04236 0.41043
 C238 C 1.06044 -0.04323 0.42301
 C239 C 0.93667 -0.04947 0.58176
 C240 C 1.13856 0.16926 0.30361
 C241 C 1.11854 0.14827 0.33081
 C242 C 1.09656 0.12122 0.36150
 C243 C 1.07880 0.09658 0.38689
 C244 C 0.84468 -0.14715 0.30284
 C245 C 0.86450 -0.12527 0.32985
 C246 C 0.88789 -0.09798 0.35992
 C247 C 0.90810 -0.07334 0.38399
 C248 C 0.84190 0.15592 0.68060
 C249 C 0.86108 0.13634 0.65112
 C250 C 0.88410 0.11126 0.61858
 C251 C 0.90447 0.08800 0.59316
 C252 C 1.14903 -0.15589 0.65573
 C253 C 1.12967 -0.13479 0.62953
 C254 C 1.10693 -0.10744 0.60140
 C255 C 1.08727 -0.08204 0.57996
 C256 C 0.31282 1.16118 1.14157
 C257 C 0.33966 1.13787 1.12443
 C258 C 0.36940 1.10825 1.10530
 C259 C 0.39355 1.08158 1.08930
 C260 C 0.31003 0.85327 0.82982
 C261 C 0.33415 0.87385 0.85377
 C262 C 0.36090 0.89804 0.88318
 C263 C 0.38287 0.91908 0.90884
 C264 C 0.66464 0.83787 1.15293
 C265 C 0.63525 0.85722 1.13693
 C266 C 0.60385 0.88297 1.11703
 C267 C 0.58047 0.90755 1.09867
 C268 C 0.67060 1.15086 0.85170
 C269 C 0.64271 1.13029 0.87110
 C270 C 0.61224 1.10458 0.89497
 C271 C 0.58843 1.08090 0.91600
 C272 C 0.16430 0.34267 0.14408
 C273 C 0.14688 0.37168 0.12554
 C274 C 0.12286 0.40277 0.10319
 C275 C 0.09877 0.42586 0.08379
 C276 C -0.16223 0.31999 -0.13648
 C277 C -0.14329 0.34820 -0.11561
 C278 C -0.11866 0.38013 -0.09211
 C279 C -0.09462 0.40617 -0.07408
 C280 C 0.15727 0.67127 -0.18346
 C281 C 0.13982 0.64332 -0.16184
 C282 C 0.11811 0.61309 -0.13438
 C283 C 0.09754 0.58948 -0.11014
 C284 C -0.15912 0.68340 0.12939
 C285 C -0.13877 0.65583 0.10937
 C286 C -0.11245 0.62469 0.08713
 C287 C -0.08759 0.59937 0.06966
 C288 C 1.16182 0.14352 0.69433
 C289 C 1.14004 0.12372 0.66758
 C290 C 1.11332 0.10083 0.63721
 C291 C 1.09048 0.08101 0.61146
 C292 C 0.84801 -0.15772 0.68101
 C293 C 0.86757 -0.13551 0.65471
 C294 C 0.89121 -0.10736 0.62671
 C295 C 0.91185 -0.08167 0.60503
 C296 C 1.15156 -0.15191 0.32431
 C297 C 1.13001 -0.12896 0.34865
 C298 C 1.10475 -0.10076 0.37560
 C299 C 1.08383 -0.07530 0.39765
 C300 C 0.83692 0.16701 0.34875
 C301 C 0.85540 0.14686 0.37626
 C302 C 0.87879 0.12036 0.40440
 C303 C 0.90006 0.09539 0.42454
 C304 C 0.16187 0.31477 -0.14223
 C305 C 0.13866 0.34166 -0.12534
 C306 C 0.10890 0.37146 -0.10706
 C307 C 0.08230 0.39605 -0.09196
 C308 C -0.13810 0.31283 0.16458
 C309 C -0.11505 0.33687 0.14319
 C310 C -0.08778 0.36398 0.11729
 C311 C -0.06461 0.38657 0.09442
 C312 C -0.14377 0.68267 -0.15022
 C313 C -0.12183 0.65698 -0.13189
 C314 C -0.09463 0.62786 -0.11110
 C315 C -0.07037 0.60340 -0.09410
 C316 C 0.15900 0.66613 0.16893
 C317 C 0.13701 0.63851 0.15065
 C318 C 0.10940 0.60882 0.12775
 C319 C 0.08526 0.58596 0.10591
 C320 C 0.33247 1.15433 0.85853
 C321 C 0.35925 1.13396 0.87736
 C322 C 0.38792 1.10706 0.89944
 C323 C 0.40973 1.08159 0.91832
 C324 C 0.33127 0.83248 1.16180
 C325 C 0.35920 0.85322 1.14253
 C326 C 0.38929 0.88028 1.11955
 C327 C 0.41219 0.90536 1.09911
 C328 C 0.68584 1.14968 1.16715
 C329 C 0.66057 1.12707 1.14647
 C330 C 0.63269 1.09931 1.12161
 C331 C 0.61018 1.07480 1.09984
 C332 C 0.68324 0.83936 0.85586
 C333 C 0.65633 0.86019 0.87599
 C334 C 0.62636 0.88667 0.89916
 C335 C 0.60177 0.91073 0.91852
   
