data_POSCAR
  _audit_creation_date              2014-09-24
  _audit_creation_method            'ToBaCCo'
  _symmetry_space_group_name_H-M    'P1'
  _symmetry_Int_Tables_number       1
  _symmetry_cell_setting            triclinic
  loop_
  _symmetry_equiv_pos_as_xyz
 x,y,z
_cell_length_a 30.7078
_cell_length_b 32.1593
_cell_length_c 16.3459
_cell_angle_alpha 90.431800
_cell_angle_beta 89.435200
_cell_angle_gamma 90.035900
loop_
  _atom_site_label
  _atom_site_type_symbol
  _atom_site_fract_x
  _atom_site_fract_y
  _atom_site_fract_z
C1 C 0.70379 0.22881 0.46974
 C2 C 0.70599 0.23784 0.55116
 C3 C 0.68018 0.27223 0.58868
 C4 C 0.73447 0.21401 0.60707
 C5 C 0.72885 0.19429 0.43170
 C6 C 0.68006 0.25554 0.41113
 C7 C 0.68462 0.31353 0.56258
 C8 C 0.65767 0.34481 0.59508
 C9 C 0.62619 0.33544 0.65600
 C10 C 0.62331 0.29407 0.68359
 C11 C 0.64986 0.26297 0.65032
 C12 C 0.76591 0.23527 0.65293
 C13 C 0.79355 0.21369 0.70506
 C14 C 0.78997 0.17042 0.71364
 C15 C 0.75804 0.14909 0.66817
 C16 C 0.73041 0.17077 0.61577
 C17 C 0.70637 0.16172 0.39318
 C18 C 0.72866 0.13324 0.34328
 C19 C 0.77348 0.13776 0.32905
 C20 C 0.79633 0.16932 0.37065
 C21 C 0.77415 0.19730 0.42192
 C22 C 0.63578 0.26568 0.42153
 C23 C 0.61547 0.29265 0.36682
 C24 C 0.63887 0.30852 0.29957
 C25 C 0.68229 0.29674 0.28728
 C26 C 0.70281 0.27098 0.34287
 H27 H 0.70860 0.32143 0.51619
 H28 H 0.66258 0.37607 0.57306
 H29 H 0.60007 0.28543 0.73087
 H30 H 0.64616 0.23135 0.67171
 H31 H 0.76952 0.26865 0.64732
 H32 H 0.81795 0.23090 0.73874
 H33 H 0.70601 0.15379 0.58172
 H34 H 0.67132 0.15930 0.39953
 H35 H 0.71056 0.10887 0.31260
 H36 H 0.83117 0.17277 0.36249
 H37 H 0.79187 0.22257 0.45048
 H38 H 0.61718 0.25319 0.47231
 H39 H 0.58152 0.30057 0.37634
 H40 H 0.70076 0.30842 0.23550
 H41 H 0.73686 0.26359 0.33302
 H42 H 0.75486 0.11565 0.67118
 C43 C 0.21037 0.73441 0.45997
 C44 C 0.20552 0.73469 0.54296
 C45 C 0.17907 0.76726 0.58497
 C46 C 0.22749 0.70378 0.59594
 C47 C 0.23888 0.70429 0.41612
 C48 C 0.19129 0.76731 0.40780
 C49 C 0.18960 0.80957 0.57739
 C50 C 0.16265 0.84004 0.61229
 C51 C 0.12489 0.82865 0.65629
 C52 C 0.11549 0.78624 0.66639
 C53 C 0.14228 0.75582 0.63094
 C54 C 0.25221 0.71777 0.66248
 C55 C 0.27402 0.68958 0.71215
 C56 C 0.27173 0.64655 0.69612
 C57 C 0.24562 0.63252 0.63135
 C58 C 0.22367 0.66081 0.58178
 C59 C 0.22120 0.67902 0.35446
 C60 C 0.24841 0.65612 0.30208
 C61 C 0.29378 0.65908 0.30894
 C62 C 0.31145 0.68307 0.37300
 C63 C 0.28416 0.70550 0.42620
 C64 C 0.14656 0.77668 0.40973
 C65 C 0.13008 0.80859 0.36114
 C66 C 0.15800 0.83063 0.30832
 C67 C 0.20227 0.82042 0.30488
 C68 C 0.21885 0.78942 0.35465
 H69 H 0.21846 0.81895 0.54362
 H70 H 0.17199 0.87230 0.60605
 H71 H 0.08711 0.77663 0.70134
 H72 H 0.13387 0.72332 0.63801
 H73 H 0.25509 0.75074 0.67547
 H74 H 0.29229 0.70177 0.76318
 H75 H 0.20378 0.64915 0.53231
 H76 H 0.18631 0.67813 0.34535
 H77 H 0.23409 0.63743 0.25393
 H78 H 0.34631 0.68490 0.38152
 H79 H 0.29838 0.72527 0.47277
 H80 H 0.12450 0.75933 0.44870
 H81 H 0.09551 0.81516 0.36310
 H82 H 0.22421 0.83675 0.26392
 H83 H 0.25341 0.78281 0.35184
 H84 H 0.24269 0.59957 0.61833
 C85 C 0.29560 0.23834 -0.45342
 C86 C 0.29553 0.23950 -0.53677
 C87 C 0.31993 0.27267 -0.58001
 C88 C 0.27087 0.20961 -0.58841
 C89 C 0.26500 0.21220 -0.40507
 C90 C 0.32462 0.26694 -0.40760
 C91 C 0.30815 0.31440 -0.56847
 C92 C 0.33301 0.34608 -0.60315
 C93 C 0.36997 0.33656 -0.65184
 C94 C 0.38047 0.29442 -0.66567
 C95 C 0.35576 0.26278 -0.62989
 C96 C 0.24557 0.22453 -0.65275
 C97 C 0.22322 0.19719 -0.70400
 C98 C 0.22563 0.15374 -0.69233
 C99 C 0.25176 0.13897 -0.62835
 C100 C 0.27411 0.16654 -0.57701
 C101 C 0.28019 0.18957 -0.33818
 C102 C 0.25147 0.16626 -0.28990
 C103 C 0.20647 0.16518 -0.30737
 C104 C 0.19153 0.18847 -0.37413
 C105 C 0.22030 0.21185 -0.42194
 C106 C 0.37002 0.26255 -0.41376
 C107 C 0.39746 0.29372 -0.38382
 C108 C 0.37986 0.33011 -0.34919
 C109 C 0.33441 0.33359 -0.33979
 C110 C 0.30702 0.30201 -0.36810
 H111 H 0.27982 0.32241 -0.53163
 H112 H 0.32211 0.37760 -0.59273
 H113 H 0.40821 0.28582 -0.70363
 H114 H 0.36506 0.23063 -0.63974
 H115 H 0.24293 0.25765 -0.66327
 H116 H 0.20464 0.21093 -0.75245
 H117 H 0.29425 0.15422 -0.52889
 H118 H 0.31449 0.18989 -0.32331
 H119 H 0.26528 0.14962 -0.23934
 H120 H 0.15726 0.18887 -0.38939
 H121 H 0.20748 0.23015 -0.47156
 H122 H 0.38405 0.23568 -0.44445
 H123 H 0.43240 0.29010 -0.39021
 H124 H 0.32005 0.36075 -0.31078
 H125 H 0.27206 0.30592 -0.36326
 H126 H 0.25478 0.10590 -0.61748
 C127 C -0.20248 0.73394 -0.45495
 C128 C -0.20818 0.73357 -0.53766
 C129 C -0.18768 0.76508 -0.59278
 C130 C -0.23948 0.70468 -0.57702
 C131 C -0.22417 0.70308 -0.40064
 C132 C -0.17639 0.76674 -0.41398
 C133 C -0.21327 0.78441 -0.65220
 C134 C -0.19552 0.81440 -0.70370
 C135 C -0.15205 0.82721 -0.69548
 C136 C -0.12597 0.80746 -0.63674
 C137 C -0.14339 0.77597 -0.58752
 C138 C -0.28408 0.70752 -0.55898
 C139 C -0.31432 0.68522 -0.60519
 C140 C -0.30048 0.65947 -0.67107
 C141 C -0.25542 0.65547 -0.68602
 C142 C -0.22535 0.67822 -0.64029
 C143 C -0.21946 0.66016 -0.41382
 C144 C -0.24125 0.63178 -0.36339
 C145 C -0.26836 0.64554 -0.29854
 C146 C -0.27157 0.68885 -0.28403
 C147 C -0.24970 0.71704 -0.33443
 C148 C -0.14038 0.75561 -0.36693
 C149 C -0.11461 0.78627 -0.33053
 C150 C -0.12439 0.82857 -0.34044
 C151 C -0.16138 0.83961 -0.38569
 C152 C -0.18721 0.80891 -0.42183
 H153 H -0.24740 0.77665 -0.65846
 H154 H -0.21644 0.82852 -0.74873
 H155 H -0.09183 0.81493 -0.63037
 H156 H -0.12228 0.76032 -0.54501
 H157 H -0.29559 0.72825 -0.51090
 H158 H -0.34816 0.68875 -0.58825
 H159 H -0.19101 0.67600 -0.65553
 H160 H -0.19912 0.64863 -0.46349
 H161 H -0.23745 0.59887 -0.37625
 H162 H -0.29073 0.70179 -0.23442
 H163 H -0.25339 0.75005 -0.32253
 H164 H -0.13186 0.72319 -0.35948
 H165 H -0.08683 0.77691 -0.29475
 H166 H -0.17110 0.87173 -0.39192
 H167 H -0.21557 0.81799 -0.45628
 H168 H -0.24332 0.63578 -0.73532
 O169 O -0.04568 1.01238 0.16842
 O170 O 0.03740 0.99736 -0.16947
 O171 O -0.05055 0.95904 -0.06396
 O172 O 0.06886 0.97113 0.08623
 O173 O -0.04176 0.99846 -0.16630
 O174 O 0.03389 1.01092 0.17424
 O175 O 0.05917 0.96048 -0.06696
 O176 O -0.05603 0.96464 0.08007
 C177 C -0.05371 0.97515 0.15262
 C178 C 0.05205 0.96367 -0.14133
 C179 C -0.05018 0.96321 -0.13874
 C180 C 0.05698 0.97942 0.15784
 O181 O 0.03879 1.08734 0.11717
 O182 O -0.04030 1.07813 -0.10875
 O183 O -0.09246 1.04139 0.06860
 O184 O 0.08855 1.03697 -0.08936
 O185 O 0.03788 1.07890 -0.12121
 O186 O -0.04278 1.08697 0.09466
 O187 O 0.09037 1.04888 0.06149
 O188 O -0.09034 1.03455 -0.07957
 Co189 Co -0.00408 1.04724 0.12495
 Co190 Co -0.00171 1.03686 -0.12965
 Co191 Co -0.06651 1.00205 0.00073
 Co192 Co 0.06916 1.00605 -0.00267
 O193 O -0.00046 1.02331 -0.00110
 C194 C 0.07798 1.08109 0.09997
 C195 C -0.07958 1.06971 -0.10517
 C196 C -0.08190 1.07771 0.09017
 C197 C 0.07723 1.07144 -0.11648
 O198 O 0.44555 0.50062 0.15776
 O199 O 0.54410 0.49818 -0.16803
 O200 O 0.45191 0.45664 -0.08079
 O201 O 0.56497 0.46034 0.08573
 O202 O 0.46524 0.49952 -0.17590
 O203 O 0.52487 0.49508 0.17490
 O204 O 0.55938 0.45638 -0.06924
 O205 O 0.43889 0.45669 0.06126
 C206 C 0.43749 0.46437 0.13503
 C207 C 0.55636 0.46288 -0.14371
 C208 C 0.45582 0.46332 -0.15441
 C209 C 0.54929 0.46484 0.15636
 O210 O 0.53529 0.57346 0.13635
 O211 O 0.46503 0.57699 -0.10345
 O212 O 0.40516 0.53539 0.05469
 O213 O 0.59184 0.53332 -0.07648
 O214 O 0.54232 0.57719 -0.10311
 O215 O 0.45424 0.57760 0.10122
 O216 O 0.58784 0.53840 0.07532
 O217 O 0.41362 0.53318 -0.09298
 Co218 Co 0.49057 0.53517 0.12818
 Co219 Co 0.50367 0.53620 -0.12649
 Co220 Co 0.43331 0.49747 -0.01367
 Co221 Co 0.56858 0.49889 0.00242
 O222 O 0.49952 0.51717 -0.00130
 C223 C 0.57496 0.56734 0.12217
 C224 C 0.42576 0.56943 -0.10797
 C225 C 0.41529 0.56979 0.08717
 C226 C 0.58137 0.56934 -0.09638
 C227 C 0.39538 0.36716 0.30930
 C228 C 0.39163 0.40837 0.32247
 C229 C 0.41350 0.43947 0.27031
 C230 C 0.42170 0.43226 0.19096
 H231 H 0.37212 0.42068 0.37232
 H232 H 0.41863 0.47026 0.29577
 H233 H 0.41960 0.35651 0.26525
 H234 H 0.41386 0.40241 0.16379
 C235 C -0.13643 0.85819 0.25167
 C236 C -0.10009 0.88057 0.26269
 C237 C -0.08728 0.91096 0.20018
 C238 C -0.06441 0.94525 0.21755
 H239 H -0.08089 0.87802 0.31758
 H240 H -0.09868 0.90582 0.13829
 H241 H -0.15641 0.86585 0.19942
 H242 H -0.05513 0.95214 0.27998
 C243 C 0.67060 0.63784 0.27707
 C244 C 0.62708 0.64289 0.27718
 C245 C 0.59646 0.61926 0.22505
 C246 C 0.60766 0.59360 0.16313
 H247 H 0.61152 0.66479 0.31829
 H248 H 0.56233 0.62284 0.24097
 H249 H 0.68501 0.61630 0.23358
 H250 H 0.64128 0.58944 0.14489
 C251 C 0.20268 1.12457 0.25936
 C252 C 0.17370 1.13435 0.20157
 C253 C 0.14741 1.10208 0.16076
 C254 C 0.10955 1.11239 0.12691
 H255 H 0.16615 1.16625 0.18744
 H256 H 0.15679 1.06967 0.16495
 H257 H 0.20731 1.09182 0.27227
 H258 H 0.09876 1.14448 0.12928
 C259 C 0.59998 0.36431 -0.30839
 C260 C 0.59667 0.40632 -0.33112
 C261 C 0.57736 0.43699 -0.28100
 C262 C 0.57034 0.43160 -0.19703
 H263 H 0.60850 0.41626 -0.39032
 H264 H 0.57203 0.46739 -0.30720
 H265 H 0.57924 0.35396 -0.25856
 H266 H 0.58001 0.40284 -0.16855
 C267 C 0.09664 0.85980 -0.30217
 C268 C 0.09391 0.89978 -0.32487
 C269 C 0.07117 0.93214 -0.27557
 C270 C 0.06604 0.92905 -0.19443
 H271 H 0.10944 0.90987 -0.38100
 H272 H 0.06325 0.96108 -0.30545
 H273 H 0.07735 0.84899 -0.25078
 H274 H 0.07687 0.90140 -0.16330
 C275 C 0.29593 0.61555 -0.25484
 C276 C 0.33166 0.62484 -0.21190
 C277 C 0.35708 0.59237 -0.17053
 C278 C 0.39614 0.60136 -0.13946
 H279 H 0.34420 0.65629 -0.21101
 H280 H 0.34509 0.56065 -0.16978
 H281 H 0.28556 0.58335 -0.25842
 H282 H 0.40847 0.63290 -0.14331
 C283 C -0.17836 1.14874 -0.23324
 C284 C -0.18542 1.11102 -0.20084
 C285 C -0.15322 1.08717 -0.15284
 C286 C -0.11150 1.09824 -0.14152
 H287 H -0.21643 1.09585 -0.21001
 H288 H -0.16426 1.05738 -0.13011
 H289 H -0.14857 1.16524 -0.22004
 H290 H -0.09904 1.12730 -0.16472
 C291 C 0.70828 0.61555 -0.25284
 C292 C 0.67800 0.62425 -0.19531
 C293 C 0.65120 0.59115 -0.15805
 C294 C 0.61342 0.60083 -0.12133
 H295 H 0.66990 0.65589 -0.17888
 H296 H 0.66030 0.55883 -0.16676
 H297 H 0.71357 0.58302 -0.26812
 H298 H 0.60325 0.63310 -0.11814
 C299 C 0.17566 1.14205 -0.26176
 C300 C 0.18482 1.11753 -0.19776
 C301 C 0.15184 1.09177 -0.15513
 C302 C 0.10911 1.10037 -0.15260
 H303 H 0.21785 1.11303 -0.17789
 H304 H 0.16380 1.06447 -0.12410
 H305 H 0.14218 1.14345 -0.28177
 H306 H 0.09673 1.12860 -0.17941
 C307 C 0.40934 0.36313 -0.31949
 C308 C 0.39938 0.40367 -0.32452
 C309 C 0.42385 0.43691 -0.28195
 C310 C 0.44432 0.42988 -0.21161
 H311 H 0.37097 0.41310 -0.35844
 H312 H 0.41863 0.46864 -0.30137
 H313 H 0.43994 0.35361 -0.29311
 H314 H 0.44579 0.39864 -0.18759
 C315 C -0.09723 0.85991 -0.29785
 C316 C -0.09517 0.90011 -0.31927
 C317 C -0.07282 0.93254 -0.27043
 C318 C -0.06476 0.92851 -0.19051
 H319 H -0.11075 0.91040 -0.37460
 H320 H -0.06698 0.96218 -0.29964
 H321 H -0.07806 0.84895 -0.24722
 H322 H -0.07272 0.89998 -0.15915
 C323 C 0.32180 0.63680 0.24890
 C324 C 0.36004 0.65229 0.22299
 C325 C 0.39123 0.62950 0.16994
 C326 C 0.38106 0.59709 0.12150
 H327 H 0.37102 0.68202 0.24651
 H328 H 0.42491 0.63918 0.17470
 H329 H 0.31009 0.60737 0.22537
 H330 H 0.34751 0.58781 0.11339
 C331 C -0.20442 1.10961 0.27009
 C332 C -0.17305 1.12301 0.21947
 C333 C -0.14903 1.09409 0.16534
 C334 C -0.11391 1.10714 0.12404
 H335 H -0.16371 1.15553 0.22026
 H336 H -0.15718 1.06128 0.16626
 H337 H -0.21522 1.07756 0.26635
 H338 H -0.10462 1.13964 0.12736
 C339 C 0.61938 0.33698 0.24008
 C340 C 0.59237 0.36783 0.26132
 C341 C 0.58006 0.39854 0.19955
 C342 C 0.55889 0.43358 0.21902
 H343 H 0.58193 0.37197 0.32438
 H344 H 0.59000 0.39286 0.13658
 H345 H 0.63149 0.33520 0.17755
 H346 H 0.54851 0.43938 0.28164
 C347 C 0.14193 0.86237 0.25171
 C348 C 0.10983 0.88904 0.26979
 C349 C 0.09687 0.91937 0.20787
 C350 C 0.06992 0.95113 0.22384
 H351 H 0.09394 0.88884 0.32927
 H352 H 0.11018 0.91540 0.14658
 H353 H 0.15892 0.86513 0.19347
 H354 H 0.05702 0.95602 0.28510
   
