data_POSCAR
  _audit_creation_date              2014-09-24
  _audit_creation_method            'ToBaCCo'
  _symmetry_space_group_name_H-M    'P1'
  _symmetry_Int_Tables_number       1
  _symmetry_cell_setting            triclinic
  loop_
  _symmetry_equiv_pos_as_xyz
 x,y,z
_cell_length_a 21.9593
_cell_length_b 21.8546
_cell_length_c 34.9344
_cell_angle_alpha 90.269700
_cell_angle_beta 91.793300
_cell_angle_gamma 94.735500
loop_
  _atom_site_label
  _atom_site_type_symbol
  _atom_site_fract_x
  _atom_site_fract_y
  _atom_site_fract_z
C1 C -0.05286 0.31731 0.97537
 C2 C -0.06290 0.31711 1.01389
 C3 C -0.03445 0.37156 1.02877
 N4 N -0.00955 0.40609 1.00029
 C5 C -0.02061 0.37277 0.96773
 C6 C -0.02866 0.38802 1.06814
 C7 C -0.01401 0.44976 1.07989
 C8 C 0.00958 0.46779 1.11591
 C9 C 0.01607 0.53065 1.11628
 C10 C -0.00384 0.54978 1.08051
 N11 N -0.02177 0.50008 1.05835
 C12 C -0.00643 0.61190 1.06966
 C13 C -0.01271 0.62891 1.03072
 C14 C -0.03396 0.68339 1.01771
 C15 C -0.02877 0.68350 0.97875
 C16 C -0.00558 0.62862 0.96911
 N17 N 0.00390 0.59504 1.00086
 C18 C 0.01067 0.61235 0.93189
 C19 C 0.02220 0.55164 0.92213
 C20 C 0.05340 0.53444 0.89045
 C21 C 0.05121 0.47120 0.89053
 C22 C 0.01848 0.45169 0.92217
 N23 N 0.00120 0.50100 0.94130
 C24 C 0.00172 0.38990 0.93164
 H25 H -0.06825 0.28120 0.95515
 H26 H -0.08843 0.28089 1.02905
 H27 H -0.02870 0.49996 0.96389
 H28 H 0.02217 0.43878 1.13939
 H29 H 0.03445 0.55884 1.14015
 H30 H -0.05176 0.71927 1.03446
 H31 H -0.04106 0.71969 0.95968
 H32 H 0.07110 0.44295 0.86953
 H33 H -0.04325 0.50050 1.03135
 H34 H 0.07547 0.56425 0.86947
 C35 C 0.30785 -0.00628 0.48811
 C36 C 0.31288 -0.00918 0.52726
 C37 C 0.37448 0.00246 0.53706
 N38 N 0.40697 0.01329 0.50524
 C39 C 0.36637 0.00790 0.47529
 C40 C 0.39926 0.00960 0.57476
 C41 C 0.46279 0.01824 0.58275
 C42 C 0.48969 0.04541 0.61564
 C43 C 0.55171 0.04127 0.61329
 C44 C 0.56087 0.00941 0.57969
 N45 N 0.50632 -0.00321 0.56090
 C46 C 0.61755 -0.00959 0.56719
 C47 C 0.62546 -0.02323 0.52804
 C48 C 0.67093 -0.05697 0.51403
 C49 C 0.66504 -0.05588 0.47489
 C50 C 0.61659 -0.02111 0.46615
 N51 N 0.59198 -0.00171 0.49866
 C52 C 0.59780 -0.00436 0.42881
 C53 C 0.53915 0.01518 0.42084
 C54 C 0.52103 0.04235 0.38699
 C55 C 0.45945 0.04848 0.38917
 C56 C 0.44183 0.02522 0.42436
 N57 N 0.49064 0.00508 0.44350
 C58 C 0.38123 0.01951 0.43680
 H59 H 0.26572 -0.01298 0.47115
 H60 H 0.27508 -0.01758 0.54617
 H61 H 0.48955 -0.02081 0.46843
 H62 H 0.46711 0.06674 0.63869
 H63 H 0.58585 0.06025 0.63400
 H64 H 0.70442 -0.08071 0.53026
 H65 H 0.69305 -0.07852 0.45518
 H66 H 0.43079 0.06741 0.36720
 H67 H 0.49843 -0.03088 0.53657
 H68 H 0.54896 0.05566 0.36295
 C69 C 0.12305 0.01908 0.26382
 H70 H 0.12472 0.01216 0.23321
 C71 C 0.17736 0.03028 0.28565
 H72 H 0.22080 0.03098 0.27173
 C73 C 0.06470 0.02695 0.31919
 H74 H 0.02097 0.02682 0.33235
 C75 C 0.11758 0.03843 0.34199
 H76 H 0.11291 0.04418 0.37248
 N77 N 0.06817 0.01526 0.28107
 C78 C -0.06045 -0.10740 0.21311
 H79 H -0.10113 -0.08402 0.21782
 C80 C -0.06392 -0.15973 0.18988
 H81 H -0.10754 -0.17694 0.17699
 C82 C 0.04645 -0.11181 0.22276
 H83 H 0.08937 -0.09319 0.23551
 C84 C 0.04522 -0.16355 0.19906
 H85 H 0.08729 -0.18446 0.19402
 Zn86 Zn -0.00518 -0.00546 0.25179
 N87 N -0.00561 -0.08359 0.22814
 C88 C -0.01260 0.03573 0.17572
 N89 N -0.01132 0.05397 0.21304
 C90 C -0.01008 0.11435 0.22283
 C91 C -0.01064 0.15918 0.19443
 C92 C -0.01296 0.07888 0.14651
 C93 C -0.07256 -0.04955 0.31322
 C94 C -0.11568 -0.04918 0.34162
 C95 C -0.16205 0.03247 0.30801
 C96 C -0.11685 0.03174 0.28074
 N97 N -0.07233 -0.00778 0.28448
 H98 H -0.01204 -0.01224 0.16839
 H99 H -0.00757 0.12769 0.25274
 H100 H -0.00796 0.20695 0.20300
 H101 H -0.01334 0.06350 0.11696
 H102 H -0.03703 -0.08099 0.31514
 H103 H -0.11354 -0.08062 0.36542
 H104 H -0.19596 0.06563 0.30557
 H105 H -0.11644 0.06377 0.25727
 C106 C -0.01031 -0.18680 0.18143
 C107 C 0.17505 0.03945 0.32534
 C108 C -0.16061 -0.00743 0.33936
 C109 C -0.01216 0.14140 0.15559
 C110 C 0.00649 0.12483 0.76518
 H111 H 0.00620 0.12791 0.73427
 C112 C 0.00373 0.17789 0.78736
 H113 H 0.00226 0.22122 0.77279
 C114 C 0.00928 0.06362 0.82084
 H115 H 0.01059 0.01896 0.83381
 C116 C 0.00627 0.11537 0.84409
 H117 H 0.00592 0.10985 0.87489
 N118 N 0.00987 0.06925 0.78212
 C119 C 0.09294 -0.04358 0.69801
 H120 H 0.05929 -0.08264 0.69653
 C121 C 0.14566 -0.04358 0.67666
 H122 H 0.15107 -0.08239 0.65811
 C123 C 0.12508 0.05493 0.72338
 H124 H 0.11747 0.09284 0.74207
 C125 C 0.17829 0.05704 0.70229
 H126 H 0.21078 0.09707 0.70454
 Zn127 Zn 0.01175 -0.00061 0.74984
 N128 N 0.08341 0.00530 0.72061
 C129 C -0.05527 0.00057 0.67883
 N130 N -0.05948 -0.00356 0.71750
 C131 C -0.11468 -0.00632 0.73433
 C132 C -0.16868 -0.00646 0.71204
 C133 C -0.10805 0.00113 0.65550
 C134 C 0.06344 -0.07954 0.80218
 C135 C 0.06837 -0.13266 0.82372
 C136 C -0.02930 -0.17343 0.79677
 C137 C -0.03227 -0.11950 0.77565
 N138 N 0.01338 -0.07358 0.77904
 H139 H -0.01099 0.00440 0.66603
 H140 H -0.11663 -0.00795 0.76522
 H141 H -0.21181 -0.00752 0.72624
 H142 H -0.10388 0.00481 0.62476
 H143 H 0.09957 -0.04276 0.80391
 H144 H 0.10836 -0.13618 0.84228
 H145 H -0.06723 -0.20811 0.79421
 H146 H -0.07114 -0.11459 0.75655
 C147 C 0.18946 0.00717 0.67887
 C148 C 0.00334 0.17357 0.82755
 C149 C 0.02180 -0.18065 0.82120
 C150 C -0.16570 -0.00296 0.67196
 C151 C -0.00284 -0.34322 0.09918
 C152 C 0.02500 -0.28658 0.09565
 C153 C 0.02988 -0.24092 0.12702
 C154 C -0.01318 -0.23731 0.15311
 H155 H 0.04934 -0.27415 0.06998
 H156 H 0.06776 -0.20594 0.12644
 H157 H -0.01806 -0.35691 0.12731
 H158 H -0.05454 -0.26797 0.15112
 C159 C -0.03595 0.34345 0.09733
 C160 C -0.02066 0.28559 0.09425
 C161 C -0.02600 0.24345 0.12695
 C162 C -0.00962 0.18614 0.12387
 H163 H -0.00032 0.26994 0.06851
 H164 H -0.04382 0.25951 0.15339
 H165 H -0.04954 0.35823 0.12526
 H166 H 0.00534 0.17064 0.09642
 C167 C 0.35673 0.01231 0.60677
 C168 C 0.32185 -0.03794 0.61679
 C169 C 0.27138 -0.03904 0.64393
 C170 C 0.24518 0.01083 0.65573
 H171 H 0.32886 -0.08124 0.60301
 H172 H 0.25283 -0.08414 0.65244
 H173 H 0.35402 0.05588 0.62111
 H174 H 0.26410 0.05617 0.64799
 C175 C -0.33063 -0.01230 0.59232
 C176 C -0.33226 -0.02259 0.63022
 C177 C -0.27686 -0.02462 0.65554
 C178 C -0.22085 -0.00039 0.64658
 H179 H -0.37549 -0.03450 0.64341
 H180 H -0.28354 -0.04662 0.68293
 H181 H -0.28646 -0.00990 0.57941
 H182 H -0.21391 0.02182 0.61931
 C183 C 0.01897 -0.33727 0.90357
 C184 C -0.00598 -0.34130 0.86801
 C185 C -0.00747 -0.28870 0.84137
 C186 C 0.02722 -0.23534 0.84587
 H187 H -0.03117 -0.38386 0.85891
 H188 H -0.03900 -0.29535 0.81706
 H189 H 0.03999 -0.29386 0.91431
 H190 H 0.06207 -0.23083 0.86847
 C191 C 0.01090 0.33940 0.90438
 C192 C -0.01264 0.33729 0.86849
 C193 C -0.00877 0.28472 0.84189
 C194 C 0.00054 0.22748 0.85346
 H195 H -0.03565 0.37600 0.85776
 H196 H -0.01726 0.29405 0.81198
 H197 H 0.03426 0.30144 0.91571
 H198 H 0.00446 0.21837 0.88379
 C199 C -0.36066 -0.00825 0.39614
 C200 C -0.30073 0.00805 0.39911
 C201 C -0.26157 0.00424 0.36600
 C202 C -0.20228 -0.00336 0.37133
 H203 H -0.27986 0.02377 0.42630
 H204 H -0.28160 0.00539 0.33728
 H205 H -0.38055 -0.02255 0.36840
 H206 H -0.18405 -0.00972 0.40013
 C207 C 0.33162 0.02465 0.40756
 C208 C 0.29039 0.06611 0.41068
 C209 C 0.23683 0.06905 0.38432
 C210 C 0.23261 0.04479 0.34886
 H211 H 0.29305 0.09623 0.43551
 H212 H 0.19930 0.09219 0.39530
 H213 H 0.33035 -0.00627 0.38325
 H214 H 0.27225 0.02716 0.33648
   
