data_POSCAR
  _audit_creation_date              2014-09-24
  _audit_creation_method            'ToBaCCo'
  _symmetry_space_group_name_H-M    'P1'
  _symmetry_Int_Tables_number       1
  _symmetry_cell_setting            triclinic
  loop_
  _symmetry_equiv_pos_as_xyz
 x,y,z
_cell_length_a 25.6253
_cell_length_b 25.5047
_cell_length_c 25.7423
_cell_angle_alpha 89.485300
_cell_angle_beta 90.068000
_cell_angle_gamma 89.366700
loop_
  _atom_site_label
  _atom_site_type_symbol
  _atom_site_fract_x
  _atom_site_fract_y
  _atom_site_fract_z
C1 C 0.34312 0.95111 -0.47764
 C2 C 0.34432 0.95821 -0.53028
 C3 C 0.39237 0.98010 -0.54224
 N4 N 0.42082 0.98580 -0.49857
 C5 C 0.39066 0.96811 -0.45910
 C6 C 0.40652 0.99966 -0.59183
 C7 C 0.45973 1.00836 -0.60587
 C8 C 0.47640 1.03891 -0.64737
 C9 C 0.53025 1.03840 -0.64634
 C10 C 0.54566 1.00753 -0.60422
 N11 N 0.50231 0.98960 -0.57969
 C12 C 0.59845 0.99765 -0.58833
 C13 C 0.61124 0.98315 -0.53621
 C14 C 0.65917 0.96251 -0.52007
 C15 C 0.65753 0.95828 -0.46704
 C16 C 0.60857 0.97564 -0.45218
 N17 N 0.58014 0.99082 -0.49439
 C18 C 0.59159 0.97857 -0.40005
 C19 C 0.53890 0.98541 -0.38609
 C20 C 0.52138 0.99633 -0.33634
 C21 C 0.46785 0.99425 -0.33783
 C22 C 0.45425 0.98256 -0.38857
 N23 N 0.49784 0.97697 -0.41757
 C24 C 0.40326 0.97247 -0.40612
 H25 H 0.31053 0.93615 -0.45554
 H26 H 0.31287 0.94912 -0.55672
 H27 H 0.49986 0.96152 -0.45475
 H28 H 0.45250 1.06120 -0.67448
 H29 H 0.55497 1.06043 -0.67242
 H30 H 0.69202 0.95097 -0.54389
 H31 H 0.68861 0.94342 -0.44231
 H32 H 0.44228 0.99931 -0.30482
 H33 H 0.50198 0.96343 -0.54838
 H34 H 0.54477 1.00365 -0.30217
 C35 C -0.67240 1.49296 -0.01116
 C36 C -0.66290 1.44024 -0.01255
 C37 C -0.60936 1.43336 -0.01853
 N38 N -0.58646 1.48074 -0.02347
 C39 C -0.62478 1.51725 -0.01844
 C40 C -0.58304 1.38441 -0.02495
 C41 C -0.52943 1.38188 -0.03761
 C42 C -0.50394 1.34015 -0.06147
 C43 C -0.45134 1.34962 -0.05814
 C44 C -0.44611 1.39636 -0.03177
 N45 N -0.49376 1.41610 -0.02009
 C46 C -0.39846 1.41726 -0.01460
 C47 C -0.39396 1.46902 0.00258
 C48 C -0.35097 1.48891 0.02813
 C49 C -0.36013 1.54163 0.03322
 C50 C -0.40800 1.55176 0.01024
 N51 N -0.42888 1.50748 -0.00836
 C52 C -0.42869 1.60594 -0.00174
 C53 C -0.48461 1.60873 -0.01969
 C54 C -0.50547 1.65202 -0.04492
 C55 C -0.55759 1.64246 -0.05113
 C56 C -0.56719 1.59404 -0.02802
 N57 N -0.52202 1.57302 -0.00980
 C58 C -0.61733 1.57210 -0.02160
 H59 H -0.71057 1.51067 -0.00626
 H60 H -0.69306 1.41100 -0.01153
 H61 H -0.51822 1.53965 0.01360
 H62 H -0.52089 1.30585 -0.07882
 H63 H -0.42050 1.32411 -0.07213
 H64 H -0.31635 1.46776 0.04092
 H65 H -0.33392 1.56958 0.05040
 H66 H -0.58549 1.66869 -0.06976
 H67 H -0.50125 1.44688 0.00524
 H68 H -0.48510 1.68696 -0.05715
 C69 C 0.04835 0.51378 0.34794
 C70 C 0.04030 0.46055 0.35126
 C71 C 0.01095 0.45182 0.39584
 N72 N 0.00244 0.49780 0.42042
 C73 C 0.02534 0.53545 0.39141
 C74 C -0.00849 0.40308 0.41420
 C75 C -0.02882 0.39851 0.46519
 C76 C -0.06387 0.36064 0.48119
 C77 C -0.06870 0.36505 0.53399
 C78 C -0.03655 0.40576 0.54921
 N79 N -0.01328 0.42667 0.50666
 C80 C -0.02134 0.41644 0.60102
 C81 C -0.00336 0.46702 0.61495
 C82 C 0.01340 0.48252 0.66371
 C83 C 0.02228 0.53554 0.66062
 C84 C 0.00846 0.55159 0.61082
 N85 N -0.00692 0.50956 0.58317
 C86 C 0.00931 0.60386 0.59094
 C87 C 0.00469 0.61469 0.53687
 C88 C -0.00822 0.66354 0.51575
 C89 C -0.00415 0.65941 0.46288
 C90 C 0.01035 0.60806 0.45280
 N91 N 0.01523 0.58076 0.49796
 C92 C 0.02353 0.58925 0.40315
 H93 H 0.06983 0.53405 0.31781
 H94 H 0.05569 0.43194 0.32444
 H95 H 0.03112 0.54320 0.50201
 H96 H -0.08320 0.33195 0.45739
 H97 H -0.09237 0.33979 0.55801
 H98 H 0.01765 0.45918 0.69868
 H99 H 0.03751 0.55905 0.69178
 H100 H -0.01059 0.69088 0.43503
 H101 H 0.01759 0.45294 0.50692
 H102 H -0.01912 0.69885 0.53627
 O103 O -0.12502 0.99882 -0.07865
 O104 O 0.14146 1.01369 -0.06169
 O105 O 0.00578 1.07859 -0.13300
 O106 O 0.01796 0.93416 -0.13338
 O107 O 0.02208 0.87132 -0.06833
 O108 O -0.00408 1.13978 -0.06801
 O109 O 0.08260 1.00890 -0.12930
 O110 O -0.05772 1.00437 -0.13792
 Zr111 Zr 0.00961 1.00573 -0.09160
 O112 O 0.05785 0.96089 -0.04444
 O113 O -0.04398 1.04904 -0.04956
 C114 C -0.10661 1.00224 -0.12571
 C115 C 0.12951 1.01183 -0.11056
 C116 C 0.00043 1.12644 -0.11619
 C117 C 0.02272 0.88595 -0.11655
 H118 H 0.07154 1.07984 -0.06401
 O119 O 0.04958 1.05551 -0.04372
 H120 H -0.05534 0.93097 -0.07269
 O121 O -0.03599 0.95458 -0.04949
 O122 O 0.13394 1.01390 0.07616
 O123 O -0.13295 0.99140 0.06215
 O124 O 0.06280 1.14341 0.00794
 O125 O 0.08542 0.87579 0.00359
 O126 O -0.05302 0.86398 -0.00305
 O127 O -0.07744 1.13298 -0.00377
 O128 O -0.00672 1.07483 0.13559
 O129 O -0.00001 0.92993 0.13506
 O130 O -0.00910 1.13763 0.07034
 O131 O 0.00797 0.86904 0.06956
 O132 O 0.13087 1.08377 0.01074
 O133 O -0.13506 1.06446 -0.00865
 O134 O -0.12410 0.92474 -0.00664
 O135 O 0.14341 0.94398 0.00596
 O136 O 0.06978 1.00807 0.13892
 O137 O -0.07517 0.99641 0.13103
 Zr138 Zr 0.09456 1.01069 0.00550
 Zr139 Zr -0.08668 0.99768 -0.00514
 Zr140 Zr -0.00356 1.09554 0.00110
 Zr141 Zr 0.01181 0.91329 0.00063
 Zr142 Zr -0.00085 1.00292 0.09398
 O143 O -0.04153 0.95325 0.04530
 O144 O 0.04445 1.05399 0.05106
 C145 C 0.11832 1.01211 0.12376
 C146 C -0.12188 0.99188 0.11132
 C147 C 0.11186 1.13098 0.01154
 C148 C 0.13212 0.89472 0.00499
 C149 C -0.10536 0.87421 -0.00550
 C150 C -0.12398 1.11373 -0.00736
 C151 C -0.00913 1.12315 0.11861
 C152 C 0.00280 0.88210 0.11774
 H153 H -0.07424 1.06741 0.06611
 O154 O -0.04897 1.04682 0.04542
 H155 H 0.07473 0.93844 0.07381
 O156 O 0.05201 0.95996 0.05080
 C157 C 0.36400 1.01456 0.37572
 C158 C 0.36095 1.00767 0.32206
 C159 C 0.30965 1.01066 0.29452
 C160 C 0.30170 0.97909 0.25100
 C161 C 0.25317 0.97840 0.22607
 C162 C 0.21128 1.00986 0.24362
 C163 C 0.21892 1.04131 0.28726
 C164 C 0.26771 1.04231 0.31206
 C165 C 0.16098 1.01214 0.21458
 C166 C 0.16238 1.01284 0.16060
 H167 H 0.39413 0.99095 0.30181
 H168 H 0.33290 0.95411 0.23672
 H169 H 0.24838 0.95297 0.19298
 H170 H 0.18757 1.06626 0.30123
 H171 H 0.27243 1.06844 0.34454
 H172 H 0.12428 1.01674 0.23494
 H173 H 0.32759 1.02396 0.39488
 H174 H 0.20060 1.01384 0.14257
 C175 C -0.35860 1.00554 0.37746
 C176 C -0.35864 0.99817 0.32354
 C177 C -0.30975 0.99933 0.29180
 C178 C -0.30788 0.97154 0.24501
 C179 C -0.26225 0.96991 0.21502
 C180 C -0.21719 0.99692 0.23061
 C181 C -0.21906 1.02485 0.27735
 C182 C -0.26475 1.02653 0.30733
 C183 C -0.16815 0.99701 0.19915
 C184 C -0.16788 0.98750 0.14575
 H185 H -0.39380 0.98438 0.30503
 H186 H -0.34167 0.95013 0.23197
 H187 H -0.26246 0.94661 0.18016
 H188 H -0.18518 1.04611 0.29041
 H189 H -0.26457 1.04976 0.34225
 H190 H -0.13211 1.00851 0.21767
 H191 H -0.32095 1.01227 0.39485
 H192 H -0.20453 0.98008 0.12645
 C193 C -0.37045 0.97130 -0.35703
 C194 C -0.33044 1.00678 -0.34837
 C195 C -0.29720 1.00554 -0.30109
 C196 C -0.24889 1.03078 -0.30235
 C197 C -0.21627 1.03020 -0.25875
 C198 C -0.23132 1.00425 -0.21268
 C199 C -0.28058 0.98093 -0.21070
 C200 C -0.31323 0.98148 -0.25434
 C201 C -0.19688 1.00142 -0.16624
 C202 C -0.14272 1.00412 -0.17024
 H203 H -0.32320 1.03668 -0.37761
 H204 H -0.23616 1.05078 -0.33734
 H205 H -0.17964 1.05072 -0.26127
 H206 H -0.29365 0.96172 -0.17541
 H207 H -0.35117 0.96370 -0.25082
 H208 H -0.21427 0.99423 -0.12854
 H209 H -0.37828 0.94061 -0.32896
 H210 H -0.12508 1.00716 -0.20830
 C211 C 0.36045 0.96748 -0.36801
 C212 C 0.34238 1.01091 -0.34071
 C213 C 0.29715 1.00891 -0.30537
 C214 C 0.29511 1.04334 -0.26328
 C215 C 0.25312 1.04225 -0.22880
 C216 C 0.21204 1.00699 -0.23624
 C217 C 0.21305 0.97398 -0.27949
 C218 C 0.25539 0.97462 -0.31365
 C219 C 0.16754 1.00458 -0.19999
 C220 C 0.17330 1.01432 -0.14712
 H221 H 0.36356 1.04735 -0.34397
 H222 H 0.32637 1.07078 -0.25675
 H223 H 0.25260 1.06949 -0.19680
 H224 H 0.18133 0.94719 -0.28646
 H225 H 0.25487 0.94892 -0.34685
 H226 H 0.13022 0.99162 -0.21463
 H227 H 0.34068 0.93031 -0.36496
 H228 H 0.21162 1.02230 -0.13147
 C229 C 0.38988 1.33690 -0.01935
 C230 C 0.35419 1.32858 0.02080
 C231 C 0.31753 1.28456 0.02183
 C232 C 0.26911 1.29209 0.04613
 C233 C 0.23140 1.25316 0.04467
 C234 C 0.24182 1.20578 0.01913
 C235 C 0.29109 1.19725 -0.00304
 C236 C 0.32869 1.23635 -0.00194
 C237 C 0.20274 1.16414 0.01574
 C238 C 0.14905 1.17391 0.01642
 H239 H 0.34935 1.35831 0.05029
 H240 H 0.25997 1.32873 0.06525
 H241 H 0.19444 1.26021 0.06378
 H242 H 0.30020 1.16056 -0.02209
 H243 H 0.36621 1.22842 -0.01952
 H244 H 0.21696 1.12455 0.00931
 H245 H 0.40051 1.30403 -0.04330
 H246 H 0.13393 1.21359 0.01895
 C247 C 0.33844 0.60549 -0.01999
 C248 C 0.33947 0.65468 0.00358
 C249 C 0.29463 0.69145 0.00581
 C250 C 0.30389 0.74272 0.02247
 C251 C 0.26341 0.77955 0.02432
 C252 C 0.21270 0.76582 0.00912
 C253 C 0.20299 0.71420 -0.00592
 C254 C 0.24346 0.67726 -0.00767
 C255 C 0.16904 0.80388 0.00889
 C256 C 0.17624 0.85788 0.00630
 H257 H 0.37525 0.66711 0.02201
 H258 H 0.34274 0.75450 0.03382
 H259 H 0.27217 0.81836 0.03817
 H260 H 0.16402 0.70252 -0.01694
 H261 H 0.23383 0.63801 -0.01931
 H262 H 0.12972 0.78867 0.00820
 H263 H 0.30170 0.59094 -0.03369
 H264 H 0.21501 0.87408 0.00436
 C265 C -0.39111 0.65936 0.00047
 C266 C -0.33996 0.65694 -0.01660
 C267 C -0.30501 0.70205 -0.01373
 C268 C -0.25218 0.69465 -0.02573
 C269 C -0.21775 0.73637 -0.02306
 C270 C -0.23575 0.78644 -0.00855
 C271 C -0.28871 0.79400 0.00295
 C272 C -0.32314 0.75209 0.00066
 C273 C -0.20009 0.83109 -0.00541
 C274 C -0.14664 0.82354 -0.00795
 H275 H -0.32495 0.62055 -0.03248
 H276 H -0.23742 0.65641 -0.03696
 H277 H -0.17716 0.72934 -0.03265
 H278 H -0.30339 0.83229 0.01404
 H279 H -0.36382 0.75897 0.00995
 H280 H -0.21594 0.87029 -0.00015
 H281 H -0.40990 0.63259 -0.00063
 H282 H -0.12694 0.84901 -0.00676
 C283 C -0.35042 1.38504 -0.01670
 C284 C -0.34674 1.33714 0.00933
 C285 C -0.29916 1.30405 0.00929
 C286 C -0.30380 1.25074 0.02170
 C287 C -0.26025 1.21757 0.02038
 C288 C -0.21110 1.23720 0.00631
 C289 C -0.20592 1.29092 -0.00376
 C290 C -0.24951 1.32418 -0.00233
 C291 C -0.16470 1.20273 0.00273
 C292 C -0.16878 1.14970 -0.00853
 H293 H -0.38112 1.32237 0.02887
 H294 H -0.34138 1.23454 0.03190
 H295 H -0.26531 1.17678 0.03085
 H296 H -0.16820 1.30706 -0.01347
 H297 H -0.24378 1.36543 -0.00996
 H298 H -0.12648 1.21975 0.00776
 H299 H -0.31714 1.40147 -0.03651
 H300 H -0.20655 1.13303 -0.01662
 C301 C -0.00790 1.35687 0.38395
 C302 C -0.01290 1.35501 0.32996
 C303 C -0.01396 1.30489 0.30092
 C304 C -0.03846 1.30420 0.25227
 C305 C -0.03949 1.25832 0.22307
 C306 C -0.01479 1.21199 0.24126
 C307 C 0.00874 1.21225 0.29050
 C308 C 0.00952 1.25824 0.31995
 C309 C -0.01199 1.16384 0.20900
 C310 C -0.01291 1.16726 0.15494
 H311 H -0.02216 1.39073 0.30872
 H312 H -0.05717 1.33931 0.23681
 H313 H -0.05992 1.25953 0.18630
 H314 H 0.02779 1.17718 0.30562
 H315 H 0.02967 1.25726 0.35688
 H316 H -0.00552 1.12607 0.22763
 H317 H -0.00931 1.31971 0.40449
 H318 H -0.01466 1.20572 0.13688
 C319 C -0.02564 1.37519 -0.36218
 C320 C 0.01498 1.35903 -0.32919
 C321 C 0.01319 1.30922 -0.29894
 C322 C 0.03922 1.30586 -0.25112
 C323 C 0.03759 1.25980 -0.22128
 C324 C 0.01033 1.21574 -0.23900
 C325 C -0.01348 1.21813 -0.28803
 C326 C -0.01234 1.26446 -0.31766
 C327 C 0.00614 1.16755 -0.20654
 C328 C 0.00150 1.17110 -0.15279
 H329 H 0.05038 1.38166 -0.32707
 H330 H 0.06020 1.33927 -0.23641
 H331 H 0.05794 1.25869 -0.18441
 H332 H -0.03388 1.18446 -0.30294
 H333 H -0.03086 1.26478 -0.35546
 H334 H 0.00380 1.12968 -0.22505
 H335 H -0.05796 1.34871 -0.36543
 H336 H -0.00087 1.20974 -0.13571
 C337 C 0.01621 0.64785 -0.37652
 C338 C -0.00469 0.65378 -0.32667
 C339 C -0.00013 0.70307 -0.29643
 C340 C -0.00616 0.70074 -0.24233
 C341 C -0.00238 0.74603 -0.21236
 C342 C 0.00750 0.79507 -0.23585
 C343 C 0.01182 0.79779 -0.29007
 C344 C 0.00815 0.75242 -0.32011
 C345 C 0.01131 0.84376 -0.20473
 C346 C 0.02828 0.84237 -0.15330
 H347 H -0.02688 0.62225 -0.30944
 H348 H -0.01374 0.66365 -0.22308
 H349 H -0.00830 0.74248 -0.17088
 H350 H 0.01830 0.83513 -0.30925
 H351 H 0.01072 0.75675 -0.36181
 H352 H 0.00009 0.88094 -0.22234
 H353 H 0.03512 0.68153 -0.39352
 H354 H 0.04202 0.80543 -0.13702
 C355 C 0.03578 0.62872 0.36257
 C356 C -0.00274 0.64605 0.32800
 C357 C 0.00022 0.69578 0.29776
 C358 C -0.03179 0.70219 0.25391
 C359 C -0.03140 0.74887 0.22506
 C360 C 0.00096 0.79055 0.23956
 C361 C 0.03150 0.78506 0.28457
 C362 C 0.03138 0.73808 0.31334
 C363 C 0.00375 0.83929 0.20764
 C364 C -0.00065 0.83713 0.15377
 H365 H -0.03774 0.62285 0.32443
 H366 H -0.05711 0.67083 0.24177
 H367 H -0.05689 0.75236 0.19162
 H368 H 0.05609 0.81686 0.29704
 H369 H 0.05498 0.73556 0.34814
 H370 H 0.01342 0.87600 0.22598
 H371 H 0.07163 0.65029 0.36665
 H372 H -0.00460 0.79907 0.13590
   
