data_POSCAR
  _audit_creation_date              2014-09-24
  _audit_creation_method            'ToBaCCo'
  _symmetry_space_group_name_H-M    'P1'
  _symmetry_Int_Tables_number       1
  _symmetry_cell_setting            triclinic
  loop_
  _symmetry_equiv_pos_as_xyz
 x,y,z
_cell_length_a 35.4745
_cell_length_b 34.4549
_cell_length_c 25.9433
_cell_angle_alpha 90.103400
_cell_angle_beta 89.988400
_cell_angle_gamma 90.277800
loop_
  _atom_site_label
  _atom_site_type_symbol
  _atom_site_fract_x
  _atom_site_fract_y
  _atom_site_fract_z
C1 C 1.24565 0.24661 0.25018
 C2 C 0.75292 -0.24688 0.25208
 C3 C 0.75274 0.25264 -0.24868
 C4 C 1.24528 -0.25327 -0.24857
 C5 C 0.24481 0.24738 0.74973
 C6 C 0.75247 0.75271 0.74775
 C7 C 0.75193 0.25250 0.24850
 C8 C 0.24535 0.74740 0.24893
 O9 O 0.93668 -0.05852 -0.09244
 O10 O 0.97139 -0.10093 -0.04372
 C11 C 0.94661 -0.09314 -0.07913
 O12 O 1.06852 0.05528 -0.08402
 O13 O 1.02958 0.09801 -0.04201
 C14 C 1.05854 0.08993 -0.07074
 O15 O 1.06658 -0.05133 -0.09406
 O16 O 1.03751 -0.09717 -0.04337
 C17 C 1.06131 -0.08670 -0.07886
 O18 O 0.92534 0.04768 -0.08402
 O19 O 0.95959 0.09420 -0.04086
 C20 C 0.93223 0.08330 -0.07106
 Zr21 Zr 0.95185 -0.00409 -0.06277
 O22 O 0.95051 0.00038 -0.14415
 O23 O 0.89260 -0.01032 -0.05815
 Zr24 Zr 1.04495 0.00106 -0.06607
 O25 O 1.03663 0.00384 -0.14659
 O26 O 1.10399 0.00069 -0.07733
 O27 O 1.00009 -0.03694 -0.07430
 O28 O 0.99671 0.03340 -0.07397
 O29 O 0.92742 0.04795 0.08851
 O30 O 0.96046 0.09430 0.04342
 C31 C 0.93380 0.08351 0.07483
 O32 O 1.07067 -0.05066 0.09011
 O33 O 1.03897 -0.09706 0.04325
 C34 C 1.06450 -0.08625 0.07635
 O35 O 1.07213 0.05584 0.07838
 O36 O 1.03072 0.09834 0.04089
 C37 C 1.06105 0.09048 0.06688
 O38 O 0.93914 -0.05811 0.09707
 O39 O 0.97192 -0.10080 0.04594
 C40 C 0.94822 -0.09283 0.08269
 Zr41 Zr 0.95418 -0.00376 0.06728
 O42 O 0.96068 -0.00021 0.14811
 O43 O 0.89509 -0.01054 0.07380
 Zr44 Zr 1.04707 0.00161 0.06469
 O45 O 1.04130 0.00696 0.14566
 O46 O 1.10603 0.00178 0.07623
 Zr47 Zr 1.00264 -0.06010 0.00089
 Zr48 Zr 0.99680 0.05748 0.00053
 O49 O 0.99910 0.03410 0.07529
 O50 O 1.00261 -0.03661 0.07610
 O51 O 0.94377 0.02984 0.00236
 O52 O 1.05519 -0.03147 -0.00088
 O53 O 0.94745 -0.03816 0.00244
 O54 O 1.05212 0.03532 -0.00107
 H55 H 0.99559 0.05160 -0.10348
 H56 H 1.07907 -0.04621 -0.00184
 H57 H 0.99883 0.05282 0.10436
 H58 H 0.92580 -0.05645 0.00297
 H59 H 1.11547 0.00906 -0.04439
 H60 H 1.11765 0.00225 0.04162
 H61 H 1.03495 -0.01907 0.15934
 H62 H 0.93488 -0.00138 0.16270
 H63 H 0.88424 -0.00200 0.04059
 H64 H 0.88316 -0.01098 -0.09411
 H65 H 0.96870 -0.01864 -0.15808
 H66 H 1.06208 0.00644 -0.16192
 O67 O 1.06811 0.44978 0.59186
 O68 O 1.03785 0.40375 0.54257
 C69 C 1.06229 0.41431 0.57730
 O70 O 0.92715 0.54936 0.58469
 O71 O 0.96081 0.59551 0.54022
 C72 C 0.93377 0.58484 0.57107
 O73 O 0.93724 0.44319 0.59261
 O74 O 0.97061 0.40022 0.54268
 C75 C 0.94630 0.40838 0.57864
 O76 O 1.07024 0.55621 0.58125
 O77 O 1.03094 0.59892 0.54003
 C78 C 1.06016 0.59084 0.56816
 Zr79 Zr 1.04618 0.50202 0.56423
 O80 O 1.03832 0.50491 0.64486
 O81 O 1.10531 0.50160 0.57446
 Zr82 Zr 0.95341 0.49739 0.56358
 O83 O 0.95915 0.50048 0.64456
 O84 O 0.89424 0.49053 0.56938
 O85 O 1.00132 0.46413 0.57392
 O86 O 0.99837 0.53492 0.57314
 O87 O 1.07226 0.55563 0.41903
 O88 O 1.03162 0.59872 0.45711
 C89 C 1.06165 0.59046 0.43051
 O90 O 0.93712 0.44245 0.40547
 O91 O 0.97113 0.39982 0.45477
 C92 C 0.94655 0.40775 0.41919
 O93 O 0.92566 0.54861 0.41500
 O94 O 0.96089 0.59524 0.45643
 C95 C 0.93301 0.58430 0.42717
 O96 O 1.06942 0.44914 0.40786
 O97 O 1.03795 0.40329 0.45566
 C98 C 1.06311 0.41371 0.42196
 Zr99 Zr 1.04663 0.50178 0.43332
 O100 O 1.03998 0.50724 0.35252
 O101 O 1.10543 0.50124 0.42036
 Zr102 Zr 0.95390 0.49714 0.43283
 O103 O 0.95950 0.50302 0.35190
 O104 O 0.89519 0.49059 0.42192
 Zr105 Zr 1.00257 0.44075 0.49871
 Zr106 Zr 0.99754 0.55838 0.49839
 O107 O 0.99886 0.53468 0.42362
 O108 O 1.00187 0.46372 0.42315
 O109 O 1.05271 0.53581 0.49882
 O110 O 0.94759 0.46345 0.49829
 O111 O 1.05533 0.46902 0.49895
 O112 O 0.94436 0.53075 0.49818
 H113 H 0.99776 0.55343 0.60242
 H114 H 0.92555 0.44567 0.49845
 H115 H 0.99829 0.55350 0.39476
 H116 H 1.07912 0.45410 0.49944
 H117 H 0.88292 0.50535 0.54072
 H118 H 0.88365 0.49107 0.45656
 H119 H 0.96854 0.47795 0.33804
 H120 H 1.03698 0.48078 0.33813
 H121 H 1.11750 0.50184 0.45469
 H122 H 1.11649 0.50894 0.54094
 H123 H 1.06383 0.50807 0.65983
 H124 H 0.93321 0.49970 0.65867
 O125 O 0.54850 0.06970 0.59406
 O126 O 0.59269 0.03902 0.54379
 C127 C 0.58297 0.06345 0.57976
 O128 O 0.45078 -0.07536 0.58758
 O129 O 0.40584 -0.04165 0.54258
 C130 C 0.41621 -0.06879 0.57448
 O131 O 0.55395 -0.06546 0.59400
 O132 O 0.59533 -0.02975 0.54483
 C133 C 0.58768 -0.05533 0.58031
 O134 O 0.44464 0.07147 0.58410
 O135 O 0.40274 0.03071 0.54313
 C136 C 0.41074 0.06052 0.57229
 Zr137 Zr 0.49719 0.04709 0.56591
 O138 O 0.49504 0.03811 0.64641
 O139 O 0.49674 0.10780 0.57802
 Zr140 Zr 0.50133 -0.04877 0.56456
 O141 O 0.49912 -0.04339 0.64567
 O142 O 0.50772 -0.10977 0.56830
 O143 O 0.53375 0.00093 0.57498
 O144 O 0.46519 -0.00254 0.57466
 O145 O 0.44389 0.07132 0.41662
 O146 O 0.40237 0.03064 0.45825
 C147 C 0.41013 0.06035 0.42901
 O148 O 0.55410 -0.06521 0.40586
 O149 O 0.59557 -0.02995 0.45555
 C150 C 0.58786 -0.05527 0.41974
 O151 O 0.45088 -0.07663 0.41402
 O152 O 0.40584 -0.04177 0.45744
 C153 C 0.41620 -0.06959 0.42636
 O154 O 0.54789 0.07071 0.40682
 O155 O 0.59236 0.03843 0.45451
 C156 C 0.58245 0.06363 0.41976
 Zr157 Zr 0.49678 0.04811 0.43550
 O158 O 0.49121 0.04458 0.35431
 O159 O 0.49829 0.10941 0.43119
 Zr160 Zr 0.50109 -0.04793 0.43398
 O161 O 0.49547 -0.04178 0.35308
 O162 O 0.50694 -0.10846 0.42383
 Zr163 Zr 0.55631 0.00256 0.49973
 Zr164 Zr 0.44180 -0.00351 0.50019
 O165 O 0.46497 -0.00165 0.42556
 O166 O 0.53337 0.00191 0.42456
 O167 O 0.46357 0.05365 0.50093
 O168 O 0.53414 -0.05422 0.49916
 O169 O 0.52932 0.05681 0.50062
 O170 O 0.46838 -0.05815 0.49935
 H171 H 0.44746 -0.00328 0.60419
 H172 H 0.55142 -0.07672 0.49923
 H173 H 0.44698 -0.00236 0.39633
 H174 H 0.54462 0.08093 0.50059
 H175 H 0.49070 -0.12131 0.54219
 H176 H 0.50616 -0.12007 0.45858
 H177 H 0.52001 -0.03290 0.33918
 H178 H 0.51543 0.03521 0.34017
 H179 H 0.48396 0.11935 0.46110
 H180 H 0.50159 0.12004 0.54427
 H181 H 0.49193 0.06416 0.66199
 H182 H 0.49983 -0.07018 0.65948
 O183 O 0.54923 0.57114 0.09391
 O184 O 0.59343 0.53893 0.04538
 C185 C 0.58371 0.56404 0.08050
 O186 O 0.45148 0.42531 0.08790
 O187 O 0.40648 0.45973 0.04393
 C188 C 0.41685 0.43226 0.07537
 O189 O 0.55445 0.43571 0.09536
 O190 O 0.59600 0.47094 0.04584
 C191 C 0.58822 0.44555 0.08150
 O192 O 0.44548 0.57366 0.08335
 O193 O 0.40345 0.53249 0.04340
 C194 C 0.41151 0.56261 0.07200
 Zr195 Zr 0.49795 0.54880 0.06562
 O196 O 0.49543 0.54140 0.14638
 O197 O 0.49794 0.60972 0.07573
 Zr198 Zr 0.50181 0.45301 0.06655
 O199 O 0.49960 0.46120 0.14723
 O200 O 0.50604 0.39226 0.07625
 O201 O 0.53440 0.50258 0.07572
 O202 O 0.46572 0.49939 0.07560
 O203 O 0.44502 0.57105 -0.08475
 O204 O 0.40325 0.53155 -0.04158
 C205 C 0.41120 0.56066 -0.07176
 O206 O 0.55399 0.43498 -0.09391
 O207 O 0.59577 0.47060 -0.04514
 C208 C 0.58784 0.44495 -0.08053
 O209 O 0.45082 0.42583 -0.08707
 O210 O 0.40620 0.45959 -0.04133
 C211 C 0.41632 0.43248 -0.07361
 O212 O 0.54911 0.56975 -0.09415
 O213 O 0.59340 0.53927 -0.04397
 C214 C 0.58361 0.56347 -0.08007
 Zr215 Zr 0.49786 0.54823 -0.06453
 O216 O 0.49495 0.54210 -0.14548
 O217 O 0.49942 0.60949 -0.07019
 Zr218 Zr 0.50156 0.45191 -0.06381
 O219 O 0.49708 0.45348 -0.14519
 O220 O 0.50790 0.39084 -0.06494
 Zr221 Zr 0.55709 0.50307 0.00042
 Zr222 Zr 0.44245 0.49767 0.00108
 O223 O 0.46589 0.49854 -0.07341
 O224 O 0.53400 0.50165 -0.07443
 O225 O 0.46444 0.55473 0.00054
 O226 O 0.53475 0.44643 0.00122
 O227 O 0.53040 0.55749 0.00036
 O228 O 0.46872 0.44288 0.00153
 H229 H 0.44785 0.49890 0.10499
 H230 H 0.55221 0.42408 0.00114
 H231 H 0.44830 0.49779 -0.10309
 H232 H 0.54584 0.58151 0.00005
 H233 H 0.51083 0.38106 0.04182
 H234 H 0.48946 0.37981 -0.04028
 H235 H 0.51689 0.47127 -0.15818
 H236 H 0.49341 0.56878 -0.15946
 H237 H 0.48436 0.61983 -0.04121
 H238 H 0.50261 0.62133 0.04154
 H239 H 0.49259 0.56776 0.16110
 H240 H 0.49940 0.43488 0.16253
 C241 C 1.16720 0.19384 0.14850
 N242 N 1.20424 0.18401 0.14694
 N243 N 1.22909 0.20098 0.17830
 C244 C 1.21764 0.22787 0.21318
 N245 N 1.18070 0.23847 0.21331
 N246 N 1.15592 0.22165 0.18189
 C247 C 1.13936 0.17099 0.11991
 N248 N 1.10195 0.17951 0.12209
 N249 N 1.07633 0.15504 0.10264
 C250 C 1.08751 0.12116 0.08094
 N251 N 1.12485 0.11327 0.07777
 N252 N 1.15032 0.13775 0.09668
 C253 C 1.16662 0.69360 0.65045
 N254 N 1.20363 0.68370 0.64890
 N255 N 1.22853 0.70074 0.68007
 C256 C 1.21716 0.72780 0.71478
 N257 N 1.18024 0.73845 0.71495
 N258 N 1.15540 0.72156 0.68369
 C259 C 1.13875 0.67075 0.62198
 N260 N 1.10141 0.67971 0.62341
 N261 N 1.07572 0.65538 0.60385
 C262 C 1.08675 0.62119 0.58286
 N263 N 1.12401 0.61283 0.58051
 N264 N 1.14956 0.63718 0.59949
 C265 C 0.68326 0.16981 0.67483
 N266 N 0.67415 0.18372 0.72217
 N267 N 0.69550 0.21050 0.74513
 C268 C 0.72666 0.22510 0.72148
 N269 N 0.73574 0.21119 0.67389
 N270 N 0.71441 0.18417 0.65094
 C271 C 0.65896 0.14015 0.65042
 N272 N 0.66854 0.12233 0.60541
 N273 N 0.64527 0.09649 0.58345
 C274 C 0.61165 0.08758 0.60582
 N275 N 0.60245 0.10520 0.65089
 N276 N 0.62567 0.13070 0.67288
 C277 C 0.68382 0.67004 0.17581
 N278 N 0.71512 0.68419 0.15208
 N279 N 0.73632 0.71134 0.17495
 C280 C 0.72693 0.72560 0.22223
 N281 N 0.69561 0.71122 0.24570
 N282 N 0.67439 0.68431 0.22283
 C283 C 0.65968 0.64030 0.15150
 N284 N 0.62630 0.63102 0.17378
 N285 N 0.60310 0.60555 0.15173
 C286 C 0.61244 0.58781 0.10681
 N287 N 0.64617 0.59651 0.08465
 N288 N 0.66942 0.62233 0.10668
 C289 C 0.84030 -0.19018 0.17086
 N290 N 0.81529 -0.16983 0.19945
 N291 N 0.78636 -0.18743 0.22202
 C292 C 0.78107 -0.22628 0.21708
 N293 N 0.80596 -0.24669 0.18764
 N294 N 0.83487 -0.22891 0.16444
 C295 C 0.87336 -0.16972 0.15072
 N296 N 0.89109 -0.18037 0.10641
 N297 N 0.91764 -0.15745 0.08582
 C298 C 0.92751 -0.12360 0.10943
 N299 N 0.91076 -0.11417 0.15463
 N300 N 0.88430 -0.13672 0.17484
 C301 C 0.83880 0.31042 0.66831
 N302 N 0.81363 0.33047 0.69704
 N303 N 0.78524 0.31248 0.72035
 C304 C 0.78066 0.27349 0.71609
 N305 N 0.80571 0.25335 0.68656
 N306 N 0.83410 0.27152 0.66265
 C307 C 0.87135 0.33146 0.64738
 N308 N 0.88971 0.32033 0.60372
 N309 N 0.91605 0.34336 0.58277
 C310 C 0.92509 0.37785 0.60538
 N311 N 0.90762 0.38785 0.64986
 N312 N 0.88138 0.36520 0.67040
 C313 C 0.31604 -0.17671 0.66652
 N314 N 0.27803 -0.17510 0.66160
 N315 N 0.25605 -0.19996 0.68723
 C316 C 0.27111 -0.22739 0.71886
 N317 N 0.30923 -0.22937 0.72269
 N318 N 0.33117 -0.20455 0.69712
 C319 C 0.34093 -0.14818 0.64127
 N320 N 0.37842 -0.14956 0.65060
 N321 N 0.40164 -0.12383 0.62938
 C322 C 0.38854 -0.09548 0.59794
 N323 N 0.35090 -0.09390 0.58830
 N324 N 0.32747 -0.11978 0.60981
 C325 C 0.31654 0.32389 0.16651
 N326 N 0.27852 0.32561 0.16167
 N327 N 0.25651 0.30055 0.18691
 C328 C 0.27153 0.27278 0.21805
 N329 N 0.30965 0.27071 0.22184
 N330 N 0.33162 0.29575 0.19665
 C331 C 0.34147 0.35258 0.14155
 N332 N 0.37899 0.35100 0.15065
 N333 N 0.40223 0.37681 0.12964
 C334 C 0.38915 0.40545 0.09864
 N335 N 0.35148 0.40724 0.08925
 N336 N 0.32803 0.38127 0.11054
 C337 C 0.82478 0.18569 -0.15446
 N338 N 0.79510 0.16905 -0.17908
 N339 N 0.77138 0.19032 -0.20660
 C340 C 0.77619 0.22931 -0.21062
 N341 N 0.80540 0.24617 -0.18461
 N342 N 0.82929 0.22477 -0.15706
 C343 C 0.85275 0.16055 -0.12992
 N344 N 0.88370 0.17476 -0.10504
 N345 N 0.90954 0.15061 -0.08580
 C346 C 0.90535 0.11159 -0.09156
 N347 N 0.87440 0.09777 -0.11625
 N348 N 0.84869 0.12168 -0.13503
 C349 C 0.82448 0.68649 0.34702
 N350 N 0.79460 0.66984 0.32287
 N351 N 0.77098 0.69104 0.29513
 C352 C 0.77612 0.72993 0.29044
 N353 N 0.80546 0.74682 0.31612
 N354 N 0.82927 0.72550 0.34384
 C355 C 0.85255 0.66142 0.37120
 N356 N 0.88415 0.67566 0.39445
 N357 N 0.91031 0.65153 0.41282
 C358 C 0.90578 0.61251 0.40772
 N359 N 0.87416 0.59866 0.38474
 N360 N 0.84813 0.62255 0.36684
 C361 C 0.30739 0.16380 0.33696
 N362 N 0.28004 0.15180 0.30387
 N363 N 0.26058 0.17760 0.27637
 C364 C 0.26784 0.21637 0.28058
 N365 N 0.29471 0.22815 0.31454
 N366 N 0.31423 0.20244 0.34176
 C367 C 0.33145 0.13602 0.36473
 N368 N 0.36334 0.14922 0.38760
 N369 N 0.38726 0.12475 0.40954
 C370 C 0.38016 0.08604 0.41033
 N371 N 0.34783 0.07257 0.38839
 N372 N 0.32391 0.09720 0.36580
 C373 C 0.30764 0.66418 -0.16222
 N374 N 0.31459 0.70282 -0.15779
 N375 N 0.29478 0.72847 -0.18470
 C376 C 0.26751 0.71661 -0.21801
 N377 N 0.26010 0.67784 -0.22174
 N378 N 0.27983 0.65211 -0.19452
 C379 C 0.33216 0.63645 -0.13516
 N380 N 0.32400 0.59781 -0.13228
 N381 N 0.34817 0.57318 -0.11019
 C382 C 0.38141 0.58646 -0.09072
 N383 N 0.38917 0.62499 -0.09339
 N384 N 0.36500 0.64948 -0.11477
 C385 C 1.17356 -0.18525 -0.15638
 N386 N 1.17296 -0.22446 -0.15210
 N387 N 1.19758 -0.24587 -0.17841
 C388 C 1.22357 -0.22884 -0.20990
 N389 N 1.22518 -0.18953 -0.21174
 N390 N 1.20066 -0.16822 -0.18557
 C391 C 1.14340 -0.16121 -0.13549
 N392 N 1.14070 -0.12416 -0.15210
 N393 N 1.11327 -0.10147 -0.13532
 C394 C 1.08725 -0.11484 -0.10141
 N395 N 1.08959 -0.15214 -0.08476
 N396 N 1.11708 -0.17515 -0.10205
 C397 C 1.17465 0.31422 0.34419
 N398 N 1.17312 0.27495 0.34678
 N399 N 1.19739 0.25359 0.31978
 C400 C 1.22386 0.27073 0.28914
 N401 N 1.22638 0.31001 0.28896
 N402 N 1.20225 0.33127 0.31588
 C403 C 1.14496 0.33854 0.36582
 N404 N 1.14383 0.37621 0.35151
 N405 N 1.11666 0.39917 0.36837
 C406 C 1.08934 0.38552 0.40010
 N407 N 1.09016 0.34763 0.41460
 N408 N 1.11741 0.32434 0.39720
 C409 C 0.68883 -0.15831 0.32434
 N410 N 0.71431 -0.17883 0.35211
 N411 N 0.73396 -0.20733 0.33007
 C412 C 0.72877 -0.21656 0.27948
 N413 N 0.70328 -0.19585 0.25193
 N414 N 0.68355 -0.16756 0.27398
 C415 C 0.66558 -0.12791 0.34830
 N416 N 0.63565 -0.11367 0.32213
 N417 N 0.61228 -0.08867 0.34437
 C418 C 0.61821 -0.07626 0.39339
 N419 N 0.64869 -0.08974 0.41942
 N420 N 0.67200 -0.11515 0.39721
 C421 C 0.68843 0.34107 -0.17599
 N422 N 0.71440 0.32095 -0.14849
 N423 N 0.73411 0.29248 -0.17059
 C424 C 0.72852 0.28288 -0.22100
 N425 N 0.70256 0.30321 -0.24827
 N426 N 0.68278 0.33144 -0.22615
 C427 C 0.66517 0.37157 -0.15201
 N428 N 0.63494 0.38548 -0.17789
 N429 N 0.61171 0.41068 -0.15572
 C430 C 0.61806 0.42370 -0.10707
 N431 N 0.64883 0.41053 -0.08133
 N432 N 0.67200 0.38492 -0.10345
 C433 C 1.16548 0.19336 -0.15109
 N434 N 1.20252 0.18355 -0.14923
 N435 N 1.22765 0.20100 -0.17962
 C436 C 1.21652 0.22842 -0.21384
 N437 N 1.17957 0.23902 -0.21422
 N438 N 1.15451 0.22173 -0.18372
 C439 C 1.13742 0.17007 -0.12356
 N440 N 1.10011 0.17923 -0.12453
 N441 N 1.07432 0.15478 -0.10549
 C442 C 1.08522 0.12023 -0.08556
 N443 N 1.12245 0.11163 -0.08378
 N444 N 1.14808 0.13609 -0.10220
 C445 C 1.16811 0.69385 0.34805
 N446 N 1.20519 0.68417 0.34917
 N447 N 1.22997 0.70171 0.31830
 C448 C 1.21852 0.72908 0.28403
 N449 N 1.18147 0.73967 0.28480
 N450 N 1.15678 0.72230 0.31579
 C451 C 1.14028 0.67054 0.37624
 N452 N 1.10297 0.67971 0.37594
 N453 N 1.07735 0.65533 0.39558
 C454 C 1.08837 0.62083 0.41557
 N455 N 1.12564 0.61223 0.41670
 N456 N 1.15112 0.63662 0.39764
 C457 C 0.68253 0.16966 0.32451
 N458 N 0.71396 0.18363 0.34818
 N459 N 0.73524 0.21070 0.32541
 C460 C 0.72581 0.22508 0.27827
 N461 N 0.69439 0.21084 0.25482
 N462 N 0.67309 0.18401 0.27762
 C463 C 0.65830 0.13998 0.34878
 N464 N 0.62469 0.13103 0.32686
 N465 N 0.60150 0.10558 0.34889
 C466 C 0.61106 0.08753 0.39342
 N467 N 0.64501 0.09591 0.41520
 N468 N 0.66825 0.12171 0.39321
 C469 C 0.68331 0.66965 -0.17600
 N470 N 0.67444 0.68300 -0.22364
 N471 N 0.69566 0.70986 -0.24658
 C472 C 0.72643 0.72508 -0.22259
 N473 N 0.73521 0.71178 -0.17466
 N474 N 0.71403 0.68470 -0.15174
 C475 C 0.65923 0.63989 -0.15153
 N476 N 0.66878 0.62267 -0.10620
 N477 N 0.64569 0.59683 -0.08403
 C478 C 0.61226 0.58731 -0.10652
 N479 N 0.60309 0.60432 -0.15195
 N480 N 0.62616 0.62982 -0.17415
 C481 C 0.83935 -0.19052 -0.16962
 N482 N 0.83381 -0.22923 -0.16339
 N483 N 0.80511 -0.24702 -0.18714
 C484 C 0.78051 -0.22664 -0.21697
 N485 N 0.78594 -0.18781 -0.22184
 N486 N 0.81467 -0.17021 -0.19872
 C487 C 0.87222 -0.17002 -0.14870
 N488 N 0.88335 -0.13697 -0.17238
 N489 N 0.90965 -0.11447 -0.15161
 C490 C 0.92608 -0.12396 -0.10626
 N491 N 0.91601 -0.15784 -0.08303
 N492 N 0.88960 -0.18072 -0.10419
 C493 C 0.83846 0.30993 0.33100
 N494 N 0.81333 0.33008 0.30244
 N495 N 0.78473 0.31223 0.27939
 C496 C 0.77988 0.27329 0.28376
 N497 N 0.80487 0.25307 0.31318
 N498 N 0.83347 0.27110 0.33684
 C499 C 0.87130 0.33073 0.35143
 N500 N 0.88944 0.31995 0.39533
 N501 N 0.91598 0.34296 0.41593
 C502 C 0.92541 0.37704 0.39272
 N503 N 0.90818 0.38664 0.34798
 N504 N 0.88175 0.36401 0.32777
 C505 C 0.31529 -0.17767 0.33411
 N506 N 0.27722 -0.17525 0.33770
 N507 N 0.25518 -0.19989 0.31161
 C508 C 0.27010 -0.22799 0.28054
 N509 N 0.30834 -0.23081 0.27842
 N510 N 0.33033 -0.20621 0.30447
 C511 C 0.34042 -0.14926 0.35980
 N512 N 0.37808 -0.15175 0.35219
 N513 N 0.40146 -0.12610 0.37347
 C514 C 0.38840 -0.09667 0.40332
 N515 N 0.35059 -0.09400 0.41132
 N516 N 0.32701 -0.11982 0.38975
 C517 C 0.31565 0.32438 -0.16549
 N518 N 0.27762 0.32588 -0.16037
 N519 N 0.25562 0.30087 -0.18589
 C520 C 0.27065 0.27335 -0.21757
 N521 N 0.30877 0.27149 -0.22159
 N522 N 0.33073 0.29646 -0.19615
 C523 C 0.34063 0.35307 -0.14034
 N524 N 0.37808 0.35180 -0.15010
 N525 N 0.40138 0.37755 -0.12895
 C526 C 0.38845 0.40583 -0.09712
 N527 N 0.35085 0.40731 -0.08705
 N528 N 0.32732 0.38141 -0.10851
 C529 C 1.17604 -0.18564 0.15555
 N530 N 1.17445 -0.22491 0.15298
 N531 N 1.19844 -0.24630 0.18032
 C532 C 1.22476 -0.22929 0.21161
 N533 N 1.22739 -0.18991 0.21145
 N534 N 1.20354 -0.16864 0.18414
 C535 C 1.14660 -0.16121 0.13313
 N536 N 1.14615 -0.12314 0.14583
 N537 N 1.11911 -0.10019 0.12856
 C538 C 1.09119 -0.11421 0.09800
 N539 N 1.09139 -0.15247 0.08501
 N540 N 1.11853 -0.17572 0.10277
 C541 C 1.17354 0.31535 0.65686
 N542 N 1.20053 0.33239 0.68632
 N543 N 1.22485 0.31110 0.71280
 C544 C 1.22315 0.27178 0.71100
 N545 N 1.19723 0.25473 0.67935
 N546 N 1.17281 0.27612 0.65275
 C547 C 1.14372 0.33951 0.63523
 N548 N 1.11718 0.32541 0.60214
 N549 N 1.08999 0.34853 0.58430
 C550 C 1.08819 0.38616 0.59996
 N551 N 1.11447 0.39970 0.63345
 N552 N 1.14158 0.37690 0.65079
 C553 C 0.68837 -0.15874 0.67557
 N554 N 0.71394 -0.17927 0.64782
 N555 N 0.73356 -0.20777 0.66981
 C556 C 0.72828 -0.21699 0.72036
 N557 N 0.70270 -0.19629 0.74789
 N558 N 0.68301 -0.16801 0.72587
 C559 C 0.66521 -0.12822 0.65165
 N560 N 0.63533 -0.11379 0.67785
 N561 N 0.61209 -0.08867 0.65567
 C562 C 0.61808 -0.07629 0.60671
 N563 N 0.64851 -0.08997 0.58065
 N564 N 0.67170 -0.11549 0.60278
 C565 C 0.68828 0.34125 0.17612
 N566 N 0.68269 0.33187 0.22633
 N567 N 0.70221 0.30347 0.24833
 C568 C 0.72784 0.28276 0.22089
 N569 N 0.73334 0.29209 0.17043
 N570 N 0.71387 0.32070 0.14843
 C571 C 0.66532 0.37196 0.15232
 N572 N 0.67184 0.38474 0.10349
 N573 N 0.64880 0.41049 0.08153
 C574 C 0.61851 0.42436 0.10774
 N575 N 0.61251 0.41193 0.15667
 N576 N 0.63559 0.38659 0.17867
 C577 C 0.82478 0.18540 0.15558
 N578 N 0.79524 0.16868 0.18034
 N579 N 0.77113 0.18999 0.20726
 C580 C 0.77541 0.22908 0.21052
 N581 N 0.80443 0.24601 0.18426
 N582 N 0.82870 0.22457 0.15728
 C583 C 0.85333 0.16034 0.13217
 N584 N 0.88362 0.17461 0.10593
 N585 N 0.90990 0.15060 0.08743
 C586 C 0.90687 0.11171 0.09539
 N587 N 0.87662 0.09785 0.12156
 N588 N 0.85046 0.12160 0.13957
 C589 C 0.82501 0.68642 0.65323
 N590 N 0.79554 0.66948 0.67791
 N591 N 0.77159 0.69052 0.70547
 C592 C 0.77596 0.72956 0.70946
 N593 N 0.80493 0.74672 0.68334
 N594 N 0.82906 0.72556 0.65575
 C595 C 0.85337 0.66155 0.62899
 N596 N 0.88407 0.67599 0.60379
 N597 N 0.91027 0.65205 0.58488
 C598 C 0.90671 0.61304 0.59138
 N599 N 0.87601 0.59903 0.61640
 N600 N 0.84994 0.62271 0.63481
 C601 C 0.30736 0.16455 0.66330
 N602 N 0.27945 0.15260 0.69548
 N603 N 0.25968 0.17840 0.72270
 C604 C 0.26713 0.21716 0.71911
 N605 N 0.29451 0.22893 0.68592
 N606 N 0.31436 0.20320 0.65901
 C607 C 0.33184 0.13668 0.63609
 N608 N 0.36458 0.14962 0.61532
 N609 N 0.38866 0.12503 0.59378
 C610 C 0.38092 0.08647 0.59128
 N611 N 0.34777 0.07329 0.61113
 N612 N 0.32369 0.09802 0.63337
 C613 C 0.30741 0.66631 0.16315
 N614 N 0.31423 0.70500 0.15918
 N615 N 0.29418 0.73054 0.18618
 C616 C 0.26674 0.71865 0.21940
 N617 N 0.25941 0.67974 0.22228
 N618 N 0.27936 0.65414 0.19495
 C619 C 0.33221 0.63858 0.13598
 N620 N 0.32397 0.59997 0.13234
 N621 N 0.34820 0.57537 0.11012
 C622 C 0.38165 0.58858 0.09121
 N623 N 0.38951 0.62708 0.09468
 N624 N 0.36528 0.65156 0.11619
   
