data_POSCAR
  _audit_creation_date              2014-09-24
  _audit_creation_method            'ToBaCCo'
  _symmetry_space_group_name_H-M    'P1'
  _symmetry_Int_Tables_number       1
  _symmetry_cell_setting            triclinic
  loop_
  _symmetry_equiv_pos_as_xyz
 x,y,z
_cell_length_a 50.6016
_cell_length_b 50.6010
_cell_length_c 50.6020
_cell_angle_alpha 89.057900
_cell_angle_beta 89.070000
_cell_angle_gamma 89.080800
loop_
  _atom_site_label
  _atom_site_type_symbol
  _atom_site_fract_x
  _atom_site_fract_y
  _atom_site_fract_z
C1 C 0.75433 0.61897 0.99936
 C2 C 0.74963 0.37952 0.50231
 C3 C 0.24952 -0.12042 0.00207
 C4 C 0.25444 0.11895 0.49915
 C5 C 0.11884 0.49942 0.25442
 C6 C -0.12054 0.00216 0.24938
 C7 C 0.37941 0.50212 0.74955
 C8 C 0.61884 0.99939 0.75428
 C9 C 0.00234 0.24957 -0.12035
 C10 C 0.49953 0.25430 0.11906
 C11 C 0.99927 0.75457 0.61902
 C12 C 0.50212 0.74931 0.37965
 C13 C 0.41789 -0.02571 0.27802
 H14 H 0.41900 -0.00667 0.28731
 C15 C 0.43195 -0.04742 0.28840
 H16 H 0.44406 -0.04508 0.30564
 C17 C 0.39967 -0.05250 0.24511
 H18 H 0.38648 -0.05468 0.22877
 C19 C 0.41339 -0.07465 0.25483
 H20 H 0.41090 -0.09367 0.24574
 N21 N 0.40207 -0.02863 0.25680
 C22 C 0.38662 0.04954 0.22222
 H23 H 0.36534 0.04836 0.22118
 C24 C 0.39940 0.07200 0.21264
 H25 H 0.38796 0.08821 0.20415
 C26 C 0.42754 0.02979 0.23457
 H27 H 0.43837 0.01321 0.24299
 C28 C 0.44116 0.05200 0.22517
 H29 H 0.46249 0.05256 0.22645
 Zn30 Zn 0.38048 0.00033 0.24581
 N31 N 0.40070 0.02916 0.23321
 C32 C 0.36200 0.03592 0.28464
 N33 N 0.35982 0.01092 0.27547
 C34 C 0.34448 -0.00721 0.28833
 C35 C 0.33040 -0.00034 0.31130
 C36 C 0.34828 0.04358 0.30743
 C37 C 0.37191 -0.01527 0.19444
 C38 C 0.35790 -0.02319 0.17253
 C39 C 0.31741 -0.01915 0.19827
 C40 C 0.33223 -0.01125 0.21979
 N41 N 0.35903 -0.00985 0.21758
 H42 H 0.37482 0.04985 0.27468
 H43 H 0.34352 -0.02711 0.28094
 H44 H 0.31841 -0.01490 0.32159
 H45 H 0.35035 0.06345 0.31469
 H46 H 0.39320 -0.01367 0.19318
 H47 H 0.36839 -0.02783 0.15431
 H48 H 0.29613 -0.02059 0.20020
 H49 H 0.32234 -0.00638 0.23819
 C50 C 0.42688 0.07333 0.21425
 C51 C 0.42946 -0.07216 0.27681
 C52 C 0.33044 -0.02531 0.17450
 C53 C 0.33243 0.02529 0.32094
 C54 C 0.08471 1.02458 0.78173
 H55 H 0.08306 1.00551 0.79155
 C56 C 0.07096 1.04651 0.79178
 H57 H 0.05855 1.04433 0.80929
 C58 C 0.10397 1.05116 0.74775
 H59 H 0.11745 1.05315 0.73111
 C60 C 0.09059 1.07353 0.75712
 H61 H 0.09361 1.09254 0.74747
 N62 N 0.10090 1.02729 0.76014
 C63 C 0.11486 0.94877 0.72786
 H64 H 0.13622 0.94912 0.72687
 C65 C 0.10151 0.92703 0.71851
 H66 H 0.11261 0.91053 0.71029
 C67 C 0.07428 0.97006 0.73946
 H68 H 0.06381 0.98703 0.74735
 C69 C 0.06010 0.94862 0.73026
 H70 H 0.03870 0.94903 0.73119
 Zn71 Zn 0.12197 0.99792 0.74953
 N72 N 0.10119 0.96961 0.73828
 C73 C 0.13988 0.96209 0.78911
 N74 N 0.14233 0.98702 0.77895
 C75 C 0.15794 1.00501 0.79058
 C76 C 0.17209 0.99804 0.81324
 C77 C 0.15367 0.95434 0.81166
 C78 C 0.13112 1.01353 0.69749
 C79 C 0.14543 1.02126 0.67497
 C80 C 0.18571 1.01614 0.69971
 C81 C 0.17061 1.00845 0.72185
 N82 N 0.14378 1.00770 0.72042
 H83 H 0.12686 0.94829 0.78010
 H84 H 0.15911 1.02486 0.78241
 H85 H 0.18434 1.01248 0.82250
 H86 H 0.15144 0.93451 0.81971
 H87 H 0.10981 1.01244 0.69686
 H88 H 0.13512 1.02626 0.65692
 H89 H 0.20702 1.01710 0.70101
 H90 H 0.18032 1.00324 0.74010
 C91 C 0.07391 0.92692 0.71973
 C92 C 0.07414 1.07125 0.77946
 C93 C 0.17293 1.02275 0.67613
 C94 C 0.16985 0.97247 0.82387
 C95 C 0.58473 0.52428 0.28194
 H96 H 0.58311 0.50520 0.29176
 C97 C 0.57094 0.54619 0.29198
 H98 H 0.55853 0.54399 0.30950
 C99 C 0.60395 0.55089 0.24796
 H100 H 0.61742 0.55290 0.23132
 C101 C 0.59052 0.57324 0.25732
 H102 H 0.59351 0.59225 0.24767
 N103 N 0.60091 0.52701 0.26035
 C104 C 0.61500 0.44852 0.22807
 H105 H 0.63636 0.44890 0.22707
 C106 C 0.60169 0.42676 0.21871
 H107 H 0.61281 0.41028 0.21048
 C108 C 0.57439 0.46975 0.23966
 H109 H 0.56389 0.48669 0.24755
 C110 C 0.56025 0.44829 0.23045
 H111 H 0.53884 0.44867 0.23138
 Zn112 Zn 0.62203 0.49768 0.24974
 N113 N 0.60130 0.46933 0.23848
 C114 C 0.64001 0.46188 0.28931
 N115 N 0.64241 0.48681 0.27915
 C116 C 0.65798 0.50483 0.29079
 C117 C 0.67215 0.49789 0.31344
 C118 C 0.65381 0.45415 0.31186
 C119 C 0.63116 0.51330 0.19769
 C120 C 0.64544 0.52106 0.17518
 C121 C 0.68573 0.51602 0.19992
 C122 C 0.67065 0.50830 0.22205
 N123 N 0.64383 0.50750 0.22062
 H124 H 0.62701 0.44805 0.28030
 H125 H 0.65912 0.52468 0.28262
 H126 H 0.68437 0.51235 0.32271
 H127 H 0.65161 0.43431 0.31991
 H128 H 0.60985 0.51217 0.19706
 H129 H 0.63513 0.52604 0.15712
 H130 H 0.70704 0.51702 0.20122
 H131 H 0.68037 0.50311 0.24030
 C132 C 0.57409 0.42660 0.21992
 C133 C 0.57408 0.57093 0.27967
 C134 C 0.67294 0.52261 0.17634
 C135 C 0.66995 0.47231 0.32407
 C136 C 0.91794 0.47459 0.77820
 H137 H 0.91900 0.49364 0.78749
 C138 C 0.93204 0.45291 0.78858
 H139 H 0.94414 0.45528 0.80582
 C140 C 0.89977 0.44776 0.74529
 H141 H 0.88658 0.44555 0.72895
 C142 C 0.91352 0.42564 0.75501
 H143 H 0.91108 0.40661 0.74592
 N144 N 0.90211 0.47164 0.75698
 C145 C 0.88652 0.54977 0.72240
 H146 H 0.86523 0.54856 0.72136
 C147 C 0.89926 0.57226 0.71281
 H148 H 0.88778 0.58845 0.70432
 C149 C 0.92747 0.53010 0.73473
 H150 H 0.93834 0.51354 0.74316
 C151 C 0.94105 0.55234 0.72532
 H152 H 0.96238 0.55293 0.72659
 Zn153 Zn 0.88047 0.50056 0.74599
 N154 N 0.90064 0.52942 0.73338
 C155 C 0.86192 0.53612 0.78482
 N156 N 0.85979 0.51111 0.77565
 C157 C 0.84450 0.49295 0.78852
 C158 C 0.83041 0.49979 0.81150
 C159 C 0.84819 0.54375 0.80761
 C160 C 0.87193 0.48494 0.69463
 C161 C 0.85792 0.47697 0.67272
 C162 C 0.81744 0.48094 0.69847
 C163 C 0.83224 0.48888 0.71998
 N164 N 0.85904 0.49033 0.71776
 H165 H 0.87471 0.55008 0.77485
 H166 H 0.84358 0.47305 0.78114
 H167 H 0.81845 0.48521 0.82179
 H168 H 0.85022 0.56363 0.81487
 H169 H 0.89320 0.48657 0.69336
 H170 H 0.86842 0.47236 0.65450
 H171 H 0.79616 0.47945 0.70041
 H172 H 0.82234 0.49373 0.73838
 C173 C 0.92673 0.57364 0.71440
 C174 C 0.92959 0.42817 0.77699
 C175 C 0.83047 0.47480 0.67469
 C176 C 0.83239 0.52543 0.82113
 C177 C 0.27815 0.41777 -0.02532
 H178 H 0.28745 0.41889 -0.00628
 C179 C 0.28850 0.43184 -0.04704
 H180 H 0.30573 0.44398 -0.04472
 C181 C 0.24523 0.39952 -0.05209
 H182 H 0.22890 0.38631 -0.05425
 C183 C 0.25492 0.41324 -0.07425
 H184 H 0.24582 0.41075 -0.09326
 N185 N 0.25694 0.40192 -0.02823
 C186 C 0.22243 0.38644 0.04996
 H187 H 0.22142 0.36515 0.04881
 C188 C 0.21284 0.39922 0.07242
 H189 H 0.20437 0.38777 0.08864
 C190 C 0.23470 0.42737 0.03018
 H191 H 0.24310 0.43821 0.01359
 C192 C 0.22529 0.44099 0.05238
 H193 H 0.22653 0.46233 0.05291
 Zn194 Zn 0.24598 0.38032 0.00075
 N195 N 0.23339 0.40053 0.02957
 C196 C 0.28485 0.36186 0.03631
 N197 N 0.27566 0.35968 0.01132
 C198 C 0.28852 0.34436 -0.00682
 C199 C 0.31150 0.33029 0.00004
 C200 C 0.30766 0.34814 0.04396
 C201 C 0.19461 0.37173 -0.01482
 C202 C 0.17270 0.35770 -0.02275
 C203 C 0.19847 0.31723 -0.01875
 C204 C 0.21998 0.33206 -0.01084
 N205 N 0.21775 0.35885 -0.00942
 H206 H 0.27489 0.37466 0.05025
 H207 H 0.28111 0.34340 -0.02671
 H208 H 0.32178 0.31831 -0.01453
 H209 H 0.31493 0.35022 0.06383
 H210 H 0.19333 0.39301 -0.01321
 H211 H 0.15447 0.36819 -0.02737
 H212 H 0.20041 0.29596 -0.02021
 H213 H 0.23839 0.32217 -0.00598
 C214 C 0.21440 0.42670 0.07373
 C215 C 0.27689 0.42934 -0.07177
 C216 C 0.17468 0.33025 -0.02489
 C217 C 0.32116 0.33232 0.02567
 C218 C 0.78179 0.08458 1.02423
 H219 H 0.79161 0.08294 1.00517
 C220 C 0.79182 0.07081 1.04616
 H221 H 0.80933 0.05839 1.04399
 C222 C 0.74782 0.10384 1.05080
 H223 H 0.73119 0.11732 1.05279
 C224 C 0.75717 0.09043 1.07317
 H225 H 0.74751 0.09344 1.09218
 N226 N 0.76021 0.10078 1.02694
 C227 C 0.72796 0.11485 0.94842
 H228 H 0.72699 0.13621 0.94878
 C229 C 0.71859 0.10153 0.92667
 H230 H 0.71037 0.11265 0.91018
 C231 C 0.73950 0.07424 0.96969
 H232 H 0.74739 0.06375 0.98665
 C233 C 0.73028 0.06010 0.94824
 H234 H 0.73119 0.03869 0.94865
 Zn235 Zn 0.74963 0.12189 0.99758
 N236 N 0.73836 0.10115 0.96925
 C237 C 0.78923 0.13983 0.96178
 N238 N 0.77906 0.14225 0.98671
 C239 C 0.79071 0.15781 1.00472
 C240 C 0.81338 0.17196 0.99778
 C241 C 0.81179 0.15361 0.95405
 C242 C 0.69759 0.13107 1.01317
 C243 C 0.67509 0.14538 1.02093
 C244 C 0.69988 0.18564 1.01588
 C245 C 0.72199 0.17054 1.00816
 N246 N 0.72053 0.14372 1.00737
 H247 H 0.78021 0.12683 0.94796
 H248 H 0.78254 0.15896 1.02457
 H249 H 0.82265 0.18418 1.01224
 H250 H 0.81984 0.15140 0.93422
 H251 H 0.69694 0.10976 1.01205
 H252 H 0.65703 0.13508 1.02592
 H253 H 0.70120 0.20695 1.01687
 H254 H 0.74026 0.18024 1.00297
 C255 C 0.71977 0.07393 0.92654
 C256 C 0.77950 0.07397 1.07089
 C257 C 0.67629 0.17287 1.02247
 C258 C 0.82401 0.16975 0.97221
 C259 C 0.28156 0.58459 0.52452
 H260 H 0.29138 0.58294 0.50545
 C261 C 0.29159 0.57082 0.54645
 H262 H 0.30909 0.55839 0.54427
 C263 C 0.24761 0.60388 0.55110
 H264 H 0.23099 0.61737 0.55309
 C265 C 0.25697 0.59047 0.57347
 H266 H 0.24732 0.59348 0.59248
 N267 N 0.26000 0.60081 0.52723
 C268 C 0.22772 0.61486 0.44872
 H269 H 0.22675 0.63623 0.44907
 C270 C 0.21835 0.60154 0.42697
 H271 H 0.21014 0.61266 0.41048
 C272 C 0.23927 0.57426 0.46999
 H273 H 0.24715 0.56376 0.48695
 C274 C 0.23005 0.56011 0.44854
 H275 H 0.23095 0.53870 0.44895
 Zn276 Zn 0.24941 0.62191 0.49787
 N277 N 0.23812 0.60117 0.46955
 C278 C 0.28901 0.63980 0.46205
 N279 N 0.27885 0.64224 0.48698
 C280 C 0.29052 0.65781 0.50497
 C281 C 0.31319 0.67194 0.49801
 C282 C 0.31158 0.65357 0.45430
 C283 C 0.19738 0.63112 0.51348
 C284 C 0.17489 0.64544 0.52122
 C285 C 0.19969 0.68570 0.51612
 C286 C 0.22180 0.67058 0.50842
 N287 N 0.22033 0.64375 0.50765
 H288 H 0.27998 0.62680 0.44824
 H289 H 0.28235 0.65898 0.52482
 H290 H 0.32247 0.68417 0.51246
 H291 H 0.31962 0.65134 0.43447
 H292 H 0.19672 0.60981 0.51238
 H293 H 0.15682 0.63516 0.52621
 H294 H 0.20103 0.70700 0.51708
 H295 H 0.24007 0.68026 0.50321
 C296 C 0.21954 0.57394 0.42684
 C297 C 0.27929 0.57400 0.57118
 C298 C 0.17609 0.67294 0.52272
 C299 C 0.32381 0.66971 0.47244
 C300 C 0.77795 0.91784 0.47439
 H301 H 0.78724 0.91896 0.49344
 C302 C 0.78831 0.93191 0.45268
 H303 H 0.80554 0.94404 0.45501
 C304 C 0.74504 0.89958 0.44760
 H305 H 0.72871 0.88637 0.44543
 C306 C 0.75475 0.91331 0.42545
 H307 H 0.74566 0.91081 0.40643
 N308 N 0.75674 0.90199 0.47147
 C309 C 0.72219 0.88651 0.54965
 H310 H 0.72117 0.86523 0.54849
 C311 C 0.71260 0.89929 0.57211
 H312 H 0.70412 0.88783 0.58832
 C313 C 0.73449 0.92745 0.52988
 H314 H 0.74290 0.93829 0.51329
 C315 C 0.72508 0.94106 0.55208
 H316 H 0.72633 0.96239 0.55262
 Zn317 Zn 0.74577 0.88039 0.50045
 N318 N 0.73316 0.90061 0.52926
 C319 C 0.78462 0.86195 0.53604
 N320 N 0.77544 0.85976 0.51104
 C321 C 0.78832 0.84443 0.49292
 C322 C 0.81130 0.83038 0.49979
 C323 C 0.80743 0.84825 0.54370
 C324 C 0.69441 0.87178 0.48486
 C325 C 0.67250 0.85774 0.47694
 C326 C 0.69827 0.81728 0.48099
 C327 C 0.71978 0.83212 0.48889
 N328 N 0.71755 0.85892 0.49027
 H329 H 0.77466 0.87476 0.54997
 H330 H 0.78092 0.84347 0.47302
 H331 H 0.82159 0.81840 0.48524
 H332 H 0.81469 0.85034 0.56357
 H333 H 0.69313 0.89306 0.48644
 H334 H 0.65427 0.86822 0.47230
 H335 H 0.70022 0.79600 0.47956
 H336 H 0.73819 0.82224 0.49376
 C337 C 0.71417 0.92677 0.57342
 C338 C 0.77672 0.92940 0.42794
 C339 C 0.67449 0.83028 0.47483
 C340 C 0.82095 0.83242 0.52542
 C341 C -0.02552 0.27798 0.41777
 H342 H -0.00647 0.28728 0.41884
 C343 C -0.04720 0.28835 0.43187
 H344 H -0.04484 0.30557 0.44399
 C345 C -0.05234 0.24508 0.39957
 H346 H -0.05454 0.22875 0.38638
 C347 C -0.07447 0.25478 0.41333
 H348 H -0.09349 0.24568 0.41087
 N349 N -0.02847 0.25678 0.40193
 C350 C 0.04968 0.22224 0.38633
 H351 H 0.04848 0.22123 0.36504
 C352 C 0.07216 0.21265 0.39907
 H353 H 0.08835 0.20418 0.38759
 C354 C 0.02999 0.23453 0.42729
 H355 H 0.01342 0.24293 0.43815
 C356 C 0.05221 0.22512 0.44086
 H357 H 0.05280 0.22637 0.46220
 Zn358 Zn 0.00046 0.24582 0.38028
 N359 N 0.02932 0.23320 0.40045
 C360 C 0.03602 0.28468 0.36178
 N361 N 0.01101 0.27550 0.35963
 C362 C -0.00714 0.28838 0.34434
 C363 C -0.00030 0.31137 0.33028
 C364 C 0.04365 0.30750 0.34806
 C365 C -0.01515 0.19445 0.37170
 C366 C -0.02311 0.17255 0.35768
 C367 C -0.01914 0.19835 0.31722
 C368 C -0.01121 0.21985 0.33204
 N369 N -0.00976 0.21760 0.35883
 H370 H 0.04998 0.27471 0.37455
 H371 H -0.02704 0.28098 0.34342
 H372 H -0.01488 0.32167 0.31833
 H373 H 0.06353 0.31477 0.35011
 H374 H -0.01352 0.19317 0.39298
 H375 H -0.02773 0.15432 0.36817
 H376 H -0.02062 0.20030 0.29594
 H377 H -0.00635 0.23826 0.32215
 C378 C 0.07353 0.21422 0.42654
 C379 C -0.07194 0.27675 0.42942
 C380 C -0.02528 0.17455 0.33023
 C381 C 0.02534 0.32102 0.33227
 C382 C 1.02438 0.78186 0.08450
 H383 H 1.00531 0.79168 0.08285
 C384 C 1.04631 0.79190 0.07073
 H385 H 1.04413 0.80941 0.05831
 C386 C 1.05095 0.74789 0.10377
 H387 H 1.05294 0.73125 0.11725
 C388 C 1.07332 0.75725 0.09036
 H389 H 1.09232 0.74759 0.09337
 N390 N 1.02708 0.76028 0.10070
 C391 C 0.94857 0.72799 0.11473
 H392 H 0.94893 0.72700 0.13610
 C393 C 0.92681 0.71862 0.10141
 H394 H 0.91032 0.71040 0.11253
 C395 C 0.96983 0.73957 0.07414
 H396 H 0.98679 0.74747 0.06364
 C397 C 0.94838 0.73036 0.05998
 H398 H 0.94878 0.73129 0.03858
 Zn399 Zn 0.99772 0.74967 0.12180
 N400 N 0.96939 0.73840 0.10105
 C401 C 0.96191 0.78925 0.13971
 N402 N 0.98684 0.77909 0.14215
 C403 C 1.00484 0.79073 0.15773
 C404 C 0.99788 0.81338 0.17189
 C405 C 0.95416 0.81179 0.15351
 C406 C 1.01332 0.69763 0.13097
 C407 C 1.02106 0.67512 0.14528
 C408 C 1.01597 0.69988 0.18555
 C409 C 1.00828 0.72201 0.17044
 N410 N 1.00751 0.72056 0.14362
 H411 H 0.94810 0.78023 0.12671
 H412 H 1.02468 0.78257 0.15890
 H413 H 1.01233 0.82265 0.18413
 H414 H 0.93433 0.81984 0.15129
 H415 H 1.01221 0.69699 0.10966
 H416 H 1.02605 0.65706 0.13498
 H417 H 1.01694 0.70119 0.20686
 H418 H 1.00307 0.74026 0.18015
 C419 C 0.92668 0.71983 0.07381
 C420 C 1.07104 0.77958 0.07390
 C421 C 1.02257 0.67629 0.17278
 C422 C 0.97231 0.82401 0.16967
 C423 C 0.52439 0.28187 0.58457
 H424 H 0.50532 0.29169 0.58290
 C425 C 0.54633 0.29191 0.57083
 H426 H 0.54417 0.30942 0.55840
 C427 C 0.55093 0.24789 0.60386
 H428 H 0.55290 0.23125 0.61734
 C429 C 0.57332 0.25725 0.59048
 H430 H 0.59232 0.24759 0.59351
 N431 N 0.52707 0.26028 0.60077
 C432 C 0.44853 0.22800 0.61470
 H433 H 0.44887 0.22701 0.63606
 C434 C 0.42680 0.21864 0.60134
 H435 H 0.41029 0.21041 0.61244
 C436 C 0.46985 0.23959 0.57413
 H437 H 0.48683 0.24748 0.56366
 C438 C 0.44842 0.23038 0.55994
 H439 H 0.44885 0.23130 0.53854
 Zn440 Zn 0.49769 0.24967 0.62183
 N441 N 0.46938 0.23841 0.60104
 C442 C 0.46186 0.28925 0.63972
 N443 N 0.48678 0.27909 0.64218
 C444 C 0.50477 0.29072 0.65779
 C445 C 0.49780 0.31337 0.67195
 C446 C 0.45410 0.31179 0.65351
 C447 C 0.51326 0.19763 0.63099
 C448 C 0.52099 0.17511 0.64530
 C449 C 0.51587 0.19985 0.68557
 C450 C 0.50819 0.22199 0.67047
 N451 N 0.50744 0.22056 0.64365
 H452 H 0.44806 0.28025 0.62669
 H453 H 0.52461 0.28255 0.65897
 H454 H 0.51223 0.32263 0.68421
 H455 H 0.43428 0.31984 0.65128
 H456 H 0.51218 0.19700 0.60968
 H457 H 0.52599 0.15706 0.63499
 H458 H 0.51683 0.20115 0.70688
 H459 H 0.50298 0.24024 0.68018
 C460 C 0.42671 0.21985 0.57374
 C461 C 0.57106 0.27959 0.57402
 C462 C 0.52248 0.17627 0.67280
 C463 C 0.47223 0.32399 0.66970
 C464 C 0.47445 0.77803 0.91772
 H465 H 0.49350 0.78732 0.91880
 C466 C 0.45275 0.78840 0.93179
 H467 H 0.45510 0.80564 0.94390
 C468 C 0.44764 0.74510 0.89952
 H469 H 0.44545 0.72877 0.88633
 C470 C 0.42550 0.75482 0.91325
 H471 H 0.40648 0.74572 0.91078
 N472 N 0.47151 0.75681 0.90189
 C473 C 0.54967 0.72225 0.88639
 H474 H 0.54849 0.72122 0.86510
 C475 C 0.57214 0.71267 0.89916
 H476 H 0.58834 0.70418 0.88770
 C477 C 0.52993 0.73457 0.92732
 H478 H 0.51336 0.74298 0.93816
 C479 C 0.55215 0.72516 0.94093
 H480 H 0.55270 0.72642 0.96226
 Zn481 Zn 0.50046 0.74582 0.88028
 N482 N 0.52930 0.73322 0.90048
 C483 C 0.53604 0.78467 0.86177
 N484 N 0.51104 0.77549 0.85961
 C485 C 0.49289 0.78836 0.84430
 C486 C 0.49975 0.81134 0.83022
 C487 C 0.54369 0.80748 0.84805
 C488 C 0.48485 0.69446 0.87173
 C489 C 0.47690 0.67255 0.85772
 C490 C 0.48090 0.69831 0.81723
 C491 C 0.48883 0.71982 0.83204
 N492 N 0.49026 0.71760 0.85884
 H493 H 0.54999 0.77471 0.87457
 H494 H 0.47300 0.78096 0.84336
 H495 H 0.48518 0.82163 0.81826
 H496 H 0.56356 0.81475 0.85011
 H497 H 0.48647 0.69319 0.89301
 H498 H 0.47227 0.65432 0.86822
 H499 H 0.47944 0.70024 0.79596
 H500 H 0.49369 0.73822 0.82214
 C501 C 0.57347 0.71425 0.92664
 C502 C 0.42801 0.77680 0.92932
 C503 C 0.47475 0.67452 0.83026
 C504 C 0.52539 0.82100 0.83223
 C505 C 0.49436 -0.22796 0.36301
 C506 C 0.48783 -0.20870 0.35020
 C507 C 0.47975 -0.18525 0.33580
 C508 C 0.49067 -0.16081 0.34178
 C509 C 0.48169 -0.13772 0.32901
 C510 C 0.46175 -0.13895 0.31021
 C511 C 0.45111 -0.16344 0.30395
 C512 C 0.46008 -0.18653 0.31672
 C513 C 0.45133 -0.11508 0.29819
 C514 C 0.44184 -0.09531 0.28837
 H515 H 0.50579 -0.15957 0.35661
 H516 H 0.48997 -0.11889 0.33410
 H517 H 0.43559 -0.16461 0.28953
 H518 H 0.45140 -0.20529 0.31205
 C519 C 0.99460 0.27234 0.86306
 C520 C 0.98809 0.29164 0.85029
 C521 C 0.98002 0.31513 0.83595
 C522 C 0.99034 0.33966 0.84255
 C523 C 0.98135 0.36277 0.82980
 C524 C 0.96202 0.36144 0.81038
 C525 C 0.95199 0.33686 0.80351
 C526 C 0.96097 0.31376 0.81627
 C527 C 0.95155 0.38529 0.79837
 C528 C 0.94202 0.40504 0.78855
 H529 H 1.00498 0.34096 0.85784
 H530 H 0.98915 0.38166 0.83537
 H531 H 0.93694 0.33562 0.78861
 H532 H 0.95276 0.29492 0.81110
 C533 C 0.01029 1.22712 0.86323
 C534 C 0.01687 1.20801 0.85063
 C535 C 0.02492 1.18467 0.83654
 C536 C 0.01236 1.16064 0.84193
 C537 C 0.02121 1.13755 0.82953
 C538 C 0.04264 1.13840 0.81169
 C539 C 0.05495 1.16250 0.80601
 C540 C 0.04611 1.18559 0.81841
 C541 C 0.05281 1.11445 0.80008
 C542 C 0.06207 1.09457 0.79060
 H543 H -0.00395 1.15968 0.85603
 H544 H 0.01162 1.11901 0.83416
 H545 H 0.07162 1.16336 0.79233
 H546 H 0.05605 1.20403 0.81421
 C547 C 0.51007 0.72682 0.36328
 C548 C 0.51666 0.70769 0.35072
 C549 C 0.52471 0.68433 0.33667
 C550 C 0.54566 0.68531 0.31826
 C551 C 0.55451 0.66222 0.30588
 C552 C 0.54247 0.63804 0.31186
 C553 C 0.52128 0.63713 0.32999
 C554 C 0.51242 0.66022 0.34237
 C555 C 0.55268 0.61410 0.30027
 C556 C 0.56197 0.59424 0.29080
 H557 H 0.55540 0.70381 0.31382
 H558 H 0.57100 0.66313 0.29198
 H559 H 0.51190 0.61853 0.33486
 H560 H 0.49629 0.65922 0.35668
 C561 C 0.50651 0.27633 0.13590
 C562 C 0.51260 0.29494 0.14897
 C563 C 0.52040 0.31756 0.16367
 C564 C 0.53924 0.31472 0.18354
 C565 C 0.54838 0.33701 0.19634
 C566 C 0.53873 0.36224 0.18932
 C567 C 0.51950 0.36502 0.16982
 C568 C 0.51035 0.34273 0.15703
 C569 C 0.54996 0.38527 0.20078
 C570 C 0.56036 0.40432 0.20981
 H571 H 0.54726 0.29537 0.18872
 H572 H 0.56340 0.33465 0.21125
 H573 H 0.51205 0.38444 0.16409
 H574 H 0.49590 0.34516 0.14158
 C575 C 0.00624 0.77663 0.63584
 C576 C 0.01232 0.79525 0.64888
 C577 C 0.02012 0.81789 0.66356
 C578 C 0.03883 0.81504 0.68355
 C579 C 0.04798 0.83734 0.69633
 C580 C 0.03847 0.86258 0.68917
 C581 C 0.01937 0.86538 0.66955
 C582 C 0.01020 0.84307 0.65678
 C583 C 0.04973 0.88561 0.70061
 C584 C 0.06016 0.90465 0.70963
 H585 H 0.04675 0.79568 0.68884
 H586 H 0.06291 0.83497 0.71133
 H587 H 0.01203 0.88480 0.66371
 H588 H -0.00415 0.84551 0.64123
 C589 C 0.99177 0.73154 0.63525
 C590 C 0.98553 0.71202 0.64768
 C591 C 0.97782 0.68824 0.66153
 C592 C 0.95711 0.68894 0.68023
 C593 C 0.94833 0.66549 0.69219
 C594 C 0.96021 0.64124 0.68550
 C595 C 0.98124 0.64059 0.66717
 C596 C 0.99003 0.66404 0.65521
 C597 C 0.94965 0.61701 0.69620
 C598 C 0.93981 0.59699 0.70471
 H599 H 0.94743 0.70751 0.68514
 H600 H 0.93193 0.66620 0.70621
 H601 H 0.99044 0.62194 0.66172
 H602 H 1.00595 0.66326 0.64066
 C603 C 0.49205 0.23125 0.13525
 C604 C 0.48581 0.21171 0.14766
 C605 C 0.47809 0.18791 0.16148
 C606 C 0.49016 0.16370 0.15500
 C607 C 0.48136 0.14024 0.16693
 C608 C 0.46046 0.14090 0.18541
 C609 C 0.44873 0.16517 0.19226
 C610 C 0.45752 0.18863 0.18032
 C611 C 0.44987 0.11668 0.19608
 C612 C 0.44000 0.09667 0.20457
 H613 H 0.50599 0.16291 0.14033
 H614 H 0.49045 0.12158 0.16134
 H615 H 0.43243 0.16590 0.20640
 H616 H 0.44795 0.20722 0.18537
 C617 C 0.36282 0.49434 -0.22770
 C618 C 0.35004 0.48779 -0.20842
 C619 C 0.33569 0.47969 -0.18494
 C620 C 0.34170 0.49062 -0.16052
 C621 C 0.32897 0.48163 -0.13740
 C622 C 0.31018 0.46167 -0.13861
 C623 C 0.30390 0.45102 -0.16308
 C624 C 0.31663 0.46000 -0.18619
 C625 C 0.29821 0.45123 -0.11472
 C626 C 0.28841 0.44173 -0.09494
 H627 H 0.35651 0.50576 -0.15931
 H628 H 0.33408 0.48992 -0.11859
 H629 H 0.28949 0.43549 -0.16423
 H630 H 0.31193 0.45132 -0.20494
 C631 C 0.86283 0.99439 0.27211
 C632 C 0.85002 0.98784 0.29137
 C633 C 0.83564 0.97975 0.31483
 C634 C 0.84159 0.99069 0.33925
 C635 C 0.82884 0.98170 0.36235
 C636 C 0.81007 0.96173 0.36113
 C637 C 0.80384 0.95105 0.33666
 C638 C 0.81660 0.96004 0.31356
 C639 C 0.79807 0.95129 0.38501
 C640 C 0.78826 0.94179 0.40478
 H641 H 0.85639 1.00585 0.34048
 H642 H 0.83391 0.99001 0.38117
 H643 H 0.78945 0.93551 0.33549
 H644 H 0.81194 0.95133 0.29481
 C645 C 0.86308 0.01010 1.22689
 C646 C 0.85051 0.01667 1.20775
 C647 C 0.83646 0.02470 1.18438
 C648 C 0.84212 0.01234 1.16030
 C649 C 0.82974 0.02118 1.13719
 C650 C 0.81166 0.04242 1.13806
 C651 C 0.80572 0.05452 1.16221
 C652 C 0.81810 0.04569 1.18532
 C653 C 0.80008 0.05260 1.11410
 C654 C 0.79062 0.06188 1.09422
 H655 H 0.85640 -0.00381 1.15933
 H656 H 0.83458 0.01176 1.11862
 H657 H 0.79186 0.07103 1.16309
 H658 H 0.81369 0.05548 1.20379
 C659 C 0.36300 0.51006 0.72708
 C660 C 0.35040 0.51665 0.70797
 C661 C 0.33632 0.52469 0.68462
 C662 C 0.34184 0.51225 0.66056
 C663 C 0.32945 0.52110 0.63747
 C664 C 0.31148 0.54243 0.63834
 C665 C 0.30567 0.55462 0.66247
 C666 C 0.31807 0.54578 0.68556
 C667 C 0.29988 0.55262 0.61438
 C668 C 0.29042 0.56190 0.59451
 H669 H 0.35603 0.49602 0.65959
 H670 H 0.33418 0.51161 0.61891
 H671 H 0.29190 0.57121 0.66335
 H672 H 0.31377 0.55563 0.70402
 C673 C 0.13564 0.50639 0.27649
 C674 C 0.14868 0.51247 0.29513
 C675 C 0.16334 0.52026 0.31777
 C676 C 0.15655 0.51033 0.34295
 C677 C 0.16932 0.51948 0.36526
 C678 C 0.18895 0.53858 0.36248
 C679 C 0.19612 0.54810 0.33725
 C680 C 0.18334 0.53896 0.31494
 C681 C 0.20040 0.54981 0.38552
 C682 C 0.20942 0.56021 0.40457
 H683 H 0.14099 0.49598 0.34538
 H684 H 0.16347 0.51212 0.38469
 H685 H 0.21113 0.56303 0.33489
 H686 H 0.18864 0.54690 0.29559
 C687 C 0.63568 0.00636 0.77632
 C688 C 0.64875 0.01244 0.79493
 C689 C 0.66345 0.02023 0.81755
 C690 C 0.65673 0.01026 0.84273
 C691 C 0.66953 0.01942 0.86502
 C692 C 0.68911 0.03856 0.86222
 C693 C 0.69621 0.04813 0.83698
 C694 C 0.68340 0.03898 0.81469
 C695 C 0.70059 0.04980 0.88524
 C696 C 0.70963 0.06020 0.90428
 H697 H 0.64121 -0.00412 0.84518
 H698 H 0.66375 0.01203 0.88445
 H699 H 0.71118 0.06309 0.83459
 H700 H 0.68864 0.04695 0.79533
 C701 C 0.63504 0.99191 0.73124
 C702 C 0.64746 0.98568 0.71171
 C703 C 0.66129 0.97796 0.68792
 C704 C 0.65479 0.99000 0.66369
 C705 C 0.66674 0.98120 0.64025
 C706 C 0.68526 0.96033 0.64094
 C707 C 0.69213 0.94864 0.66523
 C708 C 0.68017 0.95743 0.68867
 C709 C 0.69596 0.94975 0.61673
 C710 C 0.70447 0.93989 0.59674
 H711 H 0.64010 1.00580 0.66288
 H712 H 0.66115 0.99027 0.62157
 H713 H 0.70629 0.93236 0.66598
 H714 H 0.68523 0.94787 0.70727
 C715 C 0.13508 0.49193 0.23142
 C716 C 0.14753 0.48568 0.21191
 C717 C 0.16140 0.47795 0.18815
 C718 C 0.15501 0.49004 0.16392
 C719 C 0.16699 0.48122 0.14049
 C720 C 0.18543 0.46029 0.14122
 C721 C 0.19219 0.44854 0.16551
 C722 C 0.18020 0.45734 0.18893
 C723 C 0.19615 0.44969 0.11702
 C724 C 0.20468 0.43982 0.09704
 H725 H 0.14038 0.50589 0.16308
 H726 H 0.16148 0.49033 0.12181
 H727 H 0.20629 0.43221 0.16628
 H728 H 0.18518 0.44775 0.20753
 C729 C -0.22766 0.36289 0.49454
 C730 C -0.20840 0.35007 0.48799
 C731 C -0.18496 0.33568 0.47989
 C732 C -0.18628 0.31658 0.46025
 C733 C -0.16319 0.30381 0.45125
 C734 C -0.13869 0.31010 0.46183
 C735 C -0.13742 0.32893 0.48173
 C736 C -0.16051 0.34169 0.49074
 C737 C -0.11483 0.29810 0.45136
 C738 C -0.09508 0.28829 0.44183
 H739 H -0.20505 0.31187 0.45162
 H740 H -0.16439 0.28937 0.43576
 H741 H -0.11858 0.33405 0.48997
 H742 H -0.15924 0.35654 0.50584
 C743 C 0.27224 0.86295 0.99430
 C744 C 0.29150 0.85014 0.98776
 C745 C 0.31495 0.83576 0.97966
 C746 C 0.31365 0.81667 0.96001
 C747 C 0.33674 0.80390 0.95103
 C748 C 0.36123 0.81018 0.96165
 C749 C 0.36248 0.82899 0.98157
 C750 C 0.33939 0.84175 0.99056
 C751 C 0.38510 0.79817 0.95121
 C752 C 0.40486 0.78835 0.94170
 H753 H 0.29489 0.81198 0.95135
 H754 H 0.33556 0.78947 0.93553
 H755 H 0.38131 0.83409 0.98983
 H756 H 0.34064 0.85659 1.00567
 C757 C 1.22702 0.86321 0.01001
 C758 C 1.20788 0.85064 0.01659
 C759 C 1.18451 0.83659 0.02462
 C760 C 1.18546 0.81823 0.04562
 C761 C 1.16235 0.80585 0.05446
 C762 C 1.13820 0.81178 0.04235
 C763 C 1.13733 0.82985 0.02110
 C764 C 1.16044 0.84223 0.01226
 C765 C 1.11424 0.80019 0.05254
 C766 C 1.09436 0.79072 0.06181
 H767 H 1.20393 0.81383 0.05542
 H768 H 1.16323 0.79199 0.07098
 H769 H 1.11876 0.83468 0.01168
 H770 H 1.15946 0.85651 -0.00390
 C771 C 0.72712 0.36315 0.51025
 C772 C 0.70798 0.35059 0.51682
 C773 C 0.68460 0.33655 0.52485
 C774 C 0.66054 0.34216 0.51243
 C775 C 0.63742 0.32979 0.52126
 C776 C 0.63827 0.31176 0.54254
 C777 C 0.66239 0.30586 0.55470
 C778 C 0.68551 0.31823 0.54588
 C779 C 0.61429 0.30018 0.55270
 C780 C 0.59440 0.29072 0.56195
 H781 H 0.65959 0.35640 0.49624
 H782 H 0.61887 0.33460 0.51179
 H783 H 0.66325 0.29203 0.57125
 H784 H 0.70397 0.31385 0.55572
 C785 C 0.27649 0.13579 0.50610
 C786 C 0.29511 0.14886 0.51217
 C787 C 0.31773 0.16356 0.51995
 C788 C 0.34293 0.15678 0.51007
 C789 C 0.36522 0.16958 0.51922
 C790 C 0.36240 0.18923 0.53830
 C791 C 0.33716 0.19639 0.54777
 C792 C 0.31487 0.18359 0.53862
 C793 C 0.38542 0.20070 0.54955
 C794 C 0.40445 0.20973 0.55998
 H795 H 0.34538 0.14121 0.49575
 H796 H 0.38465 0.16374 0.51191
 H797 H 0.33477 0.21141 0.56267
 H798 H 0.29550 0.18887 0.54652
 C799 C 0.77637 0.63581 0.00632
 C800 C 0.79499 0.64888 0.01238
 C801 C 0.81762 0.66358 0.02015
 C802 C 0.81479 0.68353 0.03890
 C803 C 0.83709 0.69633 0.04803
 C804 C 0.86232 0.68923 0.03845
 C805 C 0.86510 0.66965 0.01931
 C806 C 0.84280 0.65686 0.01017
 C807 C 0.88536 0.70069 0.04968
 C808 C 0.90441 0.70972 0.06008
 H809 H 0.79544 0.68877 0.04688
 H810 H 0.83473 0.71129 0.06299
 H811 H 0.88452 0.66386 0.01191
 H812 H 0.84523 0.64135 -0.00421
 C813 C 0.73129 0.63516 0.99186
 C814 C 0.71177 0.64758 0.98560
 C815 C 0.68799 0.66141 0.97786
 C816 C 0.66376 0.65497 0.98995
 C817 C 0.64032 0.66691 0.98114
 C818 C 0.64101 0.68536 0.96021
 C819 C 0.66529 0.69217 0.94845
 C820 C 0.68873 0.68022 0.95726
 C821 C 0.61680 0.69605 0.94961
 C822 C 0.59680 0.70455 0.93975
 H823 H 0.66295 0.64033 1.00580
 H824 H 0.62165 0.66136 0.99025
 H825 H 0.66603 0.70628 0.93213
 H826 H 0.70732 0.68523 0.94767
 C827 C 0.23141 0.13515 0.49163
 C828 C 0.21189 0.14757 0.48538
 C829 C 0.18810 0.16139 0.47765
 C830 C 0.16391 0.15505 0.48984
 C831 C 0.14045 0.16699 0.48104
 C832 C 0.14111 0.18534 0.46002
 C833 C 0.16537 0.19205 0.44816
 C834 C 0.18882 0.18010 0.45695
 C835 C 0.11689 0.19602 0.44946
 C836 C 0.09687 0.20453 0.43962
 H837 H 0.16312 0.14048 0.50576
 H838 H 0.12180 0.16151 0.49024
 H839 H 0.16608 0.20608 0.43177
 H840 H 0.20739 0.18504 0.44728
 C841 C 0.60226 0.02229 0.74705
 C842 C 0.58941 0.04149 0.74049
 C843 C 0.57503 0.06472 0.73187
 C844 C 0.58199 0.08961 0.74102
 C845 C 0.56975 0.11245 0.73078
 C846 C 0.55050 0.11047 0.71135
 C847 C 0.54310 0.08555 0.70266
 C848 C 0.55534 0.06271 0.71289
 C849 C 0.53983 0.13396 0.69888
 C850 C 0.53157 0.15343 0.68751
 H851 H 0.59733 0.09138 0.75555
 H852 H 0.57577 0.13163 0.73749
 H853 H 0.52839 0.08381 0.68749
 H854 H 0.54996 0.04357 0.70554
 C855 C 1.10228 0.52232 0.24716
 C856 C 1.08945 0.54153 0.24057
 C857 C 1.07508 0.56475 0.23192
 C858 C 1.08204 0.58965 0.24107
 C859 C 1.06982 0.61249 0.23080
 C860 C 1.05059 0.61050 0.21136
 C861 C 1.04319 0.58558 0.20266
 C862 C 1.05542 0.56274 0.21292
 C863 C 1.03992 0.63399 0.19887
 C864 C 1.03166 0.65345 0.18749
 H865 H 1.09737 0.59143 0.25561
 H866 H 1.07583 0.63167 0.23751
 H867 H 1.02849 0.58384 0.18748
 H868 H 1.05003 0.54360 0.20557
 C869 C 0.89629 0.97967 0.24167
 C870 C 0.90925 0.96072 0.23478
 C871 C 0.92364 0.93771 0.22588
 C872 C 0.93907 0.93904 0.20267
 C873 C 0.95093 0.91610 0.19256
 C874 C 0.94741 0.89175 0.20563
 C875 C 0.93251 0.89053 0.22918
 C876 C 0.92065 0.91347 0.23929
 C877 C 0.95729 0.86783 0.19377
 C878 C 0.96464 0.84780 0.18316
 H879 H 0.94133 0.95764 0.19203
 H880 H 0.96223 0.91723 0.17422
 H881 H 0.92948 0.87177 0.23933
 H882 H 0.90858 0.91218 0.25714
 C883 C 0.39622 0.47962 0.74180
 C884 C 0.40918 0.46068 0.73489
 C885 C 0.42356 0.43767 0.72597
 C886 C 0.43896 0.43900 0.70274
 C887 C 0.45081 0.41607 0.69262
 C888 C 0.44731 0.39172 0.70568
 C889 C 0.43244 0.39049 0.72925
 C890 C 0.42058 0.41342 0.73938
 C891 C 0.45720 0.36780 0.69382
 C892 C 0.46455 0.34778 0.68320
 H893 H 0.44121 0.45761 0.69210
 H894 H 0.46210 0.41721 0.67427
 H895 H 0.42943 0.37173 0.73940
 H896 H 0.40854 0.41214 0.75724
 C897 C 0.39569 0.52441 0.75698
 C898 C 0.40829 0.54314 0.76363
 C899 C 0.42240 0.56579 0.77228
 C900 C 0.44194 0.56280 0.79144
 C901 C 0.45402 0.58507 0.80155
 C902 C 0.44659 0.61041 0.79255
 C903 C 0.42745 0.61337 0.77298
 C904 C 0.41538 0.59110 0.76286
 C905 C 0.45723 0.63332 0.80475
 C906 C 0.46553 0.65229 0.81587
 H907 H 0.44738 0.54334 0.79899
 H908 H 0.46865 0.58257 0.81682
 H909 H 0.42142 0.63287 0.76602
 H910 H 0.40016 0.59364 0.74818
 C911 C -0.10428 0.02446 0.25683
 C912 C -0.09170 0.04319 0.26350
 C913 C -0.07760 0.06584 0.27217
 C914 C -0.08465 0.09116 0.26279
 C915 C -0.07259 0.11342 0.27292
 C916 C -0.05343 0.11046 0.29247
 C917 C -0.04597 0.08511 0.30143
 C918 C -0.05803 0.06285 0.29130
 C919 C -0.04280 0.13336 0.30469
 C920 C -0.03450 0.15233 0.31582
 H921 H -0.09989 0.09370 0.24813
 H922 H -0.07865 0.13293 0.26600
 H923 H -0.03132 0.08260 0.31668
 H924 H -0.05257 0.04338 0.29882
 C925 C 0.10226 0.47713 0.26247
 C926 C 0.08934 0.45835 0.26938
 C927 C 0.07485 0.43548 0.27804
 C928 C 0.07713 0.41195 0.26392
 C929 C 0.06498 0.38903 0.27359
 C930 C 0.05049 0.38957 0.29741
 C931 C 0.04770 0.41326 0.31121
 C932 C 0.05986 0.43618 0.30154
 C933 C 0.04037 0.36546 0.30879
 C934 C 0.03293 0.34519 0.31906
 H935 H 0.08883 0.41115 0.24582
 H936 H 0.06746 0.37077 0.26288
 H937 H 0.03674 0.41385 0.32977
 H938 H 0.05812 0.45423 0.31271
 C939 C 0.60228 0.97709 0.76235
 C940 C 0.58938 0.95830 0.76927
 C941 C 0.57490 0.93543 0.77795
 C942 C 0.55989 0.93614 0.80145
 C943 C 0.54775 0.91323 0.81112
 C944 C 0.55056 0.88953 0.79734
 C945 C 0.56506 0.88897 0.77353
 C946 C 0.57720 0.91188 0.76385
 C947 C 0.54044 0.86542 0.80873
 C948 C 0.53299 0.84515 0.81902
 H949 H 0.55814 0.95420 0.81259
 H950 H 0.53677 0.91383 0.82967
 H951 H 0.56756 0.87070 0.76284
 H952 H 0.58891 0.91108 0.74576
 C953 C 0.74710 0.60241 0.02228
 C954 C 0.74054 0.58958 0.04150
 C955 C 0.73193 0.57521 0.06474
 C956 C 0.74106 0.58222 0.08963
 C957 C 0.73083 0.56998 0.11248
 C958 C 0.71144 0.55068 0.11052
 C959 C 0.70277 0.54324 0.08560
 C960 C 0.71299 0.55548 0.06275
 C961 C 0.69899 0.54000 0.13402
 C962 C 0.68763 0.53172 0.15349
 H963 H 0.75555 0.59759 0.09139
 H964 H 0.73752 0.57603 0.13166
 H965 H 0.68763 0.52849 0.08388
 H966 H 0.70566 0.55005 0.04362
 C967 C 0.24721 1.10240 0.52206
 C968 C 0.24064 1.08957 0.54129
 C969 C 0.23201 1.07522 0.56453
 C970 C 0.24115 1.08222 0.58941
 C971 C 0.23090 1.07000 0.61227
 C972 C 0.21148 1.05074 0.61031
 C973 C 0.20280 1.04330 0.58539
 C974 C 0.21304 1.05552 0.56254
 C975 C 0.19901 1.04008 0.63381
 C976 C 0.18763 1.03183 0.65328
 H977 H 0.25567 1.09757 0.59117
 H978 H 0.23760 1.07605 0.63144
 H979 H 0.18764 1.02858 0.58367
 H980 H 0.20570 1.05010 0.54341
 C981 C 0.24181 0.89642 0.97957
 C982 C 0.23492 0.90939 0.96062
 C983 C 0.22603 0.92378 0.93760
 C984 C 0.20282 0.93920 0.93891
 C985 C 0.19272 0.95106 0.91597
 C986 C 0.20579 0.94755 0.89163
 C987 C 0.22935 0.93266 0.89042
 C988 C 0.23945 0.92080 0.91337
 C989 C 0.19394 0.95744 0.86770
 C990 C 0.18334 0.96479 0.84766
 H991 H 0.19217 0.94145 0.95751
 H992 H 0.17438 0.96236 0.91709
 H993 H 0.23950 0.92964 0.87167
 H994 H 0.25730 0.90874 0.91210
 C995 C 0.74192 0.39635 0.47981
 C996 C 0.73503 0.40932 0.46086
 C997 C 0.72615 0.42371 0.43783
 C998 C 0.70293 0.43912 0.43914
 C999 C 0.69283 0.45097 0.41619
 C1000 C 0.70590 0.44745 0.39185
 C1001 C 0.72947 0.43257 0.39065
 C1002 C 0.73957 0.42072 0.41360
 C1003 C 0.69405 0.45732 0.36791
 C1004 C 0.68344 0.46465 0.34787
 H1005 H 0.69228 0.44138 0.45773
 H1006 H 0.67448 0.46226 0.41730
 H1007 H 0.73962 0.42954 0.37190
 H1008 H 0.75742 0.40866 0.41234
 C1009 C 0.75709 0.39578 0.52460
 C1010 C 0.76377 0.40836 0.54333
 C1011 C 0.77244 0.42246 0.56598
 C1012 C 0.79162 0.44198 0.56298
 C1013 C 0.80175 0.45405 0.58524
 C1014 C 0.79274 0.44663 0.61058
 C1015 C 0.77315 0.42751 0.61355
 C1016 C 0.76302 0.41545 0.59128
 C1017 C 0.80495 0.45727 0.63349
 C1018 C 0.81608 0.46557 0.65246
 H1019 H 0.79918 0.44742 0.54352
 H1020 H 0.81703 0.46867 0.58274
 H1021 H 0.76619 0.42148 0.63306
 H1022 H 0.74832 0.40023 0.59383
 C1023 C 0.25698 -0.10416 0.02436
 C1024 C 0.26366 -0.09159 0.04309
 C1025 C 0.27235 -0.07750 0.06574
 C1026 C 0.26289 -0.08449 0.09105
 C1027 C 0.27303 -0.07245 0.11332
 C1028 C 0.29267 -0.05338 0.11037
 C1029 C 0.30171 -0.04598 0.08503
 C1030 C 0.29157 -0.05802 0.06276
 C1031 C 0.30489 -0.04277 0.13328
 C1032 C 0.31603 -0.03450 0.15226
 H1033 H 0.24816 -0.09967 0.09358
 H1034 H 0.26605 -0.07846 0.13282
 H1035 H 0.31703 -0.03139 0.08253
 H1036 H 0.29916 -0.05261 0.04330
 C1037 C 0.26251 0.10237 0.47688
 C1038 C 0.26943 0.08944 0.45811
 C1039 C 0.27812 0.07493 0.43527
 C1040 C 0.26403 0.07721 0.41171
 C1041 C 0.27372 0.06504 0.38882
 C1042 C 0.29752 0.05053 0.38942
 C1043 C 0.31128 0.04773 0.41313
 C1044 C 0.30160 0.05990 0.43602
 C1045 C 0.30892 0.04038 0.36533
 C1046 C 0.31921 0.03291 0.34508
 H1047 H 0.24595 0.08893 0.41088
 H1048 H 0.26304 0.06753 0.37054
 H1049 H 0.32982 0.03674 0.41376
 H1050 H 0.31273 0.05816 0.45409
 C1051 C 0.76240 0.60239 0.97709
 C1052 C 0.76932 0.58947 0.95832
 C1053 C 0.77802 0.57497 0.93548
 C1054 C 0.76393 0.57725 0.91192
 C1055 C 0.77363 0.56510 0.88902
 C1056 C 0.79744 0.55060 0.88961
 C1057 C 0.81120 0.54780 0.91333
 C1058 C 0.80151 0.55996 0.93622
 C1059 C 0.80885 0.54048 0.86553
 C1060 C 0.81915 0.53303 0.84527
 H1061 H 0.74584 0.58896 0.91108
 H1062 H 0.76295 0.56759 0.87074
 H1063 H 0.82975 0.53683 0.91396
 H1064 H 0.81264 0.55822 0.95429
 C1065 C 0.02217 0.74733 0.60246
 C1066 C 0.04138 0.74076 0.58962
 C1067 C 0.06460 0.73211 0.57525
 C1068 C 0.06258 0.71319 0.55552
 C1069 C 0.08541 0.70294 0.54329
 C1070 C 0.11034 0.71156 0.55075
 C1071 C 0.11234 0.73093 0.57004
 C1072 C 0.08950 0.74119 0.58227
 C1073 C 0.13382 0.69906 0.54008
 C1074 C 0.15327 0.68767 0.53181
 H1075 H 0.04343 0.70590 0.55009
 H1076 H 0.08366 0.68781 0.52854
 H1077 H 0.13153 0.73758 0.57610
 H1078 H 0.09130 0.75568 0.59765
 C1079 C 0.52242 0.24709 1.10246
 C1080 C 0.54162 0.24054 1.08960
 C1081 C 0.56482 0.23193 1.07519
 C1082 C 0.58973 0.24103 1.08217
 C1083 C 0.61255 0.23079 1.06990
 C1084 C 0.61054 0.21142 1.05060
 C1085 C 0.58560 0.20278 1.04318
 C1086 C 0.56278 0.21301 1.05545
 C1087 C 0.63401 0.19896 1.03989
 C1088 C 0.65346 0.18758 1.03160
 H1089 H 0.59153 0.25551 1.09755
 H1090 H 0.63175 0.23745 1.07593
 H1091 H 0.58384 0.18766 1.02842
 H1092 H 0.54363 0.20570 1.05005
 C1093 C 0.97982 0.24182 0.89643
 C1094 C 0.96085 0.23490 0.90936
 C1095 C 0.93781 0.22598 0.92371
 C1096 C 0.91359 0.23942 0.92073
 C1097 C 0.89063 0.22929 0.93255
 C1098 C 0.89181 0.20570 0.94739
 C1099 C 0.91614 0.19260 0.95089
 C1100 C 0.93910 0.20272 0.93907
 C1101 C 0.86787 0.19384 0.95724
 C1102 C 0.84782 0.18323 0.96456
 H1103 H 0.91234 0.25730 0.90872
 H1104 H 0.87189 0.23946 0.92954
 H1105 H 0.91725 0.17423 0.96215
 H1106 H 0.95769 0.19206 0.94132
 C1107 C 0.47961 0.74159 0.39647
 C1108 C 0.46065 0.73470 0.40942
 C1109 C 0.43762 0.72581 0.42380
 C1110 C 0.43890 0.70256 0.43918
 C1111 C 0.41595 0.69247 0.45103
 C1112 C 0.39162 0.70559 0.44755
 C1113 C 0.39045 0.72918 0.43270
 C1114 C 0.41341 0.73928 0.42085
 C1115 C 0.36768 0.69376 0.45743
 C1116 C 0.34763 0.68317 0.46477
 H1117 H 0.45748 0.69188 0.44141
 H1118 H 0.41704 0.67410 0.46229
 H1119 H 0.37171 0.73937 0.42970
 H1120 H 0.41216 0.75715 0.40883
 C1121 C 0.52440 0.75677 0.39592
 C1122 C 0.54312 0.76345 0.40851
 C1123 C 0.56577 0.77214 0.42261
 C1124 C 0.56277 0.79136 0.44208
 C1125 C 0.58504 0.80150 0.45413
 C1126 C 0.61038 0.79248 0.44675
 C1127 C 0.61334 0.77284 0.42769
 C1128 C 0.59107 0.76269 0.41564
 C1129 C 0.63329 0.80471 0.45736
 C1130 C 0.65225 0.81586 0.46564
 H1131 H 0.54331 0.79893 0.44749
 H1132 H 0.58253 0.81682 0.46872
 H1133 H 0.63285 0.76586 0.42169
 H1134 H 0.59362 0.74796 0.40046
 C1135 C 0.02462 0.25698 -0.10404
 C1136 C 0.04333 0.26361 -0.09142
 C1137 C 0.06598 0.27225 -0.07729
 C1138 C 0.09128 0.26283 -0.08429
 C1139 C 0.11355 0.27294 -0.07220
 C1140 C 0.11058 0.29251 -0.05306
 C1141 C 0.08523 0.30150 -0.04565
 C1142 C 0.06298 0.29140 -0.05774
 C1143 C 0.13349 0.30471 -0.04241
 C1144 C 0.15245 0.31584 -0.03411
 H1145 H 0.09383 0.24816 -0.09952
 H1146 H 0.13306 0.26599 -0.07822
 H1147 H 0.08273 0.31677 -0.03101
 H1148 H 0.04351 0.29895 -0.05231
 C1149 C 0.47723 0.26239 0.10252
 C1150 C 0.45844 0.26932 0.08962
 C1151 C 0.43558 0.27802 0.07516
 C1152 C 0.43629 0.30153 0.06017
 C1153 C 0.41338 0.31122 0.04804
 C1154 C 0.38968 0.29743 0.05083
 C1155 C 0.38912 0.27360 0.06530
 C1156 C 0.41203 0.26391 0.07744
 C1157 C 0.36557 0.30882 0.04071
 C1158 C 0.34531 0.31910 0.03327
 H1159 H 0.45435 0.31269 0.05843
 H1160 H 0.41398 0.32978 0.03708
 H1161 H 0.37085 0.26289 0.06778
 H1162 H 0.41122 0.24579 0.08912
 C1163 C 0.97698 0.76262 0.60245
 C1164 C 0.95820 0.76953 0.58953
 C1165 C 0.93535 0.77820 0.57504
 C1166 C 0.93607 0.80169 0.56001
 C1167 C 0.91317 0.81135 0.54785
 C1168 C 0.88946 0.79757 0.55065
 C1169 C 0.88889 0.77377 0.56517
 C1170 C 0.91179 0.76410 0.57733
 C1171 C 0.86536 0.80895 0.54051
 C1172 C 0.84510 0.81922 0.53305
 H1173 H 0.95413 0.81284 0.55826
 H1174 H 0.91377 0.82990 0.53686
 H1175 H 0.87062 0.76307 0.56767
 H1176 H 0.91098 0.74601 0.58905
   
