data_POSCAR
  _audit_creation_date              2014-09-24
  _audit_creation_method            'ToBaCCo'
  _symmetry_space_group_name_H-M    'P1'
  _symmetry_Int_Tables_number       1
  _symmetry_cell_setting            triclinic
  loop_
  _symmetry_equiv_pos_as_xyz
 x,y,z
_cell_length_a 27.4770
_cell_length_b 27.4769
_cell_length_c 27.5206
_cell_angle_alpha 90.096200
_cell_angle_beta 90.096200
_cell_angle_gamma 90.000000
loop_
  _atom_site_label
  _atom_site_type_symbol
  _atom_site_fract_x
  _atom_site_fract_y
  _atom_site_fract_z
O1 O 0.45343 0.96019 -0.54682
 O2 O 0.54836 0.96021 -0.45200
 O3 O 0.45360 0.95938 -0.45222
 O4 O 0.54816 0.95943 -0.54663
 O5 O 0.54825 1.03969 -0.54659
 O6 O 0.45347 1.03964 -0.45195
 O7 O 0.54823 1.04040 -0.45196
 O8 O 0.45353 1.04045 -0.54654
 Cu9 Cu 0.50090 0.95177 -0.49942
 Cu10 Cu 0.50088 1.04808 -0.49923
 C11 C 0.43723 1.00039 -0.56292
 C12 C 0.56463 1.00038 -0.43564
 C13 C 0.43729 0.99943 -0.43589
 C14 C 0.56440 0.99950 -0.56285
 O15 O -0.54912 1.45230 -0.03973
 O16 O -0.45424 1.54718 -0.03990
 O17 O -0.45437 1.45245 -0.04059
 O18 O -0.54900 1.54709 -0.04059
 O19 O -0.54895 1.54742 0.03946
 O20 O -0.45407 1.45254 0.03954
 O21 O -0.45419 1.54727 0.04024
 O22 O -0.54883 1.45263 0.04033
 Cu23 Cu -0.50172 1.49973 -0.04821
 Cu24 Cu -0.50151 1.49998 0.04790
 C25 C -0.56529 1.43610 0.00040
 C26 C -0.43795 1.56344 0.00022
 C27 C -0.43795 1.43628 -0.00059
 C28 C -0.56529 1.56362 -0.00064
 O29 O -0.03963 0.45324 0.45318
 O30 O -0.03960 0.54816 0.54800
 O31 O -0.04038 0.54797 0.45338
 O32 O -0.04043 0.45340 0.54777
 O33 O 0.03983 0.45327 0.54805
 O34 O 0.03988 0.54806 0.45341
 O35 O 0.04059 0.54803 0.54804
 O36 O 0.04064 0.45334 0.45346
 Cu37 Cu -0.04804 0.50070 0.50058
 Cu38 Cu 0.04827 0.50068 0.50077
 C39 C 0.00058 0.43704 0.43708
 C40 C 0.00056 0.56444 0.56436
 C41 C -0.00032 0.56422 0.43716
 C42 C -0.00038 0.43709 0.56410
 O43 O -0.12515 1.00143 -0.06600
 O44 O 0.12515 0.99818 -0.06578
 O45 O -0.00167 1.06560 -0.12506
 O46 O 0.00158 0.93392 -0.12515
 O47 O 0.00161 0.87465 -0.06600
 O48 O -0.00163 1.12495 -0.06579
 O49 O 0.06580 0.99813 -0.12505
 O50 O -0.06588 1.00138 -0.12516
 Zr51 Zr -0.00001 0.99979 -0.08558
 O52 O 0.04419 0.95565 -0.04425
 O53 O -0.04416 1.04400 -0.04426
 C54 C -0.11094 1.00212 -0.11099
 C55 C 0.11088 0.99742 -0.11079
 C56 C -0.00239 1.11068 -0.11080
 C57 C 0.00231 0.88886 -0.11098
 H58 H 0.06471 1.06452 -0.06466
 O59 O 0.04396 1.04377 -0.04395
 H60 H -0.06472 0.93509 -0.06488
 O61 O -0.04393 0.95588 -0.04410
 O62 O 0.12527 1.00154 0.06569
 O63 O -0.12504 0.99829 0.06550
 O64 O 0.06588 1.12502 0.00161
 O65 O 0.06588 0.87470 -0.00182
 O66 O -0.06581 0.87471 0.00131
 O67 O -0.06581 1.12501 -0.00173
 O68 O 0.00179 1.06581 0.12483
 O69 O -0.00146 0.93417 0.12473
 O70 O 0.00172 1.12508 0.06568
 O71 O -0.00152 0.87477 0.06551
 O72 O 0.12521 1.06573 0.00161
 O73 O -0.12510 1.06569 -0.00183
 O74 O -0.12510 0.93404 0.00131
 O75 O 0.12520 0.93400 -0.00172
 O76 O 0.06600 1.00160 0.12484
 O77 O -0.06565 0.99835 0.12473
 Zr78 Zr 0.08563 0.99986 -0.00008
 Zr79 Zr -0.08552 0.99986 -0.00022
 Zr80 Zr 0.00004 1.08543 -0.00009
 Zr81 Zr 0.00004 0.91429 -0.00022
 Zr82 Zr 0.00013 0.99995 0.08525
 O83 O -0.04409 0.95573 0.04388
 O84 O 0.04427 1.04409 0.04401
 C85 C 0.11106 1.00231 0.11067
 C86 C -0.11073 0.99760 0.11050
 C87 C 0.11095 1.11079 0.00236
 C88 C 0.11095 0.88893 -0.00250
 C89 C -0.11088 0.88897 0.00202
 C90 C -0.11088 1.11076 -0.00251
 C91 C 0.00250 1.11087 0.11066
 C92 C -0.00221 0.88908 0.11051
 H93 H -0.06461 1.06464 0.06446
 O94 O -0.04386 1.04385 0.04372
 H95 H 0.06483 0.93520 0.06446
 O96 O 0.04404 0.95595 0.04371
 C97 C 0.32676 1.00145 0.32645
 C98 C 0.34458 0.95718 0.34420
 C99 C 0.38054 0.95674 0.38022
 C100 C 0.39913 1.00067 0.39896
 C101 C 0.38093 1.04497 0.38085
 C102 C 0.34500 1.04530 0.34485
 C103 C 0.28976 1.00193 0.28939
 C104 C 0.25876 1.00244 0.25835
 C105 C 0.22174 1.00302 0.22131
 C106 C 0.23483 1.00311 0.17221
 C107 C 0.19890 1.00320 0.13619
 C108 C 0.14924 1.00318 0.14883
 C109 C 0.13651 1.00338 0.19839
 C110 C 0.17254 1.00328 0.23432
 H111 H 0.33069 0.92301 0.33019
 H112 H 0.39375 0.92204 0.39337
 H113 H 0.39445 1.07942 0.39448
 H114 H 0.33145 1.07977 0.33137
 H115 H 0.27283 1.00294 0.16176
 H116 H 0.21009 1.00308 0.09848
 H117 H 0.09873 1.00340 0.20952
 H118 H 0.16201 1.00326 0.27224
 C119 C -0.32566 0.99851 0.32635
 C120 C -0.34379 0.95464 0.34462
 C121 C -0.37954 0.95495 0.38070
 C122 C -0.39764 0.99924 0.39901
 C123 C -0.37914 1.04318 0.38041
 C124 C -0.34338 1.04276 0.34431
 C125 C -0.28886 0.99804 0.28921
 C126 C -0.25800 0.99754 0.25813
 C127 C -0.22110 0.99697 0.22109
 C128 C -0.23434 0.99688 0.17198
 C129 C -0.19852 0.99677 0.13597
 C130 C -0.14882 0.99678 0.14863
 C131 C -0.13595 0.99658 0.19820
 C132 C -0.17187 0.99669 0.23411
 H133 H -0.33032 0.92018 0.33098
 H134 H -0.39298 0.92050 0.39421
 H135 H -0.39229 1.07787 0.39371
 H136 H -0.32956 1.07694 0.33041
 H137 H -0.27238 0.99706 0.16151
 H138 H -0.20982 0.99690 0.09826
 H139 H -0.09814 0.99654 0.20935
 H140 H -0.16122 0.99670 0.27204
 C141 C -0.32667 1.00129 -0.32678
 C142 C -0.34448 0.95708 -0.34472
 C143 C -0.38043 0.95664 -0.38075
 C144 C -0.39918 1.00061 -0.39944
 C145 C -0.38083 1.04491 -0.38097
 C146 C -0.34490 1.04515 -0.34496
 C147 C -0.28967 1.00173 -0.28971
 C148 C -0.25866 1.00221 -0.25866
 C149 C -0.22164 1.00277 -0.22163
 C150 C -0.23473 1.00296 -0.17253
 C151 C -0.19879 1.00306 -0.13650
 C152 C -0.14913 1.00295 -0.14915
 C153 C -0.13641 1.00305 -0.19871
 C154 C -0.17244 1.00294 -0.23463
 H155 H -0.33058 0.92290 -0.33087
 H156 H -0.39345 0.92180 -0.39386
 H157 H -0.39415 1.07954 -0.39424
 H158 H -0.33134 1.07959 -0.33131
 H159 H -0.27272 1.00287 -0.16207
 H160 H -0.20998 1.00302 -0.09880
 H161 H -0.09863 1.00300 -0.20984
 H162 H -0.16191 1.00285 -0.27256
 C163 C 0.32664 0.99834 -0.32580
 C164 C 0.34495 0.95449 -0.34409
 C165 C 0.38096 0.95483 -0.37990
 C166 C 0.39916 0.99914 -0.39792
 C167 C 0.38051 1.04306 -0.37929
 C168 C 0.34448 1.04261 -0.34346
 C169 C 0.28957 0.99784 -0.28893
 C170 C 0.25853 0.99732 -0.25803
 C171 C 0.22150 0.99673 -0.22113
 C172 C 0.17230 0.99655 -0.23428
 C173 C 0.13628 0.99644 -0.19846
 C174 C 0.14903 0.99656 -0.14886
 C175 C 0.19870 0.99645 -0.13608
 C176 C 0.23461 0.99655 -0.17199
 H177 H 0.33140 0.92001 -0.33067
 H178 H 0.39452 0.92039 -0.39345
 H179 H 0.39373 1.07777 -0.39238
 H180 H 0.33054 1.07677 -0.32953
 H181 H 0.16176 0.99664 -0.27224
 H182 H 0.09849 0.99649 -0.20970
 H183 H 0.20991 0.99650 -0.09834
 H184 H 0.27262 0.99665 -0.16142
 C185 C 0.32628 1.32698 0.00148
 C186 C 0.34455 1.34542 0.04523
 C187 C 0.38038 1.38152 0.04494
 C188 C 0.39860 1.39983 0.00068
 C189 C 0.37981 1.38089 -0.04318
 C190 C 0.34395 1.34477 -0.04269
 C191 C 0.28938 1.28981 0.00197
 C192 C 0.25845 1.25869 0.00248
 C193 C 0.22149 1.22160 0.00307
 C194 C 0.17227 1.23462 0.00333
 C195 C 0.13630 1.19865 0.00343
 C196 C 0.14910 1.14900 0.00323
 C197 C 0.19877 1.13633 0.00326
 C198 C 0.23466 1.17241 0.00316
 H199 H 0.33109 1.33188 0.07964
 H200 H 0.39374 1.39498 0.07950
 H201 H 0.39273 1.39388 -0.07800
 H202 H 0.33002 1.33072 -0.07680
 H203 H 0.16169 1.27261 0.00330
 H204 H 0.09850 1.20981 0.00344
 H205 H 0.21002 1.09856 0.00313
 H206 H 0.27267 1.16193 0.00300
 C207 C 0.32628 0.67275 -0.00162
 C208 C 0.34414 0.65495 0.04253
 C209 C 0.38000 0.61883 0.04299
 C210 C 0.39860 0.59989 -0.00089
 C211 C 0.38019 0.61820 -0.04513
 C212 C 0.34436 0.65431 -0.04539
 C213 C 0.28938 0.70992 -0.00208
 C214 C 0.25845 0.74103 -0.00257
 C215 C 0.22149 0.77813 -0.00315
 C216 C 0.23465 0.82732 -0.00319
 C217 C 0.19877 0.86339 -0.00330
 C218 C 0.14909 0.85072 -0.00333
 C219 C 0.13630 0.80107 -0.00357
 C220 C 0.17227 0.76510 -0.00347
 H221 H 0.33036 0.66900 0.07665
 H222 H 0.39307 0.60584 0.07779
 H223 H 0.39339 0.60474 -0.07970
 H224 H 0.33075 0.66784 -0.07979
 H225 H 0.27267 0.83780 -0.00299
 H226 H 0.21001 0.90116 -0.00314
 H227 H 0.09850 0.78992 -0.00364
 H228 H 0.16168 0.72711 -0.00348
 C229 C -0.32704 0.67364 0.00112
 C230 C -0.34502 0.65577 -0.04305
 C231 C -0.38115 0.61991 -0.04344
 C232 C -0.39975 0.60147 0.00044
 C233 C -0.38142 0.61972 0.04465
 C234 C -0.34531 0.65555 0.04493
 C235 C -0.28987 0.71054 0.00156
 C236 C -0.25876 0.74147 0.00204
 C237 C -0.22167 0.77843 0.00261
 C238 C -0.23470 0.82765 0.00287
 C239 C -0.19872 0.86362 0.00299
 C240 C -0.14908 0.85083 0.00282
 C241 C -0.13641 0.80115 0.00283
 C242 C -0.17248 0.76527 0.00271
 H243 H -0.33111 0.66954 -0.07718
 H244 H -0.39446 0.60665 -0.07807
 H245 H -0.39494 0.60632 0.07906
 H246 H -0.33165 0.66915 0.07933
 H247 H -0.27268 0.83823 0.00284
 H248 H -0.20988 0.90142 0.00302
 H249 H -0.09864 0.78990 0.00273
 H250 H -0.16200 0.72725 0.00255
 C251 C -0.32704 1.32608 -0.00160
 C252 C -0.34552 1.34416 -0.04540
 C253 C -0.38162 1.37999 -0.04508
 C254 C -0.39976 1.39825 -0.00085
 C255 C -0.38094 1.37982 0.04301
 C256 C -0.34482 1.34396 0.04259
 C257 C -0.28988 1.28918 -0.00207
 C258 C -0.25876 1.25825 -0.00258
 C259 C -0.22167 1.22129 -0.00316
 C260 C -0.17249 1.23446 -0.00320
 C261 C -0.13641 1.19857 -0.00331
 C262 C -0.14909 1.14890 -0.00335
 C263 C -0.19873 1.13610 -0.00359
 C264 C -0.23470 1.17208 -0.00348
 H265 H -0.33201 1.33056 -0.07981
 H266 H -0.39530 1.39338 -0.07948
 H267 H -0.39410 1.39309 0.07765
 H268 H -0.33076 1.33020 0.07671
 H269 H -0.16200 1.27247 -0.00300
 H270 H -0.09864 1.20982 -0.00316
 H271 H -0.20989 1.09831 -0.00365
 H272 H -0.27269 1.16149 -0.00349
 C273 C 0.00163 1.32658 0.32643
 C274 C -0.04263 1.34440 0.34418
 C275 C -0.04307 1.38035 0.38021
 C276 C 0.00085 1.39894 0.39895
 C277 C 0.04516 1.38075 0.38084
 C278 C 0.04549 1.34482 0.34484
 C279 C 0.00212 1.28958 0.28937
 C280 C 0.00263 1.25858 0.25833
 C281 C 0.00321 1.22156 0.22130
 C282 C 0.00331 1.23465 0.17220
 C283 C 0.00340 1.19871 0.13618
 C284 C 0.00336 1.14906 0.14882
 C285 C 0.00355 1.13633 0.19839
 C286 C 0.00346 1.17236 0.23431
 H287 H -0.07680 1.33051 0.33017
 H288 H -0.07777 1.39357 0.39336
 H289 H 0.07960 1.39426 0.39447
 H290 H 0.07996 1.33127 0.33135
 H291 H 0.00316 1.27265 0.16174
 H292 H 0.00329 1.20991 0.09847
 H293 H 0.00356 1.09855 0.20952
 H294 H 0.00342 1.16184 0.27223
 C295 C -0.00148 1.32643 -0.32581
 C296 C 0.04279 1.34428 -0.34347
 C297 C 0.04325 1.38031 -0.37930
 C298 C -0.00067 1.39896 -0.39793
 C299 C -0.04498 1.38076 -0.37991
 C300 C -0.04533 1.34475 -0.34410
 C301 C -0.00197 1.28937 -0.28894
 C302 C -0.00249 1.25833 -0.25804
 C303 C -0.00308 1.22130 -0.22114
 C304 C -0.00326 1.17210 -0.23429
 C305 C -0.00336 1.13608 -0.19847
 C306 C -0.00325 1.14883 -0.14887
 C307 C -0.00336 1.19850 -0.13609
 C308 C -0.00326 1.23441 -0.17200
 H309 H 0.07696 1.33034 -0.32954
 H310 H 0.07796 1.39353 -0.39238
 H311 H -0.07942 1.39432 -0.39346
 H312 H -0.07980 1.33119 -0.33068
 H313 H -0.00316 1.16155 -0.27224
 H314 H -0.00331 1.09829 -0.20970
 H315 H -0.00332 1.20971 -0.09835
 H316 H -0.00317 1.27242 -0.16143
 C317 C 0.00148 0.67313 -0.32677
 C318 C -0.04273 0.65532 -0.34471
 C319 C -0.04317 0.61937 -0.38074
 C320 C 0.00080 0.60062 -0.39943
 C321 C 0.04510 0.61896 -0.38096
 C322 C 0.04534 0.65490 -0.34495
 C323 C 0.00192 0.71013 -0.28970
 C324 C 0.00240 0.74113 -0.25865
 C325 C 0.00296 0.77816 -0.22162
 C326 C 0.00314 0.76507 -0.17252
 C327 C 0.00324 0.80101 -0.13649
 C328 C 0.00314 0.85067 -0.14914
 C329 C 0.00324 0.86339 -0.19870
 C330 C 0.00314 0.82736 -0.23462
 H331 H -0.07691 0.66922 -0.33086
 H332 H -0.07802 0.60635 -0.39386
 H333 H 0.07973 0.60565 -0.39423
 H334 H 0.07978 0.66846 -0.33130
 H335 H 0.00305 0.72707 -0.16206
 H336 H 0.00320 0.78982 -0.09879
 H337 H 0.00320 0.90117 -0.20984
 H338 H 0.00305 0.83788 -0.27255
 C339 C -0.00131 0.67417 0.32637
 C340 C -0.04517 0.65603 0.34464
 C341 C -0.04486 0.62028 0.38071
 C342 C -0.00057 0.60218 0.39902
 C343 C 0.04337 0.62068 0.38042
 C344 C 0.04295 0.65644 0.34433
 C345 C -0.00177 0.71097 0.28923
 C346 C -0.00227 0.74183 0.25815
 C347 C -0.00285 0.77872 0.22110
 C348 C -0.00292 0.76547 0.17200
 C349 C -0.00303 0.80130 0.13598
 C350 C -0.00304 0.85099 0.14864
 C351 C -0.00325 0.86387 0.19821
 C352 C -0.00314 0.82795 0.23412
 H353 H -0.07964 0.66950 0.33099
 H354 H -0.07932 0.60684 0.39422
 H355 H 0.07806 0.60752 0.39372
 H356 H 0.07713 0.67026 0.33043
 H357 H -0.00274 0.72744 0.16153
 H358 H -0.00290 0.78999 0.09827
 H359 H -0.00329 0.90168 0.20935
 H360 H -0.00313 0.83860 0.27205
   
