data_POSCAR
  _audit_creation_date              2014-09-24
  _audit_creation_method            'ToBaCCo'
  _symmetry_space_group_name_H-M    'P1'
  _symmetry_Int_Tables_number       1
  _symmetry_cell_setting            triclinic
  loop_
  _symmetry_equiv_pos_as_xyz
 x,y,z
_cell_length_a 32.5626
_cell_length_b 33.9039
_cell_length_c 23.3194
_cell_angle_alpha 89.829900
_cell_angle_beta 90.026200
_cell_angle_gamma 90.053100
loop_
  _atom_site_label
  _atom_site_type_symbol
  _atom_site_fract_x
  _atom_site_fract_y
  _atom_site_fract_z
C1 C 1.28619 0.20788 0.27006
 C2 C 1.25146 0.22863 0.25151
 C3 C 1.21677 0.20790 0.23293
 C4 C 1.21660 0.16676 0.23298
 C5 C 1.25148 0.14613 0.25129
 C6 C 1.28649 0.16664 0.26975
 C7 C 1.25147 0.27199 0.25133
 C8 C 1.28616 0.29274 0.23259
 C9 C 1.28639 0.33398 0.23231
 C10 C 1.25134 0.35450 0.25041
 C11 C 1.21647 0.33386 0.26891
 C12 C 1.21673 0.29271 0.26957
 H13 H 1.31241 0.22404 0.28624
 H14 H 1.19041 0.22391 0.21684
 H15 H 1.31238 0.27656 0.21656
 H16 H 1.19038 0.27671 0.28574
 H17 H 1.25130 0.11415 0.25117
 H18 H 1.25108 0.38648 0.25003
 C19 C 0.78527 -0.29301 0.26872
 C20 C 0.75044 -0.27226 0.25067
 C21 C 0.71577 -0.29294 0.23202
 C22 C 0.71571 -0.33408 0.23158
 C23 C 0.75073 -0.35475 0.24927
 C24 C 0.78576 -0.33423 0.26769
 C25 C 0.75035 -0.22893 0.25107
 C26 C 0.78510 -0.20802 0.23295
 C27 C 0.78520 -0.16688 0.23329
 C28 C 0.75019 -0.14644 0.25132
 C29 C 0.71526 -0.16719 0.26924
 C30 C 0.71551 -0.20835 0.26933
 H31 H 0.81144 -0.27689 0.28513
 H32 H 0.68934 -0.27690 0.21627
 H33 H 0.81152 -0.22387 0.21694
 H34 H 0.68911 -0.22446 0.28510
 H35 H 0.75063 -0.38672 0.24875
 H36 H 0.75011 -0.11447 0.25136
 C37 C 0.78550 0.20847 -0.23260
 C38 C 0.75075 0.22918 -0.25109
 C39 C 0.71600 0.20843 -0.26941
 C40 C 0.71584 0.16727 -0.26908
 C41 C 0.75075 0.14670 -0.25078
 C42 C 0.78566 0.16732 -0.23262
 C43 C 0.75075 0.27251 -0.25117
 C44 C 0.78548 0.29327 -0.26965
 C45 C 0.78581 0.33450 -0.26937
 C46 C 0.75078 0.35499 -0.25114
 C47 C 0.71587 0.33430 -0.23296
 C48 C 0.71605 0.29317 -0.23275
 H49 H 0.81188 0.22447 -0.21663
 H50 H 0.68961 0.22440 -0.28546
 H51 H 0.81168 0.27713 -0.28581
 H52 H 0.68969 0.27711 -0.21671
 H53 H 0.75074 0.11473 -0.25063
 H54 H 0.75059 0.38697 -0.25112
 C55 C 1.28518 -0.29320 -0.23051
 C56 C 1.25038 -0.27238 -0.24840
 C57 C 1.21562 -0.29295 -0.26691
 C58 C 1.21545 -0.33405 -0.26733
 C59 C 1.25045 -0.35482 -0.24986
 C60 C 1.28555 -0.33439 -0.23164
 C61 C 1.25042 -0.22910 -0.24799
 C62 C 1.28523 -0.20831 -0.26606
 C63 C 1.28542 -0.16719 -0.26571
 C64 C 1.25046 -0.14666 -0.24783
 C65 C 1.21547 -0.16733 -0.23001
 C66 C 1.21563 -0.20846 -0.22981
 H67 H 1.31143 -0.27715 -0.21417
 H68 H 1.18920 -0.27684 -0.28259
 H69 H 1.31162 -0.22421 -0.28207
 H70 H 1.18917 -0.22450 -0.21404
 H71 H 1.25027 -0.38679 -0.25043
 H72 H 1.25045 -0.11469 -0.24784
 C73 C 0.20556 0.28193 0.72832
 C74 C 0.22739 0.25003 0.75190
 C75 C 0.20556 0.21802 0.77530
 C76 C 0.16234 0.21800 0.77666
 C77 C 0.14098 0.24984 0.75145
 C78 C 0.16244 0.28170 0.72665
 C79 C 0.27303 0.25010 0.75185
 C80 C 0.29490 0.28207 0.77506
 C81 C 0.33812 0.28208 0.77634
 C82 C 0.35944 0.25029 0.75125
 C83 C 0.33793 0.21848 0.72664
 C84 C 0.29482 0.21825 0.72839
 H85 H 0.22221 0.30655 0.70980
 H86 H 0.22235 0.19348 0.79379
 H87 H 0.27814 0.30658 0.79346
 H88 H 0.27813 0.19366 0.71003
 H89 H 0.10779 0.24991 0.75099
 H90 H 0.39263 0.25021 0.75074
 C91 C 0.70419 0.78210 0.72685
 C92 C 0.72597 0.75010 0.75024
 C93 C 0.70410 0.71805 0.77341
 C94 C 0.66089 0.71808 0.77480
 C95 C 0.63955 0.75001 0.74981
 C96 C 0.66100 0.78197 0.72503
 C97 C 0.77162 0.75012 0.75027
 C98 C 0.79352 0.78203 0.77363
 C99 C 0.83668 0.78195 0.77488
 C100 C 0.85803 0.75022 0.74995
 C101 C 0.83657 0.71844 0.72518
 C102 C 0.79343 0.71827 0.72676
 H103 H 0.72102 0.80673 0.70860
 H104 H 0.72086 0.69344 0.79176
 H105 H 0.77692 0.80657 0.79218
 H106 H 0.77675 0.69372 0.70826
 H107 H 0.60636 0.74997 0.74963
 H108 H 0.89122 0.75025 0.74981
 C109 C 0.70566 0.28186 0.22573
 C110 C 0.72746 0.24991 0.24916
 C111 C 0.70566 0.21794 0.27259
 C112 C 0.66254 0.21808 0.27402
 C113 C 0.64111 0.24987 0.24920
 C114 C 0.66254 0.28169 0.22435
 C115 C 0.77302 0.24997 0.24927
 C116 C 0.79477 0.28191 0.27262
 C117 C 0.83788 0.28181 0.27419
 C118 C 0.85937 0.25008 0.24961
 C119 C 0.83800 0.21828 0.22486
 C120 C 0.79488 0.21807 0.22609
 H121 H 0.72231 0.30649 0.20722
 H122 H 0.72230 0.19334 0.29114
 H123 H 0.77809 0.30648 0.29096
 H124 H 0.77828 0.19346 0.20763
 H125 H 0.60792 0.24987 0.24923
 H126 H 0.89256 0.25012 0.24974
 C127 C 0.20432 0.78189 0.22597
 C128 C 0.22604 0.74992 0.24948
 C129 C 0.20418 0.71806 0.27308
 C130 C 0.16100 0.71823 0.27478
 C131 C 0.13965 0.75011 0.24965
 C132 C 0.16113 0.78189 0.22443
 C133 C 0.27164 0.74987 0.24953
 C134 C 0.29351 0.78161 0.27328
 C135 C 0.33663 0.78143 0.27482
 C136 C 0.35802 0.74976 0.24974
 C137 C 0.33655 0.71815 0.22456
 C138 C 0.29341 0.71806 0.22588
 H139 H 0.22119 0.80640 0.20747
 H140 H 0.22094 0.69349 0.29156
 H141 H 0.27689 0.80610 0.29196
 H142 H 0.27672 0.69361 0.20714
 H143 H 0.10646 0.75018 0.24973
 H144 H 0.39122 0.74973 0.24984
 N145 N 1.07329 0.04093 0.06155
 N146 N 1.10388 0.06473 0.07382
 N147 N 1.04479 -0.04193 0.10267
 N148 N 1.05101 -0.07092 0.13969
 N149 N 1.07302 -0.04211 0.06243
 N150 N 1.09908 -0.07149 0.07088
 N151 N 1.04584 0.04088 0.10278
 N152 N 1.05738 0.06470 0.14464
 C153 C 1.09326 0.07975 0.12502
 C154 C 1.08489 -0.08920 0.11920
 N155 N 0.92852 -0.04095 0.06167
 N156 N 0.89795 -0.06475 0.07409
 N157 N 0.95699 0.04182 0.10241
 N158 N 0.95061 0.07059 0.13943
 N159 N 0.92872 0.04201 0.06218
 N160 N 0.90248 0.07118 0.07061
 N161 N 0.95598 -0.04092 0.10294
 N162 N 0.94445 -0.06475 0.14496
 Mn163 Mn 1.00090 -0.00003 0.10331
 C164 C 0.90858 -0.07978 0.12542
 C165 C 0.91662 0.08875 0.11889
 N166 N 1.07295 -0.04076 -0.06073
 N167 N 1.10320 -0.06492 -0.07267
 N168 N 1.04480 0.04212 -0.10194
 N169 N 1.05119 0.07104 -0.13902
 N170 N 1.07306 0.04225 -0.06169
 N171 N 1.09929 0.07153 -0.07021
 N172 N 1.04547 -0.04068 -0.10196
 N173 N 1.05665 -0.06484 -0.14352
 Mn174 Mn 1.07338 0.00008 0.00038
 C175 C 1.09233 -0.08010 -0.12368
 C176 C 1.08519 0.08924 -0.11856
 N177 N 0.92850 0.04104 -0.06097
 N178 N 0.89803 0.06496 -0.07325
 N179 N 0.95668 -0.04172 -0.10184
 N180 N 0.95007 -0.07038 -0.13905
 N181 N 0.92848 -0.04197 -0.06155
 N182 N 0.90208 -0.07105 -0.07014
 N183 N 0.95595 0.04111 -0.10218
 N184 N 0.94455 0.06512 -0.14404
 Mn185 Mn 0.92827 0.00003 0.00034
 Mn186 Mn 1.00074 0.00021 -0.10261
 Cl187 Cl 1.00082 0.00008 0.00036
 C188 C 0.90875 0.08016 -0.12443
 C189 C 0.91601 -0.08855 -0.11858
 N190 N 1.07206 0.54140 0.56074
 N191 N 1.10255 0.56524 0.57314
 N192 N 1.04373 0.45846 0.60179
 N193 N 1.05009 0.42962 0.63901
 N194 N 1.07209 0.45838 0.56171
 N195 N 1.09835 0.42921 0.57047
 N196 N 1.04457 0.54122 0.60192
 N197 N 1.05598 0.56497 0.64389
 C198 C 1.09181 0.58013 0.62436
 C199 C 1.08416 0.41151 0.61879
 N200 N 0.92751 0.45943 0.56039
 N201 N 0.89687 0.43567 0.57267
 N202 N 0.95580 0.54220 0.60140
 N203 N 0.94925 0.57087 0.63858
 N204 N 0.92762 0.54246 0.56104
 N205 N 0.90129 0.57157 0.56957
 N206 N 0.95488 0.45942 0.60176
 N207 N 0.94321 0.43562 0.64375
 Mn208 Mn 0.99975 0.50032 0.60232
 C209 C 0.90736 0.42064 0.62406
 C210 C 0.91526 0.58905 0.61805
 N211 N 1.07248 0.45971 0.43848
 N212 N 1.10309 0.43596 0.42640
 N213 N 1.04407 0.54253 0.39719
 N214 N 1.05040 0.57144 0.36010
 N215 N 1.07226 0.54275 0.43753
 N216 N 1.09841 0.57210 0.42906
 N217 N 1.04512 0.45972 0.39709
 N218 N 1.05677 0.43591 0.35531
 Mn219 Mn 1.07251 0.50056 0.49962
 C220 C 1.09260 0.42091 0.37515
 C221 C 1.08430 0.58974 0.38064
 N222 N 0.92780 0.54145 0.43782
 N223 N 0.89717 0.56512 0.42528
 N224 N 0.95626 0.45868 0.39716
 N225 N 0.94997 0.42985 0.36017
 N226 N 0.92791 0.45847 0.43725
 N227 N 0.90172 0.42923 0.42876
 N228 N 0.95522 0.54140 0.39655
 N229 N 0.94358 0.56504 0.35436
 Mn230 Mn 0.92743 0.50046 0.49912
 Mn231 Mn 1.00017 0.50057 0.39638
 Cl232 Cl 0.99997 0.50047 0.49936
 C233 C 0.90770 0.58001 0.37384
 C234 C 0.91595 0.41164 0.38058
 N235 N 0.57259 0.04053 0.56131
 N236 N 0.60313 0.06446 0.57318
 N237 N 0.54410 -0.04215 0.60303
 N238 N 0.55045 -0.07098 0.64027
 N239 N 0.57224 -0.04249 0.56266
 N240 N 0.59835 -0.07181 0.57124
 N241 N 0.54520 0.04068 0.60260
 N242 N 0.55671 0.06477 0.64412
 C243 C 0.59252 0.07976 0.62421
 C244 C 0.58430 -0.08933 0.61977
 N245 N 0.42780 -0.04102 0.56239
 N246 N 0.39741 -0.06501 0.57483
 N247 N 0.45638 0.04182 0.60269
 N248 N 0.45009 0.07062 0.63973
 N249 N 0.42800 0.04199 0.56261
 N250 N 0.40178 0.07118 0.57118
 N251 N 0.45537 -0.04094 0.60351
 N252 N 0.44413 -0.06492 0.64547
 Mn253 Mn 0.50026 -0.00014 0.60358
 C254 C 0.40831 -0.08008 0.62602
 C255 C 0.41604 0.08880 0.61939
 N256 N 0.57198 -0.04150 0.43948
 N257 N 0.60240 -0.06544 0.42730
 N258 N 0.54378 0.04133 0.39807
 N259 N 0.55012 0.07015 0.36085
 N260 N 0.57214 0.04147 0.43818
 N261 N 0.59840 0.07066 0.42947
 N262 N 0.54448 -0.04142 0.39826
 N263 N 0.55584 -0.06536 0.35650
 Mn264 Mn 0.57253 -0.00050 0.50040
 C265 C 0.59163 -0.08052 0.37618
 C266 C 0.58419 0.08828 0.38113
 N267 N 0.42756 0.04067 0.43937
 N268 N 0.39711 0.06463 0.42715
 N269 N 0.45567 -0.04223 0.39883
 N270 N 0.44914 -0.07101 0.36183
 N271 N 0.42750 -0.04238 0.43915
 N272 N 0.40116 -0.07155 0.43076
 N273 N 0.45492 0.04057 0.39802
 N274 N 0.44343 0.06452 0.35610
 Mn275 Mn 0.42741 -0.00019 0.50089
 Mn276 Mn 0.49972 -0.00043 0.39768
 Cl277 Cl 0.49997 -0.00031 0.50063
 C278 C 0.40769 0.07969 0.37582
 C279 C 0.41515 -0.08917 0.38242
 N280 N 0.57170 0.54139 0.05971
 N281 N 0.60232 0.56512 0.07208
 N282 N 0.54365 0.45848 0.10114
 N283 N 0.55008 0.42963 0.13828
 N284 N 0.57189 0.45841 0.06091
 N285 N 0.59816 0.42925 0.06945
 N286 N 0.54431 0.54122 0.10103
 N287 N 0.55596 0.56485 0.14305
 C288 C 0.59180 0.57995 0.12342
 C289 C 0.58408 0.41157 0.11782
 N290 N 0.42734 0.45884 0.06035
 N291 N 0.39681 0.43502 0.07293
 N292 N 0.45548 0.54184 0.10079
 N293 N 0.44901 0.57063 0.13778
 N294 N 0.42719 0.54189 0.06058
 N295 N 0.40084 0.57100 0.06903
 N296 N 0.45480 0.45905 0.10160
 N297 N 0.44330 0.43535 0.14381
 Mn298 Mn 0.49956 0.50015 0.10174
 C299 C 0.40745 0.42017 0.12438
 C300 C 0.41493 0.58868 0.11729
 N301 N 0.57203 0.45943 -0.06224
 N302 N 0.60272 0.43581 -0.07443
 N303 N 0.54337 0.54209 -0.10377
 N304 N 0.54971 0.57093 -0.14103
 N305 N 0.57160 0.54244 -0.06348
 N306 N 0.59774 0.57176 -0.07212
 N307 N 0.54458 0.45927 -0.10349
 N308 N 0.55622 0.43549 -0.14529
 Mn309 Mn 0.57208 0.50042 -0.00127
 C310 C 0.59216 0.42068 -0.12560
 C311 C 0.58364 0.58929 -0.12060
 N312 N 0.42714 0.54056 -0.06262
 N313 N 0.39661 0.56436 -0.07491
 N314 N 0.45570 0.45781 -0.10316
 N315 N 0.44933 0.42894 -0.14010
 N316 N 0.42747 0.45755 -0.06290
 N317 N 0.40129 0.42825 -0.07126
 N318 N 0.45454 0.54057 -0.10393
 N319 N 0.44299 0.56440 -0.14591
 Mn320 Mn 0.42699 0.49971 -0.00116
 Mn321 Mn 0.49954 0.49993 -0.10421
 Cl322 Cl 0.49954 0.50005 -0.00123
 C323 C 0.40718 0.57938 -0.12625
 C324 C 0.41538 0.41064 -0.11953
 C325 C 1.16472 0.08764 0.17472
 C326 C 1.18470 0.12515 0.14970
 C327 C 1.18086 0.14487 0.20863
 C328 C 1.16105 0.10752 0.23406
 C329 C 1.13829 0.16146 0.19263
 C330 C 1.14202 0.14148 0.13334
 C331 C 1.12228 0.10414 0.15851
 C332 C 1.11801 0.12363 0.21750
 H333 H 1.17522 0.05696 0.16706
 H334 H 1.21243 0.12590 0.12203
 H335 H 1.16936 0.09379 0.27575
 H336 H 1.12698 0.19187 0.20015
 H337 H 1.13380 0.15523 0.09163
 H338 H 1.09014 0.12271 0.24485
 C339 C 1.16329 0.58748 0.67357
 C340 C 1.18317 0.62520 0.64910
 C341 C 1.17961 0.64433 0.70845
 C342 C 1.15991 0.60678 0.73334
 C343 C 1.13699 0.66113 0.69319
 C344 C 1.14046 0.64173 0.63347
 C345 C 1.12082 0.60419 0.65809
 C346 C 1.11681 0.62309 0.71750
 H347 H 1.17370 0.55686 0.66518
 H348 H 1.21079 0.62618 0.62122
 H349 H 1.16842 0.59267 0.77467
 H350 H 1.12574 0.69146 0.70144
 H351 H 1.13203 0.65587 0.59211
 H352 H 1.08904 0.62192 0.74503
 C353 C 0.66395 0.08793 0.67364
 C354 C 0.68390 0.12531 0.64818
 C355 C 0.68009 0.14532 0.70689
 C356 C 0.66032 0.10811 0.73277
 C357 C 0.63751 0.16183 0.69079
 C358 C 0.64121 0.14155 0.63171
 C359 C 0.62151 0.10434 0.65733
 C360 C 0.61727 0.12413 0.71611
 H361 H 0.67444 0.05721 0.66628
 H362 H 0.71161 0.12593 0.62046
 H363 H 0.66868 0.09460 0.77459
 H364 H 0.62621 0.19228 0.69800
 H365 H 0.63293 0.15508 0.58986
 H366 H 0.58941 0.12333 0.74349
 C367 C 0.66350 0.58731 0.17244
 C368 C 0.68335 0.62505 0.14794
 C369 C 0.67987 0.64419 0.20730
 C370 C 0.66021 0.60662 0.23223
 C371 C 0.63721 0.66095 0.19215
 C372 C 0.64059 0.64154 0.13241
 C373 C 0.62098 0.60399 0.15707
 C374 C 0.61708 0.62290 0.21650
 H375 H 0.67393 0.55670 0.16403
 H376 H 0.71092 0.62604 0.11997
 H377 H 0.66877 0.59249 0.27353
 H378 H 0.62593 0.69127 0.20041
 H379 H 0.63211 0.65570 0.09109
 H380 H 0.58936 0.62173 0.24414
 C381 C 0.83698 -0.08772 0.17449
 C382 C 0.81730 -0.12541 0.14989
 C383 C 0.82093 -0.14486 0.20919
 C384 C 0.84043 -0.10734 0.23422
 C385 C 0.86365 -0.16134 0.19396
 C386 C 0.86012 -0.14163 0.13429
 C387 C 0.87956 -0.10411 0.15904
 C388 C 0.88363 -0.12333 0.21842
 H389 H 0.82640 -0.05711 0.16617
 H390 H 0.78971 -0.12638 0.12193
 H391 H 0.83184 -0.09348 0.27557
 H392 H 0.87506 -0.19167 0.20216
 H393 H 0.86863 -0.15551 0.09291
 H394 H 0.91137 -0.12218 0.24604
 C395 C 0.83543 0.41241 0.67212
 C396 C 0.81627 0.37435 0.64784
 C397 C 0.81969 0.35541 0.70751
 C398 C 0.83864 0.39329 0.73224
 C399 C 0.86270 0.33916 0.69319
 C400 C 0.85939 0.35840 0.63313
 C401 C 0.87828 0.39628 0.65754
 C402 C 0.88210 0.37756 0.71728
 H403 H 0.82462 0.44286 0.66316
 H404 H 0.78893 0.37295 0.61943
 H405 H 0.82971 0.40745 0.77324
 H406 H 0.87460 0.30909 0.70200
 H407 H 0.86835 0.34429 0.59211
 H408 H 0.90963 0.37918 0.74526
 C409 C 0.33700 -0.08812 0.67546
 C410 C 0.31728 -0.12578 0.65089
 C411 C 0.32111 -0.14526 0.71014
 C412 C 0.34066 -0.10777 0.73513
 C413 C 0.36378 -0.16174 0.69465
 C414 C 0.36005 -0.14199 0.63503
 C415 C 0.37953 -0.10450 0.65974
 C416 C 0.38380 -0.12375 0.71905
 H417 H 0.32640 -0.05750 0.66723
 H418 H 0.28961 -0.12675 0.62311
 H419 H 0.33217 -0.09396 0.77655
 H420 H 0.37519 -0.19208 0.70276
 H421 H 0.36846 -0.15583 0.59357
 H422 H 0.41164 -0.12259 0.74648
 C423 C 0.33569 0.41187 0.17310
 C424 C 0.31647 0.37375 0.14908
 C425 C 0.32018 0.35487 0.20877
 C426 C 0.33919 0.39282 0.23323
 C427 C 0.36315 0.33867 0.19411
 C428 C 0.35956 0.35785 0.13403
 C429 C 0.37851 0.39579 0.15817
 C430 C 0.38261 0.37713 0.21792
 H431 H 0.32479 0.44229 0.16416
 H432 H 0.28902 0.37229 0.12091
 H433 H 0.33044 0.40702 0.27427
 H434 H 0.37513 0.30862 0.20287
 H435 H 0.36834 0.34369 0.09296
 H436 H 0.41026 0.37881 0.24567
 C437 C 0.83738 0.08816 -0.17411
 C438 C 0.81748 0.12561 -0.14926
 C439 C 0.82136 0.14543 -0.20827
 C440 C 0.84109 0.10815 -0.23355
 C441 C 0.86395 0.16201 -0.19236
 C442 C 0.86018 0.14192 -0.13297
 C443 C 0.87984 0.10463 -0.15799
 C444 C 0.88415 0.12423 -0.21707
 H445 H 0.82684 0.05745 -0.16630
 H446 H 0.78975 0.12630 -0.12159
 H447 H 0.83274 0.09450 -0.27517
 H448 H 0.87530 0.19244 -0.20003
 H449 H 0.86844 0.15558 -0.09132
 H450 H 0.91204 0.12336 -0.24439
 C451 C 0.83562 0.58802 0.32616
 C452 C 0.81665 0.62616 0.35032
 C453 C 0.81975 0.64488 0.29047
 C454 C 0.83851 0.60691 0.26585
 C455 C 0.86287 0.66120 0.30423
 C456 C 0.85988 0.64219 0.36447
 C457 C 0.87858 0.60423 0.34020
 C458 C 0.88209 0.62272 0.28027
 H459 H 0.82481 0.55760 0.33547
 H460 H 0.78948 0.62765 0.37899
 H461 H 0.82934 0.59259 0.22506
 H462 H 0.87473 0.69125 0.29503
 H463 H 0.86908 0.65648 0.40529
 H464 H 0.90946 0.62100 0.25205
 C465 C 0.33596 0.08834 0.32723
 C466 C 0.31674 0.12616 0.35209
 C467 C 0.32036 0.14566 0.29282
 C468 C 0.33938 0.10803 0.26751
 C469 C 0.36333 0.16182 0.30779
 C470 C 0.35983 0.14201 0.36745
 C471 C 0.37878 0.10437 0.34246
 C472 C 0.38281 0.12366 0.28312
 H473 H 0.32509 0.05781 0.33549
 H474 H 0.28932 0.12726 0.38034
 H475 H 0.33059 0.09423 0.22617
 H476 H 0.37525 0.19200 0.29969
 H477 H 0.36865 0.15576 0.40881
 H478 H 0.41042 0.12233 0.25531
 C479 C 0.38174 0.62237 -0.21950
 C480 C 0.33812 0.60670 -0.23394
 C481 C 0.31950 0.64465 -0.20908
 C482 C 0.36265 0.66084 -0.19531
 C483 C 0.31636 0.62581 -0.14933
 C484 C 0.33519 0.58768 -0.17373
 C485 C 0.37819 0.60376 -0.15967
 C486 C 0.35963 0.64170 -0.13516
 H487 H 0.40910 0.62063 -0.24774
 H488 H 0.32886 0.59252 -0.27480
 H489 H 0.37459 0.69088 -0.20438
 H490 H 0.28921 0.62730 -0.12064
 H491 H 0.32432 0.55727 -0.16456
 H492 H 0.36892 0.65585 -0.09428
 C493 C 1.11692 -0.12433 -0.21577
 C494 C 1.16004 -0.10828 -0.23213
 C495 C 1.17967 -0.14552 -0.20627
 C496 C 1.13704 -0.16209 -0.19048
 C497 C 1.18340 -0.12563 -0.14746
 C498 C 1.16359 -0.08822 -0.17291
 C499 C 1.12110 -0.10468 -0.15689
 C500 C 1.14066 -0.14192 -0.13130
 H501 H 1.08911 -0.12348 -0.24327
 H502 H 1.16852 -0.09470 -0.27385
 H503 H 1.12573 -0.19253 -0.19788
 H504 H 1.21106 -0.12630 -0.11961
 H505 H 1.17411 -0.05751 -0.16538
 H506 H 1.13226 -0.15552 -0.08955
 C507 C 1.11777 0.37685 0.28301
 C508 C 1.16089 0.39301 0.26683
 C509 C 1.18059 0.35578 0.29269
 C510 C 1.13795 0.33913 0.30831
 C511 C 1.18413 0.37566 0.35154
 C512 C 1.16424 0.41306 0.32610
 C513 C 1.12173 0.39651 0.34193
 C514 C 1.14138 0.35928 0.36753
 H515 H 1.09003 0.37763 0.25535
 H516 H 1.16939 0.40665 0.22516
 H517 H 1.12671 0.30867 0.30085
 H518 H 1.21171 0.37506 0.37953
 H519 H 1.17469 0.44379 0.33369
 H520 H 1.13296 0.34561 0.40922
 C521 C 0.61652 -0.12444 0.28378
 C522 C 0.65959 -0.10821 0.26750
 C523 C 0.67937 -0.14545 0.29316
 C524 C 0.63679 -0.16218 0.30887
 C525 C 0.68300 -0.12568 0.35207
 C526 C 0.66305 -0.08827 0.32683
 C527 C 0.62059 -0.10489 0.34277
 C528 C 0.64031 -0.14214 0.36815
 H529 H 0.58872 -0.12363 0.25625
 H530 H 0.66801 -0.09448 0.22586
 H531 H 0.62557 -0.19264 0.30133
 H532 H 0.71065 -0.12631 0.37995
 H533 H 0.67347 -0.05754 0.33451
 H534 H 0.63198 -0.15589 0.40982
 C535 C 0.61722 0.37713 -0.21811
 C536 C 0.66028 0.39341 -0.23429
 C537 C 0.68006 0.35608 -0.20886
 C538 C 0.63748 0.33932 -0.19325
 C539 C 0.68370 0.37568 -0.14983
 C540 C 0.66374 0.41317 -0.17483
 C541 C 0.62129 0.39649 -0.15900
 C542 C 0.64101 0.35918 -0.13384
 H543 H 0.58942 0.37801 -0.24563
 H544 H 0.66870 0.40725 -0.27585
 H545 H 0.62622 0.30889 -0.20098
 H546 H 0.71135 0.37497 -0.12197
 H547 H 0.67415 0.44388 -0.16695
 H548 H 0.63267 0.34531 -0.09225
 C549 C 1.09400 0.14054 -0.20651
 C550 C 1.09489 0.18298 -0.18202
 C551 C 1.14103 0.18571 -0.19657
 C552 C 1.14033 0.14364 -0.22129
 C553 C 1.15225 0.16935 -0.13678
 C554 C 1.10598 0.16620 -0.12202
 C555 C 1.10531 0.12423 -0.14686
 C556 C 1.15134 0.12694 -0.16132
 H557 H 1.06990 0.12845 -0.23520
 H558 H 1.07101 0.20569 -0.18988
 H559 H 1.15452 0.13444 -0.26241
 H560 H 1.17631 0.18135 -0.10792
 H561 H 1.09178 0.17526 -0.08086
 H562 H 1.17450 0.10369 -0.15259
 C563 C 1.15030 0.62748 0.33759
 C564 C 1.13915 0.64391 0.27753
 C565 C 1.13975 0.68607 0.30190
 C566 C 1.15112 0.66999 0.36179
 C567 C 1.09365 0.68328 0.31661
 C568 C 1.09286 0.64074 0.29248
 C569 C 1.10432 0.62470 0.35222
 C570 C 1.10489 0.66677 0.37671
 H571 H 1.17355 0.60432 0.34646
 H572 H 1.15328 0.63459 0.23644
 H573 H 1.17519 0.68218 0.39046
 H574 H 1.06968 0.70589 0.30862
 H575 H 1.06875 0.62848 0.26396
 H576 H 1.09072 0.67593 0.41785
 C577 C 0.65030 0.12551 0.33798
 C578 C 0.63922 0.14203 0.27798
 C579 C 0.64014 0.18417 0.30240
 C580 C 0.65142 0.16797 0.36222
 C581 C 0.59405 0.18166 0.31713
 C582 C 0.59293 0.13917 0.29292
 C583 C 0.60432 0.12305 0.35262
 C584 C 0.60519 0.16507 0.37719
 H585 H 0.67337 0.10218 0.34680
 H586 H 0.65332 0.13273 0.23686
 H587 H 0.67562 0.18004 0.39077
 H588 H 0.57046 0.20460 0.30895
 H589 H 0.56871 0.12707 0.26443
 H590 H 0.59109 0.17430 0.41835
 C591 C 0.60445 0.66621 -0.12406
 C592 C 0.65073 0.66933 -0.13878
 C593 C 0.63954 0.68576 -0.19854
 C594 C 0.59339 0.68306 -0.18401
 C595 C 0.63879 0.64372 -0.22336
 C596 C 0.64976 0.62695 -0.16342
 C597 C 0.60373 0.62426 -0.14898
 C598 C 0.59245 0.64064 -0.20859
 H599 H 0.59024 0.67525 -0.08288
 H600 H 0.67479 0.68127 -0.10989
 H601 H 0.56950 0.70578 -0.19180
 H602 H 0.65297 0.63454 -0.26448
 H603 H 0.67290 0.60366 -0.15473
 H604 H 0.56833 0.62861 -0.23732
 C605 C 0.84953 -0.12548 -0.16146
 C606 C 0.86033 -0.14194 -0.22145
 C607 C 0.85926 -0.18415 -0.19689
 C608 C 0.84826 -0.16801 -0.13707
 C609 C 0.90542 -0.18184 -0.18235
 C610 C 0.90669 -0.13928 -0.20671
 C611 C 0.89558 -0.12322 -0.14701
 C612 C 0.89455 -0.16533 -0.12230
 H613 H 0.82657 -0.10208 -0.15265
 H614 H 0.84617 -0.13244 -0.26253
 H615 H 0.82408 -0.18001 -0.10834
 H616 H 0.92890 -0.20484 -0.19052
 H617 H 0.93087 -0.12725 -0.23539
 H618 H 0.90872 -0.17475 -0.08119
 C619 C 0.84993 0.37433 0.33758
 C620 C 0.86106 0.35788 0.27772
 C621 C 0.86022 0.31572 0.30242
 C622 C 0.84888 0.33184 0.36211
 C623 C 0.90629 0.31830 0.31722
 C624 C 0.90734 0.36081 0.29273
 C625 C 0.89590 0.37686 0.35231
 C626 C 0.89510 0.33481 0.37715
 H627 H 0.82681 0.39761 0.34621
 H628 H 0.84696 0.36720 0.23651
 H629 H 0.82469 0.31970 0.39068
 H630 H 0.92993 0.29541 0.30923
 H631 H 0.93154 0.37299 0.26421
 H632 H 0.90920 0.32557 0.41840
 C633 C 0.34887 -0.12634 0.33937
 C634 C 0.35990 -0.14249 0.27929
 C635 C 0.35906 -0.18480 0.30348
 C636 C 0.34783 -0.16897 0.36340
 C637 C 0.40516 -0.18230 0.31821
 C638 C 0.40619 -0.13965 0.29421
 C639 C 0.39487 -0.12388 0.35401
 C640 C 0.39408 -0.16609 0.37836
 H641 H 0.32576 -0.10311 0.34831
 H642 H 0.34576 -0.13292 0.23822
 H643 H 0.32368 -0.18124 0.39192
 H644 H 0.42877 -0.20516 0.30987
 H645 H 0.43035 -0.12736 0.26572
 H646 H 0.40822 -0.17558 0.41946
 C647 C 0.34921 0.37301 -0.16204
 C648 C 0.36013 0.35644 -0.22196
 C649 C 0.35947 0.31432 -0.19707
 C650 C 0.34834 0.33054 -0.13732
 C651 C 0.40563 0.31702 -0.18261
 C652 C 0.40648 0.35953 -0.20727
 C653 C 0.39526 0.37570 -0.14767
 C654 C 0.39463 0.33367 -0.12266
 H655 H 0.32606 0.39624 -0.15335
 H656 H 0.34587 0.36573 -0.26309
 H657 H 0.32433 0.31847 -0.10837
 H658 H 0.42951 0.29434 -0.19043
 H659 H 0.43053 0.37168 -0.23606
 H660 H 0.40891 0.32452 -0.08149
 C661 C 1.15076 -0.12717 0.16208
 C662 C 1.13959 -0.14372 0.22207
 C663 C 1.14000 -0.18583 0.19748
 C664 C 1.15139 -0.16962 0.13767
 C665 C 1.09390 -0.18291 0.18280
 C666 C 1.09330 -0.14043 0.20715
 C667 C 1.10478 -0.12426 0.14749
 C668 C 1.10515 -0.16627 0.12278
 H669 H 1.17409 -0.10404 0.15333
 H670 H 1.15381 -0.13453 0.26320
 H671 H 1.17538 -0.18178 0.10891
 H672 H 1.06985 -0.20549 0.19069
 H673 H 1.06927 -0.12818 0.23575
 H674 H 1.09091 -0.17531 0.08160
 C675 C 1.09284 0.36060 0.70713
 C676 C 1.09399 0.31808 0.68303
 C677 C 1.14006 0.31561 0.69800
 C678 C 1.13911 0.35780 0.72230
 C679 C 1.15143 0.33180 0.63818
 C680 C 1.10522 0.33464 0.62298
 C681 C 1.10431 0.37671 0.64743
 C682 C 1.15028 0.37430 0.66231
 H683 H 1.06859 0.37268 0.73552
 H684 H 1.07036 0.29513 0.69115
 H685 H 1.15313 0.36719 0.76345
 H686 H 1.17567 0.31975 0.60975
 H687 H 1.09120 0.32532 0.58179
 H688 H 1.17340 0.39763 0.65356
 C689 C 0.60493 -0.16629 0.62339
 C690 C 0.65116 -0.16944 0.63837
 C691 C 0.63979 -0.18576 0.69813
 C692 C 0.59368 -0.18303 0.68335
 C693 C 0.63914 -0.14368 0.72280
 C694 C 0.65029 -0.12702 0.66287
 C695 C 0.60431 -0.12430 0.64818
 C696 C 0.59285 -0.14057 0.70778
 H697 H 0.59077 -0.17536 0.58217
 H698 H 0.67524 -0.18147 0.60965
 H699 H 0.56971 -0.20570 0.69110
 H700 H 0.65327 -0.13446 0.76398
 H701 H 0.67352 -0.10377 0.65421
 H702 H 0.56872 -0.12846 0.73635
 C703 C 0.60505 0.33479 0.12145
 C704 C 0.65131 0.33192 0.13630
 C705 C 0.64013 0.31562 0.19610
 C706 C 0.59402 0.31810 0.18149
 C707 C 0.63929 0.35772 0.22065
 C708 C 0.65027 0.37435 0.16069
 C709 C 0.60425 0.37678 0.14616
 C710 C 0.59297 0.36056 0.20583
 H711 H 0.59087 0.32561 0.08030
 H712 H 0.67545 0.31992 0.10766
 H713 H 0.57043 0.29513 0.18965
 H714 H 0.65347 0.36698 0.26177
 H715 H 0.67333 0.39772 0.15188
 H716 H 0.56882 0.37258 0.23442
 C717 C 0.89562 0.16550 0.12229
 C718 C 0.84935 0.16828 0.13702
 C719 C 0.86048 0.18444 0.19679
 C720 C 0.90660 0.18204 0.18230
 C721 C 0.86135 0.14228 0.22149
 C722 C 0.85043 0.12580 0.16154
 C723 C 0.89645 0.12344 0.14713
 C724 C 0.90768 0.13952 0.20678
 H725 H 0.90982 0.17480 0.08115
 H726 H 0.82522 0.18034 0.10829
 H727 H 0.93017 0.20502 0.19045
 H728 H 0.84716 0.13290 0.26259
 H729 H 0.82739 0.10243 0.15276
 H730 H 0.93183 0.12744 0.23546
 C731 C 0.90626 0.63966 0.70623
 C732 C 0.90509 0.68225 0.68203
 C733 C 0.85899 0.68460 0.69673
 C734 C 0.85996 0.64235 0.72114
 C735 C 0.84777 0.66858 0.63690
 C736 C 0.89402 0.66586 0.62196
 C737 C 0.89495 0.62371 0.64651
 C738 C 0.84895 0.62601 0.66113
 H739 H 0.93047 0.62754 0.73479
 H740 H 0.92867 0.70521 0.69021
 H741 H 0.84586 0.63281 0.76224
 H742 H 0.82357 0.68068 0.60830
 H743 H 0.90812 0.67532 0.58082
 H744 H 0.82589 0.60266 0.65231
 C745 C 0.34998 0.12598 0.66277
 C746 C 0.36123 0.14238 0.72266
 C747 C 0.36027 0.18460 0.69814
 C748 C 0.34882 0.16852 0.63842
 C749 C 0.40632 0.18215 0.68314
 C750 C 0.40748 0.13958 0.70745
 C751 C 0.39593 0.12357 0.64785
 C752 C 0.39501 0.16569 0.62319
 H753 H 0.32684 0.10267 0.65417
 H754 H 0.34726 0.13293 0.76388
 H755 H 0.32455 0.18062 0.60995
 H756 H 0.42997 0.20507 0.69111
 H757 H 0.43176 0.12745 0.73588
 H758 H 0.40899 0.17506 0.58193
 C759 C 0.39391 0.66556 0.12121
 C760 C 0.34766 0.66840 0.13613
 C761 C 0.35891 0.68433 0.19601
 C762 C 0.40501 0.68187 0.18133
 C763 C 0.35974 0.64205 0.22033
 C764 C 0.34869 0.62580 0.16028
 C765 C 0.39469 0.62339 0.14568
 C766 C 0.40603 0.63925 0.20544
 H767 H 0.40804 0.67502 0.08010
 H768 H 0.32351 0.68060 0.10755
 H769 H 0.42864 0.70476 0.18961
 H770 H 0.34561 0.63252 0.26140
 H771 H 0.32556 0.60254 0.15139
 H772 H 0.43020 0.62703 0.23399
   
