data_POSCAR
  _audit_creation_date              2014-09-24
  _audit_creation_method            'ToBaCCo'
  _symmetry_space_group_name_H-M    'P1'
  _symmetry_Int_Tables_number       1
  _symmetry_cell_setting            triclinic
  loop_
  _symmetry_equiv_pos_as_xyz
 x,y,z
_cell_length_a 22.7536
_cell_length_b 21.7151
_cell_length_c 24.0951
_cell_angle_alpha 90.787000
_cell_angle_beta 88.649800
_cell_angle_gamma 91.912600
loop_
  _atom_site_label
  _atom_site_type_symbol
  _atom_site_fract_x
  _atom_site_fract_y
  _atom_site_fract_z
C1 C 0.32422 0.40617 1.40552
 C2 C 0.34112 0.35573 1.43691
 C3 C 0.38242 0.31393 1.41552
 C4 C 0.40423 0.32171 1.36084
 C5 C 0.38911 0.37255 1.32957
 C6 C 0.35083 0.41551 1.35270
 H7 H 0.32145 0.34881 1.47776
 H8 H 0.43512 0.28976 1.34294
 H9 H 0.33765 0.45264 1.32676
 C10 C 1.16809 0.56745 0.89742
 C11 C 1.14793 0.56200 0.84257
 C12 C 1.11393 0.60820 0.82041
 C13 C 1.09628 0.65757 0.85468
 C14 C 1.11353 0.66242 0.91019
 C15 C 1.14921 0.61691 0.93089
 H16 H 1.16327 0.52566 0.81524
 H17 H 1.07043 0.69316 0.83729
 H18 H 1.16219 0.61933 0.97368
 C19 C 0.67382 -0.05698 0.08563
 C20 C 0.64669 -0.11038 0.06333
 C21 C 0.60235 -0.14359 0.09378
 C22 C 0.58998 -0.12589 0.14938
 C23 C 0.61749 -0.07260 0.17197
 C24 C 0.65666 -0.03727 0.13894
 H25 H 0.65974 -0.12543 0.02193
 H26 H 0.55836 -0.15224 0.17452
 H27 H 0.67750 0.00360 0.15700
 C28 C -0.16845 1.05598 -0.39424
 C29 C -0.16232 1.11820 -0.40790
 C30 C -0.11494 1.15566 -0.38866
 C31 C -0.07261 1.12892 -0.35560
 C32 C -0.07919 1.06651 -0.34057
 C33 C -0.12648 1.03040 -0.36090
 H34 H -0.19398 1.13666 -0.43543
 H35 H -0.03687 1.15706 -0.33880
 H36 H -0.13280 0.98317 -0.34766
 C37 C 0.67205 0.61353 0.63632
 C38 C 0.64117 0.62820 0.58893
 C39 C 0.58062 0.63724 0.59231
 C40 C 0.55041 0.62757 0.64289
 C41 C 0.58054 0.61254 0.69090
 C42 C 0.64183 0.60612 0.68730
 H43 H 0.66535 0.63737 0.55051
 H44 H 0.50344 0.63352 0.64450
 H45 H 0.66624 0.59592 0.72389
 C46 C 0.81812 0.43162 0.13103
 C47 C 0.84478 0.39231 0.09201
 C48 C 0.88375 0.34689 0.10861
 C49 C 0.89568 0.34230 0.16573
 C50 C 0.86931 0.38195 0.20462
 C51 C 0.83094 0.42616 0.18712
 H52 H 0.83288 0.39631 0.04913
 H53 H 0.92511 0.30828 0.18042
 H54 H 0.80945 0.45490 0.21803
 C55 C 0.35058 0.13077 0.88141
 C56 C 0.39362 0.17622 0.89388
 C57 C 0.45115 0.17374 0.87175
 C58 C 0.46513 0.12622 0.83429
 C59 C 0.42286 0.07974 0.82168
 C60 C 0.36646 0.08121 0.84668
 H61 H 0.38251 0.21394 0.92135
 H62 H 0.50875 0.12502 0.81539
 H63 H 0.33367 0.04644 0.83514
 C64 C 0.15526 0.89525 0.38589
 C65 C 0.11134 0.84904 0.39355
 C66 C 0.06996 0.83495 0.35270
 C67 C 0.07039 0.87041 0.30433
 C68 C 0.11297 0.91821 0.29616
 C69 C 0.15541 0.92984 0.33694
 H70 H 0.11273 0.81943 0.42898
 H71 H 0.03908 0.85927 0.27228
 H72 H 0.18802 0.96664 0.33089
 Zn73 Zn 0.08579 0.99487 -0.00343
 Zn74 Zn -0.02918 0.96126 -0.05160
 Zn75 Zn -0.01776 1.04457 0.04657
 Zn76 Zn 0.02339 1.08717 -0.05849
 O77 O 0.01462 1.02023 -0.01743
 O78 O 0.08855 0.91339 -0.01037
 O79 O -0.10569 0.96210 -0.02640
 O80 O 0.01602 1.00946 0.10503
 O81 O 0.00095 0.88565 -0.04347
 O82 O 0.10544 1.01287 0.06689
 O83 O -0.09398 1.02515 0.04654
 O84 O -0.02420 1.14584 -0.03474
 O85 O -0.02809 0.97490 -0.12503
 O86 O -0.01430 1.12803 0.05455
 O87 O 0.00911 1.07080 -0.13004
 O88 O 0.09721 1.11825 -0.05472
 O89 O 0.14109 1.02942 -0.04855
 C90 C 0.05148 0.87222 -0.02630
 C91 C -0.12676 0.99356 0.01412
 C92 C 0.07149 1.00611 0.10917
 C93 C -0.02858 1.16335 0.01562
 C94 C -0.01080 1.02166 -0.15307
 C95 C 0.14314 1.08670 -0.05861
 Zn96 Zn 0.45482 -0.00524 0.43861
 Zn97 Zn 0.52127 0.03051 0.54099
 Zn98 Zn 0.44558 -0.08392 0.54006
 Zn99 Zn 0.55176 -0.07392 0.47638
 O100 O 0.49106 -0.03182 0.49943
 O101 O 0.44769 0.07745 0.44206
 O102 O 0.49872 0.02344 0.61257
 O103 O 0.37246 -0.08693 0.51546
 O104 O 0.49469 0.10289 0.51956
 O105 O 0.38025 -0.03593 0.43594
 O106 O 0.44219 -0.06177 0.61164
 O107 O 0.53443 -0.15384 0.46689
 O108 O 0.60121 0.03251 0.53987
 O109 O 0.47055 -0.16154 0.53711
 O110 O 0.61039 -0.06717 0.52394
 O111 O 0.57929 -0.04615 0.41235
 O112 O 0.49481 -0.02457 0.37423
 C113 C 0.46354 0.11701 0.47877
 C114 C 0.46587 -0.01638 0.63738
 C115 C 0.35005 -0.06692 0.47166
 C116 C 0.50574 -0.18606 0.50228
 C117 C 0.63175 -0.01561 0.54040
 C118 C 0.54942 -0.03573 0.37000
 Zn119 Zn 1.01917 0.50848 0.43791
 Zn120 Zn 1.03631 0.46141 0.55112
 Zn121 Zn 0.99277 0.58479 0.53380
 Zn122 Zn 0.91892 0.48003 0.50132
 O123 O 0.99199 0.50796 0.50710
 O124 O 1.09572 0.49920 0.43768
 O125 O 1.04890 0.50299 0.61676
 O126 O 0.99954 0.64116 0.47958
 O127 O 1.10951 0.45222 0.51791
 O128 O 1.00635 0.58027 0.40516
 O129 O 1.05119 0.59668 0.58117
 O130 O 0.86723 0.52712 0.53621
 O131 O 0.99859 0.38649 0.56749
 O132 O 0.92608 0.59966 0.57258
 O133 O 0.91196 0.40887 0.53358
 O134 O 0.89706 0.46530 0.43128
 O135 O 0.98552 0.44891 0.39580
 C136 C 1.12918 0.47467 0.47193
 C137 C 1.06073 0.56077 0.62099
 C138 C 1.00233 0.63353 0.42710
 C139 C 0.87561 0.57354 0.56790
 C140 C 0.94439 0.37270 0.55875
 C141 C 0.92997 0.44223 0.39365
 Zn142 Zn 0.45158 0.56159 0.98276
 Zn143 Zn 0.44671 0.43925 1.02001
 Zn144 Zn 0.55796 0.49172 0.97081
 Zn145 Zn 0.51404 0.53706 1.08260
 O146 O 0.49383 0.50624 1.01527
 O147 O 0.37367 0.55013 0.99200
 O148 O 0.47688 0.37535 0.98467
 O149 O 0.56110 0.54200 0.91127
 O150 O 0.37599 0.44868 0.98913
 O151 O 0.46569 0.55923 0.91031
 O152 O 0.55689 0.41438 0.94236
 O153 O 0.59047 0.52670 1.09258
 O154 O 0.43513 0.41805 1.09030
 O155 O 0.62506 0.49913 1.00899
 O156 O 0.47532 0.49593 1.13912
 O157 O 0.50920 0.62083 1.08738
 O158 O 0.47311 0.63697 1.00434
 C159 C 0.34877 0.49802 0.98237
 C160 C 0.52099 0.36963 0.95210
 C161 C 0.51601 0.56013 0.88656
 C162 C 0.63267 0.51214 1.06005
 C163 C 0.44762 0.44379 1.13641
 C164 C 0.49749 0.65693 1.04813
 N165 N 1.21620 0.52032 0.42405
 N166 N 1.27036 0.50098 0.40396
 C167 C 1.27888 0.44452 0.42436
 C168 C 1.23099 0.42771 0.45931
 C169 C 1.19215 0.47568 0.45636
 H170 H 1.22181 0.38325 0.47794
 H171 H 1.19609 0.56019 0.41144
 H172 H 1.29768 0.52654 0.37684
 N173 N 0.27131 0.45062 0.92309
 N174 N 0.22208 0.47157 0.89641
 C175 C 0.21040 0.52786 0.91750
 C176 C 0.25175 0.54357 0.95759
 C177 C 0.28957 0.49501 0.95893
 H178 H 0.25803 0.58770 0.97842
 H179 H 0.29363 0.41098 0.91165
 H180 H 0.20004 0.44740 0.86498
 N181 N -0.21318 1.05031 0.04446
 N182 N -0.26926 1.03640 0.06557
 C183 C -0.28039 0.97560 0.05756
 C184 C -0.23228 0.94980 0.02962
 C185 C -0.19048 0.99793 0.02425
 H186 H -0.22495 0.90126 0.02275
 H187 H -0.19090 1.09277 0.04968
 H188 H -0.29562 1.06794 0.08668
 N189 N 0.72639 -0.06194 0.56375
 N190 N 0.77893 -0.04341 0.58070
 C191 C 0.77998 0.01841 0.58704
 C192 C 0.72532 0.04004 0.57365
 C193 C 0.69276 -0.01244 0.55921
 H194 H 0.71102 0.08708 0.57455
 H195 H 0.71408 -0.10781 0.55525
 H196 H 0.81347 -0.07287 0.58680
 N197 N 0.42614 0.21257 0.52190
 N198 N 0.40008 0.26592 0.50436
 C199 C 0.40203 0.26571 0.44829
 C200 C 0.42818 0.21179 0.42928
 C201 C 0.44218 0.18002 0.47646
 H202 H 0.43448 0.19623 0.38677
 H203 H 0.42915 0.19934 0.56322
 H204 H 0.38514 0.30052 0.53112
 N205 N 0.85489 0.30908 0.57356
 N206 N 0.83807 0.24910 0.58658
 C207 C 0.88675 0.21895 0.59910
 C208 C 0.93587 0.25991 0.59529
 C209 C 0.91372 0.31544 0.57759
 H210 H 0.98158 0.24953 0.60050
 H211 H 0.82587 0.34208 0.56081
 H212 H 0.79435 0.23293 0.58815
 N213 N 0.10972 0.78806 0.00932
 N214 N 0.12685 0.73334 -0.00750
 C215 C 0.09876 0.71709 -0.05457
 C216 C 0.06100 0.76396 -0.06732
 C217 C 0.06990 0.80810 -0.02596
 H218 H 0.03475 0.76821 -0.10383
 H219 H 0.12747 0.81259 0.04293
 H220 H 0.16007 0.71010 0.01167
 N221 N 0.52812 0.75261 1.00083
 N222 N 0.56141 0.80583 1.01251
 C223 C 0.57022 0.80813 1.06764
 C224 C 0.54298 0.75613 1.09217
 C225 C 0.51828 0.72201 1.04856
 H226 H 0.54498 0.74245 1.13509
 H227 H 0.51819 0.73705 0.96081
 H228 H 0.57481 0.83834 0.98288
 N229 N 0.42615 0.34665 1.18612
 N230 N 0.41260 0.32762 1.23667
 C231 C 0.40881 0.37701 1.27077
 C232 C 0.42121 0.43029 1.24038
 C233 C 0.43195 0.40860 1.18673
 H234 H 0.42128 0.47766 1.25491
 H235 H 0.43137 0.31734 1.15173
 H236 H 0.40431 0.28153 1.24698
 N237 N 0.63877 -0.02107 0.31192
 N238 N 0.65696 -0.03217 0.26064
 C239 C 0.61128 -0.05482 0.23117
 C240 C 0.56120 -0.05790 0.26545
 C241 C 0.58097 -0.03563 0.31635
 H242 H 0.51763 -0.07546 0.25538
 H243 H 0.66606 -0.00503 0.34364
 H244 H 0.70058 -0.02600 0.24681
 N245 N -0.01637 0.96679 -0.24387
 N246 N -0.03227 0.97926 -0.29472
 C247 C -0.04263 1.03996 -0.29773
 C248 C -0.03119 1.06755 -0.24669
 C249 C -0.01588 1.01926 -0.21357
 H250 H -0.04086 1.11402 -0.23339
 H251 H -0.00916 0.92253 -0.22958
 H252 H -0.03976 0.94583 -0.32555
 N253 N 1.09235 0.65021 0.67901
 N254 N 1.10447 0.66294 0.73123
 C255 C 1.10305 0.61017 0.76003
 C256 C 1.08977 0.56113 0.72399
 C257 C 1.08274 0.58896 0.67293
 H258 H 1.08349 0.51289 0.73399
 H259 H 1.08928 0.68347 0.64839
 H260 H 1.11362 0.70735 0.74662
 N261 N 0.82866 0.62710 0.64900
 N262 N 0.77456 0.63515 0.66846
 C263 C 0.73637 0.60953 0.63222
 C264 C 0.76722 0.58378 0.58822
 C265 C 0.82541 0.59587 0.60042
 H266 H 0.74972 0.55964 0.55230
 H267 H 0.86685 0.64192 0.66912
 H268 H 0.76420 0.65889 0.70520
 N269 N 0.70937 0.54663 1.12571
 N270 N 0.75886 0.52571 1.14440
 C271 C 0.77323 0.47518 1.11452
 C272 C 0.73161 0.46458 1.07390
 C273 C 0.69153 0.51043 1.08316
 H274 H 0.72713 0.42502 1.04633
 H275 H 0.68686 0.58333 1.14363
 H276 H 0.78066 0.54445 1.17867
 N277 N 0.21078 1.17795 -0.06490
 N278 N 0.26947 1.18992 -0.07987
 C279 C 0.29244 1.13646 -0.09816
 C280 C 0.24916 1.08969 -0.09454
 C281 C 0.19937 1.11751 -0.07330
 H282 H 0.25328 1.04129 -0.10461
 H283 H 0.18205 1.21046 -0.04862
 H284 H 0.28931 1.23394 -0.07960
 N285 N 0.25238 -0.11029 0.50031
 N286 N 0.19772 -0.12061 0.47661
 C287 C 0.20032 -0.09709 0.42489
 C288 C 0.25621 -0.07030 0.41533
 C289 C 0.28740 -0.08080 0.46291
 H290 H 0.27370 -0.04995 0.37740
 H291 H 0.26371 -0.12513 0.53958
 H292 H 0.16199 -0.14212 0.49724
 N293 N 0.55059 -0.28282 0.46897
 N294 N 0.57113 -0.33146 0.49351
 C295 C 0.55132 -0.33210 0.54672
 C296 C 0.51486 -0.28300 0.55551
 C297 C 0.51716 -0.25179 0.50599
 H298 H 0.49905 -0.26543 0.59521
 H299 H 0.56422 -0.26800 0.42952
 H300 H 0.60240 -0.36009 0.47540
 N301 N 1.00282 0.68503 0.33510
 N302 N 1.01970 0.73950 0.31531
 C303 C 1.03258 0.77788 0.35816
 C304 C 1.02110 0.74654 0.40738
 C305 C 1.00402 0.68764 0.39095
 H306 H 1.03086 0.76173 0.44922
 H307 H 0.99495 0.64573 0.31055
 H308 H 1.02765 0.74803 0.27320
 N309 N -0.06782 1.26288 -0.01225
 N310 N -0.09300 1.31372 0.01340
 C311 C -0.09165 1.30599 0.06894
 C312 C -0.06491 1.25033 0.07941
 C313 C -0.05159 1.22474 0.02766
 H314 H -0.05887 1.22905 0.11911
 H315 H -0.06450 1.25563 -0.05514
 H316 H -0.10839 1.35087 -0.00836
 N317 N 0.55451 0.30186 0.87359
 N318 N 0.53504 0.24896 0.85161
 C319 C 0.49468 0.22301 0.88679
 C320 C 0.49025 0.25993 0.93375
 C321 C 0.52706 0.31019 0.92317
 H322 H 0.45894 0.25513 0.96806
 H323 H 0.58157 0.33407 0.85258
 H324 H 0.54510 0.23421 0.81116
 N325 N 0.47678 0.61259 0.80575
 N326 N 0.49333 0.62666 0.75459
 C327 C 0.54803 0.60622 0.74468
 C328 C 0.56728 0.57848 0.79240
 C329 C 0.52052 0.58335 0.82980
 H330 H 0.60853 0.55652 0.79877
 H331 H 0.43610 0.62322 0.82379
 H332 H 0.46723 0.65064 0.72781
 N333 N 0.42044 -0.04919 0.72756
 N334 N 0.40942 -0.02400 0.77675
 C335 C 0.43513 0.03283 0.77847
 C336 C 0.46438 0.04397 0.72836
 C337 C 0.45314 -0.00880 0.69701
 H338 H 0.48546 0.08671 0.71465
 H339 H 0.40339 -0.09208 0.71446
 H340 H 0.38272 -0.04464 0.80756
 N341 N 0.15516 1.00220 0.17307
 N342 N 0.16623 0.97896 0.22191
 C343 C 0.11609 0.95347 0.24372
 C344 C 0.07082 0.96170 0.20694
 C345 C 0.09770 0.99269 0.16270
 H346 H 0.02555 0.94506 0.21052
 H347 H 0.18701 1.02260 0.14665
 H348 H 0.20821 0.97833 0.23843
 N349 N 0.84802 0.38241 0.35053
 N350 N 0.83300 0.36368 0.30036
 C351 C 0.87793 0.37641 0.26450
 C352 C 0.92391 0.40438 0.29329
 C353 C 0.90274 0.40781 0.34763
 H354 H 0.96357 0.42629 0.27610
 H355 H 0.81990 0.38090 0.38543
 H356 H 0.79095 0.34703 0.29019
   
