data_POSCAR
  _audit_creation_date              2014-09-24
  _audit_creation_method            'ToBaCCo'
  _symmetry_space_group_name_H-M    'P1'
  _symmetry_Int_Tables_number       1
  _symmetry_cell_setting            triclinic
  loop_
  _symmetry_equiv_pos_as_xyz
 x,y,z
_cell_length_a 57.3478
_cell_length_b 54.5686
_cell_length_c 55.3536
_cell_angle_alpha 88.933200
_cell_angle_beta 84.547100
_cell_angle_gamma 88.002800
loop_
  _atom_site_label
  _atom_site_type_symbol
  _atom_site_fract_x
  _atom_site_fract_y
  _atom_site_fract_z
N1 N 0.24680 0.20694 0.19495
 N2 N 0.23910 0.22830 0.18667
 C3 C 0.25451 0.23605 0.16843
 C4 C 0.27272 0.21871 0.16524
 C5 C 0.26725 0.20060 0.18232
 H6 H 0.25257 0.25296 0.15823
 H7 H 0.27753 0.18403 0.18536
 Cu8 Cu 0.20927 0.24440 0.19997
 Cu9 Cu 0.23033 0.18860 0.22195
 Cu10 Cu 0.17850 0.21259 0.24406
 N11 N 0.17925 0.25679 0.21559
 N12 N 0.16713 0.24409 0.23254
 C13 C 0.14765 0.25709 0.24048
 C14 C 0.14743 0.27908 0.22781
 C15 C 0.16776 0.27835 0.21209
 H16 H 0.13486 0.25126 0.25488
 H17 H 0.17400 0.29256 0.19947
 N18 N 0.19479 0.18748 0.26190
 N19 N 0.21534 0.17831 0.25335
 C20 C 0.22272 0.16138 0.26916
 C21 C 0.20583 0.16002 0.28873
 C22 C 0.18835 0.17677 0.28348
 H23 H 0.23904 0.15081 0.26645
 H24 H 0.17220 0.18091 0.29459
 H25 H 0.20360 0.20795 0.20577
 H26 H 0.21813 0.22358 0.22965
 N27 N 0.70236 -0.22303 0.20954
 N28 N 0.71390 -0.23895 0.19496
 C29 C 0.70176 -0.24217 0.17561
 C30 C 0.68147 -0.22746 0.17848
 C31 C 0.68246 -0.21567 0.20018
 H32 H 0.70709 -0.25456 0.16095
 H33 H 0.66957 -0.20279 0.20866
 Cu34 Cu 0.74275 -0.25496 0.20408
 Cu35 Cu 0.71357 -0.21357 0.24001
 Cu36 Cu 0.77296 -0.22594 0.24321
 N37 N 0.77280 -0.26816 0.21291
 N38 N 0.78445 -0.25680 0.22846
 C39 C 0.80432 -0.26977 0.23177
 C40 C 0.80504 -0.29054 0.21762
 C41 C 0.78481 -0.28885 0.20584
 H42 H 0.81702 -0.26445 0.24376
 H43 H 0.77916 -0.30190 0.19331
 N44 N 0.75473 -0.20157 0.26376
 N45 N 0.73199 -0.19748 0.26295
 C46 C 0.72445 -0.18027 0.27921
 C47 C 0.74327 -0.17326 0.29092
 C48 C 0.76225 -0.18716 0.28074
 H49 H 0.70659 -0.17314 0.28216
 H50 H 0.78015 -0.18690 0.28530
 H51 H 0.74590 -0.21492 0.22203
 H52 H 0.74057 -0.23962 0.24548
 N53 N 0.73964 0.23043 0.79900
 N54 N 0.75265 0.24570 0.80943
 C55 C 0.74083 0.25365 0.83019
 C56 C 0.71922 0.24290 0.83273
 C57 C 0.71910 0.22822 0.81263
 H58 H 0.74729 0.26653 0.84237
 H59 H 0.70521 0.21667 0.80824
 Cu60 Cu 0.78354 0.25420 0.79460
 Cu61 Cu 0.75024 0.21430 0.76869
 Cu62 Cu 0.80141 0.23462 0.73816
 N63 N 0.80976 0.26870 0.77512
 N64 N 0.81653 0.26107 0.75309
 C65 C 0.83456 0.27440 0.74361
 C66 C 0.83942 0.29129 0.76057
 C67 C 0.82331 0.28719 0.78045
 H68 H 0.84344 0.27212 0.72562
 H69 H 0.82132 0.29699 0.79735
 N70 N 0.78351 0.20797 0.72615
 N71 N 0.76394 0.20023 0.73783
 C72 C 0.75564 0.18223 0.72508
 C73 C 0.77067 0.17847 0.70440
 C74 C 0.78818 0.19509 0.70561
 H75 H 0.73973 0.17260 0.73028
 H76 H 0.80307 0.19782 0.69246
 H77 H 0.78599 0.21787 0.76929
 H78 H 0.76924 0.24423 0.75621
 N79 N 0.29057 -0.24945 0.80142
 N80 N 0.28190 -0.27008 0.81022
 C81 C 0.29097 -0.27559 0.83132
 C82 C 0.30616 -0.25744 0.83587
 C83 C 0.30548 -0.24113 0.81646
 H84 H 0.28724 -0.29185 0.84229
 H85 H 0.31540 -0.22474 0.81309
 Cu86 Cu 0.26084 -0.28843 0.79236
 Cu87 Cu 0.28323 -0.23586 0.77030
 Cu88 Cu 0.23434 -0.25913 0.74756
 N89 N 0.23386 -0.30165 0.77904
 N90 N 0.22326 -0.29003 0.76193
 C91 C 0.20537 -0.30343 0.75607
 C92 C 0.20482 -0.32459 0.77036
 C93 C 0.22310 -0.32280 0.78470
 H94 H 0.19401 -0.29831 0.74218
 H95 H 0.22825 -0.33601 0.79818
 N96 N 0.24871 -0.22833 0.73541
 N97 N 0.26759 -0.21990 0.74387
 C98 C 0.27389 -0.19938 0.73148
 C99 C 0.25836 -0.19466 0.71431
 C100 C 0.24257 -0.21337 0.71723
 H101 H 0.28888 -0.18873 0.73448
 H102 H 0.22808 -0.21621 0.70657
 H103 H 0.24970 -0.24780 0.77777
 H104 H 0.26837 -0.26520 0.75406
 N105 N 0.74704 -0.21381 0.79519
 N106 N 0.75606 -0.23230 0.80714
 C107 C 0.74093 -0.23830 0.82623
 C108 C 0.72145 -0.22278 0.82628
 C109 C 0.72585 -0.20738 0.80633
 H110 H 0.74353 -0.25329 0.83885
 H111 H 0.71431 -0.19308 0.79998
 Cu112 Cu 0.78595 -0.24810 0.79622
 Cu113 Cu 0.76294 -0.20057 0.76541
 Cu114 Cu 0.81550 -0.22930 0.74399
 N115 N 0.81461 -0.26477 0.78283
 N116 N 0.82639 -0.25719 0.76272
 C117 C 0.84493 -0.27262 0.75732
 C118 C 0.84449 -0.29100 0.77496
 C119 C 0.82509 -0.28541 0.79083
 H120 H 0.85712 -0.27111 0.74127
 H121 H 0.81875 -0.29602 0.80666
 N122 N 0.80166 -0.20085 0.72750
 N123 N 0.78165 -0.18986 0.73563
 C124 C 0.77641 -0.17184 0.71986
 C125 C 0.79397 -0.17158 0.70093
 C126 C 0.80964 -0.19016 0.70634
 H127 H 0.76067 -0.16029 0.72166
 H128 H 0.82540 -0.19579 0.69529
 H129 H 0.78022 -0.23328 0.75528
 H130 H 0.79649 -0.21132 0.77241
 N131 N 0.27703 0.21077 0.80321
 N132 N 0.26530 0.22585 0.81853
 C133 C 0.28010 0.23522 0.83313
 C134 C 0.30233 0.22537 0.82661
 C135 C 0.29974 0.20994 0.80759
 H136 H 0.27499 0.24829 0.84725
 H137 H 0.31336 0.19887 0.79776
 Cu138 Cu 0.23194 0.23234 0.81761
 Cu139 Cu 0.26160 0.19289 0.77940
 Cu140 Cu 0.20361 0.21001 0.77298
 N141 N 0.20230 0.24687 0.80941
 N142 N 0.19133 0.23813 0.79182
 C143 C 0.17185 0.25202 0.78924
 C144 C 0.17070 0.27062 0.80605
 C145 C 0.19027 0.26677 0.81855
 H146 H 0.15992 0.24910 0.77567
 H147 H 0.19570 0.27802 0.83276
 N148 N 0.22201 0.18695 0.75113
 N149 N 0.24416 0.18057 0.75328
 C150 C 0.25194 0.16558 0.73494
 C151 C 0.23375 0.16247 0.72065
 C152 C 0.21514 0.17627 0.73140
 H153 H 0.26960 0.15793 0.73198
 H154 H 0.19797 0.17873 0.72497
 H155 H 0.23725 0.22107 0.77526
 H156 H 0.22760 0.19455 0.79485
 N157 N 0.27019 -0.24152 0.21823
 N158 N 0.26394 -0.26246 0.20988
 C159 C 0.27747 -0.26782 0.18936
 C160 C 0.29314 -0.24935 0.18463
 C161 C 0.28809 -0.23288 0.20332
 H162 H 0.27623 -0.28410 0.17877
 H163 H 0.29692 -0.21613 0.20612
 Cu164 Cu 0.23905 -0.28108 0.22655
 Cu165 Cu 0.25522 -0.22781 0.24834
 Cu166 Cu 0.20945 -0.26045 0.27752
 N167 N 0.20861 -0.29332 0.23795
 N168 N 0.19690 -0.28523 0.25794
 C169 C 0.17695 -0.29760 0.26214
 C170 C 0.17623 -0.31423 0.24364
 C171 C 0.19654 -0.31099 0.22864
 H172 H 0.16431 -0.29502 0.27774
 H173 H 0.20232 -0.32112 0.21243
 N174 N 0.22067 -0.23003 0.29034
 N175 N 0.23783 -0.21740 0.27913
 C176 C 0.24163 -0.19795 0.29270
 C177 C 0.22605 -0.19841 0.31337
 C178 C 0.21304 -0.21892 0.31126
 H179 H 0.25509 -0.18482 0.28816
 H180 H 0.19927 -0.22544 0.32425
 H181 H 0.24477 -0.26018 0.26438
 H182 H 0.22317 -0.24387 0.24613
 N183 N 0.70958 0.24420 0.18683
 N184 N 0.72126 0.26249 0.17643
 C185 C 0.70947 0.27214 0.15845
 C186 C 0.68932 0.25925 0.15750
 C187 C 0.68990 0.24158 0.17578
 H188 H 0.71501 0.28754 0.14699
 H189 H 0.67705 0.22790 0.18074
 Cu190 Cu 0.75061 0.27224 0.18736
 Cu191 Cu 0.72090 0.22532 0.21393
 Cu192 Cu 0.76954 0.24727 0.23817
 N193 N 0.77478 0.28714 0.20377
 N194 N 0.78242 0.27721 0.22347
 C195 C 0.79888 0.29143 0.23115
 C196 C 0.80155 0.31136 0.21539
 C197 C 0.78598 0.30806 0.19829
 H198 H 0.80778 0.28781 0.24727
 H199 H 0.78283 0.32020 0.18319
 N200 N 0.75386 0.21732 0.25038
 N201 N 0.73525 0.20897 0.24128
 C202 C 0.72854 0.18852 0.25368
 C203 C 0.74361 0.18380 0.27137
 C204 C 0.75945 0.20244 0.26876
 H205 H 0.71373 0.17780 0.25022
 H206 H 0.77388 0.20514 0.27953
 H207 H 0.73677 0.25520 0.22672
 H208 H 0.75607 0.23291 0.20814
 C209 C 0.24787 -0.02100 0.50727
 C210 C 0.24967 0.00382 0.50733
 C211 C 0.25233 0.01736 0.52990
 C212 C 0.24850 0.01874 0.48473
 C213 C 0.24745 -0.03456 0.48431
 C214 C 0.24587 -0.03599 0.53000
 C215 C 0.23706 0.03730 0.53633
 C216 C 0.23932 0.05034 0.55740
 C217 C 0.25719 0.04390 0.57233
 C218 C 0.27241 0.02387 0.56590
 C219 C 0.27016 0.01084 0.54476
 C220 C 0.22870 0.01820 0.47182
 C221 C 0.22710 0.03203 0.45063
 C222 C 0.24649 0.04839 0.44052
 C223 C 0.26681 0.04790 0.45565
 C224 C 0.26713 0.03365 0.47676
 C225 C 0.26593 -0.03315 0.46586
 C226 C 0.26573 -0.04684 0.44479
 C227 C 0.24722 -0.06241 0.44193
 C228 C 0.22850 -0.06339 0.46028
 C229 C 0.22875 -0.04976 0.48133
 C230 C 0.26090 -0.05657 0.53220
 C231 C 0.25845 -0.07175 0.55280
 C232 C 0.24086 -0.06661 0.57170
 C233 C 0.22565 -0.04615 0.56934
 C234 C 0.22812 -0.03095 0.54869
 H235 H 0.22311 0.04254 0.52519
 H236 H 0.22669 0.06505 0.56210
 H237 H 0.28623 0.01844 0.57714
 H238 H 0.28237 -0.00426 0.53995
 H239 H 0.21420 0.00688 0.47834
 H240 H 0.21149 0.03088 0.44122
 H241 H 0.28233 0.03404 0.48696
 H242 H 0.28066 -0.02172 0.46795
 H243 H 0.28027 -0.04562 0.43087
 H244 H 0.21350 -0.07444 0.45843
 H245 H 0.21426 -0.05095 0.49532
 H246 H 0.27444 -0.06102 0.51780
 H247 H 0.26997 -0.08781 0.55346
 H248 H 0.21175 -0.04200 0.58346
 H249 H 0.21594 -0.01553 0.54707
 H250 H 0.28169 0.05903 0.45005
 C251 C 0.77801 -0.00404 0.48998
 C252 C 0.77955 0.02080 0.48872
 C253 C 0.77872 0.03477 0.46551
 C254 C 0.78216 0.03546 0.51062
 C255 C 0.77664 -0.01750 0.51362
 C256 C 0.77779 -0.01919 0.46794
 C257 C 0.79702 0.05028 0.45797
 C258 C 0.79667 0.06469 0.43701
 C259 C 0.77673 0.06479 0.42154
 C260 C 0.75782 0.04739 0.43082
 C261 C 0.75940 0.03340 0.45196
 C262 C 0.80076 0.03054 0.52495
 C263 C 0.80324 0.04479 0.54523
 C264 C 0.78722 0.06420 0.55153
 C265 C 0.76892 0.06942 0.53679
 C266 C 0.76644 0.05516 0.51656
 C267 C 0.75854 -0.01224 0.53185
 C268 C 0.75729 -0.02536 0.55385
 C269 C 0.77391 -0.04414 0.55792
 C270 C 0.79219 -0.04914 0.53965
 C271 C 0.79336 -0.03610 0.51766
 C272 C 0.76060 -0.03674 0.46705
 C273 C 0.76072 -0.05199 0.44707
 C274 C 0.77802 -0.04989 0.42738
 C275 C 0.79537 -0.03249 0.42844
 C276 C 0.79533 -0.01735 0.44855
 H277 H 0.81187 0.05126 0.46859
 H278 H 0.81119 0.07648 0.43197
 H279 H 0.74249 0.04593 0.42100
 H280 H 0.74516 0.02159 0.45810
 H281 H 0.81344 0.01581 0.52032
 H282 H 0.81770 0.04063 0.55603
 H283 H 0.75222 0.05950 0.50548
 H284 H 0.74533 0.00191 0.52897
 H285 H 0.74314 -0.02099 0.56764
 H286 H 0.80586 -0.06279 0.54228
 H287 H 0.80754 -0.04028 0.50384
 H288 H 0.74714 -0.03877 0.48200
 H289 H 0.74754 -0.06571 0.44754
 H290 H 0.80910 -0.03072 0.41372
 H291 H 0.80919 -0.00446 0.44914
 H292 H 0.75674 0.08477 0.54045
 C293 C 0.48909 0.25988 0.00701
 C294 C 0.49170 0.26246 -0.01762
 C295 C 0.51508 0.26255 -0.03184
 C296 C 0.47110 0.26446 -0.03198
 C297 C 0.46560 0.25927 0.02085
 C298 C 0.50944 0.25710 0.02160
 C299 C 0.51987 0.28130 -0.04910
 C300 C 0.54084 0.28085 -0.06414
 C301 C 0.55758 0.26176 -0.06211
 C302 C 0.55295 0.24302 -0.04468
 C303 C 0.53177 0.24332 -0.02981
 C304 C 0.45402 0.28339 -0.02814
 C305 C 0.43449 0.28444 -0.04152
 C306 C 0.43191 0.26684 -0.05920
 C307 C 0.44920 0.24801 -0.06309
 C308 C 0.46865 0.24699 -0.04973
 C309 C 0.44952 0.24143 0.01647
 C310 C 0.42753 0.24113 0.02980
 C311 C 0.42142 0.25848 0.04807
 C312 C 0.43761 0.27624 0.05235
 C313 C 0.45952 0.27654 0.03901
 C314 C 0.51150 0.23622 0.03648
 C315 C 0.53033 0.23317 0.05057
 C316 C 0.54723 0.25115 0.05046
 C317 C 0.54519 0.27214 0.03551
 C318 C 0.52636 0.27511 0.02124
 H319 H 0.50716 0.29617 -0.05119
 H320 H 0.54389 0.29535 -0.07758
 H321 H 0.56517 0.22764 -0.04315
 H322 H 0.52815 0.22821 -0.01721
 H323 H 0.45574 0.29721 -0.01469
 H324 H 0.42137 0.29903 -0.03806
 H325 H 0.48161 0.23218 -0.05285
 H326 H 0.45399 0.22776 0.00271
 H327 H 0.41541 0.22750 0.02549
 H328 H 0.43336 0.28986 0.06622
 H329 H 0.47173 0.29039 0.04271
 H330 H 0.49859 0.22215 0.03703
 H331 H 0.53156 0.21680 0.06183
 H332 H 0.55819 0.28610 0.03446
 H333 H 0.52496 0.29142 0.00996
 H334 H 0.44754 0.23363 -0.07593
 C335 C 0.50022 0.78916 -0.01540
 C336 C 0.50046 0.78670 0.00910
 C337 C 0.47845 0.78697 0.02561
 C338 C 0.52271 0.78353 0.02076
 C339 C 0.52209 0.79218 -0.03167
 C340 C 0.47806 0.78885 -0.02727
 C341 C 0.46181 0.80641 0.02486
 C342 C 0.44157 0.80683 0.04107
 C343 C 0.43762 0.78791 0.05836
 C344 C 0.45457 0.76873 0.05939
 C345 C 0.47473 0.76827 0.04314
 C346 C 0.52694 0.79889 0.03979
 C347 C 0.54702 0.79525 0.05199
 C348 C 0.56314 0.77586 0.04563
 C349 C 0.55919 0.76089 0.02617
 C350 C 0.53904 0.76454 0.01396
 C351 C 0.52696 0.77691 -0.05174
 C352 C 0.54724 0.77976 -0.06744
 C353 C 0.56310 0.79800 -0.06332
 C354 C 0.55789 0.81368 -0.04358
 C355 C 0.53756 0.81082 -0.02788
 C356 C 0.46324 0.76887 -0.02400
 C357 C 0.44297 0.76829 -0.03617
 C358 C 0.43731 0.78765 -0.05198
 C359 C 0.45200 0.80776 -0.05484
 C360 C 0.47229 0.80825 -0.04280
 H361 H 0.46463 0.82138 0.01193
 H362 H 0.42898 0.82200 0.04014
 H363 H 0.45270 0.75430 0.07302
 H364 H 0.48755 0.75334 0.04430
 H365 H 0.51463 0.81374 0.04520
 H366 H 0.54988 0.80775 0.06627
 H367 H 0.53597 0.75226 -0.00047
 H368 H 0.51503 0.76270 -0.05522
 H369 H 0.55017 0.76792 -0.08296
 H370 H 0.56964 0.82809 -0.04023
 H371 H 0.53382 0.82322 -0.01285
 H372 H 0.46751 0.75362 -0.01224
 H373 H 0.43180 0.75278 -0.03297
 H374 H 0.44799 0.82294 -0.06681
 H375 H 0.48353 0.82380 -0.04558
 H376 H 0.57142 0.74596 0.02080
 C377 C -0.00579 0.50305 0.24210
 C378 C -0.02961 0.50388 0.24345
 C379 C -0.04329 0.48128 0.24353
 C380 C -0.04330 0.52750 0.24453
 C381 C 0.00766 0.52544 0.24479
 C382 C 0.00819 0.47984 0.23762
 C383 C -0.05967 0.47891 0.22653
 C384 C -0.07325 0.45817 0.22681
 C385 C -0.07102 0.43952 0.24444
 C386 C -0.05436 0.44179 0.26124
 C387 C -0.04071 0.46255 0.26090
 C388 C -0.03963 0.54538 0.22611
 C389 C -0.05343 0.56704 0.22667
 C390 C -0.07124 0.57109 0.24561
 C391 C -0.07456 0.55336 0.26420
 C392 C -0.06089 0.53164 0.26353
 C393 C 0.00374 0.53973 0.26571
 C394 C 0.01751 0.55993 0.26860
 C395 C 0.03561 0.56595 0.25083
 C396 C 0.03901 0.55199 0.22957
 C397 C 0.02530 0.53181 0.22672
 C398 C 0.02543 0.47285 0.25299
 C399 C 0.03966 0.45187 0.24827
 C400 C 0.03692 0.43741 0.22799
 C401 C 0.01981 0.44459 0.21250
 C402 C 0.00556 0.46560 0.21725
 H403 H -0.06179 0.49310 0.21289
 H404 H -0.08520 0.45676 0.21296
 H405 H -0.05216 0.42762 0.27489
 H406 H -0.02834 0.46417 0.27436
 H407 H -0.02628 0.54240 0.21117
 H408 H -0.04999 0.58058 0.21237
 H409 H -0.06401 0.51802 0.27785
 H410 H -0.00965 0.53495 0.27998
 H411 H 0.01441 0.57051 0.28503
 H412 H 0.05215 0.55660 0.21502
 H413 H 0.02843 0.52112 0.21037
 H414 H 0.02801 0.48382 0.26858
 H415 H 0.05315 0.44750 0.26019
 H416 H 0.01755 0.43398 0.19659
 H417 H -0.00722 0.47100 0.20480
 H418 H -0.08807 0.55611 0.27904
 C419 C 0.02620 0.49040 0.76409
 C420 C 0.00244 0.49375 0.76613
 C421 C -0.01351 0.47278 0.76943
 C422 C -0.00905 0.51855 0.76530
 C423 C 0.04222 0.51121 0.75997
 C424 C 0.03755 0.46572 0.76635
 C425 C -0.01223 0.45364 0.75270
 C426 C -0.02780 0.43440 0.75584
 C427 C -0.04520 0.43419 0.77561
 C428 C -0.04628 0.45332 0.79233
 C429 C -0.03071 0.47248 0.78920
 C430 C -0.02615 0.52328 0.74916
 C431 C -0.03776 0.54615 0.74859
 C432 C -0.03253 0.56474 0.76427
 C433 C -0.01519 0.56015 0.78018
 C434 C -0.00377 0.53712 0.78097
 C435 C 0.05893 0.51486 0.77635
 C436 C 0.07405 0.53439 0.77304
 C437 C 0.07303 0.55049 0.75297
 C438 C 0.05628 0.54678 0.73657
 C439 C 0.04112 0.52719 0.73991
 C440 C 0.03307 0.45120 0.78737
 C441 C 0.04419 0.42813 0.78930
 C442 C 0.06021 0.41936 0.77032
 C443 C 0.06453 0.43393 0.74931
 C444 C 0.05347 0.45697 0.74743
 H445 H 0.00075 0.45367 0.73716
 H446 H -0.02595 0.41975 0.74286
 H447 H -0.05939 0.45358 0.80777
 H448 H -0.03203 0.48710 0.80228
 H449 H -0.03046 0.50923 0.73691
 H450 H -0.05062 0.54932 0.73567
 H451 H 0.00901 0.53373 0.79394
 H452 H 0.05995 0.50281 0.79202
 H453 H 0.08611 0.53705 0.78657
 H454 H 0.05503 0.55899 0.72105
 H455 H 0.02852 0.52451 0.72689
 H456 H 0.02100 0.45777 0.80226
 H457 H 0.03996 0.41720 0.80552
 H458 H 0.07670 0.42756 0.73440
 H459 H 0.05718 0.46796 0.73110
 H460 H -0.01086 0.57423 0.79240
 C461 C 0.29375 0.21857 0.14777
 C462 C 0.29883 0.23767 0.13119
 C463 C 0.32030 0.23763 0.11398
 C464 C 0.32858 0.26004 0.10443
 C465 C 0.34911 0.26077 0.08864
 C466 C 0.36179 0.23898 0.08203
 C467 C 0.35300 0.21652 0.09085
 C468 C 0.33251 0.21580 0.10663
 C469 C 0.38394 0.23883 0.06585
 C470 C 0.39843 0.25895 0.06282
 H471 H 0.28731 0.25383 0.13163
 H472 H 0.31926 0.27709 0.10941
 H473 H 0.35477 0.27840 0.08153
 H474 H 0.36216 0.19944 0.08569
 H475 H 0.32624 0.19807 0.11276
 H476 H 0.38985 0.22157 0.05770
 H477 H 0.30587 0.20303 0.14868
 H478 H 0.39366 0.27532 0.07313
 C479 C 0.66312 0.77514 0.16370
 C480 C 0.66270 0.76316 0.14166
 C481 C 0.64259 0.76603 0.12679
 C482 C 0.64628 0.76349 0.10152
 C483 C 0.62766 0.76682 0.08702
 C484 C 0.60484 0.77239 0.09766
 C485 C 0.60115 0.77440 0.12298
 C486 C 0.61972 0.77113 0.13741
 C487 C 0.58455 0.77705 0.08330
 C488 C 0.58408 0.77089 0.05894
 H489 H 0.67790 0.75238 0.13442
 H490 H 0.66373 0.75945 0.09293
 H491 H 0.63139 0.76550 0.06757
 H492 H 0.58377 0.77853 0.13169
 H493 H 0.61600 0.77236 0.15688
 H494 H 0.56874 0.78477 0.09289
 H495 H 0.64867 0.78750 0.16977
 H496 H 0.59866 0.76060 0.04978
 C497 C 0.70053 0.24654 -0.14732
 C498 C 0.67779 0.23890 -0.14911
 C499 C 0.65827 0.24226 -0.12985
 C500 C 0.63524 0.24288 -0.13647
 C501 C 0.61620 0.24536 -0.11891
 C502 C 0.61978 0.24702 -0.09423
 C503 C 0.64278 0.24589 -0.08750
 C504 C 0.66191 0.24373 -0.10515
 C505 C 0.59976 0.24893 -0.07533
 C506 C 0.57868 0.26101 -0.07971
 H507 H 0.67366 0.23121 -0.16602
 H508 H 0.63196 0.24140 -0.15534
 H509 H 0.59868 0.24538 -0.12467
 H510 H 0.64594 0.24676 -0.06855
 H511 H 0.67941 0.24262 -0.09934
 H512 H 0.60205 0.24161 -0.05737
 H513 H 0.70461 0.25631 -0.13150
 H514 H 0.57774 0.27112 -0.09665
 C515 C 0.32091 0.74307 -0.14372
 C516 C 0.33593 0.76224 -0.14100
 C517 C 0.35280 0.76310 -0.12230
 C518 C 0.36589 0.78426 -0.12129
 C519 C 0.38288 0.78576 -0.10496
 C520 C 0.38713 0.76608 -0.08900
 C521 C 0.37399 0.74493 -0.08991
 C522 C 0.35699 0.74340 -0.10632
 C523 C 0.40593 0.76631 -0.07233
 C524 C 0.41648 0.78766 -0.06588
 H525 H 0.33567 0.77760 -0.15363
 H526 H 0.36326 0.79962 -0.13353
 H527 H 0.39302 0.80211 -0.10558
 H528 H 0.37706 0.72940 -0.07802
 H529 H 0.34763 0.72659 -0.10655
 H530 H 0.41202 0.74876 -0.06551
 H531 H 0.31991 0.72778 -0.13104
 H532 H 0.41024 0.80526 -0.07240
 C533 C 0.12969 0.29906 0.23207
 C534 C 0.12983 0.32074 0.21831
 C535 C 0.11263 0.34129 0.22367
 C536 C 0.10778 0.35796 0.20505
 C537 C 0.09188 0.37775 0.20965
 C538 C 0.08060 0.38130 0.23309
 C539 C 0.08584 0.36491 0.25179
 C540 C 0.10164 0.34511 0.24718
 C541 C 0.06427 0.40243 0.23907
 C542 C 0.05231 0.41557 0.22189
 H543 H 0.14248 0.32248 0.20261
 H544 H 0.11633 0.35568 0.18689
 H545 H 0.08893 0.39044 0.19493
 H546 H 0.07775 0.36748 0.27010
 H547 H 0.10555 0.33323 0.26223
 H548 H 0.06079 0.40704 0.25803
 H549 H 0.11592 0.29627 0.24652
 H550 H 0.05341 0.40913 0.20343
 C551 C 0.18988 0.65573 0.77052
 C552 C 0.17142 0.65478 0.75581
 C553 C 0.15606 0.63347 0.75597
 C554 C 0.13310 0.63695 0.74944
 C555 C 0.11800 0.61729 0.74997
 C556 C 0.12577 0.59358 0.75669
 C557 C 0.14889 0.59008 0.76270
 C558 C 0.16392 0.60971 0.76223
 C559 C 0.11028 0.57227 0.75875
 C560 C 0.08860 0.57164 0.74916
 H561 H 0.16726 0.67054 0.74465
 H562 H 0.12667 0.65506 0.74442
 H563 H 0.10023 0.62096 0.74563
 H564 H 0.15539 0.57203 0.76784
 H565 H 0.18173 0.60609 0.76655
 H566 H 0.11672 0.55600 0.76777
 H567 H 0.19279 0.64074 0.78307
 H568 H 0.08313 0.58656 0.73764
 C569 C -0.17815 0.69028 0.21557
 C570 C -0.15871 0.68896 0.22905
 C571 C -0.14147 0.66806 0.22775
 C572 C -0.12870 0.66286 0.24775
 C573 C -0.11256 0.64304 0.24741
 C574 C -0.10875 0.62807 0.22690
 C575 C -0.12091 0.63379 0.20658
 C576 C -0.13717 0.65351 0.20698
 C577 C -0.09205 0.60672 0.22596
 C578 C -0.08653 0.59354 0.24665
 H579 H -0.15671 0.70291 0.24227
 H580 H -0.13140 0.67405 0.26381
 H581 H -0.10294 0.63972 0.26310
 H582 H -0.11800 0.62278 0.19042
 H583 H -0.14604 0.65746 0.19090
 H584 H -0.08550 0.59997 0.20824
 H585 H -0.18101 0.67550 0.20353
 H586 H -0.09537 0.59847 0.26412
 C587 C -0.14317 0.30862 0.75726
 C588 C -0.13853 0.32501 0.77518
 C589 C -0.12022 0.34359 0.77137
 C590 C -0.11056 0.35273 0.79161
 C591 C -0.09341 0.37044 0.78878
 C592 C -0.08583 0.37973 0.76556
 C593 C -0.09550 0.37055 0.74533
 C594 C -0.11259 0.35281 0.74816
 C595 C -0.06784 0.39867 0.76160
 C596 C -0.06230 0.41440 0.77972
 H597 H -0.14788 0.32361 0.79305
 H598 H -0.11611 0.34592 0.80968
 H599 H -0.08600 0.37645 0.80481
 H600 H -0.09003 0.37738 0.72725
 H601 H -0.12005 0.34679 0.73215
 H602 H -0.05992 0.40130 0.74325
 H603 H -0.13263 0.30882 0.73998
 H604 H -0.07206 0.41346 0.79740
 C605 C 0.20565 0.14420 0.31056
 C606 C 0.22518 0.13003 0.31619
 C607 C 0.22522 0.11436 0.33830
 C608 C 0.24652 0.10897 0.34811
 C609 C 0.24718 0.09437 0.36907
 C610 C 0.22649 0.08457 0.38046
 C611 C 0.20527 0.08955 0.37036
 C612 C 0.20460 0.10429 0.34950
 C613 C 0.22649 0.06910 0.40267
 C614 C 0.24628 0.06567 0.41515
 H615 H 0.24148 0.13150 0.30474
 H616 H 0.26268 0.11632 0.33967
 H617 H 0.26388 0.09072 0.37628
 H618 H 0.18914 0.08202 0.37865
 H619 H 0.18797 0.10739 0.34203
 H620 H 0.21034 0.06067 0.40966
 H621 H 0.18987 0.14458 0.32294
 H622 H 0.24559 0.05666 0.42784
 C623 C 0.76757 0.16082 0.68524
 C624 C 0.78374 0.15772 0.66495
 C625 C 0.78061 0.14065 0.64507
 C626 C 0.80026 0.13341 0.62945
 C627 C 0.79803 0.11779 0.61013
 C628 C 0.77597 0.10907 0.60600
 C629 C 0.75627 0.11660 0.62139
 C630 C 0.75850 0.13220 0.64072
 C631 C 0.77261 0.09318 0.58527
 C632 C 0.79065 0.07917 0.57289
 H633 H 0.79978 0.16773 0.66380
 H634 H 0.81743 0.13997 0.63216
 H635 H 0.81354 0.11312 0.59825
 H636 H 0.73903 0.11050 0.61836
 H637 H 0.74277 0.13797 0.65174
 H638 H 0.75492 0.09177 0.58029
 H639 H 0.75216 0.14984 0.68760
 H640 H 0.80774 0.07811 0.57968
 C641 C 0.26006 -0.17458 0.69620
 C642 C 0.24399 -0.17059 0.67902
 C643 C 0.24688 -0.15147 0.65971
 C644 C 0.22714 -0.14248 0.64876
 C645 C 0.22939 -0.12487 0.63006
 C646 C 0.25154 -0.11599 0.62185
 C647 C 0.27129 -0.12526 0.63256
 C648 C 0.26904 -0.14279 0.65126
 C649 C 0.25504 -0.09826 0.60134
 C650 C 0.23725 -0.08288 0.59337
 H651 H 0.22848 -0.18146 0.68002
 H652 H 0.20993 -0.14918 0.65466
 H653 H 0.21383 -0.11880 0.62175
 H654 H 0.28861 -0.11907 0.62629
 H655 H 0.28481 -0.14989 0.65854
 H656 H 0.27269 -0.09676 0.59273
 H657 H 0.27461 -0.16256 0.69662
 H658 H 0.22029 -0.08195 0.60376
 C659 C 0.74233 -0.15476 0.31003
 C660 C 0.76180 -0.14903 0.32191
 C661 C 0.76103 -0.13089 0.34167
 C662 C 0.78222 -0.12241 0.34858
 C663 C 0.78236 -0.10561 0.36736
 C664 C 0.76117 -0.09683 0.37963
 C665 C 0.74002 -0.10557 0.37291
 C666 C 0.73989 -0.12242 0.35424
 C667 C 0.76018 -0.07950 0.40007
 C668 C 0.77915 -0.06614 0.40606
 H669 H 0.77856 -0.15788 0.31623
 H670 H 0.79879 -0.12890 0.33947
 H671 H 0.79912 -0.10003 0.37233
 H672 H 0.72345 -0.09946 0.38229
 H673 H 0.72315 -0.12898 0.35022
 H674 H 0.74334 -0.07667 0.41035
 H675 H 0.72562 -0.14537 0.31447
 H676 H 0.79533 -0.06680 0.39433
 C677 C 0.70028 0.77569 -0.15664
 C678 C 0.68116 0.79213 -0.15712
 C679 C 0.65946 0.78956 -0.14067
 C680 C 0.64519 0.81042 -0.13486
 C681 C 0.62455 0.80853 -0.11940
 C682 C 0.61774 0.78561 -0.10959
 C683 C 0.63169 0.76468 -0.11596
 C684 C 0.65234 0.76659 -0.13130
 C685 C 0.59591 0.78259 -0.09345
 C686 C 0.58480 0.80149 -0.07956
 H687 H 0.68239 0.80787 -0.16931
 H688 H 0.65009 0.82825 -0.14222
 H689 H 0.61384 0.82496 -0.11558
 H690 H 0.62660 0.74676 -0.10902
 H691 H 0.66239 0.74995 -0.13610
 H692 H 0.58922 0.76430 -0.09132
 H693 H 0.70000 0.76110 -0.14313
 H694 H 0.59302 0.81903 -0.07927
 C695 C 0.32434 0.22975 -0.16271
 C696 C 0.32521 0.24462 -0.14257
 C697 C 0.34694 0.24839 -0.13085
 C698 C 0.34510 0.25553 -0.10650
 C699 C 0.36517 0.25857 -0.09452
 C700 C 0.38760 0.25491 -0.10685
 C701 C 0.38941 0.24825 -0.13135
 C702 C 0.36935 0.24514 -0.14329
 C703 C 0.40938 0.25649 -0.09461
 C704 C 0.41056 0.26788 -0.07236
 H705 H 0.30906 0.25273 -0.13407
 H706 H 0.32804 0.25822 -0.09652
 H707 H 0.36291 0.26313 -0.07551
 H708 H 0.40646 0.24535 -0.14129
 H709 H 0.37154 0.24040 -0.16227
 H710 H 0.42526 0.24862 -0.10390
 H711 H 0.34001 0.22019 -0.17053
 H712 H 0.39559 0.27853 -0.06446
 C713 C 0.31167 0.75117 0.16438
 C714 C 0.32797 0.76961 0.16129
 C715 C 0.34772 0.76925 0.14197
 C716 C 0.35902 0.79116 0.13556
 C717 C 0.37811 0.79143 0.11786
 C718 C 0.38631 0.76966 0.10618
 C719 C 0.37520 0.74773 0.11284
 C720 C 0.35617 0.74745 0.13053
 C721 C 0.40697 0.76871 0.08798
 C722 C 0.41623 0.78925 0.07560
 H723 H 0.32607 0.78516 0.17326
 H724 H 0.35312 0.80813 0.14439
 H725 H 0.38662 0.80860 0.11388
 H726 H 0.38140 0.73063 0.10445
 H727 H 0.34862 0.72999 0.13551
 H728 H 0.41462 0.75076 0.08354
 H729 H 0.31233 0.73630 0.15167
 H730 H 0.40704 0.80684 0.07769
 C731 C 0.67152 0.26405 0.14035
 C732 C 0.65113 0.25075 0.14088
 C733 C 0.63296 0.25505 0.12377
 C734 C 0.61647 0.23697 0.12189
 C735 C 0.59895 0.24016 0.10611
 C736 C 0.59758 0.26160 0.09170
 C737 C 0.61372 0.27996 0.09401
 C738 C 0.63124 0.27678 0.10983
 C739 C 0.57917 0.26587 0.07485
 C740 C 0.56673 0.24700 0.06591
 H741 H 0.64861 0.23589 0.15400
 H742 H 0.61711 0.22025 0.13272
 H743 H 0.58635 0.22594 0.10573
 H744 H 0.61278 0.29685 0.08350
 H745 H 0.64303 0.29159 0.11125
 H746 H 0.57542 0.28462 0.06939
 H747 H 0.67505 0.27827 0.12678
 H748 H 0.57063 0.22823 0.07114
 C749 C -0.14097 0.68810 0.77627
 C750 C -0.12124 0.68348 0.76003
 C751 C -0.10763 0.66002 0.76044
 C752 C -0.08340 0.65963 0.75381
 C753 C -0.07029 0.63752 0.75381
 C754 C -0.08136 0.61538 0.76005
 C755 C -0.10567 0.61574 0.76607
 C756 C -0.11868 0.63784 0.76644
 C757 C -0.06831 0.59156 0.75949
 C758 C -0.04489 0.58895 0.76426
 H759 H -0.11506 0.69757 0.74719
 H760 H -0.07461 0.67647 0.74874
 H761 H -0.05166 0.63773 0.74842
 H762 H -0.11461 0.59885 0.77057
 H763 H -0.13746 0.63745 0.77089
 H764 H -0.07802 0.57528 0.75697
 H765 H -0.14539 0.67490 0.79070
 H766 H -0.03596 0.60467 0.77005
 C767 C -0.18332 0.33244 0.21644
 C768 C -0.16656 0.33377 0.23300
 C769 C -0.15156 0.35517 0.23406
 C770 C -0.12943 0.35194 0.24272
 C771 C -0.11472 0.37177 0.24360
 C772 C -0.12209 0.39540 0.23617
 C773 C -0.14443 0.39861 0.22796
 C774 C -0.15904 0.37879 0.22696
 C775 C -0.10719 0.41711 0.23610
 C776 C -0.08544 0.41743 0.24556
 H777 H -0.16344 0.31815 0.24474
 H778 H -0.12335 0.33392 0.24842
 H779 H -0.09763 0.36824 0.24984
 H780 H -0.15066 0.41657 0.22226
 H781 H -0.17627 0.38216 0.22091
 H782 H -0.11420 0.43397 0.22864
 H783 H -0.18516 0.34704 0.20319
 H784 H -0.07907 0.40155 0.25519
 C785 C 0.15367 0.29141 0.80917
 C786 C 0.13502 0.29460 0.79481
 C787 C 0.11923 0.31670 0.79543
 C788 C 0.10663 0.32196 0.77534
 C789 C 0.09238 0.34318 0.77454
 C790 C 0.09043 0.35964 0.79393
 C791 C 0.10213 0.35383 0.81452
 C792 C 0.11645 0.33260 0.81531
 C793 C 0.07642 0.38290 0.79322
 C794 C 0.07251 0.39513 0.77150
 H795 H 0.13283 0.28112 0.78118
 H796 H 0.10810 0.30978 0.75998
 H797 H 0.08287 0.34651 0.75877
 H798 H 0.10053 0.36598 0.82989
 H799 H 0.12513 0.32878 0.83152
 H800 H 0.07098 0.39166 0.81030
 H801 H 0.15686 0.30506 0.82225
 H802 H 0.08045 0.38768 0.75456
 C803 C 0.15892 0.66711 0.24061
 C804 C 0.13843 0.66478 0.25608
 C805 C 0.12192 0.64498 0.25340
 C806 C 0.09809 0.64874 0.26123
 C807 C 0.08209 0.63042 0.25851
 C808 C 0.08979 0.60778 0.24826
 C809 C 0.11370 0.60397 0.24085
 C810 C 0.12962 0.62225 0.24349
 C811 C 0.07371 0.58787 0.24433
 C812 C 0.05066 0.58669 0.25496
 H813 H 0.13387 0.67832 0.26993
 H814 H 0.09178 0.66607 0.26903
 H815 H 0.06379 0.63434 0.26407
 H816 H 0.12015 0.58669 0.23303
 H817 H 0.14796 0.61835 0.23802
 H818 H 0.08095 0.57271 0.23338
 H819 H 0.16254 0.65492 0.22542
 H820 H 0.04392 0.60020 0.26810
 C821 C 0.79549 -0.15642 0.67862
 C822 C 0.77965 -0.13707 0.67478
 C823 C 0.78047 -0.12274 0.65177
 C824 C 0.77146 -0.09851 0.65194
 C825 C 0.77199 -0.08451 0.63047
 C826 C 0.78119 -0.09471 0.60823
 C827 C 0.78991 -0.11907 0.60811
 C828 C 0.78952 -0.13297 0.62957
 C829 C 0.78255 -0.08078 0.58487
 C830 C 0.77189 -0.05767 0.58148
 H831 H 0.76673 -0.13161 0.68939
 H832 H 0.76430 -0.09026 0.66882
 H833 H 0.76541 -0.06574 0.63164
 H834 H 0.79702 -0.12748 0.59129
 H835 H 0.79595 -0.15184 0.62858
 H836 H 0.79183 -0.08976 0.56939
 H837 H 0.80978 -0.16061 0.66497
 H838 H 0.76064 -0.04949 0.59613
 C839 C 0.22411 -0.18191 0.33424
 C840 C 0.23774 -0.16130 0.33506
 C841 C 0.23691 -0.14541 0.35655
 C842 C 0.24426 -0.12119 0.35351
 C843 C 0.24398 -0.10576 0.37344
 C844 C 0.23665 -0.11444 0.39695
 C845 C 0.22938 -0.13869 0.39995
 C846 C 0.22962 -0.15407 0.38004
 C847 C 0.23582 -0.09890 0.41870
 C848 C 0.24791 -0.07717 0.41966
 H849 H 0.24904 -0.15613 0.31913
 H850 H 0.25001 -0.11410 0.33560
 H851 H 0.24918 -0.08705 0.37020
 H852 H 0.22371 -0.14588 0.41784
 H853 H 0.22451 -0.17282 0.38329
 H854 H 0.22631 -0.10579 0.43510
 H855 H 0.21138 -0.18623 0.34927
 H856 H 0.25963 -0.07158 0.40424
 C857 C 0.74233 0.16340 0.28925
 C858 C 0.75910 0.15962 0.30579
 C859 C 0.75847 0.13998 0.32471
 C860 C 0.77855 0.13552 0.33699
 C861 C 0.77871 0.11797 0.35565
 C862 C 0.75864 0.10448 0.36259
 C863 C 0.73861 0.10870 0.35020
 C864 C 0.73844 0.12632 0.33149
 C865 C 0.75801 0.08655 0.38303
 C866 C 0.77676 0.08329 0.39704
 H867 H 0.77387 0.17152 0.30468
 H868 H 0.79420 0.14580 0.33223
 H869 H 0.79451 0.11519 0.36474
 H870 H 0.72290 0.09862 0.35526
 H871 H 0.72243 0.12942 0.32291
 H872 H 0.74219 0.07650 0.38773
 H873 H 0.72799 0.15112 0.28894
 H874 H 0.77537 0.07341 0.40908
 C875 C 0.23365 0.14871 0.69805
 C876 C 0.25277 0.13437 0.68835
 C877 C 0.25266 0.12103 0.66529
 C878 C 0.26739 0.10016 0.66122
 C879 C 0.26749 0.08701 0.63973
 C880 C 0.25287 0.09466 0.62177
 C881 C 0.23872 0.11600 0.62558
 C882 C 0.23857 0.12905 0.64705
 C883 C 0.25193 0.08138 0.59877
 C884 C 0.25993 0.05712 0.59499
 H885 H 0.26796 0.13192 0.69846
 H886 H 0.27873 0.09388 0.67481
 H887 H 0.27923 0.07115 0.63729
 H888 H 0.22759 0.12255 0.61191
 H889 H 0.22764 0.14558 0.64907
 H890 H 0.24388 0.09117 0.58438
 H891 H 0.21766 0.14968 0.68912
 H892 H 0.26868 0.04729 0.60885
   
