data_POSCAR
  _audit_creation_date              2014-09-24
  _audit_creation_method            'ToBaCCo'
  _symmetry_space_group_name_H-M    'P1'
  _symmetry_Int_Tables_number       1
  _symmetry_cell_setting            triclinic
  loop_
  _symmetry_equiv_pos_as_xyz
 x,y,z
_cell_length_a 24.9209
_cell_length_b 24.9654
_cell_length_c 34.3951
_cell_angle_alpha 92.060300
_cell_angle_beta 87.228600
_cell_angle_gamma 90.035900
loop_
  _atom_site_label
  _atom_site_type_symbol
  _atom_site_fract_x
  _atom_site_fract_y
  _atom_site_fract_z
C1 C -0.00376 0.49655 0.98160
 C2 C 0.00073 0.49879 1.02095
 C3 C 0.00066 0.55046 1.04358
 C4 C 0.00645 0.44981 1.04346
 C5 C -0.00701 0.44460 0.95920
 C6 C -0.00469 0.54605 0.95887
 C7 C 0.04526 0.56485 1.06468
 C8 C 0.04652 0.61377 1.08553
 C9 C 0.00244 0.64989 1.08664
 C10 C -0.04296 0.63377 1.06570
 C11 C -0.04357 0.58501 1.04441
 C12 C 0.05086 0.41571 1.03658
 C13 C 0.05556 0.36953 1.05802
 C14 C 0.01569 0.35643 1.08654
 C15 C -0.02868 0.39102 1.09322
 C16 C -0.03287 0.43750 1.07221
 C17 C -0.04458 0.40522 0.97000
 C18 C -0.04620 0.35622 0.94913
 C19 C -0.01122 0.34604 0.91633
 C20 C 0.02511 0.38635 0.90488
 C21 C 0.02727 0.43495 0.92614
 C22 C -0.04665 0.55443 0.93403
 C23 C -0.04786 0.60056 0.91226
 C24 C -0.00697 0.63922 0.91481
 C25 C 0.03540 0.63035 0.93941
 C26 C 0.03674 0.58403 0.96097
 H27 H 0.07952 0.53816 1.06481
 H28 H 0.08148 0.62115 1.10231
 H29 H -0.07741 0.65953 1.06355
 H30 H -0.07851 0.57435 1.02826
 H31 H 0.08194 0.42508 1.01478
 H32 H 0.09075 0.34450 1.05256
 H33 H -0.06747 0.46338 1.07778
 H34 H -0.07256 0.41228 0.99472
 H35 H -0.07445 0.32611 0.95903
 H36 H 0.05170 0.38062 0.87924
 H37 H 0.05606 0.46502 0.91691
 H38 H -0.07863 0.52527 0.93163
 H39 H -0.08049 0.60561 0.89305
 H40 H 0.06730 0.65946 0.94230
 H41 H 0.07015 0.57778 0.97928
 H42 H -0.06074 0.38184 1.11427
 C43 C 0.50133 0.00962 0.48041
 C44 C 0.49799 0.00613 0.51985
 C45 C 0.44547 0.00581 0.54205
 C46 C 0.54648 0.00150 0.54274
 C47 C 0.55376 0.01184 0.45799
 C48 C 0.45238 0.00982 0.45759
 C49 C 0.40955 0.04893 0.54083
 C50 C 0.35977 0.04758 0.56136
 C51 C 0.34514 0.00304 0.58340
 C52 C 0.38156 -0.03972 0.58490
 C53 C 0.43139 -0.03817 0.56460
 C54 C 0.55840 0.04210 0.57012
 C55 C 0.60449 0.03887 0.59142
 C56 C 0.63901 -0.00575 0.58645
 C57 C 0.62626 -0.04685 0.55930
 C58 C 0.58054 -0.04312 0.53753
 C59 C 0.56417 -0.02421 0.42632
 C60 C 0.61332 -0.02320 0.40510
 C61 C 0.65329 0.01391 0.41513
 C62 C 0.64239 0.05068 0.44649
 C63 C 0.59293 0.04998 0.46746
 C64 C 0.41740 -0.03420 0.45747
 C65 C 0.37145 -0.03368 0.43576
 C66 C 0.35955 0.01097 0.41383
 C67 C 0.39501 0.05489 0.41398
 C68 C 0.44119 0.05408 0.43541
 H69 H 0.42004 0.08349 0.52390
 H70 H 0.33240 0.08097 0.55957
 H71 H 0.37166 -0.07416 0.60211
 H72 H 0.45875 -0.07166 0.56603
 H73 H 0.53252 0.07687 0.57438
 H74 H 0.61340 0.07183 0.61137
 H75 H 0.57146 -0.07512 0.51678
 H76 H 0.53431 -0.05356 0.41819
 H77 H 0.61979 -0.05125 0.38059
 H78 H 0.67231 0.07959 0.45518
 H79 H 0.58530 0.07912 0.49114
 H80 H 0.42596 -0.06907 0.47398
 H81 H 0.34569 -0.06861 0.43572
 H82 H 0.38675 0.09024 0.39795
 H83 H 0.46786 0.08836 0.43520
 H84 H 0.65118 -0.08228 0.55519
 C85 C 0.12677 0.00655 0.26123
 H86 H 0.13002 0.00231 0.22979
 C87 C 0.17307 0.00692 0.28252
 H88 H 0.21175 0.00199 0.26711
 C89 C 0.07197 0.01693 0.31922
 H90 H 0.03257 0.02180 0.33339
 C91 C 0.11723 0.01809 0.34163
 H92 H 0.11193 0.02398 0.37292
 N93 N 0.07745 0.01044 0.27980
 C94 C -0.02606 -0.06373 0.19398
 H95 H -0.05581 -0.03263 0.19158
 C96 C -0.02922 -0.11123 0.17145
 H97 H -0.06089 -0.11566 0.15113
 C98 C 0.05130 -0.09521 0.22339
 H99 H 0.08185 -0.08954 0.24434
 C100 C 0.04928 -0.14353 0.20183
 H101 H 0.07858 -0.17430 0.20660
 Zn102 Zn 0.01670 0.00906 0.24872
 N103 N 0.01451 -0.05607 0.21865
 C104 C 0.01790 0.06552 0.17750
 N105 N 0.02186 0.06931 0.21680
 C106 C 0.02972 0.11739 0.23544
 C107 C 0.03226 0.16438 0.21469
 C108 C 0.01926 0.11167 0.15565
 C109 C -0.05750 -0.02680 0.30565
 C110 C -0.10497 -0.02673 0.32893
 C111 C -0.13164 0.05456 0.29903
 C112 C -0.08341 0.05321 0.27659
 N113 N -0.04742 0.01304 0.28040
 H114 H 0.01286 0.02695 0.16298
 H115 H 0.03359 0.11917 0.26666
 H116 H 0.03903 0.20201 0.23028
 H117 H 0.01379 0.10777 0.12466
 H118 H -0.02844 -0.05862 0.30774
 H119 H -0.11160 -0.05831 0.34937
 H120 H -0.16022 0.08623 0.29486
 H121 H -0.07527 0.08377 0.25565
 C122 C 0.00900 -0.15193 0.17504
 C123 C 0.16872 0.01257 0.32336
 C124 C -0.14302 0.01422 0.32568
 C125 C 0.02600 0.16217 0.17425
 C126 C -0.05962 0.08310 0.78228
 H127 H -0.09274 0.07462 0.76398
 C128 C -0.05972 0.13097 0.80458
 H129 H -0.09307 0.15841 0.80290
 C130 C 0.02561 0.06007 0.80416
 H131 H 0.05994 0.03370 0.80265
 C132 C 0.02686 0.10712 0.82730
 H133 H 0.06134 0.11480 0.84462
 N134 N -0.01760 0.04835 0.78271
 C135 C 0.08002 -0.05662 0.71388
 H136 H 0.06964 -0.09282 0.72880
 C137 C 0.12779 -0.05450 0.69106
 H138 H 0.15414 -0.08904 0.68927
 C139 C 0.05892 0.03265 0.69900
 H140 H 0.03180 0.06650 0.70247
 C141 C 0.10618 0.03643 0.67572
 H142 H 0.11475 0.07322 0.66089
 Zn143 Zn -0.01629 -0.01519 0.75021
 N144 N 0.04687 -0.01332 0.71755
 C145 C -0.07254 -0.01284 0.68017
 N146 N -0.07786 -0.01649 0.71953
 C147 C -0.12716 -0.02039 0.73797
 C148 C -0.17353 -0.02068 0.71681
 C149 C -0.11796 -0.01201 0.65791
 C150 C 0.02419 -0.08372 0.80618
 C151 C 0.02626 -0.12931 0.82841
 C152 C -0.05257 -0.16286 0.79760
 C153 C -0.05291 -0.11680 0.77573
 N154 N -0.01535 -0.07780 0.78069
 H155 H -0.03310 -0.00987 0.66595
 H156 H -0.13039 -0.02334 0.76931
 H157 H -0.21208 -0.02495 0.73224
 H158 H -0.11264 -0.00736 0.62680
 H159 H 0.05489 -0.05365 0.80892
 H160 H 0.05780 -0.13291 0.84874
 H161 H -0.08259 -0.19352 0.79299
 H162 H -0.08279 -0.11295 0.75434
 C163 C 0.14155 -0.00746 0.67166
 C164 C -0.01612 0.14356 0.82765
 C165 C -0.01264 -0.16949 0.82440
 C166 C -0.16949 -0.01586 0.67617
 C167 C 0.05309 -0.27768 0.11678
 C168 C 0.00377 -0.30197 0.10719
 C169 C -0.04394 -0.27427 0.11994
 C170 C -0.04223 -0.22600 0.14179
 C171 C 0.00698 -0.20291 0.15128
 C172 C 0.05453 -0.22912 0.13811
 H173 H 0.09143 -0.29403 0.10625
 H174 H -0.08333 -0.29082 0.11552
 H175 H -0.07979 -0.20756 0.15217
 H176 H 0.09329 -0.21162 0.14368
 C177 C 0.04247 0.25971 0.09190
 C178 C 0.02001 0.30699 0.10921
 C179 C 0.00081 0.30641 0.14831
 C180 C 0.00283 0.25964 0.16924
 C181 C 0.02505 0.21225 0.15195
 C182 C 0.04528 0.21307 0.11306
 H183 H 0.05711 0.25834 0.06173
 H184 H -0.01585 0.34220 0.16293
 H185 H -0.01398 0.26057 0.19886
 H186 H 0.06345 0.17769 0.09888
 C187 C 0.26170 -0.04626 0.60444
 C188 C 0.29221 0.00106 0.60493
 C189 C 0.27223 0.04607 0.62665
 C190 C 0.22317 0.04349 0.64802
 C191 C 0.19285 -0.00407 0.64792
 C192 C 0.21252 -0.04875 0.62558
 H193 H 0.27573 -0.08128 0.58743
 H194 H 0.29521 0.08286 0.62790
 H195 H 0.20965 0.07838 0.66537
 H196 H 0.18973 -0.08565 0.62422
 C197 C -0.26465 -0.03318 0.59329
 C198 C -0.31206 -0.00921 0.60952
 C199 C -0.31220 0.01197 0.64797
 C200 C -0.26607 0.01005 0.66935
 C201 C -0.21866 -0.01403 0.65321
 C202 C -0.21870 -0.03590 0.61493
 H203 H -0.26267 -0.04929 0.56362
 H204 H -0.34811 0.02991 0.66179
 H205 H -0.26754 0.02817 0.69844
 H206 H -0.18332 -0.05549 0.60164
 C207 C -0.05730 -0.28540 0.88648
 C208 C -0.00838 -0.31160 0.89175
 C209 C 0.03914 -0.29052 0.87470
 C210 C 0.03778 -0.24434 0.85299
 C211 C -0.01116 -0.21834 0.84763
 C212 C -0.05869 -0.23939 0.86457
 H213 H -0.09451 -0.30001 0.89977
 H214 H 0.07736 -0.31022 0.87759
 H215 H 0.07494 -0.22946 0.83978
 H216 H -0.09688 -0.21976 0.86137
 C217 C 0.03504 0.27083 0.87732
 C218 C -0.01254 0.29377 0.89410
 C219 C -0.06127 0.26644 0.88927
 C220 C -0.06236 0.21754 0.86820
 C221 C -0.01485 0.19497 0.85098
 C222 C 0.03385 0.22234 0.85582
 H223 H 0.07345 0.29016 0.88093
 H224 H -0.09882 0.28311 0.90131
 H225 H -0.10052 0.19733 0.86561
 H226 H 0.07117 0.20678 0.84254
 C227 C -0.26754 0.06257 0.38495
 C228 C -0.29401 0.01413 0.39287
 C229 C -0.26994 -0.03424 0.37903
 C230 C -0.22107 -0.03418 0.35737
 C231 C -0.19467 0.01424 0.34929
 C232 C -0.21839 0.06261 0.36355
 H233 H -0.28516 0.10060 0.39478
 H234 H -0.28874 -0.07234 0.38508
 H235 H -0.20442 -0.07215 0.34646
 H236 H -0.19887 0.10061 0.35834
 C237 C 0.26241 -0.01157 0.40496
 C238 C 0.31056 0.01166 0.39077
 C239 C 0.31153 0.03549 0.35432
 C240 C 0.26554 0.03619 0.33266
 C241 C 0.21749 0.01259 0.34670
 C242 C 0.21655 -0.01132 0.38314
 H243 H 0.25995 -0.02961 0.43314
 H244 H 0.34805 0.05315 0.34222
 H245 H 0.26761 0.05564 0.30501
 H246 H 0.18052 -0.03050 0.39466
   
