data_POSCAR
  _audit_creation_date              2014-09-24
  _audit_creation_method            'ToBaCCo'
  _symmetry_space_group_name_H-M    'P1'
  _symmetry_Int_Tables_number       1
  _symmetry_cell_setting            triclinic
  loop_
  _symmetry_equiv_pos_as_xyz
 x,y,z
_cell_length_a 24.3898
_cell_length_b 25.4220
_cell_length_c 24.9916
_cell_angle_alpha 86.764600
_cell_angle_beta 88.862600
_cell_angle_gamma 86.857400
loop_
  _atom_site_label
  _atom_site_type_symbol
  _atom_site_fract_x
  _atom_site_fract_y
  _atom_site_fract_z
C1 C 0.16160 0.10902 0.19425
 C2 C 0.12347 0.09579 0.23523
 C3 C 0.07143 0.12216 0.23629
 C4 C 0.05658 0.16008 0.19574
 C5 C 0.09427 0.17423 0.15536
 C6 C 0.14708 0.14900 0.15457
 C7 C 0.21521 0.08595 0.19414
 C8 C 0.25365 0.10302 0.15536
 C9 C 0.23903 0.14198 0.11599
 C10 C 0.18637 0.16598 0.11589
 C11 C 0.17376 0.20948 0.08056
 C12 C 0.12172 0.23506 0.08276
 C13 C 0.08143 0.21599 0.11819
 H14 H 0.13470 0.06656 0.26696
 H15 H 0.01637 0.18040 0.19727
 H16 H 0.22785 0.05687 0.22553
 H17 H 0.26995 0.15588 0.08755
 H18 H 0.20458 0.22447 0.05271
 H19 H 0.04138 0.23667 0.11955
 C20 C -0.20180 0.85130 0.20950
 C21 C -0.18534 0.86903 0.25881
 C22 C -0.14508 0.83979 0.28919
 C23 C -0.12030 0.79343 0.26986
 C24 C -0.13644 0.77478 0.22127
 C25 C -0.17780 0.80350 0.19123
 C26 C -0.24099 0.88063 0.17756
 C27 C -0.25645 0.86236 0.12818
 C28 C -0.23392 0.81406 0.11155
 C29 C -0.19432 0.78487 0.14231
 C30 C -0.16872 0.73881 0.12334
 C31 C -0.12763 0.71044 0.15278
 C32 C -0.11192 0.72792 0.20215
 H33 H -0.20505 0.90437 0.27445
 H34 H -0.09011 0.77058 0.29409
 H35 H -0.25714 0.91886 0.18957
 H36 H -0.24436 0.80117 0.07254
 H37 H -0.17971 0.72536 0.08475
 H38 H -0.07937 0.70635 0.22436
 C39 C -0.18083 0.12710 -0.18006
 C40 C -0.14870 0.09422 -0.21304
 C41 C -0.09374 0.10510 -0.22594
 C42 C -0.07009 0.14730 -0.20300
 C43 C -0.10208 0.18145 -0.17117
 C44 C -0.15768 0.17158 -0.15995
 C45 C -0.23677 0.11875 -0.17013
 C46 C -0.26927 0.15463 -0.14083
 C47 C -0.24613 0.19835 -0.12071
 C48 C -0.19085 0.20760 -0.13070
 C49 C -0.16899 0.25369 -0.11420
 C50 C -0.11410 0.26378 -0.12591
 C51 C -0.08049 0.22714 -0.15308
 H52 H -0.16710 0.06167 -0.23086
 H53 H -0.02813 0.15604 -0.21376
 H54 H -0.25558 0.08592 -0.18711
 H55 H -0.27212 0.22665 -0.09957
 H56 H -0.19448 0.28166 -0.09225
 H57 H -0.03788 0.23527 -0.16146
 C58 C 0.18912 0.90185 -0.18157
 C59 C 0.18877 0.91261 -0.23706
 C60 C 0.15743 0.88354 -0.26961
 C61 C 0.12482 0.84398 -0.24649
 C62 C 0.12403 0.83320 -0.19047
 C63 C 0.15606 0.86277 -0.15783
 C64 C 0.22537 0.92672 -0.15001
 C65 C 0.22944 0.91301 -0.09506
 C66 C 0.19379 0.87731 -0.07051
 C67 C 0.15768 0.85123 -0.10182
 C68 C 0.12686 0.81065 -0.07877
 C69 C 0.09727 0.77934 -0.11093
 C70 C 0.09506 0.79122 -0.16674
 H71 H 0.21494 0.94199 -0.25542
 H72 H 0.10174 0.82060 -0.27216
 H73 H 0.25282 0.95483 -0.16855
 H74 H 0.19745 0.86677 -0.02802
 H75 H 0.12928 0.80048 -0.03612
 H76 H 0.07241 0.76681 -0.19169
 C77 C 0.10370 1.19633 0.77993
 C78 C 0.09291 1.17306 0.73198
 C79 C 0.11993 1.12523 0.71940
 C80 C 0.15367 1.09751 0.75753
 C81 C 0.16408 1.11973 0.80651
 C82 C 0.14020 1.17012 0.81706
 C83 C 0.08403 1.24816 0.78798
 C84 C 0.10222 1.27493 0.83112
 C85 C 0.13709 1.24863 0.86901
 C86 C 0.15655 1.19629 0.86218
 C87 C 0.19649 1.17183 0.89640
 C88 C 0.22044 1.12179 0.88595
 C89 C 0.20274 1.09531 0.84214
 H90 H 0.06789 1.19474 0.70185
 H91 H 0.17539 1.06101 0.74719
 H92 H 0.05842 1.26944 0.75807
 H93 H 0.15215 1.27016 0.90148
 H94 H 0.21087 1.19269 0.92963
 H95 H 0.22266 1.05752 0.83339
 C96 C 0.88890 0.80487 0.84809
 C97 C 0.92851 0.81180 0.80785
 C98 C 0.92277 0.85417 0.77018
 C99 C 0.87894 0.89184 0.77360
 C100 C 0.83873 0.88567 0.81399
 C101 C 0.84318 0.84124 0.85076
 C102 C 0.89329 0.76107 0.88445
 C103 C 0.85201 0.75278 0.92286
 C104 C 0.80629 0.78841 0.92577
 C105 C 0.80158 0.83268 0.88968
 C106 C 0.75587 0.86822 0.89137
 C107 C 0.75198 0.91298 0.85584
 C108 C 0.79370 0.92225 0.81779
 H109 H 0.96300 0.78326 0.80454
 H110 H 0.87545 0.92475 0.74408
 H111 H 0.92804 0.73268 0.88214
 H112 H 0.77419 0.78113 0.95550
 H113 H 0.72385 0.86225 0.92148
 H114 H 0.79056 0.95726 0.79095
 C115 C 0.11248 0.80468 1.16275
 C116 C 0.07473 0.82774 1.19913
 C117 C 0.08773 0.87291 1.22497
 C118 C 0.13693 0.89721 1.21169
 C119 C 0.17470 0.87515 1.17527
 C120 C 0.16300 0.82827 1.15126
 C121 C 0.10273 0.75621 1.14117
 C122 C 0.14277 0.73139 1.10872
 C123 C 0.19181 0.75602 1.09584
 C124 C 0.20281 0.80389 1.11753
 C125 C 0.25383 0.82660 1.10807
 C126 C 0.26482 0.87388 1.13129
 C127 C 0.22492 0.89814 1.16414
 H128 H 0.03718 0.80863 1.21027
 H129 H 0.14673 0.93210 1.23184
 H130 H 0.06588 0.73602 1.15257
 H131 H 0.22321 0.73572 1.07213
 H132 H 0.28418 0.80857 1.08156
 H133 H 0.23339 0.93508 1.18120
 C134 C 0.87756 1.17767 1.21349
 C135 C 0.87699 1.15488 1.26630
 C136 C 0.84654 1.11023 1.27911
 C137 C 0.81743 1.08796 1.23955
 C138 C 0.81626 1.11089 1.18754
 C139 C 0.84683 1.15536 1.17392
 C140 C 0.90526 1.22396 1.20005
 C141 C 0.90364 1.24695 1.14753
 C142 C 0.87333 1.22396 1.10848
 C143 C 0.84385 1.17925 1.12155
 C144 C 0.80809 1.16042 1.08443
 C145 C 0.77461 1.11910 1.10000
 C146 C 0.78088 1.09283 1.15038
 H147 H 0.89823 1.17289 1.29768
 H148 H 0.79260 1.05469 1.25035
 H149 H 0.92780 1.24233 1.23024
 H150 H 0.87042 1.24258 1.06846
 H151 H 0.80291 1.18045 1.04525
 H152 H 0.75511 1.06044 1.16175
 O153 O 0.41453 0.94337 0.90917
 O154 O 0.36106 0.97807 0.97658
 C155 C 0.36795 0.95104 0.93426
 O156 O 0.60772 0.92481 1.06533
 O157 O 0.64837 0.98552 1.00801
 C158 C 0.65076 0.94599 1.04277
 O159 O 0.45216 0.90377 1.08499
 O160 O 0.37979 0.96100 1.06086
 C161 C 0.39970 0.91745 1.08354
 O162 O 0.56510 0.95378 0.87783
 O163 O 0.62825 1.00040 0.91933
 C164 C 0.61483 0.96770 0.88457
 Zr165 Zr 0.49243 0.97223 0.92291
 O166 O 0.49577 0.89167 0.90513
 O167 O 0.47537 0.99540 0.84218
 Zr168 Zr 0.52154 0.94547 1.05362
 O169 O 0.53706 0.86475 1.03920
 O170 O 0.53246 0.92732 1.13656
 O171 O 0.46042 0.94533 0.99654
 O172 O 0.55437 0.95329 0.97734
 O173 O 0.54218 1.13622 0.89823
 O174 O 0.61770 1.08685 0.92892
 C175 C 0.59440 1.12435 0.89837
 O176 O 0.44020 1.08709 1.12559
 O177 O 0.37363 1.04769 1.08089
 C178 C 0.39074 1.07230 1.12118
 O179 O 0.58865 1.09564 1.09359
 O180 O 0.64000 1.06868 1.02137
 C181 C 0.63464 1.08999 1.06713
 O182 O 0.39520 1.12969 0.93873
 O183 O 0.35163 1.06559 0.98888
 C184 C 0.35133 1.10800 0.95737
 Zr185 Zr 0.47864 1.10281 0.94455
 O186 O 0.47582 1.18234 0.96530
 O187 O 0.45490 1.12484 0.86515
 Zr188 Zr 0.50852 1.07668 1.07390
 O189 O 0.50199 1.15984 1.07757
 O190 O 0.52501 1.07081 1.15674
 Zr191 Zr 0.42069 1.01807 1.01566
 Zr192 Zr 0.57951 1.03090 0.98152
 O193 O 0.53996 1.10312 1.00044
 O194 O 0.44404 1.09599 1.02147
 O195 O 0.53049 1.04327 0.91315
 O196 O 0.47122 1.00498 1.08308
 O197 O 0.43732 1.03554 0.93386
 O198 O 0.56424 1.01292 1.06382
 H199 H 0.58200 0.92471 0.96927
 H200 H 0.45496 0.99466 1.11850
 H201 H 0.56232 1.13457 0.99951
 H202 H 0.40710 1.03971 0.90780
 H203 H 0.56127 0.94978 1.14842
 H204 H 0.52895 1.03271 1.16704
 H205 H 0.46240 1.17083 1.07767
 H206 H 0.46631 1.20366 0.93205
 H207 H 0.46789 1.09556 0.84288
 H208 H 0.47442 0.96230 0.82319
 H209 H 0.52501 0.87329 0.92703
 H210 H 0.50631 0.85420 1.01762
 O211 O 0.07673 0.45780 -0.14202
 O212 O 0.04918 0.38586 -0.09090
 C213 C 0.07146 0.40749 -0.13372
 O214 O 0.13246 0.55192 0.06739
 O215 O 0.06745 0.61871 0.04821
 C216 C 0.11347 0.60022 0.06953
 O217 O 0.14073 0.41055 0.03350
 O218 O 0.07666 0.36464 -0.00724
 C219 C 0.12157 0.36701 0.01868
 O220 O 0.06198 0.60160 -0.11603
 O221 O 0.03375 0.64199 -0.03964
 C222 C 0.05327 0.64302 -0.08850
 Zr223 Zr 0.05365 0.52103 -0.09332
 O224 O 0.13516 0.53283 -0.12016
 O225 O 0.02510 0.53566 -0.17245
 Zr226 Zr 0.10210 0.48798 0.03003
 O227 O 0.17925 0.49757 -0.00808
 O228 O 0.14067 0.46670 0.10367
 O229 O 0.09024 0.45962 -0.04489
 O230 O 0.08526 0.55011 -0.02537
 O231 O -0.11895 0.58439 -0.04267
 O232 O -0.05518 0.63380 -0.00520
 C233 C -0.10361 0.62770 -0.02393
 O234 O -0.04533 0.39773 0.09647
 O235 O -0.01178 0.35830 0.02126
 C236 C -0.03607 0.35684 0.06779
 O237 O -0.04827 0.54262 0.12828
 O238 O -0.02020 0.61340 0.07562
 C239 C -0.04365 0.59303 0.11816
 O240 O -0.11070 0.43967 -0.07185
 O241 O -0.03878 0.37874 -0.05940
 C242 C -0.08792 0.39228 -0.07470
 Zr243 Zr -0.07633 0.50982 -0.04643
 O244 O -0.16002 0.50744 -0.02330
 O245 O -0.10025 0.52683 -0.12683
 Zr246 Zr -0.02776 0.47828 0.07856
 O247 O -0.10793 0.47543 0.11218
 O248 O 0.00555 0.45446 0.15427
 Zr249 Zr 0.01645 0.42410 -0.02356
 Zr250 Zr 0.00925 0.57559 0.00814
 O251 O -0.06339 0.53679 0.02858
 O252 O -0.06003 0.44818 0.01041
 O253 O -0.01766 0.56388 -0.06980
 O254 O 0.04223 0.43687 0.05431
 O255 O -0.01264 0.47353 -0.08830
 O256 O 0.03882 0.52622 0.07328
 H257 H 0.11406 0.57598 -0.03100
 H258 H 0.05315 0.40674 0.07940
 H259 H -0.09569 0.55511 0.04528
 H260 H -0.02255 0.45748 -0.12177
 H261 H 0.11091 0.46171 0.13055
 H262 H 0.02480 0.48460 0.16693
 H263 H -0.12952 0.45487 0.08852
 H264 H -0.16208 0.48074 0.00687
 H265 H -0.09775 0.56524 -0.13463
 H266 H -0.00721 0.56080 -0.17066
 H267 H 0.15774 0.50060 -0.10931
 H268 H 0.20690 0.48983 0.02017
 O269 O 1.13366 -0.08902 0.54457
 O270 O 1.09078 -0.05017 0.61594
 C271 C 1.13013 -0.07908 0.59493
 O272 O 1.03370 0.09387 0.39930
 O273 O 0.98520 0.03196 0.35985
 C274 C 1.00880 0.07636 0.35887
 O275 O 1.08984 0.09134 0.53962
 O276 O 1.06891 0.03911 0.61430
 C277 C 1.09377 0.07788 0.59038
 O278 O 1.08835 -0.09476 0.40359
 O279 O 1.01092 -0.05952 0.36132
 C280 C 1.05799 -0.08627 0.36178
 Zr281 Zr 1.07775 -0.06878 0.48175
 O282 O 1.15527 -0.04779 0.45007
 O283 O 1.10423 -0.14955 0.48585
 Zr284 Zr 1.04318 0.06061 0.47897
 O285 O 1.12087 0.07644 0.44430
 O286 O 1.02490 0.14257 0.48403
 O287 O 1.08479 -0.00070 0.52286
 O288 O 1.05522 -0.00368 0.43257
 O289 O 0.90795 -0.13119 0.46595
 O290 O 0.92340 -0.07662 0.39145
 C291 C 0.90159 -0.11734 0.41575
 O292 O 0.89927 0.05188 0.60267
 O293 O 0.97929 0.02233 0.64361
 C294 C 0.93028 0.04540 0.64404
 O295 O 0.86235 0.05931 0.45969
 O296 O 0.90350 0.01921 0.38820
 C297 C 0.86613 0.05053 0.40927
 O298 O 0.95687 -0.12694 0.60658
 O299 O 1.00743 -0.06608 0.64531
 C300 C 0.98282 -0.10982 0.64653
 Zr301 Zr 0.94951 -0.09559 0.52614
 O302 O 0.86757 -0.10818 0.55120
 O303 O 0.96908 -0.17783 0.53175
 Zr304 Zr 0.91516 0.03395 0.52277
 O305 O 0.83277 0.01762 0.54245
 O306 O 0.89599 0.11569 0.52878
 Zr307 Zr 1.02022 -0.01486 0.57845
 Zr308 Zr 0.97205 -0.02058 0.42612
 O309 O 0.90885 -0.03402 0.48290
 O310 O 0.93678 -0.03148 0.57366
 O311 O 1.00202 -0.09452 0.45890
 O312 O 0.99045 0.05866 0.54490
 O313 O 1.03006 -0.09034 0.54727
 O314 O 0.96232 0.05568 0.45578
 H315 H 1.07733 0.00229 0.39930
 H316 H 0.98962 0.08956 0.56740
 H317 H 0.87157 -0.03960 0.46999
 H318 H 1.04569 -0.12144 0.56856
 H319 H 0.99076 0.15153 0.46406
 H320 H 0.90589 0.13367 0.49410
 H321 H 0.83362 -0.01021 0.57175
 H322 H 0.86327 -0.09816 0.58882
 H323 H 0.98790 -0.18706 0.49787
 H324 H 1.07482 -0.16912 0.47067
 H325 H 1.17462 -0.03071 0.47829
 H326 H 1.14909 0.05811 0.46752
 N327 N 1.03698 0.11434 0.27629
 N328 N 1.00177 0.11023 0.31198
 N329 N 0.86166 -0.15098 0.33954
 N330 N 0.86496 -0.14820 0.38839
 N331 N 0.93495 0.07998 0.73086
 N332 N 0.90736 0.06628 0.69184
 N333 N 1.16326 -0.10991 0.67828
 N334 N 1.17076 -0.10426 0.62941
 N335 N 0.30546 1.08948 1.16069
 N336 N 0.35499 1.08036 1.16595
 N337 N 0.27420 0.93058 0.93397
 N338 N 0.32129 0.93067 0.91119
 N339 N 0.72004 0.89500 1.09209
 N340 N 0.70537 0.92615 1.05493
 N341 N 0.67739 1.15244 0.86104
 N342 N 0.62689 1.15424 0.86108
 N343 N 0.10935 0.28376 0.05377
 N344 N 0.14410 0.31820 0.04131
 N345 N -0.09039 0.30967 -0.10823
 N346 N -0.11769 0.35161 -0.09586
 N347 N 0.07603 0.73204 -0.08655
 N348 N 0.06915 0.69198 -0.11344
 N349 N -0.09874 0.66775 0.12786
 N350 N -0.07183 0.62940 0.15191
 N351 N 1.12334 0.11369 0.66895
 N352 N 1.12899 0.10765 0.62050
 N353 N 0.95719 -0.14375 0.72998
 N354 N 0.99042 -0.14412 0.69262
 N355 N 1.05578 -0.11042 0.27030
 N356 N 1.08139 -0.10525 0.31334
 N357 N 0.83831 0.09365 0.32890
 N358 N 0.82725 0.07902 0.37547
 N359 N 0.09540 0.32637 -0.17031
 N360 N 0.09137 0.37489 -0.17525
 N361 N -0.07055 0.29562 0.13449
 N362 N -0.05645 0.30729 0.08614
 N363 N -0.14569 0.70972 -0.04630
 N364 N -0.14497 0.66874 -0.01785
 N365 N 0.14133 0.68096 0.10152
 N366 N 0.14667 0.63278 0.09872
 N367 N 0.26842 1.10059 0.91364
 N368 N 0.30023 1.12974 0.93702
 N369 N 0.31194 0.90263 1.11564
 N370 N 0.36007 0.88258 1.10624
 N371 N 0.72879 1.10845 1.06854
 N372 N 0.68240 1.10540 1.09231
 N373 N 0.70782 0.95103 0.86328
 N374 N 0.65850 0.93793 0.85988
   
