data_POSCAR
  _audit_creation_date              2014-09-24
  _audit_creation_method            'ToBaCCo'
  _symmetry_space_group_name_H-M    'P1'
  _symmetry_Int_Tables_number       1
  _symmetry_cell_setting            triclinic
  loop_
  _symmetry_equiv_pos_as_xyz
 x,y,z
_cell_length_a 44.1315
_cell_length_b 45.2722
_cell_length_c 6.7883
_cell_angle_alpha 89.990100
_cell_angle_beta 90.416400
_cell_angle_gamma 90.002200
loop_
  _atom_site_label
  _atom_site_type_symbol
  _atom_site_fract_x
  _atom_site_fract_y
  _atom_site_fract_z
O1 O 0.23365 0.27856 0.01202
 O2 O 0.28682 0.22098 0.17964
 O3 O 0.23342 0.22063 0.01477
 O4 O 0.28671 0.27826 0.18161
 O5 O 0.26568 0.27862 0.47593
 O6 O 0.21256 0.22102 0.30956
 O7 O 0.26590 0.22077 0.47427
 O8 O 0.21267 0.27826 0.30646
 Cu9 Cu 0.26230 0.24960 0.06810
 Cu10 Cu 0.23705 0.24967 0.42015
 C11 C 0.21402 0.28805 0.13195
 C12 C 0.28553 0.21126 0.35436
 C13 C 0.21383 0.21116 0.13528
 C14 C 0.28535 0.28807 0.35614
 O15 O 0.78650 0.27796 0.31317
 O16 O 0.73326 0.22033 0.47559
 O17 O 0.78669 0.22068 0.31626
 O18 O 0.73352 0.27824 0.47863
 O19 O 0.71236 0.27790 0.18276
 O20 O 0.76571 0.22042 0.01985
 O21 O 0.71230 0.22063 0.17915
 O22 O 0.76534 0.27833 0.01732
 Cu23 Cu 0.76215 0.24930 0.42486
 Cu24 Cu 0.73678 0.24932 0.07085
 C25 C 0.78505 0.28780 0.13861
 C26 C 0.71363 0.21081 0.35371
 C27 C 0.78537 0.21092 0.14159
 C28 C 0.71379 0.28770 0.35742
 O29 O 0.71376 0.72110 0.81050
 O30 O 0.76714 0.77856 0.97741
 O31 O 0.71370 0.77835 0.81419
 O32 O 0.76683 0.72069 0.97968
 O33 O 0.78776 0.72106 0.68515
 O34 O 0.73446 0.77871 0.51909
 O35 O 0.78795 0.77832 0.68249
 O36 O 0.73467 0.72078 0.51587
 Cu37 Cu 0.73822 0.74966 0.92409
 Cu38 Cu 0.76335 0.74971 0.57178
 C39 C 0.71503 0.71132 0.63590
 C40 C 0.78672 0.78807 0.85711
 C41 C 0.71492 0.78820 0.63985
 C42 C 0.78646 0.71123 0.85970
 O43 O 0.28692 0.77899 0.82002
 O44 O 0.23374 0.72144 0.98299
 O45 O 0.28677 0.72172 0.81777
 O46 O 0.23359 0.77936 0.98066
 O47 O 0.21255 0.77905 0.68448
 O48 O 0.26563 0.72140 0.52179
 O49 O 0.21260 0.72175 0.68706
 O50 O 0.26586 0.77929 0.52379
 Cu51 Cu 0.26241 0.75037 0.92932
 Cu52 Cu 0.23699 0.75037 0.57541
 C53 C 0.28555 0.78877 0.64535
 C54 C 0.21402 0.71196 0.86178
 C55 C 0.28535 0.71193 0.64306
 C56 C 0.21393 0.78888 0.85899
 C57 C 0.97373 -0.06190 0.06570
 C58 C 1.00137 -0.07675 0.08088
 C59 C 1.02883 -0.06168 0.06305
 C60 C 1.02892 -0.03082 0.03204
 C61 C 1.00096 -0.01546 0.01752
 C62 C 0.97322 -0.03105 0.03465
 C63 C 0.94576 -0.01543 0.01837
 C64 C 0.94555 0.01495 -0.01395
 C65 C 0.97278 0.03082 -0.03168
 C66 C 1.00074 0.01548 -0.01655
 C67 C 1.05615 -0.01497 0.01330
 C68 C 1.05594 0.01544 -0.01799
 C69 C 1.02849 0.03108 -0.03295
 C70 C 1.02799 0.06198 -0.06222
 C71 C 1.00033 0.07682 -0.07775
 C72 C 0.97287 0.06170 -0.06205
 H73 H 0.92416 -0.02660 0.03108
 H74 H 0.92380 0.02591 -0.02516
 H75 H 1.07790 -0.02596 0.02355
 H76 H 1.07753 0.02659 -0.03113
 H77 H 1.00152 -0.10054 0.10133
 H78 H 1.00019 0.10063 -0.09687
 C79 C 0.47221 0.43807 0.56170
 C80 C 0.49977 0.42306 0.57637
 C81 C 0.52731 0.43803 0.56086
 C82 C 0.52759 0.46895 0.53248
 C83 C 0.49972 0.48446 0.51769
 C84 C 0.47188 0.46896 0.53221
 C85 C 0.44451 0.48472 0.51522
 C86 C 0.44449 0.51516 0.48537
 C87 C 0.47182 0.53095 0.47069
 C88 C 0.49969 0.51545 0.48604
 C89 C 0.55492 0.48472 0.51687
 C90 C 0.55489 0.51517 0.48796
 C91 C 0.52753 0.53095 0.47207
 C92 C 0.52722 0.56188 0.44436
 C93 C 0.49965 0.57689 0.42933
 C94 C 0.47209 0.56187 0.44260
 H95 H 0.42285 0.47361 0.52523
 H96 H 0.42281 0.52622 0.47342
 H97 H 0.57660 0.47362 0.52749
 H98 H 0.57655 0.52627 0.47780
 H99 H 0.49978 0.39924 0.59497
 H100 H 0.49964 0.60072 0.41166
 C101 C 0.02711 0.56198 0.05880
 C102 C -0.00038 0.57705 0.07338
 C103 C -0.02800 0.56211 0.05925
 C104 C -0.02842 0.53119 0.03102
 C105 C -0.00062 0.51561 0.01697
 C106 C 0.02729 0.53105 0.03124
 C107 C 0.05458 0.51519 0.01629
 C108 C 0.05446 0.48471 -0.01144
 C109 C 0.02705 0.46900 -0.02683
 C110 C -0.00075 0.48460 -0.01349
 C111 C -0.05583 0.51550 0.01468
 C112 C -0.05595 0.48505 -0.01439
 C113 C -0.02866 0.46917 -0.02860
 C114 C -0.02847 0.43824 -0.05598
 C115 C -0.00097 0.42313 -0.06862
 C116 C 0.02664 0.43806 -0.05379
 H117 H 0.07629 0.52623 0.02658
 H118 H 0.07609 0.47355 -0.02139
 H119 H -0.07746 0.52667 0.02460
 H120 H -0.07766 0.47403 -0.02582
 H121 H -0.00030 0.60088 0.09138
 H122 H -0.00105 0.39929 -0.08576
 C123 C 0.52817 1.06195 0.56270
 C124 C 0.50066 1.07693 0.58040
 C125 C 0.47307 1.06198 0.56476
 C126 C 0.47268 1.03113 0.53373
 C127 C 0.50048 1.01564 0.51663
 C128 C 0.52838 1.03109 0.53136
 C129 C 0.55567 1.01535 0.51232
 C130 C 0.55557 0.98496 0.48051
 C131 C 0.52818 0.96922 0.46543
 C132 C 0.50038 0.98471 0.48228
 C133 C 0.44528 1.01541 0.51763
 C134 C 0.44518 0.98503 0.48544
 C135 C 0.47248 0.96926 0.46749
 C136 C 0.47269 0.93838 0.43728
 C137 C 0.50020 0.92338 0.42070
 C138 C 0.52780 0.93833 0.43570
 H139 H 0.57737 1.02642 0.52256
 H140 H 0.57721 0.97389 0.46737
 H141 H 0.42364 1.02649 0.53051
 H142 H 0.42348 0.97399 0.47419
 H143 H 0.50072 1.10071 0.60093
 H144 H 0.50014 0.89957 0.40146
 C145 C 1.11751 0.13293 -0.20586
 C146 C 1.11788 0.16029 -0.06874
 C147 C 1.14957 0.15129 0.00481
 C148 C 1.14966 0.12424 -0.13175
 C149 C 1.10373 0.11467 -0.03802
 C150 C 1.13539 0.10562 0.03569
 C151 C 1.10376 0.14173 0.09845
 C152 C 1.13574 0.13300 0.17235
 C153 C 1.17418 0.17241 0.03904
 C154 C 1.19339 0.19041 0.07864
 C155 C 1.07750 0.09502 -0.05509
 C156 C 1.05528 0.07958 -0.06209
 H157 H 1.10962 0.13265 -0.36152
 H158 H 1.11096 0.18298 -0.11173
 H159 H 1.16880 0.11730 -0.22628
 H160 H 1.14224 0.08293 0.07913
 H161 H 1.08468 0.14871 0.19354
 H162 H 1.14356 0.13323 0.32817
 C163 C 0.61715 0.63211 0.29119
 C164 C 0.61766 0.65966 0.42672
 C165 C 0.64932 0.65065 0.50076
 C166 C 0.64930 0.62341 0.36567
 C167 C 0.60334 0.61412 0.46030
 C168 C 0.63498 0.60506 0.53437
 C169 C 0.60350 0.64138 0.59512
 C170 C 0.63544 0.63261 0.66940
 C171 C 0.67403 0.67164 0.53514
 C172 C 0.69335 0.68951 0.57514
 C173 C 0.57698 0.59459 0.44623
 C174 C 0.55464 0.57930 0.44209
 H175 H 0.60924 0.63164 0.13561
 H176 H 0.61082 0.68232 0.38242
 H177 H 0.66842 0.61634 0.27135
 H178 H 0.64180 0.58240 0.57867
 H179 H 0.58444 0.64855 0.68963
 H180 H 0.64329 0.63305 0.82512
 C181 C -0.10463 0.35985 0.10528
 C182 C -0.13699 0.36873 0.16757
 C183 C -0.14989 0.34891 0.00345
 C184 C -0.11781 0.33978 -0.05855
 C185 C -0.10438 0.38578 -0.04073
 C186 C -0.11720 0.36600 -0.20533
 C187 C -0.13644 0.39496 0.02119
 C188 C -0.14977 0.37480 -0.14296
 C189 C -0.17432 0.32772 0.03909
 C190 C -0.19343 0.30973 0.07909
 C191 C -0.07820 0.40550 -0.05557
 C192 C -0.05593 0.42087 -0.05943
 H193 H -0.08583 0.35391 0.20734
 H194 H -0.14536 0.36965 0.32133
 H195 H -0.11040 0.31689 -0.09142
 H196 H -0.10876 0.36513 -0.35895
 H197 H -0.14378 0.41788 0.05383
 H198 H -0.16860 0.38066 -0.24493
 C199 C 0.38342 0.86643 0.29979
 C200 C 0.38288 0.84016 0.44606
 C201 C 0.35100 0.84952 0.51077
 C202 C 0.35107 0.87548 0.36499
 C203 C 0.39675 0.88604 0.46359
 C204 C 0.36489 0.89546 0.52837
 C205 C 0.39655 0.86005 0.60917
 C206 C 0.36438 0.86916 0.67427
 C207 C 0.32641 0.82850 0.54659
 C208 C 0.30717 0.81062 0.58616
 C209 C 0.42300 0.90560 0.44510
 C210 C 0.44528 0.92094 0.43762
 H211 H 0.39155 0.86555 0.14546
 H212 H 0.39003 0.81721 0.41250
 H213 H 0.33211 0.88155 0.26448
 H214 H 0.35780 0.91842 0.56205
 H215 H 0.41546 0.85392 0.70996
 H216 H 0.35632 0.87007 0.82878
 C217 C -0.11677 0.63410 0.20785
 C218 C -0.11743 0.66067 0.06378
 C219 C -0.14943 0.65154 -0.00287
 C220 C -0.14926 0.62530 0.14080
 C221 C -0.10376 0.61478 0.04267
 C222 C -0.13575 0.60560 -0.02390
 C223 C -0.10407 0.64105 -0.10059
 C224 C -0.13635 0.63216 -0.16752
 C225 C -0.17394 0.67265 -0.04017
 C226 C -0.19308 0.69058 -0.08226
 C227 C -0.07757 0.59506 0.05815
 C228 C -0.05534 0.57962 0.06232
 H229 H -0.10839 0.63465 0.36244
 H230 H -0.11017 0.68352 0.09993
 H231 H -0.16810 0.61912 0.24015
 H232 H -0.14296 0.58272 -0.05977
 H233 H -0.08527 0.64733 -0.20003
 H234 H -0.14465 0.63157 -0.32229
 C235 C 0.39695 1.14101 0.40102
 C236 C 0.36499 1.13196 0.32857
 C237 C 0.35114 1.15071 0.49373
 C238 C 0.38281 1.16000 0.56583
 C239 C 0.39710 1.11433 0.54087
 C240 C 0.38332 1.13304 0.70643
 C241 C 0.36545 1.10499 0.46880
 C242 C 0.35117 1.12405 0.63383
 C243 C 0.32646 1.17164 0.45682
 C244 C 0.30718 1.18947 0.41567
 C245 C 0.42342 1.09481 0.55896
 C246 C 0.44571 1.07947 0.56572
 H247 H 0.41598 1.14778 0.30487
 H248 H 0.35718 1.13172 0.17267
 H249 H 0.38970 1.18283 0.60589
 H250 H 0.39121 1.13323 0.86212
 H251 H 0.35863 1.08215 0.42874
 H252 H 0.33210 1.11736 0.72980
 C253 C 1.11798 -0.13367 0.20190
 C254 C 1.11823 -0.16015 0.05732
 C255 C 1.15011 -0.15108 -0.00910
 C256 C 1.15033 -0.12490 0.13500
 C257 C 1.10464 -0.11421 0.03727
 C258 C 1.13649 -0.10508 -0.02921
 C259 C 1.10455 -0.14041 -0.10661
 C260 C 1.13671 -0.13158 -0.17337
 C261 C 1.17451 -0.17230 -0.04500
 C262 C 1.19357 -0.19035 -0.08510
 C263 C 1.07850 -0.09448 0.05530
 C264 C 1.05627 -0.07909 0.06262
 H265 H 1.10992 -0.13428 0.35642
 H266 H 1.11097 -0.18301 0.09274
 H267 H 1.16941 -0.11879 0.23423
 H268 H 1.14367 -0.08220 -0.06482
 H269 H 1.08551 -0.14657 -0.20635
 H270 H 1.14471 -0.13092 -0.32801
 C271 C 0.60384 0.36037 0.38760
 C272 C 0.63649 0.36946 0.33353
 C273 C 0.64861 0.34859 0.49434
 C274 C 0.61624 0.33925 0.54808
 C275 C 0.60308 0.38539 0.54033
 C276 C 0.61513 0.36456 0.70159
 C277 C 0.63544 0.39479 0.48670
 C278 C 0.64799 0.37357 0.64747
 C279 C 0.67307 0.32747 0.45775
 C280 C 0.69222 0.30955 0.41721
 C281 C 0.57693 0.40512 0.55676
 C282 C 0.55470 0.42055 0.56225
 H283 H 0.58548 0.35514 0.28043
 H284 H 0.64544 0.37126 0.18144
 H285 H 0.60859 0.31621 0.57331
 H286 H 0.60610 0.36280 0.85342
 H287 H 0.64303 0.41785 0.46152
 H288 H 0.66642 0.37871 0.75423
 C289 C 0.88479 -0.13394 0.20683
 C290 C 0.85240 -0.12497 0.13887
 C291 C 0.85223 -0.15115 -0.00516
 C292 C 0.88414 -0.16043 0.06228
 C293 C 0.89801 -0.11458 0.04257
 C294 C 0.89771 -0.14078 -0.10122
 C295 C 0.86612 -0.10525 -0.02489
 C296 C 0.86551 -0.13175 -0.16904
 C297 C 0.82762 -0.17219 -0.04173
 C298 C 0.80837 -0.19009 -0.08228
 C299 C 0.92423 -0.09494 0.06055
 C300 C 0.94644 -0.07950 0.06707
 H301 H 0.89303 -0.13458 0.36175
 H302 H 0.83353 -0.11872 0.23765
 H303 H 0.89129 -0.18333 0.09789
 H304 H 0.91656 -0.14707 -0.20034
 H305 H 0.85906 -0.08232 -0.06064
 H306 H 0.85737 -0.13104 -0.32418
 C307 C 0.38356 0.36580 0.70835
 C308 C 0.35097 0.37473 0.64424
 C309 C 0.35063 0.34889 0.49744
 C310 C 0.38273 0.33964 0.56117
 C311 C 0.39630 0.38560 0.54471
 C312 C 0.39583 0.35972 0.39834
 C313 C 0.36421 0.39490 0.48107
 C314 C 0.36345 0.36873 0.33432
 C315 C 0.32611 0.32781 0.45952
 C316 C 0.30694 0.30991 0.41757
 C317 C 0.42253 0.40526 0.56077
 C318 C 0.44481 0.42064 0.56507
 H319 H 0.39215 0.36486 0.86236
 H320 H 0.33223 0.38060 0.74517
 H321 H 0.39008 0.31670 0.59401
 H322 H 0.41453 0.35374 0.29737
 H323 H 0.35691 0.41787 0.44853
 H324 H 0.35493 0.36972 0.18015
 C325 C 0.13565 0.60807 0.11039
 C326 C 0.14743 0.61981 -0.08976
 C327 C 0.14875 0.65109 -0.00234
 C328 C 0.13741 0.63976 0.19749
 C329 C 0.10307 0.61438 0.04095
 C330 C 0.10439 0.64566 0.12845
 C331 C 0.11448 0.62578 -0.15838
 C332 C 0.11612 0.65728 -0.07135
 C333 C 0.17326 0.67220 -0.03803
 C334 C 0.19244 0.69011 -0.07834
 C335 C 0.07685 0.59472 0.05621
 C336 C 0.05456 0.57937 0.06095
 H337 H 0.14333 0.58758 0.18536
 H338 H 0.16539 0.60942 -0.18003
 H339 H 0.14708 0.64571 0.34366
 H340 H 0.08642 0.65604 0.21877
 H341 H 0.10484 0.61987 -0.30467
 H342 H 0.10830 0.67773 -0.14635
 C343 C 0.60846 1.14325 0.65215
 C344 C 0.64239 1.13534 0.68181
 C345 C 0.64960 1.15104 0.48690
 C346 C 0.61609 1.15923 0.45705
 C347 C 0.60401 1.11441 0.53619
 C348 C 0.61132 1.13016 0.34167
 C349 C 0.63748 1.10611 0.56617
 C350 C 0.64513 1.12220 0.37099
 C351 C 0.67407 1.17214 0.44988
 C352 C 0.69320 1.19010 0.40952
 C353 C 0.57782 1.09478 0.55515
 C354 C 0.55557 1.07941 0.56261
 H355 H 0.59312 1.15164 0.76840
 H356 H 0.65542 1.13772 0.82144
 H357 H 0.60752 1.18129 0.41183
 H358 H 0.59833 1.12783 0.20178
 H359 H 0.64594 1.08401 0.61117
 H360 H 0.66044 1.11379 0.25458
 C361 C 0.10249 0.35781 0.09066
 C362 C 0.11699 0.34020 -0.07966
 C363 C 0.14850 0.34895 -0.00161
 C364 C 0.13428 0.36631 0.16892
 C365 C 0.10258 0.38558 -0.03946
 C366 C 0.13407 0.39437 0.03869
 C367 C 0.11673 0.36827 -0.21044
 C368 C 0.14872 0.37670 -0.13190
 C369 C 0.17316 0.32787 0.03167
 C370 C 0.19242 0.30993 0.07120
 C371 C 0.07628 0.40520 -0.05255
 C372 C 0.05400 0.42057 -0.05625
 H373 H 0.08325 0.35026 0.18232
 H374 H 0.11027 0.31772 -0.12853
 H375 H 0.14189 0.36527 0.32501
 H376 H 0.14075 0.41686 0.08764
 H377 H 0.10907 0.36935 -0.36637
 H378 H 0.16802 0.38418 -0.22328
 C379 C 0.60642 0.86309 0.62746
 C380 C 0.61636 0.83964 0.47545
 C381 C 0.64944 0.84922 0.50663
 C382 C 0.63980 0.87242 0.65912
 C383 C 0.60367 0.88584 0.46027
 C384 C 0.63673 0.89550 0.49156
 C385 C 0.61327 0.86266 0.30762
 C386 C 0.64681 0.87195 0.33923
 C387 C 0.67406 0.82813 0.54146
 C388 C 0.69332 0.81016 0.58047
 C389 C 0.57743 0.90546 0.44232
 C390 C 0.55516 0.92083 0.43528
 H391 H 0.58960 0.85966 0.74620
 H392 H 0.60823 0.81644 0.46953
 H393 H 0.65091 0.87619 0.80425
 H394 H 0.64479 0.91871 0.49792
 H395 H 0.60211 0.85890 0.16266
 H396 H 0.66372 0.87532 0.22106
 C397 C 0.86490 0.10433 0.02607
 C398 C 0.86431 0.13065 0.17171
 C399 C 0.85090 0.15022 0.00793
 C400 C 0.85105 0.12423 -0.13761
 C401 C 0.89674 0.11381 -0.03862
 C402 C 0.88339 0.13335 -0.20272
 C403 C 0.89646 0.13982 0.10669
 C404 C 0.88276 0.15965 -0.05670
 C405 C 0.82627 0.17121 0.04333
 C406 C 0.80701 0.18908 0.08258
 C407 C 0.92305 0.09431 -0.05621
 C408 C 0.94539 0.07904 -0.06279
 H409 H 0.85788 0.08135 0.06016
 H410 H 0.85622 0.12973 0.32615
 H411 H 0.83210 0.11808 -0.23785
 H412 H 0.89154 0.13423 -0.35698
 H413 H 0.91536 0.14604 0.20722
 H414 H 0.88984 0.18261 -0.09072
 C415 C 0.39573 0.63984 0.60979
 C416 C 0.38284 0.66045 0.44794
 C417 C 0.35065 0.65113 0.50628
 C418 C 0.36326 0.63077 0.66845
 C419 C 0.39623 0.61439 0.46020
 C420 C 0.36406 0.60502 0.51848
 C421 C 0.38368 0.63471 0.29756
 C422 C 0.35102 0.62571 0.35633
 C423 C 0.32614 0.67221 0.54283
 C424 C 0.30695 0.69009 0.58329
 C425 C 0.42242 0.59471 0.44413
 C426 C 0.44468 0.57932 0.43954
 H427 H 0.41436 0.64545 0.71399
 H428 H 0.39033 0.68345 0.41914
 H429 H 0.35464 0.62937 0.82145
 H430 H 0.35663 0.58200 0.54709
 H431 H 0.39233 0.63606 0.14457
 H432 H 0.33234 0.62019 0.25221
   
