data_POSCAR
  _audit_creation_date              2014-09-24
  _audit_creation_method            'ToBaCCo'
  _symmetry_space_group_name_H-M    'P1'
  _symmetry_Int_Tables_number       1
  _symmetry_cell_setting            triclinic
  loop_
  _symmetry_equiv_pos_as_xyz
 x,y,z
_cell_length_a 32.6957
_cell_length_b 32.1612
_cell_length_c 62.8983
_cell_angle_alpha 87.581500
_cell_angle_beta 95.028000
_cell_angle_gamma 119.405700
loop_
  _atom_site_label
  _atom_site_type_symbol
  _atom_site_fract_x
  _atom_site_fract_y
  _atom_site_fract_z
C1 C 0.07278 0.11505 0.52611
 H2 H 0.10672 0.11716 0.52551
 C3 C 0.06902 0.14911 0.53748
 H4 H 0.10015 0.17732 0.54581
 C5 C -0.00891 0.07636 0.51543
 H6 H -0.03889 0.04861 0.50639
 C7 C -0.01442 0.10931 0.52699
 H8 H -0.04876 0.10667 0.52685
 N9 N 0.03430 0.07994 0.51520
 C10 C 0.07284 -0.02969 0.50695
 H11 H 0.07659 -0.02732 0.48995
 C12 C 0.07742 -0.06488 0.51895
 H13 H 0.08614 -0.08848 0.51108
 C14 C 0.05573 -0.00227 0.53755
 H15 H 0.04572 0.02119 0.54457
 C16 C 0.05918 -0.03748 0.55009
 H17 H 0.05169 -0.04052 0.56668
 Zn18 Zn 0.04626 0.04019 0.49851
 N19 N 0.06183 0.00046 0.51633
 C20 C 0.13895 0.08310 0.48423
 N21 N 0.09638 0.08139 0.48193
 C22 C 0.08913 0.11227 0.46884
 C23 C 0.12529 0.14628 0.45720
 C24 C 0.17627 0.11686 0.47298
 C25 C -0.04505 -0.03500 0.49074
 C26 C -0.08384 -0.07047 0.47892
 C27 C -0.04501 -0.03520 0.44681
 C28 C -0.00696 -0.00057 0.45933
 N29 N -0.00753 -0.00121 0.48088
 H30 H 0.14442 0.05916 0.49516
 H31 H 0.05528 0.11091 0.46774
 H32 H 0.11903 0.17108 0.44715
 H33 H 0.21001 0.11793 0.47502
 H34 H -0.04404 -0.03550 0.50799
 H35 H -0.11087 -0.09784 0.48800
 H36 H -0.04295 -0.03139 0.42974
 H37 H 0.02344 0.02619 0.45174
 C38 C 0.06925 -0.07008 0.54074
 C39 C 0.02509 0.14664 0.53787
 C40 C -0.08460 -0.07219 0.45636
 C41 C 0.16966 0.14911 0.45931
 C42 C 1.08342 0.03010 0.13673
 H43 H 1.08395 0.06402 0.13649
 C44 C 1.11387 0.02394 0.12468
 H45 H 1.13783 0.05332 0.11516
 C46 C 1.05323 -0.04850 0.15043
 H47 H 1.03013 -0.07621 0.16083
 C48 C 1.08364 -0.05599 0.13884
 H49 H 1.08331 -0.08983 0.14013
 N50 N 1.05388 -0.00586 0.14923
 C51 C 0.94471 0.02853 0.16089
 H52 H 0.94733 0.02813 0.17816
 C53 C 0.90746 0.03160 0.14974
 H54 H 0.88154 0.03341 0.15867
 C55 C 0.97328 0.02227 0.12852
 H56 H 0.99800 0.01700 0.12028
 C57 C 0.93694 0.02590 0.11672
 H58 H 0.93519 0.02487 0.09947
 Zn59 Zn 1.01862 0.00858 0.16681
 N60 N 0.97620 0.02315 0.15021
 C61 C 1.06338 0.10347 0.18339
 N62 N 1.06276 0.06085 0.18390
 C63 C 1.09639 0.05483 0.19564
 C64 C 1.13239 0.09241 0.20764
 C65 C 1.09912 0.14230 0.19505
 C66 C 0.94403 -0.08209 0.17391
 C67 C 0.91048 -0.11901 0.18567
 C68 C 0.95551 -0.07838 0.21805
 C69 C 0.98780 -0.04188 0.20567
 N70 N 0.98129 -0.04413 0.18401
 H71 H 1.03685 0.10771 0.17356
 H72 H 1.09536 0.02070 0.19549
 H73 H 1.15835 0.08646 0.21709
 H74 H 1.09977 0.17629 0.19402
 H75 H 0.93921 -0.08250 0.15667
 H76 H 0.87989 -0.14754 0.17723
 H77 H 0.96132 -0.07569 0.23527
 H78 H 1.01706 -0.01107 0.21346
 C79 C 0.90263 0.02940 0.12732
 C80 C 1.11463 -0.01932 0.12586
 C81 C 0.91548 -0.11710 0.20810
 C82 C 1.13451 0.13713 0.20727
 C83 C -0.01021 0.95778 0.87368
 H84 H -0.04258 0.94802 0.88084
 C85 C 0.02740 0.95798 0.88614
 H86 H 0.02409 0.94917 0.90294
 C87 C 0.03272 0.97800 0.84287
 H88 H 0.03376 0.98390 0.82582
 C89 C 0.07154 0.97964 0.85483
 H90 H 0.10272 0.98737 0.84699
 N91 N -0.00700 0.96745 0.85243
 C92 C -0.15210 0.90816 0.85163
 H93 H -0.15904 0.87866 0.84156
 C94 C -0.18771 0.90521 0.86349
 H95 H -0.22164 0.87316 0.86196
 C96 C -0.10049 0.98672 0.86411
 H97 H -0.06629 1.01845 0.86419
 C98 C -0.13502 0.98563 0.87597
 H99 H -0.12563 1.01648 0.88567
 Zn100 Zn -0.06090 0.95835 0.83501
 N101 N -0.10955 0.94858 0.85215
 C102 C -0.08937 0.86261 0.82698
 N103 N -0.07785 0.90528 0.81745
 C104 C -0.07223 0.91157 0.79618
 C105 C -0.07682 0.87437 0.78372
 C106 C -0.09506 0.82422 0.81506
 C107 C -0.00678 1.05293 0.81805
 C108 C -0.00212 1.09279 0.80633
 C109 C -0.08522 1.04891 0.79530
 C110 C -0.08812 1.00976 0.80686
 N111 N -0.04938 1.01248 0.81807
 H112 H -0.09263 0.85888 0.84401
 H113 H -0.06171 0.94618 0.78904
 H114 H -0.06969 0.88109 0.76708
 H115 H -0.10414 0.79065 0.82303
 H116 H 0.02334 1.05485 0.82747
 H117 H 0.03172 1.12509 0.80664
 H118 H -0.11656 1.04642 0.78673
 H119 H -0.12162 0.97732 0.80736
 C120 C -0.18001 0.94470 0.87569
 C121 C 0.06871 0.96875 0.87665
 C122 C -0.04190 1.09113 0.79508
 C123 C -0.08750 0.83014 0.79320
 C124 C 0.47455 -0.03014 0.01292
 C125 C 0.46779 -0.03728 -0.00861
 C126 C 0.42497 -0.04189 -0.02119
 C127 C 0.50366 -0.03945 -0.02081
 C128 C 0.51758 -0.02462 0.02534
 C129 C 0.43954 -0.02722 0.02531
 C130 C 0.37946 -0.07407 -0.01532
 C131 C 0.34004 -0.07508 -0.02645
 C132 C 0.34511 -0.04517 -0.04419
 C133 C 0.39064 -0.01503 -0.05073
 C134 C 0.43005 -0.01322 -0.03928
 C135 C 0.49061 -0.07923 -0.03369
 C136 C 0.52394 -0.08221 -0.04505
 C137 C 0.57110 -0.04538 -0.04376
 C138 C 0.58385 -0.00516 -0.03109
 C139 C 0.55036 -0.00199 -0.01994
 C140 C 0.54796 0.01858 0.03587
 C141 C 0.58946 0.02519 0.04711
 C142 C 0.60102 -0.01166 0.04839
 C143 C 0.56985 -0.05536 0.03813
 C144 C 0.52854 -0.06173 0.02666
 C145 C 0.42749 0.00883 0.02144
 C146 C 0.39317 0.00987 0.03286
 C147 C 0.37034 -0.02515 0.04835
 C148 C 0.38322 -0.06073 0.05233
 C149 C 0.41774 -0.06147 0.04106
 H150 H 0.37443 -0.09778 -0.00186
 H151 H 0.30572 -0.09863 -0.02081
 H152 H 0.39603 0.00736 -0.06470
 H153 H 0.46472 0.01128 -0.04436
 H154 H 0.45460 -0.10822 -0.03480
 H155 H 0.51266 -0.11321 -0.05499
 H156 H 0.56097 0.02960 -0.01052
 H157 H 0.54001 0.04761 0.03496
 H158 H 0.61289 0.05953 0.05448
 H159 H 0.57710 -0.08483 0.03912
 H160 H 0.50509 -0.09552 0.01882
 H161 H 0.44450 0.03592 0.00951
 H162 H 0.38478 0.03829 0.02968
 H163 H 0.36594 -0.08865 0.06388
 H164 H 0.42665 -0.08956 0.04422
 H165 H 0.61987 0.02368 -0.02956
 C166 C -0.01681 0.49621 0.67681
 C167 C -0.00572 0.50364 0.65620
 C168 C -0.00272 0.46705 0.64395
 C169 C 0.00396 0.54865 0.64502
 C170 C -0.02655 0.52943 0.68818
 C171 C -0.01946 0.45459 0.68891
 C172 C 0.04003 0.47707 0.63618
 C173 C 0.04297 0.44274 0.62452
 C174 C 0.00290 0.39801 0.62002
 C175 C -0.04002 0.38837 0.62776
 C176 C -0.04271 0.42251 0.63970
 C177 C 0.04160 0.59239 0.65244
 C178 C 0.05108 0.63470 0.64165
 C179 C 0.02284 0.63410 0.62330
 C180 C -0.01501 0.59001 0.61602
 C181 C -0.02402 0.54768 0.62666
 C182 C -0.06422 0.53688 0.68089
 C183 C -0.07367 0.56778 0.69183
 C184 C -0.04536 0.59212 0.71020
 C185 C -0.00751 0.58452 0.71736
 C186 C 0.00147 0.55311 0.70657
 C187 C -0.06217 0.42009 0.69649
 C188 C -0.06475 0.38093 0.70806
 C189 C -0.02434 0.37608 0.71266
 C190 C 0.01854 0.41115 0.70509
 C191 C 0.02086 0.44988 0.69323
 H192 H 0.07124 0.51129 0.63940
 H193 H 0.07679 0.45116 0.61921
 H194 H -0.07180 0.35481 0.62428
 H195 H -0.07615 0.41449 0.64539
 H196 H 0.06394 0.59363 0.66645
 H197 H 0.08099 0.66776 0.64751
 H198 H -0.05329 0.51417 0.62076
 H199 H -0.08658 0.51832 0.66685
 H200 H -0.10357 0.57203 0.68606
 H201 H 0.01565 0.60331 0.73116
 H202 H 0.03077 0.54781 0.71237
 H203 H -0.09363 0.42321 0.69321
 H204 H -0.09854 0.35426 0.71323
 H205 H 0.05056 0.40924 0.70866
 H206 H 0.05426 0.47662 0.68768
 H207 H -0.03811 0.58817 0.60224
 C208 C 0.53369 0.52760 0.34366
 C209 C 0.53094 0.52517 0.32200
 C210 C 0.56814 0.56214 0.30939
 C211 C 0.49086 0.48544 0.30990
 C212 C 0.49681 0.49045 0.35639
 C213 C 0.57380 0.56761 0.35567
 C214 C 0.57708 0.60948 0.30916
 C215 C 0.61414 0.64451 0.29819
 C216 C 0.64306 0.63284 0.28734
 C217 C 0.63322 0.58505 0.28733
 C218 C 0.59587 0.55001 0.29811
 C219 C 0.46137 0.49510 0.29550
 C220 C 0.42223 0.45790 0.28461
 C221 C 0.41235 0.41045 0.28772
 C222 C 0.44260 0.40095 0.30181
 C223 C 0.48153 0.43817 0.31285
 C224 C 0.50887 0.46416 0.37146
 C225 C 0.47441 0.42788 0.38310
 C226 C 0.42720 0.41752 0.38006
 C227 C 0.41541 0.44467 0.36521
 C228 C 0.44994 0.48088 0.35351
 C229 C 0.62010 0.57652 0.35459
 C230 C 0.65768 0.61570 0.36524
 C231 C 0.64958 0.64647 0.37730
 C232 C 0.60299 0.63671 0.37869
 C233 C 0.56547 0.59752 0.36806
 H234 H 0.55562 0.61928 0.31764
 H235 H 0.62008 0.68072 0.29819
 H236 H 0.65511 0.57483 0.27947
 H237 H 0.58947 0.51361 0.29822
 H238 H 0.46822 0.53142 0.29299
 H239 H 0.39984 0.46623 0.27363
 H240 H 0.50422 0.43018 0.32380
 H241 H 0.54490 0.47110 0.37388
 H242 H 0.48459 0.40730 0.39419
 H243 H 0.37957 0.43821 0.36278
 H244 H 0.44016 0.50139 0.34218
 H245 H 0.62708 0.55328 0.34539
 H246 H 0.69306 0.62174 0.36417
 H247 H 0.59558 0.65998 0.38763
 H248 H 0.52993 0.59112 0.36906
 H249 H 0.43563 0.36465 0.30456
 C250 C 0.01651 0.25666 0.57063
 C251 C -0.01370 0.20796 0.57527
 C252 C -0.01173 0.17207 0.56412
 C253 C 0.02124 0.18408 0.54893
 C254 C 0.05174 0.23226 0.54467
 C255 C 0.04934 0.26815 0.55526
 C256 C 0.01306 0.29388 0.58273
 C257 C 0.03914 0.34301 0.57827
 C258 C 0.03541 0.37638 0.59024
 C259 C 0.00588 0.36192 0.60711
 C260 C -0.02093 0.31287 0.61140
 C261 C -0.01806 0.27890 0.59920
 C262 C -0.04479 0.19544 0.59135
 C263 C -0.04639 0.23015 0.60327
 H264 H -0.06770 0.15821 0.59503
 H265 H -0.07054 0.21860 0.61577
 H266 H -0.03483 0.13479 0.56770
 H267 H 0.07747 0.24218 0.53300
 H268 H 0.05541 0.41372 0.58603
 H269 H -0.04376 0.30096 0.62442
 H270 H 0.07397 0.30453 0.55139
 H271 H 0.06223 0.35648 0.56547
 C272 C 0.80266 0.77892 0.24438
 C273 C 0.81375 0.76518 0.22557
 C274 C 0.85143 0.79871 0.21422
 C275 C 0.87776 0.84651 0.22094
 C276 C 0.86629 0.86000 0.23951
 C277 C 0.82953 0.82679 0.25113
 C278 C 0.76205 0.74208 0.25598
 C279 C 0.74944 0.75155 0.27533
 C280 C 0.71100 0.71617 0.28539
 C281 C 0.68381 0.67043 0.27643
 C282 C 0.69638 0.66059 0.25723
 C283 C 0.73540 0.69570 0.24713
 C284 C 0.78663 0.71832 0.21794
 C285 C 0.74799 0.68450 0.22835
 H286 H 0.79497 0.70779 0.20349
 H287 H 0.72779 0.64890 0.22163
 H288 H 0.86000 0.78752 0.20003
 H289 H 0.88496 0.89675 0.24485
 H290 H 0.70304 0.72456 0.30046
 H291 H 0.67557 0.62559 0.24998
 H292 H 0.82220 0.83964 0.26507
 H293 H 0.76903 0.78581 0.28312
 C294 C 0.18254 -0.04138 -0.08827
 C295 C 0.19082 0.00164 -0.09873
 C296 C 0.15359 0.00467 -0.11027
 C297 C 0.10769 -0.03402 -0.11084
 C298 C 0.09911 -0.07584 -0.09972
 C299 C 0.13603 -0.07970 -0.08865
 C300 C 0.22361 -0.04385 -0.07696
 C301 C 0.22009 -0.08626 -0.06797
 C302 C 0.25944 -0.08671 -0.05760
 C303 C 0.30333 -0.04483 -0.05564
 C304 C 0.30710 -0.00250 -0.06475
 C305 C 0.26807 -0.00196 -0.07572
 C306 C 0.23599 0.04151 -0.09736
 C307 C 0.27357 0.04003 -0.08573
 H308 H 0.24227 0.07461 -0.10515
 H309 H 0.30771 0.07206 -0.08493
 H310 H 0.16010 0.03735 -0.11857
 H311 H 0.06378 -0.10601 -0.09995
 H312 H 0.25545 -0.12027 -0.05135
 H313 H 0.34043 0.03038 -0.06325
 H314 H 0.12737 -0.11276 -0.08041
 H315 H 0.18750 -0.11965 -0.06910
 C316 C 0.05826 0.80868 0.57760
 C317 C 0.04565 0.80439 0.55538
 C318 C 0.04995 0.84407 0.54350
 C319 C 0.06782 0.88885 0.55323
 C320 C 0.08227 0.89342 0.57511
 C321 C 0.07750 0.85397 0.58716
 C322 C 0.05039 0.76467 0.58991
 C323 C 0.05783 0.76408 0.61231
 C324 C 0.04894 0.72189 0.62305
 C325 C 0.03279 0.67916 0.61179
 C326 C 0.02553 0.67956 0.58945
 C327 C 0.03336 0.72151 0.57854
 C328 C 0.02860 0.76049 0.54512
 C329 C 0.02328 0.72014 0.55640
 H330 H 0.01936 0.75730 0.52807
 H331 H 0.01010 0.68706 0.54769
 H332 H 0.03808 0.83955 0.52670
 H333 H 0.09731 0.92765 0.58300
 H334 H 0.05391 0.72263 0.64030
 H335 H 0.01365 0.64710 0.58045
 H336 H 0.08914 0.85975 0.60388
 H337 H 0.06962 0.79556 0.62187
 C338 C 0.24954 0.25584 0.24218
 C339 C 0.25720 0.22223 0.23189
 C340 C 0.21975 0.18418 0.22039
 C341 C 0.17405 0.17819 0.21919
 C342 C 0.16647 0.21136 0.22952
 C343 C 0.20360 0.24969 0.24083
 C344 C 0.29073 0.29625 0.25413
 C345 C 0.28735 0.33259 0.26428
 C346 C 0.32683 0.36950 0.27513
 C347 C 0.37057 0.37103 0.27627
 C348 C 0.37436 0.33510 0.26625
 C349 C 0.33506 0.29812 0.25508
 C350 C 0.30209 0.22651 0.23323
 C351 C 0.34008 0.26341 0.24470
 H352 H 0.30789 0.20068 0.22539
 H353 H 0.37404 0.26496 0.24534
 H354 H 0.22639 0.15935 0.21220
 H355 H 0.13152 0.20729 0.22915
 H356 H 0.32304 0.39675 0.28287
 H357 H 0.40825 0.33647 0.26680
 H358 H 0.19544 0.27375 0.24855
 H359 H 0.25472 0.33337 0.26397
 C360 C 0.71163 -0.05713 -0.09023
 C361 C 0.74750 -0.01382 -0.09805
 C362 C 0.78311 -0.01354 -0.10909
 C363 C 0.78373 -0.05611 -0.11305
 C364 C 0.74698 -0.09923 -0.10568
 C365 C 0.71177 -0.09974 -0.09439
 C366 C 0.67481 -0.05557 -0.07812
 C367 C 0.63902 -0.09620 -0.06865
 C368 C 0.60563 -0.09276 -0.05753
 C369 C 0.60676 -0.04886 -0.05562
 C370 C 0.64240 -0.00820 -0.06495
 C371 C 0.67650 -0.01112 -0.07591
 C372 C 0.74741 0.02907 -0.09511
 C373 C 0.71243 0.03032 -0.08447
 H374 H 0.77470 0.06225 -0.10125
 H375 H 0.71384 0.06439 -0.08273
 H376 H 0.80908 0.02011 -0.11544
 H377 H 0.74605 -0.13290 -0.10778
 H378 H 0.57920 -0.12458 -0.05013
 H379 H 0.64349 0.02587 -0.06384
 H380 H 0.68501 -0.13394 -0.08906
 H381 H 0.63645 -0.13084 -0.06942
 C382 C 0.22163 -0.02813 0.09409
 C383 C 0.19275 -0.01170 0.08295
 C384 C 0.15736 -0.00972 0.09328
 C385 C 0.14955 -0.02479 0.11452
 C386 C 0.17683 -0.04295 0.12522
 C387 C 0.21246 -0.04458 0.11520
 C388 C 0.26060 -0.02735 0.08284
 C389 C 0.29353 -0.03935 0.09301
 C390 C 0.32922 -0.03804 0.08186
 C391 C 0.33301 -0.02503 0.06024
 C392 C 0.30069 -0.01240 0.05005
 C393 C 0.26506 -0.01291 0.06120
 C394 C 0.19934 0.00266 0.06162
 C395 C 0.23429 0.00145 0.05089
 H396 H 0.17697 0.01485 0.05303
 H397 H 0.23777 0.01267 0.03435
 H398 H 0.13580 0.00358 0.08479
 H399 H 0.17147 -0.05468 0.14164
 H400 H 0.35428 -0.04680 0.09033
 H401 H 0.30291 -0.00258 0.03332
 H402 H 0.23246 -0.05863 0.12431
 H403 H 0.29278 -0.04930 0.10961
 C404 C 0.80494 0.81265 0.42050
 C405 C 0.79829 0.82294 0.44111
 C406 C 0.83459 0.86184 0.45273
 C407 C 0.87896 0.89141 0.44449
 C408 C 0.88432 0.88082 0.42361
 C409 C 0.84825 0.84245 0.41193
 C410 C 0.76558 0.77019 0.40880
 C411 C 0.76879 0.75666 0.38824
 C412 C 0.73126 0.71659 0.37814
 C413 C 0.68953 0.68883 0.38822
 C414 C 0.68596 0.70205 0.40867
 C415 C 0.72342 0.74234 0.41896
 C416 C 0.75542 0.79421 0.45014
 C417 C 0.71887 0.75476 0.43934
 H418 H 0.75013 0.80211 0.46593
 H419 H 0.68656 0.73355 0.44711
 H420 H 0.82667 0.86942 0.46794
 H421 H 0.91726 0.89990 0.41625
 H422 H 0.73470 0.70770 0.36222
 H423 H 0.65413 0.68057 0.41675
 H424 H 0.85554 0.83632 0.39633
 H425 H 0.79981 0.77651 0.37962
 C426 C -0.03583 0.21377 0.76200
 C427 C -0.00465 0.19704 0.75758
 C428 C -0.00587 0.15776 0.76881
 C429 C -0.03903 0.13369 0.78386
 C430 C -0.07055 0.14960 0.78787
 C431 C -0.06891 0.18924 0.77720
 C432 C -0.03305 0.25613 0.74988
 C433 C -0.06002 0.27760 0.75419
 C434 C -0.05678 0.31650 0.74224
 C435 C -0.02690 0.33498 0.72552
 C436 C 0.00073 0.31424 0.72135
 C437 C -0.00159 0.27563 0.73356
 C438 C 0.02670 0.21887 0.74165
 C439 C 0.02765 0.25680 0.72966
 H440 H 0.05034 0.20590 0.73813
 H441 H 0.05205 0.27196 0.71729
 H442 H 0.01803 0.14499 0.76544
 H443 H -0.09646 0.13136 0.79942
 H444 H -0.07743 0.33253 0.74636
 H445 H 0.02385 0.32781 0.70845
 H446 H -0.09429 0.19955 0.78088
 H447 H -0.08340 0.26536 0.76689
 C448 C 0.77646 0.01892 0.09404
 C449 C 0.79827 -0.00548 0.08632
 C450 C 0.83957 -0.00140 0.09706
 C451 C 0.86053 0.02765 0.11525
 C452 C 0.83987 0.05340 0.12229
 C453 C 0.79842 0.04910 0.11190
 C454 C 0.73104 0.01159 0.08275
 C455 C 0.70454 0.03099 0.09016
 C456 C 0.66236 0.02298 0.07914
 C457 C 0.64548 -0.00426 0.06031
 C458 C 0.67146 -0.02416 0.05293
 C459 C 0.71351 -0.01703 0.06412
 C460 C 0.77873 -0.03387 0.06796
 C461 C 0.73767 -0.03893 0.05692
 H462 H 0.79563 -0.05226 0.06194
 H463 H 0.72419 -0.06103 0.04271
 H464 H 0.85470 -0.02192 0.09147
 H465 H 0.85577 0.07705 0.13592
 H466 H 0.64259 0.03778 0.08557
 H467 H 0.65918 -0.04499 0.03835
 H468 H 0.78431 0.06981 0.11808
 H469 H 0.71535 0.05188 0.10460
 C470 C 0.28349 0.26239 0.42709
 C471 C 0.23871 0.23502 0.41610
 C472 C 0.20199 0.19778 0.42660
 C473 C 0.20918 0.18683 0.44796
 C474 C 0.25389 0.21312 0.45864
 C475 C 0.29058 0.25041 0.44841
 C476 C 0.32131 0.30286 0.41550
 C477 C 0.36634 0.33360 0.42527
 C478 C 0.40031 0.37079 0.41380
 C479 C 0.39051 0.37838 0.39227
 C480 C 0.34562 0.34816 0.38244
 C481 C 0.31104 0.31085 0.39387
 C482 C 0.23078 0.24496 0.39473
 C483 C 0.26626 0.28180 0.38381
 H484 H 0.19658 0.22385 0.38627
 H485 H 0.25835 0.28794 0.36726
 H486 H 0.16772 0.17711 0.41812
 H487 H 0.26023 0.20555 0.47516
 H488 H 0.43431 0.39407 0.42192
 H489 H 0.33769 0.35329 0.36575
 H490 H 0.32404 0.26944 0.45751
 H491 H 0.37602 0.32988 0.44178
 C492 C -0.07925 0.72439 0.75628
 C493 C -0.06626 0.72906 0.77847
 C494 C -0.06980 0.76290 0.79040
 C495 C -0.08722 0.79188 0.78073
 C496 C -0.10221 0.78550 0.75891
 C497 C -0.09821 0.75237 0.74682
 C498 C -0.07197 0.68998 0.74389
 C499 C -0.07968 0.68570 0.72150
 C500 C -0.07115 0.65400 0.71067
 C501 C -0.05514 0.62532 0.72183
 C502 C -0.04769 0.62918 0.74417
 C503 C -0.05513 0.66168 0.75517
 C504 C -0.04950 0.70016 0.78864
 C505 C -0.04476 0.66669 0.77730
 H506 H -0.03999 0.70339 0.80568
 H507 H -0.03173 0.64513 0.78593
 H508 H -0.05758 0.76751 0.80716
 H509 H -0.11698 0.80631 0.75108
 H510 H -0.07626 0.65272 0.69342
 H511 H -0.03591 0.60693 0.75309
 H512 H -0.11017 0.74925 0.73014
 H513 H -0.09134 0.70716 0.71201
   
