data_POSCAR
  _audit_creation_date              2014-09-24
  _audit_creation_method            'ToBaCCo'
  _symmetry_space_group_name_H-M    'P1'
  _symmetry_Int_Tables_number       1
  _symmetry_cell_setting            triclinic
  loop_
  _symmetry_equiv_pos_as_xyz
 x,y,z
_cell_length_a 20.0938
_cell_length_b 27.1772
_cell_length_c 7.3023
_cell_angle_alpha 92.028900
_cell_angle_beta 91.095500
_cell_angle_gamma 90.739000
loop_
  _atom_site_label
  _atom_site_type_symbol
  _atom_site_fract_x
  _atom_site_fract_y
  _atom_site_fract_z
O1 O 0.19404 0.29554 0.19139
 O2 O 0.29811 0.19225 0.33415
 O3 O 0.17445 0.19948 0.22279
 O4 O 0.31284 0.28755 0.32323
 O5 O 0.28546 0.29221 0.61523
 O6 O 0.14065 0.21228 0.50594
 O7 O 0.26355 0.19964 0.61871
 O8 O 0.16974 0.30893 0.48204
 Cu9 Cu 0.24781 0.24233 0.24029
 Cu10 Cu 0.20942 0.25407 0.58249
 C11 C 0.16795 0.32195 0.31665
 C12 C 0.29910 0.17838 0.49812
 C13 C 0.13439 0.19030 0.35040
 C14 C 0.32293 0.30433 0.48603
 O15 O 0.67512 0.30991 0.21117
 O16 O 0.76873 0.20940 -0.01474
 O17 O 0.64905 0.21891 0.10598
 O18 O 0.79099 0.30403 0.05962
 O19 O 0.82866 0.28202 0.32978
 O20 O 0.68759 0.19601 0.37457
 O21 O 0.80778 0.18863 0.25582
 O22 O 0.71497 0.28769 0.47883
 Cu23 Cu 0.71704 0.26261 0.06410
 Cu24 Cu 0.76357 0.23654 0.38519
 C25 C 0.68040 0.31623 0.38413
 C26 C 0.80395 0.18169 0.08361
 C27 C 0.64442 0.19257 0.24490
 C28 C 0.83332 0.30840 0.19062
 O29 O 0.74379 0.79385 0.34328
 O30 O 0.83328 0.69100 0.56405
 O31 O 0.71791 0.70210 0.39369
 O32 O 0.85960 0.78561 0.50310
 O33 O 0.81588 0.80508 0.77037
 O34 O 0.67498 0.71995 0.66478
 O35 O 0.78382 0.70988 0.82355
 O36 O 0.69523 0.80953 0.60713
 Cu37 Cu 0.79427 0.74097 0.42548
 Cu38 Cu 0.74068 0.76434 0.74341
 C39 C 0.70238 0.81817 0.43881
 C40 C 0.82115 0.68197 0.73023
 C41 C 0.67247 0.69697 0.51053
 C42 C 0.86100 0.81070 0.65287
 O43 O 0.21221 0.69982 0.96224
 O44 O 0.34962 0.78257 0.85080
 O45 O 0.23670 0.79354 1.01250
 O46 O 0.32091 0.69056 0.77285
 O47 O 0.26938 0.70833 0.51394
 O48 O 0.18582 0.80982 0.75119
 O49 O 0.29978 0.80066 0.58999
 O50 O 0.16163 0.71599 0.70034
 Cu51 Cu 0.28515 0.73974 0.92540
 Cu52 Cu 0.22403 0.76037 0.61354
 C53 C 0.16358 0.69387 0.85047
 C54 C 0.34828 0.80604 0.70411
 C55 C 0.19647 0.81922 0.92066
 C56 C 0.30918 0.68203 0.60265
 C57 C 1.01174 0.04308 0.11001
 C58 C 0.95712 0.03914 -0.01511
 C59 C 0.94659 -0.00527 -0.11588
 C60 C 0.98874 -0.04541 -0.09504
 C61 C 1.04381 -0.04130 0.02900
 C62 C 1.05385 0.00295 0.13130
 H63 H 1.09591 0.00694 0.22615
 H64 H 0.90433 -0.00925 -0.21021
 C65 C 0.52162 0.54969 0.47581
 C66 C 0.45309 0.53945 0.44804
 C67 C 0.42910 0.49095 0.45176
 C68 C 0.47212 0.45243 0.49020
 C69 C 0.54064 0.46253 0.51676
 C70 C 0.56479 0.51093 0.51120
 H71 H 0.61786 0.51806 0.52702
 H72 H 0.37608 0.48361 0.43621
 C73 C -0.02440 0.45142 0.03557
 C74 C 0.04435 0.46347 0.04744
 C75 C 0.06630 0.50967 -0.00836
 C76 C 0.02093 0.54542 -0.06322
 C77 C -0.04776 0.53364 -0.07522
 C78 C -0.06922 0.48607 -0.03157
 H79 H -0.12207 0.47742 -0.03475
 H80 H 0.11861 0.51954 0.00788
 C81 C 0.48166 0.94712 0.48449
 C82 C 0.53737 0.95402 0.37085
 C83 C 0.55015 1.00151 0.30828
 C84 C 0.50984 1.04155 0.35764
 C85 C 0.45441 1.03437 0.47022
 C86 C 0.44139 0.98715 0.53215
 H87 H 0.39954 0.98142 0.62089
 H88 H 0.59361 1.00813 0.22630
 N89 N 1.01135 0.09660 0.39264
 N90 N 1.04590 0.13847 0.45941
 C91 C 1.08494 0.15412 0.32419
 C92 C 1.07482 0.12389 0.16820
 C93 C 1.02845 0.08864 0.21691
 H94 H 1.10157 0.12482 0.04095
 H95 H 0.98153 0.07393 0.47048
 H96 H 1.04514 0.15191 0.59523
 N97 N 0.53339 0.62940 0.31790
 N98 N 0.57411 0.66798 0.32516
 C99 C 0.61660 0.66358 0.46776
 C100 C 0.60287 0.62054 0.55534
 C101 C 0.54984 0.59966 0.45520
 H102 H 0.62986 0.60541 0.66956
 H103 H 0.49749 0.62252 0.21455
 H104 H 0.57369 0.69610 0.23128
 N105 N -0.03440 0.39321 0.29012
 N106 N -0.07381 0.35286 0.33179
 C107 C -0.11560 0.34338 0.18821
 C108 C -0.10330 0.37657 0.05158
 C109 C -0.05159 0.40684 0.12017
 H110 H -0.13002 0.37956 -0.07756
 H111 H -0.00272 0.41193 0.38430
 H112 H -0.07329 0.33601 0.45829
 N113 N 0.48653 0.88994 0.74058
 N114 N 0.45006 0.85336 0.80038
 C115 C 0.40338 0.84063 0.67190
 C116 C 0.41132 0.86991 0.52196
 C117 C 0.46541 0.90030 0.57009
 H118 H 0.37892 0.87191 0.40247
 H119 H 0.52218 0.90961 0.82070
 H120 H 0.45451 0.83966 0.93191
 N121 N -0.15083 0.57804 0.00826
 N122 N -0.18349 0.61759 -0.03868
 C123 C -0.15369 0.63748 -0.18287
 C124 C -0.09900 0.60919 -0.22992
 C125 C -0.09885 0.57185 -0.10348
 H126 H -0.06346 0.61558 -0.33628
 H127 H -0.16297 0.55662 0.11917
 H128 H -0.22570 0.63064 0.02764
 N129 N 0.38843 1.08068 0.70608
 N130 N 0.34742 1.11836 0.71445
 C131 C 0.34205 1.13712 0.54671
 C132 C 0.38179 1.11050 0.42700
 C133 C 0.41082 1.07511 0.53351
 H134 H 0.38615 1.11514 0.28155
 H135 H 0.40034 1.05906 0.81725
 H136 H 0.32327 1.13045 0.83292
 N137 N 1.12471 -0.08952 0.21419
 N138 N 1.16903 -0.12788 0.18305
 C139 C 1.16245 -0.14229 0.00538
 C140 C 1.11569 -0.11352 -0.07995
 C141 C 1.09217 -0.08144 0.05487
 H142 H 1.10307 -0.11498 -0.22399
 H143 H 1.11909 -0.07076 0.34000
 H144 H 1.20207 -0.14118 0.28100
 N145 N 0.63338 0.41876 0.67054
 N146 N 0.66944 0.37929 0.63654
 C147 C 0.64827 0.35803 0.47570
 C148 C 0.59648 0.38463 0.40469
 C149 C 0.58845 0.42255 0.53294
 H150 H 0.56978 0.37826 0.27574
 H151 H 0.63982 0.44259 0.78519
 H152 H 0.70919 0.36836 0.71935
 N153 N 0.99244 -0.10114 -0.37158
 N154 N 0.95605 -0.14174 -0.44238
 C155 C 0.91158 -0.15425 -0.31546
 C156 C 0.91969 -0.12321 -0.16113
 C157 C 0.97122 -0.09105 -0.20096
 H158 H 0.88923 -0.12195 -0.04042
 H159 H 1.02642 -0.08045 -0.44416
 H160 H 0.95991 -0.15654 -0.57572
 N161 N 0.45542 0.37890 0.67901
 N162 N 0.41501 0.34023 0.68013
 C163 C 0.37775 0.33906 0.52509
 C164 C 0.39413 0.37891 0.42152
 C165 C 0.44364 0.40336 0.52447
 H166 H 0.37020 0.39033 0.29648
 H167 H 0.48815 0.38953 0.78632
 H168 H 0.41189 0.31586 0.78714
 N169 N 0.02623 0.63276 0.04946
 N170 N 0.06487 0.67179 0.02971
 C171 C 0.10855 0.66136 -0.10306
 C172 C 0.09834 0.61347 -0.16901
 C173 C 0.04525 0.59673 -0.06911
 H174 H 0.12794 0.59281 -0.26634
 H175 H -0.00993 0.63001 0.14969
 H176 H 0.06299 0.70411 0.11138
 N177 N 0.50616 1.11146 0.14703
 N178 N 0.54159 1.15156 0.11846
 C179 C 0.58951 1.15654 0.24968
 C180 C 0.58388 1.11818 0.36844
 C181 C 0.52999 1.09067 0.29883
 H182 H 0.61704 1.10956 0.48104
 H183 H 0.46844 1.09743 0.05917
 H184 H 0.53472 1.17387 0.00630
 N185 N 0.11785 0.44777 0.31498
 N186 N 0.14663 0.40987 0.39057
 C187 C 0.14019 0.37026 0.27533
 C188 C 0.10575 0.38345 0.11820
 C189 C 0.09193 0.43307 0.15014
 H190 H 0.08956 0.35978 0.00339
 H191 H 0.11285 0.48235 0.37999
 H192 H 0.17012 0.41127 0.51944
 N193 N 0.62333 0.91161 0.17570
 N194 N 0.66796 0.87645 0.19283
 C195 C 0.66043 0.85635 0.35744
 C196 C 0.60903 0.87963 0.44661
 C197 C 0.58612 0.91442 0.32793
 H198 H 0.59490 0.87406 0.58520
 H199 H 0.61986 0.93433 0.06385
 H200 H 0.70447 0.86824 0.09682
 N201 N 0.87624 0.08732 -0.20114
 N202 N 0.83491 0.12426 -0.17541
 C203 C 0.84129 0.14101 -0.00031
 C204 C 0.88741 0.11302 0.09021
 C205 C 0.90948 0.07968 -0.04235
 H206 H 0.90021 0.11570 0.23462
 H207 H 0.88075 0.06761 -0.32553
 H208 H 0.80148 0.13619 -0.27474
 N209 N 0.35998 0.58390 0.29953
 N210 N 0.32194 0.62183 0.34086
 C211 C 0.34151 0.64100 0.50646
 C212 C 0.39454 0.61477 0.57257
 C213 C 0.40464 0.57909 0.43711
 H214 H 0.42100 0.62001 0.70251
 H215 H 0.35516 0.56178 0.17988
 H216 H 0.28261 0.63353 0.25830
   
