data_POSCAR
  _audit_creation_date              2014-09-24
  _audit_creation_method            'ToBaCCo'
  _symmetry_space_group_name_H-M    'P1'
  _symmetry_Int_Tables_number       1
  _symmetry_cell_setting            triclinic
  loop_
  _symmetry_equiv_pos_as_xyz
 x,y,z
_cell_length_a 27.7720
_cell_length_b 27.7116
_cell_length_c 43.5240
_cell_angle_alpha 93.452200
_cell_angle_beta 96.244700
_cell_angle_gamma 96.233800
loop_
  _atom_site_label
  _atom_site_type_symbol
  _atom_site_fract_x
  _atom_site_fract_y
  _atom_site_fract_z
C1 C -0.02760 0.61447 1.00046
 C2 C -0.02804 0.58967 1.02770
 C3 C -0.03425 0.53847 1.02493
 C4 C -0.04221 0.51212 0.99570
 C5 C -0.04468 0.53850 0.96891
 C6 C -0.03511 0.58968 0.97083
 C7 C -0.04488 0.45745 0.99317
 C8 C -0.03186 0.43253 0.96652
 C9 C -0.03175 0.38194 0.96461
 C10 C -0.04294 0.35578 0.98985
 C11 C -0.05480 0.37933 1.01693
 C12 C -0.05759 0.42973 1.01800
 H13 H -0.02574 0.65374 1.00222
 H14 H -0.02994 0.51945 1.04581
 H15 H -0.05168 0.51901 0.94641
 H16 H -0.01984 0.45196 0.94742
 H17 H -0.04256 0.31663 0.98832
 H18 H -0.06842 0.44704 1.03865
 C19 C 0.38266 0.05382 0.50311
 C20 C 0.41091 0.04265 0.52983
 C21 C 0.46079 0.03939 0.52901
 C22 C 0.48341 0.04931 0.50219
 C23 C 0.45438 0.06264 0.47606
 C24 C 0.40379 0.06316 0.47591
 C25 C 0.53621 0.04290 0.50088
 C26 C 0.55331 0.03065 0.47235
 C27 C 0.60195 0.02170 0.47072
 C28 C 0.63271 0.02248 0.49871
 C29 C 0.61679 0.03336 0.52768
 C30 C 0.56916 0.04607 0.52823
 H31 H 0.34377 0.05427 0.50341
 H32 H 0.48104 0.02719 0.54914
 H33 H 0.47068 0.07232 0.45549
 H34 H 0.52811 0.02536 0.45140
 H35 H 0.67093 0.01874 0.49802
 H36 H 0.55696 0.05597 0.55021
 C37 C 0.06206 0.05177 0.27153
 H38 H 0.06558 0.05281 0.24706
 C39 C 0.10166 0.06940 0.29343
 H40 H 0.13569 0.08399 0.28571
 C41 C 0.01336 0.03159 0.31140
 H42 H -0.02092 0.01641 0.31838
 C43 C 0.05173 0.04927 0.33402
 H44 H 0.04666 0.04703 0.35823
 N45 N 0.01928 0.03255 0.28083
 C46 C -0.05650 -0.08105 0.21370
 H47 H -0.09339 -0.07183 0.21351
 C48 C -0.04715 -0.12096 0.19505
 H49 H -0.07700 -0.14238 0.18053
 C50 C 0.02770 -0.06237 0.23119
 H51 H 0.05691 -0.03923 0.24496
 C52 C 0.03876 -0.10136 0.21241
 H53 H 0.07642 -0.10785 0.21184
 Zn54 Zn -0.03342 0.00679 0.25091
 N55 N -0.01917 -0.05207 0.23081
 C56 C -0.04116 0.03782 0.19045
 N57 N -0.04165 0.05294 0.22073
 C58 C -0.04187 0.10091 0.22960
 C59 C -0.04036 0.13585 0.20764
 C60 C -0.03924 0.07137 0.16794
 C61 C -0.09869 -0.05140 0.28168
 C62 C -0.13457 -0.06115 0.30123
 C63 C -0.15262 0.02196 0.29903
 C64 C -0.11651 0.03006 0.27928
 N65 N -0.08985 -0.00623 0.27144
 H66 H -0.04024 -0.00011 0.18370
 H67 H -0.04069 0.11237 0.25388
 H68 H -0.03859 0.17406 0.21509
 H69 H -0.03741 0.05871 0.14410
 H70 H -0.07628 -0.07939 0.27590
 H71 H -0.14024 -0.09711 0.30958
 H72 H -0.17170 0.05197 0.30625
 H73 H -0.10839 0.06591 0.27140
 C74 C 0.00112 -0.13052 0.19362
 C75 C 0.09675 0.06802 0.32515
 C76 C -0.16112 -0.02384 0.31092
 C77 C -0.03768 0.12111 0.17653
 C78 C 0.05071 0.07482 0.76805
 H79 H 0.04637 0.07842 0.74332
 C80 C 0.05499 0.11630 0.78868
 H81 H 0.05456 0.15185 0.77968
 C82 C 0.05577 0.02413 0.80993
 H83 H 0.05502 -0.01170 0.81836
 C84 C 0.06024 0.06433 0.83121
 H85 H 0.06267 0.05858 0.85570
 N86 N 0.05168 0.02987 0.77898
 C87 C 0.10206 -0.07245 0.71296
 H88 H 0.07720 -0.10404 0.71628
 C89 C 0.13548 -0.07572 0.69145
 H90 H 0.13668 -0.11026 0.67869
 C91 C 0.12918 0.01135 0.72478
 H92 H 0.12592 0.04541 0.73734
 C93 C 0.16317 0.00973 0.70338
 H94 H 0.18546 0.04286 0.69952
 Zn95 Zn 0.04451 -0.02695 0.75144
 N96 N 0.09843 -0.02906 0.72836
 C97 C -0.00823 -0.03067 0.69249
 N98 N -0.01288 -0.02730 0.72330
 C99 C -0.05704 -0.02339 0.73352
 C100 C -0.09907 -0.02511 0.71230
 C101 C -0.04896 -0.03263 0.67066
 C102 C 0.08415 -0.09132 0.79077
 C103 C 0.08455 -0.12653 0.81232
 C104 C -0.00267 -0.14496 0.79976
 C105 C -0.00138 -0.10939 0.77829
 N106 N 0.04143 -0.08234 0.77500
 H107 H 0.02709 -0.03199 0.68457
 H108 H -0.05970 -0.01949 0.75814
 H109 H -0.13416 -0.02318 0.72068
 H110 H -0.04426 -0.03553 0.64626
 H111 H 0.11770 -0.06942 0.78762
 H112 H 0.11880 -0.13207 0.82530
 H113 H -0.03741 -0.16426 0.80335
 H114 H -0.03488 -0.10206 0.76536
 C115 C 0.16547 -0.03391 0.68567
 C116 C 0.06018 0.11123 0.82077
 C117 C 0.04052 -0.15274 0.81781
 C118 C -0.09525 -0.03073 0.68040
 C119 C 0.00373 -0.33754 0.06215
 C120 C 0.00308 -0.30846 0.08954
 C121 C -0.02557 -0.32534 0.11243
 C122 C -0.05048 -0.37247 0.10837
 C123 C -0.04913 -0.40164 0.08117
 C124 C -0.02372 -0.38386 0.05701
 C125 C -0.02972 -0.29444 0.13858
 C126 C -0.00518 -0.24702 0.14212
 C127 C 0.02584 -0.23137 0.12004
 C128 C 0.02971 -0.26214 0.09391
 C129 C 0.05143 -0.18458 0.12397
 C130 C 0.04490 -0.15275 0.14884
 C131 C 0.01234 -0.16696 0.17002
 C132 C -0.01205 -0.21448 0.16688
 H133 H 0.02599 -0.32389 0.04488
 H134 H -0.07219 -0.38629 0.12586
 H135 H -0.07101 -0.43675 0.07834
 H136 H -0.05285 -0.30687 0.15574
 H137 H 0.05241 -0.24951 0.07656
 H138 H 0.07560 -0.17218 0.10739
 H139 H 0.06375 -0.11617 0.15080
 H140 H -0.03698 -0.22564 0.18333
 C141 C -0.02921 0.31651 0.05205
 C142 C -0.03565 0.28739 0.07678
 C143 C -0.07416 0.29323 0.09488
 C144 C -0.10531 0.32878 0.08792
 C145 C -0.09891 0.35744 0.06287
 C146 C -0.06120 0.35106 0.04446
 C147 C -0.08116 0.26297 0.11924
 C148 C -0.05054 0.22655 0.12524
 C149 C -0.01197 0.22121 0.10700
 C150 C -0.00451 0.25191 0.08319
 C151 C 0.01818 0.18458 0.11244
 C152 C 0.00972 0.15267 0.13528
 C153 C -0.02867 0.15703 0.15339
 C154 C -0.05828 0.19464 0.14868
 H155 H 0.00073 0.31203 0.03849
 H156 H -0.13503 0.33390 0.10153
 H157 H -0.12409 0.38377 0.05748
 H158 H -0.11084 0.26718 0.13308
 H159 H 0.02497 0.24750 0.06919
 H160 H 0.04792 0.18015 0.09871
 H161 H 0.03330 0.12434 0.13885
 H162 H -0.08804 0.19804 0.16256
 C163 C 0.34270 0.00472 0.55683
 C164 C 0.31873 -0.00066 0.58336
 C165 C 0.34022 0.02293 0.61207
 C166 C 0.38605 0.05045 0.61383
 C167 C 0.40966 0.05571 0.58723
 C168 C 0.38783 0.03362 0.55844
 C169 C 0.31517 0.01937 0.63833
 C170 C 0.26875 -0.00723 0.63615
 C171 C 0.24793 -0.03171 0.60754
 C172 C 0.27310 -0.02844 0.58140
 C173 C 0.20173 -0.05834 0.60532
 C174 C 0.17573 -0.05982 0.63097
 C175 C 0.19543 -0.03487 0.65943
 C176 C 0.24235 -0.00900 0.66193
 H177 H 0.32599 -0.01315 0.53480
 H178 H 0.40320 0.06865 0.63564
 H179 H 0.44436 0.07828 0.58898
 H180 H 0.33135 0.03798 0.66027
 H181 H 0.25674 -0.04672 0.55940
 H182 H 0.18525 -0.07726 0.58357
 H183 H 0.13940 -0.07934 0.62823
 H184 H 0.25807 0.01003 0.68381
 C185 C -0.31722 -0.00332 0.55631
 C186 C -0.28379 -0.00519 0.58254
 C187 C -0.28376 0.02755 0.60865
 C188 C -0.31893 0.06030 0.60840
 C189 C -0.35276 0.06160 0.58217
 C190 C -0.35151 0.03077 0.55528
 C191 C -0.24817 0.02735 0.63425
 C192 C -0.21278 -0.00532 0.63385
 C193 C -0.21439 -0.03923 0.60800
 C194 C -0.24990 -0.03906 0.58266
 C195 C -0.17963 -0.07211 0.60746
 C196 C -0.14219 -0.07020 0.63165
 C197 C -0.13868 -0.03543 0.65691
 C198 C -0.17496 -0.00385 0.65833
 H199 H -0.31699 -0.02956 0.53683
 H200 H -0.31975 0.08554 0.62829
 H201 H -0.37794 0.08874 0.58257
 H202 H -0.24744 0.05311 0.65411
 H203 H -0.25039 -0.06456 0.56267
 H204 H -0.18075 -0.09864 0.58798
 H205 H -0.11529 -0.09557 0.63038
 H206 H -0.17252 0.02310 0.67771
 C207 C -0.00169 -0.33938 0.94533
 C208 C 0.00152 -0.31249 0.91926
 C209 C -0.02605 -0.32973 0.89082
 C210 C -0.05589 -0.37421 0.88894
 C211 C -0.05877 -0.40113 0.91504
 C212 C -0.03220 -0.38393 0.94390
 C213 C -0.02333 -0.30216 0.86485
 C214 C 0.00682 -0.25763 0.86711
 C215 C 0.03494 -0.24101 0.89559
 C216 C 0.03213 -0.26849 0.92141
 C217 C 0.06517 -0.19683 0.89798
 C218 C 0.06728 -0.16888 0.87251
 C219 C 0.03932 -0.18452 0.84406
 C220 C 0.00917 -0.22919 0.84149
 H221 H 0.02137 -0.32604 0.96648
 H222 H -0.07742 -0.38804 0.86732
 H223 H -0.08367 -0.43430 0.91262
 H224 H -0.04477 -0.31519 0.84303
 H225 H 0.05352 -0.25542 0.94326
 H226 H 0.08681 -0.18357 0.91967
 H227 H 0.09002 -0.13424 0.87534
 H228 H -0.01233 -0.24176 0.81962
 C229 C 0.01615 0.32333 0.93905
 C230 C 0.02361 0.29326 0.91335
 C231 C -0.00488 0.29550 0.88460
 C232 C -0.03858 0.32970 0.88174
 C233 C -0.04565 0.35969 0.90750
 C234 C -0.01934 0.35570 0.93647
 C235 C -0.00037 0.26244 0.85959
 C236 C 0.03193 0.22697 0.86314
 C237 C 0.06193 0.22643 0.89154
 C238 C 0.05779 0.25973 0.91636
 C239 C 0.09440 0.19137 0.89508
 C240 C 0.09534 0.15545 0.87139
 C241 C 0.06385 0.15381 0.84367
 C242 C 0.03331 0.19076 0.83928
 H243 H 0.03687 0.32058 0.96136
 H244 H -0.06046 0.33224 0.85984
 H245 H -0.07318 0.38451 0.90516
 H246 H -0.02310 0.26327 0.83777
 H247 H 0.07996 0.25840 0.93834
 H248 H 0.11808 0.19085 0.91653
 H249 H 0.12001 0.12810 0.87505
 H250 H 0.00877 0.18983 0.81806
 C251 C -0.33968 -0.01363 0.43964
 C252 C -0.31646 -0.01582 0.41268
 C253 C -0.33373 0.00826 0.38675
 C254 C -0.37544 0.03231 0.38788
 C255 C -0.39820 0.03482 0.41501
 C256 C -0.37955 0.01354 0.44185
 C257 C -0.30825 0.00894 0.36055
 C258 C -0.26532 -0.01361 0.36029
 C259 C -0.24916 -0.03902 0.38597
 C260 C -0.27508 -0.04039 0.41181
 C261 C -0.20638 -0.06141 0.38589
 C262 C -0.17877 -0.05740 0.36110
 C263 C -0.19353 -0.03126 0.33567
 C264 C -0.23744 -0.01006 0.33522
 H265 H -0.32625 -0.03334 0.45893
 H266 H -0.38949 0.05070 0.36813
 H267 H -0.42836 0.05643 0.41532
 H268 H -0.32098 0.02818 0.34082
 H269 H -0.26203 -0.05915 0.43169
 H270 H -0.19352 -0.08096 0.40542
 H271 H -0.14479 -0.07338 0.36239
 H272 H -0.24946 0.00981 0.31565
 C273 C 0.33012 0.09309 0.44758
 C274 C 0.29550 0.09080 0.42136
 C275 C 0.30367 0.06551 0.39356
 C276 C 0.34706 0.04434 0.39220
 C277 C 0.38075 0.04571 0.41863
 C278 C 0.37210 0.06896 0.44681
 C279 C 0.26752 0.05999 0.36803
 C280 C 0.22270 0.07816 0.37028
 C281 C 0.21500 0.10444 0.39786
 C282 C 0.25175 0.11130 0.42302
 C283 C 0.16988 0.12176 0.40026
 C284 C 0.13197 0.11125 0.37617
 C285 C 0.13865 0.08383 0.34905
 C286 C 0.18464 0.06855 0.34592
 H287 H 0.32339 0.11198 0.46895
 H288 H 0.35399 0.02490 0.37107
 H289 H 0.41242 0.02641 0.41733
 H290 H 0.27348 0.03983 0.34690
 H291 H 0.24545 0.13070 0.44435
 H292 H 0.16344 0.14218 0.42115
 H293 H 0.09704 0.12393 0.37891
 H294 H 0.19000 0.04696 0.32522
   
