data_POSCAR
  _audit_creation_date              2014-09-24
  _audit_creation_method            'ToBaCCo'
  _symmetry_space_group_name_H-M    'P1'
  _symmetry_Int_Tables_number       1
  _symmetry_cell_setting            triclinic
  loop_
  _symmetry_equiv_pos_as_xyz
 x,y,z
_cell_length_a 31.6470
_cell_length_b 29.4993
_cell_length_c 7.5331
_cell_angle_alpha 89.571900
_cell_angle_beta 89.490100
_cell_angle_gamma 90.401900
loop_
  _atom_site_label
  _atom_site_type_symbol
  _atom_site_fract_x
  _atom_site_fract_y
  _atom_site_fract_z
C1 C 0.14634 0.25436 0.16380
 C2 C 0.16731 0.21346 0.12690
 C3 C 0.21088 0.21051 0.16462
 C4 C 0.23333 0.24821 0.23103
 C5 C 0.21101 0.28828 0.26802
 C6 C 0.16824 0.29203 0.22716
 C7 C 0.28038 0.24768 0.24701
 C8 C 0.30378 0.28781 0.21549
 C9 C 0.34751 0.28895 0.23721
 C10 C 0.36864 0.24941 0.28615
 C11 C 0.34673 0.20807 0.30979
 C12 C 0.30228 0.20780 0.29300
 H13 H 0.11275 0.25750 0.14018
 H14 H 0.22782 0.18001 0.13012
 H15 H 0.22707 0.31771 0.32065
 H16 H 0.28829 0.31860 0.17322
 H17 H 0.40264 0.25086 0.30225
 H18 H 0.28471 0.17706 0.32368
 C19 C 0.86442 0.24791 0.18700
 C20 C 0.84378 0.28824 0.22468
 C21 C 0.80042 0.28778 0.25917
 C22 C 0.77679 0.24701 0.25091
 C23 C 0.79843 0.20622 0.21597
 C24 C 0.84245 0.20657 0.18972
 C25 C 0.73007 0.24780 0.28206
 C26 C 0.70819 0.21047 0.35891
 C27 C 0.66476 0.21327 0.40283
 C28 C 0.64347 0.25391 0.36406
 C29 C 0.66483 0.29100 0.28948
 C30 C 0.70734 0.28747 0.24348
 H31 H 0.89814 0.24859 0.15970
 H32 H 0.78567 0.31941 0.29516
 H33 H 0.78154 0.17426 0.20999
 H34 H 0.72531 0.18019 0.39479
 H35 H 0.60988 0.25693 0.39022
 H36 H 0.72249 0.31637 0.17981
 C37 C 0.64060 0.75224 0.73041
 C38 C 0.66305 0.71265 0.69475
 C39 C 0.70679 0.71152 0.72369
 C40 C 0.72842 0.74968 0.79105
 C41 C 0.70474 0.78898 0.82891
 C42 C 0.66129 0.79060 0.79567
 C43 C 0.77545 0.74918 0.81635
 C44 C 0.79892 0.79012 0.81202
 C45 C 0.84278 0.79067 0.83916
 C46 C 0.86387 0.74929 0.85551
 C47 C 0.84177 0.70808 0.85365
 C48 C 0.79756 0.70812 0.84100
 H49 H 0.60702 0.75353 0.70338
 H50 H 0.72357 0.68096 0.68953
 H51 H 0.71953 0.81875 0.88448
 H52 H 0.78369 0.82194 0.78220
 H53 H 0.89781 0.74896 0.87452
 H54 H 0.78098 0.67599 0.84890
 C55 C 0.35824 0.75227 0.58570
 C56 C 0.33604 0.79169 0.62346
 C57 C 0.29209 0.79033 0.63665
 C58 C 0.26950 0.74963 0.60838
 C59 C 0.29244 0.70985 0.57098
 C60 C 0.33682 0.71099 0.56498
 C61 C 0.22263 0.74884 0.63277
 C62 C 0.20181 0.71078 0.70836
 C63 C 0.15916 0.71321 0.76334
 C64 C 0.13727 0.75400 0.73572
 C65 C 0.15765 0.79195 0.66312
 C66 C 0.19930 0.78859 0.60286
 H67 H 0.39248 0.75339 0.57894
 H68 H 0.27604 0.82102 0.67556
 H69 H 0.27622 0.67788 0.55119
 H70 H 0.21955 0.68051 0.73884
 H71 H 0.10439 0.75692 0.77533
 H72 H 0.21409 0.81838 0.54418
 O73 O 0.95992 -0.02882 -0.26078
 O74 O 1.04242 0.05855 -0.20474
 O75 O 1.04113 -0.02540 -0.31518
 O76 O 0.96123 0.05612 -0.16123
 O77 O 0.97032 0.03405 0.11642
 O78 O 1.05040 -0.04615 -0.03647
 O79 O 1.05079 0.03786 0.07435
 O80 O 0.96892 -0.04985 0.01829
 Cu81 Cu 1.00024 0.01719 -0.26224
 Cu82 Cu 1.01126 -0.00883 0.07009
 C83 C 0.95041 -0.05412 -0.12928
 C84 C 1.05934 0.06456 -0.05433
 C85 C 1.05953 -0.04965 -0.20005
 C86 C 0.95305 0.05995 0.00323
 O87 O 0.46771 0.47438 0.17324
 O88 O 0.54749 0.55984 0.30464
 O89 O 0.55014 0.47696 0.18693
 O90 O 0.46583 0.55972 0.28038
 O91 O 0.46268 0.53549 0.55757
 O92 O 0.54527 0.45241 0.46280
 O93 O 0.54453 0.53479 0.58060
 O94 O 0.46388 0.45150 0.45234
 Cu95 Cu 0.50800 0.52020 0.20911
 Cu96 Cu 0.50348 0.49115 0.53956
 C97 C 0.45291 0.44757 0.29188
 C98 C 0.55994 0.56172 0.46422
 C99 C 0.56170 0.44997 0.30878
 C100 C 0.45109 0.56288 0.43708
 O101 O -0.03540 0.55431 0.15292
 O102 O 0.04769 0.47258 0.27703
 O103 O 0.04616 0.55621 0.15973
 O104 O -0.03458 0.46984 0.26586
 O105 O -0.03063 0.44634 -0.01102
 O106 O 0.04686 0.53594 -0.12112
 O107 O 0.05139 0.45256 -0.00417
 O108 O -0.03392 0.53035 -0.12397
 Cu109 Cu 0.00562 0.51547 0.24066
 Cu110 Cu 0.00872 0.48838 -0.09164
 C111 C -0.04778 0.55733 -0.00668
 C112 C 0.06410 0.44897 0.15447
 C113 C 0.05858 0.56259 0.00096
 C114 C -0.04554 0.44245 0.14527
 O115 O 0.54818 1.03849 0.46327
 O116 O 0.46638 0.95055 0.52193
 O117 O 0.46759 1.03405 0.41552
 O118 O 0.54761 0.95282 0.56608
 O119 O 0.53675 0.97104 0.84587
 O120 O 0.45898 1.05550 0.69317
 O121 O 0.45501 0.97167 0.79794
 O122 O 0.54018 1.05664 0.74445
 Cu123 Cu 0.50886 0.99160 0.46558
 Cu124 Cu 0.49696 1.01597 0.79783
 C125 C 0.55710 1.06382 0.59341
 C126 C 0.44643 0.94613 0.66819
 C127 C 0.44961 1.05893 0.53002
 C128 C 0.55496 0.94673 0.72973
 C129 C 1.12312 0.09709 0.08672
 C130 C 1.15055 0.13273 0.12680
 C131 C 1.14458 0.17632 0.05484
 C132 C 1.11256 0.18210 -0.07532
 C133 C 1.08303 0.14669 -0.10764
 C134 C 1.08868 0.10343 -0.02661
 C135 C 1.04839 0.15661 -0.21752
 N136 N 1.04672 0.19674 -0.30590
 N137 N 1.07699 0.22792 -0.29071
 C138 C 1.10996 0.22184 -0.17994
 H139 H 1.12826 0.06438 0.14901
 H140 H 1.17480 0.12666 0.22462
 H141 H 1.02221 0.13353 -0.23316
 H142 H 1.13401 0.24803 -0.17546
 C143 C 0.58569 0.61559 0.68861
 C144 C 0.60986 0.65236 0.74315
 C145 C 0.64002 0.67226 0.62973
 C146 C 0.64651 0.65405 0.45811
 C147 C 0.62252 0.61574 0.40331
 C148 C 0.59067 0.59730 0.51831
 C149 C 0.63191 0.59705 0.23604
 N150 N 0.66132 0.61700 0.12858
 N151 N 0.68223 0.65415 0.17683
 C152 C 0.67582 0.67338 0.33756
 H153 H 0.56182 0.60230 0.77912
 H154 H 0.60452 0.66593 0.87475
 H155 H 0.61706 0.56631 0.19029
 H156 H 0.69369 0.70357 0.36920
 C157 C -0.10729 0.39660 0.05921
 C158 C -0.13482 0.35994 0.07975
 C159 C -0.13167 0.33088 0.22632
 C160 C -0.10135 0.33984 0.35866
 C161 C -0.07258 0.37655 0.33625
 C162 C -0.07576 0.40523 0.18451
 C163 C -0.04051 0.38170 0.46304
 N164 N -0.03923 0.35376 0.60669
 N165 N -0.06744 0.32056 0.63119
 C166 C -0.09836 0.31254 0.51188
 H167 H -0.11002 0.41788 -0.05798
 H168 H -0.15768 0.35311 -0.02312
 H169 H -0.01600 0.40700 0.44874
 H170 H -0.12041 0.28508 0.53810
 C171 C 0.38961 0.90259 0.52711
 C172 C 0.36293 0.86520 0.51461
 C173 C 0.35938 0.83421 0.65467
 C174 C 0.38035 0.84278 0.81611
 C175 C 0.40678 0.88167 0.83170
 C176 C 0.41301 0.91070 0.68143
 C177 C 0.42672 0.88881 0.99568
 N178 N 0.42121 0.85869 1.13093
 N179 N 0.39682 0.82206 1.11488
 C180 C 0.37604 0.81319 0.96253
 H181 H 0.39310 0.92466 0.41213
 H182 H 0.34641 0.85924 0.39150
 H183 H 0.44614 0.91802 1.02060
 H184 H 0.35617 0.78327 0.95761
 C185 C -0.11238 0.60210 0.05386
 C186 C -0.14005 0.63756 0.01741
 C187 C -0.13390 0.66539 -0.13225
 C188 C -0.10015 0.65608 -0.25121
 C189 C -0.07070 0.62174 -0.20924
 C190 C -0.07744 0.59381 -0.05692
 C191 C -0.03435 0.61825 -0.31734
 N192 N -0.03018 0.64422 -0.46583
 N193 N -0.05946 0.67411 -0.51206
 C194 C -0.09424 0.68100 -0.40983
 H195 H -0.11775 0.58157 0.17188
 H196 H -0.16542 0.64451 0.11063
 H197 H -0.00872 0.59604 -0.28371
 H198 H -0.11692 0.70591 -0.45322
 C199 C 0.42329 1.13685 0.55326
 C200 C 0.39912 1.17326 0.49763
 C201 C 0.36936 1.16886 0.36099
 C202 C 0.36444 1.12563 0.27913
 C203 C 0.38893 1.08816 0.33872
 C204 C 0.41939 1.09435 0.47387
 C205 C 0.38199 1.04560 0.26049
 N206 N 0.35478 1.04157 0.12358
 N207 N 0.33403 1.07711 0.05968
 C208 C 0.33813 1.11891 0.13137
 H209 H 0.44617 1.14238 0.65719
 H210 H 0.40337 1.20526 0.56528
 H211 H 0.39759 1.01539 0.30709
 H212 H 0.32141 1.14644 0.06915
 C213 C 1.07970 -0.11348 -0.39284
 C214 C 1.10299 -0.15262 -0.42391
 C215 C 1.13776 -0.16320 -0.31815
 C216 C 1.15061 -0.13270 -0.18382
 C217 C 1.12744 -0.09250 -0.15489
 C218 C 1.09051 -0.08411 -0.25466
 C219 C 1.14186 -0.06210 -0.02511
 N220 N 1.17600 -0.07257 0.07416
 N221 N 1.19674 -0.11125 0.05219
 C222 C 1.18520 -0.14170 -0.07259
 H223 H 1.05149 -0.10762 -0.46992
 H224 H 1.09279 -0.17582 -0.52611
 H225 H 1.12673 -0.02986 -0.00306
 H226 H 1.20320 -0.17254 -0.08284
 C227 C 0.61859 0.40198 0.42355
 C228 C 0.64274 0.36288 0.42181
 C229 C 0.64319 0.33490 0.27345
 C230 C 0.62169 0.34828 0.11858
 C231 C 0.59740 0.38865 0.11813
 C232 C 0.59401 0.41448 0.27699
 C233 C 0.57679 0.40041 -0.04030
 N234 N 0.57935 0.37308 -0.18384
 N235 N 0.60167 0.33505 -0.18151
 C236 C 0.62316 0.32191 -0.03552
 H237 H 0.61777 0.42177 0.54412
 H238 H 0.65999 0.35341 0.53991
 H239 H 0.55915 0.43108 -0.05459
 H240 H 0.64129 0.29104 -0.04076
 C241 C 0.92832 -0.12629 -0.25972
 C242 C 0.90284 -0.16482 -0.26252
 C243 C 0.86606 -0.16833 -0.15655
 C244 C 0.85512 -0.13127 -0.04459
 C245 C 0.88144 -0.09203 -0.04237
 C246 C 0.91857 -0.09023 -0.14818
 C247 C 0.87016 -0.05587 0.06875
 N248 N 0.83577 -0.05959 0.17634
 N249 N 0.81216 -0.09709 0.18114
 C250 C 0.82081 -0.13309 0.07630
 H251 H 0.95686 -0.12537 -0.34036
 H252 H 0.91188 -0.19217 -0.35009
 H253 H 0.88839 -0.02472 0.07114
 H254 H 0.80123 -0.16292 0.09240
 C255 C 0.38754 0.40463 0.35796
 C256 C 0.36192 0.36628 0.34519
 C257 C 0.37116 0.33233 0.22220
 C258 C 0.40539 0.33859 0.10203
 C259 C 0.43191 0.37739 0.11644
 C260 C 0.42312 0.41046 0.24764
 C261 C 0.46744 0.38045 0.00392
 N262 N 0.47454 0.34823 -0.12015
 N263 N 0.44874 0.31276 -0.13794
 C264 C 0.41446 0.30678 -0.03098
 H265 H 0.38046 0.42922 0.46002
 H266 H 0.33587 0.36196 0.43827
 H267 H 0.48974 0.40789 0.01387
 H268 H 0.39454 0.27736 -0.05130
 C269 C 0.11744 0.59644 -0.17419
 C270 C 0.14318 0.63255 -0.22842
 C271 C 0.13854 0.67578 -0.15380
 C272 C 0.11001 0.68084 -0.00784
 C273 C 0.08208 0.64488 0.04050
 C274 C 0.08620 0.60198 -0.04324
 C275 C 0.05056 0.65387 0.16913
 N276 N 0.05078 0.69368 0.25776
 N277 N 0.07990 0.72546 0.22540
 C278 C 0.10964 0.72030 0.09691
 H279 H 0.12136 0.56397 -0.23843
 H280 H 0.16492 0.62712 -0.33798
 H281 H 0.02535 0.63032 0.19993
 H282 H 0.13298 0.74692 0.07903
 C283 C 0.62126 1.09662 0.45068
 C284 C 0.64859 1.13244 0.40805
 C285 C 0.64228 1.17589 0.47852
 C286 C 0.61013 1.18123 0.61051
 C287 C 0.58102 1.14546 0.64768
 C288 C 0.58677 1.10254 0.56623
 C289 C 0.54670 1.15470 0.76258
 N290 N 0.54475 1.19478 0.84889
 N291 N 0.57444 1.22649 0.82719
 C292 C 0.60712 1.22092 0.71238
 H293 H 0.62647 1.06412 0.38834
 H294 H 0.67290 1.12663 0.30880
 H295 H 0.52105 1.13115 0.78474
 H296 H 0.63077 1.24739 0.70239
 C297 C 0.08980 0.38383 0.33135
 C298 C 0.11452 0.34499 0.34634
 C299 C 0.14742 0.33683 0.22521
 C300 C 0.15705 0.36966 0.09196
 C301 C 0.13233 0.40939 0.07864
 C302 C 0.09715 0.41528 0.19382
 C303 C 0.14338 0.44187 -0.05197
 N304 N 0.17586 0.43396 -0.16577
 N305 N 0.19807 0.39586 -0.15775
 C306 C 0.18973 0.36343 -0.03363
 H307 H 0.06306 0.38778 0.42047
 H308 H 0.10674 0.32008 0.44813
 H309 H 0.12686 0.47371 -0.06344
 H310 H 0.20876 0.33319 -0.03509
 C311 C 0.62172 0.90626 0.67627
 C312 C 0.64777 0.86865 0.69238
 C313 C 0.63776 0.83362 0.81204
 C314 C 0.60239 0.83813 0.92665
 C315 C 0.57555 0.87633 0.90979
 C316 C 0.58488 0.91031 0.77988
 C317 C 0.53932 0.87781 1.01867
 N318 N 0.53164 0.84454 1.14024
 N319 N 0.55749 0.80948 1.15916
 C320 C 0.59255 0.80506 1.05629
 H321 H 0.62949 0.93162 0.57617
 H322 H 0.67468 0.86564 0.60339
 H323 H 0.51698 0.90486 1.00876
 H324 H 0.61250 0.77590 1.07720
 C325 C 0.88651 0.10290 -0.03079
 C326 C 0.85861 0.13714 0.01816
 C327 C 0.86692 0.16439 0.16543
 C328 C 0.90314 0.15569 0.26936
 C329 C 0.93300 0.12333 0.21226
 C330 C 0.92394 0.09573 0.06366
 C331 C 0.97183 0.12144 0.30183
 N332 N 0.97800 0.14658 0.44934
 N333 N 0.94834 0.17411 0.51181
 C334 C 0.91112 0.17948 0.42707
 H335 H 0.87930 0.08247 -0.14569
 H336 H 0.83127 0.14360 -0.06361
 H337 H 0.99769 0.10094 0.25524
 H338 H 0.88812 0.20232 0.48333
 C339 C 0.39000 0.61078 0.35519
 C340 C 0.36127 0.64549 0.38771
 C341 C 0.36201 0.66915 0.54802
 C342 C 0.39139 0.65671 0.68027
 C343 C 0.42223 0.62344 0.64342
 C344 C 0.42080 0.59936 0.48057
 C345 C 0.45452 0.61711 0.76862
 N346 N 0.45337 0.63927 0.92559
 N347 N 0.42250 0.66796 0.96525
 C348 C 0.39150 0.67744 0.84816
 H349 H 0.38862 0.59320 0.22957
 H350 H 0.33926 0.65496 0.28473
 H351 H 0.48133 0.59590 0.74222
 H352 H 0.36723 0.70105 0.88734
   
