data_POSCAR
  _audit_creation_date              2014-09-24
  _audit_creation_method            'ToBaCCo'
  _symmetry_space_group_name_H-M    'P1'
  _symmetry_Int_Tables_number       1
  _symmetry_cell_setting            triclinic
  loop_
  _symmetry_equiv_pos_as_xyz
 x,y,z
_cell_length_a 27.1435
_cell_length_b 29.4641
_cell_length_c 27.4372
_cell_angle_alpha 89.514600
_cell_angle_beta 91.009100
_cell_angle_gamma 86.012700
loop_
  _atom_site_label
  _atom_site_type_symbol
  _atom_site_fract_x
  _atom_site_fract_y
  _atom_site_fract_z
C1 C 1.20637 0.22721 0.18895
 C2 C 1.24138 0.25710 0.16231
 C3 C 1.27065 0.28081 0.19250
 C4 C 1.26301 0.27106 0.24733
 C5 C 1.23939 0.19649 0.22223
 C6 C 1.26953 0.21859 0.25241
 C7 C 1.17838 0.26010 0.22294
 C8 C 1.20721 0.28312 0.25377
 H9 H 1.24034 0.26155 0.12310
 H10 H 1.28723 0.28953 0.27210
 H11 H 1.23743 0.15993 0.22292
 H12 H 1.13862 0.26567 0.22171
 C13 C 0.71427 -0.27389 0.20703
 C14 C 0.74294 -0.24201 0.17532
 C15 C 0.77299 -0.21535 0.20083
 C16 C 0.77236 -0.22348 0.25630
 C17 C 0.75370 -0.30106 0.23803
 C18 C 0.78384 -0.27477 0.26384
 C19 C 0.68723 -0.24158 0.24307
 C20 C 0.71780 -0.21583 0.26899
 H21 H 0.73762 -0.23902 0.13622
 H22 H 0.79682 -0.20211 0.27776
 H23 H 0.75501 -0.33772 0.24222
 H24 H 0.64752 -0.23802 0.24675
 C25 C 0.71642 0.21941 -0.29583
 C26 C 0.73604 0.25712 -0.32237
 C27 C 0.76668 0.28479 -0.29322
 C28 C 0.76945 0.26989 -0.24158
 C29 C 0.75977 0.19500 -0.27389
 C30 C 0.78827 0.22214 -0.24276
 C31 C 0.68958 0.24107 -0.25597
 C32 C 0.71802 0.26921 -0.22569
 H33 H 0.73479 0.26030 -0.36140
 H34 H 0.79250 0.29038 -0.21793
 H35 H 0.76789 0.15867 -0.27788
 H36 H 0.64992 0.24004 -0.25354
 C37 C 1.22235 -0.28879 -0.28997
 C38 C 1.24635 -0.25553 -0.32408
 C39 C 1.27397 -0.22496 -0.30073
 C40 C 1.27474 -0.23054 -0.24485
 C41 C 1.26514 -0.31085 -0.25916
 C42 C 1.29224 -0.28063 -0.23541
 C43 C 1.19325 -0.25838 -0.25395
 C44 C 1.22004 -0.22727 -0.23169
 H45 H 1.24052 -0.25554 -0.36321
 H46 H 1.29705 -0.20643 -0.22472
 H47 H 1.27135 -0.34730 -0.25388
 H48 H 1.15553 -0.26225 -0.24437
 C49 C 0.21444 0.22274 0.81001
 C50 C 0.25056 0.24621 0.83778
 C51 C 0.28441 0.26993 0.80910
 C52 C 0.27600 0.26420 0.75643
 C53 C 0.18939 0.25948 0.77654
 C54 C 0.22120 0.28090 0.74801
 C55 C 0.24427 0.19134 0.77607
 C56 C 0.27730 0.21210 0.74843
 H57 H 0.25191 0.24524 0.87714
 H58 H 0.30096 0.28201 0.73253
 H59 H 0.15029 0.26954 0.77685
 H60 H 0.23743 0.15583 0.77272
 C61 C 0.72835 0.71251 0.79598
 C62 C 0.74945 0.74896 0.82337
 C63 C 0.77465 0.78021 0.79385
 C64 C 0.77396 0.76836 0.74179
 C65 C 0.69698 0.73574 0.75851
 C66 C 0.72144 0.76730 0.72869
 C67 C 0.77001 0.69095 0.77049
 C68 C 0.79458 0.72106 0.73968
 H69 H 0.75355 0.74875 0.86249
 H70 H 0.79439 0.79107 0.71853
 H71 H 0.65716 0.73479 0.75897
 H72 H 0.77975 0.65461 0.77202
 C73 C 0.73053 0.20492 0.30060
 C74 C 0.76143 0.23545 0.33201
 C75 C 0.78519 0.26697 0.30648
 C76 C 0.77672 0.26422 0.25069
 C77 C 0.69678 0.23782 0.26979
 C78 C 0.72010 0.26923 0.24388
 C79 C 0.76733 0.18351 0.26445
 C80 C 0.79075 0.21427 0.23782
 H81 H 0.76599 0.23142 0.37098
 H82 H 0.79692 0.28870 0.22943
 H83 H 0.65748 0.23398 0.26663
 H84 H 0.77427 0.14726 0.25943
 C85 C 0.22795 0.70407 0.29426
 C86 C 0.26502 0.73170 0.32225
 C87 C 0.28738 0.76232 0.29411
 C88 C 0.27126 0.76206 0.24014
 C89 C 0.19239 0.73992 0.26925
 C90 C 0.21466 0.76981 0.24038
 C91 C 0.25810 0.68223 0.25273
 C92 C 0.28060 0.71244 0.22461
 H93 H 0.27311 0.72771 0.36069
 H94 H 0.29011 0.78643 0.21708
 H95 H 0.15271 0.73882 0.27089
 H96 H 0.26233 0.64584 0.24690
 N97 N 1.08800 0.03285 0.04935
 N98 N 1.11929 0.06501 0.05345
 N99 N 1.04560 -0.05661 0.08485
 N100 N 1.05584 -0.08465 0.12201
 N101 N 1.08009 -0.06151 0.05198
 N102 N 1.11443 -0.09304 0.06575
 N103 N 1.05375 0.03760 0.08233
 N104 N 1.06062 0.07304 0.10985
 C105 C 1.10176 0.08962 0.09160
 C106 C 1.09845 -0.10766 0.10909
 N107 N 0.90491 -0.03644 0.04729
 N108 N 0.86819 -0.06203 0.05713
 N109 N 0.94889 0.05300 0.07955
 N110 N 0.94238 0.08432 0.11323
 N111 N 0.91427 0.05811 0.04552
 N112 N 0.88272 0.09284 0.05585
 N113 N 0.93935 -0.04132 0.08157
 N114 N 0.92703 -0.07017 0.11552
 Mn115 Mn 0.99683 -0.00199 0.08245
 C116 C 0.88280 -0.08321 0.09959
 C117 C 0.90144 0.10941 0.09782
 N118 N 1.08115 -0.06331 -0.05230
 N119 N 1.11777 -0.09262 -0.06419
 N120 N 1.05533 0.03520 -0.08949
 N121 N 1.06309 0.07010 -0.11808
 N122 N 1.08902 0.03080 -0.05464
 N123 N 1.12081 0.06235 -0.05854
 N124 N 1.04772 -0.05909 -0.08764
 N125 N 1.06142 -0.08513 -0.12457
 Mn126 Mn 1.08488 -0.01536 -0.00139
 C127 C 1.10456 -0.10657 -0.10893
 C128 C 1.10429 0.08642 -0.09839
 N129 N 0.91575 0.05695 -0.06065
 N130 N 0.88650 0.09335 -0.07284
 N131 N 0.94064 -0.04403 -0.09104
 N132 N 0.92765 -0.07278 -0.12489
 N133 N 0.90587 -0.03802 -0.05847
 N134 N 0.86870 -0.06306 -0.06907
 N135 N 0.95028 0.04989 -0.09318
 N136 N 0.94553 0.08075 -0.12813
 Mn137 Mn 0.90949 0.01032 -0.00663
 Mn138 Mn 0.99843 -0.00472 -0.09069
 Cl139 Cl 0.99722 -0.00320 -0.00409
 C140 C 0.90616 0.10802 -0.11490
 C141 C 0.88294 -0.08488 -0.11035
 N142 N 1.08831 0.53120 0.55692
 N143 N 1.12458 0.55756 0.56632
 N144 N 1.04761 0.44137 0.58998
 N145 N 1.06291 0.41714 0.62875
 N146 N 1.08070 0.43704 0.55547
 N147 N 1.11855 0.40935 0.56997
 N148 N 1.05434 0.53570 0.59024
 N149 N 1.06625 0.56559 0.62311
 C150 C 1.10997 0.57908 0.60746
 C151 C 1.10657 0.39656 0.61533
 N152 N 0.90502 0.46107 0.55658
 N153 N 0.86846 0.43530 0.56674
 N154 N 0.94891 0.54984 0.59078
 N155 N 0.94471 0.58096 0.62481
 N156 N 0.91356 0.55644 0.55764
 N157 N 0.88429 0.59281 0.56860
 N158 N 0.94021 0.45555 0.59009
 N159 N 0.92824 0.42633 0.62400
 Mn160 Mn 0.99765 0.49549 0.59048
 C161 C 0.88351 0.41363 0.60884
 C162 C 0.90470 0.60791 0.61064
 N163 N 1.07915 0.43993 0.45011
 N164 N 1.11480 0.41059 0.43541
 N165 N 1.05206 0.53960 0.41844
 N166 N 1.06542 0.56792 0.38435
 N167 N 1.08627 0.53438 0.45281
 N168 N 1.12341 0.55947 0.44351
 N169 N 1.04409 0.44558 0.41650
 N170 N 1.05511 0.42031 0.37834
 Mn171 Mn 1.08373 0.48552 0.50382
 C172 C 1.09882 0.39815 0.39083
 C173 C 1.10963 0.58056 0.40101
 N174 N 0.91149 0.55804 0.45120
 N175 N 0.87976 0.59293 0.44016
 N176 N 0.93786 0.45963 0.41660
 N177 N 0.92901 0.42738 0.38523
 N178 N 0.90391 0.46271 0.45022
 N179 N 0.87118 0.43210 0.44262
 N180 N 0.94607 0.55396 0.41831
 N181 N 0.93897 0.58578 0.38439
 Mn182 Mn 0.90772 0.50967 0.50388
 Mn183 Mn 0.99486 0.49972 0.41723
 Cl184 Cl 0.99585 0.49733 0.50389
 C185 C 0.89780 0.61016 0.39853
 C186 C 0.88729 0.41045 0.40168
 N187 N 0.43555 0.04581 0.41251
 N188 N 0.40817 0.05989 0.37430
 N189 N 0.53585 0.07831 0.44626
 N190 N 0.56671 0.10980 0.43747
 N191 N 0.53868 0.04699 0.41253
 N192 N 0.57181 0.05628 0.37986
 N193 N 0.43286 0.07682 0.44686
 N194 N 0.40342 0.11225 0.43271
 C195 C 0.38758 0.10092 0.38780
 C196 C 0.58923 0.09546 0.39626
 N197 N 0.54324 0.04764 0.58571
 N198 N 0.57401 0.06015 0.62023
 N199 N 0.43619 0.07693 0.55280
 N200 N 0.40738 0.11209 0.56725
 N201 N 0.44028 0.04521 0.58701
 N202 N 0.41404 0.05812 0.62514
 N203 N 0.53897 0.07839 0.55067
 N204 N 0.56677 0.11221 0.56014
 Mn205 Mn 0.48582 0.07771 0.49911
 C206 C 0.58897 0.10023 0.60320
 C207 C 0.39308 0.09949 0.61201
 N208 N 0.54860 -0.05077 0.41335
 N209 N 0.58188 -0.05967 0.37957
 N210 N 0.44977 -0.08452 0.44855
 N211 N 0.42568 -0.12030 0.43707
 N212 N 0.44531 -0.05380 0.41342
 N213 N 0.41810 -0.06848 0.37698
 N214 N 0.55273 -0.08182 0.44801
 N215 N 0.58872 -0.11270 0.43879
 Mn216 Mn 0.49189 -0.00294 0.41254
 C217 C 0.60693 -0.09822 0.39628
 C218 C 0.40536 -0.10977 0.39286
 N219 N 0.44989 -0.05375 0.58745
 N220 N 0.41647 -0.06370 0.61976
 N221 N 0.55535 -0.08243 0.55264
 N222 N 0.58741 -0.11643 0.56498
 N223 N 0.55372 -0.05111 0.58648
 N224 N 0.58522 -0.06305 0.62244
 N225 N 0.45233 -0.08430 0.55288
 N226 N 0.42076 -0.11545 0.56031
 Mn227 Mn 0.49678 -0.00307 0.58713
 Mn228 Mn 0.50256 -0.08337 0.50055
 Cl229 Cl 0.49395 -0.00285 0.49986
 C230 C 0.39849 -0.10232 0.60200
 C231 C 0.60685 -0.10337 0.60782
 N232 N 0.59103 0.53950 0.05594
 N233 N 0.62272 0.57060 0.06430
 N234 N 0.55559 0.44671 0.09041
 N235 N 0.56497 0.41688 0.12603
 N236 N 0.59151 0.44441 0.05884
 N237 N 0.62623 0.41298 0.07216
 N238 N 0.55604 0.54176 0.08837
 N239 N 0.56304 0.57441 0.11987
 C240 C 0.60475 0.59215 0.10427
 C241 C 0.60889 0.39581 0.11386
 N242 N 0.41549 0.45669 0.04916
 N243 N 0.37923 0.43050 0.05826
 N244 N 0.45023 0.54960 0.08230
 N245 N 0.44053 0.58226 0.11402
 N246 N 0.41726 0.55189 0.04663
 N247 N 0.38374 0.58580 0.05361
 N248 N 0.44836 0.45403 0.08498
 N249 N 0.43503 0.42590 0.11949
 Mn250 Mn 0.50254 0.49786 0.08699
 C251 C 0.39205 0.41099 0.10191
 C252 C 0.39911 0.60479 0.09557
 N253 N 0.59621 0.44225 -0.04606
 N254 N 0.63233 0.41095 -0.05389
 N255 N 0.56359 0.53738 -0.08536
 N256 N 0.57584 0.56590 -0.11977
 N257 N 0.59511 0.53734 -0.04850
 N258 N 0.62914 0.56621 -0.05641
 N259 N 0.56242 0.44221 -0.08097
 N260 N 0.57430 0.41032 -0.11305
 Mn261 Mn 0.59385 0.49091 0.00510
 C262 C 0.61770 0.39092 -0.09531
 C263 C 0.61638 0.58402 -0.10076
 N264 N 0.42214 0.54971 -0.05872
 N265 N 0.39187 0.58573 -0.06877
 N266 N 0.45523 0.45021 -0.08767
 N267 N 0.44704 0.41724 -0.11866
 N268 N 0.42006 0.45419 -0.05543
 N269 N 0.38753 0.42374 -0.06309
 N270 N 0.45720 0.54547 -0.09109
 N271 N 0.45166 0.57841 -0.12404
 Mn272 Mn 0.41828 0.50327 -0.00472
 Mn273 Mn 0.50958 0.49364 -0.08682
 Cl274 Cl 0.50602 0.49627 0.00014
 C275 C 0.41081 0.60338 -0.10959
 C276 C 0.40463 0.40091 -0.10262
 C277 C 1.18948 0.18169 0.11280
 C278 C 1.17325 0.20012 0.15715
 C279 C 1.12816 0.18590 0.17508
 C280 C 1.10302 0.15234 0.15137
 C281 C 1.12326 0.13042 0.11035
 C282 C 1.16502 0.14767 0.08990
 C283 C 1.21223 0.12351 0.07445
 C284 C 1.23901 0.16080 0.09929
 H285 H 1.11396 0.19744 0.20971
 H286 H 1.06999 0.14093 0.16778
 H287 H 1.21590 0.12387 0.03430
 H288 H 1.21930 0.08958 0.09228
 H289 H 1.25800 0.18250 0.07327
 H290 H 1.26182 0.14841 0.13139
 C291 C 1.14244 0.67246 0.69194
 C292 C 1.19293 0.67670 0.68359
 C293 C 1.21694 0.64501 0.65205
 C294 C 1.19037 0.61260 0.62738
 C295 C 1.13926 0.61097 0.63411
 C296 C 1.11654 0.64006 0.66797
 C297 C 1.07146 0.67131 0.66069
 C298 C 1.09945 0.70712 0.68631
 H299 H 1.25613 0.64601 0.64573
 H300 H 1.20957 0.58951 0.60247
 H301 H 1.03979 0.66017 0.68181
 H302 H 1.06313 0.67942 0.62162
 H303 H 1.08269 0.71690 0.72170
 H304 H 1.10757 0.73613 0.66222
 C305 C 0.66483 0.19976 0.63125
 C306 C 0.68530 0.18945 0.67781
 C307 C 0.66772 0.15098 0.70212
 C308 C 0.63610 0.12185 0.67856
 C309 C 0.62021 0.13070 0.63027
 C310 C 0.63307 0.17115 0.60861
 C311 C 0.65358 0.17819 0.55963
 C312 C 0.68901 0.20881 0.58373
 H313 H 0.67929 0.14295 0.73938
 H314 H 0.62501 0.09210 0.69780
 H315 H 0.62603 0.19687 0.53519
 H316 H 0.67208 0.14651 0.54486
 H317 H 0.68258 0.24486 0.57155
 H318 H 0.72814 0.19485 0.58296
 C319 C 0.69386 0.68162 0.13121
 C320 C 0.68132 0.69601 0.17826
 C321 C 0.63842 0.67921 0.19833
 C322 C 0.61169 0.64716 0.17312
 C323 C 0.62806 0.63003 0.12798
 C324 C 0.66796 0.64966 0.10673
 C325 C 0.71381 0.62785 0.08524
 C326 C 0.74220 0.66297 0.11201
 H327 H 0.62684 0.68873 0.23456
 H328 H 0.58015 0.63374 0.19043
 H329 H 0.71419 0.63200 0.04496
 H330 H 0.72260 0.59252 0.09891
 H331 H 0.75883 0.68733 0.08705
 H332 H 0.76750 0.64802 0.14114
 C333 C 0.84252 -0.16384 0.19691
 C334 C 0.79814 -0.17796 0.17772
 C335 C 0.77782 -0.15453 0.13606
 C336 C 0.80470 -0.12264 0.11123
 C337 C 0.85238 -0.11338 0.12757
 C338 C 0.86912 -0.13249 0.17233
 C339 C 0.91739 -0.15706 0.18613
 C340 C 0.88820 -0.19138 0.21304
 H341 H 0.74190 -0.16179 0.12158
 H342 H 0.78896 -0.10678 0.07822
 H343 H 0.93981 -0.13668 0.21089
 H344 H 0.93732 -0.17160 0.15415
 H345 H 0.89384 -0.19074 0.25324
 H346 H 0.89107 -0.22585 0.19669
 C347 C 0.78526 0.33231 0.63653
 C348 C 0.79611 0.31699 0.68451
 C349 C 0.83973 0.33210 0.70634
 C350 C 0.86888 0.36274 0.68157
 C351 C 0.85480 0.38008 0.63481
 C352 C 0.81338 0.36300 0.61269
 C353 C 0.76902 0.38790 0.58986
 C354 C 0.73816 0.35436 0.61565
 H355 H 0.85230 0.32005 0.74204
 H356 H 0.90174 0.37372 0.69961
 H357 H 0.76812 0.38451 0.54960
 H358 H 0.76292 0.42330 0.60334
 H359 H 0.71955 0.33174 0.59003
 H360 H 0.71397 0.37026 0.64401
 C361 C 0.31291 -0.19547 0.62429
 C362 C 0.29934 -0.18932 0.67286
 C363 C 0.31128 -0.14827 0.69518
 C364 C 0.34154 -0.11807 0.67140
 C365 C 0.36045 -0.12849 0.62497
 C366 C 0.34279 -0.16610 0.60116
 C367 C 0.36963 -0.20397 0.57444
 C368 C 0.33678 -0.23617 0.59981
 H369 H 0.29906 -0.14019 0.73159
 H370 H 0.35238 -0.08821 0.69046
 H371 H 0.40916 -0.20924 0.58579
 H372 H 0.36268 -0.20146 0.53442
 H373 H 0.35720 -0.26004 0.62589
 H374 H 0.31095 -0.25215 0.57434
 C375 C 0.34438 0.32871 0.19495
 C376 C 0.29925 0.31824 0.17384
 C377 C 0.28150 0.34499 0.13347
 C378 C 0.31124 0.37610 0.11125
 C379 C 0.35948 0.38170 0.12890
 C380 C 0.37393 0.35963 0.17291
 C381 C 0.42022 0.33158 0.18612
 C382 C 0.38794 0.29793 0.21024
 H383 H 0.24533 0.34067 0.11766
 H384 H 0.29706 0.39428 0.07892
 H385 H 0.44372 0.34909 0.21257
 H386 H 0.43977 0.31761 0.15366
 H387 H 0.39278 0.29619 0.25054
 H388 H 0.38875 0.26441 0.19183
 C389 C 0.83249 0.21370 -0.16393
 C390 C 0.82687 0.20240 -0.21330
 C391 C 0.85715 0.16538 -0.23068
 C392 C 0.88608 0.13711 -0.19847
 C393 C 0.88371 0.14375 -0.14781
 C394 C 0.85936 0.18418 -0.13166
 C395 C 0.82360 0.19244 -0.09164
 C396 C 0.79406 0.22467 -0.12654
 H397 H 0.85643 0.15668 -0.26897
 H398 H 0.90650 0.10753 -0.21304
 H399 H 0.84004 0.21007 -0.06028
 H400 H 0.80411 0.16171 -0.08204
 H401 H 0.79341 0.26080 -0.11510
 H402 H 0.75741 0.21264 -0.13690
 C403 C 0.86523 0.68813 0.29109
 C404 C 0.81785 0.70598 0.30212
 C405 C 0.80146 0.70011 0.35007
 C406 C 0.82912 0.67124 0.38338
 C407 C 0.87357 0.64789 0.36903
 C408 C 0.89247 0.65981 0.32375
 C409 C 0.91334 0.63078 0.28360
 C410 C 0.88349 0.66203 0.24795
 H411 H 0.76553 0.71465 0.36038
 H412 H 0.81384 0.66456 0.41870
 H413 H 0.90082 0.59564 0.28468
 H414 H 0.95388 0.63293 0.28041
 H415 H 0.85377 0.64498 0.22840
 H416 H 0.90684 0.68233 0.22446
 C417 C 0.32807 0.15159 0.27325
 C418 C 0.30351 0.19262 0.28678
 C419 C 0.30872 0.20445 0.33640
 C420 C 0.33626 0.17489 0.36991
 C421 C 0.35896 0.13268 0.35449
 C422 C 0.35404 0.12337 0.30520
 C423 C 0.36710 0.08856 0.26777
 C424 C 0.33745 0.12030 0.23140
 H425 H 0.29001 0.23531 0.34968
 H426 H 0.33888 0.18466 0.40776
 H427 H 0.34985 0.05606 0.27478
 H428 H 0.40740 0.08533 0.26078
 H429 H 0.30350 0.10550 0.21736
 H430 H 0.36056 0.13525 0.20322
 C431 C 0.31766 0.69779 -0.15038
 C432 C 0.33021 0.70394 -0.19910
 C433 C 0.37638 0.68496 -0.21420
 C434 C 0.40540 0.65514 -0.18308
 C435 C 0.38801 0.64313 -0.13686
 C436 C 0.34584 0.66787 -0.11999
 C437 C 0.30120 0.65212 -0.09564
 C438 C 0.27038 0.68492 -0.12884
 H439 H 0.38764 0.68948 -0.25151
 H440 H 0.43877 0.63815 -0.19714
 H441 H 0.29984 0.66186 -0.05661
 H442 H 0.29528 0.61581 -0.10297
 H443 H 0.25134 0.71346 -0.10879
 H444 H 0.24658 0.66757 -0.15518
 C445 C 1.15825 -0.16174 -0.22059
 C446 C 1.19670 -0.19125 -0.20173
 C447 C 1.21084 -0.18603 -0.15262
 C448 C 1.18151 -0.15738 -0.12200
 C449 C 1.13821 -0.13337 -0.14054
 C450 C 1.13023 -0.13331 -0.19087
 C451 C 1.08483 -0.13564 -0.22186
 C452 C 1.11571 -0.16706 -0.25504
 H453 H 1.24210 -0.20640 -0.13719
 H454 H 1.19114 -0.15607 -0.08360
 H455 H 1.07312 -0.10231 -0.23921
 H456 H 1.05516 -0.15283 -0.20309
 H457 H 1.12170 -0.15175 -0.29143
 H458 H 1.10243 -0.20177 -0.25575
 C459 C 1.20033 0.31932 0.33662
 C460 C 1.18420 0.31680 0.28791
 C461 C 1.13875 0.34029 0.27462
 C462 C 1.11055 0.36499 0.30866
 C463 C 1.12753 0.36871 0.35695
 C464 C 1.17254 0.34524 0.37038
 C465 C 1.21705 0.36417 0.39261
 C466 C 1.24731 0.33686 0.35578
 H467 H 1.12464 0.33974 0.23751
 H468 H 1.07603 0.38246 0.29650
 H469 H 1.22388 0.35205 0.43076
 H470 H 1.21758 0.40158 0.38715
 H471 H 1.27232 0.30980 0.37315
 H472 H 1.26520 0.35841 0.32873
 C473 C 0.68628 -0.19823 0.35168
 C474 C 0.69981 -0.18331 0.30571
 C475 C 0.69237 -0.13663 0.29450
 C476 C 0.66485 -0.10735 0.32588
 C477 C 0.64510 -0.12455 0.36895
 C478 C 0.65973 -0.16939 0.38275
 C479 C 0.62978 -0.20670 0.40044
 C480 C 0.65898 -0.23831 0.36636
 H481 H 0.70406 -0.12369 0.25980
 H482 H 0.65598 -0.07237 0.31467
 H483 H 0.59004 -0.20129 0.38990
 H484 H 0.63722 -0.21491 0.43961
 H485 H 0.63603 -0.25128 0.33629
 H486 H 0.68302 -0.26467 0.38614
 C487 C 0.72110 0.32942 -0.16351
 C488 C 0.69712 0.29422 -0.18630
 C489 C 0.64979 0.28564 -0.16842
 C490 C 0.62475 0.31600 -0.13663
 C491 C 0.64699 0.35462 -0.12004
 C492 C 0.69663 0.35870 -0.13085
 C493 C 0.72106 0.39908 -0.14922
 C494 C 0.74767 0.36746 -0.18507
 H495 H 0.63049 0.25670 -0.18010
 H496 H 0.58713 0.31041 -0.12688
 H497 H 0.74617 0.41268 -0.12133
 H498 H 0.69461 0.42488 -0.16703
 H499 H 0.78818 0.36335 -0.17788
 H500 H 0.73668 0.37480 -0.22374
 C501 C 1.19809 0.17225 -0.11759
 C502 C 1.18013 0.19626 -0.15940
 C503 C 1.13216 0.18760 -0.17643
 C504 C 1.10585 0.15354 -0.15477
 C505 C 1.12734 0.12660 -0.11646
 C506 C 1.17228 0.13848 -0.09661
 C507 C 1.21836 0.10920 -0.08569
 C508 C 1.24679 0.14654 -0.10790
 H509 H 1.11629 0.20408 -0.20895
 H510 H 1.07037 0.14619 -0.17034
 H511 H 1.22059 0.07730 -0.10718
 H512 H 1.22558 0.10439 -0.04604
 H513 H 1.26631 0.13578 -0.14158
 H514 H 1.26967 0.16380 -0.08070
 C515 C 1.20778 0.66097 0.37282
 C516 C 1.20076 0.66938 0.32258
 C517 C 1.16685 0.64321 0.29751
 C518 C 1.13749 0.61375 0.32273
 C519 C 1.14192 0.60909 0.37364
 C520 C 1.17927 0.63108 0.39751
 C521 C 1.17553 0.66013 0.44162
 C522 C 1.20615 0.69314 0.41486
 H523 H 1.16145 0.64718 0.25845
 H524 H 1.11047 0.59566 0.30258
 H525 H 1.19512 0.64359 0.47371
 H526 H 1.13710 0.67398 0.44834
 H527 H 1.24306 0.69587 0.43237
 H528 H 1.18553 0.72619 0.40587
 C529 C 0.66948 0.19038 0.36569
 C530 C 0.69932 0.17280 0.32814
 C531 C 0.68638 0.13096 0.30787
 C532 C 0.65019 0.10550 0.32936
 C533 C 0.62490 0.12195 0.37059
 C534 C 0.63331 0.16575 0.38598
 C535 C 0.64248 0.18278 0.43580
 C536 C 0.68276 0.20937 0.41423
 H537 H 0.70351 0.11770 0.27524
 H538 H 0.64266 0.07284 0.31417
 H539 H 0.65677 0.15496 0.46082
 H540 H 0.61058 0.20474 0.44894
 H541 H 0.72013 0.19688 0.42781
 H542 H 0.67456 0.24682 0.41573
 C543 C 0.69888 0.67905 -0.12546
 C544 C 0.70207 0.67964 -0.17675
 C545 C 0.67985 0.64420 -0.20199
 C546 C 0.65201 0.61299 -0.17748
 C547 C 0.64645 0.61545 -0.12682
 C548 C 0.67234 0.64722 -0.10129
 C549 C 0.65295 0.68061 -0.06471
 C550 C 0.68117 0.71571 -0.09102
 H551 H 0.68264 0.64166 -0.24124
 H552 H 0.63424 0.58742 -0.19825
 H553 H 0.66773 0.67236 -0.02741
 H554 H 0.61217 0.68745 -0.06745
 H555 H 0.71155 0.72804 -0.06807
 H556 H 0.65685 0.74291 -0.10929
 C557 C 0.83484 -0.16075 -0.20952
 C558 C 0.79706 -0.18213 -0.18596
 C559 C 0.78257 -0.16436 -0.14011
 C560 C 0.80916 -0.13125 -0.11668
 C561 C 0.85161 -0.11534 -0.13778
 C562 C 0.86188 -0.12875 -0.18567
 C563 C 0.90920 -0.14619 -0.20777
 C564 C 0.87990 -0.18114 -0.23388
 H565 H 0.75117 -0.17646 -0.12143
 H566 H 0.79795 -0.12007 -0.08078
 H567 H 0.93621 -0.16150 -0.18032
 H568 H 0.92400 -0.12092 -0.23294
 H569 H 0.88995 -0.21674 -0.22171
 H570 H 0.87801 -0.17594 -0.27406
 C571 C 0.80365 0.31466 0.37921
 C572 C 0.81467 0.30091 0.33154
 C573 C 0.85507 0.32000 0.30946
 C574 C 0.87974 0.35476 0.33289
 C575 C 0.86413 0.37170 0.37861
 C576 C 0.82746 0.34915 0.40196
 C577 C 0.78135 0.36743 0.42574
 C578 C 0.75523 0.32959 0.40097
 H579 H 0.86698 0.30897 0.27377
 H580 H 0.90960 0.36964 0.31421
 H581 H 0.76853 0.40202 0.41224
 H582 H 0.78375 0.36347 0.46601
 H583 H 0.72718 0.34213 0.37310
 H584 H 0.74265 0.30400 0.42713
 C585 C 0.32757 -0.16321 0.29533
 C586 C 0.32393 -0.20730 0.31393
 C587 C 0.35507 -0.22100 0.35378
 C588 C 0.38290 -0.18943 0.37813
 C589 C 0.38063 -0.14338 0.36312
 C590 C 0.35533 -0.13190 0.31934
 C591 C 0.31809 -0.09349 0.30777
 C592 C 0.28782 -0.12767 0.28147
 H593 H 0.35612 -0.25553 0.36777
 H594 H 0.40433 -0.20076 0.41018
 H595 H 0.33283 -0.06802 0.28279
 H596 H 0.30004 -0.07912 0.34085
 H597 H 0.28523 -0.12191 0.24139
 H598 H 0.25217 -0.13316 0.29923
 C599 C 0.31484 0.31003 -0.11957
 C600 C 0.31903 0.29787 -0.16894
 C601 C 0.35900 0.31523 -0.19422
 C602 C 0.38915 0.34697 -0.17208
 C603 C 0.37957 0.36279 -0.12456
 C604 C 0.34378 0.34171 -0.09844
 C605 C 0.30269 0.36191 -0.06849
 C606 C 0.27063 0.32752 -0.09148
 H607 H 0.36690 0.30536 -0.23126
 H608 H 0.41793 0.36100 -0.19315
 H609 H 0.29111 0.39761 -0.07918
 H610 H 0.30963 0.35597 -0.02881
 H611 H 0.24052 0.34325 -0.11541
 H612 H 0.25879 0.30229 -0.06450
 C613 C 1.13989 -0.17852 0.21862
 C614 C 1.18624 -0.19844 0.20698
 C615 C 1.20329 -0.18851 0.15984
 C616 C 1.17438 -0.15952 0.12730
 C617 C 1.12773 -0.13970 0.14111
 C618 C 1.11235 -0.15066 0.18749
 C619 C 1.07234 -0.14099 0.22306
 C620 C 1.10339 -0.17268 0.25848
 H621 H 1.23834 -0.20362 0.14760
 H622 H 1.18872 -0.15256 0.09164
 H623 H 1.03704 -0.15479 0.21116
 H624 H 1.06957 -0.10482 0.23450
 H625 H 1.08555 -0.20452 0.26712
 H626 H 1.11839 -0.15474 0.29036
 C627 C 1.21130 0.31728 0.66510
 C628 C 1.20311 0.31855 0.71533
 C629 C 1.16871 0.35244 0.73269
 C630 C 1.13822 0.37906 0.70009
 C631 C 1.14190 0.37256 0.64952
 C632 C 1.18130 0.34402 0.63286
 C633 C 1.18063 0.30713 0.59605
 C634 C 1.21336 0.27787 0.63108
 H635 H 1.16237 0.35554 0.77143
 H636 H 1.11002 0.40278 0.71456
 H637 H 1.19960 0.31610 0.56206
 H638 H 1.14330 0.29449 0.59050
 H639 H 1.25085 0.27015 0.61655
 H640 H 1.19523 0.24808 0.64580
 C641 C 0.70979 -0.15688 0.68882
 C642 C 0.69441 -0.20089 0.69774
 C643 C 0.64707 -0.21005 0.67930
 C644 C 0.61866 -0.17792 0.65073
 C645 C 0.63588 -0.13513 0.64043
 C646 C 0.68062 -0.12447 0.66183
 C647 C 0.72404 -0.10585 0.63837
 C648 C 0.75602 -0.14133 0.66708
 H649 H 0.63255 -0.24298 0.68453
 H650 H 0.58350 -0.18697 0.63574
 H651 H 0.72938 -0.07044 0.64997
 H652 H 0.72453 -0.11133 0.59832
 H653 H 0.78025 -0.12617 0.69473
 H654 H 0.77486 -0.16742 0.64351
 C655 C 0.71251 0.31698 0.16694
 C656 C 0.69213 0.30173 0.21023
 C657 C 0.64164 0.31423 0.21815
 C658 C 0.61394 0.34301 0.18549
 C659 C 0.63593 0.36070 0.14419
 C660 C 0.68482 0.34563 0.13453
 C661 C 0.72741 0.37311 0.12364
 C662 C 0.75751 0.34269 0.15956
 H663 H 0.62361 0.30342 0.25067
 H664 H 0.57591 0.35302 0.19390
 H665 H 0.72167 0.40895 0.13587
 H666 H 0.73960 0.36888 0.08538
 H667 H 0.76870 0.36099 0.19282
 H668 H 0.78781 0.32176 0.14210
 C669 C 0.79869 0.18215 0.15545
 C670 C 0.82170 0.19902 0.19694
 C671 C 0.87186 0.18592 0.20554
 C672 C 0.89863 0.15877 0.17181
 C673 C 0.87565 0.14377 0.12886
 C674 C 0.82520 0.15541 0.12191
 C675 C 0.79942 0.17904 0.07944
 C676 C 0.77062 0.20831 0.11584
 H677 H 0.88980 0.19519 0.23925
 H678 H 0.93701 0.14857 0.17999
 H679 H 0.77606 0.15611 0.05870
 H680 H 0.82461 0.19836 0.05690
 H681 H 0.73061 0.20245 0.11598
 H682 H 0.77910 0.24463 0.11441
 C683 C 0.82844 0.71209 0.65754
 C684 C 0.83144 0.70408 0.70813
 C685 C 0.86727 0.67049 0.72520
 C686 C 0.89393 0.64214 0.69271
 C687 C 0.88371 0.64478 0.64218
 C688 C 0.85316 0.68223 0.62526
 C689 C 0.81104 0.68472 0.58960
 C690 C 0.78394 0.71719 0.62448
 H691 H 0.87237 0.66408 0.76398
 H692 H 0.91898 0.61520 0.70779
 H693 H 0.79379 0.65177 0.58577
 H694 H 0.82045 0.70127 0.55475
 H695 H 0.75088 0.70310 0.64066
 H696 H 0.77763 0.75234 0.60958
 C697 C 0.32337 0.13968 0.72227
 C698 C 0.30930 0.18569 0.71396
 C699 C 0.32552 0.20418 0.66965
 C700 C 0.35221 0.17631 0.63546
 C701 C 0.36454 0.12954 0.64546
 C702 C 0.34975 0.11351 0.69015
 C703 C 0.35210 0.07216 0.72173
 C704 C 0.32213 0.10148 0.75838
 H705 H 0.31723 0.23973 0.66099
 H706 H 0.36343 0.19146 0.60170
 H707 H 0.39037 0.06199 0.73460
 H708 H 0.33141 0.04451 0.70560
 H709 H 0.34304 0.10803 0.79250
 H710 H 0.28455 0.08974 0.76356
 C711 C 0.36361 0.69216 0.19096
 C712 C 0.31245 0.69779 0.18421
 C713 C 0.29198 0.68146 0.14080
 C714 C 0.32150 0.65444 0.10888
 C715 C 0.37153 0.64237 0.12079
 C716 C 0.39244 0.66465 0.16026
 C717 C 0.42525 0.64691 0.20148
 C718 C 0.39368 0.67724 0.23499
 H719 H 0.25255 0.68616 0.13380
 H720 H 0.30398 0.63938 0.07779
 H721 H 0.46356 0.65755 0.19818
 H722 H 0.42231 0.61003 0.20880
 H723 H 0.41370 0.70547 0.25078
 H724 H 0.37259 0.65792 0.26158
   
