data_POSCAR
  _audit_creation_date              2014-09-24
  _audit_creation_method            'ToBaCCo'
  _symmetry_space_group_name_H-M    'P1'
  _symmetry_Int_Tables_number       1
  _symmetry_cell_setting            triclinic
  loop_
  _symmetry_equiv_pos_as_xyz
 x,y,z
_cell_length_a 40.9178
_cell_length_b 40.8241
_cell_length_c 40.4670
_cell_angle_alpha 90.390300
_cell_angle_beta 89.193000
_cell_angle_gamma 120.303200
loop_
  _atom_site_label
  _atom_site_type_symbol
  _atom_site_fract_x
  _atom_site_fract_y
  _atom_site_fract_z
C1 C 0.51947 0.05285 0.04767
 H2 H 0.54641 0.05389 0.04642
 C3 C 0.51499 0.07793 0.06820
 H4 H 0.53879 0.09842 0.08255
 C5 C 0.45631 0.02580 0.02928
 H6 H 0.43371 0.00584 0.01369
 C7 C 0.45061 0.05047 0.04943
 H8 H 0.42331 0.04871 0.04960
 N9 N 0.49028 0.02727 0.02895
 C10 C 0.51687 -0.06188 0.00899
 H11 H 0.51669 -0.06211 -0.01774
 C12 C 0.52277 -0.08801 0.02608
 H13 H 0.52771 -0.10794 0.01227
 C14 C 0.51020 -0.03575 0.05936
 H15 H 0.50435 -0.01600 0.07227
 C16 C 0.51598 -0.06137 0.07743
 H17 H 0.51452 -0.06097 0.10416
 Zn18 Zn 0.50006 -0.00404 0.00075
 N19 N 0.51088 -0.03636 0.02575
 C20 C 0.57439 0.02740 -0.02709
 N21 N 0.54177 0.02862 -0.02652
 C22 C 0.53835 0.05475 -0.04443
 C23 C 0.56821 0.08062 -0.06444
 C24 C 0.60506 0.05285 -0.04674
 C25 C 0.42544 -0.06190 -0.00940
 C26 C 0.39363 -0.08740 -0.02725
 C27 C 0.42812 -0.05831 -0.07764
 C28 C 0.45921 -0.03347 -0.05870
 N29 N 0.45731 -0.03556 -0.02523
 H30 H 0.57686 0.00696 -0.01213
 H31 H 0.51234 0.05555 -0.04300
 H32 H 0.56502 0.10147 -0.07820
 H33 H 0.63068 0.05125 -0.04717
 H34 H 0.42475 -0.06309 0.01733
 H35 H 0.36873 -0.10637 -0.01297
 H36 H 0.43238 -0.05629 -0.10410
 H37 H 0.48523 -0.01319 -0.07095
 C38 C 0.52217 -0.08811 0.06080
 C39 C 0.48021 0.07699 0.06925
 C40 C 0.39412 -0.08652 -0.06232
 C41 C 0.60215 0.07988 -0.06581
 C42 C -0.05904 0.48658 0.62017
 H43 H -0.06050 0.45936 0.62025
 C44 C -0.08401 0.49187 0.60094
 H45 H -0.10485 0.46843 0.58639
 C46 C -0.03094 0.54962 0.64021
 H47 H -0.01058 0.57187 0.65592
 C48 C -0.05549 0.55614 0.62139
 H49 H -0.05327 0.58370 0.62235
 N50 N -0.03296 0.51533 0.63906
 C51 C 0.05545 0.48715 0.65323
 H52 H 0.05631 0.48696 0.67994
 C53 C 0.08104 0.48138 0.63451
 H54 H 0.10169 0.47693 0.64705
 C55 C 0.02862 0.49512 0.60460
 H56 H 0.00868 0.50122 0.59301
 C57 C 0.05369 0.48952 0.58494
 H58 H 0.05214 0.49056 0.55831
 Zn59 Zn -0.00167 0.50443 0.66524
 N60 N 0.02985 0.49374 0.63811
 C61 C -0.03344 0.42920 0.69054
 N62 N -0.03424 0.46211 0.69179
 C63 C -0.06009 0.46529 0.71089
 C64 C -0.08635 0.43474 0.73000
 C65 C -0.05922 0.39789 0.70931
 C66 C 0.05688 0.57866 0.67634
 C67 C 0.08298 0.60990 0.69460
 C68 C 0.05450 0.57436 0.74468
 C69 C 0.02895 0.54378 0.72544
 N70 N 0.03050 0.54649 0.69191
 H71 H -0.01330 0.42692 0.67459
 H72 H -0.06037 0.49165 0.71109
 H73 H -0.10644 0.43803 0.74529
 H74 H -0.05861 0.37173 0.70759
 H75 H 0.05783 0.57983 0.64962
 H76 H 0.10361 0.63533 0.68173
 H77 H 0.05334 0.57135 0.77130
 H78 H 0.00848 0.51765 0.73737
 C79 C 0.08053 0.48277 0.59986
 C80 C -0.08245 0.52704 0.60137
 C81 C 0.08215 0.60793 0.72927
 C82 C -0.08627 0.40038 0.72925
 C83 C 0.53997 0.48335 0.38240
 H84 H 0.51416 0.45604 0.38257
 C85 C 0.57001 0.48950 0.40244
 H86 H 0.56715 0.46659 0.41785
 C87 C 0.57543 0.54573 0.36086
 H88 H 0.57763 0.56736 0.34423
 C89 C 0.60626 0.55308 0.38046
 H90 H 0.63173 0.58067 0.37915
 N91 N 0.54306 0.51135 0.36231
 C92 C 0.42645 0.48135 0.34397
 H93 H 0.42623 0.48018 0.31725
 C94 C 0.39434 0.47576 0.36139
 H95 H 0.36924 0.46968 0.34788
 C96 C 0.45975 0.49117 0.39390
 H97 H 0.48557 0.49814 0.40646
 C98 C 0.42827 0.48576 0.41231
 H99 H 0.43031 0.48863 0.43893
 Zn100 Zn 0.50150 0.49921 0.33474
 N101 N 0.45825 0.48878 0.36036
 C102 C 0.45887 0.42333 0.31056
 N103 N 0.49271 0.45633 0.30961
 C104 C 0.52249 0.45935 0.29175
 C105 C 0.51881 0.42857 0.27352
 C106 C 0.45391 0.39179 0.29263
 C107 C 0.51708 0.57277 0.32103
 C108 C 0.52264 0.60333 0.30160
 C109 C 0.51755 0.56663 0.25285
 C110 C 0.51211 0.53677 0.27322
 N111 N 0.51206 0.54037 0.30666
 H112 H 0.43582 0.42118 0.32556
 H113 H 0.54922 0.48580 0.29178
 H114 H 0.54276 0.43176 0.25914
 H115 H 0.42696 0.36559 0.29402
 H116 H 0.51616 0.57458 0.34768
 H117 H 0.52579 0.62857 0.31353
 H118 H 0.51764 0.56327 0.22629
 H119 H 0.50728 0.51054 0.26222
 C120 C 0.39506 0.47816 0.39604
 C121 C 0.60378 0.52472 0.40158
 C122 C 0.52268 0.60040 0.26699
 C123 C 0.48419 0.39415 0.27387
 C124 C 0.15273 0.49833 0.53279
 C125 C 0.16326 0.47189 0.54159
 C126 C 0.14638 0.44853 0.56916
 C127 C 0.11922 0.45179 0.58800
 C128 C 0.10861 0.47848 0.57946
 C129 C 0.12560 0.50163 0.55156
 C130 C 0.19196 0.46941 0.52263
 C131 C 0.21636 0.46812 0.50662
 C132 C 0.24533 0.46752 0.48776
 C133 C 0.27040 0.46777 0.47156
 C134 C 0.30073 0.46901 0.45212
 C135 C 0.32090 0.45228 0.46390
 C136 C 0.35130 0.45481 0.44551
 C137 C 0.36190 0.47414 0.41506
 C138 C 0.34115 0.49049 0.40329
 C139 C 0.31081 0.48794 0.42172
 H140 H 0.16576 0.51669 0.51160
 H141 H 0.15431 0.42794 0.57617
 H142 H 0.10636 0.43329 0.60911
 H143 H 0.11851 0.52284 0.54463
 H144 H 0.31333 0.43754 0.48740
 H145 H 0.36642 0.44156 0.45505
 H146 H 0.34894 0.50604 0.38022
 H147 H 0.29552 0.50116 0.41245
 C148 C 0.51225 0.81814 0.08694
 C149 C 0.53272 0.82831 0.11631
 C150 C 0.55051 0.86598 0.12720
 C151 C 0.54752 0.89331 0.10896
 C152 C 0.52665 0.88328 0.07956
 C153 C 0.50923 0.84541 0.06866
 C154 C 0.53445 0.79981 0.13570
 C155 C 0.53515 0.77555 0.15197
 C156 C 0.53510 0.74670 0.17103
 C157 C 0.53432 0.72169 0.18731
 C158 C 0.53247 0.69139 0.20674
 C159 C 0.55494 0.69947 0.23477
 C160 C 0.55211 0.66992 0.25421
 C161 C 0.52673 0.63187 0.24583
 C162 C 0.50453 0.62408 0.21742
 C163 C 0.50740 0.65365 0.19805
 H164 H 0.49819 0.78903 0.07837
 H165 H 0.56645 0.87416 0.14991
 H166 H 0.56162 0.92230 0.11780
 H167 H 0.49251 0.83665 0.04642
 H168 H 0.57447 0.72859 0.24171
 H169 H 0.56988 0.67682 0.27570
 H170 H 0.48431 0.59515 0.21058
 H171 H 0.48972 0.64708 0.17650
 C172 C 0.30441 0.82673 0.91437
 C173 C 0.30184 0.83387 0.88115
 C174 C 0.32936 0.86792 0.86695
 C175 C 0.35971 0.89459 0.88569
 C176 C 0.36359 0.88792 0.91947
 C177 C 0.33464 0.85323 0.93333
 C178 C 0.27159 0.80575 0.86138
 C179 C 0.24664 0.78190 0.84470
 C180 C 0.21790 0.75362 0.82505
 C181 C 0.19376 0.72917 0.80818
 C182 C 0.16543 0.69962 0.78793
 C183 C 0.17592 0.69011 0.75792
 C184 C 0.14878 0.66060 0.73867
 C185 C 0.11069 0.64014 0.74921
 C186 C 0.10036 0.65016 0.77930
 C187 C 0.12758 0.67971 0.79852
 H188 H 0.28337 0.80019 0.92556
 H189 H 0.32741 0.87394 0.84125
 H190 H 0.37897 0.92093 0.87341
 H191 H 0.33575 0.84472 0.95828
 H192 H 0.20518 0.70521 0.74957
 H193 H 0.15776 0.65324 0.71590
 H194 H 0.07121 0.63524 0.78790
 H195 H 0.11914 0.68686 0.82171
 C196 C 0.84693 0.55655 0.57657
 C197 C 0.83711 0.54087 0.54489
 C198 C 0.85440 0.52170 0.53129
 C199 C 0.88100 0.51773 0.54944
 C200 C 0.89065 0.53287 0.58152
 C201 C 0.87358 0.55265 0.59478
 C202 C 0.80830 0.54310 0.52673
 C203 C 0.78368 0.54397 0.51144
 C204 C 0.75432 0.54383 0.49344
 C205 C 0.72881 0.54274 0.47800
 C206 C 0.69785 0.54023 0.45948
 C207 C 0.70397 0.55503 0.42743
 C208 C 0.67349 0.55066 0.40879
 C209 C 0.63645 0.53127 0.42196
 C210 C 0.63071 0.51708 0.45442
 C211 C 0.66122 0.52153 0.47302
 H212 H 0.83357 0.57128 0.58740
 H213 H 0.84703 0.50947 0.50678
 H214 H 0.89403 0.50281 0.53839
 H215 H 0.88008 0.56423 0.61954
 H216 H 0.73220 0.56938 0.41664
 H217 H 0.67877 0.56148 0.38375
 H218 H 0.60261 0.50248 0.46541
 H219 H 0.65616 0.50996 0.49780
 C220 C 0.48788 0.14028 0.14139
 C221 C 0.46898 0.15816 0.12925
 C222 C 0.45273 0.14871 0.09790
 C223 C 0.45579 0.12183 0.07856
 C224 C 0.47529 0.10414 0.09034
 C225 C 0.49101 0.11344 0.12210
 C226 C 0.46758 0.18721 0.14851
 C227 C 0.46734 0.21203 0.16463
 C228 C 0.46814 0.24163 0.18347
 C229 C 0.46975 0.26737 0.19955
 C230 C 0.47279 0.29860 0.21870
 C231 C 0.44307 0.30626 0.21958
 C232 C 0.44659 0.33717 0.23770
 C233 C 0.47997 0.36087 0.25509
 C234 C 0.50953 0.35272 0.25422
 C235 C 0.50594 0.32182 0.23614
 H236 H 0.50056 0.14737 0.16563
 H237 H 0.43820 0.16253 0.08819
 H238 H 0.44379 0.11563 0.05407
 H239 H 0.50574 0.09996 0.13203
 H240 H 0.41732 0.28853 0.20607
 H241 H 0.42351 0.34294 0.23762
 H242 H 0.53534 0.37006 0.26775
 H243 H 0.52908 0.31610 0.23570
 C244 C -0.29819 0.15258 0.90620
 C245 C -0.30493 0.16271 0.87513
 C246 C -0.34182 0.14499 0.86298
 C247 C -0.37195 0.11765 0.88196
 C248 C -0.36559 0.10766 0.91344
 C249 C -0.32830 0.12518 0.92523
 C250 C -0.27434 0.19221 0.85614
 C251 C -0.24928 0.21738 0.84016
 C252 C -0.22059 0.24733 0.82135
 C253 C -0.19668 0.27332 0.80522
 C254 C -0.16888 0.30481 0.78588
 C255 C -0.17932 0.32804 0.76932
 C256 C -0.15250 0.35900 0.75084
 C257 C -0.11475 0.36721 0.74868
 C258 C -0.10454 0.34354 0.76524
 C259 C -0.13146 0.31256 0.78377
 H260 H -0.26976 0.16626 0.91591
 H261 H -0.34735 0.15259 0.83895
 H262 H -0.40024 0.10430 0.87202
 H263 H -0.32255 0.11843 0.94951
 H264 H -0.20824 0.32224 0.77070
 H265 H -0.16140 0.37629 0.73796
 H266 H -0.07564 0.34935 0.76432
 H267 H -0.12305 0.29480 0.79657
   
