data_POSCAR
  _audit_creation_date              2014-09-24
  _audit_creation_method            'ToBaCCo'
  _symmetry_space_group_name_H-M    'P1'
  _symmetry_Int_Tables_number       1
  _symmetry_cell_setting            triclinic
  loop_
  _symmetry_equiv_pos_as_xyz
 x,y,z
_cell_length_a 31.8500
_cell_length_b 31.8673
_cell_length_c 31.7850
_cell_angle_alpha 67.032800
_cell_angle_beta 95.608600
_cell_angle_gamma 84.091200
loop_
  _atom_site_label
  _atom_site_type_symbol
  _atom_site_fract_x
  _atom_site_fract_y
  _atom_site_fract_z
O1 O 0.56505 0.49407 0.03292
 O2 O 0.44846 0.49641 0.02368
 O3 O 0.51215 0.43909 0.02528
 O4 O 0.50035 0.55219 0.03136
 O5 O 0.49318 0.58643 -0.04472
 O6 O 0.50718 0.47309 -0.05066
 O7 O 0.44236 0.53103 -0.05221
 O8 O 0.55865 0.52989 -0.04296
 Cu9 Cu 0.50731 0.49206 0.03597
 Cu10 Cu 0.49998 0.53334 -0.05529
 C11 C 0.58169 0.51216 -0.00348
 C12 C 0.42536 0.51395 -0.01584
 C13 C 0.51092 0.43678 -0.01376
 C14 C 0.49434 0.58865 -0.00563
 O15 O 0.02054 0.54317 0.50517
 O16 O 0.03524 0.41919 0.52896
 O17 O 0.01825 0.49506 0.45487
 O18 O 0.03624 0.46774 0.58015
 O19 O -0.03261 0.46585 0.58221
 O20 O -0.05070 0.49442 0.45719
 O21 O -0.03372 0.41876 0.53142
 O22 O -0.04810 0.54259 0.50896
 Cu23 Cu 0.03445 0.48126 0.51719
 Cu24 Cu -0.04820 0.48063 0.51993
 C25 C -0.01610 0.56402 0.50396
 C26 C 0.00317 0.39796 0.53345
 C27 C -0.01929 0.49848 0.43486
 C28 C 0.00474 0.46253 0.60246
 O29 O 0.51173 0.04096 0.53951
 O30 O 0.50898 0.05137 0.42029
 O31 O 0.45181 0.05191 0.47318
 O32 O 0.56914 0.03959 0.48704
 O33 O 0.57297 -0.03543 0.50691
 O34 O 0.45636 -0.02396 0.50267
 O35 O 0.50854 -0.02359 0.44433
 O36 O 0.52031 -0.03481 0.56474
 Cu37 Cu 0.51011 0.05357 0.47752
 Cu38 Cu 0.51504 -0.03710 0.50708
 C39 C 0.51671 0.00142 0.57269
 C40 C 0.50750 0.01575 0.41183
 C41 C 0.43415 0.01589 0.48673
 C42 C 0.59102 0.00011 0.49845
 C43 C 0.46698 0.01803 -0.06193
 C44 C 0.46276 -0.02162 -0.02283
 C45 C 0.46098 -0.01834 0.01967
 C46 C 0.46384 0.02317 0.02446
 C47 C 0.46736 0.06305 -0.01479
 C48 C 0.46861 0.05990 -0.05743
 H49 H 0.47172 0.09033 -0.08743
 H50 H 0.45830 -0.04890 0.04976
 C51 C -0.00214 0.50100 1.05346
 C52 C -0.03320 0.48999 1.02608
 C53 C -0.02215 0.48124 0.98824
 C54 C 0.01935 0.48290 0.97680
 C55 C 0.05063 0.49286 1.00483
 C56 C 0.03949 0.50208 1.04234
 H57 H 0.06398 0.50902 1.06391
 H58 H -0.04666 0.47438 0.96663
 C59 C 0.05699 -0.00320 0.50025
 C60 C 0.02431 0.02558 0.50753
 C61 C -0.01702 0.01403 0.50767
 C62 C -0.02663 -0.02539 0.50121
 C63 C 0.00625 -0.05417 0.49378
 C64 C 0.04758 -0.04228 0.49326
 H65 H 0.07330 -0.06456 0.48882
 H66 H -0.04250 0.03684 0.51173
 C67 C -0.35519 0.54629 0.96436
 C68 C -0.31140 0.54813 0.96791
 C69 C -0.28337 0.51650 1.00657
 C70 C -0.29976 0.48325 1.04231
 C71 C -0.34372 0.48197 1.03925
 C72 C -0.37183 0.51327 1.00005
 N73 N -0.23855 0.51859 1.00829
 N74 N -0.21056 0.48561 1.03657
 C75 C -0.16581 0.48788 1.03747
 C76 C -0.13677 0.44679 1.05663
 C77 C -0.09327 0.44754 1.05411
 C78 C -0.07810 0.48964 1.03389
 C79 C -0.10687 0.53100 1.01634
 C80 C -0.15056 0.53017 1.01778
 H81 H -0.37612 0.57109 0.93393
 H82 H -0.29915 0.57392 0.94017
 H83 H -0.27868 0.45855 1.07263
 H84 H -0.35568 0.45619 1.06727
 H85 H -0.14813 0.41402 1.07180
 H86 H -0.07147 0.41531 1.06719
 H87 H -0.09565 0.56370 1.00006
 H88 H -0.17243 0.56237 1.00298
 C89 C 0.35413 0.53934 0.93806
 C90 C 0.30990 0.54035 0.93487
 C91 C 0.29174 0.51509 0.97351
 C92 C 0.31819 0.48951 1.01590
 C93 C 0.36227 0.48966 1.01963
 C94 C 0.38096 0.51432 0.98064
 N95 N 0.24635 0.51721 0.96958
 N96 N 0.22918 0.48402 0.99535
 C97 C 0.18387 0.48711 0.99385
 C98 C 0.16573 0.44653 1.00952
 C99 C 0.12186 0.44853 1.01106
 C100 C 0.09587 0.49117 0.99807
 C101 C 0.11399 0.53185 0.98247
 C102 C 0.15762 0.52993 0.97964
 H103 H 0.36711 0.55896 0.90729
 H104 H 0.28974 0.56047 0.90208
 H105 H 0.30462 0.47023 1.04633
 H106 H 0.38168 0.46990 1.05298
 H107 H 0.18570 0.41334 1.02089
 H108 H 0.10838 0.41681 1.02379
 H109 H 0.09436 0.56496 0.97290
 H110 H 0.17111 0.56164 0.96802
 C111 C -0.05932 -0.36764 0.50410
 C112 C -0.06249 -0.32292 0.50276
 C113 C -0.02784 -0.29864 0.49443
 C114 C 0.01018 -0.31962 0.48723
 C115 C 0.01383 -0.36467 0.48970
 C116 C -0.02077 -0.38959 0.49853
 N117 N -0.03113 -0.25377 0.49543
 N118 N -0.00567 -0.22588 0.47715
 C119 C -0.00636 -0.18197 0.47995
 C120 C 0.01420 -0.14887 0.44932
 C121 C 0.01679 -0.10685 0.45288
 C122 C -0.00041 -0.09740 0.48793
 C123 C -0.02119 -0.13072 0.51870
 C124 C -0.02462 -0.17245 0.51440
 H125 H -0.08669 -0.38548 0.51106
 H126 H -0.09197 -0.30722 0.50846
 H127 H 0.03753 -0.30169 0.48103
 H128 H 0.04402 -0.38004 0.48504
 H129 H 0.02860 -0.15585 0.42277
 H130 H 0.03288 -0.08189 0.42860
 H131 H -0.03381 -0.12501 0.54676
 H132 H -0.04011 -0.19786 0.53893
 C133 C -0.02243 0.32135 0.55795
 C134 C -0.01926 0.27630 0.56045
 C135 C 0.01408 0.25848 0.54363
 C136 C 0.04539 0.28577 0.52581
 C137 C 0.04274 0.33057 0.52414
 C138 C 0.00836 0.34911 0.53944
 N139 N 0.01447 0.21337 0.54372
 N140 N 0.03800 0.19856 0.52071
 C141 C 0.03725 0.15377 0.52024
 C142 C 0.05528 0.14370 0.48616
 C143 C 0.05197 0.10176 0.48244
 C144 C 0.03147 0.06856 0.51361
 C145 C 0.01463 0.07822 0.54874
 C146 C 0.01726 0.12047 0.55190
 H147 H -0.04919 0.33462 0.57012
 H148 H -0.04356 0.25562 0.57434
 H149 H 0.07160 0.27267 0.51280
 H150 H 0.06682 0.35124 0.50948
 H151 H 0.07054 0.16913 0.46135
 H152 H 0.06415 0.09602 0.45420
 H153 H -0.00126 0.05328 0.57330
 H154 H 0.00329 0.12728 0.57874
 C155 C 0.52470 -0.04532 -0.34408
 C156 C 0.52270 -0.04839 -0.29924
 C157 C 0.51227 -0.00855 -0.29153
 C158 C 0.50572 0.03475 -0.32884
 C159 C 0.50856 0.03803 -0.37346
 C160 C 0.51719 -0.00200 -0.38191
 N161 N 0.50753 -0.01259 -0.24591
 N162 N 0.48658 0.02008 -0.23955
 C163 C 0.48173 0.01787 -0.19459
 C164 C 0.45101 0.05029 -0.19075
 C165 C 0.44570 0.04970 -0.14750
 C166 C 0.47158 0.01694 -0.10743
 C167 C 0.50290 -0.01522 -0.11139
 C168 C 0.50761 -0.01515 -0.15465
 H169 H 0.53176 -0.07691 -0.34904
 H170 H 0.52806 -0.08194 -0.27062
 H171 H 0.49817 0.06606 -0.32353
 H172 H 0.50279 0.07204 -0.40144
 H173 H 0.43104 0.07597 -0.22139
 H174 H 0.42147 0.07490 -0.14527
 H175 H 0.52394 -0.04004 -0.08109
 H176 H 0.53193 -0.04016 -0.15700
 C177 C 0.51855 0.05771 0.33007
 C178 C 0.51579 0.06198 0.28444
 C179 C 0.49813 0.02959 0.27157
 C180 C 0.48393 -0.00786 0.30504
 C181 C 0.48748 -0.01270 0.35088
 C182 C 0.50453 0.02025 0.36370
 N183 N 0.49534 0.03507 0.22453
 N184 N 0.47143 0.01348 0.20855
 C185 C 0.46950 0.01763 0.16198
 C186 C 0.43645 0.00120 0.14364
 C187 C 0.43413 0.00393 0.09856
 C188 C 0.46529 0.02263 0.07140
 C189 C 0.49880 0.03856 0.09010
 C190 C 0.50064 0.03660 0.13489
 H191 H 0.53208 0.08341 0.33917
 H192 H 0.52700 0.09083 0.25892
 H193 H 0.47049 -0.03353 0.29585
 H194 H 0.47636 -0.04182 0.37615
 H195 H 0.41242 -0.01365 0.16433
 H196 H 0.40812 -0.00872 0.08489
 H197 H 0.52378 0.05201 0.07023
 H198 H 0.52680 0.04896 0.14867
 C199 C 0.50124 -0.36184 0.03850
 C200 C 0.49748 -0.31854 0.04023
 C201 C 0.48078 -0.27886 0.00063
 C202 C 0.46771 -0.28275 -0.04101
 C203 C 0.47199 -0.32595 -0.04297
 C204 C 0.48892 -0.36588 -0.00325
 N205 N 0.47900 -0.23498 0.00319
 N206 N 0.45939 -0.19807 -0.02939
 C207 C 0.45975 -0.15429 -0.02688
 C208 C 0.43189 -0.11580 -0.05911
 C209 C 0.43221 -0.07255 -0.05765
 C210 C 0.46121 -0.06723 -0.02450
 C211 C 0.48908 -0.10593 0.00777
 C212 C 0.48827 -0.14913 0.00674
 H213 H 0.51453 -0.39202 0.06958
 H214 H 0.50781 -0.31581 0.07243
 H215 H 0.45493 -0.25243 -0.07212
 H216 H 0.46208 -0.32809 -0.07556
 H217 H 0.40979 -0.11942 -0.08517
 H218 H 0.41001 -0.04327 -0.08243
 H219 H 0.51186 -0.10257 0.03346
 H220 H 0.51036 -0.17832 0.03178
 C221 C 0.52319 0.38495 -0.05512
 C222 C 0.52138 0.34255 -0.05817
 C223 C 0.50739 0.30671 -0.02301
 C224 C 0.49684 0.31291 0.01625
 C225 C 0.49950 0.35482 0.01980
 C226 C 0.51203 0.39147 -0.01617
 N227 N 0.50359 0.26452 -0.02795
 N228 N 0.48071 0.23639 -0.00420
 C229 C 0.47736 0.19356 -0.00788
 C230 C 0.44475 0.16923 0.01069
 C231 C 0.44082 0.12716 0.00779
 C232 C 0.47033 0.10828 -0.01262
 C233 C 0.50301 0.13285 -0.03127
 C234 C 0.50640 0.17529 -0.02915
 H235 H 0.53305 0.41265 -0.08325
 H236 H 0.52979 0.33799 -0.08847
 H237 H 0.48637 0.28545 0.04406
 H238 H 0.49051 0.35898 0.05010
 H239 H 0.42215 0.18313 0.02705
 H240 H 0.41491 0.10924 0.02165
 H241 H 0.52625 0.11887 -0.04697
 H242 H 0.53203 0.19342 -0.04345
 C243 C -0.34029 0.02676 0.51310
 C244 C -0.29589 0.02247 0.51653
 C245 C -0.27280 -0.01207 0.50749
 C246 C -0.29447 -0.04318 0.49590
 C247 C -0.33885 -0.03968 0.49362
 C248 C -0.36213 -0.00441 0.50183
 N249 N -0.22744 -0.01489 0.51083
 N250 N -0.20510 -0.03619 0.49210
 C251 C -0.15970 -0.03821 0.49690
 C252 C -0.13759 -0.04361 0.46291
 C253 C -0.09392 -0.04070 0.46459
 C254 C -0.07164 -0.03377 0.50120
 C255 C -0.09359 -0.03083 0.53644
 C256 C -0.13724 -0.03262 0.53414
 H257 H -0.35750 0.05404 0.51986
 H258 H -0.27942 0.04651 0.52567
 H259 H -0.27710 -0.07035 0.48913
 H260 H -0.35506 -0.06404 0.48475
 H261 H -0.15459 -0.04793 0.43402
 H262 H -0.07792 -0.04236 0.43663
 H263 H -0.07707 -0.02589 0.56522
 H264 H -0.15360 -0.02902 0.56113
 C265 C 0.36070 0.05821 0.44956
 C266 C 0.31632 0.06162 0.44712
 C267 C 0.29812 0.02806 0.48031
 C268 C 0.32478 -0.00955 0.51566
 C269 C 0.36906 -0.01368 0.51738
 C270 C 0.38739 0.02025 0.48445
 N271 N 0.25264 0.03158 0.47646
 N272 N 0.23438 0.01144 0.51122
 C273 C 0.18918 0.01190 0.50710
 C274 C 0.16958 0.00053 0.54685
 C275 C 0.12599 -0.00252 0.54435
 C276 C 0.10182 0.00477 0.50212
 C277 C 0.12135 0.01638 0.46223
 C278 C 0.16466 0.02052 0.46454
 H279 H 0.37415 0.08468 0.42369
 H280 H 0.29605 0.09058 0.41952
 H281 H 0.31133 -0.03618 0.54134
 H282 H 0.38903 -0.04315 0.54472
 H283 H 0.18824 -0.00650 0.57988
 H284 H 0.11139 -0.01198 0.57550
 H285 H 0.10308 0.02174 0.42948
 H286 H 0.17929 0.02882 0.43350
 C287 C -0.06190 0.49117 1.36819
 C288 C -0.06610 0.49245 1.32344
 C289 C -0.03527 0.50860 1.29505
 C290 C -0.00022 0.52412 1.31181
 C291 C 0.00449 0.52196 1.35692
 C292 C -0.02612 0.50507 1.38574
 N293 N -0.03873 0.50612 1.25074
 N294 N -0.01707 0.52794 1.21985
 C295 C -0.01803 0.52309 1.17676
 C296 C -0.00041 0.55457 1.14113
 C297 C 0.00273 0.54852 1.10021
 C298 C -0.01113 0.51034 1.09441
 C299 C -0.02940 0.47911 1.12999
 C300 C -0.03325 0.48566 1.17063
 H301 H -0.08582 0.47759 1.38968
 H302 H -0.09313 0.48015 1.31109
 H303 H 0.02423 0.53642 1.29065
 H304 H 0.03240 0.53285 1.36951
 H305 H 0.01165 0.58341 1.14545
 H306 H 0.01707 0.57306 1.07347
 H307 H -0.03893 0.44851 1.12737
 H308 H -0.04638 0.46045 1.19799
 C309 C -0.01865 0.43294 0.68037
 C310 C -0.01536 0.42881 0.72605
 C311 C 0.01680 0.44669 0.74397
 C312 C 0.04709 0.46698 0.71617
 C313 C 0.04439 0.47024 0.67068
 C314 C 0.01090 0.45416 0.65203
 N315 N 0.01659 0.44571 0.78946
 N316 N 0.03830 0.46987 0.80428
 C317 C 0.03660 0.46999 0.84919
 C318 C 0.05230 0.50512 0.85902
 C319 C 0.04758 0.50883 0.90079
 C320 C 0.02806 0.47658 0.93420
 C321 C 0.01354 0.44044 0.92482
 C322 C 0.01755 0.43727 0.88264
 H323 H -0.04468 0.42009 0.66698
 H324 H -0.03886 0.41305 0.74709
 H325 H 0.07238 0.48086 0.72934
 H326 H 0.06745 0.48697 0.64954
 H327 H 0.06669 0.53081 0.83343
 H328 H 0.05771 0.53797 0.90615
 H329 H -0.00165 0.41512 0.94986
 H330 H 0.00528 0.40968 0.87595
   
