data_POSCAR
  _audit_creation_date              2014-09-24
  _audit_creation_method            'ToBaCCo'
  _symmetry_space_group_name_H-M    'P1'
  _symmetry_Int_Tables_number       1
  _symmetry_cell_setting            triclinic
  loop_
  _symmetry_equiv_pos_as_xyz
 x,y,z
_cell_length_a 57.7895
_cell_length_b 57.8789
_cell_length_c 22.9639
_cell_angle_alpha 89.940900
_cell_angle_beta 90.058900
_cell_angle_gamma 120.000700
loop_
  _atom_site_label
  _atom_site_type_symbol
  _atom_site_fract_x
  _atom_site_fract_y
  _atom_site_fract_z
C1 C 0.18635 0.47194 0.55326
 C2 C 0.17453 0.47198 0.50019
 C3 C 0.18634 0.47185 0.44722
 C4 C 0.21071 0.47162 0.44680
 C5 C 0.22292 0.47154 0.50049
 C6 C 0.21071 0.47170 0.55400
 C7 C 0.22321 0.47168 0.60662
 C8 C 0.24726 0.47158 0.60676
 C9 C 0.25976 0.47151 0.55429
 C10 C 0.24745 0.47145 0.50065
 C11 C 0.22322 0.47153 0.39434
 C12 C 0.24727 0.47144 0.39453
 C13 C 0.25972 0.47143 0.44714
 C14 C 0.28417 0.47149 0.44778
 C15 C 0.29608 0.47152 0.50072
 C16 C 0.28427 0.47156 0.55376
 H17 H 0.21448 0.47176 0.64826
 H18 H 0.25602 0.47160 0.64847
 H19 H 0.21450 0.47155 0.35260
 H20 H 0.25606 0.47140 0.35294
 H21 H 0.15586 0.47225 0.50010
 H22 H 0.31495 0.47166 0.50050
 C23 C 0.52845 -0.18786 0.44708
 C24 C 0.52841 -0.17610 0.50008
 C25 C 0.52845 -0.18796 0.55300
 C26 C 0.52858 -0.21230 0.55347
 C27 C 0.52865 -0.22447 0.49985
 C28 C 0.52859 -0.21219 0.44636
 C29 C 0.52860 -0.22457 0.39374
 C30 C 0.52860 -0.24863 0.39356
 C31 C 0.52858 -0.26123 0.44603
 C32 C 0.52864 -0.24901 0.49971
 C33 C 0.52857 -0.22481 0.60595
 C34 C 0.52856 -0.24887 0.60586
 C35 C 0.52856 -0.26134 0.55325
 C36 C 0.52841 -0.28586 0.55254
 C37 C 0.52838 -0.29766 0.49947
 C38 C 0.52843 -0.28575 0.44649
 H39 H 0.52859 -0.21574 0.35217
 H40 H 0.52858 -0.25733 0.35183
 H41 H 0.52855 -0.21608 0.64761
 H42 H 0.52853 -0.25767 0.64751
 H43 H 0.52821 -0.15744 0.50013
 H44 H 0.52817 -0.31655 0.49942
 C45 C 1.18720 0.71598 0.44782
 C46 C 1.17534 0.70408 0.50072
 C47 C 1.18714 0.71589 0.55380
 C48 C 1.21157 0.74042 0.55440
 C49 C 1.22381 0.75272 0.50079
 C50 C 1.21156 0.74044 0.44725
 C51 C 1.22400 0.75288 0.39467
 C52 C 1.24809 0.77693 0.39455
 C53 C 1.26067 0.78946 0.44704
 C54 C 1.24839 0.77726 0.50070
 C55 C 1.22411 0.75293 0.60690
 C56 C 1.24821 0.77698 0.60683
 C57 C 1.26072 0.78948 0.55425
 C58 C 1.28527 0.81384 0.55358
 C59 C 1.29713 0.82565 0.50054
 C60 C 1.28523 0.81384 0.44754
 H61 H 1.21520 0.74409 0.35305
 H62 H 1.25684 0.78565 0.35283
 H63 H 1.21537 0.74417 0.64859
 H64 H 1.25700 0.78572 0.64849
 H65 H 1.15664 0.68521 0.50045
 H66 H 1.31605 0.84433 0.50051
 C67 C 0.71510 0.52847 0.55493
 C68 C 0.70322 0.52843 0.50187
 C69 C 0.71513 0.52854 0.44895
 C70 C 0.73966 0.52875 0.44833
 C71 C 0.75200 0.52881 0.50186
 C72 C 0.73969 0.52868 0.55550
 C73 C 0.75228 0.52868 0.60798
 C74 C 0.77641 0.52874 0.60784
 C75 C 0.78890 0.52881 0.55522
 C76 C 0.77660 0.52888 0.50172
 C77 C 0.75213 0.52883 0.39572
 C78 C 0.77626 0.52889 0.39559
 C79 C 0.78880 0.52889 0.44805
 C80 C 0.81321 0.52881 0.44841
 C81 C 0.82512 0.52876 0.50127
 C82 C 0.81334 0.52872 0.55440
 H83 H 0.74352 0.52860 0.64968
 H84 H 0.78521 0.52871 0.64946
 H85 H 0.74329 0.52881 0.35412
 H86 H 0.78501 0.52892 0.35390
 H87 H 0.68430 0.52818 0.50164
 H88 H 0.84385 0.52861 0.50092
 C89 C 0.47126 0.28394 0.55365
 C90 C 0.47129 0.29578 0.50063
 C91 C 0.47122 0.28389 0.44772
 C92 C 0.47106 0.25941 0.44727
 C93 C 0.47101 0.24715 0.50092
 C94 C 0.47110 0.25946 0.55440
 C95 C 0.47111 0.24703 0.60703
 C96 C 0.47110 0.22296 0.60721
 C97 C 0.47107 0.21041 0.55474
 C98 C 0.47100 0.22262 0.50108
 C99 C 0.47104 0.24692 0.39480
 C100 C 0.47103 0.22285 0.39494
 C101 C 0.47104 0.21040 0.44756
 C102 C 0.47117 0.18607 0.44821
 C103 C 0.47122 0.17423 0.50115
 C104 C 0.47120 0.18602 0.55421
 H105 H 0.47115 0.25586 0.64860
 H106 H 0.47113 0.21425 0.64894
 H107 H 0.47106 0.25569 0.35313
 H108 H 0.47104 0.21406 0.35334
 H109 H 0.47150 0.31464 0.50056
 H110 H 0.47141 0.15555 0.50094
 C111 C 0.71595 0.18744 0.44769
 C112 C 0.70407 0.17562 0.50065
 C113 C 0.71590 0.18746 0.55363
 C114 C 0.74037 0.21182 0.55430
 C115 C 0.75269 0.22405 0.50079
 C116 C 0.74043 0.21181 0.44718
 C117 C 0.75293 0.22429 0.39467
 C118 C 0.77700 0.24839 0.39474
 C119 C 0.78944 0.26088 0.44732
 C120 C 0.77722 0.24861 0.50088
 C121 C 0.75279 0.22429 0.60690
 C122 C 0.77686 0.24839 0.60701
 C123 C 0.78942 0.26093 0.55450
 C124 C 0.81380 0.28548 0.55388
 C125 C 0.82560 0.29730 0.50080
 C126 C 0.81376 0.28538 0.44789
 H127 H 0.74416 0.21551 0.35302
 H128 H 0.78578 0.25719 0.35311
 H129 H 0.74396 0.21550 0.64850
 H130 H 0.78557 0.25716 0.64870
 H131 H 0.68520 0.15693 0.50063
 H132 H 0.84427 0.31620 0.50052
 N133 N 0.97228 0.52768 0.06204
 N134 N 0.95368 0.53397 0.07335
 N135 N 1.02850 0.53959 0.10202
 N136 N 1.04713 0.55293 0.14136
 N137 N 1.02850 0.55580 0.06193
 N138 N 1.04714 0.58067 0.07298
 N139 N 0.97236 0.51149 0.10209
 N140 N 0.95384 0.50630 0.14164
 C141 C 0.94221 0.52017 0.12271
 C142 C 1.05872 0.57838 0.12222
 N143 N 1.02865 0.47373 0.06212
 N144 N 1.04722 0.46739 0.07354
 N145 N 0.97245 0.46181 0.10207
 N146 N 0.95384 0.44846 0.14141
 N147 N 0.97243 0.44561 0.06202
 N148 N 0.95378 0.42074 0.07308
 N149 N 1.02860 0.48991 0.10213
 N150 N 1.04709 0.49504 0.14177
 Mn151 Mn 1.00048 0.50070 0.10259
 C152 C 1.05869 0.48114 0.12291
 C153 C 0.94223 0.42301 0.12230
 N154 N 1.02847 0.55583 -0.06380
 N155 N 1.04706 0.58072 -0.07504
 N156 N 0.97230 0.51151 -0.10375
 N157 N 0.95361 0.50617 -0.14302
 N158 N 0.97225 0.52767 -0.06369
 N159 N 0.95350 0.53380 -0.07467
 N160 N 1.02845 0.53963 -0.10383
 N161 N 1.04699 0.55298 -0.14331
 Mn162 Mn 1.00037 0.54201 -0.00088
 C163 C 1.05857 0.57845 -0.12435
 C164 C 0.94193 0.51995 -0.12386
 N165 N 0.97238 0.44560 -0.06371
 N166 N 0.95380 0.42072 -0.07494
 N167 N 1.02853 0.48992 -0.10373
 N168 N 1.04713 0.49521 -0.14309
 N169 N 1.02860 0.47376 -0.06363
 N170 N 1.04729 0.46758 -0.07469
 N171 N 0.97238 0.46181 -0.10377
 N172 N 0.95382 0.44846 -0.14325
 Mn173 Mn 1.00052 0.45941 -0.00080
 Mn174 Mn 1.00041 0.50072 -0.10429
 Cl175 Cl 1.00045 0.50071 -0.00085
 C176 C 0.94226 0.42299 -0.12426
 C177 C 1.05881 0.48141 -0.12395
 N178 N 0.53848 0.51067 0.10259
 N179 N 0.55182 0.50541 0.14202
 N180 N 0.52664 0.55493 0.06238
 N181 N 0.53300 0.57981 0.07368
 N182 N 0.51042 0.53870 0.10242
 N183 N 0.50527 0.55204 0.14194
 N184 N 0.55473 0.52684 0.06252
 N185 N 0.57963 0.53307 0.07368
 C186 C 0.57732 0.51925 0.12296
 C187 C 0.51921 0.57752 0.12300
 N188 N 0.51046 0.53866 -0.10346
 N189 N 0.50521 0.55198 -0.14291
 N190 N 0.55478 0.52684 -0.06320
 N191 N 0.57970 0.53312 -0.07435
 N192 N 0.53854 0.51063 -0.10325
 N193 N 0.55191 0.50543 -0.14265
 N194 N 0.52665 0.55488 -0.06337
 N195 N 0.53289 0.57974 -0.07454
 Mn196 Mn 0.54097 0.54114 -0.00042
 C197 C 0.51906 0.57743 -0.12384
 C198 C 0.57741 0.51932 -0.12362
 N199 N 0.46061 0.48896 0.10235
 N200 N 0.44726 0.49424 0.14162
 N201 N 0.47246 0.44469 0.06259
 N202 N 0.46618 0.41982 0.07387
 N203 N 0.48867 0.46092 0.10263
 N204 N 0.49389 0.44760 0.14216
 N205 N 0.44438 0.47278 0.06227
 N206 N 0.41948 0.46657 0.07326
 Mn207 Mn 0.49955 0.49981 0.10301
 C208 C 0.42178 0.48041 0.12245
 C209 C 0.47999 0.42212 0.12322
 N210 N 0.48872 0.46090 -0.10320
 N211 N 0.49407 0.44757 -0.14234
 N212 N 0.44438 0.47275 -0.06346
 N213 N 0.41948 0.46648 -0.07476
 N214 N 0.46064 0.48893 -0.10352
 N215 N 0.44730 0.49414 -0.14306
 N216 N 0.47250 0.44470 -0.06312
 N217 N 0.46634 0.41985 -0.07397
 Mn218 Mn 0.49959 0.49978 -0.10387
 Mn219 Mn 0.45816 0.45847 -0.00043
 Cl220 Cl 0.49957 0.49980 -0.00043
 C221 C 0.48024 0.42213 -0.12309
 C222 C 0.42179 0.48027 -0.12412
 N223 N 0.44472 -0.02860 0.06288
 N224 N 0.41981 -0.04714 0.07426
 N225 N 0.48900 0.02751 0.10287
 N226 N 0.49427 0.04609 0.14220
 N227 N 0.47278 0.02753 0.06278
 N228 N 0.46654 0.04615 0.07381
 N229 N 0.46100 -0.02855 0.10293
 N230 N 0.44767 -0.04702 0.14255
 C231 C 0.42214 -0.05860 0.12365
 C232 C 0.48039 0.05769 0.12304
 N233 N 0.55513 0.02768 0.06295
 N234 N 0.58002 0.04630 0.07418
 N235 N 0.51086 -0.02846 0.10291
 N236 N 0.50555 -0.04711 0.14216
 N237 N 0.52707 -0.02845 0.06284
 N238 N 0.53327 -0.04713 0.07380
 N239 N 0.53887 0.02760 0.10298
 N240 N 0.55220 0.04614 0.14244
 Mn241 Mn 0.49993 -0.00048 0.10344
 C242 C 0.57771 0.05778 0.12347
 C243 C 0.51941 -0.05871 0.12298
 N244 N 0.47276 0.02758 -0.06295
 N245 N 0.46642 0.04614 -0.07421
 N246 N 0.46099 -0.02848 -0.10294
 N247 N 0.44766 -0.04706 -0.14230
 N248 N 0.44474 -0.02856 -0.06287
 N249 N 0.41985 -0.04722 -0.07397
 N250 N 0.48899 0.02758 -0.10298
 N251 N 0.49416 0.04612 -0.14247
 Mn252 Mn 0.45848 -0.00051 -0.00004
 C253 C 0.48022 0.05767 -0.12351
 C254 C 0.42217 -0.05871 -0.12321
 N255 N 0.52707 -0.02842 -0.06287
 N256 N 0.53337 -0.04701 -0.07404
 N257 N 0.53884 0.02766 -0.10286
 N258 N 0.55216 0.04634 -0.14208
 N259 N 0.55509 0.02771 -0.06276
 N260 N 0.57996 0.04645 -0.07365
 N261 N 0.51084 -0.02840 -0.10294
 N262 N 0.50563 -0.04694 -0.14238
 Mn263 Mn 0.54135 -0.00037 0.00004
 Mn264 Mn 0.49991 -0.00041 -0.10345
 Cl265 Cl 0.49992 -0.00044 -0.00001
 C266 C 0.51955 -0.05852 -0.12335
 C267 C 0.57764 0.05802 -0.12284
 C268 C 1.14605 0.47368 0.30689
 N269 N 1.12394 0.45113 0.28890
 N270 N 1.10803 0.45226 0.24832
 C271 C 1.11374 0.47599 0.22446
 N272 N 1.13593 0.49852 0.24224
 N273 N 1.15184 0.49739 0.28283
 C274 C 1.16150 0.47283 0.35497
 C275 C 1.17360 0.47229 0.39731
 C276 C 1.09511 0.47757 0.18560
 C277 C 1.07881 0.47909 0.15552
 C278 C 0.52664 0.67225 0.30631
 N279 N 0.54923 0.67273 0.28840
 N280 N 0.54811 0.65570 0.24793
 C281 C 0.52435 0.63767 0.22412
 N282 N 0.50177 0.63728 0.24183
 N283 N 0.50290 0.65430 0.28230
 C284 C 0.52747 0.68852 0.35431
 C285 C 0.52801 0.70112 0.39660
 C286 C 0.52277 0.61746 0.18541
 C287 C 0.52126 0.59966 0.15546
 C288 C 0.32734 -0.14590 0.30735
 N289 N 0.34531 -0.15165 0.28339
 N290 N 0.36235 -0.13575 0.24287
 C291 C 0.36195 -0.11360 0.22504
 N292 N 0.34389 -0.10792 0.24880
 N293 N 0.32685 -0.12382 0.28933
 C294 C 0.31104 -0.16134 0.35538
 C295 C 0.29841 -0.17343 0.39767
 C296 C 0.38217 -0.09498 0.18625
 C297 C 0.39999 -0.07870 0.15621
 C298 C 0.85444 0.52720 0.30571
 N299 N 0.84876 0.50353 0.28173
 N300 N 0.86477 0.50247 0.24136
 C301 C 0.88694 0.52506 0.22372
 N302 N 0.89254 0.54875 0.24749
 N303 N 0.87654 0.54980 0.28786
 C304 C 0.83888 0.52796 0.35356
 C305 C 0.82669 0.52844 0.39571
 C306 C 0.90566 0.52357 0.18507
 C307 C 0.92203 0.52213 0.15515
 C308 C 0.47298 0.32703 0.30535
 N309 N 0.49671 0.34522 0.28176
 N310 N 0.49779 0.36237 0.24160
 C311 C 0.47516 0.36187 0.22379
 N312 N 0.45140 0.34360 0.24718
 N313 N 0.45033 0.32645 0.28734
 C314 C 0.47217 0.31059 0.35303
 C315 C 0.47165 0.29783 0.39508
 C316 C 0.47665 0.38215 0.18535
 C317 C 0.47807 0.39999 0.15557
 C318 C 0.67283 0.14598 0.30541
 N319 N 0.65463 0.15148 0.28162
 N320 N 0.63748 0.13538 0.24148
 C321 C 0.63800 0.11328 0.22390
 N322 N 0.65629 0.10785 0.24749
 N323 N 0.67344 0.12395 0.28763
 C324 C 0.68927 0.16164 0.35307
 C325 C 0.70202 0.17390 0.39510
 C326 C 0.61771 0.09446 0.18550
 C327 C 0.59986 0.07803 0.15575
 C328 C 0.47300 0.14554 -0.30594
 N329 N 0.49674 0.15114 -0.28219
 N330 N 0.49785 0.13511 -0.24192
 C331 C 0.47524 0.11299 -0.22417
 N332 N 0.45148 0.10746 -0.24771
 N333 N 0.45037 0.12349 -0.28797
 C334 C 0.47217 0.16109 -0.35377
 C335 C 0.47163 0.17325 -0.39597
 C336 C 0.47677 0.09424 -0.18567
 C337 C 0.47824 0.07785 -0.15585
 C338 C 0.67272 0.52654 -0.30538
 N339 N 0.67334 0.54914 -0.28722
 N340 N 0.65616 0.54802 -0.24709
 C341 C 0.63782 0.52426 -0.22389
 N342 N 0.63728 0.50168 -0.24185
 N343 N 0.65447 0.50280 -0.28198
 C344 C 0.68915 0.52742 -0.35312
 C345 C 0.70187 0.52799 -0.39527
 C346 C 0.61749 0.52273 -0.18554
 C347 C 0.59960 0.52127 -0.15584
 C348 C 0.85430 0.32785 -0.30642
 N349 N 0.84872 0.34601 -0.28297
 N350 N 0.86476 0.36316 -0.24278
 C351 C 0.88688 0.36269 -0.22479
 N352 N 0.89239 0.34443 -0.24803
 N353 N 0.87635 0.32728 -0.28822
 C354 C 0.83873 0.31143 -0.35419
 C355 C 0.82657 0.29872 -0.39634
 C356 C 0.90565 0.38298 -0.18635
 C357 C 0.92205 0.40083 -0.15658
 C358 C 0.52663 -0.14663 -0.30480
 N359 N 0.50287 -0.15213 -0.28136
 N360 N 0.50178 -0.13604 -0.24133
 C361 C 0.52441 -0.11396 -0.22351
 N362 N 0.54818 -0.10853 -0.24675
 N363 N 0.54927 -0.12462 -0.28678
 C364 C 0.52746 -0.16226 -0.35239
 C365 C 0.52800 -0.17448 -0.39439
 C366 C 0.52291 -0.09516 -0.18522
 C367 C 0.52147 -0.07874 -0.15556
 C368 C 0.32662 0.47329 -0.30645
 N369 N 0.32601 0.45067 -0.28837
 N370 N 0.34316 0.45174 -0.24815
 C371 C 0.36146 0.47546 -0.22477
 N372 N 0.36199 0.49806 -0.24265
 N373 N 0.34484 0.49699 -0.28287
 C374 C 0.31021 0.47248 -0.35425
 C375 C 0.29750 0.47197 -0.39643
 C376 C 0.38176 0.47694 -0.18630
 C377 C 0.39962 0.47836 -0.15649
 C378 C 1.14659 0.67357 -0.30650
 N379 N 1.12451 0.67411 -0.28856
 N380 N 1.10845 0.65697 -0.24837
 C381 C 1.11398 0.63875 -0.22487
 N382 N 1.13613 0.63830 -0.24261
 N383 N 1.15219 0.65544 -0.28280
 C384 C 1.16217 0.68997 -0.35427
 C385 C 1.17435 0.70268 -0.39643
 C386 C 1.09520 0.61846 -0.18643
 C387 C 1.07879 0.60061 -0.15666
 C388 C 0.85376 0.52687 -0.30576
 N389 N 0.84830 0.50313 -0.28248
 N390 N 0.86432 0.50203 -0.24214
 C391 C 0.88629 0.52465 -0.22386
 N392 N 0.89167 0.54841 -0.24692
 N393 N 0.87565 0.54950 -0.28725
 C394 C 0.83828 0.52772 -0.35368
 C395 C 0.82616 0.52828 -0.39590
 C396 C 0.90510 0.52316 -0.18552
 C397 C 0.92159 0.52177 -0.15591
 C398 C 0.47322 0.32700 -0.30409
 N399 N 0.49702 0.34534 -0.28099
 N400 N 0.49814 0.36248 -0.24085
 C401 C 0.47549 0.36180 -0.22259
 N402 N 0.45168 0.34337 -0.24546
 N403 N 0.45056 0.32623 -0.28561
 C404 C 0.47233 0.31062 -0.35181
 C405 C 0.47175 0.29790 -0.39386
 C406 C 0.47700 0.38211 -0.18445
 C407 C 0.47841 0.39999 -0.15499
 C408 C 0.67282 0.14630 -0.30401
 N409 N 0.65440 0.15165 -0.28101
 N410 N 0.63725 0.13560 -0.24084
 C411 C 0.63800 0.11371 -0.22245
 N412 N 0.65651 0.10843 -0.24523
 N413 N 0.67366 0.12448 -0.28540
 C414 C 0.68920 0.16182 -0.35176
 C415 C 0.70193 0.17397 -0.39384
 C416 C 0.61767 0.09487 -0.18427
 C417 C 0.59979 0.07837 -0.15479
 C418 C 1.14631 0.47403 -0.30665
 N419 N 1.12443 0.45145 -0.28792
 N420 N 1.10855 0.45263 -0.24742
 C421 C 1.11408 0.47643 -0.22442
 N422 N 1.13604 0.49900 -0.24294
 N423 N 1.15191 0.49781 -0.28343
 C424 C 1.16164 0.47309 -0.35469
 C425 C 1.17365 0.47246 -0.39698
 C426 C 1.09541 0.47802 -0.18590
 C427 C 1.07903 0.47949 -0.15615
 C428 C 0.52646 0.67212 -0.30719
 N429 N 0.54907 0.67275 -0.28871
 N430 N 0.54791 0.65574 -0.24808
 C431 C 0.52410 0.63760 -0.22469
 N432 N 0.50151 0.63706 -0.24296
 N433 N 0.50268 0.65406 -0.28359
 C434 C 0.52736 0.68834 -0.35533
 C435 C 0.52794 0.70094 -0.39768
 C436 C 0.52251 0.61738 -0.18602
 C437 C 0.52102 0.59956 -0.15616
 C438 C 0.32732 -0.14612 -0.30617
 N439 N 0.34547 -0.15176 -0.28262
 N440 N 0.36251 -0.13589 -0.24206
 C441 C 0.36191 -0.11392 -0.22381
 N442 N 0.34367 -0.10837 -0.24714
 N443 N 0.32663 -0.12423 -0.28771
 C444 C 0.31108 -0.16145 -0.35428
 C445 C 0.29847 -0.17346 -0.39662
 C446 C 0.38216 -0.09527 -0.18523
 C447 C 0.40001 -0.07891 -0.15544
 C448 C 0.52654 -0.14670 0.30465
 N449 N 0.50276 -0.15222 0.28128
 N450 N 0.50163 -0.13622 0.24101
 C451 C 0.52426 -0.11422 0.22288
 N452 N 0.54805 -0.10878 0.24603
 N453 N 0.54918 -0.12478 0.28631
 C454 C 0.52742 -0.16219 0.35247
 C455 C 0.52798 -0.17435 0.39456
 C456 C 0.52272 -0.09544 0.18459
 C457 C 0.52128 -0.07900 0.15501
 C458 C 0.32695 0.47324 0.30501
 N459 N 0.32633 0.45065 0.28687
 N460 N 0.34336 0.45175 0.24638
 C461 C 0.36151 0.47548 0.22279
 N462 N 0.36204 0.49806 0.24071
 N463 N 0.34501 0.49696 0.28120
 C464 C 0.31070 0.47241 0.35300
 C465 C 0.29807 0.47189 0.39520
 C466 C 0.38176 0.47703 0.18429
 C467 C 0.39961 0.47849 0.15457
 C468 C 1.14626 0.67318 0.30497
 N469 N 1.12426 0.67378 0.28659
 N470 N 1.10836 0.65675 0.24608
 C471 C 1.11398 0.63860 0.22271
 N472 N 1.13606 0.63810 0.24087
 N473 N 1.15196 0.65513 0.28138
 C474 C 1.16166 0.68944 0.35298
 C475 C 1.17374 0.70207 0.39520
 C476 C 1.09531 0.61837 0.18417
 C477 C 1.07894 0.60052 0.15441
 C478 C 0.47308 0.14517 0.30549
 N479 N 0.49685 0.15083 0.28192
 N480 N 0.49800 0.13494 0.24148
 C481 C 0.47540 0.11291 0.22337
 N482 N 0.45161 0.10732 0.24673
 N483 N 0.45046 0.12321 0.28717
 C484 C 0.47220 0.16055 0.35344
 C485 C 0.47163 0.17263 0.39563
 C486 C 0.47697 0.09424 0.18490
 C487 C 0.47845 0.07788 0.15519
 C488 C 0.67220 0.52660 0.30609
 N489 N 0.67282 0.54917 0.28767
 N490 N 0.65577 0.54802 0.24710
 C491 C 0.63759 0.52426 0.22372
 N492 N 0.63705 0.50170 0.24192
 N493 N 0.65411 0.50285 0.28248
 C494 C 0.68850 0.52749 0.35412
 C495 C 0.70117 0.52807 0.39635
 C496 C 0.61733 0.52267 0.18509
 C497 C 0.59947 0.52119 0.15525
 C498 C 0.85468 0.32819 0.30502
 N499 N 0.87668 0.32758 0.28673
 N500 N 0.89258 0.34462 0.24623
 C501 C 0.88696 0.36278 0.22277
 N502 N 0.86489 0.36329 0.24085
 N503 N 0.84899 0.34625 0.28135
 C504 C 0.83929 0.31192 0.35303
 C505 C 0.82721 0.29928 0.39526
 C506 C 0.90564 0.38302 0.18424
 C507 C 0.92201 0.40087 0.15449
   
