data_POSCAR
  _audit_creation_date              2014-09-24
  _audit_creation_method            'ToBaCCo'
  _symmetry_space_group_name_H-M    'P1'
  _symmetry_Int_Tables_number       1
  _symmetry_cell_setting            triclinic
  loop_
  _symmetry_equiv_pos_as_xyz
 x,y,z
_cell_length_a 32.7463
_cell_length_b 33.2252
_cell_length_c 32.6206
_cell_angle_alpha 94.159100
_cell_angle_beta 88.705400
_cell_angle_gamma 88.867100
loop_
  _atom_site_label
  _atom_site_type_symbol
  _atom_site_fract_x
  _atom_site_fract_y
  _atom_site_fract_z
C1 C 0.27952 0.22238 0.22404
 C2 C 0.28259 0.19669 0.25604
 C3 C 0.25487 0.20018 0.28950
 C4 C 0.22320 0.22936 0.29045
 C5 C 0.22018 0.25611 0.25899
 C6 C 0.24859 0.25228 0.22588
 H7 H 0.30685 0.17399 0.25503
 H8 H 0.20122 0.23120 0.31583
 H9 H 0.24676 0.27266 0.20148
 C10 C 0.72588 -0.26066 0.18922
 C11 C 0.73004 -0.23027 0.22128
 C12 C 0.76117 -0.23254 0.25000
 C13 C 0.78874 -0.26564 0.24646
 C14 C 0.78717 -0.29544 0.21356
 C15 C 0.75527 -0.29256 0.18544
 H16 H 0.70856 -0.20496 0.22458
 H17 H 0.81203 -0.26776 0.26927
 H18 H 0.75330 -0.31524 0.16047
 C19 C 0.72570 0.25613 0.77744
 C20 C 0.75824 0.28286 0.77645
 C21 C 0.78625 0.28171 0.74275
 C22 C 0.78122 0.25172 0.71021
 C23 C 0.74881 0.22460 0.71106
 C24 C 0.72142 0.22698 0.74482
 H25 H 0.76149 0.30474 0.80235
 H26 H 0.80232 0.24850 0.68424
 H27 H 0.69673 0.20582 0.74588
 C28 C 0.26296 -0.24162 0.78615
 C29 C 0.26205 -0.21216 0.75738
 C30 C 0.23154 -0.21212 0.72794
 C31 C 0.20259 -0.24277 0.72647
 C32 C 0.20241 -0.27257 0.75512
 C33 C 0.23238 -0.27087 0.78554
 H34 H 0.28503 -0.18910 0.75799
 H35 H 0.17945 -0.24219 0.70348
 H36 H 0.23249 -0.29288 0.80845
 C37 C 0.71900 -0.23821 0.76900
 C38 C 0.72169 -0.20897 0.74004
 C39 C 0.75461 -0.20991 0.71154
 C40 C 0.78422 -0.24116 0.71151
 C41 C 0.78263 -0.27058 0.74054
 C42 C 0.75011 -0.26797 0.76970
 H43 H 0.69825 -0.18552 0.73971
 H44 H 0.80908 -0.24143 0.68924
 H45 H 0.74842 -0.28971 0.79284
 C46 C 0.28927 0.27154 0.78563
 C47 C 0.29214 0.23973 0.75488
 C48 C 0.26338 0.23590 0.72376
 C49 C 0.23119 0.26428 0.72354
 C50 C 0.22799 0.29675 0.75368
 C51 C 0.25697 0.29998 0.78487
 H52 H 0.31655 0.21734 0.75562
 H53 H 0.20846 0.26077 0.70001
 H54 H 0.25396 0.32432 0.80873
 C55 C 0.27884 -0.26372 0.21602
 C56 C 0.27404 -0.23127 0.24646
 C57 C 0.24487 -0.23220 0.27858
 C58 C 0.22047 -0.26609 0.28086
 C59 C 0.22425 -0.29868 0.25127
 C60 C 0.25300 -0.29720 0.21881
 H61 H 0.29299 -0.20497 0.24549
 H62 H 0.19806 -0.26690 0.30568
 H63 H 0.25399 -0.32212 0.19565
 C64 C 0.71549 0.25694 0.23484
 C65 C 0.74856 0.28307 0.23788
 C66 C 0.77840 0.27905 0.26771
 C67 C 0.77486 0.24811 0.29480
 C68 C 0.74170 0.22185 0.29239
 C69 C 0.71242 0.22636 0.26211
 H70 H 0.75162 0.30620 0.21635
 H71 H 0.79798 0.24406 0.31744
 H72 H 0.68738 0.20559 0.25932
 O73 O 0.20959 0.02747 0.47160
 O74 O 0.22162 -0.04559 0.54965
 O75 O 0.21115 0.03248 0.55082
 O76 O 0.22318 -0.04988 0.46902
 O77 O 0.28992 -0.04163 0.46792
 O78 O 0.27802 0.03999 0.54949
 O79 O 0.28847 -0.03809 0.54833
 O80 O 0.27635 0.03582 0.47007
 Cu81 Cu 0.20972 -0.01002 0.51052
 Cu82 Cu 0.28992 -0.00031 0.50887
 C83 C 0.24087 0.04440 0.45774
 C84 C 0.25677 -0.05420 0.56255
 C85 C 0.24273 0.05065 0.56363
 C86 C 0.25858 -0.05937 0.45413
 O87 O 0.72358 0.03735 0.52812
 O88 O 0.71095 -0.04289 0.44513
 O89 O 0.70910 -0.03975 0.52578
 O90 O 0.72218 0.03492 0.44884
 O91 O 0.78885 0.02331 0.44675
 O92 O 0.77578 -0.05095 0.52477
 O93 O 0.77754 -0.05467 0.44373
 O94 O 0.79024 0.02564 0.52580
 Cu95 Cu 0.70976 -0.00168 0.48710
 Cu96 Cu 0.78971 -0.01578 0.48492
 C97 C 0.75919 0.04554 0.54064
 C98 C 0.74232 -0.06227 0.43006
 C99 C 0.74026 -0.05758 0.53899
 C100 C 0.75764 0.04249 0.43527
 O101 O 0.46279 0.20780 0.04163
 O102 O 0.54573 0.19871 -0.03672
 O103 O 0.54180 0.20006 0.04331
 O104 O 0.46675 0.20341 -0.03783
 O105 O 0.46965 0.26988 -0.03524
 O106 O 0.54589 0.26644 0.04646
 O107 O 0.54925 0.26515 -0.03384
 O108 O 0.46668 0.27422 0.04432
 Cu109 Cu 0.50402 0.19582 0.00238
 Cu110 Cu 0.50846 0.27562 0.00567
 C111 C 0.45042 0.24257 0.05609
 C112 C 0.56136 0.23057 -0.04890
 C113 C 0.55653 0.23251 0.05899
 C114 C 0.45509 0.23697 -0.05026
 O115 O 0.53535 0.75700 0.02744
 O116 O 0.45319 0.76041 -0.04731
 O117 O 0.53275 0.76141 -0.05177
 O118 O 0.45585 0.75554 0.03166
 O119 O 0.45370 0.82204 0.04091
 O120 O 0.53104 0.82790 -0.04272
 O121 O 0.45111 0.82694 -0.03872
 O122 O 0.53310 0.82348 0.03698
 Cu123 Cu 0.49454 0.75198 -0.01093
 Cu124 Cu 0.49199 0.83177 -0.00007
 C125 C 0.54815 0.78951 0.04512
 C126 C 0.43805 0.79421 -0.05575
 C127 C 0.54517 0.79552 -0.06144
 C128 C 0.44170 0.78774 0.05060
 O129 O 0.04378 0.43901 0.19327
 O130 O -0.03299 0.52236 0.19916
 O131 O 0.04644 0.51715 0.19184
 O132 O -0.03556 0.44413 0.19660
 O133 O -0.03354 0.44781 0.26435
 O134 O 0.04977 0.52113 0.25952
 O135 O -0.02952 0.52662 0.26684
 O136 O 0.04586 0.44300 0.26105
 Cu137 Cu 0.00515 0.48027 0.18846
 Cu138 Cu 0.00838 0.48508 0.26973
 C139 C 0.05778 0.42676 0.22634
 C140 C -0.04417 0.53881 0.23414
 C141 C 0.06219 0.53164 0.22473
 C142 C -0.04861 0.43338 0.23096
 O143 O 0.03335 0.54459 0.75506
 O144 O -0.04263 0.46428 0.75141
 O145 O -0.04564 0.54314 0.75195
 O146 O 0.03655 0.46651 0.75520
 O147 O 0.03197 0.47081 0.82302
 O148 O -0.05010 0.54798 0.81978
 O149 O -0.04747 0.46961 0.81921
 O150 O 0.02981 0.54878 0.82293
 Cu151 Cu -0.00427 0.50413 0.74660
 Cu152 Cu -0.00951 0.50980 0.82806
 C153 C 0.04489 0.56003 0.78951
 C154 C -0.05806 0.45329 0.78475
 C155 C -0.06179 0.55876 0.78528
 C156 C 0.04847 0.45577 0.78961
 C157 C 0.35468 0.25146 0.14532
 C158 C 0.37021 0.21369 0.12941
 N159 N 0.35488 0.17952 0.14343
 C160 C 0.32504 0.18136 0.17314
 C161 C 0.30986 0.21916 0.18975
 N162 N 0.32489 0.25334 0.17501
 N163 N 0.37033 0.28563 0.13153
 C164 C 0.40101 0.28377 0.10264
 C165 C 0.41685 0.24596 0.08686
 N166 N 0.40081 0.21181 0.10061
 H167 H 0.31333 0.15359 0.18369
 H168 H 0.41298 0.31152 0.09228
 C169 C 0.64233 0.78128 0.13109
 C170 C 0.63058 0.74746 0.10638
 N171 N 0.64968 0.71142 0.10983
 C172 C 0.68055 0.70754 0.13646
 C173 C 0.69330 0.74153 0.16136
 N174 N 0.67299 0.77749 0.15805
 N175 N 0.62321 0.81745 0.12735
 C176 C 0.59287 0.82125 0.09990
 C177 C 0.58091 0.78722 0.07518
 N178 N 0.60017 0.75110 0.07927
 H179 H 0.69341 0.67768 0.13878
 H180 H 0.57817 0.85043 0.09758
 C181 C 0.65136 0.22441 -0.14403
 C182 C 0.63898 0.26153 -0.12392
 N183 N 0.65531 0.29614 -0.13584
 C184 C 0.68357 0.29538 -0.16705
 C185 C 0.69604 0.25823 -0.18751
 N186 N 0.67937 0.22362 -0.17537
 N187 N 0.63487 0.18980 -0.13218
 C188 C 0.60630 0.19066 -0.10119
 C189 C 0.59346 0.22789 -0.08128
 N190 N 0.61032 0.26244 -0.09321
 H191 H 0.69534 0.32360 -0.17635
 H192 H 0.59346 0.16263 -0.09255
 C193 C 0.34265 0.79485 -0.14114
 C194 C 0.35839 0.75854 -0.12796
 N195 N 0.34286 0.72298 -0.14275
 C196 C 0.31210 0.72200 -0.17007
 C197 C 0.29600 0.75833 -0.18342
 N198 N 0.31205 0.79393 -0.16861
 N199 N 0.35823 0.83041 -0.12621
 C200 C 0.38888 0.83130 -0.09867
 C201 C 0.40486 0.79490 -0.08551
 N202 N 0.38907 0.75938 -0.10066
 H203 H 0.30101 0.69306 -0.18181
 H204 H 0.40068 0.86008 -0.08730
 C205 C 0.14564 0.33158 0.22386
 C206 C 0.12983 0.34962 0.26120
 N207 N 0.14323 0.33674 0.29715
 C208 C 0.17178 0.30651 0.29755
 C209 C 0.18788 0.28821 0.26016
 N210 N 0.17427 0.30152 0.22420
 N211 N 0.13235 0.34463 0.18788
 C212 C 0.10394 0.37505 0.18756
 C213 C 0.08818 0.39340 0.22498
 N214 N 0.10162 0.38005 0.26092
 H215 H 0.18240 0.29772 0.32681
 H216 H 0.09397 0.38488 0.15843
 C217 C 0.13573 0.64870 0.78990
 C218 C 0.11379 0.63833 0.75445
 N219 N 0.12169 0.65699 0.71968
 C220 C 0.15024 0.68603 0.71869
 C221 C 0.17263 0.69700 0.75429
 N222 N 0.16475 0.67729 0.78887
 N223 N 0.12729 0.63039 0.82492
 C224 C 0.09786 0.60208 0.82600
 C225 C 0.07619 0.59124 0.79025
 N226 N 0.08489 0.60971 0.75528
 H227 H 0.15608 0.69885 0.68972
 H228 H 0.09184 0.58787 0.85427
 C229 C -0.13154 0.63473 0.24136
 C230 C -0.12494 0.61052 0.20477
 N231 N -0.14711 0.61778 0.17143
 C232 C -0.17595 0.64789 0.17295
 C233 C -0.18315 0.67258 0.20983
 N234 N -0.16000 0.66509 0.24288
 N235 N -0.10968 0.62726 0.27494
 C236 C -0.08148 0.59656 0.27355
 C237 C -0.07451 0.57233 0.23674
 N238 N -0.09649 0.58010 0.20314
 H239 H -0.19150 0.65289 0.14492
 H240 H -0.06451 0.59133 0.30082
 C241 C -0.14676 0.36253 0.78048
 C242 C -0.12288 0.36906 0.74560
 N243 N -0.12861 0.34608 0.71018
 C244 C -0.15724 0.31685 0.70792
 C245 C -0.18208 0.31037 0.74287
 N246 N -0.17560 0.33386 0.77815
 N247 N -0.14103 0.38509 0.81615
 C248 C -0.11241 0.41417 0.81848
 C249 C -0.08869 0.42137 0.78338
 N250 N -0.09457 0.39847 0.74766
 H251 H -0.16095 0.30027 0.67863
 H252 H -0.10862 0.43178 0.84733
 C253 C 0.22802 0.13011 0.36912
 C254 C 0.26674 0.11883 0.38261
 N255 N 0.30061 0.13519 0.36658
 C256 C 0.29760 0.16197 0.33722
 C257 C 0.25891 0.17291 0.32305
 N258 N 0.22496 0.15690 0.33978
 N259 N 0.19419 0.11348 0.38501
 C260 C 0.19733 0.08591 0.41367
 C261 C 0.23612 0.07437 0.42708
 N262 N 0.26990 0.09136 0.41120
 H263 H 0.32517 0.17466 0.32514
 H264 H 0.16982 0.07310 0.42575
 C265 C 0.77381 0.14184 0.63094
 C266 C 0.73485 0.13098 0.61750
 N267 N 0.70140 0.15154 0.63375
 C268 C 0.70507 0.18221 0.66325
 C269 C 0.74402 0.19293 0.67729
 N270 N 0.77754 0.17254 0.66038
 N271 N 0.80722 0.12107 0.61483
 C272 C 0.80346 0.08985 0.58589
 C273 C 0.76444 0.07882 0.57236
 N274 N 0.73105 0.09989 0.58856
 H275 H 0.67781 0.19813 0.67553
 H276 H 0.83069 0.07391 0.57357
 C277 C 0.26405 -0.13809 0.65377
 C278 C 0.22625 -0.12391 0.64062
 N279 N 0.19119 -0.13742 0.65708
 C280 C 0.19208 -0.16504 0.68573
 C281 C 0.22984 -0.18030 0.69840
 N282 N 0.26504 -0.16594 0.68232
 N283 N 0.29907 -0.12424 0.63725
 C284 C 0.29796 -0.09698 0.60803
 C285 C 0.26003 -0.08312 0.59449
 N286 N 0.22514 -0.09699 0.61140
 H287 H 0.16350 -0.17481 0.69858
 H288 H 0.32631 -0.08653 0.59531
 C289 C 0.73226 -0.15220 0.33207
 C290 C 0.77043 -0.14164 0.34772
 N291 N 0.80478 -0.16021 0.33105
 C292 C 0.80277 -0.18922 0.29960
 C293 C 0.76452 -0.20047 0.28398
 N294 N 0.73015 -0.18123 0.30062
 N295 N 0.69793 -0.13334 0.34869
 C296 C 0.70006 -0.10438 0.38029
 C297 C 0.73833 -0.09376 0.39613
 N298 N 0.77259 -0.11280 0.37924
 H299 H 0.83089 -0.20284 0.28664
 H300 H 0.67220 -0.08985 0.39286
 C301 C 0.63731 0.79798 -0.15460
 C302 C 0.62151 0.76140 -0.14306
 N303 N 0.63656 0.72605 -0.16124
 C304 C 0.66718 0.72547 -0.19008
 C305 C 0.68392 0.76197 -0.20128
 N306 N 0.66807 0.79750 -0.18345
 N307 N 0.62220 0.83329 -0.13610
 C308 C 0.59221 0.83365 -0.10640
 C309 C 0.57663 0.79695 -0.09446
 N310 N 0.59174 0.76173 -0.11341
 H311 H 0.67826 0.69672 -0.20418
 H312 H 0.58095 0.86224 -0.09205
 C313 C 0.36553 0.23731 -0.14135
 C314 C 0.37804 0.27370 -0.12153
 N315 N 0.36094 0.30908 -0.13178
 C316 C 0.33190 0.30967 -0.16101
 C317 C 0.31948 0.27314 -0.18114
 N318 N 0.33687 0.23794 -0.17053
 N319 N 0.38233 0.20186 -0.13133
 C320 C 0.41123 0.20104 -0.10224
 C321 C 0.42413 0.23739 -0.08226
 N322 N 0.40713 0.27301 -0.09248
 H323 H 0.31948 0.33839 -0.16901
 H324 H 0.42403 0.17222 -0.09491
 C325 C 0.35422 0.77849 0.14690
 C326 C 0.36600 0.74473 0.12086
 N327 N 0.34915 0.70858 0.12659
 C328 C 0.32075 0.70452 0.15700
 C329 C 0.30839 0.73840 0.18363
 N330 N 0.32614 0.77448 0.17754
 N331 N 0.37085 0.81480 0.14100
 C332 C 0.39885 0.81884 0.11015
 C333 C 0.41105 0.78490 0.08410
 N334 N 0.39420 0.74858 0.09028
 H335 H 0.30942 0.67470 0.16056
 H336 H 0.41162 0.84814 0.10624
 C337 C 0.64090 0.22684 0.15470
 C338 C 0.62976 0.26402 0.13991
 N339 N 0.64625 0.29841 0.15665
 C340 C 0.67364 0.29728 0.18732
 C341 C 0.68518 0.25996 0.20205
 N342 N 0.66814 0.22569 0.18531
 N343 N 0.62454 0.19241 0.13806
 C344 C 0.59746 0.19340 0.10720
 C345 C 0.58610 0.23060 0.09221
 N346 N 0.60262 0.26512 0.10910
 H347 H 0.68578 0.32530 0.20033
 H348 H 0.58491 0.16539 0.09460
 C349 C -0.15399 0.64887 0.77915
 C350 C -0.12794 0.63808 0.74535
 N351 N -0.13193 0.65718 0.71032
 C352 C -0.16053 0.68699 0.70751
 C353 C -0.18709 0.69836 0.74145
 N354 N -0.18297 0.67825 0.77628
 N355 N -0.14952 0.63020 0.81452
 C356 C -0.12005 0.60117 0.81755
 C357 C -0.09410 0.58998 0.78349
 N358 N -0.09889 0.60878 0.74813
 H359 H -0.16301 0.70016 0.67837
 H360 H -0.11714 0.58680 0.84610
 C361 C -0.14334 0.34883 0.23213
 C362 C -0.12383 0.36117 0.26861
 N363 N -0.13585 0.34583 0.30435
 C364 C -0.16658 0.31881 0.30524
 C365 C -0.18651 0.30669 0.26867
 N366 N -0.17406 0.32223 0.23308
 N367 N -0.13161 0.36392 0.19632
 C368 C -0.10118 0.39098 0.19523
 C369 C -0.08160 0.40384 0.23170
 N370 N -0.09347 0.38849 0.26768
 H371 H -0.17595 0.30784 0.33434
 H372 H -0.09259 0.40248 0.16612
 C373 C 0.14600 0.37060 0.79047
 C374 C 0.13017 0.38213 0.75337
 N375 N 0.14657 0.36603 0.71715
 C376 C 0.17800 0.33863 0.71626
 C377 C 0.19393 0.32672 0.75338
 N378 N 0.17750 0.34335 0.78965
 N379 N 0.12954 0.38677 0.82669
 C380 C 0.09792 0.41403 0.82750
 C381 C 0.08208 0.42577 0.79033
 N382 N 0.09876 0.40941 0.75414
 H383 H 0.19075 0.32682 0.68685
 H384 H 0.08548 0.42650 0.85683
 C385 C 0.15357 0.61939 0.21878
 C386 C 0.14027 0.60631 0.25672
 N387 N 0.15600 0.62296 0.29196
 C388 C 0.18392 0.65264 0.29110
 C389 C 0.19658 0.66668 0.25319
 N390 N 0.18129 0.64918 0.21787
 N391 N 0.13767 0.60289 0.18354
 C392 C 0.10876 0.57413 0.18449
 C393 C 0.09484 0.56137 0.22250
 N394 N 0.11124 0.57775 0.25774
 H395 H 0.19597 0.66518 0.31976
 H396 H 0.09647 0.56174 0.15586
 C397 C 0.72730 -0.13805 0.63323
 C398 C 0.76596 -0.12524 0.62080
 N399 N 0.79973 -0.13861 0.63934
 C400 C 0.79679 -0.16481 0.66930
 C401 C 0.75823 -0.17883 0.68118
 N402 N 0.72427 -0.16455 0.66302
 N403 N 0.69353 -0.12427 0.61481
 C404 C 0.69667 -0.09836 0.58445
 C405 C 0.73544 -0.08583 0.57159
 N406 N 0.76914 -0.09965 0.59033
 H407 H 0.82438 -0.17455 0.68367
 H408 H 0.66919 -0.08787 0.57037
 C409 C 0.27106 -0.14985 0.35629
 C410 C 0.23243 -0.13815 0.37313
 N411 N 0.19862 -0.15616 0.35794
 C412 C 0.20166 -0.18580 0.32700
 C413 C 0.24037 -0.19822 0.31044
 N414 N 0.27417 -0.17951 0.32539
 N415 N 0.30487 -0.13185 0.37162
 C416 C 0.30184 -0.10271 0.40312
 C417 C 0.26317 -0.09103 0.42022
 N418 N 0.22936 -0.10911 0.40458
 H419 H 0.17407 -0.19944 0.31542
 H420 H 0.32935 -0.08889 0.41467
 C421 C 0.76950 0.13751 0.35644
 C422 C 0.73106 0.12639 0.37116
 N423 N 0.69708 0.14687 0.36070
 C424 C 0.69968 0.17784 0.33584
 C425 C 0.73810 0.18903 0.32063
 N426 N 0.77219 0.16858 0.33165
 N427 N 0.80344 0.11689 0.36701
 C428 C 0.80068 0.08573 0.39178
 C429 C 0.76217 0.07467 0.40677
 N430 N 0.72831 0.09546 0.39595
 H431 H 0.67201 0.19380 0.32839
 H432 H 0.82828 0.07004 0.39993
 C433 C 0.23339 0.15080 0.65110
 C434 C 0.27152 0.13610 0.63547
 N435 N 0.30608 0.15447 0.64817
 C436 C 0.30436 0.18680 0.67617
 C437 C 0.26625 0.20155 0.69229
 N438 N 0.23159 0.18319 0.67901
 N439 N 0.19886 0.13224 0.63832
 C440 C 0.20073 0.09963 0.61051
 C441 C 0.23894 0.08494 0.59470
 N442 N 0.27338 0.10372 0.60769
 H443 H 0.33246 0.20104 0.68542
 H444 H 0.17272 0.08554 0.60072
   
