data_POSCAR
  _audit_creation_date              2014-09-24
  _audit_creation_method            'ToBaCCo'
  _symmetry_space_group_name_H-M    'P1'
  _symmetry_Int_Tables_number       1
  _symmetry_cell_setting            triclinic
  loop_
  _symmetry_equiv_pos_as_xyz
 x,y,z
_cell_length_a 38.7909
_cell_length_b 39.0183
_cell_length_c 38.3452
_cell_angle_alpha 87.633500
_cell_angle_beta 88.555400
_cell_angle_gamma 88.648400
loop_
  _atom_site_label
  _atom_site_type_symbol
  _atom_site_fract_x
  _atom_site_fract_y
  _atom_site_fract_z
C1 C 0.80057 0.65822 1.00275
 C2 C 0.81147 0.63346 0.97423
 C3 C 0.78569 0.61337 0.96390
 C4 C 0.75135 0.61917 0.98416
 C5 C 0.76921 0.67826 0.98832
 C6 C 0.74359 0.65786 0.97805
 C7 C 0.78593 0.63518 1.03241
 C8 C 0.76018 0.61476 1.02298
 H9 H 0.83658 0.63392 0.96122
 H10 H 0.73010 0.60243 0.97738
 H11 H 0.76827 0.70594 0.98469
 H12 H 0.79363 0.63699 1.05921
 C13 C 0.79552 0.35338 0.46898
 C14 C 0.80310 0.37746 0.49810
 C15 C 0.77585 0.39797 0.50753
 C16 C 0.74299 0.39202 0.48717
 C17 C 0.76428 0.33319 0.48268
 C18 C 0.73657 0.35331 0.49218
 C19 C 0.78174 0.37669 0.43922
 C20 C 0.75425 0.39695 0.44837
 H21 H 0.82773 0.37741 0.51081
 H22 H 0.72088 0.40847 0.49561
 H23 H 0.76507 0.30553 0.48582
 H24 H 0.79268 0.37677 0.41293
 C25 C 0.30619 -0.15094 -0.01609
 C26 C 0.31339 -0.12728 0.01099
 C27 C 0.28410 -0.10694 0.02158
 C28 C 0.25297 -0.11390 0.00231
 C29 C 0.27745 -0.17116 -0.00216
 C30 C 0.24770 -0.15077 0.00774
 C31 C 0.29234 -0.12952 -0.04456
 C32 C 0.26284 -0.10911 -0.03482
 H33 H 0.33835 -0.12559 0.02287
 H34 H 0.23031 -0.09833 0.01046
 H35 H 0.27867 -0.19888 -0.00025
 H36 H 0.30295 -0.12935 -0.07102
 C37 C 0.29726 0.14112 0.51645
 C38 C 0.30823 0.11791 0.48669
 C39 C 0.28242 0.09808 0.47555
 C40 C 0.24817 0.10286 0.49607
 C41 C 0.26578 0.16159 0.50291
 C42 C 0.24012 0.14150 0.49211
 C43 C 0.28289 0.11658 0.54506
 C44 C 0.25723 0.09651 0.53459
 H45 H 0.33301 0.12011 0.47333
 H46 H 0.22718 0.08654 0.48739
 H47 H 0.26424 0.18936 0.50177
 H48 H 0.29090 0.11676 0.57191
 C49 C 0.14099 0.49905 0.30102
 C50 C 0.11386 0.47123 0.30677
 C51 C 0.09475 0.46620 0.27814
 C52 C 0.10459 0.48942 0.24640
 C53 C 0.16253 0.48765 0.26919
 C54 C 0.14348 0.48200 0.24069
 C55 C 0.12108 0.53101 0.28789
 C56 C 0.10196 0.52618 0.25933
 H57 H 0.11289 0.45430 0.32985
 H58 H 0.08852 0.48590 0.22335
 H59 H 0.18999 0.48203 0.27005
 H60 H 0.12404 0.55577 0.29906
 C61 C -0.14205 -0.03173 0.30530
 C62 C -0.11463 -0.00527 0.31147
 C63 C -0.09437 0.00238 0.28274
 C64 C -0.10367 -0.01738 0.25042
 C65 C -0.16231 -0.01644 0.27433
 C66 C -0.14229 -0.00908 0.24526
 C67 C -0.12309 -0.06110 0.29220
 C68 C -0.10211 -0.05360 0.26168
 H69 H -0.11271 0.00758 0.33583
 H70 H -0.08722 -0.01088 0.22701
 H71 H -0.18972 -0.01088 0.27626
 H72 H -0.12424 -0.08596 0.30562
 C73 C 0.34753 0.47273 0.79486
 C74 C 0.36773 0.50388 0.80474
 C75 C 0.38498 0.51962 0.77751
 C76 C 0.38083 0.50223 0.74253
 C77 C 0.32422 0.48588 0.76511
 C78 C 0.34154 0.50122 0.73756
 C79 C 0.37431 0.44925 0.77723
 C80 C 0.39169 0.46458 0.74974
 H81 H 0.36810 0.51281 0.83111
 H82 H 0.39587 0.51438 0.72068
 H83 H 0.29653 0.48276 0.76561
 H84 H 0.37671 0.42206 0.78383
 C85 C 0.63722 1.00605 0.80372
 C86 C 0.60960 0.97887 0.80960
 C87 C 0.59172 0.97286 0.78052
 C88 C 0.60234 0.99564 0.74837
 C89 C 0.65958 0.99307 0.77294
 C90 C 0.64134 0.98765 0.74371
 C91 C 0.61917 1.03633 0.78992
 C92 C 0.60020 1.03107 0.75942
 H93 H 0.60758 0.96280 0.83327
 H94 H 0.58632 0.99038 0.72594
 H95 H 0.68694 0.98723 0.77471
 H96 H 0.62151 1.06142 0.80070
 C97 C -0.01816 0.28872 -0.15564
 C98 C 0.00891 0.29862 -0.12986
 C99 C 0.01804 0.27301 -0.10660
 C100 C -0.00133 0.23943 -0.11102
 C101 C -0.00304 0.25663 -0.17265
 C102 C 0.00594 0.23078 -0.14945
 C103 C -0.04841 0.27575 -0.13299
 C104 C -0.03997 0.24957 -0.10994
 H105 H 0.02097 0.32343 -0.13101
 H106 H 0.00504 0.21867 -0.09150
 H107 H 0.00021 0.25457 -0.20063
 H108 H -0.07435 0.28616 -0.13580
 C109 C 0.51312 0.30570 0.13354
 C110 C 0.48360 0.31166 0.10832
 C111 C 0.47530 0.28356 0.09078
 C112 C 0.49841 0.25168 0.09959
 C113 C 0.50183 0.27510 0.15724
 C114 C 0.49433 0.24671 0.13956
 C115 C 0.54315 0.29186 0.11134
 C116 C 0.53591 0.26353 0.09375
 H117 H 0.46839 0.33533 0.10710
 H118 H 0.49201 0.22900 0.08487
 H119 H 0.49906 0.27615 0.18536
 H120 H 0.56872 0.30249 0.11131
 C121 C 1.00778 0.79687 0.65310
 C122 C 0.97483 0.80440 0.63694
 C123 C 0.96454 0.77885 0.61379
 C124 C 0.99036 0.75117 0.61015
 C125 C 1.00431 0.76262 0.66962
 C126 C 0.99459 0.73709 0.64597
 C127 C 1.03231 0.79297 0.62416
 C128 C 1.02325 0.76721 0.60065
 H129 H 0.95945 0.82726 0.64205
 H130 H 0.98275 0.73279 0.59068
 H131 H 1.00656 0.75730 0.69746
 H132 H 1.05720 0.80501 0.62347
 C133 C 0.46310 0.80115 0.34785
 C134 C 0.49508 0.80762 0.36875
 C135 C 0.50597 0.78023 0.38906
 C136 C 0.48326 0.74861 0.38687
 C137 C 0.47263 0.76923 0.32729
 C138 C 0.48325 0.74156 0.34750
 C139 C 0.43597 0.78905 0.37492
 C140 C 0.44610 0.76141 0.39514
 H141 H 0.50728 0.83231 0.36798
 H142 H 0.49225 0.72714 0.40431
 H143 H 0.47174 0.76884 0.29909
 H144 H 0.41007 0.80002 0.37623
 C145 C 0.40247 -0.00842 0.27071
 H146 H 0.40223 0.01577 0.28353
 C147 C 0.41895 -0.03722 0.28609
 H148 H 0.43223 -0.03457 0.31027
 C149 C 0.38477 -0.04111 0.22385
 H150 H 0.37058 -0.04279 0.20013
 C151 C 0.40109 -0.07049 0.23822
 H152 H 0.39960 -0.09452 0.22521
 N153 N 0.38525 -0.01102 0.24053
 C154 C 0.36608 0.09329 0.19914
 H155 H 0.33823 0.09300 0.19831
 C156 C 0.38358 0.12271 0.18803
 H157 H 0.36908 0.14513 0.17859
 C158 C 0.41879 0.06424 0.21243
 H159 H 0.43232 0.04133 0.22194
 C160 C 0.43742 0.09303 0.20099
 H161 H 0.46527 0.09217 0.20234
 Zn162 Zn 0.35703 0.02666 0.22574
 N163 N 0.38375 0.06500 0.21146
 C164 C 0.33421 0.06812 0.27994
 N165 N 0.32890 0.03767 0.26511
 C166 C 0.30961 0.01302 0.28187
 C167 C 0.29615 0.01804 0.31561
 C168 C 0.32164 0.07398 0.31351
 C169 C 0.35191 0.01464 0.15654
 C170 C 0.33912 0.00221 0.12612
 C171 C 0.28564 -0.01033 0.15724
 C172 C 0.29952 0.00280 0.18726
 N173 N 0.33242 0.01420 0.18645
 H174 H 0.35037 0.08706 0.26699
 H175 H 0.30670 -0.01144 0.27012
 H176 H 0.28229 -0.00233 0.32945
 H177 H 0.32747 0.09777 0.32546
 H178 H 0.37810 0.02353 0.15667
 H179 H 0.35578 0.00202 0.10299
 H180 H 0.25998 -0.02053 0.15909
 H181 H 0.28451 0.00261 0.21139
 C182 C 0.41966 0.12272 0.18854
 C183 C 0.41738 -0.06905 0.27032
 C184 C 0.30596 -0.01142 0.12620
 C185 C 0.30354 0.04824 0.33221
 C186 C 0.06188 1.04181 0.77839
 H187 H 0.04795 1.02099 0.76809
 C188 C 0.04373 1.06993 0.79191
 H189 H 0.01581 1.07076 0.79163
 C190 C 0.11509 1.06631 0.79171
 H191 H 0.14298 1.06470 0.79132
 C192 C 0.09807 1.09453 0.80578
 H193 H 0.11317 1.11486 0.81558
 N194 N 0.09696 1.04074 0.77833
 C195 C 0.10535 0.93478 0.76300
 H196 H 0.12427 0.93132 0.78310
 C197 C 0.08953 0.90607 0.75064
 H198 H 0.09598 0.88134 0.76272
 C199 C 0.07508 0.97148 0.72306
 H200 H 0.07041 0.99698 0.71176
 C201 C 0.05830 0.94355 0.71018
 H202 H 0.04037 0.94805 0.68916
 Zn203 Zn 0.12448 1.00408 0.76165
 N204 N 0.09819 0.96663 0.74891
 C205 C 0.13625 0.98195 0.82943
 N206 N 0.15316 0.98993 0.79883
 C207 C 0.18814 0.98824 0.79616
 C208 C 0.20744 0.97717 0.82498
 C209 C 0.15441 0.97100 0.85889
 C210 C 0.14324 1.05112 0.70704
 C211 C 0.15962 1.06196 0.67586
 C212 C 0.18927 1.00690 0.67415
 C213 C 0.17204 0.99697 0.70531
 N214 N 0.14986 1.01921 0.72129
 H215 H 0.10837 0.98371 0.83076
 H216 H 0.20111 0.99526 0.77173
 H217 H 0.23529 0.97552 0.82217
 H218 H 0.13962 0.96391 0.88218
 H219 H 0.12469 1.06806 0.71942
 H220 H 0.15402 1.08747 0.66492
 H221 H 0.20647 0.98864 0.66169
 H222 H 0.17598 0.97133 0.71655
 C223 C 0.06611 0.91008 0.72319
 C224 C 0.06188 1.09646 0.80621
 C225 C 0.18320 1.03994 0.65918
 C226 C 0.19070 0.96831 0.85700
 C227 C 0.56398 0.55581 0.28857
 H228 H 0.56129 0.53032 0.30034
 C229 C 0.54513 0.58332 0.30242
 H230 H 0.52729 0.57817 0.32399
 C231 C 0.59111 0.59314 0.24668
 H232 H 0.60958 0.59721 0.22548
 C233 C 0.57285 0.62127 0.25965
 H234 H 0.57729 0.64657 0.24792
 N235 N 0.58659 0.56113 0.26126
 C236 C 0.60623 0.46847 0.20445
 H237 H 0.63273 0.47384 0.19728
 C238 C 0.59035 0.44114 0.18978
 H239 H 0.60517 0.42537 0.17200
 C240 C 0.55527 0.48223 0.23676
 H241 H 0.54160 0.49838 0.25488
 C242 C 0.53838 0.45470 0.22288
 H243 H 0.51182 0.44981 0.23051
 Zn244 Zn 0.61492 0.52437 0.24461
 N245 N 0.58873 0.48845 0.22747
 C246 C 0.66218 0.47697 0.27515
 N247 N 0.64273 0.50565 0.28127
 C248 C 0.64169 0.51948 0.31332
 C249 C 0.65950 0.50355 0.34107
 C250 C 0.68044 0.46033 0.30204
 C251 C 0.62602 0.55004 0.17647
 C252 C 0.64456 0.56063 0.14645
 C253 C 0.69726 0.55173 0.17818
 C254 C 0.67764 0.54142 0.20773
 N255 N 0.64268 0.54071 0.20629
 H256 H 0.66312 0.46658 0.24949
 H257 H 0.62681 0.54273 0.31760
 H258 H 0.65828 0.51518 0.36619
 H259 H 0.69529 0.43720 0.29670
 H260 H 0.59819 0.54901 0.17602
 H261 H 0.63081 0.56805 0.12298
 H262 H 0.72494 0.55281 0.18030
 H263 H 0.69032 0.53398 0.23175
 C264 C 0.55587 0.43413 0.19871
 C265 C 0.54995 0.61678 0.28824
 C266 C 0.68065 0.56118 0.14684
 C267 C 0.67862 0.47306 0.33572
 C268 C 0.89838 0.49035 0.78647
 H269 H 0.89413 0.51530 0.79715
 C270 C 0.91507 0.46458 0.80640
 H271 H 0.92437 0.47029 0.83188
 C272 C 0.88879 0.45167 0.74194
 H273 H 0.87740 0.44614 0.71751
 C274 C 0.90539 0.42515 0.76097
 H275 H 0.90628 0.39982 0.75056
 N276 N 0.88585 0.48369 0.75468
 C277 C 0.88991 0.56665 0.68118
 H278 H 0.87257 0.55581 0.66328
 C279 C 0.91119 0.59316 0.66913
 H280 H 0.90924 0.60170 0.64210
 C281 C 0.91029 0.57043 0.73845
 H282 H 0.90943 0.56212 0.76559
 C283 C 0.93165 0.59739 0.72766
 H284 H 0.94724 0.60906 0.74680
 Zn285 Zn 0.86030 0.51921 0.73076
 N286 N 0.89016 0.55533 0.71520
 C287 C 0.82485 0.57108 0.76674
 N288 N 0.82777 0.53659 0.76341
 C289 C 0.81328 0.51437 0.78748
 C290 C 0.79728 0.52658 0.81777
 C291 C 0.80897 0.58437 0.79644
 C292 C 0.86066 0.48947 0.66619
 C293 C 0.84779 0.47589 0.63632
 C294 C 0.78998 0.48594 0.65911
 C295 C 0.80408 0.49966 0.68872
 N296 N 0.83892 0.50116 0.69162
 H297 H 0.83674 0.58826 0.74739
 H298 H 0.81650 0.48703 0.78446
 H299 H 0.78819 0.50816 0.83751
 H300 H 0.80855 0.61186 0.79949
 H301 H 0.88825 0.49063 0.66929
 H302 H 0.86589 0.46596 0.61710
 H303 H 0.76226 0.48461 0.65710
 H304 H 0.78727 0.50893 0.70937
 C305 C 0.93278 0.60893 0.69247
 C306 C 0.91887 0.43153 0.79371
 C307 C 0.81197 0.47435 0.63221
 C308 C 0.79611 0.56207 0.82307
 C309 C 0.28520 0.39038 -0.01506
 H310 H 0.29889 0.38533 0.00891
 C311 C 0.30076 0.40927 -0.04265
 H312 H 0.32648 0.41884 -0.03977
 C313 C 0.23560 0.38285 -0.04851
 H314 H 0.21058 0.37180 -0.05108
 C315 C 0.24999 0.40203 -0.07656
 H316 H 0.23584 0.40524 -0.10048
 N317 N 0.25325 0.37747 -0.01848
 C318 C 0.20113 0.36074 0.08210
 H319 H 0.19488 0.33400 0.08029
 C320 C 0.18888 0.37902 0.11050
 H321 H 0.17378 0.36577 0.13073
 C322 C 0.22934 0.40982 0.05807
 H323 H 0.24494 0.42174 0.03744
 C324 C 0.21769 0.42909 0.08618
 H325 H 0.22447 0.45581 0.08702
 Zn326 Zn 0.23518 0.34918 0.01866
 N327 N 0.22100 0.37623 0.05664
 C328 C 0.27877 0.31569 0.06739
 N329 N 0.27083 0.31786 0.03304
 C330 C 0.29153 0.30280 0.00858
 C331 C 0.32276 0.28664 0.01816
 C332 C 0.30938 0.29963 0.07808
 C333 C 0.16681 0.34746 0.00123
 C334 C 0.13595 0.33432 -0.00947
 C335 C 0.16433 0.27887 -0.01434
 C336 C 0.19482 0.29313 -0.00313
 N337 N 0.19552 0.32701 0.00390
 H338 H 0.26248 0.32812 0.08648
 H339 H 0.28500 0.30545 -0.01867
 H340 H 0.33982 0.27692 -0.00204
 H341 H 0.31591 0.29973 0.10538
 H342 H 0.16803 0.37425 0.00721
 H343 H 0.11355 0.35130 -0.01182
 H344 H 0.16441 0.25194 -0.01987
 H345 H 0.21792 0.27728 -0.00037
 C346 C 0.19678 0.41385 0.11257
 C347 C 0.28308 0.41541 -0.07380
 C348 C 0.13441 0.29980 -0.01794
 C349 C 0.33245 0.28595 0.05331
 C350 C 0.79942 0.06653 1.05130
 H351 H 0.81122 0.06452 1.02558
 C352 C 0.81379 0.04851 1.07989
 H353 H 0.83651 0.03232 1.07600
 C354 C 0.75622 0.09108 1.08790
 H355 H 0.73441 0.10846 1.09115
 C356 C 0.76965 0.07352 1.11711
 H357 H 0.75790 0.07797 1.14246
 N358 N 0.77101 0.08713 1.05575
 C359 C 0.71762 0.10251 0.95821
 H360 H 0.71426 0.13006 0.95907
 C361 C 0.70212 0.08494 0.93218
 H362 H 0.68710 0.09921 0.91283
 C363 C 0.74171 0.05065 0.98234
 H364 H 0.75686 0.03744 1.00221
 C365 C 0.72709 0.03202 0.95619
 H366 H 0.73112 0.00446 0.95594
 Zn367 Zn 0.75401 0.11333 1.01701
 N368 N 0.73674 0.08529 0.98274
 C369 C 0.80048 0.13468 0.96341
 N370 N 0.79077 0.13937 0.99722
 C371 C 0.80817 0.16083 1.01725
 C372 C 0.83593 0.17943 1.00295
 C373 C 0.82792 0.15269 0.94812
 C374 C 0.68672 0.12558 1.04094
 C375 C 0.65691 0.14441 1.04962
 C376 C 0.68838 0.19650 1.03801
 C377 C 0.71759 0.17663 1.02930
 N378 N 0.71627 0.14181 1.03109
 H379 H 0.78721 0.11666 0.94820
 H380 H 0.80046 0.16348 1.04433
 H381 H 0.84934 0.19672 1.01902
 H382 H 0.83538 0.14801 0.92133
 H383 H 0.68633 0.09784 1.04187
 H384 H 0.63408 0.13073 1.05813
 H385 H 0.68984 0.22421 1.03664
 H386 H 0.74111 0.18907 1.02083
 C387 C 0.70649 0.04920 0.93120
 C388 C 0.79870 0.05164 1.11327
 C389 C 0.65742 0.18045 1.04791
 C390 C 0.84567 0.17593 0.96777
 C391 C 0.27693 0.57891 0.54773
 H392 H 0.28795 0.57504 0.52195
 C393 C 0.29015 0.56049 0.57659
 H394 H 0.31070 0.54183 0.57229
 C395 C 0.23648 0.60798 0.58393
 H396 H 0.21614 0.62712 0.58679
 C397 C 0.24903 0.59024 0.61354
 H398 H 0.23788 0.59565 0.63897
 N399 N 0.25071 0.60223 0.55186
 C400 C 0.21517 0.61898 0.44558
 H401 H 0.21780 0.64653 0.44331
 C402 C 0.20395 0.60132 0.41730
 H403 H 0.19789 0.61540 0.39321
 C404 C 0.21963 0.56724 0.47999
 H405 H 0.22556 0.55419 0.50459
 C406 C 0.20781 0.54857 0.45246
 H407 H 0.20529 0.52106 0.45594
 Zn408 Zn 0.23764 0.62927 0.51208
 N409 N 0.22317 0.60180 0.47597
 C410 C 0.29407 0.64453 0.46673
 N411 N 0.27725 0.65385 0.49656
 C412 C 0.28995 0.67840 0.51659
 C413 C 0.32003 0.69550 0.50610
 C414 C 0.32434 0.66062 0.45553
 C415 C 0.16999 0.64233 0.53329
 C416 C 0.14009 0.66118 0.54147
 C417 C 0.17086 0.71326 0.52757
 C418 C 0.20024 0.69327 0.51953
 N419 N 0.19943 0.65848 0.52309
 H420 H 0.28440 0.62417 0.45174
 H421 H 0.27672 0.68467 0.54075
 H422 H 0.32958 0.71536 0.52200
 H423 H 0.33666 0.65323 0.43126
 H424 H 0.16985 0.61459 0.53521
 H425 H 0.11717 0.64750 0.54996
 H426 H 0.17281 0.74074 0.52430
 H427 H 0.22352 0.70564 0.51021
 C428 C 0.19976 0.56579 0.42066
 C429 C 0.27672 0.56670 0.61025
 C430 C 0.14011 0.69723 0.53919
 C431 C 0.33779 0.68640 0.47540
 C432 C 0.77843 0.88893 0.48945
 H433 H 0.79204 0.88338 0.51333
 C434 C 0.79510 0.90655 0.46169
 H435 H 0.82122 0.91496 0.46476
 C436 C 0.72905 0.88264 0.45546
 H437 H 0.70363 0.87281 0.45254
 C438 C 0.74461 0.90038 0.42719
 H439 H 0.73012 0.90466 0.40363
 N440 N 0.74601 0.87715 0.48590
 C441 C 0.68183 0.87414 0.57686
 H442 H 0.66433 0.85533 0.56818
 C443 C 0.67190 0.89422 0.60481
 H444 H 0.64672 0.89066 0.61706
 C445 C 0.73665 0.89967 0.57338
 H446 H 0.76204 0.90140 0.56145
 C447 C 0.72790 0.91999 0.60160
 H448 H 0.74656 0.93747 0.61092
 Zn449 Zn 0.72636 0.84968 0.52315
 N450 N 0.71349 0.87763 0.56120
 C451 C 0.76520 0.81369 0.57328
 N452 N 0.76086 0.81789 0.53834
 C453 C 0.78488 0.80588 0.51514
 C454 C 0.81635 0.79208 0.52691
 C455 C 0.79615 0.80022 0.58614
 C456 C 0.65969 0.84933 0.49894
 C457 C 0.63109 0.83705 0.48274
 C458 C 0.65755 0.78035 0.48488
 C459 C 0.68600 0.79386 0.50108
 N460 N 0.68685 0.82802 0.50688
 H461 H 0.74550 0.82287 0.59125
 H462 H 0.78083 0.80964 0.48742
 H463 H 0.83608 0.78486 0.50792
 H464 H 0.79868 0.79786 0.61414
 H465 H 0.66094 0.87636 0.50392
 H466 H 0.61016 0.85472 0.47587
 H467 H 0.65758 0.75342 0.47906
 H468 H 0.70788 0.77739 0.50774
 C469 C 0.69496 0.91787 0.61718
 C470 C 0.77848 0.91186 0.42981
 C471 C 0.63033 0.80242 0.47438
 C472 C 0.82333 0.79150 0.56274
 C473 C -0.01693 0.27392 0.40511
 H474 H 0.00780 0.28622 0.40366
 C475 C -0.04503 0.28994 0.42166
 H476 H -0.04124 0.31404 0.43383
 C477 C -0.05166 0.22776 0.39034
 H478 H -0.05441 0.20404 0.37723
 C479 C -0.08044 0.24285 0.40673
 H480 H -0.10507 0.23035 0.40642
 N481 N -0.02082 0.24372 0.38935
 C482 C 0.08332 0.20152 0.37294
 H483 H 0.08270 0.19622 0.34551
 C484 C 0.11280 0.19300 0.39182
 H485 H 0.13489 0.18141 0.37865
 C486 C 0.05447 0.22098 0.42386
 H487 H 0.03155 0.23143 0.43639
 C488 C 0.08317 0.21207 0.44392
 H489 H 0.08225 0.21602 0.47173
 Zn490 Zn 0.01646 0.22759 0.36112
 N491 N 0.05527 0.21618 0.38888
 C492 C 0.05997 0.27051 0.31792
 N493 N 0.02685 0.26388 0.32814
 C494 C 0.00075 0.28670 0.32049
 C495 C 0.00789 0.31884 0.30495
 C496 C 0.06814 0.30202 0.30159
 C497 C 0.00108 0.15922 0.36141
 C498 C -0.00994 0.12837 0.34911
 C499 C -0.01533 0.15583 0.29178
 C500 C -0.00395 0.18633 0.30525
 N501 N 0.00356 0.18743 0.33963
 H502 H 0.08050 0.25243 0.32418
 H503 H -0.02544 0.28092 0.32863
 H504 H -0.01292 0.33745 0.30091
 H505 H 0.09486 0.30763 0.29537
 H506 H 0.00686 0.16103 0.38872
 H507 H -0.01317 0.10696 0.36761
 H508 H -0.02213 0.15538 0.26458
 H509 H -0.00192 0.20925 0.28854
 C510 C 0.11299 0.19863 0.42772
 C511 C -0.07759 0.27485 0.42161
 C512 C -0.01836 0.12632 0.31380
 C513 C 0.04220 0.32720 0.29672
 C514 C 1.05621 0.79524 0.06924
 H515 H 1.03177 0.80876 0.06593
 C516 C 1.08588 0.80771 0.05203
 H517 H 1.08377 0.83056 0.03510
 C518 C 1.08883 0.75025 0.09665
 H519 H 1.09038 0.72858 0.11497
 C520 C 1.11892 0.76147 0.07973
 H521 H 1.14265 0.74787 0.08611
 N522 N 1.05822 0.76708 0.09130
 C523 C 0.96051 0.71640 0.10720
 H524 H 0.96461 0.70812 0.13403
 C525 C 0.93271 0.70390 0.08992
 H526 H 0.91546 0.68639 0.10388
 C527 C 0.97865 0.74822 0.05635
 H528 H 0.99691 0.76513 0.04327
 C529 C 0.95074 0.73644 0.03796
 H530 H 0.94812 0.74436 0.01079
 Zn531 Zn 1.01936 0.75181 0.11842
 N532 N 0.98280 0.73823 0.09048
 C533 C 0.97456 0.78009 0.16848
 N534 N 1.00255 0.78704 0.14762
 C535 C 1.01699 0.81852 0.14681
 C536 C 1.00264 0.84468 0.16680
 C537 C 0.95961 0.80525 0.18914
 C538 C 1.03921 0.68309 0.12858
 C539 C 1.04912 0.65294 0.14679
 C540 C 1.04529 0.68349 0.20035
 C541 C 1.03554 0.71317 0.18104
 N542 N 1.03275 0.71242 0.14581
 H543 H 0.96347 0.75497 0.16891
 H544 H 1.03951 0.82361 0.13049
 H545 H 1.01437 0.86965 0.16537
 H546 H 0.93668 0.79854 0.20418
 H547 H 1.03681 0.68326 0.10052
 H548 H 1.05443 0.62990 0.13258
 H549 H 1.04829 0.68509 0.22818
 H550 H 1.03065 0.73687 0.19413
 C551 C 0.92732 0.71395 0.05499
 C552 C 1.11791 0.79077 0.05701
 C553 C 1.05206 0.65275 0.18314
 C554 C 0.97357 0.83834 0.18855
 C555 C 0.54612 0.29652 0.57175
 H556 H 0.52090 0.30893 0.57100
 C557 C 0.57361 0.31042 0.55202
 H558 H 0.56935 0.33345 0.53579
 C559 C 0.58273 0.25229 0.59504
 H560 H 0.58654 0.23038 0.61277
 C561 C 0.61082 0.26521 0.57570
 H562 H 0.63585 0.25289 0.57906
 N563 N 0.55113 0.26794 0.59270
 C564 C 0.45099 0.22478 0.61810
 H565 H 0.45367 0.22373 0.64614
 C566 C 0.42248 0.21049 0.60357
 H567 H 0.40315 0.19854 0.62063
 C568 C 0.47387 0.24050 0.56194
 H569 H 0.49452 0.25141 0.54595
 C570 C 0.44537 0.22666 0.54617
 H571 H 0.44450 0.22695 0.51798
 Zn572 Zn 0.51443 0.25254 0.62233
 N573 N 0.47608 0.23911 0.59733
 C574 C 0.46945 0.30445 0.64679
 N575 N 0.50092 0.28898 0.65125
 C576 C 0.52298 0.29990 0.67527
 C577 C 0.51283 0.32613 0.69737
 C578 C 0.45862 0.33123 0.66772
 C579 C 0.53594 0.18427 0.63063
 C580 C 0.54403 0.15300 0.64789
 C581 C 0.53562 0.18060 0.70279
 C582 C 0.52752 0.21127 0.68442
 N583 N 0.52813 0.21265 0.64894
 H584 H 0.45261 0.29603 0.62700
 H585 H 0.54820 0.28774 0.67773
 H586 H 0.53016 0.33389 0.71715
 H587 H 0.43309 0.34252 0.66437
 H588 H 0.53566 0.18594 0.60240
 H589 H 0.55071 0.13143 0.63212
 H590 H 0.53501 0.18022 0.73108
 H591 H 0.52014 0.23369 0.69865
 C592 C 0.41943 0.21108 0.56726
 C593 C 0.60645 0.29468 0.55373
 C594 C 0.54378 0.15070 0.68468
 C595 C 0.48036 0.34216 0.69359
 C596 C 0.48249 0.78030 0.89643
 H597 H 0.50659 0.79363 0.89338
 C598 C 0.45547 0.79422 0.91638
 H599 H 0.45929 0.81820 0.92890
 C600 C 0.44810 0.73370 0.88238
 H601 H 0.44514 0.71035 0.86869
 C602 C 0.42025 0.74687 0.90172
 H603 H 0.39688 0.73234 0.90318
 N604 N 0.47828 0.75071 0.87972
 C605 C 0.58066 0.70872 0.85504
 H606 H 0.57813 0.70453 0.82752
 C607 C 0.61091 0.69842 0.87184
 H608 H 0.63176 0.68710 0.85664
 C609 C 0.55641 0.72908 0.90781
 H610 H 0.53496 0.74051 0.92194
 C611 C 0.58622 0.71923 0.92564
 H612 H 0.58750 0.72344 0.95332
 Zn613 Zn 0.51361 0.73606 0.84855
 N614 N 0.55426 0.72396 0.87305
 C615 C 0.55415 0.78360 0.80829
 N616 N 0.52152 0.77350 0.81648
 C617 C 0.49366 0.79349 0.80746
 C618 C 0.49814 0.82602 0.79159
 C619 C 0.55976 0.81557 0.79170
 C620 C 0.49966 0.66719 0.84646
 C621 C 0.48672 0.63721 0.83394
 C622 C 0.47300 0.66831 0.78006
 C623 C 0.48651 0.69783 0.79363
 N624 N 0.49893 0.69677 0.82652
 H625 H 0.57600 0.76789 0.81635
 H626 H 0.46799 0.78517 0.81482
 H627 H 0.47583 0.84253 0.78655
 H628 H 0.58601 0.82386 0.78734
 H629 H 0.50956 0.66717 0.87259
 H630 H 0.48691 0.61411 0.85061
 H631 H 0.46303 0.66989 0.75397
 H632 H 0.48628 0.72172 0.77829
 C633 C 0.61379 0.70333 0.90778
 C634 C 0.42337 0.77816 0.91840
 C635 C 0.47245 0.63756 0.80069
 C636 C 0.53152 0.83764 0.78417
 C637 C 0.45155 -0.16799 0.32574
 C638 C 0.44369 -0.13810 0.34051
 C639 C 0.43204 -0.10616 0.32187
 C640 C 0.43130 -0.10119 0.28706
 H641 H 0.44533 -0.13688 0.36860
 H642 H 0.42310 -0.08584 0.33845
 H643 H 0.44945 -0.17070 0.29796
 H644 H 0.43896 -0.12164 0.27014
 C645 C 0.97171 0.31720 0.81869
 C646 C 0.95979 0.34744 0.82957
 C647 C 0.94702 0.37429 0.80484
 C648 C 0.93456 0.40410 0.81642
 H649 H 0.95848 0.35193 0.85731
 H650 H 0.94758 0.36930 0.77729
 H651 H 0.97244 0.31235 0.79104
 H652 H 0.93582 0.40870 0.84406
 C653 C 0.02042 1.19786 0.83850
 C654 C 0.03784 1.17554 0.85927
 C655 C 0.05477 1.14410 0.84641
 C656 C 0.04292 1.12649 0.82007
 H657 H 0.04291 1.18165 0.88584
 H658 H 0.07740 1.13474 0.86011
 H659 H 0.01832 1.19289 0.81106
 H660 H 0.01832 1.13367 0.80882
 C661 C 0.49512 0.70930 0.33148
 C662 C 0.50369 0.68053 0.34996
 C663 C 0.51789 0.64881 0.33450
 C664 C 0.53242 0.64770 0.30237
 H665 H 0.50003 0.67930 0.37797
 H666 H 0.51857 0.62625 0.35180
 H667 H 0.49663 0.70964 0.30328
 H668 H 0.53403 0.67105 0.28628
 C669 C 0.52207 0.33722 0.15258
 C670 C 0.53150 0.36587 0.13471
 C671 C 0.54551 0.39604 0.15078
 C672 C 0.53851 0.40502 0.18361
 H673 H 0.53213 0.36611 0.10643
 H674 H 0.56203 0.41196 0.13405
 H675 H 0.52336 0.33552 0.18077
 H676 H 0.51930 0.39147 0.19945
 C677 C 0.01723 0.82289 0.67622
 C678 C 0.04732 0.82044 0.69571
 C679 C 0.06116 0.84767 0.71307
 C680 C 0.05085 0.88227 0.70770
 H681 H 0.06122 0.79603 0.69736
 H682 H 0.08309 0.84107 0.72898
 H683 H 0.00135 0.84601 0.67709
 H684 H 0.03183 0.88870 0.68825
 C685 C 0.98617 0.70378 0.65815
 C686 C 0.97637 0.67787 0.63635
 C687 C 0.96090 0.64716 0.64750
 C688 C 0.95397 0.63665 0.68236
 H689 H 0.97932 0.68146 0.60842
 H690 H 0.95356 0.63105 0.62680
 H691 H 0.98639 0.69885 0.68607
 H692 H 0.96573 0.65004 0.70295
 C693 C 0.48052 0.21559 0.15745
 C694 C 0.48450 0.18451 0.14415
 C695 C 0.46868 0.15342 0.16011
 C696 C 0.43765 0.15412 0.17625
 H697 H 0.50073 0.18114 0.12118
 H698 H 0.48137 0.12906 0.15506
 H699 H 0.46719 0.21835 0.18238
 H700 H 0.42347 0.17831 0.17774
 C701 C 0.32917 0.45521 -0.17444
 C702 C 0.30144 0.46921 -0.15851
 C703 C 0.28373 0.45224 -0.12817
 C704 C 0.30065 0.43360 -0.10361
 H705 H 0.29013 0.49290 -0.16915
 H706 H 0.25618 0.45673 -0.12533
 H707 H 0.33970 0.43087 -0.16449
 H708 H 0.32859 0.43236 -0.10469
 C709 C 0.83584 0.95960 0.33723
 C710 C 0.81038 0.93705 0.33605
 C711 C 0.78959 0.92436 0.36650
 C712 C 0.79762 0.92839 0.39993
 H713 H 0.80465 0.92654 0.31118
 H714 H 0.76819 0.90862 0.36039
 H715 H 0.84173 0.97132 0.36136
 H716 H 0.82059 0.94191 0.40596
 C717 C 0.84460 0.00654 1.21216
 C718 C 0.81105 0.00719 1.20428
 C719 C 0.79647 0.02446 1.17278
 C720 C 0.81461 0.03322 1.14365
 H721 H 0.79238 -0.00426 1.22232
 H722 H 0.76885 0.02904 1.17370
 H723 H 0.86340 0.01790 1.19419
 H724 H 0.84159 0.02580 1.14123
 C725 C 0.32334 0.51509 0.70636
 C726 C 0.33970 0.52192 0.67570
 C727 C 0.32327 0.53651 0.64379
 C728 C 0.29106 0.54984 0.64237
 H729 H 0.36691 0.51591 0.67282
 H730 H 0.33995 0.53784 0.62080
 H731 H 0.29569 0.51871 0.70886
 H732 H 0.27516 0.55070 0.66588
 C733 C 0.16208 0.50606 0.33235
 C734 C 0.14780 0.50768 0.36449
 C735 C 0.16573 0.52114 0.39432
 C736 C 0.18670 0.54789 0.39063
 H737 H 0.12154 0.49964 0.36930
 H738 H 0.15774 0.51181 0.42017
 H739 H 0.18848 0.51385 0.32774
 H740 H 0.19133 0.55960 0.36486
 C741 C 0.65702 0.01295 0.83599
 C742 C 0.64042 0.02333 0.86493
 C743 C 0.65771 0.03822 0.89429
 C744 C 0.68993 0.03012 0.90391
 H745 H 0.61250 0.02524 0.86524
 H746 H 0.64273 0.05691 0.90874
 H747 H 0.68492 0.01334 0.83411
 H748 H 0.70410 0.00911 0.89219
 C749 C 0.65734 0.97178 0.71266
 C750 C 0.64136 0.97151 0.68206
 C751 C 0.65318 0.95128 0.65219
 C752 C 0.68554 0.93952 0.64690
 H753 H 0.61689 0.98485 0.67880
 H754 H 0.63384 0.94649 0.63322
 H755 H 0.68200 0.95866 0.71589
 H756 H 0.70592 0.94689 0.66364
 C757 C 0.15882 0.46623 0.20931
 C758 C 0.14013 0.44713 0.18886
 C759 C 0.15424 0.42779 0.15924
 C760 C 0.18402 0.43449 0.14206
 H761 H 0.11329 0.44278 0.19545
 H762 H 0.13807 0.40778 0.15050
 H763 H 0.18638 0.46809 0.20485
 H764 H 0.19871 0.45653 0.14845
 C765 C -0.17387 0.33124 0.45841
 C766 C -0.14416 0.34541 0.44734
 C767 C -0.11276 0.32641 0.43579
 C768 C -0.10906 0.29211 0.43578
 H769 H -0.14265 0.37314 0.44617
 H770 H -0.09193 0.34225 0.42578
 H771 H -0.17674 0.30375 0.45952
 H772 H -0.13017 0.27591 0.44413
 C773 C 0.33576 0.82896 0.97328
 C774 C 0.33322 0.80289 0.94940
 C775 C 0.36110 0.78524 0.93405
 C776 C 0.39574 0.79447 0.93611
 H777 H 0.30773 0.79572 0.94179
 H778 H 0.35418 0.76489 0.91752
 H779 H 0.36071 0.83553 0.98264
 H780 H 0.40173 0.81718 0.94976
 C781 C 1.21615 0.83605 0.02030
 C782 C 1.21088 0.80102 0.02744
 C783 C 1.17981 0.78689 0.03952
 C784 C 1.14779 0.80439 0.04061
 H785 H 1.23232 0.78300 0.02552
 H786 H 1.18130 0.75993 0.04707
 H787 H 1.19544 0.85433 0.02536
 H788 H 1.14536 0.82930 0.02730
 C789 C 0.70376 0.34012 0.50754
 C790 C 0.69488 0.30711 0.50656
 C791 C 0.66400 0.29240 0.52427
 C792 C 0.63590 0.31056 0.53421
 H793 H 0.71175 0.28888 0.49374
 H794 H 0.66453 0.26478 0.52830
 H795 H 0.68696 0.35836 0.52048
 H796 H 0.63378 0.33767 0.52723
 C797 C 0.32533 0.16294 0.52963
 C798 C 0.34748 0.18040 0.50854
 C799 C 0.37672 0.19966 0.52160
 C800 C 0.39021 0.19286 0.55308
 H801 H 0.34424 0.18069 0.48057
 H802 H 0.38787 0.21910 0.50413
 H803 H 0.32630 0.16525 0.55759
 H804 H 0.37942 0.17285 0.57007
 C805 C 0.82888 0.68014 0.01523
 C806 C 0.85284 0.69493 -0.00585
 C807 C 0.88336 0.71126 0.00822
 C808 C 0.89764 0.69913 0.03791
 H809 H 0.85051 0.69458 -0.03391
 H810 H 0.89458 0.73241 -0.00683
 H811 H 0.82972 0.68371 0.04307
 H812 H 0.88651 0.67689 0.05133
 C813 C 0.71284 0.67203 0.96013
 C814 C 0.69614 0.65385 0.93719
 C815 C 0.66596 0.66663 0.91745
 C816 C 0.64493 0.69242 0.92732
 H817 H 0.70596 0.62870 0.93064
 H818 H 0.65987 0.65230 0.89494
 H819 H 0.70536 0.69846 0.96433
 H820 H 0.64920 0.70458 0.95165
 C821 C 0.20786 0.15466 0.47643
 C822 C 0.20648 0.18350 0.45630
 C823 C 0.17562 0.19412 0.43657
 C824 C 0.14338 0.18916 0.44877
 H825 H 0.22969 0.19788 0.45095
 H826 H 0.17979 0.20750 0.41156
 H827 H 0.18572 0.13825 0.47857
 H828 H 0.13906 0.17911 0.47525
 C829 C 0.58451 0.05927 0.74171
 C830 C 0.57046 0.05869 0.70841
 C831 C 0.55765 0.08786 0.68988
 C832 C 0.55205 0.12027 0.70407
 H833 H 0.57144 0.03520 0.69445
 H834 H 0.55140 0.08411 0.66305
 H835 H 0.58588 0.08346 0.75423
 H836 H 0.55327 0.12234 0.73202
 C837 C 1.08343 0.55427 0.24003
 C838 C 1.07358 0.58361 0.25489
 C839 C 1.05865 0.61390 0.23584
 C840 C 1.06406 0.62067 0.20159
 H841 H 1.07618 0.58595 0.28271
 H842 H 1.04454 0.63214 0.25153
 H843 H 1.07791 0.55038 0.21299
 H844 H 1.07832 0.60231 0.18612
 C845 C 0.91752 0.92175 0.24356
 C846 C 0.91629 0.88644 0.25209
 C847 C 0.93387 0.86044 0.23445
 C848 C 0.95909 0.86526 0.20798
 H849 H 0.89920 0.87726 0.27285
 H850 H 0.92752 0.83473 0.24350
 H851 H 0.93290 0.93074 0.22128
 H852 H 0.96895 0.89072 0.20278
 C853 C 0.41400 0.44547 0.72518
 C854 C 0.43178 0.41704 0.73489
 C855 C 0.44813 0.39496 0.70873
 C856 C 0.46849 0.36827 0.71831
 H857 H 0.43272 0.40890 0.76222
 H858 H 0.44202 0.39958 0.68148
 H859 H 0.41474 0.45448 0.69806
 H860 H 0.47621 0.36501 0.74525
 C861 C 0.40578 0.55011 0.78282
 C862 C 0.41540 0.57241 0.75703
 C863 C 0.43434 0.60392 0.76362
 C864 C 0.45649 0.60562 0.78980
 H865 H 0.40670 0.56943 0.73078
 H866 H 0.42921 0.62601 0.74648
 H867 H 0.41157 0.55534 0.80954
 H868 H 0.46195 0.58258 0.80562
 C869 C -0.06816 0.02922 0.28231
 C870 C -0.04957 0.03395 0.31061
 C871 C -0.02781 0.06372 0.31565
 C872 C -0.03356 0.09494 0.30060
 H873 H -0.05109 0.01540 0.33239
 H874 H -0.00923 0.06045 0.33614
 H875 H -0.06480 0.04537 0.25891
 H876 H -0.05183 0.09824 0.27978
 C877 C 0.07252 0.43634 0.27542
 C878 C 0.05493 0.42312 0.30305
 C879 C 0.03837 0.38949 0.30355
 C880 C 0.05221 0.36267 0.28695
 H881 H 0.05338 0.43691 0.32701
 H882 H 0.01789 0.38531 0.32288
 H883 H 0.07167 0.42441 0.25046
 H884 H 0.07530 0.36607 0.27080
 C885 C 0.57126 0.94161 0.77904
 C886 C 0.57442 0.92098 0.75198
 C887 C 0.56396 0.88483 0.75477
 C888 C 0.53661 0.87416 0.77388
 H889 H 0.59055 0.92847 0.72963
 H890 H 0.58052 0.86629 0.74186
 H891 H 0.55856 0.93245 0.80302
 H892 H 0.51831 0.89287 0.78407
 C893 C 0.73970 0.59390 0.04871
 C894 C 0.75313 0.58167 0.07881
 C895 C 0.73301 0.56578 0.10817
 C896 C 0.69965 0.57339 0.11478
 H897 H 0.78056 0.58347 0.08270
 H898 H 0.74739 0.54955 0.12642
 H899 H 0.71309 0.58929 0.04291
 H900 H 0.68555 0.58978 0.09637
 C901 C 0.23730 1.07402 0.55914
 C902 C 0.25175 1.05869 0.58731
 C903 C 0.23200 1.04132 0.61601
 C904 C 0.20059 1.05244 0.62639
 H905 H 0.27944 1.05925 0.59007
 H906 H 0.24585 1.02225 0.63183
 H907 H 0.21021 1.07083 0.55433
 H908 H 0.18861 1.07405 0.61232
 C909 C 0.24601 0.91165 0.93984
 C910 C 0.21526 0.93037 0.94550
 C911 C 0.19750 0.94884 0.91918
 C912 C 0.21061 0.95575 0.88515
 H913 H 0.20247 0.92916 0.97082
 H914 H 0.17214 0.95843 0.92660
 H915 H 0.25725 0.91136 0.91379
 H916 H 0.23787 0.95164 0.87988
 C917 C 0.73799 0.42039 0.42197
 C918 C 0.70672 0.43526 0.42605
 C919 C 0.68967 0.45654 0.39822
 C920 C 0.69720 0.45387 0.36400
 H921 H 0.69254 0.43198 0.45052
 H922 H 0.66846 0.47298 0.40652
 H923 H 0.75242 0.42465 0.39774
 H924 H 0.71623 0.43496 0.35580
 C925 C 0.77781 0.42270 0.53558
 C926 C 0.80703 0.43945 0.54020
 C927 C 0.81430 0.46063 0.57001
 C928 C 0.79768 0.45880 0.60114
 H929 H 0.82797 0.43700 0.52117
 H930 H 0.83714 0.47598 0.56687
 H931 H 0.75527 0.42692 0.55216
 H932 H 0.77428 0.44438 0.60463
 C933 C 0.28712 -0.08360 0.04808
 C934 C 0.25959 -0.06654 0.06498
 C935 C 0.26453 -0.04350 0.09150
 C936 C 0.29610 -0.02768 0.09609
 H937 H 0.23336 -0.07354 0.06035
 H938 H 0.24252 -0.03747 0.10816
 H939 H 0.31290 -0.08067 0.05751
 H940 H 0.31505 -0.02863 0.07489
 C941 C 0.28465 0.07971 0.44248
 C942 C 0.31500 0.07065 0.42768
 C943 C 0.31995 0.06159 0.39090
 C944 C 0.29526 0.05202 0.36969
 H945 H 0.33849 0.07359 0.44175
 H946 H 0.34603 0.06406 0.38041
 H947 H 0.26088 0.07635 0.42900
 H948 H 0.26960 0.04628 0.37960
 C949 C 0.79012 0.59398 0.93169
 C950 C 0.76576 0.57486 0.91840
 C951 C 0.77076 0.55948 0.88397
 C952 C 0.78607 0.57674 0.85704
 H953 H 0.74229 0.56921 0.93303
 H954 H 0.76063 0.53426 0.88090
 H955 H 0.81445 0.59672 0.91742
 H956 H 0.79286 0.60317 0.86047
 C957 C 0.04655 0.75325 0.57609
 C958 C 0.07821 0.76820 0.56678
 C959 C 0.10669 0.75105 0.55175
 C960 C 0.10973 0.71529 0.54929
 H961 H 0.08178 0.79490 0.57200
 H962 H 0.12842 0.76695 0.54494
 H963 H 0.03982 0.72938 0.56491
 H964 H 0.08797 0.69997 0.55781
 C965 C 0.56395 0.24519 1.07486
 C966 C 0.56379 0.21152 1.06938
 C967 C 0.59421 0.19157 1.05648
 C968 C 0.62697 0.20194 1.05790
 H969 H 0.54087 0.19711 1.07561
 H970 H 0.58904 0.16644 1.04723
 H971 H 0.58662 0.25980 1.06792
 H972 H 0.63233 0.22704 1.06708
 C973 C 0.93409 0.23004 0.91126
 C974 C 0.90155 0.22755 0.90065
 C975 C 0.87476 0.20645 0.91824
 C976 C 0.87430 0.19640 0.95209
 H977 H 0.89419 0.23953 0.87592
 H978 H 0.85317 0.20072 0.90229
 H979 H 0.94271 0.21541 0.93412
 H980 H 0.89399 0.20490 0.96907
 C981 C 0.42098 0.74395 0.41895
 C982 C 0.42309 0.71030 0.42729
 C983 C 0.39425 0.69108 0.44403
 C984 C 0.36893 0.70531 0.46355
 H985 H 0.44467 0.69514 0.41753
 H986 H 0.39391 0.66392 0.43939
 H987 H 0.39793 0.75849 0.42601
 H988 H 0.37086 0.73156 0.47126
 C989 C 0.53674 0.78099 0.41117
 C990 C 0.56276 0.80209 0.40279
 C991 C 0.59152 0.80950 0.42543
 C992 C 0.60223 0.79018 0.45296
 H993 H 0.56208 0.81738 0.37862
 H994 H 0.60500 0.83288 0.41832
 H995 H 0.53734 0.76472 0.43468
 H996 H 0.59169 0.76512 0.45889
 C997 C 0.04601 0.27817 -0.08209
 C998 C 0.06621 0.25276 -0.06881
 C999 C 0.09798 0.25963 -0.04973
 C1000 C 0.10137 0.28784 -0.03131
 H1001 H 0.06205 0.22658 -0.07557
 H1002 H 0.11927 0.24154 -0.05262
 H1003 H 0.05249 0.30455 -0.07816
 H1004 H 0.07910 0.30472 -0.02781
 C1005 C 0.44270 0.28420 0.07157
 C1006 C 0.42787 0.25692 0.05864
 C1007 C 0.39212 0.25998 0.04598
 C1008 C 0.36760 0.27605 0.06497
 H1009 H 0.44137 0.23245 0.05734
 H1010 H 0.38627 0.24869 0.02161
 H1011 H 0.42862 0.30857 0.07019
 H1012 H 0.37432 0.28411 0.09064
 C1013 C 0.93102 0.77730 0.60078
 C1014 C 0.90316 0.79497 0.61639
 C1015 C 0.86903 0.79584 0.60570
 C1016 C 0.85741 0.78499 0.57370
 H1017 H 0.90722 0.80808 0.64019
 H1018 H 0.85138 0.80925 0.62291
 H1019 H 0.92627 0.75922 0.58090
 H1020 H 0.87619 0.77551 0.55486
   
