data_POSCAR
  _audit_creation_date              2014-09-24
  _audit_creation_method            'ToBaCCo'
  _symmetry_space_group_name_H-M    'P1'
  _symmetry_Int_Tables_number       1
  _symmetry_cell_setting            triclinic
  loop_
  _symmetry_equiv_pos_as_xyz
 x,y,z
_cell_length_a 32.5464
_cell_length_b 33.4146
_cell_length_c 64.2876
_cell_angle_alpha 91.795800
_cell_angle_beta 84.992500
_cell_angle_gamma 122.898500
loop_
  _atom_site_label
  _atom_site_type_symbol
  _atom_site_fract_x
  _atom_site_fract_y
  _atom_site_fract_z
C1 C -0.01912 0.01137 0.54719
 H2 H -0.01645 -0.01335 0.55650
 C3 C -0.02378 0.04681 0.55702
 H4 H -0.02608 0.04793 0.57389
 C5 C -0.01854 0.04035 0.51392
 H6 H -0.01542 0.03812 0.49708
 C7 C -0.02368 0.07595 0.52308
 H8 H -0.02497 0.10087 0.51321
 N9 N -0.01657 0.00885 0.52600
 C10 C 0.03666 -0.07926 0.53134
 H11 H 0.06941 -0.05652 0.52121
 C12 C 0.03479 -0.11319 0.54426
 H13 H 0.06690 -0.11511 0.54431
 C14 C -0.04503 -0.10460 0.54332
 H15 H -0.07629 -0.10154 0.54253
 C16 C -0.04836 -0.13872 0.55657
 H17 H -0.08228 -0.16171 0.56609
 Zn18 Zn -0.00428 -0.03468 0.51193
 N19 N -0.00303 -0.07577 0.53105
 C20 C 0.09589 0.03418 0.50698
 N21 N 0.05698 0.00277 0.49625
 C22 C 0.06095 0.00213 0.47503
 C23 C 0.10528 0.03468 0.46373
 C24 C 0.14083 0.06732 0.49635
 C25 C -0.09424 -0.07145 0.49317
 C26 C -0.13161 -0.10295 0.48074
 C27 C -0.08641 -0.13982 0.47098
 C28 C -0.05000 -0.10763 0.48360
 N29 N -0.05429 -0.07416 0.49426
 H30 H 0.09146 0.03442 0.52385
 H31 H 0.02929 -0.02238 0.46677
 H32 H 0.10627 0.03346 0.44691
 H33 H 0.17091 0.09266 0.50531
 H34 H -0.09767 -0.04545 0.50219
 H35 H -0.16318 -0.10018 0.48020
 H36 H -0.08110 -0.16567 0.46292
 H37 H -0.01820 -0.10948 0.48506
 C38 C -0.00853 -0.14398 0.55686
 C39 C -0.02551 0.08003 0.54485
 C40 C -0.12834 -0.13799 0.46942
 C41 C 0.14598 0.06875 0.47440
 C42 C 1.06418 0.06196 0.13083
 H43 H 1.06465 0.09452 0.13018
 C44 C 1.09925 0.05777 0.11857
 H45 H 1.12567 0.08703 0.10819
 C46 C 1.02861 -0.01555 0.14522
 H47 H 1.00204 -0.04354 0.15606
 C48 C 1.06288 -0.02130 0.13321
 H49 H 1.06173 -0.05411 0.13468
 N50 N 1.02969 0.02555 0.14377
 C51 C 0.91867 0.06004 0.15702
 H52 H 0.91762 0.06016 0.17389
 C53 C 0.88673 0.06727 0.14711
 H54 H 0.86129 0.07323 0.15650
 C55 C 0.95191 0.05016 0.12445
 H56 H 0.97639 0.04207 0.11575
 C57 C 0.92049 0.05724 0.11385
 H58 H 0.92157 0.05448 0.09705
 Zn59 Zn 0.98679 0.03634 0.16128
 N60 N 0.95029 0.05155 0.14566
 C61 C 1.03421 0.13109 0.17611
 N62 N 1.02668 0.08731 0.17871
 C63 C 1.05062 0.07959 0.19276
 C64 C 1.08253 0.11632 0.20541
 C65 C 1.06672 0.16922 0.18810
 C66 C 0.91192 -0.05985 0.16696
 C67 C 0.87580 -0.10153 0.17779
 C68 C 0.89612 -0.05777 0.20991
 C69 C 0.93253 -0.01711 0.19845
 N70 N 0.94005 -0.01896 0.17739
 H71 H 1.01600 0.13683 0.16437
 H72 H 1.04512 0.04475 0.19401
 H73 H 1.10139 0.10867 0.21607
 H74 H 1.07264 0.20396 0.18558
 H75 H 0.91773 -0.06006 0.15014
 H76 H 0.85427 -0.13377 0.16910
 H77 H 0.89198 -0.05483 0.22663
 H78 H 0.95414 0.01608 0.20640
 C79 C 0.88702 0.06561 0.12528
 C80 C 1.09920 0.01582 0.11989
 C81 C 0.86698 -0.10100 0.19956
 C82 C 1.09113 0.16219 0.20318
 C83 C 0.06510 0.98255 0.85463
 H84 H 0.03277 0.94685 0.85416
 C85 C 0.10298 0.99144 0.86645
 H86 H 0.09851 0.96231 0.87542
 C87 C 0.10854 1.06365 0.84374
 H88 H 0.11071 1.09147 0.83463
 C89 C 0.14758 1.07415 0.85535
 H90 H 0.17957 1.11023 0.85521
 N91 N 0.06835 1.01839 0.84365
 C92 C -0.08376 0.96760 0.83571
 H93 H -0.08290 0.96805 0.81885
 C94 C -0.12612 0.95764 0.84787
 H95 H -0.15726 0.94972 0.83972
 C96 C -0.04247 0.97887 0.86600
 H97 H -0.00941 0.98863 0.87305
 C98 C -0.08405 0.96867 0.87878
 H99 H -0.08214 0.97020 0.89556
 Zn100 Zn 0.01538 0.99995 0.82741
 N101 N -0.04289 0.97859 0.84488
 C102 C -0.03139 0.90679 0.81002
 N103 N 0.01013 0.95115 0.80998
 C104 C 0.05166 0.96211 0.79811
 C105 C 0.05258 0.92792 0.78550
 C106 C -0.03216 0.87126 0.79761
 C107 C 0.02887 1.08908 0.82101
 C108 C 0.03037 1.12499 0.80972
 C109 C 0.02630 1.08249 0.77807
 C110 C 0.02494 1.04754 0.78996
 N111 N 0.02589 1.05123 0.81105
 H112 H -0.06373 0.89867 0.81988
 H113 H 0.08434 0.99756 0.79863
 H114 H 0.08635 0.93767 0.77627
 H115 H -0.06580 0.83646 0.79820
 H116 H 0.02856 1.09060 0.83786
 H117 H 0.03169 1.15379 0.81839
 H118 H 0.02447 1.07814 0.76133
 H119 H 0.02131 1.01664 0.78235
 C120 C -0.12645 0.95919 0.86989
 C121 C 0.14539 1.03765 0.86663
 C122 C 0.02824 1.12162 0.78786
 C123 C 0.01052 0.88156 0.78513
 C124 C 0.51907 0.04147 0.00080
 C125 C 0.51334 0.03011 -0.01976
 C126 C 0.47244 0.02611 -0.03032
 C127 C 0.54659 0.01991 -0.03278
 C128 C 0.56295 0.05105 0.01090
 C129 C 0.48096 0.04401 0.01421
 C130 C 0.44077 -0.01585 -0.04069
 C131 C 0.40281 -0.01988 -0.05104
 C132 C 0.39601 0.01813 -0.05148
 C133 C 0.42773 0.06025 -0.04099
 C134 C 0.46579 0.06423 -0.03062
 C135 C 0.55614 -0.01381 -0.02626
 C136 C 0.58549 -0.02473 -0.03916
 C137 C 0.60526 -0.00252 -0.05895
 C138 C 0.59496 0.03052 -0.06554
 C139 C 0.56611 0.04178 -0.05257
 C140 C 0.61072 0.08337 0.00192
 C141 C 0.65149 0.09068 0.01123
 C142 C 0.64541 0.06676 0.02994
 C143 C 0.59756 0.03500 0.03909
 C144 C 0.55683 0.02746 0.02970
 C145 C 0.49367 0.08558 0.02520
 C146 C 0.45761 0.08900 0.03704
 C147 C 0.40825 0.05074 0.03835
 C148 C 0.39576 0.00870 0.02761
 C149 C 0.43186 0.00529 0.01583
 H150 H 0.44533 -0.04564 -0.04065
 H151 H 0.37884 -0.05277 -0.05889
 H152 H 0.42330 0.09005 -0.04055
 H153 H 0.49020 0.09712 -0.02287
 H154 H 0.54016 -0.03228 -0.01134
 H155 H 0.59141 -0.05148 -0.03385
 H156 H 0.55879 0.06750 -0.05801
 H157 H 0.61642 0.10266 -0.01238
 H158 H 0.68792 0.11521 0.00384
 H159 H 0.59121 0.01487 0.05317
 H160 H 0.52036 0.00230 0.03687
 H161 H 0.53138 0.11577 0.02423
 H162 H 0.46826 0.12181 0.04511
 H163 H 0.35819 -0.02129 0.02775
 H164 H 0.42139 -0.02736 0.00767
 H165 H 0.60943 0.04780 -0.08077
 C166 C -0.00751 0.47811 0.68175
 C167 C -0.00390 0.47492 0.66054
 C168 C 0.00091 0.43720 0.65012
 C169 C -0.00414 0.50940 0.64659
 C170 C -0.01211 0.51605 0.69206
 C171 C -0.00630 0.44451 0.69593
 C172 C 0.03930 0.43141 0.65380
 C173 C 0.04164 0.39418 0.64453
 C174 C 0.00628 0.36268 0.63114
 C175 C -0.03163 0.36919 0.62722
 C176 C -0.03400 0.40629 0.63652
 C177 C 0.03569 0.53604 0.63176
 C178 C 0.03772 0.57072 0.61935
 C179 C 0.00006 0.57957 0.62155
 C180 C -0.04093 0.55142 0.63582
 C181 C -0.04305 0.51650 0.64817
 C182 C -0.05278 0.50325 0.70623
 C183 C -0.05805 0.53827 0.71602
 C184 C -0.02249 0.58681 0.71205
 C185 C 0.01850 0.59962 0.69785
 C186 C 0.02379 0.56449 0.68811
 C187 C -0.03878 0.39491 0.69468
 C188 C -0.03575 0.36417 0.70781
 C189 C -0.00072 0.38264 0.72266
 C190 C 0.03015 0.43217 0.72447
 C191 C 0.02758 0.46281 0.71118
 H192 H 0.06702 0.45532 0.66403
 H193 H 0.07113 0.38990 0.64786
 H194 H -0.06039 0.34507 0.61749
 H195 H -0.06394 0.41015 0.63354
 H196 H 0.06585 0.53079 0.63017
 H197 H 0.06938 0.59145 0.60831
 H198 H -0.07474 0.49538 0.65914
 H199 H -0.08076 0.46603 0.70953
 H200 H -0.08999 0.52735 0.72682
 H201 H 0.04630 0.63645 0.69396
 H202 H 0.05575 0.57504 0.67738
 H203 H -0.06631 0.38004 0.68350
 H204 H -0.06125 0.32614 0.70650
 H205 H 0.05702 0.44722 0.73595
 H206 H 0.05258 0.50095 0.71259
 H207 H -0.07154 0.55589 0.63744
 C208 C 0.49781 0.48358 0.34686
 C209 C 0.48800 0.49403 0.32829
 C210 C 0.52454 0.53902 0.31672
 C211 C 0.44157 0.46088 0.31841
 C212 C 0.46647 0.43558 0.35704
 C213 C 0.54033 0.52032 0.35805
 C214 C 0.51275 0.57239 0.31252
 C215 C 0.54776 0.61545 0.30220
 C216 C 0.59451 0.62510 0.29539
 C217 C 0.60600 0.59127 0.29938
 C218 C 0.57129 0.54862 0.30999
 C219 C 0.39571 0.43944 0.33003
 C220 C 0.35275 0.40617 0.32086
 C221 C 0.35456 0.39512 0.29971
 C222 C 0.40016 0.41798 0.28784
 C223 C 0.44323 0.45052 0.29712
 C224 C 0.45416 0.39413 0.34593
 C225 C 0.42290 0.34919 0.35546
 C226 C 0.40438 0.34484 0.37638
 C227 C 0.41774 0.38646 0.38763
 C228 C 0.44867 0.43134 0.37806
 C229 C 0.57465 0.51100 0.36423
 C230 C 0.61448 0.54533 0.37486
 C231 C 0.62039 0.58933 0.37979
 C232 C 0.58585 0.59857 0.37357
 C233 C 0.54602 0.56421 0.36297
 H234 H 0.47681 0.56546 0.31762
 H235 H 0.53825 0.64113 0.29940
 H236 H 0.64209 0.59814 0.29474
 H237 H 0.58087 0.52310 0.31306
 H238 H 0.39323 0.44784 0.34631
 H239 H 0.31799 0.38901 0.33029
 H240 H 0.47806 0.46667 0.28779
 H241 H 0.46824 0.39658 0.32980
 H242 H 0.41306 0.31770 0.34644
 H243 H 0.40323 0.38467 0.40360
 H244 H 0.45770 0.46283 0.38691
 H245 H 0.57080 0.47728 0.36065
 H246 H 0.64063 0.53736 0.37938
 H247 H 0.58955 0.63234 0.37656
 H248 H 0.51954 0.57184 0.35859
 H249 H 0.40289 0.40952 0.27160
 C250 C -0.02914 0.11917 0.55417
 C251 C -0.01194 0.13891 0.57343
 C252 C -0.01287 0.18014 0.58155
 N253 N 0.00813 0.20085 0.59944
 N254 N 0.00798 0.23848 0.60684
 C255 C -0.01321 0.25679 0.59660
 N256 N -0.03435 0.23599 0.57876
 N257 N -0.03412 0.19843 0.57135
 C258 C -0.01431 0.29799 0.60459
 C259 C 0.00887 0.32254 0.62226
 H260 H 0.00473 0.12542 0.58245
 H261 H -0.03339 0.30943 0.59599
 H262 H -0.04266 0.13533 0.54479
 H263 H 0.03074 0.31258 0.62971
 C264 C 0.82986 0.85645 0.20996
 C265 C 0.81175 0.85298 0.23083
 C266 C 0.77357 0.80682 0.24068
 N267 N 0.74784 0.80543 0.25873
 N268 N 0.71335 0.76386 0.26786
 C269 C 0.70362 0.72215 0.25933
 N270 N 0.72967 0.72356 0.24140
 N271 N 0.76386 0.76511 0.23219
 C272 C 0.66650 0.67599 0.26942
 C273 C 0.63112 0.67120 0.28484
 H274 H 0.82340 0.88441 0.24006
 H275 H 0.66605 0.64474 0.26402
 H276 H 0.81275 0.82410 0.20096
 H277 H 0.62855 0.70166 0.28857
 C278 C 0.18728 0.04865 -0.12150
 C279 C 0.19596 0.01386 -0.11611
 C280 C 0.23641 0.02382 -0.10383
 N281 N 0.24123 -0.01245 -0.09879
 N282 N 0.27729 -0.00462 -0.08756
 C283 C 0.30999 0.03983 -0.08092
 N284 N 0.30525 0.07620 -0.08597
 N285 N 0.26905 0.06835 -0.09720
 C286 C 0.35024 0.04880 -0.06865
 C287 C 0.35528 0.01179 -0.06289
 H288 H 0.17270 -0.02235 -0.12122
 H289 H 0.37660 0.08522 -0.06467
 H290 H 0.21291 0.08539 -0.11752
 H291 H 0.32877 -0.02399 -0.06774
 C292 C -0.01373 0.81804 0.57027
 C293 C 0.01303 0.79687 0.56607
 C294 C 0.00446 0.75656 0.57866
 N295 N 0.02912 0.73520 0.57302
 N296 N 0.02147 0.69836 0.58409
 C297 C -0.01117 0.68147 0.60123
 N298 N -0.03579 0.70287 0.60690
 N299 N -0.02817 0.73970 0.59581
 C300 C -0.01974 0.64104 0.61375
 C301 C 0.00502 0.61814 0.60863
 H302 H 0.03958 0.80848 0.55263
 H303 H -0.04485 0.63049 0.62764
 H304 H -0.04232 0.80381 0.58302
 H305 H 0.03171 0.63107 0.59517
 C306 C 0.12449 0.20138 0.21475
 C307 C 0.14517 0.19793 0.23225
 C308 C 0.18400 0.24023 0.24236
 N309 N 0.19537 0.23594 0.26162
 N310 N 0.23198 0.27338 0.27061
 C311 C 0.25886 0.31645 0.26057
 N312 N 0.24761 0.32073 0.24127
 N313 N 0.21072 0.28335 0.23235
 C314 C 0.30130 0.35724 0.26977
 C315 C 0.30908 0.35751 0.29078
 H316 H 0.13221 0.16368 0.23930
 H317 H 0.32707 0.38761 0.25973
 H318 H 0.13416 0.23658 0.21007
 H319 H 0.28056 0.32938 0.30116
 C320 C 0.83569 -0.04601 -0.11722
 C321 C 0.79316 -0.05074 -0.12358
 C322 C 0.75777 -0.04824 -0.10859
 N323 N 0.72303 -0.04281 -0.11572
 N324 N 0.69255 -0.03763 -0.10243
 C325 C 0.69556 -0.03783 -0.08150
 N326 N 0.72979 -0.04400 -0.07434
 N327 N 0.76045 -0.04895 -0.08764
 C328 C 0.66347 -0.03018 -0.06669
 C329 C 0.63528 -0.01393 -0.07337
 H330 H 0.78667 -0.05238 -0.13985
 H331 H 0.66470 -0.03444 -0.05019
 H332 H 0.83941 -0.04387 -0.10054
 H333 H 0.63783 -0.00615 -0.08985
 C334 C 0.13598 0.00934 0.10774
 C335 C 0.18189 0.04714 0.09970
 C336 C 0.21851 0.03953 0.08852
 N337 N 0.26342 0.07756 0.08187
 N338 N 0.29709 0.07132 0.07185
 C339 C 0.28709 0.02676 0.06812
 N340 N 0.24214 -0.01127 0.07472
 N341 N 0.20848 -0.00503 0.08476
 C342 C 0.32365 0.01910 0.05693
 C343 C 0.37099 0.05684 0.05034
 H344 H 0.19242 0.08357 0.10220
 H345 H 0.31274 -0.01734 0.05419
 H346 H 0.12754 -0.02668 0.10606
 H347 H 0.38169 0.09276 0.05445
 C348 C 0.83274 0.83014 0.45742
 C349 C 0.83059 0.79323 0.44557
 C350 C 0.78787 0.75993 0.43404
 N351 N 0.78756 0.72441 0.42308
 N352 N 0.74902 0.69351 0.41277
 C353 C 0.70928 0.69696 0.41304
 N354 N 0.70961 0.73255 0.42396
 N355 N 0.74817 0.76345 0.43428
 C356 C 0.66623 0.66292 0.40186
 C357 C 0.66332 0.62470 0.39100
 H358 H 0.86018 0.78737 0.44460
 H359 H 0.63583 0.66770 0.40282
 H360 H 0.80184 0.83416 0.45751
 H361 H 0.69320 0.61929 0.39136
 C362 C 0.02587 0.15420 0.77546
 C363 C 0.02679 0.19454 0.78280
 C364 C 0.01879 0.22384 0.76914
 N365 N 0.02366 0.26467 0.77636
 N366 N 0.01569 0.29110 0.76430
 C367 C 0.00228 0.27753 0.74460
 N368 N -0.00281 0.23660 0.73741
 N369 N 0.00531 0.21026 0.74944
 C370 C -0.00644 0.30639 0.73104
 C371 C 0.00427 0.35154 0.73666
 H372 H 0.03299 0.20539 0.79881
 H373 H -0.01927 0.29260 0.71587
 H374 H 0.02198 0.14695 0.75894
 H375 H 0.02063 0.36625 0.75121
 C376 C 0.84987 0.06976 0.11546
 C377 C 0.84968 0.07542 0.09403
 C378 C 0.80891 0.07476 0.08529
 N379 N 0.81017 0.08128 0.06445
 N380 N 0.77275 0.07923 0.05633
 C381 C 0.73266 0.07054 0.06877
 N382 N 0.73149 0.06415 0.08960
 N383 N 0.76887 0.06624 0.09770
 C384 C 0.69009 0.06635 0.06013
 C385 C 0.68932 0.07414 0.03900
 H386 H 0.87946 0.08004 0.08329
 H387 H 0.65857 0.05698 0.07090
 H388 H 0.82062 0.06777 0.12578
 H389 H 0.72251 0.08715 0.02874
 C390 C 0.19045 0.10558 0.46425
 C391 C 0.20052 0.11314 0.44259
 C392 C 0.24411 0.15721 0.43337
 N393 N 0.25148 0.16400 0.41233
 N394 N 0.28900 0.20491 0.40381
 C395 C 0.32056 0.24058 0.41604
 N396 N 0.31342 0.23364 0.43706
 N397 N 0.27592 0.19276 0.44557
 C398 C 0.36030 0.28711 0.40706
 C399 C 0.36911 0.29665 0.38560
 H400 H 0.17543 0.08794 0.43189
 H401 H 0.38235 0.31472 0.41780
 H402 H 0.21837 0.13135 0.47400
 H403 H 0.34931 0.26763 0.37502
 C404 C 0.01366 0.84780 0.77265
 C405 C -0.02423 0.80005 0.77074
 C406 C -0.01636 0.76671 0.75824
 N407 N -0.05371 0.72049 0.75688
 N408 N -0.04674 0.68977 0.74599
 C409 C -0.00213 0.70414 0.73606
 N410 N 0.03515 0.75036 0.73736
 N411 N 0.02817 0.78106 0.74824
 C412 C 0.00664 0.67059 0.72430
 C413 C -0.03008 0.62242 0.72286
 H414 H -0.06027 0.78582 0.77864
 H415 H 0.04341 0.68436 0.71732
 H416 H 0.04863 0.85961 0.76399
 H417 H -0.06596 0.60960 0.73081
   
