data_POSCAR
  _audit_creation_date              2014-09-24
  _audit_creation_method            'ToBaCCo'
  _symmetry_space_group_name_H-M    'P1'
  _symmetry_Int_Tables_number       1
  _symmetry_cell_setting            triclinic
  loop_
  _symmetry_equiv_pos_as_xyz
 x,y,z
_cell_length_a 34.3131
_cell_length_b 33.8144
_cell_length_c 34.3023
_cell_angle_alpha 89.907200
_cell_angle_beta 89.987900
_cell_angle_gamma 90.052300
loop_
  _atom_site_label
  _atom_site_type_symbol
  _atom_site_fract_x
  _atom_site_fract_y
  _atom_site_fract_z
N1 N 0.57978 0.68732 0.60787
 N2 N 0.56453 0.67116 0.63930
 C3 C 0.53287 0.69206 0.65000
 C4 C 0.52831 0.72270 0.62386
 C5 C 0.55839 0.71900 0.59751
 H6 H 0.51451 0.68561 0.67484
 H7 H 0.56424 0.73792 0.57273
 Cu8 Cu 0.58765 0.62445 0.66302
 Cu9 Cu 0.62618 0.66613 0.58276
 Cu10 Cu 0.66784 0.58283 0.62464
 N11 N 0.61124 0.57773 0.68626
 N12 N 0.64265 0.56160 0.67107
 C13 C 0.65295 0.52990 0.69254
 C14 C 0.62654 0.52622 0.72258
 C15 C 0.60045 0.55682 0.71798
 H16 H 0.67770 0.51101 0.68673
 H17 H 0.57560 0.56328 0.73629
 N18 N 0.68903 0.60864 0.57763
 N19 N 0.67316 0.64037 0.56168
 C20 C 0.69420 0.65090 0.53014
 C21 C 0.72451 0.62455 0.52629
 C22 C 0.72057 0.59816 0.55665
 H23 H 0.68804 0.67582 0.51134
 H24 H 0.73933 0.57326 0.56290
 H25 H 0.61849 0.60836 0.60099
 H26 H 0.64972 0.64059 0.63220
 N27 N 0.92121 0.31198 0.10741
 N28 N 0.93649 0.32807 0.13881
 C29 C 0.96809 0.30707 0.14960
 C30 C 0.97253 0.27646 0.12351
 C31 C 0.94251 0.28022 0.09711
 H32 H 0.98644 0.31347 0.17443
 H33 H 0.93661 0.26136 0.07236
 Cu34 Cu 0.91350 0.37485 0.16239
 Cu35 Cu 0.87491 0.33335 0.08222
 Cu36 Cu 0.83350 0.41677 0.12385
 N37 N 0.89003 0.42163 0.18549
 N38 N 0.85871 0.43788 0.17024
 C39 C 0.84850 0.46958 0.19163
 C40 C 0.87485 0.47319 0.22171
 C41 C 0.90082 0.44248 0.21716
 H42 H 0.82382 0.48856 0.18578
 H43 H 0.92560 0.43594 0.23554
 N44 N 0.81228 0.39107 0.07688
 N45 N 0.82805 0.35929 0.06103
 C46 C 0.80700 0.34886 0.02951
 C47 C 0.77679 0.37532 0.02557
 C48 C 0.78079 0.40167 0.05586
 H49 H 0.81309 0.32392 0.01078
 H50 H 0.76212 0.42663 0.06203
 H51 H 0.88279 0.39108 0.10030
 H52 H 0.85141 0.35895 0.13157
 N53 N 0.42043 0.18795 -0.10775
 N54 N 0.43612 0.17135 -0.13866
 C55 C 0.46781 0.19227 -0.14941
 C56 C 0.47194 0.22336 -0.12382
 C57 C 0.44158 0.21993 -0.09776
 H58 H 0.48648 0.18550 -0.17390
 H59 H 0.43538 0.23921 -0.07341
 Cu60 Cu 0.41358 0.12407 -0.16179
 Cu61 Cu 0.37385 0.16690 -0.08278
 Cu62 Cu 0.33220 0.08353 -0.12430
 N63 N 0.38940 0.07780 -0.18524
 N64 N 0.35757 0.06209 -0.17042
 C65 C 0.34704 0.03061 -0.19202
 C66 C 0.37371 0.02661 -0.22177
 C67 C 0.40019 0.05683 -0.21682
 H68 H 0.32195 0.01205 -0.18651
 H69 H 0.42533 0.06298 -0.23487
 N70 N 0.31084 0.10950 -0.07758
 N71 N 0.32671 0.14127 -0.06176
 C72 C 0.30558 0.15187 -0.03035
 C73 C 0.27521 0.12553 -0.02645
 C74 C 0.27921 0.09907 -0.05664
 H75 H 0.31177 0.17681 -0.01164
 H76 H 0.26047 0.07411 -0.06278
 H77 H 0.38138 0.10889 -0.10012
 H78 H 0.35110 0.14104 -0.13241
 N79 N 0.07857 0.81170 0.39254
 N80 N 0.06285 0.82832 0.36160
 C81 C 0.03123 0.80733 0.35084
 C82 C 0.02723 0.77617 0.37647
 C83 C 0.05754 0.77961 0.40257
 H84 H 0.01255 0.81411 0.32632
 H85 H 0.06381 0.76030 0.42695
 Cu86 Cu 0.08524 0.87575 0.33845
 Cu87 Cu 0.12506 0.83286 0.41750
 Cu88 Cu 0.16643 0.91650 0.37595
 N89 N 0.10927 0.92217 0.31498
 N90 N 0.14103 0.93796 0.32981
 C91 C 0.15148 0.96952 0.30818
 C92 C 0.12484 0.97350 0.27840
 C93 C 0.09845 0.94317 0.28336
 H94 H 0.17651 0.98814 0.31368
 H95 H 0.07336 0.93697 0.26529
 N96 N 0.18786 0.89048 0.42269
 N97 N 0.17210 0.85861 0.43852
 C98 C 0.19324 0.84800 0.46995
 C99 C 0.22351 0.87445 0.47383
 C100 C 0.21944 0.90098 0.44362
 H101 H 0.18714 0.82299 0.48867
 H102 H 0.23809 0.92601 0.43747
 H103 H 0.11733 0.89088 0.40013
 H104 H 0.14775 0.85893 0.36786
 C105 C 0.10667 0.15900 0.10819
 C106 C 0.14016 0.14220 0.09167
 C107 C 0.15690 0.10903 0.10853
 C108 C 0.14034 0.09228 0.14209
 C109 C 0.10725 0.10889 0.15841
 C110 C 0.09031 0.14244 0.14136
 C111 C 0.08422 0.19116 0.09808
 N112 N 0.05490 0.19426 0.12432
 C113 C 0.05817 0.16480 0.15090
 C114 C 0.09766 0.08659 0.19065
 N115 N 0.12414 0.05711 0.19403
 C116 C 0.15036 0.06015 0.16466
 C117 C 0.18895 0.09919 0.08641
 N118 N 0.19181 0.12558 0.05681
 C119 C 0.16230 0.15199 0.05958
 H120 H 0.08880 0.21082 0.07356
 H121 H 0.03864 0.16006 0.17527
 H122 H 0.07333 0.09137 0.21019
 H123 H 0.17482 0.04046 0.16015
 H124 H 0.20871 0.07475 0.09141
 H125 H 0.15739 0.17643 0.03974
 C126 C 0.39222 0.84135 0.60840
 C127 C 0.35865 0.85805 0.59189
 C128 C 0.34181 0.89112 0.60870
 C129 C 0.35833 0.90790 0.64221
 C130 C 0.39150 0.89139 0.65852
 C131 C 0.40854 0.85792 0.64152
 C132 C 0.41477 0.80928 0.59833
 N133 N 0.44412 0.80625 0.62454
 C134 C 0.44076 0.83567 0.65106
 C135 C 0.40104 0.91369 0.69070
 N136 N 0.37446 0.94307 0.69405
 C137 C 0.34822 0.93997 0.66473
 C138 C 0.30971 0.90088 0.58660
 N139 N 0.30692 0.87452 0.55705
 C140 C 0.33653 0.84821 0.55984
 H141 H 0.41023 0.78962 0.57385
 H142 H 0.46029 0.84044 0.67540
 H143 H 0.42541 0.90897 0.71021
 H144 H 0.32370 0.95958 0.66020
 H145 H 0.28987 0.92524 0.59157
 H146 H 0.34151 0.82382 0.54004
 C147 C 0.89317 0.65834 0.39173
 C148 C 0.85965 0.64147 0.40824
 C149 C 0.84290 0.60833 0.39141
 C150 C 0.85947 0.59167 0.35787
 C151 C 0.89259 0.60834 0.34156
 C152 C 0.90954 0.64188 0.35859
 C153 C 0.91562 0.69051 0.40182
 N154 N 0.94497 0.69371 0.37560
 C155 C 0.94170 0.66430 0.34905
 C156 C 0.90218 0.58612 0.30935
 N157 N 0.87567 0.55663 0.30598
 C158 C 0.84943 0.55958 0.33532
 C159 C 0.81081 0.59842 0.41350
 N160 N 0.80795 0.62475 0.44306
 C161 C 0.83749 0.65119 0.44029
 H162 H 0.91102 0.71013 0.42631
 H163 H 0.96124 0.65965 0.32469
 H164 H 0.92652 0.59098 0.28981
 H165 H 0.82495 0.53987 0.33984
 H166 H 0.79103 0.57398 0.40850
 H167 H 0.84240 0.67559 0.46010
 C168 C 0.60799 0.34230 -0.10882
 C169 C 0.64158 0.35902 -0.09238
 C170 C 0.65843 0.39214 -0.10927
 C171 C 0.64188 0.40894 -0.14280
 C172 C 0.60868 0.39241 -0.15905
 C173 C 0.59164 0.35890 -0.14196
 C174 C 0.58544 0.31018 -0.09867
 N175 N 0.55606 0.30715 -0.12485
 C176 C 0.55940 0.33661 -0.15143
 C177 C 0.59912 0.41474 -0.19126
 N178 N 0.62571 0.44415 -0.19469
 C179 C 0.65198 0.44105 -0.16539
 C180 C 0.69056 0.40190 -0.08723
 N181 N 0.69336 0.37550 -0.05763
 C182 C 0.66374 0.34916 -0.06034
 H183 H 0.59000 0.29049 -0.07417
 H184 H 0.53985 0.34138 -0.17576
 H185 H 0.57473 0.41001 -0.21074
 H186 H 0.67652 0.46069 -0.16093
 H187 H 0.71041 0.42629 -0.09226
 H188 H 0.65876 0.32474 -0.04050
 C189 C 0.00076 0.24829 0.12376
 C190 C 0.02580 0.22331 0.12401
 C191 C 0.49841 0.75238 0.62408
 C192 C 0.47330 0.77729 0.62428
 C193 C 0.99905 0.74789 0.37614
 C194 C 0.97405 0.72283 0.37588
 C195 C 0.50180 0.25315 -0.12420
 C196 C 0.52689 0.27813 -0.12451
 C197 C 0.12459 0.00318 0.24841
 C198 C 0.12438 0.02811 0.22325
 C199 C 0.62625 0.49811 -0.24905
 C200 C 0.62600 0.47317 -0.22391
 C201 C 0.37394 0.99695 0.74831
 C202 C 0.37417 0.97204 0.72321
 C203 C 0.87516 0.50282 0.25165
 C204 C 0.87541 0.52771 0.27678
 C205 C 0.24557 0.12555 0.00311
 C206 C 0.22070 0.12556 0.02794
 C207 C 0.75415 0.62459 0.49673
 C208 C 0.77903 0.62465 0.47191
 C209 C 0.74717 0.37539 -0.00401
 C210 C 0.72229 0.37544 -0.02881
 C211 C 0.25315 0.87445 0.50339
 C212 C 0.27802 0.87447 0.52820
   
