data_POSCAR
  _audit_creation_date              2014-09-24
  _audit_creation_method            'ToBaCCo'
  _symmetry_space_group_name_H-M    'P1'
  _symmetry_Int_Tables_number       1
  _symmetry_cell_setting            triclinic
  loop_
  _symmetry_equiv_pos_as_xyz
 x,y,z
_cell_length_a 60.5055
_cell_length_b 35.1410
_cell_length_c 20.9624
_cell_angle_alpha 90.000000
_cell_angle_beta 89.955200
_cell_angle_gamma 90.053600
loop_
  _atom_site_label
  _atom_site_type_symbol
  _atom_site_fract_x
  _atom_site_fract_y
  _atom_site_fract_z
C1 C 0.74980 0.25003 0.46814
 C2 C 0.74975 0.24999 0.53324
 C3 C 0.73177 0.26851 0.57026
 C4 C 0.76768 0.23142 0.57025
 C5 C 0.76921 0.23645 0.43112
 C6 C 0.73045 0.26361 0.43102
 C7 C 0.72603 0.30648 0.55911
 C8 C 0.70843 0.32322 0.59182
 C9 C 0.69595 0.30258 0.63768
 C10 C 0.70266 0.26452 0.64979
 C11 C 0.72025 0.24796 0.61670
 C12 C 0.77932 0.25215 0.61650
 C13 C 0.79695 0.23549 0.64922
 C14 C 0.80316 0.19768 0.63654
 C15 C 0.79102 0.17663 0.59155
 C16 C 0.77336 0.19327 0.55900
 C17 C 0.76653 0.20815 0.38459
 C18 C 0.78481 0.19407 0.35139
 C19 C 0.80612 0.20824 0.36387
 C20 C 0.80866 0.23735 0.40931
 C21 C 0.79036 0.25147 0.44233
 C22 C 0.70929 0.24850 0.44199
 C23 C 0.69104 0.26259 0.40882
 C24 C 0.69362 0.29176 0.36350
 C25 C 0.71494 0.30601 0.35127
 C26 C 0.73318 0.29197 0.38460
 H27 H 0.73524 0.32329 0.52485
 H28 H 0.70557 0.35299 0.58225
 H29 H 0.69374 0.24598 0.68181
 H30 H 0.72444 0.21851 0.62596
 H31 H 0.77512 0.28156 0.62602
 H32 H 0.80609 0.25252 0.68322
 H33 H 0.76426 0.17653 0.52449
 H34 H 0.75033 0.19630 0.37509
 H35 H 0.78234 0.17143 0.31709
 H36 H 0.82480 0.24934 0.41908
 H37 H 0.79271 0.27394 0.47704
 H38 H 0.70691 0.22599 0.47662
 H39 H 0.67490 0.25053 0.41840
 H40 H 0.71744 0.32870 0.31706
 H41 H 0.74938 0.30387 0.37529
 H42 H 0.79513 0.14723 0.58166
 C43 C 0.24997 0.74986 0.46803
 C44 C 0.25002 0.74984 0.53312
 C45 C 0.23066 0.76343 0.57032
 C46 C 0.26942 0.73622 0.57003
 C47 C 0.26788 0.73128 0.43087
 C48 C 0.23200 0.76844 0.43115
 C49 C 0.23339 0.79179 0.61673
 C50 C 0.21513 0.80593 0.64997
 C51 C 0.19381 0.79176 0.63765
 C52 C 0.19123 0.76256 0.59240
 C53 C 0.20950 0.74838 0.55933
 C54 C 0.29059 0.75121 0.55872
 C55 C 0.30888 0.73704 0.59160
 C56 C 0.30633 0.70790 0.63700
 C57 C 0.28502 0.69377 0.64960
 C58 C 0.26673 0.70790 0.61655
 C59 C 0.27355 0.69312 0.44205
 C60 C 0.29118 0.67646 0.40935
 C61 C 0.30332 0.69750 0.36429
 C62 C 0.29713 0.73532 0.35168
 C63 C 0.27952 0.75200 0.38455
 C64 C 0.22034 0.74774 0.38490
 C65 C 0.20271 0.76442 0.35223
 C66 C 0.19651 0.80223 0.36494
 C67 C 0.20866 0.82325 0.40997
 C68 C 0.22632 0.80658 0.44247
 H69 H 0.24960 0.80364 0.62606
 H70 H 0.21763 0.82863 0.68414
 H71 H 0.17508 0.75057 0.58277
 H72 H 0.20713 0.72587 0.52472
 H73 H 0.29294 0.77369 0.52403
 H74 H 0.32502 0.74900 0.58174
 H75 H 0.25053 0.69608 0.62613
 H76 H 0.26444 0.67638 0.47661
 H77 H 0.29528 0.64705 0.41918
 H78 H 0.30627 0.75235 0.31763
 H79 H 0.27534 0.78142 0.37509
 H80 H 0.22454 0.71833 0.37533
 H81 H 0.19356 0.74740 0.31821
 H82 H 0.20456 0.85264 0.41988
 H83 H 0.23544 0.82331 0.47697
 H84 H 0.28254 0.67112 0.68389
 C85 C 0.24992 0.25007 -0.53365
 C86 C 0.24988 0.25011 -0.46855
 C87 C 0.23189 0.23161 -0.43148
 C88 C 0.26784 0.26867 -0.43156
 C89 C 0.26932 0.26371 -0.57073
 C90 C 0.23055 0.23640 -0.57072
 C91 C 0.22037 0.25227 -0.38511
 C92 C 0.20278 0.23570 -0.35195
 C93 C 0.19622 0.19770 -0.36409
 C94 C 0.20852 0.17688 -0.40968
 C95 C 0.22614 0.19356 -0.44251
 C96 C 0.27355 0.30683 -0.44272
 C97 C 0.29120 0.32348 -0.41007
 C98 C 0.30332 0.30241 -0.36508
 C99 C 0.29709 0.26458 -0.35252
 C100 C 0.27946 0.24792 -0.38533
 C101 C 0.29044 0.24883 -0.55964
 C102 C 0.30873 0.26292 -0.59276
 C103 C 0.30643 0.29214 -0.63872
 C104 C 0.28486 0.30593 -0.65080
 C105 C 0.26663 0.29183 -0.61734
 C106 C 0.23326 0.20820 -0.61718
 C107 C 0.21505 0.19409 -0.65061
 C108 C 0.19348 0.20796 -0.63868
 C109 C 0.19116 0.23729 -0.59290
 C110 C 0.20944 0.25137 -0.55979
 H111 H 0.22458 0.28174 -0.37590
 H112 H 0.19377 0.25373 -0.31930
 H113 H 0.20520 0.14718 -0.41909
 H114 H 0.23528 0.17674 -0.47684
 H115 H 0.26446 0.32358 -0.47721
 H116 H 0.29533 0.35289 -0.41986
 H117 H 0.27525 0.21849 -0.37588
 H118 H 0.29277 0.22625 -0.52513
 H119 H 0.32451 0.24969 -0.58332
 H120 H 0.28188 0.32904 -0.68369
 H121 H 0.25042 0.30369 -0.62659
 H122 H 0.24946 0.19627 -0.62630
 H123 H 0.21803 0.17090 -0.68337
 H124 H 0.17538 0.25059 -0.58359
 H125 H 0.20710 0.27402 -0.52539
 H126 H 0.30621 0.24753 -0.31854
 C127 C -0.25001 0.74989 -0.46759
 C128 C -0.25008 0.74995 -0.53269
 C129 C -0.23215 0.76857 -0.56983
 C130 C -0.26808 0.73140 -0.56961
 C131 C -0.26936 0.73621 -0.43035
 C132 C -0.23061 0.76354 -0.43067
 C133 C -0.22644 0.80663 -0.55863
 C134 C -0.20883 0.82339 -0.59136
 C135 C -0.19650 0.80266 -0.63700
 C136 C -0.20304 0.76469 -0.64936
 C137 C -0.22062 0.74801 -0.61630
 C138 C -0.27964 0.75204 -0.61587
 C139 C -0.29724 0.73542 -0.64886
 C140 C -0.30376 0.69741 -0.63666
 C141 C -0.29141 0.67662 -0.59118
 C142 C -0.27380 0.69334 -0.55851
 C143 C -0.26662 0.70802 -0.38390
 C144 C -0.28481 0.69390 -0.35029
 C145 C -0.30639 0.70776 -0.36205
 C146 C -0.30874 0.73706 -0.40784
 C147 C -0.29048 0.75116 -0.44112
 C148 C -0.20945 0.74858 -0.44194
 C149 C -0.19116 0.76272 -0.40891
 C150 C -0.19371 0.79180 -0.36342
 C151 C -0.21502 0.80592 -0.35092
 C152 C -0.23330 0.79182 -0.38411
 H153 H -0.23559 0.82337 -0.52422
 H154 H -0.20553 0.85308 -0.58180
 H155 H -0.19401 0.74672 -0.68209
 H156 H -0.22480 0.71855 -0.62563
 H157 H -0.27546 0.78151 -0.62512
 H158 H -0.30628 0.75343 -0.68143
 H159 H -0.26462 0.67654 -0.52427
 H160 H -0.25041 0.69611 -0.37490
 H161 H -0.28181 0.67073 -0.31755
 H162 H -0.32452 0.75035 -0.41702
 H163 H -0.29284 0.77379 -0.47551
 H164 H -0.20710 0.72613 -0.47668
 H165 H -0.17503 0.75077 -0.41871
 H166 H -0.21750 0.82854 -0.31658
 H167 H -0.24950 0.80362 -0.37457
 H168 H -0.29471 0.64692 -0.58173
 N169 N 0.02320 1.04295 0.11155
 N170 N 0.03964 1.04888 0.15171
 N171 N -0.02329 1.06869 0.06622
 N172 N -0.03972 1.09292 0.07435
 N173 N -0.02329 1.04289 0.11157
 N174 N -0.03971 1.04883 0.15183
 N175 N 0.02322 1.06875 0.06619
 N176 N 0.03968 1.09297 0.07421
 C177 C 0.04972 1.08007 0.12759
 C178 C -0.04977 1.08001 0.12779
 N179 N -0.02324 1.03949 -0.11435
 N180 N -0.03997 1.04370 -0.15413
 N181 N 0.02327 1.06666 -0.07122
 N182 N 0.04003 1.09014 -0.08043
 N183 N 0.02327 1.03955 -0.11435
 N184 N 0.04002 1.04380 -0.15413
 N185 N -0.02326 1.06660 -0.07121
 N186 N -0.04001 1.09003 -0.08040
 Mn187 Mn -0.00002 1.06813 -0.00255
 C188 C -0.05020 1.07529 -0.13222
 C189 C 0.05024 1.07542 -0.13224
 N190 N -0.02332 0.96095 0.11495
 N191 N -0.04008 0.95673 0.15467
 N192 N 0.02321 0.93389 0.07182
 N193 N 0.03994 0.91041 0.08109
 N194 N 0.02320 0.96100 0.11495
 N195 N 0.03990 0.95675 0.15479
 N196 N -0.02332 0.93384 0.07181
 N197 N -0.04010 0.91040 0.08094
 Mn198 Mn -0.00005 1.00195 0.11399
 C199 C -0.05031 0.92513 0.13273
 C200 C 0.05012 0.92513 0.13294
 N201 N 0.02324 0.95760 -0.11095
 N202 N 0.03968 0.95168 -0.15117
 N203 N -0.02327 0.93175 -0.06562
 N204 N -0.03970 0.90747 -0.07376
 N205 N -0.02324 0.95755 -0.11097
 N206 N -0.03964 0.95157 -0.15124
 N207 N 0.02323 0.93181 -0.06561
 N208 N 0.03968 0.90759 -0.07368
 Mn209 Mn 0.00001 0.99855 -0.11339
 Mn210 Mn -0.00004 0.93237 0.00314
 Cl211 Cl -0.00002 1.00025 0.00030
 C212 C 0.04974 0.92051 -0.12708
 C213 C -0.04972 0.92035 -0.12720
 N214 N 0.52345 0.46057 -0.11489
 N215 N 0.54022 0.45635 -0.15460
 N216 N 0.47688 0.43341 -0.07196
 N217 N 0.46012 0.40997 -0.08121
 N218 N 0.47694 0.46053 -0.11508
 N219 N 0.46022 0.45632 -0.15490
 N220 N 0.52342 0.43345 -0.07177
 N221 N 0.54017 0.41000 -0.08092
 C222 C 0.55041 0.42474 -0.13269
 C223 C 0.44996 0.42471 -0.13304
 N224 N 0.47678 0.45708 0.11084
 N225 N 0.46032 0.45112 0.15100
 N226 N 0.52329 0.43133 0.06564
 N227 N 0.53973 0.40711 0.07377
 N228 N 0.52326 0.45712 0.11101
 N229 N 0.53966 0.45119 0.15128
 N230 N 0.47679 0.43129 0.06547
 N231 N 0.46033 0.40704 0.07348
 Mn232 Mn 0.50010 0.43192 -0.00320
 C233 C 0.45026 0.41992 0.12688
 C234 C 0.54974 0.42002 0.12722
 N235 N 0.47696 0.54247 -0.11164
 N236 N 0.46056 0.54839 -0.15192
 N237 N 0.52342 0.56831 -0.06608
 N238 N 0.53988 0.59256 -0.07407
 N239 N 0.52345 0.54252 -0.11144
 N240 N 0.53991 0.54848 -0.15158
 N241 N 0.47692 0.56826 -0.06627
 N242 N 0.46048 0.59246 -0.07439
 Mn243 Mn 0.50020 0.50152 -0.11400
 C244 C 0.45047 0.57956 -0.12786
 C245 C 0.54996 0.57968 -0.12744
 N246 N 0.52330 0.53907 0.11445
 N247 N 0.54002 0.54329 0.15426
 N248 N 0.47681 0.56614 0.07116
 N249 N 0.46007 0.58960 0.08035
 N250 N 0.47678 0.53902 0.11428
 N251 N 0.46004 0.54325 0.15405
 N252 N 0.52334 0.56619 0.07133
 N253 N 0.54010 0.58964 0.08058
 Mn254 Mn 0.50003 0.49807 0.11338
 Mn255 Mn 0.50012 0.56768 0.00258
 Cl256 Cl 0.50011 0.49980 -0.00031
 C257 C 0.55027 0.57491 0.13241
 C258 C 0.44984 0.57487 0.13215
 C259 C 0.34143 0.34087 0.23769
 C260 C 0.36228 0.33924 0.26602
 C261 C 0.36478 0.32163 0.32527
 C262 C 0.34651 0.30586 0.35640
 C263 C 0.32515 0.30743 0.32894
 C264 C 0.32307 0.32521 0.26861
 C265 C 0.38108 0.35613 0.23481
 C266 C 0.39687 0.37049 0.20921
 C267 C 0.41540 0.38751 0.17986
 C268 C 0.43128 0.40222 0.15536
 H269 H 0.33933 0.35420 0.19148
 H270 H 0.38086 0.32051 0.34795
 H271 H 0.34924 0.29408 0.40337
 H272 H 0.30747 0.32610 0.24355
 C273 C -0.14756 0.86521 0.32894
 C274 C -0.14065 0.85122 0.26988
 C275 C -0.15232 0.82158 0.24102
 C276 C -0.17076 0.80572 0.27123
 C277 C -0.17802 0.81924 0.33134
 C278 C -0.16600 0.84954 0.35935
 C279 C -0.12140 0.86703 0.23935
 C280 C -0.10519 0.88026 0.21426
 C281 C -0.08613 0.89579 0.18542
 C282 C -0.06980 0.90912 0.16118
 H283 H -0.13851 0.88799 0.35201
 H284 H -0.14720 0.81072 0.19494
 H285 H -0.17963 0.78375 0.24578
 H286 H -0.17002 0.86035 0.40622
 C287 C 0.65208 0.67865 0.24140
 C288 C 0.64044 0.64888 0.27009
 C289 C 0.64736 0.63478 0.32902
 C290 C 0.66578 0.65044 0.35949
 C291 C 0.67777 0.68085 0.33166
 C292 C 0.67050 0.69450 0.27166
 C293 C 0.62122 0.63306 0.23947
 C294 C 0.60504 0.61982 0.21430
 C295 C 0.58601 0.60428 0.18534
 C296 C 0.56971 0.59093 0.16099
 H297 H 0.64696 0.68959 0.19541
 H298 H 0.63834 0.61190 0.35196
 H299 H 0.66980 0.63953 0.40626
 H300 H 0.67934 0.71656 0.24633
 C301 C 0.15854 1.15904 0.23799
 C302 C 0.13767 1.16077 0.26629
 C303 C 0.13514 1.17853 0.32542
 C304 C 0.15340 1.19434 0.35647
 C305 C 0.17478 1.19266 0.32904
 C306 C 0.17689 1.17474 0.26882
 C307 C 0.11889 1.14385 0.23519
 C308 C 0.10311 1.12947 0.20968
 C309 C 0.08457 1.11243 0.18046
 C310 C 0.06869 1.09773 0.15603
 H311 H 0.16066 1.14560 0.19186
 H312 H 0.11905 1.17973 0.34807
 H313 H 0.15064 1.20622 0.40336
 H314 H 0.19250 1.17377 0.24379
 C315 C 0.65115 0.31902 -0.24379
 C316 C 0.64064 0.35068 -0.26988
 C317 C 0.64870 0.36669 -0.32614
 C318 C 0.66712 0.35104 -0.35663
 C319 C 0.67811 0.31854 -0.33167
 C320 C 0.66958 0.30313 -0.27397
 C321 C 0.62141 0.36654 -0.23937
 C322 C 0.60522 0.37980 -0.21430
 C323 C 0.58618 0.39537 -0.18543
 C324 C 0.56987 0.40872 -0.16117
 H325 H 0.64518 0.30662 -0.19968
 H326 H 0.64051 0.39106 -0.34718
 H327 H 0.67161 0.36371 -0.40173
 H328 H 0.67744 0.27979 -0.24941
 C329 C 0.13632 0.83070 -0.33167
 C330 C 0.13750 0.83984 -0.26680
 C331 C 0.15699 0.83291 -0.23286
 C332 C 0.17529 0.81705 -0.26375
 C333 C 0.17429 0.80789 -0.32904
 C334 C 0.15458 0.81481 -0.36263
 C335 C 0.11877 0.85676 -0.23539
 C336 C 0.10303 0.87113 -0.20966
 C337 C 0.08454 0.88815 -0.18022
 C338 C 0.06869 0.90284 -0.15564
 H339 H 0.12133 0.83609 -0.35845
 H340 H 0.15807 0.83983 -0.18260
 H341 H 0.19015 0.81166 -0.23648
 H342 H 0.15341 0.80860 -0.41311
 C343 C 0.36386 0.66906 -0.33257
 C344 C 0.36271 0.66000 -0.26765
 C345 C 0.34322 0.66696 -0.23362
 C346 C 0.32490 0.68276 -0.26444
 C347 C 0.32587 0.69183 -0.32977
 C348 C 0.34558 0.68488 -0.36347
 C349 C 0.38145 0.64315 -0.23629
 C350 C 0.39720 0.62884 -0.21056
 C351 C 0.41569 0.61186 -0.18108
 C352 C 0.43154 0.59720 -0.15647
 H353 H 0.37884 0.66365 -0.35943
 H354 H 0.34216 0.66011 -0.18331
 H355 H 0.31005 0.68817 -0.23707
 H356 H 0.34674 0.69103 -0.41398
 C357 C -0.14406 1.14202 -0.33487
 C358 C -0.14028 1.14904 -0.27009
 C359 C -0.15509 1.17164 -0.23554
 C360 C -0.17358 1.18731 -0.26571
 C361 C -0.17748 1.18052 -0.33089
 C362 C -0.16253 1.15763 -0.36512
 C363 C -0.12109 1.13330 -0.23936
 C364 C -0.10493 1.12010 -0.21412
 C365 C -0.08592 1.10461 -0.18512
 C366 C -0.06963 1.09129 -0.16077
 H367 H -0.13266 1.12468 -0.36213
 H368 H -0.15235 1.17719 -0.18532
 H369 H -0.18491 1.20447 -0.23795
 H370 H -0.16490 1.15235 -0.41555
 C371 C 0.65875 0.65884 -0.23839
 C372 C 0.63787 0.66054 -0.26653
 C373 C 0.63530 0.67827 -0.32565
 C374 C 0.65354 0.69409 -0.35685
 C375 C 0.67493 0.69244 -0.32960
 C376 C 0.67707 0.67455 -0.26939
 C377 C 0.61910 0.64359 -0.23527
 C378 C 0.60333 0.62919 -0.20967
 C379 C 0.58481 0.61212 -0.18035
 C380 C 0.56894 0.59739 -0.15589
 H381 H 0.66089 0.64541 -0.19228
 H382 H 0.61920 0.67945 -0.34816
 H383 H 0.65076 0.70596 -0.40373
 H384 H 0.69270 0.67359 -0.24449
 C385 C 0.15211 1.17905 -0.24174
 C386 C 0.14043 1.14932 -0.27032
 C387 C 0.14731 1.13519 -0.32931
 C388 C 0.16573 1.15081 -0.35995
 C389 C 0.17775 1.18119 -0.33223
 C390 C 0.17053 1.19485 -0.27217
 C391 C 0.12121 1.13355 -0.23954
 C392 C 0.10503 1.12033 -0.21426
 C393 C 0.08600 1.10481 -0.18520
 C394 C 0.06970 1.09147 -0.16081
 H395 H 0.14702 1.19001 -0.19570
 H396 H 0.13825 1.11234 -0.35217
 H397 H 0.16972 1.13988 -0.40676
 H398 H 0.17940 1.21690 -0.24692
 C399 C 0.34501 0.32837 -0.23690
 C400 C 0.35985 0.35104 -0.27131
 C401 C 0.35610 0.35816 -0.33607
 C402 C 0.33764 0.34256 -0.36644
 C403 C 0.32266 0.31958 -0.33237
 C404 C 0.32654 0.31270 -0.26719
 C405 C 0.37904 0.36676 -0.24046
 C406 C 0.39521 0.37993 -0.21514
 C407 C 0.41423 0.39540 -0.18605
 C408 C 0.43052 0.40871 -0.16164
 H409 H 0.34774 0.32274 -0.18670
 H410 H 0.36752 0.37556 -0.36322
 H411 H 0.33529 0.34791 -0.41686
 H412 H 0.31518 0.29549 -0.23955
 C413 C -0.13617 0.83060 -0.33242
 C414 C -0.13738 0.83962 -0.26750
 C415 C -0.15691 0.83263 -0.23364
 C416 C -0.17521 0.81684 -0.26464
 C417 C -0.17418 0.80782 -0.32999
 C418 C -0.15443 0.81479 -0.36350
 C419 C -0.11866 0.85650 -0.23597
 C420 C -0.10294 0.87086 -0.21012
 C421 C -0.08447 0.88789 -0.18053
 C422 C -0.06864 0.90262 -0.15585
 H423 H -0.12116 0.83603 -0.35915
 H424 H -0.15801 0.83946 -0.18334
 H425 H -0.19010 0.81141 -0.23741
 H426 H -0.15323 0.80867 -0.41401
 C427 C 0.34500 0.67142 0.23603
 C428 C 0.35981 0.64878 0.27046
 C429 C 0.35605 0.64176 0.33527
 C430 C 0.33761 0.65739 0.36566
 C431 C 0.32266 0.68032 0.33156
 C432 C 0.32654 0.68712 0.26635
 C433 C 0.37898 0.63302 0.23958
 C434 C 0.39513 0.61980 0.21424
 C435 C 0.41413 0.60426 0.18514
 C436 C 0.43041 0.59091 0.16073
 H437 H 0.34774 0.67698 0.18580
 H438 H 0.36746 0.62439 0.36243
 H439 H 0.33525 0.65210 0.41610
 H440 H 0.31521 0.70430 0.23870
 C441 C -0.15701 1.16744 0.23416
 C442 C -0.13751 1.16049 0.26805
 C443 C -0.13634 1.16952 0.33297
 C444 C -0.15461 1.18530 0.36402
 C445 C -0.17434 1.19223 0.33048
 C446 C -0.17532 1.18319 0.26514
 C447 C -0.11877 1.14366 0.23654
 C448 C -0.10303 1.12935 0.21070
 C449 C -0.08455 1.11237 0.18111
 C450 C -0.06870 1.09769 0.15643
 H451 H -0.15808 1.16061 0.18386
 H452 H -0.12135 1.16411 0.35972
 H453 H -0.15345 1.19142 0.41454
 H454 H -0.19019 1.18860 0.23789
 C455 C 0.65692 0.33265 0.23367
 C456 C 0.63736 0.33950 0.26744
 C457 C 0.63610 0.33036 0.33231
 C458 C 0.65434 0.31458 0.36343
 C459 C 0.67412 0.30775 0.33001
 C460 C 0.67520 0.31689 0.26472
 C461 C 0.61866 0.35635 0.23588
 C462 C 0.60295 0.37067 0.21005
 C463 C 0.58448 0.38767 0.18049
 C464 C 0.56866 0.40235 0.15585
 H465 H 0.65806 0.33957 0.18341
 H466 H 0.62107 0.33569 0.35896
 H467 H 0.65310 0.30838 0.41390
 H468 H 0.69011 0.31157 0.23757
 C469 C 0.15483 0.82838 0.23688
 C470 C 0.14003 0.85104 0.27137
 C471 C 0.14379 0.85805 0.33617
 C472 C 0.16223 0.84238 0.36648
 C473 C 0.17717 0.81943 0.33232
 C474 C 0.17328 0.81265 0.26712
 C475 C 0.12087 0.86686 0.24055
 C476 C 0.10474 0.88012 0.21521
 C477 C 0.08577 0.89569 0.18607
 C478 C 0.06951 0.90906 0.16161
 H479 H 0.15210 0.82284 0.18666
 H480 H 0.13240 0.87543 0.36338
 H481 H 0.16458 0.84766 0.41692
 H482 H 0.18461 0.79546 0.23941
   
