data_POSCAR
  _audit_creation_date              2014-09-24
  _audit_creation_method            'ToBaCCo'
  _symmetry_space_group_name_H-M    'P1'
  _symmetry_Int_Tables_number       1
  _symmetry_cell_setting            triclinic
  loop_
  _symmetry_equiv_pos_as_xyz
 x,y,z
_cell_length_a 31.7799
_cell_length_b 33.1743
_cell_length_c 7.5448
_cell_angle_alpha 90.363700
_cell_angle_beta 90.469800
_cell_angle_gamma 89.920600
loop_
  _atom_site_label
  _atom_site_type_symbol
  _atom_site_fract_x
  _atom_site_fract_y
  _atom_site_fract_z
O1 O 0.22678 0.28920 0.09749
 O2 O 0.29931 0.20740 0.22371
 O3 O 0.22315 0.21024 0.09831
 O4 O 0.30297 0.28576 0.21935
 O5 O 0.28038 0.28849 0.49505
 O6 O 0.20056 0.21262 0.37364
 O7 O 0.27760 0.20977 0.50040
 O8 O 0.20493 0.29136 0.37442
 Cu9 Cu 0.26550 0.24782 0.13261
 Cu10 Cu 0.23823 0.25043 0.46313
 C11 C 0.20418 0.30500 0.21759
 C12 C 0.30105 0.19460 0.38186
 C13 C 0.19820 0.19815 0.21733
 C14 C 0.30495 0.30062 0.37472
 O15 O 0.70732 0.29276 0.17072
 O16 O 0.77852 0.20936 0.04921
 O17 O 0.70463 0.21295 0.16983
 O18 O 0.78880 0.28496 0.06175
 O19 O 0.79723 0.29453 0.34836
 O20 O 0.72480 0.21246 0.45015
 O21 O 0.80231 0.21185 0.32527
 O22 O 0.72333 0.28736 0.45463
 Cu23 Cu 0.74171 0.25158 0.08581
 Cu24 Cu 0.76622 0.25067 0.41889
 C25 C 0.70151 0.30303 0.33142
 C26 C 0.80274 0.19623 0.17044
 C27 C 0.70121 0.19939 0.32602
 C28 C 0.80647 0.30329 0.19045
 O29 O 0.73135 0.79169 0.54183
 O30 O 0.80288 0.70767 0.64920
 O31 O 0.72674 0.71293 0.52964
 O32 O 0.80774 0.78595 0.67099
 O33 O 0.78331 0.78667 0.94363
 O34 O 0.70508 0.71090 0.80661
 O35 O 0.78098 0.70801 0.92601
 O36 O 0.70770 0.79028 0.81606
 Cu37 Cu 0.76963 0.74992 0.57051
 Cu38 Cu 0.74154 0.74898 0.89985
 C39 C 0.70751 0.80554 0.66206
 C40 C 0.80391 0.69320 0.80461
 C41 C 0.70304 0.69830 0.64761
 C42 C 0.80940 0.79908 0.82968
 O43 O 0.30221 0.78907 0.85283
 O44 O 0.22360 0.71152 0.94875
 O45 O 0.30079 0.71070 0.84000
 O46 O 0.22611 0.78970 0.97110
 O47 O 0.20657 0.79394 0.69092
 O48 O 0.27882 0.71213 0.56194
 O49 O 0.20100 0.71541 0.67226
 O50 O 0.28307 0.79013 0.57093
 Cu51 Cu 0.26560 0.74988 0.93030
 Cu52 Cu 0.23971 0.75322 0.59658
 C53 C 0.30646 0.80260 0.69705
 C54 C 0.19855 0.70032 0.82606
 C55 C 0.30262 0.69762 0.68177
 C56 C 0.20380 0.80592 0.85088
 C57 C 0.97615 0.12423 0.07252
 C58 C 1.01925 0.12602 0.07175
 C59 C 1.03361 0.08672 0.05396
 N60 N 1.00064 0.06120 0.04038
 C61 C 0.96546 0.08393 0.05278
 C62 C 1.07656 0.07524 0.05864
 C63 C 1.09125 0.03486 0.04746
 C64 C 1.13287 0.02348 0.07482
 C65 C 1.13459 -0.01763 0.05708
 C66 C 1.09389 -0.03063 0.02260
 N67 N 1.06781 0.00158 0.01371
 C68 C 1.08244 -0.07166 0.00327
 C69 C 1.04080 -0.08625 0.01104
 C70 C 1.03018 -0.12670 0.01946
 C71 C 0.98715 -0.12840 0.01842
 C72 C 0.97280 -0.08892 0.01014
 N73 N 1.00573 -0.06329 0.00773
 C74 C 0.93006 -0.07766 -0.00784
 C75 C 0.91547 -0.03724 -0.00862
 C76 C 0.87444 -0.02598 -0.04826
 C77 C 0.87261 0.01530 -0.03328
 C78 C 0.91270 0.02837 0.01306
 N79 N 0.93849 -0.00392 0.03053
 C80 C 0.92372 0.06925 0.04260
 H81 H 0.95512 0.14979 0.08469
 H82 H 1.03786 0.15318 0.08441
 H83 H 0.96884 -0.00336 0.08197
 H84 H 1.15938 0.04259 0.10776
 H85 H 1.16257 -0.03583 0.07384
 H86 H 1.05125 -0.15235 0.02452
 H87 H 0.96859 -0.15571 0.02024
 H88 H 0.84488 0.03359 -0.05612
 H89 H 1.03652 0.00102 -0.02541
 H90 H 0.84844 -0.04546 -0.08464
 C91 C 0.47917 0.37470 0.54647
 C92 C 0.52228 0.37386 0.54499
 C93 C 0.53550 0.41343 0.52654
 N94 N 0.50189 0.43824 0.51817
 C95 C 0.46738 0.41476 0.52903
 C96 C 0.57760 0.42530 0.49883
 C97 C 0.59103 0.46583 0.48419
 C98 C 0.63090 0.47727 0.43066
 C99 C 0.63189 0.51866 0.43498
 C100 C 0.59254 0.53154 0.48994
 N101 N 0.56802 0.49913 0.52263
 C102 C 0.58127 0.57243 0.51561
 C103 C 0.53946 0.58647 0.53143
 C104 C 0.52816 0.62609 0.56619
 C105 C 0.48500 0.62705 0.57077
 C106 C 0.47130 0.58799 0.53862
 N107 N 0.50467 0.56345 0.51262
 C108 C 0.42858 0.57586 0.53730
 C109 C 0.41442 0.53535 0.52299
 C110 C 0.37235 0.52408 0.52172
 C111 C 0.37134 0.48275 0.51452
 C112 C 0.41281 0.46951 0.51499
 N113 N 0.43868 0.50192 0.51783
 C114 C 0.42524 0.42836 0.51440
 H115 H 0.45882 0.34869 0.55658
 H116 H 0.54160 0.34701 0.55218
 H117 H 0.47107 0.50132 0.51506
 H118 H 0.65673 0.45780 0.39305
 H119 H 0.65856 0.53719 0.40032
 H120 H 0.54884 0.65160 0.58743
 H121 H 0.46594 0.65342 0.59709
 H122 H 0.34297 0.46481 0.51297
 H123 H 0.53906 0.49976 0.58495
 H124 H 0.34502 0.54350 0.52767
 C125 C 0.03353 0.38306 0.19973
 C126 C -0.00956 0.38054 0.19801
 C127 C -0.02423 0.41472 0.11241
 N128 N 0.00832 0.43798 0.06182
 C129 C 0.04364 0.41889 0.11644
 C130 C -0.06691 0.42314 0.07517
 C131 C -0.08116 0.46060 0.00994
 C132 C -0.12059 0.46743 -0.06382
 C133 C -0.12322 0.50808 -0.09772
 C134 C -0.08536 0.52498 -0.04264
 N135 N -0.05998 0.49580 0.02275
 C136 C -0.07624 0.56668 -0.04215
 C137 C -0.03544 0.58235 -0.01459
 C138 C -0.02592 0.62277 0.01023
 C139 C 0.01723 0.62559 0.01338
 C140 C 0.03248 0.58674 -0.00884
 N141 N 0.00028 0.56046 -0.02612
 C142 C 0.07530 0.57635 -0.02640
 C143 C 0.09010 0.53610 -0.02390
 C144 C 0.13039 0.52418 -0.07103
 C145 C 0.13306 0.48345 -0.04100
 C146 C 0.09425 0.47147 0.02247
 N147 N 0.06838 0.50378 0.03394
 C148 C 0.08485 0.43228 0.08225
 H149 H 0.05483 0.36104 0.25647
 H150 H -0.02795 0.35636 0.25388
 H151 H 0.03944 0.50451 0.09675
 H152 H -0.14504 0.44545 -0.08923
 H153 H -0.15018 0.52345 -0.15415
 H154 H -0.04781 0.64763 0.02250
 H155 H 0.03532 0.65303 0.02906
 H156 H 0.16068 0.46493 -0.06142
 H157 H -0.03200 0.50031 0.09182
 H158 H 0.15556 0.54295 -0.11954
 C159 C 0.53384 0.87761 0.61478
 C160 C 0.49085 0.87583 0.62468
 C161 C 0.47582 0.91353 0.57667
 N162 N 0.50817 0.93799 0.53468
 C163 C 0.54369 0.91625 0.56041
 C164 C 0.43276 0.92435 0.57167
 C165 C 0.41761 0.96407 0.54706
 C166 C 0.37560 0.97395 0.52167
 C167 C 0.37356 1.01521 0.50947
 C168 C 0.41436 1.02960 0.52831
 N169 N 0.44086 0.99817 0.55381
 C170 C 0.42551 1.07098 0.52378
 C171 C 0.46734 1.08555 0.52556
 C172 C 0.47835 1.12599 0.52809
 C173 C 0.52134 1.12753 0.51348
 C174 C 0.53524 1.08797 0.50249
 N175 N 0.50219 1.06248 0.50952
 C176 C 0.57743 1.07628 0.47322
 C177 C 0.59117 1.03572 0.46119
 C178 C 0.63020 1.02386 0.39757
 C179 C 0.63225 0.98270 0.41263
 C180 C 0.59431 0.97038 0.48335
 N181 N 0.56957 1.00288 0.51397
 C182 C 0.58487 0.93032 0.53028
 H183 H 0.55536 0.85323 0.64447
 H184 H 0.47279 0.84982 0.66470
 H185 H 0.54200 1.00301 0.58667
 H186 H 0.34904 0.95360 0.51374
 H187 H 0.34507 1.03260 0.49064
 H188 H 0.45745 1.15174 0.53477
 H189 H 0.54006 1.15470 0.50643
 H190 H 0.65874 0.96403 0.37564
 H191 H 0.47233 0.99996 0.58853
 H192 H 0.65484 1.04286 0.34581
 C193 C 1.16789 0.14781 0.01408
 C194 C 1.16893 0.16766 0.17903
 C195 C 1.14124 0.15342 0.31046
 C196 C 1.11139 0.12333 0.27114
 C197 C 1.10820 0.10687 0.09926
 C198 C 1.13857 0.11803 -0.02412
 C199 C 1.13416 0.13066 -0.21249
 C200 C 1.16615 0.16361 -0.17085
 H201 H 1.14167 0.16630 0.44254
 H202 H 1.09001 0.11364 0.37349
 H203 H 1.10228 0.14242 -0.24532
 H204 H 1.14628 0.10733 -0.30532
 H205 H 1.15269 0.19451 -0.17892
 H206 H 1.19643 0.15931 -0.24114
 C207 C 0.66570 0.63551 0.73099
 C208 C 0.67456 0.66466 0.60337
 C209 C 0.65775 0.65872 0.43128
 C210 C 0.62806 0.62779 0.39868
 C211 C 0.61591 0.60188 0.53650
 C212 C 0.63744 0.60471 0.69784
 C213 C 0.62125 0.60561 0.88284
 C214 C 0.65226 0.63960 0.91950
 H215 H 0.66556 0.67926 0.32560
 H216 H 0.61320 0.62530 0.26958
 H217 H 0.62899 0.57753 0.95587
 H218 H 0.58779 0.61531 0.89035
 H219 H 0.67769 0.63109 1.01425
 H220 H 0.63669 0.66896 0.94778
 C221 C -0.13337 0.32966 0.02902
 C222 C -0.16303 0.33264 0.16303
 C223 C -0.15822 0.36586 0.28043
 C224 C -0.12732 0.39576 0.25111
 C225 C -0.09847 0.39160 0.11133
 C226 C -0.10093 0.35619 0.01249
 C227 C -0.09023 0.34164 -0.16805
 C228 C -0.12671 0.31150 -0.14957
 H229 H -0.18006 0.37024 0.38754
 H230 H -0.12664 0.42247 0.33394
 H231 H -0.05861 0.32720 -0.17041
 H232 H -0.09631 0.36525 -0.26822
 H233 H -0.11651 0.27945 -0.14527
 H234 H -0.15331 0.31802 -0.24110
 C235 C 0.35964 0.83553 0.50144
 C236 C 0.33949 0.83268 0.66519
 C237 C 0.35410 0.85759 0.80474
 C238 C 0.38476 0.88719 0.77447
 C239 C 0.40164 0.89220 0.60437
 C240 C 0.39032 0.86445 0.47206
 C241 C 0.37555 0.87140 0.28657
 C242 C 0.34186 0.83979 0.31888
 H243 H 0.34043 0.85547 0.93506
 H244 H 0.39434 0.90697 0.88206
 H245 H 0.39927 0.86166 0.18755
 H246 H 0.36256 0.90218 0.26635
 H247 H 0.30937 0.85228 0.31794
 H248 H 0.34623 0.81199 0.23819
 C249 C -0.14552 0.63962 -0.29212
 C250 C -0.16892 0.65807 -0.15763
 C251 C -0.16695 0.64054 0.01239
 C252 C -0.13803 0.60930 0.04912
 C253 C -0.11072 0.59519 -0.08350
 C254 C -0.11720 0.60895 -0.25619
 C255 C -0.08698 0.62322 -0.39248
 C256 C -0.11790 0.65719 -0.43083
 H257 H -0.18622 0.65213 0.11884
 H258 H -0.13542 0.59772 0.18258
 H259 H -0.08395 0.60148 -0.50443
 H260 H -0.05668 0.63397 -0.33508
 H261 H -0.13229 0.65519 -0.56539
 H262 H -0.10567 0.68745 -0.39268
 C263 C 0.34925 1.13938 0.28784
 C264 C 0.32991 1.16100 0.42443
 C265 C 0.33800 1.14819 0.59987
 C266 C 0.36855 1.11804 0.63387
 C267 C 0.39119 1.10043 0.49349
 C268 C 0.37867 1.10968 0.32103
 C269 C 0.40380 1.12012 0.16177
 C270 C 0.37164 1.15321 0.12634
 H271 H 0.32225 1.16257 0.71017
 H272 H 0.37573 1.10947 0.76855
 H273 H 0.40318 1.09550 0.06136
 H274 H 0.43562 1.13188 0.19508
 H275 H 0.35235 1.14814 0.00536
 H276 H 0.38479 1.18410 0.14115
 C277 C 1.15371 -0.14296 -0.24214
 C278 C 1.17659 -0.16221 -0.10779
 C279 C 1.17193 -0.14714 0.06693
 C280 C 1.14187 -0.11695 0.10450
 C281 C 1.11641 -0.10108 -0.03206
 C282 C 1.12486 -0.11286 -0.20617
 C283 C 1.09591 -0.12666 -0.35141
 C284 C 1.12722 -0.16029 -0.38767
 H285 H 1.19010 -0.15968 0.17536
 H286 H 1.13748 -0.10698 0.23996
 H287 H 1.09377 -0.10447 -0.46091
 H288 H 1.06518 -0.13793 -0.30365
 H289 H 1.14268 -0.15795 -0.51841
 H290 H 1.11499 -0.19070 -0.35430
 C291 C 0.66102 0.34465 0.55035
 C292 C 0.66832 0.33253 0.37489
 C293 C 0.64114 0.34779 0.24235
 C294 C 0.61125 0.37765 0.28375
 C295 C 0.60810 0.39290 0.45772
 C296 C 0.63155 0.37411 0.59083
 C297 C 0.65840 0.39177 0.73425
 C298 C 0.69078 0.35946 0.69047
 H299 H 0.64382 0.33770 0.10628
 H300 H 0.59159 0.38983 0.17925
 H301 H 0.64411 0.38813 0.86699
 H302 H 0.66918 0.42281 0.70418
 H303 H 0.69520 0.33721 0.79855
 H304 H 0.72034 0.37176 0.63463
 C305 C 0.87174 -0.16172 -0.24190
 C306 C 0.84047 -0.17288 -0.12180
 C307 C 0.84239 -0.15509 0.04948
 C308 C 0.87143 -0.12395 0.08783
 C309 C 0.89941 -0.11050 -0.04290
 C310 C 0.90051 -0.13173 -0.20296
 C311 C 0.90130 -0.11711 -0.38929
 C312 C 0.86950 -0.15007 -0.43279
 H313 H 0.82038 -0.16373 0.15119
 H314 H 0.87122 -0.10959 0.21699
 H315 H 0.93246 -0.12220 -0.45154
 H316 H 0.88835 -0.08612 -0.40341
 H317 H 0.88235 -0.17400 -0.52071
 H318 H 0.83809 -0.13821 -0.47255
 C319 C 0.33163 0.35811 0.56222
 C320 C 0.33487 0.33363 0.41098
 C321 C 0.36500 0.34440 0.28364
 C322 C 0.39341 0.37596 0.31651
 C323 C 0.39260 0.39744 0.47768
 C324 C 0.35997 0.38909 0.59520
 C325 C 0.36071 0.38151 0.78946
 C326 C 0.32961 0.34744 0.75379
 H327 H 0.36767 0.32757 0.16115
 H328 H 0.41728 0.38254 0.21942
 H329 H 0.34682 0.40706 0.86491
 H330 H 0.39192 0.37089 0.83822
 H331 H 0.29787 0.35335 0.80906
 H332 H 0.34268 0.31702 0.78181
 C333 C 0.16775 0.64744 0.02132
 C334 C 0.16720 0.66859 -0.13887
 C335 C 0.13739 0.65672 -0.26872
 C336 C 0.10707 0.62710 -0.23119
 C337 C 0.10607 0.60866 -0.06369
 C338 C 0.13813 0.61797 0.05760
 C339 C 0.13503 0.63055 0.24727
 C340 C 0.16738 0.66291 0.20758
 H341 H 0.13671 0.67109 -0.39716
 H342 H 0.08398 0.61903 -0.33164
 H343 H 0.14709 0.60698 0.33872
 H344 H 0.10354 0.64291 0.28133
 H345 H 0.19800 0.65800 0.27649
 H346 H 0.15464 0.69407 0.21768
 C347 C 0.67150 1.14547 0.51949
 C348 C 0.67010 1.16759 0.36182
 C349 C 0.63939 1.15685 0.23399
 C350 C 0.60901 1.12740 0.27087
 C351 C 0.60878 1.10801 0.43592
 C352 C 0.64167 1.11610 0.55507
 C353 C 0.63945 1.12779 0.74590
 C354 C 0.67214 1.15989 0.70747
 H355 H 0.63793 1.17211 0.10792
 H356 H 0.58508 1.12032 0.17275
 H357 H 0.65138 1.10359 0.83443
 H358 H 0.60821 1.14042 0.78183
 H359 H 0.70291 1.15412 0.77389
 H360 H 0.65994 1.19115 0.72218
 C361 C 0.16734 0.35189 0.00543
 C362 C 0.17798 0.34065 0.17893
 C363 C 0.16396 0.36575 0.31847
 C364 C 0.13536 0.39725 0.28581
 C365 C 0.12014 0.40406 0.11323
 C366 C 0.13869 0.38268 -0.02608
 C367 C 0.11926 0.36131 -0.18042
 C368 C 0.15067 0.32746 -0.14681
 H369 H 0.17364 0.36000 0.45382
 H370 H 0.12313 0.41455 0.39616
 H371 H 0.12466 0.37752 -0.30639
 H372 H 0.08607 0.35247 -0.15653
 H373 H 0.17404 0.32416 -0.25479
 H374 H 0.13571 0.29889 -0.10398
 C375 C 0.66915 0.85151 0.45216
 C376 C 0.68023 0.84053 0.62543
 C377 C 0.66521 0.86485 0.76534
 C378 C 0.63563 0.89554 0.73271
 C379 C 0.62045 0.90230 0.55979
 C380 C 0.63965 0.88157 0.42025
 C381 C 0.62070 0.85938 0.26707
 C382 C 0.65304 0.82638 0.30140
 H383 H 0.67499 0.85909 0.90049
 H384 H 0.62287 0.91246 0.84319
 H385 H 0.62555 0.87549 0.14051
 H386 H 0.58780 0.84974 0.29200
 H387 H 0.67660 0.82337 0.19416
 H388 H 0.63890 0.79754 0.34553
 C389 C 0.83824 0.14724 -0.03599
 C390 C 0.83053 0.16147 0.13573
 C391 C 0.84860 0.13988 0.27763
 C392 C 0.87748 0.10853 0.24642
 C393 C 0.88908 0.09832 0.07262
 C394 C 0.86718 0.11662 -0.06673
 C395 C 0.88268 0.13559 -0.23200
 C396 C 0.85092 0.16922 -0.19918
 H397 H 0.84153 0.14828 0.41233
 H398 H 0.89256 0.09374 0.35759
 H399 H 0.87521 0.11662 -0.34945
 H400 H 0.91595 0.14570 -0.22142
 H401 H 0.82499 0.17009 -0.29877
 H402 H 0.86579 0.19887 -0.17001
 C403 C 0.34261 0.65352 0.46693
 C404 C 0.33223 0.66460 0.64091
 C405 C 0.35071 0.64228 0.77985
 C406 C 0.38223 0.61362 0.74570
 C407 C 0.39610 0.60680 0.57185
 C408 C 0.37399 0.62531 0.43362
 C409 C 0.38979 0.64773 0.27739
 C410 C 0.35514 0.67847 0.31190
 H411 H 0.34153 0.64776 0.91536
 H412 H 0.39654 0.59742 0.85491
 H413 H 0.38536 0.63019 0.15318
 H414 H 0.42199 0.66004 0.29787
 H415 H 0.33051 0.67852 0.20659
 H416 H 0.36724 0.70874 0.35037
   
