data_POSCAR
  _audit_creation_date              2014-09-24
  _audit_creation_method            'ToBaCCo'
  _symmetry_space_group_name_H-M    'P1'
  _symmetry_Int_Tables_number       1
  _symmetry_cell_setting            triclinic
  loop_
  _symmetry_equiv_pos_as_xyz
 x,y,z
_cell_length_a 23.5210
_cell_length_b 24.2011
_cell_length_c 24.6689
_cell_angle_alpha 86.564100
_cell_angle_beta 92.619400
_cell_angle_gamma 90.135100
loop_
  _atom_site_label
  _atom_site_type_symbol
  _atom_site_fract_x
  _atom_site_fract_y
  _atom_site_fract_z
C1 C 0.19140 0.34717 0.21653
 C2 C 0.24201 0.35758 0.18031
 C3 C 0.25613 0.31301 0.15260
 C4 C 0.21765 0.26240 0.16293
 C5 C 0.14324 0.32791 0.17811
 C6 C 0.15701 0.28347 0.15042
 C7 C 0.20848 0.29545 0.25315
 C8 C 0.22179 0.25108 0.22474
 H9 H 0.26652 0.39555 0.17944
 H10 H 0.22838 0.22650 0.13941
 H11 H 0.10121 0.34639 0.17501
 H12 H 0.21079 0.29434 0.29715
 C13 C 0.66005 0.74851 0.31844
 C14 C 0.70862 0.78768 0.30164
 C15 C 0.75989 0.76191 0.30020
 C16 C 0.75798 0.69943 0.31486
 C17 C 0.66051 0.70302 0.27763
 C18 C 0.71189 0.67777 0.27524
 C19 C 0.68103 0.71974 0.37256
 C20 C 0.73211 0.69404 0.37086
 H21 H 0.70269 0.83143 0.29106
 H22 H 0.79964 0.67827 0.31362
 H23 H 0.62530 0.69475 0.24958
 H24 H 0.65714 0.72008 0.40903
 C25 C 0.74241 0.26965 0.73931
 C26 C 0.79794 0.28390 0.71922
 C27 C 0.82639 0.23931 0.69664
 C28 C 0.79375 0.18801 0.69858
 C29 C 0.70896 0.24496 0.69134
 C30 C 0.73634 0.20288 0.66954
 C31 C 0.75310 0.21994 0.78047
 C32 C 0.77918 0.17668 0.75853
 H33 H 0.81571 0.32524 0.72005
 H34 H 0.81478 0.15244 0.68156
 H35 H 0.66794 0.26035 0.67536
 H36 H 0.73747 0.21745 0.82115
 C37 C 0.22025 0.78026 0.83472
 C38 C 0.22567 0.83772 0.80567
 C39 C 0.26378 0.84026 0.76586
 C40 C 0.29388 0.78512 0.75923
 C41 C 0.20651 0.74140 0.78884
 C42 C 0.24539 0.74350 0.74945
 C43 C 0.28093 0.76461 0.85541
 C44 C 0.31956 0.76712 0.81594
 H45 H 0.19978 0.87262 0.81459
 H46 H 0.32511 0.78798 0.72701
 H47 H 0.17029 0.71368 0.78856
 H48 H 0.29157 0.74991 0.89697
 C49 C 0.00465 0.07183 0.00849
 H50 H -0.01204 0.06242 -0.03147
 C51 C 0.02821 0.12383 0.01624
 H52 H 0.02979 0.15402 -0.01788
 C53 C 0.02146 0.04472 0.10173
 H54 H 0.01753 0.01457 0.13533
 C55 C 0.04700 0.09575 0.11094
 H56 H 0.06271 0.10426 0.15155
 N57 N 0.00056 0.03379 0.05111
 C58 C 0.00863 -0.13786 0.02288
 H59 H -0.02023 -0.15270 0.05333
 C60 C 0.04379 -0.17551 -0.00047
 H61 H 0.04181 -0.21876 0.01306
 C62 C 0.04432 -0.06390 -0.03294
 H63 H 0.04396 -0.02048 -0.04589
 C64 C 0.08006 -0.10005 -0.05739
 H65 H 0.10721 -0.08374 -0.08884
 Zn66 Zn -0.03988 -0.03236 0.03671
 N67 N 0.00971 -0.08312 0.00662
 C68 C -0.10413 -0.04170 -0.06121
 N69 N -0.09871 -0.01264 -0.01582
 C70 C -0.12792 0.03531 -0.01174
 C71 C -0.16060 0.05816 -0.05629
 C72 C -0.13711 -0.02093 -0.10624
 C73 C -0.03225 -0.08702 0.14015
 C74 C -0.05135 -0.11665 0.18601
 C75 C -0.14801 -0.10180 0.15106
 C76 C -0.12697 -0.07212 0.10577
 N77 N -0.06989 -0.06587 0.10090
 H78 H -0.08041 -0.07960 -0.06366
 H79 H -0.12246 0.05785 0.02470
 H80 H -0.18090 0.09796 -0.05359
 H81 H -0.13808 -0.04354 -0.14276
 H82 H 0.01296 -0.08265 0.13481
 H83 H -0.02004 -0.13355 0.21584
 H84 H -0.19350 -0.10759 0.15358
 H85 H -0.15618 -0.05540 0.07386
 C86 C 0.08017 -0.15669 -0.04126
 C87 C 0.04921 0.13633 0.06810
 C88 C -0.10997 -0.12540 0.19151
 C89 C -0.16416 0.03068 -0.10481
 C90 C 0.15171 0.55055 0.54713
 H91 H 0.16472 0.53143 0.51135
 C92 C 0.18975 0.58523 0.57369
 H93 H 0.23148 0.59117 0.55776
 C94 C 0.08110 0.56712 0.60953
 H95 H 0.03807 0.56131 0.62232
 C96 C 0.11789 0.60236 0.63738
 H97 H 0.10301 0.62252 0.67210
 N98 N 0.09857 0.54174 0.56540
 C99 C 0.05217 0.50332 0.41071
 H100 H 0.01485 0.52896 0.41133
 C101 C 0.07394 0.49259 0.36081
 H102 H 0.05289 0.51020 0.32383
 C103 C 0.12354 0.44755 0.45737
 H104 H 0.14266 0.43016 0.49531
 C105 C 0.14583 0.43455 0.40811
 H106 H 0.18215 0.40710 0.40823
 Zn107 Zn 0.04654 0.49746 0.52551
 N108 N 0.07733 0.48134 0.45790
 C109 C -0.07241 0.51221 0.52323
 N110 N -0.02235 0.53754 0.51152
 C111 C -0.02129 0.58978 0.48783
 C112 C -0.07218 0.61756 0.47271
 C113 C -0.12399 0.53913 0.51048
 C114 C 0.02971 0.38168 0.53995
 C115 C 0.00654 0.33363 0.56409
 C116 C -0.01651 0.38530 0.64087
 C117 C 0.00826 0.43213 0.61580
 N118 N 0.02919 0.43005 0.56541
 H119 H -0.07276 0.47043 0.54111
 H120 H 0.01907 0.60901 0.47894
 H121 H -0.07100 0.65845 0.45238
 H122 H -0.16339 0.51786 0.51918
 H123 H 0.04454 0.38079 0.49929
 H124 H 0.00481 0.29650 0.54172
 H125 H -0.03585 0.38844 0.67958
 H126 H 0.00703 0.47100 0.63497
 C127 C 0.12123 0.45772 0.35918
 C128 C 0.17303 0.61200 0.61941
 C129 C -0.01866 0.33564 0.61438
 C130 C -0.12417 0.59203 0.48415
 C131 C 0.54535 0.08696 0.46665
 H132 H 0.54021 0.07965 0.42386
 C133 C 0.59428 0.11323 0.48645
 H134 H 0.62652 0.12659 0.45858
 C135 C 0.51035 0.07671 0.55527
 H136 H 0.47792 0.06174 0.58209
 C137 C 0.55792 0.10402 0.57658
 H138 H 0.56191 0.10956 0.61984
 N139 N 0.50595 0.06707 0.50148
 C140 C 0.44160 -0.07960 0.42443
 H141 H 0.39626 -0.07439 0.42788
 C142 C 0.46196 -0.12301 0.39589
 H143 H 0.43183 -0.15146 0.37834
 C144 C 0.53552 -0.04830 0.44305
 H145 H 0.56429 -0.01960 0.46181
 C146 C 0.55774 -0.09133 0.41534
 H147 H 0.60342 -0.09471 0.41266
 Zn148 Zn 0.44680 0.02173 0.47436
 N149 N 0.47823 -0.04183 0.44514
 C150 C 0.39894 0.04285 0.36834
 N151 N 0.40334 0.06278 0.41874
 C152 C 0.37616 0.11025 0.42959
 C153 C 0.33938 0.13694 0.39012
 C154 C 0.36244 0.06768 0.32817
 C155 C 0.42319 -0.04039 0.57008
 C156 C 0.39131 -0.06000 0.61364
 C157 C 0.31273 -0.00308 0.57716
 C158 C 0.34568 0.01460 0.53382
 N159 N 0.40023 -0.00334 0.53156
 H160 H 0.42316 0.00721 0.35899
 H161 H 0.38159 0.12634 0.46948
 H162 H 0.31654 0.17364 0.39972
 H163 H 0.35916 0.05033 0.28872
 H164 H 0.46647 -0.05449 0.56700
 H165 H 0.41025 -0.08923 0.64418
 H166 H 0.26949 0.01185 0.57823
 H167 H 0.32744 0.04275 0.50225
 C168 C 0.52077 -0.12827 0.38981
 C169 C 0.60150 0.12068 0.54231
 C170 C 0.33570 -0.04057 0.61792
 C171 C 0.33085 0.11439 0.33931
 C172 C 0.65973 0.54154 0.02903
 H173 H 0.67309 0.54451 -0.01242
 C174 C 0.69432 0.56295 0.07034
 H175 H 0.73445 0.58216 0.06044
 C176 C 0.58942 0.51621 0.09176
 H177 H 0.54788 0.49916 0.09962
 C178 C 0.62187 0.53852 0.13389
 H179 H 0.60537 0.53793 0.17420
 N180 N 0.60857 0.51839 0.04047
 C181 C 0.56315 0.44138 -0.11079
 H182 H 0.51961 0.45584 -0.11526
 C183 C 0.58637 0.41329 -0.15213
 H184 H 0.56073 0.40653 -0.18874
 C185 C 0.64997 0.43386 -0.05812
 H186 H 0.67442 0.44187 -0.02128
 C187 C 0.67453 0.40406 -0.09809
 H188 H 0.71830 0.39031 -0.09251
 Zn189 Zn 0.55878 0.49646 -0.01658
 N190 N 0.59568 0.45320 -0.06601
 C191 C 0.54447 0.57615 -0.10509
 N192 N 0.52859 0.56197 -0.05376
 C193 C 0.49168 0.59408 -0.02861
 C194 C 0.46500 0.63935 -0.05707
 C195 C 0.51988 0.62170 -0.13455
 C196 C 0.51862 0.40174 0.03684
 C197 C 0.47954 0.36421 0.05876
 C198 C 0.40409 0.42878 0.03082
 C199 C 0.44449 0.46449 0.00809
 N200 N 0.50070 0.45087 0.01235
 H201 H 0.57587 0.55188 -0.12366
 H202 H 0.48145 0.58342 0.01303
 H203 H 0.43379 0.66306 -0.03734
 H204 H 0.53169 0.63079 -0.17602
 H205 H 0.56351 0.39176 0.03918
 H206 H 0.49464 0.32548 0.07846
 H207 H 0.35954 0.44029 0.02774
 H208 H 0.43059 0.50267 -0.01310
 C209 C 0.64291 0.39516 -0.14631
 C210 C 0.67488 0.56230 0.12332
 C211 C 0.42157 0.37789 0.05616
 C212 C 0.47850 0.65309 -0.11100
 C213 C 0.17773 -0.22160 -0.12134
 C214 C 0.16365 -0.26825 -0.09000
 C215 C 0.12468 -0.25093 -0.05526
 C216 C 0.11794 -0.19478 -0.06796
 O217 O 0.15018 -0.17724 -0.10798
 H218 H 0.18007 -0.30975 -0.09219
 H219 H 0.10422 -0.27643 -0.02438
 C220 C 0.17428 0.39660 0.24607
 C221 C 0.16007 0.44721 0.22037
 C222 C 0.13978 0.47785 0.25976
 C223 C 0.14313 0.44366 0.30665
 O224 O 0.16425 0.39439 0.29848
 H225 H 0.16228 0.45935 0.17758
 H226 H 0.12337 0.51966 0.25463
 C227 C 0.60413 -0.22253 0.32415
 C228 C 0.55227 -0.23589 0.29969
 C229 C 0.51351 -0.20240 0.32083
 C230 C 0.54436 -0.17114 0.35684
 O231 O 0.59923 -0.18325 0.35865
 H232 H 0.54294 -0.26694 0.27087
 H233 H 0.46826 -0.20121 0.31091
 C234 C 0.71216 0.31898 -0.24097
 C235 C 0.69439 0.36326 -0.27549
 C236 C 0.66623 0.39732 -0.24423
 C237 C 0.66952 0.37192 -0.19271
 O238 O 0.69754 0.32430 -0.19028
 H239 H 0.70040 0.36915 -0.31869
 H240 H 0.64564 0.43612 -0.25727
 C241 C -0.21366 0.12147 -0.21356
 C242 C -0.22026 0.07298 -0.23966
 C243 C -0.20566 0.03191 -0.20161
 C244 C -0.19067 0.05834 -0.15490
 O245 O -0.19614 0.11289 -0.16201
 H246 H -0.23342 0.06821 -0.28174
 H247 H -0.20478 -0.01191 -0.20789
 C248 C -0.24024 0.66306 0.41810
 C249 C -0.26764 0.64371 0.46381
 C250 C -0.22745 0.61493 0.49528
 C251 C -0.17842 0.61929 0.46673
 O252 O -0.18603 0.64841 0.41988
 H253 H -0.31192 0.64855 0.47261
 H254 H -0.23325 0.59305 0.53419
 C255 C 0.24159 0.19753 0.24974
 C256 C 0.23241 0.14812 0.22579
 C257 C 0.26330 0.11003 0.25714
 C258 C 0.28949 0.13902 0.29790
 O259 O 0.27584 0.19224 0.29385
 H260 H 0.20704 0.14090 0.18918
 H261 H 0.26682 0.06641 0.25050
 C262 C 0.37843 0.74667 -0.17465
 C263 C 0.42179 0.75766 -0.20952
 C264 C 0.46632 0.72572 -0.18920
 C265 C 0.44693 0.69747 -0.14336
 O266 O 0.39371 0.71051 -0.13426
 H267 H 0.42092 0.78475 -0.24605
 H268 H 0.50754 0.72264 -0.20652
 C269 C -0.18776 -0.20995 0.28329
 C270 C -0.13429 -0.22455 0.30414
 C271 C -0.09768 -0.19308 0.27435
 C272 C -0.13150 -0.16169 0.23683
 O273 O -0.18641 -0.17187 0.24256
 H274 H -0.12328 -0.25538 0.33650
 H275 H -0.05178 -0.19487 0.27862
 C276 C -0.12181 0.24708 0.67125
 C277 C -0.09209 0.20715 0.64631
 C278 C -0.04756 0.23440 0.62330
 C279 C -0.05304 0.28884 0.63601
 O280 O -0.09769 0.29640 0.66537
 H281 H -0.10184 0.16372 0.64358
 H282 H -0.01576 0.21679 0.59910
 C283 C 0.27185 -0.11034 0.72887
 C284 C 0.23876 -0.06309 0.72655
 C285 C 0.25826 -0.03032 0.68462
 C286 C 0.30196 -0.05977 0.66447
 O287 O 0.31036 -0.10824 0.69136
 H288 H 0.20382 -0.05375 0.75150
 H289 H 0.24252 0.01027 0.67062
 C290 C 0.30741 0.31216 0.12065
 C291 C 0.33607 0.26484 0.10931
 C292 C 0.38311 0.28297 0.08330
 C293 C 0.37933 0.33997 0.08037
 O294 O 0.33349 0.35775 0.10303
 H295 H 0.32521 0.22228 0.12020
 H296 H 0.41621 0.25770 0.06839
 C297 C 0.11623 0.25545 0.11466
 C298 C 0.07756 0.28200 0.07845
 C299 C 0.04841 0.24064 0.05428
 C300 C 0.07102 0.19205 0.07832
 O301 O 0.11229 0.20097 0.11491
 H302 H 0.07150 0.32613 0.07067
 H303 H 0.01361 0.24529 0.02412
 C304 C 0.24244 0.70748 0.70307
 C305 C 0.28576 0.70148 0.66807
 C306 C 0.26603 0.66475 0.63211
 C307 C 0.21185 0.65067 0.64758
 O308 O 0.19762 0.67660 0.69084
 H309 H 0.32724 0.72079 0.66856
 H310 H 0.28903 0.65042 0.59872
 C311 C 0.71337 0.17549 0.62174
 C312 C 0.74613 0.15529 0.58248
 C313 C 0.70829 0.13404 0.54575
 C314 C 0.65529 0.14235 0.56579
 O315 O 0.65834 0.16762 0.61191
 H316 H 0.79202 0.15617 0.58078
 H317 H 0.71830 0.11323 0.50976
 C318 C 0.72278 0.63903 0.23296
 C319 C 0.77573 0.62657 0.21505
 C320 C 0.76535 0.59500 0.17160
 C321 C 0.70691 0.59019 0.16664
 O322 O 0.68113 0.61683 0.20376
 H323 H 0.81683 0.64067 0.23011
 H324 H 0.79655 0.57827 0.14614
   
