data_POSCAR
  _audit_creation_date              2014-09-24
  _audit_creation_method            'ToBaCCo'
  _symmetry_space_group_name_H-M    'P1'
  _symmetry_Int_Tables_number       1
  _symmetry_cell_setting            triclinic
  loop_
  _symmetry_equiv_pos_as_xyz
 x,y,z
_cell_length_a 57.1794
_cell_length_b 44.2209
_cell_length_c 27.0862
_cell_angle_alpha 89.281600
_cell_angle_beta 89.560700
_cell_angle_gamma 90.269000
loop_
  _atom_site_label
  _atom_site_type_symbol
  _atom_site_fract_x
  _atom_site_fract_y
  _atom_site_fract_z
O1 O 0.26637 0.28104 0.29786
 O2 O 0.22329 0.22351 0.26160
 O3 O 0.26577 0.22208 0.29646
 O4 O 0.22359 0.28150 0.26475
 O5 O 0.23715 0.28307 0.18826
 O6 O 0.28027 0.22455 0.22091
 O7 O 0.23764 0.22441 0.18573
 O8 O 0.27994 0.28314 0.22145
 Cu9 Cu 0.24348 0.25184 0.28788
 Cu10 Cu 0.26018 0.25390 0.19647
 C11 C 0.28057 0.29191 0.26589
 C12 C 0.22281 0.21455 0.21724
 C13 C 0.28056 0.21342 0.26443
 C14 C 0.22272 0.29191 0.22091
 O15 O 0.73655 0.21256 0.30406
 O16 O 0.77856 0.27552 0.28692
 O17 O 0.73508 0.27076 0.31739
 O18 O 0.78020 0.21734 0.27661
 O19 O 0.76911 0.22380 0.19940
 O20 O 0.72277 0.27556 0.24067
 O21 O 0.76607 0.28228 0.21084
 O22 O 0.72551 0.21823 0.22664
 Cu23 Cu 0.75877 0.24352 0.30397
 Cu24 Cu 0.74482 0.25063 0.21163
 C25 C 0.72372 0.20479 0.26818
 C26 C 0.77958 0.28967 0.24576
 C27 C 0.72087 0.28173 0.28621
 C28 C 0.78250 0.21154 0.23104
 O29 O 0.73709 0.78442 0.68634
 O30 O 0.77909 0.72369 0.71520
 O31 O 0.73580 0.72574 0.68478
 O32 O 0.78065 0.78248 0.71456
 O33 O 0.76859 0.78222 0.79201
 O34 O 0.72372 0.72535 0.76231
 O35 O 0.76688 0.72337 0.79263
 O36 O 0.72511 0.78388 0.76393
 Cu37 Cu 0.75939 0.75411 0.69247
 Cu38 Cu 0.74492 0.75365 0.78549
 C39 C 0.72373 0.79431 0.72017
 C40 C 0.78023 0.71325 0.75906
 C41 C 0.72190 0.71608 0.71827
 C42 C 0.78243 0.79205 0.75843
 O43 O 0.28057 0.77651 0.78103
 O44 O 0.23574 0.72056 0.81940
 O45 O 0.27933 0.71791 0.78898
 O46 O 0.23736 0.77911 0.81280
 O47 O 0.22453 0.77565 0.73656
 O48 O 0.26729 0.71566 0.71195
 O49 O 0.22400 0.71749 0.74224
 O50 O 0.26795 0.77430 0.70443
 Cu51 Cu 0.25952 0.74877 0.80823
 Cu52 Cu 0.24479 0.74559 0.71606
 C53 C 0.28203 0.78480 0.73602
 C54 C 0.22199 0.70975 0.78738
 C55 C 0.28070 0.70657 0.74620
 C56 C 0.22328 0.78733 0.77917
 C57 C 1.00104 0.06306 0.07108
 C58 C 1.02209 0.05586 0.04694
 C59 C 1.02190 0.03345 0.01052
 C60 C 1.00130 0.01720 -0.00021
 C61 C 0.98059 0.02464 0.02537
 C62 C 0.98014 0.04817 0.05957
 C63 C 1.00130 -0.00716 -0.03826
 C64 C 0.98067 -0.01460 -0.06361
 C65 C 0.98010 -0.03848 -0.09717
 C66 C 1.00094 -0.05347 -0.10881
 C67 C 1.02197 -0.04618 -0.08505
 C68 C 1.02176 -0.02361 -0.04886
 H69 H 1.00079 0.08063 0.09852
 H70 H 1.03778 0.02929 -0.01015
 H71 H 0.96460 0.01213 0.01928
 H72 H 0.96480 -0.00195 -0.05755
 H73 H 1.00062 -0.07126 -0.13584
 H74 H 1.03750 -0.01951 -0.02809
 C75 C 0.49958 0.55124 0.61105
 C76 C 0.52071 0.54273 0.58862
 C77 C 0.52056 0.51970 0.55332
 C78 C 0.49977 0.50406 0.54201
 C79 C 0.47899 0.51232 0.56666
 C80 C 0.47857 0.53650 0.59973
 C81 C 0.49954 0.47973 0.50394
 C82 C 0.47904 0.47351 0.47725
 C83 C 0.47831 0.45025 0.44258
 C84 C 0.49885 0.43437 0.43180
 C85 C 0.51972 0.44039 0.45700
 C86 C 0.51969 0.46252 0.49389
 H87 H 0.49941 0.57018 0.63601
 H88 H 0.53676 0.51415 0.53478
 H89 H 0.46293 0.50000 0.56046
 H90 H 0.46347 0.48686 0.48277
 H91 H 0.49845 0.41702 0.40400
 H92 H 0.53534 0.46578 0.51534
 C93 C -0.00204 0.44211 0.09724
 C94 C -0.02384 0.45428 0.08458
 C95 C -0.02474 0.47633 0.04668
 C96 C -0.00449 0.48462 0.01939
 C97 C 0.01662 0.46957 0.03005
 C98 C 0.01815 0.44887 0.06952
 C99 C -0.00514 0.50897 -0.01973
 C100 C 0.01521 0.52578 -0.03161
 C101 C 0.01511 0.54841 -0.06837
 C102 C -0.00595 0.55557 -0.09177
 C103 C -0.02669 0.53998 -0.07962
 C104 C -0.02599 0.51619 -0.04473
 H105 H -0.00074 0.42711 0.12896
 H106 H -0.04128 0.48678 0.03837
 H107 H 0.03194 0.47345 0.00721
 H108 H 0.03138 0.52140 -0.01248
 H109 H -0.00633 0.57415 -0.11820
 H110 H -0.04181 0.50334 -0.03769
 C111 C 0.50332 0.94740 0.59446
 C112 C 0.48182 0.95469 0.57289
 C113 C 0.48119 0.97664 0.53495
 C114 C 0.50153 0.99267 0.52020
 C115 C 0.52267 0.98579 0.54435
 C116 C 0.52392 0.96239 0.57971
 C117 C 0.50088 1.01547 0.47855
 C118 C 0.52128 1.02259 0.45089
 C119 C 0.52084 1.04353 0.41146
 C120 C 0.49926 1.05558 0.39717
 C121 C 0.47882 1.04990 0.42475
 C122 C 0.47989 1.03027 0.46586
 H123 H 0.50412 0.92910 0.62136
 H124 H 0.46471 0.98094 0.51702
 H125 H 0.53845 0.99840 0.53596
 H126 H 0.53771 1.01221 0.46014
 H127 H 0.49840 1.06975 0.36438
 H128 H 0.46437 1.02720 0.48842
 C129 C 1.16587 0.15930 0.16756
 C130 C 1.16443 0.17441 0.21276
 C131 C 1.18338 0.19119 0.22987
 C132 C 1.20404 0.19370 0.20170
 C133 C 1.20573 0.17797 0.15704
 C134 C 1.18689 0.16065 0.14037
 C135 C 1.14510 0.14356 0.14806
 N136 N 1.14727 0.12064 0.11539
 N137 N 1.12836 0.10694 0.09753
 C138 C 1.10657 0.11591 0.11115
 N139 N 1.10445 0.13888 0.14363
 N140 N 1.12332 0.15234 0.16183
 C141 C 1.08546 0.10098 0.09160
 C142 C 1.06422 0.11671 0.08955
 C143 C 1.04390 0.10241 0.07343
 C144 C 1.04419 0.07179 0.05998
 C145 C 1.06563 0.05624 0.06104
 C146 C 1.08609 0.07078 0.07628
 H147 H 1.14852 0.17357 0.23469
 H148 H 1.18150 0.20316 0.26431
 H149 H 1.22147 0.17949 0.13461
 H150 H 1.18845 0.14925 0.10535
 H151 H 1.06330 0.14017 0.10039
 H152 H 1.02794 0.11542 0.07172
 H153 H 1.06650 0.03257 0.05153
 H154 H 1.10222 0.05809 0.07768
 C155 C 0.66522 0.65638 0.68040
 C156 C 0.68126 0.66646 0.64413
 C157 C 0.69997 0.68529 0.65661
 C158 C 0.70305 0.69448 0.70563
 C159 C 0.68734 0.68385 0.74208
 C160 C 0.66866 0.66501 0.72963
 C161 C 0.64463 0.63779 0.66683
 N162 N 0.62894 0.62847 0.70178
 N163 N 0.61002 0.61268 0.68947
 C164 C 0.60593 0.60554 0.64167
 N165 N 0.62169 0.61470 0.60672
 N166 N 0.64063 0.63050 0.61904
 C167 C 0.58447 0.58875 0.62795
 C168 C 0.57987 0.58192 0.57835
 C169 C 0.55929 0.56682 0.56549
 C170 C 0.54284 0.55825 0.60192
 C171 C 0.54754 0.56481 0.65149
 C172 C 0.56809 0.57985 0.66436
 H173 H 0.67921 0.66020 0.60589
 H174 H 0.71177 0.69306 0.62763
 H175 H 0.68923 0.69047 0.78020
 H176 H 0.65670 0.65761 0.75857
 H177 H 0.59206 0.58848 0.54933
 H178 H 0.55604 0.56237 0.52692
 H179 H 0.53535 0.55811 0.68046
 H180 H 0.57106 0.58462 0.70293
 C181 C -0.16777 0.35548 0.21873
 C182 C -0.16862 0.33948 0.26382
 C183 C -0.18662 0.31874 0.27378
 C184 C -0.20388 0.31293 0.23824
 C185 C -0.20343 0.32991 0.19383
 C186 C -0.18571 0.35114 0.18445
 C187 C -0.14719 0.37434 0.20560
 N188 N -0.14864 0.39693 0.17126
 N189 N -0.12953 0.41187 0.15611
 C190 C -0.10821 0.40453 0.17434
 N191 N -0.10682 0.38223 0.20908
 N192 N -0.12593 0.36755 0.22459
 C193 C -0.08668 0.41824 0.15349
 C194 C -0.06675 0.40030 0.14782
 C195 C -0.04663 0.41207 0.12540
 C196 C -0.04554 0.44250 0.10945
 C197 C -0.06550 0.46067 0.11604
 C198 C -0.08599 0.44850 0.13722
 H199 H -0.15506 0.34256 0.29104
 H200 H -0.18638 0.30637 0.30854
 H201 H -0.21650 0.32641 0.16569
 H202 H -0.18545 0.36309 0.14930
 H203 H -0.06698 0.37672 0.15918
 H204 H -0.03213 0.39687 0.11955
 H205 H -0.06537 0.48427 0.10505
 H206 H -0.10120 0.46277 0.14135
 C207 C 0.33849 0.84326 0.68812
 C208 C 0.32200 0.83262 0.65415
 C209 C 0.30334 0.81427 0.66988
 C210 C 0.30073 0.80612 0.71995
 C211 C 0.31687 0.81737 0.75411
 C212 C 0.33551 0.83574 0.73839
 C213 C 0.35905 0.86125 0.67107
 N214 N 0.37516 0.87121 0.70375
 N215 N 0.39403 0.88647 0.68832
 C216 C 0.39764 0.89242 0.63952
 N217 N 0.38147 0.88261 0.60684
 N218 N 0.36259 0.86735 0.62228
 C219 C 0.41897 0.90877 0.62232
 C220 C 0.42307 0.91418 0.57168
 C221 C 0.44340 0.92910 0.55555
 C222 C 0.46011 0.93894 0.58966
 C223 C 0.45596 0.93366 0.64024
 C224 C 0.43565 0.91877 0.65639
 H225 H 0.32368 0.83804 0.61519
 H226 H 0.29121 0.80601 0.64261
 H227 H 0.31535 0.81154 0.79296
 H228 H 0.34782 0.84360 0.76562
 H229 H 0.41065 0.90671 0.54439
 H230 H 0.44623 0.93249 0.51629
 H231 H 0.46837 0.94133 0.66745
 H232 H 0.43308 0.91508 0.69565
 C233 C -0.16757 0.64737 -0.20184
 C234 C -0.16828 0.65971 -0.24993
 C235 C -0.18555 0.68057 -0.26306
 C236 C -0.20244 0.68962 -0.22836
 C237 C -0.20208 0.67670 -0.18071
 C238 C -0.18490 0.65580 -0.16764
 C239 C -0.14831 0.62697 -0.18660
 N240 N -0.14774 0.61509 -0.14014
 N241 N -0.12976 0.59832 -0.12532
 C242 C -0.11156 0.59267 -0.15631
 N243 N -0.11226 0.60422 -0.20300
 N244 N -0.13025 0.62099 -0.21784
 C245 C -0.09072 0.57604 -0.13844
 C246 C -0.07107 0.57223 -0.16927
 C247 C -0.05057 0.55938 -0.15079
 C248 C -0.04924 0.55001 -0.10111
 C249 C -0.06921 0.55255 -0.07092
 C250 C -0.08970 0.56541 -0.08935
 H251 H -0.15526 0.65367 -0.27726
 H252 H -0.18536 0.69007 -0.30011
 H253 H -0.21489 0.68308 -0.15314
 H254 H -0.18495 0.64674 -0.13032
 H255 H -0.07128 0.57993 -0.20736
 H256 H -0.03558 0.55729 -0.17517
 H257 H -0.06869 0.54583 -0.03236
 H258 H -0.10449 0.56787 -0.06456
 C259 C 0.33476 1.15409 0.30740
 C260 C 0.31597 1.15965 0.33959
 C261 C 0.29776 1.17872 0.32509
 C262 C 0.29773 1.19223 0.27765
 C263 C 0.31602 1.18522 0.24463
 C264 C 0.33443 1.16668 0.25957
 C265 C 0.35535 1.13696 0.32451
 N266 N 0.37671 1.14253 0.30408
 N267 N 0.39562 1.12853 0.32101
 C268 C 0.39395 1.10819 0.35883
 N269 N 0.37255 1.10225 0.37894
 N270 N 0.35363 1.11653 0.36230
 C271 C 0.41521 1.09351 0.37812
 C272 C 0.41433 1.06445 0.39964
 C273 C 0.43488 1.05030 0.41540
 C274 C 0.45662 1.06519 0.41072
 C275 C 0.45717 1.09478 0.39101
 C276 C 0.43679 1.10858 0.37437
 H277 H 0.31580 1.15026 0.37671
 H278 H 0.28394 1.18328 0.35151
 H279 H 0.31664 1.19495 0.20773
 H280 H 0.34861 1.16252 0.23384
 H281 H 0.39787 1.05235 0.40289
 H282 H 0.43380 1.02743 0.43002
 H283 H 0.47341 1.10739 0.38830
 H284 H 0.43791 1.13123 0.35879
 C285 C 1.16749 -0.15407 -0.18565
 C286 C 1.18579 -0.15854 -0.15215
 C287 C 1.20456 -0.17731 -0.16412
 C288 C 1.20569 -0.19153 -0.21037
 C289 C 1.18790 -0.18557 -0.24483
 C290 C 1.16889 -0.16740 -0.23231
 C291 C 1.14641 -0.13706 -0.17113
 N292 N 1.12529 -0.14419 -0.19052
 N293 N 1.10602 -0.12991 -0.17608
 C294 C 1.10711 -0.10771 -0.14199
 N295 N 1.12826 -0.10033 -0.12291
 N296 N 1.14752 -0.11488 -0.13695
 C297 C 1.08561 -0.09220 -0.12582
 C298 C 1.08633 -0.06201 -0.11055
 C299 C 1.06575 -0.04712 -0.09718
 C300 C 1.04404 -0.06232 -0.09770
 C301 C 1.04358 -0.09289 -0.11160
 C302 C 1.06407 -0.10750 -0.12610
 H303 H 1.18512 -0.14852 -0.11589
 H304 H 1.21795 -0.18108 -0.13667
 H305 H 1.18809 -0.19590 -0.28088
 H306 H 1.15510 -0.16407 -0.25900
 H307 H 1.10273 -0.04966 -0.11027
 H308 H 1.06682 -0.02348 -0.08751
 H309 H 1.02742 -0.10571 -0.11112
 H310 H 1.06309 -0.13096 -0.13700
 C311 C 0.66272 0.33386 0.33869
 C312 C 0.66180 0.31954 0.29273
 C313 C 0.68103 0.30353 0.27498
 C314 C 0.70142 0.30097 0.30326
 C315 C 0.70249 0.31558 0.34897
 C316 C 0.68339 0.33218 0.36627
 C317 C 0.64192 0.34960 0.35821
 N318 N 0.64407 0.37215 0.39150
 N319 N 0.62520 0.38612 0.40907
 C320 C 0.60344 0.37781 0.39449
 N321 N 0.60131 0.35517 0.36141
 N322 N 0.62016 0.34142 0.34350
 C323 C 0.58241 0.39328 0.41349
 C324 C 0.56068 0.37838 0.41408
 C325 C 0.54053 0.39328 0.42983
 C326 C 0.54152 0.42370 0.44434
 C327 C 0.56342 0.43840 0.44464
 C328 C 0.58367 0.42325 0.42979
 H329 H 0.64614 0.32063 0.27053
 H330 H 0.67967 0.29236 0.23974
 H331 H 0.71802 0.31401 0.37147
 H332 H 0.68456 0.34294 0.40187
 H333 H 0.55924 0.35511 0.40243
 H334 H 0.52415 0.38090 0.43041
 H335 H 0.56485 0.46191 0.45490
 H336 H 0.60019 0.43533 0.42949
 C337 C 0.83658 -0.14635 -0.20572
 C338 C 0.83411 -0.15668 -0.25426
 C339 C 0.81602 -0.17657 -0.26632
 C340 C 0.79995 -0.18681 -0.23002
 C341 C 0.80220 -0.17593 -0.18163
 C342 C 0.82023 -0.15594 -0.16971
 C343 C 0.85652 -0.12661 -0.19222
 N344 N 0.85830 -0.11556 -0.14585
 N345 N 0.87675 -0.09908 -0.13290
 C346 C 0.89426 -0.09292 -0.16573
 N347 N 0.89239 -0.10371 -0.21229
 N348 N 0.87390 -0.12017 -0.22527
 C349 C 0.91550 -0.07628 -0.15010
 C350 C 0.93474 -0.07249 -0.18232
 C351 C 0.95549 -0.05922 -0.16587
 C352 C 0.95742 -0.04938 -0.11692
 C353 C 0.93788 -0.05214 -0.08535
 C354 C 0.91719 -0.06539 -0.10172
 H355 H 0.84633 -0.14967 -0.28297
 H356 H 0.81490 -0.18425 -0.30405
 H357 H 0.79019 -0.18308 -0.15260
 H358 H 0.82157 -0.14842 -0.13194
 H359 H 0.93400 -0.08044 -0.21992
 H360 H 0.97014 -0.05706 -0.19125
 H361 H 0.93888 -0.04516 -0.04724
 H362 H 0.90274 -0.06784 -0.07591
 C363 C 0.33459 0.35361 0.31116
 C364 C 0.33356 0.34374 0.26209
 C365 C 0.31567 0.32435 0.24707
 C366 C 0.29843 0.31432 0.28081
 C367 C 0.29907 0.32485 0.32950
 C368 C 0.31691 0.34432 0.34448
 C369 C 0.35455 0.37225 0.32812
 N370 N 0.35538 0.38218 0.37532
 N371 N 0.37393 0.39733 0.39147
 C372 C 0.39249 0.40320 0.36116
 N373 N 0.39155 0.39358 0.31378
 N374 N 0.37297 0.37846 0.29759
 C375 C 0.41382 0.41807 0.38034
 C376 C 0.43392 0.42151 0.35046
 C377 C 0.45468 0.43293 0.37006
 C378 C 0.45579 0.44124 0.41990
 C379 C 0.43545 0.43891 0.44920
 C380 C 0.41473 0.42747 0.42967
 H381 H 0.34682 0.35053 0.23538
 H382 H 0.31566 0.31670 0.20925
 H383 H 0.28600 0.31763 0.35637
 H384 H 0.31711 0.35152 0.38254
 H385 H 0.43382 0.41467 0.31222
 H386 H 0.46997 0.43486 0.34638
 H387 H 0.43579 0.44481 0.48787
 H388 H 0.39960 0.42524 0.45375
 C389 C 0.16359 0.65375 -0.16795
 C390 C 0.17905 0.66518 -0.13253
 C391 C 0.19848 0.68257 -0.14703
 C392 C 0.20286 0.68891 -0.19724
 C393 C 0.18782 0.67666 -0.23267
 C394 C 0.16845 0.65929 -0.21822
 C395 C 0.14206 0.63712 -0.15276
 N396 N 0.12676 0.62719 -0.18713
 N397 N 0.10700 0.61322 -0.17367
 C398 C 0.10164 0.60860 -0.12522
 N399 N 0.11700 0.61839 -0.09080
 N400 N 0.13677 0.63239 -0.10427
 C401 C 0.07942 0.59347 -0.11040
 C402 C 0.07396 0.58821 -0.06030
 C403 C 0.05302 0.57384 -0.04654
 C404 C 0.03707 0.56447 -0.08256
 C405 C 0.04245 0.56992 -0.13257
 C406 C 0.06337 0.58421 -0.14634
 H407 H 0.17590 0.66125 -0.09351
 H408 H 0.20973 0.69168 -0.11882
 H409 H 0.19072 0.68104 -0.27167
 H410 H 0.15702 0.65072 -0.24655
 H411 H 0.08585 0.59515 -0.03163
 H412 H 0.04922 0.57030 -0.00767
 H413 H 0.03063 0.56262 -0.16117
 H414 H 0.06698 0.58788 -0.18526
 C415 C 0.66856 1.13979 0.29211
 C416 C 0.66967 1.15713 0.24838
 C417 C 0.68817 1.17724 0.23979
 C418 C 0.70583 1.18079 0.27507
 C419 C 0.70523 1.16261 0.31801
 C420 C 0.68684 1.14210 0.32628
 C421 C 0.64741 1.12161 0.30367
 N422 N 0.64782 1.09868 0.33756
 N423 N 0.62819 1.08408 0.35044
 C424 C 0.60740 1.09209 0.33029
 N425 N 0.60707 1.11477 0.29609
 N426 N 0.62667 1.12911 0.28288
 C427 C 0.58525 1.07854 0.34823
 C428 C 0.56517 1.09652 0.35065
 C429 C 0.54443 1.08497 0.37065
 C430 C 0.54291 1.05474 0.38746
 C431 C 0.56296 1.03644 0.38360
 C432 C 0.58402 1.04838 0.36482
 H433 H 0.65593 1.15569 0.22121
 H434 H 0.68812 1.19087 0.20629
 H435 H 0.71865 1.16475 0.34575
 H436 H 0.68640 1.12907 0.36040
 H437 H 0.56574 1.12001 0.33882
 H438 H 0.52980 1.10023 0.37431
 H439 H 0.56251 1.01294 0.39517
 H440 H 0.59929 1.03403 0.36300
 C441 C 0.16541 0.34861 0.17790
 C442 C 0.16531 0.33366 0.22394
 C443 C 0.18443 0.31641 0.23870
 C444 C 0.20396 0.31331 0.20744
 C445 C 0.20442 0.32903 0.16199
 C446 C 0.18538 0.34677 0.14754
 C447 C 0.14418 0.36443 0.16086
 N448 N 0.14533 0.38664 0.12577
 N449 N 0.12592 0.40015 0.10993
 C450 C 0.10463 0.39168 0.12814
 N451 N 0.10355 0.36947 0.16312
 N452 N 0.12291 0.35620 0.17925
 C453 C 0.08293 0.40604 0.11047
 C454 C 0.06166 0.39015 0.11369
 C455 C 0.04085 0.40377 0.09906
 C456 C 0.04069 0.43390 0.08181
 C457 C 0.06209 0.44965 0.07770
 C458 C 0.08304 0.43575 0.09153
 H459 H 0.15025 0.33489 0.24830
 H460 H 0.18350 0.30454 0.27390
 H461 H 0.21927 0.32710 0.13719
 H462 H 0.18590 0.35803 0.11182
 H463 H 0.06110 0.36704 0.12741
 H464 H 0.02486 0.39061 0.10137
 H465 H 0.06260 0.47296 0.06505
 H466 H 0.09920 0.44854 0.08883
 C467 C 0.66967 0.85832 0.68453
 C468 C 0.67219 0.84727 0.73308
 C469 C 0.69013 0.82714 0.74487
 C470 C 0.70595 0.81751 0.70839
 C471 C 0.70387 0.82922 0.66017
 C472 C 0.68596 0.84943 0.64839
 C473 C 0.64957 0.87780 0.67120
 N474 N 0.64715 0.88865 0.62440
 N475 N 0.62841 0.90463 0.61167
 C476 C 0.61125 0.91045 0.64514
 N477 N 0.61379 0.89990 0.69210
 N478 N 0.63255 0.88394 0.70485
 C479 C 0.58964 0.92639 0.62992
 C480 C 0.57093 0.93009 0.66332
 C481 C 0.54982 0.94270 0.64760
 C482 C 0.54697 0.95196 0.59819
 C483 C 0.56596 0.94924 0.56530
 C484 C 0.58702 0.93664 0.58096
 H485 H 0.66005 0.85372 0.76190
 H486 H 0.69126 0.81861 0.78242
 H487 H 0.71581 0.82232 0.63124
 H488 H 0.68459 0.85753 0.61064
 H489 H 0.57237 0.92260 0.70138
 H490 H 0.53560 0.94485 0.67395
 H491 H 0.56426 0.95577 0.52683
 H492 H 0.60104 0.93421 0.55423
 C493 C 0.83772 0.15234 0.18365
 C494 C 0.83527 0.16001 0.23363
 C495 C 0.81717 0.17889 0.24903
 C496 C 0.80113 0.19065 0.21481
 C497 C 0.80337 0.18268 0.16495
 C498 C 0.82142 0.16369 0.14956
 C499 C 0.85755 0.13340 0.16701
 N500 N 0.85934 0.12463 0.11926
 N501 N 0.87764 0.10868 0.10387
 C502 C 0.89496 0.10081 0.13553
 N503 N 0.89307 0.10936 0.18338
 N504 N 0.87475 0.12527 0.19880
 C505 C 0.91600 0.08467 0.11759
 C506 C 0.93524 0.07988 0.14875
 C507 C 0.95583 0.06707 0.13050
 C508 C 0.95759 0.05862 0.08078
 C509 C 0.93806 0.06232 0.05017
 C510 C 0.91752 0.07521 0.06832
 H511 H 0.84745 0.15163 0.26092
 H512 H 0.81593 0.18455 0.28773
 H513 H 0.79126 0.19130 0.13769
 H514 H 0.82278 0.15827 0.11078
 H515 H 0.93464 0.08673 0.18698
 H516 H 0.97050 0.06415 0.15512
 H517 H 0.93896 0.05633 0.01155
 H518 H 0.90303 0.07843 0.04331
 C519 C 0.33471 0.64232 0.71240
 C520 C 0.33328 0.65523 0.75950
 C521 C 0.31536 0.67544 0.77100
 C522 C 0.29850 0.68326 0.73561
 C523 C 0.29953 0.66967 0.68904
 C524 C 0.31738 0.64940 0.67760
 C525 C 0.35470 0.62278 0.69869
 N526 N 0.35599 0.61037 0.65315
 N527 N 0.37456 0.59434 0.63962
 C528 C 0.39268 0.59001 0.67100
 N529 N 0.39129 0.60211 0.71679
 N530 N 0.37269 0.61814 0.73035
 C531 C 0.41402 0.57392 0.65450
 C532 C 0.43341 0.57087 0.68580
 C533 C 0.45416 0.55790 0.66864
 C534 C 0.45598 0.54767 0.61984
 C535 C 0.43635 0.54986 0.58910
 C536 C 0.41563 0.56278 0.60623
 H537 H 0.34627 0.65020 0.78726
 H538 H 0.31505 0.68549 0.80725
 H539 H 0.28677 0.67511 0.66099
 H540 H 0.31786 0.63984 0.64101
 H541 H 0.43275 0.57905 0.72330
 H542 H 0.46888 0.55617 0.69341
 H543 H 0.43725 0.54258 0.55111
 H544 H 0.40108 0.56471 0.58107
   
