data_POSCAR
  _audit_creation_date              2014-09-24
  _audit_creation_method            'ToBaCCo'
  _symmetry_space_group_name_H-M    'P1'
  _symmetry_Int_Tables_number       1
  _symmetry_cell_setting            triclinic
  loop_
  _symmetry_equiv_pos_as_xyz
 x,y,z
_cell_length_a 36.4015
_cell_length_b 53.8290
_cell_length_c 40.3841
_cell_angle_alpha 90.000000
_cell_angle_beta 90.000800
_cell_angle_gamma 90.000600
loop_
  _atom_site_label
  _atom_site_type_symbol
  _atom_site_fract_x
  _atom_site_fract_y
  _atom_site_fract_z
O1 O 0.24873 0.27392 0.20694
 O2 O 0.29627 0.22563 0.25531
 O3 O 0.24899 0.22553 0.20691
 O4 O 0.29601 0.27401 0.25534
 O5 O 0.25041 0.27389 0.29153
 O6 O 0.20339 0.22540 0.24309
 O7 O 0.25067 0.22550 0.29150
 O8 O 0.20313 0.27379 0.24313
 Cu9 Cu 0.27710 0.24978 0.22747
 Cu10 Cu 0.22230 0.24963 0.27097
 C11 C 0.21791 0.28200 0.21688
 C12 C 0.28149 0.21742 0.28157
 C13 C 0.21825 0.21728 0.21682
 C14 C 0.28115 0.28213 0.28161
 O15 O 0.79603 0.27384 0.24425
 O16 O 0.74901 0.22532 0.29264
 O17 O 0.79632 0.22546 0.24425
 O18 O 0.74873 0.27370 0.29264
 O19 O 0.70314 0.27358 0.25644
 O20 O 0.75073 0.22533 0.20804
 O21 O 0.70343 0.22520 0.25644
 O22 O 0.75044 0.27372 0.20805
 Cu23 Cu 0.77712 0.24959 0.27210
 Cu24 Cu 0.72234 0.24944 0.22859
 C25 C 0.78117 0.28196 0.21799
 C26 C 0.71828 0.21707 0.28271
 C27 C 0.78156 0.21725 0.21797
 C28 C 0.71791 0.28179 0.28271
 O29 O 0.75118 0.77397 0.79283
 O30 O 0.70363 0.72559 0.74461
 O31 O 0.75096 0.72558 0.79298
 O32 O 0.70387 0.77398 0.74444
 O33 O 0.74944 0.77381 0.70823
 O34 O 0.79653 0.72542 0.75677
 O35 O 0.74921 0.72543 0.70839
 O36 O 0.79675 0.77380 0.75662
 Cu37 Cu 0.72281 0.74980 0.77237
 Cu38 Cu 0.77758 0.74960 0.72885
 C39 C 0.78199 0.78205 0.78286
 C40 C 0.71840 0.71735 0.71836
 C41 C 0.78169 0.71732 0.78307
 C42 C 0.71871 0.78206 0.71814
 O43 O 0.29620 0.77463 0.74420
 O44 O 0.24867 0.72631 0.79252
 O45 O 0.29595 0.72625 0.74412
 O46 O 0.24888 0.77470 0.79258
 O47 O 0.20330 0.77482 0.75638
 O48 O 0.25037 0.72638 0.70792
 O49 O 0.20308 0.72644 0.75632
 O50 O 0.25061 0.77476 0.70800
 Cu51 Cu 0.27702 0.75046 0.77201
 Cu52 Cu 0.22224 0.75061 0.72850
 C53 C 0.28143 0.78285 0.71794
 C54 C 0.21786 0.71822 0.78258
 C55 C 0.28110 0.71814 0.71784
 C56 C 0.21814 0.78294 0.78266
 C57 C 1.02080 0.01808 0.01802
 C58 C 0.98209 0.01802 0.01811
 C59 C 0.96296 -0.00006 0.00009
 C60 C 0.98209 -0.01810 -0.01801
 C61 C 1.02080 -0.01806 -0.01808
 C62 C 1.03993 0.00003 -0.00007
 H63 H 1.06973 0.00006 -0.00013
 H64 H 0.93316 -0.00010 0.00015
 C65 C 0.51859 0.51777 0.51852
 C66 C 0.47988 0.51795 0.51825
 C67 C 0.46071 0.50000 0.50004
 C68 C 0.47981 0.48186 0.48208
 C69 C 0.51851 0.48167 0.48235
 C70 C 0.53768 0.49963 0.50057
 H71 H 0.56748 0.49948 0.50077
 H72 H 0.43091 0.50014 0.49983
 C73 C -0.02053 0.48219 0.01809
 C74 C 0.01818 0.48216 0.01799
 C75 C 0.03729 0.50022 -0.00008
 C76 C 0.01814 0.51831 -0.01807
 C77 C -0.02057 0.51832 -0.01802
 C78 C -0.03968 0.50027 0.00007
 H79 H -0.06948 0.50029 0.00013
 H80 H 0.06709 0.50020 -0.00014
 C81 C 0.48168 0.98206 0.51782
 C82 C 0.52038 0.98203 0.51779
 C83 C 0.53952 1.00007 0.49970
 C84 C 0.52040 1.01812 0.48161
 C85 C 0.48169 1.01812 0.48160
 C86 C 0.46255 1.00010 0.49971
 H87 H 0.43275 1.00011 0.49972
 H88 H 0.56932 1.00006 0.49969
 C89 C 1.20092 0.19942 0.19897
 C90 C 1.18553 0.18357 0.18310
 C91 C 1.16714 0.16465 0.16414
 C92 C 1.14348 0.17132 0.13832
 C93 C 1.12557 0.15296 0.11990
 C94 C 1.13113 0.12765 0.12707
 C95 C 1.15499 0.12115 0.15309
 C96 C 1.17285 0.13954 0.17149
 C97 C 1.11208 0.10814 0.10754
 C98 C 1.13065 0.08628 0.09825
 C99 C 1.11268 0.06792 0.07988
 C100 C 1.07597 0.07115 0.07057
 C101 C 1.05726 0.09281 0.07967
 C102 C 1.07516 0.11119 0.09803
 C103 C 1.05733 0.05222 0.05186
 C104 C 1.04113 0.03655 0.03634
 H105 H 1.13895 0.19070 0.13236
 H106 H 1.10776 0.15856 0.09977
 H107 H 1.15946 0.10185 0.15950
 H108 H 1.19103 0.13418 0.19149
 H109 H 1.15920 0.08353 0.10482
 H110 H 1.12743 0.05124 0.07291
 H111 H 1.02880 0.09546 0.07264
 H112 H 1.05998 0.12764 0.10516
 C113 C 0.69989 0.69851 0.69959
 C114 C 0.68435 0.68268 0.68380
 C115 C 0.66581 0.66376 0.66496
 C116 C 0.62817 0.66584 0.65847
 C117 C 0.61013 0.64747 0.64018
 C118 C 0.62955 0.62675 0.62811
 C119 C 0.66739 0.62484 0.63476
 C120 C 0.68537 0.64323 0.65308
 C121 C 0.61041 0.60722 0.60868
 C122 C 0.62731 0.59647 0.58080
 C123 C 0.60922 0.57814 0.56248
 C124 C 0.57407 0.57028 0.57180
 C125 C 0.55704 0.58082 0.59951
 C126 C 0.57505 0.59917 0.61783
 C127 C 0.55526 0.55158 0.55283
 C128 C 0.53897 0.53607 0.53709
 H129 H 0.61279 0.68169 0.66747
 H130 H 0.58110 0.64964 0.63511
 H131 H 0.68300 0.60897 0.62619
 H132 H 0.71450 0.64140 0.65804
 H133 H 0.65429 0.60250 0.57287
 H134 H 0.62258 0.57017 0.54099
 H135 H 0.52987 0.57481 0.60699
 H136 H 0.56151 0.60684 0.63941
 C137 C -0.20053 0.30086 0.19915
 C138 C -0.18514 0.31674 0.18332
 C139 C -0.16674 0.33569 0.16444
 C140 C -0.18635 0.35631 0.15291
 C141 C -0.16851 0.37474 0.13457
 C142 C -0.13075 0.37279 0.12754
 C143 C -0.11128 0.35198 0.13926
 C144 C -0.12919 0.33356 0.15757
 C145 C -0.11175 0.39238 0.10811
 C146 C -0.07627 0.40033 0.11701
 C147 C -0.05840 0.41875 0.09870
 C148 C -0.07570 0.42945 0.07123
 C149 C -0.11097 0.42170 0.06216
 C150 C -0.12892 0.40329 0.08047
 C151 C -0.05704 0.44823 0.05228
 C152 C -0.04084 0.46381 0.03658
 H153 H -0.21541 0.35817 0.15816
 H154 H -0.18414 0.39068 0.12627
 H155 H -0.08232 0.34978 0.13390
 H156 H -0.11377 0.31764 0.16630
 H157 H -0.06251 0.39253 0.13839
 H158 H -0.03113 0.42468 0.10599
 H159 H -0.12454 0.42980 0.04086
 H160 H -0.15601 0.39735 0.07273
 C161 C 0.29995 0.80165 0.69912
 C162 C 0.31553 0.81744 0.68329
 C163 C 0.33415 0.83629 0.66440
 C164 C 0.31528 0.85767 0.65440
 C165 C 0.33334 0.87599 0.63604
 C166 C 0.37057 0.87317 0.62745
 C167 C 0.38930 0.85161 0.63764
 C168 C 0.37118 0.83330 0.65598
 C169 C 0.38979 0.89262 0.60795
 C170 C 0.42612 0.89942 0.61570
 C171 C 0.44418 0.91774 0.59735
 C172 C 0.42624 0.92947 0.57099
 C173 C 0.39012 0.92286 0.56307
 C174 C 0.37198 0.90457 0.58142
 C175 C 0.44504 0.94818 0.55203
 C176 C 0.46131 0.96371 0.53633
 H177 H 0.28664 0.86020 0.66087
 H178 H 0.31831 0.89251 0.62894
 H179 H 0.41782 0.84874 0.63105
 H180 H 0.38602 0.81680 0.66352
 H181 H 0.44041 0.89081 0.63623
 H182 H 0.47211 0.92279 0.60375
 H183 H 0.37603 0.93177 0.54264
 H184 H 0.34421 0.89952 0.57457
 C185 C -0.20096 0.69949 -0.19906
 C186 C -0.18554 0.68364 -0.18319
 C187 C -0.16712 0.66472 -0.16427
 C188 C -0.12979 0.66720 -0.15668
 C189 C -0.11184 0.64881 -0.13835
 C190 C -0.13105 0.62768 -0.12734
 C191 C -0.16859 0.62538 -0.13508
 C192 C -0.18647 0.64378 -0.15344
 C193 C -0.11200 0.60811 -0.10790
 C194 C -0.12949 0.59674 -0.08076
 C195 C -0.11149 0.57835 -0.06245
 C196 C -0.07585 0.57108 -0.07104
 C197 C -0.05822 0.58224 -0.09800
 C198 C -0.07614 0.60065 -0.11631
 C199 C -0.05715 0.55230 -0.05211
 C200 C -0.04092 0.53672 -0.03645
 H201 H -0.11457 0.68337 -0.16487
 H202 H -0.08306 0.65128 -0.13242
 H203 H -0.18401 0.60919 -0.12733
 H204 H -0.21535 0.64164 -0.15926
 H205 H -0.15689 0.60230 -0.07341
 H206 H -0.12532 0.56989 -0.04155
 H207 H -0.03066 0.57669 -0.10491
 H208 H -0.06212 0.60881 -0.13730
 C209 C 0.30000 1.19861 0.30040
 C210 C 0.31558 1.18282 0.31623
 C211 C 0.33419 1.16396 0.33511
 C212 C 0.37140 1.16671 0.34298
 C213 C 0.38952 1.14840 0.36131
 C214 C 0.37060 1.12706 0.37204
 C215 C 0.33317 1.12448 0.36400
 C216 C 0.31512 1.14281 0.34565
 C217 C 0.38981 1.10759 0.39152
 C218 C 0.37226 1.09598 0.41844
 C219 C 0.39040 1.07768 0.43678
 C220 C 0.42626 1.07073 0.42845
 C221 C 0.44395 1.08214 0.40170
 C222 C 0.42589 1.10046 0.38336
 C223 C 0.44506 1.05202 0.44740
 C224 C 0.46134 1.03648 0.46310
 H225 H 0.38640 1.18304 0.33502
 H226 H 0.41820 1.15108 0.36747
 H227 H 0.31798 1.10813 0.37152
 H228 H 0.28633 1.14046 0.33961
 H229 H 0.34469 1.10129 0.42560
 H230 H 0.37651 1.06903 0.45752
 H231 H 0.47168 1.07683 0.39498
 H232 H 0.43997 1.10881 0.36252
 C233 C 1.20080 -0.19921 -0.19948
 C234 C 1.18539 -0.18336 -0.18360
 C235 C 1.16699 -0.16446 -0.16463
 C236 C 1.14159 -0.17114 -0.14020
 C237 C 1.12369 -0.15279 -0.12176
 C238 C 1.13099 -0.12748 -0.12753
 C239 C 1.15659 -0.12097 -0.15215
 C240 C 1.17445 -0.13935 -0.17058
 C241 C 1.11197 -0.10797 -0.10796
 C242 C 1.13116 -0.08684 -0.09690
 C243 C 1.11321 -0.06849 -0.07848
 C244 C 1.07590 -0.07102 -0.07089
 C245 C 1.05656 -0.09195 -0.08175
 C246 C 1.07444 -0.11032 -0.10017
 C247 C 1.05730 -0.05213 -0.05209
 C248 C 1.04112 -0.03648 -0.03649
 H249 H 1.13569 -0.19053 -0.13534
 H250 H 1.10450 -0.15841 -0.10270
 H251 H 1.16245 -0.10165 -0.15748
 H252 H 1.19399 -0.13397 -0.18950
 H253 H 1.16016 -0.08465 -0.10212
 H254 H 1.12845 -0.05238 -0.07012
 H255 H 1.02765 -0.09406 -0.07606
 H256 H 1.05879 -0.12618 -0.10869
 C257 C 0.69939 0.30058 0.30156
 C258 C 0.68384 0.31638 0.31740
 C259 C 0.66530 0.33525 0.33632
 C260 C 0.64089 0.32852 0.36154
 C261 C 0.62286 0.34683 0.37994
 C262 C 0.62906 0.37216 0.37335
 C263 C 0.65367 0.37873 0.34794
 C264 C 0.67164 0.36038 0.32956
 C265 C 0.60995 0.39164 0.39289
 C266 C 0.62872 0.41323 0.40294
 C267 C 0.61068 0.43156 0.42130
 C268 C 0.57371 0.42858 0.42986
 C269 C 0.55479 0.40718 0.42002
 C270 C 0.57276 0.38883 0.40166
 C271 C 0.55502 0.44748 0.44856
 C272 C 0.53881 0.46317 0.46406
 H273 H 0.63585 0.30911 0.36704
 H274 H 0.60446 0.34118 0.39961
 H275 H 0.65865 0.39805 0.34198
 H276 H 0.69041 0.36579 0.31002
 H277 H 0.65746 0.41579 0.39695
 H278 H 0.62559 0.44804 0.42886
 H279 H 0.52613 0.40472 0.42647
 H280 H 0.55742 0.37259 0.39394
 C281 C 0.80050 -0.19912 -0.19836
 C282 C 0.81607 -0.18329 -0.18259
 C283 C 0.83467 -0.16438 -0.16378
 C284 C 0.81506 -0.14399 -0.15153
 C285 C 0.83310 -0.12561 -0.13326
 C286 C 0.87104 -0.12738 -0.12701
 C287 C 0.89050 -0.14796 -0.13944
 C288 C 0.87240 -0.16633 -0.15769
 C289 C 0.89024 -0.10785 -0.10763
 C290 C 0.92539 -0.09960 -0.11709
 C291 C 0.94343 -0.08121 -0.09884
 C292 C 0.92664 -0.07086 -0.07089
 C293 C 0.89171 -0.07893 -0.06125
 C294 C 0.87359 -0.09729 -0.07949
 C295 C 0.94546 -0.05209 -0.05204
 C296 C 0.96174 -0.03651 -0.03642
 H297 H 0.78586 -0.14227 -0.15619
 H298 H 0.81746 -0.10984 -0.12440
 H299 H 0.91961 -0.15002 -0.13468
 H300 H 0.88782 -0.18207 -0.16698
 H301 H 0.93873 -0.10712 -0.13886
 H302 H 0.97044 -0.07504 -0.10657
 H303 H 0.87854 -0.07110 -0.03957
 H304 H 0.84678 -0.10348 -0.07133
 C305 C 0.29946 0.30101 0.30046
 C306 C 0.31486 0.31688 0.31630
 C307 C 0.33328 0.33582 0.33520
 C308 C 0.31391 0.35675 0.34603
 C309 C 0.33178 0.37516 0.36439
 C310 C 0.36932 0.37287 0.37215
 C311 C 0.38854 0.35174 0.36113
 C312 C 0.37061 0.33335 0.34279
 C313 C 0.38835 0.39241 0.39163
 C314 C 0.42422 0.39988 0.38328
 C315 C 0.44213 0.41824 0.40167
 C316 C 0.42449 0.42937 0.42865
 C317 C 0.38882 0.42210 0.43716
 C318 C 0.37082 0.40376 0.41878
 C319 C 0.44319 0.44807 0.44769
 C320 C 0.45944 0.46357 0.46348
 H321 H 0.28503 0.35888 0.34021
 H322 H 0.31635 0.39134 0.37214
 H323 H 0.41731 0.34927 0.36707
 H324 H 0.38583 0.31718 0.33461
 H325 H 0.43826 0.39174 0.36228
 H326 H 0.46971 0.42379 0.39481
 H327 H 0.37497 0.43053 0.45809
 H328 H 0.34341 0.39819 0.42609
 C329 C 0.19936 0.69939 -0.19862
 C330 C 0.18383 0.68357 -0.18281
 C331 C 0.16530 0.66467 -0.16392
 C332 C 0.17135 0.63955 -0.17096
 C333 C 0.15335 0.62118 -0.15263
 C334 C 0.12900 0.62772 -0.12701
 C335 C 0.12310 0.65304 -0.12014
 C336 C 0.14116 0.67138 -0.13848
 C337 C 0.10981 0.60823 -0.10755
 C338 C 0.07272 0.61118 -0.09854
 C339 C 0.05469 0.59282 -0.08023
 C340 C 0.07345 0.57129 -0.07068
 C341 C 0.11033 0.56816 -0.07949
 C342 C 0.12842 0.58650 -0.09780
 C343 C 0.05471 0.55240 -0.05198
 C344 C 0.03847 0.53676 -0.03644
 H345 H 0.18991 0.63415 -0.19066
 H346 H 0.15810 0.60187 -0.15880
 H347 H 0.10491 0.65867 -0.10030
 H348 H 0.13635 0.69077 -0.13277
 H349 H 0.05750 0.62752 -0.10603
 H350 H 0.02611 0.59540 -0.07358
 H351 H 0.12512 0.55159 -0.07215
 H352 H 0.15710 0.58383 -0.10398
 C353 C 0.70094 1.19922 0.30056
 C354 C 0.68551 1.18337 0.31642
 C355 C 0.66708 1.16447 0.33537
 C356 C 0.67281 1.13935 0.32807
 C357 C 0.65490 1.12098 0.34646
 C358 C 0.63096 1.12751 0.37241
 C359 C 0.62540 1.15282 0.37954
 C360 C 0.64336 1.17116 0.36114
 C361 C 0.61186 1.10801 0.39193
 C362 C 0.57491 1.11108 0.40135
 C363 C 0.55696 1.09272 0.41971
 C364 C 0.57563 1.07107 0.42890
 C365 C 0.61237 1.06782 0.41967
 C366 C 0.63039 1.08616 0.40130
 C367 C 0.55695 1.05218 0.44764
 C368 C 0.54074 1.03654 0.46321
 H369 H 0.69104 1.13397 0.30812
 H370 H 0.65938 1.10168 0.34009
 H371 H 0.60753 1.15844 0.39963
 H372 H 0.63881 1.19055 0.36705
 H373 H 0.55975 1.12752 0.39414
 H374 H 0.52848 1.09538 0.42667
 H375 H 0.62709 1.05115 0.42672
 H376 H 0.65896 1.08340 0.39479
 C377 C 0.19941 0.30082 0.19806
 C378 C 0.18388 0.31665 0.18226
 C379 C 0.16534 0.33556 0.16341
 C380 C 0.14027 0.32888 0.13869
 C381 C 0.12223 0.34724 0.12037
 C382 C 0.12906 0.37256 0.12655
 C383 C 0.15434 0.37907 0.15145
 C384 C 0.17233 0.36068 0.16975
 C385 C 0.10989 0.39208 0.10713
 C386 C 0.12883 0.41344 0.09651
 C387 C 0.11074 0.43181 0.07825
 C388 C 0.07353 0.42908 0.07037
 C389 C 0.05444 0.40791 0.08079
 C390 C 0.07247 0.38952 0.09905
 C391 C 0.05479 0.44800 0.05174
 C392 C 0.03854 0.46368 0.03627
 H393 H 0.13474 0.30949 0.13351
 H394 H 0.10330 0.34163 0.10109
 H395 H 0.15982 0.39838 0.15709
 H396 H 0.19161 0.36605 0.18889
 H397 H 0.15774 0.41579 0.10196
 H398 H 0.12578 0.44810 0.07024
 H399 H 0.02561 0.40564 0.07487
 H400 H 0.05701 0.37347 0.10723
 C401 C 0.70037 0.80090 0.69923
 C402 C 0.68496 0.81672 0.68332
 C403 C 0.66658 0.83562 0.66431
 C404 C 0.67179 0.86072 0.67198
 C405 C 0.65395 0.87910 0.65353
 C406 C 0.63061 0.87257 0.62714
 C407 C 0.62556 0.84727 0.61964
 C408 C 0.64345 0.82893 0.63811
 C409 C 0.61160 0.89207 0.60755
 C410 C 0.57488 0.88882 0.59752
 C411 C 0.55700 0.90719 0.57912
 C412 C 0.57552 0.92903 0.57049
 C413 C 0.61203 0.93245 0.58032
 C414 C 0.62998 0.91411 0.59873
 C415 C 0.55689 0.94794 0.55174
 C416 C 0.54070 0.96359 0.53618
 H417 H 0.68955 0.86610 0.69228
 H418 H 0.65802 0.89838 0.66020
 H419 H 0.60817 0.84167 0.59921
 H420 H 0.63931 0.80955 0.63190
 H421 H 0.55984 0.87223 0.60429
 H422 H 0.52870 0.90438 0.57169
 H423 H 0.62663 0.94928 0.57371
 H424 H 0.65837 0.91702 0.60571
 C425 C 0.80010 0.19848 0.19912
 C426 C 0.81571 0.18270 0.18329
 C427 C 0.83435 0.16386 0.16440
 C428 C 0.81538 0.14262 0.15403
 C429 C 0.83347 0.12430 0.13569
 C430 C 0.87084 0.12698 0.12750
 C431 C 0.88966 0.14840 0.13805
 C432 C 0.87151 0.16671 0.15637
 C433 C 0.89010 0.10751 0.10806
 C434 C 0.92626 0.10051 0.11612
 C435 C 0.94435 0.08218 0.09781
 C436 C 0.92661 0.07065 0.07119
 C437 C 0.89067 0.07747 0.06295
 C438 C 0.87250 0.09577 0.08126
 C439 C 0.94545 0.05193 0.05227
 C440 C 0.96174 0.03638 0.03660
 H441 H 0.78664 0.14020 0.16020
 H442 H 0.81836 0.10789 0.12831
 H443 H 0.91829 0.15116 0.13177
 H444 H 0.88643 0.18311 0.16419
 H445 H 0.94038 0.10896 0.13686
 H446 H 0.97214 0.07697 0.10446
 H447 H 0.87674 0.06872 0.04231
 H448 H 0.84486 0.10098 0.07417
 C449 C 0.29944 0.69928 0.69897
 C450 C 0.31486 0.68344 0.68310
 C451 C 0.33329 0.66454 0.66415
 C452 C 0.32573 0.63943 0.67000
 C453 C 0.34363 0.62105 0.65162
 C454 C 0.36939 0.62756 0.62711
 C455 C 0.37678 0.65287 0.62143
 C456 C 0.35883 0.67121 0.63983
 C457 C 0.38848 0.60805 0.60761
 C458 C 0.42606 0.61036 0.60002
 C459 C 0.44402 0.59198 0.58170
 C460 C 0.42470 0.57107 0.57071
 C461 C 0.38733 0.56859 0.57809
 C462 C 0.36931 0.58695 0.59642
 C463 C 0.44338 0.55215 0.55203
 C464 C 0.45958 0.53646 0.53654
 H465 H 0.30608 0.63405 0.68884
 H466 H 0.33770 0.60174 0.65688
 H467 H 0.39609 0.65849 0.60246
 H468 H 0.36480 0.69060 0.63504
 H469 H 0.44170 0.62620 0.60864
 H470 H 0.47298 0.59405 0.57617
 H471 H 0.37211 0.55250 0.56964
 H472 H 0.34027 0.58480 0.60148
   
