data_POSCAR
  _audit_creation_date              2014-09-24
  _audit_creation_method            'ToBaCCo'
  _symmetry_space_group_name_H-M    'P1'
  _symmetry_Int_Tables_number       1
  _symmetry_cell_setting            triclinic
  loop_
  _symmetry_equiv_pos_as_xyz
 x,y,z
_cell_length_a 43.5754
_cell_length_b 44.7775
_cell_length_c 45.0945
_cell_angle_alpha 90.054000
_cell_angle_beta 90.018800
_cell_angle_gamma 89.949900
loop_
  _atom_site_label
  _atom_site_type_symbol
  _atom_site_fract_x
  _atom_site_fract_y
  _atom_site_fract_z
O1 O 0.37699 0.33474 -0.02997
 O2 O 0.33571 0.37739 0.02736
 O3 O 0.37647 0.33452 0.02777
 O4 O 0.33588 0.37699 -0.03051
 O5 O 0.29833 0.34408 -0.02946
 O6 O 0.33966 0.30075 0.02707
 O7 O 0.29925 0.34325 0.02786
 O8 O 0.33949 0.30170 -0.03080
 Cu9 Cu 0.35998 0.35928 -0.00131
 Cu10 Cu 0.31555 0.31903 -0.00142
 C11 C 0.36522 0.31097 -0.04031
 C12 C 0.31044 0.36758 0.03747
 C13 C 0.36498 0.31027 0.03732
 C14 C 0.30988 0.36798 -0.03974
 O15 O 0.62267 0.66688 -0.02704
 O16 O 0.66401 0.62301 0.02925
 O17 O 0.62292 0.66567 0.03035
 O18 O 0.66321 0.62401 -0.02847
 O19 O 0.70140 0.65615 -0.02629
 O20 O 0.65924 0.69994 0.02963
 O21 O 0.69994 0.65769 0.03119
 O22 O 0.66086 0.69921 -0.02813
 Cu23 Cu 0.63950 0.64150 0.00099
 Cu24 Cu 0.68406 0.68162 0.00156
 C25 C 0.63479 0.69051 -0.03728
 C26 C 0.68892 0.63303 0.04003
 C27 C 0.63394 0.69020 0.03972
 C28 C 0.68953 0.63260 -0.03711
 O29 O 0.66387 0.37752 0.97411
 O30 O 0.62151 0.33577 1.03130
 O31 O 0.66345 0.37770 1.03201
 O32 O 0.62196 0.33575 0.97411
 O33 O 0.65868 0.30175 0.97395
 O34 O 0.69925 0.34294 1.03261
 O35 O 0.65790 0.30143 1.03160
 O36 O 0.70025 0.34324 0.97470
 Cu37 Cu 0.63914 0.36025 1.00287
 Cu38 Cu 0.68271 0.31897 1.00324
 C39 C 0.68929 0.36745 0.96454
 C40 C 0.63235 0.31130 1.04097
 C41 C 0.68843 0.36739 1.04243
 C42 C 0.63319 0.31149 0.96429
 O43 O 0.37783 0.66492 1.02632
 O44 O 0.33625 0.62205 0.96911
 O45 O 0.37833 0.66365 0.96848
 O46 O 0.33672 0.62290 1.02697
 O47 O 0.30004 0.65679 1.02581
 O48 O 0.34165 0.69761 0.96758
 O49 O 0.30005 0.65651 0.96843
 O50 O 0.34152 0.69929 1.02516
 Cu51 Cu 0.36094 0.63994 0.99778
 Cu52 Cu 0.31720 0.68100 0.99682
 C53 C 0.36680 0.68959 1.03534
 C54 C 0.31098 0.63199 0.95901
 C55 C 0.36707 0.68761 0.95800
 C56 C 0.31107 0.63269 1.03628
 O57 O -0.02868 0.37661 0.33664
 O58 O 0.03326 0.33728 0.37627
 O59 O 0.03085 0.37862 0.33543
 O60 O -0.02623 0.33497 0.37726
 O61 O -0.02780 0.30193 0.34104
 O62 O 0.03352 0.34261 0.30208
 O63 O 0.03171 0.30129 0.34283
 O64 O -0.02589 0.34340 0.30054
 Cu65 Cu 0.00223 0.36036 0.35991
 Cu66 Cu 0.00296 0.31882 0.31814
 C67 C -0.03726 0.36712 0.31141
 C68 C 0.04247 0.31214 0.36669
 C69 C 0.04208 0.36796 0.31167
 C70 C -0.03701 0.31101 0.36624
 O71 O 0.02708 0.66207 0.62313
 O72 O -0.03438 0.62244 0.66317
 O73 O -0.03271 0.66351 0.62205
 O74 O 0.02509 0.62094 0.66428
 O75 O 0.02646 0.65678 0.69787
 O76 O -0.03343 0.69779 0.65713
 O77 O -0.03336 0.65707 0.69798
 O78 O 0.02590 0.69786 0.65678
 Cu79 Cu -0.00372 0.63874 0.63967
 Cu80 Cu -0.00351 0.68083 0.68093
 C81 C 0.03656 0.68705 0.63288
 C82 C -0.04416 0.63288 0.68762
 C83 C -0.04311 0.68795 0.63238
 C84 C 0.03566 0.63162 0.68830
 O85 O 0.97149 0.66278 0.37845
 O86 O 1.03242 0.62248 0.33806
 O87 O 1.03126 0.66330 0.37947
 O88 O 0.97262 0.62202 0.33698
 O89 O 0.97242 0.65774 0.30336
 O90 O 1.03220 0.69794 0.34480
 O91 O 1.03225 0.65764 0.30383
 O92 O 0.97290 0.69857 0.34486
 Cu93 Cu 1.00187 0.63907 0.36165
 Cu94 Cu 1.00235 0.68143 0.32073
 C95 C 0.96219 0.68785 0.36876
 C96 C 1.04277 0.63327 0.31400
 C97 C 1.04189 0.68771 0.36937
 C98 C 0.96245 0.63287 0.31288
 O99 O 0.96795 0.33922 0.62032
 O100 O 1.02947 0.37896 0.66024
 O101 O 1.02769 0.33730 0.61964
 O102 O 0.96955 0.38001 0.66187
 O103 O 0.97078 0.34571 0.69696
 O104 O 1.02692 0.30240 0.65404
 O105 O 1.03007 0.34348 0.69415
 O106 O 0.96716 0.30503 0.65549
 Cu107 Cu 0.99863 0.36238 0.63705
 Cu108 Cu 0.99859 0.32064 0.67856
 C109 C 0.95703 0.31529 0.63110
 C110 C 1.04044 0.36788 0.68392
 C111 C 1.03729 0.31243 0.62968
 C112 C 0.96063 0.37028 0.68691
 O113 O 0.37837 0.02604 0.33525
 O114 O 0.33677 -0.02973 0.37993
 O115 O 0.37692 -0.03182 0.33725
 O116 O 0.33843 0.02858 0.37870
 O117 O 0.30118 0.02906 0.34557
 O118 O 0.33888 -0.03205 0.30496
 O119 O 0.29866 -0.02868 0.34769
 O120 O 0.34056 0.02615 0.30267
 Cu121 Cu 0.36138 -0.00169 0.36111
 Cu122 Cu 0.31608 -0.00143 0.32192
 C123 C 0.36659 0.03549 0.31124
 C124 C 0.31048 -0.03858 0.37147
 C125 C 0.36445 -0.04226 0.31399
 C126 C 0.31321 0.03917 0.36919
 O127 O 0.62299 0.03114 0.66524
 O128 O 0.66293 -0.02703 0.62224
 O129 O 0.62253 -0.02703 0.66528
 O130 O 0.66334 0.03094 0.62266
 O131 O 0.70148 0.02910 0.65482
 O132 O 0.65952 -0.02666 0.69867
 O133 O 0.69946 -0.02869 0.65613
 O134 O 0.66104 0.03151 0.69749
 Cu135 Cu 0.63914 0.00201 0.64058
 Cu136 Cu 0.68408 0.00134 0.68013
 C137 C 0.63530 0.04144 0.68864
 C138 C 0.68801 -0.03780 0.63187
 C139 C 0.63397 -0.03660 0.68941
 C140 C 0.68967 0.03953 0.63125
 O141 O 0.37830 0.97025 0.66565
 O142 O 0.33744 1.02887 0.62399
 O143 O 0.37931 1.02813 0.66561
 O144 O 0.33690 0.97054 0.62411
 O145 O 0.30165 0.96977 0.65920
 O146 O 0.34169 1.03049 0.69830
 O147 O 0.29998 1.02768 0.65690
 O148 O 0.34305 0.97270 0.70072
 Cu149 Cu 0.36160 0.99946 0.64135
 Cu150 Cu 0.31791 1.00026 0.68216
 C151 C 0.36790 0.96191 0.69062
 C152 C 0.31143 1.03788 0.63309
 C153 C 0.36773 1.03915 0.68905
 C154 C 0.31221 0.95998 0.63479
 O155 O 0.66401 1.02881 0.37650
 O156 O 0.61989 0.97288 0.33399
 O157 O 0.66132 0.97060 0.37602
 O158 O 0.62166 1.03076 0.33542
 O159 O 0.65782 1.02976 0.30121
 O160 O 0.69759 0.96994 0.34191
 O161 O 0.65662 0.97167 0.30031
 O162 O 0.69988 1.02814 0.34209
 Cu163 Cu 0.63813 1.00084 0.35896
 Cu164 Cu 0.68162 0.99984 0.31801
 C165 C 0.68955 1.03817 0.36649
 C166 C 0.63080 0.96275 0.30984
 C167 C 0.68624 0.95995 0.36588
 C168 C 0.63283 1.04039 0.31124
 C169 C 0.81023 0.81280 0.51379
 C170 C 0.81022 0.81123 0.48363
 C171 C 0.83247 0.79202 0.46778
 C172 C 0.79032 0.83046 0.46492
 C173 C 0.79110 0.83463 0.53044
 C174 C 0.83088 0.79353 0.53168
 C175 C 0.86377 0.79923 0.46786
 C176 C 0.88462 0.78175 0.45198
 C177 C 0.87450 0.75659 0.43617
 C178 C 0.84321 0.74913 0.43651
 C179 C 0.82225 0.76698 0.45193
 C180 C 0.80387 0.84936 0.44388
 C181 C 0.78592 0.86893 0.42721
 C182 C 0.75389 0.86982 0.43090
 C183 C 0.74023 0.85033 0.45151
 C184 C 0.75829 0.83076 0.46833
 C185 C 0.77350 0.82487 0.55464
 C186 C 0.75610 0.84516 0.57112
 C187 C 0.75576 0.87553 0.56348
 C188 C 0.77345 0.88539 0.53942
 C189 C 0.79141 0.86521 0.52336
 C190 C 0.82843 0.76230 0.53074
 C191 C 0.84828 0.74448 0.54752
 C192 C 0.87093 0.75760 0.56558
 C193 C 0.87311 0.78894 0.56651
 C194 C 0.85316 0.80669 0.54988
 H195 H 0.87191 0.81862 0.47988
 H196 H 0.90869 0.78780 0.45208
 H197 H 0.83494 0.72993 0.42428
 H198 H 0.79811 0.76126 0.45163
 H199 H 0.82854 0.84963 0.44100
 H200 H 0.79730 0.88395 0.41198
 H201 H 0.74737 0.81609 0.48421
 H202 H 0.77322 0.80148 0.56075
 H203 H 0.74265 0.83714 0.58967
 H204 H 0.77393 0.90883 0.53353
 H205 H 0.80571 0.87351 0.50557
 H206 H 0.81105 0.75178 0.51711
 H207 H 0.84564 0.72046 0.54663
 H208 H 0.89058 0.79980 0.57974
 H209 H 0.85542 0.83077 0.55081
 H210 H 0.71560 0.85014 0.45458
 C211 C 0.18983 0.18862 0.51672
 C212 C 0.19034 0.18932 0.48663
 C213 C 0.16884 0.20843 0.46984
 C214 C 0.20980 0.16864 0.46908
 C215 C 0.20812 0.16649 0.53340
 C216 C 0.16853 0.20769 0.53405
 C217 C 0.13752 0.20137 0.46889
 C218 C 0.11740 0.21870 0.45204
 C219 C 0.12828 0.24357 0.43628
 C220 C 0.15958 0.25087 0.43766
 C221 C 0.17982 0.23316 0.45407
 C222 C 0.19588 0.14841 0.44954
 C223 C 0.21363 0.12837 0.43321
 C224 C 0.24579 0.12829 0.43580
 C225 C 0.25976 0.14875 0.45531
 C226 C 0.24190 0.16879 0.47177
 C227 C 0.23363 0.17570 0.54996
 C228 C 0.25109 0.15476 0.56558
 C229 C 0.24275 0.12447 0.56538
 C230 C 0.21699 0.11537 0.54898
 C231 C 0.19992 0.13622 0.53291
 C232 C 0.17043 0.23895 0.53294
 C233 C 0.14946 0.25658 0.54867
 C234 C 0.12617 0.24324 0.56575
 C235 C 0.12451 0.21187 0.56678
 C236 C 0.14558 0.19432 0.55127
 H237 H 0.12882 0.18221 0.48087
 H238 H 0.09331 0.21281 0.45138
 H239 H 0.16842 0.26986 0.42551
 H240 H 0.20400 0.23874 0.45458
 H241 H 0.17114 0.14777 0.44731
 H242 H 0.20207 0.11255 0.41888
 H243 H 0.25307 0.18450 0.48649
 H244 H 0.24013 0.19904 0.55052
 H245 H 0.27075 0.16224 0.57826
 H246 H 0.21027 0.09209 0.54845
 H247 H 0.18020 0.12885 0.52024
 H248 H 0.18817 0.24964 0.51992
 H249 H 0.15171 0.28063 0.54772
 H250 H 0.10656 0.20080 0.57918
 H251 H 0.14354 0.17024 0.55217
 H252 H 0.28448 0.14951 0.45755
 C253 C 0.18969 0.81062 0.48822
 C254 C 0.18905 0.80957 0.51830
 C255 C 0.16679 0.79045 0.53410
 C256 C 0.20819 0.82976 0.53667
 C257 C 0.20835 0.83305 0.47234
 C258 C 0.16937 0.79151 0.46992
 C259 C 0.13547 0.79765 0.53381
 C260 C 0.11456 0.78026 0.54963
 C261 C 0.12464 0.75519 0.56560
 C262 C 0.15595 0.74773 0.56545
 C263 C 0.17696 0.76550 0.55007
 C264 C 0.19401 0.84984 0.55622
 C265 C 0.21155 0.86995 0.57269
 C266 C 0.24371 0.87022 0.57017
 C267 C 0.25792 0.84965 0.55095
 C268 C 0.24030 0.82957 0.53438
 C269 C 0.23366 0.82400 0.45540
 C270 C 0.25105 0.84512 0.44000
 C271 C 0.24285 0.87545 0.44078
 C272 C 0.21735 0.88442 0.45765
 C273 C 0.20035 0.86338 0.47350
 C274 C 0.17148 0.76027 0.47102
 C275 C 0.15154 0.74258 0.45419
 C276 C 0.12912 0.75588 0.43599
 C277 C 0.12728 0.78723 0.43493
 C278 C 0.14732 0.80483 0.45157
 H279 H 0.12736 0.81696 0.52165
 H280 H 0.09049 0.78631 0.54939
 H281 H 0.16417 0.72859 0.57779
 H282 H 0.20112 0.75979 0.55052
 H283 H 0.16924 0.85046 0.55818
 H284 H 0.19983 0.88579 0.58689
 H285 H 0.25167 0.81394 0.51969
 H286 H 0.23998 0.80063 0.45425
 H287 H 0.27049 0.83775 0.42693
 H288 H 0.21071 0.90771 0.45861
 H289 H 0.18072 0.87061 0.48637
 H290 H 0.18860 0.74962 0.48487
 H291 H 0.15389 0.71854 0.45520
 H292 H 0.10995 0.79824 0.42165
 H293 H 0.14518 0.82891 0.45062
 H294 H 0.28266 0.84896 0.54885
 C295 C 0.81505 0.18595 0.48188
 C296 C 0.81288 0.18664 0.51202
 C297 C 0.83125 0.20729 0.53066
 C298 C 0.79355 0.16482 0.52811
 C299 C 0.79595 0.16495 0.46429
 C300 C 0.83698 0.20498 0.46502
 C301 C 0.85047 0.19548 0.55268
 C302 C 0.86900 0.21421 0.56969
 C303 C 0.86848 0.24529 0.56534
 C304 C 0.84867 0.25720 0.54368
 C305 C 0.83014 0.23835 0.52654
 C306 C 0.80164 0.13450 0.52859
 C307 C 0.78427 0.11419 0.54499
 C308 C 0.75834 0.12385 0.56082
 C309 C 0.75000 0.15415 0.55991
 C310 C 0.76773 0.17456 0.54394
 C311 C 0.76381 0.16686 0.46472
 C312 C 0.74608 0.14655 0.44854
 C313 C 0.76019 0.12395 0.43163
 C314 C 0.79245 0.12235 0.43115
 C315 C 0.81013 0.14277 0.44716
 C316 C 0.82683 0.22037 0.43969
 C317 C 0.84715 0.23789 0.42322
 C318 C 0.87787 0.24061 0.43203
 C319 C 0.88822 0.22509 0.45711
 C320 C 0.86810 0.20694 0.47313
 H321 H 0.85178 0.17158 0.55615
 H322 H 0.88435 0.20420 0.58574
 H323 H 0.84741 0.28106 0.54006
 H324 H 0.81513 0.24792 0.50992
 H325 H 0.82169 0.12673 0.51665
 H326 H 0.79101 0.09090 0.54529
 H327 H 0.76135 0.19794 0.54387
 H328 H 0.75251 0.18412 0.47755
 H329 H 0.72135 0.14878 0.44901
 H330 H 0.80409 0.10497 0.41879
 H331 H 0.83491 0.14095 0.44666
 H332 H 0.80308 0.21893 0.43273
 H333 H 0.83885 0.24962 0.40381
 H334 H 0.91201 0.22658 0.46391
 H335 H 0.87690 0.19434 0.49175
 H336 H 0.73023 0.16209 0.57215
 C337 C 0.51766 0.81602 0.81604
 C338 C 0.48645 0.81519 0.81455
 C339 C 0.46937 0.83661 0.79582
 C340 C 0.46772 0.79485 0.83317
 C341 C 0.53530 0.79780 0.83770
 C342 C 0.53561 0.83644 0.79675
 C343 C 0.46920 0.86709 0.80296
 C344 C 0.45258 0.88722 0.78562
 C345 C 0.43625 0.87717 0.76070
 C346 C 0.43665 0.84666 0.75345
 C347 C 0.45282 0.82644 0.77114
 C348 C 0.44530 0.80692 0.85199
 C349 C 0.42848 0.78850 0.87086
 C350 C 0.43343 0.75746 0.87110
 C351 C 0.45547 0.74528 0.85172
 C352 C 0.47242 0.76382 0.83286
 C353 C 0.56048 0.78082 0.82802
 C354 C 0.57721 0.76350 0.84809
 C355 C 0.56884 0.76270 0.87812
 C356 C 0.54404 0.78010 0.88794
 C357 C 0.52774 0.79791 0.86800
 C358 C 0.53362 0.83457 0.76573
 C359 C 0.54989 0.85454 0.74787
 C360 C 0.56861 0.87664 0.76071
 C361 C 0.57087 0.87809 0.79180
 C362 C 0.55463 0.85809 0.80961
 H363 H 0.48175 0.87518 0.82209
 H364 H 0.45264 0.91068 0.79150
 H365 H 0.42402 0.83848 0.73442
 H366 H 0.45269 0.80293 0.76550
 H367 H 0.44141 0.83081 0.85271
 H368 H 0.41212 0.79871 0.88582
 H369 H 0.48937 0.75404 0.81821
 H370 H 0.56697 0.78072 0.80483
 H371 H 0.59631 0.75026 0.84009
 H372 H 0.53757 0.78020 0.91113
 H373 H 0.50918 0.81170 0.87622
 H374 H 0.51944 0.81765 0.75540
 H375 H 0.54807 0.85251 0.72401
 H376 H 0.58473 0.89507 0.80241
 H377 H 0.55641 0.85988 0.83351
 H378 H 0.45953 0.72144 0.85105
 C379 C 0.51266 0.18349 0.18332
 C380 C 0.48133 0.18232 0.18347
 C381 C 0.46424 0.16045 0.20204
 C382 C 0.46256 0.20223 0.16429
 C383 C 0.52993 0.20292 0.16242
 C384 C 0.53147 0.16460 0.20343
 C385 C 0.47158 0.12986 0.20151
 C386 C 0.45590 0.10978 0.21971
 C387 C 0.43187 0.11974 0.23792
 C388 C 0.42371 0.15006 0.23762
 C389 C 0.43986 0.17027 0.21993
 C390 C 0.44196 0.18966 0.14393
 C391 C 0.42552 0.20784 0.12442
 C392 C 0.42906 0.23906 0.12508
 C393 C 0.44911 0.25167 0.14613
 C394 C 0.46562 0.23342 0.16562
 C395 C 0.55354 0.22130 0.17320
 C396 C 0.57035 0.23931 0.15385
 C397 C 0.56357 0.23947 0.12344
 C398 C 0.54018 0.22095 0.11255
 C399 C 0.52387 0.20241 0.13180
 C400 C 0.52780 0.16588 0.23433
 C401 C 0.54504 0.14716 0.25275
 C402 C 0.56636 0.12692 0.24059
 C403 C 0.57030 0.12620 0.20964
 C404 C 0.55318 0.14497 0.19130
 H405 H 0.48950 0.12153 0.18708
 H406 H 0.46218 0.08638 0.21923
 H407 H 0.40518 0.15816 0.25147
 H408 H 0.43355 0.19366 0.22044
 H409 H 0.43930 0.16565 0.14254
 H410 H 0.41064 0.19733 0.10827
 H411 H 0.48107 0.24357 0.18151
 H412 H 0.55887 0.22180 0.19666
 H413 H 0.58838 0.25341 0.16263
 H414 H 0.53499 0.22041 0.08906
 H415 H 0.50659 0.18761 0.12277
 H416 H 0.51147 0.18125 0.24411
 H417 H 0.54181 0.14863 0.27651
 H418 H 0.58610 0.11059 0.19947
 H419 H 0.55632 0.14366 0.16751
 H420 H 0.45195 0.27564 0.14758
 C421 C 0.48574 0.18492 0.81550
 C422 C 0.51705 0.18584 0.81662
 C423 C 0.53623 0.16717 0.79666
 C424 C 0.53386 0.20481 0.83839
 C425 C 0.46655 0.20458 0.83447
 C426 C 0.46891 0.16361 0.79603
 C427 C 0.55746 0.14714 0.80892
 C428 C 0.57451 0.12821 0.79065
 C429 C 0.57091 0.12915 0.75967
 C430 C 0.55026 0.14992 0.74738
 C431 C 0.53314 0.16883 0.76572
 C432 C 0.52675 0.20401 0.86880
 C433 C 0.54260 0.22215 0.88884
 C434 C 0.56656 0.24055 0.87901
 C435 C 0.57438 0.24065 0.84884
 C436 C 0.55806 0.22305 0.82868
 C437 C 0.46960 0.23577 0.83355
 C438 C 0.45227 0.25379 0.85258
 C439 C 0.43146 0.24093 0.87271
 C440 C 0.42798 0.20971 0.87297
 C441 C 0.44522 0.19176 0.85392
 C442 C 0.44485 0.17403 0.77804
 C443 C 0.42831 0.15427 0.76016
 C444 C 0.43575 0.12378 0.75973
 C445 C 0.45963 0.11326 0.77782
 C446 C 0.47572 0.13291 0.79620
 H447 H 0.56017 0.14556 0.83275
 H448 H 0.58988 0.11224 0.80087
 H449 H 0.54736 0.15156 0.72360
 H450 H 0.51723 0.18453 0.75584
 H451 H 0.50901 0.18930 0.87705
 H452 H 0.53657 0.22138 0.91213
 H453 H 0.56420 0.22378 0.80542
 H454 H 0.48561 0.24608 0.81832
 H455 H 0.45510 0.27778 0.85148
 H456 H 0.41250 0.19905 0.88846
 H457 H 0.44254 0.16773 0.85491
 H458 H 0.43895 0.19753 0.77779
 H459 H 0.40993 0.16282 0.74639
 H460 H 0.46537 0.08972 0.77818
 H461 H 0.49336 0.12412 0.81067
 H462 H 0.59285 0.25467 0.84084
 C463 C 0.48156 0.81391 0.18464
 C464 C 0.51277 0.81593 0.18440
 C465 C 0.52974 0.83760 0.20333
 C466 C 0.53143 0.79689 0.16430
 C467 C 0.46518 0.79514 0.16272
 C468 C 0.46221 0.83178 0.20513
 C469 C 0.52163 0.86800 0.20405
 C470 C 0.53761 0.88795 0.22221
 C471 C 0.56264 0.87808 0.23917
 C472 C 0.57137 0.84793 0.23778
 C473 C 0.55498 0.82785 0.22011
 C474 C 0.55074 0.81019 0.14327
 C475 C 0.56784 0.79254 0.12376
 C476 C 0.56618 0.76119 0.12509
 C477 C 0.54719 0.74794 0.14661
 C478 C 0.53004 0.76563 0.16607
 C479 C 0.44900 0.76979 0.17206
 C480 C 0.43351 0.75205 0.15139
 C481 C 0.43337 0.75991 0.12124
 C482 C 0.44932 0.78551 0.11202
 C483 C 0.46531 0.80288 0.13259
 C484 C 0.46662 0.83067 0.23595
 C485 C 0.44957 0.84925 0.25471
 C486 C 0.42770 0.86916 0.24298
 C487 C 0.42277 0.86948 0.21216
 C488 C 0.43971 0.85086 0.19349
 H489 H 0.50300 0.87633 0.19049
 H490 H 0.53085 0.91123 0.22255
 H491 H 0.59065 0.83987 0.25066
 H492 H 0.56188 0.80461 0.21968
 H493 H 0.55211 0.83429 0.14162
 H494 H 0.58189 0.80348 0.10723
 H495 H 0.51568 0.75497 0.18254
 H496 H 0.44865 0.76364 0.19528
 H497 H 0.42117 0.73251 0.15896
 H498 H 0.44957 0.79189 0.08886
 H499 H 0.47757 0.82252 0.12513
 H500 H 0.48357 0.81574 0.24540
 H501 H 0.45356 0.84809 0.27838
 H502 H 0.40649 0.88481 0.20231
 H503 H 0.43600 0.85213 0.16977
 H504 H 0.54581 0.72389 0.14859
 C505 C 0.80945 0.51476 0.81436
 C506 C 0.81077 0.48447 0.81381
 C507 C 0.79226 0.46612 0.83444
 C508 C 0.83286 0.46854 0.79450
 C509 C 0.82893 0.53321 0.79468
 C510 C 0.79066 0.53084 0.83655
 C511 C 0.80702 0.44784 0.85525
 C512 C 0.78992 0.43145 0.87572
 C513 C 0.75766 0.43280 0.87561
 C514 C 0.74293 0.45076 0.85432
 C515 C 0.76009 0.46724 0.83389
 C516 C 0.86434 0.46923 0.80091
 C517 C 0.88512 0.45372 0.78299
 C518 C 0.87474 0.43771 0.75813
 C519 C 0.84324 0.43740 0.75153
 C520 C 0.82239 0.45241 0.76983
 C521 C 0.82648 0.53110 0.76373
 C522 C 0.84579 0.54792 0.74547
 C523 C 0.86777 0.56723 0.75790
 C524 C 0.86981 0.56950 0.78894
 C525 C 0.85050 0.55276 0.80712
 C526 C 0.76344 0.54510 0.82793
 C527 C 0.74609 0.56101 0.84872
 C528 C 0.75627 0.56353 0.87815
 C529 C 0.78360 0.54933 0.88670
 C530 C 0.80053 0.53281 0.86610
 H531 H 0.83183 0.44681 0.85610
 H532 H 0.80201 0.41823 0.89207
 H533 H 0.71813 0.45189 0.85330
 H534 H 0.74832 0.48092 0.81769
 H535 H 0.87272 0.48155 0.81994
 H536 H 0.90932 0.45432 0.78841
 H537 H 0.79812 0.45168 0.76468
 H538 H 0.80967 0.51639 0.75375
 H539 H 0.84336 0.54599 0.72165
 H540 H 0.88682 0.58375 0.79923
 H541 H 0.85288 0.55457 0.83096
 H542 H 0.75565 0.54381 0.80515
 H543 H 0.72512 0.57194 0.84172
 H544 H 0.79174 0.55098 0.90934
 H545 H 0.82159 0.52198 0.87299
 H546 H 0.83475 0.42500 0.73260
 C547 C 0.19018 0.51781 0.18598
 C548 C 0.18845 0.48745 0.18579
 C549 C 0.20715 0.46962 0.16478
 C550 C 0.16708 0.47052 0.20528
 C551 C 0.17166 0.53644 0.20646
 C552 C 0.20888 0.53396 0.16379
 C553 C 0.19251 0.45156 0.14370
 C554 C 0.20976 0.43485 0.12357
 C555 C 0.24202 0.43567 0.12433
 C556 C 0.25662 0.45359 0.14573
 C557 C 0.23931 0.47036 0.16583
 C558 C 0.13569 0.47766 0.20671
 C559 C 0.11598 0.46134 0.22498
 C560 C 0.12708 0.43696 0.24136
 C561 C 0.15824 0.42929 0.23932
 C562 C 0.17807 0.44600 0.22153
 C563 C 0.17313 0.53248 0.23731
 C564 C 0.15391 0.54898 0.25604
 C565 C 0.13309 0.56986 0.24420
 C566 C 0.13231 0.57418 0.21333
 C567 C 0.15149 0.55778 0.19472
 C568 C 0.23623 0.54802 0.17234
 C569 C 0.25366 0.56370 0.15150
 C570 C 0.24344 0.56620 0.12209
 C571 C 0.21594 0.55231 0.11362
 C572 C 0.19892 0.53601 0.13428
 H573 H 0.16769 0.45076 0.14260
 H574 H 0.19781 0.42163 0.10710
 H575 H 0.28141 0.45432 0.14718
 H576 H 0.25097 0.48380 0.18233
 H577 H 0.12637 0.49571 0.19353
 H578 H 0.09190 0.46731 0.22582
 H579 H 0.20209 0.43984 0.22051
 H580 H 0.18883 0.51634 0.24680
 H581 H 0.15535 0.54545 0.27974
 H582 H 0.11621 0.58967 0.20343
 H583 H 0.14984 0.56108 0.17098
 H584 H 0.24410 0.54667 0.19509
 H585 H 0.27478 0.57439 0.15840
 H586 H 0.20778 0.55397 0.09099
 H587 H 0.17776 0.52536 0.12743
 H588 H 0.16728 0.41056 0.25175
 C589 C 0.81302 0.48490 0.18858
 C590 C 0.81316 0.51527 0.18734
 C591 C 0.79396 0.53212 0.16584
 C592 C 0.83385 0.53316 0.20661
 C593 C 0.83493 0.46852 0.20762
 C594 C 0.79321 0.46641 0.16913
 C595 C 0.79455 0.52536 0.13539
 C596 C 0.77628 0.54136 0.11553
 C597 C 0.75797 0.56507 0.12561
 C598 C 0.75808 0.57247 0.15585
 C599 C 0.77583 0.55603 0.17582
 C600 C 0.85544 0.55231 0.19365
 C601 C 0.87553 0.56883 0.21135
 C602 C 0.87424 0.56676 0.24246
 C603 C 0.85222 0.54784 0.25540
 C604 C 0.83216 0.53126 0.23763
 C605 C 0.82421 0.45201 0.23189
 C606 C 0.84480 0.43604 0.24958
 C607 C 0.87622 0.43580 0.24273
 C608 C 0.88685 0.45224 0.21830
 C609 C 0.86636 0.46866 0.20097
 C610 C 0.76111 0.46887 0.16987
 C611 C 0.74302 0.45204 0.15037
 C612 C 0.75675 0.43254 0.12971
 C613 C 0.78894 0.43007 0.12937
 C614 C 0.80690 0.44657 0.14904
 H615 H 0.80929 0.50784 0.12695
 H616 H 0.77694 0.53569 0.09218
 H617 H 0.74418 0.59078 0.16402
 H618 H 0.77535 0.56189 0.19913
 H619 H 0.85710 0.55405 0.16974
 H620 H 0.89247 0.58282 0.20064
 H621 H 0.81528 0.51698 0.24805
 H622 H 0.79996 0.45164 0.23714
 H623 H 0.83615 0.42332 0.26821
 H624 H 0.91103 0.45242 0.21273
 H625 H 0.87487 0.48117 0.18215
 H626 H 0.75014 0.48391 0.18543
 H627 H 0.71831 0.45419 0.15160
 H628 H 0.80044 0.41587 0.11342
 H629 H 0.83164 0.44454 0.14795
 H630 H 0.85028 0.54611 0.27927
 C631 C 0.18857 0.48337 0.81099
 C632 C 0.18647 0.51372 0.81139
 C633 C 0.20551 0.53158 0.83210
 C634 C 0.16428 0.53054 0.79257
 C635 C 0.17014 0.46463 0.79053
 C636 C 0.20756 0.46734 0.83312
 C637 C 0.19126 0.54950 0.85354
 C638 C 0.20887 0.56587 0.87365
 C639 C 0.24112 0.56483 0.87252
 C640 C 0.25534 0.54710 0.85073
 C641 C 0.23767 0.53069 0.83063
 C642 C 0.13303 0.52277 0.79163
 C643 C 0.11254 0.53894 0.77399
 C644 C 0.12267 0.56381 0.75780
 C645 C 0.15367 0.57214 0.75941
 C646 C 0.17430 0.55558 0.77654
 C647 C 0.17101 0.46903 0.75971
 C648 C 0.15186 0.45242 0.74103
 C649 C 0.13168 0.43100 0.75286
 C650 C 0.13153 0.42620 0.78367
 C651 C 0.15066 0.44271 0.80224
 C652 C 0.23481 0.45313 0.82445
 C653 C 0.25252 0.43771 0.84532
 C654 C 0.24268 0.43565 0.87488
 C655 C 0.21529 0.44971 0.88346
 C656 C 0.19800 0.46572 0.86278
 H657 H 0.16646 0.55039 0.85500
 H658 H 0.19722 0.57897 0.89041
 H659 H 0.28010 0.54621 0.84899
 H660 H 0.24904 0.51733 0.81388
 H661 H 0.12442 0.50432 0.80468
 H662 H 0.08861 0.53243 0.77347
 H663 H 0.19818 0.56225 0.77721
 H664 H 0.18619 0.48560 0.75022
 H665 H 0.15283 0.45633 0.71736
 H666 H 0.11592 0.41029 0.79359
 H667 H 0.14947 0.43904 0.82595
 H668 H 0.24239 0.45416 0.80160
 H669 H 0.27352 0.42683 0.83831
 H670 H 0.20739 0.44833 0.90619
 H671 H 0.17693 0.47650 0.86972
 H672 H 0.16198 0.59126 0.74711
 C673 C 0.30345 0.41335 0.06886
 C674 C 0.29366 0.38469 0.06040
 C675 C 0.26725 0.37266 0.07366
 C676 C 0.25078 0.38905 0.09465
 C677 C 0.26024 0.41791 0.10279
 C678 C 0.28688 0.42982 0.08980
 H679 H 0.32366 0.42327 0.05897
 H680 H 0.25922 0.35055 0.06778
 H681 H 0.23068 0.37903 0.10463
 H682 H 0.29455 0.45213 0.09534
 C683 C 0.70203 0.58460 0.06450
 C684 C 0.70555 0.61572 0.06274
 C685 C 0.72584 0.63012 0.08228
 C686 C 0.74239 0.61367 0.10317
 C687 C 0.73940 0.58251 0.10444
 C688 C 0.71910 0.56808 0.08498
 H689 H 0.68664 0.57297 0.04958
 H690 H 0.72889 0.65411 0.08142
 H691 H 0.75806 0.62518 0.11791
 H692 H 0.71643 0.54404 0.08573
 C693 C 0.69681 0.41260 0.93246
 C694 C 0.70635 0.38401 0.94142
 C695 C 0.73249 0.37137 0.92817
 C696 C 0.74887 0.38703 0.90659
 C697 C 0.73960 0.41579 0.89786
 C698 C 0.71330 0.42835 0.91097
 H699 H 0.67682 0.42299 0.94233
 H700 H 0.74031 0.34928 0.93441
 H701 H 0.76870 0.37650 0.89658
 H702 H 0.70580 0.45062 0.90506
 C703 C 0.26736 0.62727 0.92330
 C704 C 0.29384 0.61497 0.93626
 C705 C 0.30334 0.58627 0.92759
 C706 C 0.28642 0.57005 0.90670
 C707 C 0.25971 0.58224 0.89403
 C708 C 0.25055 0.61113 0.90240
 H709 H 0.25953 0.64942 0.92932
 H710 H 0.32360 0.57616 0.93723
 H711 H 0.29388 0.54771 0.90094
 H712 H 0.23042 0.62137 0.89266
 C713 C 0.08439 0.30914 0.40461
 C714 C 0.06534 0.29495 0.38377
 C715 C 0.06761 0.26388 0.37998
 C716 C 0.08806 0.24723 0.39712
 C717 C 0.10703 0.26140 0.41796
 C718 C 0.10531 0.29252 0.42136
 H719 H 0.08312 0.33307 0.40792
 H720 H 0.05310 0.25235 0.36419
 H721 H 0.08920 0.22326 0.39404
 H722 H 0.11971 0.30383 0.43741
 C723 C 0.07913 0.68984 0.59557
 C724 C 0.05972 0.70411 0.61606
 C725 C 0.06211 0.73515 0.61999
 C726 C 0.08313 0.75169 0.60344
 C727 C 0.10257 0.73744 0.58306
 C728 C 0.10064 0.70636 0.57943
 H729 H 0.07778 0.66593 0.59216
 H730 H 0.04733 0.74675 0.63551
 H731 H 0.08440 0.77563 0.60669
 H732 H 0.11540 0.69499 0.56373
 C733 C 0.93686 0.73612 0.38167
 C734 C 0.93916 0.70508 0.38563
 C735 C 0.91977 0.69097 0.40618
 C736 C 0.89836 0.70763 0.42236
 C737 C 0.89651 0.73871 0.41869
 C738 C 0.91594 0.75281 0.39825
 H739 H 0.95163 0.74760 0.36610
 H740 H 0.92105 0.66706 0.40961
 H741 H 0.88361 0.69637 0.43811
 H742 H 0.91472 0.77674 0.39497
 C743 C 0.91718 0.27514 0.62854
 C744 C 0.93276 0.29889 0.61491
 C745 C 0.92571 0.30604 0.58533
 C746 C 0.90430 0.28914 0.56943
 C747 C 0.88932 0.26485 0.58283
 C748 C 0.89562 0.25843 0.61275
 H749 H 0.92186 0.26926 0.65140
 H750 H 0.93738 0.32418 0.57418
 H751 H 0.90027 0.29449 0.54634
 H752 H 0.88403 0.24027 0.62394
 C753 C 0.36729 0.07608 0.27324
 C754 C 0.38331 0.05743 0.29295
 C755 C 0.41543 0.05962 0.29464
 C756 C 0.43126 0.07975 0.27656
 C757 C 0.41518 0.09846 0.25700
 C758 C 0.38307 0.09664 0.25565
 H759 H 0.34252 0.07490 0.27158
 H760 H 0.42833 0.04541 0.30955
 H761 H 0.45604 0.08093 0.27801
 H762 H 0.37026 0.11081 0.24062
 C763 C 0.63394 0.07869 0.73011
 C764 C 0.61935 0.06489 0.70593
 C765 C 0.58912 0.07323 0.69885
 C766 C 0.57359 0.09444 0.71597
 C767 C 0.58800 0.10789 0.74047
 C768 C 0.61847 0.10000 0.74713
 H769 H 0.65730 0.07292 0.73600
 H770 H 0.57721 0.06294 0.68041
 H771 H 0.55000 0.09968 0.71050
 H772 H 0.63040 0.11031 0.76555
 C773 C 0.38058 0.93810 0.73913
 C774 C 0.38502 0.93977 0.70832
 C775 C 0.40626 0.92047 0.69477
 C776 C 0.42263 0.89976 0.71174
 C777 C 0.41848 0.89848 0.74258
 C778 C 0.39738 0.91782 0.75614
 H779 H 0.36446 0.95281 0.75016
 H780 H 0.41006 0.92127 0.67105
 H781 H 0.43892 0.88509 0.70091
 H782 H 0.39374 0.91705 0.77989
 C783 C 0.62854 0.92179 0.27223
 C784 C 0.61333 0.94055 0.29246
 C785 C 0.58131 0.93833 0.29536
 C786 C 0.56476 0.91810 0.27793
 C787 C 0.58005 0.89934 0.25779
 C788 C 0.61208 0.90117 0.25528
 H789 H 0.65322 0.92298 0.26961
 H790 H 0.56901 0.95261 0.31069
 H791 H 0.54006 0.91693 0.28030
 H792 H 0.62430 0.88702 0.23976
 C793 C 0.41204 0.30121 0.92891
 C794 C 0.38174 0.29381 0.93661
 C795 C 0.36755 0.26954 0.92240
 C796 C 0.38346 0.25279 0.90124
 C797 C 0.41398 0.25979 0.89395
 C798 C 0.42802 0.28433 0.90788
 H799 H 0.42365 0.31973 0.93954
 H800 H 0.34414 0.26342 0.92766
 H801 H 0.37181 0.23433 0.89056
 H802 H 0.45164 0.29006 0.90310
 C803 C 0.63394 0.72829 0.92187
 C804 C 0.61813 0.70831 0.94038
 C805 C 0.58607 0.70603 0.93791
 C806 C 0.57006 0.72381 0.91771
 C807 C 0.58588 0.74374 0.89924
 C808 C 0.61796 0.74564 0.90124
 H809 H 0.65865 0.73042 0.92329
 H810 H 0.57331 0.69092 0.95201
 H811 H 0.54532 0.72190 0.91636
 H812 H 0.63056 0.76098 0.88724
 C813 C 0.37854 0.73828 0.05992
 C814 C 0.38363 0.70738 0.05762
 C815 C 0.40514 0.69380 0.07654
 C816 C 0.42106 0.71082 0.09753
 C817 C 0.41622 0.74175 0.09948
 C818 C 0.39491 0.75536 0.08045
 H819 H 0.36220 0.74934 0.04551
 H820 H 0.40944 0.67001 0.07528
 H821 H 0.43750 0.69993 0.11195
 H822 H 0.39073 0.77917 0.08172
 C823 C 0.58275 0.29628 0.06437
 C824 C 0.61486 0.29383 0.06291
 C825 C 0.63001 0.27382 0.08191
 C826 C 0.61334 0.25656 0.10204
 C827 C 0.58122 0.25855 0.10299
 C828 C 0.56603 0.27851 0.08403
 H829 H 0.57053 0.31142 0.04982
 H830 H 0.65475 0.27158 0.08124
 H831 H 0.62543 0.24118 0.11644
 H832 H 0.54125 0.28041 0.08456
 C833 C 0.26211 0.06258 0.61914
 C834 C 0.29408 0.06021 0.61578
 C835 C 0.30912 0.07919 0.59570
 C836 C 0.29249 0.10036 0.57951
 C837 C 0.26051 0.10243 0.58269
 C838 C 0.24545 0.08330 0.60253
 H839 H 0.24992 0.04814 0.63436
 H840 H 0.33375 0.07786 0.59275
 H841 H 0.30450 0.11486 0.56421
 H842 H 0.22081 0.08466 0.60542
 C843 C 0.69643 0.07009 0.41019
 C844 C 0.70653 0.05957 0.38239
 C845 C 0.73423 0.07088 0.37087
 C846 C 0.75133 0.09192 0.38667
 C847 C 0.74145 0.10209 0.41457
 C848 C 0.71374 0.09098 0.42610
 H849 H 0.67532 0.06195 0.41992
 H850 H 0.74278 0.06362 0.34949
 H851 H 0.77224 0.10041 0.37684
 H852 H 0.70566 0.09801 0.44770
 C853 C 0.70017 0.93720 0.58367
 C854 C 0.70434 0.93921 0.61450
 C855 C 0.72503 0.91969 0.62849
 C856 C 0.74128 0.89856 0.61193
 C857 C 0.73761 0.89704 0.58105
 C858 C 0.71694 0.91649 0.56703
 H859 H 0.68448 0.95210 0.57234
 H860 H 0.72862 0.92074 0.65223
 H861 H 0.75724 0.88383 0.62313
 H862 H 0.71371 0.91556 0.54323
 C863 C 0.30871 0.92047 0.40926
 C864 C 0.29333 0.93952 0.38945
 C865 C 0.26126 0.93745 0.38686
 C866 C 0.24487 0.91689 0.40387
 C867 C 0.26029 0.89761 0.42336
 C868 C 0.29234 0.89945 0.42584
 H869 H 0.33342 0.92155 0.41161
 H870 H 0.24881 0.95195 0.37186
 H871 H 0.22017 0.91570 0.40150
 H872 H 0.30464 0.88483 0.44085
 C873 C 0.07271 0.41331 0.69333
 C874 C 0.06522 0.38356 0.70006
 C875 C 0.08103 0.36906 0.72307
 C876 C 0.10328 0.38417 0.73950
 C877 C 0.11006 0.41425 0.73353
 C878 C 0.09484 0.42854 0.70997
 H879 H 0.06087 0.42508 0.67575
 H880 H 0.07605 0.34602 0.72856
 H881 H 0.11503 0.37232 0.75708
 H882 H 0.09927 0.45180 0.70501
 C883 C 0.08231 0.63170 0.27396
 C884 C 0.06710 0.61739 0.29744
 C885 C 0.07497 0.58777 0.30440
 C886 C 0.09693 0.57249 0.28757
 C887 C 0.11158 0.58660 0.26360
 C888 C 0.10437 0.61654 0.25734
 H889 H 0.07705 0.65463 0.26828
 H890 H 0.06361 0.57617 0.32236
 H891 H 0.10171 0.54934 0.29275
 H892 H 0.11569 0.62824 0.23942
 C893 C 0.92003 0.40447 0.30817
 C894 C 0.93986 0.38412 0.29416
 C895 C 0.93829 0.38066 0.26322
 C896 C 0.91767 0.39760 0.24655
 C897 C 0.89785 0.41788 0.26055
 C898 C 0.89895 0.42100 0.29151
 H899 H 0.92077 0.40752 0.33199
 H900 H 0.95342 0.36525 0.25183
 H901 H 0.91703 0.39474 0.22271
 H902 H 0.88388 0.43663 0.30269
 C903 C 0.92326 0.58758 0.69626
 C904 C 0.93204 0.61662 0.70449
 C905 C 0.91851 0.62973 0.72961
 C906 C 0.89715 0.61395 0.74648
 C907 C 0.88895 0.58461 0.73876
 C908 C 0.90198 0.57170 0.71326
 H909 H 0.93334 0.57684 0.67706
 H910 H 0.92458 0.65217 0.73638
 H911 H 0.88709 0.62473 0.76566
 H912 H 0.89641 0.54902 0.70692
 C913 C 0.73631 0.62306 0.93439
 C914 C 0.70571 0.61588 0.94158
 C915 C 0.69190 0.59129 0.92727
 C916 C 0.70819 0.57454 0.90632
 C917 C 0.73880 0.58153 0.89978
 C918 C 0.75275 0.60582 0.91400
 H919 H 0.74785 0.64171 0.94487
 H920 H 0.66842 0.58502 0.93206
 H921 H 0.69709 0.55581 0.89554
 H922 H 0.77634 0.61160 0.90908
 C923 C 0.26341 0.37653 0.93106
 C924 C 0.29367 0.38450 0.93884
 C925 C 0.30704 0.40950 0.92492
 C926 C 0.29065 0.42587 0.90373
 C927 C 0.26039 0.41806 0.89661
 C928 C 0.24687 0.39337 0.91046
 H929 H 0.25219 0.35754 0.94122
 H930 H 0.33025 0.41636 0.93018
 H931 H 0.30139 0.44494 0.89323
 H932 H 0.22354 0.38698 0.90511
 C933 C 0.30777 0.59147 0.07183
 C934 C 0.29471 0.61668 0.05793
 C935 C 0.26465 0.62517 0.06587
 C936 C 0.24796 0.60857 0.08655
 C937 C 0.26119 0.58365 0.10032
 C938 C 0.29128 0.57537 0.09307
 H939 H 0.33084 0.58421 0.06647
 H940 H 0.25368 0.64433 0.05573
 H941 H 0.22475 0.61531 0.09201
 H942 H 0.30180 0.55613 0.10349
 C943 C 0.73080 0.37068 0.07778
 C944 C 0.70433 0.38304 0.06471
 C945 C 0.69449 0.41146 0.07425
 C946 C 0.71120 0.42737 0.09556
 C947 C 0.73791 0.41513 0.10821
 C948 C 0.74714 0.38638 0.09937
 H949 H 0.73899 0.34874 0.07144
 H950 H 0.67426 0.42181 0.06478
 H951 H 0.70360 0.44960 0.10152
 H952 H 0.76710 0.37587 0.10914
 C953 C 0.92272 0.73107 0.62797
 C954 C 0.93492 0.70437 0.61634
 C955 C 0.92504 0.69490 0.58810
 C956 C 0.90412 0.71198 0.57177
 C957 C 0.89234 0.73882 0.58329
 C958 C 0.90166 0.74795 0.61172
 H959 H 0.92944 0.73909 0.64969
 H960 H 0.93385 0.67454 0.57828
 H961 H 0.89772 0.70446 0.54979
 H962 H 0.89257 0.76818 0.62155
 C963 C 0.92697 0.26918 0.36917
 C964 C 0.94124 0.29426 0.38214
 C965 C 0.93377 0.30170 0.41167
 C966 C 0.91332 0.28411 0.42793
 C967 C 0.89926 0.25927 0.41481
 C968 C 0.90593 0.25212 0.38525
 H969 H 0.93195 0.26271 0.34652
 H970 H 0.94423 0.32073 0.42254
 H971 H 0.90830 0.28997 0.45074
 H972 H 0.89525 0.23295 0.37482
 C973 C 0.07114 0.26906 0.62582
 C974 C 0.05943 0.29585 0.61397
 C975 C 0.07043 0.30549 0.58620
 C976 C 0.09215 0.28858 0.57062
 C977 C 0.10363 0.26175 0.58248
 C978 C 0.09302 0.25240 0.61038
 H979 H 0.06359 0.26089 0.64721
 H980 H 0.06202 0.32593 0.57625
 H981 H 0.09952 0.29626 0.54901
 H982 H 0.10180 0.23221 0.62050
 C983 C 0.07404 0.69400 0.41356
 C984 C 0.06418 0.70369 0.38540
 C985 C 0.07683 0.73012 0.37374
 C986 C 0.09828 0.74658 0.38989
 C987 C 0.10751 0.73733 0.41829
 C988 C 0.09533 0.71070 0.42984
 H989 H 0.06490 0.67381 0.42337
 H990 H 0.07018 0.73827 0.35205
 H991 H 0.10770 0.76662 0.38004
 H992 H 0.10167 0.70310 0.45179
 C993 C 0.63117 0.92817 0.73241
 C994 C 0.61744 0.94064 0.70707
 C995 C 0.58773 0.93144 0.69911
 C996 C 0.57196 0.91051 0.71634
 C997 C 0.58560 0.89825 0.74186
 C998 C 0.61548 0.90719 0.74954
 H999 H 0.65412 0.93461 0.73905
 H1000 H 0.57647 0.94070 0.67978
 H1001 H 0.54883 0.90438 0.71003
 H1002 H 0.62685 0.89781 0.76875
 C1003 C 0.41057 0.92596 0.30338
 C1004 C 0.38004 0.93383 0.29699
 C1005 C 0.36485 0.91923 0.27365
 C1006 C 0.38002 0.89767 0.25668
 C1007 C 0.41084 0.89037 0.26249
 C1008 C 0.42583 0.90455 0.28626
 H1009 H 0.42295 0.93687 0.32117
 H1010 H 0.34124 0.92459 0.26833
 H1011 H 0.36762 0.88679 0.23889
 H1012 H 0.44968 0.89979 0.29109
 C1013 C 0.63056 0.07780 0.27005
 C1014 C 0.61641 0.06377 0.29430
 C1015 C 0.58610 0.07164 0.30160
 C1016 C 0.57002 0.09249 0.28451
 C1017 C 0.58397 0.10610 0.25987
 C1018 C 0.61459 0.09880 0.25313
 H1019 H 0.65398 0.07242 0.26402
 H1020 H 0.57451 0.06114 0.32009
 H1021 H 0.54636 0.09728 0.29010
 H1022 H 0.62624 0.10929 0.23467
 C1023 C 0.36963 0.08127 0.72550
 C1024 C 0.38498 0.06175 0.70610
 C1025 C 0.41712 0.06326 0.70398
 C1026 C 0.43364 0.08342 0.72145
 C1027 C 0.41826 0.10286 0.74085
 C1028 C 0.38612 0.10187 0.74249
 H1029 H 0.34487 0.08060 0.72752
 H1030 H 0.42953 0.04835 0.68934
 H1031 H 0.45843 0.08395 0.71977
 H1032 H 0.37384 0.11660 0.75742
 C1033 C 0.63008 0.73359 0.07471
 C1034 C 0.61701 0.70776 0.06228
 C1035 C 0.58735 0.69928 0.07114
 C1036 C 0.57098 0.71645 0.09167
 C1037 C 0.58392 0.74245 0.10390
 C1038 C 0.61376 0.75068 0.09532
 H1039 H 0.65294 0.74065 0.06849
 H1040 H 0.57657 0.67958 0.06188
 H1041 H 0.54789 0.70970 0.09746
 H1042 H 0.62461 0.77029 0.10468
 C1043 C 0.41115 0.30022 0.06919
 C1044 C 0.38114 0.29280 0.06046
 C1045 C 0.36672 0.26819 0.07382
 C1046 C 0.38205 0.25117 0.09513
 C1047 C 0.41228 0.25818 0.10350
 C1048 C 0.42658 0.28305 0.09042
 H1049 H 0.42293 0.31900 0.05926
 H1050 H 0.34351 0.26202 0.06780
 H1051 H 0.37014 0.23251 0.10513
 H1052 H 0.44999 0.28884 0.09605
 C1053 C 0.63190 0.27436 0.92284
 C1054 C 0.61625 0.29413 0.94176
 C1055 C 0.58418 0.29652 0.93955
 C1056 C 0.56799 0.27898 0.91922
 C1057 C 0.58367 0.25930 0.90031
 C1058 C 0.61576 0.25734 0.90205
 H1059 H 0.65662 0.27216 0.92406
 H1060 H 0.57156 0.31146 0.95400
 H1061 H 0.54323 0.28088 0.91810
 H1062 H 0.62825 0.24218 0.88772
 C1063 C 0.36915 0.72775 0.91952
 C1064 C 0.38370 0.70428 0.93467
 C1065 C 0.41437 0.69745 0.92775
 C1066 C 0.43038 0.71430 0.90672
 C1067 C 0.41599 0.73820 0.89201
 C1068 C 0.38504 0.74440 0.89836
 H1069 H 0.34544 0.73337 0.92409
 H1070 H 0.42623 0.67953 0.93911
 H1071 H 0.45429 0.70915 0.90262
 H1072 H 0.37307 0.76224 0.88701
 C1073 C 0.69411 0.92851 0.41133
 C1074 C 0.70239 0.93588 0.38212
 C1075 C 0.72673 0.92039 0.36865
 C1076 C 0.74281 0.89843 0.38420
 C1077 C 0.73518 0.89160 0.41373
 C1078 C 0.71040 0.90668 0.42701
 H1079 H 0.67549 0.94010 0.42233
 H1080 H 0.73345 0.92530 0.34606
 H1081 H 0.76134 0.88683 0.37307
 H1082 H 0.70415 0.90226 0.44982
 C1083 C 0.30415 0.92807 0.58972
 C1084 C 0.29546 0.93627 0.61862
 C1085 C 0.27026 0.92192 0.63179
 C1086 C 0.25387 0.90013 0.61628
 C1087 C 0.26216 0.89230 0.58716
 C1088 C 0.28764 0.90638 0.57414
 H1089 H 0.32342 0.93878 0.57893
 H1090 H 0.26313 0.92755 0.65411
 H1091 H 0.23472 0.88934 0.62716
 H1092 H 0.29438 0.90117 0.55161
 C1093 C 0.27209 0.07794 0.37307
 C1094 C 0.29730 0.06316 0.38578
 C1095 C 0.30643 0.07094 0.41468
 C1096 C 0.29010 0.09246 0.43080
 C1097 C 0.26441 0.10674 0.41828
 C1098 C 0.25594 0.09953 0.38905
 H1099 H 0.26466 0.07270 0.35074
 H1100 H 0.32573 0.05990 0.42511
 H1101 H 0.29705 0.09728 0.45335
 H1102 H 0.23671 0.11056 0.37850
 C1103 C 0.73900 0.06370 0.61653
 C1104 C 0.70699 0.06151 0.61349
 C1105 C 0.69190 0.08010 0.59305
 C1106 C 0.70853 0.10064 0.57612
 C1107 C 0.74056 0.10248 0.57891
 C1108 C 0.75565 0.08380 0.59920
 H1109 H 0.75125 0.04955 0.63200
 H1110 H 0.66724 0.07890 0.59031
 H1111 H 0.69647 0.11479 0.56050
 H1112 H 0.78032 0.08502 0.60187
 C1113 C 0.92579 0.62920 0.27019
 C1114 C 0.93910 0.61632 0.29554
 C1115 C 0.93030 0.58729 0.30376
 C1116 C 0.90905 0.57132 0.28675
 C1117 C 0.89601 0.58407 0.26118
 C1118 C 0.90446 0.61330 0.25327
 H1119 H 0.93190 0.65159 0.26335
 H1120 H 0.94021 0.57668 0.32310
 H1121 H 0.90335 0.54873 0.29325
 H1122 H 0.89446 0.62398 0.23402
 C1123 C 0.93735 0.38370 0.73574
 C1124 C 0.93855 0.38769 0.70485
 C1125 C 0.91861 0.40841 0.69153
 C1126 C 0.89759 0.42451 0.70878
 C1127 C 0.89670 0.42066 0.73968
 C1128 C 0.91685 0.40024 0.75300
 H1129 H 0.95255 0.36801 0.74663
 H1130 H 0.91901 0.41186 0.66776
 H1131 H 0.88229 0.44024 0.69808
 H1132 H 0.91643 0.39681 0.77678
 C1133 C 0.06083 0.58329 0.70202
 C1134 C 0.05852 0.61441 0.70551
 C1135 C 0.07774 0.62880 0.72606
 C1136 C 0.09893 0.61240 0.74272
 C1137 C 0.10084 0.58125 0.73957
 C1138 C 0.08159 0.56683 0.71913
 H1139 H 0.04620 0.57161 0.68646
 H1140 H 0.07648 0.65276 0.72916
 H1141 H 0.11347 0.62395 0.75848
 H1142 H 0.08280 0.54284 0.71625
 C1143 C 0.08432 0.37129 0.27421
 C1144 C 0.06478 0.38545 0.29464
 C1145 C 0.06633 0.41664 0.29786
 C1146 C 0.08657 0.43340 0.28052
 C1147 C 0.10604 0.41922 0.26008
 C1148 C 0.10498 0.38800 0.25730
 H1149 H 0.08363 0.34729 0.27130
 H1150 H 0.05141 0.42815 0.31332
 H1151 H 0.08713 0.45744 0.28312
 H1152 H 0.11969 0.37663 0.24156
   
