data_POSCAR
  _audit_creation_date              2014-09-24
  _audit_creation_method            'ToBaCCo'
  _symmetry_space_group_name_H-M    'P1'
  _symmetry_Int_Tables_number       1
  _symmetry_cell_setting            triclinic
  loop_
  _symmetry_equiv_pos_as_xyz
 x,y,z
_cell_length_a 45.5348
_cell_length_b 44.9133
_cell_length_c 7.3095
_cell_angle_alpha 90.092600
_cell_angle_beta 89.973100
_cell_angle_gamma 90.002100
loop_
  _atom_site_label
  _atom_site_type_symbol
  _atom_site_fract_x
  _atom_site_fract_y
  _atom_site_fract_z
O1 O 0.23115 0.27970 0.03956
 O2 O 0.28450 0.22205 0.16910
 O3 O 0.23092 0.22165 0.04541
 O4 O 0.28434 0.27987 0.17306
 O5 O 0.26760 0.28009 0.45703
 O6 O 0.21450 0.22202 0.33007
 O7 O 0.26804 0.22206 0.45378
 O8 O 0.21442 0.27986 0.32353
 Cu9 Cu 0.25955 0.25085 0.07862
 Cu10 Cu 0.23931 0.25108 0.41913
 C11 C 0.21357 0.28939 0.16035
 C12 C 0.28542 0.21233 0.33157
 C13 C 0.21360 0.21202 0.16806
 C14 C 0.28516 0.28964 0.33592
 O15 O 0.71558 0.27801 0.16849
 O16 O 0.76886 0.22027 0.03816
 O17 O 0.71568 0.22019 0.17203
 O18 O 0.76918 0.27833 0.04519
 O19 O 0.78553 0.27796 0.32991
 O20 O 0.73233 0.22001 0.45612
 O21 O 0.78550 0.22013 0.32227
 O22 O 0.73195 0.27801 0.45324
 Cu23 Cu 0.74050 0.24917 0.07778
 Cu24 Cu 0.76066 0.24896 0.41833
 C25 C 0.71462 0.28775 0.33108
 C26 C 0.78638 0.21057 0.15894
 C27 C 0.71480 0.21045 0.33477
 C28 C 0.78648 0.28795 0.16809
 O29 O 0.76877 0.77964 0.96185
 O30 O 0.71549 0.72192 0.83163
 O31 O 0.76915 0.72160 0.95443
 O32 O 0.71566 0.77975 0.82786
 O33 O 0.73234 0.77995 0.54373
 O34 O 0.78550 0.72195 0.66961
 O35 O 0.73186 0.72193 0.54680
 O36 O 0.78544 0.77979 0.67771
 Cu37 Cu 0.74044 0.75074 0.92208
 Cu38 Cu 0.76062 0.75095 0.58144
 C39 C 0.78628 0.78936 0.84099
 C40 C 0.71451 0.71221 0.66899
 C41 C 0.78646 0.71199 0.83151
 C42 C 0.71482 0.78952 0.66521
 O43 O 0.28459 0.77810 0.83043
 O44 O 0.23121 0.72050 0.96075
 O45 O 0.28434 0.72027 0.82665
 O46 O 0.23098 0.77852 0.95434
 O47 O 0.21451 0.77813 0.66986
 O48 O 0.26759 0.72002 0.54277
 O49 O 0.21447 0.72030 0.67688
 O50 O 0.26811 0.77805 0.54594
 Cu51 Cu 0.25961 0.74934 0.92112
 Cu52 Cu 0.23933 0.74907 0.58079
 C53 C 0.28552 0.78777 0.66785
 C54 C 0.21364 0.71078 0.84012
 C55 C 0.28512 0.71045 0.66389
 C56 C 0.21362 0.78812 0.83193
 C57 C 1.00102 0.07980 -0.00246
 C58 C 1.02731 0.06425 0.01832
 C59 C 1.02722 0.03308 0.02356
 C60 C 1.00092 0.01679 -0.00255
 C61 C 0.97467 0.03316 -0.02884
 C62 C 0.97468 0.06432 -0.02348
 C63 C 1.00084 -0.01679 -0.00133
 C64 C 0.97452 -0.03303 0.02534
 C65 C 0.97439 -0.06420 0.02019
 C66 C 1.00065 -0.07980 -0.00086
 C67 C 1.02702 -0.06437 -0.02194
 C68 C 1.02707 -0.03320 -0.02754
 H69 H 1.00103 0.10396 -0.00077
 H70 H 1.04785 0.02203 0.04996
 H71 H 0.95396 0.02218 -0.05360
 H72 H 0.95387 -0.02195 0.05045
 H73 H 1.00056 -0.10396 -0.00205
 H74 H 1.04775 -0.02226 -0.05410
 C75 C 0.49972 0.57981 0.50156
 C76 C 0.52607 0.56434 0.52163
 C77 C 0.52610 0.53317 0.52655
 C78 C 0.49985 0.51679 0.50023
 C79 C 0.47352 0.53308 0.47530
 C80 C 0.47342 0.56424 0.48138
 C81 C 0.49992 0.48319 0.49976
 C82 C 0.47365 0.46679 0.52462
 C83 C 0.47368 0.43563 0.51868
 C84 C 0.50005 0.42017 0.49843
 C85 C 0.52634 0.43576 0.47828
 C86 C 0.52624 0.46693 0.47353
 H87 H 0.49965 0.60396 0.50318
 H88 H 0.54677 0.52220 0.55265
 H89 H 0.45282 0.52207 0.45098
 H90 H 0.45290 0.47771 0.54886
 H91 H 0.50008 0.39602 0.49686
 H92 H 0.54687 0.47800 0.44759
 C93 C -0.00102 0.42024 -0.00182
 C94 C -0.02729 0.43583 0.01951
 C95 C -0.02716 0.46700 0.02546
 C96 C -0.00084 0.48326 -0.00074
 C97 C 0.02541 0.46685 -0.02642
 C98 C 0.02535 0.43568 -0.02189
 C99 C -0.00079 0.51685 -0.00011
 C100 C 0.02550 0.53316 0.02593
 C101 C 0.02555 0.56433 0.02130
 C102 C -0.00076 0.57986 0.00105
 C103 C -0.02708 0.56436 -0.02035
 C104 C -0.02704 0.53319 -0.02648
 H105 H -0.00107 0.39608 -0.00101
 H106 H -0.04775 0.47808 0.05257
 H107 H 0.04617 0.47779 -0.05003
 H108 H 0.04621 0.52215 0.05003
 H109 H -0.00073 0.60402 0.00026
 H110 H -0.04767 0.52219 -0.05379
 C111 C 0.50034 0.92024 0.50281
 C112 C 0.47397 0.93570 0.52257
 C113 C 0.47391 0.96687 0.52710
 C114 C 0.50016 0.98325 0.50076
 C115 C 0.52650 0.96697 0.47578
 C116 C 0.52663 0.93581 0.48227
 C117 C 0.50007 1.01685 0.50023
 C118 C 0.52632 1.03327 0.52537
 C119 C 0.52631 1.06443 0.51863
 C120 C 0.49996 1.07987 0.49787
 C121 C 0.47366 1.06427 0.47823
 C122 C 0.47375 1.03309 0.47379
 H123 H 0.50044 0.89608 0.50455
 H124 H 0.45322 0.97785 0.55278
 H125 H 0.54719 0.97798 0.45109
 H126 H 0.54705 1.02236 0.55044
 H127 H 0.49994 1.10402 0.49559
 H128 H 0.45312 1.02201 0.44792
 C129 C 1.19339 0.19085 0.12741
 C130 C 1.17465 0.17236 0.10129
 C131 C 1.15142 0.15090 0.08092
 C132 C 1.13670 0.14784 -0.08629
 C133 C 1.11250 0.12877 -0.10018
 C134 C 1.10293 0.11274 0.05311
 C135 C 1.11801 0.11537 0.21925
 C136 C 1.14219 0.13441 0.23311
 C137 C 1.07678 0.09484 0.04241
 C138 C 1.05444 0.08052 0.03290
 H139 H 1.14351 0.16065 -0.20444
 H140 H 1.10091 0.12700 -0.22911
 H141 H 1.11071 0.10319 0.33879
 H142 H 1.15328 0.13677 0.36339
 C143 C 0.69294 0.69009 0.62494
 C144 C 0.67396 0.67190 0.59812
 C145 C 0.65046 0.65079 0.57577
 C146 C 0.63167 0.65268 0.42458
 C147 C 0.60731 0.63383 0.41176
 C148 C 0.60161 0.61306 0.55025
 C149 C 0.62070 0.61080 0.69970
 C150 C 0.64507 0.62964 0.71248
 C151 C 0.57548 0.59509 0.54254
 C152 C 0.55317 0.58070 0.53478
 H153 H 0.63550 0.66910 0.31883
 H154 H 0.59262 0.63583 0.29586
 H155 H 0.61644 0.59488 0.80772
 H156 H 0.65933 0.62815 0.83068
 C157 C -0.19328 0.30911 0.12804
 C158 C -0.17451 0.32758 0.10282
 C159 C -0.15123 0.34902 0.08417
 C160 C -0.13896 0.35513 -0.08756
 C161 C -0.11482 0.37431 -0.10149
 C162 C -0.10289 0.38737 0.05626
 C163 C -0.11552 0.38166 0.22733
 C164 C -0.13962 0.36255 0.24123
 C165 C -0.07678 0.40529 0.04424
 C166 C -0.05444 0.41959 0.03421
 H167 H -0.14765 0.34467 -0.20974
 H168 H -0.10513 0.37848 -0.23443
 H169 H -0.10639 0.39151 0.35018
 H170 H -0.14883 0.35784 0.37480
 C171 C 0.30713 0.80982 0.62341
 C172 C 0.32616 0.82793 0.59584
 C173 C 0.34973 0.84891 0.57214
 C174 C 0.37096 0.84415 0.43651
 C175 C 0.39533 0.86300 0.42440
 C176 C 0.39860 0.88665 0.54805
 C177 C 0.37712 0.89172 0.68170
 C178 C 0.35274 0.87287 0.69379
 C179 C 0.42462 0.90480 0.54191
 C180 C 0.44688 0.91929 0.53507
 H181 H 0.36902 0.82553 0.34292
 H182 H 0.41189 0.85880 0.32106
 H183 H 0.37949 0.90987 0.77844
 H184 H 0.33658 0.87659 0.80028
 C185 C -0.19324 0.69088 -0.12828
 C186 C -0.17443 0.67247 -0.10265
 C187 C -0.15111 0.65109 -0.08329
 C188 C -0.14053 0.63623 -0.23865
 C189 C -0.11636 0.61720 -0.22481
 C190 C -0.10264 0.61292 -0.05551
 C191 C -0.11354 0.62733 0.10075
 C192 C -0.13774 0.64641 0.08689
 C193 C -0.07651 0.59502 -0.04419
 C194 C -0.05418 0.58068 -0.03465
 H195 H -0.15059 0.63984 -0.37107
 H196 H -0.10803 0.60629 -0.34652
 H197 H -0.10298 0.62430 0.23224
 H198 H -0.14562 0.65794 0.20762
 C199 C 0.30694 1.19016 0.37536
 C200 C 0.32585 1.17190 0.40210
 C201 C 0.34926 1.15071 0.42456
 C202 C 0.36816 1.15272 0.57523
 C203 C 0.39247 1.13381 0.58796
 C204 C 0.39803 1.11285 0.44991
 C205 C 0.37881 1.11043 0.30114
 C206 C 0.35448 1.12933 0.28846
 C207 C 0.42416 1.09488 0.45729
 C208 C 0.44650 1.08053 0.46496
 H209 H 0.36445 1.16930 0.68061
 H210 H 0.40724 1.13592 0.70341
 H211 H 0.38293 1.09436 0.19354
 H212 H 0.34011 1.12771 0.17079
 C213 C 1.19330 -0.19083 -0.12684
 C214 C 1.17447 -0.17250 -0.09930
 C215 C 1.15109 -0.15128 -0.07605
 C216 C 1.14652 -0.12922 -0.20852
 C217 C 1.12223 -0.11027 -0.19567
 C218 C 1.10240 -0.11333 -0.05040
 C219 C 1.10728 -0.13501 0.08392
 C220 C 1.13155 -0.15397 0.07103
 C221 C 1.07636 -0.09523 -0.04300
 C222 C 1.05409 -0.08078 -0.03529
 H223 H 1.16136 -0.12712 -0.32373
 H224 H 1.11862 -0.09366 -0.30060
 H225 H 1.09200 -0.13764 0.19643
 H226 H 1.13472 -0.17112 0.17321
 C227 C 0.69311 0.30994 0.37502
 C228 C 0.67420 0.32821 0.40173
 C229 C 0.65078 0.34941 0.42398
 C230 C 0.63214 0.34778 0.57610
 C231 C 0.60781 0.36669 0.58886
 C232 C 0.60199 0.38724 0.44940
 C233 C 0.62096 0.38927 0.29906
 C234 C 0.64529 0.37037 0.28635
 C235 C 0.57585 0.40519 0.45701
 C236 C 0.55350 0.41951 0.46488
 H237 H 0.63605 0.33152 0.68262
 H238 H 0.59323 0.36487 0.70547
 H239 H 0.61662 0.40502 0.19031
 H240 H 0.65945 0.37167 0.16749
 C241 C 0.80789 -0.18876 -0.11095
 C242 C 0.82672 -0.17080 -0.07539
 C243 C 0.84996 -0.14991 -0.03896
 C244 C 0.86994 -0.15527 0.10302
 C245 C 0.89408 -0.13641 0.12765
 C246 C 0.89831 -0.11213 0.01045
 C247 C 0.87796 -0.10639 -0.12880
 C248 C 0.85384 -0.12524 -0.15345
 C249 C 0.92462 -0.09452 0.02316
 C250 C 0.94711 -0.08036 0.02627
 H251 H 0.86726 -0.17441 0.19150
 H252 H 0.90982 -0.14120 0.23474
 H253 H 0.88115 -0.08783 -0.22118
 H254 H 0.83865 -0.12101 -0.26446
 C255 C 0.30682 0.31150 0.38354
 C256 C 0.32573 0.32938 0.41908
 C257 C 0.34908 0.35014 0.45557
 C258 C 0.35338 0.37454 0.33942
 C259 C 0.37759 0.39324 0.36444
 C260 C 0.39762 0.38766 0.50578
 C261 C 0.39297 0.36366 0.62458
 C262 C 0.36873 0.34494 0.59956
 C263 C 0.42398 0.40518 0.51945
 C264 C 0.44646 0.41934 0.52345
 H265 H 0.33844 0.37865 0.22695
 H266 H 0.38111 0.41159 0.27087
 H267 H 0.40844 0.35900 0.73339
 H268 H 0.36572 0.32603 0.68947
 C269 C 0.19198 0.68898 -0.11156
 C270 C 0.17312 0.67108 -0.07572
 C271 C 0.14986 0.65023 -0.03896
 C272 C 0.12976 0.65581 0.10226
 C273 C 0.10564 0.63694 0.12735
 C274 C 0.10155 0.61242 0.01130
 C275 C 0.12203 0.60647 -0.12710
 C276 C 0.14613 0.62532 -0.15220
 C277 C 0.07526 0.59478 0.02410
 C278 C 0.05280 0.58057 0.02723
 H279 H 0.13233 0.67511 0.18984
 H280 H 0.08982 0.64188 0.23391
 H281 H 0.11896 0.58770 -0.21847
 H282 H 0.16142 0.62091 -0.26257
 C283 C 0.69311 1.18862 0.38190
 C284 C 0.67419 1.17074 0.41695
 C285 C 0.65085 1.14995 0.45285
 C286 C 0.63190 1.15444 0.60150
 C287 C 0.60769 1.13570 0.62672
 C288 C 0.60236 1.11241 0.50329
 C289 C 0.62168 1.10754 0.35712
 C290 C 0.64587 1.12626 0.33190
 C291 C 0.57601 1.09488 0.51794
 C292 C 0.55354 1.08071 0.52268
 H293 H 0.63546 1.17281 0.69517
 H294 H 0.59278 1.13979 0.73953
 H295 H 0.61765 1.08973 0.26021
 H296 H 0.66026 1.12271 0.21586
 C297 C 0.19187 0.31115 0.11221
 C298 C 0.17297 0.32901 0.07650
 C299 C 0.14966 0.34981 0.03985
 C300 C 0.12985 0.34445 -0.10317
 C301 C 0.10571 0.36327 -0.12841
 C302 C 0.10130 0.38752 -0.01071
 C303 C 0.12148 0.39325 0.12963
 C304 C 0.14560 0.37445 0.15489
 C305 C 0.07499 0.40513 -0.02404
 C306 C 0.05255 0.41936 -0.02749
 H307 H 0.13267 0.32534 -0.19212
 H308 H 0.09011 0.35849 -0.23642
 H309 H 0.11815 0.41179 0.22237
 H310 H 0.16065 0.37869 0.26670
 C311 C 0.69321 0.81144 0.61839
 C312 C 0.67438 0.82941 0.58353
 C313 C 0.65114 0.85031 0.54765
 C314 C 0.63229 0.84598 0.39840
 C315 C 0.60814 0.86479 0.37321
 C316 C 0.60275 0.88798 0.49723
 C317 C 0.62199 0.89271 0.64395
 C318 C 0.64612 0.87392 0.66913
 C319 C 0.57642 0.90552 0.48272
 C320 C 0.55392 0.91965 0.47808
 H321 H 0.63588 0.82768 0.30422
 H322 H 0.59329 0.86081 0.26000
 H323 H 0.61792 0.91044 0.74135
 H324 H 0.66044 0.87736 0.78555
 C325 C 0.80805 0.18876 0.11071
 C326 C 0.82694 0.17086 0.07508
 C327 C 0.85024 0.15004 0.03878
 C328 C 0.86979 0.15503 -0.10609
 C329 C 0.89398 0.13624 -0.13100
 C330 C 0.89868 0.11238 -0.01121
 C331 C 0.87877 0.10703 0.13118
 C332 C 0.85460 0.12581 0.15609
 C333 C 0.92500 0.09479 -0.02497
 C334 C 0.94746 0.08060 -0.02883
 H335 H 0.86675 0.17383 -0.19677
 H336 H 0.90939 0.14074 -0.24048
 H337 H 0.88233 0.08881 0.22564
 H338 H 0.83975 0.12187 0.26936
 C339 C 0.30670 0.68851 0.61652
 C340 C 0.32553 0.67052 0.58138
 C341 C 0.34878 0.64961 0.54552
 C342 C 0.36774 0.65394 0.39681
 C343 C 0.39194 0.63516 0.37199
 C344 C 0.39725 0.61199 0.49575
 C345 C 0.37790 0.60725 0.64192
 C346 C 0.35373 0.62602 0.66674
 C347 C 0.42362 0.59450 0.48162
 C348 C 0.44614 0.58040 0.47714
 H349 H 0.36423 0.67224 0.30291
 H350 H 0.40688 0.63916 0.25930
 H351 H 0.38192 0.58955 0.73922
 H352 H 0.33933 0.62259 0.78282
   
