data_POSCAR
  _audit_creation_date              2014-09-24
  _audit_creation_method            'ToBaCCo'
  _symmetry_space_group_name_H-M    'P1'
  _symmetry_Int_Tables_number       1
  _symmetry_cell_setting            triclinic
  loop_
  _symmetry_equiv_pos_as_xyz
 x,y,z
_cell_length_a 17.4552
_cell_length_b 17.5320
_cell_length_c 18.8687
_cell_angle_alpha 90.013300
_cell_angle_beta 90.245600
_cell_angle_gamma 120.176400
loop_
  _atom_site_label
  _atom_site_type_symbol
  _atom_site_fract_x
  _atom_site_fract_y
  _atom_site_fract_z
O1 O 0.34743 0.54762 0.32977
 O2 O 0.18822 0.52115 0.30677
 C3 C 0.16684 0.56949 0.34194
 O4 O 0.19771 0.65065 0.32886
 O5 O 0.33075 0.80929 0.30686
 C6 C 0.40084 0.83102 0.34250
 O7 O 0.45147 0.80034 0.32991
 O8 O 0.47763 0.66810 0.30798
 C9 C 0.42907 0.59823 0.34304
 O10 O 0.37423 0.54787 0.18889
 O11 O 0.21875 0.52934 0.16589
 C12 C 0.16958 0.56138 0.15144
 O13 O 0.17123 0.62340 0.18773
 O14 O 0.30867 0.77850 0.16584
 C15 C 0.39032 0.82754 0.15250
 O16 O 0.45116 0.82634 0.18887
 O17 O 0.46936 0.68978 0.16693
 C18 C 0.43667 0.60851 0.15311
 Cr19 Cr 0.28394 0.54125 0.24792
 Cr20 Cr 0.25506 0.71367 0.24743
 Cr21 Cr 0.45763 0.74316 0.24849
 O22 O 0.33223 0.66604 0.24823
 O23 O 0.52189 0.33185 0.69183
 O24 O 0.54788 0.19956 0.66961
 C25 C 0.59844 0.16884 0.65688
 O26 O 0.66857 0.19051 0.69242
 O27 O 0.80165 0.34914 0.67048
 C28 C 0.83256 0.43033 0.65750
 O29 O 0.81129 0.47868 0.69281
 O30 O 0.65209 0.45235 0.67008
 C31 C 0.57044 0.40177 0.65682
 O32 O 0.53029 0.30998 0.83283
 O33 O 0.54837 0.17339 0.81062
 C34 C 0.60923 0.17204 0.84686
 O35 O 0.69087 0.22100 0.83344
 O36 O 0.82839 0.37606 0.81158
 C37 C 0.82991 0.43800 0.84771
 O38 O 0.78101 0.47037 0.83377
 O39 O 0.62550 0.45191 0.81100
 C40 C 0.56304 0.39124 0.84674
 Cr41 Cr 0.54189 0.25667 0.75115
 Cr42 Cr 0.74440 0.28597 0.75189
 Cr43 Cr 0.71568 0.45857 0.75182
 O44 O 0.66731 0.33374 0.75137
 C45 C 0.52634 -0.01806 0.49117
 C46 C 0.47287 0.01799 0.50815
 N47 N 0.39694 -0.00759 0.47108
 C48 C 0.37197 -0.06765 0.41765
 C49 C 0.42540 -0.10401 0.40033
 N50 N 0.50151 -0.07803 0.43785
 N51 N 0.60227 0.00751 0.52823
 C52 C 0.62725 0.06756 0.58166
 C53 C 0.57382 0.10391 0.59900
 N54 N 0.49770 0.07795 0.56149
 H55 H 0.31104 -0.08668 0.38908
 H56 H 0.68817 0.08657 0.61022
 C57 C 1.01791 0.54465 0.49107
 C58 C 0.98140 0.45519 0.50831
 N59 N 1.00592 0.40469 0.47119
 C60 C 1.06537 0.43955 0.41748
 C61 C 1.10221 0.52927 0.39990
 N62 N 1.07727 0.57957 0.43746
 N63 N 0.99339 0.59516 0.52820
 C64 C 0.93395 0.56029 0.58193
 C65 C 0.89713 0.47057 0.59951
 N66 N 0.92205 0.42028 0.56193
 H67 H 1.08359 0.39753 0.38890
 H68 H 0.91573 0.60231 0.61052
 C69 C 0.45479 0.47330 0.49113
 C70 C 0.54469 0.52680 0.50882
 N71 N 0.59514 0.60258 0.47244
 C72 C 0.55982 0.62737 0.41902
 C73 C 0.46967 0.57390 0.40098
 N74 N 0.41942 0.49795 0.43781
 N75 N 0.40433 0.39752 0.52750
 C76 C 0.43966 0.37271 0.58091
 C77 C 0.52982 0.42617 0.59894
 N78 N 0.58006 0.50213 0.56212
 H79 H 0.60182 0.68817 0.39100
 H80 H 0.39766 0.31190 0.60892
 C81 C 0.53138 -0.00334 1.02063
 C82 C 0.46819 0.00281 0.97867
 N83 N 0.38085 -0.04764 0.99434
 C84 C 0.35368 -0.10424 1.05014
 C85 C 0.41682 -0.11073 1.09240
 N86 N 0.50437 -0.05978 1.07632
 N87 N 0.61871 0.04712 1.00495
 C88 C 0.64588 0.10372 0.94915
 C89 C 0.58275 0.11023 0.90691
 N90 N 0.49520 0.05928 0.92299
 H91 H 0.28356 -0.14382 1.06116
 H92 H 0.71600 0.14331 0.93813
 C93 C 1.00502 0.53509 1.02328
 C94 C 0.99954 0.46688 0.98085
 N95 N 1.05052 0.43090 0.99662
 C96 C 1.10712 0.46013 1.05293
 C97 C 1.11329 0.52903 1.09598
 N98 N 1.06138 0.56440 1.07953
 N99 N 0.95407 0.57115 1.00746
 C100 C 0.89762 0.54191 0.95104
 C101 C 0.89175 0.47331 0.90833
 N102 N 0.94319 0.43755 0.92459
 H103 H 1.14686 0.42983 1.06352
 H104 H 0.85759 0.57174 0.93994
 C105 C 0.46499 0.46834 1.02062
 C106 C 0.53477 0.53135 0.97931
 N107 N 0.57190 0.61826 0.99564
 C108 C 0.54230 0.64519 1.05149
 C109 C 0.47222 0.58224 1.09309
 N110 N 0.43538 0.49511 1.07634
 N111 N 0.42786 0.38143 1.00428
 C112 C 0.45746 0.35451 0.94842
 C113 C 0.52752 0.41746 0.90682
 N114 N 0.56438 0.50459 0.92357
 H115 H 0.57304 0.71498 1.06304
 H116 H 0.42672 0.28473 0.93686
   
