data_POSCAR
  _audit_creation_date              2014-09-24
  _audit_creation_method            'ToBaCCo'
  _symmetry_space_group_name_H-M    'P1'
  _symmetry_Int_Tables_number       1
  _symmetry_cell_setting            triclinic
  loop_
  _symmetry_equiv_pos_as_xyz
 x,y,z
_cell_length_a 27.6984
_cell_length_b 27.6979
_cell_length_c 27.6757
_cell_angle_alpha 89.944400
_cell_angle_beta 90.164600
_cell_angle_gamma 90.000100
loop_
  _atom_site_label
  _atom_site_type_symbol
  _atom_site_fract_x
  _atom_site_fract_y
  _atom_site_fract_z
O1 O -0.12487 0.06523 0.00112
 O2 O 0.12367 0.06522 -0.00205
 O3 O -0.00221 0.12418 0.06480
 O4 O 0.00094 0.12435 -0.06600
 O5 O 0.00083 0.06547 -0.12497
 O6 O -0.00215 0.06519 0.12387
 O7 O 0.06476 0.12423 -0.00216
 O8 O -0.06588 0.12419 0.00116
 Zr9 Zr -0.00059 0.08494 -0.00057
 O10 O 0.04313 0.04380 -0.04434
 O11 O -0.04430 0.04366 0.04323
 C12 C -0.11037 0.10972 0.00204
 C13 C 0.10926 0.10975 -0.00293
 C14 C -0.00303 0.10970 0.10935
 C15 C 0.00170 0.11002 -0.11059
 H16 H 0.06368 0.06407 0.06384
 O17 O 0.04302 0.04349 0.04321
 H18 H -0.06497 0.06421 -0.06487
 O19 O -0.04434 0.04359 -0.04420
 O20 O 0.12351 -0.06539 0.00143
 O21 O -0.12507 -0.06544 -0.00220
 O22 O 0.06485 -0.00198 0.12395
 O23 O 0.06453 0.00162 -0.12484
 O24 O -0.06616 -0.00170 -0.12492
 O25 O -0.06577 0.00169 0.12385
 O26 O 0.00098 -0.12450 0.06519
 O27 O -0.00267 -0.12427 -0.06562
 O28 O 0.00113 -0.06557 0.12412
 O29 O -0.00265 -0.06529 -0.12471
 O30 O 0.12369 -0.00190 0.06496
 O31 O -0.12483 0.00173 0.06475
 O32 O -0.12501 -0.00182 -0.06600
 O33 O 0.12355 0.00154 -0.06573
 O34 O 0.06453 -0.12436 0.00153
 O35 O -0.06618 -0.12442 -0.00202
 Zr36 Zr 0.08429 -0.00008 -0.00041
 Zr37 Zr -0.08566 -0.00010 -0.00056
 Zr38 Zr -0.00053 -0.00017 0.08463
 Zr39 Zr -0.00077 0.00005 -0.08555
 Zr40 Zr -0.00079 -0.08510 -0.00028
 O41 O -0.04451 -0.04381 -0.04429
 O42 O 0.04316 -0.04390 0.04345
 C43 C 0.10903 -0.10987 0.00239
 C44 C -0.11073 -0.11001 -0.00294
 C45 C 0.10930 -0.00286 0.10947
 C46 C 0.10907 0.00240 -0.11031
 C47 C -0.11065 -0.00265 -0.11054
 C48 C -0.11028 0.00262 0.10930
 C49 C 0.00190 -0.11015 0.10979
 C50 C -0.00358 -0.10977 -0.11014
 H51 H -0.06488 -0.06433 0.06388
 O52 O -0.04430 -0.04374 0.04326
 H53 H 0.06335 -0.06428 -0.06456
 O54 O 0.04277 -0.04368 -0.04398
 O55 O 0.37594 0.56588 0.00198
 O56 O 0.62427 0.56608 -0.00110
 O57 O 0.49845 0.62493 0.06590
 O58 O 0.50184 0.62483 -0.06473
 O59 O 0.50171 0.56593 -0.12380
 O60 O 0.49852 0.56599 0.12494
 O61 O 0.56543 0.62488 -0.00109
 O62 O 0.43476 0.62473 0.00215
 Zr63 Zr 0.50009 0.58554 0.00056
 O64 O 0.54371 0.54440 -0.04330
 O65 O 0.45631 0.54435 0.04424
 C66 C 0.39008 0.61056 0.00292
 C67 C 0.61016 0.61080 -0.00195
 C68 C 0.49765 0.61055 0.11050
 C69 C 0.50272 0.61037 -0.10923
 H70 H 0.56443 0.56488 0.06489
 O71 O 0.54378 0.54426 0.04428
 H72 H 0.43576 0.56488 -0.06389
 O73 O 0.45642 0.54424 -0.04326
 O74 O 0.62416 0.43536 0.00242
 O75 O 0.37584 0.43525 -0.00146
 O76 O 0.56564 0.49883 0.12495
 O77 O 0.56521 0.50234 -0.12385
 O78 O 0.43438 0.49905 -0.12410
 O79 O 0.43480 0.50230 0.12472
 O80 O 0.50188 0.37636 0.06573
 O81 O 0.49828 0.37631 -0.06485
 O82 O 0.50198 0.43523 0.12482
 O83 O 0.49816 0.43523 -0.12395
 O84 O 0.62445 0.49888 0.06599
 O85 O 0.37582 0.50227 0.06553
 O86 O 0.37557 0.49903 -0.06516
 O87 O 0.62424 0.50244 -0.06471
 O88 O 0.56530 0.37656 0.00232
 O89 O 0.43468 0.37645 -0.00132
 Zr90 Zr 0.58499 0.50070 0.00060
 Zr91 Zr 0.41511 0.50058 0.00027
 Zr92 Zr 0.50017 0.50063 0.08559
 Zr93 Zr 0.49987 0.50059 -0.08465
 Zr94 Zr 0.50000 0.41574 0.00044
 O95 O 0.45611 0.45680 -0.04352
 O96 O 0.54384 0.45689 0.04434
 C97 C 0.60999 0.39068 0.00327
 C98 C 0.38997 0.39055 -0.00226
 C99 C 0.61014 0.49795 0.11055
 C100 C 0.60975 0.50326 -0.10929
 C101 C 0.38984 0.49823 -0.10975
 C102 C 0.39029 0.50315 0.11011
 C103 C 0.50286 0.39076 0.11026
 C104 C 0.49737 0.39071 -0.10943
 H105 H 0.43590 0.43637 0.06462
 O106 O 0.45650 0.45702 0.04407
 H107 H 0.56418 0.43645 -0.06369
 O108 O 0.54359 0.45707 -0.04313
 O109 O -0.12457 0.56559 0.50152
 O110 O 0.12401 0.56543 0.49844
 O111 O -0.00201 0.62417 0.56524
 O112 O 0.00132 0.62446 0.43435
 O113 O 0.00129 0.56561 0.37556
 O114 O -0.00189 0.56528 0.62414
 O115 O 0.06503 0.62441 0.49821
 O116 O -0.06563 0.62453 0.50149
 Zr117 Zr -0.00029 0.58514 0.49985
 O118 O 0.04353 0.54398 0.45625
 O119 O -0.04390 0.54391 0.54371
 C120 C -0.11019 0.61015 0.50235
 C121 C 0.10953 0.60992 0.49744
 C122 C -0.00289 0.60996 0.60996
 C123 C 0.00213 0.61035 0.38959
 H124 H 0.06403 0.56435 0.56434
 O125 O 0.04342 0.54376 0.54365
 H126 H -0.06460 0.56448 0.43551
 O127 O -0.04398 0.54387 0.45620
 O128 O 0.12413 0.43482 0.50195
 O129 O -0.12445 0.43491 0.49808
 O130 O 0.06532 0.49844 0.62449
 O131 O 0.06492 0.50206 0.37587
 O132 O -0.06569 0.49846 0.37562
 O133 O -0.06527 0.50180 0.62421
 O134 O 0.00152 0.37587 0.56555
 O135 O -0.00200 0.37610 0.43465
 O136 O 0.00165 0.43467 0.62440
 O137 O -0.00213 0.43501 0.37578
 O138 O 0.12411 0.49853 0.56574
 O139 O -0.12424 0.50193 0.56530
 O140 O -0.12447 0.49847 0.43438
 O141 O 0.12384 0.50193 0.43483
 O142 O 0.06516 0.37585 0.50186
 O143 O -0.06545 0.37594 0.49819
 Zr144 Zr 0.08476 0.50013 0.50020
 Zr145 Zr -0.08519 0.50023 0.49988
 Zr146 Zr -0.00005 0.50003 0.58496
 Zr147 Zr -0.00034 0.50028 0.41505
 Zr148 Zr -0.00016 0.41520 0.50009
 O149 O -0.04402 0.45645 0.45620
 O150 O 0.04374 0.45625 0.54399
 C151 C 0.10968 0.39029 0.50277
 C152 C -0.10995 0.39042 0.49721
 C153 C 0.11004 0.49768 0.61049
 C154 C 0.10964 0.50289 0.39007
 C155 C -0.11038 0.49758 0.38967
 C156 C -0.11000 0.50276 0.61006
 C157 C 0.00241 0.38994 0.61032
 C158 C -0.00296 0.39029 0.38991
 H159 H -0.06434 0.43591 0.56424
 O160 O -0.04378 0.45651 0.54360
 H161 H 0.06393 0.43602 0.43586
 O162 O 0.04335 0.45659 0.45647
 O163 O 0.37632 0.06477 0.50156
 O164 O 0.62457 0.06474 0.49833
 O165 O 0.49882 0.12364 0.56532
 O166 O 0.50216 0.12355 0.43468
 O167 O 0.50210 0.06477 0.37580
 O168 O 0.49888 0.06482 0.62424
 O169 O 0.56570 0.12354 0.49823
 O170 O 0.43513 0.12361 0.50160
 Zr171 Zr 0.50044 0.08432 0.50001
 O172 O 0.54416 0.04321 0.45628
 O173 O 0.45668 0.04330 0.54380
 C174 C 0.39043 0.10948 0.50245
 C175 C 0.61039 0.10942 0.49735
 C176 C 0.49798 0.10953 0.61007
 C177 C 0.50305 0.10944 0.38997
 H178 H 0.56481 0.06371 0.56435
 O179 O 0.54419 0.04309 0.54370
 H180 H 0.43615 0.06371 0.43560
 O181 O 0.45680 0.04309 0.45626
 O182 O 0.62475 -0.06592 0.50191
 O183 O 0.37645 -0.06580 0.49810
 O184 O 0.56590 -0.00226 0.62432
 O185 O 0.56558 0.00135 0.37588
 O186 O 0.43504 -0.00233 0.37575
 O187 O 0.43529 0.00113 0.62418
 O188 O 0.50253 -0.12457 0.56530
 O189 O 0.49875 -0.12472 0.43456
 O190 O 0.50252 -0.06572 0.62413
 O191 O 0.49863 -0.06584 0.37569
 O192 O 0.62468 -0.00236 0.56555
 O193 O 0.37641 0.00111 0.56519
 O194 O 0.37632 -0.00231 0.43457
 O195 O 0.62452 0.00133 0.43482
 O196 O 0.56594 -0.12476 0.50178
 O197 O 0.43528 -0.12465 0.49814
 Zr198 Zr 0.58539 -0.00058 0.50012
 Zr199 Zr 0.41565 -0.00052 0.49992
 Zr200 Zr 0.50057 -0.00048 0.58492
 Zr201 Zr 0.50038 -0.00056 0.41507
 Zr202 Zr 0.50059 -0.08543 0.49994
 O203 O 0.45666 -0.04432 0.45614
 O204 O 0.54432 -0.04431 0.54388
 C205 C 0.61066 -0.11065 0.50273
 C206 C 0.39059 -0.11049 0.49720
 C207 C 0.61058 -0.00322 0.61025
 C208 C 0.61029 0.00230 0.39008
 C209 C 0.39038 -0.00324 0.38987
 C210 C 0.39056 0.00197 0.60996
 C211 C 0.50350 -0.11037 0.60998
 C212 C 0.49780 -0.11058 0.38980
 H213 H 0.43642 -0.06479 0.56419
 O214 O 0.45700 -0.04418 0.54357
 H215 H 0.56473 -0.06477 0.43575
 O216 O 0.54414 -0.04418 0.45635
 C217 C 0.32902 0.26773 -0.00493
 C218 C 0.28020 0.28069 -0.00532
 C219 C 0.26720 0.32950 -0.00510
 C220 C 0.30283 0.36525 -0.00431
 C221 C 0.14589 0.14634 -0.00409
 C222 C 0.36474 0.30339 -0.00413
 C223 C 0.24346 0.24393 -0.00546
 C224 C 0.21269 0.21314 -0.00530
 C225 C 0.17666 0.17710 -0.00479
 C226 C 0.35210 0.35265 -0.00368
 H227 H 0.33949 0.23004 -0.00507
 H228 H 0.22950 0.33994 -0.00538
 H229 H 0.29170 0.40273 -0.00403
 H230 H 0.40222 0.29229 -0.00371
 C231 C 0.32948 -0.23307 0.49446
 C232 C 0.28072 -0.21993 0.49399
 C233 C 0.26780 -0.17112 0.49408
 C234 C 0.30350 -0.13548 0.49488
 C235 C 0.14610 -0.35357 0.49606
 C236 C 0.36528 -0.19753 0.49526
 C237 C 0.24392 -0.25651 0.49401
 C238 C 0.21305 -0.28712 0.49436
 C239 C 0.17692 -0.32294 0.49513
 C240 C 0.35272 -0.14826 0.49565
 H241 H 0.33983 -0.27079 0.49440
 H242 H 0.23013 -0.16059 0.49373
 H243 H 0.29246 -0.09798 0.49508
 H244 H 0.40274 -0.20871 0.49576
 C245 C 0.67121 0.73371 -0.00467
 C246 C 0.72006 0.72079 -0.00497
 C247 C 0.73301 0.67195 -0.00463
 C248 C 0.69736 0.63618 -0.00384
 C249 C 0.85456 0.85533 -0.00399
 C250 C 0.63547 0.69803 -0.00387
 C251 C 0.75685 0.75761 -0.00517
 C252 C 0.78765 0.78843 -0.00507
 C253 C 0.82374 0.82452 -0.00464
 C254 C 0.64807 0.64874 -0.00333
 H255 H 0.66073 0.77140 -0.00490
 H256 H 0.77071 0.66150 -0.00484
 H257 H 0.70849 0.59871 -0.00348
 H258 H 0.59799 0.70913 -0.00354
 C259 C 0.67101 0.23220 0.49406
 C260 C 0.71982 0.21928 0.49392
 C261 C 0.73296 0.17053 0.49444
 C262 C 0.69742 0.13473 0.49532
 C263 C 0.85354 0.35385 0.49580
 C264 C 0.63538 0.19651 0.49494
 C265 C 0.75641 0.25608 0.49386
 C266 C 0.78705 0.28693 0.49416
 C267 C 0.82289 0.32303 0.49489
 C268 C 0.64815 0.14730 0.49576
 H269 H 0.66048 0.26988 0.49368
 H270 H 0.77068 0.16017 0.49435
 H271 H 0.70861 0.09727 0.49585
 H272 H 0.59788 0.20756 0.49517
 C273 C 0.73259 0.32958 0.00577
 C274 C 0.71946 0.28082 0.00598
 C275 C 0.67065 0.26789 0.00581
 C276 C 0.63501 0.30358 0.00518
 C277 C 0.85314 0.14629 0.00345
 C278 C 0.69703 0.36537 0.00515
 C279 C 0.75605 0.24404 0.00580
 C280 C 0.78667 0.21319 0.00532
 C281 C 0.82250 0.17710 0.00444
 C282 C 0.64776 0.35280 0.00468
 H283 H 0.77031 0.33994 0.00588
 H284 H 0.66014 0.23021 0.00595
 H285 H 0.59751 0.29252 0.00489
 H286 H 0.70822 0.40283 0.00482
 C287 C 0.73356 -0.17175 0.50532
 C288 C 0.72062 -0.22060 0.50548
 C289 C 0.67178 -0.23353 0.50522
 C290 C 0.63601 -0.19786 0.50457
 C291 C 0.85512 -0.35516 0.50354
 C292 C 0.69788 -0.13599 0.50468
 C293 C 0.75744 -0.25742 0.50541
 C294 C 0.78824 -0.28824 0.50507
 C295 C 0.82433 -0.32435 0.50438
 C296 C 0.64860 -0.14857 0.50413
 H297 H 0.77125 -0.16128 0.50552
 H298 H 0.66131 -0.27122 0.50533
 H299 H 0.59853 -0.20898 0.50423
 H300 H 0.70899 -0.09850 0.50442
 C301 C 0.32943 0.23226 0.50528
 C302 C 0.28062 0.21928 0.50554
 C303 C 0.26764 0.17047 0.50520
 C304 C 0.30328 0.13473 0.50440
 C305 C 0.14629 0.35368 0.50404
 C306 C 0.36517 0.19662 0.50449
 C307 C 0.24386 0.25605 0.50563
 C308 C 0.21309 0.28684 0.50542
 C309 C 0.17706 0.32290 0.50482
 C310 C 0.35255 0.14735 0.50388
 H311 H 0.33989 0.26996 0.50553
 H312 H 0.22995 0.16001 0.50538
 H313 H 0.29217 0.09725 0.50402
 H314 H 0.40265 0.20774 0.50418
 C315 C 0.32896 0.73314 0.00556
 C316 C 0.28021 0.72000 0.00580
 C317 C 0.26729 0.67119 0.00551
 C318 C 0.30298 0.63557 0.00479
 C319 C 0.14559 0.85362 0.00377
 C320 C 0.36476 0.69760 0.00485
 C321 C 0.24341 0.75657 0.00577
 C322 C 0.21255 0.78718 0.00543
 C323 C 0.17642 0.82299 0.00468
 C324 C 0.35220 0.64833 0.00430
 H325 H 0.33931 0.77087 0.00576
 H326 H 0.22961 0.66066 0.00566
 H327 H 0.29194 0.59807 0.00444
 H328 H 0.40222 0.70879 0.00454
 C329 C -0.00511 0.26762 0.32888
 C330 C -0.00602 0.28067 0.28004
 C331 C -0.00639 0.32949 0.26705
 C332 C -0.00562 0.36519 0.30272
 C333 C -0.00428 0.14630 0.14592
 C334 C -0.00435 0.30321 0.36464
 C335 C -0.00604 0.24396 0.24330
 C336 C -0.00576 0.21317 0.21257
 C337 C -0.00510 0.17709 0.17662
 C338 C -0.00444 0.35249 0.35201
 H339 H -0.00480 0.22991 0.33932
 H340 H -0.00708 0.33998 0.22932
 H341 H -0.00580 0.40268 0.29161
 H342 H -0.00348 0.29205 0.40214
 C343 C 0.49527 0.17061 0.73289
 C344 C 0.49483 0.21942 0.71983
 C345 C 0.49502 0.23236 0.67095
 C346 C 0.49583 0.19669 0.63523
 C347 C 0.49616 0.35404 0.85399
 C348 C 0.49609 0.13484 0.69727
 C349 C 0.49470 0.25623 0.75656
 C350 C 0.49488 0.28707 0.78730
 C351 C 0.49542 0.32320 0.82327
 C352 C 0.49653 0.14743 0.64794
 H353 H 0.49514 0.16017 0.77063
 H354 H 0.49469 0.27004 0.66042
 H355 H 0.49608 0.20778 0.59771
 H356 H 0.49654 0.09736 0.70845
 C357 C -0.00668 0.67067 0.73266
 C358 C -0.00653 0.71945 0.71958
 C359 C -0.00561 0.73254 0.67078
 C360 C -0.00464 0.69696 0.63508
 C361 C -0.00497 0.85370 0.85337
 C362 C -0.00570 0.63499 0.69704
 C363 C -0.00670 0.75611 0.75623
 C364 C -0.00649 0.78689 0.78689
 C365 C -0.00584 0.82293 0.82273
 C366 C -0.00451 0.64771 0.64777
 H367 H -0.00737 0.66021 0.77039
 H368 H -0.00546 0.77025 0.66033
 H369 H -0.00379 0.70811 0.59758
 H370 H -0.00573 0.59749 0.70816
 C371 C 0.49522 -0.23337 0.32864
 C372 C 0.49486 -0.22037 0.27976
 C373 C 0.49500 -0.17151 0.26682
 C374 C 0.49573 -0.13580 0.30252
 C375 C 0.49650 -0.35477 0.14518
 C376 C 0.49594 -0.19775 0.36444
 C377 C 0.49483 -0.25713 0.24292
 C378 C 0.49510 -0.28791 0.21208
 C379 C 0.49572 -0.32397 0.17598
 C380 C 0.49636 -0.14845 0.35184
 H381 H 0.49511 -0.27108 0.33910
 H382 H 0.49474 -0.16100 0.22910
 H383 H 0.49596 -0.09830 0.29141
 H384 H 0.49635 -0.20891 0.40194
 C385 C 0.00393 0.73326 0.32818
 C386 C 0.00466 0.72033 0.27931
 C387 C 0.00497 0.67146 0.26646
 C388 C 0.00436 0.63570 0.30223
 C389 C 0.00303 0.85511 0.14456
 C390 C 0.00333 0.69760 0.36403
 C391 C 0.00465 0.75718 0.24239
 C392 C 0.00439 0.78805 0.21154
 C393 C 0.00379 0.82424 0.17540
 C394 C 0.00340 0.64829 0.35154
 H395 H 0.00367 0.77095 0.33860
 H396 H 0.00553 0.66096 0.22877
 H397 H 0.00451 0.59821 0.29117
 H398 H 0.00262 0.70873 0.40151
 C399 C 0.50648 -0.23283 0.67109
 C400 C 0.50696 -0.21964 0.71983
 C401 C 0.50686 -0.17087 0.73278
 C402 C 0.50600 -0.13526 0.69707
 C403 C 0.50427 -0.35315 0.85428
 C404 C 0.50563 -0.19732 0.63526
 C405 C 0.50684 -0.25615 0.75661
 C406 C 0.50635 -0.28673 0.78745
 C407 C 0.50537 -0.32252 0.82351
 C408 C 0.50518 -0.14807 0.64785
 H409 H 0.50654 -0.27056 0.66077
 H410 H 0.50720 -0.16036 0.77049
 H411 H 0.50577 -0.09776 0.70809
 H412 H 0.50509 -0.20850 0.59778
 C413 C 0.50621 0.23224 0.32927
 C414 C 0.50634 0.21934 0.28043
 C415 C 0.50587 0.17060 0.26729
 C416 C 0.50503 0.13478 0.30286
 C417 C 0.50429 0.35412 0.14675
 C418 C 0.50537 0.19653 0.36494
 C419 C 0.50635 0.25616 0.24381
 C420 C 0.50601 0.28706 0.21319
 C421 C 0.50524 0.32324 0.17737
 C422 C 0.50460 0.14732 0.35217
 H423 H 0.50656 0.26990 0.33979
 H424 H 0.50595 0.16027 0.22953
 H425 H 0.50453 0.09733 0.29168
 H426 H 0.50515 0.20755 0.40246
 C427 C 0.00413 0.26697 0.67149
 C428 C 0.00478 0.27983 0.72037
 C429 C 0.00510 0.32866 0.73333
 C430 C 0.00456 0.36449 0.69763
 C431 C 0.00283 0.14478 0.85470
 C432 C 0.00360 0.30269 0.63571
 C433 C 0.00466 0.24292 0.75718
 C434 C 0.00432 0.21198 0.78794
 C435 C 0.00364 0.17571 0.82394
 C436 C 0.00366 0.35197 0.64830
 H437 H 0.00387 0.22929 0.66099
 H438 H 0.00559 0.33908 0.77105
 H439 H 0.00469 0.40196 0.70876
 H440 H 0.00295 0.29162 0.59820
 C441 C 0.26758 -0.00627 0.32896
 C442 C 0.28048 -0.00647 0.28015
 C443 C 0.32923 -0.00611 0.26710
 C444 C 0.36503 -0.00530 0.30274
 C445 C 0.14593 -0.00429 0.14604
 C446 C 0.30329 -0.00546 0.36470
 C447 C 0.24369 -0.00644 0.24345
 C448 C 0.21285 -0.00606 0.21272
 C449 C 0.17675 -0.00525 0.17676
 C450 C 0.35249 -0.00479 0.35202
 H451 H 0.22991 -0.00654 0.33940
 H452 H 0.33956 -0.00625 0.22937
 H453 H 0.40248 -0.00488 0.29163
 H454 H 0.29227 -0.00518 0.40221
 C455 C 0.23299 0.49600 0.67197
 C456 C 0.22009 0.49531 0.72082
 C457 C 0.17125 0.49496 0.73365
 C458 C 0.13545 0.49551 0.69786
 C459 C 0.35504 0.49712 0.85552
 C460 C 0.19729 0.49655 0.63609
 C461 C 0.25697 0.49539 0.75774
 C462 C 0.28787 0.49570 0.78859
 C463 C 0.32411 0.49635 0.82470
 C464 C 0.14800 0.49645 0.64856
 H465 H 0.27067 0.49628 0.66157
 H466 H 0.16080 0.49443 0.77134
 H467 H 0.09798 0.49535 0.70889
 H468 H 0.20839 0.49723 0.59862
 C469 C 0.73334 -0.00594 0.67145
 C470 C 0.72036 -0.00622 0.72025
 C471 C 0.67158 -0.00601 0.73318
 C472 C 0.63583 -0.00529 0.69745
 C473 C 0.85470 -0.00395 0.85479
 C474 C 0.69768 -0.00522 0.63562
 C475 C 0.75710 -0.00612 0.75707
 C476 C 0.78789 -0.00572 0.78790
 C477 C 0.82392 -0.00491 0.82398
 C478 C 0.64844 -0.00471 0.64819
 H479 H 0.77103 -0.00609 0.66107
 H480 H 0.66117 -0.00621 0.77089
 H481 H 0.59836 -0.00499 0.70850
 H482 H 0.70876 -0.00487 0.59813
 C483 C -0.23322 0.49549 0.32839
 C484 C -0.22030 0.49468 0.27957
 C485 C -0.17149 0.49436 0.26667
 C486 C -0.13571 0.49507 0.30241
 C487 C -0.35511 0.49668 0.14521
 C488 C -0.19754 0.49619 0.36421
 C489 C -0.25712 0.49471 0.24274
 C490 C -0.28801 0.49505 0.21196
 C491 C -0.32421 0.49578 0.17596
 C492 C -0.14829 0.49615 0.35168
 H493 H -0.27091 0.49576 0.33878
 H494 H -0.16108 0.49375 0.22896
 H495 H -0.09824 0.49493 0.29136
 H496 H -0.20862 0.49698 0.40169
 C497 C 0.32938 0.00453 0.73265
 C498 C 0.28057 0.00494 0.71945
 C499 C 0.26769 0.00479 0.67053
 C500 C 0.30339 0.00403 0.63492
 C501 C 0.14571 0.00356 0.85313
 C502 C 0.36519 0.00377 0.69712
 C503 C 0.24370 0.00503 0.75605
 C504 C 0.21278 0.00482 0.78666
 C505 C 0.17657 0.00428 0.82249
 C506 C 0.35265 0.00337 0.64776
 H507 H 0.33977 0.00463 0.77042
 H508 H 0.23001 0.00510 0.65988
 H509 H 0.29233 0.00381 0.59736
 H510 H 0.40266 0.00334 0.70840
 C511 C 0.23230 0.50514 0.32925
 C512 C 0.21924 0.50603 0.28039
 C513 C 0.17041 0.50634 0.26731
 C514 C 0.13472 0.50554 0.30292
 C515 C 0.35368 0.50442 0.14658
 C516 C 0.19671 0.50434 0.36494
 C517 C 0.25595 0.50610 0.24372
 C518 C 0.28675 0.50585 0.21306
 C519 C 0.32285 0.50522 0.17721
 C520 C 0.14743 0.50438 0.35223
 H521 H 0.27001 0.50488 0.33976
 H522 H 0.15992 0.50702 0.22957
 H523 H 0.09722 0.50567 0.29175
 H524 H 0.20788 0.50350 0.40246
 C525 C 0.73281 0.00537 0.32913
 C526 C 0.71963 0.00580 0.28031
 C527 C 0.67080 0.00557 0.26729
 C528 C 0.63520 0.00467 0.30295
 C529 C 0.85324 0.00400 0.14586
 C530 C 0.69730 0.00447 0.36490
 C531 C 0.75619 0.00588 0.24354
 C532 C 0.78680 0.00559 0.21272
 C533 C 0.82262 0.00489 0.17665
 C534 C 0.64802 0.00394 0.35224
 H535 H 0.77054 0.00553 0.33957
 H536 H 0.66023 0.00589 0.22957
 H537 H 0.59769 0.00437 0.29183
 H538 H 0.70853 0.00400 0.40241
 C539 C -0.17062 0.50616 0.73294
 C540 C -0.21947 0.50594 0.71996
 C541 C -0.23260 0.50509 0.67112
 C542 C -0.19707 0.50427 0.63535
 C543 C -0.35366 0.50451 0.85416
 C544 C -0.13498 0.50534 0.69726
 C545 C -0.25613 0.50606 0.75673
 C546 C -0.28687 0.50586 0.78749
 C547 C -0.32289 0.50529 0.82346
 C548 C -0.14776 0.50423 0.64797
 H549 H -0.16004 0.50681 0.77066
 H550 H -0.27033 0.50489 0.66067
 H551 H -0.20830 0.50347 0.59785
 H552 H -0.09747 0.50542 0.70837
   
