data_POSCAR
  _audit_creation_date              2014-09-24
  _audit_creation_method            'ToBaCCo'
  _symmetry_space_group_name_H-M    'P1'
  _symmetry_Int_Tables_number       1
  _symmetry_cell_setting            triclinic
  loop_
  _symmetry_equiv_pos_as_xyz
 x,y,z
_cell_length_a 43.5175
_cell_length_b 43.4315
_cell_length_c 26.0722
_cell_angle_alpha 90.064000
_cell_angle_beta 89.792400
_cell_angle_gamma 90.320800
loop_
  _atom_site_label
  _atom_site_type_symbol
  _atom_site_fract_x
  _atom_site_fract_y
  _atom_site_fract_z
C1 C -0.00215 0.26559 -0.02002
 C2 C -0.00111 0.26456 0.03231
 C3 C -0.02962 0.26652 0.06362
 C4 C 0.02827 0.26050 0.06035
 C5 C 0.02628 0.26715 -0.05187
 C6 C -0.03186 0.26362 -0.04784
 C7 C -0.04951 0.29165 0.05859
 C8 C -0.07754 0.29212 0.08492
 C9 C -0.08614 0.26748 0.11703
 C10 C -0.06582 0.24261 0.12259
 C11 C -0.03768 0.24233 0.09666
 C12 C 0.03622 0.28075 0.10019
 C13 C 0.06458 0.27809 0.12478
 C14 C 0.08540 0.25522 0.10976
 C15 C 0.07701 0.23425 0.07127
 C16 C 0.04853 0.23665 0.04716
 C17 C 0.03047 0.24612 -0.09220
 C18 C 0.05787 0.24595 -0.12026
 C19 C 0.08151 0.26684 -0.10849
 C20 C 0.07709 0.28842 -0.06915
 C21 C 0.04951 0.28890 -0.04153
 C22 C -0.05262 0.23946 -0.03782
 C23 C -0.08076 0.23801 -0.06316
 C24 C -0.08836 0.26032 -0.09975
 C25 C -0.06718 0.28379 -0.11130
 C26 C -0.03913 0.28549 -0.08542
 H27 H -0.04359 0.31057 0.03332
 H28 H -0.09268 0.31141 0.07879
 H29 H -0.07196 0.22309 0.14642
 H30 H -0.02268 0.22268 0.10081
 H31 H 0.02079 0.29906 0.11140
 H32 H 0.07054 0.29421 0.15490
 H33 H 0.04248 0.22020 0.01759
 H34 H 0.01288 0.22920 -0.10097
 H35 H 0.06082 0.22890 -0.15011
 H36 H 0.09513 0.30467 -0.05948
 H37 H 0.04655 0.30576 -0.01131
 H38 H -0.04702 0.22173 -0.01029
 H39 H -0.09637 0.21926 -0.05440
 H40 H -0.07252 0.30096 -0.13996
 H41 H -0.02324 0.30403 -0.09427
 H42 H 0.09237 0.21601 0.05971
 C43 C 0.50195 0.76701 0.46929
 C44 C 0.50145 0.76720 0.52176
 C45 C 0.47208 0.76898 0.55105
 C46 C 0.53018 0.76423 0.55214
 C47 C 0.53132 0.76903 0.43998
 C48 C 0.47325 0.76331 0.43895
 C49 C 0.44985 0.79121 0.53914
 C50 C 0.42125 0.79083 0.56369
 C51 C 0.41475 0.76872 0.60141
 C52 C 0.43754 0.74768 0.61545
 C53 C 0.46593 0.74771 0.59034
 C54 C 0.53682 0.78537 0.59140
 C55 C 0.56437 0.78336 0.61861
 C56 C 0.58571 0.76031 0.60679
 C57 C 0.57859 0.73851 0.56884
 C58 C 0.55092 0.74026 0.54213
 C59 C 0.53760 0.74751 0.40117
 C60 C 0.56606 0.74763 0.37629
 C61 C 0.58878 0.76906 0.39010
 C62 C 0.58211 0.79146 0.42723
 C63 C 0.55345 0.79169 0.45152
 C64 C 0.45267 0.73905 0.44937
 C65 C 0.42505 0.73657 0.42261
 C66 C 0.41782 0.75792 0.38421
 C67 C 0.43901 0.78126 0.37202
 C68 C 0.46652 0.78399 0.39925
 H69 H 0.45439 0.80840 0.50999
 H70 H 0.40426 0.80769 0.55292
 H71 H 0.43301 0.73069 0.64494
 H72 H 0.48279 0.73054 0.60054
 H73 H 0.52095 0.80376 0.60023
 H74 H 0.56933 0.80014 0.64826
 H75 H 0.54583 0.72314 0.51310
 H76 H 0.52081 0.73001 0.39124
 H77 H 0.57071 0.73041 0.34722
 H78 H 0.59906 0.80863 0.43779
 H79 H 0.54879 0.80908 0.48028
 H80 H 0.45784 0.72226 0.47874
 H81 H 0.40943 0.71796 0.43205
 H82 H 0.43396 0.79772 0.34206
 H83 H 0.48228 0.80259 0.39011
 H84 H 0.59432 0.72009 0.55975
 C85 C 1.00149 0.73408 -0.03134
 C86 C 1.00231 0.73289 0.02106
 C87 C 1.03187 0.73079 0.04951
 C88 C 0.97384 0.73515 0.05253
 C89 C 0.97196 0.73266 -0.06007
 C90 C 1.03009 0.73826 -0.06200
 C91 C 1.05413 0.70879 0.03622
 C92 C 1.08266 0.70865 0.06068
 C93 C 1.08907 0.72999 0.09967
 C94 C 1.06631 0.75086 0.11483
 C95 C 1.03800 0.75136 0.08983
 C96 C 0.96794 0.71347 0.09129
 C97 C 0.94101 0.71515 0.12051
 C98 C 0.91965 0.73856 0.11137
 C99 C 0.92575 0.76052 0.07326
 C100 C 0.95284 0.75912 0.04457
 C101 C 0.96570 0.75475 -0.09786
 C102 C 0.93717 0.75514 -0.12224
 C103 C 0.91434 0.73365 -0.10895
 C104 C 0.92094 0.71075 -0.07280
 C105 C 0.94967 0.71002 -0.04903
 C106 C 1.05057 0.76245 -0.05093
 C107 C 1.07850 0.76495 -0.07707
 C108 C 1.08622 0.74362 -0.11551
 C109 C 1.06492 0.72051 -0.12863
 C110 C 1.03710 0.71781 -0.10199
 H111 H 1.04961 0.69212 0.00623
 H112 H 1.09966 0.69197 0.04893
 H113 H 1.07078 0.76729 0.14523
 H114 H 1.02114 0.76835 0.10111
 H115 H 0.98397 0.69498 0.09833
 H116 H 0.93675 0.69789 0.14958
 H117 H 0.95729 0.77656 0.01580
 H118 H 0.98257 0.77226 -0.10743
 H119 H 0.93259 0.77273 -0.15056
 H120 H 0.90392 0.69354 -0.06268
 H121 H 0.95427 0.69220 -0.02111
 H122 H 1.04516 0.77906 -0.02127
 H123 H 1.09396 0.78354 -0.06690
 H124 H 1.07013 0.70412 -0.15874
 H125 H 1.02139 0.69927 -0.11162
 H126 H 0.90952 0.77877 0.06580
 C127 C 0.49910 0.23288 0.47800
 C128 C 0.49869 0.23310 0.53046
 C129 C 0.52756 0.23128 0.56077
 C130 C 0.46950 0.23667 0.55978
 C131 C 0.47023 0.23070 0.44766
 C132 C 0.52836 0.23614 0.44868
 C133 C 0.54976 0.20876 0.54997
 C134 C 0.57807 0.20923 0.57507
 C135 C 0.58429 0.23174 0.61227
 C136 C 0.56146 0.25302 0.62536
 C137 C 0.53335 0.25290 0.59967
 C138 C 0.46205 0.21608 0.59946
 C139 C 0.43413 0.21871 0.62581
 C140 C 0.41325 0.24189 0.61277
 C141 C 0.42115 0.26312 0.57435
 C142 C 0.44917 0.26073 0.54846
 C143 C 0.46478 0.25177 0.40795
 C144 C 0.43683 0.25141 0.38181
 C145 C 0.41379 0.23017 0.39523
 C146 C 0.41963 0.20826 0.43338
 C147 C 0.44779 0.20827 0.45896
 C148 C 0.54895 0.26032 0.45948
 C149 C 0.57711 0.26233 0.43387
 C150 C 0.58489 0.24061 0.39622
 C151 C 0.56375 0.21733 0.38360
 C152 C 0.53570 0.21506 0.40971
 H153 H 0.54546 0.19130 0.52114
 H154 H 0.59510 0.19217 0.56506
 H155 H 0.56575 0.27031 0.65448
 H156 H 0.51650 0.27030 0.60903
 H157 H 0.47758 0.19762 0.60929
 H158 H 0.42854 0.20234 0.65577
 H159 H 0.45486 0.27744 0.51908
 H160 H 0.48183 0.26908 0.39819
 H161 H 0.43282 0.26825 0.35201
 H162 H 0.40244 0.19125 0.44370
 H163 H 0.45181 0.19123 0.48842
 H164 H 0.54336 0.27740 0.48829
 H165 H 0.59269 0.28092 0.44354
 H166 H 0.56921 0.20062 0.35414
 H167 H 0.51997 0.19651 0.40028
 H168 H 0.40577 0.28159 0.56422
 C169 C 0.73132 0.00053 -0.02322
 C170 C 0.73195 0.00038 0.02921
 C171 C 0.73490 -0.02872 0.05896
 C172 C 0.73055 0.02940 0.05942
 C173 C 0.73325 0.02969 -0.05316
 C174 C 0.72958 -0.02856 -0.05323
 C175 C 0.71420 -0.03517 0.09899
 C176 C 0.71641 -0.06257 0.12677
 C177 C 0.73945 -0.08402 0.11506
 C178 C 0.76040 -0.07739 0.07542
 C179 C 0.75843 -0.04981 0.04812
 C180 C 0.70781 0.05152 0.04993
 C181 C 0.70843 0.07978 0.07552
 C182 C 0.73131 0.08600 0.11189
 C183 C 0.75287 0.06324 0.12364
 C184 C 0.75260 0.03520 0.09745
 C185 C 0.75667 0.05138 -0.04389
 C186 C 0.75763 0.07906 -0.07110
 C187 C 0.73576 0.08521 -0.10920
 C188 C 0.71284 0.06315 -0.11944
 C189 C 0.71164 0.03565 -0.09168
 C190 C 0.75088 -0.03398 -0.09269
 C191 C 0.75103 -0.06213 -0.11854
 C192 C 0.73008 -0.08548 -0.10501
 C193 C 0.70780 -0.07954 -0.06722
 C194 C 0.70733 -0.05116 -0.04197
 H195 H 0.69601 -0.01914 0.10821
 H196 H 0.69977 -0.06699 0.15682
 H197 H 0.77839 -0.09355 0.06566
 H198 H 0.77511 -0.04501 0.01823
 H199 H 0.69003 0.04716 0.02186
 H200 H 0.69117 0.09676 0.06659
 H201 H 0.77013 0.01835 0.10583
 H202 H 0.77405 0.04699 -0.01524
 H203 H 0.77555 0.09568 -0.06250
 H204 H 0.69553 0.06720 -0.14828
 H205 H 0.69351 0.01916 -0.09970
 H206 H 0.76800 -0.01674 -0.10245
 H207 H 0.76810 -0.06600 -0.14817
 H208 H 0.69085 -0.09676 -0.05679
 H209 H 0.69007 -0.04709 -0.01275
 H210 H 0.77045 0.06753 0.15211
 C211 C 0.23356 0.49824 0.46951
 C212 C 0.23241 0.49951 0.52192
 C213 C 0.23431 0.47118 0.55361
 C214 C 0.23084 0.52939 0.55015
 C215 C 0.23786 0.52663 0.43853
 C216 C 0.23211 0.46847 0.44091
 C217 C 0.21243 0.46563 0.59223
 C218 C 0.21364 0.43869 0.62140
 C219 C 0.23679 0.41699 0.61232
 C220 C 0.25900 0.42279 0.57444
 C221 C 0.25806 0.44988 0.54581
 C222 C 0.20932 0.55206 0.53689
 C223 C 0.20970 0.58080 0.56121
 C224 C 0.23108 0.58705 0.60006
 C225 C 0.25149 0.56392 0.61514
 C226 C 0.25148 0.53541 0.59029
 C227 C 0.26227 0.54699 0.44888
 C228 C 0.26488 0.57475 0.42234
 C229 C 0.24353 0.58228 0.38428
 C230 C 0.22016 0.56121 0.37189
 C231 C 0.21730 0.53357 0.39892
 C232 C 0.25389 0.46221 0.40244
 C233 C 0.25397 0.43374 0.37743
 C234 C 0.23249 0.41090 0.39071
 C235 C 0.20999 0.41743 0.42776
 C236 C 0.20954 0.44613 0.45219
 H237 H 0.19411 0.48191 0.59914
 H238 H 0.19620 0.43466 0.65032
 H239 H 0.27706 0.40629 0.56706
 H240 H 0.27564 0.45407 0.51711
 H241 H 0.19259 0.54769 0.50708
 H242 H 0.19335 0.59807 0.54950
 H243 H 0.26812 0.51827 0.60158
 H244 H 0.27892 0.54162 0.47829
 H245 H 0.28353 0.59028 0.43182
 H246 H 0.20374 0.56651 0.34211
 H247 H 0.19858 0.51795 0.38990
 H248 H 0.27135 0.47909 0.39264
 H249 H 0.27130 0.42924 0.34848
 H250 H 0.19280 0.40040 0.43798
 H251 H 0.19193 0.45071 0.48058
 H252 H 0.26793 0.56823 0.64543
 C253 C 0.26537 1.00041 -0.03258
 C254 C 0.26652 0.99869 0.01969
 C255 C 0.26759 1.02672 0.05267
 C256 C 0.26513 0.96847 0.04631
 C257 C 0.26689 0.97227 -0.06493
 C258 C 0.26149 1.03017 -0.05971
 C259 C 0.28887 1.05055 0.04331
 C260 C 0.28789 1.07772 0.07208
 C261 C 0.26624 1.08122 0.11174
 C262 C 0.24578 1.05689 0.12238
 C263 C 0.24650 1.02992 0.09316
 C264 C 0.28769 0.96061 0.08224
 C265 C 0.28678 0.93192 0.10646
 C266 C 0.26341 0.91069 0.09486
 C267 C 0.24037 0.91888 0.06006
 C268 C 0.24106 0.94766 0.03638
 C269 C 0.24228 0.96471 -0.09726
 C270 C 0.24222 0.93696 -0.12441
 C271 C 0.26710 0.91662 -0.12067
 C272 C 0.29219 0.92469 -0.08951
 C273 C 0.29207 0.95230 -0.06188
 C274 C 0.23768 1.05035 -0.04618
 C275 C 0.23537 1.07911 -0.06967
 C276 C 0.25648 1.08792 -0.10792
 C277 C 0.27929 1.06707 -0.12328
 C278 C 0.28182 1.03846 -0.09928
 H279 H 0.30578 1.04838 0.01296
 H280 H 0.30385 1.09617 0.06298
 H281 H 0.22858 1.05889 0.15224
 H282 H 0.22991 1.01185 0.10119
 H283 H 0.30619 0.97654 0.09098
 H284 H 0.30446 0.92613 0.13388
 H285 H 0.22285 0.95367 0.01008
 H286 H 0.22262 0.97980 -0.09997
 H287 H 0.22248 0.93116 -0.14780
 H288 H 0.31157 0.90941 -0.08532
 H289 H 0.31133 0.95786 -0.03728
 H290 H 0.22115 1.04400 -0.01684
 H291 H 0.21706 1.09428 -0.05775
 H292 H 0.29553 1.07317 -0.15324
 H293 H 0.30008 1.02305 -0.11078
 H294 H 0.22167 0.90323 0.05144
 C295 C 0.76681 0.50113 0.47785
 C296 C 0.76571 0.50125 0.53028
 C297 C 0.76246 0.53046 0.55940
 C298 C 0.76616 0.47225 0.56085
 C299 C 0.76371 0.47204 0.44831
 C300 C 0.76932 0.53020 0.44766
 C301 C 0.78321 0.53775 0.59869
 C302 C 0.78113 0.56590 0.62441
 C303 C 0.75836 0.58713 0.61101
 C304 C 0.73690 0.57935 0.57309
 C305 C 0.73873 0.55109 0.54787
 C306 C 0.78826 0.44938 0.55164
 C307 C 0.78714 0.42153 0.57848
 C308 C 0.76449 0.41643 0.61599
 C309 C 0.74303 0.43962 0.62640
 C310 C 0.74389 0.46728 0.59912
 C311 C 0.73902 0.45182 0.45770
 C312 C 0.73707 0.42378 0.43177
 C313 C 0.75941 0.41582 0.39527
 C314 C 0.78321 0.43665 0.38397
 C315 C 0.78540 0.46457 0.41041
 C316 C 0.74861 0.53584 0.40759
 C317 C 0.74912 0.56397 0.38167
 C318 C 0.77014 0.58706 0.39562
 C319 C 0.79173 0.58105 0.43411
 C320 C 0.79158 0.55269 0.45948
 H321 H 0.80140 0.52194 0.60861
 H322 H 0.79760 0.57140 0.65412
 H323 H 0.71870 0.59502 0.56287
 H324 H 0.72193 0.54548 0.51871
 H325 H 0.80606 0.45288 0.52306
 H326 H 0.80383 0.40386 0.56979
 H327 H 0.72663 0.48454 0.60699
 H328 H 0.72149 0.45760 0.48564
 H329 H 0.71808 0.40844 0.44032
 H330 H 0.80039 0.43102 0.35536
 H331 H 0.80434 0.48009 0.40208
 H332 H 0.73142 0.51879 0.39740
 H333 H 0.73253 0.56808 0.35162
 H334 H 0.80858 0.59826 0.44490
 H335 H 0.80836 0.54856 0.48922
 H336 H 0.72513 0.43613 0.65473
 O337 O 0.24333 0.19589 0.25303
 O338 O 0.23328 0.27130 0.31571
 O339 O 0.20103 0.23767 0.25286
 O340 O 0.27573 0.22898 0.31665
 O341 O 0.29871 0.25245 0.25168
 O342 O 0.22419 0.25964 0.18663
 O343 O 0.25617 0.29397 0.24990
 O344 O 0.26726 0.21849 0.18816
 Cu345 Cu 0.23606 0.23122 0.29126
 Cu346 Cu 0.26386 0.25848 0.21248
 C347 C 0.25693 0.19444 0.20994
 C348 C 0.24311 0.29541 0.29343
 C349 C 0.20003 0.24971 0.20861
 C350 C 0.29983 0.23940 0.29514
 O351 O 0.77092 0.72614 0.31993
 O352 O 0.76231 0.80171 0.25785
 O353 O 0.72859 0.76850 0.31908
 O354 O 0.80446 0.75945 0.25833
 O355 O 0.78250 0.73722 0.19139
 O356 O 0.70679 0.74575 0.25248
 O357 O 0.74053 0.77925 0.19097
 O358 O 0.74885 0.70370 0.25331
 Cu359 Cu 0.76878 0.76618 0.29558
 Cu360 Cu 0.74248 0.73918 0.21532
 C361 C 0.76120 0.70214 0.29726
 C362 C 0.75006 0.80327 0.21384
 C363 C 0.70486 0.75857 0.29610
 C364 C 0.80627 0.74701 0.21438
 O365 O 0.79837 0.24545 0.25372
 O366 O 0.72295 0.23547 0.31591
 O367 O 0.75630 0.20253 0.25307
 O368 O 0.76458 0.27782 0.31598
 O369 O 0.74303 0.30023 0.24913
 O370 O 0.73293 0.22466 0.18772
 O371 O 0.70057 0.25819 0.25014
 O372 O 0.77593 0.26671 0.18669
 Cu373 Cu 0.76287 0.23795 0.29121
 Cu374 Cu 0.73594 0.26466 0.21160
 C375 C 0.79992 0.25765 0.20960
 C376 C 0.69908 0.24566 0.29404
 C377 C 0.74307 0.20083 0.20988
 C378 C 0.75493 0.30172 0.29342
 O379 O 0.26958 0.77196 0.17275
 O380 O 0.26155 0.69709 0.23729
 O381 O 0.22788 0.72895 0.17484
 O382 O 0.30338 0.73990 0.23598
 O383 O 0.28078 0.76203 0.30245
 O384 O 0.20569 0.75266 0.24015
 O385 O 0.23881 0.71993 0.30297
 O386 O 0.24805 0.79490 0.23944
 Cu387 Cu 0.26791 0.73224 0.19849
 Cu388 Cu 0.24104 0.75973 0.27784
 C389 C 0.25996 0.79606 0.19501
 C390 C 0.24902 0.69590 0.28125
 C391 C 0.20404 0.73925 0.19697
 C392 C 0.30475 0.75223 0.28009
 O393 O 0.70013 0.25570 0.75364
 O394 O 0.77463 0.26488 0.81776
 O395 O 0.74227 0.29826 0.75472
 O396 O 0.73317 0.22212 0.81534
 O397 O 0.75610 0.20048 0.74873
 O398 O 0.76554 0.27660 0.68849
 O399 O 0.79788 0.24330 0.75141
 O400 O 0.72313 0.23376 0.68739
 Cu401 Cu 0.73519 0.26249 0.79197
 Cu402 Cu 0.76298 0.23643 0.71221
 C403 C 0.69897 0.24317 0.70973
 C404 C 0.79880 0.25529 0.79580
 C405 C 0.75541 0.30031 0.71129
 C406 C 0.74331 0.19843 0.79242
 O407 O 0.29760 0.74529 0.74153
 O408 O 0.22241 0.73755 0.80503
 O409 O 0.25462 0.70367 0.74172
 O410 O 0.26545 0.77889 0.80462
 O411 O 0.24347 0.80186 0.73872
 O412 O 0.23223 0.72650 0.67611
 O413 O 0.20018 0.76036 0.73922
 O414 O 0.27554 0.76842 0.67587
 Cu415 Cu 0.26222 0.73896 0.77980
 Cu416 Cu 0.23560 0.76652 0.70078
 C417 C 0.29931 0.75823 0.69801
 C418 C 0.19863 0.74797 0.78320
 C419 C 0.24176 0.70234 0.69816
 C420 C 0.25621 0.80310 0.78241
 O421 O 0.25547 0.30157 0.75858
 O422 O 0.26237 0.22584 0.82013
 O423 O 0.29713 0.25888 0.75871
 O424 O 0.22114 0.26872 0.81915
 O425 O 0.19937 0.24607 0.75241
 O426 O 0.27505 0.23753 0.69112
 O427 O 0.24124 0.20376 0.75233
 O428 O 0.23339 0.27961 0.69148
 Cu429 Cu 0.26134 0.26589 0.79594
 Cu430 Cu 0.23506 0.23947 0.71509
 C431 C 0.24327 0.30338 0.71458
 C432 C 0.25269 0.20203 0.79689
 C433 C 0.29887 0.24707 0.71424
 C434 C 0.19741 0.25887 0.79606
 O435 O 0.72252 0.76717 0.69031
 O436 O 0.79733 0.75848 0.75349
 O437 O 0.76427 0.72541 0.69058
 O438 O 0.75497 0.80037 0.75409
 O439 O 0.73189 0.77745 0.81950
 O440 O 0.74160 0.70245 0.75639
 O441 O 0.77466 0.73529 0.81902
 O442 O 0.69958 0.74431 0.75593
 Cu443 Cu 0.76214 0.76526 0.71563
 Cu444 Cu 0.73469 0.73766 0.79454
 C445 C 0.69846 0.75678 0.71197
 C446 C 0.79871 0.74534 0.79684
 C447 C 0.75411 0.70131 0.71243
 C448 C 0.74182 0.80159 0.79754
 C449 C 0.27823 0.15782 0.13428
 C450 C 0.29179 0.12841 0.15885
 C451 C 0.26415 0.10977 0.13865
 C452 C 0.25067 0.13883 0.11382
 C453 C 0.24610 0.11598 0.18857
 C454 C 0.27371 0.13500 0.20897
 C455 C 0.26018 0.16395 0.18406
 C456 C 0.23261 0.14533 0.16394
 H457 H 0.29145 0.17527 0.11214
 H458 H 0.31621 0.12123 0.15676
 H459 H 0.24115 0.14019 0.07445
 H460 H 0.23287 0.09911 0.21187
 H461 H 0.28322 0.13378 0.24836
 H462 H 0.20824 0.15265 0.16617
 C463 C 0.77499 0.64342 0.70256
 C464 C 0.74678 0.62229 0.69319
 C465 C 0.75719 0.61784 0.63726
 C466 C 0.78545 0.63861 0.64625
 C467 C 0.73816 0.64579 0.62016
 C468 C 0.72772 0.65051 0.67636
 C469 C 0.75595 0.67120 0.68537
 C470 C 0.76640 0.66684 0.62949
 H471 H 0.79015 0.64284 0.73668
 H472 H 0.73864 0.60366 0.71910
 H473 H 0.80924 0.63347 0.63351
 H474 H 0.72295 0.64730 0.58620
 H475 H 0.70394 0.65576 0.68906
 H476 H 0.77453 0.68542 0.60349
 C477 C 0.71689 0.84626 0.16590
 C478 C 0.72378 0.87794 0.19080
 C479 C 0.74156 0.88751 0.14205
 C480 C 0.73463 0.85617 0.11690
 C481 C 0.77168 0.87500 0.16457
 C482 C 0.75396 0.86509 0.21349
 C483 C 0.74698 0.83382 0.18828
 C484 C 0.76474 0.84332 0.13970
 H485 H 0.69439 0.83411 0.16668
 H486 H 0.70690 0.89178 0.21279
 H487 H 0.72661 0.85272 0.07692
 H488 H 0.79426 0.88703 0.16397
 H489 H 0.76197 0.86853 0.25347
 H490 H 0.78163 0.82877 0.11900
 C491 C 0.21176 0.34666 0.66430
 C492 C 0.21856 0.37838 0.68913
 C493 C 0.23773 0.38732 0.64159
 C494 C 0.23090 0.35595 0.61651
 C495 C 0.26700 0.37446 0.66643
 C496 C 0.24790 0.36517 0.71421
 C497 C 0.24103 0.33389 0.68899
 C498 C 0.26016 0.34279 0.64158
 H499 H 0.18906 0.33487 0.66370
 H500 H 0.20141 0.39290 0.70923
 H501 H 0.22387 0.35246 0.57602
 H502 H 0.28974 0.38616 0.66715
 H503 H 0.25493 0.36869 0.75469
 H504 H 0.27731 0.32781 0.62236
 C505 C 0.83627 0.27205 0.12871
 C506 C 0.86312 0.29248 0.14776
 C507 C 0.88427 0.26635 0.14133
 C508 C 0.85994 0.24593 0.12164
 C509 C 0.87983 0.25591 0.19458
 C510 C 0.85666 0.28223 0.20360
 C511 C 0.83052 0.26113 0.18426
 C512 C 0.85345 0.23451 0.17673
 H513 H 0.81875 0.27889 0.10011
 H514 H 0.86773 0.31663 0.13604
 H515 H 0.86261 0.23125 0.08700
 H516 H 0.89888 0.24960 0.22072
 H517 H 0.85606 0.29763 0.23759
 H518 H 0.85018 0.21010 0.18824
 C519 C 0.35926 0.74500 0.68946
 C520 C 0.36585 0.73633 0.63291
 C521 C 0.38362 0.76684 0.62625
 C522 C 0.37730 0.77552 0.68250
 C523 C 0.35407 0.78321 0.60905
 C524 C 0.33604 0.75265 0.61609
 C525 C 0.32981 0.76137 0.67228
 C526 C 0.34742 0.79187 0.66564
 H527 H 0.36117 0.72920 0.72272
 H528 H 0.37361 0.71346 0.61915
 H529 H 0.39456 0.78500 0.70958
 H530 H 0.35160 0.79894 0.57583
 H531 H 0.31876 0.74314 0.58905
 H532 H 0.33949 0.81467 0.67948
 C533 C 0.15581 0.70576 0.16399
 C534 C 0.12594 0.72229 0.18089
 C535 C 0.12008 0.73129 0.12473
 C536 C 0.14960 0.71475 0.10748
 C537 C 0.13806 0.76161 0.13206
 C538 C 0.14418 0.75263 0.18849
 C539 C 0.17362 0.73609 0.17128
 C540 C 0.16783 0.74512 0.11517
 H541 H 0.16345 0.68283 0.17751
 H542 H 0.10841 0.71283 0.20769
 H543 H 0.15217 0.69916 0.07402
 H544 H 0.13060 0.78462 0.11862
 H545 H 0.14215 0.76828 0.22200
 H546 H 0.18537 0.75461 0.08841
 C547 C 0.65128 0.20908 0.67712
 C548 C 0.62120 0.22533 0.69371
 C549 C 0.61523 0.23382 0.63739
 C550 C 0.64496 0.21755 0.62045
 C551 C 0.63281 0.26443 0.64403
 C552 C 0.63905 0.25596 0.70065
 C553 C 0.66870 0.23968 0.68375
 C554 C 0.66280 0.24822 0.62748
 H555 H 0.65923 0.18635 0.69111
 H556 H 0.60381 0.21585 0.72072
 H557 H 0.64772 0.20174 0.58731
 H558 H 0.62504 0.28723 0.63012
 H559 H 0.63684 0.27185 0.73382
 H560 H 0.68022 0.25773 0.60051
 C561 C 0.71114 0.15436 0.84154
 C562 C 0.71827 0.12293 0.81610
 C563 C 0.73688 0.11378 0.86388
 C564 C 0.72971 0.14486 0.88957
 C565 C 0.76644 0.12723 0.83995
 C566 C 0.74789 0.13672 0.79200
 C567 C 0.74069 0.16773 0.81776
 C568 C 0.75926 0.15863 0.86538
 H569 H 0.68842 0.16585 0.84195
 H570 H 0.70137 0.10859 0.79491
 H571 H 0.72220 0.14799 0.92997
 H572 H 0.78924 0.11589 0.83932
 H573 H 0.75541 0.13360 0.75161
 H574 H 0.77616 0.17363 0.88534
 C575 C 0.22758 0.63801 0.29182
 C576 C 0.25551 0.61683 0.30121
 C577 C 0.24522 0.61275 0.35729
 C578 C 0.21723 0.63358 0.34827
 C579 C 0.26471 0.64074 0.37385
 C580 C 0.27504 0.64511 0.31749
 C581 C 0.24708 0.66584 0.30848
 C582 C 0.23675 0.66182 0.36451
 H583 H 0.21230 0.63728 0.25784
 H584 H 0.26330 0.59803 0.27547
 H585 H 0.19340 0.62861 0.36128
 H586 H 0.28005 0.64240 0.40765
 H587 H 0.29886 0.65020 0.30451
 H588 H 0.22897 0.68056 0.39037
 C589 C 0.23355 0.85635 0.81678
 C590 C 0.24455 0.86136 0.87256
 C591 C 0.26576 0.88754 0.85391
 C592 C 0.25480 0.88287 0.79832
 C593 C 0.29227 0.86467 0.84544
 C594 C 0.27098 0.83817 0.86383
 C595 C 0.25999 0.83354 0.80835
 C596 C 0.28119 0.85963 0.78956
 H597 H 0.20936 0.85261 0.80481
 H598 H 0.22949 0.86225 0.90699
 H599 H 0.24822 0.90145 0.77136
 H600 H 0.31667 0.86776 0.85664
 H601 H 0.27757 0.81954 0.89069
 H602 H 0.29622 0.85857 0.75512
 C603 C 0.72869 0.35280 0.32836
 C604 C 0.73835 0.35739 0.38489
 C605 C 0.75811 0.38525 0.36853
 C606 C 0.74849 0.38095 0.31226
 C607 C 0.78615 0.36432 0.36031
 C608 C 0.76636 0.33621 0.37636
 C609 C 0.75670 0.33196 0.32015
 C610 C 0.77648 0.35965 0.30367
 H611 H 0.70502 0.34771 0.31489
 H612 H 0.72261 0.35593 0.41839
 H613 H 0.74108 0.39966 0.28620
 H614 H 0.80983 0.36928 0.37382
 H615 H 0.77377 0.31756 0.40257
 H616 H 0.79218 0.36019 0.27003
 C617 C 0.13814 0.27551 0.79535
 C618 C 0.11896 0.24761 0.81438
 C619 C 0.11198 0.26514 0.86445
 C620 C 0.13081 0.29307 0.84565
 C621 C 0.14064 0.25144 0.88998
 C622 C 0.14790 0.23388 0.83971
 C623 C 0.16668 0.26177 0.82098
 C624 C 0.15981 0.27931 0.87095
 H625 H 0.13748 0.28545 0.75616
 H626 H 0.10231 0.23459 0.79046
 H627 H 0.12349 0.31747 0.84817
 H628 H 0.14138 0.24151 0.92917
 H629 H 0.15530 0.20951 0.83713
 H630 H 0.17687 0.29234 0.89404
 C631 C 0.64474 0.74524 0.30332
 C632 C 0.63765 0.73678 0.35978
 C633 C 0.62006 0.76724 0.36584
 C634 C 0.62687 0.77572 0.30967
 C635 C 0.64958 0.78379 0.38357
 C636 C 0.66743 0.75326 0.37715
 C637 C 0.67418 0.76179 0.32103
 C638 C 0.65675 0.79225 0.32707
 H639 H 0.64297 0.72931 0.27013
 H640 H 0.62961 0.71392 0.37354
 H641 H 0.60990 0.78504 0.28215
 H642 H 0.65191 0.79965 0.41674
 H643 H 0.68443 0.74393 0.40463
 H644 H 0.66496 0.81503 0.31324
 C645 C 0.83561 0.74966 0.87866
 C646 C 0.85345 0.71906 0.88402
 C647 C 0.88309 0.73581 0.86699
 C648 C 0.86552 0.76634 0.86201
 C649 C 0.87656 0.72800 0.81051
 C650 C 0.84658 0.71128 0.82719
 C651 C 0.82917 0.74181 0.82222
 C652 C 0.85873 0.75855 0.80524
 H653 H 0.81848 0.75866 0.90645
 H654 H 0.85097 0.70280 0.91659
 H655 H 0.87348 0.78903 0.87661
 H656 H 0.89367 0.71902 0.78267
 H657 H 0.83846 0.68866 0.81252
 H658 H 0.86071 0.77489 0.77266
 C659 C 0.33537 0.24545 0.37795
 C660 C 0.35323 0.21507 0.38576
 C661 C 0.38306 0.23167 0.36934
 C662 C 0.36546 0.26199 0.36190
 C663 C 0.37759 0.22278 0.31298
 C664 C 0.34741 0.20620 0.32905
 C665 C 0.32997 0.23652 0.32165
 C666 C 0.35971 0.25311 0.30524
 H667 H 0.31771 0.25487 0.40439
 H668 H 0.35021 0.19941 0.41902
 H669 H 0.37306 0.28498 0.37572
 H670 H 0.39523 0.21338 0.28650
 H671 H 0.33965 0.18328 0.31516
 H672 H 0.36216 0.26884 0.27192
 C673 C 0.70762 0.84887 0.83045
 C674 C 0.71591 0.85510 0.88728
 C675 C 0.73212 0.88517 0.87087
 C676 C 0.72380 0.87931 0.81442
 C677 C 0.76276 0.86802 0.86403
 C678 C 0.74659 0.83770 0.88000
 C679 C 0.73824 0.83188 0.82360
 C680 C 0.75445 0.86186 0.80725
 H681 H 0.68501 0.84063 0.81623
 H682 H 0.70007 0.85173 0.92028
 H683 H 0.71434 0.89668 0.78766
 H684 H 0.78548 0.87601 0.87815
 H685 H 0.75608 0.82027 0.90665
 H686 H 0.77037 0.86439 0.77414
 C687 C 0.20932 0.34347 0.32562
 C688 C 0.21757 0.34998 0.38239
 C689 C 0.23426 0.37973 0.36565
 C690 C 0.22599 0.37356 0.30923
 C691 C 0.26462 0.36203 0.35925
 C692 C 0.24799 0.33204 0.37562
 C693 C 0.23968 0.32594 0.31925
 C694 C 0.25637 0.35561 0.30254
 H695 H 0.18659 0.33552 0.31143
 H696 H 0.20161 0.34735 0.41540
 H697 H 0.21687 0.39091 0.28210
 H698 H 0.28742 0.36981 0.37336
 H699 H 0.25714 0.31467 0.40271
 H700 H 0.27240 0.35775 0.26952
 C701 C 0.22594 0.15037 0.82972
 C702 C 0.24573 0.12261 0.81259
 C703 C 0.25506 0.11752 0.86878
 C704 C 0.23528 0.14497 0.88621
 C705 C 0.28322 0.13880 0.86194
 C706 C 0.27383 0.14425 0.80541
 C707 C 0.25406 0.17155 0.82285
 C708 C 0.26342 0.16652 0.87899
 H709 H 0.20236 0.15548 0.81615
 H710 H 0.23837 0.10430 0.78548
 H711 H 0.21933 0.14601 0.91945
 H712 H 0.30683 0.13388 0.87552
 H713 H 0.28969 0.14433 0.77197
 H714 H 0.27077 0.18483 0.90612
 C715 C 0.74794 0.64181 0.30565
 C716 C 0.77826 0.62407 0.31406
 C717 C 0.76872 0.61805 0.37004
 C718 C 0.73841 0.63550 0.36192
 C719 C 0.78480 0.64795 0.38749
 C720 C 0.79434 0.65433 0.33118
 C721 C 0.76403 0.67162 0.32309
 C722 C 0.75444 0.66565 0.37902
 H723 H 0.73270 0.63948 0.27179
 H724 H 0.78814 0.60670 0.28755
 H725 H 0.71535 0.62760 0.37486
 H726 H 0.79996 0.65085 0.42130
 H727 H 0.81732 0.66239 0.31816
 H728 H 0.74454 0.68304 0.40550
 C729 C 0.14052 0.72711 0.79354
 C730 C 0.13583 0.71678 0.84994
 C731 C 0.11528 0.74504 0.85915
 C732 C 0.11960 0.75531 0.80313
 C733 C 0.14337 0.76431 0.87588
 C734 C 0.16416 0.73608 0.86628
 C735 C 0.16845 0.74639 0.81032
 C736 C 0.14800 0.77460 0.81956
 H737 H 0.13972 0.71179 0.75946
 H738 H 0.13069 0.69293 0.86275
 H739 H 0.10103 0.76330 0.77737
 H740 H 0.14535 0.77969 0.90973
 H741 H 0.18271 0.72810 0.89210
 H742 H 0.15334 0.79841 0.80674
 C743 C 0.64106 0.22436 0.30398
 C744 C 0.63626 0.21392 0.36027
 C745 C 0.61555 0.24204 0.36952
 C746 C 0.62000 0.25243 0.31359
 C747 C 0.64350 0.26140 0.38649
 C748 C 0.66447 0.23330 0.37693
 C749 C 0.66886 0.24374 0.32105
 C750 C 0.64823 0.27183 0.33030
 H751 H 0.64041 0.20911 0.26980
 H752 H 0.63113 0.19003 0.37294
 H753 H 0.60143 0.26037 0.28778
 H754 H 0.64505 0.27670 0.42051
 H755 H 0.68298 0.22537 0.40285
 H756 H 0.65348 0.29570 0.31767
 C757 C 0.83229 0.26737 0.87953
 C758 C 0.85331 0.23935 0.88894
 C759 C 0.88132 0.25902 0.87302
 C760 C 0.86056 0.28707 0.86392
 C761 C 0.87765 0.24896 0.81677
 C762 C 0.84936 0.22926 0.83244
 C763 C 0.82868 0.25727 0.82334
 C764 C 0.85652 0.27695 0.80730
 H765 H 0.81339 0.27500 0.90519
 H766 H 0.85145 0.22385 0.92262
 H767 H 0.86537 0.31089 0.87723
 H768 H 0.89660 0.24133 0.79124
 H769 H 0.84444 0.20544 0.81916
 H770 H 0.85748 0.29242 0.77346
 C771 C 0.33854 0.76439 0.36324
 C772 C 0.35966 0.73645 0.37260
 C773 C 0.38760 0.75620 0.35660
 C774 C 0.36671 0.78416 0.34752
 C775 C 0.38389 0.74613 0.30035
 C776 C 0.35566 0.72633 0.31611
 C777 C 0.33486 0.75427 0.30705
 C778 C 0.36264 0.77404 0.29091
 H779 H 0.31968 0.77197 0.38901
 H780 H 0.35783 0.72090 0.40622
 H781 H 0.37144 0.80801 0.36080
 H782 H 0.40284 0.73854 0.27476
 H783 H 0.35081 0.70250 0.30286
 H784 H 0.36351 0.78951 0.25708
 C785 C 0.23348 0.84663 0.15960
 C786 C 0.25262 0.87501 0.17652
 C787 C 0.26277 0.87977 0.12052
 C788 C 0.24367 0.85165 0.10333
 C789 C 0.29108 0.85928 0.12888
 C790 C 0.28087 0.85417 0.18526
 C791 C 0.26174 0.82621 0.16800
 C792 C 0.27195 0.83088 0.11204
 H793 H 0.20975 0.84111 0.17254
 H794 H 0.24461 0.89345 0.20279
 H795 H 0.22835 0.85014 0.06949
 H796 H 0.31482 0.86472 0.11589
 H797 H 0.29619 0.85484 0.21920
 H798 H 0.27995 0.81246 0.08571
 C799 C 0.73090 0.34970 0.66712
 C800 C 0.74455 0.37888 0.69262
 C801 C 0.76245 0.38584 0.64281
 C802 C 0.74883 0.35694 0.61711
 C803 C 0.79009 0.36720 0.66213
 C804 C 0.77216 0.35990 0.71214
 C805 C 0.75849 0.33111 0.68635
 C806 C 0.77640 0.33797 0.63665
 H807 H 0.70651 0.34216 0.66931
 H808 H 0.73147 0.39559 0.71626
 H809 H 0.73920 0.35599 0.57776
 H810 H 0.81450 0.37464 0.66003
 H811 H 0.78179 0.36078 0.75149
 H812 H 0.78951 0.32089 0.61377
 C813 C 0.75609 0.14071 0.20035
 C814 C 0.72552 0.12272 0.19415
 C815 C 0.73352 0.11687 0.13749
 C816 C 0.76407 0.13456 0.14338
 C817 C 0.71704 0.14662 0.12144
 C818 C 0.70906 0.15283 0.17843
 C819 C 0.73960 0.17036 0.18430
 C820 C 0.74764 0.16456 0.12769
 H821 H 0.77223 0.13853 0.23300
 H822 H 0.71633 0.10521 0.22122
 H823 H 0.78673 0.12687 0.12862
 H824 H 0.70098 0.14939 0.08883
 H825 H 0.68648 0.16070 0.19326
 H826 H 0.75685 0.18208 0.10064
 C827 C 0.25413 0.64211 0.68926
 C828 C 0.22360 0.62433 0.68131
 C829 C 0.23281 0.61821 0.62520
 C830 C 0.26332 0.63573 0.63287
 C831 C 0.21692 0.64806 0.60795
 C832 C 0.20773 0.65453 0.66440
 C833 C 0.23825 0.67189 0.67204
 C834 C 0.24749 0.66584 0.61598
 H835 H 0.26952 0.63983 0.72289
 H836 H 0.21370 0.60699 0.70799
 H837 H 0.28624 0.62784 0.61963
 H838 H 0.20160 0.65083 0.57435
 H839 H 0.18488 0.66258 0.67773
 H840 H 0.25742 0.68319 0.58934
 C841 C 0.84583 0.76302 0.14095
 C842 C 0.87752 0.76972 0.16545
 C843 C 0.89004 0.74006 0.14088
 C844 C 0.85865 0.73337 0.11615
 C845 C 0.88091 0.72132 0.18874
 C846 C 0.86804 0.75104 0.21356
 C847 C 0.83675 0.74430 0.18869
 C848 C 0.84919 0.71465 0.16426
 H849 H 0.83108 0.78021 0.12162
 H850 H 0.88943 0.79238 0.16578
 H851 H 0.85507 0.72607 0.07578
 H852 H 0.89522 0.70412 0.20895
 H853 H 0.87164 0.75834 0.25392
 H854 H 0.83719 0.69203 0.16405
 C855 C 0.35654 0.22521 0.70416
 C856 C 0.36122 0.21560 0.64741
 C857 C 0.38265 0.24355 0.63958
 C858 C 0.37834 0.25312 0.69598
 C859 C 0.35523 0.26357 0.62341
 C860 C 0.33356 0.23564 0.63151
 C861 C 0.32929 0.24525 0.68786
 C862 C 0.35063 0.27318 0.68006
 H863 H 0.35674 0.20942 0.73760
 H864 H 0.36577 0.19186 0.63363
 H865 H 0.39705 0.26038 0.72225
 H866 H 0.35407 0.27945 0.59018
 H867 H 0.31493 0.22837 0.60508
 H868 H 0.34597 0.29690 0.69381
 C869 C 0.14866 0.22363 0.17371
 C870 C 0.12097 0.24342 0.19096
 C871 C 0.11632 0.25347 0.13499
 C872 C 0.14373 0.23372 0.11746
 C873 C 0.13768 0.28145 0.14299
 C874 C 0.14266 0.27134 0.19931
 C875 C 0.16993 0.25159 0.18173
 C876 C 0.16537 0.26168 0.12580
 H877 H 0.15351 0.19981 0.18664
 H878 H 0.10244 0.23585 0.21753
 H879 H 0.14467 0.21815 0.08373
 H880 H 0.13293 0.30529 0.13004
 H881 H 0.14258 0.28684 0.23319
 H882 H 0.18389 0.26924 0.09918
 C883 C 0.64805 0.72994 0.67481
 C884 C 0.61957 0.74904 0.69062
 C885 C 0.61591 0.75926 0.63451
 C886 C 0.64412 0.74020 0.61844
 C887 C 0.63646 0.78765 0.64417
 C888 C 0.64047 0.77738 0.70066
 C889 C 0.66852 0.75831 0.68447
 C890 C 0.66491 0.76857 0.62841
 H891 H 0.65314 0.70617 0.68773
 H892 H 0.60064 0.74093 0.71595
 H893 H 0.64619 0.72485 0.58457
 H894 H 0.63150 0.81144 0.63122
 H895 H 0.63933 0.79270 0.73472
 H896 H 0.68377 0.77668 0.60294
   
