data_POSCAR
  _audit_creation_date              2014-09-24
  _audit_creation_method            'ToBaCCo'
  _symmetry_space_group_name_H-M    'P1'
  _symmetry_Int_Tables_number       1
  _symmetry_cell_setting            triclinic
  loop_
  _symmetry_equiv_pos_as_xyz
 x,y,z
_cell_length_a 66.0781
_cell_length_b 66.1517
_cell_length_c 38.3267
_cell_angle_alpha 90.018200
_cell_angle_beta 90.039700
_cell_angle_gamma 89.975200
loop_
  _atom_site_label
  _atom_site_type_symbol
  _atom_site_fract_x
  _atom_site_fract_y
  _atom_site_fract_z
C1 C -0.01912 0.26388 0.01882
 C2 C -0.01897 0.26748 -0.01798
 C3 C -0.00019 0.26970 -0.03507
 C4 C 0.01840 0.26685 -0.01776
 C5 C 0.01807 0.26297 0.01869
 C6 C -0.00049 0.26128 0.03609
 H7 H -0.00021 0.25954 0.06421
 H8 H -0.00007 0.27131 -0.06321
 C9 C 0.48141 0.76987 0.51755
 C10 C 0.48153 0.77022 0.48061
 C11 C 0.50011 0.77019 0.46292
 C12 C 0.51853 0.76987 0.48113
 C13 C 0.51841 0.76999 0.51807
 C14 C 0.49984 0.76996 0.53576
 H15 H 0.49972 0.76980 0.56405
 H16 H 0.50023 0.77020 0.43462
 C17 C 1.01868 0.72853 0.01857
 C18 C 1.01864 0.72892 -0.01856
 C19 C 1.00019 0.72888 -0.03672
 C20 C 0.98139 0.72860 -0.01939
 C21 C 0.98144 0.72877 0.01774
 C22 C 0.99989 0.72867 0.03589
 H23 H 0.99944 0.72843 0.06417
 H24 H 1.00063 0.72880 -0.06500
 C25 C 0.51842 0.23096 0.51966
 C26 C 0.51827 0.23096 0.48272
 C27 C 0.49968 0.23102 0.46503
 C28 C 0.48128 0.23106 0.48324
 C29 C 0.48142 0.23065 0.52017
 C30 C 0.50001 0.23062 0.53787
 H31 H 0.50016 0.23055 0.56616
 H32 H 0.49954 0.23125 0.43674
 C33 C 0.73478 -0.01852 0.01876
 C34 C 0.73684 -0.01844 -0.01827
 C35 C 0.73769 0.00003 -0.03619
 C36 C 0.73625 0.01853 -0.01861
 C37 C 0.73400 0.01862 0.01804
 C38 C 0.73289 0.00021 0.03608
 H39 H 0.73202 0.00067 0.06431
 H40 H 0.73877 0.00001 -0.06443
 C41 C 0.23184 0.48230 0.51923
 C42 C 0.23288 0.48223 0.48233
 C43 C 0.23359 0.50067 0.46434
 C44 C 0.23304 0.51919 0.48217
 C45 C 0.23191 0.51927 0.51907
 C46 C 0.23108 0.50082 0.53706
 H47 H 0.23067 0.50086 0.56535
 H48 H 0.23411 0.50062 0.43606
 C49 C 0.26382 1.01974 0.01906
 C50 C 0.26648 1.01983 -0.01806
 C51 C 0.26857 1.00115 -0.03554
 C52 C 0.26680 0.98268 -0.01800
 C53 C 0.26366 0.98259 0.01840
 C54 C 0.26201 1.00098 0.03627
 H55 H 0.26070 1.00048 0.06445
 H56 H 0.26985 1.00080 -0.06373
 C57 C 0.76824 0.51869 0.51766
 C58 C 0.76930 0.51874 0.48077
 C59 C 0.77010 0.50028 0.46279
 C60 C 0.76934 0.48179 0.48064
 C61 C 0.76833 0.48174 0.51754
 C62 C 0.76770 0.50020 0.53552
 H63 H 0.76720 0.50016 0.56380
 H64 H 0.77047 0.50031 0.43450
 O65 O 0.23782 0.26624 0.29709
 O66 O 0.24506 0.21747 0.25236
 O67 O 0.26585 0.23866 0.29707
 O68 O 0.21693 0.24499 0.25252
 O69 O 0.23224 0.26061 0.20910
 O70 O 0.28118 0.25429 0.25368
 O71 O 0.26039 0.23310 0.20898
 O72 O 0.25313 0.28185 0.25367
 Cu73 Cu 0.23987 0.24027 0.27910
 Cu74 Cu 0.25826 0.25903 0.22700
 C75 C 0.24432 0.28240 0.28310
 C76 C 0.25393 0.21693 0.22296
 C77 C 0.28189 0.24545 0.28308
 C78 C 0.21621 0.25383 0.22312
 O79 O 0.75526 0.78344 0.25184
 O80 O 0.76232 0.73442 0.29573
 O81 O 0.78316 0.75575 0.25127
 O82 O 0.73437 0.76213 0.29623
 O83 O 0.71885 0.74681 0.25266
 O84 O 0.76762 0.74042 0.20772
 O85 O 0.74679 0.71910 0.25217
 O86 O 0.73973 0.76811 0.20828
 Cu87 Cu 0.76033 0.76046 0.27815
 Cu88 Cu 0.74169 0.74207 0.22586
 C89 C 0.74637 0.78416 0.22246
 C90 C 0.75571 0.71836 0.28153
 C91 C 0.78374 0.74708 0.22169
 C92 C 0.71825 0.75552 0.28219
 O93 O 0.78239 0.24526 0.25042
 O94 O 0.73376 0.23834 0.29571
 O95 O 0.75456 0.21746 0.25055
 O96 O 0.76151 0.26624 0.29529
 O97 O 0.74578 0.28173 0.25213
 O98 O 0.73881 0.23299 0.20745
 O99 O 0.71800 0.25386 0.25261
 O100 O 0.76667 0.26077 0.20726
 Cu101 Cu 0.75963 0.24027 0.27731
 Cu102 Cu 0.74074 0.25889 0.22555
 C103 C 0.78287 0.25416 0.22105
 C104 C 0.71755 0.24495 0.28197
 C105 C 0.74553 0.21688 0.22127
 C106 C 0.75481 0.28234 0.28139
 O107 O 0.25443 0.71880 0.25178
 O108 O 0.26004 0.76747 0.20616
 O109 O 0.28155 0.74732 0.25144
 O110 O 0.23307 0.73883 0.20629
 O111 O 0.21695 0.75420 0.24913
 O112 O 0.26547 0.76266 0.29435
 O113 O 0.24396 0.78281 0.24907
 O114 O 0.23832 0.73418 0.29462
 Cu115 Cu 0.25890 0.74158 0.22463
 Cu116 Cu 0.23957 0.76001 0.27608
 C117 C 0.24543 0.71816 0.28104
 C118 C 0.25288 0.78347 0.21974
 C119 C 0.28183 0.75636 0.28069
 C120 C 0.21670 0.74509 0.21993
 O121 O 0.76248 0.26583 0.70254
 O122 O 0.75590 0.21720 0.74790
 O123 O 0.73462 0.23807 0.70331
 O124 O 0.78375 0.24494 0.74700
 O125 O 0.76853 0.26063 0.79048
 O126 O 0.71941 0.25376 0.74680
 O127 O 0.74068 0.23290 0.79137
 O128 O 0.74726 0.28151 0.74603
 Cu129 Cu 0.76070 0.23994 0.72082
 Cu130 Cu 0.74244 0.25877 0.77302
 C131 C 0.75596 0.28200 0.71648
 C132 C 0.74724 0.21673 0.77749
 C133 C 0.71861 0.24480 0.71750
 C134 C 0.78455 0.25391 0.77628
 O135 O 0.28184 0.74679 0.74812
 O136 O 0.23310 0.74075 0.79337
 O137 O 0.25373 0.71930 0.74871
 O138 O 0.26130 0.76815 0.79291
 O139 O 0.24580 0.78372 0.74959
 O140 O 0.23824 0.73484 0.70535
 O141 O 0.21761 0.75629 0.75001
 O142 O 0.26633 0.76235 0.70479
 Cu143 Cu 0.25904 0.74218 0.77512
 Cu144 Cu 0.24043 0.76085 0.72309
 C145 C 0.28243 0.75556 0.71865
 C146 C 0.21701 0.74756 0.77951
 C147 C 0.24478 0.71870 0.71938
 C148 C 0.25480 0.78430 0.77888
 O149 O 0.25316 0.28155 0.74702
 O150 O 0.25906 0.23253 0.79130
 O151 O 0.28051 0.25323 0.74684
 O152 O 0.23176 0.26083 0.79148
 O153 O 0.21598 0.24573 0.74796
 O154 O 0.26476 0.23813 0.70330
 O155 O 0.24329 0.21742 0.74777
 O156 O 0.23739 0.26646 0.70349
 Cu157 Cu 0.25771 0.25855 0.77350
 Cu158 Cu 0.23879 0.24043 0.72125
 C159 C 0.24428 0.28241 0.71764
 C160 C 0.25211 0.21659 0.77721
 C161 C 0.28100 0.24442 0.71739
 C162 C 0.21552 0.25452 0.77744
 O163 O 0.78272 0.75412 0.75073
 O164 O 0.73423 0.76183 0.70503
 O165 O 0.75522 0.78232 0.75050
 O166 O 0.76178 0.73372 0.70514
 O167 O 0.74577 0.71817 0.74788
 O168 O 0.73922 0.76679 0.79327
 O169 O 0.71824 0.74630 0.74781
 O170 O 0.76671 0.73858 0.79346
 Cu171 Cu 0.76009 0.75956 0.72358
 Cu172 Cu 0.74088 0.74091 0.77489
 C173 C 0.78302 0.74503 0.77994
 C174 C 0.71793 0.75533 0.71855
 C175 C 0.74613 0.78289 0.77968
 C176 C 0.75486 0.71762 0.71869
 C177 C 0.25222 0.05759 0.08887
 C178 C 0.26555 0.07322 0.08031
 C179 C 0.27881 0.07092 0.05217
 C180 C 0.27849 0.05322 0.03225
 C181 C 0.26466 0.03754 0.03981
 C182 C 0.25185 0.03987 0.06903
 C183 C 0.26525 0.09179 0.09992
 C184 C 0.26467 0.10740 0.11614
 C185 C 0.26366 0.12575 0.13488
 C186 C 0.26253 0.14147 0.15068
 C187 C 0.26089 0.16031 0.16928
 C188 C 0.26832 0.17814 0.15440
 C189 C 0.26621 0.19655 0.17198
 C190 C 0.25661 0.19737 0.20472
 C191 C 0.24934 0.17933 0.21959
 C192 C 0.25146 0.16094 0.20195
 H193 H 0.24186 0.05922 0.11060
 H194 H 0.28936 0.08285 0.04555
 H195 H 0.28930 0.05173 0.01119
 H196 H 0.24084 0.02838 0.07570
 H197 H 0.27561 0.17784 0.12909
 H198 H 0.27198 0.21014 0.15981
 H199 H 0.24187 0.17943 0.24474
 H200 H 0.24562 0.14723 0.21369
 C201 C 0.78276 0.57026 0.55290
 C202 C 0.76705 0.57384 0.57661
 C203 C 0.75196 0.55926 0.58145
 C204 C 0.75247 0.54124 0.56246
 C205 C 0.76804 0.53765 0.53829
 C206 C 0.78330 0.55222 0.53391
 C207 C 0.76626 0.59254 0.59572
 C208 C 0.76540 0.60823 0.61164
 C209 C 0.76417 0.62661 0.63017
 C210 C 0.76295 0.64234 0.64589
 C211 C 0.76129 0.66116 0.66450
 C212 C 0.75155 0.66181 0.69689
 C213 C 0.74956 0.68015 0.71467
 C214 C 0.75729 0.69812 0.70022
 C215 C 0.76717 0.69728 0.66773
 C216 C 0.76914 0.67891 0.65001
 H217 H 0.79454 0.58142 0.54902
 H218 H 0.73974 0.56189 0.59973
 H219 H 0.74057 0.53020 0.56621
 H220 H 0.79558 0.54963 0.51575
 H221 H 0.74540 0.64815 0.70832
 H222 H 0.74188 0.68028 0.73961
 H223 H 0.77329 0.71082 0.65589
 H224 H 0.77669 0.67857 0.62493
 C225 C 0.72346 0.94335 0.08823
 C226 C 0.73667 0.92771 0.07914
 C227 C 0.74952 0.92997 0.05047
 C228 C 0.74904 0.94769 0.03069
 C229 C 0.73544 0.96347 0.03890
 C230 C 0.72293 0.96112 0.06850
 C231 C 0.73712 0.90932 0.09920
 C232 C 0.73764 0.89381 0.11567
 C233 C 0.73841 0.87553 0.13460
 C234 C 0.73924 0.85982 0.15048
 C235 C 0.74046 0.84095 0.16907
 C236 C 0.73269 0.82329 0.15409
 C237 C 0.73441 0.80484 0.17161
 C238 C 0.74395 0.80381 0.20440
 C239 C 0.75154 0.82169 0.21941
 C240 C 0.74980 0.84013 0.20182
 H241 H 0.71345 0.94177 0.11044
 H242 H 0.76006 0.91808 0.04354
 H243 H 0.75983 0.94923 0.00966
 H244 H 0.71212 0.97269 0.07573
 H245 H 0.72546 0.82375 0.12872
 H246 H 0.72842 0.79136 0.15933
 H247 H 0.75897 0.82143 0.24459
 H248 H 0.75589 0.85371 0.21364
 C249 C 0.21800 0.44094 0.58330
 C250 C 0.23387 0.42722 0.57826
 C251 C 0.24923 0.43165 0.55432
 C252 C 0.24867 0.44966 0.53532
 C253 C 0.23263 0.46336 0.53985
 C254 C 0.21740 0.45897 0.56426
 C255 C 0.23444 0.40855 0.59749
 C256 C 0.23510 0.39282 0.61331
 C257 C 0.23608 0.37432 0.63155
 C258 C 0.23709 0.35845 0.64690
 C259 C 0.23850 0.33944 0.66501
 C260 C 0.23069 0.32187 0.64978
 C261 C 0.23245 0.30332 0.66698
 C262 C 0.24208 0.30211 0.69969
 C263 C 0.24978 0.31989 0.71486
 C264 C 0.24800 0.33843 0.69760
 H265 H 0.20605 0.43767 0.60180
 H266 H 0.26163 0.42118 0.55033
 H267 H 0.26072 0.45291 0.51703
 H268 H 0.20495 0.46937 0.56818
 H269 H 0.22334 0.32249 0.62453
 H270 H 0.22636 0.28992 0.65459
 H271 H 0.25727 0.31949 0.73999
 H272 H 0.25412 0.35194 0.70960
 C273 C 0.92973 0.27912 0.05202
 C274 C 0.92704 0.26534 0.07927
 C275 C 0.94240 0.25156 0.08727
 C276 C 0.96025 0.25128 0.06772
 C277 C 0.96297 0.26463 0.03935
 C278 C 0.94756 0.27889 0.03240
 C279 C 0.90835 0.26502 0.09857
 C280 C 0.89263 0.26445 0.11452
 C281 C 0.87418 0.26347 0.13299
 C282 C 0.85839 0.26238 0.14863
 C283 C 0.83951 0.26078 0.16717
 C284 C 0.83887 0.25135 0.19983
 C285 C 0.82048 0.24932 0.21749
 C286 C 0.80243 0.25669 0.20268
 C287 C 0.80325 0.26628 0.16992
 C288 C 0.82167 0.26829 0.15231
 H289 H 0.91803 0.29002 0.04585
 H290 H 0.94047 0.24081 0.10832
 H291 H 0.97151 0.23993 0.07391
 H292 H 0.94935 0.29009 0.01205
 H293 H 0.85258 0.24546 0.21155
 H294 H 0.82038 0.24187 0.24265
 H295 H 0.78964 0.27212 0.15779
 H296 H 0.82198 0.27559 0.12701
 C297 C 0.43054 0.75190 0.55087
 C298 C 0.42617 0.76662 0.57600
 C299 C 0.43995 0.78229 0.58226
 C300 C 0.45799 0.78328 0.56332
 C301 C 0.46236 0.76868 0.53780
 C302 C 0.44858 0.75287 0.53194
 C303 C 0.40755 0.76565 0.59532
 C304 C 0.39191 0.76476 0.61138
 C305 C 0.37355 0.76363 0.63002
 C306 C 0.35782 0.76257 0.64579
 C307 C 0.33898 0.76117 0.66441
 C308 C 0.32124 0.76893 0.64963
 C309 C 0.30285 0.76724 0.66737
 C310 C 0.30197 0.75774 0.70019
 C311 C 0.31993 0.75010 0.71493
 C312 C 0.33830 0.75181 0.69713
 H313 H 0.42002 0.73967 0.54592
 H314 H 0.43672 0.79374 0.60169
 H315 H 0.46845 0.79556 0.56825
 H316 H 0.45181 0.74129 0.51275
 H317 H 0.32161 0.77619 0.62430
 H318 H 0.28931 0.77327 0.65530
 H319 H 0.31977 0.74271 0.74013
 H320 H 0.35195 0.74574 0.70879
 C321 C 0.05634 0.73979 0.08890
 C322 C 0.07299 0.72844 0.07790
 C323 C 0.07148 0.71649 0.04792
 C324 C 0.05352 0.71620 0.02861
 C325 C 0.03675 0.72810 0.03867
 C326 C 0.03836 0.73954 0.06968
 C327 C 0.09173 0.72941 0.09705
 C328 C 0.10743 0.73058 0.11300
 C329 C 0.12582 0.73230 0.13157
 C330 C 0.14154 0.73403 0.14730
 C331 C 0.16034 0.73637 0.16592
 C332 C 0.17840 0.72924 0.15138
 C333 C 0.19673 0.73195 0.16904
 C334 C 0.19723 0.74186 0.20154
 C335 C 0.17896 0.74885 0.21605
 C336 C 0.16065 0.74612 0.19833
 H337 H 0.05733 0.74911 0.11209
 H338 H 0.08420 0.70740 0.03941
 H339 H 0.05267 0.70624 0.00626
 H340 H 0.02605 0.74911 0.07835
 H341 H 0.17834 0.72170 0.12628
 H342 H 0.21051 0.72639 0.15713
 H343 H 0.17882 0.75653 0.24100
 H344 H 0.14676 0.75173 0.20982
 C345 C 0.56010 0.21800 0.58370
 C346 C 0.57382 0.23376 0.57784
 C347 C 0.56931 0.24876 0.55327
 C348 C 0.55120 0.24796 0.53448
 C349 C 0.53749 0.23204 0.53991
 C350 C 0.54198 0.21717 0.56490
 C351 C 0.59254 0.23455 0.59692
 C352 C 0.60829 0.23530 0.61274
 C353 C 0.62678 0.23632 0.63105
 C354 C 0.64262 0.23732 0.64651
 C355 C 0.66160 0.23872 0.66475
 C356 C 0.66253 0.24818 0.69737
 C357 C 0.68105 0.25000 0.71472
 C358 C 0.69890 0.24239 0.69960
 C359 C 0.69777 0.23276 0.66692
 C360 C 0.67923 0.23096 0.64962
 H361 H 0.56343 0.20634 0.60270
 H362 H 0.57979 0.26106 0.54863
 H363 H 0.54787 0.25972 0.51569
 H364 H 0.53158 0.20481 0.56948
 H365 H 0.64897 0.25426 0.70929
 H366 H 0.68141 0.25750 0.73984
 H367 H 0.71122 0.22674 0.65457
 H368 H 0.67866 0.22363 0.62435
 C369 C 0.75285 0.05928 0.91813
 C370 C 0.73727 0.07347 0.92177
 C371 C 0.72120 0.06960 0.94459
 C372 C 0.72075 0.05166 0.96383
 C373 C 0.73648 0.03746 0.96063
 C374 C 0.75244 0.04134 0.93738
 C375 C 0.73787 0.09206 0.90227
 C376 C 0.73850 0.10765 0.88604
 C377 C 0.73940 0.12595 0.86717
 C378 C 0.74031 0.14161 0.85119
 C379 C 0.74158 0.16037 0.83229
 C380 C 0.73399 0.17818 0.84704
 C381 C 0.73566 0.19650 0.82909
 C382 C 0.74497 0.19724 0.79609
 C383 C 0.75241 0.17922 0.78136
 C384 C 0.75072 0.16092 0.79937
 H385 H 0.76536 0.06212 0.90053
 H386 H 0.70903 0.08046 0.94753
 H387 H 0.70816 0.04884 0.98123
 H388 H 0.76469 0.03059 0.93452
 H389 H 0.72691 0.17793 0.87252
 H390 H 0.72978 0.21008 0.84116
 H391 H 0.75966 0.17927 0.75604
 H392 H 0.75667 0.14722 0.78773
 C393 C 0.21856 0.57073 0.44677
 C394 C 0.23431 0.57430 0.42316
 C395 C 0.24943 0.55971 0.41843
 C396 C 0.24889 0.54170 0.43744
 C397 C 0.23328 0.53814 0.46152
 C398 C 0.21799 0.55271 0.46578
 C399 C 0.23512 0.59299 0.40402
 C400 C 0.23596 0.60867 0.38808
 C401 C 0.23712 0.62706 0.36955
 C402 C 0.23825 0.64280 0.35385
 C403 C 0.23975 0.66164 0.33529
 C404 C 0.24945 0.66238 0.30287
 C405 C 0.25122 0.68075 0.28509
 C406 C 0.24330 0.69864 0.29956
 C407 C 0.23349 0.69770 0.33210
 C408 C 0.23174 0.67932 0.34982
 H409 H 0.20676 0.58190 0.45056
 H410 H 0.26168 0.56232 0.40022
 H411 H 0.26081 0.53065 0.43378
 H412 H 0.20567 0.55013 0.48386
 H413 H 0.25573 0.64879 0.29140
 H414 H 0.25886 0.68095 0.26010
 H415 H 0.22723 0.71118 0.34396
 H416 H 0.22422 0.67891 0.37492
 C417 C 0.25017 0.93244 0.94403
 C418 C 0.26637 0.92788 0.92186
 C419 C 0.28267 0.94130 0.91913
 C420 C 0.28282 0.95919 0.93863
 C421 C 0.26670 0.96374 0.96120
 C422 C 0.25029 0.95030 0.96348
 C423 C 0.26612 0.90942 0.90195
 C424 C 0.26559 0.89387 0.88556
 C425 C 0.26462 0.87556 0.86668
 C426 C 0.26352 0.85985 0.85084
 C427 C 0.26191 0.84100 0.83224
 C428 C 0.25236 0.84033 0.79966
 C429 C 0.25021 0.82192 0.78210
 C430 C 0.25757 0.80390 0.79697
 C431 C 0.26731 0.80477 0.82961
 C432 C 0.26944 0.82320 0.84710
 H433 H 0.23743 0.92221 0.94623
 H434 H 0.29527 0.93794 0.90200
 H435 H 0.29557 0.96939 0.93642
 H436 H 0.23754 0.95368 0.98026
 H437 H 0.24643 0.85401 0.78794
 H438 H 0.24264 0.82178 0.75703
 H439 H 0.27315 0.79120 0.84178
 H440 H 0.27683 0.82354 0.87235
 C441 C 0.75175 0.43122 0.44558
 C442 C 0.76710 0.42670 0.42166
 C443 C 0.78305 0.44033 0.41665
 C444 C 0.78371 0.45836 0.43567
 C445 C 0.76849 0.46284 0.46005
 C446 C 0.75239 0.44923 0.46457
 C447 C 0.76644 0.40804 0.40241
 C448 C 0.76567 0.39233 0.38654
 C449 C 0.76451 0.37386 0.36823
 C450 C 0.76331 0.35804 0.35277
 C451 C 0.76162 0.33912 0.33449
 C452 C 0.75202 0.33834 0.30197
 C453 C 0.74992 0.31989 0.28456
 C454 C 0.75739 0.30195 0.29950
 C455 C 0.76715 0.30291 0.33212
 C456 C 0.76923 0.32139 0.34948
 H457 H 0.73931 0.42082 0.44955
 H458 H 0.79498 0.43699 0.39815
 H459 H 0.79621 0.46870 0.43176
 H460 H 0.74034 0.45256 0.48284
 H461 H 0.74605 0.35198 0.29016
 H462 H 0.74234 0.31968 0.25950
 H463 H 0.77307 0.28938 0.34433
 H464 H 0.77666 0.32182 0.37468
 C465 C 0.05713 0.27999 0.91457
 C466 C 0.07243 0.26606 0.92220
 C467 C 0.06980 0.25230 0.94947
 C468 C 0.05204 0.25250 0.96920
 C469 C 0.03656 0.26669 0.96237
 C470 C 0.03931 0.28024 0.93427
 C471 C 0.09078 0.26569 0.90196
 C472 C 0.10625 0.26510 0.88533
 C473 C 0.12449 0.26412 0.86622
 C474 C 0.14015 0.26303 0.85020
 C475 C 0.15895 0.26147 0.83141
 C476 C 0.17684 0.26882 0.84627
 C477 C 0.19523 0.26675 0.82858
 C478 C 0.19596 0.25725 0.79573
 C479 C 0.17785 0.25007 0.78087
 C480 C 0.15948 0.25217 0.79862
 H481 H 0.05899 0.29071 0.89345
 H482 H 0.08141 0.24122 0.95526
 H483 H 0.05020 0.24099 0.98898
 H484 H 0.02799 0.29154 0.92815
 H485 H 0.17661 0.27602 0.87167
 H486 H 0.20888 0.27244 0.84076
 H487 H 0.17789 0.24269 0.75564
 H488 H 0.14573 0.24639 0.78690
 C489 C 0.56939 0.75187 0.44774
 C490 C 0.57391 0.76678 0.42304
 C491 C 0.56020 0.78254 0.41700
 C492 C 0.54209 0.78347 0.43576
 C493 C 0.53759 0.76869 0.46089
 C494 C 0.55129 0.75277 0.46649
 C495 C 0.59263 0.76590 0.40398
 C496 C 0.60836 0.76507 0.38816
 C497 C 0.62683 0.76396 0.36982
 C498 C 0.64263 0.76289 0.35427
 C499 C 0.66154 0.76144 0.33586
 C500 C 0.66228 0.75220 0.30304
 C501 C 0.68071 0.75040 0.28543
 C502 C 0.69866 0.75782 0.30048
 C503 C 0.69773 0.76720 0.33339
 C504 C 0.67928 0.76898 0.35095
 H505 H 0.57986 0.73957 0.45252
 H506 H 0.56354 0.79414 0.39789
 H507 H 0.53170 0.79584 0.43104
 H508 H 0.54796 0.74107 0.48539
 H509 H 0.64862 0.74629 0.29115
 H510 H 0.68090 0.74309 0.26014
 H511 H 0.71127 0.77307 0.34569
 H512 H 0.67887 0.77615 0.37637
 C513 C 0.94364 0.74016 0.91056
 C514 C 0.92701 0.72874 0.92144
 C515 C 0.92858 0.71664 0.95121
 C516 C 0.94658 0.71625 0.97044
 C517 C 0.96331 0.72823 0.96053
 C518 C 0.96165 0.73982 0.92970
 C519 C 0.90823 0.72980 0.90241
 C520 C 0.89249 0.73101 0.88658
 C521 C 0.87405 0.73275 0.86816
 C522 C 0.85829 0.73448 0.85255
 C523 C 0.83945 0.73678 0.83402
 C524 C 0.82144 0.72953 0.84856
 C525 C 0.80309 0.73212 0.83091
 C526 C 0.80250 0.74203 0.79843
 C527 C 0.82071 0.74918 0.78395
 C528 C 0.83905 0.74657 0.80166
 H529 H 0.94259 0.74960 0.88753
 H530 H 0.91589 0.70749 0.95962
 H531 H 0.94747 0.70618 0.99261
 H532 H 0.97392 0.74945 0.92114
 H533 H 0.82157 0.72195 0.87362
 H534 H 0.78936 0.72643 0.84278
 H535 H 0.82080 0.75687 0.75902
 H536 H 0.85289 0.75228 0.79017
 C537 C 0.43979 0.21866 0.41855
 C538 C 0.42600 0.23432 0.42482
 C539 C 0.43038 0.24905 0.44995
 C540 C 0.44843 0.24808 0.46886
 C541 C 0.46222 0.23227 0.46299
 C542 C 0.45785 0.21766 0.43748
 C543 C 0.40736 0.23528 0.40553
 C544 C 0.39169 0.23615 0.38951
 C545 C 0.37330 0.23726 0.37094
 C546 C 0.35753 0.23831 0.35525
 C547 C 0.33864 0.23971 0.33676
 C548 C 0.32097 0.23191 0.35164
 C549 C 0.30251 0.23363 0.33406
 C550 C 0.30151 0.24320 0.30132
 C551 C 0.31940 0.25086 0.28646
 C552 C 0.33784 0.24912 0.30410
 H553 H 0.43655 0.20720 0.39913
 H554 H 0.41984 0.26127 0.45490
 H555 H 0.45167 0.25965 0.48806
 H556 H 0.46831 0.20538 0.43255
 H557 H 0.32143 0.22460 0.37693
 H558 H 0.28903 0.22757 0.34622
 H559 H 0.31914 0.25832 0.26131
 H560 H 0.35144 0.25523 0.29237
 C561 C 0.71997 0.93113 0.94464
 C562 C 0.73569 0.92694 0.92123
 C563 C 0.75147 0.94084 0.91697
 C564 C 0.75169 0.95873 0.93634
 C565 C 0.73619 0.96284 0.96039
 C566 C 0.72016 0.94904 0.96401
 C567 C 0.73589 0.90824 0.90208
 C568 C 0.73636 0.89252 0.88620
 C569 C 0.73724 0.87409 0.86776
 C570 C 0.73825 0.85831 0.85212
 C571 C 0.73976 0.83946 0.83357
 C572 C 0.74943 0.83874 0.80112
 C573 C 0.75138 0.82036 0.78345
 C574 C 0.74369 0.80242 0.79806
 C575 C 0.73387 0.80333 0.83059
 C576 C 0.73194 0.82174 0.84822
 H577 H 0.70767 0.92050 0.94807
 H578 H 0.76370 0.93775 0.89892
 H579 H 0.76415 0.96920 0.93312
 H580 H 0.70793 0.95206 0.98208
 H581 H 0.75556 0.85237 0.78958
 H582 H 0.75902 0.82019 0.75846
 H583 H 0.72779 0.78981 0.84255
 H584 H 0.72446 0.82213 0.87336
 C585 C 0.21776 0.43064 0.44780
 C586 C 0.23335 0.42680 0.42397
 C587 C 0.24856 0.44122 0.41881
 C588 C 0.24828 0.45934 0.43758
 C589 C 0.23284 0.46318 0.46187
 C590 C 0.21745 0.44877 0.46656
 C591 C 0.23388 0.40799 0.40509
 C592 C 0.23451 0.39222 0.38935
 C593 C 0.23547 0.37373 0.37101
 C594 C 0.23649 0.35793 0.35542
 C595 C 0.23795 0.33905 0.33689
 C596 C 0.24720 0.33836 0.30407
 C597 C 0.24911 0.31997 0.28641
 C598 C 0.24179 0.30197 0.30138
 C599 C 0.23237 0.30285 0.33427
 C600 C 0.23048 0.32127 0.35189
 H601 H 0.20588 0.41962 0.45193
 H602 H 0.26069 0.43840 0.40043
 H603 H 0.26028 0.47025 0.43358
 H604 H 0.20526 0.45155 0.48481
 H605 H 0.25306 0.35203 0.29223
 H606 H 0.25644 0.31983 0.26115
 H607 H 0.22659 0.28928 0.34653
 H608 H 0.22332 0.32162 0.37730
 C609 C 0.27619 0.05807 0.91197
 C610 C 0.26210 0.07304 0.92054
 C611 C 0.24913 0.07022 0.94892
 C612 C 0.25042 0.05264 0.96900
 C613 C 0.26494 0.03761 0.96135
 C614 C 0.27752 0.04046 0.93198
 C615 C 0.26106 0.09140 0.90049
 C616 C 0.26021 0.10689 0.88402
 C617 C 0.25920 0.12517 0.86512
 C618 C 0.25830 0.14089 0.84930
 C619 C 0.25714 0.15978 0.83079
 C620 C 0.24774 0.16071 0.79810
 C621 C 0.24625 0.17916 0.78048
 C622 C 0.25413 0.19694 0.79539
 C623 C 0.26369 0.19580 0.82817
 C624 C 0.26516 0.17734 0.84572
 H625 H 0.28630 0.06011 0.89001
 H626 H 0.23798 0.08160 0.95553
 H627 H 0.23974 0.05068 0.99014
 H628 H 0.28900 0.02944 0.92521
 H629 H 0.24147 0.14720 0.78631
 H630 H 0.23880 0.17952 0.75531
 H631 H 0.26991 0.20919 0.84038
 H632 H 0.27245 0.17679 0.87103
 C633 C 0.75179 0.56941 0.44581
 C634 C 0.76713 0.57390 0.42188
 C635 C 0.78306 0.56023 0.41687
 C636 C 0.78371 0.54220 0.43590
 C637 C 0.76848 0.53774 0.46028
 C638 C 0.75240 0.55140 0.46482
 C639 C 0.76649 0.59255 0.40255
 C640 C 0.76578 0.60824 0.38661
 C641 C 0.76473 0.62668 0.36819
 C642 C 0.76366 0.64250 0.35267
 C643 C 0.76215 0.66144 0.33438
 C644 C 0.76977 0.67913 0.34952
 C645 C 0.76784 0.69763 0.33221
 C646 C 0.75823 0.69869 0.29947
 C647 C 0.75077 0.68079 0.28434
 C648 C 0.75272 0.66231 0.30171
 H649 H 0.73935 0.57984 0.44979
 H650 H 0.79500 0.56353 0.39837
 H651 H 0.79619 0.53184 0.43197
 H652 H 0.74035 0.54810 0.48307
 H653 H 0.77708 0.67864 0.37482
 H654 H 0.77375 0.71112 0.34458
 H655 H 0.74329 0.68108 0.25919
 H656 H 0.74674 0.64871 0.28977
 C657 C 0.06822 0.74971 0.94706
 C658 C 0.07316 0.73529 0.92168
 C659 C 0.06006 0.71907 0.91535
 C660 C 0.04221 0.71713 0.93456
 C661 C 0.03735 0.73133 0.96050
 C662 C 0.05036 0.74780 0.96628
 C663 C 0.09177 0.73698 0.90247
 C664 C 0.10742 0.73826 0.88651
 C665 C 0.12581 0.73967 0.86800
 C666 C 0.14157 0.74084 0.85233
 C667 C 0.16044 0.74225 0.83380
 C668 C 0.17815 0.73447 0.84864
 C669 C 0.19656 0.73606 0.83088
 C670 C 0.19746 0.74548 0.79800
 C671 C 0.17953 0.75316 0.78322
 C672 C 0.16115 0.75155 0.80103
 H673 H 0.07823 0.76235 0.95209
 H674 H 0.06373 0.70785 0.89574
 H675 H 0.03233 0.70437 0.92967
 H676 H 0.04673 0.75904 0.98586
 H677 H 0.17776 0.72725 0.87399
 H678 H 0.21007 0.73001 0.84299
 H679 H 0.17971 0.76050 0.75797
 H680 H 0.14752 0.75762 0.78932
 C681 C 0.57010 0.21646 0.44817
 C682 C 0.57348 0.23179 0.42368
 C683 C 0.55865 0.24655 0.41801
 C684 C 0.54059 0.24611 0.43696
 C685 C 0.53721 0.23095 0.46194
 C686 C 0.55202 0.21599 0.46713
 C687 C 0.59226 0.23260 0.40467
 C688 C 0.60799 0.23353 0.38883
 C689 C 0.62642 0.23487 0.37036
 C690 C 0.64218 0.23622 0.35468
 C691 C 0.66103 0.23804 0.33610
 C692 C 0.66157 0.24759 0.30354
 C693 C 0.67994 0.24974 0.28579
 C694 C 0.69803 0.24236 0.30043
 C695 C 0.69729 0.23267 0.33310
 C696 C 0.67891 0.23054 0.35079
 H697 H 0.58145 0.20494 0.45272
 H698 H 0.56110 0.25849 0.39913
 H699 H 0.52938 0.25779 0.43260
 H700 H 0.54961 0.20402 0.48595
 H701 H 0.64782 0.25347 0.29194
 H702 H 0.67997 0.25727 0.26071
 H703 H 0.71093 0.22682 0.34510
 H704 H 0.67867 0.22314 0.37600
 C705 C 0.94308 0.27892 0.91222
 C706 C 0.92807 0.26467 0.91959
 C707 C 0.93073 0.25109 0.94713
 C708 C 0.94821 0.25189 0.96756
 C709 C 0.96330 0.26653 0.96112
 C710 C 0.96061 0.27978 0.93260
 C711 C 0.90983 0.26401 0.89914
 C712 C 0.89439 0.26334 0.88245
 C713 C 0.87614 0.26239 0.86342
 C714 C 0.86043 0.26143 0.84757
 C715 C 0.84151 0.26009 0.82913
 C716 C 0.82387 0.26792 0.84413
 C717 C 0.80535 0.26609 0.82679
 C718 C 0.80425 0.25637 0.79418
 C719 C 0.82211 0.24871 0.77916
 C720 C 0.84062 0.25056 0.79657
 H721 H 0.94115 0.28951 0.89091
 H722 H 0.91930 0.23982 0.95278
 H723 H 0.95006 0.24075 0.98800
 H724 H 0.97169 0.29135 0.92679
 H725 H 0.82441 0.27529 0.86936
 H726 H 0.79190 0.27215 0.83905
 H727 H 0.82177 0.24115 0.75411
 H728 H 0.85419 0.24442 0.78477
 C729 C 0.44089 0.75543 0.41567
 C730 C 0.42612 0.77017 0.42192
 C731 C 0.42966 0.78527 0.44681
 C732 C 0.44781 0.78551 0.46561
 C733 C 0.46255 0.77054 0.45987
 C734 C 0.45903 0.75563 0.43447
 C735 C 0.40723 0.76956 0.40314
 C736 C 0.39142 0.76876 0.38747
 C737 C 0.37291 0.76749 0.36914
 C738 C 0.35712 0.76614 0.35351
 C739 C 0.33828 0.76421 0.33485
 C740 C 0.32029 0.77143 0.34955
 C741 C 0.30192 0.76905 0.33183
 C742 C 0.30132 0.75939 0.29911
 C743 C 0.31953 0.75234 0.28443
 C744 C 0.33786 0.75474 0.30221
 H745 H 0.43832 0.74367 0.39649
 H746 H 0.41836 0.79678 0.45181
 H747 H 0.45033 0.79728 0.48476
 H748 H 0.47017 0.74395 0.42967
 H749 H 0.32043 0.77876 0.37483
 H750 H 0.28820 0.77465 0.34386
 H751 H 0.31960 0.74484 0.25931
 H752 H 0.35169 0.74907 0.29059
 C753 C 0.24605 0.94137 0.07995
 C754 C 0.26178 0.92729 0.07694
 C755 C 0.27825 0.93139 0.05511
 C756 C 0.27895 0.94944 0.03622
 C757 C 0.26309 0.96353 0.03877
 C758 C 0.24671 0.95943 0.06103
 C759 C 0.26100 0.90862 0.09613
 C760 C 0.26033 0.89293 0.11209
 C761 C 0.25949 0.87454 0.13065
 C762 C 0.25869 0.85879 0.14641
 C763 C 0.25760 0.83996 0.16511
 C764 C 0.26576 0.82236 0.15054
 C765 C 0.26438 0.80399 0.16841
 C766 C 0.25478 0.80300 0.20114
 C767 C 0.24674 0.82081 0.21566
 C768 C 0.24815 0.83916 0.19774
 H769 H 0.23324 0.93836 0.09679
 H770 H 0.29054 0.92063 0.05269
 H771 H 0.29186 0.95244 0.01961
 H772 H 0.23435 0.97010 0.06340
 H773 H 0.27310 0.82281 0.12528
 H774 H 0.27071 0.79056 0.15650
 H775 H 0.23926 0.82057 0.24079
 H776 H 0.24177 0.85270 0.20925
 C777 C 0.75238 0.44084 0.58095
 C778 C 0.76751 0.42633 0.57579
 C779 C 0.78315 0.43008 0.55205
 C780 C 0.78359 0.44821 0.53333
 C781 C 0.76827 0.46271 0.53800
 C782 C 0.75278 0.45897 0.56223
 C783 C 0.76682 0.40751 0.59460
 C784 C 0.76605 0.39173 0.61026
 C785 C 0.76494 0.37324 0.62852
 C786 C 0.76381 0.35744 0.64405
 C787 C 0.76224 0.33857 0.66253
 C788 C 0.76965 0.32076 0.64751
 C789 C 0.76774 0.30235 0.66514
 C790 C 0.75836 0.30153 0.69807
 C791 C 0.75108 0.31955 0.71304
 C792 C 0.75301 0.33793 0.69536
 H793 H 0.74020 0.43810 0.59926
 H794 H 0.79497 0.41897 0.54793
 H795 H 0.79582 0.45091 0.51513
 H796 H 0.74084 0.46995 0.56620
 H797 H 0.77680 0.32108 0.62208
 H798 H 0.77350 0.28877 0.65289
 H799 H 0.74379 0.31945 0.73834
 H800 H 0.74720 0.35163 0.70721
 C801 C 0.75050 0.06926 0.05444
 C802 C 0.73465 0.07362 0.07746
 C803 C 0.71861 0.05997 0.08118
 C804 C 0.71839 0.04203 0.06185
 C805 C 0.73417 0.03766 0.03848
 C806 C 0.75031 0.05134 0.03515
 C807 C 0.73498 0.09208 0.09731
 C808 C 0.73553 0.10761 0.11372
 C809 C 0.73647 0.12587 0.13267
 C810 C 0.73750 0.14154 0.14862
 C811 C 0.73899 0.16033 0.16735
 C812 C 0.73124 0.17810 0.15271
 C813 C 0.73320 0.19648 0.17038
 C814 C 0.74299 0.19733 0.20298
 C815 C 0.75059 0.17935 0.21761
 C816 C 0.74860 0.16099 0.19988
 H817 H 0.76303 0.07968 0.05148
 H818 H 0.70629 0.06318 0.09898
 H819 H 0.70585 0.03163 0.06486
 H820 H 0.76279 0.04810 0.01772
 H821 H 0.72380 0.17776 0.12751
 H822 H 0.72718 0.21003 0.15839
 H823 H 0.75820 0.17949 0.24264
 H824 H 0.75469 0.14732 0.21142
 C825 C 0.24915 0.57003 0.55407
 C826 C 0.23373 0.57450 0.57790
 C827 C 0.21785 0.56078 0.58281
 C828 C 0.21732 0.54273 0.56381
 C829 C 0.23262 0.53829 0.53955
 C830 C 0.24865 0.55200 0.53510
 C831 C 0.23426 0.59316 0.59723
 C832 C 0.23487 0.60885 0.61322
 C833 C 0.23581 0.62728 0.63174
 C834 C 0.23681 0.64306 0.64740
 C835 C 0.23826 0.66195 0.66592
 C836 C 0.24763 0.66269 0.69865
 C837 C 0.24957 0.68111 0.71623
 C838 C 0.24217 0.69908 0.70125
 C839 C 0.23261 0.69815 0.66846
 C840 C 0.23069 0.67971 0.65093
 H841 H 0.26156 0.58049 0.55017
 H842 H 0.20586 0.56406 0.60122
 H843 H 0.20486 0.53233 0.56767
 H844 H 0.26077 0.54872 0.51694
 H845 H 0.25357 0.64904 0.71048
 H846 H 0.25701 0.68130 0.74142
 H847 H 0.22676 0.71170 0.65620
 H848 H 0.22343 0.67932 0.62558
 C849 C 0.93191 0.74939 0.05279
 C850 C 0.92708 0.73487 0.07803
 C851 C 0.94018 0.71860 0.08397
 C852 C 0.95796 0.71672 0.06452
 C853 C 0.96273 0.73104 0.03876
 C854 C 0.94970 0.74754 0.03334
 C855 C 0.90858 0.73653 0.09756
 C856 C 0.89302 0.73778 0.11379
 C857 C 0.87474 0.73916 0.13261
 C858 C 0.85905 0.74030 0.14850
 C859 C 0.84024 0.74167 0.16721
 C860 C 0.83959 0.75088 0.20006
 C861 C 0.82124 0.75250 0.21798
 C862 C 0.80327 0.74492 0.20320
 C863 C 0.80412 0.73557 0.17025
 C864 C 0.82249 0.73397 0.15240
 H865 H 0.92190 0.76207 0.04806
 H866 H 0.93659 0.70730 0.10346
 H867 H 0.96786 0.70394 0.06914
 H868 H 0.95327 0.75887 0.01390
 H869 H 0.85326 0.75690 0.21175
 H870 H 0.82111 0.75979 0.24327
 H871 H 0.79057 0.72959 0.15814
 H872 H 0.82282 0.72681 0.12697
 C873 C 0.42954 0.21569 0.55379
 C874 C 0.42599 0.23082 0.57862
 C875 C 0.44078 0.24552 0.58494
 C876 C 0.45894 0.24526 0.56626
 C877 C 0.46246 0.23034 0.54089
 C878 C 0.44772 0.21540 0.53511
 C879 C 0.40706 0.23151 0.59719
 C880 C 0.39120 0.23238 0.61265
 C881 C 0.37261 0.23370 0.63067
 C882 C 0.35673 0.23506 0.64600
 C883 C 0.33778 0.23697 0.66424
 C884 C 0.33714 0.24631 0.69699
 C885 C 0.31869 0.24862 0.71441
 C886 C 0.30060 0.24160 0.69926
 C887 C 0.30142 0.23211 0.66642
 C888 C 0.31989 0.22982 0.64905
 H889 H 0.41823 0.20421 0.54873
 H890 H 0.43820 0.25730 0.60408
 H891 H 0.47009 0.25693 0.57108
 H892 H 0.45024 0.20361 0.51597
 H893 H 0.35089 0.25193 0.70898
 H894 H 0.31860 0.25599 0.73964
 H895 H 0.28778 0.22654 0.65403
 H896 H 0.32020 0.22259 0.62369
 C897 C 0.06795 0.27932 0.05873
 C898 C 0.07224 0.26293 0.08060
 C899 C 0.05864 0.24676 0.08281
 C900 C 0.04090 0.24687 0.06293
 C901 C 0.03668 0.26310 0.04043
 C902 C 0.05022 0.27946 0.03885
 C903 C 0.09076 0.26253 0.10031
 C904 C 0.10637 0.26206 0.11655
 C905 C 0.12474 0.26133 0.13526
 C906 C 0.14050 0.26053 0.15101
 C907 C 0.15939 0.25936 0.16955
 C908 C 0.16025 0.25004 0.20228
 C909 C 0.17870 0.24839 0.21989
 C910 C 0.19657 0.25605 0.20493
 C911 C 0.19552 0.26555 0.17213
 C912 C 0.17704 0.26717 0.15458
 H913 H 0.07835 0.29193 0.05690
 H914 H 0.06182 0.23401 0.09968
 H915 H 0.03064 0.23414 0.06458
 H916 H 0.04709 0.29225 0.02205
 H917 H 0.14667 0.24391 0.21408
 H918 H 0.17900 0.24099 0.24509
 H919 H 0.20898 0.27160 0.15990
 H920 H 0.17654 0.27440 0.12922
 C921 C 0.55895 0.75457 0.58275
 C922 C 0.57378 0.76930 0.57686
 C923 C 0.57032 0.78457 0.55227
 C924 C 0.55218 0.78501 0.53343
 C925 C 0.53739 0.77007 0.53882
 C926 C 0.54083 0.75498 0.56392
 C927 C 0.59263 0.76850 0.59570
 C928 C 0.60842 0.76757 0.61143
 C929 C 0.62691 0.76619 0.62980
 C930 C 0.64268 0.76478 0.64546
 C931 C 0.66152 0.76283 0.66412
 C932 C 0.67947 0.77020 0.64956
 C933 C 0.69783 0.76790 0.66735
 C934 C 0.69845 0.75816 0.69999
 C935 C 0.68029 0.75092 0.71449
 C936 C 0.66196 0.75324 0.69666
 H937 H 0.56147 0.74268 0.60171
 H938 H 0.58166 0.79607 0.54754
 H939 H 0.54972 0.79692 0.51452
 H940 H 0.52964 0.74332 0.56845
 H941 H 0.67931 0.77763 0.62437
 H942 H 0.71152 0.77365 0.65545
 H943 H 0.68023 0.74336 0.73955
 H944 H 0.64816 0.74745 0.70816
   
