data_POSCAR
  _audit_creation_date              2014-09-24
  _audit_creation_method            'ToBaCCo'
  _symmetry_space_group_name_H-M    'P1'
  _symmetry_Int_Tables_number       1
  _symmetry_cell_setting            triclinic
  loop_
  _symmetry_equiv_pos_as_xyz
 x,y,z
_cell_length_a 38.1222
_cell_length_b 38.1310
_cell_length_c 38.1197
_cell_angle_alpha 76.266900
_cell_angle_beta 102.433700
_cell_angle_gamma 76.266300
loop_
  _atom_site_label
  _atom_site_type_symbol
  _atom_site_fract_x
  _atom_site_fract_y
  _atom_site_fract_z
O1 O 0.56163 0.48394 0.03788
 O2 O 0.46104 0.49709 0.02963
 O3 O 0.51851 0.43996 0.03801
 O4 O 0.50411 0.54114 0.02888
 O5 O 0.49148 0.55431 -0.03289
 O6 O 0.50616 0.45330 -0.02375
 O7 O 0.44848 0.51016 -0.03207
 O8 O 0.54916 0.49731 -0.02390
 Cu9 Cu 0.51255 0.48922 0.03978
 Cu10 Cu 0.49755 0.50508 -0.03433
 C11 C 0.57260 0.48873 0.00838
 C12 C 0.43747 0.50552 -0.00255
 C13 C 0.51455 0.42936 0.00860
 C14 C 0.49570 0.56500 -0.00355
 O15 O -0.03228 0.55495 0.49278
 O16 O -0.02414 0.45430 0.50579
 O17 O -0.02330 0.49729 0.54979
 O18 O -0.03253 0.51185 0.44874
 O19 O 0.02922 0.49835 0.46087
 O20 O 0.03847 0.48353 0.56181
 O21 O 0.03761 0.44057 0.51770
 O22 O 0.02942 0.54139 0.50496
 Cu23 Cu -0.03424 0.50595 0.49805
 Cu24 Cu 0.03985 0.48960 0.51250
 C25 C -0.00281 0.56547 0.49707
 C26 C 0.00804 0.43022 0.51369
 C27 C 0.00915 0.48823 0.57306
 C28 C -0.00316 0.50730 0.43754
 O29 O 0.49117 0.03259 0.53551
 O30 O 0.47918 0.04125 0.43502
 O31 O 0.43479 0.04175 0.47847
 O32 O 0.53560 0.03210 0.49203
 O33 O 0.54852 -0.02993 0.50540
 O34 O 0.44777 -0.02029 0.49180
 O35 O 0.49210 -0.02079 0.44843
 O36 O 0.50407 -0.02938 0.54885
 Cu37 Cu 0.48392 0.04314 0.48394
 Cu38 Cu 0.49942 -0.03131 0.49997
 C39 C 0.49932 0.00017 0.55944
 C40 C 0.48384 0.01164 0.42456
 C41 C 0.42405 0.01231 0.48308
 C42 C 0.55929 -0.00051 0.50070
 C43 C 0.50102 -0.00512 -0.04053
 C44 C 0.49570 -0.03327 -0.01228
 C45 C 0.49360 -0.02673 0.02202
 C46 C 0.49658 0.00714 0.02890
 C47 C 0.50180 0.03534 0.00064
 C48 C 0.50395 0.02879 -0.03365
 H49 H 0.50791 0.05044 -0.05533
 H50 H 0.48964 -0.04836 0.04372
 C51 C -0.00151 0.50244 1.03939
 C52 C -0.02713 0.49256 1.01356
 C53 C -0.01857 0.48725 0.98083
 C54 C 0.01461 0.49193 0.97291
 C55 C 0.04026 0.50180 0.99873
 C56 C 0.03169 0.50714 1.03148
 H57 H 0.05176 0.51379 1.05172
 H58 H -0.03866 0.48064 0.96056
 C59 C 0.02964 0.00689 0.49747
 C60 C 0.00116 0.03488 0.50266
 C61 C -0.03278 0.02775 0.50530
 C62 C -0.03909 -0.00651 0.50287
 C63 C -0.01062 -0.03446 0.49758
 C64 C 0.02334 -0.02734 0.49500
 H65 H 0.04522 -0.04879 0.49105
 H66 H -0.05466 0.04923 0.50924
 C67 C -0.33710 0.48952 0.98203
 C68 C -0.31148 0.48170 1.01734
 C69 C -0.32350 0.47508 1.04983
 C70 C -0.36108 0.47672 1.04701
 C71 C -0.38718 0.48508 1.01158
 C72 C -0.37469 0.49118 0.97914
 C73 C -0.27315 0.48142 1.02004
 C74 C -0.24125 0.48170 1.02184
 C75 C -0.20413 0.48249 1.02331
 C76 C -0.17264 0.48347 1.02389
 C77 C -0.13530 0.48492 1.02360
 C78 C -0.12497 0.51723 1.02651
 C79 C -0.08945 0.51949 1.02402
 C80 C -0.06385 0.48936 1.01875
 C81 C -0.07426 0.45685 1.01631
 C82 C -0.10976 0.45464 1.01878
 H83 H -0.32811 0.49472 0.95669
 H84 H -0.30392 0.46904 1.07730
 H85 H -0.36977 0.47192 1.07253
 H86 H -0.39404 0.49771 0.95145
 H87 H -0.14460 0.54094 1.03000
 H88 H -0.08227 0.54506 1.02536
 H89 H -0.05497 0.43334 1.01218
 H90 H -0.11750 0.42956 1.01636
 C91 C 0.34927 0.50526 1.02461
 C92 C 0.32341 0.51302 0.98951
 C93 C 0.33518 0.51935 0.95686
 C94 C 0.37277 0.51748 0.95932
 C95 C 0.39929 0.50908 0.99463
 C96 C 0.38685 0.50333 1.02723
 C97 C 0.28509 0.51350 0.98727
 C98 C 0.25327 0.51332 0.98610
 C99 C 0.21631 0.51252 0.98557
 C100 C 0.18501 0.51145 0.98586
 C101 C 0.14795 0.50977 0.98715
 C102 C 0.13759 0.47741 0.98450
 C103 C 0.10231 0.47499 0.98769
 C104 C 0.07694 0.50500 0.99339
 C105 C 0.08742 0.53749 0.99573
 C106 C 0.12270 0.53987 0.99256
 H107 H 0.34046 0.50030 1.05008
 H108 H 0.31538 0.52538 0.92952
 H109 H 0.38106 0.52214 0.93356
 H110 H 0.40619 0.49688 1.05491
 H111 H 0.15700 0.45384 0.98058
 H112 H 0.09509 0.44942 0.98643
 H113 H 0.06832 0.56092 1.00018
 H114 H 0.13047 0.56498 0.99480
 C115 C 0.02366 -0.34664 0.49787
 C116 C -0.01163 -0.32044 0.49071
 C117 C -0.04410 -0.33184 0.48453
 C118 C -0.04131 -0.36943 0.48599
 C119 C -0.00584 -0.39633 0.49380
 C120 C 0.02660 -0.38425 0.49937
 C121 C -0.01437 -0.28207 0.49053
 C122 C -0.01628 -0.25012 0.49077
 C123 C -0.01792 -0.21289 0.49135
 C124 C -0.01867 -0.18125 0.49195
 C125 C -0.01865 -0.14367 0.49265
 C126 C -0.02493 -0.13142 0.52325
 C127 C -0.02298 -0.09558 0.52468
 C128 C -0.01486 -0.07162 0.49541
 C129 C -0.00896 -0.08398 0.46465
 C130 C -0.01090 -0.11977 0.46326
 H131 H 0.04899 -0.33808 0.50268
 H132 H -0.07157 -0.31177 0.47893
 H133 H -0.06697 -0.37741 0.48148
 H134 H 0.05439 -0.40390 0.50539
 H135 H -0.03074 -0.14978 0.54626
 H136 H -0.02708 -0.08684 0.54892
 H137 H -0.00263 -0.06595 0.44182
 H138 H -0.00589 -0.12899 0.43950
 C139 C -0.01932 0.34077 0.51477
 C140 C 0.01562 0.31435 0.52101
 C141 C 0.04831 0.32551 0.52604
 C142 C 0.04602 0.36308 0.52433
 C143 C 0.01092 0.38999 0.51748
 C144 C -0.02169 0.37831 0.51302
 C145 C 0.01749 0.27620 0.52097
 C146 C 0.01809 0.24466 0.52013
 C147 C 0.01764 0.20823 0.51826
 C148 C 0.01622 0.17757 0.51597
 C149 C 0.01323 0.14156 0.51242
 C150 C 0.04003 0.10771 0.53657
 C151 C 0.03636 0.07286 0.53336
 C152 C 0.00592 0.07160 0.50583
 C153 C -0.02081 0.10568 0.48174
 C154 C -0.01712 0.14043 0.48498
 H155 H -0.04482 0.33246 0.51078
 H156 H 0.07550 0.30530 0.53081
 H157 H 0.07164 0.37116 0.52784
 H158 H -0.04914 0.39827 0.50771
 H159 H 0.06355 0.10825 0.55802
 H160 H 0.05699 0.04690 0.55257
 H161 H -0.04448 0.10532 0.46035
 H162 H -0.03806 0.16644 0.46618
 C163 C 0.49812 0.02667 -0.35272
 C164 C 0.50570 -0.00877 -0.32655
 C165 C 0.51217 -0.04138 -0.33800
 C166 C 0.51061 -0.03856 -0.37559
 C167 C 0.50245 -0.00293 -0.40243
 C168 C 0.49653 0.02964 -0.39033
 C169 C 0.50615 -0.01148 -0.28813
 C170 C 0.50614 -0.01320 -0.25614
 C171 C 0.50584 -0.01447 -0.21890
 C172 C 0.50546 -0.01485 -0.18728
 C173 C 0.50503 -0.01434 -0.14974
 C174 C 0.47445 -0.01963 -0.13666
 C175 C 0.47329 -0.01723 -0.10085
 C176 C 0.50281 -0.00964 -0.07774
 C177 C 0.53353 -0.00468 -0.09094
 C178 C 0.53464 -0.00708 -0.12671
 H179 H 0.49310 0.05211 -0.34413
 H180 H 0.51809 -0.06898 -0.31794
 H181 H 0.51540 -0.06433 -0.38361
 H182 H 0.49023 0.05757 -0.40993
 H183 H 0.45127 -0.02503 -0.15435
 H184 H 0.44909 -0.02059 -0.09145
 H185 H 0.55654 0.00122 -0.07357
 H186 H 0.55838 -0.00282 -0.13658
 C187 C 0.48420 -0.01509 0.33499
 C188 C 0.47734 0.02019 0.30881
 C189 C 0.47146 0.05289 0.32018
 C190 C 0.47291 0.05026 0.35773
 C191 C 0.48037 0.01481 0.38440
 C192 C 0.48570 -0.01780 0.37252
 C193 C 0.47762 0.02245 0.27065
 C194 C 0.47865 0.02341 0.23906
 C195 C 0.48073 0.02336 0.20256
 C196 C 0.48321 0.02221 0.17184
 C197 C 0.48698 0.01942 0.13576
 C198 C 0.46287 0.04671 0.10235
 C199 C 0.46611 0.04305 0.06743
 C200 C 0.49363 0.01213 0.06567
 C201 C 0.51777 -0.01502 0.09931
 C202 C 0.51449 -0.01134 0.13413
 H203 H 0.48887 -0.04059 0.32650
 H204 H 0.46620 0.08034 0.30014
 H205 H 0.46872 0.07590 0.36596
 H206 H 0.49149 -0.04550 0.39231
 H207 H 0.44137 0.07054 0.10330
 H208 H 0.44689 0.06401 0.04180
 H209 H 0.53914 -0.03906 0.09854
 H210 H 0.53325 -0.03265 0.15980
 C211 C 0.48171 -0.33035 -0.04598
 C212 C 0.48795 -0.31864 -0.01368
 C213 C 0.49548 -0.34467 0.02182
 C214 C 0.49731 -0.38241 0.02511
 C215 C 0.49166 -0.39461 -0.00714
 C216 C 0.48352 -0.36808 -0.04277
 C217 C 0.48756 -0.28019 -0.01679
 C218 C 0.48771 -0.24818 -0.01894
 C219 C 0.48827 -0.21093 -0.02076
 C220 C 0.48893 -0.17931 -0.02157
 C221 C 0.48978 -0.14181 -0.02149
 C222 C 0.46058 -0.11793 -0.01348
 C223 C 0.46225 -0.08231 -0.01122
 C224 C 0.49312 -0.07012 -0.01706
 C225 C 0.52215 -0.09402 -0.02552
 C226 C 0.52044 -0.12969 -0.02778
 H227 H 0.47588 -0.31044 -0.07360
 H228 H 0.50037 -0.33589 0.04701
 H229 H 0.50366 -0.40210 0.05294
 H230 H 0.47906 -0.37655 -0.06815
 H231 H 0.43679 -0.12707 -0.00844
 H232 H 0.43960 -0.06432 -0.00463
 H233 H 0.54646 -0.08539 -0.02958
 H234 H 0.54330 -0.14805 -0.03377
 C235 C 0.51672 0.33937 -0.01792
 C236 C 0.52305 0.31314 0.01714
 C237 C 0.52793 0.32456 0.04968
 C238 C 0.52592 0.36225 0.04709
 C239 C 0.51889 0.38899 0.01184
 C240 C 0.51467 0.37702 -0.02060
 C241 C 0.52303 0.27496 0.01924
 C242 C 0.52207 0.24345 0.01990
 C243 C 0.51992 0.20715 0.01935
 C244 C 0.51726 0.17667 0.01770
 C245 C 0.51316 0.14098 0.01429
 C246 C 0.53725 0.10680 0.04059
 C247 C 0.53351 0.07227 0.03642
 C248 C 0.50551 0.07168 0.00598
 C249 C 0.48146 0.10608 -0.02022
 C250 C 0.48523 0.14052 -0.01604
 H251 H 0.51283 0.33084 -0.04330
 H252 H 0.53275 0.30449 0.07696
 H253 H 0.52925 0.37056 0.07258
 H254 H 0.50924 0.39685 -0.04815
 H255 H 0.55906 0.10684 0.06407
 H256 H 0.55266 0.04603 0.05664
 H257 H 0.45972 0.10623 -0.04387
 H258 H 0.46649 0.16679 -0.03658
 C259 C -0.33625 -0.04318 0.51474
 C260 C -0.32447 -0.01075 0.50842
 C261 C -0.35044 0.02488 0.50067
 C262 C -0.38815 0.02818 0.49877
 C263 C -0.40041 -0.00419 0.50457
 C264 C -0.37398 -0.03997 0.51286
 C265 C -0.28598 -0.01380 0.50906
 C266 C -0.25395 -0.01573 0.50913
 C267 C -0.21670 -0.01715 0.50884
 C268 C -0.18509 -0.01756 0.50842
 C269 C -0.14763 -0.01695 0.50783
 C270 C -0.12466 -0.00938 0.53725
 C271 C -0.08906 -0.00665 0.53586
 C272 C -0.07600 -0.01157 0.50506
 C273 C -0.09902 -0.01954 0.47578
 C274 C -0.13466 -0.02227 0.47721
 H275 H -0.31638 -0.07090 0.52074
 H276 H -0.34161 0.05017 0.49573
 H277 H -0.40777 0.05612 0.49231
 H278 H -0.38250 -0.06543 0.51743
 H279 H -0.13447 -0.00507 0.56100
 H280 H -0.07174 -0.00045 0.55869
 H281 H -0.08971 -0.02289 0.45153
 H282 H -0.15233 -0.02790 0.45418
 C283 C 0.31962 0.05442 0.46966
 C284 C 0.30797 0.02189 0.47542
 C285 C 0.33396 -0.01353 0.48239
 C286 C 0.37159 -0.01657 0.48419
 C287 C 0.38377 0.01586 0.47907
 C288 C 0.35728 0.05147 0.47142
 C289 C 0.26978 0.02441 0.47566
 C290 C 0.23823 0.02544 0.47681
 C291 C 0.20185 0.02531 0.47917
 C292 C 0.17129 0.02395 0.48201
 C293 C 0.13551 0.02075 0.48631
 C294 C 0.10178 0.04751 0.46222
 C295 C 0.06716 0.04336 0.46599
 C296 C 0.06605 0.01246 0.49400
 C297 C 0.10000 -0.01414 0.51813
 C298 C 0.13452 -0.00996 0.51434
 H299 H 0.29974 0.08197 0.46433
 H300 H 0.32524 -0.03890 0.48697
 H301 H 0.39123 -0.04438 0.49012
 H302 H 0.36576 0.07696 0.46738
 H303 H 0.10225 0.07130 0.44034
 H304 H 0.04127 0.06390 0.44678
 H305 H 0.09973 -0.03815 0.53987
 H306 H 0.16045 -0.03086 0.53308
 C307 C 0.02300 0.50850 1.34690
 C308 C -0.01222 0.51600 1.32130
 C309 C -0.04469 0.52187 1.33341
 C310 C -0.04190 0.51973 1.37111
 C311 C -0.00652 0.51161 1.39720
 C312 C 0.02587 0.50633 1.38457
 C313 C -0.01471 0.51654 1.28294
 C314 C -0.01599 0.51630 1.25113
 C315 C -0.01655 0.51533 1.21423
 C316 C -0.01617 0.51402 1.18302
 C317 C -0.01466 0.51197 1.14613
 C318 C -0.00876 0.54173 1.12088
 C319 C -0.00514 0.53887 1.08587
 C320 C -0.00750 0.50624 1.07567
 C321 C -0.01376 0.47661 1.10101
 C322 C -0.01739 0.47952 1.13602
 H323 H 0.04832 0.50387 1.33783
 H324 H -0.07210 0.52765 1.31384
 H325 H -0.06736 0.52390 1.37993
 H326 H 0.05352 0.50003 1.40389
 H327 H -0.00643 0.56689 1.12847
 H328 H -0.00026 0.56200 1.06678
 H329 H -0.01505 0.45095 1.09400
 H330 H -0.02168 0.45621 1.15545
 C331 C 0.05157 0.47313 0.67709
 C332 C 0.01928 0.47970 0.68941
 C333 C -0.01621 0.48785 0.66399
 C334 C -0.01948 0.48996 0.62625
 C335 C 0.01276 0.48396 0.61344
 C336 C 0.04838 0.47521 0.63936
 C337 C 0.02233 0.47918 0.72784
 C338 C 0.02434 0.47935 0.75979
 C339 C 0.02594 0.48016 0.79691
 C340 C 0.02651 0.48125 0.82836
 C341 C 0.02609 0.48296 0.86558
 C342 C 0.02078 0.45299 0.89109
 C343 C 0.01791 0.45560 0.92637
 C344 C 0.02042 0.48819 0.93657
 C345 C 0.02626 0.51797 0.91103
 C346 C 0.02914 0.51532 0.87574
 H347 H 0.07917 0.46684 0.69653
 H348 H -0.04140 0.49303 0.67323
 H349 H -0.04730 0.49677 0.60704
 H350 H 0.07374 0.47048 0.63041
 H351 H 0.01824 0.42789 0.88347
 H352 H 0.01335 0.43236 0.94562
 H353 H 0.02766 0.54360 0.91806
 H354 H 0.03299 0.53878 0.85611
   
