data_POSCAR
  _audit_creation_date              2014-09-24
  _audit_creation_method            'ToBaCCo'
  _symmetry_space_group_name_H-M    'P1'
  _symmetry_Int_Tables_number       1
  _symmetry_cell_setting            triclinic
  loop_
  _symmetry_equiv_pos_as_xyz
 x,y,z
_cell_length_a 31.4907
_cell_length_b 29.7272
_cell_length_c 15.7367
_cell_angle_alpha 89.197700
_cell_angle_beta 90.019100
_cell_angle_gamma 89.915000
loop_
  _atom_site_label
  _atom_site_type_symbol
  _atom_site_fract_x
  _atom_site_fract_y
  _atom_site_fract_z
O1 O 0.27074 0.29338 0.34750
 O2 O 0.19795 0.20503 0.27464
 O3 O 0.27181 0.20564 0.34853
 O4 O 0.19608 0.29161 0.27266
 O5 O 0.22914 0.29469 0.14881
 O6 O 0.30316 0.20639 0.22301
 O7 O 0.22873 0.20675 0.14848
 O8 O 0.30299 0.29337 0.22284
 Cu9 Cu 0.23110 0.24896 0.32359
 Cu10 Cu 0.26908 0.25033 0.17307
 C11 C 0.29963 0.30794 0.29797
 C12 C 0.20059 0.19130 0.19881
 C13 C 0.30048 0.19142 0.29884
 C14 C 0.19962 0.30751 0.19777
 O15 O 0.80418 0.29120 0.27519
 O16 O 0.72871 0.20503 0.35040
 O17 O 0.80275 0.20458 0.27710
 O18 O 0.72944 0.29276 0.34957
 O19 O 0.69739 0.29278 0.22465
 O20 O 0.77205 0.20622 0.15082
 O21 O 0.69750 0.20584 0.22469
 O22 O 0.77129 0.29417 0.15108
 Cu23 Cu 0.76930 0.24843 0.32583
 Cu24 Cu 0.73151 0.24977 0.17507
 C25 C 0.80065 0.30709 0.20027
 C26 C 0.70012 0.19084 0.30051
 C27 C 0.80022 0.19083 0.20128
 C28 C 0.70057 0.30731 0.29984
 O29 O 0.77105 0.78734 0.85973
 O30 O 0.69734 0.70330 0.77354
 O31 O 0.77124 0.70044 0.84475
 O32 O 0.69520 0.78998 0.78822
 O33 O 0.72707 0.79961 0.66416
 O34 O 0.80123 0.70765 0.71845
 O35 O 0.72615 0.71246 0.64647
 O36 O 0.80139 0.79448 0.73368
 Cu37 Cu 0.73067 0.74477 0.82935
 Cu38 Cu 0.76694 0.75418 0.67791
 C39 C 0.79914 0.80473 0.81155
 C40 C 0.69904 0.69384 0.69521
 C41 C 0.79920 0.68874 0.79130
 C42 C 0.69818 0.80990 0.71662
 O43 O 0.30415 0.79102 0.78716
 O44 O 0.22811 0.70141 0.84169
 O45 O 0.30220 0.70433 0.77158
 O46 O 0.22790 0.78806 0.85742
 O47 O 0.19851 0.79619 0.73069
 O48 O 0.27370 0.71367 0.64421
 O49 O 0.19841 0.70913 0.71507
 O50 O 0.27299 0.80075 0.66232
 Cu51 Cu 0.26861 0.74571 0.82727
 Cu52 Cu 0.23294 0.75561 0.67529
 C53 C 0.30157 0.81095 0.71548
 C54 C 0.20037 0.68998 0.78768
 C55 C 0.30068 0.69492 0.69321
 C56 C 0.20017 0.80600 0.80889
 C57 C 0.97876 0.12638 0.10153
 C58 C 1.02225 0.12647 0.10081
 C59 C 1.03495 0.08283 0.08384
 N60 N 1.00062 0.05608 0.07446
 C61 C 0.96620 0.08269 0.08501
 C62 C 1.07769 0.06830 0.08048
 C63 C 1.09046 0.02559 0.05094
 C64 C 1.13116 0.00830 0.05890
 C65 C 1.13146 -0.03231 0.01843
 C66 C 1.09067 -0.03936 -0.01228
 N67 N 1.06606 -0.00352 0.00712
 C68 C 1.07799 -0.07685 -0.06112
 C69 C 1.03503 -0.08755 -0.07926
 C70 C 1.02204 -0.12416 -0.12642
 C71 C 0.97859 -0.12412 -0.12574
 C72 C 0.96601 -0.08760 -0.07797
 N73 N 1.00062 -0.06575 -0.04860
 C74 C 0.92323 -0.07709 -0.05811
 C75 C 0.91077 -0.03988 -0.00851
 C76 C 0.87028 -0.03334 0.02411
 C77 C 0.87053 0.00734 0.06436
 C78 C 0.91093 0.02507 0.05445
 N79 N 0.93517 -0.00381 0.00966
 C80 C 0.92354 0.06795 0.08305
 H81 H 0.95872 0.15535 0.11233
 H82 H 1.04219 0.15553 0.11093
 H83 H 0.96494 0.00307 -0.01533
 H84 H 1.15815 0.02349 0.08988
 H85 H 1.15905 -0.05362 0.01222
 H86 H 1.04156 -0.14930 -0.15651
 H87 H 0.95873 -0.14912 -0.15527
 H88 H 0.84374 0.02229 0.09653
 H89 H 1.03589 0.00306 -0.01626
 H90 H 0.84300 -0.05516 0.01922
 C91 C 0.47811 0.61899 0.63537
 C92 C 0.52157 0.61888 0.63560
 C93 C 0.53433 0.58340 0.58526
 N94 N 0.49988 0.56230 0.55343
 C95 C 0.46540 0.58358 0.58490
 C96 C 0.57711 0.57335 0.56485
 C97 C 0.58960 0.53674 0.51378
 C98 C 0.63002 0.53073 0.48055
 C99 C 0.62985 0.49041 0.43899
 C100 C 0.58953 0.47240 0.44869
 N101 N 0.56528 0.50074 0.49464
 C102 C 0.57699 0.42971 0.41900
 C103 C 0.53429 0.41511 0.41631
 C104 C 0.52164 0.37148 0.39948
 C105 C 0.47813 0.37160 0.39925
 C106 C 0.46552 0.41529 0.41595
 N107 N 0.49992 0.44188 0.42612
 C108 C 0.42284 0.43011 0.41818
 C109 C 0.41030 0.47286 0.44776
 C110 C 0.37003 0.49106 0.43768
 C111 C 0.36984 0.53139 0.47924
 C112 C 0.41020 0.53720 0.51285
 N113 N 0.43450 0.50109 0.49395
 C114 C 0.42265 0.57376 0.56404
 H115 H 0.45838 0.64339 0.66703
 H116 H 0.54128 0.64316 0.66748
 H117 H 0.46414 0.49367 0.51925
 H118 H 0.65719 0.55268 0.48595
 H119 H 0.65662 0.47588 0.40606
 H120 H 0.54162 0.34242 0.38911
 H121 H 0.45813 0.34264 0.38868
 H122 H 0.34269 0.55348 0.48438
 H123 H 0.53558 0.49347 0.51967
 H124 H 0.34330 0.47666 0.40451
 C125 C 0.02068 0.62359 -0.12742
 C126 C -0.02288 0.62358 -0.12697
 C127 C -0.03529 0.57972 -0.10945
 N128 N -0.00093 0.55292 -0.09936
 C129 C 0.03332 0.57969 -0.11031
 C130 C -0.07758 0.56430 -0.10706
 C131 C -0.08851 0.52146 -0.07454
 C132 C -0.12593 0.49901 -0.09184
 C133 C -0.12555 0.46020 -0.04308
 C134 C -0.08829 0.46060 0.00422
 N135 N -0.06563 0.49782 -0.01655
 C136 C -0.07699 0.42955 0.06962
 C137 C -0.03467 0.42669 0.09930
 C138 C -0.02184 0.40800 0.17632
 C139 C 0.02174 0.40802 0.17588
 C140 C 0.03410 0.42669 0.09857
 N141 N -0.00043 0.43847 0.05225
 C142 C 0.07624 0.42950 0.06791
 C143 C 0.08704 0.46044 0.00207
 C144 C 0.12392 0.45983 -0.04636
 C145 C 0.12396 0.49859 -0.09525
 C146 C 0.08673 0.52126 -0.07684
 N147 N 0.06428 0.49775 -0.01811
 C148 C 0.07565 0.56419 -0.10900
 H149 H 0.04061 0.65269 -0.13851
 H150 H -0.04300 0.65265 -0.13775
 H151 H 0.03750 0.50930 0.01381
 H152 H -0.15083 0.50949 -0.13525
 H153 H -0.15014 0.43487 -0.04311
 H154 H -0.04166 0.39607 0.22802
 H155 H 0.04187 0.39611 0.22719
 H156 H 0.14852 0.50890 -0.13948
 H157 H -0.03858 0.50924 0.01455
 H158 H 0.14846 0.43438 -0.04703
 C159 C 0.52183 0.91651 0.71105
 C160 C 0.47825 0.91663 0.71101
 C161 C 0.46568 0.93604 0.63443
 N162 N 0.50008 0.94818 0.58818
 C163 C 0.53444 0.93585 0.63449
 C164 C 0.42353 0.93871 0.60382
 C165 C 0.41240 0.96990 0.53847
 C166 C 0.37562 0.96906 0.48966
 C167 C 0.37538 1.00776 0.44067
 C168 C 0.41243 1.03060 0.45922
 N169 N 0.43490 1.00734 0.51842
 C170 C 0.42363 1.07306 0.42527
 C171 C 0.46592 1.08850 0.42337
 C172 C 0.47847 1.13183 0.40165
 C173 C 0.52204 1.13175 0.40183
 C174 C 0.53454 1.08838 0.42365
 N175 N 0.50022 1.06198 0.43678
 C176 C 0.57683 1.07279 0.42585
 C177 C 0.58796 1.03025 0.45973
 C178 C 0.62499 1.00727 0.44129
 C179 C 0.62465 0.96852 0.49014
 C180 C 0.58783 0.96948 0.53876
 N181 N 0.56540 1.00705 0.51873
 C182 C 0.57660 0.93830 0.60397
 H183 H 0.54182 0.90384 0.76194
 H184 H 0.45822 0.90407 0.76187
 H185 H 0.53857 1.01874 0.55033
 H186 H 0.35138 0.94340 0.48831
 H187 H 0.35094 1.01774 0.39580
 H188 H 0.45840 1.16048 0.38695
 H189 H 0.54214 1.16033 0.38728
 H190 H 0.64886 0.94275 0.48881
 H191 H 0.46172 1.01893 0.55013
 H192 H 0.64948 1.01718 0.39659
 N193 N 1.17208 0.14194 0.08850
 C194 C 1.16993 0.15794 0.16880
 N195 N 1.13785 0.14390 0.22023
 N196 N 1.10882 0.11511 0.19234
 C197 C 1.11082 0.09927 0.11196
 N198 N 1.14308 0.11305 0.06061
 N199 N 0.64490 0.63551 0.71402
 C200 C 0.66878 0.66135 0.66080
 N201 N 0.66317 0.65760 0.57564
 N202 N 0.63438 0.62930 0.54488
 C203 C 0.61051 0.60343 0.59820
 N204 N 0.61640 0.60696 0.68329
 N205 N -0.18016 0.38038 0.13819
 C206 C -0.16805 0.33953 0.16910
 N207 N -0.12632 0.32839 0.16828
 N208 N -0.09768 0.35693 0.13666
 C209 C -0.10945 0.39807 0.10598
 N210 N -0.15132 0.40927 0.10812
 N211 N 0.37484 0.83507 0.69421
 C212 C 0.33288 0.84515 0.69226
 N213 N 0.32048 0.88630 0.66338
 N214 N 0.34919 0.91644 0.63769
 C215 C 0.39129 0.90624 0.63776
 N216 N 0.40341 0.86489 0.66685
 N217 N -0.17395 0.63466 -0.10896
 C218 C -0.17157 0.65554 -0.18613
 N219 N -0.13916 0.64475 -0.23907
 N220 N -0.10976 0.61492 -0.21492
 C221 C -0.11187 0.59458 -0.13723
 N222 N -0.14471 0.60467 -0.08503
 N223 N 0.32697 1.14279 0.40879
 C224 C 0.32987 1.15990 0.32850
 N225 N 0.36297 1.14710 0.27900
 N226 N 0.39245 1.11892 0.30916
 C227 C 0.38974 1.10225 0.38974
 N228 N 0.35628 1.11437 0.43874
 N229 N 1.16796 -0.15693 -0.07345
 C230 C 1.17080 -0.16378 -0.15844
 N231 N 1.14353 -0.14153 -0.21110
 N232 N 1.11464 -0.11343 -0.18011
 C233 C 1.11147 -0.10692 -0.09514
 N234 N 1.13862 -0.12930 -0.04235
 N235 N 0.63690 0.35367 0.27928
 C236 C 0.66971 0.34056 0.32987
 N237 N 0.67241 0.35734 0.40951
 N238 N 0.64324 0.38607 0.43758
 C239 C 0.61025 0.39890 0.38712
 N240 N 0.60771 0.38230 0.30737
 N241 N 0.85503 -0.13883 -0.20722
 C242 C 0.83002 -0.16342 -0.15398
 N243 N 0.83528 -0.15928 -0.06880
 N244 N 0.86470 -0.13170 -0.03806
 C245 C 0.88963 -0.10699 -0.09141
 N246 N 0.88415 -0.11099 -0.17652
 N247 N 0.32747 0.35799 0.40782
 C248 C 0.33034 0.34120 0.32821
 N249 N 0.36321 0.35427 0.27789
 N250 N 0.39231 0.38286 0.30621
 C251 C 0.38961 0.39946 0.38595
 N252 N 0.35655 0.38669 0.43613
 N253 N 0.17322 0.63245 -0.11377
 C254 C 0.16960 0.65494 -0.18908
 N255 N 0.13592 0.64612 -0.24003
 N256 N 0.10652 0.61641 -0.21574
 C257 C 0.10984 0.59440 -0.13978
 N258 N 0.14393 0.60266 -0.08964
 N259 N 0.63773 1.14666 0.28014
 C260 C 0.67074 1.15936 0.32992
 N261 N 0.67351 1.14222 0.41022
 N262 N 0.64416 1.11388 0.43991
 C263 C 0.61078 1.10187 0.39063
 N264 N 0.60821 1.11855 0.31003
 N265 N 0.17996 0.38046 0.13446
 C266 C 0.16811 0.33978 0.16640
 N267 N 0.12641 0.32868 0.16675
 N268 N 0.09752 0.35710 0.13532
 C269 C 0.10901 0.39808 0.10371
 N270 N 0.15088 0.40924 0.10460
 N271 N 0.62499 0.83437 0.69451
 C272 C 0.66698 0.84420 0.69274
 N273 N 0.67951 0.88527 0.66388
 N274 N 0.65088 0.91557 0.63802
 C275 C 0.60876 0.90561 0.63793
 N276 N 0.59652 0.86434 0.66697
 N277 N 0.82865 0.14110 0.09143
 C278 C 0.83102 0.15750 0.17140
 N279 N 0.86343 0.14388 0.22255
 N280 N 0.89257 0.11513 0.19469
 C281 C 0.89034 0.09889 0.11463
 N282 N 0.85775 0.11223 0.06360
 N283 N 0.35470 0.63631 0.71254
 C284 C 0.33098 0.66229 0.65909
 N285 N 0.33675 0.65850 0.57398
 N286 N 0.36553 0.63003 0.54350
 C287 C 0.38923 0.60402 0.59705
 N288 N 0.38318 0.60759 0.68209
   
