data_POSCAR
  _audit_creation_date              2014-09-24
  _audit_creation_method            'ToBaCCo'
  _symmetry_space_group_name_H-M    'P1'
  _symmetry_Int_Tables_number       1
  _symmetry_cell_setting            triclinic
  loop_
  _symmetry_equiv_pos_as_xyz
 x,y,z
_cell_length_a 24.4801
_cell_length_b 24.4886
_cell_length_c 32.6843
_cell_angle_alpha 90.856400
_cell_angle_beta 89.425500
_cell_angle_gamma 121.219800
loop_
  _atom_site_label
  _atom_site_type_symbol
  _atom_site_fract_x
  _atom_site_fract_y
  _atom_site_fract_z
C1 C 0.05375 0.49351 1.33911
 C2 C 0.00148 0.48455 1.36288
 C3 C -0.05237 0.48068 1.34477
 C4 C -0.05671 0.48005 1.30134
 C5 C -0.00813 0.48074 1.27712
 C6 C 0.04555 0.48445 1.29608
 C7 C 0.08853 0.47661 1.27143
 C8 C 0.08623 0.47833 1.22911
 C9 C 0.03826 0.48366 1.20989
 C10 C -0.01256 0.47858 1.23362
 C11 C -0.10949 0.47566 1.28119
 C12 C -0.11210 0.47662 1.23880
 C13 C -0.06607 0.47432 1.21399
 C14 C -0.06971 0.47162 1.17028
 C15 C -0.01405 0.48626 1.14805
 C16 C 0.04047 0.49468 1.16759
 H17 H 0.12517 0.47029 1.28473
 H18 H 0.12236 0.47551 1.21144
 H19 H -0.15008 0.47114 1.29750
 H20 H -0.15001 0.48122 1.22608
 H21 H 0.00565 0.48896 1.39588
 H22 H -0.01232 0.49129 1.11520
 C23 C 0.49546 0.53888 1.33761
 C24 C 0.50920 0.49666 1.35652
 C25 C 0.51676 0.45168 1.33401
 C26 C 0.51382 0.45187 1.29046
 C27 C 0.49892 0.49412 1.27095
 C28 C 0.48955 0.53759 1.29465
 C29 C 0.47420 0.57846 1.27481
 C30 C 0.46934 0.57763 1.23238
 C31 C 0.48007 0.53621 1.20812
 C32 C 0.49464 0.49382 1.22753
 C33 C 0.53038 0.41509 1.26563
 C34 C 0.52574 0.41445 1.22323
 C35 C 0.50598 0.45188 1.20356
 C36 C 0.50030 0.45087 1.16044
 C37 C 0.48548 0.49260 1.14188
 C38 C 0.47596 0.53550 1.16495
 H39 H 0.46554 0.61141 1.29195
 H40 H 0.45688 0.60975 1.21879
 H41 H 0.54945 0.38800 1.27839
 H42 H 0.53952 0.38539 1.20604
 H43 H 0.51157 0.49766 1.38966
 H44 H 0.48200 0.49220 1.10879
 C45 C 0.54298 1.06898 1.16065
 C46 C 0.49967 1.01396 1.13846
 C47 C 0.45611 0.95732 1.15789
 C48 C 0.45443 0.95450 1.20103
 C49 C 0.49779 1.00905 1.22439
 C50 C 0.54072 1.06708 1.20429
 C51 C 0.57525 1.12255 1.22852
 C52 C 0.57372 1.11979 1.27100
 C53 C 0.53789 1.06138 1.29155
 C54 C 0.49686 1.00600 1.26802
 C55 C 0.40945 0.89896 1.22141
 C56 C 0.40803 0.89641 1.26385
 C57 C 0.45376 0.94794 1.28789
 C58 C 0.45462 0.94408 1.33131
 C59 C 0.49289 1.00052 1.35404
 C60 C 0.53713 1.05816 1.33503
 H61 H 0.60164 1.16940 1.21513
 H62 H 0.59911 1.16473 1.28749
 H63 H 0.37415 0.85699 1.20478
 H64 H 0.36943 0.85375 1.27760
 H65 H 0.50067 1.01418 1.10528
 H66 H 0.49448 0.99793 1.38702
 C67 C 1.05915 0.52452 0.83492
 C68 C 1.00501 0.51609 0.85573
 C69 C 0.95089 0.50590 0.83507
 C70 C 0.94992 0.50455 0.79188
 C71 C 1.00492 0.51546 0.76990
 C72 C 1.06023 0.52698 0.79140
 C73 C 1.11651 0.54653 0.76891
 C74 C 1.11684 0.54807 0.72641
 C75 C 1.06068 0.52912 0.70416
 C76 C 1.00498 0.51601 0.72630
 C77 C 0.89533 0.49205 0.77016
 C78 C 0.89507 0.49163 0.72757
 C79 C 0.94968 0.50449 0.70504
 C80 C 0.95030 0.50575 0.66180
 C81 C 1.00534 0.51855 0.64032
 C82 C 1.06009 0.52837 0.66053
 H83 H 1.16183 0.56377 0.78387
 H84 H 1.16255 0.56674 0.71140
 H85 H 0.85214 0.48228 0.78594
 H86 H 0.85155 0.48136 0.71250
 H87 H 1.00332 0.51451 0.88889
 H88 H 1.00409 0.51781 0.60714
 C89 C 0.49661 0.45083 0.66058
 C90 C 0.48961 0.49730 0.64132
 C91 C 0.48048 0.54099 0.66369
 C92 C 0.47784 0.53806 0.70697
 C93 C 0.48584 0.49163 0.72704
 C94 C 0.49531 0.44786 0.70374
 C95 C 0.50413 0.40300 0.72425
 C96 C 0.50524 0.40222 0.76679
 C97 C 0.49771 0.44630 0.79056
 C98 C 0.48457 0.48907 0.77051
 C99 C 0.46681 0.57964 0.73076
 C100 C 0.46443 0.57624 0.77323
 C101 C 0.47101 0.52986 0.79379
 C102 C 0.46541 0.52385 0.83700
 C103 C 0.48409 0.48534 0.85651
 C104 C 0.50310 0.44876 0.83381
 H105 H 0.51120 0.36861 0.70760
 H106 H 0.51125 0.36601 0.78093
 H107 H 0.45935 0.61505 0.71693
 H108 H 0.45876 0.61158 0.78973
 H109 H 0.49142 0.49949 0.60816
 H110 H 0.48460 0.48448 0.88962
 C111 C 0.55877 0.05753 0.66731
 C112 C 0.51950 0.00173 0.64467
 C113 C 0.47582 -0.05575 0.66399
 C114 C 0.47581 -0.05866 0.70745
 C115 C 0.51770 -0.00310 0.73056
 C116 C 0.56042 0.05454 0.71041
 C117 C 0.60396 0.10800 0.73388
 C118 C 0.60267 0.10627 0.77637
 C119 C 0.55853 0.05056 0.79710
 C120 C 0.51617 -0.00483 0.77404
 C121 C 0.43827 -0.11639 0.72849
 C122 C 0.43554 -0.11776 0.77100
 C123 C 0.47202 -0.06186 0.79438
 C124 C 0.46742 -0.06189 0.83759
 C125 C 0.50919 -0.00660 0.85986
 C126 C 0.55511 0.04898 0.84026
 H127 H 0.63975 0.15183 0.71953
 H128 H 0.63625 0.14942 0.79275
 H129 H 0.41131 -0.16158 0.71245
 H130 H 0.40545 -0.16352 0.78528
 H131 H 0.51734 0.00514 0.61176
 H132 H 0.50598 -0.00674 0.89299
 O133 O 0.42175 0.68162 0.95473
 O134 O 0.40068 0.77472 0.96422
 C135 C 0.35459 0.76710 0.94224
 O136 O 0.29669 0.72633 0.95003
 O137 O 0.20479 0.61150 0.96872
 C138 C 0.21179 0.57133 0.94780
 O139 O 0.25046 0.55411 0.95766
 O140 O 0.36531 0.58060 0.97501
 C141 C 0.40069 0.62265 0.94926
 O142 O 0.43257 0.67655 1.03767
 O143 O 0.40454 0.76577 1.04618
 C144 C 0.36340 0.78199 1.05174
 O145 O 0.31347 0.76056 1.03000
 O146 O 0.22736 0.64529 1.04877
 C147 C 0.21023 0.58922 1.05936
 O148 O 0.22350 0.55303 1.03882
 O149 O 0.34204 0.58675 1.05467
 C150 C 0.40032 0.62866 1.06081
 Cr151 Cr 0.41220 0.72242 1.00081
 Cr152 Cr 0.26249 0.68493 0.99944
 Cr153 Cr 0.29601 0.57155 1.00644
 O154 O 0.32372 0.65990 1.00265
 O155 O 0.56394 0.32227 0.95841
 O156 O 0.60197 0.24084 0.94820
 C157 C 0.64551 0.22818 0.94301
 O158 O 0.69535 0.25250 0.96488
 O159 O 0.77430 0.37351 0.95182
 C160 C 0.78785 0.43032 0.94637
 O161 O 0.76881 0.45866 0.97038
 O162 O 0.65134 0.42030 0.95267
 C163 C 0.59740 0.37566 0.94017
 O164 O 0.56340 0.30481 1.04102
 O165 O 0.60010 0.22351 1.03036
 C166 C 0.64718 0.23386 1.05279
 O167 O 0.70465 0.27709 1.04563
 O168 O 0.79138 0.39704 1.03249
 C169 C 0.77544 0.42482 1.05873
 O170 O 0.73357 0.43889 1.05156
 O171 O 0.61921 0.40985 1.03231
 C172 C 0.57675 0.36048 1.05065
 Cr173 Cr 0.58528 0.27528 0.99456
 Cr174 Cr 0.73909 0.32555 0.99870
 Cr175 Cr 0.69281 0.42928 1.00163
 O176 O 0.67180 0.34300 0.99781
 O177 O 0.63019 0.40531 0.54548
 O178 O 0.75060 0.44481 0.53806
 C179 C 0.77331 0.41773 0.55891
 O180 O 0.76092 0.36138 0.55171
 O181 O 0.67630 0.24000 0.53927
 C182 C 0.62519 0.22294 0.55943
 O183 O 0.58237 0.23347 0.54796
 O184 O 0.54530 0.31097 0.52929
 C185 C 0.57299 0.36119 0.55126
 O186 O 0.61689 0.40002 0.46293
 O187 O 0.73737 0.43550 0.45613
 C188 C 0.78010 0.42168 0.45043
 O189 O 0.78342 0.37967 0.47085
 O190 O 0.69653 0.26085 0.45707
 C191 C 0.63998 0.21806 0.44784
 O192 O 0.59173 0.20946 0.46809
 O193 O 0.56318 0.29507 0.44937
 C194 C 0.57867 0.35174 0.44106
 Cr195 Cr 0.68287 0.41819 0.50062
 Cr196 Cr 0.72669 0.31095 0.50460
 Cr197 Cr 0.57391 0.26457 0.49870
 O198 O 0.66150 0.33154 0.50123
 O199 O 0.38255 0.59846 0.53475
 O200 O 0.26521 0.56955 0.54445
 C201 C 0.22484 0.58605 0.55149
 O202 O 0.22048 0.62649 0.52984
 O203 O 0.31117 0.74375 0.54349
 C204 C 0.36848 0.78511 0.55196
 O205 O 0.41556 0.79212 0.53088
 O206 O 0.44017 0.70331 0.54830
 C207 C 0.42246 0.64604 0.55648
 O208 O 0.36581 0.59281 0.45257
 O209 O 0.24622 0.55868 0.46245
 C210 C 0.22949 0.59010 0.44059
 O211 O 0.24448 0.64690 0.44853
 O212 O 0.33095 0.76618 0.46155
 C213 C 0.38044 0.78069 0.44019
 O214 O 0.42165 0.76722 0.45050
 O215 O 0.45389 0.68545 0.46796
 C216 C 0.42377 0.63494 0.44631
 Cr217 Cr 0.31579 0.58296 0.49854
 Cr218 Cr 0.27893 0.69503 0.49594
 Cr219 Cr 0.42969 0.73491 0.49943
 O220 O 0.34131 0.67077 0.49804
 N221 N 0.51198 0.67218 0.39531
 N222 N 0.52987 0.64720 0.36582
 C223 C 0.48791 0.58386 0.36410
 C224 C 0.44117 0.56759 0.39364
 C225 C 0.45819 0.62512 0.41271
 H226 H 0.40130 0.52054 0.40071
 H227 H 0.53627 0.72064 0.40324
 H228 H 0.57079 0.67295 0.34785
 N229 N 0.39719 0.78522 0.36597
 N230 N 0.41875 0.83093 0.33551
 C231 C 0.42459 0.88474 0.35188
 C232 C 0.40710 0.87394 0.39327
 C233 C 0.39003 0.81130 0.40048
 H234 H 0.40997 0.90802 0.41591
 H235 H 0.39321 0.74076 0.36293
 H236 H 0.43656 0.82606 0.30741
 N237 N 0.21966 0.58408 0.36602
 N238 N 0.17039 0.55832 0.33760
 C239 C 0.11485 0.51975 0.35753
 C240 C 0.12834 0.52119 0.39921
 C241 C 0.19403 0.56144 0.40286
 H242 H 0.09483 0.49958 0.42420
 H243 H 0.26674 0.62001 0.35991
 H244 H 0.17609 0.57578 0.30795
 N245 N 0.51634 0.31699 0.37622
 N246 N 0.50035 0.34544 0.34566
 C247 C 0.52560 0.40757 0.35599
 C248 C 0.55691 0.41937 0.39335
 C249 C 0.55074 0.36212 0.40457
 H250 H 0.58232 0.46431 0.40995
 H251 H 0.50355 0.26914 0.37637
 H252 H 0.46917 0.32044 0.32157
 N253 N 0.67412 0.19087 0.38265
 N254 N 0.64458 0.14797 0.35021
 C255 C 0.58236 0.10907 0.35997
 C256 C 0.57153 0.12543 0.39894
 C257 C 0.62955 0.17742 0.41159
 H258 H 0.52639 0.10453 0.41510
 H259 H 0.72164 0.22848 0.38286
 H260 H 0.66856 0.14506 0.32444
 N261 N 0.82910 0.50144 0.39509
 N262 N 0.87586 0.51774 0.36521
 C263 C 0.90166 0.48127 0.37067
 C264 C 0.87426 0.44335 0.40487
 C265 C 0.82788 0.45596 0.41837
 H266 H 0.88346 0.40771 0.41648
 H267 H 0.79922 0.52002 0.39742
 H268 H 0.88906 0.55356 0.34363
 N269 N 0.49827 0.31969 1.10817
 N270 N 0.47887 0.34345 1.13754
 C271 C 0.50979 0.40734 1.13354
 C272 C 0.55001 0.42503 1.09987
 C273 C 0.54162 0.36803 1.08483
 H274 H 0.58180 0.47271 1.08853
 H275 H 0.48246 0.27126 1.10457
 H276 H 0.44490 0.31623 1.15976
 N277 N 0.77051 0.40853 1.13287
 N278 N 0.81362 0.41783 1.16359
 C279 C 0.87350 0.45474 1.14859
 C280 C 0.86896 0.46660 1.10743
 C281 C 0.80437 0.43781 1.09924
 H282 H 0.90707 0.49126 1.08540
 H283 H 0.72112 0.37732 1.13463
 H284 H 0.80009 0.39154 1.19053
 N285 N 0.67871 0.20800 1.11843
 N286 N 0.64911 0.16315 1.14932
 C287 C 0.58773 0.12305 1.13830
 C288 C 0.57754 0.14092 1.10011
 C289 C 0.63505 0.19440 1.08913
 H290 H 0.53339 0.11904 1.08298
 H291 H 0.72613 0.24581 1.11895
 H292 H 0.67298 0.15917 1.17433
 N293 N 0.48575 0.66842 1.11361
 N294 N 0.50459 0.64394 1.14204
 C295 C 0.46418 0.58021 1.14243
 C296 C 0.41743 0.56332 1.11314
 C297 C 0.43288 0.62067 1.09560
 H298 H 0.37980 0.51577 1.10429
 H299 H 0.50957 0.71678 1.10620
 H300 H 0.54600 0.67013 1.15948
 N301 N 0.20078 0.59974 1.13341
 N302 N 0.15636 0.57476 1.16195
 C303 C 0.10240 0.52605 1.14546
 C304 C 0.11318 0.51979 1.10426
 C305 C 0.17636 0.56742 1.09821
 H306 H 0.07905 0.48844 1.08151
 H307 H 0.24622 0.64005 1.13765
 H308 H 0.16206 0.59365 1.19154
 N309 N 0.32550 0.83480 1.09999
 N310 N 0.34940 0.87982 1.12860
 C311 C 0.41233 0.90235 1.13180
 C312 C 0.42951 0.87039 1.10406
 C313 C 0.37281 0.82777 1.08454
 H314 H 0.47663 0.87816 1.09828
 H315 H 0.27757 0.80959 1.09119
 H316 H 0.32326 0.89571 1.14493
 N317 N 0.48269 0.32030 0.60099
 N318 N 0.46372 0.34356 0.63095
 C319 C 0.50559 0.40682 0.63415
 C320 C 0.55312 0.42479 0.60505
 C321 C 0.53687 0.36850 0.58473
 H322 H 0.59298 0.47232 0.59897
 H323 H 0.45878 0.27232 0.59192
 H324 H 0.42200 0.31683 0.64806
 N325 N 0.59533 0.21028 0.63202
 N326 N 0.57818 0.16703 0.66063
 C327 C 0.58625 0.11971 0.64636
 C328 C 0.60984 0.13382 0.60653
 C329 C 0.61481 0.19175 0.59888
 H330 H 0.61645 0.10363 0.58507
 H331 H 0.59028 0.25004 0.63443
 H332 H 0.55663 0.16781 0.68820
 N333 N 0.82278 0.50735 0.60978
 N334 N 0.86893 0.53017 0.63729
 C335 C 0.89384 0.49241 0.63773
 C336 C 0.86219 0.44329 0.60943
 C337 C 0.81733 0.45445 0.59244
 H338 H 0.87193 0.40610 0.60142
 H339 H 0.79616 0.52824 0.60274
 H340 H 0.88411 0.57179 0.65459
 N341 N 0.49430 0.67974 0.61723
 N342 N 0.50898 0.65210 0.64598
 C343 C 0.47369 0.58833 0.64023
 C344 C 0.43572 0.57487 0.60601
 C345 C 0.45005 0.63404 0.59244
 H346 H 0.40306 0.52854 0.59254
 H347 H 0.51516 0.72906 0.61437
 H348 H 0.54395 0.67675 0.66825
 N349 N 0.33670 0.81376 0.61730
 N350 N 0.36740 0.85650 0.64957
 C351 C 0.42968 0.89377 0.63950
 C352 C 0.43954 0.87671 0.60054
 C353 C 0.38075 0.82584 0.58823
 H354 H 0.48441 0.89656 0.58414
 H355 H 0.28869 0.77729 0.61720
 H356 H 0.34414 0.86066 0.67532
 N357 N 0.19073 0.52254 0.61505
 N358 N 0.14618 0.50811 0.64620
 C359 C 0.11118 0.53421 0.63659
 C360 C 0.13170 0.56436 0.59884
 C361 C 0.18220 0.55706 0.58695
 H362 H 0.11412 0.59069 0.58298
 H363 H 0.22551 0.50998 0.61486
 H364 H 0.13934 0.47842 0.67078
 N365 N 0.37180 0.58650 0.87820
 N366 N 0.38655 0.55813 0.84935
 C367 C 0.43701 0.55456 0.86173
 C368 C 0.45360 0.58001 0.90118
 C369 C 0.41157 0.60065 0.90994
 H370 H 0.48978 0.58188 0.92091
 H371 H 0.33325 0.59351 0.87682
 H372 H 0.36063 0.53945 0.82231
 N373 N 0.18515 0.51281 0.88092
 N374 N 0.14458 0.50277 0.84820
 C375 C 0.10908 0.52852 0.85860
 C376 C 0.12579 0.55451 0.89787
 C377 C 0.17365 0.54450 0.91044
 H378 H 0.10730 0.57994 0.91470
 H379 H 0.21937 0.49952 0.88124
 H380 H 0.13986 0.47537 0.82220
 N381 N 0.32585 0.80444 0.87998
 N382 N 0.35567 0.84913 0.85213
 C383 C 0.41868 0.88202 0.86057
 C384 C 0.42936 0.85775 0.89550
 C385 C 0.36935 0.80844 0.90670
 H386 H 0.47440 0.87397 0.91072
 H387 H 0.27657 0.77230 0.88071
 H388 H 0.33293 0.85763 0.82835
 N389 N 0.61376 0.40465 0.86774
 N390 N 0.58997 0.42502 0.84001
 C391 C 0.53626 0.42060 0.85492
 C392 C 0.52585 0.39650 0.89450
 C393 C 0.57607 0.38663 0.90110
 H394 H 0.49025 0.39187 0.91636
 H395 H 0.65734 0.40674 0.86472
 H396 H 0.61296 0.44578 0.81250
 N397 N 0.83433 0.51792 0.89506
 N398 N 0.87525 0.53614 0.86418
 C399 C 0.89603 0.49501 0.86043
 C400 C 0.86728 0.44875 0.89008
 C401 C 0.82869 0.46503 0.91142
 H402 H 0.87568 0.41044 0.89643
 H403 H 0.81145 0.54181 0.90493
 H404 H 0.89059 0.57745 0.84720
 N405 N 0.68569 0.17579 0.89598
 N406 N 0.66197 0.12890 0.86859
 C407 C 0.59861 0.10457 0.86592
 C408 C 0.58100 0.13727 0.89254
 C409 C 0.63778 0.18222 0.91091
 H410 H 0.53356 0.12866 0.89829
 H411 H 0.73377 0.20251 0.90435
 H412 H 0.68859 0.11320 0.85264
   
