data_POSCAR
  _audit_creation_date              2014-09-24
  _audit_creation_method            'ToBaCCo'
  _symmetry_space_group_name_H-M    'P1'
  _symmetry_Int_Tables_number       1
  _symmetry_cell_setting            triclinic
  loop_
  _symmetry_equiv_pos_as_xyz
 x,y,z
_cell_length_a 20.8763
_cell_length_b 18.5290
_cell_length_c 19.4518
_cell_angle_alpha 95.280300
_cell_angle_beta 88.873800
_cell_angle_gamma 89.890100
loop_
  _atom_site_label
  _atom_site_type_symbol
  _atom_site_fract_x
  _atom_site_fract_y
  _atom_site_fract_z
N1 N 0.21224 1.21370 0.21432
 N2 N 0.78651 0.79807 0.21268
 N3 N 0.75937 1.20543 -0.21163
 N4 N 0.19542 0.80471 -0.20806
 C5 C 0.58883 1.09069 0.00184
 H6 H 0.58279 1.09114 0.05724
 C7 C 0.63503 1.13459 -0.02571
 H8 H 0.66444 1.16942 0.00841
 C9 C 0.55997 1.04204 -0.11032
 H10 H 0.53190 1.00423 -0.14281
 C11 C 0.60607 1.08494 -0.14011
 H12 H 0.61258 1.08064 -0.19568
 N13 N 0.55270 1.04540 -0.04044
 C14 C 0.41271 0.99367 0.11522
 H15 H 0.42323 0.93666 0.11676
 C16 C 0.36457 1.02641 0.15809
 H17 H 0.33832 0.99485 0.19334
 C18 C 0.43120 1.10352 0.06439
 H19 H 0.45600 1.13255 0.02621
 C20 C 0.38238 1.13798 0.10537
 H21 H 0.37055 1.19392 0.09933
 Zn22 Zn 0.50025 0.98097 0.00473
 N23 N 0.44494 1.03244 0.06967
 C24 C 0.56785 0.93215 0.11694
 N25 N 0.55704 0.92083 0.04806
 C26 C 0.59234 0.87206 0.00656
 C27 C 0.64047 0.83179 0.03417
 C28 C 0.61634 0.89393 0.14644
 C29 C 0.40695 0.96134 -0.09662
 C30 C 0.35709 0.92484 -0.13175
 C31 C 0.38915 0.81512 -0.08338
 C32 C 0.43857 0.85348 -0.04953
 N33 N 0.44608 0.92548 -0.05605
 H34 H 0.54090 0.97308 0.14850
 H35 H 0.58402 0.86576 -0.04838
 H36 H 0.66915 0.79406 0.00061
 H37 H 0.62564 0.90491 0.20094
 H38 H 0.41254 1.01910 -0.09894
 H39 H 0.32488 0.95463 -0.16178
 H40 H 0.38174 0.75860 -0.07558
 H41 H 0.46820 0.82665 -0.01468
 C42 C 0.34807 1.09865 0.15220
 C43 C 0.64469 1.13114 -0.09715
 C44 C 0.34711 0.85114 -0.12371
 C45 C 0.65368 0.84372 0.10440
 C46 C -0.01866 0.56430 1.12176
 H47 H 0.02403 0.53844 1.13842
 C48 C -0.05073 0.61579 1.16707
 H49 H -0.03328 0.62865 1.21880
 C50 C -0.09092 0.58394 1.03275
 H51 H -0.10504 0.57276 0.97963
 C52 C -0.12472 0.63510 1.07652
 H53 H -0.16521 0.66276 1.05678
 N54 N -0.03919 0.54946 1.05596
 C55 C 0.13205 0.42919 1.01697
 H56 H 0.15003 0.45818 0.97494
 C57 C 0.17349 0.38505 1.05041
 H58 H 0.22343 0.38054 1.03445
 C59 C 0.04462 0.39550 1.08668
 H60 H -0.00599 0.39899 1.09962
 C61 C 0.08443 0.35165 1.12195
 H62 H 0.06407 0.32123 1.16193
 Zn63 Zn 0.00921 0.48897 0.99056
 N64 N 0.06894 0.43383 1.03588
 C65 C 0.02530 0.56013 0.86857
 N66 N 0.04978 0.55177 0.93174
 C67 C 0.09860 0.59407 0.95723
 C68 C 0.12594 0.64588 0.91797
 C69 C 0.05073 0.61191 0.82797
 C70 C -0.10503 0.40902 0.95851
 C71 C -0.14282 0.36011 0.91809
 C72 C -0.05376 0.33961 0.83739
 C73 C -0.01721 0.38730 0.88012
 N74 N -0.04371 0.42241 0.93836
 H75 H -0.01552 0.52860 0.85054
 H76 H 0.11552 0.58842 1.00867
 H77 H 0.16439 0.67949 0.93928
 H78 H 0.03027 0.61911 0.77833
 H79 H -0.12460 0.43602 1.00595
 H80 H -0.19176 0.35043 0.93413
 H81 H -0.03285 0.31343 0.79012
 H82 H 0.03206 0.39780 0.86606
 C83 C 0.14972 0.34596 1.10355
 C84 C -0.10405 0.65199 1.14440
 C85 C -0.11713 0.32571 0.85625
 C86 C 0.10144 0.65538 0.85263
 C87 C 1.11565 -0.00102 0.57576
 H88 H 1.13471 0.03967 0.54474
 C89 C 1.15556 -0.03226 0.62170
 H90 H 1.20523 -0.01591 0.62558
 C91 C 1.02773 -0.07062 0.61077
 H92 H 0.97749 -0.08431 0.60711
 C93 C 1.06617 -0.10371 0.65692
 H94 H 1.04530 -0.14318 0.68837
 N95 N 1.05303 -0.02083 0.57075
 C96 C 1.03942 0.15600 0.45571
 H97 H 1.00506 0.18233 0.49201
 C98 C 1.07108 0.19640 0.40824
 H99 H 1.06083 0.25366 0.40783
 C100 C 1.09335 0.04909 0.40950
 H101 H 1.10039 -0.00880 0.40923
 C102 C 1.12676 0.08761 0.36203
 H103 H 1.15973 0.05906 0.32538
 Zn104 Zn 0.99989 0.02374 0.50827
 N105 N 1.05006 0.08339 0.45446
 C106 C 0.92951 0.08283 0.62822
 N107 N 0.93391 0.07973 0.55799
 C108 C 0.89088 0.11555 0.52168
 C109 C 0.84067 0.15486 0.55543
 C110 C 0.87966 0.12155 0.66413
 C111 C 0.96350 -0.11963 0.44954
 C112 C 0.93243 -0.16736 0.40098
 C113 C 0.90012 -0.06462 0.34197
 C114 C 0.93251 -0.01938 0.39049
 N115 N 0.96152 -0.04673 0.44446
 H116 H 0.96445 0.05525 0.65666
 H117 H 0.89554 0.11459 0.46642
 H118 H 0.80671 0.18284 0.52582
 H119 H 0.87656 0.12309 0.71986
 H120 H 0.98892 -0.14113 0.49093
 H121 H 0.93345 -0.22513 0.40563
 H122 H 0.87682 -0.04132 0.29992
 H123 H 0.93529 0.03775 0.38423
 C124 C 1.11462 0.16198 0.36033
 C125 C 1.13100 -0.08436 0.66249
 C126 C 0.89902 -0.13950 0.34756
 C127 C 0.83434 0.15764 0.62713
 N128 N 0.17363 0.26615 1.18759
 N129 N 0.19125 0.29719 1.13469
 N130 N -0.18521 0.73895 1.17244
 N131 N -0.13374 0.70876 1.18908
 N132 N -0.20490 0.24728 0.83174
 N133 N -0.15468 0.27832 0.81097
 N134 N 0.17475 0.74726 0.82906
 N135 N 0.12465 0.71132 0.81255
 N136 N 1.18868 0.17664 0.26927
 N137 N 1.14231 0.20194 0.30761
 N138 N 1.15477 -0.16757 0.74396
 N139 N 1.17225 -0.11515 0.71015
 N140 N 0.81976 -0.16137 0.26505
 N141 N 0.86491 -0.18682 0.29871
 N142 N 0.77114 0.20095 0.72303
 N143 N 0.78158 0.19738 0.66027
 N144 N 0.26695 1.18728 0.17698
 N145 N 0.29388 1.12887 0.19090
 N146 N 0.71020 1.16875 -0.18818
 N147 N 0.69602 1.17207 -0.12402
 N148 N 0.25202 0.84141 -0.18887
 N149 N 0.29137 0.81376 -0.14952
 N150 N 0.73119 0.82985 0.18888
 N151 N 0.70812 0.80876 0.13045
   
