data_POSCAR
  _audit_creation_date              2014-09-24
  _audit_creation_method            'ToBaCCo'
  _symmetry_space_group_name_H-M    'P1'
  _symmetry_Int_Tables_number       1
  _symmetry_cell_setting            triclinic
  loop_
  _symmetry_equiv_pos_as_xyz
 x,y,z
_cell_length_a 37.8227
_cell_length_b 36.2094
_cell_length_c 38.4256
_cell_angle_alpha 90.125500
_cell_angle_beta 89.865300
_cell_angle_gamma 90.099800
loop_
  _atom_site_label
  _atom_site_type_symbol
  _atom_site_fract_x
  _atom_site_fract_y
  _atom_site_fract_z
O1 O 0.32819 0.37351 0.03983
 O2 O 0.38452 0.33377 -0.02928
 O3 O 0.33499 0.38380 -0.02700
 O4 O 0.37861 0.32415 0.03757
 O5 O 0.33744 0.28155 0.02992
 O6 O 0.29561 0.33991 -0.03653
 O7 O 0.34511 0.28952 -0.03724
 O8 O 0.28803 0.33041 0.02987
 Cu9 Cu 0.36063 0.35816 0.00621
 Cu10 Cu 0.31264 0.30594 -0.00462
 C11 C 0.29838 0.35874 0.04642
 C12 C 0.37448 0.30460 -0.04477
 C13 C 0.30769 0.37206 -0.04272
 C14 C 0.36521 0.29293 0.04500
 O15 O 0.61765 0.67132 -0.04098
 O16 O 0.65522 0.61143 0.02772
 O17 O 0.60912 0.66437 0.02593
 O18 O 0.65844 0.61318 -0.04055
 O19 O 0.70432 0.65024 -0.03379
 O20 O 0.65369 0.70330 0.03213
 O21 O 0.69990 0.65038 0.03307
 O22 O 0.66325 0.70896 -0.03518
 Cu23 Cu 0.63070 0.63623 -0.00769
 Cu24 Cu 0.68465 0.68219 -0.00057
 C25 C 0.63422 0.70059 -0.04955
 C26 C 0.68416 0.62098 0.04205
 C27 C 0.62277 0.69236 0.04046
 C28 C 0.68986 0.62232 -0.04819
 O29 O 0.66747 0.37188 0.96944
 O30 O 0.62922 0.31437 1.03872
 O31 O 0.67614 0.36725 1.03641
 O32 O 0.62283 0.31662 0.97085
 O33 O 0.66588 0.27584 0.96561
 O34 O 0.71917 0.32676 1.02946
 O35 O 0.67269 0.27421 1.03277
 O36 O 0.71070 0.33155 0.96284
 Cu37 Cu 0.64450 0.34649 1.00445
 Cu38 Cu 0.69636 0.29803 0.99681
 C39 C 0.69593 0.36187 0.95475
 C40 C 0.64445 0.28467 1.04773
 C41 C 0.70695 0.35556 1.04391
 C42 C 0.63534 0.28724 0.95743
 O43 O 0.38514 0.66510 1.03222
 O44 O 0.32392 0.62674 0.96743
 O45 O 0.38211 0.66492 0.96378
 O46 O 0.32626 0.62715 1.03375
 O47 O 0.29635 0.67940 1.03608
 O48 O 0.35157 0.71685 0.96545
 O49 O 0.29328 0.67867 0.96814
 O50 O 0.35500 0.71731 1.03241
 Cu51 Cu 0.35776 0.64090 0.99924
 Cu52 Cu 0.32093 0.70326 1.00070
 C53 C 0.38061 0.69784 1.04316
 C54 C 0.29790 0.64593 0.95719
 C55 C 0.37627 0.69733 0.95267
 C56 C 0.30136 0.64654 1.04644
 O57 O 0.02983 0.32577 0.37108
 O58 O -0.03278 0.38841 0.32771
 O59 O -0.03861 0.33140 0.36893
 O60 O 0.03578 0.38330 0.33060
 O61 O 0.03209 0.34895 0.28316
 O62 O -0.03734 0.29274 0.32444
 O63 O -0.03643 0.34940 0.28356
 O64 O 0.03171 0.29113 0.32372
 Cu65 Cu -0.00135 0.36093 0.35422
 Cu66 Cu -0.00248 0.31678 0.29915
 C67 C 0.04177 0.29802 0.35454
 C68 C -0.04572 0.37916 0.29850
 C69 C -0.05028 0.30280 0.35346
 C70 C 0.04592 0.37555 0.29994
 O71 O 0.03112 0.67090 0.62945
 O72 O -0.03932 0.62808 0.68266
 O73 O -0.03703 0.67768 0.63387
 O74 O 0.02898 0.61910 0.67723
 O75 O 0.03512 0.66104 0.71857
 O76 O -0.02811 0.72135 0.67305
 O77 O -0.03254 0.67213 0.72196
 O78 O 0.04025 0.71189 0.67117
 Cu79 Cu -0.00471 0.64457 0.65176
 Cu80 Cu 0.00447 0.69592 0.70017
 C81 C 0.04770 0.69870 0.64147
 C82 C -0.04806 0.64320 0.71132
 C83 C -0.04366 0.70966 0.64587
 C84 C 0.04287 0.62976 0.70558
 O85 O 0.96234 0.66841 0.37557
 O86 O 1.02685 0.61112 0.32807
 O87 O 1.03031 0.65799 0.37968
 O88 O 0.95857 0.62171 0.32376
 O89 O 0.96724 0.66791 0.28731
 O90 O 1.03968 0.70295 0.34208
 O91 O 1.03522 0.65642 0.29056
 O92 O 0.97251 0.71444 0.33923
 Cu93 Cu 0.99358 0.63517 0.35542
 Cu94 Cu 1.00448 0.68987 0.31096
 C95 C 0.95695 0.70142 0.36580
 C96 C 1.04200 0.62401 0.30120
 C97 C 1.04708 0.68687 0.37053
 C98 C 0.95066 0.63882 0.29598
 O99 O 0.97200 0.33193 0.62142
 O100 O 1.04350 0.38190 0.66600
 O101 O 1.04050 0.32652 0.62306
 O102 O 0.97517 0.38736 0.66567
 O103 O 0.96979 0.34730 0.70866
 O104 O 1.03690 0.28819 0.66751
 O105 O 1.03773 0.34429 0.71089
 O106 O 0.96799 0.29296 0.66544
 Cu107 Cu 1.00809 0.36079 0.63951
 Cu108 Cu 1.00294 0.31410 0.69247
 C109 C 0.95798 0.30390 0.63575
 C110 C 1.05211 0.37205 0.69645
 C111 C 1.04994 0.29695 0.63817
 C112 C 0.96140 0.37764 0.69444
 O113 O 0.39023 0.03284 0.34633
 O114 O 0.33623 -0.04049 0.38741
 O115 O 0.39067 -0.03918 0.34497
 O116 O 0.33905 0.03087 0.39190
 O117 O 0.29998 0.03188 0.34928
 O118 O 0.35422 -0.03542 0.30032
 O119 O 0.30033 -0.03984 0.34212
 O120 O 0.35132 0.03602 0.30372
 Cu121 Cu 0.36784 -0.00428 0.37201
 Cu122 Cu 0.32265 -0.00152 0.31953
 C123 C 0.37979 0.04690 0.31786
 C124 C 0.30913 -0.05267 0.37148
 C125 C 0.38171 -0.04882 0.31450
 C126 C 0.31050 0.04288 0.37900
 O127 O 0.62745 0.04354 0.67378
 O128 O 0.66523 -0.03095 0.61979
 O129 O 0.62633 -0.02813 0.67594
 O130 O 0.66671 0.04111 0.61793
 O131 O 0.71404 0.04246 0.65146
 O132 O 0.67545 -0.03012 0.70685
 O133 O 0.71431 -0.02873 0.65079
 O134 O 0.67474 0.04219 0.70734
 Cu135 Cu 0.64159 0.00638 0.64358
 Cu136 Cu 0.69939 0.00650 0.68249
 C137 C 0.64451 0.05521 0.70005
 C138 C 0.69648 -0.04198 0.62572
 C139 C 0.64412 -0.04114 0.70109
 C140 C 0.69728 0.05362 0.62487
 O141 O 0.37573 0.96173 0.66934
 O142 O 0.33649 1.03371 0.61365
 O143 O 0.37686 1.03317 0.66921
 O144 O 0.33597 0.96130 0.61403
 O145 O 0.28923 0.96073 0.64854
 O146 O 0.32811 1.03596 0.70084
 O147 O 0.28786 1.03209 0.64553
 O148 O 0.32882 0.96404 0.70361
 Cu149 Cu 0.36099 0.99752 0.63809
 Cu150 Cu 0.30376 0.99840 0.67799
 C151 C 0.35908 0.95106 0.69628
 C152 C 0.30513 1.04449 0.61969
 C153 C 0.35946 1.04667 0.69453
 C154 C 0.30580 0.94844 0.62215
 O155 O 0.66110 1.03678 0.38859
 O156 O 0.62252 0.96458 0.33229
 O157 O 0.66147 0.96442 0.38847
 O158 O 0.62116 1.03577 0.33335
 O159 O 0.67044 1.03967 0.30255
 O160 O 0.70803 0.96341 0.35371
 O161 O 0.66908 0.96845 0.29763
 O162 O 0.71012 1.03451 0.35742
 Cu163 Cu 0.63680 1.00021 0.36417
 Cu164 Cu 0.69426 1.00148 0.32455
 C165 C 0.69260 1.04744 0.38289
 C166 C 0.63883 0.95530 0.30467
 C167 C 0.69158 0.95158 0.38035
 C168 C 0.63893 1.04989 0.30863
 C169 C 0.81983 0.81443 0.52072
 C170 C 0.81953 0.81164 0.48548
 C171 C 0.84302 0.78550 0.46706
 C172 C 0.79842 0.83686 0.46339
 C173 C 0.79977 0.84363 0.53898
 C174 C 0.84292 0.79074 0.54243
 C175 C 0.87927 0.79298 0.46414
 C176 C 0.90111 0.76935 0.44506
 C177 C 0.88701 0.73760 0.42913
 C178 C 0.85093 0.72959 0.43301
 C179 C 0.82891 0.75378 0.45134
 C180 C 0.81551 0.85842 0.43816
 C181 C 0.79618 0.88201 0.41684
 C182 C 0.75933 0.88469 0.42024
 C183 C 0.74205 0.86255 0.44520
 C184 C 0.76150 0.83884 0.46656
 C185 C 0.76952 0.83449 0.55826
 C186 C 0.75142 0.86174 0.57693
 C187 C 0.76392 0.89833 0.57716
 C188 C 0.79436 0.90729 0.55799
 C189 C 0.81191 0.88022 0.53863
 C190 C 0.83985 0.75213 0.54159
 C191 C 0.86291 0.73017 0.56095
 C192 C 0.88903 0.74637 0.58199
 C193 C 0.89172 0.78513 0.58313
 C194 C 0.86875 0.80703 0.56367
 H195 H 0.89045 0.81742 0.47618
 H196 H 0.92902 0.77569 0.44293
 H197 H 0.83968 0.70512 0.42109
 H198 H 0.80093 0.74777 0.45342
 H199 H 0.84396 0.85725 0.43514
 H200 H 0.81018 0.89852 0.39776
 H201 H 0.74773 0.82172 0.48529
 H202 H 0.76011 0.80623 0.55897
 H203 H 0.72845 0.85397 0.59212
 H204 H 0.80456 0.93526 0.55809
 H205 H 0.83544 0.88754 0.52406
 H206 H 0.81978 0.73901 0.52574
 H207 H 0.86036 0.70040 0.55949
 H208 H 0.91213 0.79873 0.59811
 H209 H 0.87178 0.83676 0.56448
 H210 H 0.71362 0.86286 0.44804
 C211 C 0.17456 0.17785 0.51132
 C212 C 0.17084 0.17673 0.47603
 C213 C 0.14442 0.19989 0.45740
 C214 C 0.19338 0.15217 0.45428
 C215 C 0.19665 0.15045 0.52982
 C216 C 0.15474 0.20443 0.53349
 C217 C 0.10898 0.20153 0.46846
 C218 C 0.08491 0.22456 0.45159
 C219 C 0.09535 0.24499 0.42237
 C220 C 0.13040 0.24234 0.41043
 C221 C 0.15472 0.22009 0.42789
 C222 C 0.17781 0.12741 0.43070
 C223 C 0.19890 0.10458 0.40988
 C224 C 0.23590 0.10600 0.41232
 C225 C 0.25146 0.13170 0.43525
 C226 C 0.23037 0.15453 0.45597
 C227 C 0.22671 0.16188 0.54827
 C228 C 0.24630 0.13637 0.56752
 C229 C 0.23549 0.09924 0.56925
 C230 C 0.20532 0.08797 0.55086
 C231 C 0.18630 0.11326 0.53092
 C232 C 0.15604 0.24256 0.52707
 C233 C 0.13511 0.26686 0.54654
 C234 C 0.11297 0.25362 0.57317
 C235 C 0.11246 0.21545 0.58011
 C236 C 0.13333 0.19122 0.56063
 H237 H 0.09998 0.18524 0.49036
 H238 H 0.05796 0.22610 0.46108
 H239 H 0.13922 0.25823 0.38819
 H240 H 0.18179 0.21910 0.41868
 H241 H 0.14931 0.12556 0.42864
 H242 H 0.18626 0.08539 0.39215
 H243 H 0.24291 0.17437 0.47311
 H244 H 0.23476 0.19059 0.54795
 H245 H 0.26903 0.14592 0.58208
 H246 H 0.19637 0.05957 0.55213
 H247 H 0.16288 0.10414 0.51716
 H248 H 0.17269 0.25339 0.50650
 H249 H 0.13592 0.29606 0.54054
 H250 H 0.09509 0.20382 0.59960
 H251 H 0.13174 0.16190 0.56590
 H252 H 0.27985 0.13476 0.43687
 C253 C 0.18261 0.81149 0.48050
 C254 C 0.17926 0.80777 0.51577
 C255 C 0.15264 0.78282 0.53203
 C256 C 0.20058 0.83052 0.54041
 C257 C 0.20751 0.83881 0.46489
 C258 C 0.16050 0.78994 0.45555
 C259 C 0.11667 0.78439 0.52295
 C260 C 0.09196 0.76185 0.53982
 C261 C 0.10254 0.73866 0.56703
 C262 C 0.13843 0.73712 0.57619
 C263 C 0.16323 0.75890 0.55875
 C264 C 0.18309 0.85272 0.56494
 C265 C 0.20216 0.87630 0.58671
 C266 C 0.23914 0.87841 0.58439
 C267 C 0.25688 0.85498 0.56081
 C268 C 0.23772 0.83107 0.53916
 C269 C 0.23184 0.82723 0.43948
 C270 C 0.25575 0.85233 0.42493
 C271 C 0.25591 0.88940 0.43581
 C272 C 0.23147 0.90108 0.46098
 C273 C 0.20688 0.87624 0.47476
 C274 C 0.15767 0.75124 0.45729
 C275 C 0.13506 0.73210 0.43466
 C276 C 0.11536 0.75136 0.40949
 C277 C 0.11959 0.78975 0.40684
 C278 C 0.14173 0.80883 0.42966
 H279 H 0.10762 0.80342 0.50321
 H280 H 0.06435 0.76358 0.53257
 H281 H 0.14725 0.71911 0.59688
 H282 H 0.19075 0.75741 0.56636
 H283 H 0.15449 0.85254 0.56657
 H284 H 0.18785 0.89367 0.60489
 H285 H 0.25178 0.81349 0.52100
 H286 H 0.23257 0.79862 0.43123
 H287 H 0.27453 0.84267 0.40565
 H288 H 0.23096 0.92964 0.46941
 H289 H 0.18758 0.88614 0.49341
 H290 H 0.17266 0.73594 0.47640
 H291 H 0.13337 0.70236 0.43672
 H292 H 0.10504 0.80522 0.38749
 H293 H 0.14365 0.83859 0.42757
 H294 H 0.28541 0.85483 0.55908
 C295 C 0.81769 0.19294 0.47945
 C296 C 0.82237 0.19284 0.51457
 C297 C 0.84921 0.21661 0.53183
 C298 C 0.80227 0.16713 0.53736
 C299 C 0.79657 0.16377 0.46239
 C300 C 0.83748 0.21843 0.45615
 C301 C 0.88453 0.21707 0.52032
 C302 C 0.90941 0.23964 0.53669
 C303 C 0.89982 0.26065 0.56584
 C304 C 0.86477 0.25955 0.57796
 C305 C 0.83964 0.23779 0.56097
 C306 C 0.82053 0.14344 0.55981
 C307 C 0.80205 0.11951 0.58175
 C308 C 0.76495 0.11868 0.58166
 C309 C 0.74659 0.14296 0.55955
 C310 C 0.76515 0.16700 0.53765
 C311 C 0.76397 0.17215 0.44709
 C312 C 0.74519 0.14484 0.42914
 C313 C 0.75949 0.10926 0.42548
 C314 C 0.79209 0.10101 0.44083
 C315 C 0.81025 0.12793 0.45969
 C316 C 0.83721 0.25679 0.46168
 C317 C 0.85946 0.27982 0.44225
 C318 C 0.88185 0.26506 0.41654
 C319 C 0.88101 0.22676 0.41021
 C320 C 0.85888 0.20383 0.42963
 H321 H 0.89288 0.19991 0.49872
 H322 H 0.93641 0.23992 0.52721
 H323 H 0.85677 0.27585 0.60029
 H324 H 0.81266 0.23753 0.57049
 H325 H 0.84917 0.14333 0.56019
 H326 H 0.81684 0.10138 0.59871
 H327 H 0.75057 0.18586 0.52126
 H328 H 0.75331 0.19984 0.44883
 H329 H 0.72035 0.15186 0.41689
 H330 H 0.80359 0.07380 0.43795
 H331 H 0.83557 0.12125 0.47118
 H332 H 0.82069 0.26869 0.48183
 H333 H 0.85969 0.30917 0.44777
 H334 H 0.89851 0.21397 0.39148
 H335 H 0.85987 0.17434 0.42505
 H336 H 0.71804 0.14412 0.55952
 C337 C 0.52012 0.82045 0.81310
 C338 C 0.48408 0.81926 0.81264
 C339 C 0.46274 0.84046 0.78712
 C340 C 0.46435 0.79964 0.84036
 C341 C 0.54025 0.79459 0.83560
 C342 C 0.54045 0.84840 0.79273
 C343 C 0.43536 0.86346 0.79888
 C344 C 0.41660 0.88538 0.77554
 C345 C 0.42451 0.88437 0.73972
 C346 C 0.45145 0.86080 0.72791
 C347 C 0.47018 0.83876 0.75132
 C348 C 0.46538 0.81307 0.87460
 C349 C 0.44533 0.79615 0.90060
 C350 C 0.42475 0.76496 0.89296
 C351 C 0.42407 0.75117 0.85872
 C352 C 0.44342 0.76877 0.83246
 C353 C 0.53441 0.75634 0.83332
 C354 C 0.55099 0.73224 0.85641
 C355 C 0.57430 0.74575 0.88178
 C356 C 0.58082 0.78407 0.88346
 C357 C 0.56407 0.80819 0.86042
 C358 C 0.57042 0.83792 0.77344
 C359 C 0.58858 0.86387 0.75314
 C360 C 0.57685 0.90065 0.75166
 C361 C 0.54754 0.91130 0.77160
 C362 C 0.53007 0.88568 0.79261
 H363 H 0.42931 0.86550 0.82638
 H364 H 0.39688 0.90397 0.78594
 H365 H 0.45819 0.85964 0.70052
 H366 H 0.49093 0.82089 0.74161
 H367 H 0.48113 0.83717 0.88094
 H368 H 0.44592 0.80736 0.92675
 H369 H 0.44214 0.75837 0.80604
 H370 H 0.51647 0.74523 0.81401
 H371 H 0.54545 0.70293 0.85458
 H372 H 0.59782 0.79575 0.90323
 H373 H 0.56874 0.83762 0.86273
 H374 H 0.57922 0.80947 0.77342
 H375 H 0.61099 0.85492 0.73770
 H376 H 0.53825 0.93958 0.77104
 H377 H 0.50799 0.89490 0.80834
 H378 H 0.40778 0.72757 0.85210
 C379 C 0.51884 0.17949 0.18656
 C380 C 0.48285 0.18061 0.18321
 C381 C 0.45910 0.15859 0.20618
 C382 C 0.46533 0.20298 0.15560
 C383 C 0.54222 0.20351 0.16520
 C384 C 0.53682 0.15318 0.21041
 C385 C 0.43341 0.13561 0.19119
 C386 C 0.41193 0.11345 0.21207
 C387 C 0.41577 0.11355 0.24839
 C388 C 0.44068 0.13756 0.26360
 C389 C 0.46198 0.16008 0.24264
 C390 C 0.47657 0.20118 0.12069
 C391 C 0.46087 0.22347 0.09546
 C392 C 0.43237 0.24631 0.10425
 C393 C 0.41995 0.24694 0.13870
 C394 C 0.43649 0.22567 0.16421
 C395 C 0.53783 0.24198 0.16482
 C396 C 0.55749 0.26373 0.14181
 C397 C 0.58228 0.24755 0.11917
 C398 C 0.58756 0.20908 0.12063
 C399 C 0.56789 0.18739 0.14363
 C400 C 0.56391 0.16582 0.23239
 C401 C 0.58111 0.14146 0.25483
 C402 C 0.57126 0.10407 0.25584
 C403 C 0.54441 0.09134 0.23376
 C404 C 0.52792 0.11546 0.21064
 H405 H 0.43050 0.13421 0.16318
 H406 H 0.39272 0.09551 0.19971
 H407 H 0.44359 0.13930 0.29155
 H408 H 0.48100 0.17837 0.25480
 H409 H 0.49770 0.18276 0.11298
 H410 H 0.47053 0.22240 0.06891
 H411 H 0.42702 0.22721 0.19080
 H412 H 0.51842 0.25498 0.18158
 H413 H 0.55286 0.29324 0.14123
 H414 H 0.60567 0.19522 0.10320
 H415 H 0.57156 0.15772 0.14350
 H416 H 0.57146 0.19469 0.23245
 H417 H 0.60151 0.15199 0.27193
 H418 H 0.53663 0.06253 0.23401
 H419 H 0.50807 0.10469 0.19307
 H420 H 0.39802 0.26456 0.14597
 C421 C 0.48019 0.18145 0.81367
 C422 C 0.51583 0.18751 0.81276
 C423 C 0.53933 0.16826 0.78760
 C424 C 0.53341 0.21143 0.83897
 C425 C 0.45733 0.20105 0.83919
 C426 C 0.46225 0.15431 0.79026
 C427 C 0.56708 0.14633 0.80004
 C428 C 0.58698 0.12464 0.77722
 C429 C 0.57980 0.12480 0.74128
 C430 C 0.55286 0.14786 0.72875
 C431 C 0.53301 0.16968 0.75164
 C432 C 0.53787 0.19909 0.87326
 C433 C 0.55584 0.22099 0.89751
 C434 C 0.56900 0.25590 0.88798
 C435 C 0.56363 0.26861 0.85394
 C436 C 0.54657 0.24621 0.82940
 C437 C 0.45624 0.23979 0.84046
 C438 C 0.43488 0.25780 0.86488
 C439 C 0.41388 0.23729 0.88817
 C440 C 0.41413 0.19861 0.88599
 C441 C 0.43575 0.18064 0.86183
 C442 C 0.43190 0.16492 0.77179
 C443 C 0.41462 0.13989 0.74982
 C444 C 0.42750 0.10374 0.74576
 C445 C 0.45765 0.09304 0.76438
 C446 C 0.47439 0.11778 0.78701
 H447 H 0.57230 0.14461 0.82769
 H448 H 0.60678 0.10662 0.78819
 H449 H 0.54670 0.14844 0.70124
 H450 H 0.51195 0.18673 0.74146
 H451 H 0.52789 0.17228 0.88101
 H452 H 0.55928 0.21082 0.92376
 H453 H 0.54335 0.25607 0.80301
 H454 H 0.47171 0.25606 0.82237
 H455 H 0.43434 0.28767 0.86493
 H456 H 0.39787 0.18222 0.90335
 H457 H 0.43589 0.15073 0.86098
 H458 H 0.42181 0.19280 0.77408
 H459 H 0.39171 0.14908 0.73541
 H460 H 0.46794 0.06526 0.76180
 H461 H 0.49693 0.10840 0.80186
 H462 H 0.57348 0.29545 0.84612
 C463 C 0.48995 0.82309 0.17843
 C464 C 0.52563 0.82214 0.18204
 C465 C 0.54337 0.84447 0.20898
 C466 C 0.54862 0.80081 0.15795
 C467 C 0.47194 0.80258 0.15039
 C468 C 0.46718 0.84685 0.20061
 C469 C 0.54968 0.88212 0.20342
 C470 C 0.56671 0.90311 0.22885
 C471 C 0.57694 0.88681 0.26042
 C472 C 0.56982 0.84934 0.26626
 C473 C 0.55370 0.82808 0.24037
 C474 C 0.57502 0.81898 0.13873
 C475 C 0.59610 0.79945 0.11514
 C476 C 0.59108 0.76142 0.11013
 C477 C 0.56547 0.74296 0.13038
 C478 C 0.54450 0.76251 0.15408
 C479 C 0.45187 0.77122 0.15855
 C480 C 0.43290 0.75290 0.13261
 C481 C 0.43317 0.76630 0.09831
 C482 C 0.45323 0.79779 0.09026
 C483 C 0.47291 0.81557 0.11607
 C484 C 0.46469 0.84124 0.23665
 C485 C 0.44279 0.86373 0.25703
 C486 C 0.42280 0.89208 0.24156
 C487 C 0.42474 0.89690 0.20540
 C488 C 0.44678 0.87462 0.18514
 H489 H 0.54156 0.89509 0.17936
 H490 H 0.57151 0.93217 0.22413
 H491 H 0.57738 0.83646 0.29054
 H492 H 0.54879 0.79901 0.24492
 H493 H 0.57888 0.84848 0.14145
 H494 H 0.61589 0.81423 0.10021
 H495 H 0.52506 0.74775 0.16944
 H496 H 0.45066 0.76122 0.18508
 H497 H 0.41696 0.72918 0.13963
 H498 H 0.45346 0.80871 0.06404
 H499 H 0.48808 0.84001 0.10958
 H500 H 0.47931 0.81917 0.24892
 H501 H 0.44106 0.85831 0.28465
 H502 H 0.40943 0.91828 0.19280
 H503 H 0.44808 0.87922 0.15733
 H504 H 0.56179 0.71341 0.12834
 C505 C 0.81839 0.51483 0.82166
 C506 C 0.82096 0.47732 0.82235
 C507 C 0.80079 0.45493 0.84798
 C508 C 0.84464 0.45633 0.79834
 C509 C 0.83877 0.53765 0.79661
 C510 C 0.79765 0.53531 0.84811
 C511 C 0.81893 0.43042 0.86974
 C512 C 0.80038 0.40693 0.89203
 C513 C 0.76330 0.40748 0.89311
 C514 C 0.74506 0.43202 0.87113
 C515 C 0.76370 0.45549 0.84874
 C516 C 0.88052 0.46574 0.79427
 C517 C 0.90240 0.44500 0.77235
 C518 C 0.88914 0.41358 0.75528
 C519 C 0.85371 0.40348 0.76013
 C520 C 0.83154 0.42492 0.78108
 C521 C 0.83600 0.53217 0.76052
 C522 C 0.85806 0.55161 0.73767
 C523 C 0.88275 0.57727 0.75045
 C524 C 0.88477 0.58323 0.78662
 C525 C 0.86282 0.56386 0.80933
 C526 C 0.76572 0.55215 0.83879
 C527 C 0.74731 0.57384 0.86289
 C528 C 0.76118 0.57984 0.89635
 C529 C 0.79334 0.56327 0.90549
 C530 C 0.81120 0.54066 0.88170
 H531 H 0.84755 0.42924 0.86920
 H532 H 0.81508 0.38819 0.90847
 H533 H 0.71649 0.43250 0.87032
 H534 H 0.74918 0.47332 0.83130
 H535 H 0.89180 0.48873 0.80848
 H536 H 0.92999 0.45259 0.76984
 H537 H 0.80416 0.41671 0.78419
 H538 H 0.81745 0.51216 0.75019
 H539 H 0.85613 0.54631 0.70998
 H540 H 0.90421 0.60164 0.79780
 H541 H 0.86576 0.56823 0.83706
 H542 H 0.75522 0.54865 0.81279
 H543 H 0.72279 0.58679 0.85512
 H544 H 0.80449 0.56768 0.93110
 H545 H 0.83608 0.52820 0.88908
 H546 H 0.84320 0.37899 0.74761
 C547 C 0.18206 0.52329 0.17359
 C548 C 0.18295 0.48579 0.17689
 C549 C 0.20881 0.46265 0.15759
 C550 C 0.15540 0.46572 0.19676
 C551 C 0.15692 0.54599 0.19433
 C552 C 0.20533 0.54323 0.14850
 C553 C 0.19641 0.43543 0.13466
 C554 C 0.21984 0.41619 0.11326
 C555 C 0.25646 0.42327 0.11480
 C556 C 0.26891 0.44972 0.13863
 C557 C 0.24535 0.46908 0.16005
 C558 C 0.12036 0.46523 0.18490
 C559 C 0.09481 0.44430 0.20226
 C560 C 0.10370 0.42432 0.23221
 C561 C 0.13875 0.42514 0.24430
 C562 C 0.16452 0.44536 0.22640
 C563 C 0.15529 0.54278 0.23071
 C564 C 0.13109 0.56369 0.24990
 C565 C 0.10830 0.58853 0.23301
 C566 C 0.11087 0.59263 0.19679
 C567 C 0.13485 0.57145 0.17760
 C568 C 0.22479 0.57424 0.15945
 C569 C 0.24777 0.59220 0.13643
 C570 C 0.25194 0.57902 0.10230
 C571 C 0.23190 0.54872 0.09107
 C572 C 0.20805 0.53164 0.11364
 H573 H 0.16832 0.43029 0.13207
 H574 H 0.20875 0.39705 0.09464
 H575 H 0.29690 0.45586 0.14027
 H576 H 0.25545 0.48985 0.17776
 H577 H 0.11307 0.48041 0.16174
 H578 H 0.06801 0.44375 0.19236
 H579 H 0.19157 0.44515 0.23557
 H580 H 0.17291 0.52421 0.24428
 H581 H 0.13081 0.56085 0.27792
 H582 H 0.09394 0.61192 0.18326
 H583 H 0.13593 0.57464 0.14959
 H584 H 0.22273 0.58404 0.18603
 H585 H 0.26313 0.61555 0.14554
 H586 H 0.23454 0.53849 0.06467
 H587 H 0.19220 0.50889 0.10405
 H588 H 0.14643 0.40931 0.26692
 C589 C 0.80825 0.48310 0.18244
 C590 C 0.80805 0.52075 0.18373
 C591 C 0.78891 0.54173 0.15669
 C592 C 0.83008 0.54223 0.20879
 C593 C 0.83316 0.46032 0.20326
 C594 C 0.78518 0.46289 0.15751
 C595 C 0.80374 0.54516 0.12339
 C596 C 0.78565 0.56402 0.09734
 C597 C 0.75196 0.57860 0.10382
 C598 C 0.73688 0.57484 0.13711
 C599 C 0.75552 0.55689 0.16356
 C600 C 0.85366 0.56921 0.19645
 C601 C 0.87717 0.58687 0.21906
 C602 C 0.87731 0.57836 0.25483
 C603 C 0.85289 0.55221 0.26731
 C604 C 0.82933 0.53454 0.24462
 C605 C 0.82094 0.42819 0.21987
 C606 C 0.84432 0.40557 0.23812
 C607 C 0.88011 0.41517 0.24075
 C608 C 0.89253 0.44702 0.22393
 C609 C 0.86941 0.46895 0.20472
 C610 C 0.74821 0.46499 0.16000
 C611 C 0.72681 0.44617 0.13615
 C612 C 0.74195 0.42440 0.10977
 C613 C 0.77910 0.42253 0.10729
 C614 C 0.80042 0.44139 0.13110
 H615 H 0.82943 0.53338 0.11773
 H616 H 0.79782 0.56696 0.07194
 H617 H 0.71121 0.58658 0.14286
 H618 H 0.74377 0.55431 0.18917
 H619 H 0.85508 0.57552 0.16897
 H620 H 0.89601 0.60598 0.20795
 H621 H 0.81116 0.51410 0.25485
 H622 H 0.79328 0.42052 0.21855
 H623 H 0.83443 0.38075 0.25049
 H624 H 0.92032 0.45425 0.22473
 H625 H 0.87996 0.49240 0.19069
 H626 H 0.73596 0.48110 0.18049
 H627 H 0.69835 0.44827 0.13855
 H628 H 0.79190 0.40718 0.08666
 H629 H 0.82891 0.43969 0.12862
 H630 H 0.85240 0.54500 0.29465
 C631 C 0.17398 0.48165 0.83296
 C632 C 0.17355 0.51916 0.83596
 C633 C 0.19633 0.53906 0.86124
 C634 C 0.14945 0.54232 0.81454
 C635 C 0.14873 0.46223 0.81007
 C636 C 0.19735 0.45745 0.85411
 C637 C 0.19729 0.52890 0.89649
 C638 C 0.22020 0.54683 0.91943
 C639 C 0.24121 0.57629 0.90788
 C640 C 0.23915 0.58756 0.87301
 C641 C 0.21696 0.56898 0.84986
 C642 C 0.12698 0.56777 0.83099
 C643 C 0.10470 0.59030 0.81141
 C644 C 0.10419 0.58777 0.77496
 C645 C 0.12715 0.56266 0.75837
 C646 C 0.14967 0.54029 0.77802
 C647 C 0.16128 0.44218 0.78138
 C648 C 0.13793 0.42156 0.76106
 C649 C 0.10184 0.42013 0.76974
 C650 C 0.08943 0.43996 0.79866
 C651 C 0.11267 0.46126 0.81851
 C652 C 0.23418 0.46265 0.85537
 C653 C 0.25526 0.43964 0.87599
 C654 C 0.23982 0.41070 0.89525
 C655 C 0.20325 0.40494 0.89296
 C656 C 0.18226 0.42811 0.87283
 H657 H 0.18072 0.50674 0.90614
 H658 H 0.22137 0.53788 0.94628
 H659 H 0.25550 0.60992 0.86340
 H660 H 0.21636 0.57749 0.82286
 H661 H 0.12663 0.57009 0.85910
 H662 H 0.08757 0.60964 0.82482
 H663 H 0.16761 0.52173 0.76471
 H664 H 0.18918 0.44233 0.77496
 H665 H 0.14822 0.40585 0.73928
 H666 H 0.06173 0.43894 0.80586
 H667 H 0.10281 0.47616 0.84098
 H668 H 0.24654 0.48450 0.84045
 H669 H 0.28353 0.44419 0.87633
 H670 H 0.19075 0.38272 0.90731
 H671 H 0.15399 0.42333 0.87222
 H672 H 0.12844 0.56080 0.73031
 C673 C 0.27467 0.37435 0.07300
 C674 C 0.28189 0.40551 0.09048
 H675 H 0.25025 0.35958 0.07761
 H676 H 0.30723 0.41891 0.08657
 C677 C 0.69985 0.59792 0.06944
 C678 C 0.73452 0.60000 0.07623
 H679 H 0.68318 0.57868 0.08351
 H680 H 0.75134 0.61702 0.05992
 C681 C 0.71201 0.38654 0.92872
 C682 C 0.74495 0.38143 0.91682
 H683 H 0.69709 0.41070 0.92123
 H684 H 0.76006 0.35819 0.92644
 C685 C 0.27258 0.62991 0.93259
 C686 C 0.26638 0.59355 0.93212
 H687 H 0.25765 0.64826 0.91597
 H688 H 0.27898 0.57594 0.95121
 C689 C 0.06773 0.27348 0.37097
 C690 C 0.06969 0.26986 0.40555
 H691 H 0.08442 0.25681 0.35424
 H692 H 0.05071 0.28401 0.42201
 C693 C 0.07598 0.71633 0.62124
 C694 C 0.07574 0.71732 0.58646
 H695 H 0.09594 0.73165 0.63546
 H696 H 0.05376 0.70537 0.57228
 C697 C 0.93329 0.72563 0.38580
 C698 C 0.90967 0.71258 0.40863
 H699 H 0.93513 0.75511 0.38128
 H700 H 0.90566 0.68306 0.41117
 C701 C 0.92974 0.28350 0.61807
 C702 C 0.92678 0.28324 0.58345
 H703 H 0.91237 0.26643 0.63376
 H704 H 0.94628 0.29741 0.56760
 C705 C 0.40152 0.07543 0.30065
 C706 C 0.39312 0.08831 0.26902
 H707 H 0.42570 0.08401 0.31332
 H708 H 0.36959 0.07780 0.25632
 C709 C 0.62911 0.08346 0.72314
 C710 C 0.59776 0.09927 0.71672
 H711 H 0.64398 0.09081 0.74614
 H712 H 0.58427 0.09292 0.69257
 C713 C 0.37489 0.92400 0.72008
 C714 C 0.40683 0.90911 0.71450
 H715 H 0.35975 0.91672 0.74299
 H716 H 0.42075 0.91528 0.69051
 C717 C 0.62223 0.93040 0.27939
 C718 C 0.59470 0.90889 0.28739
 H719 H 0.63276 0.93015 0.25312
 H720 H 0.58564 0.90666 0.31408
 C721 C 0.39747 0.28828 0.92835
 C722 C 0.39065 0.25515 0.91426
 H723 H 0.42110 0.30334 0.92112
 H724 H 0.36805 0.23948 0.92347
 C725 C 0.61994 0.72595 0.92412
 C726 C 0.58976 0.71941 0.90703
 H727 H 0.63500 0.75075 0.91888
 H728 H 0.57600 0.69351 0.91125
 C729 C 0.40516 0.71325 0.06889
 C730 C 0.41052 0.74968 0.07134
 H731 H 0.41954 0.69440 0.08550
 H732 H 0.39846 0.76801 0.05253
 C733 C 0.62924 0.26145 0.07539
 C734 C 0.60006 0.27128 0.09298
 H735 H 0.64258 0.23578 0.08104
 H736 H 0.58831 0.29800 0.08785
 C737 C 0.28857 0.07160 0.59638
 C738 C 0.25346 0.07247 0.59212
 H739 H 0.30546 0.08987 0.58145
 H740 H 0.23720 0.05175 0.60477
 C741 C 0.70801 0.07360 0.40482
 C742 C 0.74260 0.08147 0.40308
 H743 H 0.69171 0.08699 0.42436
 H744 H 0.75979 0.06592 0.38584
 C745 C 0.71213 0.92948 0.60325
 C746 C 0.74717 0.92695 0.59902
 H747 H 0.69460 0.91126 0.58899
 H748 H 0.76425 0.94747 0.61090
 C749 C 0.28719 0.91813 0.38684
 C750 C 0.28114 0.91629 0.42106
 H751 H 0.27300 0.89991 0.36932
 H752 H 0.29231 0.93709 0.43817
 C753 C 0.07856 0.39369 0.71540
 C754 C 0.07700 0.39689 0.75001
 H755 H 0.09778 0.40942 0.70061
 H756 H 0.05543 0.38400 0.76416
 C757 C 0.06779 0.60086 0.28255
 C758 C 0.08246 0.61139 0.25238
 H759 H 0.07411 0.57424 0.29367
 H760 H 0.07421 0.63712 0.24056
 C761 C 0.92877 0.40367 0.28151
 C762 C 0.90461 0.39061 0.25931
 H763 H 0.92944 0.43286 0.28781
 H764 H 0.90188 0.36107 0.25546
 C765 C 0.92420 0.62717 0.73348
 C766 C 0.90759 0.59546 0.72593
 H767 H 0.91809 0.64193 0.75724
 H768 H 0.91267 0.58200 0.70120
 C769 C 0.70807 0.60092 0.92743
 C770 C 0.74288 0.60404 0.92159
 H771 H 0.69340 0.57957 0.91383
 H772 H 0.75875 0.62273 0.93717
 C773 C 0.29072 0.39524 0.93356
 C774 C 0.26055 0.38552 0.91762
 H775 H 0.30172 0.42252 0.92944
 H776 H 0.24884 0.35880 0.92318
 C777 C 0.27867 0.63160 0.07143
 C778 C 0.27806 0.59537 0.07844
 H779 H 0.25942 0.64957 0.08375
 H780 H 0.29480 0.57649 0.06396
 C781 C 0.72832 0.37407 0.06789
 C782 C 0.71842 0.40480 0.08489
 H783 H 0.75411 0.36230 0.07285
 H784 H 0.69191 0.41549 0.08138
 C785 C 0.93206 0.73262 0.62924
 C786 C 0.91399 0.72204 0.60083
 H787 H 0.92781 0.75978 0.64027
 H788 H 0.91697 0.69409 0.59106
 C789 C 0.92292 0.28142 0.36828
 C790 C 0.90762 0.28970 0.39889
 H791 H 0.91476 0.25700 0.35412
 H792 H 0.91443 0.31530 0.41198
 C793 C 0.07433 0.27315 0.62257
 C794 C 0.08924 0.27997 0.59144
 H795 H 0.08093 0.24819 0.63653
 H796 H 0.08386 0.30593 0.57848
 C797 C 0.07326 0.70124 0.39246
 C798 C 0.09041 0.73289 0.38529
 H799 H 0.07830 0.68701 0.41670
 H800 H 0.08399 0.74773 0.36165
 C801 C 0.62845 0.93065 0.72395
 C802 C 0.59343 0.92797 0.72825
 H803 H 0.64598 0.91307 0.73876
 H804 H 0.57629 0.94791 0.71578
 C805 C 0.40409 0.92453 0.29562
 C806 C 0.39916 0.91666 0.26190
 H807 H 0.42617 0.91274 0.30956
 H808 H 0.37815 0.93052 0.24794
 C809 C 0.62276 0.07795 0.28623
 C810 C 0.58794 0.07803 0.28021
 H811 H 0.63995 0.09692 0.27243
 H812 H 0.57148 0.05656 0.29142
 C813 C 0.37564 0.07486 0.71723
 C814 C 0.41072 0.07708 0.72160
 H815 H 0.35824 0.09240 0.73239
 H816 H 0.42766 0.05708 0.70879
 C817 C 0.60181 0.71162 0.06721
 C818 C 0.61304 0.74193 0.08387
 H819 H 0.57576 0.70058 0.07261
 H820 H 0.63833 0.75394 0.07685
 C821 C 0.38148 0.26966 0.07176
 C822 C 0.41630 0.26993 0.07749
 H823 H 0.36467 0.25074 0.08609
 H824 H 0.43360 0.28611 0.06092
 C825 C 0.61442 0.26505 0.93275
 C826 C 0.58855 0.27914 0.91318
 H827 H 0.62166 0.23628 0.92952
 H828 H 0.58333 0.30855 0.91382
 C829 C 0.39844 0.71237 0.92460
 C830 C 0.40260 0.74880 0.92063
 H831 H 0.41263 0.69330 0.90790
 H832 H 0.39085 0.76754 0.93942
 C833 C 0.70766 0.92328 0.40277
 C834 C 0.74042 0.91059 0.39695
 H835 H 0.69275 0.91448 0.42532
 H836 H 0.75507 0.92120 0.37483
 C837 C 0.28987 0.91933 0.60023
 C838 C 0.25775 0.90533 0.60709
 H839 H 0.30441 0.91060 0.57739
 H840 H 0.24325 0.91576 0.62940
 C841 C 0.28980 0.06957 0.39952
 C842 C 0.25738 0.08072 0.39042
 H843 H 0.30128 0.07880 0.42381
 H844 H 0.24532 0.06937 0.36716
 C845 C 0.71340 0.08101 0.60136
 C846 C 0.74674 0.09280 0.60562
 H847 H 0.69786 0.09018 0.57944
 H848 H 0.76219 0.08167 0.62687
 C849 C 0.92252 0.62502 0.27276
 C850 C 0.90380 0.59426 0.27930
 H851 H 0.91760 0.64088 0.24948
 H852 H 0.90813 0.57983 0.30360
 C853 C 0.93620 0.40232 0.71204
 C854 C 0.91260 0.38927 0.73492
 H855 H 0.93710 0.43158 0.70622
 H856 H 0.90981 0.35971 0.73846
 C857 C 0.06798 0.60514 0.72343
 C858 C 0.08024 0.61259 0.75540
 H859 H 0.07517 0.57971 0.71040
 H860 H 0.07100 0.63719 0.76871
 C861 C 0.07397 0.39790 0.28378
 C862 C 0.07643 0.40133 0.24919
 H863 H 0.09163 0.41330 0.30058
 H864 H 0.05659 0.38855 0.23275
   
