data_POSCAR
  _audit_creation_date              2014-09-24
  _audit_creation_method            'ToBaCCo'
  _symmetry_space_group_name_H-M    'P1'
  _symmetry_Int_Tables_number       1
  _symmetry_cell_setting            triclinic
  loop_
  _symmetry_equiv_pos_as_xyz
 x,y,z
_cell_length_a 29.7722
_cell_length_b 28.2463
_cell_length_c 27.5150
_cell_angle_alpha 89.534400
_cell_angle_beta 89.431200
_cell_angle_gamma 88.887900
loop_
  _atom_site_label
  _atom_site_type_symbol
  _atom_site_fract_x
  _atom_site_fract_y
  _atom_site_fract_z
C1 C 0.20282 0.13210 0.17074
 C2 C 0.18790 0.09873 0.20519
 C3 C 0.15589 0.11168 0.24106
 C4 C 0.13867 0.15843 0.24163
 C5 C 0.15152 0.19119 0.20618
 C6 C 0.18372 0.17815 0.17058
 C7 C 0.23702 0.12053 0.13705
 C8 C 0.25287 0.15483 0.10373
 C9 C 0.23119 0.19957 0.10192
 C10 C 0.19671 0.21130 0.13482
 C11 C 0.17542 0.25598 0.13309
 C12 C 0.14300 0.26848 0.16822
 C13 C 0.13195 0.23665 0.20532
 H14 H 0.20203 0.06306 0.20475
 H15 H 0.11357 0.16925 0.26823
 H16 H 0.25237 0.08550 0.13854
 H17 H 0.24185 0.22599 0.07565
 H18 H 0.18435 0.28129 0.10493
 H19 H 0.10687 0.24674 0.23237
 C20 C -0.20837 0.86622 0.20211
 C21 C -0.19225 0.88481 0.24528
 C22 C -0.14886 0.87281 0.26170
 C23 C -0.12000 0.84537 0.23195
 C24 C -0.13658 0.82454 0.18973
 C25 C -0.18152 0.83357 0.17589
 C26 C -0.25167 0.87811 0.18595
 C27 C -0.27023 0.85387 0.14684
 C28 C -0.24464 0.81816 0.12347
 C29 C -0.19992 0.80922 0.13649
 C30 C -0.17325 0.77644 0.11074
 C31 C -0.12808 0.76918 0.12295
 C32 C -0.10971 0.79332 0.16217
 H33 H -0.21408 0.90779 0.26683
 H34 H -0.08620 0.83657 0.24368
 H35 H -0.27178 0.90417 0.20562
 H36 H -0.25872 0.79895 0.09341
 H37 H -0.18704 0.75778 0.08017
 H38 H -0.07487 0.78687 0.17179
 C39 C -0.20034 0.14616 -0.21364
 C40 C -0.18036 0.14334 -0.25985
 C41 C -0.14880 0.17668 -0.27496
 C42 C -0.13702 0.21318 -0.24360
 C43 C -0.15541 0.21529 -0.19637
 C44 C -0.18731 0.18162 -0.18130
 C45 C -0.23314 0.11394 -0.19951
 C46 C -0.25389 0.11637 -0.15329
 C47 C -0.23908 0.15054 -0.12011
 C48 C -0.20573 0.18301 -0.13383
 C49 C -0.19018 0.21669 -0.10094
 C50 C -0.15772 0.24972 -0.11542
 C51 C -0.14139 0.24953 -0.16351
 H52 H -0.18954 0.11534 -0.28436
 H53 H -0.11214 0.23853 -0.25526
 H54 H -0.24305 0.08736 -0.22531
 H55 H -0.25360 0.15245 -0.08392
 H56 H -0.20312 0.21714 -0.06398
 H57 H -0.11612 0.27456 -0.17479
 C58 C 0.19674 0.85785 -0.18887
 C59 C 0.16883 0.88770 -0.21737
 C60 C 0.12465 0.87417 -0.22821
 C61 C 0.10898 0.83041 -0.21096
 C62 C 0.13792 0.79832 -0.18758
 C63 C 0.18183 0.81206 -0.17622
 C64 C 0.23945 0.87221 -0.17336
 C65 C 0.26749 0.84033 -0.14749
 C66 C 0.25345 0.79394 -0.13868
 C67 C 0.21103 0.77960 -0.15277
 C68 C 0.19765 0.73298 -0.14428
 C69 C 0.15448 0.71894 -0.15680
 C70 C 0.12413 0.75209 -0.17684
 H71 H 0.18071 0.92197 -0.22932
 H72 H 0.07516 0.81958 -0.21930
 H73 H 0.25117 0.90739 -0.18210
 H74 H 0.27561 0.76893 -0.12015
 H75 H 0.22066 0.70762 -0.12752
 H76 H 0.09058 0.74122 -0.18619
 C77 C 0.14570 1.20697 0.81006
 C78 C 0.12425 1.20331 0.76524
 C79 C 0.14071 1.17188 0.72958
 C80 C 0.18107 1.14657 0.73815
 C81 C 0.20366 1.15128 0.78228
 C82 C 0.18517 1.18034 0.81910
 C83 C 0.12772 1.23656 0.84605
 C84 C 0.14774 1.23920 0.89207
 C85 C 0.18677 1.21151 0.90139
 C86 C 0.20623 1.18296 0.86476
 C87 C 0.24684 1.15777 0.87239
 C88 C 0.26673 1.13119 0.83451
 C89 C 0.24460 1.12751 0.79002
 H90 H 0.09350 1.22364 0.75912
 H91 H 0.19525 1.12338 0.71060
 H92 H 0.09717 1.25643 0.83822
 H93 H 0.20291 1.21337 0.93645
 H94 H 0.26389 1.16052 0.90685
 H95 H 0.25951 1.10624 0.76121
 C96 C 0.86173 0.81046 0.79726
 C97 C 0.87478 0.84517 0.76343
 C98 C 0.85428 0.89066 0.76341
 C99 C 0.82004 0.90066 0.79762
 C100 C 0.80529 0.86565 0.83011
 C101 C 0.82657 0.82057 0.83043
 C102 C 0.88331 0.76579 0.79835
 C103 C 0.87096 0.73115 0.83295
 C104 C 0.83481 0.74130 0.86502
 C105 C 0.81220 0.78541 0.86342
 C106 C 0.77477 0.79462 0.89356
 C107 C 0.75201 0.83870 0.89162
 C108 C 0.76847 0.87458 0.86106
 H109 H 0.90173 0.83680 0.73804
 H110 H 0.80355 0.93525 0.79786
 H111 H 0.91060 0.75858 0.77293
 H112 H 0.82368 0.71493 0.89100
 H113 H 0.76257 0.76705 0.91764
 H114 H 0.75119 0.90863 0.85922
 C115 C 0.15054 0.78466 1.20285
 C116 C 0.13333 0.78814 1.25047
 C117 C 0.14588 0.82550 1.28043
 C118 C 0.17744 0.85823 1.26356
 C119 C 0.19638 0.85400 1.21687
 C120 C 0.18206 0.81786 1.18594
 C121 C 0.13585 0.74934 1.17147
 C122 C 0.15071 0.74806 1.12266
 C123 C 0.18260 0.78104 1.10652
 C124 C 0.19907 0.81516 1.13801
 C125 C 0.23240 0.84650 1.12230
 C126 C 0.24876 0.88083 1.15391
 C127 C 0.22952 0.88519 1.20068
 H128 H 0.10870 0.76315 1.26352
 H129 H 0.18740 0.88679 1.28700
 H130 H 0.11121 0.72450 1.18465
 H131 H 0.19509 0.77999 1.06937
 H132 H 0.24615 0.84333 1.08587
 H133 H 0.24114 0.91216 1.22510
 C134 C 0.85237 1.19920 1.19692
 C135 C 0.87571 1.16736 1.22737
 C136 C 0.86266 1.11978 1.23151
 C137 C 0.82602 1.10428 1.20403
 C138 C 0.80063 1.13633 1.17571
 C139 C 0.81387 1.18402 1.17230
 C140 C 0.86639 1.24624 1.19122
 C141 C 0.84108 1.27858 1.16320
 C142 C 0.80159 1.26399 1.14104
 C143 C 0.78809 1.21685 1.14498
 C144 C 0.74853 1.20241 1.12304
 C145 C 0.73424 1.15545 1.12741
 C146 C 0.76112 1.12208 1.15251
 H147 H 0.90457 1.17957 1.24704
 H148 H 0.81551 1.06781 1.20688
 H149 H 0.89648 1.25794 1.20906
 H150 H 0.78186 1.28924 1.11989
 H151 H 0.72817 1.22818 1.10324
 H152 H 0.75002 1.08591 1.15631
 O153 O 0.44405 0.89315 0.92820
 O154 O 0.39039 0.94786 0.95161
 C155 C 0.40293 0.90884 0.93006
 O156 O 0.54956 0.92765 1.10649
 O157 O 0.60502 0.96037 1.05916
 C158 C 0.59137 0.93322 1.09440
 O159 O 0.42500 0.93623 1.09474
 O160 O 0.38120 0.96772 1.03382
 C161 C 0.38635 0.94651 1.07554
 O162 O 0.56801 0.89125 0.94155
 O163 O 0.61432 0.94399 0.97819
 C164 C 0.60731 0.90522 0.95463
 Zr165 Zr 0.50379 0.92320 0.95203
 O166 O 0.50525 0.84984 0.96825
 O167 O 0.50828 0.90880 0.87665
 Zr168 Zr 0.49079 0.95173 1.07056
 O169 O 0.48958 0.87949 1.09159
 O170 O 0.48163 0.97363 1.14351
 O171 O 0.45697 0.92876 1.00904
 O172 O 0.53529 0.92806 1.01769
 O173 O 0.57373 1.04946 0.89662
 O174 O 0.61718 1.02179 0.95966
 C175 C 0.61227 1.04110 0.91703
 O176 O 0.43031 1.10136 1.04502
 O177 O 0.38381 1.04630 1.01248
 C178 C 0.39093 1.08648 1.03313
 O179 O 0.55405 1.09530 1.06710
 O180 O 0.60768 1.04136 1.04175
 C181 C 0.59535 1.08021 1.06362
 O182 O 0.44797 1.06077 0.88602
 O183 O 0.39274 1.02999 0.93494
 C184 C 0.40612 1.05434 0.89759
 Zr185 Zr 0.50736 1.03869 0.92241
 O186 O 0.51530 1.11146 0.90598
 O187 O 0.51021 1.02282 0.84739
 Zr188 Zr 0.49426 1.06711 1.04036
 O189 O 0.50089 1.14020 1.02523
 O190 O 0.48088 1.08285 1.11431
 Zr191 Zr 0.43206 0.99614 0.98846
 Zr192 Zr 0.56606 0.99364 1.00445
 O193 O 0.54006 1.06059 0.98376
 O194 O 0.46121 1.06257 0.97438
 O195 O 0.54666 0.97770 0.93292
 O196 O 0.45271 1.01255 1.05927
 O197 O 0.46748 0.97981 0.92401
 O198 O 0.53193 1.01069 1.06965
 H199 H 0.55280 0.89900 1.02594
 H200 H 0.42993 1.02079 1.08443
 H201 H 0.56106 1.08704 0.97886
 H202 H 0.45054 0.97404 0.89387
 H203 H 0.51024 0.98705 1.15447
 H204 H 0.50548 1.06848 1.13373
 H205 H 0.48446 1.14702 0.99487
 H206 H 0.48699 1.12824 0.91494
 H207 H 0.53217 0.99645 0.84322
 H208 H 0.53852 0.91786 0.86510
 H209 H 0.48147 0.84406 0.99280
 H210 H 0.46661 0.86407 1.07175
 O211 O -0.09119 0.46417 0.09703
 O212 O -0.04810 0.39937 0.07537
 C213 C -0.08136 0.41912 0.09886
 O214 O -0.07084 0.54397 -0.10589
 O215 O -0.02791 0.60252 -0.07418
 C216 C -0.05675 0.58721 -0.10491
 O217 O -0.08295 0.41746 -0.06274
 O218 O -0.04658 0.37710 -0.00143
 C219 C -0.07560 0.37976 -0.03623
 O220 O -0.07496 0.59380 0.06482
 O221 O -0.02870 0.62649 0.00701
 C222 C -0.05825 0.62989 0.04159
 Zr223 Zr -0.05965 0.52000 0.05817
 O224 O -0.12973 0.53193 0.05132
 O225 O -0.06477 0.53512 0.13326
 Zr226 Zr -0.05410 0.48577 -0.05943
 O227 O -0.12442 0.49567 -0.06613
 O228 O -0.04948 0.45958 -0.13122
 O229 O -0.06852 0.46332 0.01131
 O230 O -0.06215 0.54296 -0.01312
 O231 O 0.07810 0.58034 0.07320
 O232 O 0.04512 0.61932 0.00901
 C233 C 0.07159 0.61763 0.04603
 O234 O 0.08186 0.40584 -0.05277
 O235 O 0.03400 0.37120 0.00213
 C236 C 0.06756 0.36966 -0.02831
 O237 O 0.08804 0.53165 -0.09461
 O238 O 0.04703 0.59665 -0.06974
 C239 C 0.07863 0.57673 -0.09546
 O240 O 0.07293 0.45235 0.10921
 O241 O 0.03046 0.39322 0.07792
 C242 C 0.06049 0.40874 0.10730
 Zr243 Zr 0.05324 0.51081 0.06559
 O244 O 0.12427 0.51013 0.06919
 O245 O 0.04820 0.52722 0.14043
 Zr246 Zr 0.05873 0.47687 -0.05248
 O247 O 0.12978 0.47410 -0.05290
 O248 O 0.05764 0.45154 -0.12471
 Zr249 Zr -0.00516 0.43088 0.02386
 Zr250 Zr 0.00473 0.56548 -0.01771
 O251 O 0.06727 0.53197 -0.00483
 O252 O 0.06196 0.45308 0.01946
 O253 O -0.00051 0.55829 0.05849
 O254 O -0.00012 0.43916 -0.05202
 O255 O -0.00650 0.47833 0.08247
 O256 O 0.00574 0.51934 -0.07754
 H257 H -0.08667 0.56604 -0.02049
 H258 H -0.00032 0.41035 -0.07231
 H259 H 0.09542 0.54971 -0.00914
 H260 H -0.00927 0.46553 0.11599
 H261 H -0.03022 0.48129 -0.15013
 H262 H 0.04812 0.47817 -0.14604
 H263 H 0.13914 0.46088 -0.02115
 H264 H 0.13515 0.47838 0.05907
 H265 H 0.03313 0.55862 0.14323
 H266 H -0.04334 0.56049 0.14003
 H267 H -0.14274 0.50216 0.03978
 H268 H -0.13878 0.47805 -0.03915
 O269 O 0.93424 0.07535 0.40491
 O270 O 0.97223 0.01207 0.37133
 C271 C 0.94530 0.04850 0.36836
 O272 O 1.08552 0.09591 0.54847
 O273 O 1.03604 0.07351 0.60848
 C274 C 1.06915 0.09835 0.59231
 O275 O 1.08946 0.06036 0.41686
 O276 O 1.04879 0.00484 0.37684
 C277 C 1.07980 0.03626 0.37845
 O278 O 0.92388 0.11058 0.53692
 O279 O 0.95874 0.07842 0.60384
 C280 C 0.93123 0.10836 0.58343
 Zr281 Zr 0.95080 0.06788 0.47977
 O282 O 0.96002 0.14032 0.46257
 O283 O 0.88080 0.07639 0.46926
 Zr284 Zr 1.06348 0.05555 0.48871
 O285 O 1.07298 0.12767 0.47088
 O286 O 1.13395 0.04398 0.49060
 O287 O 1.01014 0.05822 0.43987
 O288 O 1.00558 0.08169 0.52193
 O289 O 0.91037 -0.04867 0.58589
 O290 O 0.95302 0.00432 0.62698
 C291 C 0.92095 -0.02592 0.62478
 O292 O 1.07433 -0.10545 0.46812
 O293 O 1.04102 -0.07199 0.40094
 C294 C 1.06685 -0.10340 0.42162
 O295 O 1.07138 -0.06384 0.59848
 O296 O 1.02939 -0.00363 0.63270
 C297 C 1.05691 -0.03956 0.63565
 O298 O 0.91618 -0.08486 0.45563
 O299 O 0.96476 -0.06336 0.39444
 C300 C 0.92934 -0.08477 0.41059
 Zr301 Zr 0.93967 -0.04680 0.51552
 O302 O 0.93521 -0.11769 0.54057
 O303 O 0.86902 -0.04224 0.50817
 Zr304 Zr 1.05249 -0.05839 0.52410
 O305 O 1.04644 -0.12845 0.55084
 O306 O 1.12342 -0.06541 0.52424
 Zr307 Zr 1.00484 -0.01582 0.43302
 Zr308 Zr 0.99744 0.02472 0.57088
 O309 O 0.99313 -0.04904 0.56242
 O310 O 0.99720 -0.07376 0.48091
 O311 O 0.93393 0.02341 0.53805
 O312 O 1.06808 -0.01404 0.46663
 O313 O 0.93893 -0.00007 0.45741
 O314 O 1.06430 0.00999 0.54884
 H315 H 1.00640 0.11449 0.53432
 H316 H 1.09542 -0.02282 0.44769
 H317 H 0.98955 -0.06991 0.59125
 H318 H 0.91287 -0.00232 0.43550
 H319 H 1.14224 0.03755 0.52479
 H320 H 1.13489 -0.04155 0.54688
 H321 H 1.02525 -0.14470 0.52945
 H322 H 0.94856 -0.13847 0.51526
 H323 H 0.85838 -0.01389 0.52608
 H324 H 0.86571 0.06175 0.49763
 H325 H 0.97658 0.14198 0.43126
 H326 H 1.05243 0.13564 0.44389
 N327 N 1.12409 0.01138 0.30791
 N328 N 1.14607 0.03089 0.27093
 C329 C 1.14037 0.07830 0.27500
 C330 C 1.11473 0.08709 0.31627
 N331 N 1.10527 0.04468 0.33529
 H332 H 1.10368 0.12064 0.33140
 N333 N 0.85450 -0.09862 0.38444
 N334 N 0.83216 -0.10631 0.34420
 C335 C 0.86292 -0.11539 0.30906
 C336 C 0.90530 -0.11308 0.32934
 N337 N 0.89830 -0.10255 0.37648
 H338 H 0.93773 -0.11593 0.31131
 N339 N 0.89579 0.18460 0.60427
 N340 N 0.87521 0.20461 0.64215
 C341 C 0.87342 0.17119 0.67742
 C342 C 0.89355 0.13036 0.66028
 N343 N 0.90703 0.14012 0.61470
 H344 H 0.89779 0.09672 0.67901
 N345 N 1.03392 -0.07238 0.71225
 N346 N 1.05071 -0.09721 0.74893
 C347 C 1.09580 -0.09746 0.74355
 C348 C 1.10618 -0.07210 0.70162
 N349 N 1.06642 -0.05731 0.68327
 H350 H 1.13861 -0.06879 0.68389
 N351 N 0.34968 1.16139 1.03064
 N352 N 0.31220 1.18052 1.04864
 C353 C 0.29126 1.14642 1.07461
 C354 C 0.31715 1.10524 1.07110
 N355 N 0.35304 1.11636 1.04365
 H356 H 0.31189 1.07116 1.08827
 N357 N 0.38225 0.83951 0.88599
 N358 N 0.34785 0.82095 0.86364
 C359 C 0.31324 0.85212 0.86768
 C360 C 0.32750 0.89067 0.89413
 N361 N 0.37089 0.88098 0.90498
 H362 H 0.30817 0.92157 0.90548
 N363 N 0.62252 0.85498 1.09751
 N364 N 0.66056 0.83266 1.10827
 C365 C 0.68602 0.86397 1.13161
 C366 C 0.66226 0.90666 1.13456
 N367 N 0.62273 0.89919 1.11299
 H368 H 0.67379 0.94045 1.14734
 N369 N 0.65835 1.03543 0.84476
 N370 N 0.69409 1.05506 0.82487
 C371 C 0.71045 1.08569 0.85747
 C372 C 0.68338 1.08341 0.89892
 N373 N 0.65149 1.05173 0.88911
 H374 H 0.68490 1.10431 0.93163
 N375 N 0.09762 0.38493 0.18235
 N376 N 0.12018 0.34781 0.20002
 C377 C 0.11963 0.31435 0.16537
 C378 C 0.09568 0.33144 0.12643
 N379 N 0.08243 0.37542 0.13852
 H380 H 0.08968 0.31422 0.09217
 N381 N -0.11096 0.30608 -0.01226
 N382 N -0.13380 0.27136 -0.03185
 C383 C -0.13853 0.28210 -0.07943
 C384 C -0.11800 0.32491 -0.08831
 N385 N -0.10125 0.33851 -0.04553
 H386 H -0.11436 0.34364 -0.12256
 N387 N 0.14723 0.59411 -0.14010
 N388 N 0.16921 0.63169 -0.15580
 C389 C 0.14155 0.66950 -0.14898
 C390 C 0.10196 0.65406 -0.12879
 N391 N 0.10686 0.60686 -0.12372
 H392 H 0.07382 0.67540 -0.11568
 N393 N -0.04553 0.71393 0.04749
 N394 N -0.06230 0.75180 0.06966
 C395 C -0.09950 0.73774 0.09348
 C396 C -0.10519 0.69011 0.08543
 N397 N -0.07069 0.67666 0.05653
 H398 H -0.13099 0.66740 0.10005
 N399 N 1.06064 0.17024 0.63770
 N400 N 1.07843 0.19042 0.67598
 C401 C 1.11578 0.16497 0.68733
 C402 C 1.12054 0.12862 0.65399
 N403 N 1.08558 0.13348 0.62382
 H404 H 1.14408 0.09894 0.65431
 N405 N 0.87436 -0.00599 0.69535
 N406 N 0.85545 -0.02789 0.73289
 C407 C 0.86732 -0.07427 0.72986
 C408 C 0.89380 -0.08003 0.68869
 N409 N 0.89718 -0.03687 0.66848
 H410 H 0.90883 -0.11217 0.67417
 N411 N 1.09968 -0.18101 0.40082
 N412 N 1.12042 -0.20146 0.36328
 C413 C 1.12431 -0.16787 0.32837
 C414 C 1.10504 -0.12652 0.34532
 N415 N 1.09004 -0.13613 0.39044
 H416 H 1.10214 -0.09270 0.32667
 N417 N 0.90622 0.02258 0.29695
 N418 N 0.88245 0.04048 0.26051
 C419 C 0.88508 0.08807 0.26306
 C420 C 0.91123 0.09870 0.30289
 N421 N 0.92360 0.05686 0.32284
 H422 H 0.91861 0.13312 0.31749
 N423 N 0.11683 0.30403 -0.00391
 N424 N 0.14065 0.26951 -0.02497
 C425 C 0.12909 0.26943 -0.07236
 C426 C 0.09739 0.30528 -0.07940
 N427 N 0.09045 0.32547 -0.03602
 H428 H 0.08264 0.31777 -0.11304
 N429 N -0.14943 0.40295 0.14528
 N430 N -0.17137 0.36610 0.16291
 C431 C -0.14446 0.32770 0.15623
 C432 C -0.10550 0.34202 0.13347
 N433 N -0.10993 0.38922 0.12728
 H434 H -0.07828 0.31991 0.11949
 N435 N -0.05352 0.63464 -0.17856
 N436 N -0.07134 0.67486 -0.19531
 C437 C -0.10478 0.68782 -0.16429
 C438 C -0.10697 0.65348 -0.12810
 N439 N -0.07487 0.62092 -0.13866
 H440 H -0.12699 0.65389 -0.09506
 N441 N 0.11583 0.68478 0.02127
 N442 N 0.13841 0.71959 0.04084
 C443 C 0.13323 0.71579 0.08955
 C444 C 0.10688 0.67680 0.09919
 N445 N 0.09685 0.65880 0.05567
 H446 H 0.09607 0.66264 0.13394
 N447 N 0.37852 1.08512 0.82052
 N448 N 0.34172 1.10528 0.80248
 C449 C 0.31174 1.10914 0.83944
 C450 C 0.33118 1.09034 0.88077
 N451 N 0.37268 1.07569 0.86728
 H452 H 0.31689 1.08787 0.91703
 N453 N 0.34345 0.95642 1.14954
 N454 N 0.30706 0.94020 1.17140
 C455 C 0.28740 0.91067 1.14011
 C456 C 0.31312 0.90976 1.09762
 N457 N 0.34763 0.93874 1.10536
 H458 H 0.30889 0.88838 1.06560
 N459 N 0.61939 1.15567 1.09250
 N460 N 0.65531 1.17691 1.10872
 C461 C 0.68885 1.14422 1.10997
 C462 C 0.67209 1.10161 1.09370
 N463 N 0.62853 1.11064 1.08313
 H464 H 0.68962 1.06789 1.08983
 N465 N 0.64315 0.82796 0.94522
 N466 N 0.68166 0.80902 0.92975
 C467 C 0.70865 0.84518 0.91762
 C468 C 0.68536 0.88719 0.92667
 N469 N 0.64479 0.87471 0.94365
 H470 H 0.69572 0.92308 0.91940
   
