data_POSCAR
  _audit_creation_date              2014-09-24
  _audit_creation_method            'ToBaCCo'
  _symmetry_space_group_name_H-M    'P1'
  _symmetry_Int_Tables_number       1
  _symmetry_cell_setting            triclinic
  loop_
  _symmetry_equiv_pos_as_xyz
 x,y,z
_cell_length_a 34.5979
_cell_length_b 32.8308
_cell_length_c 15.1756
_cell_angle_alpha 90.710000
_cell_angle_beta 89.867800
_cell_angle_gamma 118.930700
loop_
  _atom_site_label
  _atom_site_type_symbol
  _atom_site_fract_x
  _atom_site_fract_y
  _atom_site_fract_z
C1 C 0.13574 0.46676 0.50643
 C2 C 0.13731 0.46250 0.41634
 C3 C 0.17750 0.46455 0.39721
 N4 N 0.20012 0.46973 0.47304
 C5 C 0.17495 0.47138 0.53965
 C6 C 0.19026 0.45489 0.31369
 C7 C 0.23156 0.45637 0.30123
 C8 C 0.24380 0.43964 0.22757
 C9 C 0.28828 0.45496 0.23491
 C10 C 0.30228 0.48124 0.31181
 N11 N 0.26762 0.48142 0.35236
 C12 C 0.34676 0.51051 0.33527
 C13 C 0.35960 0.52910 0.42039
 C14 C 0.40068 0.56546 0.44329
 C15 C 0.39970 0.57166 0.53233
 C16 C 0.35817 0.53852 0.56046
 N17 N 0.33353 0.51271 0.49184
 C18 C 0.34405 0.53066 0.64857
 C19 C 0.29837 0.50836 0.67017
 C20 C 0.28028 0.48676 0.74944
 C21 C 0.23553 0.47074 0.74430
 C22 C 0.22714 0.48204 0.66147
 N23 N 0.26558 0.50503 0.61664
 C24 C 0.18476 0.47147 0.63013
 H25 H 0.10831 0.46525 0.54349
 H26 H 0.11082 0.45626 0.37118
 H27 H 0.26972 0.52076 0.55558
 H28 H 0.22389 0.42062 0.17137
 H29 H 0.30851 0.44966 0.18651
 H30 H 0.42823 0.58587 0.40044
 H31 H 0.42634 0.59798 0.57165
 H32 H 0.21176 0.45194 0.79519
 H33 H 0.27024 0.50413 0.40328
 H34 H 0.29720 0.48187 0.80476
 C35 C 0.61737 -0.29889 0.43480
 C36 C 0.61781 -0.30300 0.52431
 C37 C 0.61854 -0.26370 0.56097
 N38 N 0.61738 -0.23632 0.49613
 C39 C 0.61602 -0.25808 0.41869
 C40 C 0.61994 -0.25350 0.65256
 C41 C 0.60831 -0.22035 0.68548
 C42 C 0.62039 -0.19855 0.76746
 C43 C 0.59934 -0.17235 0.77715
 C44 C 0.57457 -0.17926 0.70125
 N45 N 0.58075 -0.20808 0.64522
 C46 C 0.54482 -0.16186 0.68672
 C47 C 0.53052 -0.15983 0.60123
 C48 C 0.49517 -0.15302 0.57958
 C49 C 0.49688 -0.14713 0.49019
 C50 C 0.53254 -0.15170 0.46066
 N51 N 0.55299 -0.15947 0.52837
 C52 C 0.54950 -0.14229 0.37499
 C53 C 0.57766 -0.15831 0.34109
 C54 C 0.59846 -0.14668 0.26017
 C55 C 0.61805 -0.17423 0.24807
 C56 C 0.60948 -0.20114 0.32317
 N57 N 0.58469 -0.19115 0.37896
 C58 C 0.61697 -0.23949 0.33405
 H59 H 0.61817 -0.32346 0.38781
 H60 H 0.61667 -0.33246 0.55765
 H61 H 0.56816 -0.21048 0.43380
 H62 H 0.64198 -0.20148 0.81547
 H63 H 0.60192 -0.15089 0.83389
 H64 H 0.47089 -0.15198 0.62319
 H65 H 0.47482 -0.13979 0.45135
 H66 H 0.63509 -0.17510 0.18903
 H67 H 0.56298 -0.22321 0.58760
 H68 H 0.59778 -0.12259 0.21296
 C69 C 1.05460 0.67607 0.44277
 C70 C 1.05304 0.67463 0.53338
 C71 C 1.09590 0.68885 0.56203
 N72 N 1.12337 0.70126 0.49311
 C73 C 1.09853 0.69350 0.42064
 C74 C 1.10825 0.67821 0.64317
 C75 C 1.15310 0.70560 0.67153
 C76 C 1.17434 0.69434 0.73632
 C77 C 1.21713 0.72989 0.74052
 C78 C 1.22245 0.76122 0.67446
 N79 N 1.18286 0.74658 0.63455
 C80 C 1.26158 0.80405 0.65691
 C81 C 1.26794 0.82766 0.57518
 C82 C 1.30078 0.87263 0.55714
 C83 C 1.29898 0.87930 0.46809
 C84 C 1.26636 0.83770 0.43287
 N85 N 1.24711 0.80650 0.49875
 C86 C 1.25574 0.82719 0.34155
 C87 C 1.22054 0.78358 0.31596
 C88 C 1.22062 0.75716 0.24387
 C89 C 1.18045 0.71703 0.24320
 C90 C 1.15683 0.72075 0.31385
 N91 N 1.18163 0.76149 0.35770
 C92 C 1.11397 0.68751 0.33950
 H93 H 1.02659 0.66248 0.39824
 H94 H 1.02335 0.65972 0.57289
 H95 H 1.17213 0.77488 0.41121
 H96 H 1.16200 0.66338 0.77529
 H97 H 1.24092 0.73125 0.78784
 H98 H 1.32423 0.89827 0.60231
 H99 H 1.31980 0.91124 0.43402
 H100 H 1.17046 0.68866 0.19635
 H101 H 1.17606 0.76537 0.58794
 H102 H 1.24743 0.76544 0.19822
 C103 C 0.72527 0.59752 0.39854
 C104 C 0.70930 0.58633 0.48258
 C105 C 0.72078 0.55375 0.51145
 N106 N 0.74323 0.54465 0.44838
 C107 C 0.74532 0.57087 0.37874
 C108 C 0.70841 0.53064 0.59266
 C109 C 0.73579 0.51519 0.63321
 C110 C 0.72295 0.48181 0.69810
 C111 C 0.75951 0.47753 0.71875
 C112 C 0.79379 0.50828 0.66575
 N113 N 0.77893 0.53081 0.61333
 C114 C 0.83771 0.51558 0.66818
 C115 C 0.86717 0.53505 0.59686
 C116 C 0.91281 0.55349 0.60084
 C117 C 0.92804 0.56397 0.51649
 C118 C 0.89158 0.55338 0.46451
 N119 N 0.85437 0.53581 0.51329
 C120 C 0.89278 0.55713 0.37266
 C121 C 0.85930 0.55907 0.32292
 C122 C 0.85677 0.55746 0.23171
 C123 C 0.82012 0.56112 0.20956
 C124 C 0.80041 0.56350 0.28788
 N125 N 0.82570 0.56429 0.35639
 C126 C 0.76101 0.56647 0.29547
 H127 H 0.72418 0.62405 0.35903
 H128 H 0.69200 0.60107 0.51912
 H129 H 0.82137 0.57029 0.42214
 H130 H 0.69043 0.46146 0.72603
 H131 H 0.76045 0.45367 0.76618
 H132 H 0.93336 0.55932 0.65829
 H133 H 0.96209 0.57847 0.49578
 H134 H 0.81023 0.56317 0.14296
 H135 H 0.79814 0.55808 0.57130
 H136 H 0.87917 0.55447 0.18553
 C137 C 0.44705 0.13395 0.59515
 C138 C 0.45671 0.13690 0.50713
 C139 C 0.43666 0.16015 0.46904
 N140 N 0.41379 0.16979 0.52973
 C141 C 0.41956 0.15336 0.60687
 C142 C 0.43851 0.17156 0.37973
 C143 C 0.42904 0.20616 0.35026
 C144 C 0.42339 0.21389 0.26288
 C145 C 0.42778 0.25782 0.25961
 C146 C 0.43669 0.27578 0.34498
 N147 N 0.43555 0.24328 0.40015
 C148 C 0.45631 0.32356 0.36728
 C149 C 0.45525 0.33774 0.45545
 C150 C 0.48271 0.38103 0.49220
 C151 C 0.47306 0.37780 0.58117
 C152 C 0.43904 0.33280 0.59553
 N153 N 0.42853 0.30873 0.51826
 C154 C 0.41914 0.31205 0.67726
 C155 C 0.39569 0.26292 0.68258
 C156 C 0.36005 0.23749 0.73754
 C157 C 0.35536 0.19340 0.74257
 C158 C 0.38843 0.19332 0.69096
 N159 N 0.41171 0.23527 0.65212
 C160 C 0.40036 0.15767 0.68605
 H161 H 0.46134 0.12168 0.64432
 H162 H 0.47758 0.12486 0.47621
 H163 H 0.44143 0.24678 0.61828
 H164 H 0.42000 0.19179 0.20665
 H165 H 0.42855 0.27613 0.20023
 H166 H 0.50879 0.41084 0.45967
 H167 H 0.49175 0.40471 0.62921
 H168 H 0.33153 0.16527 0.78232
 H169 H 0.44771 0.24961 0.46446
 H170 H 0.34138 0.25043 0.77458
 C171 C 0.59669 0.12247 0.52221
 C172 C 0.60170 0.11842 0.43299
 C173 C 0.64672 0.14028 0.41694
 N174 N 0.66923 0.15621 0.49381
 C175 C 0.63882 0.14544 0.55846
 C176 C 0.66625 0.14337 0.33319
 C177 C 0.71182 0.17221 0.31595
 C178 C 0.73222 0.17156 0.23749
 C179 C 0.77551 0.20573 0.24420
 C180 C 0.78071 0.22638 0.32677
 N181 N 0.74158 0.20613 0.36973
 C182 C 0.82094 0.26357 0.35862
 C183 C 0.82953 0.27732 0.44847
 C184 C 0.86865 0.31368 0.48101
 C185 C 0.86492 0.31319 0.57139
 C186 C 0.82353 0.27682 0.59102
 N187 N 0.80218 0.25483 0.51593
 C188 C 0.80728 0.26211 0.67696
 C189 C 0.76378 0.22677 0.69364
 C190 C 0.74978 0.20491 0.77404
 C191 C 0.70544 0.17506 0.76603
 C192 C 0.69326 0.17961 0.68107
 N193 N 0.72910 0.21101 0.63692
 C194 C 0.64921 0.15645 0.64926
 H195 H 0.56548 0.10991 0.55590
 H196 H 0.57519 0.10189 0.38534
 H197 H 0.72854 0.22475 0.57589
 H198 H 0.71743 0.14912 0.18061
 H199 H 0.80040 0.21421 0.19392
 H200 H 0.89724 0.33752 0.44365
 H201 H 0.88994 0.33655 0.61738
 H202 H 0.68435 0.15256 0.81724
 H203 H 0.73481 0.21763 0.42875
 H204 H 0.76937 0.21012 0.83282
 O205 O 0.93382 0.44623 -0.15733
 O206 O 1.04692 0.49835 0.17793
 O207 O 0.94854 0.49176 0.10048
 O208 O 1.05823 0.55156 -0.09088
 O209 O 0.96790 0.45872 0.19663
 O210 O 1.01347 0.49597 -0.18195
 O211 O 1.06196 0.55114 0.07924
 O212 O 0.93396 0.48566 -0.04751
 C213 C 0.92281 0.47380 -0.12352
 C214 C 1.05875 0.53983 0.15797
 C215 C 0.95944 0.49042 0.17678
 C216 C 1.03901 0.53837 -0.16401
 O217 O 1.02785 0.42551 -0.15474
 O218 O 0.96405 0.38187 0.11159
 O219 O 0.89924 0.39001 -0.04583
 O220 O 1.09269 0.49066 0.06603
 O221 O 1.04347 0.42190 0.10434
 O222 O 0.94998 0.37805 -0.10299
 O223 O 1.08343 0.48832 -0.09917
 O224 O 0.91183 0.39788 0.11438
 Co225 Co 0.98238 0.43827 -0.13402
 Co226 Co 1.00436 0.44143 0.13578
 Co227 Co 0.92923 0.44231 0.02817
 Co228 Co 1.06644 0.51456 -0.00880
 O229 O 0.99639 0.45924 0.00437
 C230 C 1.06829 0.45314 -0.14990
 C231 C 0.92562 0.37015 0.13181
 C232 C 0.91047 0.36356 -0.08666
 C233 C 1.08281 0.45122 0.09597
 O234 O 0.47986 0.47609 -0.12004
 O235 O 0.50985 0.55393 0.17194
 O236 O 0.55029 0.45501 0.07079
 O237 O 0.47513 0.54554 -0.09390
 O238 O 0.52285 0.48454 0.16808
 O239 O 0.50045 0.54443 -0.22192
 O240 O 0.47190 0.54151 0.05434
 O241 O 0.52113 0.44536 -0.08392
 C242 C 0.48460 0.44088 -0.11070
 C243 C 0.47406 0.54426 0.13479
 C244 C 0.52965 0.45208 0.14216
 C245 C 0.47354 0.55245 -0.17447
 O246 O 0.57991 0.58483 -0.15915
 O247 O 0.60686 0.53910 0.14572
 O248 O 0.60214 0.52090 -0.12853
 O249 O 0.54751 0.62280 0.07382
 O250 O 0.59555 0.60742 0.13285
 O251 O 0.54800 0.50207 -0.21135
 O252 O 0.55615 0.62418 -0.08603
 O253 O 0.62569 0.52734 0.01625
 Co254 Co 0.52968 0.53219 -0.13408
 Co255 Co 0.55749 0.54566 0.13948
 Co256 Co 0.57201 0.49085 -0.03017
 Co257 Co 0.51603 0.58005 -0.01253
 O258 O 0.54662 0.53673 -0.00399
 C259 C 0.58268 0.62296 -0.14062
 C260 C 0.63432 0.53690 0.09511
 C261 C 0.58619 0.50904 -0.20346
 C262 C 0.58267 0.63566 0.11589
 O263 O 0.50814 0.02847 -0.16542
 O264 O 0.46386 -0.04211 0.23137
 O265 O 0.52868 0.07560 0.08323
 O266 O 0.48644 -0.07649 -0.03288
 O267 O 0.52109 0.00906 0.12402
 O268 O 0.46966 -0.05974 -0.15987
 O269 O 0.47693 -0.07560 0.12025
 O270 O 0.51159 0.08243 -0.07435
 C271 C 0.52550 0.07019 -0.14107
 C272 C 0.47653 -0.07065 0.20300
 C273 C 0.54516 0.05185 0.11579
 C274 C 0.48742 -0.07823 -0.11419
 O275 O 0.39300 -0.05872 -0.14458
 O276 O 0.47511 0.03579 0.20895
 O277 O 0.42785 0.05572 -0.03085
 O278 O 0.38993 -0.09844 0.09301
 O279 O 0.40396 -0.03316 0.15284
 O280 O 0.43273 0.02856 -0.15830
 O281 O 0.40087 -0.10886 -0.06577
 O282 O 0.44057 0.05088 0.11608
 Co283 Co 0.45121 -0.01524 -0.14186
 Co284 Co 0.46191 -0.01315 0.13393
 Co285 Co 0.47580 0.06012 0.02243
 Co286 Co 0.43968 -0.08260 0.02704
 O287 O 0.45647 -0.01097 0.00317
 C288 C 0.38078 -0.09977 -0.12481
 C289 C 0.45837 0.06007 0.18921
 C290 C 0.42071 0.05214 -0.11106
 C291 C 0.37782 -0.07501 0.13995
 N292 N 1.11591 0.40133 0.13250
 N293 N 1.14496 0.40175 0.19654
 C294 C 1.16109 0.44248 0.24133
 C295 C 1.14358 0.46899 0.20619
 C296 C 1.11598 0.44230 0.13790
 H297 H 1.14855 0.50241 0.23006
 H298 H 1.09549 0.37271 0.09282
 H299 H 1.14972 0.37348 0.21118
 N300 N 0.63961 0.71921 0.13127
 N301 N 0.64915 0.75462 0.19348
 C302 C 0.61906 0.73646 0.25850
 C303 C 0.58971 0.69032 0.23877
 C304 C 0.60365 0.68103 0.15969
 H305 H 0.56145 0.66643 0.27694
 H306 H 0.65768 0.72231 0.07416
 H307 H 0.67667 0.78777 0.19174
 N308 N 0.29640 -0.11523 0.13563
 N309 N 0.26250 -0.14313 0.19261
 C310 C 0.28030 -0.14242 0.27238
 C311 C 0.32584 -0.11311 0.26785
 C312 C 0.33430 -0.09735 0.18142
 H313 H 0.35041 -0.10862 0.31659
 H314 H 0.29279 -0.11241 0.06802
 H315 H 0.22930 -0.16215 0.17409
 N316 N 0.97529 0.56948 0.21948
 N317 N 0.95716 0.58789 0.27169
 C318 C 0.92896 0.55464 0.32574
 C319 C 0.92995 0.51355 0.30875
 C320 C 0.95946 0.52435 0.24010
 H321 H 0.90690 0.47920 0.33207
 H322 H 0.99467 0.58629 0.16490
 H323 H 0.96076 0.62114 0.26433
 N324 N 0.53017 0.37996 0.18687
 N325 N 0.51271 0.34794 0.24806
 C326 C 0.48560 0.35682 0.29922
 C327 C 0.48655 0.39728 0.26956
 C328 C 0.51502 0.41047 0.19733
 H329 H 0.46820 0.41380 0.29484
 H330 H 0.55242 0.38093 0.13919
 H331 H 0.51900 0.32001 0.25384
 N332 N 0.60861 0.04798 0.18139
 N333 N 0.63874 0.07082 0.24261
 C334 C 0.63881 0.11097 0.26147
 C335 C 0.60800 0.11447 0.20789
 C336 C 0.58896 0.07320 0.15867
 H337 H 0.59843 0.14127 0.21002
 H338 H 0.59954 0.01411 0.16023
 H339 H 0.65742 0.05799 0.27393
 N340 N 0.39737 0.11212 -0.09906
 N341 N 0.39336 0.14289 -0.15572
 C342 C 0.39572 0.12972 -0.23938
 C343 C 0.39936 0.08894 -0.23649
 C344 C 0.40228 0.08051 -0.14814
 H345 H 0.40201 0.06885 -0.29075
 H346 H 0.40192 0.11731 -0.03099
 H347 H 0.39554 0.17428 -0.13442
 N348 N 0.59736 0.50637 -0.36400
 N349 N 0.63181 0.51372 -0.42052
 C350 C 0.66711 0.52115 -0.37104
 C351 C 0.65579 0.51886 -0.28210
 C352 C 0.61220 0.51007 -0.28095
 H353 H 0.67706 0.52531 -0.22552
 H354 H 0.56627 0.50074 -0.38405
 H355 H 0.62915 0.51167 -0.48917
 N356 N 0.88643 0.28525 -0.15031
 N357 N 0.86174 0.26046 -0.21760
 C358 C 0.83822 0.28034 -0.24678
 C359 C 0.84752 0.31898 -0.19420
 C360 C 0.87858 0.32103 -0.13360
 H361 H 0.83654 0.34437 -0.20412
 H362 H 0.91039 0.27943 -0.12006
 H363 H 0.86221 0.23135 -0.24492
 N364 N 0.50538 -0.14223 -0.10642
 N365 N 0.51951 -0.16482 -0.15800
 C366 C 0.52906 -0.14464 -0.23752
 C367 C 0.52008 -0.10745 -0.23636
 C368 C 0.50484 -0.10752 -0.15201
 H369 H 0.52381 -0.08395 -0.28911
 H370 H 0.49490 -0.15159 -0.04161
 H371 H 0.52116 -0.19445 -0.13929
 N372 N 0.40944 0.56534 -0.15507
 N373 N 0.37233 0.55781 -0.20302
 C374 C 0.37630 0.54369 -0.28455
 C375 C 0.41624 0.54269 -0.29042
 C376 C 0.43559 0.55605 -0.20809
 H377 H 0.42792 0.53013 -0.34504
 H378 H 0.41376 0.57349 -0.08796
 H379 H 0.34726 0.56393 -0.17904
 N380 N 1.02914 0.55912 -0.31405
 N381 N 1.04887 0.59783 -0.36754
 C382 C 1.07841 0.63462 -0.31873
 C383 C 1.07699 0.61959 -0.23227
 C384 C 1.04680 0.57220 -0.23329
 H385 H 1.09557 0.63978 -0.17562
 H386 H 1.00736 0.52540 -0.33622
 H387 H 1.04498 0.59547 -0.43584
 N388 N 0.86773 0.50085 -0.11522
 N389 N 0.84255 0.51092 -0.17324
 C390 C 0.85239 0.50312 -0.25554
 C391 C 0.88230 0.48606 -0.25147
 C392 C 0.89149 0.48609 -0.16316
 H393 H 0.89659 0.47620 -0.30569
 H394 H 0.86835 0.50535 -0.04689
 H395 H 0.82358 0.52652 -0.15495
 N396 N 0.44290 0.35593 -0.10070
 N397 N 0.42667 0.31989 -0.16278
 C398 C 0.42622 0.33774 -0.24255
 C399 C 0.43986 0.38501 -0.23091
 C400 C 0.45113 0.39511 -0.14232
 H401 H 0.44484 0.41023 -0.28088
 H402 H 0.45360 0.35372 -0.03750
 H403 H 0.42304 0.28705 -0.14994
 N404 N 0.58598 0.15044 -0.16061
 N405 N 0.61971 0.17458 -0.22039
 C406 C 0.61592 0.14510 -0.28679
 C407 C 0.57976 0.10151 -0.27069
 C408 C 0.56260 0.10636 -0.19035
 H409 H 0.56938 0.06970 -0.30847
 H410 H 0.58142 0.16434 -0.10172
 H411 H 0.64421 0.20923 -0.21236
 N412 N 1.08326 0.40384 -0.25427
 N413 N 1.11319 0.40895 -0.31352
 C414 C 1.14721 0.45251 -0.30717
 C415 C 1.13881 0.47630 -0.23979
 C416 C 1.09746 0.44404 -0.20845
 H417 H 1.15816 0.51268 -0.22152
 H418 H 1.05268 0.37384 -0.24829
 H419 H 1.10963 0.38341 -0.35951
 N420 N 0.64611 0.66700 -0.23967
 N421 N 0.65643 0.70225 -0.30051
 C422 C 0.62903 0.72009 -0.28628
 C423 C 0.60284 0.69870 -0.21353
 C424 C 0.61316 0.66461 -0.18887
 H425 H 0.57422 0.70139 -0.19238
 H426 H 0.65757 0.64284 -0.24271
 H427 H 0.67924 0.71031 -0.35146
 N428 N 0.34529 -0.17984 -0.18623
 N429 N 0.31407 -0.20553 -0.25070
 C430 C 0.29658 -0.17946 -0.28086
 C431 C 0.31725 -0.13612 -0.23792
 C432 C 0.34708 -0.13811 -0.17876
 H433 H 0.31079 -0.10730 -0.24661
 H434 H 0.36544 -0.19062 -0.15430
 H435 H 0.30810 -0.23803 -0.27466
 N436 N 0.53336 -0.04771 0.31771
 N437 N 0.55537 -0.06529 0.35829
 C438 C 0.54198 -0.10848 0.32625
 C439 C 0.51025 -0.11896 0.26147
 C440 C 0.50547 -0.07954 0.25947
 H441 H 0.49092 -0.15166 0.22671
 H442 H 0.53712 -0.01467 0.33083
 H443 H 0.57718 -0.04903 0.41078
 N444 N 0.40768 0.55293 0.13708
 N445 N 0.37395 0.54367 0.18862
 C446 C 0.37980 0.52672 0.26449
 C447 C 0.41957 0.52576 0.26226
 C448 C 0.43587 0.54241 0.17942
 H449 H 0.43320 0.51263 0.31142
 H450 H 0.41077 0.56549 0.07315
 H451 H 0.34717 0.54838 0.17135
 N452 N 1.06808 0.56399 0.31432
 N453 N 1.08174 0.60250 0.36132
 C454 C 1.09375 0.63872 0.30659
 C455 C 1.08723 0.62231 0.22016
 C456 C 1.07113 0.57472 0.22854
 H457 H 1.09350 0.64195 0.16015
 H458 H 1.05732 0.53107 0.34098
 H459 H 1.08417 0.60392 0.42994
 N460 N 0.50482 0.12987 0.27791
 N461 N 0.50036 0.16162 0.32369
 C462 C 0.45799 0.15208 0.31799
 C463 C 0.43455 0.11345 0.26438
 C464 C 0.46562 0.10042 0.24132
 H465 H 0.39943 0.09514 0.25096
 H466 H 0.53379 0.12758 0.27447
 H467 H 0.52509 0.18724 0.36313
 N468 N 0.69307 0.51511 0.10248
 N469 N 0.72561 0.52204 0.15630
 C470 C 0.73095 0.55479 0.21732
 C471 C 0.69860 0.56766 0.20237
 C472 C 0.67576 0.54190 0.12944
 H473 H 0.69046 0.59056 0.23956
 H474 H 0.68084 0.48975 0.05253
 H475 H 0.74101 0.50146 0.15494
 N476 N 0.91783 0.30437 0.22382
 N477 N 0.89134 0.27782 0.28645
 C478 C 0.85736 0.28666 0.29452
 C479 C 0.86205 0.31996 0.23390
 C480 C 0.90109 0.33051 0.19059
 H481 H 0.84129 0.33591 0.22584
 H482 H 0.94773 0.30582 0.20680
 H483 H 0.89688 0.25463 0.32386
   
