data_POSCAR
  _audit_creation_date              2014-09-24
  _audit_creation_method            'ToBaCCo'
  _symmetry_space_group_name_H-M    'P1'
  _symmetry_Int_Tables_number       1
  _symmetry_cell_setting            triclinic
  loop_
  _symmetry_equiv_pos_as_xyz
 x,y,z
_cell_length_a 29.1707
_cell_length_b 29.2128
_cell_length_c 29.2495
_cell_angle_alpha 101.631400
_cell_angle_beta 77.984900
_cell_angle_gamma 77.580900
loop_
  _atom_site_label
  _atom_site_type_symbol
  _atom_site_fract_x
  _atom_site_fract_y
  _atom_site_fract_z
C1 C 0.54510 0.50932 0.00327
 C2 C 0.50900 0.54569 -0.00423
 C3 C 0.46426 0.53695 -0.00769
 C4 C 0.45493 0.49256 -0.00386
 C5 C 0.49097 0.45627 0.00361
 C6 C 0.53569 0.46495 0.00708
 H7 H 0.56339 0.43683 0.01271
 H8 H 0.43642 0.56496 -0.01333
 C9 C -0.00388 0.45606 0.50902
 C10 C 0.00418 0.49140 0.54467
 C11 C 0.00791 0.53595 0.53567
 C12 C 0.00378 0.54576 0.49150
 C13 C -0.00428 0.51034 0.45579
 C14 C -0.00801 0.46580 0.46487
 H15 H -0.01407 0.43849 0.43733
 H16 H 0.01398 0.56317 0.56335
 C17 C 0.49232 0.00311 0.45571
 C18 C 0.45629 -0.00469 0.49124
 C19 C 0.46489 -0.00808 0.53596
 C20 C 0.50906 -0.00387 0.54581
 C21 C 0.54522 0.00395 0.51015
 C22 C 0.53647 0.00733 0.46541
 H23 H 0.56423 0.01321 0.43784
 H24 H 0.43690 -0.01396 0.56329
 O25 O 0.46767 -0.00206 -0.05988
 O26 O 0.45343 0.01304 0.07090
 O27 O 0.45283 0.07113 0.01357
 O28 O 0.46825 -0.06012 -0.00256
 O29 O 0.54776 -0.07198 -0.01445
 O30 O 0.53234 0.05928 0.00168
 O31 O 0.53294 0.00122 0.05899
 O32 O 0.54718 -0.01389 -0.07178
 Cu33 Cu 0.45253 0.00666 0.00668
 Cu34 Cu 0.54807 -0.00751 -0.00757
 C35 C 0.50972 -0.01007 -0.08784
 C36 C 0.49089 0.00923 0.08695
 C37 C 0.49010 0.08729 0.00989
 C38 C 0.51049 -0.08813 -0.01076
 O39 O -0.07168 0.54723 1.01278
 O40 O 0.05967 0.53284 0.99755
 O41 O 0.00253 0.53172 0.93958
 O42 O -0.01453 0.54833 1.07078
 O43 O -0.00238 0.46914 1.06056
 O44 O 0.01469 0.45253 0.92936
 O45 O 0.07184 0.45365 0.98735
 O46 O -0.05952 0.46804 1.00258
 Cu47 Cu -0.00720 0.54801 1.00617
 Cu48 Cu 0.00736 0.45286 0.99397
 C49 C -0.08770 0.50995 1.00978
 C50 C 0.08785 0.49093 0.99033
 C51 C 0.01102 0.48944 0.91240
 C52 C -0.01087 0.51142 1.08774
 O53 O 0.01284 -0.07127 0.45309
 O54 O -0.00322 0.05999 0.46851
 O55 O 0.07071 -0.01425 0.45246
 O56 O -0.06108 0.00299 0.46917
 O57 O -0.07158 0.01360 0.54806
 O58 O 0.06022 -0.00363 0.53135
 O59 O -0.01370 0.07063 0.54740
 O60 O 0.00237 -0.06064 0.53199
 Cu61 Cu 0.00584 -0.00667 0.45285
 Cu62 Cu -0.00670 0.00604 0.54766
 C63 C 0.00986 -0.08803 0.49006
 C64 C -0.01070 0.08739 0.51043
 C65 C 0.08763 -0.01138 0.48921
 C66 C -0.08849 0.01073 0.51131
 C67 C -0.32288 0.52212 1.01252
 N68 N -0.29436 0.53698 0.97881
 N69 N -0.24887 0.53662 0.98005
 C70 C -0.23050 0.52137 1.01502
 N71 N -0.25907 0.50663 1.04879
 N72 N -0.30456 0.50699 1.04755
 C73 C -0.37078 0.51954 1.00949
 C74 C -0.41049 0.51564 1.00664
 C75 C -0.18067 0.51843 1.01468
 C76 C -0.13841 0.51499 1.01320
 C77 C 0.32306 0.47914 0.98717
 N78 N 0.30478 0.49366 0.95185
 N79 N 0.25930 0.49390 0.95070
 C80 C 0.23069 0.47964 0.98488
 N81 N 0.24901 0.46500 1.02013
 N82 N 0.29450 0.46477 1.02127
 C83 C 0.37094 0.48192 0.99008
 C84 C 0.41061 0.48601 0.99285
 C85 C 0.18084 0.48250 0.98531
 C86 C 0.13858 0.48590 0.98685
 C87 C 0.01334 -0.32287 0.47735
 N88 N -0.02105 -0.29373 0.46344
 N89 N -0.01985 -0.24833 0.46370
 C90 C 0.01574 -0.23068 0.47792
 N91 N 0.05021 -0.25986 0.49170
 N92 N 0.04901 -0.30526 0.49143
 C93 C 0.01025 -0.37059 0.48030
 C94 C 0.00729 -0.41011 0.48462
 C95 C 0.01524 -0.18092 0.48100
 C96 C 0.01358 -0.13870 0.48465
 C97 C -0.01385 0.32218 0.52327
 N98 N 0.02027 0.29308 0.53753
 N99 N 0.01899 0.24769 0.53722
 C100 C -0.01641 0.23000 0.52260
 N101 N -0.05061 0.25914 0.50846
 N102 N -0.04933 0.30453 0.50878
 C103 C -0.01068 0.36991 0.52045
 C104 C -0.00767 0.40945 0.51627
 C105 C -0.01600 0.18026 0.51950
 C106 C -0.01438 0.13805 0.51583
 C107 C 0.52185 -0.01291 -0.32231
 N108 N 0.53615 0.02103 -0.29386
 N109 N 0.53579 0.01983 -0.24847
 C110 C 0.52108 -0.01531 -0.23014
 N111 N 0.50689 -0.04931 -0.25863
 N112 N 0.50726 -0.04811 -0.30402
 C113 C 0.51927 -0.00995 -0.37014
 C114 C 0.51537 -0.00716 -0.40980
 C115 C 0.51815 -0.01495 -0.18046
 C116 C 0.51473 -0.01348 -0.13835
 C117 C 0.47889 0.01222 0.32143
 N118 N 0.49325 0.04753 0.30316
 N119 N 0.49358 0.04870 0.25778
 C120 C 0.47958 0.01455 0.22926
 N121 N 0.46510 -0.02069 0.24757
 N122 N 0.46477 -0.02186 0.29296
 C123 C 0.48150 0.00931 0.36926
 C124 C 0.48543 0.00656 0.40892
 C125 C 0.48248 0.01416 0.17958
 C126 C 0.48589 0.01266 0.13747
 C127 C 0.52324 -0.32305 -0.01412
 N128 N 0.53784 -0.29477 0.01968
 N129 N 0.53759 -0.24936 0.01842
 C130 C 0.52269 -0.23086 -0.01663
 N131 N 0.50822 -0.25920 -0.05051
 N132 N 0.50848 -0.30460 -0.04925
 C133 C 0.52027 -0.37074 -0.01093
 C134 C 0.51593 -0.41022 -0.00788
 C135 C 0.51960 -0.18107 -0.01616
 C136 C 0.51592 -0.13883 -0.01449
 C137 C 0.47681 0.32237 0.01355
 N138 N 0.46204 0.29412 -0.02013
 N139 N 0.46246 0.24866 -0.01895
 C140 C 0.47769 0.23007 0.01591
 N141 N 0.49233 0.25837 0.04967
 N142 N 0.49191 0.30382 0.04848
 C143 C 0.47956 0.37013 0.01044
 C144 C 0.48371 0.40967 0.00744
 C145 C 0.48090 0.18025 0.01537
 C146 C 0.48464 0.13799 0.01366
 C147 C -0.32389 0.01462 0.52520
 N148 N -0.29498 -0.01924 0.53991
 N149 N -0.24953 -0.01793 0.53961
 C150 C -0.23162 0.01724 0.52457
 N151 N -0.26058 0.05119 0.51001
 N152 N -0.30602 0.04989 0.51030
 C153 C -0.37149 0.01122 0.52204
 C154 C -0.41086 0.00792 0.51744
 C155 C -0.18173 0.01665 0.52120
 C156 C -0.13937 0.01479 0.51720
 C157 C 0.32304 -0.01547 0.47549
 N158 N 0.30514 -0.05076 0.49029
 N159 N 0.25969 -0.05202 0.49055
 C160 C 0.23077 -0.01800 0.47603
 N161 N 0.24871 0.01720 0.46108
 N162 N 0.29416 0.01846 0.46083
 C163 C 0.37065 -0.01212 0.47869
 C164 C 0.41001 -0.00886 0.48331
 C165 C 0.18087 -0.01736 0.47936
 C166 C 0.13850 -0.01547 0.48333
 C167 C -0.01493 0.52551 1.32245
 N168 N -0.05020 0.51086 1.30453
 N169 N -0.05144 0.51048 1.25917
 C170 C -0.01742 0.52471 1.23036
 N171 N 0.01776 0.53950 1.24833
 N172 N 0.01901 0.53988 1.29369
 C173 C -0.01162 0.52250 1.37004
 C174 C -0.00840 0.51805 1.40941
 C175 C -0.01679 0.52130 1.18062
 C176 C -0.01492 0.51730 1.13840
 C177 C 0.01488 0.47564 0.67778
 N178 N -0.01934 0.46171 0.70668
 N179 N -0.01806 0.46199 0.75201
 C180 C 0.01745 0.47624 0.76981
 N181 N 0.05176 0.49003 0.74087
 N182 N 0.05047 0.48974 0.69554
 C183 C 0.01154 0.47882 0.63024
 C184 C 0.00830 0.48345 0.59093
 C185 C 0.01688 0.47959 0.81954
 C186 C 0.01504 0.48357 0.86174
   
