data_POSCAR
  _audit_creation_date              2014-09-24
  _audit_creation_method            'ToBaCCo'
  _symmetry_space_group_name_H-M    'P1'
  _symmetry_Int_Tables_number       1
  _symmetry_cell_setting            triclinic
  loop_
  _symmetry_equiv_pos_as_xyz
 x,y,z
_cell_length_a 17.6505
_cell_length_b 17.6509
_cell_length_c 17.5899
_cell_angle_alpha 90.289100
_cell_angle_beta 90.300500
_cell_angle_gamma 90.015700
loop_
  _atom_site_label
  _atom_site_type_symbol
  _atom_site_fract_x
  _atom_site_fract_y
  _atom_site_fract_z
O1 O 0.60683 0.18992 0.00673
 O2 O 0.69086 0.09056 0.00403
 C3 C 0.67479 0.16214 0.00634
 O4 O 0.39560 -0.00506 0.19419
 O5 O 0.31114 -0.00205 0.09444
 C6 C 0.32742 -0.00450 0.16625
 O7 O 0.60747 0.00502 0.19423
 O8 O 0.69117 0.00107 0.09479
 C9 C 0.67549 0.00432 0.16668
 O10 O 0.39521 0.19023 -0.00245
 O11 O 0.31071 0.09133 0.00191
 C12 C 0.32711 0.16278 -0.00153
 Zr13 Zr 0.50093 0.13395 0.00236
 O14 O 0.49318 0.21840 0.08792
 O15 O 0.50912 0.21812 -0.08257
 Zr16 Zr 0.50126 -0.00090 0.13778
 O17 O 0.49452 0.08123 0.22557
 O18 O 0.50509 -0.09102 0.21635
 O19 O 0.56891 0.07706 0.08071
 O20 O 0.43524 0.07664 0.08003
 O21 O 0.39398 0.00367 -0.18963
 O22 O 0.31029 0.00148 -0.09013
 C23 C 0.32612 0.00388 -0.16188
 O24 O 0.60566 -0.19257 -0.00285
 O25 O 0.69023 -0.09358 -0.00016
 C26 C 0.67377 -0.16509 -0.00299
 O27 O 0.39438 -0.19185 0.00766
 O28 O 0.31035 -0.09253 0.00219
 C29 C 0.32640 -0.16409 0.00589
 O30 O 0.60519 -0.00655 -0.18972
 O31 O 0.69010 -0.00371 -0.09029
 C32 C 0.67339 -0.00628 -0.16213
 Zr33 Zr 0.49992 -0.00160 -0.13314
 O34 O 0.49067 -0.08731 -0.21737
 O35 O 0.50825 0.08258 -0.21803
 Zr36 Zr 0.50021 -0.13597 0.00256
 O37 O 0.49110 -0.22129 -0.08204
 O38 O 0.50762 -0.21901 0.08870
 Zr39 Zr 0.61434 -0.00127 0.00228
 Zr40 Zr 0.38693 -0.00065 0.00220
 O41 O 0.43398 -0.07854 -0.07530
 O42 O 0.56775 -0.07961 -0.07597
 O43 O 0.43256 0.07696 -0.07606
 O44 O 0.56734 -0.07822 0.07994
 O45 O 0.56648 0.07582 -0.07526
 O46 O 0.43265 -0.07845 0.08050
 H47 H 0.40169 0.10841 0.11199
 H48 H 0.60168 -0.10962 0.11146
 H49 H 0.39979 -0.11011 -0.10713
 H50 H 0.60031 0.10720 -0.10701
 H51 H 0.50543 -0.06728 0.26752
 H52 H 0.47044 -0.20524 0.12835
 H53 H 0.53223 -0.21292 -0.11902
 H54 H 0.53388 -0.12232 -0.21053
 H55 H 0.46652 0.11905 -0.20987
 H56 H 0.46640 0.21054 -0.11842
 H57 H 0.53671 0.21169 0.12288
 H58 H 0.53197 0.12115 0.21403
 O59 O -0.00506 0.60400 -0.19362
 O60 O -0.00212 0.68840 -0.09388
 C61 C -0.00489 0.67214 -0.16568
 O62 O -0.19047 0.39284 0.00357
 O63 O -0.09108 0.30885 0.00011
 C64 C -0.16265 0.32490 0.00325
 O65 O -0.19085 0.60421 -0.00715
 O66 O -0.09193 0.68879 -0.00215
 C67 C -0.16342 0.67233 -0.00568
 O68 O 0.00456 0.39200 -0.19360
 O69 O 0.00121 0.30823 -0.09420
 C70 C 0.00386 0.32395 -0.16607
 Zr71 Zr 0.00015 0.49826 -0.13726
 O72 O -0.08482 0.48928 -0.22226
 O73 O 0.08512 0.50647 -0.22135
 Zr74 Zr -0.13450 0.49849 -0.00179
 O75 O -0.22136 0.49019 -0.08486
 O76 O -0.21349 0.50239 0.08806
 O77 O -0.07804 0.56609 -0.08019
 O78 O -0.07693 0.43231 -0.07946
 O79 O 0.19182 0.39356 -0.00510
 O80 O 0.09287 0.30901 -0.00204
 C81 C 0.16437 0.32544 -0.00437
 O82 O 0.00429 0.60559 0.19024
 O83 O 0.00192 0.68927 0.09065
 C84 C 0.00408 0.67347 0.16246
 O85 O -0.00548 0.39438 0.19021
 O86 O -0.00121 0.30953 0.09076
 C87 C -0.00458 0.32618 0.16258
 O88 O 0.19144 0.60511 0.00434
 O89 O 0.09206 0.68906 0.00073
 C90 C 0.16365 0.67305 0.00391
 Zr91 Zr 0.13544 0.49927 -0.00111
 O92 O 0.22020 0.49153 0.08413
 O93 O 0.21925 0.50754 -0.08637
 Zr94 Zr 0.00050 0.49953 0.13370
 O95 O 0.08623 0.49173 0.21800
 O96 O -0.08411 0.50652 0.21825
 Zr97 Zr 0.00011 0.61259 -0.00169
 Zr98 Zr 0.00090 0.38524 -0.00192
 O99 O 0.07798 0.43338 0.07624
 O100 O 0.07835 0.56734 0.07698
 O101 O 0.07869 0.43086 -0.07994
 O102 O -0.07697 0.56534 0.07571
 O103 O 0.07746 0.56485 -0.07900
 O104 O -0.07706 0.43111 0.07609
 H105 H -0.10882 0.39821 -0.11109
 H106 H -0.10864 0.59922 0.10744
 H107 H 0.10945 0.39962 0.10829
 H108 H 0.10888 0.59891 -0.11047
 H109 H -0.26434 0.50233 0.06391
 H110 H -0.12564 0.47206 0.20258
 H111 H 0.12042 0.53565 0.21185
 H112 H 0.21167 0.53331 0.12076
 H113 H 0.21219 0.46424 -0.12161
 H114 H 0.12051 0.46368 -0.21390
 H115 H -0.12062 0.53170 -0.21467
 H116 H -0.21137 0.52935 -0.12354
 O117 O 0.18984 -0.00440 0.39552
 O118 O 0.09101 0.00017 0.31015
 C119 C 0.16256 -0.00336 0.32705
 O120 O -0.00758 -0.19033 0.60503
 O121 O -0.00194 -0.09145 0.69040
 C122 C -0.00586 -0.16302 0.67350
 O123 O 0.00294 -0.19006 0.39349
 O124 O -0.00163 -0.09117 0.30914
 C125 C 0.00194 -0.16265 0.32530
 O126 O 0.18972 0.00502 0.60709
 O127 O 0.09073 0.00317 0.69135
 C128 C 0.16226 0.00516 0.67524
 Zr129 Zr 0.13326 0.00022 0.50095
 O130 O 0.21652 -0.08575 0.50958
 O131 O 0.21842 0.08432 0.49335
 Zr132 Zr -0.00279 -0.13375 0.49973
 O133 O 0.07856 -0.22152 0.50732
 O134 O -0.09355 -0.21182 0.49526
 O135 O 0.07589 -0.07755 0.43221
 O136 O 0.07514 -0.07665 0.56663
 O137 O 0.00391 0.19238 0.60739
 O138 O -0.00054 0.09343 0.69167
 C139 C 0.00291 0.16501 0.67565
 O140 O -0.19292 0.00588 0.39315
 O141 O -0.09386 0.00163 0.30893
 C142 C -0.16549 0.00488 0.32492
 O143 O -0.19286 -0.00462 0.60534
 O144 O -0.09364 -0.00116 0.69041
 C145 C -0.16518 -0.00431 0.67380
 O146 O -0.00558 0.19228 0.39492
 O147 O -0.00322 0.09299 0.31001
 C148 C -0.00546 0.16456 0.32651
 Zr149 Zr -0.00116 0.13610 0.50093
 O150 O -0.08612 0.22037 0.50937
 O151 O 0.08388 0.22032 0.49333
 Zr152 Zr -0.13659 0.00195 0.49961
 O153 O -0.21920 0.08855 0.50819
 O154 O -0.22223 -0.08170 0.49185
 Zr155 Zr -0.00152 0.00099 0.38607
 Zr156 Zr -0.00150 0.00119 0.61452
 O157 O -0.07862 0.07880 0.56681
 O158 O -0.07930 0.07948 0.43195
 O159 O 0.07682 0.07883 0.56907
 O160 O -0.07943 -0.07577 0.43307
 O161 O 0.07602 0.07801 0.43482
 O162 O -0.07999 -0.07627 0.56776
 H163 H 0.10674 -0.10849 0.60048
 H164 H -0.11121 -0.10744 0.39887
 H165 H -0.11019 0.11024 0.60106
 H166 H 0.10776 0.10958 0.40116
 H167 H -0.07025 -0.26290 0.49470
 H168 H -0.20680 -0.12389 0.52537
 H169 H -0.21339 0.12207 0.46371
 H170 H -0.12147 0.21312 0.46614
 H171 H 0.11974 0.21246 0.53595
 H172 H 0.21031 0.12083 0.53535
 H173 H 0.20997 -0.12024 0.46554
 H174 H 0.11854 -0.21044 0.46984
 C175 C -0.26408 0.21548 0.00653
 C176 C -0.21587 0.26374 0.00550
 C177 C 0.26521 0.78255 0.00637
 C178 C 0.21696 0.73427 0.00576
 C179 C 0.26617 0.21629 -0.00341
 C180 C 0.21793 0.26451 -0.00436
 C181 C -0.26530 0.78140 -0.00515
 C182 C -0.21702 0.73322 -0.00603
 C183 C 0.00444 -0.26507 0.21590
 C184 C 0.00371 -0.21638 0.26408
 C185 C 0.00445 0.26802 0.78518
 C186 C 0.00421 0.21899 0.73707
 C187 C -0.00611 0.26553 0.21645
 C188 C -0.00638 0.21776 0.26517
 C189 C -0.00639 -0.26636 0.78132
 C190 C -0.00666 -0.21720 0.73399
 C191 C 0.26467 0.00559 0.78469
 C192 C 0.21599 0.00601 0.73649
 C193 C -0.26853 0.00554 0.21539
 C194 C -0.21946 0.00575 0.26348
 C195 C 0.26592 -0.00514 0.21926
 C196 C 0.21675 -0.00475 0.26658
 C197 C -0.26603 -0.00702 0.78389
 C198 C -0.21835 -0.00638 0.73511
   
