data_POSCAR
  _audit_creation_date              2014-09-24
  _audit_creation_method            'ToBaCCo'
  _symmetry_space_group_name_H-M    'P1'
  _symmetry_Int_Tables_number       1
  _symmetry_cell_setting            triclinic
  loop_
  _symmetry_equiv_pos_as_xyz
 x,y,z
_cell_length_a 38.5706
_cell_length_b 38.8718
_cell_length_c 39.4447
_cell_angle_alpha 89.599500
_cell_angle_beta 89.235000
_cell_angle_gamma 91.508100
loop_
  _atom_site_label
  _atom_site_type_symbol
  _atom_site_fract_x
  _atom_site_fract_y
  _atom_site_fract_z
N1 N 0.16005 0.24972 0.25308
 N2 N 0.16294 0.21809 0.26458
 C3 C 0.13702 0.21109 0.28701
 C4 C 0.11680 0.23990 0.28957
 C5 C 0.13246 0.26410 0.26810
 H6 H 0.13295 0.18685 0.30028
 H7 H 0.12380 0.28984 0.26300
 Cu8 Cu 0.20069 0.18943 0.24917
 Cu9 Cu 0.19136 0.26883 0.21800
 Cu10 Cu 0.23101 0.20563 0.17070
 N11 N 0.23547 0.16058 0.22834
 N12 N 0.24759 0.16729 0.19762
 C13 C 0.27101 0.14362 0.18916
 C14 C 0.27339 0.12053 0.21588
 C15 C 0.25078 0.13240 0.24049
 H16 H 0.28548 0.14346 0.16548
 H17 H 0.24590 0.12123 0.26534
 N18 N 0.22373 0.25250 0.15334
 N19 N 0.21080 0.27716 0.17213
 C20 C 0.21026 0.30636 0.15360
 C21 C 0.22253 0.29950 0.12122
 C22 C 0.23139 0.26523 0.12224
 H23 H 0.20100 0.33064 0.16283
 H24 H 0.24239 0.25062 0.10169
 H25 H 0.18731 0.22134 0.19784
 H26 H 0.23127 0.23298 0.21401
 N27 N 0.64132 0.74125 0.73672
 N28 N 0.65811 0.72453 0.76018
 C29 C 0.64042 0.72620 0.78973
 C30 C 0.61109 0.74524 0.78460
 C31 C 0.61227 0.75398 0.75049
 H32 H 0.64761 0.71352 0.81299
 H33 H 0.59281 0.76743 0.73648
 Cu34 Cu 0.69963 0.69935 0.74932
 Cu35 Cu 0.65730 0.74296 0.68965
 Cu36 Cu 0.74121 0.71593 0.67577
 N37 N 0.73615 0.66997 0.73279
 N38 N 0.75250 0.67664 0.70393
 C39 C 0.77638 0.65261 0.69849
 C40 C 0.77443 0.62933 0.72515
 C41 C 0.74898 0.64133 0.74669
 H42 H 0.79356 0.65187 0.67662
 H43 H 0.74011 0.62974 0.77037
 N44 N 0.71688 0.74491 0.64345
 N45 N 0.68456 0.75439 0.64815
 C46 C 0.67636 0.77641 0.62316
 C47 C 0.70491 0.78077 0.60184
 C48 C 0.73007 0.76043 0.61539
 H49 H 0.65266 0.79064 0.62227
 H50 H 0.75677 0.75915 0.60689
 H51 H 0.69178 0.70243 0.68802
 H52 H 0.70685 0.74440 0.70610
 N53 N 0.32277 0.74012 0.76926
 N54 N 0.30819 0.76238 0.78951
 C55 C 0.32931 0.76901 0.81569
 C56 C 0.35858 0.74956 0.81168
 C57 C 0.35368 0.73176 0.78184
 H58 H 0.32469 0.78797 0.83506
 H59 H 0.37188 0.71498 0.76963
 Cu60 Cu 0.26546 0.78389 0.77721
 Cu61 Cu 0.30187 0.72572 0.72685
 Cu62 Cu 0.22326 0.76216 0.70660
 N63 N 0.23296 0.81455 0.75646
 N64 N 0.21529 0.80560 0.72955
 C65 C 0.19498 0.83171 0.72054
 C66 C 0.20158 0.85919 0.74205
 C67 C 0.22526 0.84687 0.76503
 H68 H 0.17839 0.83150 0.69863
 H69 H 0.23582 0.86012 0.78676
 N70 N 0.24587 0.72747 0.67818
 N71 N 0.27619 0.71441 0.68544
 C72 C 0.28659 0.69480 0.65945
 C73 C 0.26198 0.69602 0.63448
 C74 C 0.23621 0.71650 0.64731
 H75 H 0.31102 0.68186 0.65793
 H76 H 0.21311 0.72429 0.63437
 H77 H 0.27422 0.76990 0.71811
 H78 H 0.25170 0.73375 0.74136
 N79 N 0.84495 0.28204 0.23276
 N80 N 0.82738 0.29143 0.25980
 C81 C 0.84771 0.28935 0.28710
 C82 C 0.88037 0.27977 0.27632
 C83 C 0.87765 0.27516 0.24164
 H84 H 0.84003 0.29639 0.31256
 H85 H 0.89757 0.26649 0.22436
 Cu86 Cu 0.78151 0.31035 0.25594
 Cu87 Cu 0.82309 0.27839 0.18859
 Cu88 Cu 0.73416 0.28823 0.18906
 N89 N 0.74318 0.33827 0.24128
 N90 N 0.72453 0.32983 0.21480
 C91 C 0.70146 0.35457 0.20905
 C92 C 0.70634 0.38021 0.23291
 C93 C 0.73252 0.36850 0.25343
 H94 H 0.68306 0.35431 0.18859
 H95 H 0.74325 0.38111 0.27543
 N96 N 0.75805 0.26085 0.15500
 N97 N 0.79217 0.25990 0.15296
 C98 C 0.80097 0.23983 0.12677
 C99 C 0.77095 0.22723 0.11173
 C100 C 0.74418 0.24070 0.13088
 H101 H 0.82731 0.23337 0.12022
 H102 H 0.71669 0.23524 0.12851
 H103 H 0.78175 0.30981 0.19382
 H104 H 0.77775 0.26593 0.21319
 N105 N 0.84420 0.73223 0.26351
 N106 N 0.82905 0.71253 0.24087
 C107 C 0.84779 0.71393 0.21184
 C108 C 0.87647 0.73566 0.21649
 C109 C 0.87365 0.74602 0.25002
 H110 H 0.84126 0.69979 0.18919
 H111 H 0.89175 0.76217 0.26382
 Cu112 Cu 0.78800 0.68478 0.25298
 Cu113 Cu 0.82306 0.73991 0.30801
 Cu114 Cu 0.73454 0.72082 0.30889
 N115 N 0.74512 0.66146 0.26754
 N116 N 0.72318 0.67663 0.28794
 C117 C 0.69522 0.65572 0.29309
 C118 C 0.70064 0.62501 0.27633
 C119 C 0.73241 0.62993 0.25988
 H120 H 0.67295 0.66224 0.30847
 H121 H 0.74551 0.61170 0.24392
 N122 N 0.75663 0.75373 0.34027
 N123 N 0.79051 0.75946 0.34120
 C124 C 0.79762 0.78261 0.36554
 C125 C 0.76668 0.79214 0.38033
 C126 C 0.74124 0.77308 0.36400
 H127 H 0.82322 0.79293 0.37107
 H128 H 0.71358 0.77359 0.36880
 H129 H 0.78292 0.70238 0.31221
 H130 H 0.77853 0.73903 0.28195
 N131 N 0.33266 0.24536 -0.25004
 N132 N 0.31967 0.22159 -0.27004
 C133 C 0.34452 0.21155 -0.29178
 C134 C 0.37503 0.22971 -0.28477
 C135 C 0.36604 0.25189 -0.25885
 H136 H 0.34068 0.19213 -0.31099
 H137 H 0.38319 0.26946 -0.24552
 Cu138 Cu 0.27260 0.20340 -0.26362
 Cu139 Cu 0.30621 0.26269 -0.21168
 Cu140 Cu 0.23842 0.20778 -0.18519
 N141 N 0.23508 0.17251 -0.24878
 N142 N 0.22403 0.17202 -0.21712
 C143 C 0.20388 0.14354 -0.21185
 C144 C 0.20267 0.12503 -0.24178
 C145 C 0.22179 0.14496 -0.26493
 H146 H 0.19250 0.13589 -0.18766
 H147 H 0.22769 0.13867 -0.29101
 N148 N 0.25667 0.24619 -0.15737
 N149 N 0.28285 0.26654 -0.16730
 C150 C 0.28939 0.28985 -0.14300
 C151 C 0.26610 0.28419 -0.11641
 C152 C 0.24531 0.25666 -0.12681
 H153 H 0.30928 0.30994 -0.14479
 H154 H 0.22272 0.24589 -0.11367
 H155 H 0.28806 0.21336 -0.20515
 H156 H 0.25525 0.24434 -0.21980
 N157 N 0.65953 0.25390 -0.23925
 N158 N 0.66061 0.28632 -0.24878
 C159 C 0.63707 0.29123 -0.27292
 C160 C 0.62074 0.25988 -0.28017
 C161 C 0.63545 0.23688 -0.25756
 H162 H 0.63135 0.31632 -0.28298
 H163 H 0.62925 0.20974 -0.25457
 Cu164 Cu 0.69360 0.31932 -0.23061
 Cu165 Cu 0.68752 0.23734 -0.20187
 Cu166 Cu 0.74528 0.29743 -0.16761
 N167 N 0.73657 0.34473 -0.22217
 N168 N 0.75629 0.33658 -0.19666
 C169 C 0.78333 0.35902 -0.19524
 C170 C 0.78113 0.38183 -0.22215
 C171 C 0.75075 0.37232 -0.23840
 H172 H 0.80294 0.35887 -0.17589
 H173 H 0.73969 0.38472 -0.26023
 N174 N 0.73998 0.25007 -0.15108
 N175 N 0.71807 0.22689 -0.16345
 C176 C 0.72001 0.19769 -0.14486
 C177 C 0.74494 0.20283 -0.12026
 C178 C 0.75691 0.23626 -0.12513
 H179 H 0.70375 0.17490 -0.14816
 H180 H 0.77624 0.24980 -0.11032
 H181 H 0.69355 0.28362 -0.17901
 H182 H 0.72809 0.27241 -0.21027
 N183 N 0.16141 0.75181 0.26141
 N184 N 0.17181 0.77716 0.24116
 C185 C 0.15097 0.77802 0.21412
 C186 C 0.12631 0.75182 0.21760
 C187 C 0.13330 0.73593 0.24810
 H188 H 0.15299 0.79664 0.19364
 H189 H 0.11912 0.71437 0.25955
 Cu190 Cu 0.21104 0.80697 0.25247
 Cu191 Cu 0.18623 0.74041 0.30253
 Cu192 Cu 0.25826 0.79205 0.32150
 N193 N 0.25004 0.83693 0.26424
 N194 N 0.26922 0.83023 0.29062
 C195 C 0.29550 0.85363 0.29197
 C196 C 0.29287 0.87619 0.26474
 C197 C 0.26311 0.86515 0.24823
 H198 H 0.31431 0.85491 0.31205
 H199 H 0.25258 0.87621 0.22547
 N200 N 0.24274 0.75234 0.34961
 N201 N 0.21506 0.73303 0.34269
 C202 C 0.21236 0.70710 0.36547
 C203 C 0.23980 0.71009 0.38739
 C204 C 0.25835 0.73918 0.37697
 H205 H 0.19285 0.68662 0.36533
 H206 H 0.28210 0.74917 0.38787
 H207 H 0.20577 0.78947 0.31173
 H208 H 0.23388 0.76047 0.28658
 N209 N 0.48366 0.38526 0.50407
 N210 N 0.45113 0.38675 0.51406
 C211 C 0.44265 0.35797 0.53197
 C212 C 0.47162 0.33735 0.53339
 C213 C 0.49734 0.35648 0.51629
 H214 H 0.41761 0.35301 0.54389
 H215 H 0.52447 0.35076 0.51349
 Cu216 Cu 0.42501 0.42825 0.50591
 Cu217 Cu 0.50606 0.41951 0.47455
 Cu218 Cu 0.45229 0.48091 0.44301
 N219 N 0.40837 0.47517 0.50197
 N220 N 0.41999 0.49570 0.47751
 C221 C 0.40385 0.52576 0.47916
 C222 C 0.38098 0.52439 0.50634
 C223 C 0.38406 0.49166 0.52007
 H224 H 0.40716 0.54646 0.46082
 H225 H 0.36901 0.48040 0.54086
 N226 N 0.49596 0.46971 0.42098
 N227 N 0.51701 0.44654 0.43302
 C228 C 0.54260 0.44166 0.41006
 C229 C 0.53685 0.46258 0.38229
 C230 C 0.50760 0.48061 0.39047
 H231 H 0.56233 0.42255 0.41228
 H232 H 0.49458 0.49876 0.37445
 H233 H 0.47527 0.46140 0.48388
 H234 H 0.45914 0.42793 0.45360
 N235 N -0.00774 -0.10675 0.98394
 N236 N -0.03549 -0.09869 1.00158
 C237 C -0.03988 -0.12071 1.02777
 C238 C -0.01324 -0.14364 1.02690
 C239 C 0.00653 -0.13442 0.99845
 H240 H -0.05963 -0.11884 1.04734
 H241 H 0.03044 -0.14581 0.99008
 Cu242 Cu -0.06079 -0.05761 0.99215
 Cu243 Cu 0.00957 -0.07771 0.94630
 Cu244 Cu -0.04463 -0.01242 0.92124
 N245 N -0.07594 -0.01083 0.98740
 N246 N -0.07054 0.00660 0.95910
 C247 C -0.08707 0.03654 0.96108
 C248 C -0.10311 0.03828 0.99266
 C249 C -0.09569 0.00756 1.00856
 H250 H -0.08879 0.05485 0.94043
 H251 H -0.10525 -0.00143 1.03304
 N252 N -0.00509 -0.02728 0.89354
 N253 N 0.01611 -0.05148 0.90328
 C254 C 0.04090 -0.05492 0.87921
 C255 C 0.03471 -0.03202 0.85309
 C256 C 0.00560 -0.01466 0.86318
 H257 H 0.06173 -0.07296 0.88033
 H258 H -0.00666 0.00587 0.84955
 H259 H -0.01417 -0.03158 0.95761
 H260 H -0.03939 -0.06486 0.93385
 N261 N 1.01042 0.59323 0.99516
 N262 N 1.03699 0.58216 1.01224
 C263 C 1.04072 0.60116 1.04045
 C264 C 1.01477 0.62508 1.04128
 C265 C 0.99633 0.61959 1.01187
 H266 H 1.06144 0.59871 1.05843
 H267 H 0.97481 0.63427 1.00288
 Cu268 Cu 1.06531 0.54561 0.99451
 Cu269 Cu 0.99819 0.57478 0.95103
 Cu270 Cu 1.03479 0.49647 0.93143
 N271 N 1.09243 0.50881 0.97552
 N272 N 1.08023 0.48920 0.95116
 C273 C 1.10342 0.46490 0.94389
 C274 C 1.13192 0.47012 0.96434
 C275 C 1.12391 0.49792 0.98434
 H276 H 1.09988 0.44502 0.92510
 H277 H 1.13971 0.50895 1.00415
 N278 N 0.99547 0.51547 0.90643
 N279 N 0.98160 0.54520 0.91403
 C280 C 0.95551 0.55115 0.89261
 C281 C 0.95306 0.52402 0.87035
 C282 C 0.97891 0.50199 0.87951
 H283 H 0.93967 0.57370 0.89287
 H284 H 0.98524 0.47806 0.86737
 H285 H 1.01104 0.52751 0.96787
 H286 H 1.04265 0.54780 0.93708
 N287 N 0.48984 0.07147 0.50423
 N288 N 0.50733 0.05329 0.52604
 C289 C 0.51278 0.07196 0.55412
 C290 C 0.49933 0.10422 0.54902
 C291 C 0.48414 0.10268 0.51745
 H292 H 0.52808 0.06376 0.57535
 H293 H 0.47186 0.12347 0.50424
 Cu294 Cu 0.52974 0.01158 0.51230
 Cu295 Cu 0.47821 0.05399 0.45947
 Cu296 Cu 0.52105 -0.01887 0.43362
 N297 N 0.56451 -0.01719 0.49198
 N298 N 0.56152 -0.02885 0.46091
 C299 C 0.59014 -0.04631 0.45271
 C300 C 0.61244 -0.04464 0.47989
 C301 C 0.59518 -0.02638 0.50449
 H302 H 0.59486 -0.05833 0.42849
 H303 H 0.60465 -0.01953 0.52931
 N304 N 0.48613 0.00377 0.40567
 N305 N 0.46979 0.03150 0.41557
 C306 C 0.44666 0.03995 0.39185
 C307 C 0.44864 0.01645 0.36589
 C308 C 0.47410 -0.00593 0.37520
 H309 H 0.42915 0.06116 0.39352
 H310 H 0.48252 -0.02810 0.36121
 H311 H 0.48619 0.00247 0.46829
 H312 H 0.52454 0.02906 0.45357
 N313 N -0.02305 0.11454 0.51522
 N314 N -0.05229 0.10584 0.50038
 C315 C -0.05877 0.12899 0.47590
 C316 C -0.03215 0.15348 0.47550
 C317 C -0.00977 0.14347 0.50058
 H318 H -0.08085 0.12786 0.45928
 H319 H 0.01430 0.15623 0.50762
 Cu320 Cu -0.07894 0.06480 0.51396
 Cu321 Cu -0.00529 0.08763 0.55282
 Cu322 Cu -0.03232 0.00214 0.54884
 N323 N -0.09811 0.01852 0.52031
 N324 N -0.07932 -0.00619 0.53273
 C325 C -0.09809 -0.03584 0.53272
 C326 C -0.13083 -0.02916 0.52064
 C327 C -0.12968 0.00555 0.51246
 H328 H -0.08857 -0.06042 0.54094
 H329 H -0.15029 0.02018 0.50157
 N330 N 0.00762 0.01823 0.57592
 N331 N 0.01723 0.05096 0.57825
 C332 C 0.04312 0.05403 0.60066
 C333 C 0.05042 0.02159 0.61284
 C334 C 0.02713 -0.00043 0.59691
 H335 H 0.05535 0.07812 0.60810
 H336 H 0.02368 -0.02779 0.60143
 H337 H -0.01926 0.04792 0.52332
 H338 H -0.04499 0.05045 0.56366
 N339 N 0.48199 0.58765 0.00774
 N340 N 0.47405 0.56968 -0.01923
 C341 C 0.47289 0.59080 -0.04623
 C342 C 0.47810 0.62454 -0.03547
 C343 C 0.48447 0.62121 -0.00093
 H344 H 0.46853 0.58179 -0.07168
 H345 H 0.49049 0.64157 0.01673
 Cu346 Cu 0.45963 0.52168 -0.01564
 Cu347 Cu 0.48997 0.56525 0.05137
 Cu348 Cu 0.47997 0.47648 0.05311
 N349 N 0.43270 0.48067 -0.00203
 N350 N 0.44051 0.46279 0.02512
 C351 C 0.41533 0.43871 0.03108
 C352 C 0.39054 0.44182 0.00630
 C353 C 0.40232 0.46868 -0.01423
 H354 H 0.41374 0.42216 0.05324
 H355 H 0.38845 0.48042 -0.03479
 N356 N 0.50645 0.50188 0.08737
 N357 N 0.50925 0.53583 0.08746
 C358 C 0.52789 0.54567 0.11452
 C359 C 0.53683 0.51650 0.13234
 C360 C 0.52312 0.48919 0.11427
 H361 H 0.53445 0.57204 0.12090
 H362 H 0.52443 0.46216 0.12070
 H363 H 0.50311 0.52051 0.02819
 H364 H 0.45808 0.52238 0.04613
 N365 N 0.50788 -0.07329 -0.00853
 N366 N 0.53671 -0.06596 -0.02553
 C367 C 0.54426 -0.09266 -0.04572
 C368 C 0.51903 -0.11831 -0.04058
 C369 C 0.49606 -0.10480 -0.01728
 H370 H 0.56633 -0.09331 -0.06291
 H371 H 0.47263 -0.11716 -0.00718
 Cu372 Cu 0.56214 -0.02258 -0.01851
 Cu373 Cu 0.48891 -0.04155 0.02455
 Cu374 Cu 0.55603 0.00325 0.06267
 N375 N 0.59492 0.01066 0.00030
 N376 N 0.59466 0.01729 0.03289
 C377 C 0.62417 0.03440 0.04070
 C378 C 0.64410 0.03922 0.01133
 C379 C 0.62373 0.02491 -0.01406
 H380 H 0.63096 0.04186 0.06616
 H381 H 0.62971 0.02381 -0.04088
 N382 N 0.50909 -0.00201 0.08330
 N383 N 0.48325 -0.01826 0.06806
 C384 C 0.45463 -0.01725 0.08780
 C385 C 0.46262 0.00092 0.11679
 C386 C 0.49748 0.00994 0.11326
 H387 H 0.42999 -0.02959 0.08190
 H388 H 0.51332 0.02353 0.13150
 H389 H 0.52301 0.00267 0.02276
 H390 H 0.53930 -0.03981 0.03720
 N391 N 1.01403 0.41342 0.51338
 N392 N 1.04754 0.41336 0.50673
 C393 C 1.05385 0.39066 0.48188
 C394 C 1.02251 0.37619 0.47217
 C395 C 0.99784 0.39085 0.49289
 H396 H 1.07901 0.38653 0.47039
 H397 H 0.97009 0.38609 0.49235
 Cu398 Cu 1.07909 0.44668 0.52691
 Cu399 Cu 0.99374 0.44326 0.54744
 Cu400 Cu 1.04837 0.50656 0.57914
 N401 N 1.10299 0.49067 0.53296
 N402 N 1.08938 0.51517 0.55112
 C403 C 1.10936 0.54392 0.54802
 C404 C 1.13699 0.53715 0.52645
 C405 C 1.13248 0.50272 0.51818
 H406 H 1.10413 0.56788 0.56063
 H407 H 1.14928 0.48740 0.50255
 N408 N 1.00068 0.49920 0.59564
 N409 N 0.97925 0.47587 0.58284
 C410 C 0.94911 0.47615 0.60047
 C411 C 0.95174 0.50090 0.62554
 C412 C 0.98503 0.51465 0.62184
 H413 H 0.92746 0.45844 0.59656
 H414 H 0.99764 0.53313 0.63828
 H415 H 1.02940 0.48228 0.53722
 H416 H 1.03795 0.45337 0.57412
 C417 C 0.37018 0.00597 0.23825
 C418 C 0.13044 -0.01008 0.73540
 C419 C 0.61496 0.49782 0.25931
 C420 C 0.86380 0.51014 0.74970
 C421 C 0.24806 0.38211 -0.00337
 C422 C 0.77618 0.12234 0.00283
 C423 C 0.26630 0.62094 0.50510
 C424 C 0.74452 0.88408 0.49655
 C425 C -0.00840 0.26564 0.37416
 C426 C 0.00378 0.74739 0.13012
 C427 C 0.50164 0.22908 0.63391
 C428 C 0.49303 0.75320 0.88205
 C429 C 0.05527 0.22241 0.30781
 C430 C 0.08503 0.24416 0.31053
 C431 C 0.08489 0.27093 0.33371
 C432 C 0.05613 0.27668 0.35425
 C433 C 0.02529 0.25599 0.35283
 C434 C 0.02574 0.22742 0.32950
 C435 C 0.05405 0.19603 0.28332
 C436 C 0.02544 0.17370 0.28122
 C437 C -0.00237 0.17696 0.30348
 C438 C -0.00224 0.20321 0.32732
 H439 H 0.07500 0.19249 0.26534
 H440 H 0.02502 0.15350 0.26246
 H441 H -0.02424 0.15899 0.30233
 H442 H -0.02405 0.20325 0.34443
 H443 H 0.10743 0.28801 0.33577
 H444 H 0.05824 0.29925 0.36980
 C445 C 0.56489 0.78124 0.81333
 C446 C 0.58191 0.74975 0.80891
 C447 C 0.57032 0.72095 0.82729
 C448 C 0.54223 0.72237 0.84941
 C449 C 0.52312 0.75270 0.85423
 C450 C 0.53474 0.78268 0.83491
 C451 C 0.57773 0.81161 0.79716
 C452 C 0.56034 0.84235 0.80015
 C453 C 0.52975 0.84342 0.81894
 C454 C 0.51699 0.81410 0.83588
 H455 H 0.60154 0.81210 0.78241
 H456 H 0.57040 0.86534 0.78742
 H457 H 0.51572 0.86714 0.82038
 H458 H 0.49240 0.81639 0.84854
 H459 H 0.58319 0.69666 0.82448
 H460 H 0.53661 0.69893 0.86333
 C461 C 0.39165 0.74774 0.86697
 C462 C 0.39087 0.75185 0.83138
 C463 C 0.42165 0.75849 0.81350
 C464 C 0.45319 0.76059 0.82981
 C465 C 0.45603 0.75647 0.86538
 C466 C 0.42391 0.75104 0.88433
 C467 C 0.36098 0.73938 0.88559
 C468 C 0.36138 0.73601 0.92070
 C469 C 0.39215 0.74102 0.93798
 C470 C 0.42290 0.74853 0.92022
 H471 H 0.33642 0.73497 0.87328
 H472 H 0.33763 0.72975 0.93459
 H473 H 0.39225 0.73905 0.96536
 H474 H 0.44549 0.75307 0.93535
 H475 H 0.42142 0.76159 0.78617
 H476 H 0.47542 0.76346 0.81321
 C477 C -0.05841 0.29340 0.29142
 C478 C -0.09064 0.27562 0.29697
 C479 C -0.09508 0.25495 0.32576
 C480 C -0.06842 0.25052 0.34841
 C481 C -0.03689 0.26989 0.34628
 C482 C -0.03215 0.29206 0.31684
 C483 C -0.05296 0.31536 0.26292
 C484 C -0.02290 0.33565 0.25935
 C485 C 0.00156 0.33597 0.28472
 C486 C -0.00337 0.31522 0.31334
 H487 H -0.07205 0.31807 0.24346
 H488 H -0.01927 0.35231 0.23741
 H489 H 0.02404 0.35317 0.28272
 H490 H 0.01465 0.31946 0.33336
 H491 H -0.11923 0.24054 0.33007
 H492 H -0.07341 0.23132 0.36773
 C493 C -0.07365 0.77356 0.19230
 C494 C -0.09423 0.74286 0.19213
 C495 C -0.08597 0.71751 0.16882
 C496 C -0.05647 0.72052 0.14840
 C497 C -0.03119 0.74739 0.15226
 C498 C -0.04138 0.77543 0.17376
 C499 C -0.08507 0.80298 0.20961
 C500 C -0.06415 0.83255 0.21154
 C501 C -0.03166 0.83354 0.19608
 C502 C -0.02054 0.80552 0.17745
 H503 H -0.11069 0.80392 0.22090
 H504 H -0.07318 0.85477 0.22514
 H505 H -0.01510 0.85633 0.19813
 H506 H 0.00472 0.80781 0.16655
 H507 H -0.10223 0.69455 0.16649
 H508 H -0.05393 0.70051 0.12988
 C509 C 0.42144 0.19377 0.69007
 C510 C 0.40821 0.22602 0.70029
 C511 C 0.42968 0.25539 0.69643
 C512 C 0.46010 0.25459 0.67725
 C513 C 0.47063 0.22451 0.66050
 C514 C 0.45383 0.19271 0.67175
 C515 C 0.40537 0.16240 0.70127
 C516 C 0.41998 0.13089 0.69439
 C517 C 0.45201 0.12979 0.67834
 C518 C 0.46923 0.16012 0.66830
 H519 H 0.38256 0.16156 0.71737
 H520 H 0.40726 0.10729 0.70328
 H521 H 0.46431 0.10532 0.67485
 H522 H 0.49547 0.15704 0.65979
 H523 H 0.42165 0.28007 0.70593
 H524 H 0.47418 0.27871 0.67311
 C525 C 0.58480 0.27626 0.67017
 C526 C 0.59309 0.25345 0.69713
 C527 C 0.57051 0.22520 0.70357
 C528 C 0.54121 0.21925 0.68408
 C529 C 0.53226 0.24141 0.65715
 C530 C 0.55166 0.27344 0.65466
 C531 C 0.60865 0.30152 0.65736
 C532 C 0.59755 0.32820 0.63677
 C533 C 0.56265 0.33016 0.62899
 C534 C 0.53973 0.30330 0.63828
 H535 H 0.63599 0.30068 0.66282
 H536 H 0.61579 0.34805 0.62799
 H537 H 0.55339 0.35217 0.61517
 H538 H 0.51276 0.30702 0.63326
 H539 H 0.57503 0.20734 0.72409
 H540 H 0.52622 0.19606 0.68948
 C541 C 0.10115 0.74100 0.15965
 C542 C 0.09676 0.74522 0.19494
 C543 C 0.06356 0.74704 0.20871
 C544 C 0.03475 0.74719 0.18808
 C545 C 0.03740 0.74614 0.15219
 C546 C 0.07182 0.74232 0.13788
 C547 C 0.13448 0.73586 0.14558
 C548 C 0.13951 0.73392 0.11070
 C549 C 0.11169 0.73776 0.08921
 C550 C 0.07850 0.74230 0.10249
 H551 H 0.15692 0.73312 0.16144
 H552 H 0.16523 0.73018 0.10028
 H553 H 0.11589 0.73765 0.06202
 H554 H 0.05890 0.74762 0.08441
 H555 H 0.05986 0.74957 0.23586
 H556 H 0.01020 0.74787 0.20130
 C557 C 0.30051 0.06532 0.19414
 C558 C 0.29693 0.09105 0.21910
 C559 C 0.31614 0.08896 0.24856
 C560 C 0.33885 0.06248 0.25384
 C561 C 0.34330 0.03533 0.23043
 C562 C 0.32372 0.03751 0.19945
 C563 C 0.28028 0.06586 0.16452
 C564 C 0.28339 0.04070 0.13990
 C565 C 0.30576 0.01385 0.14468
 C566 C 0.32516 0.01194 0.17409
 H567 H 0.26126 0.08521 0.16020
 H568 H 0.26776 0.04162 0.11734
 H569 H 0.30739 -0.00623 0.12588
 H570 H 0.33952 -0.01098 0.17711
 H571 H 0.31418 0.10873 0.26769
 H572 H 0.35365 0.06461 0.27672
 C573 C 0.79615 0.57137 0.70608
 C574 C 0.79522 0.59830 0.72993
 C575 C 0.81434 0.59593 0.75940
 C576 C 0.83531 0.56815 0.76532
 C577 C 0.83762 0.54014 0.74261
 C578 C 0.81690 0.54200 0.71233
 C579 C 0.77572 0.57254 0.67660
 C580 C 0.77579 0.54587 0.65333
 C581 C 0.79529 0.51710 0.65934
 C582 C 0.81509 0.51492 0.68849
 H583 H 0.75896 0.59370 0.67138
 H584 H 0.76001 0.54720 0.63089
 H585 H 0.79450 0.49591 0.64167
 H586 H 0.82733 0.49089 0.69246
 H587 H 0.81397 0.61656 0.77774
 H588 H 0.85084 0.57006 0.78774
 C589 C 0.84070 0.41166 0.77084
 C590 C 0.80402 0.41216 0.76996
 C591 C 0.78798 0.44268 0.76198
 C592 C 0.80704 0.47267 0.75552
 C593 C 0.84381 0.47436 0.75614
 C594 C 0.86080 0.44274 0.76469
 C595 C 0.85795 0.38048 0.77633
 C596 C 0.89389 0.37977 0.77780
 C597 C 0.91353 0.40973 0.77269
 C598 C 0.89739 0.44054 0.76571
 H599 H 0.84412 0.35608 0.77865
 H600 H 0.90660 0.35567 0.78221
 H601 H 0.94156 0.40893 0.77303
 H602 H 0.91442 0.46175 0.75921
 H603 H 0.75993 0.44371 0.76167
 H604 H 0.79166 0.49499 0.75145
 C605 C 0.35053 -0.09288 0.26073
 C606 C 0.31397 -0.09464 0.25645
 C607 C 0.29761 -0.06578 0.24374
 C608 C 0.31547 -0.03489 0.23819
 C609 C 0.35166 -0.03087 0.24286
 C610 C 0.36950 -0.06121 0.25394
 C611 C 0.36918 -0.12275 0.26870
 C612 C 0.40492 -0.12141 0.27254
 C613 C 0.42329 -0.09083 0.26685
 C614 C 0.40608 -0.06150 0.25696
 H615 H 0.35687 -0.14791 0.27060
 H616 H 0.41858 -0.14452 0.27886
 H617 H 0.45128 -0.09012 0.26877
 H618 H 0.42248 -0.04000 0.24981
 H619 H 0.26975 -0.06608 0.24038
 H620 H 0.29935 -0.01371 0.23189
 C621 C 0.20471 -0.07736 0.75109
 C622 C 0.18680 -0.10800 0.74102
 C623 C 0.15197 -0.10605 0.73215
 C624 C 0.13499 -0.07503 0.73281
 C625 C 0.15216 -0.04348 0.74045
 C626 C 0.18637 -0.04599 0.75472
 C627 C 0.24096 -0.07668 0.75635
 C628 C 0.25748 -0.04844 0.77106
 C629 C 0.23828 -0.02055 0.78097
 C630 C 0.20318 -0.01943 0.77334
 H631 H 0.25705 -0.09765 0.74872
 H632 H 0.28509 -0.04862 0.77561
 H633 H 0.25075 0.00069 0.79406
 H634 H 0.19024 0.00265 0.78276
 H635 H 0.13717 -0.12897 0.72526
 H636 H 0.10845 -0.07564 0.72478
 C637 C 0.70126 0.44341 0.24873
 C638 C 0.68626 0.41212 0.23708
 C639 C 0.65052 0.40972 0.23300
 C640 C 0.62965 0.43726 0.24043
 C641 C 0.64285 0.46902 0.25293
 C642 C 0.67952 0.47034 0.26049
 C643 C 0.73768 0.44822 0.24962
 C644 C 0.75262 0.47613 0.26633
 C645 C 0.73162 0.49894 0.28328
 C646 C 0.69566 0.49566 0.28108
 H647 H 0.75490 0.43046 0.23744
 H648 H 0.78056 0.47919 0.26738
 H649 H 0.74320 0.51922 0.29840
 H650 H 0.68145 0.51215 0.29737
 H651 H 0.63830 0.38593 0.22456
 H652 H 0.60233 0.43339 0.23622
 C653 C 0.65673 0.58170 0.30289
 C654 C 0.67741 0.59379 0.27506
 C655 C 0.67551 0.57634 0.24446
 C656 C 0.65460 0.54712 0.24105
 C657 C 0.63264 0.53400 0.26747
 C658 C 0.63159 0.55410 0.29850
 C659 C 0.66137 0.59583 0.33550
 C660 C 0.63886 0.58724 0.36214
 C661 C 0.61130 0.56453 0.35687
 C662 C 0.60755 0.54835 0.32570
 H663 H 0.68285 0.61310 0.34111
 H664 H 0.64246 0.59875 0.38679
 H665 H 0.59289 0.55891 0.37726
 H666 H 0.58485 0.53212 0.32416
 H667 H 0.69106 0.58494 0.22279
 H668 H 0.65684 0.53370 0.21725
 C669 C 0.20287 0.06498 0.73250
 C670 C 0.18698 0.09006 0.75294
 C671 C 0.15449 0.08241 0.76737
 C672 C 0.13746 0.05097 0.76174
 C673 C 0.15162 0.02513 0.74081
 C674 C 0.18401 0.03414 0.72384
 C675 C 0.23777 0.06926 0.72135
 C676 C 0.25244 0.04634 0.69879
 C677 C 0.23294 0.01846 0.68736
 C678 C 0.19942 0.01243 0.69990
 H679 H 0.25452 0.08968 0.73063
 H680 H 0.27903 0.05022 0.69019
 H681 H 0.24418 0.00072 0.66954
 H682 H 0.18645 -0.00996 0.69145
 H683 H 0.14167 0.10131 0.78284
 H684 H 0.11204 0.04786 0.77332
 C685 C 0.20179 0.34770 0.08233
 C686 C 0.22679 0.32342 0.09175
 C687 C 0.25734 0.32165 0.07285
 C688 C 0.26303 0.34198 0.04430
 C689 C 0.23900 0.36637 0.03292
 C690 C 0.20886 0.37147 0.05475
 C691 C 0.16925 0.34812 0.09926
 C692 C 0.14576 0.37368 0.09273
 C693 C 0.15416 0.39938 0.06939
 C694 C 0.18510 0.39850 0.05087
 H695 H 0.16121 0.32845 0.11734
 H696 H 0.12118 0.37388 0.10629
 H697 H 0.13637 0.42004 0.06525
 H698 H 0.18936 0.42016 0.03437
 H699 H 0.27692 0.30345 0.07967
 H700 H 0.28620 0.33686 0.02970
 C701 C 0.71768 0.84290 0.58611
 C702 C 0.71121 0.80844 0.57659
 C703 C 0.71233 0.79967 0.54253
 C704 C 0.72131 0.82404 0.51779
 C705 C 0.73166 0.85833 0.52584
 C706 C 0.72707 0.86818 0.56085
 C707 C 0.71578 0.85256 0.62061
 C708 C 0.72198 0.88645 0.63024
 C709 C 0.73051 0.91122 0.60591
 C710 C 0.73312 0.90215 0.57192
 H711 H 0.70960 0.83414 0.64056
 H712 H 0.72034 0.89348 0.65672
 H713 H 0.73564 0.93759 0.61343
 H714 H 0.74093 0.92194 0.55487
 H715 H 0.70623 0.77349 0.53492
 H716 H 0.71969 0.81527 0.49196
 C717 C 0.74211 0.84805 0.40198
 C718 C 0.76197 0.81837 0.40692
 C719 C 0.77985 0.81451 0.43706
 C720 C 0.77522 0.83714 0.46370
 C721 C 0.75183 0.86452 0.46207
 C722 C 0.73881 0.87260 0.42876
 C723 C 0.72741 0.85489 0.37005
 C724 C 0.71108 0.88567 0.36373
 C725 C 0.71045 0.91082 0.38840
 C726 C 0.72483 0.90484 0.42002
 H727 H 0.72933 0.83718 0.34919
 H728 H 0.70020 0.89060 0.33907
 H729 H 0.69942 0.93552 0.38278
 H730 H 0.72605 0.92675 0.43628
 H731 H 0.79670 0.79293 0.44053
 H732 H 0.78872 0.83175 0.48680
 C733 C 0.24825 0.29387 -0.05450
 C734 C 0.26138 0.30636 -0.08612
 C735 C 0.26706 0.34172 -0.09038
 C736 C 0.26128 0.36436 -0.06404
 C737 C 0.24891 0.35333 -0.03173
 C738 C 0.23794 0.31759 -0.02885
 C739 C 0.24461 0.25819 -0.04786
 C740 C 0.22613 0.24601 -0.01953
 C741 C 0.21030 0.26907 0.00202
 C742 C 0.21551 0.30436 -0.00294
 H743 H 0.25605 0.23941 -0.06437
 H744 H 0.22292 0.21860 -0.01507
 H745 H 0.19393 0.25961 0.02275
 H746 H 0.20044 0.32056 0.01304
 H747 H 0.27611 0.35226 -0.11449
 H748 H 0.26757 0.39113 -0.06893
 C749 C 0.76596 0.14628 -0.09513
 C750 C 0.75467 0.18040 -0.09153
 C751 C 0.76004 0.19672 -0.06073
 C752 C 0.77228 0.17910 -0.03307
 C753 C 0.77623 0.14291 -0.03284
 C754 C 0.78041 0.12896 -0.06643
 C755 C 0.76767 0.13084 -0.12740
 C756 C 0.78687 0.10148 -0.13245
 C757 C 0.80640 0.08865 -0.10616
 C758 C 0.80429 0.10322 -0.07403
 H759 H 0.75606 0.14217 -0.14940
 H760 H 0.78864 0.09022 -0.15741
 H761 H 0.82393 0.06786 -0.11083
 H762 H 0.82293 0.09495 -0.05610
 H763 H 0.75497 0.22384 -0.05780
 H764 H 0.77753 0.19502 -0.01144
 C765 C 0.27916 0.66645 0.41413
 C766 C 0.24853 0.68569 0.41462
 C767 C 0.22440 0.68057 0.44064
 C768 C 0.23120 0.65910 0.46771
 C769 C 0.26233 0.64052 0.47021
 C770 C 0.28555 0.64212 0.44083
 C771 C 0.30272 0.66984 0.38643
 C772 C 0.33159 0.64943 0.38401
 C773 C 0.33674 0.62418 0.40813
 C774 C 0.31379 0.61996 0.43547
 H775 H 0.29878 0.68767 0.36581
 H776 H 0.34927 0.65229 0.36257
 H777 H 0.35821 0.60699 0.40518
 H778 H 0.31809 0.59742 0.45018
 H779 H 0.20049 0.69462 0.44083
 H780 H 0.21231 0.65869 0.48825
 C781 C 0.26460 0.70007 0.57003
 C782 C 0.26476 0.68054 0.60045
 C783 C 0.27070 0.64554 0.59906
 C784 C 0.27311 0.62884 0.56834
 C785 C 0.26987 0.64602 0.53669
 C786 C 0.26899 0.68341 0.53783
 C787 C 0.26222 0.73632 0.57130
 C788 C 0.26480 0.75633 0.54209
 C789 C 0.27147 0.74100 0.51126
 C790 C 0.27444 0.70546 0.50923
 H791 H 0.25937 0.74990 0.59489
 H792 H 0.26305 0.78403 0.54359
 H793 H 0.27537 0.75685 0.48877
 H794 H 0.28324 0.69691 0.48499
 H795 H 0.27215 0.63051 0.62223
 H796 H 0.27501 0.60114 0.56961
 C797 C 0.74274 0.19934 0.05968
 C798 C 0.76896 0.20088 0.08455
 C799 C 0.79421 0.17585 0.08445
 C800 C 0.79547 0.15091 0.05962
 C801 C 0.77126 0.14908 0.03297
 C802 C 0.74226 0.17201 0.03549
 C803 C 0.71769 0.22513 0.05730
 C804 C 0.69056 0.22233 0.03452
 C805 C 0.68820 0.19437 0.01299
 C806 C 0.71376 0.16977 0.01308
 H807 H 0.71912 0.24825 0.07218
 H808 H 0.67141 0.24216 0.03338
 H809 H 0.66710 0.19233 -0.00476
 H810 H 0.71146 0.14988 -0.00574
 H811 H 0.81370 0.17548 0.10397
 H812 H 0.81631 0.13314 0.06207
 C813 C 0.50567 0.28441 0.54910
 C814 C 0.47609 0.30476 0.55310
 C815 C 0.45241 0.29571 0.57893
 C816 C 0.45969 0.27009 0.60247
 C817 C 0.49308 0.25569 0.60467
 C818 C 0.51641 0.26331 0.57654
 C819 C 0.52477 0.28428 0.51831
 C820 C 0.55680 0.26874 0.51631
 C821 C 0.57025 0.25338 0.54494
 C822 C 0.55039 0.25095 0.57466
 H823 H 0.51481 0.29575 0.49548
 H824 H 0.57158 0.26946 0.49278
 H825 H 0.59598 0.24292 0.54408
 H826 H 0.56246 0.24050 0.59624
 H827 H 0.42800 0.30860 0.58131
 H828 H 0.43855 0.26259 0.61924
 C829 C 0.02418 0.83211 0.07362
 C830 C -0.00611 0.83078 0.05375
 C831 C -0.03273 0.80741 0.06233
 C832 C -0.02883 0.78332 0.08793
 C833 C 0.00209 0.78082 0.10671
 C834 C 0.02773 0.80864 0.10168
 C835 C 0.05008 0.85795 0.06736
 C836 C 0.07846 0.86178 0.08834
 C837 C 0.08081 0.84132 0.11695
 C838 C 0.05553 0.81601 0.12407
 H839 H 0.04844 0.87624 0.04682
 H840 H 0.09792 0.88178 0.08319
 H841 H 0.10190 0.84571 0.13438
 H842 H 0.05791 0.80453 0.14857
 H843 H -0.05672 0.80713 0.04832
 H844 H -0.04982 0.76455 0.09144
 C845 C 0.01092 0.64971 0.10102
 C846 C 0.01067 0.65386 0.06537
 C847 C 0.00666 0.68649 0.05164
 C848 C 0.00412 0.71516 0.07205
 C849 C 0.00490 0.71326 0.10799
 C850 C 0.00788 0.67915 0.12254
 C851 C 0.01263 0.61654 0.11575
 C852 C 0.01222 0.61203 0.15073
 C853 C 0.00901 0.64018 0.17176
 C854 C 0.00634 0.67306 0.15800
 H855 H 0.01345 0.59358 0.10055
 H856 H 0.01359 0.58644 0.16155
 H857 H 0.00768 0.63645 0.19898
 H858 H 0.00128 0.69297 0.17582
 H859 H 0.00674 0.69018 0.02437
 H860 H 0.00375 0.73911 0.05830
 C861 C 0.53577 0.14565 0.58491
 C862 C 0.50373 0.13526 0.57042
 C863 C 0.47483 0.15513 0.57559
 C864 C 0.47646 0.18416 0.59557
 C865 C 0.50683 0.19507 0.61280
 C866 C 0.53772 0.17493 0.60711
 C867 C 0.56644 0.12831 0.57620
 C868 C 0.59788 0.13681 0.59093
 C869 C 0.59995 0.16364 0.61358
 C870 C 0.57083 0.18269 0.62105
 H871 H 0.56702 0.10864 0.55710
 H872 H 0.62093 0.12298 0.58414
 H873 H 0.62474 0.17075 0.62445
 H874 H 0.57678 0.20460 0.63591
 H875 H 0.45031 0.14793 0.56418
 H876 H 0.45268 0.19814 0.59835
 C877 C -0.05110 0.20994 0.45009
 C878 C -0.02755 0.18284 0.45174
 C879 C 0.00144 0.18349 0.43054
 C880 C 0.00670 0.20939 0.40652
 C881 C -0.01731 0.23603 0.40139
 C882 C -0.04599 0.23690 0.42538
 C883 C -0.07914 0.21128 0.47345
 C884 C -0.10199 0.23832 0.47276
 C885 C -0.09740 0.26448 0.44894
 C886 C -0.06992 0.26381 0.42572
 H887 H -0.08338 0.19177 0.49285
 H888 H -0.12331 0.23901 0.49085
 H889 H -0.11535 0.28542 0.44831
 H890 H -0.06853 0.28420 0.40762
 H891 H 0.02038 0.16348 0.43246
 H892 H 0.03082 0.20811 0.39255
 C893 C 0.46464 0.65911 0.91076
 C894 C 0.47889 0.65698 0.94364
 C895 C 0.49637 0.68609 0.95618
 C896 C 0.50040 0.71612 0.93696
 C897 C 0.49078 0.71784 0.90249
 C898 C 0.47467 0.68708 0.88878
 C899 C 0.43963 0.63483 0.89933
 C900 C 0.42997 0.63397 0.86547
 C901 C 0.44492 0.65735 0.84252
 C902 C 0.46706 0.68354 0.85393
 H903 H 0.42637 0.61711 0.91660
 H904 H 0.41127 0.61478 0.85695
 H905 H 0.43857 0.65584 0.81591
 H906 H 0.47799 0.70079 0.83500
 H907 H 0.50666 0.68617 0.98155
 H908 H 0.51079 0.73803 0.95023
 C909 C 0.54148 0.82411 0.93817
 C910 C 0.51485 0.84828 0.94173
 C911 C 0.48248 0.84069 0.92836
 C912 C 0.47608 0.81067 0.91066
 C913 C 0.50140 0.78523 0.90576
 C914 C 0.53500 0.79248 0.92035
 C915 C 0.57420 0.83026 0.95298
 C916 C 0.60051 0.80670 0.94973
 C917 C 0.59461 0.77617 0.93254
 C918 C 0.56236 0.76893 0.91844
 H919 H 0.57973 0.85299 0.96773
 H920 H 0.62545 0.81190 0.96117
 H921 H 0.61493 0.75756 0.93075
 H922 H 0.55904 0.74386 0.90761
 H923 H 0.46186 0.85901 0.93055
 H924 H 0.45085 0.80913 0.89943
 C925 C -0.00767 0.35884 0.41820
 C926 C 0.01607 0.35194 0.44413
 C927 C 0.03149 0.32019 0.44553
 C928 C 0.02292 0.29471 0.42254
 C929 C -0.00215 0.29886 0.39686
 C930 C -0.01936 0.33186 0.39607
 C931 C -0.02038 0.39243 0.41442
 C932 C -0.04652 0.39925 0.39175
 C933 C -0.06133 0.37262 0.37342
 C934 C -0.04865 0.33949 0.37606
 H935 H -0.01016 0.41380 0.42897
 H936 H -0.05621 0.42503 0.38938
 H937 H -0.08326 0.37749 0.35737
 H938 H -0.06440 0.32067 0.36368
 H939 H 0.04996 0.31470 0.46519
 H940 H 0.03656 0.27086 0.42493
 C941 C 0.36164 0.58578 0.51218
 C942 C 0.35423 0.55002 0.51338
 C943 C 0.32001 0.53838 0.51674
 C944 C 0.29300 0.56113 0.51519
 C945 C 0.29848 0.59682 0.50829
 C946 C 0.33401 0.60941 0.50922
 C947 C 0.39624 0.59845 0.51386
 C948 C 0.40396 0.63351 0.51118
 C949 C 0.37751 0.65649 0.50651
 C950 C 0.34316 0.64462 0.50538
 H951 H 0.41757 0.58138 0.51775
 H952 H 0.43061 0.64284 0.51237
 H953 H 0.38361 0.68370 0.50360
 H954 H 0.32428 0.66332 0.50035
 H955 H 0.31388 0.51110 0.51913
 H956 H 0.26761 0.54954 0.51918
 C957 C 0.87427 0.09902 -0.00487
 C958 C 0.87110 0.06365 0.00358
 C959 C 0.84136 0.05174 0.02112
 C960 C 0.81266 0.07237 0.02432
 C961 C 0.81178 0.10468 0.00775
 C962 C 0.84477 0.12021 -0.00145
 C963 C 0.90641 0.11398 -0.01544
 C964 C 0.90967 0.14912 -0.02225
 C965 C 0.88139 0.17007 -0.01766
 C966 C 0.84949 0.15593 -0.00694
 H967 H 0.92957 0.09900 -0.01731
 H968 H 0.93452 0.16030 -0.03010
 H969 H 0.88435 0.19757 -0.02173
 H970 H 0.82943 0.17359 -0.00123
 H971 H 0.83912 0.02542 0.03021
 H972 H 0.78995 0.06123 0.03696
 C973 C 0.70569 0.04610 -0.01496
 C974 C 0.67977 0.05538 0.00896
 C975 C 0.68920 0.07869 0.03406
 C976 C 0.72131 0.09545 0.03364
 C977 C 0.74475 0.09412 0.00558
 C978 C 0.73848 0.06489 -0.01632
 C979 C 0.70129 0.01621 -0.03497
 C980 C 0.72730 0.00542 -0.05675
 C981 C 0.75930 0.02219 -0.05687
 C982 C 0.76504 0.05026 -0.03584
 H983 H 0.67910 -0.00095 -0.03245
 H984 H 0.72340 -0.01751 -0.07179
 H985 H 0.78050 0.01211 -0.07172
 H986 H 0.79139 0.05743 -0.03273
 H987 H 0.67151 0.08440 0.05466
 H988 H 0.72641 0.11075 0.05578
 C989 C 0.18617 0.55746 0.48669
 C990 C 0.16666 0.56067 0.51706
 C991 C 0.17675 0.58584 0.54013
 C992 C 0.20689 0.60551 0.53513
 C993 C 0.23089 0.59893 0.50851
 C994 C 0.21932 0.57458 0.48327
 C995 C 0.17299 0.53828 0.45917
 C996 C 0.19329 0.53260 0.43047
 C997 C 0.22693 0.54596 0.42859
 C998 C 0.23971 0.56659 0.45454
 H999 H 0.14658 0.52832 0.45910
 H1000 H 0.18297 0.51752 0.40977
 H1001 H 0.24311 0.54073 0.40668
 H1002 H 0.26586 0.57551 0.45187
 H1003 H 0.16134 0.59037 0.56272
 H1004 H 0.21056 0.62604 0.55301
 C1005 C 0.19732 0.46360 -0.03527
 C1006 C 0.16329 0.44910 -0.03355
 C1007 C 0.15883 0.41358 -0.03005
 C1008 C 0.18686 0.39311 -0.02292
 C1009 C 0.22069 0.40725 -0.01830
 C1010 C 0.22652 0.44213 -0.03031
 C1011 C 0.20291 0.49862 -0.04418
 C1012 C 0.23623 0.51208 -0.04992
 C1013 C 0.26436 0.49067 -0.04862
 C1014 C 0.25955 0.45605 -0.03997
 H1015 H 0.18166 0.51568 -0.04818
 H1016 H 0.24007 0.53887 -0.05704
 H1017 H 0.29004 0.50073 -0.05515
 H1018 H 0.28207 0.44071 -0.04289
 H1019 H 0.13309 0.40175 -0.03050
 H1020 H 0.18126 0.36619 -0.01794
 C1021 C 0.67701 0.96111 0.49109
 C1022 C 0.64742 0.94094 0.48246
 C1023 C 0.65030 0.90582 0.47828
 C1024 C 0.68150 0.89002 0.48342
 C1025 C 0.71220 0.90810 0.49330
 C1026 C 0.70941 0.94508 0.49816
 C1027 C 0.67478 0.99734 0.49228
 C1028 C 0.70277 1.01785 0.50208
 C1029 C 0.73333 1.00280 0.51136
 C1030 C 0.73659 0.96725 0.50974
 H1031 H 0.65145 1.01030 0.48524
 H1032 H 0.70053 1.04554 0.50304
 H1033 H 0.75475 1.01879 0.52015
 H1034 H 0.76042 0.95863 0.51957
 H1035 H 0.62787 0.89014 0.47137
 H1036 H 0.68164 0.86266 0.47878
 C1037 C 0.83027 0.91986 0.53935
 C1038 C 0.83968 0.94614 0.51564
 C1039 C 0.82208 0.94762 0.48498
 C1040 C 0.79364 0.92591 0.47888
 C1041 C 0.78091 0.90185 0.50342
 C1042 C 0.80381 0.89496 0.53115
 C1043 C 0.84678 0.91741 0.57101
 C1044 C 0.84192 0.88831 0.59142
 C1045 C 0.82127 0.86101 0.58031
 C1046 C 0.80295 0.86395 0.55026
 H1047 H 0.86358 0.93778 0.58035
 H1048 H 0.85525 0.88642 0.61531
 H1049 H 0.81917 0.83749 0.59515
 H1050 H 0.78899 0.84120 0.54238
 H1051 H 0.82980 0.96648 0.46578
 H1052 H 0.78004 0.92997 0.45561
 C1053 C 0.32750 0.44263 0.02451
 C1054 C 0.35495 0.42689 0.00704
 C1055 C 0.34852 0.39661 -0.01049
 C1056 C 0.31512 0.38254 -0.01250
 C1057 C 0.28572 0.39874 0.00175
 C1058 C 0.29299 0.42830 0.02268
 C1059 C 0.33384 0.47259 0.04384
 C1060 C 0.30708 0.48810 0.06147
 C1061 C 0.27367 0.47414 0.06022
 C1062 C 0.26683 0.44475 0.04118
 H1063 H 0.35953 0.48423 0.04567
 H1064 H 0.31230 0.51099 0.07621
 H1065 H 0.25283 0.48621 0.07397
 H1066 H 0.24083 0.43556 0.04092
 H1067 H 0.36968 0.38362 -0.02289
 H1068 H 0.31308 0.35809 -0.02519
 C1069 C 0.53802 0.46151 0.31802
 C1070 C 0.55550 0.46327 0.34932
 C1071 C 0.59154 0.46620 0.34921
 C1072 C 0.60967 0.47404 0.31935
 C1073 C 0.59234 0.48075 0.28862
 C1074 C 0.55679 0.46828 0.28704
 C1075 C 0.50270 0.45082 0.31690
 C1076 C 0.48612 0.44605 0.28619
 C1077 C 0.50469 0.45002 0.25608
 C1078 C 0.53964 0.45992 0.25645
 H1079 H 0.48785 0.44442 0.33958
 H1080 H 0.45914 0.43767 0.28580
 H1081 H 0.49221 0.44445 0.23224
 H1082 H 0.55256 0.45904 0.23229
 H1083 H 0.60561 0.46521 0.37277
 H1084 H 0.63725 0.47876 0.32133
 C1085 C 0.04252 -0.03086 0.78879
 C1086 C 0.05587 -0.02648 0.82178
 C1087 C 0.09092 -0.01887 0.82559
 C1088 C 0.11263 -0.01385 0.79768
 C1089 C 0.10109 -0.01615 0.76382
 C1090 C 0.06524 -0.02777 0.75956
 C1091 C 0.00725 -0.04056 0.78459
 C1092 C -0.00579 -0.04814 0.75282
 C1093 C 0.01621 -0.04779 0.72485
 C1094 C 0.05114 -0.03869 0.72819
 H1095 H -0.01059 -0.04329 0.80582
 H1096 H -0.03284 -0.05564 0.75011
 H1097 H 0.00634 -0.05547 0.70038
 H1098 H 0.06622 -0.04248 0.70574
 H1099 H 0.10172 -0.01632 0.85071
 H1100 H 0.13924 -0.00761 0.80311
 C1101 C 0.09860 -0.01366 0.63846
 C1102 C 0.07440 0.01301 0.64060
 C1103 C 0.07200 0.03188 0.67018
 C1104 C 0.09113 0.02361 0.69832
 C1105 C 0.11448 -0.00400 0.69910
 C1106 C 0.11941 -0.02239 0.66729
 C1107 C 0.10308 -0.03109 0.60741
 C1108 C 0.12666 -0.05717 0.60415
 C1109 C 0.14693 -0.06591 0.63133
 C1110 C 0.14379 -0.04874 0.66203
 H1111 H 0.08892 -0.02435 0.58498
 H1112 H 0.12967 -0.07025 0.58018
 H1113 H 0.16586 -0.08581 0.62845
 H1114 H 0.16231 -0.05651 0.68012
 H1115 H 0.05376 0.05254 0.67217
 H1116 H 0.08579 0.03830 0.72082
 C1117 C 0.54421 0.53020 0.19464
 C1118 C 0.55596 0.51461 0.16452
 C1119 C 0.58681 0.49687 0.16470
 C1120 C 0.60567 0.49331 0.19424
 C1121 C 0.59390 0.50584 0.22596
 C1122 C 0.56370 0.52700 0.22511
 C1123 C 0.51278 0.54816 0.19531
 C1124 C 0.50139 0.56415 0.22467
 C1125 C 0.52086 0.56242 0.25387
 C1126 C 0.55139 0.54410 0.25400
 H1127 H 0.49643 0.54983 0.17337
 H1128 H 0.47737 0.57794 0.22475
 H1129 H 0.51209 0.57500 0.27671
 H1130 H 0.56481 0.54337 0.27706
 H1131 H 0.59672 0.48585 0.14146
 H1132 H 0.63010 0.48064 0.19150
 C1133 C 0.43578 0.03621 0.16433
 C1134 C 0.43996 0.00477 0.14711
 C1135 C 0.42223 -0.02454 0.15896
 C1136 C 0.40110 -0.02370 0.18753
 C1137 C 0.39665 0.00651 0.20698
 C1138 C 0.41494 0.03720 0.19474
 C1139 C 0.45134 0.06698 0.15142
 C1140 C 0.44827 0.09785 0.16865
 C1141 C 0.42994 0.09870 0.19910
 C1142 C 0.41368 0.06892 0.21206
 H1143 H 0.46569 0.06765 0.12769
 H1144 H 0.46051 0.12117 0.15850
 H1145 H 0.42837 0.12261 0.21289
 H1146 H 0.40142 0.07120 0.23642
 H1147 H 0.42462 -0.04876 0.14578
 H1148 H 0.38715 -0.04747 0.19294
 C1149 C 0.92359 0.53807 0.67080
 C1150 C 0.92753 0.50600 0.65461
 C1151 C 0.91007 0.47713 0.66796
 C1152 C 0.89024 0.47895 0.69736
 C1153 C 0.88789 0.50944 0.71672
 C1154 C 0.90561 0.53970 0.70276
 C1155 C 0.93673 0.56878 0.65549
 C1156 C 0.93522 0.60004 0.67230
 C1157 C 0.92089 0.60131 0.70467
 C1158 C 0.90648 0.57167 0.71978
 H1159 H 0.94772 0.56910 0.63014
 H1160 H 0.94568 0.62328 0.66034
 H1161 H 0.92080 0.62545 0.71818
 H1162 H 0.89724 0.57428 0.74534
 H1163 H 0.91192 0.45239 0.65570
 H1164 H 0.87600 0.45563 0.70381
 C1165 C 0.89294 0.51623 0.84589
 C1166 C 0.92916 0.52060 0.84153
 C1167 C 0.94327 0.52295 0.80903
 C1168 C 0.92237 0.52106 0.78072
 C1169 C 0.88572 0.51655 0.78302
 C1170 C 0.87090 0.51477 0.81692
 C1171 C 0.87825 0.51282 0.87880
 C1172 C 0.84257 0.50914 0.88358
 C1173 C 0.82086 0.50920 0.85585
 C1174 C 0.83467 0.51219 0.82313
 H1175 H 0.89418 0.51282 0.90116
 H1176 H 0.83170 0.50668 0.90895
 H1177 H 0.79303 0.50721 0.85970
 H1178 H 0.81621 0.51388 0.80322
 H1179 H 0.97108 0.52616 0.80543
 H1180 H 0.93623 0.52141 0.75686
 C1181 C 0.39097 0.00892 0.33646
 C1182 C 0.42723 0.01489 0.33517
 C1183 C 0.44385 0.01977 0.30402
 C1184 C 0.42548 0.01859 0.27403
 C1185 C 0.38908 0.01231 0.27327
 C1186 C 0.37152 0.00841 0.30579
 C1187 C 0.37372 0.00273 0.36786
 C1188 C 0.33795 -0.00243 0.36956
 C1189 C 0.31862 -0.00127 0.34022
 C1190 C 0.33499 0.00422 0.30890
 H1191 H 0.38767 0.00159 0.39141
 H1192 H 0.32512 -0.00698 0.39381
 H1193 H 0.29067 -0.00451 0.34170
 H1194 H 0.31819 0.00620 0.28760
 H1195 H 0.47172 0.02413 0.30279
 H1196 H 0.44121 0.02059 0.25135
   
