data_POSCAR
  _audit_creation_date              2014-09-24
  _audit_creation_method            'ToBaCCo'
  _symmetry_space_group_name_H-M    'P1'
  _symmetry_Int_Tables_number       1
  _symmetry_cell_setting            triclinic
  loop_
  _symmetry_equiv_pos_as_xyz
 x,y,z
_cell_length_a 36.1702
_cell_length_b 29.3281
_cell_length_c 23.7425
_cell_angle_alpha 90.333400
_cell_angle_beta 90.504200
_cell_angle_gamma 89.853100
loop_
  _atom_site_label
  _atom_site_type_symbol
  _atom_site_fract_x
  _atom_site_fract_y
  _atom_site_fract_z
C1 C 0.24822 0.28617 0.24473
 C2 C 0.24331 0.24083 0.25517
 C3 C 0.21260 0.21306 0.23014
 C4 C 0.27045 0.21626 0.29120
 C5 C 0.27726 0.31232 0.27545
 C6 C 0.22524 0.31186 0.20359
 C7 C 0.17629 0.22996 0.22529
 C8 C 0.14862 0.20400 0.19906
 C9 C 0.15567 0.15901 0.18100
 C10 C 0.19175 0.14138 0.18848
 C11 C 0.21975 0.16827 0.21191
 C12 C 0.26007 0.19976 0.34405
 C13 C 0.28610 0.17807 0.37869
 C14 C 0.32247 0.17139 0.36021
 C15 C 0.33268 0.18771 0.30698
 C16 C 0.30686 0.21004 0.27284
 C17 C 0.30621 0.33263 0.24590
 C18 C 0.33507 0.35421 0.27509
 C19 C 0.33549 0.35571 0.33425
 C20 C 0.30545 0.33717 0.36360
 C21 C 0.27662 0.31573 0.33440
 C22 C 0.22019 0.29619 0.14802
 C23 C 0.19596 0.31889 0.11140
 C24 C 0.17679 0.35808 0.12964
 C25 C 0.18373 0.37512 0.18404
 C26 C 0.20763 0.35222 0.22070
 H27 H 0.16922 0.26342 0.24138
 H28 H 0.12125 0.21879 0.19467
 H29 H 0.19936 0.10771 0.17377
 H30 H 0.24735 0.15405 0.21502
 H31 H 0.23206 0.20448 0.35877
 H32 H 0.27775 0.16600 0.41968
 H33 H 0.31524 0.22270 0.23214
 H34 H 0.30695 0.33065 0.20035
 H35 H 0.35755 0.36887 0.25147
 H36 H 0.30392 0.33937 0.40901
 H37 H 0.25396 0.30125 0.35778
 H38 H 0.23440 0.26584 0.13348
 H39 H 0.19245 0.30574 0.06905
 H40 H 0.16973 0.40556 0.19885
 H41 H 0.21148 0.36523 0.26313
 H42 H 0.36075 0.18399 0.29216
 C43 C 0.76763 0.22797 0.28039
 C44 C 0.76584 0.27415 0.27617
 C45 C 0.79345 0.30073 0.24418
 C46 C 0.73566 0.30028 0.30356
 C47 C 0.73840 0.20199 0.30925
 C48 C 0.79880 0.20108 0.25750
 C49 C 0.81135 0.33773 0.27012
 C50 C 0.83646 0.36407 0.24015
 C51 C 0.84420 0.35416 0.18352
 C52 C 0.82586 0.31725 0.15728
 C53 C 0.80072 0.29087 0.18740
 C54 C 0.73105 0.29875 0.36211
 C55 C 0.70165 0.32175 0.38742
 C56 C 0.67627 0.34682 0.35449
 C57 C 0.68192 0.34977 0.29618
 C58 C 0.71134 0.32666 0.27089
 C59 C 0.70265 0.19912 0.28612
 C60 C 0.67487 0.17597 0.31478
 C61 C 0.68246 0.15580 0.36726
 C62 C 0.71826 0.15879 0.39015
 C63 C 0.74619 0.18110 0.36094
 C64 C 0.79186 0.16731 0.21679
 C65 C 0.82079 0.14095 0.19558
 C66 C 0.85717 0.14755 0.21535
 C67 C 0.86392 0.18059 0.25717
 C68 C 0.83499 0.20750 0.27777
 H69 H 0.80589 0.34619 0.31374
 H70 H 0.84989 0.39243 0.26137
 H71 H 0.83000 0.30905 0.11338
 H72 H 0.78641 0.26324 0.16611
 H73 H 0.75023 0.27963 0.38817
 H74 H 0.69925 0.32024 0.43274
 H75 H 0.71475 0.32862 0.22569
 H76 H 0.69628 0.21522 0.24625
 H77 H 0.64729 0.17503 0.29672
 H78 H 0.72461 0.14376 0.43068
 H79 H 0.77365 0.18320 0.37933
 H80 H 0.76400 0.16153 0.20127
 H81 H 0.81458 0.11489 0.16445
 H82 H 0.89168 0.18591 0.27336
 H83 H 0.84067 0.23294 0.30992
 H84 H 0.66315 0.36940 0.27000
 C85 C 0.75073 0.78798 0.75412
 C86 C 0.74532 0.74256 0.76270
 C87 C 0.71275 0.71773 0.73931
 C88 C 0.77273 0.71480 0.79414
 C89 C 0.78224 0.81272 0.78063
 C90 C 0.72503 0.81554 0.71888
 C91 C 0.67651 0.73379 0.74741
 C92 C 0.64656 0.71155 0.72182
 C93 C 0.65214 0.67189 0.68966
 C94 C 0.68824 0.65488 0.68332
 C95 C 0.71821 0.67761 0.70790
 C96 C 0.76289 0.69481 0.84533
 C97 C 0.78825 0.66768 0.87467
 C98 C 0.82334 0.65889 0.85233
 C99 C 0.83314 0.67885 0.80084
 C100 C 0.80803 0.70682 0.77211
 C101 C 0.80644 0.83773 0.74705
 C102 C 0.83533 0.86274 0.77144
 C103 C 0.84044 0.86372 0.83057
 C104 C 0.81600 0.83823 0.86383
 C105 C 0.78716 0.81330 0.83925
 C106 C 0.71664 0.80286 0.66310
 C107 C 0.69040 0.82736 0.63194
 C108 C 0.67237 0.86531 0.65595
 C109 C 0.68236 0.87929 0.71060
 C110 C 0.70836 0.85459 0.74185
 H111 H 0.67148 0.76400 0.77266
 H112 H 0.61897 0.72524 0.72723
 H113 H 0.69352 0.62492 0.65775
 H114 H 0.74584 0.66451 0.70109
 H115 H 0.73568 0.70060 0.86271
 H116 H 0.78028 0.65293 0.91447
 H117 H 0.81591 0.72189 0.73245
 H118 H 0.80296 0.83779 0.70168
 H119 H 0.85320 0.88085 0.74319
 H120 H 0.81884 0.83800 0.90931
 H121 H 0.76830 0.79499 0.86607
 H122 H 0.73003 0.77359 0.64405
 H123 H 0.68457 0.81667 0.58911
 H124 H 0.66931 0.90876 0.72973
 H125 H 0.71477 0.86525 0.78457
 H126 H 0.86033 0.67348 0.78329
 C127 C 0.24026 0.72393 0.72892
 C128 C 0.24201 0.77037 0.72876
 C129 C 0.26945 0.79434 0.69347
 C130 C 0.21718 0.79924 0.76344
 C131 C 0.21136 0.69815 0.75961
 C132 C 0.26830 0.69657 0.69855
 C133 C 0.29654 0.82185 0.71890
 C134 C 0.32388 0.84221 0.68632
 C135 C 0.32428 0.83581 0.62743
 C136 C 0.29670 0.80879 0.60216
 C137 C 0.26936 0.78857 0.63476
 C138 C 0.21428 0.79273 0.82172
 C139 C 0.18937 0.81865 0.85339
 C140 C 0.16683 0.85203 0.82726
 C141 C 0.17108 0.85931 0.76908
 C142 C 0.19599 0.83338 0.73766
 C143 C 0.17377 0.70991 0.75532
 C144 C 0.14712 0.68562 0.78505
 C145 C 0.15739 0.64789 0.81846
 C146 C 0.19488 0.63517 0.82055
 C147 C 0.22152 0.66020 0.79200
 C148 C 0.25836 0.67239 0.64966
 C149 C 0.28517 0.64851 0.61929
 C150 C 0.32195 0.64724 0.63847
 C151 C 0.33170 0.67088 0.68811
 C152 C 0.30506 0.69557 0.71775
 H153 H 0.29711 0.82646 0.76420
 H154 H 0.34513 0.86170 0.70774
 H155 H 0.29636 0.80323 0.55701
 H156 H 0.24835 0.76791 0.61432
 H157 H 0.23106 0.76715 0.84259
 H158 H 0.18821 0.81185 0.89794
 H159 H 0.19806 0.83921 0.69279
 H160 H 0.16493 0.73775 0.72862
 H161 H 0.11858 0.69584 0.77981
 H162 H 0.20385 0.60611 0.84520
 H163 H 0.25023 0.64998 0.79557
 H164 H 0.23007 0.67303 0.63434
 H165 H 0.27717 0.63076 0.58096
 H166 H 0.36004 0.67127 0.70317
 H167 H 0.31307 0.71420 0.75543
 H168 H 0.15467 0.88482 0.74737
 O169 O 1.04526 -0.04862 -0.00667
 O170 O 0.97195 0.01847 0.06303
 O171 O 0.97328 -0.05021 -0.00783
 O172 O 1.04419 0.01717 0.06634
 O173 O 1.04145 0.06929 -0.00025
 O174 O 0.97513 -0.00267 -0.07952
 O175 O 0.96998 0.06496 -0.00984
 O176 O 1.04717 0.00274 -0.07421
 Cu177 Cu 1.00856 -0.02071 0.03581
 Cu178 Cu 1.00865 0.03848 -0.04804
 C179 C 1.05902 -0.03384 -0.05213
 C180 C 0.95813 0.05276 0.03780
 C181 C 0.96241 -0.03834 -0.05654
 C182 C 1.05463 0.05498 0.04622
 O183 O 0.53911 0.42391 0.51411
 O184 O 0.46835 0.48275 0.59812
 O185 O 0.46684 0.42672 0.51225
 O186 O 0.54015 0.48014 0.59857
 O187 O 0.53959 0.53959 0.54185
 O188 O 0.46932 0.48382 0.45221
 O189 O 0.46781 0.53948 0.53730
 O190 O 0.54164 0.48281 0.45680
 Cu191 Cu 0.50339 0.44743 0.56150
 Cu192 Cu 0.50479 0.51720 0.49102
 C193 C 0.55299 0.44367 0.47181
 C194 C 0.45581 0.52094 0.58177
 C195 C 0.45559 0.44617 0.46752
 C196 C 0.55201 0.51927 0.58521
 O197 O 0.03628 0.49040 -0.11268
 O198 O -0.03193 0.41592 -0.04547
 O199 O -0.03520 0.48304 -0.11805
 O200 O 0.03982 0.42550 -0.03928
 O201 O 0.03422 0.47639 0.02906
 O202 O -0.04219 0.53160 -0.04750
 O203 O -0.03728 0.46521 0.02464
 O204 O 0.02879 0.54155 -0.04500
 Cu205 Cu 0.00269 0.44856 -0.08574
 Cu206 Cu -0.00474 0.50856 -0.00261
 C207 C 0.04379 0.52885 -0.09073
 C208 C -0.04599 0.42761 0.00124
 C209 C -0.05126 0.51736 -0.09627
 C210 C 0.05007 0.44166 0.00813
 O211 O 0.53252 0.99723 0.41252
 O212 O 0.46080 0.94529 0.50131
 O213 O 0.46111 0.99978 0.41476
 O214 O 0.53313 0.94083 0.49682
 O215 O 0.53640 0.99925 0.55571
 O216 O 0.46361 1.05815 0.47391
 O217 O 0.46457 1.00375 0.56012
 O218 O 0.53580 1.05543 0.47182
 Cu219 Cu 0.49651 0.96474 0.45067
 Cu220 Cu 0.50036 1.03502 0.52127
 C221 C 0.54641 1.03522 0.42732
 C222 C 0.45043 0.96587 0.54579
 C223 C 0.45018 1.03899 0.43014
 C224 C 0.54735 0.96010 0.53985
 C225 C 1.12816 0.13474 0.15627
 C226 C 1.12891 0.08720 0.14925
 C227 C 1.10237 0.06271 0.11874
 C228 C 1.08079 0.08116 0.07520
 H229 H 1.14873 0.06711 0.17289
 H230 H 1.10117 0.02632 0.12621
 H231 H 1.10289 0.15243 0.14456
 H232 H 1.08616 0.11544 0.06062
 C233 C 0.62038 0.65037 0.66043
 C234 C 0.61803 0.60533 0.65225
 C235 C 0.58745 0.58537 0.61924
 C236 C 0.58098 0.54057 0.62021
 H237 H 0.63889 0.58285 0.66992
 H238 H 0.57022 0.60753 0.59363
 H239 H 0.59803 0.67221 0.64600
 H240 H 0.59710 0.51888 0.64798
 C241 C -0.12948 0.38416 0.15358
 C242 C -0.11414 0.37425 0.10383
 C243 C -0.08809 0.40622 0.07765
 C244 C -0.07249 0.39667 0.02811
 H245 H -0.12004 0.34244 0.08240
 H246 H -0.08154 0.43788 0.09929
 H247 H -0.12175 0.41585 0.17427
 H248 H -0.07912 0.36496 0.00664
 C249 C 0.35355 0.85511 0.59129
 C250 C 0.37408 0.89125 0.60587
 C251 C 0.40284 0.90878 0.56817
 C252 C 0.42170 0.94640 0.58189
 H253 H 0.36937 0.90889 0.64532
 H254 H 0.40844 0.89103 0.52897
 H255 H 0.35768 0.83960 0.55023
 H256 H 0.41551 0.96418 0.62087
 C257 C -0.15041 0.63029 -0.11544
 C258 C -0.12667 0.60159 -0.14011
 C259 C -0.10028 0.57495 -0.10605
 C260 C -0.08000 0.54154 -0.12883
 H261 H -0.12674 0.59759 -0.18552
 H262 H -0.09701 0.58339 -0.06175
 H263 H -0.15167 0.63166 -0.06984
 H264 H -0.08398 0.53235 -0.17275
 C265 C 0.34951 1.14827 0.39739
 C266 C 0.37537 1.12016 0.37710
 C267 C 0.40232 1.09754 0.41441
 C268 C 0.42211 1.06221 0.39555
 H269 H 0.37622 1.11281 0.33232
 H270 H 0.40578 1.10954 0.45741
 H271 H 0.34701 1.15280 0.44255
 H272 H 0.41713 1.04919 0.35332
 C273 C 1.14009 -0.12172 -0.14402
 C274 C 1.13149 -0.12578 -0.08919
 C275 C 1.10221 -0.09871 -0.06114
 C276 C 1.08888 -0.05900 -0.08052
 H277 H 1.14451 -0.15129 -0.06313
 H278 H 1.09184 -0.11209 -0.02191
 H279 H 1.12464 -0.09741 -0.16902
 H280 H 1.09997 -0.04384 -0.11815
 C281 C 0.64431 0.37107 0.37961
 C282 C 0.62861 0.35794 0.42789
 C283 C 0.59691 0.38097 0.45504
 C284 C 0.58305 0.42166 0.44007
 H285 H 0.63863 0.32767 0.44894
 H286 H 0.58538 0.36360 0.49098
 H287 H 0.63271 0.39912 0.35594
 H288 H 0.59448 0.44041 0.40530
 C289 C 0.86851 -0.11097 -0.14187
 C290 C 0.89265 -0.08310 -0.16738
 C291 C 0.92111 -0.05610 -0.13691
 C292 C 0.93451 -0.06657 -0.08575
 H293 H 0.89107 -0.07701 -0.21207
 H294 H 0.93213 -0.02692 -0.15886
 H295 H 0.86981 -0.11343 -0.09643
 H296 H 0.92525 -0.09682 -0.06425
 C297 C 0.36720 0.37747 0.36382
 C298 C 0.37758 0.36630 0.41643
 C299 C 0.40902 0.38695 0.44757
 C300 C 0.42591 0.42571 0.43292
 H301 H 0.36328 0.33929 0.43807
 H302 H 0.41743 0.36997 0.48601
 H303 H 0.38333 0.40152 0.34006
 H304 H 0.41717 0.44427 0.39590
 C305 C 0.13182 0.62147 -0.15158
 C306 C 0.09665 0.63363 -0.14140
 C307 C 0.07110 0.60369 -0.11079
 C308 C 0.07033 0.55852 -0.11918
 H309 H 0.08647 0.66722 -0.15185
 H310 H 0.05072 0.61970 -0.08393
 H311 H 0.14164 0.58964 -0.13372
 H312 H 0.08838 0.54303 -0.15010
 C313 C 0.65323 1.13367 0.40038
 C314 C 0.62589 1.10940 0.37684
 C315 C 0.59733 1.08866 0.41216
 C316 C 0.57508 1.05593 0.39217
 H317 H 0.62495 1.10401 0.33165
 H318 H 0.59494 1.09985 0.45560
 H319 H 0.65520 1.13592 0.44592
 H320 H 0.57865 1.04317 0.34962
 C321 C 0.14926 0.38208 0.09391
 C322 C 0.12951 0.36153 0.05294
 C323 C 0.09952 0.38429 0.02077
 C324 C 0.08059 0.42045 0.04003
 H325 H 0.13491 0.32629 0.04213
 H326 H 0.09162 0.36886 -0.01910
 H327 H 0.14392 0.41746 0.10417
 H328 H 0.08682 0.43487 0.08103
 C329 C 0.64342 0.89138 0.62543
 C330 C 0.62142 0.87268 0.58579
 C331 C 0.59139 0.89717 0.55576
 C332 C 0.57712 0.93741 0.57192
 H333 H 0.62520 0.83732 0.57395
 H334 H 0.57999 0.88010 0.51896
 H335 H 0.63951 0.92650 0.63810
 H336 H 0.58710 0.95462 0.60940
 C337 C 0.88816 0.11977 0.19364
 C338 C 0.88993 0.10712 0.13956
 C339 C 0.92105 0.08003 0.11784
 C340 C 0.92755 0.07879 0.06260
 H341 H 0.86871 0.11826 0.11015
 H342 H 0.93908 0.06203 0.14694
 H343 H 0.91090 0.11167 0.22194
 H344 H 0.91061 0.09916 0.03439
 C345 C 0.34992 0.62277 0.60488
 C346 C 0.37762 0.59934 0.62861
 C347 C 0.40542 0.57618 0.59376
 C348 C 0.42730 0.54387 0.61542
 H349 H 0.37949 0.59650 0.67405
 H350 H 0.40768 0.58529 0.54972
 H351 H 0.34673 0.62252 0.55942
 H352 H 0.42362 0.53315 0.65864
   
