data_POSCAR
  _audit_creation_date              2014-09-24
  _audit_creation_method            'ToBaCCo'
  _symmetry_space_group_name_H-M    'P1'
  _symmetry_Int_Tables_number       1
  _symmetry_cell_setting            triclinic
  loop_
  _symmetry_equiv_pos_as_xyz
 x,y,z
_cell_length_a 21.3764
_cell_length_b 21.3771
_cell_length_c 21.3982
_cell_angle_alpha 88.501700
_cell_angle_beta 88.578300
_cell_angle_gamma 87.841100
loop_
  _atom_site_label
  _atom_site_type_symbol
  _atom_site_fract_x
  _atom_site_fract_y
  _atom_site_fract_z
O1 O 0.58746 0.50493 0.04414
 O2 O 0.41617 0.49322 0.05018
 O3 O 0.50991 0.41369 0.04505
 O4 O 0.49238 0.58534 0.04830
 O5 O 0.49408 0.59015 -0.05504
 O6 O 0.50665 0.41827 -0.05805
 O7 O 0.41418 0.50086 -0.05235
 O8 O 0.58624 0.50737 -0.05896
 Cu9 Cu 0.50180 0.49904 0.05728
 Cu10 Cu 0.50016 0.50466 -0.06647
 C11 C 0.61616 0.50816 -0.00847
 C12 C 0.38552 0.49419 0.00012
 C13 C 0.51080 0.38671 -0.00714
 C14 C 0.49029 0.61686 -0.00277
 O15 O -0.05802 0.59113 0.50331
 O16 O -0.05113 0.41909 0.49659
 O17 O -0.05146 0.49949 0.58499
 O18 O -0.05691 0.50935 0.41390
 O19 O 0.04631 0.50967 0.40768
 O20 O 0.05174 0.50054 0.57982
 O21 O 0.05212 0.42000 0.49085
 O22 O 0.04457 0.59217 0.49651
 Cu23 Cu -0.06473 0.50516 0.50014
 Cu24 Cu 0.05907 0.50616 0.49316
 C25 C -0.00810 0.62143 0.50243
 C26 C 0.00175 0.39025 0.49183
 C27 C 0.00096 0.49711 0.61165
 C28 C -0.00633 0.50884 0.38155
 O29 O 0.49319 0.04780 0.58649
 O30 O 0.49483 0.05495 0.41359
 O31 O 0.40917 0.04698 0.50110
 O32 O 0.58022 0.05823 0.49933
 O33 O 0.59118 -0.04475 0.49733
 O34 O 0.41970 -0.05619 0.50116
 O35 O 0.50423 -0.04830 0.41316
 O36 O 0.50497 -0.05444 0.58452
 Cu37 Cu 0.49375 0.06240 0.50016
 Cu38 Cu 0.50656 -0.06119 0.49870
 C39 C 0.49734 -0.00496 0.61552
 C40 C 0.49777 0.00401 0.38421
 C41 C 0.38522 -0.00649 0.50213
 C42 C 0.61488 0.00875 0.49913
 O43 O 0.44556 0.00715 -0.08786
 O44 O 0.44166 0.00880 0.08422
 O45 O 0.44930 0.09386 -0.00495
 O46 O 0.43575 -0.07729 0.00015
 O47 O 0.53840 -0.08877 0.00285
 O48 O 0.55239 0.08219 -0.00584
 O49 O 0.54474 -0.00158 0.08482
 O50 O 0.54870 -0.00568 -0.08757
 Cu51 Cu 0.43274 0.00951 -0.00193
 Cu52 Cu 0.55642 -0.00450 -0.00132
 C53 C 0.49775 -0.00028 -0.11681
 C54 C 0.49236 0.00310 0.11398
 C55 C 0.50308 0.11714 -0.00730
 C56 C 0.48475 -0.11252 0.00274
 O57 O -0.08365 0.55577 0.99091
 O58 O 0.08858 0.55029 0.99487
 O59 O 0.00527 0.54993 0.90734
 O60 O -0.00231 0.55589 1.07951
 O61 O -0.00280 0.45266 1.08504
 O62 O 0.00604 0.44664 0.91409
 O63 O 0.08842 0.44700 1.00267
 O64 O -0.08368 0.45246 0.99686
 Cu65 Cu 0.00241 0.56341 0.99271
 Cu66 Cu 0.00248 0.43931 1.00030
 C67 C -0.11295 0.50511 0.99191
 C68 C 0.11768 0.49764 1.00008
 C69 C 0.00489 0.49712 0.88153
 C70 C -0.00534 0.50513 1.11152
 O71 O -0.00137 -0.08226 0.44680
 O72 O 0.00519 0.08966 0.44182
 O73 O 0.08785 -0.00301 0.44516
 O74 O -0.08451 0.01014 0.44425
 O75 O -0.08703 0.01266 0.54736
 O76 O 0.08430 -0.00419 0.54841
 O77 O 0.00373 0.09032 0.54495
 O78 O -0.00708 -0.08125 0.55008
 Cu79 Cu 0.00205 0.00368 0.43408
 Cu80 Cu -0.00172 0.00452 0.55807
 C81 C -0.00602 -0.11083 0.49935
 C82 C 0.00646 0.11929 0.49241
 C83 C 0.11533 -0.00684 0.49714
 C84 C -0.11508 0.01425 0.49576
 C85 C -0.21586 0.47002 1.03056
 C86 C -0.28102 0.47193 1.03135
 C87 C -0.31467 0.51096 0.98946
 C88 C -0.28140 0.54961 0.94611
 C89 C -0.21482 0.54653 0.94436
 C90 C -0.18199 0.50732 0.98807
 C91 C -0.18342 0.58207 0.89786
 N92 N -0.21642 0.62086 0.85869
 N93 N -0.27860 0.62637 0.86260
 C94 C -0.31216 0.59238 0.90498
 H95 H -0.19167 0.43956 1.06404
 H96 H -0.30544 0.44194 1.06466
 H97 H -0.13314 0.57902 0.89155
 H98 H -0.36235 0.59997 0.90632
 C99 C 0.22082 0.51812 0.95184
 C100 C 0.28595 0.51498 0.95102
 C101 C 0.31958 0.48983 1.00226
 C102 C 0.28501 0.46349 1.05419
 C103 C 0.21836 0.46795 1.05497
 C104 C 0.18653 0.49512 1.00319
 C105 C 0.18533 0.44495 1.10794
 N106 N 0.21666 0.41566 1.15519
 N107 N 0.27864 0.40750 1.15288
 C108 C 0.31372 0.42962 1.10408
 H109 H 0.19689 0.53847 0.91168
 H110 H 0.31003 0.53479 0.91042
 H111 H 0.13490 0.44979 1.11226
 H112 H 0.36316 0.41805 1.10450
 C113 C 0.04187 -0.21509 0.48025
 C114 C 0.04198 -0.28013 0.48308
 C115 C -0.01034 -0.31245 0.50638
 C116 C -0.06289 -0.27644 0.53104
 C117 C -0.06282 -0.20982 0.52691
 C118 C -0.00991 -0.17948 0.50160
 C119 C -0.11603 -0.17524 0.54847
 N120 N -0.16463 -0.20510 0.57590
 N121 N -0.16340 -0.26705 0.58358
 C122 C -0.11433 -0.30356 0.56290
 H123 H 0.08293 -0.19224 0.46144
 H124 H 0.08311 -0.30520 0.46464
 H125 H -0.11942 -0.12474 0.54403
 H126 H -0.11591 -0.35284 0.57409
 C127 C -0.02997 0.22199 0.53229
 C128 C -0.03238 0.28717 0.53113
 C129 C 0.00455 0.32117 0.48839
 C130 C 0.04403 0.28844 0.44495
 C131 C 0.04757 0.22187 0.44704
 C132 C 0.00915 0.18847 0.49048
 C133 C 0.09056 0.19122 0.40616
 N134 N 0.12436 0.22486 0.36368
 N135 N 0.11844 0.28700 0.35944
 C136 C 0.07940 0.31991 0.39837
 H137 H -0.05970 0.19749 0.56576
 H138 H -0.06295 0.31128 0.56450
 H139 H 0.09848 0.14106 0.40783
 H140 H 0.07604 0.37017 0.39181
 C141 C 0.50483 0.04979 -0.22154
 C142 C 0.50293 0.04848 -0.28644
 C143 C 0.49470 -0.00769 -0.31806
 C144 C 0.48537 -0.06390 -0.28102
 C145 C 0.48910 -0.06201 -0.21469
 C146 C 0.49857 -0.00480 -0.18535
 C147 C 0.48200 -0.11763 -0.17899
 N148 N 0.46923 -0.17137 -0.20727
 N149 N 0.46250 -0.17305 -0.26876
 C150 C 0.46938 -0.12160 -0.30633
 H151 H 0.51129 0.09400 -0.19932
 H152 H 0.50946 0.09226 -0.31202
 H153 H 0.48602 -0.11882 -0.12879
 H154 H 0.45983 -0.12725 -0.35480
 C155 C 0.53347 0.03837 0.21385
 C156 C 0.53403 0.03994 0.27897
 C157 C 0.49222 0.00490 0.31558
 C158 C 0.44762 -0.03101 0.28597
 C159 C 0.44756 -0.03333 0.21975
 C160 C 0.49065 0.00227 0.18334
 C161 C 0.40518 -0.07271 0.19246
 N162 N 0.36373 -0.10459 0.22877
 N163 N 0.36193 -0.10014 0.29069
 C164 C 0.40228 -0.06444 0.32051
 H165 H 0.56669 0.06588 0.18697
 H166 H 0.56829 0.06766 0.30100
 H167 H 0.40491 -0.07914 0.14285
 H168 H 0.39802 -0.06226 0.37081
 C169 C 0.53083 -0.21524 -0.02675
 C170 C 0.53222 -0.28014 -0.02917
 C171 C 0.48422 -0.31441 -0.00140
 C172 C 0.43248 -0.28264 0.02765
 C173 C 0.43032 -0.21608 0.02969
 C174 C 0.48084 -0.18194 0.00258
 C175 C 0.37793 -0.18697 0.05974
 N176 N 0.33134 -0.22183 0.08457
 N177 N 0.33317 -0.28394 0.08163
 C178 C 0.38200 -0.31551 0.05395
 H179 H 0.56940 -0.19072 -0.04865
 H180 H 0.57187 -0.30395 -0.05190
 H181 H 0.37263 -0.13718 0.06408
 H182 H 0.38055 -0.36595 0.05241
 C183 C 0.47075 0.22076 0.03211
 C184 C 0.47383 0.28555 0.03325
 C185 C 0.51381 0.31765 -0.00816
 C186 C 0.55269 0.28331 -0.05081
 C187 C 0.54893 0.21717 -0.05256
 C188 C 0.50795 0.18583 -0.01008
 C189 C 0.58548 0.18496 -0.09790
 N190 N 0.62526 0.21662 -0.13636
 N191 N 0.63084 0.27822 -0.13279
 C192 C 0.59614 0.31260 -0.09133
 H193 H 0.43925 0.19757 0.06489
 H194 H 0.44366 0.31102 0.06601
 H195 H 0.58253 0.13515 -0.10379
 H196 H 0.60355 0.36225 -0.09012
 C197 C -0.21505 -0.02176 0.45748
 C198 C -0.28000 -0.02441 0.45966
 C199 C -0.31633 0.01326 0.50027
 C200 C -0.28619 0.05446 0.53991
 C201 C -0.22001 0.05836 0.53642
 C202 C -0.18423 0.01857 0.49594
 C203 C -0.19200 0.10272 0.57324
 N204 N -0.22753 0.13765 0.61354
 N205 N -0.28912 0.13144 0.61943
 C206 C -0.31960 0.09098 0.58433
 H207 H -0.18850 -0.05266 0.42648
 H208 H -0.30216 -0.05616 0.42914
 H209 H -0.14245 0.11072 0.56997
 H210 H -0.36939 0.08743 0.59239
 C211 C 0.21816 0.02779 0.45837
 C212 C 0.28306 0.02893 0.46080
 C213 C 0.31636 -0.01037 0.50267
 C214 C 0.28325 -0.05208 0.54292
 C215 C 0.21708 -0.05409 0.53958
 C216 C 0.18436 -0.01245 0.49801
 C217 C 0.18604 -0.09852 0.57756
 N218 N 0.21880 -0.13565 0.61843
 N219 N 0.28040 -0.13156 0.62379
 C220 C 0.31366 -0.09100 0.58770
 H221 H 0.19398 0.05980 0.42625
 H222 H 0.30760 0.06086 0.42952
 H223 H 0.13630 -0.10483 0.57474
 H224 H 0.36328 -0.08930 0.59504
 C225 C 0.02756 0.54699 1.21165
 C226 C 0.02853 0.54677 1.27673
 C227 C -0.00873 0.50632 1.31271
 C228 C -0.04752 0.46467 1.28224
 C229 C -0.05003 0.46637 1.21599
 C230 C -0.01066 0.50672 1.18050
 C231 C -0.09267 0.42790 1.18761
 N232 N -0.12682 0.38753 1.22297
 N233 N -0.12153 0.38314 1.28476
 C234 C -0.08298 0.41998 1.31555
 H235 H 0.05801 0.57799 1.18535
 H236 H 0.05862 0.57861 1.29924
 H237 H -0.10001 0.42989 1.13788
 H238 H -0.08009 0.41312 1.36554
 C239 C 0.04310 0.53106 0.77664
 C240 C 0.04329 0.52976 0.71160
 C241 C 0.00256 0.49184 0.68065
 C242 C -0.03811 0.45296 0.71633
 C243 C -0.03966 0.45574 0.78255
 C244 C 0.00228 0.49438 0.81277
 C245 C -0.08446 0.42065 0.81610
 N246 N -0.12167 0.38227 0.78556
 N247 N -0.11751 0.37678 0.72380
 C248 C -0.07698 0.41052 0.68821
 H249 H 0.07526 0.56093 0.79900
 H250 H 0.07461 0.55977 0.68517
 H251 H -0.09104 0.42369 0.86611
 H252 H -0.07517 0.40298 0.63853
   
