data_POSCAR
  _audit_creation_date              2014-09-24
  _audit_creation_method            'ToBaCCo'
  _symmetry_space_group_name_H-M    'P1'
  _symmetry_Int_Tables_number       1
  _symmetry_cell_setting            triclinic
  loop_
  _symmetry_equiv_pos_as_xyz
 x,y,z
_cell_length_a 21.5784
_cell_length_b 21.5643
_cell_length_c 21.5783
_cell_angle_alpha 95.227200
_cell_angle_beta 85.461800
_cell_angle_gamma 96.468100
loop_
  _atom_site_label
  _atom_site_type_symbol
  _atom_site_fract_x
  _atom_site_fract_y
  _atom_site_fract_z
O1 O 0.56254 0.52729 0.06884
 O2 O 0.39489 0.51506 0.04526
 O3 O 0.47325 0.43661 0.06691
 O4 O 0.48491 0.60490 0.04310
 O5 O 0.50554 0.58215 -0.05794
 O6 O 0.49278 0.41495 -0.03442
 O7 O 0.41532 0.49380 -0.05600
 O8 O 0.58329 0.50539 -0.03227
 Cu9 Cu 0.47688 0.52314 0.06629
 Cu10 Cu 0.50141 0.49673 -0.05533
 C11 C 0.60122 0.51762 0.02255
 C12 C 0.37679 0.50360 -0.00950
 C13 C 0.48172 0.39742 0.02021
 C14 C 0.49619 0.62167 -0.01193
 O15 O -0.06412 0.56363 0.52035
 O16 O -0.04152 0.39568 0.51086
 O17 O -0.04307 0.48483 0.59957
 O18 O -0.06706 0.47349 0.43242
 O19 O 0.03420 0.49777 0.41096
 O20 O 0.05854 0.50766 0.57885
 O21 O 0.05970 0.42027 0.48940
 O22 O 0.03747 0.58719 0.50066
 Cu23 Cu -0.06419 0.47706 0.51783
 Cu24 Cu 0.05767 0.50570 0.49273
 C25 C -0.01712 0.60381 0.51164
 C26 C 0.01344 0.37986 0.49944
 C27 C 0.01185 0.49699 0.61746
 C28 C -0.02089 0.48445 0.39345
 O29 O 0.52109 0.03873 0.58472
 O30 O 0.53064 0.06104 0.41754
 O31 O 0.44155 0.05834 0.50507
 O32 O 0.60898 0.03493 0.49525
 O33 O 0.58384 -0.06660 0.47390
 O34 O 0.41707 -0.04331 0.48400
 O35 O 0.50606 -0.04046 0.39538
 O36 O 0.49698 -0.06295 0.56363
 Cu37 Cu 0.52802 0.05844 0.50281
 Cu38 Cu 0.49853 -0.06355 0.47709
 C39 C 0.50818 -0.01590 0.60262
 C40 C 0.51927 0.01458 0.37823
 C41 C 0.40106 0.01158 0.49551
 C42 C 0.62454 -0.02023 0.48350
 C43 C 0.50068 -0.11433 -0.13124
 C44 C 0.50568 -0.05207 -0.14556
 C45 C 0.50782 -0.00386 -0.09722
 C46 C 0.50072 -0.01742 -0.03383
 C47 C 0.49368 -0.08113 -0.02113
 C48 C 0.49621 -0.12908 -0.06927
 C49 C 0.50077 0.03402 0.01853
 C50 C 0.51129 0.02230 0.08017
 C51 C 0.50936 0.06944 0.12926
 C52 C 0.49963 0.12994 0.11689
 C53 C 0.49153 0.14362 0.05625
 C54 C 0.49019 0.09560 0.00781
 H55 H 0.50037 -0.15111 -0.16885
 H56 H 0.51519 0.04374 -0.10989
 H57 H 0.48618 -0.09486 0.02596
 H58 H 0.52161 -0.02307 0.09123
 H59 H 0.49841 0.16688 0.15428
 H60 H 0.48004 0.10695 -0.03767
 C61 C -0.13450 0.50136 1.12901
 C62 C -0.14680 0.50937 1.06785
 C63 C -0.09786 0.51138 1.02119
 C64 C -0.03673 0.50097 1.03384
 C65 C -0.02620 0.49081 1.09584
 C66 C -0.07426 0.49249 1.14341
 C67 C 0.01527 0.50064 0.98289
 C68 C 0.07872 0.50784 0.99702
 C69 C 0.12682 0.50536 0.94957
 C70 C 0.11252 0.50041 0.88729
 C71 C 0.05055 0.49541 0.87185
 C72 C 0.00224 0.49307 0.91922
 H73 H -0.17219 0.50207 1.16516
 H74 H -0.10823 0.52192 0.97552
 H75 H 0.01895 0.48104 1.10833
 H76 H 0.09165 0.51548 1.04453
 H77 H 0.14988 0.50038 0.85060
 H78 H -0.04511 0.48523 0.90551
 C79 C -0.11318 -0.13315 0.49853
 C80 C -0.05210 -0.14560 0.50534
 C81 C -0.00377 -0.09621 0.50719
 C82 C -0.01518 -0.03417 0.49879
 C83 C -0.07740 -0.02385 0.48954
 C84 C -0.12624 -0.07248 0.49084
 C85 C 0.03690 0.01917 0.49955
 C86 C 0.02348 0.08235 0.50500
 C87 C 0.07122 0.13190 0.50244
 C88 C 0.13352 0.11941 0.49947
 C89 C 0.14871 0.05790 0.49682
 C90 C 0.10077 0.00813 0.49464
 H91 H -0.15038 -0.17122 0.49913
 H92 H 0.04207 -0.10710 0.51596
 H93 H -0.08938 0.02157 0.48069
 H94 H -0.02380 0.09463 0.51121
 H95 H 0.17026 0.15767 0.49912
 H96 H 0.11465 -0.03867 0.48897
 C97 C -0.26706 0.46594 1.07423
 C98 C -0.30579 0.52047 1.09805
 C99 C -0.33137 0.51800 1.03324
 C100 C -0.29331 0.46350 1.00940
 C101 C -0.27761 0.56590 1.01175
 C102 C -0.25108 0.56833 1.07683
 C103 C -0.21291 0.51382 1.05297
 C104 C -0.23856 0.51130 0.98803
 H105 H -0.26234 0.42462 1.09997
 H106 H -0.33391 0.52419 1.14333
 H107 H -0.31143 0.42029 0.98166
 H108 H -0.28279 0.60707 0.98599
 H109 H -0.23301 0.61147 1.10467
 H110 H -0.21145 0.50727 0.94222
 C111 C 0.22151 0.51382 1.02820
 C112 C 0.25988 0.45793 1.00775
 C113 C 0.31287 0.50359 0.98104
 C114 C 0.27566 0.55954 1.00166
 C115 C 0.28524 0.49588 0.91696
 C116 C 0.23130 0.45021 0.94350
 C117 C 0.19373 0.50609 0.96401
 C118 C 0.24708 0.55176 0.93746
 H119 H 0.19582 0.52148 1.07438
 H120 H 0.26592 0.41920 1.03653
 H121 H 0.29480 0.60460 1.02558
 H122 H 0.31179 0.48836 0.87118
 H123 H 0.21230 0.40517 0.91948
 H124 H 0.24122 0.59052 0.90864
 C125 C -0.06332 -0.26496 0.46056
 C126 C 0.00020 -0.29207 0.45849
 C127 C -0.02563 -0.33203 0.51211
 C128 C -0.08912 -0.30571 0.51417
 C129 C -0.00179 -0.27995 0.56059
 C130 C 0.02388 -0.23893 0.50690
 C131 C -0.03970 -0.21242 0.50901
 C132 C -0.06552 -0.25258 0.56261
 H133 H -0.08856 -0.25841 0.41915
 H134 H 0.02713 -0.30898 0.41547
 H135 H -0.13565 -0.33348 0.51710
 H136 H 0.02345 -0.28688 0.60188
 H137 H 0.07077 -0.21193 0.50373
 H138 H -0.09255 -0.23563 0.60553
 C139 C 0.10254 0.25613 0.49270
 C140 C 0.06046 0.27743 0.44569
 C141 C 0.02530 0.31314 0.49974
 C142 C 0.06707 0.29238 0.54681
 C143 C -0.02230 0.25550 0.50894
 C144 C 0.01323 0.21882 0.45480
 C145 C 0.05522 0.19803 0.50189
 C146 C 0.01981 0.23378 0.55596
 H147 H 0.15421 0.25842 0.48581
 H148 H 0.07683 0.29588 0.40017
 H149 H 0.08897 0.32332 0.58485
 H150 H -0.07381 0.25586 0.51545
 H151 H -0.00876 0.18790 0.41681
 H152 H 0.00342 0.21537 0.60148
 C153 C 0.51639 0.02498 -0.24122
 C154 C 0.56257 -0.00193 -0.29279
 C155 C 0.50737 -0.02436 -0.33305
 C156 C 0.46126 0.00272 -0.28260
 C157 C 0.49849 -0.08799 -0.30493
 C158 C 0.55362 -0.06568 -0.26376
 C159 C 0.50749 -0.03876 -0.21296
 C160 C 0.45237 -0.06108 -0.25357
 H161 H 0.52397 0.07183 -0.21547
 H162 H 0.60805 0.02235 -0.30971
 H163 H 0.42308 0.03072 -0.29106
 H164 H 0.49104 -0.13452 -0.33139
 H165 H 0.59182 -0.09372 -0.25549
 H166 H 0.40689 -0.08544 -0.23679
 C167 C 0.56231 0.01411 0.21708
 C168 C 0.57288 0.06231 0.27411
 C169 C 0.51903 0.02616 0.31119
 C170 C 0.50846 -0.02238 0.25525
 C171 C 0.47178 0.06623 0.28920
 C172 C 0.52554 0.10266 0.25152
 C173 C 0.51491 0.05434 0.19520
 C174 C 0.46117 0.01798 0.23247
 H175 H 0.59972 -0.00709 0.18684
 H176 H 0.61896 0.08026 0.29188
 H177 H 0.50149 -0.07395 0.25738
 H178 H 0.43434 0.08743 0.31944
 H179 H 0.53318 0.15439 0.25130
 H180 H 0.41504 -0.00002 0.21486
 C181 C 0.50399 -0.25262 -0.10117
 C182 C 0.55097 -0.27446 -0.05942
 C183 C 0.49654 -0.31148 -0.02410
 C184 C 0.44950 -0.29026 -0.06554
 C185 C 0.48816 -0.25498 0.02346
 C186 C 0.54269 -0.21700 -0.01222
 C187 C 0.49563 -0.19570 -0.05385
 C188 C 0.44117 -0.23277 -0.01831
 H189 H 0.51061 -0.25339 -0.15272
 H190 H 0.59627 -0.29217 -0.07594
 H191 H 0.41098 -0.32118 -0.08717
 H192 H 0.48183 -0.25661 0.07486
 H193 H 0.58116 -0.18615 0.00953
 H194 H 0.39587 -0.21511 -0.00177
 C195 C 0.53433 0.26413 0.06738
 C196 C 0.53568 0.29221 0.00391
 C197 C 0.48142 0.32976 0.02960
 C198 C 0.48005 0.30238 0.09306
 C199 C 0.43346 0.27635 0.00619
 C200 C 0.48782 0.23786 -0.01940
 C201 C 0.48640 0.21033 0.04416
 C202 C 0.43211 0.24795 0.06991
 H203 H 0.57611 0.25872 0.09250
 H204 H 0.57844 0.31117 -0.02316
 H205 H 0.47688 0.32940 0.13930
 H206 H 0.39183 0.28221 -0.01894
 H207 H 0.49123 0.21191 -0.06616
 H208 H 0.38943 0.22901 0.09707
 C209 C -0.24989 -0.10768 0.47890
 C210 C -0.28605 -0.07047 0.53178
 C211 C -0.30857 -0.03182 0.48319
 C212 C -0.27306 -0.06876 0.43022
 C213 C -0.25160 0.01728 0.49058
 C214 C -0.22828 -0.02163 0.53919
 C215 C -0.19256 -0.05875 0.48633
 C216 C -0.21505 -0.01996 0.43761
 H217 H -0.25063 -0.15941 0.47362
 H218 H -0.31585 -0.09097 0.57071
 H219 H -0.29212 -0.08787 0.38526
 H220 H -0.25286 0.06881 0.49535
 H221 H -0.20938 -0.00246 0.58421
 H222 H -0.18526 0.00060 0.39873
 C223 C 0.24092 0.00506 0.54251
 C224 C 0.27801 -0.02853 0.48740
 C225 C 0.33371 0.02192 0.49639
 C226 C 0.29758 0.05516 0.55144
 C227 C 0.30901 0.06203 0.45040
 C228 C 0.25238 0.01188 0.44145
 C229 C 0.21613 0.04535 0.49649
 C230 C 0.27227 0.09560 0.50550
 H231 H 0.21234 -0.01834 0.58050
 H232 H 0.28093 -0.07977 0.48006
 H233 H 0.31671 0.07274 0.59677
 H234 H 0.33764 0.08536 0.41239
 H235 H 0.23334 -0.00576 0.39610
 H236 H 0.27200 0.14713 0.51327
 C237 C -0.02164 0.43917 1.23247
 C238 C 0.01601 0.49272 1.27102
 C239 C -0.03273 0.48411 1.32634
 C240 C -0.07009 0.43056 1.28886
 C241 C -0.07121 0.53229 1.30363
 C242 C -0.02273 0.54092 1.24752
 C243 C -0.06026 0.48749 1.20982
 C244 C -0.10884 0.47884 1.26549
 H245 H -0.00150 0.40071 1.20259
 H246 H 0.06750 0.49838 1.27390
 H247 H -0.08927 0.38504 1.30655
 H248 H -0.09130 0.57080 1.33354
 H249 H -0.00348 0.58650 1.23000
 H250 H -0.16050 0.47263 1.26447
 C251 C 0.05919 0.55056 0.76587
 C252 C 0.08546 0.50515 0.71320
 C253 C 0.02159 0.49700 0.68496
 C254 C -0.00485 0.54237 0.73674
 C255 C -0.00036 0.44096 0.72338
 C256 C 0.06363 0.44916 0.75252
 C257 C 0.03729 0.49456 0.80456
 C258 C -0.02670 0.48638 0.77617
 H259 H 0.08377 0.59576 0.78407
 H260 H 0.13155 0.51301 0.68681
 H261 H -0.03289 0.58087 0.72945
 H262 H -0.02486 0.39579 0.70498
 H263 H 0.09171 0.41062 0.75959
 H264 H -0.07336 0.47837 0.80140
   
