data_POSCAR
  _audit_creation_date              2014-09-24
  _audit_creation_method            'ToBaCCo'
  _symmetry_space_group_name_H-M    'P1'
  _symmetry_Int_Tables_number       1
  _symmetry_cell_setting            triclinic
  loop_
  _symmetry_equiv_pos_as_xyz
 x,y,z
_cell_length_a 37.7362
_cell_length_b 35.5242
_cell_length_c 36.7200
_cell_angle_alpha 83.638400
_cell_angle_beta 95.812400
_cell_angle_gamma 95.755300
loop_
  _atom_site_label
  _atom_site_type_symbol
  _atom_site_fract_x
  _atom_site_fract_y
  _atom_site_fract_z
C1 C 0.29217 0.31803 0.23473
 H2 H 0.29635 0.32129 0.26384
 C3 C 0.31339 0.34062 0.21021
 H4 H 0.33375 0.36140 0.22068
 C5 C 0.26173 0.28557 0.18608
 H6 H 0.24221 0.26349 0.17684
 C7 C 0.28271 0.30709 0.16074
 H8 H 0.27862 0.30164 0.13211
 N9 N 0.26686 0.29123 0.22234
 C10 C 0.19425 0.26498 0.30935
 H11 H 0.19353 0.23428 0.31293
 C12 C 0.17366 0.28363 0.33001
 H13 H 0.15731 0.26699 0.34963
 C14 C 0.21612 0.32373 0.27892
 H15 H 0.23211 0.33928 0.25850
 C16 C 0.19612 0.34354 0.29907
 H17 H 0.19737 0.37423 0.29406
 Zn18 Zn 0.24202 0.25805 0.25722
 N19 N 0.21525 0.28519 0.28471
 C20 C 0.27885 0.22924 0.32538
 N21 N 0.27705 0.23210 0.28799
 C22 C 0.30094 0.21635 0.27033
 C23 C 0.32722 0.19562 0.29024
 C24 C 0.30474 0.20854 0.34647
 C25 C 0.18160 0.23555 0.21059
 C26 C 0.15884 0.21080 0.18986
 C27 C 0.19415 0.15958 0.21575
 C28 C 0.21596 0.18518 0.23621
 N29 N 0.20997 0.22258 0.23257
 H30 H 0.26007 0.24259 0.33893
 H31 H 0.29916 0.21945 0.24058
 H32 H 0.34550 0.18286 0.27540
 H33 H 0.30541 0.20602 0.37618
 H34 H 0.17726 0.26539 0.20846
 H35 H 0.13701 0.22187 0.17173
 H36 H 0.19996 0.13011 0.21841
 H37 H 0.23807 0.17514 0.25443
 C38 C 0.17458 0.32350 0.32513
 C39 C 0.30914 0.33482 0.17275
 C40 C 0.16549 0.17240 0.19172
 C41 C 0.32914 0.19106 0.32886
 C42 C 0.79217 0.82038 0.23361
 H43 H 0.79561 0.82454 0.26254
 C44 C 0.81321 0.84309 0.20901
 H45 H 0.83247 0.86489 0.21950
 C46 C 0.76382 0.78567 0.18561
 H47 H 0.74515 0.76272 0.17669
 C48 C 0.78481 0.80708 0.16022
 H49 H 0.78134 0.80044 0.13193
 N50 N 0.76791 0.79249 0.22157
 C51 C 0.69540 0.76596 0.30878
 H52 H 0.69518 0.73530 0.31262
 C53 C 0.67463 0.78440 0.32944
 H54 H 0.65866 0.76764 0.34933
 C55 C 0.71617 0.82480 0.27768
 H56 H 0.73173 0.84045 0.25696
 C57 C 0.69597 0.84439 0.29783
 H58 H 0.69669 0.87504 0.29253
 Zn59 Zn 0.74312 0.75934 0.25653
 N60 N 0.71600 0.78632 0.28385
 C61 C 0.78011 0.73100 0.32484
 N62 N 0.77824 0.73367 0.28745
 C63 C 0.80209 0.71778 0.26985
 C64 C 0.82835 0.69706 0.28982
 C65 C 0.80597 0.71031 0.34599
 C66 C 0.68313 0.73650 0.20963
 C67 C 0.66043 0.71158 0.18904
 C68 C 0.69549 0.66042 0.21569
 C69 C 0.71723 0.68619 0.23603
 N70 N 0.71132 0.72363 0.23196
 H71 H 0.76139 0.74447 0.33836
 H72 H 0.80025 0.72071 0.24010
 H73 H 0.84656 0.68416 0.27501
 H74 H 0.80668 0.70791 0.37570
 H75 H 0.67886 0.76637 0.20716
 H76 H 0.63872 0.72255 0.17066
 H77 H 0.70121 0.63091 0.21872
 H78 H 0.73920 0.67625 0.25452
 C79 C 0.67492 0.82421 0.32424
 C80 C 0.81024 0.83617 0.17174
 C81 C 0.66698 0.67311 0.19138
 C82 C 0.83029 0.69264 0.32843
 C83 C 0.79287 0.31775 0.73522
 H84 H 0.79719 0.32099 0.76433
 C85 C 0.81394 0.34042 0.71061
 H86 H 0.83432 0.36122 0.72101
 C87 C 0.76225 0.28531 0.68666
 H88 H 0.74272 0.26322 0.67747
 C89 C 0.78307 0.30690 0.66122
 H90 H 0.77886 0.30149 0.63259
 N91 N 0.76755 0.29093 0.72292
 C92 C 0.69514 0.26457 0.81012
 H93 H 0.69446 0.23387 0.81374
 C94 C 0.67450 0.28323 0.83073
 H95 H 0.65816 0.26659 0.85036
 C96 C 0.71692 0.32331 0.77960
 H97 H 0.73289 0.33886 0.75915
 C98 C 0.69687 0.34312 0.79969
 H99 H 0.69806 0.37381 0.79461
 Zn100 Zn 0.74287 0.25768 0.75788
 N101 N 0.71612 0.28477 0.78545
 C102 C 0.77972 0.22848 0.82590
 N103 N 0.77801 0.23176 0.78853
 C104 C 0.80202 0.21639 0.77076
 C105 C 0.82832 0.19554 0.79047
 C106 C 0.80556 0.20763 0.84688
 C107 C 0.68233 0.23501 0.71147
 C108 C 0.65960 0.21019 0.69078
 C109 C 0.69521 0.15914 0.71644
 C110 C 0.71698 0.18480 0.73686
 N111 N 0.71083 0.22215 0.73331
 H112 H 0.76083 0.24158 0.83955
 H113 H 0.80032 0.21985 0.74101
 H114 H 0.84655 0.18331 0.77510
 H115 H 0.80580 0.20502 0.87657
 H116 H 0.67786 0.26481 0.70940
 H117 H 0.63766 0.22117 0.67276
 H118 H 0.70115 0.12972 0.71903
 H119 H 0.73921 0.17485 0.75496
 C120 C 0.67533 0.32309 0.82576
 C121 C 0.80952 0.33467 0.67314
 C122 C 0.66642 0.17185 0.69255
 C123 C 0.83024 0.19021 0.82926
 C124 C 0.29216 0.81850 0.73512
 H125 H 0.29632 0.82190 0.76420
 C126 C 0.31338 0.84099 0.71053
 H127 H 0.33371 0.86185 0.72092
 C128 C 0.26182 0.78574 0.68662
 H129 H 0.24235 0.76358 0.67747
 C130 C 0.28280 0.80716 0.66122
 H131 H 0.27876 0.80155 0.63264
 N132 N 0.26691 0.79159 0.72285
 C133 C 0.19433 0.76533 0.80992
 H134 H 0.19373 0.73464 0.81361
 C135 C 0.17355 0.78396 0.83042
 H136 H 0.15719 0.76731 0.85004
 C137 C 0.21603 0.82408 0.77935
 H138 H 0.23201 0.83963 0.75892
 C139 C 0.19584 0.84386 0.79934
 H140 H 0.19695 0.87454 0.79419
 Zn141 Zn 0.24215 0.75843 0.75782
 N142 N 0.21531 0.78555 0.78527
 C143 C 0.27909 0.72965 0.82597
 N144 N 0.27727 0.73260 0.78858
 C145 C 0.30120 0.71694 0.77087
 C146 C 0.32751 0.69622 0.79072
 C147 C 0.30501 0.70895 0.84701
 C148 C 0.18177 0.73569 0.71127
 C149 C 0.15907 0.71083 0.69060
 C150 C 0.19449 0.65975 0.71663
 C151 C 0.21624 0.68545 0.73703
 N152 N 0.21017 0.72284 0.73328
 H153 H 0.26027 0.74291 0.83957
 H154 H 0.29939 0.72009 0.74112
 H155 H 0.34580 0.68353 0.77583
 H156 H 0.30568 0.70634 0.87673
 H157 H 0.17737 0.76552 0.70905
 H158 H 0.13722 0.72180 0.67243
 H159 H 0.20037 0.63030 0.71937
 H160 H 0.23837 0.67551 0.75527
 C161 C 0.17427 0.82381 0.82536
 C162 C 0.30919 0.83499 0.67312
 C163 C 0.16582 0.67245 0.69256
 C164 C 0.32944 0.69155 0.82934
 C165 C 0.03125 -0.03599 -0.03293
 C166 C 0.05461 -0.01446 -0.00403
 C167 C 0.03628 0.00696 0.01476
 C168 C -0.00410 0.00463 0.00315
 C169 C 0.00211 -0.05935 -0.01162
 C170 C -0.01624 -0.03815 0.00743
 C171 C 0.01154 -0.00550 -0.05735
 C172 C -0.00712 0.01574 -0.03867
 H173 H 0.08328 -0.01581 0.00070
 H174 H -0.01920 0.02186 0.01858
 H175 H -0.00301 -0.08995 -0.01095
 H176 H 0.01148 -0.00207 -0.08704
 C177 C 0.03259 0.46354 0.46802
 C178 C 0.05582 0.48515 0.49693
 C179 C 0.03736 0.50644 0.51573
 C180 C -0.00303 0.50390 0.50408
 C181 C 0.00354 0.44003 0.48931
 C182 C -0.01500 0.46107 0.50834
 C183 C 0.01276 0.49393 0.44359
 C184 C -0.00602 0.51505 0.46226
 H185 H 0.08451 0.48395 0.50167
 H186 H -0.01822 0.52107 0.51949
 H187 H -0.00143 0.40942 0.48992
 H188 H 0.01281 0.49748 0.41391
 C189 C 0.53275 -0.03687 0.46800
 C190 C 0.55604 -0.01518 0.49681
 C191 C 0.53760 0.00606 0.51568
 C192 C 0.49718 0.00341 0.50420
 C193 C 0.50384 -0.06046 0.48944
 C194 C 0.48532 -0.03945 0.50854
 C195 C 0.51275 -0.00656 0.44363
 C196 C 0.49399 0.01451 0.46238
 H197 H 0.58474 -0.01631 0.50145
 H198 H 0.48202 0.02055 0.51966
 H199 H 0.49892 -0.09107 0.49004
 H200 H 0.51265 -0.00307 0.41394
 C201 C 0.53290 0.46322 -0.03188
 C202 C 0.55620 0.48489 -0.00307
 C203 C 0.53779 0.50618 0.01578
 C204 C 0.49738 0.50358 0.00428
 C205 C 0.50394 0.43970 -0.01047
 C206 C 0.48545 0.46074 0.00861
 C207 C 0.51296 0.49357 -0.05628
 C208 C 0.49423 0.51468 -0.03754
 H209 H 0.58491 0.48376 0.00155
 H210 H 0.48224 0.52075 0.01974
 H211 H 0.49895 0.40910 -0.00988
 H212 H 0.51288 0.49706 -0.08597
 C213 C 0.11313 -0.11759 -0.11401
 N214 N 0.13681 -0.09836 -0.13636
 N215 N 0.15614 -0.11699 -0.15558
 C216 C 0.15265 -0.15560 -0.15318
 N217 N 0.12894 -0.17481 -0.13072
 N218 N 0.10952 -0.15617 -0.11154
 C219 C 0.09185 -0.09684 -0.09295
 N220 N 0.06672 -0.11564 -0.07199
 N221 N 0.04744 -0.09662 -0.05302
 C222 C 0.05260 -0.05810 -0.05427
 N223 N 0.07782 -0.03940 -0.07517
 N224 N 0.09702 -0.05839 -0.09418
 C225 C 0.11417 0.38213 0.38646
 N226 N 0.13780 0.40135 0.36405
 N227 N 0.15690 0.38271 0.34460
 C228 C 0.15322 0.34410 0.34682
 N229 N 0.12957 0.32492 0.36935
 N230 N 0.11038 0.34356 0.38876
 C231 C 0.09308 0.40286 0.40773
 N232 N 0.06798 0.38403 0.42870
 N233 N 0.04879 0.40300 0.44779
 C234 C 0.05400 0.44151 0.44667
 N235 N 0.07920 0.46025 0.42577
 N236 N 0.09833 0.44130 0.40663
 C237 C 0.61432 -0.11772 0.38590
 N238 N 0.63762 -0.09831 0.36323
 N239 N 0.65677 -0.11678 0.34366
 C240 C 0.65346 -0.15539 0.34602
 N241 N 0.63013 -0.17477 0.36879
 N242 N 0.61089 -0.15630 0.38832
 C243 C 0.59322 -0.09717 0.40733
 N244 N 0.56835 -0.11615 0.42848
 N245 N 0.54915 -0.09731 0.44770
 C246 C 0.55415 -0.05879 0.44654
 N247 N 0.57914 -0.03990 0.42546
 N248 N 0.59826 -0.05871 0.40618
 C249 C 0.61461 0.38176 -0.11326
 N250 N 0.63821 0.40097 -0.13571
 N251 N 0.65742 0.38232 -0.15504
 C252 C 0.65387 0.34370 -0.15266
 N253 N 0.63025 0.32452 -0.13009
 N254 N 0.61096 0.34318 -0.11080
 C255 C 0.59343 0.40250 -0.09209
 N256 N 0.56842 0.38367 -0.07103
 N257 N 0.54918 0.40266 -0.05199
 C258 C 0.55427 0.44119 -0.05326
 N259 N 0.57939 0.45993 -0.07427
 N260 N 0.59856 0.44097 -0.09336
 C261 C -0.09790 0.12251 -0.11311
 N262 N -0.09901 0.12906 -0.15026
 N263 N -0.12221 0.15151 -0.16893
 C264 C -0.14541 0.16845 -0.15135
 N265 N -0.14391 0.16207 -0.11396
 N266 N -0.12068 0.13953 -0.09523
 C267 C -0.07328 0.09621 -0.09315
 N268 N -0.07237 0.08803 -0.05606
 N269 N -0.05093 0.06285 -0.03856
 C270 C -0.02969 0.04492 -0.05751
 N271 N -0.03050 0.05338 -0.09454
 N272 N -0.05185 0.07852 -0.11200
 C273 C -0.09614 0.62253 0.38795
 N274 N -0.09659 0.62984 0.35088
 N275 N -0.11959 0.65252 0.33221
 C276 C -0.14312 0.66886 0.34980
 N277 N -0.14245 0.66176 0.38701
 N278 N -0.11940 0.63901 0.40575
 C279 C -0.07174 0.59599 0.40789
 N280 N -0.07125 0.58736 0.44490
 N281 N -0.04997 0.56201 0.46237
 C282 C -0.02850 0.54434 0.44345
 N283 N -0.02890 0.55323 0.40650
 N284 N -0.05008 0.57855 0.38908
 C285 C 0.40312 0.12133 0.38824
 N286 N 0.40256 0.12863 0.35116
 N287 N 0.37942 0.15117 0.33253
 C288 C 0.35584 0.16737 0.35017
 N289 N 0.35660 0.16027 0.38739
 N290 N 0.37979 0.13766 0.40609
 C291 C 0.42771 0.09496 0.40813
 N292 N 0.42833 0.08637 0.44516
 N293 N 0.44979 0.06118 0.46259
 C294 C 0.47133 0.04364 0.44362
 N295 N 0.47079 0.05250 0.40666
 N296 N 0.44943 0.07766 0.38927
 C297 C 0.40342 0.62168 -0.11150
 N298 N 0.40281 0.62903 -0.14858
 N299 N 0.37967 0.65162 -0.16714
 C300 C 0.35615 0.66783 -0.14943
 N301 N 0.35696 0.66067 -0.11221
 N302 N 0.38015 0.63801 -0.09358
 C303 C 0.42800 0.59525 -0.09167
 N304 N 0.42868 0.58666 -0.05464
 N305 N 0.45012 0.56143 -0.03726
 C306 C 0.47158 0.54385 -0.05628
 N307 N 0.47099 0.55271 -0.09324
 N308 N 0.44965 0.57791 -0.11059
 C309 C -0.12087 -0.10616 0.09990
 N310 N -0.14398 -0.13558 0.08943
 N311 N -0.16670 -0.15363 0.11238
 C312 C -0.16699 -0.14335 0.14694
 N313 N -0.14388 -0.11368 0.15723
 N314 N -0.12139 -0.09534 0.13413
 C315 C -0.09470 -0.08761 0.07515
 N316 N -0.07699 -0.05338 0.08131
 N317 N -0.05244 -0.03730 0.05936
 C318 C -0.04441 -0.05509 0.03077
 N319 N -0.06215 -0.08931 0.02464
 N320 N -0.08697 -0.10517 0.04631
 C321 C -0.12001 0.39252 0.60021
 N322 N -0.13936 0.35976 0.59203
 N323 N -0.16224 0.34187 0.61489
 C324 C -0.16646 0.35585 0.64699
 N325 N -0.14713 0.38874 0.65510
 N326 N -0.12443 0.40682 0.63207
 C327 C -0.09368 0.41111 0.57563
 N328 N -0.07818 0.44669 0.58006
 N329 N -0.05351 0.46286 0.55828
 C330 C -0.04323 0.44390 0.53154
 N331 N -0.05881 0.40836 0.52713
 N332 N -0.08366 0.39233 0.54866
 C333 C 0.38019 -0.10775 0.60040
 N334 N 0.36088 -0.14057 0.59234
 N335 N 0.33786 -0.15828 0.61513
 C336 C 0.33341 -0.14404 0.64704
 N337 N 0.35269 -0.11110 0.65504
 N338 N 0.37555 -0.09320 0.63208
 C339 C 0.40662 -0.08930 0.57588
 N340 N 0.42204 -0.05365 0.58015
 N341 N 0.44673 -0.03755 0.55838
 C342 C 0.45715 -0.05664 0.53181
 N343 N 0.44166 -0.09225 0.52756
 N344 N 0.41678 -0.10821 0.54909
 C345 C 0.38011 0.39239 0.10018
 N346 N 0.36074 0.35965 0.09196
 N347 N 0.33772 0.34185 0.11471
 C348 C 0.33334 0.35591 0.14672
 N349 N 0.35268 0.38878 0.15488
 N350 N 0.37553 0.40677 0.13196
 C351 C 0.40657 0.41090 0.07572
 N352 N 0.42208 0.44648 0.08015
 N353 N 0.44683 0.46260 0.05844
 C354 C 0.45720 0.44359 0.03179
 N355 N 0.44162 0.40804 0.02739
 N356 N 0.41668 0.39207 0.04885
 C357 C 0.10669 0.09942 0.12075
 N358 N 0.13835 0.09023 0.13869
 N359 N 0.15657 0.11310 0.16174
 C360 C 0.14400 0.14621 0.16761
 N361 N 0.11220 0.15534 0.14972
 N362 N 0.09381 0.13231 0.12681
 C363 C 0.08766 0.07481 0.09414
 N364 N 0.05389 0.08055 0.07945
 N365 N 0.03730 0.05864 0.05454
 C366 C 0.05399 0.03045 0.04319
 N367 N 0.08772 0.02475 0.05798
 N368 N 0.10418 0.04642 0.08305
 C369 C 0.10728 0.59919 0.62169
 N370 N 0.09430 0.63205 0.62767
 N371 N 0.11259 0.65516 0.65055
 C372 C 0.14441 0.64616 0.66850
 N373 N 0.15708 0.61306 0.66271
 N374 N 0.13895 0.59011 0.63970
 C375 C 0.08837 0.57449 0.59510
 N376 N 0.10502 0.54615 0.58407
 N377 N 0.08866 0.52441 0.55900
 C378 C 0.05493 0.52999 0.54416
 N379 N 0.03811 0.55811 0.55545
 N380 N 0.05459 0.58009 0.58036
 C381 C 0.60774 0.09873 0.62162
 N382 N 0.59475 0.13153 0.62776
 N383 N 0.61308 0.15460 0.65065
 C384 C 0.64497 0.14561 0.66846
 N385 N 0.65766 0.11258 0.66251
 N386 N 0.63948 0.08967 0.63948
 C387 C 0.58878 0.07407 0.59502
 N388 N 0.60542 0.04581 0.58386
 N389 N 0.58902 0.02409 0.55880
 C390 C 0.55523 0.02961 0.54410
 N391 N 0.53842 0.05767 0.55551
 N392 N 0.55495 0.07963 0.58041
 C393 C 0.60816 0.59946 0.12108
 N394 N 0.59530 0.63245 0.12683
 N395 N 0.61369 0.65570 0.14951
 C396 C 0.64550 0.64670 0.16749
 N397 N 0.65806 0.61348 0.16194
 N398 N 0.63983 0.59039 0.13911
 C399 C 0.58913 0.57460 0.09469
 N400 N 0.60568 0.54614 0.08378
 N401 N 0.58922 0.52427 0.05887
 C402 C 0.55547 0.52984 0.04408
 N403 N 0.53874 0.55809 0.05526
 N404 N 0.55533 0.58020 0.08000
   
