data_POSCAR
  _audit_creation_date              2014-09-24
  _audit_creation_method            'ToBaCCo'
  _symmetry_space_group_name_H-M    'P1'
  _symmetry_Int_Tables_number       1
  _symmetry_cell_setting            triclinic
  loop_
  _symmetry_equiv_pos_as_xyz
 x,y,z
_cell_length_a 31.1521
_cell_length_b 30.5247
_cell_length_c 30.3231
_cell_angle_alpha 92.711600
_cell_angle_beta 92.229900
_cell_angle_gamma 91.950100
loop_
  _atom_site_label
  _atom_site_type_symbol
  _atom_site_fract_x
  _atom_site_fract_y
  _atom_site_fract_z
N1 N 0.20732 1.29615 0.17849
 N2 N 0.17753 1.29562 0.20809
 C3 C 0.14811 1.32540 0.19825
 C4 C 0.16051 1.34557 0.16083
 C5 C 0.19797 1.32631 0.14890
 H6 H 0.11869 1.33026 0.21535
 H7 H 0.21561 1.33189 0.11953
 Cu8 Cu 0.17722 1.25228 0.25308
 Cu9 Cu 0.25271 1.25385 0.17697
 Cu10 Cu 0.25261 1.17630 0.25699
 N11 N 0.17745 1.20871 0.29785
 N12 N 0.20720 1.17916 0.29928
 C13 C 0.19777 1.15058 0.33029
 C14 C 0.16030 1.16312 0.34916
 C15 C 0.14797 1.19985 0.32787
 H16 H 0.21532 1.12141 0.33669
 H17 H 0.11854 1.21709 0.33211
 N18 N 0.29584 1.17880 0.21135
 N19 N 0.29589 1.20836 0.18089
 C20 C 0.32648 1.19887 0.15206
 C21 C 0.34649 1.16185 0.16521
 C22 C 0.32640 1.14977 0.20266
 H23 H 0.33206 1.21590 0.12223
 H24 H 0.33191 1.12052 0.22052
 H25 H 0.21872 1.20410 0.20596
 H26 H 0.25352 1.24185 0.24334
 N27 N 0.81408 0.72342 0.13622
 N28 N 0.84198 0.72291 0.16990
 C29 C 0.87024 0.69137 0.16185
 C30 C 0.85930 0.67123 0.12118
 C31 C 0.82364 0.69217 0.10561
 H32 H 0.89736 0.68420 0.18333
 H33 H 0.80656 0.68580 0.07409
 Cu34 Cu 0.84044 0.76533 0.21965
 Cu35 Cu 0.76878 0.76592 0.13385
 Cu36 Cu 0.76515 0.84122 0.22300
 N37 N 0.83847 0.80798 0.26920
 N38 N 0.80875 0.83756 0.27037
 C39 C 0.81709 0.86568 0.30547
 C40 C 0.85380 0.85276 0.32737
 C41 C 0.86683 0.81635 0.30352
 H42 H 0.79959 0.89500 0.31270
 H43 H 0.89625 0.79922 0.30904
 N44 N 0.72389 0.83980 0.17201
 N45 N 0.72539 0.81145 0.13783
 C46 C 0.69436 0.82041 0.10763
 C47 C 0.67260 0.85587 0.12385
 C48 C 0.69194 0.86745 0.16448
 H49 H 0.68861 0.80316 0.07587
 H50 H 0.68394 0.89473 0.18633
 H51 H 0.80117 0.81455 0.17299
 H52 H 0.76481 0.77594 0.20116
 N53 N 0.80069 1.26885 -0.16462
 N54 N 0.82591 1.27063 -0.19832
 C55 C 0.85461 1.30446 -0.19106
 C56 C 0.84655 1.32496 -0.15086
 C57 C 0.81237 1.30158 -0.13480
 H58 H 0.88089 1.31190 -0.21210
 H59 H 0.79887 1.30632 -0.10267
 Cu60 Cu 0.82212 1.22560 -0.24580
 Cu61 Cu 0.75849 1.22100 -0.15924
 Cu62 Cu 0.76289 1.13281 -0.23503
 N63 N 0.82998 1.17343 -0.28318
 N64 N 0.80693 1.13705 -0.27888
 C65 C 0.82011 1.10573 -0.30761
 C66 C 0.85302 1.12377 -0.33081
 C67 C 0.85866 1.16661 -0.31463
 H68 H 0.80739 1.07225 -0.31067
 H69 H 0.88243 1.19064 -0.32422
 N70 N 0.72070 1.13537 -0.18809
 N71 N 0.71891 1.16925 -0.15950
 C72 C 0.68781 1.16109 -0.13108
 C73 C 0.66934 1.12032 -0.14241
 C74 C 0.69072 1.10471 -0.17854
 H75 H 0.67970 1.18273 -0.10362
 H76 H 0.68529 1.07317 -0.19601
 H77 H 0.79654 1.17635 -0.19133
 H78 H 0.75148 1.19871 -0.22501
 N79 N 0.17251 0.72018 -0.16196
 N80 N 0.13987 0.72225 -0.19057
 C81 C 0.10948 0.69177 -0.18157
 C82 C 0.12422 0.66971 -0.14565
 C83 C 0.16411 0.68840 -0.13393
 H84 H 0.07869 0.68661 -0.19910
 H85 H 0.18495 0.68020 -0.10640
 Cu86 Cu 0.13953 0.76580 -0.23551
 Cu87 Cu 0.22225 0.76051 -0.16110
 Cu88 Cu 0.22188 0.83998 -0.23873
 N89 N 0.13942 0.81179 -0.27793
 N90 N 0.17195 0.84031 -0.27921
 C91 C 0.16329 0.86914 -0.31029
 C92 C 0.12334 0.85800 -0.32932
 C93 C 0.10881 0.82163 -0.30823
 H94 H 0.18401 0.89676 -0.31773
 H95 H 0.07806 0.80432 -0.31387
 N96 N 0.26956 0.83453 -0.19500
 N97 N 0.26969 0.80422 -0.16534
 C98 C 0.30414 0.81175 -0.13741
 C99 C 0.32663 0.84829 -0.15034
 C100 C 0.30392 0.86211 -0.18670
 H101 H 0.31082 0.79394 -0.10807
 H102 H 0.31039 0.89177 -0.20380
 H103 H 0.18984 0.81156 -0.18816
 H104 H 0.21771 0.77391 -0.22715
 C105 C 0.46813 1.03415 0.03851
 C106 C 0.49767 1.00325 0.06274
 C107 C 0.51889 0.97581 0.03496
 C108 C 0.50868 0.98160 -0.01444
 C109 C 0.49723 1.05823 0.00723
 C110 C 0.51846 1.03066 -0.02040
 C111 C 0.43822 1.00410 0.00839
 C112 C 0.45940 0.97666 -0.01926
 H113 H 0.50279 1.00428 0.09843
 H114 H 0.52585 0.95915 -0.03706
 H115 H 0.50204 1.09370 0.00814
 H116 H 0.40336 1.00453 0.00879
 C117 C 0.03715 0.46491 1.03350
 C118 C 0.06105 0.49451 1.00243
 C119 C 0.03431 0.51625 0.97501
 C120 C -0.01383 0.50646 0.98099
 C121 C 0.00680 0.49521 1.05800
 C122 C -0.01982 0.51693 1.03044
 C123 C 0.00777 0.43444 1.00323
 C124 C -0.01885 0.45616 0.97581
 H125 H 0.09581 0.49929 1.00330
 H126 H -0.03559 0.52407 0.95853
 H127 H 0.00737 0.50023 1.09374
 H128 H 0.00766 0.39885 1.00378
 C129 C 1.03647 0.03870 0.46961
 C130 C 1.00592 0.06300 0.49985
 C131 C 0.97932 0.03560 0.52144
 C132 C 0.98552 -0.01352 0.51089
 C133 C 1.06039 0.00774 0.49954
 C134 C 1.03366 -0.01953 0.52112
 C135 C 1.00731 0.00869 0.43863
 C136 C 0.98070 -0.01857 0.46022
 H137 H 1.00609 0.09851 0.50467
 H138 H 0.96377 -0.03582 0.52841
 H139 H 1.09515 0.00833 0.50436
 H140 H 1.00758 0.00903 0.40282
 C141 C 0.13654 0.37243 1.13614
 C142 C 0.11471 0.39517 1.11360
 C143 C 0.08850 0.42049 1.08651
 C144 C 0.06561 0.44108 1.06286
 C145 C -0.11751 0.63749 1.09885
 C146 C -0.09681 0.60949 1.08125
 C147 C -0.07123 0.57701 1.06203
 C148 C -0.04835 0.54952 1.04691
 C149 C -0.12635 0.35738 0.87352
 C150 C -0.10289 0.38303 0.89515
 C151 C -0.07456 0.41101 0.92186
 C152 C -0.04959 0.43285 0.94582
 C153 C 0.10191 0.63623 0.87721
 C154 C 0.08439 0.60839 0.89775
 C155 C 0.06534 0.57606 0.92327
 C156 C 0.05043 0.54869 0.94623
 C157 C 1.13617 0.13930 0.37646
 C158 C 1.11422 0.11745 0.39952
 C159 C 1.08790 0.09102 0.42512
 C160 C 1.06494 0.06778 0.44583
 C161 C 1.10196 -0.11958 0.63951
 C162 C 1.08416 -0.09846 0.61210
 C163 C 1.06488 -0.07229 0.58024
 C164 C 1.04984 -0.04882 0.55322
 C165 C 0.87767 -0.12312 0.35888
 C166 C 0.89974 -0.10078 0.38529
 C167 C 0.92676 -0.07340 0.41403
 C168 C 0.95081 -0.04898 0.43640
 C169 C 0.87703 0.10316 0.63857
 C170 C 0.89917 0.08585 0.61156
 C171 C 0.92611 0.06690 0.58008
 C172 C 0.94992 0.05194 0.55331
 C173 C 0.37556 1.13618 0.14007
 C174 C 0.39864 1.11388 0.11810
 C175 C 0.42416 1.08701 0.09146
 C176 C 0.44469 1.06347 0.06796
 C177 C 0.63638 1.09808 -0.11920
 C178 C 0.60899 1.08062 -0.09840
 C179 C 0.57721 1.06164 -0.07259
 C180 C 0.55031 1.04677 -0.04942
 C181 C 0.35988 0.87296 -0.12493
 C182 C 0.38605 0.89487 -0.10247
 C183 C 0.41440 0.92193 -0.07484
 C184 C 0.43633 0.94623 -0.05012
 C185 C 0.63890 0.87863 0.10197
 C186 C 0.61094 0.89906 0.08473
 C187 C 0.57857 0.92443 0.06591
 C188 C 0.55122 0.94724 0.05109
   
