data_POSCAR
  _audit_creation_date              2014-09-24
  _audit_creation_method            'ToBaCCo'
  _symmetry_space_group_name_H-M    'P1'
  _symmetry_Int_Tables_number       1
  _symmetry_cell_setting            triclinic
  loop_
  _symmetry_equiv_pos_as_xyz
 x,y,z
_cell_length_a 10.3661
_cell_length_b 10.3661
_cell_length_c 10.3661
_cell_angle_alpha 90.000000
_cell_angle_beta 90.000000
_cell_angle_gamma 90.000000
loop_
  _atom_site_label
  _atom_site_type_symbol
  _atom_site_fract_x
  _atom_site_fract_y
  _atom_site_fract_z
C1 C 0.00029 0.50029 0.25000
 C2 C 0.00029 0.50029 0.75000
 C3 C 0.25029 0.00029 0.50000
 C4 C 0.75029 0.00029 0.50000
 C5 C 0.50029 0.25029 1.00000
 C6 C 0.50029 0.75029 1.00000
 B7 B 1.00029 1.13231 0.08045
 B8 B 1.08074 1.00029 0.13202
 B9 B 0.91984 1.00029 0.13202
 B10 B 0.86827 1.08074 -0.00000
 B11 B 1.00029 1.13231 -0.08045
 B12 B 1.13231 1.08074 -0.00000
 B13 B 1.00029 0.86827 -0.08045
 B14 B 0.91984 1.00029 -0.13202
 B15 B 1.08074 1.00029 -0.13202
 B16 B 1.13231 0.91984 0.00000
 B17 B 1.00029 0.86827 0.08045
 B18 B 0.86827 0.91984 -0.00000
 B19 B 0.63231 0.50029 0.41955
 B20 B 0.50029 0.58074 0.36798
 B21 B 0.50029 0.41984 0.36798
 B22 B 0.58074 0.36827 0.50000
 B23 B 0.63231 0.50029 0.58045
 B24 B 0.58074 0.63231 0.50000
 B25 B 0.36827 0.50029 0.58045
 B26 B 0.50029 0.41984 0.63202
 B27 B 0.50029 0.58074 0.63202
 B28 B 0.41984 0.63231 0.50000
 B29 B 0.36827 0.50029 0.41955
 B30 B 0.41984 0.36827 0.50000
 C31 C 1.00029 1.37805 0.17973
 C32 C 1.00029 1.26845 0.14044
 C33 C 1.00029 0.62253 0.17973
 C34 C 1.00029 0.73212 0.14043
 C35 C 1.00029 1.37805 -0.17973
 C36 C 1.00029 1.26846 -0.14043
 C37 C 1.00029 0.62253 -0.17973
 C38 C 1.00029 0.73213 -0.14043
 C39 C 1.18002 1.00029 0.37776
 C40 C 1.14072 1.00029 0.26817
 C41 C 1.18002 1.00029 -0.37776
 C42 C 1.14072 1.00029 -0.26817
 C43 C 0.82056 1.00029 0.37776
 C44 C 0.85986 1.00029 0.26816
 C45 C 0.82056 1.00029 -0.37776
 C46 C 0.85986 1.00029 -0.26817
 C47 C 1.37805 1.18002 -0.00000
 C48 C 1.26845 1.14072 -0.00000
 C49 C 0.62253 1.18002 -0.00000
 C50 C 0.73212 1.14072 -0.00000
 C51 C 1.37805 0.82056 0.00000
 C52 C 1.26846 0.85986 0.00000
 C53 C 0.62253 0.82056 0.00000
 C54 C 0.73212 0.85986 -0.00000
 C55 C 0.87805 0.50029 0.32027
 C56 C 0.76846 0.50029 0.35957
 C57 C 0.12253 0.50029 0.32027
 C58 C 0.23212 0.50029 0.35957
 C59 C 0.87805 0.50029 0.67973
 C60 C 0.76845 0.50029 0.64043
 C61 C 0.12253 0.50029 0.67973
 C62 C 0.23212 0.50029 0.64043
 C63 C 0.50029 0.68002 0.12224
 C64 C 0.50029 0.64072 0.23184
 C65 C 0.50029 0.68002 0.87776
 C66 C 0.50029 0.64072 0.76817
 C67 C 0.50029 0.32056 0.12224
 C68 C 0.50029 0.35986 0.23183
 C69 C 0.50029 0.32056 0.87776
 C70 C 0.50029 0.35986 0.76816
 C71 C 0.68002 0.87805 0.50000
 C72 C 0.64072 0.76845 0.50000
 C73 C 0.68002 0.12253 0.50000
 C74 C 0.64072 0.23212 0.50000
 C75 C 0.32056 0.87805 0.50000
 C76 C 0.35986 0.76845 0.50000
 C77 C 0.32056 0.12253 0.50000
 C78 C 0.35986 0.23212 0.50000
   
