data_POSCAR
  _audit_creation_date              2014-09-24
  _audit_creation_method            'ToBaCCo'
  _symmetry_space_group_name_H-M    'P1'
  _symmetry_Int_Tables_number       1
  _symmetry_cell_setting            triclinic
  loop_
  _symmetry_equiv_pos_as_xyz
 x,y,z
_cell_length_a 72.2170
_cell_length_b 72.1544
_cell_length_c 21.7200
_cell_angle_alpha 89.907800
_cell_angle_beta 90.033900
_cell_angle_gamma 120.060900
loop_
  _atom_site_label
  _atom_site_type_symbol
  _atom_site_fract_x
  _atom_site_fract_y
  _atom_site_fract_z
C1 C 0.25383 0.50269 0.52990
 C2 C 0.25312 0.50259 0.46714
 C3 C 0.23473 0.50145 0.43356
 C4 C 0.27046 0.50327 0.42876
 C5 C 0.27172 0.50275 0.56359
 C6 C 0.23665 0.50237 0.56829
 C7 C 0.22080 0.48273 0.40186
 C8 C 0.20256 0.48065 0.37321
 C9 C 0.19795 0.49759 0.37365
 C10 C 0.21280 0.51677 0.40411
 C11 C 0.23075 0.51852 0.43416
 C12 C 0.27728 0.48832 0.43687
 C13 C 0.29449 0.49004 0.40298
 C14 C 0.30480 0.50631 0.35859
 C15 C 0.29725 0.52065 0.34867
 C16 C 0.28031 0.51918 0.38354
 C17 C 0.29276 0.51994 0.55859
 C18 C 0.30953 0.51900 0.58797
 C19 C 0.30547 0.50080 0.62223
 C20 C 0.28433 0.48387 0.62820
 C21 C 0.26758 0.48494 0.59961
 C22 C 0.24203 0.51802 0.61378
 C23 C 0.22614 0.51832 0.64964
 C24 C 0.20444 0.50304 0.64042
 C25 C 0.19916 0.48706 0.59563
 C26 C 0.21513 0.48652 0.56078
 H27 H 0.22385 0.46949 0.40037
 H28 H 0.19280 0.46596 0.34820
 H29 H 0.21010 0.53014 0.40875
 H30 H 0.24140 0.53310 0.45873
 H31 H 0.26951 0.47551 0.47019
 H32 H 0.29994 0.47882 0.41255
 H33 H 0.27509 0.53069 0.37586
 H34 H 0.29618 0.53386 0.53125
 H35 H 0.32572 0.53223 0.58272
 H36 H 0.28078 0.46981 0.65504
 H37 H 0.25141 0.47159 0.60411
 H38 H 0.25858 0.53019 0.62113
 H39 H 0.23091 0.53050 0.68473
 H40 H 0.18267 0.47513 0.58664
 H41 H 0.21063 0.47379 0.52761
 H42 H 0.30440 0.53304 0.31391
 C43 C 0.48329 -0.25752 0.53522
 C44 C 0.48368 -0.25685 0.47231
 C45 C 0.48541 -0.27326 0.43500
 C46 C 0.48293 -0.23935 0.43795
 C47 C 0.48387 -0.24011 0.57327
 C48 C 0.48254 -0.27564 0.56967
 C49 C 0.50122 -0.27867 0.44749
 C50 C 0.50207 -0.29473 0.41388
 C51 C 0.48761 -0.30527 0.36541
 C52 C 0.47245 -0.29906 0.35122
 C53 C 0.47132 -0.28332 0.38578
 C54 C 0.49864 -0.22755 0.39359
 C55 C 0.49934 -0.20984 0.36500
 C56 C 0.48444 -0.20354 0.38061
 C57 C 0.46822 -0.21581 0.42319
 C58 C 0.46724 -0.23379 0.45082
 C59 C 0.46846 -0.24516 0.61937
 C60 C 0.46837 -0.22899 0.65439
 C61 C 0.48367 -0.20737 0.64391
 C62 C 0.49941 -0.20241 0.59859
 C63 C 0.49970 -0.21863 0.56430
 C64 C 0.46546 -0.29658 0.56251
 C65 C 0.46515 -0.31349 0.59497
 C66 C 0.48213 -0.30987 0.63486
 C67 C 0.49904 -0.28857 0.64215
 C68 C 0.49910 -0.27173 0.61047
 H69 H 0.51279 -0.27063 0.48377
 H70 H 0.51385 -0.29910 0.42678
 H71 H 0.46143 -0.30631 0.31323
 H72 H 0.45925 -0.27915 0.37448
 H73 H 0.51080 -0.23162 0.38259
 H74 H 0.51197 -0.20062 0.33221
 H75 H 0.45462 -0.24300 0.48363
 H76 H 0.45628 -0.26165 0.62770
 H77 H 0.45633 -0.23347 0.68983
 H78 H 0.51132 -0.18596 0.58870
 H79 H 0.51207 -0.21439 0.53000
 H80 H 0.45245 -0.29983 0.53139
 H81 H 0.45202 -0.32947 0.58623
 H82 H 0.51200 -0.28459 0.67410
 H83 H 0.51226 -0.25557 0.61720
 H84 H 0.45636 -0.21143 0.43513
 C85 C 1.24075 0.75603 0.52985
 C86 C 1.24118 0.75525 0.46712
 C87 C 1.26017 0.77105 0.43164
 C88 C 1.22290 0.73854 0.43089
 C89 C 1.22371 0.73814 0.56601
 C90 C 1.25734 0.77472 0.56482
 C91 C 1.25790 0.78347 0.38602
 C92 C 1.27565 0.79849 0.35273
 C93 C 1.29622 0.80129 0.36343
 C94 C 1.29814 0.78817 0.40848
 C95 C 1.28036 0.77335 0.44226
 C96 C 1.20176 0.73340 0.44324
 C97 C 1.18474 0.71733 0.41006
 C98 C 1.18847 0.70663 0.36172
 C99 C 1.20978 0.71260 0.34751
 C100 C 1.22674 0.72820 0.38205
 C101 C 1.22056 0.71741 0.56105
 C102 C 1.20361 0.70032 0.59184
 C103 C 1.18912 0.70347 0.62790
 C104 C 1.19286 0.72460 0.63363
 C105 C 1.21010 0.74171 0.60374
 C106 C 1.26786 0.77160 0.61443
 C107 C 1.28407 0.78910 0.64592
 C108 C 1.29034 0.81039 0.62863
 C109 C 1.27902 0.81319 0.57967
 C110 C 1.26268 0.79564 0.54883
 H111 H 1.24234 0.78163 0.37651
 H112 H 1.27289 0.80729 0.31700
 H113 H 1.31349 0.78989 0.42008
 H114 H 1.28235 0.76370 0.47702
 H115 H 1.19835 0.74173 0.47885
 H116 H 1.16865 0.71317 0.42303
 H117 H 1.24291 0.73215 0.37067
 H118 H 1.23100 0.71439 0.53220
 H119 H 1.20132 0.68450 0.58417
 H120 H 1.18289 0.72820 0.66258
 H121 H 1.21246 0.75769 0.60859
 H122 H 1.26369 0.75556 0.62845
 H123 H 1.29110 0.78561 0.68494
 H124 H 1.28319 0.82888 0.56254
 H125 H 1.25442 0.79844 0.51152
 H126 H 1.21348 0.70536 0.30945
 C127 C 0.75733 0.51016 0.52983
 C128 C 0.75634 0.50676 0.46781
 C129 C 0.77350 0.50515 0.43458
 C130 C 0.73841 0.50507 0.42977
 C131 C 0.73999 0.51111 0.56359
 C132 C 0.77573 0.51283 0.56704
 C133 C 0.78350 0.51841 0.38355
 C134 C 0.80044 0.51800 0.35389
 C135 C 0.80780 0.50445 0.37516
 C136 C 0.79743 0.49073 0.42502
 C137 C 0.78016 0.49078 0.45378
 C138 C 0.73280 0.52109 0.43122
 C139 C 0.71578 0.51914 0.39571
 C140 C 0.70432 0.50138 0.35677
 C141 C 0.71035 0.48564 0.35433
 C142 C 0.72722 0.48748 0.39044
 C143 C 0.71912 0.49362 0.56408
 C144 C 0.70276 0.49500 0.59425
 C145 C 0.70684 0.51404 0.62452
 C146 C 0.72809 0.53143 0.62418
 C147 C 0.74442 0.52986 0.59467
 C148 C 0.77259 0.49755 0.61170
 C149 C 0.79001 0.49844 0.64240
 C150 C 0.81122 0.51494 0.63002
 C151 C 0.81392 0.53089 0.58695
 C152 C 0.79643 0.52978 0.55587
 H153 H 0.77850 0.52946 0.36760
 H154 H 0.80822 0.52869 0.31542
 H155 H 0.80266 0.47992 0.44148
 H156 H 0.77222 0.47988 0.49166
 H157 H 0.74156 0.53509 0.45997
 H158 H 0.71146 0.53146 0.39936
 H159 H 0.73148 0.47509 0.38799
 H160 H 0.71544 0.47897 0.54034
 H161 H 0.68677 0.48135 0.59102
 H162 H 0.73248 0.54612 0.64854
 H163 H 0.76054 0.54346 0.59523
 H164 H 0.75666 0.48428 0.62064
 H165 H 0.78657 0.48527 0.67294
 H166 H 0.82943 0.54462 0.57745
 H167 H 0.79907 0.54197 0.52226
 H168 H 0.70217 0.47198 0.32404
 C169 C 0.50281 0.25273 0.53546
 C170 C 0.50059 0.25182 0.47289
 C171 C 0.50174 0.27003 0.43721
 C172 C 0.49679 0.23254 0.43739
 C173 C 0.50465 0.23605 0.57031
 C174 C 0.50352 0.27038 0.57265
 C175 C 0.48581 0.26628 0.39381
 C176 C 0.48597 0.28339 0.36302
 C177 C 0.50195 0.30450 0.37568
 C178 C 0.51830 0.30825 0.41734
 C179 C 0.51843 0.29113 0.44697
 C180 C 0.48086 0.21188 0.45518
 C181 C 0.47797 0.19389 0.42288
 C182 C 0.49051 0.19614 0.37075
 C183 C 0.50578 0.21694 0.35143
 C184 C 0.50894 0.23489 0.38454
 C185 C 0.52126 0.23186 0.55824
 C186 C 0.52287 0.21615 0.59163
 C187 C 0.50769 0.20403 0.63757
 C188 C 0.49123 0.20871 0.64964
 C189 C 0.48989 0.22462 0.61684
 C190 C 0.52002 0.28132 0.61529
 C191 C 0.52108 0.29807 0.65015
 C192 C 0.50558 0.30445 0.64355
 C193 C 0.48877 0.29294 0.60105
 C194 C 0.48768 0.27607 0.56669
 H195 H 0.47291 0.25015 0.38503
 H196 H 0.47325 0.28022 0.33086
 H197 H 0.53092 0.32444 0.42700
 H198 H 0.53129 0.29438 0.47866
 H199 H 0.47075 0.20964 0.49454
 H200 H 0.46615 0.17821 0.43952
 H201 H 0.52106 0.25066 0.36919
 H202 H 0.53293 0.24072 0.52271
 H203 H 0.53550 0.21297 0.57908
 H204 H 0.47971 0.20071 0.68607
 H205 H 0.47716 0.22791 0.62739
 H206 H 0.53223 0.27695 0.62145
 H207 H 0.53380 0.30537 0.68370
 H208 H 0.47675 0.29730 0.59175
 H209 H 0.47458 0.26761 0.53469
 H210 H 0.51530 0.21942 0.31054
 C211 C 0.75946 0.23788 0.53068
 C212 C 0.75888 0.23821 0.46787
 C213 C 0.74177 0.22002 0.43244
 C214 C 0.77509 0.25682 0.43137
 C215 C 0.77789 0.25448 0.56600
 C216 C 0.74168 0.22080 0.56711
 C217 C 0.73687 0.19885 0.44350
 C218 C 0.72036 0.18189 0.41124
 C219 C 0.70881 0.18576 0.36578
 C220 C 0.71439 0.20708 0.35312
 C221 C 0.73059 0.22398 0.38631
 C222 C 0.78464 0.25335 0.37967
 C223 C 0.79928 0.27057 0.34371
 C224 C 0.80479 0.29160 0.35913
 C225 C 0.79521 0.29511 0.41059
 C226 C 0.78024 0.27786 0.44582
 C227 C 0.77464 0.26653 0.61060
 C228 C 0.79195 0.28273 0.64264
 C229 C 0.81312 0.28718 0.63172
 C230 C 0.81597 0.27434 0.58772
 C231 C 0.79862 0.25830 0.55536
 C232 C 0.72069 0.21693 0.56082
 C233 C 0.70391 0.20016 0.59313
 C234 C 0.70785 0.18697 0.63225
 C235 C 0.72896 0.19121 0.63950
 C236 C 0.74575 0.20809 0.60759
 H237 H 0.74570 0.19542 0.47757
 H238 H 0.71646 0.16572 0.42268
 H239 H 0.70631 0.21077 0.31731
 H240 H 0.73432 0.24020 0.37627
 H241 H 0.78079 0.23728 0.36723
 H242 H 0.80655 0.26750 0.30435
 H243 H 0.77255 0.28094 0.48404
 H244 H 0.75870 0.26382 0.61926
 H245 H 0.78848 0.29228 0.67366
 H246 H 0.83146 0.27600 0.57903
 H247 H 0.80136 0.24877 0.52205
 H248 H 0.71729 0.22674 0.53029
 H249 H 0.68779 0.19719 0.58650
 H250 H 0.73247 0.18147 0.66999
 H251 H 0.76187 0.21093 0.61328
 H252 H 0.79903 0.31120 0.42282
 O253 O 1.03093 0.54709 0.09664
 O254 O 1.05407 0.54061 0.04108
 C255 C 1.05007 0.55165 0.08044
 O256 O 0.97259 0.45146 0.11884
 O257 O 0.94794 0.45445 0.05922
 C258 C 0.95308 0.44572 0.10340
 O259 O 1.03250 0.48372 0.11658
 O260 O 1.05496 0.51048 0.05067
 C261 C 1.05145 0.49798 0.09753
 O262 O 0.97083 0.51747 0.09676
 O263 O 0.94708 0.48628 0.04774
 C264 C 0.95154 0.50235 0.08350
 Zr265 Zr 1.00078 0.52186 0.06718
 O266 O 0.99983 0.52500 0.16383
 O267 O 1.00098 0.55087 0.05149
 Zr268 Zr 1.00182 0.47572 0.08198
 O269 O 1.00107 0.47716 0.17922
 O270 O 1.00309 0.44709 0.08446
 O271 O 1.02047 0.50897 0.08488
 O272 O 0.98287 0.48965 0.08759
 O273 O 0.96906 0.51137 -0.11597
 O274 O 0.94632 0.48339 -0.05396
 C275 C 0.95003 0.49731 -0.09710
 O276 O 1.02950 0.47534 -0.10620
 O277 O 1.05348 0.50614 -0.05632
 C278 C 1.04885 0.49042 -0.09387
 O279 O 0.96984 0.44377 -0.09524
 O280 O 0.94656 0.45113 -0.04362
 C281 C 0.95066 0.43930 -0.07969
 O282 O 1.02901 0.54024 -0.12605
 O283 O 1.05324 0.53690 -0.06553
 C284 C 1.04846 0.54560 -0.11050
 Zr285 Zr 0.99937 0.51671 -0.08743
 O286 O 0.99612 0.51143 -0.18371
 O287 O 1.00070 0.54648 -0.09864
 Zr288 Zr 0.99993 0.47041 -0.07242
 O289 O 0.99668 0.46634 -0.16910
 O290 O 1.00214 0.44238 -0.06331
 Zr291 Zr 1.03233 0.51246 -0.00558
 Zr292 Zr 0.96857 0.47983 0.00038
 O293 O 0.98087 0.48368 -0.08944
 O294 O 1.01865 0.50290 -0.09380
 O295 O 0.98093 0.51304 -0.00948
 O296 O 1.01959 0.47926 0.00413
 O297 O 1.01866 0.53215 -0.01271
 O298 O 0.98179 0.45972 0.00790
 H299 H 0.97373 0.48603 0.12473
 H300 H 1.02945 0.47348 0.00692
 H301 H 0.97073 0.47756 -0.12434
 H302 H 1.02809 0.54785 -0.01685
 H303 H 1.00393 0.44405 0.12857
 H304 H 0.99263 0.43395 -0.02895
 H305 H 1.00854 0.47932 -0.18821
 H306 H 1.00908 0.51146 -0.19858
 H307 H 0.99222 0.54771 -0.06478
 H308 H 1.00128 0.55688 0.09271
 H309 H 1.01103 0.52257 0.18172
 H310 H 1.01204 0.49180 0.19155
 O311 O 0.45870 0.48702 0.11847
 O312 O 0.46353 0.51603 0.06195
 C313 C 0.45373 0.50145 0.10386
 O314 O 0.55542 0.52332 0.10038
 O315 O 0.54770 0.49276 0.04757
 C316 C 0.55955 0.50845 0.08442
 O317 O 0.52446 0.55197 0.11361
 O318 O 0.49516 0.54700 0.05903
 C319 C 0.50991 0.55689 0.10012
 O320 O 0.48665 0.45516 0.10909
 O321 O 0.51498 0.46039 0.04867
 C322 C 0.50051 0.44994 0.09009
 Zr323 Zr 0.48228 0.48100 0.08202
 O324 O 0.48543 0.48092 0.17895
 O325 O 0.45202 0.45276 0.08645
 Zr326 Zr 0.52928 0.52742 0.07725
 O327 O 0.53107 0.52548 0.17418
 O328 O 0.55756 0.55772 0.07716
 O329 O 0.49659 0.51406 0.09347
 O330 O 0.51505 0.49467 0.08932
 O331 O 0.48318 0.45450 -0.10319
 O332 O 0.51379 0.46055 -0.05381
 C333 C 0.49779 0.44959 -0.09061
 O334 O 0.52123 0.55100 -0.11114
 O335 O 0.49346 0.54651 -0.04949
 C336 C 0.50708 0.55599 -0.09371
 O337 O 0.55183 0.52145 -0.11148
 O338 O 0.54593 0.49205 -0.05537
 C339 C 0.55623 0.50658 -0.09670
 O340 O 0.45633 0.48746 -0.10618
 O341 O 0.46239 0.51593 -0.04572
 C342 C 0.45211 0.50219 -0.08887
 Zr343 Zr 0.47993 0.48057 -0.07308
 O344 O 0.47877 0.47817 -0.17028
 O345 O 0.44992 0.45229 -0.06388
 Zr346 Zr 0.52729 0.52695 -0.07792
 O347 O 0.52725 0.52568 -0.17530
 O348 O 0.55573 0.55717 -0.07896
 Zr349 Zr 0.48911 0.52040 0.00487
 Zr350 Zr 0.52010 0.48756 -0.00082
 O351 O 0.51238 0.49414 -0.08852
 O352 O 0.49422 0.51355 -0.08588
 O353 O 0.48670 0.46738 0.00298
 O354 O 0.52260 0.54011 0.00087
 O355 O 0.46861 0.48701 0.00633
 O356 O 0.54121 0.52095 -0.00234
 H357 H 0.52037 0.48976 0.12419
 H358 H 0.52889 0.55587 0.00064
 H359 H 0.51642 0.48903 -0.12568
 H360 H 0.45292 0.48111 0.00761
 H361 H 0.56703 0.55738 0.04490
 H362 H 0.56716 0.55541 -0.05966
 H363 H 0.51353 0.52410 -0.18970
 H364 H 0.48240 0.49238 -0.18677
 H365 H 0.44463 0.44754 -0.10631
 H366 H 0.45139 0.44350 0.05202
 H367 H 0.48592 0.49398 0.19505
 H368 H 0.51846 0.52547 0.19197
 O369 O 0.51246 -0.03094 0.11688
 O370 O 0.48432 -0.05391 0.05587
 C371 C 0.49806 -0.05003 0.09924
 O372 O 0.47877 0.03119 0.10508
 O373 O 0.50887 0.05386 0.05031
 C374 C 0.49391 0.05025 0.08949
 O375 O 0.44878 -0.02892 0.11050
 O376 O 0.45364 -0.05317 0.05483
 C377 C 0.44359 -0.04834 0.09556
 O378 O 0.54551 0.02941 0.10894
 O379 O 0.54011 0.05320 0.05236
 C380 C 0.55054 0.04874 0.09274
 Zr381 Zr 0.51959 -0.00060 0.08073
 O382 O 0.51994 0.00208 0.17784
 O383 O 0.54721 -0.00369 0.08417
 Zr384 Zr 0.47341 0.00064 0.07656
 O385 O 0.47392 0.00300 0.17376
 O386 O 0.44336 -0.00089 0.07325
 O387 O 0.48649 -0.01911 0.09101
 O388 O 0.50606 0.01859 0.08960
 O389 O 0.54666 0.02933 -0.10413
 O390 O 0.54048 0.05306 -0.05069
 C391 C 0.55138 0.04868 -0.08942
 O392 O 0.45010 -0.03007 -0.11311
 O393 O 0.45462 -0.05362 -0.05288
 C394 C 0.44505 -0.04936 -0.09643
 O395 O 0.47874 0.02996 -0.10758
 O396 O 0.50868 0.05335 -0.05334
 C397 C 0.49351 0.04914 -0.09252
 O398 O 0.51468 -0.03071 -0.10760
 O399 O 0.48526 -0.05399 -0.05104
 C400 C 0.49993 -0.04987 -0.09198
 Zr401 Zr 0.52075 -0.00061 -0.07480
 O402 O 0.52238 0.00141 -0.17209
 O403 O 0.54862 -0.00331 -0.07190
 Zr404 Zr 0.47427 0.00002 -0.07882
 O405 O 0.47696 0.00239 -0.17597
 O406 O 0.44405 -0.00199 -0.08370
 Zr407 Zr 0.48054 -0.03208 0.00139
 Zr408 Zr 0.51342 0.03167 0.00026
 O409 O 0.50709 0.01827 -0.08853
 O410 O 0.48778 -0.01944 -0.08862
 O411 O 0.53363 0.01842 0.00299
 O412 O 0.46090 -0.01823 -0.00097
 O413 O 0.51391 -0.01928 0.00345
 O414 O 0.48011 0.01951 -0.00185
 H415 H 0.51089 0.02832 0.12559
 H416 H 0.44514 -0.02765 -0.00191
 H417 H 0.51221 0.02793 -0.12475
 H418 H 0.51977 -0.02909 0.00466
 H419 H 0.44530 0.01186 0.05055
 H420 H 0.44419 0.00837 -0.05370
 H421 H 0.47694 -0.01053 -0.19122
 H422 H 0.50883 -0.01049 -0.18832
 H423 H 0.55951 0.00891 -0.04769
 H424 H 0.55813 0.00758 0.05740
 H425 H 0.50639 -0.01001 0.19353
 H426 H 0.47516 -0.00909 0.19051
 C427 C 1.14311 0.47279 0.30910
 C428 C 1.14203 0.49073 0.28799
 C429 C 1.16051 0.51113 0.29484
 C430 C 1.17881 0.51340 0.32475
 C431 C 1.17990 0.49543 0.34593
 C432 C 1.16160 0.47508 0.33671
 C433 C 1.16082 0.52924 0.27087
 C434 C 1.14341 0.52747 0.23857
 C435 C 1.12459 0.50749 0.23070
 C436 C 1.12345 0.48903 0.25891
 C437 C 1.10368 0.46963 0.25810
 C438 C 1.08584 0.46814 0.22895
 C439 C 1.08715 0.48562 0.19751
 C440 C 1.10670 0.50542 0.19667
 C441 C 1.10768 0.52217 0.16036
 C442 C 1.08984 0.51950 0.12794
 C443 C 1.07029 0.50028 0.13130
 C444 C 1.06906 0.48337 0.16631
 H445 H 1.13007 0.45663 0.30373
 H446 H 1.19268 0.52930 0.32716
 H447 H 1.16077 0.46059 0.35363
 H448 H 1.17484 0.54496 0.27622
 H449 H 1.14493 0.54225 0.22190
 H450 H 1.10128 0.45540 0.28145
 H451 H 1.07094 0.45298 0.23013
 H452 H 1.12219 0.53733 0.15444
 H453 H 1.09137 0.53264 0.10024
 H454 H 1.05413 0.46824 0.16808
 C455 C 0.46932 0.64324 0.27553
 C456 C 0.48868 0.64338 0.26408
 C457 C 0.50776 0.66057 0.28854
 C458 C 0.50741 0.67740 0.32008
 C459 C 0.48810 0.67718 0.33043
 C460 C 0.46909 0.65975 0.30830
 C461 C 0.52710 0.66085 0.28170
 C462 C 0.52792 0.64418 0.25234
 C463 C 0.50942 0.62678 0.22667
 C464 C 0.48967 0.62689 0.23024
 C465 C 0.47171 0.61081 0.19862
 C466 C 0.47279 0.59484 0.16611
 C467 C 0.49155 0.59382 0.16516
 C468 C 0.51006 0.60950 0.19628
 C469 C 0.52831 0.60699 0.19630
 C470 C 0.52820 0.58991 0.16560
 C471 C 0.51006 0.57490 0.13329
 C472 C 0.49182 0.57706 0.13324
 H473 H 0.45395 0.63026 0.26148
 H474 H 0.52232 0.69075 0.33635
 H475 H 0.45379 0.65857 0.31730
 H476 H 0.54178 0.67400 0.30005
 H477 H 0.54351 0.64572 0.24890
 H478 H 0.45666 0.61050 0.19646
 H479 H 0.45867 0.58302 0.14186
 H480 H 0.54277 0.61765 0.22078
 H481 H 0.54248 0.58856 0.16684
 H482 H 0.47760 0.56545 0.10897
 C483 C 0.34995 -0.17016 0.28644
 C484 C 0.35073 -0.15141 0.26364
 C485 C 0.33302 -0.14864 0.27624
 C486 C 0.31513 -0.16436 0.30816
 C487 C 0.31435 -0.18308 0.33036
 C488 C 0.33223 -0.18553 0.31936
 C489 C 0.33324 -0.13006 0.25747
 C490 C 0.35090 -0.11381 0.22773
 C491 C 0.36905 -0.11564 0.21443
 C492 C 0.36857 -0.13515 0.22999
 C493 C 0.38575 -0.13783 0.21055
 C494 C 0.40306 -0.12180 0.17846
 C495 C 0.40431 -0.10222 0.16614
 C496 C 0.38752 -0.09871 0.18510
 C497 C 0.39012 -0.07816 0.17518
 C498 C 0.40832 -0.06207 0.14639
 C499 C 0.42453 -0.06582 0.12591
 C500 C 0.42240 -0.08600 0.13561
 H501 H 0.36293 -0.17331 0.28055
 H502 H 0.30225 -0.16125 0.31831
 H503 H 0.33241 -0.19977 0.33403
 H504 H 0.31965 -0.12793 0.26643
 H505 H 0.34955 -0.10017 0.21422
 H506 H 0.38606 -0.15243 0.21812
 H507 H 0.41578 -0.12465 0.16400
 H508 H 0.37870 -0.07373 0.19059
 H509 H 0.40964 -0.04657 0.13977
 H510 H 0.43509 -0.08888 0.12085
 C511 C 0.86210 0.50955 0.35419
 C512 C 0.86310 0.50733 0.28965
 C513 C 0.84487 0.50309 0.25429
 C514 C 0.82702 0.50239 0.28232
 C515 C 0.82652 0.50498 0.34599
 C516 C 0.84402 0.50826 0.38171
 C517 C 0.84449 0.49949 0.19116
 C518 C 0.86160 0.49944 0.16227
 C519 C 0.88017 0.50368 0.19525
 C520 C 0.88136 0.50878 0.25928
 C521 C 0.90090 0.51561 0.29042
 C522 C 0.91845 0.51674 0.26064
 C523 C 0.91707 0.51045 0.19938
 C524 C 0.89778 0.50341 0.16606
 C525 C 0.89675 0.49585 0.10532
 C526 C 0.91424 0.49564 0.07891
 C527 C 0.93341 0.50326 0.11142
 C528 C 0.93481 0.51084 0.17148
 H529 H 0.87480 0.51180 0.38483
 H530 H 0.81329 0.49947 0.25475
 H531 H 0.84382 0.51014 0.43116
 H532 H 0.83066 0.49639 0.16383
 H533 H 0.86005 0.49667 0.11332
 H534 H 0.90334 0.52084 0.33767
 H535 H 0.93318 0.52226 0.28628
 H536 H 0.88246 0.48933 0.07767
 H537 H 0.91278 0.48952 0.03264
 H538 H 0.94950 0.51633 0.19732
 C539 C 0.49907 0.35502 0.35782
 C540 C 0.49870 0.35718 0.29306
 C541 C 0.50041 0.34193 0.25597
 C542 C 0.50111 0.32460 0.28307
 C543 C 0.50114 0.32264 0.34712
 C544 C 0.50041 0.33808 0.38418
 C545 C 0.50154 0.34411 0.19209
 C546 C 0.50159 0.36144 0.16399
 C547 C 0.49975 0.37696 0.19877
 C548 C 0.49714 0.37414 0.26401
 C549 C 0.49255 0.38806 0.29784
 C550 C 0.49127 0.40461 0.26930
 C551 C 0.49522 0.40844 0.20643
 C552 C 0.49998 0.39497 0.17037
 C553 C 0.50527 0.40043 0.10764
 C554 C 0.50543 0.41825 0.08198
 C555 C 0.49995 0.43097 0.11745
 C556 C 0.49471 0.42590 0.17955
 H557 H 0.49890 0.36645 0.38936
 H558 H 0.50206 0.31280 0.25440
 H559 H 0.50063 0.33688 0.43388
 H560 H 0.50272 0.33245 0.16347
 H561 H 0.50240 0.36186 0.11444
 H562 H 0.48917 0.38614 0.34648
 H563 H 0.48749 0.41476 0.29704
 H564 H 0.51004 0.39167 0.07765
 H565 H 0.50974 0.42204 0.03393
 H566 H 0.49092 0.43600 0.20750
 C567 C 0.67470 0.13200 0.28747
 C568 C 0.65621 0.13279 0.27017
 C569 C 0.65584 0.15187 0.28288
 C570 C 0.67279 0.16881 0.31454
 C571 C 0.69088 0.16767 0.33224
 C572 C 0.69170 0.14917 0.31767
 C573 C 0.63855 0.15399 0.26404
 C574 C 0.62171 0.13777 0.23154
 C575 C 0.62118 0.11837 0.21808
 C576 C 0.63824 0.11547 0.24013
 C577 C 0.63647 0.09520 0.23290
 C578 C 0.61886 0.07845 0.20419
 C579 C 0.60264 0.08137 0.17976
 C580 C 0.60383 0.10153 0.18485
 C581 C 0.58770 0.10405 0.15567
 C582 C 0.57074 0.08702 0.12514
 C583 C 0.56909 0.06686 0.12302
 C584 C 0.58520 0.06418 0.15015
 H585 H 0.67680 0.11858 0.27692
 H586 H 0.67173 0.18286 0.32591
 H587 H 0.70570 0.14800 0.32884
 H588 H 0.63812 0.16850 0.27398
 H589 H 0.60891 0.14066 0.21933
 H590 H 0.64817 0.09152 0.25088
 H591 H 0.61803 0.06307 0.20058
 H592 H 0.58792 0.11909 0.15442
 H593 H 0.55870 0.08963 0.10372
 H594 H 0.58432 0.04875 0.14754
 C595 C 0.52941 0.17226 -0.28617
 C596 C 0.51072 0.15448 -0.26229
 C597 C 0.49090 0.15331 -0.27445
 C598 C 0.49009 0.16975 -0.30664
 C599 C 0.50878 0.18757 -0.32958
 C600 C 0.52840 0.18833 -0.31939
 C601 C 0.47184 0.13563 -0.25494
 C602 C 0.47189 0.11872 -0.22479
 C603 C 0.49118 0.11902 -0.21163
 C604 C 0.51096 0.13764 -0.22799
 C605 C 0.53024 0.13892 -0.20861
 C606 C 0.53024 0.12233 -0.17605
 C607 C 0.51114 0.10355 -0.16314
 C608 C 0.49134 0.10144 -0.18174
 C609 C 0.47252 0.08158 -0.17094
 C610 C 0.47339 0.06479 -0.14200
 C611 C 0.49290 0.06722 -0.12215
 C612 C 0.51174 0.08671 -0.13243
 H613 H 0.54507 0.17408 -0.28093
 H614 H 0.47455 0.16794 -0.31631
 H615 H 0.54334 0.20180 -0.33485
 H616 H 0.45662 0.13473 -0.26366
 H617 H 0.45646 0.10583 -0.21081
 H618 H 0.54568 0.15285 -0.21654
 H619 H 0.54543 0.12408 -0.16173
 H620 H 0.45692 0.07822 -0.18591
 H621 H 0.45863 0.04980 -0.13493
 H622 H 0.52696 0.08853 -0.11819
 C623 C 0.67468 0.53717 -0.31057
 C624 C 0.65654 0.51894 -0.28621
 C625 C 0.65581 0.49901 -0.29122
 C626 C 0.67220 0.49746 -0.32128
 C627 C 0.69017 0.51567 -0.34576
 C628 C 0.69110 0.53555 -0.33932
 C629 C 0.63879 0.48062 -0.26571
 C630 C 0.62263 0.48158 -0.23404
 C631 C 0.62260 0.50103 -0.22747
 C632 C 0.63933 0.51984 -0.25622
 C633 C 0.63810 0.53877 -0.25479
 C634 C 0.62141 0.53947 -0.22512
 C635 C 0.60558 0.52157 -0.19424
 C636 C 0.60615 0.50220 -0.19399
 C637 C 0.59042 0.48487 -0.15921
 C638 C 0.57456 0.48658 -0.12770
 C639 C 0.57359 0.50549 -0.12977
 C640 C 0.58921 0.52298 -0.16322
 H641 H 0.67687 0.55304 -0.30747
 H642 H 0.67126 0.48201 -0.32255
 H643 H 0.70418 0.55004 -0.35859
 H644 H 0.63804 0.46528 -0.26977
 H645 H 0.61002 0.46655 -0.21651
 H646 H 0.64958 0.55330 -0.27761
 H647 H 0.62105 0.55432 -0.22577
 H648 H 0.59013 0.46988 -0.15412
 H649 H 0.56287 0.47285 -0.10178
 H650 H 0.58883 0.53781 -0.16437
 C651 C 0.86911 0.33059 -0.33221
 C652 C 0.86667 0.33866 -0.27541
 C653 C 0.84582 0.32930 -0.25032
 C654 C 0.82841 0.31214 -0.28015
 C655 C 0.83091 0.30410 -0.33688
 C656 C 0.85168 0.31381 -0.36209
 C657 C 0.84234 0.33717 -0.19553
 C658 C 0.85899 0.35463 -0.16601
 C659 C 0.88005 0.36468 -0.18941
 C660 C 0.88411 0.35594 -0.24349
 C661 C 0.90548 0.36458 -0.26339
 C662 C 0.92221 0.38172 -0.23324
 C663 C 0.91838 0.39123 -0.18280
 C664 C 0.89727 0.38302 -0.16025
 C665 C 0.89428 0.39389 -0.11034
 C666 C 0.91155 0.41199 -0.08417
 C667 C 0.93239 0.41976 -0.10614
 C668 C 0.93564 0.40914 -0.15529
 H669 H 0.88417 0.33738 -0.35615
 H670 H 0.81302 0.30481 -0.25741
 H671 H 0.85469 0.30933 -0.40683
 H672 H 0.82645 0.32996 -0.17567
 H673 H 0.85488 0.35963 -0.12400
 H674 H 0.90993 0.35816 -0.30166
 H675 H 0.93836 0.38780 -0.25026
 H676 H 0.87876 0.38922 -0.09146
 H677 H 0.90849 0.42000 -0.04676
 H678 H 0.95163 0.41513 -0.17342
 C679 C 0.46279 -0.17562 -0.27066
 C680 C 0.48181 -0.15683 -0.25322
 C681 C 0.50155 -0.15494 -0.27138
 C682 C 0.50204 -0.17156 -0.30348
 C683 C 0.48306 -0.19009 -0.32031
 C684 C 0.46348 -0.19184 -0.30377
 C685 C 0.52075 -0.13641 -0.25782
 C686 C 0.52087 -0.11932 -0.22835
 C687 C 0.50168 -0.12027 -0.20979
 C688 C 0.48191 -0.13972 -0.21963
 C689 C 0.46301 -0.14151 -0.19476
 C690 C 0.46328 -0.12466 -0.16309
 C691 C 0.48222 -0.10516 -0.15649
 C692 C 0.50163 -0.10252 -0.18073
 C693 C 0.52014 -0.08203 -0.17612
 C694 C 0.51939 -0.06513 -0.14760
 C695 C 0.50033 -0.06801 -0.12208
 C696 C 0.48180 -0.08815 -0.12632
 H697 H 0.44710 -0.17803 -0.26112
 H698 H 0.51734 -0.17000 -0.31526
 H699 H 0.44851 -0.20566 -0.31754
 H700 H 0.53591 -0.13496 -0.27098
 H701 H 0.53642 -0.10570 -0.21929
 H702 H 0.44773 -0.15602 -0.19762
 H703 H 0.44840 -0.12682 -0.14443
 H704 H 0.53533 -0.07832 -0.19557
 H705 H 0.53393 -0.04970 -0.14523
 H706 H 0.46692 -0.09045 -0.10740
 C707 C 0.34094 0.47881 -0.32793
 C708 C 0.35645 0.49545 -0.29062
 C709 C 0.35465 0.51401 -0.28259
 C710 C 0.33839 0.51590 -0.31234
 C711 C 0.32319 0.49922 -0.34877
 C712 C 0.32460 0.48070 -0.35614
 C713 C 0.36893 0.53050 -0.24437
 C714 C 0.38464 0.52880 -0.21227
 C715 C 0.38700 0.51060 -0.21811
 C716 C 0.37333 0.49411 -0.26010
 C717 C 0.37719 0.47703 -0.27080
 C718 C 0.39343 0.47576 -0.24035
 C719 C 0.40613 0.49107 -0.19683
 C720 C 0.40287 0.50851 -0.18420
 C721 C 0.41537 0.52292 -0.13719
 C722 C 0.43088 0.52049 -0.10589
 C723 C 0.43474 0.50379 -0.12047
 C724 C 0.42212 0.48901 -0.16581
 H725 H 0.34063 0.46389 -0.33506
 H726 H 0.33716 0.53015 -0.30573
 H727 H 0.31298 0.46760 -0.38412
 H728 H 0.36778 0.54481 -0.23852
 H729 H 0.39509 0.54236 -0.18421
 H730 H 0.36823 0.46457 -0.30381
 H731 H 0.39591 0.46245 -0.25053
 H732 H 0.41328 0.53600 -0.12243
 H733 H 0.43994 0.53189 -0.07007
 H734 H 0.42465 0.47581 -0.17694
 C735 C 1.13426 0.66877 -0.30666
 C736 C 1.13469 0.65013 -0.28895
 C737 C 1.15413 0.65008 -0.29712
 C738 C 1.17186 0.66753 -0.32500
 C739 C 1.17120 0.68592 -0.34345
 C740 C 1.15214 0.68628 -0.33282
 C741 C 1.15589 0.63267 -0.27701
 C742 C 1.13895 0.61546 -0.24749
 C743 C 1.11923 0.61469 -0.23835
 C744 C 1.11671 0.63178 -0.26226
 C745 C 1.09623 0.62974 -0.25976
 C746 C 1.07897 0.61199 -0.23295
 C747 C 1.08154 0.59590 -0.20573
 C748 C 1.10180 0.59721 -0.20698
 C749 C 1.10393 0.58125 -0.17515
 C750 C 1.08661 0.56465 -0.14438
 C751 C 1.06646 0.56301 -0.14505
 C752 C 1.06400 0.57866 -0.17628
 H753 H 1.12042 0.67051 -0.29992
 H754 H 1.18653 0.66702 -0.32943
 H755 H 1.15049 0.69974 -0.34710
 H756 H 1.17066 0.63244 -0.28349
 H757 H 1.14163 0.60262 -0.23393
 H758 H 1.09285 0.64140 -0.27981
 H759 H 1.06351 0.61106 -0.23252
 H760 H 1.11894 0.58153 -0.17119
 H761 H 1.08909 0.55309 -0.11954
 H762 H 1.04859 0.57784 -0.17587
 C763 C 0.86713 0.52577 -0.34216
 C764 C 0.86506 0.51455 -0.28683
 C765 C 0.84450 0.50331 -0.25972
 C766 C 0.82706 0.50399 -0.28609
 C767 C 0.82916 0.51515 -0.34151
 C768 C 0.84964 0.52599 -0.36876
 C769 C 0.84132 0.49131 -0.20631
 C770 C 0.85797 0.48968 -0.18001
 C771 C 0.87877 0.50049 -0.20532
 C772 C 0.88256 0.51384 -0.25814
 C773 C 0.90376 0.52630 -0.27977
 C774 C 0.92060 0.52545 -0.25179
 C775 C 0.91703 0.51181 -0.20209
 C776 C 0.89604 0.49881 -0.17875
 C777 C 0.89322 0.48448 -0.13025
 C778 C 0.91062 0.48374 -0.10485
 C779 C 0.93145 0.49734 -0.12630
 C780 C 0.93444 0.51119 -0.17551
 H781 H 0.88192 0.53397 -0.36747
 H782 H 0.81199 0.49610 -0.26169
 H783 H 0.85233 0.53396 -0.41274
 H784 H 0.82566 0.48279 -0.18495
 H785 H 0.85411 0.48018 -0.13869
 H786 H 0.90803 0.53741 -0.31750
 H787 H 0.93664 0.53551 -0.26966
 H788 H 0.87774 0.47332 -0.11158
 H789 H 0.90767 0.47248 -0.06797
 H790 H 0.95040 0.52156 -0.19344
 C791 C 0.52801 0.35513 -0.26417
 C792 C 0.50975 0.35694 -0.25225
 C793 C 0.48999 0.34092 -0.27678
 C794 C 0.48865 0.32363 -0.31012
 C795 C 0.50691 0.32183 -0.32169
 C796 C 0.52659 0.33804 -0.29803
 C797 C 0.47152 0.34216 -0.26800
 C798 C 0.47227 0.35931 -0.23700
 C799 C 0.49160 0.37587 -0.21232
 C800 C 0.51047 0.37422 -0.21786
 C801 C 0.52933 0.38975 -0.18823
 C802 C 0.52996 0.40668 -0.15609
 C803 C 0.51202 0.40913 -0.15310
 C804 C 0.49263 0.39391 -0.18166
 C805 C 0.47519 0.39767 -0.17941
 C806 C 0.47697 0.41560 -0.14970
 C807 C 0.49606 0.43040 -0.12079
 C808 C 0.51348 0.42692 -0.12222
 H809 H 0.54384 0.36701 -0.24957
 H810 H 0.47300 0.31124 -0.32508
 H811 H 0.54142 0.33833 -0.30765
 H812 H 0.45628 0.32982 -0.28603
 H813 H 0.45722 0.35886 -0.23213
 H814 H 0.54389 0.38907 -0.18798
 H815 H 0.54479 0.41818 -0.13403
 H816 H 0.46008 0.38739 -0.20143
 H817 H 0.46323 0.41787 -0.14953
 H818 H 0.52840 0.43832 -0.10041
 C819 C 0.67159 0.13121 -0.30459
 C820 C 0.65525 0.13328 -0.27488
 C821 C 0.65706 0.15379 -0.27513
 C822 C 0.67412 0.17112 -0.30560
 C823 C 0.68995 0.16866 -0.33531
 C824 C 0.68860 0.14863 -0.33408
 C825 C 0.64186 0.15697 -0.24498
 C826 C 0.62493 0.14033 -0.21375
 C827 C 0.62228 0.11956 -0.21213
 C828 C 0.63735 0.11583 -0.24466
 C829 C 0.63380 0.09472 -0.24676
 C830 C 0.61636 0.07790 -0.21757
 C831 C 0.60193 0.08139 -0.18408
 C832 C 0.60483 0.10230 -0.17998
 C833 C 0.59018 0.10505 -0.14332
 C834 C 0.57317 0.08773 -0.11375
 C835 C 0.56999 0.06698 -0.11956
 C836 C 0.58456 0.06398 -0.15467
 H837 H 0.67191 0.11645 -0.30537
 H838 H 0.67525 0.18669 -0.30544
 H839 H 0.70064 0.14633 -0.35684
 H840 H 0.64311 0.17259 -0.24526
 H841 H 0.61388 0.14424 -0.19237
 H842 H 0.64400 0.09050 -0.27185
 H843 H 0.61422 0.06195 -0.22103
 H844 H 0.59150 0.12041 -0.13571
 H845 H 0.56235 0.09066 -0.08648
 H846 H 0.58247 0.04807 -0.15892
 C847 C 1.17373 0.52461 -0.27193
 C848 C 1.15471 0.50575 -0.25491
 C849 C 1.15222 0.48588 -0.27430
 C850 C 1.16862 0.48507 -0.30667
 C851 C 1.18742 0.50391 -0.32310
 C852 C 1.18966 0.52364 -0.30570
 C853 C 1.13331 0.46688 -0.26179
 C854 C 1.11641 0.46715 -0.23232
 C855 C 1.11803 0.48651 -0.21231
 C856 C 1.13790 0.50597 -0.22071
 C857 C 1.14043 0.52489 -0.19368
 C858 C 1.12387 0.52497 -0.16144
 C859 C 1.10393 0.50642 -0.15663
 C860 C 1.10056 0.48702 -0.18307
 C861 C 1.07966 0.46903 -0.18036
 C862 C 1.06304 0.47027 -0.15169
 C863 C 1.06665 0.48931 -0.12398
 C864 C 1.08725 0.50726 -0.12603
 H865 H 1.17648 0.54041 -0.26178
 H866 H 1.16665 0.46965 -0.31906
 H867 H 1.20362 0.53853 -0.31930
 H868 H 1.13138 0.45161 -0.27597
 H869 H 1.10241 0.45176 -0.22423
 H870 H 1.15532 0.53987 -0.19509
 H871 H 1.12659 0.53984 -0.14104
 H872 H 1.07546 0.45394 -0.20164
 H873 H 1.04727 0.45613 -0.15109
 H874 H 1.09025 0.52205 -0.10474
 C875 C 0.46359 0.63788 -0.28382
 C876 C 0.48310 0.63918 -0.26668
 C877 C 0.50230 0.65748 -0.28585
 C878 C 0.50182 0.67415 -0.31775
 C879 C 0.48235 0.67302 -0.33340
 C880 C 0.46326 0.65437 -0.31678
 C881 C 0.52200 0.65913 -0.27339
 C882 C 0.52316 0.64284 -0.24293
 C883 C 0.50455 0.62433 -0.22227
 C884 C 0.48425 0.62286 -0.23208
 C885 C 0.46588 0.60542 -0.20580
 C886 C 0.46721 0.58974 -0.17211
 C887 C 0.48673 0.59044 -0.16476
 C888 C 0.50561 0.60745 -0.19091
 C889 C 0.52474 0.60664 -0.18542
 C890 C 0.52510 0.58995 -0.15404
 C891 C 0.50656 0.57365 -0.12643
 C892 C 0.48743 0.57404 -0.13180
 H893 H 0.44823 0.62420 -0.27320
 H894 H 0.51687 0.68765 -0.33274
 H895 H 0.44781 0.65269 -0.32668
 H896 H 0.53676 0.67315 -0.28772
 H897 H 0.53904 0.64558 -0.23459
 H898 H 0.45022 0.60372 -0.20891
 H899 H 0.45272 0.57677 -0.15220
 H900 H 0.53961 0.61834 -0.20618
 H901 H 0.54004 0.58987 -0.15104
 H902 H 0.47293 0.56124 -0.11160
 C903 C 0.32637 -0.13364 -0.31402
 C904 C 0.34274 -0.13537 -0.28361
 C905 C 0.34078 -0.15588 -0.28089
 C906 C 0.32365 -0.17355 -0.30986
 C907 C 0.30754 -0.17168 -0.34124
 C908 C 0.30924 -0.15134 -0.34198
 C909 C 0.35602 -0.15874 -0.24954
 C910 C 0.37295 -0.14179 -0.21937
 C911 C 0.37563 -0.12102 -0.22045
 C912 C 0.36078 -0.11757 -0.25521
 C913 C 0.36472 -0.09641 -0.26143
 C914 C 0.38219 -0.07929 -0.23338
 C915 C 0.39617 -0.08254 -0.19675
 C916 C 0.39292 -0.10349 -0.18887
 C917 C 0.40690 -0.10606 -0.14866
 C918 C 0.42358 -0.08854 -0.11892
 C919 C 0.42717 -0.06777 -0.12844
 C920 C 0.41334 -0.06492 -0.16755
 H921 H 0.32598 -0.11892 -0.31568
 H922 H 0.32360 -0.18856 -0.30952
 H923 H 0.29691 -0.14892 -0.36206
 H924 H 0.35475 -0.17436 -0.24775
 H925 H 0.38405 -0.14543 -0.19686
 H926 H 0.35484 -0.09241 -0.28915
 H927 H 0.38464 -0.06331 -0.23990
 H928 H 0.40510 -0.12145 -0.13780
 H929 H 0.43367 -0.09137 -0.08803
 H930 H 0.41568 -0.04900 -0.17451
 C931 C 0.48893 -0.14915 0.36619
 C932 C 0.49114 -0.14545 0.30182
 C933 C 0.49004 -0.16196 0.26380
 C934 C 0.48798 -0.18073 0.28977
 C935 C 0.48618 -0.18390 0.35351
 C936 C 0.48639 -0.16813 0.39136
 C937 C 0.49097 -0.15970 0.20000
 C938 C 0.49244 -0.14163 0.17263
 C939 C 0.49362 -0.12471 0.20826
 C940 C 0.49405 -0.12618 0.27386
 C941 C 0.49784 -0.10817 0.30912
 C942 C 0.50053 -0.08959 0.28138
 C943 C 0.49880 -0.08843 0.21770
 C944 C 0.49483 -0.10618 0.18033
 C945 C 0.49169 -0.10485 0.11656
 C946 C 0.49287 -0.08656 0.09114
 C947 C 0.49752 -0.06883 0.12787
 C948 C 0.50067 -0.06974 0.19114
 H949 H 0.48868 -0.13789 0.39822
 H950 H 0.48747 -0.19310 0.26027
 H951 H 0.48491 -0.17035 0.44083
 H952 H 0.49032 -0.17218 0.17074
 H953 H 0.49330 -0.14111 0.12310
 H954 H 0.49946 -0.10771 0.35850
 H955 H 0.50363 -0.07609 0.31028
 H956 H 0.48758 -0.11791 0.08525
 H957 H 0.49018 -0.08626 0.04213
 H958 H 0.50383 -0.05619 0.21991
 C959 C 0.35826 0.53073 0.27536
 C960 C 0.35970 0.51251 0.25903
 C961 C 0.34262 0.49215 0.27672
 C962 C 0.32462 0.49025 0.30716
 C963 C 0.32347 0.50843 0.32338
 C964 C 0.34053 0.52867 0.30726
 C965 C 0.34360 0.47371 0.26449
 C966 C 0.36155 0.47502 0.23712
 C967 C 0.37909 0.49491 0.21919
 C968 C 0.37765 0.51381 0.22712
 C969 C 0.39397 0.53322 0.20189
 C970 C 0.41139 0.53424 0.17142
 C971 C 0.41369 0.51621 0.16694
 C972 C 0.39783 0.49642 0.19219
 C973 C 0.40158 0.47899 0.19051
 C974 C 0.41985 0.48096 0.16281
 C975 C 0.43501 0.50025 0.13535
 C976 C 0.43182 0.51786 0.13756
 H977 H 0.37090 0.54684 0.26609
 H978 H 0.31149 0.47445 0.31838
 H979 H 0.34047 0.54309 0.32055
 H980 H 0.33047 0.45808 0.27722
 H981 H 0.36090 0.45999 0.22886
 H982 H 0.39340 0.54786 0.20326
 H983 H 0.42335 0.54940 0.15195
 H984 H 0.39098 0.46374 0.21155
 H985 H 0.42193 0.46709 0.16222
 H986 H 0.44356 0.53293 0.11713
 C987 C 1.13385 0.67296 0.28725
 C988 C 1.13505 0.65536 0.26345
 C989 C 1.15471 0.65563 0.26951
 C990 C 1.17179 0.67207 0.30221
 C991 C 1.17026 0.68924 0.32680
 C992 C 1.15121 0.68963 0.31780
 C993 C 1.15728 0.63947 0.24303
 C994 C 1.14087 0.62321 0.20933
 C995 C 1.12084 0.62201 0.20294
 C996 C 1.11753 0.63769 0.23319
 C997 C 1.09668 0.63477 0.23406
 C998 C 1.07970 0.61726 0.20564
 C999 C 1.08297 0.60251 0.17300
 C1000 C 1.10374 0.60513 0.16924
 C1001 C 1.10660 0.59091 0.13103
 C1002 C 1.08930 0.57410 0.10092
 C1003 C 1.06851 0.57053 0.10882
 C1004 C 1.06554 0.58509 0.14417
 H1005 H 1.11995 0.67465 0.28132
 H1006 H 1.18622 0.67125 0.30893
 H1007 H 1.14968 0.70300 0.33375
 H1008 H 1.17225 0.63952 0.24774
 H1009 H 1.14405 0.61121 0.19092
 H1010 H 1.09279 0.64532 0.25877
 H1011 H 1.06386 0.61538 0.20874
 H1012 H 1.12211 0.59271 0.12214
 H1013 H 1.09229 0.56380 0.07152
 H1014 H 1.04965 0.58296 0.14905
 C1015 C 0.46560 0.14014 0.30220
 C1016 C 0.48344 0.13999 0.27570
 C1017 C 0.50354 0.15911 0.27926
 C1018 C 0.50571 0.17707 0.31069
 C1019 C 0.48795 0.17693 0.33739
 C1020 C 0.46787 0.15831 0.33215
 C1021 C 0.52149 0.16027 0.25159
 C1022 C 0.51993 0.14303 0.21905
 C1023 C 0.50032 0.12359 0.21418
 C1024 C 0.48200 0.12170 0.24529
 C1025 C 0.46310 0.10149 0.24628
 C1026 C 0.46204 0.08380 0.21726
 C1027 C 0.47946 0.08566 0.18423
 C1028 C 0.49863 0.10575 0.18072
 C1029 C 0.51528 0.10723 0.14304
 C1030 C 0.51334 0.08934 0.11289
 C1031 C 0.49488 0.06920 0.11932
 C1032 C 0.47785 0.06754 0.15466
 H1033 H 0.44959 0.12667 0.29927
 H1034 H 0.52143 0.19116 0.31485
 H1035 H 0.45370 0.15780 0.35057
 H1036 H 0.53695 0.17478 0.25461
 H1037 H 0.53465 0.14522 0.19990
 H1038 H 0.44898 0.09862 0.27100
 H1039 H 0.44732 0.06853 0.22023
 H1040 H 0.52986 0.12210 0.13471
 H1041 H 0.52657 0.09135 0.08471
 H1042 H 0.46328 0.05218 0.15891
 C1043 C 0.65057 0.47736 0.27538
 C1044 C 0.65102 0.49555 0.24901
 C1045 C 0.66954 0.51577 0.25910
 C1046 C 0.68692 0.51745 0.29277
 C1047 C 0.68616 0.49932 0.31896
 C1048 C 0.66781 0.47929 0.30982
 C1049 C 0.67063 0.53432 0.23604
 C1050 C 0.65338 0.53344 0.20525
 C1051 C 0.63437 0.51379 0.19513
 C1052 C 0.63359 0.49445 0.21445
 C1053 C 0.61551 0.47471 0.19812
 C1054 C 0.59840 0.47389 0.16636
 C1055 C 0.59828 0.49261 0.15109
 C1056 C 0.61616 0.51285 0.16588
 C1057 C 0.61478 0.53132 0.15256
 C1058 C 0.59650 0.52970 0.12568
 C1059 C 0.57907 0.50972 0.11027
 C1060 C 0.58016 0.49121 0.12225
 H1061 H 0.63689 0.46149 0.27192
 H1062 H 0.70110 0.53302 0.29862
 H1063 H 0.66651 0.46503 0.33055
 H1064 H 0.68487 0.54979 0.24282
 H1065 H 0.65565 0.54852 0.18872
 H1066 H 0.61427 0.45951 0.20827
 H1067 H 0.58487 0.45837 0.15480
 H1068 H 0.62721 0.54727 0.16427
 H1069 H 0.59600 0.54423 0.11703
 H1070 H 0.56656 0.47566 0.11132
 C1071 C 0.83375 0.32704 0.22255
 C1072 C 0.85153 0.34476 0.25051
 C1073 C 0.85364 0.34427 0.31537
 C1074 C 0.83811 0.32717 0.35041
 C1075 C 0.82066 0.30986 0.32190
 C1076 C 0.81870 0.30986 0.25781
 C1077 C 0.87136 0.36072 0.34502
 C1078 C 0.88749 0.37739 0.31166
 C1079 C 0.88628 0.37858 0.24700
 C1080 C 0.86749 0.36264 0.21634
 C1081 C 0.86516 0.36529 0.15287
 C1082 C 0.88094 0.38255 0.12005
 C1083 C 0.89996 0.39743 0.14850
 C1084 C 0.90310 0.39542 0.21212
 C1085 C 0.92321 0.41005 0.23789
 C1086 C 0.93924 0.42617 0.20223
 C1087 C 0.93578 0.42852 0.14004
 C1088 C 0.91603 0.41419 0.11345
 H1089 H 0.83133 0.32569 0.17345
 H1090 H 0.83988 0.32703 0.39998
 H1091 H 0.80536 0.29652 0.23490
 H1092 H 0.87295 0.36054 0.39464
 H1093 H 0.90052 0.38951 0.33827
 H1094 H 0.85097 0.35455 0.12744
 H1095 H 0.87838 0.38402 0.07152
 H1096 H 0.92735 0.40910 0.28499
 H1097 H 0.95445 0.43699 0.22370
 H1098 H 0.91341 0.41569 0.06501
   
