data_POSCAR
  _audit_creation_date              2014-09-24
  _audit_creation_method            'ToBaCCo'
  _symmetry_space_group_name_H-M    'P1'
  _symmetry_Int_Tables_number       1
  _symmetry_cell_setting            triclinic
  loop_
  _symmetry_equiv_pos_as_xyz
 x,y,z
_cell_length_a 20.0264
_cell_length_b 23.2185
_cell_length_c 20.9599
_cell_angle_alpha 89.885000
_cell_angle_beta 89.767100
_cell_angle_gamma 91.006800
loop_
  _atom_site_label
  _atom_site_type_symbol
  _atom_site_fract_x
  _atom_site_fract_y
  _atom_site_fract_z
B1 B -0.02324 -0.05967 0.02354
 B2 B 0.04792 -0.02937 0.05061
 B3 B 0.04719 -0.05253 -0.02710
 B4 B -0.03135 -0.03976 -0.05597
 B5 B -0.07469 -0.00676 0.00209
 B6 B -0.02491 0.00036 0.06780
 B7 B 0.03021 0.06399 -0.02694
 B8 B -0.04165 0.03342 -0.05697
 B9 B -0.03856 0.05676 0.02199
 B10 B 0.03892 0.04366 0.04952
 B11 B 0.08171 0.01027 -0.00740
 B12 B 0.03333 0.00527 -0.07445
 B13 B 0.52987 0.47085 0.54735
 B14 B 0.44627 0.45949 0.54123
 B15 B 0.47710 0.52893 0.55258
 B16 B 0.55008 0.53601 0.51172
 B17 B 0.56382 0.47409 0.47271
 B18 B 0.49998 0.42656 0.49062
 B19 B 0.44606 0.51805 0.42656
 B20 B 0.53088 0.53169 0.43266
 B21 B 0.50200 0.46158 0.41910
 B22 B 0.42909 0.45259 0.46121
 B23 B 0.41636 0.51412 0.50184
 B24 B 0.47835 0.56150 0.48240
 B25 B 0.52321 0.05653 0.53549
 B26 B 0.44874 0.02746 0.56130
 B27 B 0.45549 0.05489 0.48381
 B28 B 0.53317 0.04022 0.45751
 B29 B 0.57076 0.00207 0.51310
 B30 B 0.52042 -0.00541 0.57845
 B31 B 0.46488 -0.06204 0.47527
 B32 B 0.53837 -0.03314 0.45139
 B33 B 0.53233 -0.06139 0.52782
 B34 B 0.45402 -0.04629 0.55564
 B35 B 0.41527 -0.00833 0.49916
 B36 B 0.46776 0.00041 0.43497
 B37 B -0.05497 0.51927 0.07034
 B38 B 0.03007 0.53166 0.06362
 B39 B 0.00052 0.46176 0.07783
 B40 B -0.07269 0.45371 0.03632
 B41 B -0.08485 0.51539 -0.00443
 B42 B -0.02211 0.56214 0.01407
 B43 B 0.02855 0.47121 -0.05055
 B44 B -0.05527 0.46056 -0.04374
 B45 B -0.02348 0.52945 -0.05570
 B46 B 0.04946 0.53597 -0.01535
 B47 B 0.06246 0.47379 0.02377
 B48 B -0.00209 0.42699 0.00643
 B49 B 0.03201 0.45266 0.46313
 B50 B -0.04441 0.47190 0.43643
 B51 B -0.03776 0.44470 0.51303
 B52 B 0.03728 0.46800 0.54269
 B53 B 0.07296 0.51111 0.48823
 B54 B 0.02295 0.51422 0.42208
 B55 B -0.04361 0.56128 0.52412
 B56 B 0.03483 0.54127 0.54945
 B57 B 0.02552 0.56892 0.47562
 B58 B -0.04792 0.54534 0.44414
 B59 B -0.08423 0.50232 0.49951
 B60 B -0.03387 0.49956 0.56520
 B61 B 0.45060 -0.01557 -0.07229
 B62 B 0.53012 -0.03025 -0.05056
 B63 B 0.51039 0.04061 -0.07093
 B64 B 0.43159 0.05120 -0.04403
 B65 B 0.40497 -0.00759 -0.00546
 B66 B 0.46632 -0.05783 -0.00763
 B67 B 0.51252 0.03484 0.06042
 B68 B 0.43377 0.04821 0.03788
 B69 B 0.45300 -0.01967 0.05920
 B70 B 0.53284 -0.03242 0.03247
 B71 B 0.56039 0.02722 -0.00712
 B72 B 0.49903 0.07699 -0.00263
 B73 B 0.45720 0.56424 -0.01831
 B74 B 0.53447 0.54301 -0.04387
 B75 B 0.52622 0.57110 0.02925
 B76 B 0.45292 0.54865 0.06197
 B77 B 0.41569 0.50604 0.00756
 B78 B 0.46553 0.50251 -0.05885
 B79 B 0.53125 0.45460 0.04225
 B80 B 0.45543 0.47504 0.06980
 B81 B 0.46079 0.44772 -0.00715
 B82 B 0.53616 0.46992 -0.03730
 B83 B 0.57262 0.51263 0.01655
 B84 B 0.52343 0.51653 0.08327
 B85 B 0.01988 0.03247 0.43760
 B86 B -0.05850 0.04543 0.46147
 B87 B -0.03935 -0.02201 0.43611
 B88 B 0.04054 -0.03572 0.46126
 B89 B 0.06761 0.02232 0.50415
 B90 B 0.00673 0.07176 0.50334
 B91 B -0.04219 -0.02435 0.56781
 B92 B 0.03966 -0.03711 0.54357
 B93 B 0.01835 0.03133 0.56991
 B94 B -0.06034 0.04367 0.54351
 B95 B -0.08701 -0.01251 0.50123
 B96 B -0.02578 -0.06374 0.50117
 B97 B 0.77326 0.30780 0.26130
 B98 B 0.69022 0.29368 0.27921
 B99 B 0.71076 0.29947 0.20159
 B100 B 0.78766 0.27233 0.19060
 B101 B 0.81428 0.24465 0.26036
 B102 B 0.75443 0.25788 0.31686
 B103 B 0.69738 0.18513 0.22754
 B104 B 0.77988 0.20112 0.20318
 B105 B 0.76105 0.19135 0.28280
 B106 B 0.68453 0.22159 0.29643
 B107 B 0.65935 0.24812 0.22683
 B108 B 0.71669 0.23460 0.17014
 B109 B 0.72241 0.79764 0.80164
 B110 B 0.70092 0.78857 0.72265
 B111 B 0.78478 0.80248 0.74201
 B112 B 0.79988 0.76679 0.81230
 B113 B 0.73041 0.72905 0.83421
 B114 B 0.67008 0.74417 0.77990
 B115 B 0.77017 0.68805 0.71565
 B116 B 0.79297 0.69323 0.79469
 B117 B 0.71163 0.68000 0.77587
 B118 B 0.69300 0.71680 0.70891
 B119 B 0.76111 0.75348 0.68708
 B120 B 0.82363 0.73980 0.74155
 B121 B 0.27865 0.19067 0.73732
 B122 B 0.20160 0.21220 0.71535
 B123 B 0.21014 0.19423 0.79140
 B124 B 0.29033 0.21336 0.81387
 B125 B 0.32763 0.24968 0.75245
 B126 B 0.27271 0.24949 0.69055
 B127 B 0.21691 0.31158 0.78912
 B128 B 0.29331 0.28678 0.81383
 B129 B 0.28260 0.30947 0.73685
 B130 B 0.20473 0.28676 0.71220
 B131 B 0.16970 0.25350 0.77289
 B132 B 0.22299 0.25262 0.83528
 B133 B 0.21464 0.81680 0.22999
 B134 B 0.29325 0.79496 0.21085
 B135 B 0.27734 0.81791 0.28714
 B136 B 0.19962 0.79674 0.30546
 B137 B 0.16739 0.75916 0.24591
 B138 B 0.22427 0.75662 0.18543
 B139 B 0.27592 0.70053 0.28737
 B140 B 0.19796 0.72449 0.30846
 B141 B 0.21009 0.69892 0.23365
 B142 B 0.29105 0.72061 0.21067
 B143 B 0.32442 0.75907 0.27289
 B144 B 0.26583 0.75951 0.33118
 B145 B 0.27887 0.69087 0.78634
 B146 B 0.29768 0.69695 0.70620
 B147 B 0.21715 0.68524 0.72881
 B148 B 0.20433 0.72150 0.79813
 B149 B 0.27639 0.75609 0.81665
 B150 B 0.33330 0.74144 0.75776
 B151 B 0.23077 0.80402 0.70683
 B152 B 0.21582 0.79321 0.78640
 B153 B 0.29693 0.80566 0.76020
 B154 B 0.30603 0.77078 0.68961
 B155 B 0.23367 0.73590 0.67124
 B156 B 0.17729 0.75085 0.72994
 B157 B 0.19970 0.18753 0.27452
 B158 B 0.28153 0.20398 0.29912
 B159 B 0.26282 0.19468 0.21984
 B160 B 0.18625 0.22417 0.20614
 B161 B 0.16001 0.24983 0.27559
 B162 B 0.21737 0.23656 0.33199
 B163 B 0.27322 0.31081 0.24164
 B164 B 0.19051 0.29604 0.22321
 B165 B 0.21050 0.30132 0.30104
 B166 B 0.28794 0.27498 0.31184
 B167 B 0.31551 0.24811 0.24202
 B168 B 0.25581 0.26132 0.18572
 B169 B 0.77798 0.70462 0.20871
 B170 B 0.70040 0.72819 0.18684
 B171 B 0.71145 0.70222 0.26210
 B172 B 0.79161 0.72446 0.28546
 B173 B 0.82556 0.76305 0.22339
 B174 B 0.76788 0.76393 0.16455
 B175 B 0.71400 0.82043 0.26548
 B176 B 0.79332 0.79865 0.28495
 B177 B 0.77883 0.82195 0.20872
 B178 B 0.70120 0.80055 0.18965
 B179 B 0.66802 0.76213 0.24915
 B180 B 0.72403 0.76007 0.31022
 B181 B 0.70821 0.19459 0.71675
 B182 B 0.69938 0.21808 0.79157
 B183 B 0.77632 0.19281 0.77119
 B184 B 0.78899 0.21118 0.69333
 B185 B 0.72292 0.25024 0.66854
 B186 B 0.66895 0.25569 0.73040
 B187 B 0.78223 0.31135 0.76399
 B188 B 0.79416 0.28424 0.68868
 B189 B 0.71760 0.31183 0.71057
 B190 B 0.70383 0.29164 0.78911
 B191 B 0.77064 0.25402 0.81446
 B192 B 0.82631 0.25012 0.75278
 C193 C 0.12260 0.45901 0.85640
 C194 C 0.07307 0.43469 0.89620
 C195 C 0.06857 0.37392 0.89552
 C196 C 0.10994 0.34000 0.85822
 C197 C 0.16670 0.36182 0.82418
 C198 C 0.17460 0.42350 0.82885
 C199 C 0.12826 0.51920 0.85183
 C200 C 0.18907 0.54413 0.84135
 C201 C 0.24340 0.50932 0.83832
 C202 C 0.23676 0.45076 0.82100
 H203 H 0.08898 0.54817 0.86414
 H204 H 0.19471 0.59006 0.84412
 H205 H 0.28865 0.52979 0.85404
 H206 H 0.28026 0.42493 0.81294
 H207 H 0.03085 0.35091 0.92301
 H208 H 0.09900 0.29455 0.86227
 C209 C 0.34523 0.59462 0.41763
 C210 C 0.39032 0.55694 0.38484
 C211 C 0.38933 0.56298 0.31759
 C212 C 0.35124 0.60640 0.28745
 C213 C 0.32104 0.65086 0.32313
 C214 C 0.33031 0.64819 0.39103
 C215 C 0.30653 0.57927 0.47211
 C216 C 0.27975 0.62079 0.51112
 C217 C 0.28816 0.67775 0.49496
 C218 C 0.31554 0.69202 0.43576
 H219 H 0.29595 0.53542 0.48487
 H220 H 0.25415 0.60898 0.55419
 H221 H 0.27082 0.70966 0.52763
 H222 H 0.32738 0.73659 0.42750
 H223 H 0.41233 0.53166 0.28757
 H224 H 0.34732 0.60611 0.23595
 C225 C 0.86782 0.88817 0.59809
 C226 C 0.90755 0.93688 0.62004
 C227 C 0.90852 0.94151 0.68828
 C228 C 0.87099 0.90153 0.72915
 C229 C 0.83984 0.85001 0.70446
 C230 C 0.85556 0.84120 0.63877
 C231 C 0.84630 0.87812 0.53541
 C232 C 0.84733 0.82276 0.51013
 C233 C 0.86464 0.77752 0.54760
 C234 C 0.86873 0.78661 0.61162
 H235 H 0.82763 0.91182 0.50707
 H236 H 0.83759 0.81354 0.46191
 H237 H 0.87073 0.73507 0.52816
 H238 H 0.88010 0.74955 0.63865
 H239 H 0.93659 0.97651 0.70998
 H240 H 0.86961 0.90949 0.77982
 C241 C 0.53516 0.12967 0.14086
 C242 C 0.54743 0.07063 0.12211
 C243 C 0.59791 0.04386 0.15795
 C244 C 0.64554 0.07824 0.19198
 C245 C 0.63512 0.13576 0.20873
 C246 C 0.56785 0.15200 0.19606
 C247 C 0.49193 0.16869 0.11027
 C248 C 0.46441 0.21438 0.14409
 C249 C 0.48135 0.22270 0.20769
 C250 C 0.53257 0.19108 0.23420
 H251 H 0.47627 0.16469 0.06182
 H252 H 0.42832 0.24198 0.12160
 H253 H 0.45835 0.25606 0.23519
 H254 H 0.54790 0.20040 0.28253
 H255 H 0.61017 -0.00047 0.14786
 H256 H 0.69473 0.06232 0.19593
 C257 C 0.83808 0.12106 0.43932
 C258 C 0.89253 0.08760 0.41626
 C259 C 0.89742 0.08402 0.34854
 C260 C 0.85517 0.11455 0.30734
 C261 C 0.79901 0.14430 0.32981
 C262 C 0.78729 0.14139 0.39683
 C263 C 0.83200 0.13588 0.50359
 C264 C 0.77517 0.16123 0.52721
 C265 C 0.72078 0.16997 0.48827
 C266 C 0.72620 0.15896 0.42378
 H267 H 0.87195 0.13182 0.53557
 H268 H 0.77331 0.17316 0.57627
 H269 H 0.67483 0.18658 0.50775
 H270 H 0.68145 0.16310 0.39642
 H271 H 0.93474 0.05744 0.32653
 H272 H 0.86633 0.11347 0.25699
 C273 C 0.32611 0.41843 0.59699
 C274 C 0.39796 0.42393 0.59720
 C275 C 0.42714 0.39986 0.65246
 C276 C 0.39144 0.36790 0.69877
 C277 C 0.32176 0.36337 0.69902
 C278 C 0.28989 0.39607 0.65185
 C279 C 0.28737 0.43281 0.54402
 C280 C 0.21811 0.43182 0.54755
 C281 C 0.18506 0.41839 0.60364
 C282 C 0.22106 0.40452 0.65648
 H283 H 0.30873 0.44276 0.49882
 H284 H 0.18975 0.44669 0.50880
 H285 H 0.13162 0.41995 0.60746
 H286 H 0.19395 0.39846 0.70042
 H287 H 0.47808 0.40651 0.66383
 H288 H 0.41977 0.34707 0.73498
 C289 C 0.60943 0.93175 0.84816
 C290 C 0.57418 0.92037 0.90574
 C291 C 0.58373 0.86251 0.92654
 C292 C 0.63009 0.82458 0.89513
 C293 C 0.67816 0.84481 0.84882
 C294 C 0.67167 0.90467 0.83755
 C295 C 0.58942 0.96905 0.79953
 C296 C 0.64006 0.99609 0.76296
 C297 C 0.70672 0.99067 0.78389
 C298 C 0.72339 0.94242 0.82047
 H299 H 0.53869 0.98347 0.79597
 H300 H 0.62735 1.02847 0.72810
 H301 H 0.74564 1.01962 0.76684
 H302 H 0.77486 0.93157 0.82780
 H303 H 0.55543 0.84603 0.96681
 H304 H 0.63133 0.78026 0.91087
 C305 C 0.05518 0.63450 0.13116
 C306 C 0.07401 0.57811 0.11133
 C307 C 0.13479 0.56110 0.13737
 C308 C 0.17828 0.59712 0.17456
 C309 C 0.15624 0.64915 0.20056
 C310 C 0.08699 0.66060 0.18559
 C311 C 0.00747 0.66826 0.09966
 C312 C -0.01899 0.71644 0.12907
 C313 C -0.00449 0.72720 0.19231
 C314 C 0.04655 0.69754 0.22163
 H315 H -0.00622 0.66180 0.05120
 H316 H -0.05211 0.74439 0.10369
 H317 H -0.02971 0.76082 0.21701
 H318 H 0.05653 0.70667 0.27082
 H319 H 0.14432 0.51683 0.13379
 H320 H 0.22763 0.58226 0.18636
 C321 C 0.34087 0.92723 0.10486
 C322 C 0.41048 0.94004 0.11341
 C323 C 0.44326 0.90108 0.15390
 C324 C 0.40964 0.85143 0.18001
 C325 C 0.34236 0.83668 0.16478
 C326 C 0.31378 0.87132 0.11788
 C327 C 0.29549 0.96748 0.08222
 C328 C 0.23600 0.94985 0.05565
 C329 C 0.22144 0.89181 0.04846
 C330 C 0.25768 0.85279 0.08290
 H331 H 0.30355 1.01239 0.08569
 H332 H 0.19984 0.98168 0.04600
 H333 H 0.17824 0.87687 0.02313
 H334 H 0.24264 0.80815 0.07990
 H335 H 0.49575 0.90795 0.16421
 H336 H 0.43587 0.82671 0.21491
 C337 C 0.56685 0.43205 0.30998
 C338 C 0.52766 0.41443 0.36262
 C339 C 0.53209 0.35460 0.37716
 C340 C 0.58054 0.31830 0.34930
 C341 C 0.63045 0.33927 0.30681
 C342 C 0.62312 0.39884 0.28875
 C343 C 0.55418 0.48459 0.28003
 C344 C 0.60273 0.51129 0.24283
 C345 C 0.66578 0.48782 0.24177
 C346 C 0.67410 0.43027 0.25751
 H347 H 0.51059 0.50816 0.29120
 H348 H 0.59486 0.55419 0.22431
 H349 H 0.70806 0.51427 0.22794
 H350 H 0.72212 0.41277 0.24857
 H351 H 0.50019 0.33560 0.41358
 H352 H 0.58108 0.27384 0.36474
 C353 C 0.92746 0.56287 0.83463
 C354 C 0.95190 0.57940 0.89276
 C355 C 0.93691 0.63700 0.91013
 C356 C 0.88900 0.66973 0.87770
 C357 C 0.84822 0.64629 0.82904
 C358 C 0.86853 0.58843 0.80900
 C359 C 0.96257 0.52151 0.80068
 C360 C 0.93638 0.49697 0.74765
 C361 C 0.87209 0.50913 0.73252
 C362 C 0.83664 0.55437 0.76256
 H363 H 1.00912 0.50560 0.81596
 H364 H 0.96358 0.46433 0.72188
 H365 H 0.85598 0.48320 0.69431
 H366 H 0.78809 0.56625 0.74627
 H367 H 0.96064 0.65730 0.95042
 H368 H 0.88205 0.71335 0.89401
 C369 C 0.04474 0.13875 0.62190
 C370 C 0.05318 0.07710 0.62576
 C371 C 0.10753 0.06128 0.66440
 C372 C 0.15081 0.10334 0.69364
 C373 C 0.14963 0.16377 0.67833
 C374 C 0.09820 0.17905 0.63562
 C375 C -0.01581 0.16252 0.60322
 C376 C -0.01688 0.21644 0.57401
 C377 C 0.04142 0.24997 0.57120
 C378 C 0.09721 0.23340 0.60571
 H379 H -0.06144 0.13868 0.61117
 H380 H -0.06257 0.23180 0.55306
 H381 H 0.04252 0.29016 0.54511
 H382 H 0.14012 0.26206 0.60588
 H383 H 0.11786 0.01609 0.67118
 H384 H 0.18919 0.08748 0.72494
 C385 C 0.15114 0.42733 0.40277
 C386 C 0.08461 0.41054 0.42601
 C387 C 0.06544 0.35337 0.41643
 C388 C 0.10507 0.31788 0.37891
 C389 C 0.16968 0.33587 0.35598
 C390 C 0.19630 0.38487 0.38299
 C391 C 0.17539 0.48402 0.39407
 C392 C 0.24172 0.49598 0.37816
 C393 C 0.28716 0.45252 0.37317
 C394 C 0.26521 0.39697 0.37950
 H395 H 0.14235 0.51824 0.38539
 H396 H 0.25577 0.53806 0.36223
 H397 H 0.33791 0.46025 0.35839
 H398 H 0.30233 0.36446 0.37622
 H399 H 0.01737 0.33730 0.43331
 H400 H 0.08427 0.27595 0.36855
 C401 C 0.34188 0.62732 0.95864
 C402 C 0.40576 0.60545 0.93969
 C403 C 0.41828 0.60760 0.87411
 C404 C 0.38110 0.63901 0.83236
 C405 C 0.31502 0.65334 0.84459
 C406 C 0.29483 0.64770 0.91101
 C407 C 0.32329 0.63054 1.02346
 C408 C 0.26180 0.65125 1.04224
 C409 C 0.21482 0.66578 0.99730
 C410 C 0.23055 0.66340 0.93281
 H411 H 0.35615 0.61956 1.06131
 H412 H 0.25048 0.65548 1.09222
 H413 H 0.16578 0.67931 1.01254
 H414 H 0.19009 0.67269 0.90168
 H415 H 0.45786 0.58410 0.85236
 H416 H 0.40477 0.64864 0.78741
 C417 C 0.54598 0.14834 0.61069
 C418 C 0.57168 0.10385 0.57392
 C419 C 0.63993 0.09117 0.58500
 C420 C 0.67704 0.11270 0.63650
 C421 C 0.65087 0.15266 0.67870
 C422 C 0.58057 0.16753 0.66714
 C423 C 0.48651 0.17505 0.59163
 C424 C 0.45694 0.21602 0.63007
 C425 C 0.48345 0.22725 0.68975
 C426 C 0.54194 0.20123 0.70906
 H427 H 0.46287 0.16458 0.54679
 H428 H 0.41156 0.23668 0.61507
 H429 H 0.45914 0.25633 0.72179
 H430 H 0.55648 0.21025 0.75666
 H431 H 0.66685 0.06517 0.55180
 H432 H 0.72875 0.10041 0.64078
 C433 C 0.87023 0.87140 0.04859
 C434 C 0.93201 0.89398 0.07012
 C435 C 0.93637 0.89944 0.13821
 C436 C 0.88248 0.88926 0.17977
 C437 C 0.82151 0.86680 0.15964
 C438 C 0.81389 0.86572 0.09154
 C439 C 0.86068 0.86092 -0.01661
 C440 C 0.79682 0.85908 -0.04128
 C441 C 0.74227 0.86479 -0.00076
 C442 C 0.75012 0.86474 0.06467
 H443 H 0.90246 0.85798 -0.04921
 H444 H 0.79072 0.85715 -0.09212
 H445 H 0.69373 0.87176 -0.01887
 H446 H 0.70627 0.87104 0.09359
 H447 H 0.97819 0.92063 0.16073
 H448 H 0.88662 0.90481 0.22738
 C449 C 0.84036 0.07277 0.89976
 C450 C 0.90806 0.06360 0.88688
 C451 C 0.92776 0.08552 0.82587
 C452 C 0.88379 0.12022 0.78735
 C453 C 0.82214 0.14222 0.81154
 C454 C 0.80780 0.12216 0.87489
 C455 C 0.79968 0.03080 0.92899
 C456 C 0.73543 0.04516 0.94640
 C457 C 0.71840 0.10352 0.94767
 C458 C 0.75720 0.14331 0.91382
 H459 H 0.81517 -0.01327 0.93420
 H460 H 0.70154 0.01197 0.96404
 H461 H 0.67212 0.11721 0.96920
 H462 H 0.74186 0.18740 0.91274
 H463 H 0.97727 0.07657 0.80800
 H464 H 0.90117 0.13401 0.74071
 C465 C 0.06939 0.62412 0.63733
 C466 C 0.08579 0.57456 0.60300
 C467 C 0.15171 0.55691 0.61589
 C468 C 0.19390 0.58606 0.66098
 C469 C 0.16953 0.62922 0.70266
 C470 C 0.09989 0.63629 0.69720
 C471 C 0.03278 0.66813 0.61078
 C472 C 0.00777 0.70966 0.65086
 C473 C 0.01500 0.70458 0.71740
 C474 C 0.06309 0.66812 0.74102
 H475 H 0.02111 0.66945 0.56070
 H476 H -0.01813 0.74338 0.62854
 H477 H -0.01188 0.73094 0.75066
 H478 H 0.07688 0.67038 0.79085
 H479 H 0.17392 0.52633 0.58490
 H480 H 0.24592 0.57668 0.65901
 C481 C 0.62246 0.96048 0.34403
 C482 C 0.57990 0.93419 0.39171
 C483 C 0.57507 0.87386 0.38877
 C484 C 0.61132 0.84150 0.34486
 C485 C 0.66128 0.86552 0.30305
 C486 C 0.66654 0.92628 0.30412
 C487 C 0.62973 1.02026 0.34006
 C488 C 0.68793 1.04451 0.31637
 C489 C 0.73458 1.01122 0.28464
 C490 C 0.72063 0.95377 0.27328
 H491 H 0.59253 1.04949 0.35555
 H492 H 0.69268 1.09022 0.31755
 H493 H 0.77856 1.03086 0.26334
 H494 H 0.75587 0.93083 0.24481
 H495 H 0.54450 0.85013 0.42280
 H496 H 0.60298 0.79557 0.34901
 C497 C 0.34245 0.44720 0.13448
 C498 C 0.41200 0.44206 0.13056
 C499 C 0.43744 0.40336 0.17716
 C500 C 0.39380 0.36887 0.21790
 C501 C 0.32332 0.36353 0.20709
 C502 C 0.30208 0.40007 0.15677
 C503 C 0.31042 0.49536 0.11069
 C504 C 0.24674 0.48962 0.08807
 C505 C 0.21240 0.43737 0.09588
 C506 C 0.24288 0.39144 0.12415
 H507 H 0.33465 0.53658 0.10768
 H508 H 0.22559 0.52464 0.06121
 H509 H 0.16380 0.43043 0.07641
 H510 H 0.22143 0.34961 0.11659
 H511 H 0.49074 0.40034 0.18344
 H512 H 0.41611 0.34333 0.25499
 C513 C 0.54820 0.67943 0.07551
 C514 C 0.57149 0.62588 0.05362
 C515 C 0.64037 0.61751 0.06039
 C516 C 0.67535 0.64608 0.10740
 C517 C 0.65459 0.69839 0.13123
 C518 C 0.59402 0.71963 0.10450
 C519 C 0.48247 0.69608 0.06590
 C520 C 0.46457 0.75263 0.07485
 C521 C 0.51351 0.79422 0.08537
 C522 C 0.57699 0.77817 0.10319
 H523 H 0.44613 0.66718 0.04707
 H524 H 0.41360 0.76428 0.06960
 H525 H 0.50285 0.83889 0.07856
 H526 H 0.61218 0.81259 0.11015
 H527 H 0.66629 0.58335 0.03670
 H528 H 0.71843 0.62586 0.12482
 C529 C 0.16410 0.92683 0.90012
 C530 C 0.10344 0.90566 0.93334
 C531 C 0.08667 0.84747 0.92132
 C532 C 0.12427 0.81264 0.87909
 C533 C 0.17736 0.83491 0.84037
 C534 C 0.19372 0.89415 0.84953
 C535 C 0.19848 0.97973 0.91295
 C536 C 0.24590 1.00384 0.87217
 C537 C 0.25456 0.98051 0.81321
 C538 C 0.23058 0.92537 0.80277
 H539 H 0.19395 1.00400 0.95426
 H540 H 0.27496 1.04131 0.88563
 H541 H 0.28441 1.00292 0.77749
 H542 H 0.24152 0.90870 0.75707
 H543 H 0.04305 0.82850 0.94438
 H544 H 0.10795 0.76828 0.87368
 C545 C 0.34384 0.08358 0.41592
 C546 C 0.40989 0.09863 0.43760
 C547 C 0.43665 0.14918 0.40767
 C548 C 0.39878 0.18080 0.36150
 C549 C 0.32940 0.16904 0.35135
 C550 C 0.30272 0.12732 0.39291
 C551 C 0.31356 0.02803 0.41386
 C552 C 0.24533 0.02239 0.42247
 C553 C 0.20964 0.07253 0.43067
 C554 C 0.23677 0.12513 0.41347
 H555 H 0.34016 -0.01059 0.40420
 H556 H 0.22140 -0.01958 0.42666
 H557 H 0.15977 0.07190 0.44658
 H558 H 0.20548 0.16202 0.41715
 H559 H 0.48802 0.16202 0.41648
 H560 H 0.42311 0.21593 0.33617
 C561 C 0.84746 0.38297 0.54754
 C562 C 0.91892 0.39160 0.54969
 C563 C 0.95003 0.35937 0.59856
 C564 C 0.91275 0.32274 0.64063
 C565 C 0.84379 0.31156 0.63165
 C566 C 0.81875 0.33165 0.57305
 C567 C 0.79962 0.42605 0.53753
 C568 C 0.73202 0.41132 0.53319
 C569 C 0.71300 0.35395 0.52731
 C570 C 0.75717 0.31315 0.54811
 H571 H 0.80947 0.47113 0.54176
 H572 H 0.69537 0.44472 0.52976
 H573 H 0.66294 0.34162 0.51307
 H574 H 0.74041 0.26926 0.55058
 H575 H 1.00266 0.36592 0.60813
 H576 H 0.93886 0.30183 0.67880
 C577 C 0.84926 0.60167 0.07788
 C578 C 0.89022 0.56043 0.11091
 C579 C 0.88653 0.56453 0.17828
 C580 C 0.84984 0.60868 0.20862
 C581 C 0.82436 0.65556 0.17357
 C582 C 0.83752 0.65513 0.10618
 C583 C 0.81070 0.59041 0.02215
 C584 C 0.78609 0.63535 -0.01448
 C585 C 0.79991 0.69152 0.00360
 C586 C 0.82776 0.70146 0.06316
 H587 H 0.79715 0.54738 0.00756
 H588 H 0.75894 0.62677 -0.05770
 H589 H 0.78704 0.72716 -0.02707
 H590 H 0.84144 0.74523 0.07404
 H591 H 0.90525 0.53089 0.20798
 H592 H 0.84287 0.60671 0.25982
 C593 C 0.62371 0.45800 0.63987
 C594 C 0.57446 0.43377 0.60026
 C595 C 0.57060 0.37282 0.60082
 C596 C 0.61192 0.33885 0.63843
 C597 C 0.66803 0.36098 0.67261
 C598 C 0.67558 0.42250 0.66713
 C599 C 0.62975 0.51809 0.64394
 C600 C 0.69102 0.54266 0.65271
 C601 C 0.74542 0.50757 0.65489
 C602 C 0.73797 0.44906 0.67269
 H603 H 0.59039 0.54718 0.63234
 H604 H 0.69615 0.58852 0.65028
 H605 H 0.79189 0.52758 0.64073
 H606 H 0.78060 0.42195 0.67926
 H607 H 0.53321 0.34975 0.57339
 H608 H 0.60159 0.29324 0.63498
 C609 C 0.04225 0.12819 0.36008
 C610 C 0.05519 0.06911 0.37732
 C611 C 0.10721 0.04347 0.34184
 C612 C 0.15435 0.07927 0.30858
 C613 C 0.14061 0.13619 0.29149
 C614 C 0.07277 0.15051 0.30403
 C615 C 0.00038 0.16711 0.39264
 C616 C -0.02956 0.21206 0.35935
 C617 C -0.01537 0.21993 0.29481
 C618 C 0.03582 0.18904 0.26668
 H619 H -0.01333 0.16272 0.44183
 H620 H -0.06534 0.23927 0.38299
 H621 H -0.04034 0.25254 0.26780
 H622 H 0.05010 0.19882 0.21798
 H623 H 0.12060 -0.00061 0.35176
 H624 H 0.20470 0.06499 0.30477
 C625 C 0.38119 0.88905 0.89230
 C626 C 0.40833 0.94389 0.87321
 C627 C 0.40525 0.95281 0.80560
 C628 C 0.37304 0.91029 0.76436
 C629 C 0.35433 0.85445 0.78843
 C630 C 0.38201 0.84423 0.84903
 C631 C 0.35308 0.87403 0.95170
 C632 C 0.35642 0.81724 0.97338
 C633 C 0.38699 0.77664 0.93618
 C634 C 0.39906 0.79021 0.87314
 H635 H 0.32972 0.90542 0.98039
 H636 H 0.33729 0.80383 1.01828
 H637 H 0.39505 0.73368 0.95378
 H638 H 0.41366 0.75635 0.84273
 H639 H 0.42234 0.99346 0.78566
 H640 H 0.36092 0.92179 0.71574
 C641 C 0.07502 0.88354 0.63320
 C642 C 0.09444 0.91877 0.58167
 C643 C 0.16494 0.91768 0.57075
 C644 C 0.21048 0.88836 0.61284
 C645 C 0.18850 0.85861 0.66832
 C646 C 0.12044 0.87059 0.68220
 C647 C 0.01416 0.85431 0.63728
 C648 C -0.00676 0.83311 0.69716
 C649 C 0.02833 0.84758 0.75111
 C650 C 0.09185 0.86944 0.74261
 H651 H -0.01404 0.84600 0.59457
 H652 H -0.05035 0.80731 0.70388
 H653 H 0.00628 0.84292 0.79812
 H654 H 0.10648 0.90156 0.77588
 H655 H 0.18488 0.93545 0.52707
 H656 H 0.26319 0.89049 0.60287
 C657 C 0.55331 0.63351 0.36064
 C658 C 0.57483 0.57907 0.38473
 C659 C 0.63864 0.56454 0.36286
 C660 C 0.68194 0.60100 0.32539
 C661 C 0.65864 0.65123 0.29597
 C662 C 0.58814 0.66023 0.30754
 C663 C 0.49845 0.66393 0.38548
 C664 C 0.46992 0.70832 0.35090
 C665 C 0.49085 0.71861 0.28904
 C666 C 0.54867 0.69364 0.26702
 H667 H 0.47817 0.65688 0.43192
 H668 H 0.42929 0.73256 0.37061
 H669 H 0.46402 0.74727 0.25873
 H670 H 0.56286 0.70220 0.21896
 H671 H 0.65028 0.52089 0.36810
 H672 H 0.73246 0.58750 0.31600
 C673 C 0.33609 0.12604 0.06472
 C674 C 0.38517 0.08681 0.08593
 C675 C 0.38870 0.07927 0.15307
 C676 C 0.35087 0.11295 0.19538
 C677 C 0.29790 0.14680 0.17349
 C678 C 0.28567 0.14555 0.10698
 C679 C 0.33821 0.15135 0.00450
 C680 C 0.28838 0.18758 -0.01602
 C681 C 0.23040 0.19259 0.01973
 C682 C 0.22760 0.16834 0.07987
 H683 H 0.38110 0.14817 -0.02376
 H684 H 0.29406 0.20932 -0.06072
 H685 H 0.18726 0.21425 0.00117
 H686 H 0.18052 0.16857 0.10463
 H687 H 0.42427 0.05011 0.17356
 H688 H 0.36213 0.11077 0.24563
 C689 C 0.82442 0.42168 0.90099
 C690 C 0.89632 0.42590 0.90091
 C691 C 0.92582 0.40097 0.84630
 C692 C 0.89048 0.36894 0.80058
 C693 C 0.82089 0.36609 0.79953
 C694 C 0.78877 0.39990 0.84595
 C695 C 0.78515 0.43606 0.95406
 C696 C 0.71584 0.43275 0.95114
 C697 C 0.68337 0.42121 0.89446
 C698 C 0.72013 0.40929 0.84103
 H699 H 0.80595 0.44752 0.99897
 H700 H 0.68669 0.44454 0.99101
 H701 H 0.62978 0.42238 0.89105
 H702 H 0.69371 0.40382 0.79677
 H703 H 0.97664 0.40744 0.83445
 H704 H 0.91910 0.34646 0.76570
 C705 C 0.53642 0.15159 0.88096
 C706 C 0.54737 0.09014 0.88006
 C707 C 0.61059 0.07751 0.85823
 C708 C 0.65136 0.11639 0.82418
 C709 C 0.64587 0.17594 0.83185
 C710 C 0.59064 0.19253 0.86940
 C711 C 0.47560 0.17446 0.89909
 C712 C 0.47452 0.22716 0.93100
 C713 C 0.53273 0.26092 0.93499
 C714 C 0.58843 0.24664 0.89879
 H715 H 0.43035 0.15028 0.88986
 H716 H 0.42887 0.24186 0.95280
 H717 H 0.53370 0.29971 0.96331
 H718 H 0.63106 0.27579 0.89832
 H719 H 0.63268 0.03854 0.87381
 H720 H 0.69490 0.10006 0.80105
 C721 C 0.42894 0.56441 0.66304
 C722 C 0.45087 0.57958 0.60308
 C723 C 0.43361 0.63647 0.58373
 C724 C 0.38688 0.67001 0.61699
 C725 C 0.35025 0.64871 0.66980
 C726 C 0.37216 0.59168 0.69127
 C727 C 0.46362 0.52186 0.69573
 C728 C 0.43928 0.49861 0.75070
 C729 C 0.37682 0.51343 0.76980
 C730 C 0.34181 0.55913 0.74003
 H731 H 0.50849 0.50420 0.67811
 H732 H 0.46636 0.46533 0.77546
 H733 H 0.36131 0.48872 0.81005
 H734 H 0.29426 0.57261 0.75722
 H735 H 0.45460 0.65579 0.54115
 H736 H 0.37781 0.71274 0.59872
 C737 C 0.06232 0.43112 0.18869
 C738 C 0.02720 0.41374 0.13379
 C739 C 0.03573 0.35443 0.11821
 C740 C 0.08373 0.31893 0.14817
 C741 C 0.12998 0.34033 0.19367
 C742 C 0.11894 0.39927 0.21191
 C743 C 0.04588 0.48278 0.21850
 C744 C 0.09142 0.51059 0.25745
 C745 C 0.15527 0.48898 0.26033
 C746 C 0.16703 0.43178 0.24511
 H747 H 0.00233 0.50528 0.20523
 H748 H 0.08133 0.55342 0.27497
 H749 H 0.19569 0.51735 0.27356
 H750 H 0.21570 0.41569 0.25480
 H751 H 0.00720 0.33507 0.07991
 H752 H 0.08708 0.27485 0.13202
 C753 C 0.84716 0.93263 0.38425
 C754 C 0.91802 0.94044 0.37951
 C755 C 0.94926 0.89770 0.34262
 C756 C 0.91294 0.84874 0.31825
 C757 C 0.84354 0.83967 0.32983
 C758 C 0.81522 0.87878 0.37161
 C759 C 0.80485 0.97599 0.40343
 C760 C 0.74300 0.96421 0.42792
 C761 C 0.72210 0.90721 0.43587
 C762 C 0.75610 0.86504 0.40486
 H763 H 0.81361 1.01878 0.39238
 H764 H 0.71178 1.00051 0.43821
 H765 H 0.67677 0.89499 0.46023
 H766 H 0.73720 0.82157 0.40967
 H767 H 1.00276 0.90035 0.33506
 H768 H 0.93926 0.81928 0.28846
 C769 C 0.83924 0.62465 0.54409
 C770 C 0.90234 0.60193 0.56456
 C771 C 0.91295 0.60430 0.63019
 C772 C 0.87414 0.63585 0.67085
 C773 C 0.80868 0.65121 0.65741
 C774 C 0.79146 0.64694 0.59046
 C775 C 0.82253 0.62797 0.47890
 C776 C 0.76318 0.65166 0.45861
 C777 C 0.71604 0.66918 0.50234
 C778 C 0.72947 0.66637 0.56716
 H779 H 0.85575 0.61559 0.44175
 H780 H 0.75402 0.65670 0.40835
 H781 H 0.66887 0.68569 0.48587
 H782 H 0.68953 0.67909 0.59765
 H783 H 0.95467 0.58358 0.65201
 H784 H 0.89725 0.64690 0.71515
 C785 C 0.65161 0.42848 0.10043
 C786 C 0.58439 0.41215 0.07893
 C787 C 0.56483 0.35520 0.08957
 C788 C 0.60480 0.31908 0.12590
 C789 C 0.66990 0.33615 0.14787
 C790 C 0.69650 0.38594 0.12146
 C791 C 0.67687 0.48526 0.10567
 C792 C 0.74379 0.49742 0.11706
 C793 C 0.78836 0.45364 0.12517
 C794 C 0.76547 0.39796 0.12477
 H795 H 0.64492 0.52032 0.11437
 H796 H 0.75858 0.54043 0.12843
 H797 H 0.83939 0.46171 0.13820
 H798 H 0.80227 0.36567 0.13161
 H799 H 0.51626 0.33957 0.07399
 H800 H 0.58354 0.27716 0.13606
 C801 C 0.36348 0.86653 0.44621
 C802 C 0.42236 0.89456 0.42579
 C803 C 0.42638 0.90451 0.35839
 C804 C 0.37388 0.89206 0.31658
 C805 C 0.31497 0.86500 0.33652
 C806 C 0.30705 0.86119 0.40457
 C807 C 0.35936 0.84235 0.50713
 C808 C 0.30023 0.81639 0.52709
 C809 C 0.24202 0.82172 0.49185
 C810 C 0.24483 0.84839 0.43279
 H811 H 0.40237 0.84067 0.53797
 H812 H 0.29856 0.79517 0.57194
 H813 H 0.19479 0.80565 0.51062
 H814 H 0.19888 0.85642 0.40825
 H815 H 0.46736 0.92841 0.33711
 H816 H 0.37764 0.90832 0.26904
 C817 C 0.04683 0.15441 0.89871
 C818 C 0.07440 0.11689 0.94245
 C819 C 0.14438 0.11184 0.93998
 C820 C 0.18218 0.12909 0.88713
 C821 C 0.15401 0.15600 0.83445
 C822 C 0.08220 0.16841 0.84092
 C823 C -0.01390 0.18105 0.91377
 C824 C -0.04294 0.21847 0.87078
 C825 C -0.01520 0.22483 0.81043
 C826 C 0.04376 0.19733 0.79461
 H827 H -0.03819 0.17378 0.95935
 H828 H -0.08882 0.23990 0.88293
 H829 H -0.03920 0.25101 0.77516
 H830 H 0.05945 0.20287 0.74660
 H831 H 0.17068 0.09252 0.97923
 H832 H 0.23554 0.12530 0.88989
 C833 C 0.13158 0.95980 0.15441
 C834 C 0.08862 0.93549 0.10697
 C835 C 0.08276 0.87522 0.10693
 C836 C 0.11670 0.84119 0.15003
 C837 C 0.16654 0.86345 0.19211
 C838 C 0.17489 0.92384 0.19185
 C839 C 0.13973 1.01924 0.16042
 C840 C 0.19738 1.04209 0.18543
 C841 C 0.24342 1.00737 0.21555
 C842 C 0.22958 0.94949 0.22266
 H843 H 0.10270 1.04948 0.14761
 H844 H 0.20065 1.08769 0.18777
 H845 H 0.28665 1.02548 0.23908
 H846 H 0.26483 0.92518 0.24843
 H847 H 0.05292 0.85284 0.07164
 H848 H 0.10724 0.79557 0.14459
 C849 C 0.84213 0.44240 0.37256
 C850 C 0.91193 0.43802 0.37609
 C851 C 0.93773 0.39984 0.32889
 C852 C 0.89465 0.36543 0.28767
 C853 C 0.82393 0.35979 0.29768
 C854 C 0.80212 0.39569 0.34849
 C855 C 0.80932 0.48995 0.39725
 C856 C 0.74444 0.48425 0.41735
 C857 C 0.70983 0.43278 0.40628
 C858 C 0.74165 0.38707 0.37913
 H859 H 0.83339 0.53089 0.40232
 H860 H 0.72249 0.51847 0.44499
 H861 H 0.66094 0.42479 0.42461
 H862 H 0.71985 0.34523 0.38600
 H863 H 0.99109 0.39730 0.32232
 H864 H 0.91758 0.34043 0.25042
 C865 C 0.33434 0.07092 0.60740
 C866 C 0.40127 0.05819 0.61891
 C867 C 0.42422 0.07959 0.67894
 C868 C 0.38339 0.11587 0.71883
 C869 C 0.32229 0.13973 0.69655
 C870 C 0.30609 0.12168 0.63312
 C871 C 0.29055 0.03255 0.57696
 C872 C 0.22728 0.05156 0.56189
 C873 C 0.21458 0.11013 0.56212
 C874 C 0.25770 0.14662 0.59431
 H875 H 0.30310 -0.01182 0.56841
 H876 H 0.19098 0.02319 0.54261
 H877 H 0.16985 0.12674 0.54058
 H878 H 0.24679 0.19160 0.59322
 H879 H 0.47379 0.06891 0.69499
 H880 H 0.40260 0.12907 0.76484
 C881 C 0.56743 0.62393 0.86764
 C882 C 0.58421 0.57510 0.90275
 C883 C 0.64990 0.55704 0.89075
 C884 C 0.69060 0.58354 0.84319
 C885 C 0.66445 0.62432 0.79996
 C886 C 0.59403 0.63135 0.80558
 C887 C 0.54018 0.67259 0.89596
 C888 C 0.52539 0.71933 0.85759
 C889 C 0.52399 0.71287 0.79109
 C890 C 0.55721 0.66622 0.76409
 H891 H 0.53301 0.67568 0.94656
 H892 H 0.51515 0.75982 0.87984
 H893 H 0.50590 0.74712 0.76102
 H894 H 0.56665 0.66598 0.71322
 H895 H 0.67295 0.52894 0.92398
 H896 H 0.74295 0.57557 0.84553
 C897 C 0.34343 0.39379 0.95164
 C898 C 0.41537 0.39762 0.95328
 C899 C 0.44600 0.36519 0.90431
 C900 C 0.40882 0.32890 0.86231
 C901 C 0.33943 0.31902 0.87002
 C902 C 0.31149 0.34424 0.92539
 C903 C 0.29932 0.44021 0.95979
 C904 C 0.23089 0.43017 0.96497
 C905 C 0.20710 0.37406 0.97033
 C906 C 0.24726 0.33059 0.94864
 H907 H 0.31310 0.48448 0.95348
 H908 H 0.19735 0.46591 0.96949
 H909 H 0.15650 0.36478 0.98564
 H910 H 0.22564 0.28853 0.94646
 H911 H 0.49893 0.37064 0.89519
 H912 H 0.43564 0.30655 0.82544
 C913 C 0.84755 0.08071 0.08878
 C914 C 0.91314 0.09822 0.06758
 C915 C 0.93704 0.14995 0.09618
 C916 C 0.89721 0.18064 0.14127
 C917 C 0.82837 0.16647 0.15159
 C918 C 0.80370 0.12266 0.11176
 C919 C 0.82096 0.02388 0.09117
 C920 C 0.75289 0.01483 0.08525
 C921 C 0.71344 0.06233 0.07696
 C922 C 0.73731 0.11669 0.09313
 H923 H 0.85030 -0.01335 0.09910
 H924 H 0.73131 -0.02768 0.08186
 H925 H 0.66367 0.05709 0.06018
 H926 H 0.70340 0.15199 0.09093
 H927 H 0.98783 0.16460 0.08713
 H928 H 0.91971 0.21691 0.16584
 C929 C 0.64740 0.90914 0.59328
 C930 C 0.58264 0.89178 0.56859
 C931 C 0.55694 0.84015 0.59672
 C932 C 0.59233 0.80869 0.64482
 C933 C 0.65270 0.82954 0.67325
 C934 C 0.67540 0.88311 0.64828
 C935 C 0.68710 0.95324 0.56590
 C936 C 0.74084 0.97978 0.59459
 C937 C 0.75644 0.96291 0.65425
 C938 C 0.72546 0.91383 0.67890
 H939 H 0.67810 0.96874 0.52176
 H940 H 0.76833 1.01463 0.57143
 H941 H 0.79422 0.98661 0.68003
 H942 H 0.73953 0.90020 0.72353
 H943 H 0.50863 0.82379 0.58182
 H944 H 0.57112 0.76796 0.66069
 C945 C 0.04579 0.67585 0.42432
 C946 C 0.07009 0.62348 0.44802
 C947 C 0.13834 0.61486 0.43744
 C948 C 0.17074 0.64179 0.38710
 C949 C 0.15017 0.69417 0.36326
 C950 C 0.08988 0.71544 0.39108
 C951 C -0.01970 0.69183 0.43566
 C952 C -0.03875 0.74749 0.42465
 C953 C 0.00934 0.78938 0.41250
 C954 C 0.07175 0.77375 0.39080
 H955 H -0.05483 0.66336 0.45746
 H956 H -0.08992 0.75799 0.42923
 H957 H -0.00154 0.83373 0.42039
 H958 H 0.10489 0.80851 0.37898
 H959 H 0.16507 0.58117 0.46087
 H960 H 0.21236 0.62077 0.36756
   
