data_POSCAR
  _audit_creation_date              2014-09-24
  _audit_creation_method            'ToBaCCo'
  _symmetry_space_group_name_H-M    'P1'
  _symmetry_Int_Tables_number       1
  _symmetry_cell_setting            triclinic
  loop_
  _symmetry_equiv_pos_as_xyz
 x,y,z
_cell_length_a 44.2019
_cell_length_b 43.5196
_cell_length_c 43.6066
_cell_angle_alpha 89.899000
_cell_angle_beta 89.997200
_cell_angle_gamma 90.028000
loop_
  _atom_site_label
  _atom_site_type_symbol
  _atom_site_fract_x
  _atom_site_fract_y
  _atom_site_fract_z
N1 N 0.59030 0.67310 0.60569
 N2 N 0.57761 0.66005 0.62970
 C3 C 0.55286 0.67619 0.63767
 C4 C 0.55002 0.70046 0.61760
 C5 C 0.57401 0.69799 0.59754
 H6 H 0.53795 0.67076 0.65659
 H7 H 0.57917 0.71308 0.57852
 Cu8 Cu 0.59452 0.62328 0.64835
 Cu9 Cu 0.62690 0.65671 0.58691
 Cu10 Cu 0.65815 0.59168 0.62049
 N11 N 0.61268 0.58726 0.66728
 N12 N 0.63760 0.57495 0.65631
 C13 C 0.64542 0.55066 0.67381
 C14 C 0.62419 0.54782 0.69678
 C15 C 0.60376 0.57126 0.69216
 H16 H 0.66511 0.53635 0.67021
 H17 H 0.58409 0.57634 0.70601
 N18 N 0.67566 0.61190 0.58413
 N19 N 0.66383 0.63667 0.57132
 C20 C 0.68102 0.64493 0.54712
 C21 C 0.70457 0.62435 0.54480
 C22 C 0.70064 0.60376 0.56844
 H23 H 0.67683 0.66444 0.53232
 H24 H 0.71500 0.58437 0.57379
 H25 H 0.62055 0.61167 0.60042
 H26 H 0.64355 0.63651 0.62637
 N27 N 0.91017 0.32632 0.10575
 N28 N 0.92275 0.33921 0.12987
 C29 C 0.94745 0.32299 0.13795
 C30 C 0.95032 0.29885 0.11781
 C31 C 0.92646 0.30145 0.09761
 H32 H 0.96227 0.32831 0.15695
 H33 H 0.92137 0.28650 0.07849
 Cu34 Cu 0.90582 0.37592 0.14846
 Cu35 Cu 0.87369 0.34290 0.08683
 Cu36 Cu 0.84250 0.40792 0.12028
 N37 N 0.88777 0.41196 0.16730
 N38 N 0.86297 0.42444 0.15619
 C39 C 0.85525 0.44876 0.17359
 C40 C 0.87637 0.45148 0.19667
 C41 C 0.89666 0.42791 0.19217
 H42 H 0.83570 0.46323 0.16987
 H43 H 0.91625 0.42273 0.20610
 N44 N 0.82507 0.38789 0.08386
 N45 N 0.83687 0.36312 0.07109
 C46 C 0.81973 0.35498 0.04684
 C47 C 0.79624 0.37563 0.04445
 C48 C 0.80016 0.39614 0.06810
 H49 H 0.82390 0.33550 0.03208
 H50 H 0.78582 0.41554 0.07341
 H51 H 0.88012 0.38785 0.10040
 H52 H 0.85686 0.36301 0.12619
 N53 N 0.41079 0.17330 -0.11523
 N54 N 0.42298 0.15996 -0.13930
 C55 C 0.44755 0.17614 -0.14807
 C56 C 0.45067 0.20069 -0.12836
 C57 C 0.42711 0.19832 -0.10786
 H58 H 0.46199 0.17062 -0.16731
 H59 H 0.42218 0.21372 -0.08907
 Cu60 Cu 0.40530 0.12286 -0.15669
 Cu61 Cu 0.37461 0.15758 -0.09528
 Cu62 Cu 0.34185 0.09243 -0.12646
 N63 N 0.38624 0.08663 -0.17437
 N64 N 0.36144 0.07492 -0.16239
 C65 C 0.35312 0.05007 -0.17868
 C66 C 0.37378 0.04612 -0.20197
 C67 C 0.39452 0.06957 -0.19874
 H68 H 0.33362 0.03584 -0.17386
 H69 H 0.41415 0.07371 -0.21297
 N70 N 0.32541 0.11349 -0.09013
 N71 N 0.33796 0.13833 -0.07827
 C72 C 0.32179 0.14721 -0.05366
 C73 C 0.29809 0.12703 -0.05001
 C74 C 0.30089 0.10591 -0.07333
 H75 H 0.32686 0.16680 -0.03934
 H76 H 0.28623 0.08648 -0.07759
 H77 H 0.38019 0.11215 -0.10797
 H78 H 0.35684 0.13675 -0.13391
 N79 N 0.08893 0.82610 0.38465
 N80 N 0.07673 0.83937 0.36050
 C81 C 0.05223 0.82310 0.35175
 C82 C 0.04920 0.79857 0.37159
 C83 C 0.07270 0.80102 0.39214
 H84 H 0.03779 0.82857 0.33247
 H85 H 0.07765 0.78569 0.41104
 Cu86 Cu 0.09426 0.87654 0.34298
 Cu87 Cu 0.12497 0.84204 0.40464
 Cu88 Cu 0.15751 0.90730 0.37321
 N89 N 0.11323 0.91281 0.32516
 N90 N 0.13796 0.92464 0.33713
 C91 C 0.14620 0.94951 0.32074
 C92 C 0.12558 0.95334 0.29738
 C93 C 0.10493 0.92981 0.30068
 H94 H 0.16562 0.96385 0.32554
 H95 H 0.08534 0.92557 0.28644
 N96 N 0.17393 0.88640 0.40973
 N97 N 0.16147 0.86151 0.42167
 C98 C 0.17758 0.85278 0.44641
 C99 C 0.20115 0.87311 0.45005
 C100 C 0.19833 0.89415 0.42659
 H101 H 0.17253 0.83320 0.46084
 H102 H 0.21289 0.91367 0.42229
 H103 H 0.11922 0.88743 0.39170
 H104 H 0.14274 0.86289 0.36593
 N105 N 0.14343 0.14929 0.14298
 N106 N 0.35556 0.85093 0.64331
 N107 N 0.89884 0.60425 0.39277
 N108 N 0.60211 0.39639 -0.10775
 C109 C -0.02744 0.27729 0.11795
 C110 C -0.00724 0.25871 0.11885
 C111 C 0.01745 0.23726 0.12085
 C112 C 0.01793 0.21520 0.14429
 C113 C 0.04300 0.19591 0.14775
 C114 C 0.06771 0.19861 0.12779
 C115 C 0.06700 0.22030 0.10401
 C116 C 0.04192 0.23960 0.10056
 C117 C 0.09439 0.18032 0.13271
 C118 C 0.11708 0.16563 0.13732
 H119 H -0.00078 0.21334 0.16024
 H120 H 0.04338 0.17933 0.16631
 H121 H 0.08605 0.22270 0.08855
 H122 H 0.04187 0.25672 0.08249
 C123 C 0.52652 0.72323 0.61776
 C124 C 0.50629 0.74177 0.61871
 C125 C 0.48157 0.76318 0.62078
 C126 C 0.48126 0.78535 0.64404
 C127 C 0.45618 0.80461 0.64757
 C128 C 0.43131 0.80177 0.62786
 C129 C 0.43185 0.77997 0.60425
 C130 C 0.45693 0.76071 0.60072
 C131 C 0.40462 0.82002 0.63288
 C132 C 0.38193 0.83466 0.63756
 H133 H 0.50011 0.78732 0.65980
 H134 H 0.45593 0.82127 0.66600
 H135 H 0.41267 0.77747 0.58899
 H136 H 0.45685 0.74352 0.58278
 C137 C 1.02775 0.77619 0.37114
 C138 C 1.00921 0.75588 0.37153
 C139 C 0.98774 0.73105 0.37296
 C140 C 0.99034 0.70609 0.35288
 C141 C 0.97093 0.68087 0.35583
 C142 C 0.94884 0.68050 0.37888
 C143 C 0.94588 0.70570 0.39860
 C144 C 0.96529 0.73092 0.39565
 C145 C 0.93035 0.65364 0.38333
 C146 C 0.91546 0.63079 0.38754
 H147 H 1.00774 0.70587 0.33538
 H148 H 0.97352 0.66143 0.34056
 H149 H 0.92898 0.70558 0.41661
 H150 H 0.96320 0.75001 0.41142
 C151 C 0.47334 0.22433 -0.12894
 C152 C 0.49183 0.24469 -0.12860
 C153 C 0.51323 0.26959 -0.12726
 C154 C 0.53623 0.26935 -0.10515
 C155 C 0.55561 0.29461 -0.10226
 C156 C 0.55204 0.32020 -0.12146
 C157 C 0.52939 0.32020 -0.14394
 C158 C 0.51002 0.29495 -0.14682
 C159 C 0.57054 0.34704 -0.11706
 C160 C 0.58546 0.36987 -0.11289
 H161 H 0.53880 0.24995 -0.08977
 H162 H 0.57295 0.29443 -0.08470
 H163 H 0.52634 0.33993 -0.15880
 H164 H 0.49219 0.29545 -0.16387
 C165 C 0.12551 -0.02260 0.27480
 C166 C 0.12598 -0.00202 0.25626
 C167 C 0.12720 0.02297 0.23464
 C168 C 0.10658 0.04732 0.23685
 C169 C 0.10891 0.07250 0.21701
 C170 C 0.13188 0.07344 0.19487
 C171 C 0.15221 0.04889 0.19236
 C172 C 0.14988 0.02371 0.21220
 C173 C 0.13546 0.10019 0.17577
 C174 C 0.13897 0.12292 0.16029
 H175 H 0.08904 0.04706 0.25421
 H176 H 0.09316 0.09142 0.21925
 H177 H 0.17014 0.04944 0.17542
 H178 H 0.16603 0.00508 0.21037
 C179 C 0.62369 0.52678 -0.28016
 C180 C 0.62274 0.50848 -0.25940
 C181 C 0.62096 0.48713 -0.23422
 C182 C 0.64086 0.48982 -0.20936
 C183 C 0.63796 0.47021 -0.18408
 C184 C 0.61515 0.44785 -0.18356
 C185 C 0.59553 0.44487 -0.20861
 C186 C 0.59843 0.46447 -0.23389
 C187 C 0.61100 0.42894 -0.15679
 C188 C 0.60704 0.41359 -0.13408
 H189 H 0.65828 0.50735 -0.20932
 H190 H 0.65316 0.47280 -0.16476
 H191 H 0.57773 0.42775 -0.20838
 H192 H 0.58283 0.46228 -0.25293
 C193 C 0.37377 1.02207 0.77551
 C194 C 0.37324 1.00154 0.75700
 C195 C 0.37197 0.97661 0.73539
 C196 C 0.34967 0.97633 0.71255
 C197 C 0.34729 0.95126 0.69266
 C198 C 0.36720 0.92638 0.69552
 C199 C 0.38978 0.92687 0.71806
 C200 C 0.39216 0.95193 0.73796
 C201 C 0.36356 0.89978 0.67631
 C202 C 0.36003 0.87717 0.66074
 H203 H 0.33385 0.99522 0.71045
 H204 H 0.32965 0.95106 0.67540
 H205 H 0.40520 0.90768 0.72056
 H206 H 0.40940 0.95184 0.75562
 C207 C 0.87700 0.47375 0.22092
 C208 C 0.87806 0.49204 0.24161
 C209 C 0.87993 0.51338 0.26671
 C210 C 0.90252 0.53598 0.26695
 C211 C 0.90547 0.55558 0.29215
 C212 C 0.88584 0.55267 0.31721
 C213 C 0.86298 0.53036 0.31680
 C214 C 0.86003 0.51075 0.29159
 C215 C 0.89001 0.57163 0.34388
 C216 C 0.89394 0.58701 0.36651
 H217 H 0.91811 0.53812 0.24789
 H218 H 0.92331 0.57267 0.29230
 H219 H 0.84777 0.52782 0.33612
 H220 H 0.84257 0.49327 0.29171
 C221 C 0.27554 0.12777 -0.02631
 C222 C 0.25701 0.12892 -0.00606
 C223 C 0.23539 0.13091 0.01853
 C224 C 0.23516 0.10866 0.04180
 C225 C 0.21530 0.11156 0.06660
 C226 C 0.19560 0.13672 0.06823
 C227 C 0.19554 0.15874 0.04474
 C228 C 0.21540 0.15584 0.01995
 C229 C 0.17644 0.14071 0.09459
 C230 C 0.16087 0.14452 0.11699
 H231 H 0.25062 0.08936 0.04099
 H232 H 0.21562 0.09448 0.08471
 H233 H 0.18049 0.17835 0.04584
 H234 H 0.21548 0.17324 0.00215
 C235 C 0.72860 0.62430 0.52263
 C236 C 0.74911 0.62367 0.50443
 C237 C 0.77400 0.62223 0.48320
 C238 C 0.77384 0.60050 0.45953
 C239 C 0.79881 0.59785 0.44000
 C240 C 0.82403 0.61693 0.44407
 C241 C 0.82401 0.63896 0.46746
 C242 C 0.79904 0.64161 0.48699
 C243 C 0.85044 0.61293 0.42520
 C244 C 0.87285 0.60909 0.40990
 H245 H 0.75466 0.58530 0.45649
 H246 H 0.79865 0.58064 0.42208
 H247 H 0.84345 0.65373 0.47090
 H248 H 0.79946 0.65839 0.50531
 C249 C 0.77224 0.37579 0.02226
 C250 C 0.75175 0.37652 0.00403
 C251 C 0.72689 0.37807 -0.01723
 C252 C 0.70208 0.35830 -0.01384
 C253 C 0.67713 0.36103 -0.03339
 C254 C 0.67689 0.38355 -0.05640
 C255 C 0.70188 0.40303 -0.06006
 C256 C 0.72683 0.40029 -0.04052
 C257 C 0.65049 0.38760 -0.07528
 C258 C 0.62809 0.39150 -0.09060
 H259 H 0.70183 0.34113 0.00418
 H260 H 0.65786 0.34595 -0.03025
 H261 H 0.70187 0.42061 -0.07768
 H262 H 0.74583 0.41579 -0.04326
 C263 C 0.22359 0.87256 0.47386
 C264 C 0.24204 0.87159 0.49420
 C265 C 0.26357 0.86981 0.51889
 C266 C 0.26123 0.88984 0.54391
 C267 C 0.28106 0.88695 0.56875
 C268 C 0.30330 0.86403 0.56867
 C269 C 0.30593 0.84429 0.54346
 C270 C 0.28610 0.84718 0.51862
 C271 C 0.32250 0.85986 0.59500
 C272 C 0.33809 0.85589 0.61736
 H273 H 0.24381 0.90733 0.54442
 H274 H 0.27874 0.90224 0.58818
 H275 H 0.32297 0.82640 0.54322
 H276 H 0.28804 0.83149 0.49946
   
