data_POSCAR
  _audit_creation_date              2014-09-24
  _audit_creation_method            'ToBaCCo'
  _symmetry_space_group_name_H-M    'P1'
  _symmetry_Int_Tables_number       1
  _symmetry_cell_setting            triclinic
  loop_
  _symmetry_equiv_pos_as_xyz
 x,y,z
_cell_length_a 51.6309
_cell_length_b 51.8533
_cell_length_c 51.9706
_cell_angle_alpha 89.998000
_cell_angle_beta 90.005500
_cell_angle_gamma 89.976200
loop_
  _atom_site_label
  _atom_site_type_symbol
  _atom_site_fract_x
  _atom_site_fract_y
  _atom_site_fract_z
N1 N 0.28857 0.23358 0.21814
 N2 N 0.27928 0.25440 0.20701
 C3 C 0.29380 0.25997 0.18620
 C4 C 0.31308 0.24170 0.18443
 C5 C 0.30931 0.22520 0.20484
 H6 H 0.29045 0.27584 0.17309
 H7 H 0.32063 0.20828 0.20949
 Cu8 Cu 0.24866 0.27158 0.22034
 Cu9 Cu 0.27284 0.21883 0.24880
 Cu10 Cu 0.21824 0.24956 0.27313
 N11 N 0.21802 0.28868 0.23377
 N12 N 0.20615 0.27997 0.25442
 C13 C 0.18525 0.29480 0.25913
 C14 C 0.18409 0.31365 0.24046
 C15 C 0.20503 0.30930 0.22461
 H16 H 0.17170 0.29188 0.27471
 H17 H 0.21008 0.32010 0.20750
 N18 N 0.23365 0.21849 0.28909
 N19 N 0.25434 0.20683 0.27966
 C20 C 0.26012 0.18635 0.29452
 C21 C 0.24232 0.18515 0.31416
 C22 C 0.22574 0.20564 0.31027
 H23 H 0.27602 0.17316 0.29130
 H24 H 0.20914 0.21067 0.32192
 H25 H 0.23542 0.23196 0.24196
 H26 H 0.25649 0.25263 0.26256
 N27 N 0.71101 -0.23368 0.21756
 N28 N 0.72018 -0.25471 0.20672
 C29 C 0.70573 -0.26038 0.18587
 C30 C 0.68666 -0.24193 0.18379
 C31 C 0.69041 -0.22524 0.20405
 H32 H 0.70889 -0.27654 0.17308
 H33 H 0.67912 -0.20825 0.20858
 Cu34 Cu 0.75037 -0.27245 0.22048
 Cu35 Cu 0.72643 -0.21896 0.24833
 Cu36 Cu 0.78104 -0.24909 0.27288
 N37 N 0.78161 -0.28851 0.23391
 N38 N 0.79358 -0.27932 0.25431
 C39 C 0.81479 -0.29371 0.25902
 C40 C 0.81602 -0.31277 0.24055
 C41 C 0.79483 -0.30904 0.22491
 H42 H 0.82837 -0.29041 0.27452
 H43 H 0.78965 -0.32027 0.20813
 N44 N 0.76526 -0.21828 0.28888
 N45 N 0.74449 -0.20684 0.27937
 C46 C 0.73841 -0.18647 0.29427
 C47 C 0.75612 -0.18513 0.31398
 C48 C 0.77296 -0.20541 0.31012
 H49 H 0.72240 -0.17342 0.29099
 H50 H 0.78960 -0.21026 0.32179
 H51 H 0.76379 -0.23243 0.24126
 H52 H 0.74281 -0.25270 0.26242
 N53 N 0.71234 0.23341 0.78214
 N54 N 0.72249 0.25356 0.79376
 C55 C 0.70816 0.25924 0.81467
 C56 C 0.68813 0.24173 0.81603
 C57 C 0.69129 0.22554 0.79526
 H58 H 0.71200 0.27478 0.82801
 H59 H 0.67930 0.20921 0.79021
 Cu60 Cu 0.75348 0.27032 0.78052
 Cu61 Cu 0.72724 0.21881 0.75103
 Cu62 Cu 0.78166 0.24883 0.72605
 N63 N 0.78355 0.28745 0.76578
 N64 N 0.79448 0.27895 0.74452
 C65 C 0.81494 0.29400 0.73878
 C66 C 0.81669 0.31288 0.75736
 C67 C 0.79667 0.30827 0.77426
 H68 H 0.82771 0.29125 0.72251
 H69 H 0.79220 0.31911 0.79149
 N70 N 0.76573 0.21812 0.71017
 N71 N 0.74494 0.20677 0.71973
 C72 C 0.73880 0.18638 0.70490
 C73 C 0.75650 0.18496 0.68517
 C74 C 0.77337 0.20519 0.68897
 H75 H 0.72283 0.17332 0.70828
 H76 H 0.79006 0.20991 0.67732
 H77 H 0.76494 0.23105 0.75726
 H78 H 0.74377 0.25294 0.73796
 N79 N 0.28819 -0.23389 0.78252
 N80 N 0.27808 -0.25401 0.79421
 C81 C 0.29253 -0.25973 0.81502
 C82 C 0.31261 -0.24229 0.81627
 C83 C 0.30938 -0.22610 0.79550
 H84 H 0.28872 -0.27526 0.82839
 H85 H 0.32141 -0.20982 0.79035
 Cu86 Cu 0.24695 -0.27073 0.78125
 Cu87 Cu 0.27300 -0.21923 0.75156
 Cu88 Cu 0.21842 -0.24930 0.72697
 N89 N 0.21674 -0.28784 0.76674
 N90 N 0.20572 -0.27941 0.74550
 C91 C 0.18523 -0.29447 0.73990
 C92 C 0.18351 -0.31324 0.75859
 C93 C 0.20363 -0.30859 0.77539
 H94 H 0.17239 -0.29178 0.72367
 H95 H 0.20815 -0.31931 0.79267
 N96 N 0.23420 -0.21858 0.71096
 N97 N 0.25501 -0.20718 0.72041
 C98 C 0.26104 -0.18680 0.70550
 C99 C 0.24323 -0.18542 0.68585
 C100 C 0.22642 -0.20569 0.68977
 H101 H 0.27702 -0.17374 0.70877
 H102 H 0.20969 -0.21047 0.67819
 H103 H 0.23533 -0.23139 0.75818
 H104 H 0.25640 -0.25328 0.73874
 N105 N 0.71226 -0.23263 0.78144
 N106 N 0.72233 -0.25260 0.79345
 C107 C 0.70777 -0.25808 0.81425
 C108 C 0.68766 -0.24065 0.81519
 C109 C 0.69096 -0.22472 0.79421
 H110 H 0.71155 -0.27341 0.82784
 H111 H 0.67897 -0.20849 0.78881
 Cu112 Cu 0.75353 -0.26962 0.78110
 Cu113 Cu 0.72782 -0.21813 0.75051
 Cu114 Cu 0.78219 -0.24912 0.72660
 N115 N 0.78343 -0.28728 0.76662
 N116 N 0.79436 -0.27926 0.74519
 C117 C 0.81457 -0.29462 0.73954
 C118 C 0.81627 -0.31316 0.75840
 C119 C 0.79639 -0.30811 0.77537
 H120 H 0.82729 -0.29226 0.72317
 H121 H 0.79192 -0.31860 0.79280
 N122 N 0.76714 -0.21832 0.71037
 N123 N 0.74641 -0.20649 0.71947
 C124 C 0.74144 -0.18566 0.70476
 C125 C 0.75988 -0.18451 0.68563
 C126 C 0.77591 -0.20534 0.68965
 H127 H 0.72594 -0.17202 0.70800
 H128 H 0.79297 -0.21030 0.67865
 H129 H 0.74392 -0.25241 0.73846
 H130 H 0.76512 -0.23042 0.75765
 N131 N 0.28826 0.23256 0.78164
 N132 N 0.27813 0.25255 0.79357
 C133 C 0.29262 0.25811 0.81439
 C134 C 0.31275 0.24073 0.81544
 C135 C 0.30953 0.22471 0.79450
 H136 H 0.28878 0.27349 0.82791
 H137 H 0.32156 0.20848 0.78920
 Cu138 Cu 0.24692 0.26947 0.78110
 Cu139 Cu 0.27273 0.21803 0.75071
 Cu140 Cu 0.21828 0.24875 0.72668
 N141 N 0.21694 0.28700 0.76659
 N142 N 0.20599 0.27888 0.74522
 C143 C 0.18569 0.29415 0.73961
 C144 C 0.18395 0.31276 0.75842
 C145 C 0.20393 0.30779 0.77531
 H146 H 0.17292 0.29171 0.72330
 H147 H 0.20840 0.31834 0.79270
 N148 N 0.23346 0.21798 0.71053
 N149 N 0.25423 0.20624 0.71966
 C150 C 0.25935 0.18548 0.70491
 C151 C 0.24097 0.18429 0.68574
 C152 C 0.22482 0.20501 0.68976
 H153 H 0.27494 0.17191 0.70810
 H154 H 0.20780 0.20992 0.67866
 H155 H 0.25646 0.25234 0.73848
 H156 H 0.23533 0.23030 0.75772
 N157 N 0.28859 -0.23319 0.21854
 N158 N 0.27936 -0.25417 0.20764
 C159 C 0.29382 -0.25983 0.18681
 C160 C 0.31299 -0.24146 0.18471
 C161 C 0.30924 -0.22482 0.20506
 H162 H 0.29060 -0.27595 0.17401
 H163 H 0.32052 -0.20784 0.20958
 Cu164 Cu 0.24917 -0.27196 0.22154
 Cu165 Cu 0.27294 -0.21808 0.24912
 Cu166 Cu 0.21827 -0.24823 0.27331
 N167 N 0.21800 -0.28822 0.23515
 N168 N 0.20608 -0.27870 0.25541
 C169 C 0.18523 -0.29325 0.26084
 C170 C 0.18408 -0.31284 0.24303
 C171 C 0.20501 -0.30924 0.22695
 H172 H 0.17183 -0.28979 0.27647
 H173 H 0.21025 -0.32095 0.21054
 N174 N 0.23338 -0.21724 0.28902
 N175 N 0.25430 -0.20577 0.27990
 C176 C 0.25963 -0.18505 0.29464
 C177 C 0.24123 -0.18364 0.31377
 C178 C 0.22486 -0.20415 0.30975
 H179 H 0.27547 -0.17176 0.29154
 H180 H 0.20786 -0.20892 0.32093
 H181 H 0.25695 -0.25160 0.26308
 H182 H 0.23613 -0.23147 0.24154
 N183 N 0.71166 0.23273 0.21878
 N184 N 0.72113 0.25344 0.20756
 C185 C 0.70667 0.25906 0.18671
 C186 C 0.68725 0.24096 0.18493
 C187 C 0.69089 0.22448 0.20541
 H188 H 0.71012 0.27488 0.17357
 H189 H 0.67950 0.20761 0.21001
 Cu190 Cu 0.75151 0.27082 0.22123
 Cu191 Cu 0.72747 0.21753 0.24936
 Cu192 Cu 0.78180 0.24840 0.27373
 N193 N 0.78194 0.28809 0.23505
 N194 N 0.79351 0.27919 0.25579
 C195 C 0.81392 0.29428 0.26139
 C196 C 0.81509 0.31361 0.24332
 C197 C 0.79468 0.30925 0.22676
 H198 H 0.82716 0.29128 0.27722
 H199 H 0.78974 0.32044 0.20989
 N200 N 0.76711 0.21706 0.28928
 N201 N 0.74637 0.20532 0.28007
 C202 C 0.74143 0.18436 0.29459
 C203 C 0.75991 0.18303 0.31368
 C204 C 0.77590 0.20390 0.30986
 H205 H 0.72581 0.17086 0.29136
 H206 H 0.79284 0.20886 0.32106
 H207 H 0.74334 0.25110 0.26299
 H208 H 0.76447 0.23068 0.24221
 C209 C 0.23416 0.00039 0.43125
 C210 C 0.23705 0.02344 0.44474
 C211 C 0.23755 0.02328 0.47170
 C212 C 0.23360 0.00010 0.48566
 C213 C 0.22987 -0.02288 0.47140
 C214 C 0.23096 -0.02276 0.44448
 C215 C 0.23349 -0.00015 0.51468
 C216 C 0.23738 -0.02335 0.52863
 C217 C 0.23663 -0.02356 0.55558
 C218 C 0.23349 -0.00057 0.56909
 C219 C 0.23037 0.02262 0.55589
 C220 C 0.22961 0.02281 0.52895
 H221 H 0.23450 0.00045 0.41037
 H222 H 0.24124 0.04133 0.48137
 H223 H 0.22604 -0.04106 0.48080
 H224 H 0.24124 -0.04138 0.51897
 H225 H 0.23362 -0.00069 0.58997
 H226 H 0.22592 0.04101 0.51953
 C227 C 0.76686 0.00016 0.56884
 C228 C 0.76337 0.02309 0.55531
 C229 C 0.76276 0.02289 0.52838
 C230 C 0.76670 -0.00029 0.51448
 C231 C 0.77079 -0.02322 0.52872
 C232 C 0.77031 -0.02299 0.55565
 C233 C 0.76638 -0.00057 0.48552
 C234 C 0.76201 -0.02371 0.47168
 C235 C 0.76216 -0.02390 0.44474
 C236 C 0.76556 -0.00098 0.43116
 C237 C 0.76937 0.02212 0.44432
 C238 C 0.77033 0.02234 0.47122
 H239 H 0.76675 0.00030 0.58972
 H240 H 0.75894 0.04093 0.51871
 H241 H 0.77443 -0.04142 0.51928
 H242 H 0.75824 -0.04171 0.48143
 H243 H 0.76516 -0.00110 0.41029
 H244 H 0.77428 0.04052 0.48058
 C245 C 0.43060 0.23541 0.00011
 C246 C 0.44410 0.23433 0.02325
 C247 C 0.47122 0.23391 0.02331
 C248 C 0.48554 0.23522 0.00001
 C249 C 0.47112 0.23666 -0.02325
 C250 C 0.44399 0.23641 -0.02310
 C251 C 0.51497 0.23515 -0.00003
 C252 C 0.52928 0.23408 -0.02335
 C253 C 0.55639 0.23450 -0.02331
 C254 C 0.56991 0.23523 -0.00016
 C255 C 0.55653 0.23585 0.02307
 C256 C 0.52940 0.23619 0.02324
 H257 H 0.40957 0.23555 0.00017
 H258 H 0.48046 0.23252 0.04183
 H259 H 0.48028 0.23811 -0.04179
 H260 H 0.52003 0.23286 -0.04188
 H261 H 0.59093 0.23538 -0.00022
 H262 H 0.52024 0.23742 0.04181
 C263 C 0.57032 0.76467 0.00017
 C264 C 0.55685 0.76412 0.02335
 C265 C 0.52973 0.76380 0.02345
 C266 C 0.51537 0.76465 0.00015
 C267 C 0.52977 0.76547 -0.02315
 C268 C 0.55690 0.76517 -0.02303
 C269 C 0.48594 0.76464 0.00016
 C270 C 0.47161 0.76319 -0.02314
 C271 C 0.44450 0.76357 -0.02308
 C272 C 0.43100 0.76466 0.00006
 C273 C 0.44438 0.76568 0.02327
 C274 C 0.47152 0.76603 0.02342
 H275 H 0.59134 0.76462 0.00021
 H276 H 0.52052 0.76275 0.04201
 H277 H 0.52060 0.76638 -0.04173
 H278 H 0.48084 0.76162 -0.04165
 H279 H 0.40998 0.76462 -0.00000
 H280 H 0.48069 0.76744 0.04197
 C281 C -0.00031 0.43174 0.23232
 C282 C 0.02280 0.44520 0.22908
 C283 C 0.02267 0.47219 0.22821
 C284 C -0.00060 0.48623 0.23189
 C285 C -0.02368 0.47203 0.23591
 C286 C -0.02352 0.44505 0.23548
 C287 C -0.00080 0.51528 0.23173
 C288 C -0.02406 0.52928 0.22783
 C289 C -0.02422 0.55628 0.22859
 C290 C -0.00112 0.56977 0.23182
 C291 C 0.02211 0.55648 0.23503
 C292 C 0.02227 0.52951 0.23567
 H293 H -0.00020 0.41081 0.23256
 H294 H 0.04086 0.48180 0.22459
 H295 H -0.04192 0.48153 0.23965
 H296 H -0.04221 0.51962 0.22415
 H297 H -0.00124 0.59069 0.23201
 H298 H 0.04050 0.52005 0.23951
 C299 C -0.00001 0.56967 0.76737
 C300 C 0.02323 0.55618 0.76904
 C301 C 0.02315 0.52916 0.76969
 C302 C -0.00032 0.51502 0.76748
 C303 C -0.02360 0.52940 0.76518
 C304 C -0.02337 0.55639 0.76569
 C305 C -0.00052 0.48578 0.76738
 C306 C -0.02399 0.47161 0.76930
 C307 C -0.02404 0.44459 0.76845
 C308 C -0.00076 0.43114 0.76686
 C309 C 0.02260 0.44445 0.76554
 C310 C 0.02279 0.47144 0.76520
 H311 H 0.00009 0.59060 0.76724
 H312 H 0.04164 0.51980 0.77198
 H313 H -0.04217 0.52023 0.76277
 H314 H -0.04251 0.48095 0.77151
 H315 H -0.00082 0.41021 0.76653
 H316 H 0.04137 0.48063 0.76299
 C317 C 0.36668 0.23717 0.12633
 C318 C 0.36151 0.21474 0.10777
 C319 C 0.37833 0.21377 0.08762
 C320 C 0.39870 0.23532 0.08800
 C321 C 0.41197 0.23303 0.11435
 C322 C 0.39510 0.23399 0.13455
 C323 C 0.36626 0.26143 0.10944
 C324 C 0.38307 0.26046 0.08930
 C325 C 0.34819 0.23840 0.14768
 C326 C 0.33239 0.23975 0.16468
 C327 C 0.41632 0.23444 0.06592
 C328 C 0.42966 0.23414 0.04691
 H329 H 0.34600 0.20082 0.11026
 H330 H 0.37717 0.19908 0.07278
 H331 H 0.43272 0.23084 0.11690
 H332 H 0.40140 0.23257 0.15443
 H333 H 0.35380 0.27793 0.11298
 H334 H 0.38498 0.27612 0.07556
 C335 C 0.63438 0.76188 0.12641
 C336 C 0.62337 0.78884 0.12093
 C337 C 0.60648 0.78944 0.10075
 C338 C 0.60233 0.76302 0.08807
 C339 C 0.59368 0.74516 0.10999
 C340 C 0.61055 0.74456 0.13017
 C341 C 0.64638 0.75307 0.10088
 C342 C 0.62955 0.75366 0.08075
 C343 C 0.65280 0.76098 0.14785
 C344 C 0.66849 0.75979 0.16496
 C345 C 0.58470 0.76352 0.06598
 C346 C 0.57134 0.76379 0.04698
 H347 H 0.62827 0.80591 0.13200
 H348 H 0.59684 0.80700 0.09460
 H349 H 0.57582 0.73412 0.10978
 H350 H 0.60719 0.73295 0.14723
 H351 H 0.66636 0.74687 0.09878
 H352 H 0.63511 0.74793 0.06143
 C353 C 0.63393 0.23808 -0.12634
 C354 C 0.62751 0.21053 -0.11765
 C355 C 0.61059 0.20951 -0.09754
 C356 C 0.60176 0.23616 -0.08812
 C357 C 0.59065 0.24958 -0.11205
 C358 C 0.60760 0.25060 -0.13218
 C359 C 0.64375 0.25177 -0.10207
 C360 C 0.62687 0.25075 -0.08201
 C361 C 0.65257 0.23921 -0.14758
 C362 C 0.66856 0.24027 -0.16443
 C363 C 0.58411 0.23517 -0.06606
 C364 C 0.57080 0.23466 -0.04702
 H365 H 0.63546 0.19333 -0.12657
 H366 H 0.60406 0.19144 -0.08923
 H367 H 0.57121 0.25748 -0.11312
 H368 H 0.60268 0.25940 -0.15050
 H369 H 0.66234 0.26146 -0.10076
 H370 H 0.63103 0.25954 -0.06350
 C371 C 0.36669 0.76091 -0.12594
 C372 C 0.35386 0.76660 -0.09994
 C373 C 0.37080 0.76713 -0.07990
 C374 C 0.39896 0.76190 -0.08776
 C375 C 0.40493 0.78197 -0.10867
 C376 C 0.38793 0.78145 -0.12877
 C377 C 0.38129 0.73541 -0.12198
 C378 C 0.39827 0.73593 -0.10191
 C379 C 0.34807 0.76016 -0.14722
 C380 C 0.33214 0.75921 -0.16414
 C381 C 0.41669 0.76241 -0.06574
 C382 C 0.43005 0.76285 -0.04675
 H383 H 0.33325 0.76999 -0.09748
 H384 H 0.36469 0.77097 -0.06028
 H385 H 0.42108 0.79535 -0.10778
 H386 H 0.38949 0.79441 -0.14511
 H387 H 0.37859 0.71846 -0.13395
 H388 H 0.41013 0.71945 -0.09669
 C389 C 0.12597 0.36739 0.23314
 C390 C 0.11382 0.37430 0.25919
 C391 C 0.09376 0.39125 0.25739
 C392 C 0.08775 0.39968 0.22971
 C393 C 0.08329 0.37447 0.21489
 C394 C 0.10335 0.35751 0.21670
 C395 C 0.13352 0.39340 0.22107
 C396 C 0.11339 0.41039 0.21926
 C397 C 0.14731 0.34877 0.23530
 C398 C 0.16431 0.33295 0.23749
 C399 C 0.06571 0.41745 0.22820
 C400 C 0.04663 0.43085 0.22798
 H401 H 0.12034 0.36650 0.27747
 H402 H 0.08313 0.39798 0.27413
 H403 H 0.06590 0.37032 0.20389
 H404 H 0.10311 0.33880 0.20733
 H405 H 0.15292 0.39802 0.21450
 H406 H 0.11551 0.42954 0.21108
 C407 C 0.12658 0.63387 0.76424
 C408 C 0.12611 0.61402 0.74231
 C409 C 0.10598 0.59708 0.74385
 C410 C 0.08830 0.60164 0.76717
 C411 C 0.07980 0.62993 0.76499
 C412 C 0.09988 0.64683 0.76345
 C413 C 0.12656 0.61776 0.78905
 C414 C 0.10641 0.60080 0.79060
 C415 C 0.14791 0.65248 0.76244
 C416 C 0.16486 0.66838 0.76072
 C417 C 0.06620 0.58391 0.76862
 C418 C 0.04711 0.57054 0.76921
 H419 H 0.14043 0.61324 0.72704
 H420 H 0.10306 0.58177 0.72990
 H421 H 0.05972 0.63615 0.76466
 H422 H 0.09700 0.66751 0.76181
 H423 H 0.14117 0.61940 0.80398
 H424 H 0.10376 0.58791 0.80684
 C425 C -0.12694 0.63462 0.23289
 C426 C -0.12681 0.61423 0.25429
 C427 C -0.10690 0.59707 0.25242
 C428 C -0.08907 0.60197 0.22930
 C429 C -0.08023 0.63007 0.23223
 C430 C -0.10009 0.64721 0.23409
 C431 C -0.12702 0.61915 0.20766
 C432 C -0.10708 0.60194 0.20578
 C433 C -0.14813 0.65336 0.23530
 C434 C -0.16511 0.66915 0.23771
 C435 C -0.06713 0.58405 0.22771
 C436 C -0.04808 0.57061 0.22747
 H437 H -0.14119 0.61329 0.26951
 H438 H -0.10422 0.58143 0.26606
 H439 H -0.06006 0.63597 0.23291
 H440 H -0.09693 0.66779 0.23626
 H441 H -0.14153 0.62139 0.19270
 H442 H -0.10455 0.58939 0.18925
 C443 C -0.12693 0.36639 0.76274
 C444 C -0.12390 0.38344 0.73878
 C445 C -0.10389 0.40052 0.74044
 C446 C -0.08890 0.39888 0.76592
 C447 C -0.08048 0.37058 0.76807
 C448 C -0.10043 0.35354 0.76641
 C449 C -0.12947 0.38537 0.78531
 C450 C -0.10944 0.40246 0.78698
 C451 C -0.14806 0.34756 0.76088
 C452 C -0.16483 0.33145 0.75925
 C453 C -0.06692 0.41675 0.76754
 C454 C -0.04788 0.43019 0.76833
 H455 H -0.13645 0.38231 0.72205
 H456 H -0.09927 0.41397 0.72511
 H457 H -0.06055 0.36444 0.77073
 H458 H -0.09758 0.33283 0.76764
 H459 H -0.14560 0.38544 0.79870
 H460 H -0.10838 0.41714 0.80184
 C461 C 0.24033 0.12717 0.36802
 C462 C 0.22808 0.13351 0.39420
 C463 C 0.22791 0.11318 0.41089
 C464 C 0.24000 0.08853 0.39972
 C465 C 0.26727 0.09649 0.39108
 C466 C 0.26744 0.11680 0.37442
 C467 C 0.22524 0.10373 0.35806
 C468 C 0.22507 0.08345 0.37469
 C469 C 0.24056 0.14871 0.34967
 C470 C 0.24107 0.16571 0.33383
 C471 C 0.23967 0.06627 0.41720
 C472 C 0.23887 0.04718 0.43044
 H473 H 0.22041 0.15234 0.39925
 H474 H 0.22008 0.11459 0.43022
 H475 H 0.28490 0.08713 0.39761
 H476 H 0.28523 0.12482 0.36669
 H477 H 0.21552 0.10310 0.33953
 H478 H 0.21519 0.06548 0.37038
 C479 C 0.75844 0.12696 0.63144
 C480 C 0.76593 0.13440 0.60382
 C481 C 0.76623 0.11400 0.58721
 C482 C 0.75904 0.08824 0.59992
 C483 C 0.73252 0.09289 0.61241
 C484 C 0.73220 0.11325 0.62898
 C485 C 0.77764 0.10572 0.63907
 C486 C 0.77795 0.08539 0.62253
 C487 C 0.75809 0.14850 0.64974
 C488 C 0.75758 0.16548 0.66556
 C489 C 0.75969 0.06594 0.58258
 C490 C 0.76095 0.04681 0.56948
 H491 H 0.77074 0.15388 0.59787
 H492 H 0.77126 0.11601 0.56703
 H493 H 0.71550 0.08117 0.60865
 H494 H 0.71492 0.11898 0.63942
 H495 H 0.79000 0.10662 0.65596
 H496 H 0.79053 0.06884 0.62529
 C497 C 0.24079 -0.12733 0.63215
 C498 C 0.25176 -0.13375 0.60543
 C499 C 0.25136 -0.11340 0.58876
 C500 C 0.24002 -0.08867 0.60050
 C501 C 0.25615 -0.08374 0.62481
 C502 C 0.25656 -0.10403 0.64142
 C503 C 0.21352 -0.11673 0.62705
 C504 C 0.21311 -0.09642 0.61042
 C505 C 0.24128 -0.14887 0.65048
 C506 C 0.24195 -0.16589 0.66628
 C507 C 0.23947 -0.06642 0.58305
 C508 C 0.23854 -0.04731 0.56983
 H509 H 0.25919 -0.15259 0.60007
 H510 H 0.25842 -0.11480 0.56914
 H511 H 0.26642 -0.06588 0.62862
 H512 H 0.26720 -0.10355 0.65943
 H513 H 0.19605 -0.12455 0.63568
 H514 H 0.19528 -0.08683 0.60483
 C515 C 0.75766 -0.12729 0.36796
 C516 C 0.77560 -0.13134 0.39118
 C517 C 0.77572 -0.11110 0.40795
 C518 C 0.75789 -0.08883 0.39983
 C519 C 0.73107 -0.10111 0.39636
 C520 C 0.73095 -0.12135 0.37960
 C521 C 0.76658 -0.10184 0.35583
 C522 C 0.76669 -0.08166 0.37255
 C523 C 0.75752 -0.14874 0.34953
 C524 C 0.75715 -0.16569 0.33366
 C525 C 0.75838 -0.06667 0.41735
 C526 C 0.75963 -0.04760 0.43055
 H527 H 0.78719 -0.14856 0.39417
 H528 H 0.78740 -0.11098 0.42532
 H529 H 0.71374 -0.09456 0.40623
 H530 H 0.71351 -0.13215 0.37512
 H531 H 0.77241 -0.09985 0.33586
 H532 H 0.77258 -0.06237 0.36687
 C533 C 0.63421 0.76294 -0.12641
 C534 C 0.62679 0.73608 -0.11638
 C535 C 0.61007 0.73666 -0.09611
 C536 C 0.60237 0.76403 -0.08786
 C537 C 0.59157 0.77675 -0.11230
 C538 C 0.60834 0.77618 -0.13259
 C539 C 0.64482 0.77732 -0.10287
 C540 C 0.62811 0.77788 -0.08262
 C541 C 0.65255 0.76216 -0.14796
 C542 C 0.66826 0.76112 -0.16509
 C543 C 0.58480 0.76466 -0.06569
 C544 C 0.57144 0.76503 -0.04668
 H545 H 0.63399 0.71818 -0.12453
 H546 H 0.60297 0.71926 -0.08687
 H547 H 0.57242 0.78531 -0.11359
 H548 H 0.60360 0.78434 -0.15125
 H549 H 0.66379 0.78632 -0.10216
 H550 H 0.63283 0.78724 -0.06453
 C551 C 0.36650 0.23809 -0.12636
 C552 C 0.35354 0.24346 -0.10033
 C553 C 0.37030 0.24319 -0.08013
 C554 C 0.39843 0.23759 -0.08786
 C555 C 0.40499 0.25798 -0.10826
 C556 C 0.38818 0.25825 -0.12851
 C557 C 0.38052 0.21221 -0.12286
 C558 C 0.39733 0.21195 -0.10261
 C559 C 0.34807 0.23851 -0.14785
 C560 C 0.33227 0.23925 -0.16492
 C561 C 0.41604 0.23733 -0.06572
 C562 C 0.42943 0.23703 -0.04671
 H563 H 0.33298 0.24718 -0.09797
 H564 H 0.36408 0.24667 -0.06048
 H565 H 0.42141 0.27098 -0.10695
 H566 H 0.39020 0.27151 -0.14455
 H567 H 0.37759 0.19561 -0.13524
 H568 H 0.40880 0.19512 -0.09766
 C569 C 0.36630 0.76291 0.12611
 C570 C 0.36224 0.74134 0.10631
 C571 C 0.37915 0.74224 0.08624
 C572 C 0.39851 0.76464 0.08785
 C573 C 0.41177 0.76149 0.11411
 C574 C 0.39482 0.76057 0.13424
 C575 C 0.36481 0.78805 0.11058
 C576 C 0.38175 0.78896 0.09048
 C577 C 0.34781 0.76174 0.14755
 C578 C 0.33214 0.76044 0.16472
 C579 C 0.41627 0.76548 0.06582
 C580 C 0.42976 0.76581 0.04688
 H581 H 0.34748 0.72652 0.10801
 H582 H 0.37888 0.72816 0.07078
 H583 H 0.43259 0.76009 0.11665
 H584 H 0.40113 0.75838 0.15405
 H585 H 0.35173 0.80382 0.11505
 H586 H 0.38321 0.80553 0.07779
 C587 C 0.63388 0.23730 0.12645
 C588 C 0.62222 0.26378 0.12007
 C589 C 0.60552 0.26338 0.09979
 C590 C 0.60206 0.23652 0.08788
 C591 C 0.59372 0.21909 0.11029
 C592 C 0.61048 0.21950 0.13061
 C593 C 0.64626 0.22801 0.10127
 C594 C 0.62956 0.22762 0.08101
 C595 C 0.65225 0.23804 0.14798
 C596 C 0.66798 0.23915 0.16509
 C597 C 0.58448 0.23623 0.06570
 C598 C 0.57110 0.23610 0.04669
 H599 H 0.62670 0.28132 0.13057
 H600 H 0.59573 0.28057 0.09288
 H601 H 0.57627 0.20741 0.11019
 H602 H 0.60739 0.20818 0.14791
 H603 H 0.66638 0.22216 0.09952
 H604 H 0.63540 0.22148 0.06190
 C605 C -0.12664 0.63414 0.76252
 C606 C -0.12773 0.61517 0.78519
 C607 C -0.10750 0.59824 0.78571
 C608 C -0.08822 0.60202 0.76353
 C609 C -0.07994 0.63040 0.76525
 C610 C -0.10012 0.64726 0.76471
 C611 C -0.12478 0.61713 0.73840
 C612 C -0.10457 0.60022 0.73894
 C613 C -0.14810 0.65261 0.76169
 C614 C -0.16514 0.66843 0.76043
 C615 C -0.06610 0.58434 0.76406
 C616 C -0.04706 0.57093 0.76463
 H617 H -0.14302 0.61501 0.79952
 H618 H -0.10548 0.58354 0.80045
 H619 H -0.05994 0.63670 0.76677
 H620 H -0.09741 0.66800 0.76573
 H621 H -0.13816 0.61827 0.72233
 H622 H -0.10070 0.58679 0.72339
 C623 C -0.12683 0.36755 0.24064
 C624 C -0.12508 0.38321 0.21565
 C625 C -0.10480 0.40002 0.21515
 C626 C -0.08828 0.39951 0.23971
 C627 C -0.08008 0.37123 0.24286
 C628 C -0.10032 0.35446 0.24338
 C629 C -0.12767 0.38773 0.26228
 C630 C -0.10738 0.40457 0.26177
 C631 C -0.14837 0.34914 0.24112
 C632 C -0.16543 0.33329 0.24178
 C633 C -0.06613 0.41714 0.23897
 C634 C -0.04713 0.43055 0.23777
 H635 H -0.13856 0.38126 0.19974
 H636 H -0.10090 0.41248 0.19882
 H637 H -0.06008 0.36492 0.24449
 H638 H -0.09768 0.33379 0.24553
 H639 H -0.14284 0.38871 0.27670
 H640 H -0.10520 0.42001 0.27570
 C641 C 0.12594 0.36672 0.76253
 C642 C 0.11559 0.37191 0.78973
 C643 C 0.09539 0.38883 0.79031
 C644 C 0.08754 0.39889 0.76362
 C645 C 0.08216 0.37462 0.74761
 C646 C 0.10232 0.35774 0.74703
 C647 C 0.13263 0.39345 0.75164
 C648 C 0.11240 0.41039 0.75221
 C649 C 0.14736 0.34818 0.76168
 C650 C 0.16437 0.33230 0.76047
 C651 C 0.06541 0.41657 0.76415
 C652 C 0.04634 0.42995 0.76464
 H653 H 0.12350 0.36317 0.80701
 H654 H 0.08600 0.39461 0.80809
 H655 H 0.06408 0.37103 0.73755
 H656 H 0.10150 0.33967 0.73649
 H657 H 0.15158 0.39863 0.74423
 H658 H 0.11401 0.43008 0.74531
 C659 C 0.12565 0.63367 0.23972
 C660 C 0.12634 0.61495 0.21685
 C661 C 0.10604 0.59814 0.21643
 C662 C 0.08707 0.60176 0.23891
 C663 C 0.07889 0.63018 0.23765
 C664 C 0.09914 0.64694 0.23805
 C665 C 0.12406 0.61639 0.26368
 C666 C 0.10375 0.59960 0.26325
 C667 C 0.14720 0.65204 0.24036
 C668 C 0.16435 0.66776 0.24130
 C669 C 0.06485 0.58423 0.23826
 C670 C 0.04576 0.57094 0.23717
 H671 H 0.14151 0.61479 0.20238
 H672 H 0.10386 0.58351 0.20165
 H673 H 0.05888 0.63659 0.23669
 H674 H 0.09649 0.66771 0.23732
 H675 H 0.13775 0.61721 0.27952
 H676 H 0.10000 0.58605 0.27873
 C677 C 0.76728 -0.12609 0.63274
 C678 C 0.77927 -0.13337 0.60666
 C679 C 0.78108 -0.11314 0.58993
 C680 C 0.77071 -0.08769 0.60099
 C681 C 0.78577 -0.08359 0.62612
 C682 C 0.78396 -0.10376 0.64281
 C683 C 0.74107 -0.11384 0.62610
 C684 C 0.74288 -0.09369 0.60943
 C685 C 0.76504 -0.14753 0.65104
 C686 C 0.76280 -0.16462 0.66661
 C687 C 0.77207 -0.06557 0.58348
 C688 C 0.77194 -0.04656 0.57015
 H689 H 0.78557 -0.15272 0.60170
 H690 H 0.78895 -0.11514 0.57067
 H691 H 0.79690 -0.06636 0.63044
 H692 H 0.79349 -0.10378 0.66143
 H693 H 0.72267 -0.12051 0.63370
 H694 H 0.72602 -0.08312 0.60273
 C695 C 0.23474 -0.12573 0.36719
 C696 C 0.25183 -0.12905 0.39114
 C697 C 0.25024 -0.10893 0.40797
 C698 C 0.23170 -0.08752 0.39917
 C699 C 0.20570 -0.10108 0.39451
 C700 C 0.20729 -0.12121 0.37766
 C701 C 0.24287 -0.09980 0.35553
 C702 C 0.24128 -0.07975 0.37232
 C703 C 0.23675 -0.14700 0.34873
 C704 C 0.23874 -0.16393 0.33299
 C705 C 0.23031 -0.06545 0.41675
 C706 C 0.23003 -0.04642 0.43005
 H707 H 0.26394 -0.14581 0.39467
 H708 H 0.26101 -0.10844 0.42591
 H709 H 0.18766 -0.09540 0.40362
 H710 H 0.19061 -0.13278 0.37234
 H711 H 0.24913 -0.09737 0.33573
 H712 H 0.24623 -0.06014 0.36689
 C713 C 0.76689 0.12491 0.36692
 C714 C 0.75554 0.13092 0.39357
 C715 C 0.75720 0.11082 0.41042
 C716 C 0.77004 0.08672 0.39893
 C717 C 0.79646 0.09595 0.38899
 C718 C 0.79480 0.11605 0.37214
 C719 C 0.75260 0.10064 0.35788
 C720 C 0.75425 0.08060 0.37467
 C721 C 0.76479 0.14622 0.34846
 C722 C 0.76266 0.16321 0.33278
 C723 C 0.77125 0.06468 0.41651
 C724 C 0.77103 0.04568 0.42983
 H725 H 0.74694 0.14931 0.39874
 H726 H 0.75007 0.11199 0.43004
 H727 H 0.81483 0.08759 0.39483
 H728 H 0.81176 0.12488 0.36348
 H729 H 0.74194 0.09934 0.33992
 H730 H 0.74499 0.06215 0.37109
 C731 C 0.23395 0.12592 0.63285
 C732 C 0.24052 0.13307 0.60492
 C733 C 0.23889 0.11280 0.58826
 C734 C 0.23085 0.08741 0.60120
 C735 C 0.20524 0.09350 0.61493
 C736 C 0.20687 0.11376 0.63157
 C737 C 0.25223 0.10358 0.63950
 C738 C 0.25061 0.08337 0.62290
 C739 C 0.23603 0.14738 0.65110
 C740 C 0.23817 0.16446 0.66668
 C741 C 0.22947 0.06525 0.58372
 C742 C 0.22928 0.04623 0.57039
 H743 H 0.24589 0.15235 0.59878
 H744 H 0.24292 0.11469 0.56785
 H745 H 0.18739 0.08289 0.61178
 H746 H 0.19040 0.12054 0.64267
 H747 H 0.26536 0.10365 0.65583
 H748 H 0.26237 0.06613 0.62502
   
