data_POSCAR
  _audit_creation_date              2014-09-24
  _audit_creation_method            'ToBaCCo'
  _symmetry_space_group_name_H-M    'P1'
  _symmetry_Int_Tables_number       1
  _symmetry_cell_setting            triclinic
  loop_
  _symmetry_equiv_pos_as_xyz
 x,y,z
_cell_length_a 54.6117
_cell_length_b 29.3459
_cell_length_c 21.9041
_cell_angle_alpha 89.939400
_cell_angle_beta 89.966800
_cell_angle_gamma 90.039900
loop_
  _atom_site_label
  _atom_site_type_symbol
  _atom_site_fract_x
  _atom_site_fract_y
  _atom_site_fract_z
O1 O 0.73697 0.30054 0.55704
 O2 O 0.78000 0.26116 0.43882
 O3 O 0.73707 0.30024 0.43825
 O4 O 0.77989 0.26147 0.55722
 O5 O 0.76211 0.19382 0.55755
 O6 O 0.71928 0.23260 0.43857
 O7 O 0.76223 0.19354 0.43914
 O8 O 0.71918 0.23290 0.55737
 Cu9 Cu 0.76024 0.28767 0.49779
 Cu10 Cu 0.73888 0.20646 0.49818
 C11 C 0.72069 0.27348 0.57711
 C12 C 0.77864 0.22047 0.41931
 C13 C 0.72080 0.27309 0.41841
 C14 C 0.77844 0.22092 0.57717
 O15 O 0.26217 0.69331 0.55984
 O16 O 0.21901 0.73253 0.44179
 O17 O 0.26192 0.69344 0.44145
 O18 O 0.21920 0.73232 0.56061
 O19 O 0.23697 0.79996 0.56047
 O20 O 0.27971 0.76110 0.44133
 O21 O 0.23680 0.80017 0.44166
 O22 O 0.27993 0.76095 0.55970
 Cu23 Cu 0.23875 0.70614 0.50096
 Cu24 Cu 0.26010 0.78737 0.50079
 C25 C 0.27860 0.72028 0.57939
 C26 C 0.22050 0.77309 0.42182
 C27 C 0.27824 0.72052 0.42158
 C28 C 0.22073 0.77283 0.58057
 O29 O 0.27875 0.23813 -0.44135
 O30 O 0.23582 0.19927 -0.55998
 O31 O 0.27881 0.23828 -0.55970
 O32 O 0.23578 0.19914 -0.44117
 O33 O 0.21807 0.26676 -0.44114
 O34 O 0.26110 0.30595 -0.55968
 O35 O 0.21811 0.26690 -0.55996
 O36 O 0.26104 0.30580 -0.44132
 Cu37 Cu 0.25903 0.21188 -0.50056
 Cu38 Cu 0.23776 0.29310 -0.50053
 C39 C 0.27736 0.27873 -0.42165
 C40 C 0.21955 0.22637 -0.57998
 C41 C 0.27745 0.27893 -0.57934
 C42 C 0.21950 0.22620 -0.42113
 O43 O -0.23845 0.80587 -0.55832
 O44 O -0.28151 0.76680 -0.43987
 O45 O -0.23854 0.80590 -0.43993
 O46 O -0.28136 0.76663 -0.55868
 O47 O -0.26357 0.69904 -0.55839
 O48 O -0.22078 0.73828 -0.43964
 O49 O -0.26375 0.69922 -0.43959
 O50 O -0.22066 0.73827 -0.55803
 Cu51 Cu -0.26179 0.79305 -0.49922
 Cu52 Cu -0.24044 0.71189 -0.49887
 C53 C -0.22207 0.77887 -0.57785
 C54 C -0.28007 0.72627 -0.41976
 C55 C -0.22220 0.77891 -0.42009
 C56 C -0.27982 0.72609 -0.57854
 O57 O -0.03357 0.92180 0.11330
 O58 O -0.06061 0.96243 0.05446
 C59 C -0.05557 0.93364 0.09757
 O60 O 0.03476 1.08345 0.10738
 O61 O 0.06184 1.04020 0.05202
 C62 C 0.05678 1.07139 0.09197
 O63 O -0.03402 1.07880 0.11224
 O64 O -0.06108 1.03805 0.05334
 C65 C -0.05605 1.06690 0.09635
 O66 O 0.03479 0.91722 0.10683
 O67 O 0.06186 0.96105 0.05204
 C68 C 0.05681 0.92956 0.09170
 Zr69 Zr 0.00059 0.94275 0.07691
 O70 O 0.00297 0.93920 0.17321
 O71 O -0.00063 0.87103 0.06892
 Zr72 Zr 0.00051 1.05802 0.07737
 O73 O 0.00315 1.05873 0.17380
 O74 O -0.00229 1.12998 0.07597
 O75 O -0.02123 1.00034 0.08932
 O76 O 0.02178 1.00040 0.08848
 O77 O 0.03477 0.91722 -0.10588
 O78 O 0.06184 0.96101 -0.05114
 C79 C 0.05679 0.92952 -0.09070
 O80 O -0.03353 1.07942 -0.11226
 O81 O -0.06060 1.03871 -0.05341
 C82 C -0.05554 1.06754 -0.09648
 O83 O 0.03489 1.08359 -0.10651
 O84 O 0.06192 1.04018 -0.05124
 C85 C 0.05690 1.07144 -0.09118
 O86 O -0.03363 0.92150 -0.11201
 O87 O -0.06061 0.96241 -0.05340
 C88 C -0.05562 0.93349 -0.09631
 Zr89 Zr 0.00053 0.94302 -0.07653
 O90 O 0.00329 0.94262 -0.17295
 O91 O -0.00188 0.87103 -0.07465
 Zr92 Zr 0.00061 1.05828 -0.07634
 O93 O 0.00336 1.05983 -0.17271
 O94 O -0.00217 1.13024 -0.07363
 Zr95 Zr -0.03607 1.00056 0.00045
 Zr96 Zr 0.03719 1.00065 0.00040
 O97 O 0.02182 1.00065 -0.08772
 O98 O -0.02124 1.00068 -0.08849
 O99 O 0.02257 0.93418 0.00022
 O100 O -0.02086 1.06646 0.00050
 O101 O -0.02097 0.93464 0.00032
 O102 O 0.02255 1.06713 0.00055
 H103 H 0.03264 1.00028 0.12469
 H104 H -0.03203 1.09304 0.00049
 H105 H 0.03275 1.00063 -0.12384
 H106 H -0.03216 0.90804 0.00040
 H107 H 0.01192 1.14187 0.05289
 H108 H 0.01244 1.14201 -0.05208
 H109 H -0.00928 1.03901 -0.18903
 H110 H -0.01004 0.96195 -0.18911
 H111 H 0.01070 0.85992 -0.04576
 H112 H -0.00068 0.85899 0.11121
 H113 H -0.00813 0.96275 0.18976
 H114 H -0.01031 1.03970 0.19003
 O115 O 0.46625 0.42179 0.11209
 O116 O 0.43913 0.46171 0.05254
 C117 C 0.44422 0.43332 0.09610
 O118 O 0.53472 0.58214 0.10581
 O119 O 0.56174 0.53898 0.05010
 C120 C 0.55673 0.57004 0.09029
 O121 O 0.46617 0.57843 0.11119
 O122 O 0.43910 0.53775 0.05246
 C123 C 0.44416 0.56653 0.09549
 O124 O 0.53467 0.41695 0.10499
 O125 O 0.56172 0.46049 0.04963
 C126 C 0.55669 0.42917 0.08956
 Zr127 Zr 0.50034 0.44167 0.07442
 O128 O 0.50139 0.43415 0.17037
 O129 O 0.49929 0.37018 0.06332
 Zr130 Zr 0.50038 0.55713 0.07568
 O131 O 0.50279 0.55759 0.17215
 O132 O 0.49772 0.62912 0.07405
 O133 O 0.47865 0.49936 0.08727
 O134 O 0.52154 0.49937 0.08654
 O135 O 0.53471 0.41729 -0.10841
 O136 O 0.56174 0.46093 -0.05329
 C137 C 0.55673 0.42963 -0.09317
 O138 O 0.46618 0.57903 -0.11378
 O139 O 0.43911 0.53810 -0.05516
 C140 C 0.44416 0.56707 -0.09809
 O141 O 0.53463 0.58329 -0.10801
 O142 O 0.56160 0.53967 -0.05289
 C143 C 0.55662 0.57108 -0.09265
 O144 O 0.46614 0.42133 -0.11446
 O145 O 0.43909 0.46194 -0.05555
 C146 C 0.44413 0.43320 -0.09866
 Zr147 Zr 0.50034 0.44252 -0.07876
 O148 O 0.50306 0.44187 -0.17516
 O149 O 0.49789 0.37052 -0.07698
 Zr150 Zr 0.50036 0.55785 -0.07800
 O151 O 0.50310 0.55969 -0.17436
 O152 O 0.49754 0.62980 -0.07486
 Zr153 Zr 0.46365 0.49983 -0.00152
 Zr154 Zr 0.53688 0.49991 -0.00155
 O155 O 0.52156 0.50025 -0.08970
 O156 O 0.47855 0.50022 -0.09043
 O157 O 0.52238 0.43334 -0.00215
 O158 O 0.47891 0.56571 -0.00109
 O159 O 0.47873 0.43387 -0.00205
 O160 O 0.52235 0.56645 -0.00111
 H161 H 0.53247 0.49926 0.12261
 H162 H 0.46775 0.59233 -0.00098
 H163 H 0.53248 0.50039 -0.12583
 H164 H 0.46747 0.40737 -0.00198
 H165 H 0.51218 0.64096 0.05190
 H166 H 0.51213 0.64151 -0.05317
 H167 H 0.49044 0.53897 -0.19079
 H168 H 0.49004 0.46194 -0.19128
 H169 H 0.51123 0.35918 -0.05043
 H170 H 0.49895 0.35720 0.10507
 H171 H 0.50306 0.46506 0.18761
 H172 H 0.48946 0.53803 0.18804
 N173 N 0.31209 0.35472 0.31813
 C174 C 0.33031 0.32695 0.29866
 N175 N 0.33081 0.28308 0.31810
 N176 N 0.31367 0.26751 0.35609
 C177 C 0.29546 0.29530 0.37594
 N178 N 0.29494 0.33916 0.35613
 C179 C 0.34952 0.34438 0.26049
 C180 C 0.36598 0.35928 0.22964
 C181 C 0.38589 0.37728 0.19427
 N182 N 0.40929 0.36570 0.20786
 N183 N 0.42787 0.38330 0.17624
 C184 C 0.42369 0.41313 0.12997
 N185 N 0.40022 0.42461 0.11638
 N186 N 0.38162 0.40699 0.14804
 N187 N -0.18764 0.85449 0.31903
 C188 C -0.16940 0.82674 0.29962
 N189 N -0.16880 0.78294 0.31933
 N190 N -0.18589 0.76741 0.35752
 C191 C -0.20412 0.79518 0.37730
 N192 N -0.20473 0.83896 0.35722
 C193 C -0.15024 0.84415 0.26130
 C194 C -0.13382 0.85907 0.23040
 C195 C -0.11392 0.87712 0.19506
 N196 N -0.09054 0.86524 0.20832
 N197 N -0.07195 0.88297 0.17686
 C198 C -0.07612 0.91324 0.13110
 N199 N -0.09957 0.92501 0.11783
 N200 N -0.11817 0.90726 0.14932
 N201 N 0.66816 0.72271 0.31472
 C202 C 0.66906 0.67911 0.29441
 N203 N 0.68703 0.65120 0.31502
 N204 N 0.70356 0.66639 0.35485
 C205 C 0.70265 0.70998 0.37548
 N206 N 0.68469 0.73791 0.35455
 C207 C 0.65044 0.66200 0.25430
 C208 C 0.63438 0.64726 0.22213
 C209 C 0.61476 0.62928 0.18580
 N210 N 0.61917 0.59747 0.14229
 N211 N 0.60072 0.57916 0.11091
 C212 C 0.57725 0.59203 0.12207
 N213 N 0.57293 0.62405 0.16546
 N214 N 0.59137 0.64236 0.19679
 N215 N 0.18714 1.15267 0.31574
 C216 C 0.16920 1.18072 0.29530
 N217 N 0.16837 1.22427 0.31575
 N218 N 0.18494 1.23931 0.35559
 C219 C 0.20286 1.21124 0.37651
 N220 N 0.20370 1.16769 0.35558
 C221 C 0.15052 1.16376 0.25527
 C222 C 0.13442 1.14908 0.22318
 C223 C 0.11480 1.13108 0.18695
 N224 N 0.09141 1.14409 0.19802
 N225 N 0.07296 1.12566 0.16685
 C226 C 0.07728 1.09357 0.12355
 N227 N 0.10075 1.08077 0.11231
 N228 N 0.11921 1.09921 0.14352
 N229 N 0.68728 0.34845 -0.31706
 C230 C 0.66928 0.32050 -0.29654
 N231 N 0.66844 0.27687 -0.31671
 N232 N 0.68506 0.26166 -0.35631
 C233 C 0.70305 0.28961 -0.37715
 N234 N 0.70391 0.33325 -0.35665
 C235 C 0.65057 0.33761 -0.25664
 C236 C 0.63446 0.35234 -0.22461
 C237 C 0.61481 0.37033 -0.18839
 N238 N 0.59144 0.35709 -0.19925
 N239 N 0.57298 0.37540 -0.16802
 C240 C 0.57726 0.40762 -0.12486
 N241 N 0.60072 0.42066 -0.11382
 N242 N 0.61919 0.40233 -0.14511
 N243 N 0.18741 0.84750 -0.31312
 C244 C 0.16941 0.81951 -0.29270
 N245 N 0.16857 0.77591 -0.31303
 N246 N 0.18518 0.76079 -0.35270
 C247 C 0.20317 0.78880 -0.37346
 N248 N 0.20403 0.83239 -0.35280
 C249 C 0.15068 0.83657 -0.25288
 C250 C 0.13455 0.85134 -0.22097
 C251 C 0.11489 0.86946 -0.18495
 N252 N 0.09151 0.85628 -0.19589
 N253 N 0.07304 0.87482 -0.16495
 C254 C 0.07731 0.90722 -0.12203
 N255 N 0.10077 0.92019 -0.11091
 N256 N 0.11926 0.90163 -0.14190
 N257 N 0.33091 0.71721 -0.31998
 C258 C 0.33036 0.67341 -0.30033
 N259 N 0.31215 0.64557 -0.31980
 N260 N 0.29509 0.66100 -0.35805
 C261 C 0.29568 0.70480 -0.37825
 N262 N 0.31386 0.73266 -0.35822
 C263 C 0.34950 0.65609 -0.26194
 C264 C 0.36592 0.64129 -0.23097
 C265 C 0.38581 0.62339 -0.19555
 N266 N 0.38156 0.59317 -0.14987
 N267 N 0.40016 0.57553 -0.11835
 C268 C 0.42361 0.58748 -0.13152
 N269 N 0.42778 0.61783 -0.17722
 N270 N 0.40919 0.63546 -0.20870
 N271 N -0.18734 1.14567 -0.31898
 C272 C -0.16917 1.17355 -0.29943
 N273 N -0.16856 1.21731 -0.31930
 N274 N -0.18555 1.23267 -0.35778
 C275 C -0.20370 1.20477 -0.37771
 N276 N -0.20434 1.16102 -0.35747
 C277 C -0.15009 1.15632 -0.26082
 C278 C -0.13371 1.14157 -0.22970
 C279 C -0.11385 1.12373 -0.19416
 N280 N -0.09046 1.13574 -0.20736
 N281 N -0.07189 1.11814 -0.17579
 C282 C -0.07608 1.08790 -0.12999
 N283 N -0.09954 1.07602 -0.11677
 N284 N -0.11812 1.09363 -0.14837
 N285 N 0.68737 0.65248 -0.31556
 C286 C 0.66939 0.68049 -0.29532
 N287 N 0.66858 0.72405 -0.31587
 N288 N 0.68520 0.73912 -0.35562
 C289 C 0.70318 0.71109 -0.37633
 N290 N 0.70400 0.66753 -0.35530
 C291 C 0.65064 0.66349 -0.25541
 C292 C 0.63449 0.64881 -0.22341
 C293 C 0.61481 0.63080 -0.18728
 N294 N 0.59145 0.64400 -0.19832
 N295 N 0.57295 0.62557 -0.16725
 C296 C 0.57717 0.59328 -0.12409
 N297 N 0.60062 0.58029 -0.11287
 N298 N 0.61913 0.59873 -0.14398
 N299 N 0.16837 1.22398 -0.31653
 C300 C 0.16921 1.18041 -0.29601
 N301 N 0.18713 1.15238 -0.31655
 N302 N 0.20367 1.16743 -0.35655
 C303 C 0.20281 1.21100 -0.37754
 N304 N 0.18490 1.23904 -0.35653
 C305 C 0.15058 1.16343 -0.25572
 C306 C 0.13452 1.14878 -0.22338
 C307 C 0.11491 1.13086 -0.18687
 N308 N 0.11933 1.09891 -0.14347
 N309 N 0.10088 1.08057 -0.11199
 C310 C 0.07741 1.09355 -0.12295
 N311 N 0.07310 1.12573 -0.16622
 N312 N 0.09153 1.14406 -0.19764
 N313 N 0.31188 0.35426 -0.31893
 C314 C 0.33009 0.32644 -0.29946
 N315 N 0.33061 0.28262 -0.31893
 N316 N 0.31350 0.26713 -0.35698
 C317 C 0.29531 0.29497 -0.37684
 N318 N 0.29477 0.33878 -0.35697
 C319 C 0.34930 0.34382 -0.26137
 C320 C 0.36577 0.35871 -0.23067
 C321 C 0.38570 0.37674 -0.19557
 N322 N 0.40907 0.36489 -0.20906
 N323 N 0.42769 0.38262 -0.17780
 C324 C 0.42357 0.41282 -0.13202
 N325 N 0.40012 0.42456 -0.11853
 N326 N 0.38149 0.40683 -0.14982
 N327 N -0.16907 0.78300 -0.31697
 C328 C -0.16961 0.82685 -0.29760
 N329 N -0.18779 0.85464 -0.31732
 N330 N -0.20486 0.83911 -0.35547
 C331 C -0.20429 0.79526 -0.37521
 N332 N -0.18613 0.76745 -0.35512
 C333 C -0.15045 0.84427 -0.25936
 C334 C -0.13401 0.85914 -0.22853
 C335 C -0.11408 0.87711 -0.19330
 N336 N -0.11827 0.90734 -0.14771
 N337 N -0.09965 0.92501 -0.11635
 C338 C -0.07621 0.91308 -0.12961
 N339 N -0.07209 0.88272 -0.17522
 N340 N -0.09072 0.86506 -0.20654
 N341 N 0.33118 0.71674 0.31772
 C342 C 0.33054 0.67296 0.29809
 N343 N 0.31237 0.64512 0.31789
 N344 N 0.29540 0.66054 0.35639
 C345 C 0.29605 0.70431 0.37640
 N346 N 0.31421 0.73218 0.35622
 C347 C 0.34961 0.65564 0.25952
 C348 C 0.36599 0.64082 0.22845
 C349 C 0.38585 0.62289 0.19299
 N350 N 0.38158 0.59277 0.14732
 N351 N 0.40016 0.57509 0.11579
 C352 C 0.42362 0.58692 0.12896
 N353 N 0.42782 0.61717 0.17465
 N354 N 0.40924 0.63484 0.20615
 N355 N -0.18799 1.14564 0.31842
 C356 C -0.16980 1.17344 0.29861
 N357 N -0.16919 1.21726 0.31807
 N358 N -0.18618 1.23277 0.35646
 C359 C -0.20435 1.20494 0.37682
 N360 N -0.20499 1.16113 0.35681
 C361 C -0.15070 1.15605 0.26012
 C362 C -0.13431 1.14120 0.22911
 C363 C -0.11442 1.12326 0.19370
 N364 N -0.09104 1.13522 0.20690
 N365 N -0.07245 1.11756 0.17545
 C366 C -0.07661 1.08731 0.12974
 N367 N -0.10007 1.07546 0.11653
 N368 N -0.11867 1.09313 0.14802
 N369 N 0.68741 0.34771 0.31207
 C370 C 0.66939 0.31973 0.29192
 N371 N 0.66854 0.27615 0.31244
 N372 N 0.68519 0.26104 0.35204
 C373 C 0.70320 0.28904 0.37253
 N374 N 0.70406 0.33262 0.35167
 C375 C 0.65063 0.33677 0.25217
 C376 C 0.63448 0.35152 0.22029
 C377 C 0.61481 0.36958 0.18427
 N378 N 0.59143 0.35647 0.19548
 N379 N 0.57295 0.37490 0.16444
 C380 C 0.57722 0.40709 0.12113
 N381 N 0.60068 0.41999 0.10976
 N382 N 0.61917 0.40155 0.14085
 N383 N 0.16825 0.77636 0.31577
 C384 C 0.16913 0.81995 0.29530
 N385 N 0.18714 0.84790 0.31560
 N386 N 0.20375 0.83275 0.35528
 C387 C 0.20286 0.78916 0.37607
 N388 N 0.18486 0.76120 0.35544
 C389 C 0.15045 0.83702 0.25530
 C390 C 0.13437 0.85178 0.22318
 C391 C 0.11478 0.86984 0.18688
 N392 N 0.11920 0.90201 0.14375
 N393 N 0.10077 0.92047 0.11246
 C394 C 0.07730 0.90738 0.12332
 N395 N 0.07297 0.87499 0.16631
 N396 N 0.09139 0.85655 0.19756
   
