data_POSCAR
  _audit_creation_date              2014-09-24
  _audit_creation_method            'ToBaCCo'
  _symmetry_space_group_name_H-M    'P1'
  _symmetry_Int_Tables_number       1
  _symmetry_cell_setting            triclinic
  loop_
  _symmetry_equiv_pos_as_xyz
 x,y,z
_cell_length_a 29.7307
_cell_length_b 29.6795
_cell_length_c 29.5659
_cell_angle_alpha 89.860300
_cell_angle_beta 90.151300
_cell_angle_gamma 90.199500
loop_
  _atom_site_label
  _atom_site_type_symbol
  _atom_site_fract_x
  _atom_site_fract_y
  _atom_site_fract_z
C1 C 0.33341 0.39833 1.37317
 C2 C 0.36719 0.40188 1.34031
 C3 C 0.40177 0.37080 1.33933
 C4 C 0.40326 0.33593 1.37154
 C5 C 0.36999 0.33275 1.40392
 C6 C 0.33478 0.36393 1.40459
 C7 C 0.29425 0.42174 1.38043
 N8 N 0.27139 0.40209 1.41522
 C9 C 0.29649 0.36677 1.43035
 C10 C 0.37751 0.29410 1.42829
 N11 N 0.41527 0.27375 1.41238
 C12 C 0.43066 0.29888 1.37695
 C13 C 0.42709 0.38011 1.30152
 N14 N 0.40921 0.41640 1.27985
 C15 C 0.37215 0.42948 1.30321
 H16 H 0.28258 0.45046 1.36106
 H17 H 0.28805 0.34416 1.45771
 H18 H 0.35539 0.28073 1.45406
 H19 H 0.45860 0.28989 1.35541
 H20 H 0.45532 0.36061 1.28947
 H21 H 0.34889 0.45547 1.29278
 C22 C 1.16763 0.60346 0.87425
 C23 C 1.13632 0.60184 0.83881
 C24 C 1.10218 0.63319 0.83652
 C25 C 1.09900 0.66684 0.86962
 C26 C 1.13011 0.66861 0.90442
 C27 C 1.16472 0.63660 0.90682
 C28 C 1.20594 0.57923 0.88295
 N29 N 1.22646 0.59629 0.92042
 C30 C 1.20151 0.63193 0.93488
 C31 C 1.12100 0.70665 0.92921
 N32 N 1.08467 0.72786 0.91087
 C33 C 1.07154 0.70383 0.87385
 C34 C 1.07857 0.62491 0.79731
 N35 N 1.09780 0.58960 0.77544
 C36 C 1.13310 0.57519 0.80096
 H37 H 1.21895 0.55206 0.86244
 H38 H 1.21018 0.65438 0.96231
 H39 H 1.14056 0.71900 0.95757
 H40 H 1.04555 0.71345 0.85010
 H41 H 1.05011 0.64395 0.78482
 H42 H 1.15553 0.54787 0.79280
 C43 C 0.66664 -0.09954 0.12461
 C44 C 0.63338 -0.09756 0.15822
 C45 C 0.59930 -0.12927 0.15874
 C46 C 0.59781 -0.16326 0.12614
 C47 C 0.63041 -0.16539 0.09312
 C48 C 0.66514 -0.13319 0.09228
 C49 C 0.70544 -0.07521 0.11732
 N50 N 0.72733 -0.09260 0.08090
 C51 C 0.70299 -0.12866 0.06596
 C52 C 0.62218 -0.20393 0.06850
 N53 N 0.58488 -0.22483 0.08540
 C54 C 0.57045 -0.20027 0.12131
 C55 C 0.57386 -0.12185 0.19655
 N56 N 0.59102 -0.08584 0.21915
 C57 C 0.62789 -0.07113 0.19613
 H58 H 0.71759 -0.04757 0.13790
 H59 H 0.71268 -0.15144 0.03925
 H60 H 0.64295 -0.21682 0.04146
 H61 H 0.54351 -0.20958 0.14405
 H62 H 0.54639 -0.14298 0.20784
 H63 H 0.65014 -0.04438 0.20722
 C64 C -0.16596 1.09961 -0.37164
 C65 C -0.13249 1.09702 -0.33820
 C66 C -0.09796 1.12842 -0.33734
 C67 C -0.09620 1.16262 -0.37023
 C68 C -0.12912 1.16481 -0.40316
 C69 C -0.16424 1.13335 -0.40373
 C70 C -0.20518 1.07592 -0.37898
 N71 N -0.22769 1.09489 -0.41443
 C72 C -0.20227 1.12991 -0.42994
 C73 C -0.12165 1.20312 -0.42804
 N74 N -0.08423 1.22426 -0.41191
 C75 C -0.06900 1.19995 -0.37583
 C76 C -0.07294 1.12010 -0.29904
 N77 N -0.09093 1.08409 -0.27690
 C78 C -0.12777 1.07018 -0.30051
 H79 H -0.21717 1.04760 -0.35917
 H80 H -0.21033 1.15194 -0.45790
 H81 H -0.14370 1.21580 -0.45428
 H82 H -0.04141 1.20976 -0.35395
 H83 H -0.04467 1.13991 -0.28711
 H84 H -0.15100 1.04408 -0.29003
 C85 C 0.66696 0.60073 0.62858
 C86 C 0.63547 0.59906 0.66374
 C87 C 0.60079 0.62987 0.66506
 C88 C 0.59717 0.66297 0.63128
 C89 C 0.62834 0.66469 0.59670
 C90 C 0.66350 0.63329 0.59528
 C91 C 0.70581 0.57715 0.62064
 N92 N 0.72602 0.59418 0.58309
 C93 C 0.70040 0.62890 0.56758
 C94 C 0.61894 0.70233 0.57124
 N95 N 0.58239 0.72342 0.58897
 C96 C 0.56936 0.69965 0.62624
 C97 C 0.57712 0.62182 0.70418
 N98 N 0.59670 0.58709 0.72690
 C99 C 0.63245 0.57292 0.70210
 H100 H 0.71934 0.55041 0.64156
 H101 H 0.70866 0.65081 0.53953
 H102 H 0.63863 0.71470 0.54302
 H103 H 0.54335 0.70941 0.64973
 H104 H 0.54830 0.64059 0.71599
 H105 H 0.65534 0.54619 0.71115
 C106 C 0.83040 0.39652 0.13219
 C107 C 0.86483 0.40019 0.16453
 C108 C 0.90054 0.37041 0.16395
 C109 C 0.90254 0.33678 0.13062
 C110 C 0.86869 0.33357 0.09870
 C111 C 0.83233 0.36336 0.09966
 C112 C 0.79045 0.41901 0.12599
 N113 N 0.76766 0.39988 0.09083
 C114 C 0.79363 0.36599 0.07430
 C115 C 0.87695 0.29609 0.07305
 N116 N 0.91567 0.27646 0.08771
 C117 C 0.93102 0.30087 0.12365
 C118 C 0.92661 0.37960 0.20139
 N119 N 0.90811 0.41467 0.22428
 C120 C 0.86989 0.42694 0.20213
 H121 H 0.77845 0.44696 0.14604
 H122 H 0.78570 0.34462 0.04584
 H123 H 0.85465 0.28270 0.04736
 H124 H 0.95949 0.29193 0.14469
 H125 H 0.95598 0.36096 0.21221
 H126 H 0.84611 0.45190 0.21362
 C127 C 0.33585 0.09553 0.86938
 C128 C 0.36765 0.09463 0.83452
 C129 C 0.39946 0.12845 0.83113
 C130 C 0.39985 0.16378 0.86254
 C131 C 0.36858 0.16459 0.89706
 C132 C 0.33628 0.13012 0.90055
 C133 C 0.29861 0.06945 0.87796
 N134 N 0.27643 0.08671 0.91424
 C135 C 0.29917 0.12430 0.92778
 C136 C 0.37543 0.20393 0.92065
 N137 N 0.40980 0.22725 0.90116
 C138 C 0.42502 0.20261 0.86562
 C139 C 0.42357 0.12069 0.79230
 N140 N 0.40747 0.08273 0.77219
 C141 C 0.37287 0.06686 0.79776
 H142 H 0.28728 0.04171 0.85715
 H143 H 0.28817 0.14715 0.95399
 H144 H 0.35619 0.21536 0.94945
 H145 H 0.45204 0.21192 0.84308
 H146 H 0.44992 0.14198 0.77868
 H147 H 0.35150 0.03851 0.78949
 C148 C 0.16391 0.90367 0.37479
 C149 C 0.13011 0.90623 0.34160
 C150 C 0.09595 0.87457 0.34106
 C151 C 0.09502 0.83998 0.37323
 C152 C 0.12825 0.83728 0.40577
 C153 C 0.16292 0.86947 0.40666
 C154 C 0.20305 0.92759 0.38170
 N155 N 0.22556 0.90942 0.41754
 C156 C 0.20137 0.87321 0.43234
 C157 C 0.12081 0.79815 0.42975
 N158 N 0.08359 0.77733 0.41278
 C159 C 0.06797 0.80266 0.37780
 C160 C 0.07033 0.88231 0.30325
 N161 N 0.08751 0.91840 0.28070
 C162 C 0.12448 0.93291 0.30377
 H163 H 0.21502 0.95538 0.36115
 H164 H 0.21163 0.84977 0.45842
 H165 H 0.14194 0.78478 0.45643
 H166 H 0.04048 0.79372 0.35553
 H167 H 0.04294 0.86116 0.29177
 H168 H 0.14689 0.95949 0.29259
 Zn169 Zn 0.05394 0.97287 0.01445
 Zn170 Zn -0.03382 0.96604 -0.03478
 Zn171 Zn -0.02822 1.01466 0.05354
 Zn172 Zn 0.01446 1.05463 -0.02839
 O173 O 0.00152 1.00200 0.00113
 O174 O 0.05665 0.91815 -0.01043
 O175 O -0.08715 0.95299 -0.00941
 O176 O 0.00108 0.99553 0.10289
 O177 O -0.00809 0.91278 -0.04718
 O178 O 0.06175 0.96403 0.07371
 O179 O -0.08265 0.98887 0.05599
 O180 O -0.00502 1.10358 0.00105
 O181 O -0.04634 0.99166 -0.08840
 O182 O -0.03776 1.07355 0.06114
 O183 O -0.01090 1.05718 -0.08319
 O184 O 0.07336 1.06245 -0.03800
 O185 O 0.10279 1.00213 -0.00548
 C186 C 0.02950 0.89627 -0.03531
 C187 C -0.10406 0.96410 0.02835
 C188 C 0.03779 0.97430 0.10756
 C189 C -0.02712 1.10766 0.03749
 C190 C -0.03524 1.02957 -0.10507
 C191 C 0.10717 1.03854 -0.02764
 Zn192 Zn 0.47270 0.01108 0.44368
 Zn193 Zn 0.46597 -0.03741 0.53241
 Zn194 Zn 0.55419 -0.03135 0.48467
 Zn195 Zn 0.51463 0.05079 0.52592
 O196 O 0.50180 -0.00179 0.49669
 O197 O 0.41809 -0.01430 0.44071
 O198 O 0.49087 -0.09106 0.54527
 O199 O 0.56275 -0.04008 0.42552
 O200 O 0.41268 -0.04950 0.50659
 O201 O 0.50261 -0.00828 0.39499
 O202 O 0.55607 -0.08611 0.50967
 O203 O 0.57336 0.05879 0.53548
 O204 O 0.45344 -0.01175 0.58577
 O205 O 0.60301 -0.00250 0.50551
 O206 O 0.48938 0.05349 0.58049
 O207 O 0.49509 0.09965 0.49637
 O208 O 0.46317 0.07012 0.43560
 C209 C 0.39611 -0.03835 0.46856
 C210 C 0.52844 -0.10785 0.53406
 C211 C 0.53931 -0.02965 0.39114
 C212 C 0.60720 0.03457 0.52641
 C213 C 0.46474 0.02610 0.60228
 C214 C 0.47333 0.10403 0.45966
 Zn215 Zn 1.01359 0.44674 0.47251
 Zn216 Zn 1.05390 0.52848 0.51414
 Zn217 Zn 0.96593 0.53498 0.46498
 Zn218 Zn 0.97142 0.48735 0.55414
 O219 O 1.00112 0.49946 0.50141
 O220 O 1.07231 0.43837 0.46348
 O221 O 1.05654 0.58318 0.48938
 O222 O 0.95362 0.50918 0.41136
 O223 O 1.10252 0.49942 0.49386
 O224 O 0.98845 0.44366 0.41765
 O225 O 0.99172 0.58835 0.45275
 O226 O 0.91710 0.51270 0.55590
 O227 O 1.06219 0.53736 0.57333
 O228 O 0.91255 0.54796 0.49001
 O229 O 1.00054 0.50786 0.60318
 O230 O 0.96179 0.42835 0.56286
 O231 O 0.99374 0.39836 0.50253
 C232 C 1.10641 0.46237 0.47295
 C233 C 1.02925 0.60506 0.46480
 C234 C 0.96447 0.47111 0.39524
 C235 C 0.89572 0.53712 0.52795
 C236 C 1.03783 0.52842 0.60739
 C237 C 0.97205 0.39427 0.53921
 Zn238 Zn 0.46888 0.48822 0.94866
 Zn239 Zn 0.55214 0.52763 0.98867
 Zn240 Zn 0.46452 0.53608 1.03759
 Zn241 Zn 0.51010 0.44666 1.03063
 O242 O 0.49882 0.49971 1.00143
 O243 O 0.49814 0.50845 0.89966
 O244 O 0.55594 0.58246 1.01276
 O245 O 0.41105 0.54943 1.01264
 O246 O 0.56073 0.53608 0.92943
 O247 O 0.41480 0.51416 0.94687
 O248 O 0.49114 0.58933 1.04875
 O249 O 0.48536 0.44445 1.08544
 O250 O 0.60001 0.49770 1.00957
 O251 O 0.45244 0.51092 1.09172
 O252 O 0.56876 0.43712 1.04004
 O253 O 0.48889 0.39853 1.00093
 O254 O 0.45883 0.42938 0.93975
 C255 C 0.53599 0.52788 0.89538
 C256 C 0.52896 0.60524 1.03660
 C257 C 0.39384 0.53872 0.97480
 C258 C 0.46255 0.47257 1.10794
 C259 C 0.60326 0.46063 1.03074
 C260 C 0.46800 0.39498 0.96361
 C261 C 1.22959 0.41646 0.43097
 C262 C 1.19454 0.42127 0.39288
 C263 C 1.15414 0.43716 0.40708
 C264 C 1.15197 0.44635 0.45816
 C265 C 1.16584 0.40178 0.48051
 C266 C 1.20634 0.38587 0.46641
 C267 C 1.23196 0.46313 0.45331
 C268 C 1.19142 0.47880 0.46754
 H269 H 1.20084 0.41259 0.35782
 H270 H 1.12609 0.44229 0.38407
 H271 H 1.14515 0.38380 0.50484
 H272 H 1.21896 0.35397 0.47877
 H273 H 1.26296 0.48206 0.45773
 H274 H 1.18797 0.51124 0.48402
 C275 C 0.26848 0.58244 0.93623
 C276 C 0.28261 0.59991 0.98339
 C277 C 0.32424 0.58576 0.99664
 C278 C 0.34778 0.55531 0.96188
 C279 C 0.31421 0.51677 0.95337
 C280 C 0.27269 0.53087 0.94018
 C281 C 0.30665 0.59704 0.90445
 C282 C 0.34803 0.58291 0.91788
 H283 H 0.26155 0.61967 1.00560
 H284 H 0.33830 0.59432 1.02943
 H285 H 0.32216 0.48141 0.95824
 H286 H 0.24518 0.50752 0.93399
 H287 H 0.30152 0.61717 0.87418
 H288 H 0.37831 0.59097 0.89903
 C289 C -0.23030 0.92133 0.06596
 C290 C -0.21638 0.90455 0.01860
 C291 C -0.17451 0.91835 0.00585
 C292 C -0.15042 0.94796 0.04118
 C293 C -0.18334 0.98674 0.05012
 C294 C -0.22515 0.97291 0.06288
 C295 C -0.19243 0.90585 0.09777
 C296 C -0.15074 0.91972 0.08480
 H297 H -0.23788 0.88570 -0.00424
 H298 H -0.16072 0.91029 -0.02709
 H299 H -0.17474 1.02207 0.04585
 H300 H -0.25222 0.99649 0.06925
 H301 H -0.19799 0.88545 0.12778
 H302 H -0.12063 0.91115 0.10377
 C303 C 0.73048 0.08039 0.56955
 C304 C 0.70749 0.11100 0.53396
 C305 C 0.66699 0.09506 0.51948
 C306 C 0.65281 0.05045 0.54165
 C307 C 0.69209 0.01804 0.53258
 C308 C 0.73268 0.03375 0.54720
 C309 C 0.69529 0.07551 0.60735
 C310 C 0.65485 0.05959 0.59277
 H311 H 0.72015 0.14309 0.52197
 H312 H 0.64642 0.11313 0.49511
 H313 H 0.68849 -0.01439 0.51606
 H314 H 0.76358 0.01483 0.54308
 H315 H 0.70151 0.08418 0.64246
 H316 H 0.62668 0.05440 0.61552
 C317 C 0.43055 0.23100 0.42466
 C318 C 0.48207 0.22547 0.42319
 C319 C 0.49624 0.18313 0.43417
 C320 C 0.45782 0.15033 0.44584
 C321 C 0.43161 0.17385 0.48371
 C322 C 0.41772 0.21612 0.47300
 C323 C 0.41194 0.19398 0.39356
 C324 C 0.42616 0.15182 0.40455
 H325 H 0.50540 0.25251 0.41512
 H326 H 0.53156 0.17400 0.43505
 H327 H 0.42596 0.15915 0.51690
 H328 H 0.40129 0.23738 0.49770
 H329 H 0.38946 0.20046 0.36530
 H330 H 0.41568 0.12236 0.38550
 C331 C 0.93061 0.26711 0.57547
 C332 C 0.91105 0.30419 0.60566
 C333 C 0.92479 0.34648 0.59426
 C334 C 0.95693 0.34798 0.55352
 C335 C 0.99568 0.31620 0.56639
 C336 C 0.98200 0.27374 0.57779
 C337 C 0.91818 0.28093 0.52667
 C338 C 0.93155 0.32332 0.51556
 H339 H 0.88831 0.29766 0.63360
 H340 H 0.91363 0.37601 0.61261
 H341 H 1.03087 0.32609 0.56600
 H342 H 1.00560 0.24734 0.58671
 H343 H 0.90242 0.25893 0.50201
 H344 H 0.92610 0.33739 0.48205
 C345 C 0.06901 0.77011 -0.07588
 C346 C 0.02174 0.78299 -0.09338
 C347 C 0.00828 0.82485 -0.08033
 C348 C 0.04290 0.84989 -0.05069
 C349 C 0.05219 0.81748 -0.01114
 C350 C 0.06565 0.77570 -0.02422
 C351 C 0.10005 0.80843 -0.09177
 C352 C 0.08639 0.85007 -0.07864
 H353 H -0.00042 0.76080 -0.11223
 H354 H -0.02466 0.83803 -0.08895
 H355 H 0.04759 0.82635 0.02414
 H356 H 0.07227 0.74892 -0.00007
 H357 H 0.13006 0.80320 -0.11189
 H358 H 0.10477 0.88048 -0.08758
 C359 C 0.56936 0.73256 1.07293
 C360 C 0.59795 0.69466 1.09346
 C361 C 0.58404 0.65260 1.08163
 C362 C 0.54277 0.65205 1.05030
 C363 C 0.50681 0.67939 1.07546
 C364 C 0.52050 0.72164 1.08707
 C365 C 0.56977 0.72414 1.02157
 C366 C 0.55596 0.68196 1.00982
 H367 H 0.62659 0.70048 1.11557
 H368 H 0.60079 0.62240 1.09366
 H369 H 0.47285 0.66749 1.08184
 H370 H 0.49757 0.74544 1.10239
 H371 H 0.57898 0.74936 0.99658
 H372 H 0.55367 0.67117 0.97482
 C373 C 0.42311 0.43285 1.23500
 C374 C 0.47438 0.43434 1.22845
 C375 C 0.48713 0.44802 1.18638
 C376 C 0.44758 0.45923 1.15471
 C377 C 0.41798 0.41668 1.15477
 C378 C 0.40526 0.40287 1.19673
 C379 C 0.40737 0.48085 1.22286
 C380 C 0.42007 0.49456 1.18070
 H381 H 0.49855 0.42626 1.25479
 H382 H 0.52221 0.45140 1.17679
 H383 H 0.40770 0.39903 1.12430
 H384 H 0.38418 0.37346 1.20226
 H385 H 0.38945 0.50294 1.24568
 H386 H 0.41230 0.52790 1.16778
 C387 C 0.57702 -0.07048 0.26422
 C388 C 0.52899 -0.08464 0.27788
 C389 C 0.51728 -0.07129 0.32014
 C390 C 0.55405 -0.04441 0.34486
 C391 C 0.59567 -0.07519 0.34403
 C392 C 0.60758 -0.08876 0.30184
 C393 C 0.57767 -0.01900 0.27022
 C394 C 0.56568 -0.00537 0.31256
 H395 H 0.50516 -0.10158 0.25587
 H396 H 0.48414 -0.07787 0.33408
 H397 H 0.61426 -0.08554 0.37391
 H398 H 0.63614 -0.11057 0.29570
 H399 H 0.58633 0.00459 0.24351
 H400 H 0.56434 0.02989 0.32210
 C401 C -0.07657 1.06814 -0.23199
 C402 C -0.09380 1.02095 -0.21845
 C403 C -0.08045 1.00775 -0.17633
 C404 C -0.05088 1.04271 -0.15171
 C405 C -0.01182 1.05199 -0.18446
 C406 C -0.02522 1.06516 -0.22653
 C407 C -0.09218 1.09948 -0.19399
 C408 C -0.07882 1.08617 -0.15202
 H409 H -0.11308 0.99885 -0.24034
 H410 H -0.08910 0.97493 -0.16257
 H411 H 0.02337 1.04779 -0.17554
 H412 H -0.00152 1.07203 -0.25355
 H413 H -0.11228 1.12943 -0.19970
 H414 H -0.08752 1.10478 -0.12173
 C415 C 1.08276 0.57224 0.73126
 C416 C 1.11285 0.53600 0.70948
 C417 C 1.09737 0.52126 0.66870
 C418 C 1.05353 0.54382 0.65326
 C419 C 1.02037 0.53586 0.69245
 C420 C 1.03573 0.55078 0.73322
 C421 C 1.07919 0.60944 0.69522
 C422 C 1.06369 0.59464 0.65456
 H423 H 1.14387 0.52322 0.72371
 H424 H 1.11495 0.49603 0.64902
 H425 H 0.98770 0.51987 0.68867
 H426 H 1.01633 0.54747 0.76410
 H427 H 1.08826 0.64439 0.70115
 H428 H 1.05931 0.61705 0.62581
 C429 C 0.77038 0.57988 0.56657
 C430 C 0.78430 0.59805 0.51971
 C431 C 0.82590 0.58418 0.50639
 C432 C 0.84965 0.55335 0.54094
 C433 C 0.84992 0.58041 0.58518
 C434 C 0.80850 0.59420 0.59859
 C435 C 0.77469 0.52846 0.56241
 C436 C 0.81620 0.51461 0.54915
 H437 H 0.76323 0.61849 0.49795
 H438 H 0.83996 0.59348 0.47383
 H439 H 0.88021 0.58832 0.60419
 H440 H 0.80329 0.61388 0.62901
 H441 H 0.74728 0.50504 0.56872
 H442 H 0.82428 0.47931 0.54424
 C443 C 0.72589 0.41429 1.07476
 C444 C 0.70205 0.38277 1.04060
 C445 C 0.66174 0.39875 1.02573
 C446 C 0.64858 0.44426 1.04626
 C447 C 0.65081 0.43676 1.09768
 C448 C 0.69107 0.42082 1.11260
 C449 C 0.72881 0.46011 1.05066
 C450 C 0.68845 0.47582 1.03572
 H451 H 0.71390 0.34992 1.03027
 H452 H 0.64051 0.38000 1.00245
 H453 H 0.62286 0.44291 1.12038
 H454 H 0.69731 0.41310 1.14797
 H455 H 0.76004 0.47848 1.04560
 H456 H 0.68543 0.50772 1.01797
 C457 C 0.23382 1.07388 -0.07067
 C458 C 0.19665 1.10419 -0.08998
 C459 C 0.15462 1.09302 -0.07570
 C460 C 0.15336 1.05234 -0.04328
 C461 C 0.17732 1.01448 -0.06902
 C462 C 0.21950 1.02539 -0.08301
 C463 C 0.22802 1.07602 -0.01893
 C464 C 0.18580 1.06485 -0.00469
 H465 H 0.20293 1.13202 -0.11304
 H466 H 0.12509 1.11150 -0.08670
 H467 H 0.16299 0.98118 -0.07423
 H468 H 0.24100 1.00069 -0.09898
 H469 H 0.25481 1.08484 0.00446
 H470 H 0.17650 1.06446 0.03079
 C471 C 0.26846 -0.07763 0.43189
 C472 C 0.27526 -0.02619 0.43381
 C473 C 0.31759 -0.01354 0.44620
 C474 C 0.34929 -0.05325 0.45593
 C475 C 0.32450 -0.08144 0.49195
 C476 C 0.28214 -0.09402 0.47959
 C477 C 0.30553 -0.09488 0.40034
 C478 C 0.34776 -0.08217 0.41294
 H479 H 0.24892 -0.00184 0.42708
 H480 H 0.32736 0.02156 0.44973
 H481 H 0.33823 -0.08938 0.52506
 H482 H 0.26013 -0.11172 0.50285
 H483 H 0.29907 -0.11555 0.37077
 H484 H 0.37744 -0.09198 0.39410
 C485 C 0.56694 -0.23428 0.57542
 C486 C 0.56421 -0.22848 0.52371
 C487 C 0.55102 -0.18662 0.51037
 C488 C 0.54136 -0.15435 0.54973
 C489 C 0.50631 -0.17941 0.57878
 C490 C 0.51951 -0.22138 0.59210
 C491 C 0.59788 -0.19611 0.59182
 C492 C 0.58449 -0.15440 0.57844
 H493 H 0.57100 -0.25519 0.49968
 H494 H 0.54683 -0.17760 0.47500
 H495 H 0.47332 -0.16615 0.58685
 H496 H 0.49714 -0.24360 0.61066
 H497 H 0.62762 -0.20150 0.61250
 H498 H 0.60282 -0.12408 0.58770
 C499 C 1.06766 0.73230 0.42619
 C500 C 1.02023 0.71939 0.40921
 C501 C 1.00710 0.67714 0.42165
 C502 C 1.04232 0.65180 0.45015
 C503 C 1.08530 0.65271 0.42146
 C504 C 1.09858 0.69482 0.40897
 C505 C 1.06542 0.72553 0.47768
 C506 C 1.05224 0.68334 0.49020
 H507 H 0.99781 0.74175 0.39100
 H508 H 0.97410 0.66381 0.41322
 H509 H 1.10363 0.62273 0.41161
 H510 H 1.12821 0.70097 0.38848
 H511 H 1.07287 0.75177 0.50210
 H512 H 1.04854 0.67350 0.52539
 C513 C -0.06902 1.23406 0.07467
 C514 C -0.08067 1.22117 0.02548
 C515 C -0.06708 1.17909 0.01385
 C516 C -0.04230 1.15383 0.05183
 C517 C -0.00376 1.18561 0.06582
 C518 C -0.01764 1.22775 0.07770
 C519 C -0.08902 1.19625 0.10392
 C520 C -0.07511 1.15434 0.09208
 H521 H -0.09638 1.24357 0.00112
 H522 H -0.07210 1.16562 -0.01991
 H523 H 0.03143 1.17601 0.06571
 H524 H 0.00585 1.25414 0.08725
 H525 H -0.11220 1.20204 0.13160
 H526 H -0.08661 1.12441 0.10982
 C527 C 0.42616 0.27149 0.91674
 C528 C 0.44812 0.26914 0.96373
 C529 C 0.46226 0.30980 0.97969
 C530 C 0.45309 0.34935 0.94712
 C531 C 0.47547 0.33555 0.90253
 C532 C 0.46148 0.29487 0.88644
 C533 C 0.38826 0.30626 0.92137
 C534 C 0.40231 0.34686 0.93746
 H535 H 0.45232 0.23807 0.98268
 H536 H 0.47846 0.31327 1.01245
 H537 H 0.49992 0.35629 0.88482
 H538 H 0.47405 0.28181 0.85476
 H539 H 0.35342 0.29954 0.91254
 H540 H 0.37940 0.37478 0.94258
 C541 C 0.58152 0.57017 0.77120
 C542 C 0.61091 0.53342 0.79339
 C543 C 0.59526 0.51921 0.83430
 C544 C 0.55194 0.54275 0.84942
 C545 C 0.56310 0.59334 0.84763
 C546 C 0.57876 0.60762 0.80685
 C547 C 0.53407 0.54961 0.76934
 C548 C 0.51852 0.53524 0.81022
 H549 H 0.64142 0.51967 0.77918
 H550 H 0.61227 0.49357 0.85418
 H551 H 0.55924 0.61598 0.87614
 H552 H 0.58846 0.64235 0.80056
 H553 H 0.51454 0.54647 0.73844
 H554 H 0.48556 0.51989 0.81406
 C555 C 0.42209 0.06601 0.72782
 C556 C 0.47348 0.06310 0.72324
 C557 C 0.48738 0.04941 0.68165
 C558 C 0.44869 0.03964 0.64845
 C559 C 0.41892 0.00493 0.67316
 C560 C 0.40506 0.01861 0.71481
 C561 C 0.40681 0.09683 0.68902
 C562 C 0.42066 0.08303 0.64753
 H563 H 0.49685 0.07054 0.75050
 H564 H 0.52267 0.04526 0.67335
 H565 H 0.41050 -0.02808 0.65982
 H566 H 0.38559 -0.00335 0.73664
 H567 H 0.38654 0.12677 0.69385
 H568 H 0.41221 0.10123 0.61677
 C569 C 0.07392 0.93364 0.23533
 C570 C 0.07451 0.98511 0.22907
 C571 C 0.06302 0.99868 0.18645
 C572 C 0.05191 0.95960 0.15418
 C573 C 0.09359 0.92894 0.15590
 C574 C 0.10500 0.91542 0.19837
 C575 C 0.02612 0.91931 0.22092
 C576 C 0.01490 0.93261 0.17838
 H577 H 0.08277 1.00874 0.25580
 H578 H 0.06170 1.03394 0.17669
 H579 H 0.11258 0.91860 0.12642
 H580 H 0.13353 0.89367 0.20513
 H581 H 0.00210 0.90226 0.24259
 H582 H -0.01803 0.92590 0.16386
 C583 C 0.92293 0.43096 0.26890
 C584 C 0.90644 0.40057 0.30751
 C585 C 0.91991 0.41442 0.34924
 C586 C 0.94883 0.45744 0.34874
 C587 C 0.98783 0.44695 0.31640
 C588 C 0.97434 0.43322 0.27456
 C589 C 0.90676 0.47866 0.28128
 C590 C 0.92019 0.49240 0.32316
 H591 H 0.88574 0.37082 0.30237
 H592 H 0.91067 0.39646 0.37990
 H593 H 1.02306 0.45085 0.32538
 H594 H 0.99804 0.42566 0.24781
 H595 H 0.88801 0.50055 0.25873
 H596 H 0.91219 0.52559 0.33614
   
