data_POSCAR
  _audit_creation_date              2014-09-24
  _audit_creation_method            'ToBaCCo'
  _symmetry_space_group_name_H-M    'P1'
  _symmetry_Int_Tables_number       1
  _symmetry_cell_setting            triclinic
  loop_
  _symmetry_equiv_pos_as_xyz
 x,y,z
_cell_length_a 37.8111
_cell_length_b 37.8373
_cell_length_c 37.7802
_cell_angle_alpha 89.998800
_cell_angle_beta 90.228300
_cell_angle_gamma 90.220500
loop_
  _atom_site_label
  _atom_site_type_symbol
  _atom_site_fract_x
  _atom_site_fract_y
  _atom_site_fract_z
Si1 Si 0.25007 0.50015 0.99994
 Si2 Si 0.74995 0.50109 0.00038
 Si3 Si 0.00097 0.24975 0.50119
 Si4 Si 0.99900 0.74976 0.49893
 Si5 Si 0.49781 0.00164 0.24983
 Si6 Si 0.50195 -0.00068 0.74983
 C7 C 0.30293 0.02683 0.45743
 H8 H 0.30384 0.04715 0.47756
 C9 C 0.32672 0.02783 0.42929
 H10 H 0.34605 0.04898 0.42809
 C11 C 0.27772 -0.02641 0.43575
 H12 H 0.25906 -0.04786 0.43871
 C13 C 0.30107 -0.02647 0.40719
 H14 H 0.29961 -0.04771 0.38803
 N15 N 0.27902 0.00005 0.46010
 C16 C 0.19604 0.04069 0.52846
 H17 H 0.19608 0.02043 0.54867
 C18 C 0.17136 0.06795 0.52983
 H19 H 0.15280 0.06878 0.55156
 C20 C 0.22012 0.06381 0.47544
 H21 H 0.23862 0.06162 0.45384
 C22 C 0.19585 0.09158 0.47575
 H23 H 0.19594 0.11053 0.45428
 Zn24 Zn 0.24988 -0.00068 0.50069
 N25 N 0.21979 0.03911 0.50161
 C26 C 0.27929 0.02548 0.56511
 N27 N 0.28024 -0.00086 0.54062
 C28 C 0.30452 -0.02718 0.54274
 C29 C 0.32898 -0.02791 0.57049
 C30 C 0.30330 0.02580 0.59331
 C31 C 0.19570 -0.04328 0.47419
 C32 C 0.17154 -0.07122 0.47334
 C33 C 0.19804 -0.09412 0.52688
 C34 C 0.22178 -0.06572 0.52667
 N35 N 0.22026 -0.04109 0.50048
 H36 H 0.26031 0.04659 0.56258
 H37 H 0.30513 -0.04739 0.52250
 H38 H 0.34852 -0.04873 0.57129
 H39 H 0.30206 0.04689 0.61262
 H40 H 0.19464 -0.02292 0.45410
 H41 H 0.15176 -0.07205 0.45254
 H42 H 0.19968 -0.11353 0.54787
 H43 H 0.24097 -0.06313 0.54777
 C44 C 0.17082 0.09371 0.50306
 C45 C 0.32614 0.00081 0.40380
 C46 C 0.17238 -0.09704 0.50002
 C47 C 0.32869 -0.00107 0.59618
 C48 C 0.69708 0.02690 0.54212
 H49 H 0.69631 0.04718 0.52194
 C50 C 0.67321 0.02786 0.57018
 H51 H 0.65395 0.04893 0.57128
 C52 C 0.72202 -0.02620 0.56396
 H53 H 0.74061 -0.04759 0.56109
 C54 C 0.69860 -0.02629 0.59246
 H55 H 0.69993 -0.04749 0.61166
 N56 N 0.72088 0.00020 0.53954
 C57 C 0.80425 0.04074 0.47121
 H58 H 0.80408 0.02046 0.45101
 C59 C 0.82917 0.06798 0.46988
 H60 H 0.84777 0.06878 0.44818
 C61 C 0.78028 0.06389 0.52419
 H62 H 0.76173 0.06171 0.54575
 C63 C 0.80480 0.09163 0.52391
 H64 H 0.80483 0.11057 0.54538
 Zn65 Zn 0.75003 -0.00060 0.49897
 N66 N 0.78045 0.03918 0.49803
 C67 C 0.72086 0.02552 0.43452
 N68 N 0.71966 -0.00079 0.45904
 C69 C 0.69507 -0.02702 0.45700
 C70 C 0.67052 -0.02766 0.42932
 C71 C 0.69677 0.02592 0.40640
 C72 C 0.80395 -0.04312 0.52546
 C73 C 0.82792 -0.07105 0.52631
 C74 C 0.80105 -0.09413 0.47294
 C75 C 0.77752 -0.06574 0.47314
 N76 N 0.77932 -0.04102 0.49924
 H77 H 0.74008 0.04656 0.43699
 H78 H 0.69427 -0.04722 0.47725
 H79 H 0.65072 -0.04840 0.42860
 H80 H 0.69821 0.04700 0.38707
 H81 H 0.80524 -0.02270 0.54547
 H82 H 0.84778 -0.07178 0.54702
 H83 H 0.79919 -0.11361 0.45202
 H84 H 0.75826 -0.06323 0.45211
 C85 C 0.82989 0.09373 0.49664
 C86 C 0.67360 0.00088 0.59572
 C87 C 0.82681 -0.09695 0.49970
 C88 C 0.67104 -0.00083 0.40363
 C89 C 0.47143 0.19725 1.04260
 H90 H 0.45157 0.19586 1.02195
 C91 C 0.47029 0.17353 1.07087
 H92 H 0.44951 0.15378 1.07165
 C93 C 0.52371 0.22356 1.06546
 H94 H 0.54489 0.24260 1.06289
 C95 C 0.52361 0.20032 1.09419
 H96 H 0.54443 0.20224 1.11386
 N97 N 0.49782 0.22164 1.04042
 C98 C 0.45689 0.30281 0.96964
 H99 H 0.47733 0.30265 0.94968
 C100 C 0.42949 0.32731 0.96757
 H101 H 0.42871 0.34558 0.94553
 C102 C 0.43363 0.27943 1.02292
 H103 H 0.43588 0.26137 1.04494
 C104 C 0.40574 0.30356 1.02192
 H105 H 0.38677 0.30376 1.04330
 Zn106 Zn 0.49897 0.25044 0.99951
 N107 N 0.45852 0.27957 0.99702
 C108 C 0.47515 0.21935 0.93495
 N109 N 0.50103 0.21974 0.96007
 C110 C 0.52820 0.19634 0.95914
 C111 C 0.53018 0.17130 0.93212
 C112 C 0.47608 0.19471 0.90743
 C113 C 0.53934 0.30570 1.02685
 C114 C 0.56641 0.33080 1.02829
 C115 C 0.59158 0.30492 0.97568
 C116 C 0.56397 0.28025 0.97525
 N117 N 0.53860 0.28106 1.00067
 H118 H 0.45327 0.23754 0.93666
 H119 H 0.54816 0.19693 0.97973
 H120 H 0.55214 0.15302 0.93180
 H121 H 0.45481 0.19425 0.88817
 H122 H 0.51855 0.30602 1.04644
 H123 H 0.56657 0.35005 1.04949
 H124 H 0.61108 0.30440 0.95478
 H125 H 0.56243 0.26105 0.95414
 C126 C 0.40367 0.32822 0.99419
 C127 C 0.49677 0.17470 1.09703
 C128 C 0.59286 0.33084 1.00230
 C129 C 0.50372 0.17005 0.90594
 C130 C 0.47359 0.80293 -0.04388
 H131 H 0.45333 0.80391 -0.02376
 C132 C 0.47270 0.82664 -0.07216
 H133 H 0.45170 0.84597 -0.07349
 C134 C 0.52663 0.77770 -0.06530
 H135 H 0.54800 0.75911 -0.06215
 C136 C 0.52679 0.80096 -0.09401
 H137 H 0.54801 0.79948 -0.11311
 N138 N 0.50025 0.77909 -0.04097
 C139 C 0.45946 0.69694 0.02887
 H140 H 0.47967 0.69741 0.04922
 C141 C 0.43215 0.67211 0.03049
 H142 H 0.43123 0.65387 0.05255
 C143 C 0.43654 0.72004 -0.02478
 H144 H 0.43886 0.73819 -0.04673
 C145 C 0.40875 0.69560 -0.02423
 H146 H 0.38990 0.69523 -0.04587
 Zn147 Zn 0.50113 0.75044 0.00007
 N148 N 0.46118 0.72026 0.00156
 C149 C 0.47559 0.78091 0.06402
 N150 N 0.50176 0.78136 0.03941
 C151 C 0.52825 0.80572 0.04077
 C152 C 0.52922 0.83090 0.06774
 C153 C 0.47554 0.80565 0.09148
 C154 C 0.54341 0.69624 -0.02578
 C155 C 0.57144 0.67239 -0.02653
 C156 C 0.59492 0.69967 0.02645
 C157 C 0.56642 0.72307 0.02615
 N158 N 0.54148 0.72104 0.00017
 H159 H 0.45427 0.76194 0.06197
 H160 H 0.54845 0.80577 0.02057
 H161 H 0.55066 0.84994 0.06842
 H162 H 0.45406 0.80541 0.11035
 H163 H 0.52283 0.69478 -0.04570
 H164 H 0.57209 0.65244 -0.04705
 H165 H 0.61460 0.70174 0.04725
 H166 H 0.56404 0.74246 0.04697
 C167 C 0.40650 0.67097 0.00351
 C168 C 0.49971 0.82605 -0.09757
 C169 C 0.59763 0.67381 -0.00009
 C170 C 0.50246 0.83128 0.09342
 C171 C 1.04489 0.47170 0.19722
 H172 H 1.02466 0.45140 0.19645
 C173 C 1.07293 0.47065 0.17334
 H174 H 1.07396 0.44950 0.15407
 C175 C 1.06684 0.52495 0.22212
 H176 H 1.06401 0.54644 0.24068
 C177 C 1.09533 0.52496 0.19870
 H178 H 1.11456 0.54620 0.20001
 N179 N 1.04236 0.49854 0.22098
 C180 C 0.97387 0.45861 0.30454
 H181 H 0.95371 0.47883 0.30425
 C182 C 0.97253 0.43162 0.32964
 H183 H 0.95085 0.43092 0.34827
 C184 C 1.02678 0.43538 0.28068
 H185 H 1.04833 0.43744 0.26210
 C186 C 1.02648 0.40788 0.30538
 H187 H 1.04792 0.38899 0.30551
 Zn188 Zn 1.00174 0.49951 0.25004
 N189 N 1.00067 0.46001 0.28070
 C190 C 0.93699 0.47348 0.22103
 N191 N 0.96191 0.49945 0.21956
 C192 C 0.96019 0.52548 0.19482
 C193 C 0.93233 0.52637 0.17051
 C194 C 0.90866 0.47332 0.19717
 C195 C 1.02797 0.54284 0.30384
 C196 C 1.02860 0.57107 0.32760
 C197 C 0.97535 0.59345 0.30020
 C198 C 0.97578 0.56477 0.27691
 N199 N 1.00191 0.54025 0.27907
 H200 H 0.93919 0.45260 0.24039
 H201 H 0.98076 0.54541 0.19382
 H202 H 0.93179 0.54701 0.15067
 H203 H 0.88894 0.45258 0.19888
 H204 H 1.04803 0.52257 0.30542
 H205 H 1.04916 0.57220 0.34759
 H206 H 0.95439 0.61275 0.29804
 H207 H 0.95486 0.56188 0.25758
 C208 C 0.99925 0.40594 0.33050
 C209 C 1.09850 0.49768 0.17369
 C210 C 1.00192 0.59676 0.32611
 C211 C 0.90611 0.50000 0.17143
 C212 C -0.04378 0.47362 0.80449
 H213 H -0.02316 0.45393 0.80595
 C214 C -0.07166 0.47277 0.82856
 H215 H -0.07217 0.45238 0.84866
 C216 C -0.06697 0.52516 0.77751
 H217 H -0.06470 0.54590 0.75802
 C218 C -0.09533 0.52533 0.80111
 H219 H -0.11502 0.54593 0.79904
 N220 N -0.04198 0.49946 0.77955
 C221 C 0.02609 0.45640 0.69749
 H222 H 0.04610 0.47688 0.69642
 C223 C 0.02730 0.42809 0.67386
 H224 H 0.04830 0.42711 0.65449
 C225 C -0.02665 0.43404 0.72290
 H226 H -0.04801 0.43682 0.74157
 C227 C -0.02649 0.40528 0.69971
 H228 H -0.04746 0.38579 0.70129
 Zn229 Zn -0.00170 0.49985 0.75002
 N230 N -0.00056 0.45885 0.72140
 C231 C 0.06302 0.47591 0.78036
 N232 N 0.03831 0.50195 0.78015
 C233 C 0.04000 0.52929 0.80344
 C234 C 0.06738 0.53125 0.82824
 C235 C 0.09088 0.47682 0.80476
 C236 C -0.02926 0.53995 0.69465
 C237 C -0.03063 0.56691 0.66951
 C238 C 0.02285 0.59160 0.69469
 C239 C 0.02318 0.56413 0.71941
 N240 N -0.00271 0.53907 0.71899
 H241 H 0.06072 0.45393 0.76225
 H242 H 0.01971 0.54937 0.80300
 H243 H 0.06828 0.55331 0.84647
 H244 H 0.10978 0.45540 0.80513
 H245 H -0.04925 0.51941 0.69464
 H246 H -0.05214 0.56723 0.65051
 H247 H 0.04409 0.61087 0.69493
 H248 H 0.04457 0.56247 0.73836
 C249 C 0.00062 0.40217 0.67459
 C250 C -0.09784 0.49898 0.82719
 C251 C -0.00419 0.59309 0.66912
 C252 C 0.09312 0.50459 0.82936
 C253 C 0.09091 0.17427 0.50219
 C254 C 0.12565 0.18275 0.49264
 C255 C 0.15179 0.15664 0.49299
 C256 C 0.03946 0.22132 0.50117
 C257 C 0.10842 0.11360 0.51254
 C258 C 0.08240 0.13967 0.51214
 C259 C 0.06356 0.20059 0.50148
 C260 C 0.14343 0.12175 0.50298
 H261 H 0.13252 0.20947 0.48489
 H262 H 0.17857 0.16378 0.48580
 H263 H 0.10097 0.08690 0.51975
 H264 H 0.05555 0.13278 0.51939
 C265 C 0.67879 0.59459 0.00090
 C266 C 0.66859 0.61034 -0.03104
 C267 C 0.64277 0.63668 -0.03131
 C268 C 0.72269 0.54041 0.00070
 C269 C 0.63776 0.63213 0.03248
 C270 C 0.66357 0.60576 0.03268
 C271 C 0.70323 0.56554 0.00084
 C272 C 0.62674 0.64758 0.00041
 H273 H 0.68015 0.60183 -0.05579
 H274 H 0.63517 0.64839 -0.05635
 H275 H 0.62562 0.63959 0.05727
 H276 H 0.67109 0.59356 0.05752
 C277 C 0.90650 -0.17767 0.49876
 C278 C 0.89536 -0.16216 0.46701
 C279 C 0.86889 -0.13646 0.46720
 C280 C 0.96030 -0.22207 0.49885
 C281 C 0.86419 -0.14212 0.53092
 C282 C 0.89065 -0.16783 0.53066
 C283 C 0.93541 -0.20228 0.49880
 C284 C 0.85327 -0.12586 0.49922
 H285 H 0.90762 -0.16941 0.44220
 H286 H 0.86143 -0.12412 0.44243
 H287 H 0.85237 -0.13485 0.55593
 H288 H 0.89910 -0.17964 0.55539
 C289 C 0.32410 0.40913 0.99514
 C290 C 0.35862 0.41708 0.98455
 C291 C 0.38432 0.39070 0.98392
 C292 C 0.27802 0.46137 0.99800
 C293 C 0.34100 0.34802 1.00434
 C294 C 0.31527 0.37453 1.00494
 C295 C 0.29833 0.43695 0.99671
 C296 C 0.37586 0.35586 0.99389
 H297 H 0.36580 0.44382 0.97714
 H298 H 0.41102 0.39778 0.97638
 H299 H 0.33360 0.32139 1.01186
 H300 H 0.28861 0.36810 1.01321
 C301 C 0.91056 0.17415 0.49802
 C302 C 0.91877 0.13959 0.48790
 C303 C 0.89250 0.11357 0.48729
 C304 C 0.96243 0.22112 0.50007
 C305 C 0.84947 0.15661 0.50688
 C306 C 0.87586 0.18266 0.50746
 C307 C 0.93819 0.20038 0.49920
 C308 C 0.85753 0.12174 0.49679
 H309 H 0.94559 0.13267 0.48075
 H310 H 0.89972 0.08689 0.48000
 H311 H 0.82274 0.16378 0.51402
 H312 H 0.86924 0.20935 0.51535
 C313 C 0.32611 0.59024 0.00263
 C314 C 0.31763 0.62478 -0.00750
 C315 C 0.34366 0.65120 -0.00704
 C316 C 0.27905 0.53844 0.00080
 C317 C 0.38660 0.60853 0.01386
 C318 C 0.36060 0.58223 0.01336
 C319 C 0.29988 0.56261 0.00156
 C320 C 0.37848 0.64333 0.00362
 H321 H 0.29099 0.63127 -0.01585
 H322 H 0.33652 0.67780 -0.01475
 H323 H 0.41325 0.60145 0.02161
 H324 H 0.36750 0.55554 0.02106
 C325 C 0.09221 -0.17790 0.50069
 C326 C 0.10837 -0.16815 0.46888
 C327 C 0.13499 -0.14241 0.46872
 C328 C 0.03800 -0.22221 0.50002
 C329 C 0.12986 -0.13654 0.53238
 C330 C 0.10322 -0.16227 0.53246
 C331 C 0.06308 -0.20247 0.50045
 C332 C 0.14577 -0.12601 0.50044
 H333 H 0.10002 -0.18005 0.44412
 H334 H 0.14703 -0.13520 0.44377
 H335 H 0.13722 -0.12409 0.55716
 H336 H 0.09071 -0.16945 0.55721
 C337 C 0.67321 0.41157 1.00172
 C338 C 0.68204 0.37667 0.99337
 C339 C 0.65599 0.35028 0.99362
 C340 C 0.72054 0.46313 1.00072
 C341 C 0.61229 0.39373 1.01066
 C342 C 0.63831 0.42000 1.01037
 C343 C 0.69955 0.43910 1.00110
 C344 C 0.62080 0.35854 1.00231
 H345 H 0.70899 0.36987 0.98664
 H346 H 0.66341 0.32339 0.98739
 H347 H 0.58537 0.40108 1.01685
 H348 H 0.63115 0.44697 1.01669
 C349 C 0.49764 0.09520 1.17831
 C350 C 0.52937 0.10638 1.16293
 C351 C 0.52918 0.13279 1.13707
 C352 C 0.49768 0.04098 1.22242
 C353 C 0.46550 0.13739 1.14231
 C354 C 0.46575 0.11097 1.16819
 C355 C 0.49763 0.06613 1.20286
 C356 C 0.49718 0.14833 1.12616
 H357 H 0.55417 0.09414 1.17037
 H358 H 0.55395 0.14024 1.12481
 H359 H 0.44050 0.14914 1.13479
 H360 H 0.44102 0.10245 1.17987
 C361 C -0.00328 0.67327 0.58846
 C362 C -0.01287 0.63853 0.58005
 C363 C -0.01333 0.61256 0.60631
 C364 C -0.00172 0.72047 0.53691
 C365 C 0.00537 0.65604 0.64971
 C366 C 0.00579 0.68203 0.62334
 C367 C -0.00236 0.69954 0.56093
 C368 C -0.00419 0.62098 0.64146
 H369 H -0.01976 0.63143 0.55310
 H370 H -0.02022 0.58574 0.59895
 H371 H 0.01220 0.66341 0.67657
 H372 H 0.01325 0.70886 0.63013
 C373 C 0.50134 0.90579 -0.17860
 C374 C 0.46943 0.88939 -0.16943
 C375 C 0.46894 0.86289 -0.14363
 C376 C 0.50169 0.96003 -0.22268
 C377 C 0.53244 0.86868 -0.13656
 C378 C 0.53286 0.89517 -0.16234
 C379 C 0.50151 0.93489 -0.20312
 C380 C 0.50041 0.85250 -0.12661
 H381 H 0.44486 0.89747 -0.18180
 H382 H 0.44394 0.85065 -0.13685
 H383 H 0.55703 0.86167 -0.12362
 H384 H 0.55767 0.90789 -0.16905
 C385 C 1.00017 0.32604 0.41146
 C386 C 1.00967 0.31732 0.37678
 C387 C 1.00928 0.34322 0.35031
 C388 C 1.00109 0.27897 0.46314
 C389 C 0.98982 0.38653 0.39324
 C390 C 0.99025 0.36066 0.41959
 C391 C 1.00082 0.29984 0.43906
 C392 C 0.99933 0.37814 0.35827
 H393 H 1.01737 0.29058 0.37020
 H394 H 1.01642 0.33588 0.32359
 H395 H 0.98263 0.41326 0.40038
 H396 H 0.98302 0.36773 0.44639
 C397 C 0.50026 0.91214 0.17337
 C398 C 0.51022 0.92044 0.13873
 C399 C 0.51109 0.89412 0.11284
 C400 C 0.49838 0.96372 0.22050
 C401 C 0.49205 0.85089 0.15619
 C402 C 0.49122 0.87732 0.18210
 C403 C 0.49910 0.93969 0.19959
 C404 C 0.50200 0.85902 0.12124
 H405 H 0.51711 0.94734 0.13165
 H406 H 0.51828 0.90138 0.08609
 H407 H 0.48524 0.82406 0.16354
 H408 H 0.48350 0.87061 0.20886
 C409 C 0.00020 0.32096 0.59502
 C410 C -0.03156 0.33654 0.60557
 C411 C -0.03155 0.36235 0.63204
 C412 C 0.00064 0.27703 0.54064
 C413 C 0.03204 0.35666 0.63797
 C414 C 0.03194 0.33083 0.61150
 C415 C 0.00044 0.29651 0.56586
 C416 C 0.00033 0.37302 0.64825
 H417 H -0.05625 0.32930 0.59279
 H418 H -0.05632 0.37477 0.63898
 H419 H 0.05693 0.36399 0.65024
 H420 H 0.05670 0.31900 0.60347
 C421 C 0.50390 0.08911 0.82602
 C422 C 0.49412 0.12364 0.81714
 C423 C 0.49427 0.15012 0.84302
 C424 C 0.50256 0.03734 0.77906
 C425 C 0.51417 0.10754 0.88663
 C426 C 0.51399 0.08117 0.86077
 C427 C 0.50312 0.06144 0.79990
 C428 C 0.50425 0.14233 0.87810
 H429 H 0.48629 0.13006 0.79029
 H430 H 0.48684 0.17671 0.83555
 H431 H 0.52140 0.10053 0.91348
 H432 H 0.52143 0.05449 0.86798
 C433 C 0.99992 0.67818 0.40540
 C434 C 1.03197 0.66851 0.38984
 C435 C 1.03259 0.64259 0.36348
 C436 C 0.99934 0.72233 0.45959
 C437 C 0.96891 0.63639 0.36769
 C438 C 0.96837 0.66230 0.39406
 C439 C 0.99960 0.70275 0.43445
 C440 C 1.00109 0.62593 0.35239
 H441 H 1.05656 0.68058 0.39849
 H442 H 1.05771 0.63542 0.35190
 H443 H 0.94429 0.62375 0.36011
 H444 H 0.94344 0.66939 0.40614
 C445 C 1.17899 0.49880 0.09364
 C446 C 1.16303 0.53036 0.10421
 C447 C 1.13740 0.53010 0.13077
 C448 C 1.22282 0.49919 0.03931
 C449 C 1.14402 0.46668 0.13672
 C450 C 1.16967 0.46701 0.11014
 C451 C 1.20338 0.49888 0.06450
 C452 C 1.12732 0.49819 0.14708
 H453 H 1.16985 0.55507 0.09141
 H454 H 1.12470 0.55472 0.13774
 H455 H 1.13714 0.44177 0.14905
 H456 H 1.18181 0.44241 0.10209
 C457 C 0.59414 -0.00021 0.67680
 C458 C 0.60450 -0.03178 0.66067
 C459 C 0.63083 -0.03154 0.63481
 C460 C 0.54059 -0.00038 0.72156
 C461 C 0.63696 0.03191 0.64149
 C462 C 0.61061 0.03159 0.66737
 C463 C 0.56539 -0.00026 0.70163
 C464 C 0.64713 0.00038 0.62466
 H465 H 0.59174 -0.05651 0.66759
 H466 H 0.63767 -0.05617 0.62202
 H467 H 0.64929 0.05682 0.63457
 H468 H 0.60275 0.05620 0.67966
 C469 C -0.17845 0.50020 0.90707
 C470 C -0.16835 0.46821 0.89161
 C471 C -0.14267 0.46783 0.86508
 C472 C -0.22245 0.50058 0.96125
 C473 C -0.13758 0.53160 0.86895
 C474 C -0.16324 0.53190 0.89548
 C475 C -0.20290 0.50036 0.93615
 C476 C -0.12671 0.49950 0.85372
 H477 H -0.17992 0.44351 0.90043
 H478 H -0.13519 0.44276 0.85356
 H479 H -0.12546 0.55636 0.86116
 H480 H -0.17068 0.55679 0.90747
 C481 C 0.40529 0.00018 0.32242
 C482 C 0.39498 -0.03146 0.33861
 C483 C 0.36871 -0.03138 0.36455
 C484 C 0.45896 0.00076 0.27781
 C485 C 0.36256 0.03201 0.35779
 C486 C 0.38882 0.03186 0.33184
 C487 C 0.43409 0.00042 0.29764
 C488 C 0.35246 0.00043 0.37472
 H489 H 0.40775 -0.05609 0.33171
 H490 H 0.36191 -0.05604 0.37741
 H491 H 0.35025 0.05684 0.36472
 H492 H 0.39665 0.05652 0.31951
 C493 C 0.17364 0.50417 0.91009
 C494 C 0.18204 0.49417 0.87546
 C495 C 0.15599 0.49457 0.84904
 C496 C 0.22076 0.50180 0.96188
 C497 C 0.11317 0.51520 0.89184
 C498 C 0.13920 0.51477 0.91815
 C499 C 0.19986 0.50289 0.93775
 C500 C 0.12121 0.50501 0.85698
 H501 H 0.20863 0.48592 0.86894
 H502 H 0.16307 0.48692 0.82239
 H503 H 0.08655 0.52278 0.89898
 H504 H 0.13236 0.52236 0.94492
 C505 C 0.59045 0.00089 0.32305
 C506 C 0.60633 -0.03108 0.33262
 C507 C 0.63299 -0.03161 0.35837
 C508 C 0.53656 0.00139 0.27828
 C509 C 0.62835 0.03195 0.36467
 C510 C 0.60168 0.03241 0.33894
 C511 C 0.56148 0.00117 0.29825
 C512 C 0.64408 -0.00012 0.37493
 H513 H 0.59779 -0.05565 0.32052
 H514 H 0.64488 -0.05665 0.36538
 H515 H 0.63592 0.05657 0.37726
 H516 H 0.58939 0.05728 0.33191
 C517 C 0.82419 0.49987 0.09220
 C518 C 0.83950 0.46803 0.10303
 C519 C 0.86567 0.46796 0.12928
 C520 C 0.77873 0.50048 0.03887
 C521 C 0.86094 0.53163 0.13430
 C522 C 0.83476 0.53163 0.10807
 C523 C 0.79900 0.50016 0.06356
 C524 C 0.87695 0.49982 0.14497
 H525 H 0.83168 0.44332 0.09073
 H526 H 0.87779 0.44310 0.13655
 H527 H 0.86873 0.55652 0.14620
 H528 H 0.82311 0.55644 0.09984
 C529 C 0.40900 0.00009 0.67704
 C530 C 0.39266 -0.03175 0.66743
 C531 C 0.36607 -0.03209 0.64161
 C532 C 0.46301 -0.00007 0.72167
 C533 C 0.37168 0.03144 0.63532
 C534 C 0.39828 0.03170 0.66113
 C535 C 0.43801 0.00009 0.70180
 C536 C 0.35551 -0.00053 0.62500
 H537 H 0.40080 -0.05639 0.67954
 H538 H 0.35383 -0.05705 0.63456
 H539 H 0.36451 0.05610 0.62271
 H540 H 0.41095 0.05647 0.66818
   
