data_POSCAR
  _audit_creation_date              2014-09-24
  _audit_creation_method            'ToBaCCo'
  _symmetry_space_group_name_H-M    'P1'
  _symmetry_Int_Tables_number       1
  _symmetry_cell_setting            triclinic
  loop_
  _symmetry_equiv_pos_as_xyz
 x,y,z
_cell_length_a 27.6045
_cell_length_b 27.5594
_cell_length_c 47.8801
_cell_angle_alpha 89.906400
_cell_angle_beta 92.046400
_cell_angle_gamma 89.995200
loop_
  _atom_site_label
  _atom_site_type_symbol
  _atom_site_fract_x
  _atom_site_fract_y
  _atom_site_fract_z
C1 C -0.00188 0.39586 1.02575
 C2 C -0.00044 0.37110 1.00035
 C3 C 0.00102 0.39609 0.97501
 C4 C 0.00121 0.44735 0.97476
 C5 C -0.00041 0.47303 1.00039
 C6 C -0.00204 0.44722 1.02603
 C7 C -0.00378 0.47344 1.05116
 C8 C -0.00396 0.52395 1.05113
 C9 C -0.00226 0.55029 1.02597
 C10 C -0.00039 0.52458 1.00036
 C11 C 0.00296 0.47355 0.94961
 C12 C 0.00318 0.52405 0.94957
 C13 C 0.00150 0.55034 0.97471
 C14 C 0.00166 0.60169 0.97495
 C15 C -0.00035 0.62655 1.00029
 C16 C -0.00238 0.60164 1.02567
 H17 H -0.00509 0.45504 1.07112
 H18 H -0.00538 0.54226 1.07108
 H19 H 0.00425 0.45516 0.92968
 H20 H 0.00461 0.54240 0.92961
 H21 H -0.00044 0.33167 1.00023
 H22 H -0.00033 0.66600 1.00027
 C23 C 0.40042 0.00710 0.52653
 C24 C 0.37346 0.00738 0.50130
 C25 C 0.39617 0.00773 0.47570
 C26 C 0.44731 0.00768 0.47506
 C27 C 0.47513 0.00756 0.50057
 C28 C 0.45160 0.00736 0.52644
 C29 C 0.47983 0.00736 0.55147
 C30 C 0.53025 0.00755 0.55112
 C31 C 0.55439 0.00760 0.52571
 C32 C 0.52654 0.00755 0.50019
 C33 C 0.47132 0.00767 0.44965
 C34 C 0.52174 0.00745 0.44928
 C35 C 0.55001 0.00738 0.47430
 C36 C 0.60117 0.00709 0.47416
 C37 C 0.62822 0.00731 0.49936
 C38 C 0.60561 0.00763 0.52502
 H39 H 0.46312 0.00726 0.57158
 H40 H 0.55024 0.00758 0.57099
 H41 H 0.45127 0.00774 0.42980
 H42 H 0.53841 0.00738 0.42915
 H43 H 0.33415 0.00723 0.50158
 H44 H 0.66755 0.00714 0.49894
 C45 C 0.08423 0.00220 0.26281
 H46 H 0.08752 0.00186 0.24037
 C47 C 0.12583 0.00435 0.28032
 H48 H 0.16132 0.00545 0.27139
 C49 C 0.03407 0.00167 0.30201
 H50 H -0.00164 0.00142 0.31047
 C51 C 0.07462 0.00385 0.32021
 H52 H 0.06992 0.00467 0.34257
 N53 N 0.03951 0.00012 0.27388
 C54 C -0.05511 -0.06961 0.21085
 H55 H -0.08501 -0.04421 0.21020
 C56 C -0.05629 -0.11012 0.19336
 H57 H -0.08712 -0.11593 0.17913
 C58 C 0.02213 -0.09260 0.22975
 H59 H 0.05253 -0.08580 0.24401
 C60 C 0.02241 -0.13358 0.21261
 H61 H 0.05326 -0.15790 0.21350
 Zn62 Zn -0.01580 -0.00295 0.24928
 N63 N -0.01578 -0.06098 0.22808
 C64 C -0.01309 0.04512 0.19697
 N65 N -0.01388 0.05159 0.22513
 C66 C -0.01161 0.09679 0.23656
 C67 C -0.00990 0.13781 0.21938
 C68 C -0.01138 0.08506 0.17910
 C69 C -0.08067 -0.04165 0.28676
 C70 C -0.12036 -0.04262 0.30402
 C71 C -0.14495 0.03564 0.28560
 C72 C -0.10475 0.03516 0.26865
 N73 N -0.07296 -0.00263 0.27005
 H74 H -0.01346 0.00905 0.18824
 H75 H -0.01132 0.10090 0.25903
 H76 H -0.00851 0.17368 0.22859
 H77 H -0.01104 0.07953 0.15671
 H78 H -0.05513 -0.07145 0.28721
 H79 H -0.12542 -0.07318 0.31787
 H80 H -0.16939 0.06641 0.28496
 H81 H -0.09867 0.06532 0.25481
 C82 C -0.01688 -0.14202 0.19400
 C83 C 0.12089 0.00490 0.30929
 C84 C -0.15241 -0.00332 0.30370
 C85 C -0.01001 0.13180 0.19038
 C86 C 0.01125 0.09636 0.76302
 H87 H 0.01108 0.10056 0.74054
 C88 C 0.00946 0.13732 0.78016
 H89 H 0.00812 0.17323 0.77093
 C90 C 0.01255 0.04454 0.80264
 H91 H 0.01288 0.00844 0.81139
 C92 C 0.01075 0.08442 0.82048
 H93 H 0.01031 0.07880 0.84287
 N94 N 0.01348 0.05112 0.77447
 C95 C 0.08063 -0.04188 0.71302
 H96 H 0.05509 -0.07168 0.71254
 C97 C 0.12046 -0.04280 0.69586
 H98 H 0.12562 -0.07333 0.68205
 C99 C 0.10459 0.03485 0.73114
 H100 H 0.09842 0.06495 0.74495
 C101 C 0.14492 0.03537 0.71430
 H102 H 0.16938 0.06613 0.71498
 Zn103 Zn 0.01554 -0.00335 0.75038
 N104 N 0.07280 -0.00292 0.72969
 C105 C -0.03418 0.00132 0.69759
 N106 N -0.03969 -0.00027 0.72572
 C107 C -0.08444 0.00179 0.73674
 C108 C -0.12600 0.00394 0.71920
 C109 C -0.07469 0.00350 0.67936
 C110 C 0.05482 -0.07005 0.78892
 C111 C 0.05595 -0.11053 0.80650
 C112 C -0.02270 -0.13399 0.78725
 C113 C -0.02239 -0.09303 0.77001
 N114 N 0.01552 -0.06142 0.77165
 H115 H 0.00156 0.00109 0.68917
 H116 H -0.08778 0.00141 0.75919
 H117 H -0.16151 0.00502 0.72810
 H118 H -0.06993 0.00435 0.65699
 H119 H 0.08471 -0.04464 0.78954
 H120 H 0.08675 -0.11633 0.82078
 H121 H -0.05356 -0.15830 0.78640
 H122 H -0.05277 -0.08624 0.75573
 C123 C 0.15252 -0.00352 0.69624
 C124 C 0.00944 0.13119 0.80917
 C125 C 0.01654 -0.14241 0.80592
 C126 C -0.12098 0.00453 0.69023
 C127 C -0.00876 -0.31489 0.09387
 N128 N 0.03249 -0.29995 0.10748
 N129 N 0.03058 -0.26822 0.12839
 C130 C -0.01264 -0.25048 0.13632
 N131 N -0.05391 -0.26553 0.12276
 N132 N -0.05200 -0.29726 0.10185
 C133 C -0.00647 -0.34632 0.07010
 C134 C -0.00454 -0.37138 0.04955
 C135 C -0.01441 -0.21373 0.15746
 C136 C -0.01568 -0.18166 0.17451
 C137 C -0.00481 0.31110 0.09371
 N138 N 0.03712 0.29340 0.10532
 N139 N 0.03622 0.26064 0.12580
 C140 C -0.00664 0.24459 0.13529
 N141 N -0.04856 0.26243 0.12375
 N142 N -0.04766 0.29519 0.10327
 C143 C -0.00387 0.34325 0.07014
 C144 C -0.00300 0.36869 0.04965
 C145 C -0.00767 0.20644 0.15569
 C146 C -0.00865 0.17308 0.17198
 C147 C 0.32048 0.00374 0.59663
 N148 N 0.30308 0.04542 0.60747
 N149 N 0.27253 0.04400 0.62839
 C150 C 0.25844 0.00086 0.63910
 N151 N 0.27596 -0.04081 0.62831
 N152 N 0.30651 -0.03939 0.60739
 C153 C 0.35036 0.00514 0.57273
 C154 C 0.37397 0.00614 0.55204
 C155 C 0.22271 -0.00075 0.66012
 C156 C 0.19139 -0.00207 0.67702
 C157 C -0.30472 0.00806 0.59267
 N158 N -0.28400 0.05013 0.60162
 N159 N -0.25012 0.04986 0.62217
 C160 C -0.23594 0.00750 0.63438
 N161 N -0.25677 -0.03456 0.62549
 N162 N -0.29065 -0.03429 0.60495
 C163 C -0.33842 0.00797 0.56916
 C164 C -0.36535 0.00783 0.54877
 C165 C -0.19688 0.00680 0.65497
 C166 C -0.16288 0.00594 0.67148
 C167 C 0.00815 -0.31487 0.90659
 N168 N -0.03309 -0.29990 0.89292
 N169 N -0.03113 -0.26826 0.87191
 C170 C 0.01212 -0.25064 0.86392
 N171 N 0.05336 -0.26572 0.87753
 N172 N 0.05141 -0.29736 0.89854
 C173 C 0.00581 -0.34624 0.93044
 C174 C 0.00384 -0.37130 0.95103
 C175 C 0.01395 -0.21399 0.84267
 C176 C 0.01527 -0.18199 0.82552
 C177 C 0.00402 0.31004 0.90577
 N178 N 0.04688 0.29432 0.89615
 N179 N 0.04781 0.26166 0.87568
 C180 C 0.00591 0.24373 0.86421
 N181 N -0.03696 0.25958 0.87376
 N182 N -0.03789 0.29224 0.89423
 C183 C 0.00307 0.34212 0.92931
 C184 C 0.00220 0.36753 0.94976
 C185 C 0.00698 0.20568 0.84382
 C186 C 0.00801 0.17240 0.82755
 C187 C -0.31930 0.00382 0.40390
 N188 N -0.30544 -0.03930 0.39315
 N189 N -0.27511 -0.04069 0.37212
 C190 C -0.25771 0.00100 0.36122
 N191 N -0.27169 0.04412 0.37191
 N192 N -0.30203 0.04551 0.39293
 C193 C -0.34899 0.00519 0.42788
 C194 C -0.37247 0.00617 0.44862
 C195 C -0.22222 -0.00059 0.34006
 C196 C -0.19108 -0.00188 0.32306
 C197 C 0.30475 0.00830 0.40676
 N198 N 0.28395 0.05039 0.39779
 N199 N 0.25005 0.05015 0.37726
 C200 C 0.23592 0.00782 0.36508
 N201 N 0.25683 -0.03425 0.37398
 N202 N 0.29073 -0.03401 0.39451
 C203 C 0.33850 0.00818 0.43025
 C204 C 0.36550 0.00800 0.45060
 C205 C 0.19684 0.00714 0.34451
 C206 C 0.16282 0.00629 0.32801
   
