data_POSCAR
  _audit_creation_date              2014-09-24
  _audit_creation_method            'ToBaCCo'
  _symmetry_space_group_name_H-M    'P1'
  _symmetry_Int_Tables_number       1
  _symmetry_cell_setting            triclinic
  loop_
  _symmetry_equiv_pos_as_xyz
 x,y,z
_cell_length_a 8.9926
_cell_length_b 9.0093
_cell_length_c 24.6542
_cell_angle_alpha 95.044500
_cell_angle_beta 84.995600
_cell_angle_gamma 122.809400
loop_
  _atom_site_label
  _atom_site_type_symbol
  _atom_site_fract_x
  _atom_site_fract_y
  _atom_site_fract_z
C1 C -0.07788 -0.09134 0.50969
 C2 C 0.90795 -0.07898 0.15726
 C3 C 0.09658 1.09669 0.83332
 O4 O 0.35192 -0.00248 -0.07050
 O5 O 0.51929 -0.17173 0.02250
 O6 O 0.27550 -0.08417 0.03339
 O7 O 0.64074 -0.00803 -0.06832
 O8 O 0.80894 0.26104 -0.03118
 O9 O 0.45162 0.19102 0.06484
 O10 O 0.68499 0.09608 0.06076
 O11 O 0.52910 0.26702 -0.03466
 Cu12 Cu 0.42938 -0.09167 -0.02325
 Cu13 Cu 0.63559 0.22779 0.01924
 C14 C 0.41293 0.16185 -0.06834
 C15 C 0.63121 -0.06749 0.05702
 C16 C 0.30353 0.04656 0.06558
 C17 C 0.78814 0.14150 -0.06630
 O18 O -0.00219 0.35227 0.73732
 O19 O -0.17002 0.52040 0.64412
 O20 O -0.08300 0.27655 0.63328
 O21 O -0.00728 0.64092 0.73518
 O22 O 0.25975 0.81114 0.69684
 O23 O 0.18971 0.45551 0.60018
 O24 O 0.09852 0.68666 0.60613
 O25 O 0.26767 0.52860 0.70148
 Cu26 Cu -0.09064 0.43003 0.68999
 Cu27 Cu 0.22957 0.63619 0.64770
 C28 C 0.16230 0.41276 0.73513
 C29 C -0.06548 0.63261 0.60976
 C30 C 0.04634 0.30648 0.60006
 C31 C 0.14102 0.78935 0.73248
 O32 O 0.46871 0.65105 0.29073
 O33 O 0.17462 0.35314 0.38925
 O34 O 0.51324 0.60969 0.39324
 O35 O 0.20898 0.31035 0.28338
 O36 O 0.35426 0.17493 0.27757
 O37 O 0.65225 0.46933 0.37622
 O38 O 0.31126 0.20908 0.38344
 O39 O 0.61022 0.51319 0.27369
 Cu40 Cu 0.33161 0.49312 0.33974
 Cu41 Cu 0.49417 0.33196 0.32715
 C42 C 0.58576 0.63624 0.26411
 C43 C 0.18756 0.23095 0.40384
 C44 C 0.63695 0.58594 0.40285
 C45 C 0.23149 0.18727 0.26295
 N46 N -0.10040 0.02906 0.54840
 N47 N 0.03916 0.17293 0.56291
 N48 N 0.79187 0.76012 0.18710
 N49 N 0.69413 0.76866 0.22603
 N50 N 0.22714 0.15343 -0.13264
 N51 N 0.35563 0.23605 -0.10361
 N52 N -0.03022 0.80826 0.53931
 N53 N -0.13008 0.70716 0.57701
 N54 N 0.01134 0.06630 0.19682
 N55 N 0.11971 0.05724 0.22372
 N56 N 0.93521 0.06077 -0.13563
 N57 N 0.93699 0.17621 -0.10163
 N58 N 0.02893 -0.10093 0.11864
 N59 N 0.16905 0.03907 0.10242
 N60 N 0.76092 0.79231 0.47982
 N61 N 0.76962 0.69460 0.44094
 N62 N 0.15352 0.22704 0.79933
 N63 N 0.23648 0.35525 0.77034
 N64 N 0.80693 -0.03196 0.12761
 N65 N 0.70595 -0.13179 0.08982
 N66 N 0.06748 0.01197 0.47012
 N67 N 0.05750 0.11913 0.44301
 N68 N 0.06056 0.93556 0.80224
 N69 N 0.17538 0.93804 0.76773
   
