data_POSCAR
  _audit_creation_date              2014-09-24
  _audit_creation_method            'ToBaCCo'
  _symmetry_space_group_name_H-M    'P1'
  _symmetry_Int_Tables_number       1
  _symmetry_cell_setting            triclinic
  loop_
  _symmetry_equiv_pos_as_xyz
 x,y,z
_cell_length_a 12.8461
_cell_length_b 12.9398
_cell_length_c 14.6647
_cell_angle_alpha 89.886800
_cell_angle_beta 90.448800
_cell_angle_gamma 120.057800
loop_
  _atom_site_label
  _atom_site_type_symbol
  _atom_site_fract_x
  _atom_site_fract_y
  _atom_site_fract_z
O1 O 0.23100 0.45860 0.35171
 O2 O 0.10946 0.56808 0.32942
 C3 C 0.13882 0.66467 0.37158
 O4 O 0.23091 0.76360 0.35285
 O5 O 0.46260 0.88523 0.33269
 C6 C 0.53140 0.85650 0.37431
 O7 O 0.53889 0.76527 0.35476
 O8 O 0.42867 0.53518 0.33234
 C9 C 0.33048 0.46629 0.37240
 O10 O 0.24653 0.44137 0.17074
 O11 O 0.13241 0.55785 0.14589
 C12 C 0.13436 0.65437 0.12705
 O13 O 0.19750 0.75043 0.17153
 O14 O 0.42973 0.86509 0.14933
 C15 C 0.52479 0.86299 0.13101
 O16 O 0.55813 0.79897 0.17368
 O17 O 0.44173 0.56876 0.14916
 C18 C 0.34452 0.47459 0.12926
 Cr19 Cr 0.18585 0.51295 0.24951
 Cr20 Cr 0.33059 0.81004 0.25156
 Cr21 Cr 0.48536 0.66662 0.25243
 O22 O 0.33400 0.66318 0.25183
 O23 O 0.46350 0.22844 0.64644
 O24 O 0.57357 0.10754 0.66816
 C25 C 0.67139 0.13568 0.62788
 O26 O 0.77104 0.22694 0.64786
 O27 O 0.89279 0.45742 0.66828
 C28 C 0.86347 0.52573 0.62714
 O29 O 0.77199 0.53354 0.64700
 O30 O 0.54034 0.42438 0.66797
 C31 C 0.47097 0.32716 0.62680
 O32 O 0.44615 0.24302 0.82761
 O33 O 0.56279 0.12863 0.85130
 C34 C 0.66029 0.13158 0.87110
 O35 O 0.75806 0.19579 0.82920
 O36 O 0.87351 0.42600 0.85195
 C37 C 0.87140 0.52028 0.87078
 O38 O 0.80652 0.55303 0.82817
 O39 O 0.57459 0.43679 0.85125
 C40 C 0.47974 0.34019 0.87005
 Cr41 Cr 0.51805 0.18299 0.74839
 Cr42 Cr 0.81775 0.32699 0.74929
 Cr43 Cr 0.67294 0.48043 0.74863
 O44 O 0.66959 0.33010 0.74816
 C45 C 0.60777 -0.06553 0.44799
 C46 C 0.72148 -0.04535 0.46827
 C47 C 0.76226 0.03597 0.53759
 C48 C 0.66919 0.05701 0.55531
 O49 O 0.57544 -0.00400 0.50088
 H50 H 0.76944 -0.08369 0.43527
 H51 H 0.84843 0.07388 0.57217
 C52 C 1.06087 0.66203 0.44500
 C53 C 1.04045 0.75454 0.46455
 C54 C 0.96072 0.71430 0.53466
 C55 C 0.94085 0.60143 0.55364
 O56 O 1.00104 0.56906 0.49914
 H57 H 1.07780 0.84009 0.43070
 H58 H 0.92314 0.76204 0.56897
 C59 C 0.33234 0.39019 0.44568
 C60 C 0.23886 0.27714 0.46448
 C61 C 0.27978 0.23662 0.53410
 C62 C 0.39399 0.32916 0.55346
 O63 O 0.42646 0.42234 0.49975
 H64 H 0.15236 0.22947 0.43035
 H65 H 0.23167 0.15096 0.56782
 C66 C 0.60108 -0.06046 1.05713
 C67 C 0.71509 -0.03989 1.03873
 C68 C 0.75361 0.03641 0.96646
 C69 C 0.65976 0.05577 0.94589
 O70 O 0.56715 -0.00270 1.00086
 H71 H 0.76431 -0.07569 1.07414
 H72 H 0.83933 0.07294 0.93242
 C73 C 1.06636 0.65476 1.05746
 C74 C 1.05450 0.75149 1.03214
 C75 C 0.97757 0.71303 0.95932
 C76 C 0.94940 0.59652 0.94489
 O77 O 1.00273 0.56073 1.00431
 H78 H 1.09639 0.83927 1.06317
 H79 H 0.94699 0.76419 0.92053
 C80 C 0.34541 0.39914 1.05498
 C81 C 0.25178 0.28615 1.03509
 C82 C 0.29018 0.24796 0.96308
 C83 C 0.40392 0.34094 0.94413
 O84 O 0.43782 0.43276 0.99984
 H85 H 0.16622 0.23737 1.06936
 H86 H 0.24101 0.16299 0.92816
   
