data_POSCAR
  _audit_creation_date              2014-09-24
  _audit_creation_method            'ToBaCCo'
  _symmetry_space_group_name_H-M    'P1'
  _symmetry_Int_Tables_number       1
  _symmetry_cell_setting            triclinic
  loop_
  _symmetry_equiv_pos_as_xyz
 x,y,z
_cell_length_a 40.2720
_cell_length_b 40.5760
_cell_length_c 46.1752
_cell_angle_alpha 87.655000
_cell_angle_beta 91.287900
_cell_angle_gamma 93.735500
loop_
  _atom_site_label
  _atom_site_type_symbol
  _atom_site_fract_x
  _atom_site_fract_y
  _atom_site_fract_z
C1 C 1.20049 0.25832 0.30751
 H2 H 1.20264 0.23185 0.30827
 C3 C 1.17933 0.27224 0.32641
 H4 H 1.16520 0.25631 0.34171
 C5 C 1.21672 0.31113 0.28678
 H6 H 1.23179 0.32619 0.27164
 C7 C 1.19574 0.32614 0.30530
 H8 H 1.19538 0.35276 0.30420
 N9 N 1.21835 0.27773 0.28798
 C10 C 1.23436 0.21144 0.21841
 H11 H 1.26125 0.21198 0.21805
 C12 C 1.21533 0.19386 0.19776
 H13 H 1.22806 0.18119 0.18158
 C14 C 1.18561 0.22943 0.23889
 H15 H 1.17403 0.24404 0.25436
 C16 C 1.16568 0.21222 0.21873
 H17 H 1.13891 0.21345 0.21924
 Zn18 Zn 1.24605 0.25532 0.26386
 N19 N 1.21931 0.22871 0.23846
 C20 C 1.27394 0.19647 0.28715
 N21 N 1.27289 0.22973 0.28886
 C22 C 1.29056 0.24650 0.30958
 C23 C 1.31068 0.22991 0.32948
 C24 C 1.29381 0.17876 0.30667
 C25 C 1.25906 0.30528 0.22067
 C26 C 1.27853 0.32520 0.20131
 C27 C 1.32757 0.30267 0.22326
 C28 C 1.30717 0.28336 0.24219
 N29 N 1.27355 0.28491 0.24058
 H30 H 1.25932 0.18356 0.27074
 H31 H 1.28897 0.27294 0.31059
 H32 H 1.32453 0.24398 0.34572
 H33 H 1.29410 0.15244 0.30429
 H34 H 1.23222 0.30555 0.21943
 H35 H 1.26570 0.34065 0.18578
 H36 H 1.35424 0.30052 0.22481
 H37 H 1.31829 0.26641 0.25759
 C38 C 1.18040 0.19419 0.19777
 C39 C 1.17641 0.30648 0.32528
 C40 C 1.31351 0.32379 0.20212
 C41 C 1.31258 0.19552 0.32842
 C42 C 0.70377 -0.24015 0.30893
 H43 H 0.70959 -0.26576 0.31168
 C44 C 0.68429 -0.22625 0.32913
 H45 H 0.67531 -0.24131 0.34760
 C46 C 0.70812 -0.18969 0.28112
 H47 H 0.71708 -0.17582 0.26206
 C48 C 0.68866 -0.17473 0.30085
 H49 H 0.68300 -0.14936 0.29641
 N50 N 0.71513 -0.22184 0.28548
 C51 C 0.72038 -0.29282 0.21784
 H52 H 0.74670 -0.29275 0.21366
 C53 C 0.69769 -0.31278 0.20185
 H54 H 0.70700 -0.32780 0.18540
 C55 C 0.67634 -0.27147 0.24290
 H56 H 0.66784 -0.25492 0.25845
 C57 C 0.65289 -0.29085 0.22738
 H58 H 0.62667 -0.28917 0.23141
 Zn59 Zn 0.73965 -0.24368 0.25878
 N60 N 0.70944 -0.27271 0.23800
 C61 C 0.77635 -0.29948 0.27730
 N62 N 0.77178 -0.26696 0.28071
 C63 C 0.78926 -0.24971 0.30127
 C64 C 0.81274 -0.26481 0.31902
 C65 C 0.79964 -0.31569 0.29465
 C66 C 0.75579 -0.21352 0.20378
 C67 C 0.77327 -0.19168 0.18453
 C68 C 0.80159 -0.16655 0.22548
 C69 C 0.78365 -0.18893 0.24386
 N70 N 0.76170 -0.21228 0.23284
 H71 H 0.76180 -0.31311 0.26136
 H72 H 0.78431 -0.22432 0.30457
 H73 H 0.82607 -0.25038 0.33533
 H74 H 0.80252 -0.34142 0.29095
 H75 H 0.73758 -0.23153 0.19534
 H76 H 0.76758 -0.19368 0.16170
 H77 H 0.81923 -0.14851 0.23492
 H78 H 0.78737 -0.18753 0.26697
 C79 C 0.66338 -0.31192 0.20664
 C80 C 0.67643 -0.19318 0.32530
 C81 C 0.79717 -0.16803 0.19529
 C82 C 0.81822 -0.29832 0.31613
 C83 C 0.69164 0.26354 -0.19817
 H84 H 0.69152 0.23684 -0.19726
 C85 C 0.67015 0.27934 -0.18089
 H86 H 0.65362 0.26459 -0.16657
 C87 C 0.71319 0.31498 -0.21826
 H88 H 0.73013 0.32872 -0.23279
 C89 C 0.69196 0.33186 -0.20136
 H90 H 0.69337 0.35855 -0.20299
 N91 N 0.71216 0.28138 -0.21675
 C92 C 0.72359 0.21799 -0.28871
 H93 H 0.75035 0.21678 -0.28870
 C94 C 0.70397 0.20277 -0.31026
 H95 H 0.71618 0.19027 -0.32685
 C96 C 0.67588 0.23784 -0.26786
 H97 H 0.66505 0.25213 -0.25173
 C98 C 0.65532 0.22288 -0.28891
 H99 H 0.62872 0.22543 -0.28849
 Zn100 Zn 0.73776 0.25649 -0.24066
 N101 N 0.70932 0.23481 -0.26792
 C102 C 0.75523 0.19242 -0.22066
 N103 N 0.75955 0.22542 -0.21657
 C104 C 0.77948 0.23738 -0.19478
 C105 C 0.79718 0.21603 -0.17674
 C106 C 0.77235 0.17011 -0.20306
 C107 C 0.75827 0.30507 -0.28266
 C108 C 0.78034 0.32214 -0.30176
 C109 C 0.82536 0.29415 -0.27826
 C110 C 0.80241 0.27766 -0.25966
 N111 N 0.76953 0.28325 -0.26221
 H112 H 0.73865 0.18331 -0.23765
 H113 H 0.78189 0.26372 -0.19166
 H114 H 0.81249 0.22683 -0.15968
 H115 H 0.76879 0.14395 -0.20698
 H116 H 0.73187 0.30836 -0.28478
 H117 H 0.76997 0.33851 -0.31807
 H118 H 0.85133 0.28878 -0.27604
 H119 H 0.81088 0.25952 -0.24391
 C120 C 0.66922 0.20481 -0.31031
 C121 C 0.66963 0.31387 -0.18267
 C122 C 0.81459 0.31652 -0.29998
 C123 C 0.79423 0.18170 -0.18101
 C124 C 1.18491 -0.24780 -0.19440
 H125 H 1.18008 -0.27380 -0.19794
 C126 C 1.16418 -0.23205 -0.17638
 H127 H 1.14403 -0.24635 -0.16565
 C128 C 1.21578 -0.19730 -0.20516
 H129 H 1.23548 -0.18362 -0.21676
 C130 C 1.19564 -0.18052 -0.18725
 H131 H 1.20109 -0.15434 -0.18479
 N132 N 1.21039 -0.23046 -0.20815
 C133 C 1.21078 -0.30713 -0.26718
 H134 H 1.23131 -0.32023 -0.25800
 C135 C 1.18986 -0.32180 -0.28821
 H136 H 1.19488 -0.34612 -0.29502
 C137 C 1.18121 -0.25843 -0.27085
 H138 H 1.17848 -0.23347 -0.26430
 C139 C 1.15975 -0.27212 -0.29190
 H140 H 1.14031 -0.25763 -0.30137
 Zn141 Zn 1.23619 -0.25401 -0.23325
 N142 N 1.20620 -0.27593 -0.25911
 C143 C 1.24399 -0.31037 -0.19626
 N144 N 1.26081 -0.28545 -0.21146
 C145 C 1.29467 -0.28290 -0.21124
 C146 C 1.31289 -0.30515 -0.19452
 C147 C 1.26115 -0.33326 -0.17938
 C148 C 1.26267 -0.22549 -0.28475
 C149 C 1.28368 -0.20524 -0.30238
 C150 C 1.31031 -0.18303 -0.25939
 C151 C 1.28879 -0.20396 -0.24254
 N152 N 1.26548 -0.22465 -0.25541
 H153 H 1.21717 -0.31278 -0.19736
 H154 H 1.30779 -0.26349 -0.22391
 H155 H 1.33967 -0.30160 -0.19474
 H156 H 1.24700 -0.35267 -0.16732
 H157 H 1.24417 -0.24205 -0.29476
 H158 H 1.27965 -0.20644 -0.32550
 H159 H 1.32872 -0.16684 -0.24864
 H160 H 1.29084 -0.20387 -0.21914
 C161 C 1.16395 -0.30413 -0.30090
 C162 C 1.16926 -0.19798 -0.17270
 C163 C 1.30836 -0.18376 -0.28981
 C164 C 1.29612 -0.33080 -0.17796
 C165 C 0.26199 0.19521 0.70431
 H166 H 0.23554 0.19429 0.70817
 C167 C 0.27494 0.17136 0.68771
 H168 H 0.25825 0.15220 0.67873
 C169 C 0.31574 0.22116 0.71179
 H170 H 0.33153 0.24033 0.72165
 C171 C 0.32981 0.19777 0.69510
 H172 H 0.35649 0.19923 0.69264
 N173 N 0.28230 0.21964 0.71575
 C174 C 0.20095 0.22705 0.76815
 H175 H 0.18908 0.24636 0.75577
 C176 C 0.18256 0.20689 0.78816
 H177 H 0.15676 0.21171 0.79060
 C178 C 0.24927 0.19849 0.77952
 H179 H 0.27537 0.19551 0.77605
 C180 C 0.23198 0.17775 0.79957
 H181 H 0.24529 0.15887 0.81134
 Zn182 Zn 0.26068 0.24934 0.73851
 N183 N 0.23375 0.22273 0.76451
 C184 C 0.22158 0.30321 0.72589
 N185 N 0.23464 0.27678 0.71428
 C186 C 0.23119 0.27130 0.68549
 C187 C 0.21353 0.29245 0.66723
 C188 C 0.20422 0.32540 0.70832
 C189 C 0.28758 0.27640 0.78950
 C190 C 0.30548 0.29927 0.80643
 C191 C 0.33064 0.32365 0.76302
 C192 C 0.31199 0.30022 0.74683
 N193 N 0.29073 0.27736 0.76024
 H194 H 0.22518 0.30736 0.74878
 H195 H 0.24257 0.25080 0.67642
 H196 H 0.21219 0.28748 0.64442
 H197 H 0.19427 0.34645 0.71803
 H198 H 0.27033 0.25846 0.79991
 H199 H 0.30209 0.29680 0.82953
 H200 H 0.34699 0.34197 0.75180
 H201 H 0.31369 0.30093 0.72346
 C202 C 0.19812 0.18169 0.80447
 C203 C 0.30916 0.17255 0.68262
 C204 C 0.32693 0.32410 0.79326
 C205 C 0.19963 0.32010 0.67855
 C206 C 0.76304 0.70556 0.69510
 H207 H 0.73647 0.70801 0.69563
 C208 C 0.77621 0.68707 0.67386
 H209 H 0.75964 0.67527 0.65804
 C210 C 0.81689 0.71840 0.71495
 H211 H 0.83265 0.73114 0.73070
 C212 C 0.83114 0.69982 0.69417
 H213 H 0.85791 0.69883 0.69408
 N214 N 0.78332 0.72053 0.71524
 C215 C 0.71893 0.72826 0.78882
 H216 H 0.71987 0.75474 0.79110
 C217 C 0.70012 0.70736 0.80791
 H218 H 0.68721 0.71885 0.82464
 C219 C 0.73622 0.68242 0.76434
 H220 H 0.75071 0.67271 0.74764
 C221 C 0.71787 0.66060 0.78290
 H222 H 0.71842 0.63429 0.77982
 Zn223 Zn 0.76174 0.74498 0.74244
 N224 N 0.73615 0.71559 0.76737
 C225 C 0.70066 0.77214 0.72387
 N226 N 0.73418 0.77329 0.72065
 C227 C 0.74944 0.79403 0.70051
 C228 C 0.73110 0.81542 0.68309
 C229 C 0.68124 0.79294 0.70675
 C230 C 0.81423 0.75474 0.78349
 C231 C 0.83603 0.77285 0.80177
 C232 C 0.81257 0.82291 0.78314
 C233 C 0.79127 0.80383 0.76531
 N234 N 0.79252 0.77041 0.76561
 H235 H 0.68885 0.75492 0.73950
 H236 H 0.77609 0.79397 0.69807
 H237 H 0.74463 0.83135 0.66756
 H238 H 0.65455 0.79154 0.70972
 H239 H 0.81435 0.72808 0.78376
 H240 H 0.85299 0.75972 0.81588
 H241 H 0.81056 0.84930 0.78176
 H242 H 0.77334 0.81590 0.75157
 C243 C 0.69915 0.67272 0.80508
 C244 C 0.81057 0.68364 0.67342
 C245 C 0.83536 0.80749 0.80205
 C246 C 0.69627 0.81517 0.68600
 C247 C 0.76285 0.19010 0.20916
 H248 H 0.73640 0.18799 0.21313
 C249 C 0.77664 0.16818 0.19106
 H250 H 0.76060 0.14924 0.18103
 C251 C 0.81578 0.21749 0.21747
 H252 H 0.83081 0.23697 0.22767
 C253 C 0.83065 0.19608 0.19944
 H254 H 0.85705 0.19987 0.19574
 N255 N 0.78246 0.21409 0.22194
 C256 C 0.70308 0.21960 0.27817
 H257 H 0.69131 0.24003 0.26751
 C258 C 0.68501 0.19906 0.29805
 H259 H 0.65992 0.20482 0.30274
 C260 C 0.75001 0.18777 0.28522
 H261 H 0.77510 0.18295 0.27965
 C262 C 0.73290 0.16661 0.30512
 H263 H 0.74529 0.14603 0.31516
 Zn264 Zn 0.76159 0.24191 0.24677
 N265 N 0.73526 0.21409 0.27261
 C266 C 0.71715 0.29315 0.23777
 N267 N 0.73487 0.27095 0.22441
 C268 C 0.73514 0.27014 0.19503
 C269 C 0.71705 0.29202 0.17787
 C270 C 0.69856 0.31543 0.22148
 C271 C 0.81476 0.25131 0.28729
 C272 C 0.83707 0.26928 0.30512
 C273 C 0.81775 0.31970 0.28310
 C274 C 0.79602 0.30070 0.26553
 N275 N 0.79417 0.26715 0.26845
 H276 H 0.71793 0.29396 0.26117
 H277 H 0.74985 0.25280 0.18472
 H278 H 0.71852 0.29033 0.15470
 H279 H 0.68475 0.33289 0.23272
 H280 H 0.81374 0.22468 0.28878
 H281 H 0.85272 0.25599 0.32034
 H282 H 0.81829 0.34623 0.27993
 H283 H 0.78052 0.31299 0.24968
 C284 C 0.70005 0.17217 0.31191
 C285 C 0.81097 0.17080 0.18614
 C286 C 0.83817 0.30399 0.30389
 C287 C 0.69823 0.31527 0.19103
 C288 C 0.28255 0.72742 0.17933
 H289 H 0.26160 0.74029 0.17086
 C290 C 0.30198 0.71171 0.16016
 H291 H 0.29602 0.71325 0.13716
 C292 C 0.31513 0.70879 0.21926
 H293 H 0.32011 0.70747 0.24232
 C294 C 0.33508 0.69236 0.20079
 H295 H 0.35562 0.67926 0.20998
 N296 N 0.28953 0.72616 0.20832
 C297 C 0.21919 0.72946 0.27831
 H298 H 0.21928 0.75592 0.28048
 C299 C 0.20228 0.70814 0.29824
 H300 H 0.18985 0.71873 0.31581
 C301 C 0.23757 0.68412 0.25365
 H302 H 0.25173 0.67496 0.23642
 C303 C 0.22091 0.66185 0.27312
 H304 H 0.22225 0.63553 0.27067
 Zn305 Zn 0.26149 0.74838 0.23308
 N306 N 0.23647 0.71723 0.25666
 C307 C 0.19890 0.76830 0.21045
 N308 N 0.23251 0.77408 0.20967
 C309 C 0.24664 0.79812 0.19168
 C310 C 0.22695 0.81781 0.17385
 C311 C 0.17816 0.78733 0.19285
 C312 C 0.30491 0.76206 0.28043
 C313 C 0.32040 0.78102 0.30210
 C314 C 0.29775 0.82943 0.27930
 C315 C 0.28265 0.80952 0.25817
 N316 N 0.28652 0.77642 0.25893
 H317 H 0.18809 0.74881 0.22460
 H318 H 0.27347 0.80196 0.19121
 H319 H 0.23971 0.83649 0.16018
 H320 H 0.15146 0.78220 0.19388
 H321 H 0.30632 0.73555 0.28161
 H322 H 0.33398 0.76819 0.31900
 H323 H 0.29385 0.85564 0.27827
 H324 H 0.26691 0.82061 0.24185
 C325 C 0.20293 0.67375 0.29575
 C326 C 0.32851 0.69376 0.17075
 C327 C 0.31676 0.81539 0.30192
 C328 C 0.19195 0.81263 0.17415
 O329 O 1.05996 0.01900 0.03299
 O330 O 0.94427 -0.02017 0.03529
 O331 O 0.99212 0.05535 0.04255
 O332 O 1.01425 -0.05658 0.02986
 O333 O 0.94296 0.03734 0.02959
 O334 O 1.06050 -0.03374 0.01513
 O335 O 0.95684 -0.06110 0.01215
 O336 O 1.04600 0.06645 0.02026
 C337 C 1.06084 0.04848 0.03794
 C338 C 0.94400 -0.05033 0.03371
 C339 C 0.96236 0.04994 0.04840
 C340 C 1.04471 -0.05190 0.03342
 O341 O 1.05083 -0.00716 -0.04073
 O342 O 0.94157 0.03147 -0.03035
 O343 O 1.01529 0.06799 -0.03212
 O344 O 0.97730 -0.04499 -0.04136
 O345 O 0.93359 -0.02634 -0.02389
 O346 O 1.06144 0.04612 -0.02353
 O347 O 1.03359 -0.05468 -0.02562
 O348 O 0.96318 0.07200 -0.00820
 Co349 Co 1.05282 0.00608 -0.00372
 Co350 Co 0.94607 0.00562 0.00234
 Co351 Co 1.00378 0.05934 0.00499
 Co352 Co 0.99599 -0.04815 -0.00560
 O353 O 0.99964 0.00570 -0.00050
 C354 C 1.04730 -0.03687 -0.04496
 C355 C 0.94615 0.06162 -0.02900
 C356 C 1.04383 0.06377 -0.03968
 C357 C 0.94746 -0.03955 -0.04413
 O358 O 1.06168 0.51828 0.53149
 O359 O 0.94638 0.48681 0.53770
 O360 O 0.98828 0.55822 0.53284
 O361 O 1.01954 0.44585 0.53397
 O362 O 0.94058 0.54183 0.51782
 O363 O 1.06432 0.46360 0.51406
 O364 O 0.96185 0.44038 0.52437
 O365 O 1.04323 0.56433 0.51701
 C366 C 1.05799 0.54752 0.53604
 C367 C 0.94883 0.45702 0.54296
 C368 C 0.95820 0.55589 0.53669
 C369 C 1.05007 0.44781 0.53446
 O370 O 1.05361 0.48799 0.45960
 O371 O 0.94200 0.51792 0.46405
 O372 O 1.01951 0.55894 0.46043
 O373 O 0.97526 0.44641 0.46541
 O374 O 0.93296 0.46301 0.48485
 O375 O 1.06556 0.54300 0.47618
 O376 O 1.03231 0.44130 0.47568
 O377 O 0.96512 0.56437 0.47575
 Co378 Co 1.05520 0.50321 0.49563
 Co379 Co 0.94653 0.50248 0.50081
 Co380 Co 1.00372 0.55605 0.49668
 Co381 Co 0.99752 0.44901 0.49969
 O382 O 1.00076 0.50268 0.49824
 C383 C 1.04693 0.45834 0.45590
 C384 C 0.94791 0.54753 0.45807
 C385 C 1.04937 0.55716 0.45662
 C386 C 0.94512 0.44943 0.46430
 O387 O 0.55412 0.01481 0.53908
 O388 O 0.44381 -0.03665 0.54198
 O389 O 0.47970 0.04338 0.54193
 O390 O 0.52020 -0.06394 0.54025
 O391 O 0.43346 0.01918 0.52884
 O392 O 0.56389 -0.03820 0.52383
 O393 O 0.46421 -0.07758 0.52368
 O394 O 0.53342 0.05872 0.52320
 C395 C 0.55009 0.04415 0.54222
 C396 C 0.44945 -0.06612 0.54398
 C397 C 0.45026 0.03574 0.54702
 C398 C 0.55010 -0.05608 0.54335
 O399 O 0.55254 -0.01647 0.46727
 O400 O 0.43689 0.00376 0.47131
 O401 O 0.50757 0.05156 0.46842
 O402 O 0.48324 -0.06485 0.46868
 O403 O 0.43612 -0.05303 0.48442
 O404 O 0.55570 0.03836 0.48232
 O405 O 0.54010 -0.06464 0.48431
 O406 O 0.45273 0.05009 0.48790
 Co407 Co 0.55094 -0.00115 0.50328
 Co408 Co 0.44326 -0.01589 0.50651
 Co409 Co 0.49380 0.04506 0.50526
 Co410 Co 0.50155 -0.06186 0.50436
 O411 O 0.49734 -0.00846 0.50484
 C412 C 0.55178 -0.04641 0.46418
 C413 C 0.43795 0.03402 0.46852
 C414 C 0.53746 0.05126 0.46340
 C415 C 0.45279 -0.06506 0.46525
 O416 O 0.56656 0.52924 0.02902
 O417 O 0.44176 0.45367 0.02090
 O418 O 0.46556 0.55486 0.02115
 O419 O 0.54265 0.42997 0.01436
 O420 O 0.44773 0.50765 0.03606
 O421 O 0.56018 0.47191 0.03660
 O422 O 0.48748 0.43313 0.03466
 O423 O 0.52061 0.54700 0.04278
 C424 C 0.55015 0.54157 0.04812
 C425 C 0.45793 0.43751 0.03949
 C426 C 0.45083 0.53741 0.04008
 C427 C 0.55759 0.44162 0.03566
 O428 O 0.56506 0.46447 -0.02285
 O429 O 0.44430 0.53124 -0.02136
 O430 O 0.54661 0.56216 -0.00902
 O431 O 0.46266 0.43122 -0.01939
 O432 O 0.44815 0.47685 -0.03674
 O433 O 0.56206 0.52149 -0.03065
 O434 O 0.51814 0.44329 -0.03846
 O435 O 0.49160 0.55567 -0.03157
 Co436 Co 0.55807 0.49658 0.00290
 Co437 Co 0.45084 0.49260 -0.00018
 Co438 Co 0.50588 0.54880 0.00541
 Co439 Co 0.50289 0.44063 -0.00178
 O440 O 0.50443 0.49468 0.00158
 C441 C 0.54803 0.45099 -0.04265
 C442 C 0.46193 0.54971 -0.03814
 C443 C 0.56033 0.55160 -0.03016
 C444 C 0.44892 0.44682 -0.03933
 C445 C 1.15854 0.17787 0.17561
 C446 C 1.16861 0.15388 0.15741
 C447 C 1.14650 0.13902 0.13467
 C448 C 1.15300 0.10793 0.12471
 C449 C 1.13291 0.09329 0.10307
 C450 C 1.10583 0.10960 0.09083
 C451 C 1.09982 0.14104 0.10031
 C452 C 1.11986 0.15563 0.12199
 C453 C 1.08424 0.09532 0.06747
 C454 C 1.08128 0.06166 0.06209
 H455 H 1.19289 0.14427 0.16071
 H456 H 1.17372 0.09489 0.13373
 H457 H 1.13919 0.06958 0.09569
 H458 H 1.07953 0.15440 0.09088
 H459 H 1.11477 0.18017 0.12824
 H460 H 1.06944 0.11189 0.05440
 H461 H 1.13292 0.18443 0.17433
 H462 H 1.09409 0.04419 0.07587
 C463 C 1.14230 0.68278 0.67531
 C464 C 1.13822 0.64927 0.66944
 C465 C 1.11909 0.63648 0.64408
 C466 C 1.10832 0.60290 0.64444
 C467 C 1.09191 0.58930 0.62035
 C468 C 1.08634 0.60898 0.59513
 C469 C 1.09631 0.64273 0.59498
 C470 C 1.11279 0.65637 0.61909
 C471 C 1.07059 0.59489 0.56874
 C472 C 1.07323 0.56199 0.56210
 H473 H 1.14867 0.63134 0.68442
 H474 H 1.11273 0.58708 0.66342
 H475 H 1.08354 0.56341 0.62167
 H476 H 1.09220 0.65839 0.57583
 H477 H 1.12135 0.68218 0.61763
 H478 H 1.05833 0.61120 0.55336
 H479 H 1.12847 0.70031 0.66247
 H480 H 1.08732 0.54598 0.57631
 C481 C 0.64686 0.18927 0.66753
 C482 C 0.65594 0.16356 0.65078
 C483 C 0.63338 0.14691 0.62941
 C484 C 0.64097 0.11569 0.62055
 C485 C 0.62052 0.09885 0.60053
 C486 C 0.59182 0.11287 0.58894
 C487 C 0.58470 0.14453 0.59709
 C488 C 0.60522 0.16145 0.61718
 C489 C 0.56982 0.09557 0.56754
 C490 C 0.56795 0.06132 0.56574
 H491 H 0.67987 0.15342 0.65477
 H492 H 0.66284 0.10421 0.62918
 H493 H 0.62777 0.07515 0.59386
 H494 H 0.56314 0.15614 0.58799
 H495 H 0.59915 0.18598 0.62261
 H496 H 0.55469 0.11014 0.55288
 H497 H 0.62168 0.19704 0.66584
 H498 H 0.58114 0.04626 0.58145
 C499 C 0.63780 0.66910 0.18946
 C500 C 0.64409 0.64081 0.17483
 C501 C 0.61904 0.62325 0.15601
 C502 C 0.62371 0.59047 0.14937
 C503 C 0.60213 0.57380 0.12999
 C504 C 0.57563 0.58982 0.11645
 C505 C 0.57014 0.62214 0.12391
 C506 C 0.59175 0.63885 0.14331
 C507 C 0.55466 0.57421 0.09338
 C508 C 0.56747 0.55228 0.07474
 H509 H 0.66805 0.63039 0.17784
 H510 H 0.64438 0.57780 0.15898
 H511 H 0.60649 0.54850 0.12548
 H512 H 0.54989 0.63499 0.11378
 H513 H 0.58762 0.66431 0.14733
 H514 H 0.53034 0.58331 0.08859
 H515 H 0.61271 0.67717 0.18938
 H516 H 0.59280 0.54525 0.07787
 C517 C 0.81692 -0.14606 0.17741
 C518 C 0.81778 -0.14679 0.14714
 C519 C 0.84055 -0.12452 0.12940
 C520 C 0.84999 -0.13489 0.10236
 C521 C 0.87155 -0.11483 0.08495
 C522 C 0.88414 -0.08377 0.09423
 C523 C 0.87397 -0.07296 0.12091
 C524 C 0.85244 -0.09311 0.13840
 C525 C 0.90640 -0.06154 0.07599
 C526 C 0.92574 -0.07291 0.05426
 H527 H 0.80353 -0.16586 0.13578
 H528 H 0.84073 -0.15871 0.09469
 H529 H 0.87764 -0.12355 0.06403
 H530 H 0.88273 -0.04884 0.12826
 H531 H 0.84476 -0.08370 0.15861
 H532 H 0.90756 -0.03530 0.07977
 H533 H 0.83392 -0.12840 0.18803
 H534 H 0.92666 -0.09912 0.05126
 C535 C 0.83824 0.33116 0.68055
 C536 C 0.83149 0.35458 0.65846
 C537 C 0.85665 0.36793 0.63741
 C538 C 0.85266 0.39910 0.62407
 C539 C 0.87518 0.41235 0.60351
 C540 C 0.90227 0.39460 0.59568
 C541 C 0.90587 0.36304 0.60845
 C542 C 0.88339 0.34983 0.62926
 C543 C 0.92578 0.40805 0.57326
 C544 C 0.93238 0.44197 0.56873
 H545 H 0.80756 0.36514 0.65696
 H546 H 0.83194 0.41327 0.62953
 H547 H 0.87075 0.43618 0.59329
 H548 H 0.92612 0.34862 0.60232
 H549 H 0.88658 0.32520 0.63832
 H550 H 0.93745 0.39107 0.55976
 H551 H 0.86360 0.32394 0.68302
 H552 H 0.92263 0.45872 0.58360
 C553 C 0.33071 -0.16301 0.69358
 C554 C 0.33455 -0.16540 0.66367
 C555 C 0.35699 -0.14289 0.64593
 C556 C 0.36728 -0.15381 0.61935
 C557 C 0.38684 -0.13298 0.60094
 C558 C 0.39658 -0.10056 0.60870
 C559 C 0.38610 -0.08945 0.63519
 C560 C 0.36657 -0.11044 0.65376
 C561 C 0.41560 -0.07739 0.58869
 C562 C 0.43564 -0.08823 0.56723
 H563 H 0.32228 -0.18582 0.65252
 H564 H 0.35978 -0.17850 0.61259
 H565 H 0.39325 -0.14211 0.58025
 H566 H 0.39278 -0.06439 0.64140
 H567 H 0.35826 -0.10084 0.67368
 H568 H 0.41325 -0.05110 0.59055
 H569 H 0.34687 -0.14512 0.70481
 H570 H 0.44039 -0.11412 0.56652
 C571 C 0.33498 0.34150 0.18241
 C572 C 0.32481 0.36302 0.15987
 C573 C 0.34745 0.37904 0.13770
 C574 C 0.38245 0.38051 0.14058
 C575 C 0.40241 0.39541 0.11860
 C576 C 0.38781 0.40930 0.09339
 C577 C 0.35299 0.40850 0.09091
 C578 C 0.33310 0.39354 0.11272
 C579 C 0.40752 0.42553 0.06947
 C580 C 0.44121 0.42152 0.06493
 H581 H 0.29882 0.36755 0.15702
 H582 H 0.39477 0.37074 0.15977
 H583 H 0.42913 0.39642 0.12176
 H584 H 0.34104 0.41927 0.07185
 H585 H 0.30629 0.39309 0.10991
 H586 H 0.39420 0.44049 0.05370
 H587 H 0.36113 0.33717 0.18448
 H588 H 0.45536 0.40600 0.07950
 C589 C 0.81194 0.15862 -0.16426
 C590 C 0.83708 0.16692 -0.14386
 C591 C 0.85527 0.14218 -0.12642
 C592 C 0.88654 0.15194 -0.11448
 C593 C 0.90412 0.12996 -0.09696
 C594 C 0.89053 0.09774 -0.09061
 C595 C 0.85954 0.08771 -0.10295
 C596 C 0.84190 0.10974 -0.12051
 C597 C 0.90789 0.07427 -0.07112
 C598 C 0.93030 0.08474 -0.04939
 H599 H 0.84559 0.19245 -0.14138
 H600 H 0.89748 0.17672 -0.11878
 H601 H 0.92842 0.13832 -0.08867
 H602 H 0.84858 0.06299 -0.09842
 H603 H 0.81754 0.10145 -0.12869
 H604 H 0.90118 0.04808 -0.07261
 H605 H 0.80665 0.13271 -0.16836
 H606 H 0.93551 0.11083 -0.04615
 C607 C 0.84137 0.68717 0.33521
 C608 C 0.84766 0.65362 0.33675
 C609 C 0.86981 0.63929 0.35927
 C610 C 0.86317 0.60632 0.36868
 C611 C 0.88262 0.59203 0.39056
 C612 C 0.90980 0.61028 0.40316
 C613 C 0.91669 0.64321 0.39351
 C614 C 0.89704 0.65758 0.37167
 C615 C 0.93039 0.59608 0.42702
 C616 C 0.93160 0.56213 0.43237
 H617 H 0.83386 0.63637 0.32311
 H618 H 0.84227 0.59175 0.35957
 H619 H 0.87554 0.56700 0.39792
 H620 H 0.93741 0.65782 0.40284
 H621 H 0.90346 0.68283 0.36441
 H622 H 0.94478 0.61281 0.44089
 H623 H 0.85411 0.70295 0.35085
 H624 H 0.91908 0.54503 0.41776
 C625 C 0.33300 0.17974 0.34914
 C626 C 0.33637 0.14562 0.35196
 C627 C 0.35755 0.13034 0.37478
 C628 C 0.34973 0.09743 0.38392
 C629 C 0.36885 0.08208 0.40548
 C630 C 0.39669 0.09921 0.41809
 C631 C 0.40459 0.13212 0.40893
 C632 C 0.38542 0.14751 0.38734
 C633 C 0.41735 0.08374 0.44118
 C634 C 0.41917 0.04962 0.44469
 H635 H 0.32159 0.12889 0.33853
 H636 H 0.32838 0.08368 0.37465
 H637 H 0.36123 0.05704 0.41253
 H638 H 0.42590 0.14584 0.41828
 H639 H 0.39290 0.17259 0.38030
 H640 H 0.43222 0.09970 0.45538
 H641 H 0.34634 0.19521 0.36467
 H642 H 0.40644 0.03337 0.42945
 C643 C 0.31246 0.64642 -0.15971
 C644 C 0.34705 0.64575 -0.15579
 C645 C 0.36309 0.62344 -0.13419
 C646 C 0.39686 0.61779 -0.13715
 C647 C 0.41336 0.59819 -0.11655
 C648 C 0.39640 0.58405 -0.09233
 C649 C 0.36255 0.58925 -0.08958
 C650 C 0.34609 0.60896 -0.11007
 C651 C 0.41300 0.56406 -0.06940
 C652 C 0.44717 0.56702 -0.06339
 H653 H 0.36359 0.66163 -0.16907
 H654 H 0.41057 0.62863 -0.15548
 H655 H 0.43924 0.59408 -0.11985
 H656 H 0.34894 0.57870 -0.07108
 H657 H 0.32041 0.61340 -0.10632
 H658 H 0.39728 0.54830 -0.05514
 H659 H 0.29691 0.62806 -0.14780
 H660 H 0.46335 0.58386 -0.07624
 C661 C 1.14705 -0.18207 -0.15314
 C662 C 1.14377 -0.14800 -0.15298
 C663 C 1.12217 -0.13254 -0.13255
 C664 C 1.11237 -0.10045 -0.13909
 C665 C 1.09269 -0.08473 -0.11998
 C666 C 1.08267 -0.10082 -0.09377
 C667 C 1.09219 -0.13297 -0.08736
 C668 C 1.11199 -0.14858 -0.10633
 C669 C 1.06281 -0.08501 -0.07233
 C670 C 1.06252 -0.05088 -0.06990
 H671 H 1.15627 -0.13196 -0.16915
 H672 H 1.11989 -0.08752 -0.15911
 H673 H 1.08523 -0.06021 -0.12597
 H674 H 1.08493 -0.14582 -0.06723
 H675 H 1.11979 -0.17284 -0.09991
 H676 H 1.05043 -0.10099 -0.05596
 H677 H 1.13150 -0.19832 -0.13922
 H678 H 1.07591 -0.03410 -0.08498
 C679 C 1.15393 0.32049 0.34590
 C680 C 1.14178 0.35189 0.34227
 C681 C 1.12058 0.36612 0.36375
 C682 C 1.12083 0.40057 0.36494
 C683 C 1.10217 0.41521 0.38543
 C684 C 1.08219 0.39562 0.40503
 C685 C 1.08137 0.36110 0.40335
 C686 C 1.10024 0.34644 0.38291
 C687 C 1.06337 0.41000 0.42829
 C688 C 1.05973 0.44379 0.43015
 H689 H 1.14910 0.36749 0.32366
 H690 H 1.13621 0.41628 0.35038
 H691 H 1.10441 0.44182 0.38600
 H692 H 1.06620 0.34536 0.41805
 H693 H 1.09854 0.31979 0.38209
 H694 H 1.05323 0.39343 0.44535
 H695 H 1.14665 0.30510 0.36466
 H696 H 1.06858 0.46101 0.41319
 C697 C 0.65507 -0.17961 0.34701
 C698 C 0.64906 -0.14622 0.34852
 C699 C 0.62823 -0.13357 0.37104
 C700 C 0.61373 -0.10336 0.36560
 C701 C 0.59453 -0.09020 0.38657
 C702 C 0.58983 -0.10687 0.41362
 C703 C 0.60400 -0.13723 0.41895
 C704 C 0.62327 -0.15035 0.39804
 C705 C 0.57079 -0.09328 0.43683
 C706 C 0.56746 -0.05954 0.43916
 H707 H 0.65921 -0.12846 0.33248
 H708 H 0.61714 -0.08999 0.34498
 H709 H 0.58323 -0.06718 0.38135
 H710 H 0.60082 -0.15046 0.43967
 H711 H 0.63483 -0.17315 0.40352
 H712 H 0.56145 -0.11013 0.45402
 H713 H 0.64350 -0.19714 0.36257
 H714 H 0.57833 -0.04194 0.42328
 C715 C 0.64572 0.32962 -0.16449
 C716 C 0.63729 0.36243 -0.16812
 C717 C 0.61344 0.37690 -0.14908
 C718 C 0.61738 0.41071 -0.14371
 C719 C 0.59662 0.42472 -0.12439
 C720 C 0.57128 0.40514 -0.11028
 C721 C 0.56598 0.37183 -0.11706
 C722 C 0.58693 0.35774 -0.13619
 C723 C 0.55110 0.41843 -0.08759
 C724 C 0.56477 0.44190 -0.06879
 H725 H 0.64952 0.37868 -0.18426
 H726 H 0.63716 0.42614 -0.15387
 H727 H 0.60063 0.45079 -0.12039
 H728 H 0.54625 0.35640 -0.10683
 H729 H 0.58229 0.33189 -0.14078
 H730 H 0.52677 0.40653 -0.08313
 H731 H 0.63389 0.31424 -0.14746
 H732 H 0.59024 0.45162 -0.07151
 C733 C 1.18259 0.16157 -0.17522
 C734 C 1.14908 0.16183 -0.16761
 C735 C 1.13456 0.14044 -0.14367
 C736 C 1.10016 0.13224 -0.14399
 C737 C 1.08549 0.11272 -0.12147
 C738 C 1.10497 0.10135 -0.09789
 C739 C 1.13937 0.10937 -0.09766
 C740 C 1.15402 0.12894 -0.12011
 C741 C 1.09041 0.08123 -0.07325
 C742 C 1.05723 0.08203 -0.06542
 H743 H 1.13218 0.17692 -0.17984
 H744 H 1.08461 0.14077 -0.16184
 H745 H 1.05903 0.10635 -0.12288
 H746 H 1.15490 0.10103 -0.07971
 H747 H 1.18041 0.13559 -0.11848
 H748 H 1.10693 0.06700 -0.05961
 H749 H 1.19720 0.14341 -0.16389
 H750 H 1.04070 0.09764 -0.07760
 C751 C 1.18657 0.64995 0.31704
 C752 C 1.16063 0.65816 0.33447
 C753 C 1.14508 0.63585 0.35728
 C754 C 1.11456 0.64387 0.36825
 C755 C 1.09935 0.62453 0.39051
 C756 C 1.11430 0.59649 0.40235
 C757 C 1.14512 0.58870 0.39175
 C758 C 1.16038 0.60810 0.36938
 C759 C 1.09895 0.57598 0.42645
 C760 C 1.06483 0.57444 0.43130
 H761 H 1.15017 0.68188 0.33067
 H762 H 1.10250 0.66542 0.35974
 H763 H 1.07630 0.63224 0.39879
 H764 H 1.15743 0.56757 0.40084
 H765 H 1.18439 0.60163 0.36220
 H766 H 1.11481 0.56147 0.44049
 H767 H 1.19457 0.62498 0.31818
 H768 H 1.04839 0.58672 0.41614
 C769 C 0.68319 0.15026 0.33425
 C770 C 0.64894 0.14851 0.33890
 C771 C 0.63314 0.12794 0.36268
 C772 C 0.59910 0.11833 0.36042
 C773 C 0.58321 0.09952 0.38274
 C774 C 0.60108 0.09031 0.40800
 C775 C 0.63512 0.09982 0.41019
 C776 C 0.65097 0.11864 0.38793
 C777 C 0.58541 0.07086 0.43247
 C778 C 0.55130 0.06877 0.43749
 H779 H 0.63275 0.16149 0.32402
 H780 H 0.58480 0.12522 0.34122
 H781 H 0.55713 0.09203 0.37986
 H782 H 0.64943 0.09314 0.42945
 H783 H 0.67696 0.12641 0.39099
 H784 H 0.60174 0.05927 0.44824
 H785 H 0.69858 0.13409 0.34708
 H786 H 0.53433 0.08125 0.42299
 C787 C 0.68166 0.65068 -0.17736
 C788 C 0.66076 0.65872 -0.15514
 C789 C 0.64319 0.63354 -0.13581
 C790 C 0.61449 0.64202 -0.12194
 C791 C 0.59785 0.61961 -0.10265
 C792 C 0.60990 0.58827 -0.09643
 C793 C 0.63825 0.57950 -0.11067
 C794 C 0.65494 0.60196 -0.13000
 C795 C 0.59366 0.56448 -0.07511
 C796 C 0.57553 0.57468 -0.05210
 H797 H 0.65531 0.68404 -0.15219
 H798 H 0.60482 0.66610 -0.12610
 H799 H 0.57545 0.62692 -0.09288
 H800 H 0.64800 0.55550 -0.10627
 H801 H 0.67746 0.59473 -0.13961
 H802 H 0.59785 0.53847 -0.07647
 H803 H 0.68332 0.62466 -0.18107
 H804 H 0.57313 0.60074 -0.04921
 C805 C 0.85701 -0.17503 -0.17865
 C806 C 0.85751 -0.14088 -0.17468
 C807 C 0.87947 -0.12353 -0.15318
 C808 C 0.87006 -0.09340 -0.14307
 C809 C 0.88961 -0.07642 -0.12241
 C810 C 0.91920 -0.08922 -0.11146
 C811 C 0.92930 -0.11869 -0.12238
 C812 C 0.90967 -0.13575 -0.14299
 C813 C 0.94002 -0.07270 -0.08874
 C814 C 0.92751 -0.05162 -0.06905
 H815 H 0.83976 -0.12604 -0.18608
 H816 H 0.84726 -0.08309 -0.15096
 H817 H 0.88155 -0.05320 -0.11536
 H818 H 0.95227 -0.12879 -0.11467
 H819 H 0.91848 -0.15819 -0.15103
 H820 H 0.96544 -0.07968 -0.08577
 H821 H 0.87360 -0.18932 -0.16518
 H822 H 0.90163 -0.04597 -0.07026
 C823 C 0.85923 0.32130 0.32360
 C824 C 0.85911 0.35526 0.32795
 C825 C 0.87986 0.37159 0.35071
 C826 C 0.86822 0.39910 0.36380
 C827 C 0.88667 0.41448 0.38603
 C828 C 0.91735 0.40271 0.39540
 C829 C 0.92959 0.37602 0.38150
 C830 C 0.91103 0.36049 0.35943
 C831 C 0.93753 0.41800 0.41902
 C832 C 0.92407 0.43548 0.44087
 H833 H 0.84109 0.37001 0.31676
 H834 H 0.84453 0.40844 0.35709
 H835 H 0.87699 0.43574 0.39550
 H836 H 0.95346 0.36692 0.38797
 H837 H 0.92130 0.34009 0.34908
 H838 H 0.96385 0.41380 0.42012
 H839 H 0.87513 0.30695 0.33774
 H840 H 0.89759 0.43838 0.44143
 C841 C 0.33019 -0.16389 0.32363
 C842 C 0.35029 -0.17404 0.34705
 C843 C 0.36316 -0.15147 0.36973
 C844 C 0.39270 -0.15854 0.38467
 C845 C 0.40577 -0.13803 0.40623
 C846 C 0.38944 -0.10998 0.41349
 C847 C 0.35924 -0.10349 0.39933
 C848 C 0.34625 -0.12392 0.37751
 C849 C 0.40325 -0.08789 0.43618
 C850 C 0.43747 -0.08301 0.44090
 H851 H 0.35885 -0.19873 0.34838
 H852 H 0.40586 -0.17994 0.37951
 H853 H 0.42844 -0.14455 0.41747
 H854 H 0.34589 -0.08240 0.40495
 H855 H 0.32277 -0.11839 0.36721
 H856 H 0.38640 -0.07488 0.44889
 H857 H 0.32492 -0.13804 0.32184
 H858 H 0.45423 -0.09381 0.42648
 C859 C 0.34448 0.34906 -0.19093
 C860 C 0.33893 0.35463 -0.16166
 C861 C 0.35853 0.37871 -0.14370
 C862 C 0.35629 0.37446 -0.11348
 C863 C 0.37445 0.39562 -0.09515
 C864 C 0.39533 0.42182 -0.10653
 C865 C 0.39666 0.42717 -0.13673
 C866 C 0.37861 0.40563 -0.15526
 C867 C 0.41599 0.44292 -0.08677
 C868 C 0.43108 0.42860 -0.06233
 H869 H 0.31951 0.34016 -0.15035
 H870 H 0.34069 0.35431 -0.10392
 H871 H 0.37211 0.39143 -0.07195
 H872 H 0.41227 0.44751 -0.14595
 H873 H 0.38030 0.41033 -0.17841
 H874 H 0.42015 0.46915 -0.09181
 H875 H 0.36290 0.36503 -0.20225
 H876 H 0.42947 0.40190 -0.05953
 C877 C 1.17030 -0.16871 0.15657
 C878 C 1.18061 -0.14281 0.13707
 C879 C 1.15776 -0.12401 0.11799
 C880 C 1.17141 -0.10516 0.09448
 C881 C 1.15128 -0.08682 0.07585
 C882 C 1.11692 -0.08680 0.08017
 C883 C 1.10315 -0.10517 0.10403
 C884 C 1.12338 -0.12355 0.12278
 C885 C 1.09689 -0.06704 0.05943
 C886 C 1.06223 -0.07026 0.05658
 H887 H 1.20675 -0.13622 0.13437
 H888 H 1.19782 -0.10474 0.09037
 H889 H 1.16264 -0.07273 0.05781
 H890 H 1.07698 -0.10509 0.10867
 H891 H 1.11194 -0.13674 0.14116
 H892 H 1.11042 -0.05014 0.04444
 H893 H 1.14394 -0.17538 0.15801
 H894 H 1.04765 -0.08745 0.07044
 C895 C 1.18221 0.34285 0.66121
 C896 C 1.17092 0.33729 0.63283
 C897 C 1.15318 0.36198 0.61516
 C898 C 1.12744 0.35100 0.59629
 C899 C 1.11057 0.37358 0.57882
 C900 C 1.11967 0.40757 0.57942
 C901 C 1.14605 0.41856 0.59769
 C902 C 1.16245 0.39597 0.61575
 C903 C 1.10233 0.43141 0.56048
 C904 C 1.06800 0.42785 0.55605
 H905 H 1.17206 0.31319 0.62391
 H906 H 1.12022 0.32488 0.59521
 H907 H 1.09083 0.36437 0.56439
 H908 H 1.15369 0.44463 0.59819
 H909 H 1.18279 0.40498 0.62963
 H910 H 1.11651 0.45227 0.55045
 H911 H 1.17580 0.36550 0.67079
 H912 H 1.05360 0.40909 0.56863
 C913 C 0.67585 -0.16441 0.66892
 C914 C 0.68735 -0.14074 0.64785
 C915 C 0.66517 -0.12100 0.62897
 C916 C 0.67799 -0.10624 0.60320
 C917 C 0.65793 -0.08811 0.58428
 C918 C 0.62455 -0.08435 0.59065
 C919 C 0.61193 -0.09802 0.61697
 C920 C 0.63204 -0.11612 0.63597
 C921 C 0.60387 -0.06621 0.56928
 C922 C 0.56926 -0.07084 0.56743
 H923 H 0.71357 -0.13712 0.64357
 H924 H 0.70352 -0.10918 0.59741
 H925 H 0.66840 -0.07751 0.56432
 H926 H 0.58672 -0.09452 0.62321
 H927 H 0.62154 -0.12573 0.65617
 H928 H 0.61659 -0.05075 0.55275
 H929 H 0.64930 -0.16787 0.67206
 H930 H 0.55590 -0.08747 0.58264
 C931 C 0.67939 0.33831 0.17524
 C932 C 0.67647 0.34064 0.14494
 C933 C 0.65582 0.36438 0.12873
 C934 C 0.64605 0.35740 0.10019
 C935 C 0.62676 0.37883 0.08376
 C936 C 0.61667 0.40792 0.09553
 C937 C 0.62726 0.41556 0.12377
 C938 C 0.64657 0.39396 0.14033
 C939 C 0.59621 0.43091 0.07826
 C940 C 0.57432 0.41968 0.05646
 H941 H 0.68820 0.32339 0.13194
 H942 H 0.65333 0.33515 0.09050
 H943 H 0.62036 0.37275 0.06165
 H944 H 0.62040 0.43817 0.13308
 H945 H 0.65459 0.40086 0.16187
 H946 H 0.59837 0.45697 0.08275
 H947 H 0.66572 0.35489 0.18753
 H948 H 0.57019 0.39340 0.05345
 C949 C 0.82473 0.14757 0.16628
 C950 C 0.85860 0.14233 0.16455
 C951 C 0.87215 0.12041 0.14339
 C952 C 0.90443 0.10982 0.14801
 C953 C 0.91868 0.09035 0.12791
 C954 C 0.90092 0.08128 0.10259
 C955 C 0.86845 0.09131 0.09824
 C956 C 0.85429 0.11091 0.11820
 C957 C 0.91545 0.06234 0.07982
 C958 C 0.94958 0.06243 0.07514
 H959 H 0.87601 0.15385 0.17982
 H960 H 0.91874 0.11674 0.16722
 H961 H 0.94347 0.08244 0.13238
 H962 H 0.85429 0.08477 0.07885
 H963 H 0.82978 0.11920 0.11323
 H964 H 0.89845 0.05099 0.06404
 H965 H 0.80699 0.13312 0.15330
 H966 H 0.96723 0.07487 0.08967
 C967 C 0.82387 0.66397 0.65053
 C968 C 0.85357 0.64806 0.65369
 C969 C 0.86710 0.62790 0.63110
 C970 C 0.90002 0.61873 0.63440
 C971 C 0.91421 0.60029 0.61355
 C972 C 0.89575 0.59067 0.58871
 C973 C 0.86249 0.59883 0.58587
 C974 C 0.84826 0.61722 0.60676
 C975 C 0.91017 0.57221 0.56547
 C976 C 0.94431 0.57212 0.56110
 H977 H 0.86792 0.65056 0.67366
 H978 H 0.91496 0.62604 0.65316
 H979 H 0.93950 0.59347 0.61725
 H980 H 0.84754 0.59126 0.56721
 H981 H 0.82249 0.62260 0.60362
 H982 H 0.89326 0.55999 0.55012
 H983 H 0.80880 0.66128 0.63103
 H984 H 0.96177 0.58554 0.57512
 C985 C 0.32194 0.14671 0.66479
 C986 C 0.35236 0.15013 0.65066
 C987 C 0.36442 0.12496 0.63164
 C988 C 0.39826 0.12689 0.62484
 C989 C 0.41079 0.10456 0.60632
 C990 C 0.38971 0.07951 0.59412
 C991 C 0.35575 0.07781 0.60054
 C992 C 0.34317 0.10020 0.61914
 C993 C 0.40211 0.05656 0.57318
 C994 C 0.43561 0.05007 0.57206
 H995 H 0.36837 0.17225 0.65350
 H996 H 0.41510 0.14601 0.63370
 H997 H 0.43684 0.10780 0.60103
 H998 H 0.33885 0.05924 0.59096
 H999 H 0.31672 0.09841 0.62293
 H1000 H 0.38474 0.04580 0.55739
 H1001 H 0.30596 0.12455 0.66210
 H1002 H 0.45286 0.05933 0.58857
 C1003 C 0.34891 0.67778 0.14971
 C1004 C 0.36778 0.65072 0.15663
 C1005 C 0.38646 0.63441 0.13450
 C1006 C 0.39214 0.60073 0.13838
 C1007 C 0.40875 0.58445 0.11739
 C1008 C 0.42026 0.60172 0.09211
 C1009 C 0.41568 0.63567 0.08884
 C1010 C 0.39897 0.65187 0.10972
 C1011 C 0.43739 0.58562 0.06888
 C1012 C 0.43517 0.55161 0.06482
 H1013 H 0.36670 0.63941 0.17825
 H1014 H 0.38327 0.58686 0.15753
 H1015 H 0.41270 0.55854 0.12125
 H1016 H 0.42480 0.64972 0.06986
 H1017 H 0.39620 0.67811 0.10646
 H1018 H 0.45090 0.60156 0.05316
 H1019 H 0.34695 0.68633 0.12725
 H1020 H 0.42084 0.53493 0.07932
   
