data_POSCAR
  _audit_creation_date              2014-09-24
  _audit_creation_method            'ToBaCCo'
  _symmetry_space_group_name_H-M    'P1'
  _symmetry_Int_Tables_number       1
  _symmetry_cell_setting            triclinic
  loop_
  _symmetry_equiv_pos_as_xyz
 x,y,z
_cell_length_a 40.5356
_cell_length_b 40.5821
_cell_length_c 40.5381
_cell_angle_alpha 90.090000
_cell_angle_beta 90.103300
_cell_angle_gamma 89.914100
loop_
  _atom_site_label
  _atom_site_type_symbol
  _atom_site_fract_x
  _atom_site_fract_y
  _atom_site_fract_z
N1 N 0.18368 0.18569 0.18239
 N2 N -0.18112 0.81663 0.18521
 N3 N -0.18667 0.18213 -0.18395
 N4 N 0.18349 0.81553 -0.18343
 N5 N 0.18416 1.18240 0.81990
 N6 N 0.81650 0.81821 0.81400
 N7 N 0.18182 0.81458 1.18342
 N8 N 0.81663 1.18399 1.18348
 O9 O 0.45346 1.05773 1.05979
 O10 O 0.41723 1.02590 1.03004
 C11 C 0.42385 1.04891 1.05125
 O12 O 0.54547 1.05474 0.94187
 O13 O 0.58201 1.02520 0.97351
 C14 C 0.57515 1.04631 0.95053
 O15 O 0.45299 1.05745 0.94529
 O16 O 0.41700 1.02580 0.97527
 C17 C 0.42344 1.04869 0.95397
 O18 O 0.54600 1.05512 1.06282
 O19 O 0.58225 1.02539 1.03108
 C20 C 0.57562 1.04666 1.05401
 Zr21 Zr 0.49981 1.03910 1.04418
 O22 O 0.50332 1.09115 1.04407
 O23 O 0.49626 1.03887 1.09628
 Zr24 Zr 0.49947 1.03891 0.96079
 O25 O 0.50300 1.09095 0.96090
 O26 O 0.49549 1.03854 0.90871
 O27 O 0.47022 1.04546 1.00254
 O28 O 0.52833 1.04505 1.00241
 O29 O 0.54631 0.94017 1.06299
 O30 O 0.58239 0.96985 1.03117
 C31 C 0.57586 0.94871 1.05418
 O32 O 0.45336 0.93694 0.94542
 O33 O 0.41718 0.96867 0.97531
 C34 C 0.42377 0.94569 0.95406
 O35 O 0.54587 0.93986 0.94195
 O36 O 0.58219 0.96967 0.97358
 C37 C 0.57550 0.94843 0.95062
 O38 O 0.45373 0.93720 1.05992
 O39 O 0.41738 0.96878 1.03005
 C40 C 0.42407 0.94590 1.05132
 Zr41 Zr 0.50003 0.95587 1.04424
 O42 O 0.50386 0.90383 1.04410
 O43 O 0.49645 0.95622 1.09634
 Zr44 Zr 0.49973 0.95567 0.96087
 O45 O 0.50357 0.90363 0.96109
 O46 O 0.49576 0.95575 0.90878
 Zr47 Zr 0.45075 0.99733 1.00261
 Zr48 Zr 0.54911 0.99747 1.00241
 O49 O 0.52862 0.94982 1.00251
 O50 O 0.47049 0.94924 1.00261
 O51 O 0.52946 0.99754 1.05058
 O52 O 0.47092 0.99723 0.95484
 O53 O 0.47127 0.99747 1.05031
 O54 O 0.52909 0.99732 0.95433
 H55 H 0.54312 1.06446 1.00235
 H56 H 0.45587 0.99717 0.93555
 H57 H 0.54354 0.93046 1.00249
 H58 H 0.45636 0.99749 1.06965
 H59 H 0.51402 1.02524 0.90004
 H60 H 0.51421 0.96906 0.90009
 H61 H 0.48514 0.89502 0.97448
 H62 H 0.48531 0.89516 1.03082
 H63 H 0.51494 0.96961 1.10494
 H64 H 0.51502 1.02583 1.10488
 H65 H 0.48486 1.09972 1.03058
 H66 H 0.48452 1.09958 0.97427
 O67 O 0.05474 0.54575 -0.06329
 O68 O 0.02498 0.58202 -0.03154
 C69 C 0.04621 0.57535 -0.05449
 O70 O -0.06305 0.45334 -0.06008
 O71 O -0.03128 0.41723 -0.03009
 C72 C -0.05429 0.42378 -0.05136
 O73 O -0.05981 0.54611 -0.06338
 O74 O -0.02972 0.58220 -0.03170
 C75 C -0.05107 0.57567 -0.05464
 O76 O 0.05769 0.45314 -0.06031
 O77 O 0.02552 0.41721 -0.03084
 C78 C 0.04868 0.42363 -0.05188
 Zr79 Zr 0.03907 0.49950 -0.04473
 O80 O 0.03859 0.49568 -0.09683
 O81 O 0.09117 0.50304 -0.04480
 Zr82 Zr -0.04433 0.49972 -0.04471
 O83 O -0.04424 0.49583 -0.09680
 O84 O -0.09642 0.50359 -0.04470
 O85 O -0.00260 0.52898 -0.05117
 O86 O -0.00268 0.47098 -0.05067
 O87 O 0.05788 0.45344 0.05438
 O88 O 0.02614 0.41727 0.02448
 C89 C 0.04910 0.42387 0.04576
 O90 O -0.05983 0.54623 0.05730
 O91 O -0.03041 0.58219 0.02512
 C92 C -0.05144 0.57574 0.04827
 O93 O -0.06278 0.45365 0.05444
 O94 O -0.03109 0.41740 0.02460
 C95 C -0.05399 0.42405 0.04589
 O96 O 0.05486 0.54607 0.05741
 O97 O 0.02490 0.58220 0.02569
 C98 C 0.04621 0.57563 0.04865
 Zr99 Zr 0.03927 0.49974 0.03878
 O100 O 0.03926 0.49614 0.09088
 O101 O 0.09137 0.50336 0.03865
 Zr102 Zr -0.04426 0.49991 0.03868
 O103 O -0.04430 0.49639 0.09078
 O104 O -0.09636 0.50370 0.03822
 Zr105 Zr -0.00245 0.54866 -0.00298
 Zr106 Zr -0.00255 0.45077 -0.00287
 O107 O -0.00249 0.47127 0.04483
 O108 O -0.00247 0.52921 0.04520
 O109 O 0.04564 0.47024 -0.00294
 O110 O -0.05024 0.52844 -0.00305
 O111 O 0.04526 0.52819 -0.00299
 O112 O -0.05074 0.47044 -0.00297
 H113 H -0.00279 0.45600 -0.06999
 H114 H -0.06959 0.54340 -0.00315
 H115 H -0.00246 0.45636 0.06417
 H116 H 0.06459 0.54311 -0.00297
 H117 H -0.10506 0.48533 -0.03110
 H118 H -0.10498 0.48489 0.02529
 H119 H -0.03055 0.51459 0.09941
 H120 H 0.02579 0.51457 0.09949
 H121 H 0.09997 0.48487 0.02526
 H122 H 0.09981 0.48482 -0.03110
 H123 H 0.02553 0.51440 -0.10544
 H124 H -0.03089 0.51426 -0.10545
 O125 O 1.06046 -0.05718 0.45404
 O126 O 1.03071 -0.02543 0.41774
 C127 C 1.05193 -0.04842 0.42440
 O128 O 0.94251 -0.05450 0.54601
 O129 O 0.97413 -0.02482 0.58241
 C130 C 0.95119 -0.04601 0.57565
 O131 O 0.94610 -0.05718 0.45356
 O132 O 0.97599 -0.02548 0.41751
 C133 C 0.95477 -0.04843 0.42401
 O134 O 1.06329 -0.05414 0.54688
 O135 O 1.03149 -0.02434 0.58311
 C136 C 1.05444 -0.04561 0.57649
 Zr137 Zr 1.04483 -0.03850 0.50043
 O138 O 1.04505 -0.09054 0.50403
 O139 O 1.09694 -0.03824 0.49693
 Zr140 Zr 0.96145 -0.03860 0.50005
 O141 O 0.96174 -0.09064 0.50363
 O142 O 0.90936 -0.03836 0.49603
 O143 O 1.00323 -0.04502 0.47082
 O144 O 1.00309 -0.04459 0.52890
 O145 O 1.06316 0.06023 0.54717
 O146 O 1.03139 0.03038 0.58324
 C147 C 1.05433 0.05163 0.57675
 O148 O 0.94542 0.06357 0.45418
 O149 O 0.97529 0.03184 0.41811
 C150 C 0.95400 0.05478 0.42463
 O151 O 0.94230 0.06053 0.54628
 O152 O 0.97406 0.03085 0.58252
 C153 C 0.95102 0.05200 0.57587
 O154 O 1.06033 0.06335 0.45424
 O155 O 1.03057 0.03165 0.41787
 C156 C 1.05177 0.05459 0.42459
 Zr157 Zr 1.04472 0.04473 0.50056
 O158 O 1.04456 0.09677 0.50439
 O159 O 1.09682 0.04461 0.49707
 Zr160 Zr 0.96130 0.04472 0.50026
 O161 O 0.96160 0.09676 0.50409
 O162 O 0.90921 0.04438 0.49633
 Zr163 Zr 1.00320 0.00308 0.45124
 Zr164 Zr 1.00299 0.00305 0.54951
 O165 O 1.00295 0.05072 0.52911
 O166 O 1.00306 0.05119 0.47098
 O167 O 1.05118 0.00310 0.52997
 O168 O 0.95543 0.00307 0.47147
 O169 O 1.05088 0.00311 0.47185
 O170 O 0.95487 0.00304 0.52962
 H171 H 1.00311 -0.06395 0.54375
 H172 H 0.93612 0.00303 0.45645
 H173 H 1.00290 0.07005 0.54407
 H174 H 1.07024 0.00310 0.45696
 H175 H 0.90064 -0.02511 0.51457
 H176 H 0.90057 0.03104 0.51478
 H177 H 0.97497 0.10535 0.48563
 H178 H 1.03127 0.10542 0.48583
 H179 H 1.10543 0.03127 0.51559
 H180 H 1.10549 -0.02510 0.51564
 H181 H 1.03143 -0.09920 0.48571
 H182 H 0.97512 -0.09924 0.48513
 N183 N 1.17311 0.14108 0.26008
 C184 C 1.14044 0.14521 0.26584
 N185 N 1.12210 0.16289 0.24418
 N186 N 1.13601 0.17603 0.21753
 C187 C 1.16876 0.17194 0.21156
 N188 N 1.18703 0.15423 0.23342
 C189 C 1.12525 0.13034 0.29406
 C190 C 1.11228 0.11751 0.31747
 C191 C 1.09662 0.10178 0.34495
 N192 N 1.10462 0.11030 0.37632
 N193 N 1.09023 0.09537 0.40178
 C194 C 1.06738 0.07144 0.39668
 N195 N 1.05942 0.06302 0.36522
 N196 N 1.07380 0.07794 0.33979
 N197 N 0.83176 -0.13683 0.26156
 C198 C 0.86467 -0.14046 0.26632
 N199 N 0.88242 -0.15843 0.24443
 N200 N 0.86771 -0.17233 0.21851
 C201 C 0.83472 -0.16874 0.21355
 N202 N 0.81704 -0.15073 0.23564
 C203 C 0.88059 -0.12507 0.29394
 C204 C 0.89397 -0.11192 0.31702
 C205 C 0.90982 -0.09603 0.34439
 N206 N 0.93259 -0.07218 0.33917
 N207 N 0.94704 -0.05710 0.36458
 C208 C 0.93919 -0.06538 0.39605
 N209 N 0.91641 -0.08933 0.40118
 N210 N 0.90196 -0.10440 0.37576
 N211 N 0.87578 0.15860 0.75528
 C212 C 0.85789 0.14018 0.73385
 N213 N 0.82523 0.13582 0.73941
 N214 N 0.81090 0.14944 0.76566
 C215 C 0.82871 0.16789 0.78730
 N216 N 0.86145 0.17222 0.78153
 C217 C 0.87350 0.12501 0.70595
 C218 C 0.88684 0.11212 0.68273
 C219 C 0.90301 0.09661 0.65535
 N220 N 0.89462 0.10454 0.62396
 N221 N 0.90985 0.09024 0.59857
 C222 C 0.93397 0.06756 0.60375
 N223 N 0.94228 0.05967 0.63524
 N224 N 0.92705 0.07396 0.66061
 N225 N 1.13879 -0.17073 0.73924
 C226 C 1.14332 -0.13799 0.73453
 N227 N 1.16126 -0.12064 0.75679
 N228 N 1.17428 -0.13559 0.78301
 C229 C 1.16979 -0.16841 0.78792
 N230 N 1.15181 -0.18568 0.76546
 C231 C 1.12875 -0.12176 0.70667
 C232 C 1.11621 -0.10805 0.68346
 C233 C 1.10090 -0.09170 0.65607
 N234 N 1.07722 -0.06866 0.66128
 N235 N 1.06257 -0.05381 0.63588
 C236 C 1.07113 -0.06150 0.60442
 N237 N 1.09492 -0.08454 0.59928
 N238 N 1.10956 -0.09940 0.62470
 N239 N 0.24467 1.12337 1.15888
 C240 C 0.26586 1.14122 1.14029
 N241 N 0.26009 1.17381 1.13585
 N242 N 0.23386 1.18812 1.14954
 C243 C 0.21245 1.17034 1.16815
 N244 N 0.21844 1.13767 1.17257
 C245 C 0.29371 1.12565 1.12500
 C246 C 0.31691 1.11241 1.11197
 C247 C 0.34430 1.09641 1.09630
 N248 N 0.37569 1.10490 1.10414
 N249 N 0.40109 1.08985 1.08970
 C250 C 0.39593 1.06581 1.06692
 N251 N 0.36445 1.05740 1.05910
 N252 N 0.33907 1.07246 1.07355
 N253 N 0.24364 0.83759 0.88031
 C254 C 0.26570 0.85559 0.86291
 N255 N 0.26076 0.86013 0.83015
 N256 N 0.23451 0.84710 0.81525
 C257 C 0.21224 0.82910 0.83258
 N258 N 0.21739 0.82457 0.86541
 C259 C 0.29354 0.87027 0.87908
 C260 C 0.31675 0.88297 0.89266
 C261 C 0.34415 0.89851 0.90877
 N262 N 0.33895 0.92230 0.93170
 N263 N 0.36436 0.93719 0.94628
 C264 C 0.39583 0.92880 0.93841
 N265 N 0.40096 0.90491 0.91548
 N266 N 0.37553 0.89001 0.90089
 N267 N 0.74094 0.82735 1.14070
 C268 C 0.73526 0.86003 1.14468
 N269 N 0.75706 0.87833 1.16222
 N270 N 0.78377 0.86437 1.17538
 C271 C 0.78966 0.83161 1.17143
 N272 N 0.76766 0.81338 1.15386
 C273 C 0.70696 0.87526 1.12983
 C274 C 0.68346 0.88824 1.11701
 C275 C 0.65586 0.90390 1.10131
 N276 N 0.66084 0.92668 1.07742
 N277 N 0.63530 0.94104 1.06252
 C278 C 0.60391 0.93313 1.07101
 N279 N 0.59899 0.91033 1.09500
 N280 N 0.62456 0.89595 1.10990
 N281 N 0.73690 1.16965 0.86231
 C282 C 0.73198 1.13684 0.85849
 N283 N 0.75380 1.11902 0.84048
 N284 N 0.77979 1.13358 0.82673
 C285 C 0.78490 1.16648 0.83051
 N286 N 0.76288 1.18422 0.84855
 C287 C 0.70436 1.12103 0.87381
 C288 C 0.68134 1.10767 0.88693
 C289 C 0.65415 1.09172 0.90285
 N290 N 0.62267 1.09939 0.89448
 N291 N 0.59744 1.08480 0.90957
 C292 C 0.60288 1.06206 0.93353
 N293 N 0.63445 1.05442 0.94181
 N294 N 0.65967 1.06900 0.92671
 N295 N 0.13716 0.26200 0.16955
 C296 C 0.14071 0.26666 0.13665
 N297 N 0.15859 0.24469 0.11889
 N298 N 0.17248 0.21881 0.13359
 C299 C 0.16899 0.21396 0.16658
 N300 N 0.15106 0.23612 0.18426
 C301 C 0.12535 0.29424 0.12072
 C302 C 0.11227 0.31727 0.10727
 C303 C 0.09645 0.34454 0.09126
 N304 N 0.07261 0.33924 0.06837
 N305 N 0.05763 0.36455 0.05374
 C306 C 0.06600 0.39602 0.06151
 N307 N 0.08993 0.40124 0.08441
 N308 N 0.10491 0.37592 0.09904
 N309 N -0.14166 0.25949 -0.17275
 C310 C -0.14564 0.26511 -0.14003
 N311 N -0.16338 0.24347 -0.12187
 N312 N -0.17670 0.21697 -0.13600
 C313 C -0.17275 0.21114 -0.16879
 N314 N -0.15499 0.23300 -0.18688
 C315 C -0.13062 0.29320 -0.12465
 C316 C -0.11767 0.31655 -0.11160
 C317 C -0.10184 0.34404 -0.09596
 N318 N -0.11030 0.37534 -0.10406
 N319 N -0.09526 0.40082 -0.08974
 C320 C -0.07125 0.39582 -0.06686
 N321 N -0.06289 0.36443 -0.05878
 N322 N -0.07793 0.33897 -0.07309
 N323 N 0.12005 0.75527 -0.16175
 C324 C 0.13756 0.73320 -0.14375
 N325 N 0.17028 0.73819 -0.13905
 N326 N 0.18506 0.76448 -0.15194
 C327 C 0.16762 0.78675 -0.16997
 N328 N 0.13482 0.78156 -0.17464
 C329 C 0.12150 0.70533 -0.12920
 C330 C 0.10795 0.68212 -0.11663
 C331 C 0.09179 0.65477 -0.10123
 N332 N 0.09960 0.62341 -0.10982
 N333 N 0.08492 0.59804 -0.09507
 C334 C 0.06197 0.60321 -0.07124
 N335 N 0.05418 0.63466 -0.06276
 N336 N 0.06885 0.66000 -0.07750
 N337 N -0.13466 0.74012 0.17330
 C338 C -0.13936 0.73429 0.14070
 N339 N -0.15806 0.75551 0.12286
 N340 N -0.17160 0.78180 0.13717
 C341 C -0.16693 0.78784 0.16984
 N342 N -0.14821 0.76642 0.18762
 C343 C -0.12429 0.70633 0.12513
 C344 C -0.11146 0.68304 0.11184
 C345 C -0.09603 0.65556 0.09577
 N346 N -0.10381 0.62427 0.10444
 N347 N -0.08955 0.59877 0.08935
 C348 C -0.06703 0.60375 0.06510
 N349 N -0.05928 0.63512 0.05651
 N350 N -0.07355 0.66060 0.07159
 N351 N 1.17523 0.13396 0.74548
 C352 C 1.14367 0.14069 0.73680
 N353 N 1.12572 0.16155 0.75574
 N354 N 1.13893 0.17520 0.78258
 C355 C 1.17063 0.16859 0.79173
 N356 N 1.18841 0.14763 0.77234
 C357 C 1.12913 0.12538 0.70834
 C358 C 1.11654 0.11232 0.68472
 C359 C 1.10105 0.09658 0.65701
 N360 N 1.07727 0.07365 0.66186
 N361 N 1.06253 0.05924 0.63624
 C362 C 1.07105 0.06726 0.60488
 N363 N 1.09493 0.09021 0.60009
 N364 N 1.10968 0.10463 0.62573
 N365 N 0.86307 -0.16924 0.73773
 C366 C 0.85928 -0.13642 0.73282
 N367 N 0.84121 -0.11862 0.75460
 N368 N 0.82737 -0.13320 0.78053
 C369 C 0.83111 -0.16610 0.78564
 N370 N 0.84922 -0.18382 0.76367
 C371 C 0.87465 -0.12061 0.70519
 C372 C 0.88777 -0.10727 0.68214
 C373 C 0.90367 -0.09135 0.65487
 N374 N 0.92752 -0.06858 0.66029
 N375 N 0.94256 -0.05403 0.63501
 C376 C 0.93426 -0.06176 0.60346
 N377 N 0.91032 -0.08455 0.59812
 N378 N 0.89528 -0.09911 0.62341
 N379 N 1.15860 -0.12325 0.24473
 C380 C 1.14007 -0.14113 0.26595
 N381 N 1.13552 -0.17370 0.26006
 N382 N 1.14906 -0.18794 0.23371
 C383 C 1.16762 -0.17013 0.21228
 N384 N 1.17214 -0.13749 0.21838
 C385 C 1.12497 -0.12562 0.29398
 C386 C 1.11211 -0.11235 0.31729
 C387 C 1.09662 -0.09623 0.34475
 N388 N 1.07390 -0.07224 0.33957
 N389 N 1.05960 -0.05708 0.36499
 C390 C 1.06754 -0.06541 0.39646
 N391 N 1.09029 -0.08949 0.40157
 N392 N 1.10459 -0.10465 0.37613
 N393 N 0.82986 0.13944 0.26089
 C394 C 0.86261 0.14393 0.26595
 N395 N 0.88013 0.16183 0.24390
 N396 N 0.86536 0.17482 0.21756
 C397 C 0.83252 0.17037 0.21230
 N398 N 0.81508 0.15244 0.23455
 C399 C 0.87867 0.12933 0.29395
 C400 C 0.89221 0.11675 0.31727
 C401 C 0.90836 0.10137 0.34478
 N402 N 0.93139 0.07765 0.33970
 N403 N 0.94607 0.06295 0.36517
 C404 C 0.93822 0.07148 0.39661
 N405 N 0.91518 0.09531 0.40162
 N406 N 0.90049 0.11000 0.37613
 N407 N 0.13563 0.25663 -0.17061
 C408 C 0.14145 0.26441 -0.13864
 N409 N 0.16170 0.24492 -0.12059
 N410 N 0.17567 0.21842 -0.13410
 C411 C 0.16999 0.21019 -0.16623
 N412 N 0.14962 0.23012 -0.18410
 C413 C 0.12584 0.29257 -0.12387
 C414 C 0.11251 0.31599 -0.11127
 C415 C 0.09634 0.34359 -0.09606
 N416 N 0.10499 0.37486 -0.10399
 N417 N 0.08985 0.40042 -0.08988
 C418 C 0.06554 0.39555 -0.06739
 N419 N 0.05696 0.36419 -0.05952
 N420 N 0.07211 0.33865 -0.07361
 N421 N -0.16124 0.24406 0.11997
 C422 C -0.14315 0.26607 0.13746
 N423 N -0.13851 0.26109 0.17020
 N424 N -0.15155 0.23487 0.18499
 C425 C -0.16967 0.21267 0.16757
 N426 N -0.17428 0.21785 0.13475
 C427 C -0.12852 0.29394 0.12139
 C428 C -0.11594 0.31715 0.10782
 C429 C -0.10055 0.34455 0.09164
 N430 N -0.07688 0.33934 0.06863
 N431 N -0.06220 0.36471 0.05392
 C432 C -0.07069 0.39615 0.06171
 N433 N -0.09446 0.40129 0.08473
 N434 N -0.10915 0.37590 0.09945
 N435 N -0.17258 0.74063 -0.14121
 C436 C -0.13987 0.73492 -0.14516
 N437 N -0.12162 0.75660 -0.16277
 N438 N -0.13564 0.78320 -0.17601
 C439 C -0.16843 0.78911 -0.17209
 N440 N -0.18662 0.76724 -0.15445
 C441 C -0.12458 0.70668 -0.13027
 C442 C -0.11156 0.68322 -0.11745
 C443 C -0.09587 0.65562 -0.10176
 N444 N -0.07288 0.66059 -0.07796
 N445 N -0.05851 0.63507 -0.06308
 C446 C -0.06664 0.60370 -0.07149
 N447 N -0.08966 0.59880 -0.09539
 N448 N -0.10404 0.62434 -0.11028
 N449 N 0.16927 0.73824 0.13680
 C450 C 0.13642 0.73330 0.14054
 N451 N 0.11861 0.75509 0.15859
 N452 N 0.13319 0.78106 0.17246
 C453 C 0.16612 0.78619 0.16877
 N454 N 0.18386 0.76421 0.15068
 C455 C 0.12061 0.70561 0.12516
 C456 C 0.10728 0.68250 0.11204
 C457 C 0.09140 0.65514 0.09615
 N458 N 0.06852 0.66037 0.07228
 N459 N 0.05401 0.63500 0.05725
 C460 C 0.06189 0.60355 0.06558
 N461 N 0.08479 0.59840 0.08954
 N462 N 0.09930 0.62378 0.10457
 N463 N 0.24599 1.12225 0.84258
 C464 C 0.26494 1.13969 0.86386
 N465 N 0.25703 1.17148 0.87030
 N466 N 0.23091 1.18536 0.85592
 C467 C 0.21152 1.16810 0.83451
 N468 N 0.21988 1.13616 0.82823
 C469 C 0.29279 1.12453 0.87967
 C470 C 0.31604 1.11157 0.89299
 C471 C 0.34354 1.09584 0.90887
 N472 N 0.37489 1.10429 0.90094
 N473 N 0.40039 1.08938 0.91542
 C474 C 0.39539 1.06551 0.93833
 N475 N 0.36395 1.05715 0.94624
 N476 N 0.33846 1.07206 0.93175
 N477 N 0.25945 0.85934 1.17274
 C478 C 0.26514 0.85532 1.14003
 N479 N 0.24343 0.83767 1.12172
 N480 N 0.21682 0.82446 1.13566
 C481 C 0.21093 0.82844 1.16844
 N482 N 0.23284 0.84612 1.18669
 C483 C 0.29337 0.87021 1.12482
 C484 C 0.31680 0.88305 1.11184
 C485 C 0.34433 0.89877 1.09619
 N486 N 0.33921 0.92255 1.07329
 N487 N 0.36466 0.93744 1.05891
 C488 C 0.39612 0.92907 1.06695
 N489 N 0.40118 0.90520 1.08987
 N490 N 0.37570 0.89030 1.10426
 N491 N 0.75613 1.12074 1.16138
 C492 C 0.73408 1.13826 1.14334
 N493 N 0.73917 1.17093 1.13873
 N494 N 0.76554 1.18564 1.15175
 C495 C 0.78779 1.16819 1.16982
 N496 N 0.78250 1.13544 1.17439
 C497 C 0.70607 1.12226 1.12870
 C498 C 0.68277 1.10874 1.11609
 C499 C 0.65530 1.09256 1.10065
 N500 N 0.62393 1.10033 1.10928
 N501 N 0.59848 1.08557 1.09456
 C502 C 0.60357 1.06256 1.07072
 N503 N 0.63503 1.05482 1.06220
 N504 N 0.66046 1.06957 1.07691
 N505 N 0.73976 0.86454 0.82552
 C506 C 0.73389 0.86000 0.85810
 N507 N 0.75516 0.84146 0.87606
 N508 N 0.78153 0.82790 0.86188
 C509 C 0.78761 0.83241 0.82923
 N510 N 0.76614 0.85098 0.81133
 C511 C 0.70586 0.87515 0.87356
 C512 C 0.68255 0.88805 0.88678
 C513 C 0.65510 0.90361 0.90285
 N514 N 0.66030 0.92639 0.92679
 N515 N 0.63490 0.94074 0.94192
 C516 C 0.60342 0.93279 0.93363
 N517 N 0.59828 0.90998 0.90960
 N518 N 0.62371 0.89563 0.89447
   
