data_POSCAR
  _audit_creation_date              2014-09-24
  _audit_creation_method            'ToBaCCo'
  _symmetry_space_group_name_H-M    'P1'
  _symmetry_Int_Tables_number       1
  _symmetry_cell_setting            triclinic
  loop_
  _symmetry_equiv_pos_as_xyz
 x,y,z
_cell_length_a 26.6736
_cell_length_b 26.7518
_cell_length_c 73.9773
_cell_angle_alpha 85.765600
_cell_angle_beta 91.584700
_cell_angle_gamma 119.462000
loop_
  _atom_site_label
  _atom_site_type_symbol
  _atom_site_fract_x
  _atom_site_fract_y
  _atom_site_fract_z
C1 C -0.00132 0.10099 0.52146
 H2 H 0.04023 0.10333 0.52064
 C3 C -0.00934 0.13520 0.53308
 H4 H 0.02611 0.16399 0.54125
 C5 C -0.09865 0.05957 0.51212
 H6 H -0.13327 0.02992 0.50394
 C7 C -0.10860 0.09306 0.52366
 H8 H -0.15099 0.08891 0.52445
 N9 N -0.04589 0.06335 0.51154
 C10 C -0.00994 -0.07710 0.50574
 H11 H -0.00724 -0.07703 0.49118
 C12 C -0.00446 -0.11855 0.51698
 H13 H 0.00275 -0.15040 0.51110
 C14 C -0.02424 -0.03683 0.53130
 H15 H -0.03311 -0.00582 0.53689
 C16 C -0.01901 -0.07734 0.54298
 H17 H -0.02331 -0.07688 0.55748
 Zn18 Zn -0.02955 0.01669 0.49749
 N19 N -0.01923 -0.03705 0.51305
 C20 C 0.08527 0.05871 0.48438
 N21 N 0.03844 0.06643 0.48398
 C22 C 0.03840 0.11098 0.47385
 C23 C 0.08592 0.14869 0.46302
 C24 C 0.13379 0.09552 0.47370
 C25 C -0.14230 -0.06687 0.48856
 C26 C -0.18649 -0.10172 0.47709
 C27 C -0.12333 -0.05044 0.45141
 C28 C -0.08047 -0.01681 0.46333
 N29 N -0.09053 -0.02542 0.48154
 H30 H 0.08490 0.02377 0.49278
 H31 H 0.00085 0.11647 0.47396
 H32 H 0.08496 0.18328 0.45470
 H33 H 0.17048 0.08850 0.47376
 H34 H -0.14877 -0.07365 0.50310
 H35 H -0.22719 -0.13521 0.48285
 H36 H -0.11425 -0.04355 0.43696
 H37 H -0.03875 0.01512 0.45798
 C38 C -0.00909 -0.11857 0.53578
 C39 C -0.06358 0.13074 0.53436
 C40 C -0.17672 -0.09359 0.45831
 C41 C 0.13381 0.14058 0.46281
 C42 C 1.14167 0.05601 0.14414
 H43 H 1.14712 0.09870 0.14469
 C44 C 1.17731 0.04714 0.13294
 H45 H 1.21031 0.08309 0.12480
 C46 C 1.09094 -0.04329 0.15374
 H47 H 1.05708 -0.07834 0.16183
 C48 C 1.12570 -0.05411 0.14263
 H49 H 1.11832 -0.09756 0.14207
 N50 N 1.09882 0.01096 0.15399
 C51 C 0.96231 0.05453 0.15822
 H52 H 0.95809 0.05418 0.17274
 C53 C 0.92404 0.06240 0.14662
 H54 H 0.89040 0.06844 0.15218
 C55 C 1.00942 0.04437 0.13317
 H56 H 1.04163 0.03585 0.12793
 C57 C 0.97228 0.05216 0.12115
 H58 H 0.97650 0.05013 0.10673
 Zn59 Zn 1.05089 0.02857 0.16744
 N60 N 1.00393 0.04567 0.15135
 C61 C 1.09372 0.13996 0.18101
 N62 N 1.09961 0.09221 0.18090
 C63 C 1.14079 0.08729 0.19085
 C64 C 1.17664 0.13037 0.20205
 C65 C 1.12875 0.18416 0.19210
 C66 C 0.95879 -0.08297 0.17666
 C67 C 0.91829 -0.12760 0.18826
 C68 C 0.96660 -0.07151 0.21371
 C69 C 1.00593 -0.02802 0.20169
 N70 N 1.00139 -0.03429 0.18353
 H71 H 1.06123 0.14335 0.17281
 H72 H 1.14472 0.04903 0.19040
 H73 H 1.20828 0.12530 0.21029
 H74 H 1.12293 0.22137 0.19254
 H75 H 0.95539 -0.08639 0.16215
 H76 H 0.88373 -0.16567 0.18270
 H77 H 0.96996 -0.06552 0.22811
 H78 H 1.03897 0.01134 0.20692
 C79 C 0.92897 0.06083 0.12791
 C80 C 1.16883 -0.00847 0.13199
 C81 C 0.92208 -0.12148 0.20695
 C82 C 1.17012 0.17888 0.20287
 C83 C 0.05078 0.91986 0.85754
 H84 H 0.01350 0.87735 0.85749
 C85 C 0.09777 0.92905 0.86839
 H86 H 0.09670 0.89355 0.87676
 C87 C 0.09718 1.01843 0.84705
 H88 H 0.09673 1.05311 0.83872
 C89 C 0.14514 1.02952 0.85774
 H90 H 0.18131 1.07282 0.85776
 N91 N 0.05074 0.96450 0.84747
 C92 C -0.12866 0.92448 0.84439
 H93 H -0.13558 0.92487 0.82992
 C94 C -0.17134 0.91898 0.85627
 H95 H -0.21135 0.91481 0.85091
 C96 C -0.06682 0.93292 0.86904
 H97 H -0.02556 0.94015 0.87402
 C98 C -0.10821 0.92737 0.88134
 H99 H -0.09854 0.92985 0.89568
 Zn100 Zn -0.01729 0.94779 0.83447
 N101 N -0.07747 0.93166 0.85093
 C102 C -0.08851 0.83729 0.82044
 N103 N -0.03503 0.88433 0.82073
 C104 C 0.00911 0.88892 0.81065
 C105 C -0.00005 0.84621 0.79919
 C106 C -0.09959 0.79345 0.80906
 C107 C 0.00233 1.06065 0.82583
 C108 C 0.00755 1.10722 0.81447
 C109 C -0.00606 1.05161 0.78867
 C110 C -0.01108 1.00621 0.80046
 N111 N -0.00651 1.01150 0.81867
 H112 H -0.12280 0.83425 0.82870
 H113 H 0.05120 0.92666 0.81122
 H114 H 0.03510 0.85105 0.79088
 H115 H -0.14253 0.75681 0.80849
 H116 H 0.00467 1.06335 0.84038
 H117 H 0.01422 1.14606 0.82025
 H118 H -0.01015 1.04677 0.77420
 H119 H -0.01953 0.96651 0.79500
 C120 C -0.16068 0.92102 0.87492
 C121 C 0.14503 0.98450 0.86867
 C122 C 0.00320 1.10248 0.79572
 C123 C -0.05498 0.79841 0.79821
 C124 C 0.39051 0.00060 -0.00089
 C125 C 0.42023 0.00878 -0.01713
 C126 C 0.47314 0.00937 -0.01655
 C127 C 0.49571 -0.00010 0.00000
 C128 C 0.46430 -0.00936 0.01612
 C129 C 0.41254 -0.00758 0.01581
 C130 C 0.55232 0.00089 0.00047
 C131 C 0.58839 0.01950 0.01567
 C132 C 0.64175 0.02100 0.01614
 C133 C 0.66010 0.00558 0.00098
 C134 C 0.62564 -0.01199 -0.01445
 C135 C 0.57131 -0.01563 -0.01444
 H136 H 0.34930 -0.00059 -0.00125
 H137 H 0.49709 0.01861 -0.02907
 H138 H 0.48024 -0.01721 0.02900
 H139 H 0.57595 0.03423 0.02707
 H140 H 0.70093 0.00599 0.00133
 H141 H 0.54435 -0.03069 -0.02621
 C142 C -0.03790 0.60844 0.66514
 C143 C -0.04978 0.57467 0.68153
 C144 C -0.05310 0.52059 0.68171
 C145 C -0.04145 0.50138 0.66591
 C146 C -0.02825 0.53696 0.64971
 C147 C -0.02735 0.58993 0.64917
 C148 C -0.04120 0.44543 0.66643
 C149 C -0.05395 0.41418 0.65080
 C150 C -0.05009 0.36367 0.65090
 C151 C -0.03654 0.34245 0.66709
 C152 C -0.02489 0.37189 0.68291
 C153 C -0.02639 0.42368 0.68242
 H154 H -0.03775 0.64908 0.66478
 H155 H -0.06378 0.49417 0.69432
 H156 H -0.01698 0.52464 0.63751
 H157 H -0.06591 0.42941 0.63837
 H158 H -0.03594 0.30219 0.66742
 H159 H -0.01431 0.44753 0.69446
 C160 C 0.63101 0.66831 0.33335
 C161 C 0.61870 0.63652 0.31801
 C162 C 0.57150 0.58050 0.31853
 C163 C 0.53496 0.55691 0.33389
 C164 C 0.54773 0.59033 0.34899
 C165 C 0.59623 0.64544 0.34896
 C166 C 0.48384 0.49771 0.33419
 C167 C 0.46373 0.46356 0.35062
 C168 C 0.41533 0.40831 0.35106
 C169 C 0.38815 0.38611 0.33477
 C170 C 0.40792 0.41861 0.31820
 C171 C 0.45481 0.47475 0.31806
 H172 H 0.66904 0.71043 0.33331
 H173 H 0.56343 0.55562 0.30685
 H174 H 0.51969 0.57413 0.36079
 H175 H 0.48599 0.47924 0.36316
 H176 H 0.35022 0.34387 0.33502
 H177 H 0.46862 0.50015 0.30528
 C178 C -0.02626 0.28550 0.61435
 C179 C -0.07075 0.27680 0.60232
 C180 C -0.10861 0.29705 0.60601
 C181 C -0.10203 0.32567 0.62177
 C182 C -0.07273 0.16273 0.54746
 C183 C -0.01968 0.31388 0.63005
 C184 C -0.07683 0.24649 0.58640
 C185 C -0.07872 0.22045 0.57355
 C186 C -0.07720 0.18945 0.55914
 C187 C -0.05764 0.33402 0.63402
 H188 H 0.00342 0.27023 0.61160
 H189 H -0.14326 0.29047 0.59679
 H190 H -0.13209 0.34041 0.62454
 H191 H 0.01553 0.32057 0.63902
 C192 C 0.70949 0.74541 0.28036
 C193 C 0.72814 0.71395 0.27096
 C194 C 0.70985 0.65640 0.27663
 C195 C 0.67351 0.63065 0.29180
 C196 C 0.87867 0.83615 0.21927
 C197 C 0.67341 0.71989 0.29550
 C198 C 0.76779 0.74217 0.25598
 C199 C 0.80195 0.76885 0.24387
 C200 C 0.84292 0.80356 0.23028
 C201 C 0.65540 0.66240 0.30150
 H202 H 0.72336 0.78996 0.27609
 H203 H 0.72426 0.63174 0.26950
 H204 H 0.66073 0.58647 0.29621
 H205 H 0.65950 0.74513 0.30253
 C206 C 0.33858 0.05039 -0.05221
 C207 C 0.33660 0.01844 -0.06662
 C208 C 0.36538 -0.01354 -0.06534
 C209 C 0.39458 -0.01494 -0.04947
 C210 C 0.19130 -0.00472 -0.11896
 C211 C 0.36760 0.04895 -0.03634
 C212 C 0.30091 0.01468 -0.08198
 C213 C 0.26856 0.01003 -0.09426
 C214 C 0.22804 0.00286 -0.10792
 C215 C 0.39493 0.01534 -0.03466
 H216 H 0.31633 0.07517 -0.05304
 H217 H 0.36375 -0.03879 -0.07636
 H218 H 0.41479 -0.04160 -0.04849
 H219 H 0.36781 0.07331 -0.02525
 C220 C 0.02581 0.72083 0.61593
 C221 C -0.00334 0.69611 0.60017
 C222 C -0.03735 0.63623 0.60009
 C223 C -0.04349 0.60133 0.61586
 C224 C -0.00527 0.83877 0.54787
 C225 C 0.01960 0.68611 0.63169
 C226 C -0.00197 0.73278 0.58472
 C227 C -0.00193 0.76493 0.57241
 C228 C -0.00316 0.80411 0.55878
 C229 C -0.01603 0.62607 0.63194
 H230 H 0.05213 0.76713 0.61616
 H231 H -0.06044 0.61666 0.58800
 H232 H -0.07155 0.55527 0.61570
 H233 H 0.04189 0.70627 0.64380
 C234 C 0.33792 0.39946 0.27186
 C235 C 0.32227 0.34220 0.26941
 C236 C 0.33583 0.31073 0.28264
 C237 C 0.36423 0.33595 0.29836
 C238 C 0.20370 0.22087 0.21559
 C239 C 0.36655 0.42491 0.28763
 C240 C 0.29090 0.31435 0.25368
 C241 C 0.26389 0.28784 0.24105
 C242 C 0.23162 0.25327 0.22697
 C243 C 0.37949 0.39314 0.30111
 H244 H 0.32745 0.42414 0.26172
 H245 H 0.32404 0.26643 0.28087
 H246 H 0.37440 0.31072 0.30837
 H247 H 0.37738 0.46888 0.28946
 C248 C 0.63373 -0.08504 -0.05565
 C249 C 0.69122 -0.04916 -0.06106
 C250 C 0.72657 -0.00104 -0.05145
 C251 C 0.70497 0.01103 -0.03641
 C252 C 0.80139 -0.07862 -0.11320
 C253 C 0.61190 -0.07293 -0.04056
 C254 C 0.71533 -0.06166 -0.07612
 C255 C 0.73905 -0.06958 -0.08833
 C256 C 0.77085 -0.07586 -0.10206
 C257 C 0.64753 -0.02496 -0.03070
 H258 H 0.60603 -0.12254 -0.06296
 H259 H 0.77108 0.02708 -0.05554
 H260 H 0.73316 0.04879 -0.02929
 H261 H 0.56763 -0.10161 -0.03639
 C262 C 0.32951 0.01997 0.05074
 C263 C 0.32206 -0.02124 0.06474
 C264 C 0.34495 -0.05786 0.06294
 C265 C 0.37488 -0.05341 0.04708
 C266 C 0.20229 -0.01821 0.11921
 C267 C 0.35920 0.02442 0.03494
 C268 C 0.29027 -0.02540 0.08071
 C269 C 0.26292 -0.02603 0.09351
 C270 C 0.23033 -0.02339 0.10774
 C271 C 0.38193 -0.01242 0.03287
 H272 H 0.31220 0.04870 0.05201
 H273 H 0.33936 -0.08998 0.07370
 H274 H 0.39159 -0.08259 0.04580
 H275 H 0.36478 0.05706 0.02438
 C276 C 0.63338 0.68305 0.39774
 C277 C 0.65676 0.74289 0.39605
 C278 C 0.65605 0.77022 0.37925
 C279 C 0.63403 0.73820 0.36405
 C280 C 0.78444 0.87242 0.44722
 C281 C 0.61122 0.65090 0.38256
 C282 C 0.68671 0.77692 0.41099
 C283 C 0.71475 0.80628 0.42299
 C284 C 0.75087 0.84157 0.43639
 C285 C 0.61258 0.67835 0.36545
 H286 H 0.63418 0.66151 0.41065
 H287 H 0.67423 0.81653 0.37776
 H288 H 0.63499 0.76040 0.35110
 H289 H 0.59556 0.60499 0.38402
 C290 C -0.03051 0.31741 0.73205
 C291 C 0.00383 0.29137 0.73141
 C292 C 0.03188 0.29518 0.71524
 C293 C 0.02419 0.32321 0.69962
 C294 C 0.00623 0.14844 0.78354
 C295 C -0.03814 0.34567 0.71642
 C296 C 0.00659 0.25652 0.74677
 C297 C 0.00767 0.22477 0.75902
 C298 C 0.00755 0.18481 0.77262
 C299 C -0.01184 0.34774 0.69994
 H300 H -0.05275 0.31436 0.74447
 H301 H 0.05844 0.27509 0.71458
 H302 H 0.04561 0.32484 0.68719
 H303 H -0.06647 0.36377 0.71702
 C304 C 0.77298 0.08260 0.04626
 C305 C 0.74826 0.05824 0.06334
 C306 C 0.68833 0.02501 0.06518
 C307 C 0.65337 0.01472 0.04990
 C308 C 0.88819 0.06469 0.11555
 C309 C 0.73817 0.07227 0.03098
 C310 C 0.78484 0.06311 0.07856
 C311 C 0.81653 0.06541 0.09081
 C312 C 0.85473 0.06601 0.10449
 C313 C 0.67806 0.03723 0.03258
 H314 H 0.81932 0.10823 0.04467
 H315 H 0.66876 0.00555 0.07831
 H316 H 0.60728 -0.01284 0.05151
 H317 H 0.75832 0.09080 0.01786
 C318 C 0.34063 0.28159 0.38564
 C319 C 0.33202 0.30784 0.40001
 C320 C 0.35492 0.36762 0.39897
 C321 C 0.38449 0.40079 0.38334
 C322 C 0.18135 0.17702 0.45076
 C323 C 0.37006 0.31462 0.37001
 C324 C 0.29491 0.27284 0.41493
 C325 C 0.26130 0.24295 0.42683
 C326 C 0.21928 0.20749 0.44006
 C327 C 0.39111 0.37442 0.36851
 H328 H 0.32293 0.23534 0.38628
 H329 H 0.34810 0.38833 0.40995
 H330 H 0.39969 0.44663 0.38250
 H331 H 0.37516 0.29326 0.35890
 C332 C -0.02387 0.67772 0.71765
 C333 C -0.06719 0.64296 0.73033
 C334 C -0.10492 0.58520 0.72723
 C335 C -0.09939 0.56249 0.71140
 C336 C -0.06523 0.75698 0.78521
 C337 C -0.01834 0.65525 0.70188
 C338 C -0.07218 0.66784 0.74632
 C339 C -0.07317 0.69246 0.75920
 C340 C -0.07061 0.72545 0.77359
 C341 C -0.05619 0.59749 0.69850
 H342 H 0.00572 0.72240 0.71994
 H343 H -0.13867 0.55792 0.73697
 H344 H -0.12935 0.51796 0.70910
 H345 H 0.01599 0.68299 0.69239
   
