data_POSCAR
  _audit_creation_date              2014-09-24
  _audit_creation_method            'ToBaCCo'
  _symmetry_space_group_name_H-M    'P1'
  _symmetry_Int_Tables_number       1
  _symmetry_cell_setting            triclinic
  loop_
  _symmetry_equiv_pos_as_xyz
 x,y,z
_cell_length_a 78.8343
_cell_length_b 78.8485
_cell_length_c 23.0750
_cell_angle_alpha 90.021600
_cell_angle_beta 90.039500
_cell_angle_gamma 120.028900
loop_
  _atom_site_label
  _atom_site_type_symbol
  _atom_site_fract_x
  _atom_site_fract_y
  _atom_site_fract_z
C1 C 0.24856 0.49820 0.52442
 C2 C 0.24849 0.49811 0.46546
 C3 C 0.23277 0.49879 0.43215
 C4 C 0.26401 0.49722 0.43170
 C5 C 0.26492 0.49886 0.55800
 C6 C 0.23218 0.49743 0.55801
 C7 C 0.21939 0.48240 0.40027
 C8 C 0.20388 0.48246 0.37112
 C9 C 0.20168 0.49919 0.37188
 C10 C 0.21569 0.51585 0.40284
 C11 C 0.23091 0.51554 0.43306
 C12 C 0.26791 0.48187 0.44005
 C13 C 0.28314 0.48161 0.40998
 C14 C 0.29463 0.49660 0.37045
 C15 C 0.29026 0.51162 0.36090
 C16 C 0.27505 0.51189 0.39116
 C17 C 0.28394 0.51503 0.55406
 C18 C 0.29935 0.51522 0.58467
 C19 C 0.29603 0.49912 0.61910
 C20 C 0.27690 0.48304 0.62327
 C21 C 0.26146 0.48302 0.59348
 C22 C 0.23581 0.51239 0.59748
 C23 C 0.22039 0.51205 0.62828
 C24 C 0.20105 0.49664 0.62038
 C25 C 0.19755 0.48144 0.58163
 C26 C 0.21299 0.48179 0.55099
 H27 H 0.22069 0.46937 0.39915
 H28 H 0.19370 0.46932 0.34783
 H29 H 0.21477 0.52910 0.40491
 H30 H 0.24124 0.52835 0.45736
 H31 H 0.25924 0.47017 0.47022
 H32 H 0.28596 0.46972 0.41800
 H33 H 0.27215 0.52378 0.38388
 H34 H 0.28682 0.52742 0.52707
 H35 H 0.31393 0.52779 0.58052
 H36 H 0.27386 0.47050 0.64976
 H37 H 0.24684 0.47045 0.59703
 H38 H 0.25057 0.52451 0.60370
 H39 H 0.22363 0.52395 0.65789
 H40 H 0.18288 0.46927 0.57482
 H41 H 0.20998 0.46988 0.52166
 H42 H 0.29874 0.52334 0.33062
 C43 C 0.50356 -0.24855 0.52980
 C44 C 0.50331 -0.24859 0.47081
 C45 C 0.50254 -0.26496 0.43706
 C46 C 0.50402 -0.23222 0.43723
 C47 C 0.50312 -0.23281 0.56381
 C48 C 0.50430 -0.26425 0.56310
 C49 C 0.51840 -0.26157 0.40178
 C50 C 0.51831 -0.27704 0.37200
 C51 C 0.50215 -0.29612 0.37595
 C52 C 0.48603 -0.29938 0.41017
 C53 C 0.48629 -0.28393 0.44078
 C54 C 0.51937 -0.21292 0.44507
 C55 C 0.51966 -0.19756 0.41412
 C56 C 0.50470 -0.20123 0.37422
 C57 C 0.48958 -0.22066 0.36553
 C58 C 0.48930 -0.23600 0.39663
 C59 C 0.48700 -0.22988 0.56063
 C60 C 0.48690 -0.21480 0.59231
 C61 C 0.50302 -0.20229 0.62720
 C62 C 0.51908 -0.20539 0.63045
 C63 C 0.51901 -0.22066 0.59954
 C64 C 0.48965 -0.27519 0.60375
 C65 C 0.48972 -0.29056 0.63365
 C66 C 0.50454 -0.29527 0.62364
 C67 C 0.51953 -0.28378 0.58388
 C68 C 0.51945 -0.26838 0.55428
 H69 H 0.53104 -0.24700 0.39844
 H70 H 0.53088 -0.27405 0.34570
 H71 H 0.47340 -0.31392 0.41416
 H72 H 0.47388 -0.28676 0.46766
 H73 H 0.53112 -0.20977 0.47524
 H74 H 0.53161 -0.18282 0.42158
 H75 H 0.47740 -0.25082 0.38971
 H76 H 0.47454 -0.23926 0.53359
 H77 H 0.47435 -0.21274 0.58879
 H78 H 0.53165 -0.19608 0.65719
 H79 H 0.53152 -0.22280 0.60263
 H80 H 0.47792 -0.27209 0.61147
 H81 H 0.47798 -0.29886 0.66407
 H82 H 0.53134 -0.28669 0.57520
 H83 H 0.53116 -0.25976 0.52407
 H84 H 0.47787 -0.22404 0.33502
 C85 C 1.24951 0.75007 0.52920
 C86 C 1.24881 0.75089 0.47019
 C87 C 1.26366 0.76772 0.43581
 C88 C 1.23299 0.73460 0.43675
 C89 C 1.23303 0.73402 0.56195
 C90 C 1.26631 0.76513 0.56378
 C91 C 1.26810 0.78697 0.44764
 C92 C 1.28248 0.80265 0.41562
 C93 C 1.29265 0.79938 0.37065
 C94 C 1.28771 0.77993 0.35824
 C95 C 1.27336 0.76433 0.39028
 C96 C 1.21981 0.73780 0.40444
 C97 C 1.20442 0.72236 0.37454
 C98 C 1.20226 0.70355 0.37542
 C99 C 1.21584 0.70052 0.40664
 C100 C 1.23103 0.71591 0.43734
 C101 C 1.23651 0.72210 0.59941
 C102 C 1.22102 0.70675 0.62939
 C103 C 1.20165 0.70301 0.62266
 C104 C 1.19838 0.71536 0.58580
 C105 C 1.21390 0.73074 0.55621
 C106 C 1.28579 0.77183 0.54721
 C107 C 1.30130 0.78693 0.57779
 C108 C 1.29775 0.79507 0.62754
 C109 C 1.27825 0.78735 0.64627
 C110 C 1.26274 0.77275 0.61438
 H111 H 1.26051 0.78986 0.48195
 H112 H 1.28566 0.81731 0.42649
 H113 H 1.29500 0.77663 0.32397
 H114 H 1.27006 0.74957 0.38020
 H115 H 1.22121 0.75219 0.40343
 H116 H 1.19427 0.72516 0.35052
 H117 H 1.24122 0.71327 0.46175
 H118 H 1.25121 0.72452 0.60479
 H119 H 1.22429 0.69774 0.65743
 H120 H 1.18382 0.71323 0.57960
 H121 H 1.21098 0.74008 0.52856
 H122 H 1.28906 0.76558 0.51004
 H123 H 1.31607 0.79206 0.56259
 H124 H 1.27481 0.79302 0.68451
 H125 H 1.24788 0.76764 0.62871
 H126 H 1.21452 0.68618 0.40818
 C127 C 0.75195 0.50406 0.52934
 C128 C 0.75171 0.50383 0.47041
 C129 C 0.76730 0.50318 0.43639
 C130 C 0.73586 0.50429 0.43711
 C131 C 0.73564 0.50344 0.56270
 C132 C 0.76840 0.50494 0.56310
 C133 C 0.77929 0.51886 0.39988
 C134 C 0.79451 0.51880 0.36914
 C135 C 0.79772 0.50283 0.37339
 C136 C 0.78533 0.48689 0.40891
 C137 C 0.77030 0.48713 0.44045
 C138 C 0.73260 0.52015 0.44223
 C139 C 0.71759 0.52044 0.41080
 C140 C 0.70568 0.50494 0.37316
 C141 C 0.70923 0.48922 0.36752
 C142 C 0.72423 0.48895 0.39906
 C143 C 0.71751 0.48612 0.56619
 C144 C 0.70204 0.48574 0.59686
 C145 C 0.70429 0.50285 0.62359
 C146 C 0.72265 0.52018 0.61980
 C147 C 0.73821 0.52036 0.59036
 C148 C 0.76468 0.49067 0.60510
 C149 C 0.78008 0.49109 0.63633
 C150 C 0.79962 0.50592 0.62643
 C151 C 0.80317 0.52047 0.58498
 C152 C 0.78773 0.52003 0.55399
 H153 H 0.77710 0.53132 0.39616
 H154 H 0.80371 0.53120 0.34180
 H155 H 0.78746 0.47441 0.41310
 H156 H 0.76105 0.47484 0.46815
 H157 H 0.74174 0.53236 0.47036
 H158 H 0.71538 0.53284 0.41596
 H159 H 0.72665 0.47666 0.39426
 H160 H 0.71538 0.47291 0.54515
 H161 H 0.68823 0.47209 0.59861
 H162 H 0.72513 0.53366 0.63982
 H163 H 0.75217 0.53384 0.58796
 H164 H 0.74985 0.47897 0.61309
 H165 H 0.77659 0.47965 0.66791
 H166 H 0.81790 0.53225 0.57619
 H167 H 0.79087 0.53147 0.52271
 H168 H 0.70041 0.47707 0.33884
 C169 C 0.49873 0.24912 0.53118
 C170 C 0.49846 0.24946 0.47190
 C171 C 0.49942 0.26621 0.43889
 C172 C 0.49688 0.23290 0.43689
 C173 C 0.50031 0.23365 0.56408
 C174 C 0.49702 0.26404 0.56621
 C175 C 0.48667 0.26254 0.39192
 C176 C 0.48731 0.27802 0.36066
 C177 C 0.50048 0.29749 0.37638
 C178 C 0.51344 0.30122 0.42271
 C179 C 0.51321 0.28573 0.45286
 C180 C 0.48154 0.21368 0.44610
 C181 C 0.48063 0.19814 0.41440
 C182 C 0.49492 0.20155 0.37239
 C183 C 0.50992 0.22092 0.36208
 C184 C 0.51083 0.23643 0.39389
 C185 C 0.51396 0.22793 0.54846
 C186 C 0.51448 0.21267 0.57763
 C187 C 0.50203 0.20337 0.62519
 C188 C 0.48921 0.20996 0.64288
 C189 C 0.48820 0.22472 0.61226
 C190 C 0.51110 0.27476 0.60864
 C191 C 0.50994 0.28914 0.64088
 C192 C 0.49456 0.29308 0.63159
 C193 C 0.48017 0.28187 0.58987
 C194 C 0.48135 0.26745 0.55782
 H195 H 0.47604 0.24766 0.37981
 H196 H 0.47716 0.27477 0.32509
 H197 H 0.52394 0.31613 0.43502
 H198 H 0.52374 0.28902 0.48730
 H199 H 0.47042 0.21071 0.47834
 H200 H 0.46879 0.18344 0.42316
 H201 H 0.52268 0.25118 0.38583
 H202 H 0.52410 0.23513 0.51316
 H203 H 0.52487 0.20839 0.56321
 H204 H 0.47942 0.20333 0.67933
 H205 H 0.47770 0.22897 0.62577
 H206 H 0.52322 0.27222 0.61608
 H207 H 0.52127 0.29727 0.67268
 H208 H 0.46798 0.28423 0.58154
 H209 H 0.47011 0.25904 0.52605
 H210 H 0.52110 0.22411 0.32988
 C211 C 0.75151 0.24769 0.53012
 C212 C 0.75130 0.24800 0.47119
 C213 C 0.73468 0.23260 0.43774
 C214 C 0.76768 0.26363 0.43748
 C215 C 0.76734 0.26387 0.56375
 C216 C 0.73591 0.23124 0.56367
 C217 C 0.73761 0.21990 0.40216
 C218 C 0.72184 0.20466 0.37281
 C219 C 0.70295 0.20218 0.37751
 C220 C 0.70018 0.21533 0.41185
 C221 C 0.71591 0.23035 0.44208
 C222 C 0.78689 0.26721 0.44425
 C223 C 0.80226 0.28216 0.41295
 C224 C 0.79869 0.29368 0.37376
 C225 C 0.77934 0.28976 0.36626
 C226 C 0.76399 0.27483 0.39770
 C227 C 0.76954 0.28264 0.56305
 C228 C 0.78469 0.29790 0.59431
 C229 C 0.79817 0.29476 0.62613
 C230 C 0.79573 0.27578 0.62659
 C231 C 0.78032 0.26047 0.59634
 C232 C 0.72514 0.23493 0.60503
 C233 C 0.71007 0.21951 0.63586
 C234 C 0.70557 0.20007 0.62616
 C235 C 0.71670 0.19649 0.58547
 C236 C 0.73178 0.21193 0.55475
 H237 H 0.75204 0.22150 0.39829
 H238 H 0.72444 0.19485 0.34630
 H239 H 0.68579 0.21376 0.41634
 H240 H 0.71347 0.24015 0.46916
 H241 H 0.78997 0.25841 0.47376
 H242 H 0.81694 0.28465 0.41951
 H243 H 0.74923 0.27218 0.39160
 H244 H 0.75952 0.28543 0.53830
 H245 H 0.78596 0.31222 0.59262
 H246 H 0.80563 0.27261 0.65064
 H247 H 0.77873 0.24601 0.59735
 H248 H 0.72819 0.24976 0.61272
 H249 H 0.70187 0.22283 0.66696
 H250 H 0.71375 0.18174 0.57717
 H251 H 0.74021 0.20883 0.52385
 H252 H 0.77603 0.29829 0.33637
 O253 O 1.02691 0.54333 0.10340
 O254 O 1.04853 0.53846 0.04920
 C255 C 1.04451 0.54755 0.08889
 O256 O 0.97225 0.45499 0.09928
 O257 O 0.95059 0.46045 0.04736
 C258 C 0.95463 0.45064 0.08453
 O259 O 1.02689 0.48378 0.10515
 O260 O 1.04851 0.51012 0.05053
 C261 C 1.04449 0.49713 0.09058
 O262 O 0.97211 0.51765 0.09697
 O263 O 0.95055 0.49005 0.04649
 C264 C 0.95451 0.50410 0.08283
 Zr265 Zr 0.99952 0.52144 0.07022
 O266 O 0.99779 0.52151 0.16174
 O267 O 1.00050 0.54864 0.06307
 Zr268 Zr 0.99956 0.47876 0.07303
 O269 O 0.99893 0.48178 0.16387
 O270 O 0.99991 0.45228 0.08293
 O271 O 1.01709 0.50890 0.08293
 O272 O 0.98236 0.49152 0.08213
 O273 O 0.97240 0.51700 -0.10339
 O274 O 0.95068 0.48999 -0.05120
 C275 C 0.95476 0.50378 -0.08862
 O276 O 1.02689 0.48322 -0.10583
 O277 O 1.04856 0.50963 -0.05132
 C278 C 1.04451 0.49650 -0.09099
 O279 O 0.97198 0.45430 -0.10011
 O280 O 0.95041 0.46031 -0.04976
 C281 C 0.95438 0.45023 -0.08607
 O282 O 1.02711 0.54258 -0.10870
 O283 O 1.04868 0.53817 -0.05270
 C284 C 1.04471 0.54699 -0.09340
 Zr285 Zr 0.99967 0.52076 -0.07572
 O286 O 0.99750 0.51888 -0.16724
 O287 O 1.00155 0.54848 -0.07717
 Zr288 Zr 0.99952 0.47789 -0.07340
 O289 O 0.99730 0.47651 -0.16493
 O290 O 1.00143 0.45205 -0.07186
 Zr291 Zr 1.02892 0.51431 -0.00142
 Zr292 Zr 0.97027 0.48502 -0.00172
 O293 O 0.98252 0.49077 -0.08535
 O294 O 1.01712 0.50800 -0.08593
 O295 O 0.98206 0.51561 -0.00303
 O296 O 1.01660 0.48369 -0.00001
 O297 O 1.01676 0.53274 -0.00272
 O298 O 0.98211 0.46624 -0.00008
 H299 H 0.97346 0.48719 0.11603
 H300 H 1.02544 0.47816 0.00036
 H301 H 0.97366 0.48623 -0.11940
 H302 H 1.02563 0.54713 -0.00314
 H303 H 1.00327 0.44908 0.04481
 H304 H 0.99063 0.44241 -0.04719
 H305 H 1.00832 0.48878 -0.18039
 H306 H 1.00881 0.51799 -0.18191
 H307 H 0.99276 0.54839 -0.04644
 H308 H 1.00048 0.55306 0.10326
 H309 H 1.00692 0.51740 0.17693
 H310 H 0.99846 0.47000 0.18072
 O311 O 0.51448 0.54155 -0.11371
 O312 O 0.48924 0.53803 -0.05579
 C313 C 0.50165 0.54635 -0.09766
 O314 O 0.48090 0.45364 -0.10044
 O315 O 0.50858 0.45965 -0.05057
 C316 C 0.49431 0.44944 -0.08622
 O317 O 0.45540 0.48281 -0.10642
 O318 O 0.46082 0.50972 -0.05331
 C319 C 0.45141 0.49638 -0.09229
 O320 O 0.54352 0.51586 -0.10776
 O321 O 0.53828 0.48909 -0.05441
 C322 C 0.54782 0.50259 -0.09273
 Zr323 Zr 0.52039 0.52017 -0.07919
 O324 O 0.52007 0.51800 -0.17065
 O325 O 0.54611 0.54803 -0.08230
 Zr326 Zr 0.47750 0.47751 -0.07398
 O327 O 0.47825 0.47749 -0.16565
 O328 O 0.45030 0.45124 -0.06581
 O329 O 0.49013 0.50754 -0.08764
 O330 O 0.50730 0.49010 -0.08720
 O331 O 0.54554 0.51766 0.09299
 O332 O 0.53935 0.48992 0.04300
 C333 C 0.54958 0.50411 0.07886
 O334 O 0.45760 0.48502 0.10576
 O335 O 0.46167 0.51064 0.04872
 C336 C 0.45310 0.49809 0.09010
 O337 O 0.48330 0.45606 0.10172
 O338 O 0.50945 0.46053 0.04651
 C339 C 0.49621 0.45136 0.08580
 O340 O 0.51714 0.54416 0.09885
 O341 O 0.49023 0.53895 0.04621
 C342 C 0.50367 0.54831 0.08492
 Zr343 Zr 0.52205 0.52176 0.06681
 O344 O 0.52405 0.52154 0.15829
 O345 O 0.54784 0.54955 0.06310
 Zr346 Zr 0.47909 0.47910 0.07200
 O347 O 0.48112 0.47911 0.16350
 O348 O 0.45138 0.45319 0.07390
 Zr349 Zr 0.48522 0.51443 -0.00344
 Zr350 Zr 0.51429 0.48489 -0.00364
 O351 O 0.50913 0.49194 0.08003
 O352 O 0.49201 0.50937 0.08092
 O353 O 0.53327 0.51548 -0.00664
 O354 O 0.46671 0.48389 -0.00067
 O355 O 0.51585 0.53268 -0.00654
 O356 O 0.48373 0.46623 -0.00063
 H357 H 0.51131 0.48529 -0.12128
 H358 H 0.45233 0.47840 0.00038
 H359 H 0.51386 0.48785 0.11409
 H360 H 0.52146 0.54707 -0.00778
 H361 H 0.44541 0.44665 -0.10557
 H362 H 0.45169 0.44410 0.04492
 H363 H 0.48286 0.49172 0.17765
 H364 H 0.51192 0.52048 0.17431
 H365 H 0.55758 0.54811 0.03989
 H366 H 0.55621 0.54730 -0.05878
 H367 H 0.50649 0.51350 -0.18351
 H368 H 0.46637 0.46544 -0.17880
 O369 O 0.48158 0.02697 0.10097
 O370 O 0.50853 0.04851 0.04825
 C371 C 0.49504 0.04455 0.08663
 O372 O 0.51489 -0.02789 0.10568
 O373 O 0.48830 -0.04955 0.05184
 C374 C 0.50178 -0.04550 0.09037
 O375 O 0.54075 0.02672 0.11125
 O376 O 0.53688 0.04834 0.05397
 C377 C 0.54534 0.04433 0.09565
 O378 O 0.45237 -0.02769 0.09506
 O379 O 0.45852 -0.04945 0.04639
 C380 C 0.44819 -0.04533 0.08133
 Zr381 Zr 0.47623 -0.00045 0.06877
 O382 O 0.47307 -0.00202 0.15998
 O383 O 0.45020 0.00060 0.05657
 Zr384 Zr 0.51878 -0.00058 0.07808
 O385 O 0.51402 -0.00118 0.16833
 O386 O 0.54546 -0.00026 0.09208
 O387 O 0.50619 0.01704 0.08463
 O388 O 0.48871 -0.01769 0.08410
 O389 O 0.45604 -0.02773 -0.10775
 O390 O 0.45996 -0.04936 -0.05050
 C391 C 0.45110 -0.04532 -0.09090
 O392 O 0.54391 0.02653 -0.09947
 O393 O 0.53860 0.04829 -0.04763
 C394 C 0.54812 0.04417 -0.08560
 O395 O 0.51753 -0.02838 -0.09338
 O396 O 0.48936 -0.04984 -0.04525
 C397 C 0.50377 -0.04595 -0.07999
 O398 O 0.48558 0.02711 -0.11249
 O399 O 0.51025 0.04862 -0.05232
 C400 C 0.49829 0.04469 -0.09542
 Zr401 Zr 0.47887 -0.00043 -0.07708
 O402 O 0.47923 -0.00252 -0.16847
 O403 O 0.45311 0.00162 -0.08047
 Zr404 Zr 0.52140 -0.00078 -0.06803
 O405 O 0.52177 -0.00310 -0.15941
 O406 O 0.54906 0.00101 -0.06208
 Zr407 Zr 0.51364 0.02875 0.00032
 Zr408 Zr 0.48405 -0.02987 0.00053
 O409 O 0.49168 -0.01768 -0.08306
 O410 O 0.50919 0.01690 -0.08396
 O411 O 0.46543 -0.01796 -0.00478
 O412 O 0.53183 0.01637 0.00552
 O413 O 0.48310 0.01671 -0.00474
 O414 O 0.51465 -0.01813 0.00577
 H415 H 0.48369 -0.02657 0.11800
 H416 H 0.54622 0.02517 0.00729
 H417 H 0.48781 -0.02651 -0.11712
 H418 H 0.47770 0.02566 -0.00679
 H419 H 0.55238 0.00285 0.05456
 H420 H 0.54745 -0.00993 -0.03724
 H421 H 0.52103 0.00806 -0.17612
 H422 H 0.49217 0.00796 -0.18201
 H423 H 0.44345 -0.00848 -0.05403
 H424 H 0.44519 0.00070 0.09587
 H425 H 0.48623 0.00662 0.17662
 H426 H 0.52509 -0.00167 0.18693
 C427 C 1.15577 0.49896 0.28933
 N428 N 1.15715 0.48251 0.29162
 N429 N 1.17224 0.48265 0.31814
 C430 C 1.18650 0.49918 0.34412
 N431 N 1.18497 0.51562 0.34178
 N432 N 1.16999 0.51554 0.31469
 C433 C 1.13912 0.49876 0.26007
 N434 N 1.13997 0.51576 0.24436
 N435 N 1.12489 0.51553 0.21746
 C436 C 1.10833 0.49831 0.20590
 N437 N 1.10744 0.48132 0.22193
 N438 N 1.12260 0.48154 0.24825
 C439 C 1.09170 0.49804 0.17631
 N440 N 1.07363 0.48180 0.17774
 N441 N 1.05855 0.48154 0.15083
 C442 C 1.06102 0.49746 0.12095
 N443 N 1.07910 0.51367 0.11931
 N444 N 1.09414 0.51400 0.14677
 C445 C 0.50253 0.65739 0.28835
 N446 N 0.48535 0.65606 0.30458
 N447 N 0.48521 0.67078 0.33257
 C448 C 0.50224 0.68747 0.34495
 N449 N 0.51940 0.68879 0.32846
 N450 N 0.51955 0.67401 0.30091
 C451 C 0.50272 0.64114 0.25773
 N452 N 0.51970 0.64085 0.25127
 N453 N 0.51988 0.62609 0.22373
 C454 C 0.50313 0.61115 0.20119
 N455 N 0.48617 0.61148 0.20743
 N456 N 0.48596 0.62617 0.23539
 C457 C 0.50333 0.59488 0.17073
 N458 N 0.48765 0.58200 0.13883
 N459 N 0.48783 0.56724 0.11121
 C460 C 0.50362 0.56473 0.11485
 N461 N 0.51928 0.57757 0.14692
 N462 N 0.51917 0.59243 0.17415
 C463 C 0.33665 -0.15460 0.27923
 N464 N 0.32676 -0.15121 0.32156
 N465 N 0.31249 -0.16605 0.35090
 C466 C 0.30750 -0.18489 0.33914
 N467 N 0.31743 -0.18818 0.29650
 N468 N 0.33170 -0.17336 0.26720
 C469 C 0.35268 -0.13828 0.24759
 N470 N 0.36294 -0.14178 0.20671
 N471 N 0.37774 -0.12701 0.17877
 C472 C 0.38282 -0.10818 0.19063
 N473 N 0.37251 -0.10468 0.23135
 N474 N 0.35772 -0.11946 0.25934
 C475 C 0.39947 -0.09187 0.16087
 N476 N 0.40456 -0.07305 0.17284
 N477 N 0.41996 -0.05824 0.14700
 C478 C 0.43084 -0.06170 0.10825
 N479 N 0.42568 -0.08053 0.09607
 N480 N 0.41027 -0.09534 0.12188
 C481 C 0.84417 0.50335 0.28322
 N482 N 0.84443 0.52033 0.29530
 N483 N 0.82962 0.52013 0.32362
 C484 C 0.81403 0.50296 0.34139
 N485 N 0.81383 0.48599 0.32943
 N486 N 0.82858 0.48617 0.30068
 C487 C 0.86053 0.50361 0.25209
 N488 N 0.85883 0.48682 0.23047
 N489 N 0.87371 0.48707 0.20232
 C490 C 0.89088 0.50410 0.19516
 N491 N 0.89260 0.52089 0.21693
 N492 N 0.87766 0.52066 0.24466
 C493 C 0.90737 0.50431 0.16499
 N494 N 0.92562 0.52024 0.16789
 N495 N 0.94066 0.52024 0.14151
 C496 C 0.93794 0.50438 0.11082
 N497 N 0.91966 0.48850 0.10758
 N498 N 0.90466 0.48844 0.13435
 C499 C 0.49978 0.34353 0.28794
 N500 N 0.49599 0.32693 0.25945
 N501 N 0.49622 0.31228 0.28755
 C502 C 0.50051 0.31381 0.34501
 N503 N 0.50447 0.33050 0.37334
 N504 N 0.50399 0.34504 0.34541
 C505 C 0.49909 0.35949 0.25732
 N506 N 0.49649 0.37286 0.28711
 N507 N 0.49561 0.38722 0.25934
 C508 C 0.49755 0.38885 0.20084
 N509 N 0.50028 0.37555 0.17107
 N510 N 0.50090 0.36105 0.19878
 C511 C 0.49684 0.40483 0.17040
 N512 N 0.50488 0.41054 0.11692
 N513 N 0.50463 0.42535 0.08987
 C514 C 0.49609 0.43478 0.11499
 N515 N 0.48789 0.42894 0.16822
 N516 N 0.48836 0.41430 0.19559
 C517 C 0.65539 0.15527 0.29360
 N518 N 0.65470 0.17161 0.30802
 N519 N 0.66979 0.18652 0.33474
 C520 C 0.68621 0.18573 0.34754
 N521 N 0.68689 0.16941 0.33279
 N522 N 0.67174 0.15443 0.30655
 C523 C 0.63872 0.13870 0.26477
 N524 N 0.63776 0.12105 0.26123
 N525 N 0.62265 0.10596 0.23521
 C526 C 0.60804 0.10802 0.21135
 N527 N 0.60903 0.12569 0.21469
 N528 N 0.62406 0.14074 0.24117
 C529 C 0.59154 0.09143 0.18200
 N530 N 0.57919 0.09428 0.14771
 N531 N 0.56445 0.07926 0.12025
 C532 C 0.56141 0.06082 0.12652
 N533 N 0.57369 0.05795 0.16113
 N534 N 0.58853 0.07300 0.18817
 C535 C 0.50189 0.15690 -0.29205
 N536 N 0.51173 0.16394 -0.34259
 N537 N 0.51201 0.17913 -0.36882
 C538 C 0.50222 0.18771 -0.34613
 N539 N 0.49231 0.18051 -0.29557
 N540 N 0.49228 0.16552 -0.26883
 C541 C 0.50156 0.14017 -0.26314
 N542 N 0.49897 0.13782 -0.20495
 N543 N 0.49867 0.12264 -0.17866
 C544 C 0.50061 0.10908 -0.20973
 N545 N 0.50308 0.11136 -0.26798
 N546 N 0.50370 0.12672 -0.29417
 C547 C 0.50011 0.09231 -0.18059
 N548 N 0.49418 0.07519 -0.20926
 N549 N 0.49347 0.05990 -0.18218
 C550 C 0.49896 0.06134 -0.12578
 N551 N 0.50503 0.07850 -0.09737
 N552 N 0.50545 0.09366 -0.12413
 C553 C 0.65816 0.50259 -0.29090
 N554 N 0.65654 0.48564 -0.31081
 N555 N 0.67140 0.48572 -0.33854
 C556 C 0.68857 0.50272 -0.34699
 N557 N 0.69013 0.51963 -0.32659
 N558 N 0.67522 0.51959 -0.29938
 C559 C 0.64174 0.50258 -0.26090
 N560 N 0.64157 0.51955 -0.25297
 N561 N 0.62663 0.51957 -0.22607
 C562 C 0.61141 0.50264 -0.20561
 N563 N 0.61163 0.48568 -0.21328
 N564 N 0.62648 0.48563 -0.24067
 C565 C 0.59497 0.50268 -0.17592
 N566 N 0.58194 0.48688 -0.14482
 N567 N 0.56701 0.48692 -0.11793
 C568 C 0.56446 0.50269 -0.12159
 N569 N 0.57745 0.51847 -0.15286
 N570 N 0.59248 0.51850 -0.17931
 C571 C 0.84397 0.34010 -0.28541
 N572 N 0.84273 0.32236 -0.28965
 N573 N 0.82787 0.30770 -0.31783
 C574 C 0.81374 0.31021 -0.34349
 N575 N 0.81512 0.32807 -0.33927
 N576 N 0.82987 0.34268 -0.31058
 C577 C 0.86035 0.35627 -0.25439
 N578 N 0.85939 0.37232 -0.23822
 N579 N 0.87426 0.38702 -0.21018
 C580 C 0.89072 0.38629 -0.19780
 N581 N 0.89173 0.37027 -0.21416
 N582 N 0.87677 0.35548 -0.24168
 C583 C 0.90722 0.40267 -0.16782
 N584 N 0.92529 0.40450 -0.16818
 N585 N 0.94034 0.41963 -0.14203
 C586 C 0.93780 0.43335 -0.11404
 N587 N 0.91970 0.43142 -0.11331
 N588 N 0.90471 0.41641 -0.13995
 C589 C 0.50357 -0.15602 -0.28108
 N590 N 0.48638 -0.17160 -0.29873
 N591 N 0.48619 -0.18627 -0.32795
 C592 C 0.50317 -0.18602 -0.34025
 N593 N 0.52034 -0.17046 -0.32226
 N594 N 0.52055 -0.15571 -0.29345
 C595 C 0.50381 -0.13973 -0.24941
 N596 N 0.52087 -0.12265 -0.24122
 N597 N 0.52107 -0.10780 -0.21302
 C598 C 0.50424 -0.10954 -0.19153
 N599 N 0.48720 -0.12666 -0.19943
 N600 N 0.48698 -0.14146 -0.22803
 C601 C 0.50437 -0.09310 -0.16111
 N602 N 0.48833 -0.09580 -0.13149
 N603 N 0.48828 -0.08083 -0.10491
 C604 C 0.50420 -0.06257 -0.10729
 N605 N 0.52026 -0.05985 -0.13690
 N606 N 0.52037 -0.07487 -0.16311
 C607 C 0.34250 0.49852 -0.29388
 N608 N 0.34388 0.51573 -0.30991
 N609 N 0.32915 0.51594 -0.33766
 C610 C 0.31241 0.49896 -0.34999
 N611 N 0.31104 0.48176 -0.33368
 N612 N 0.32582 0.48154 -0.30637
 C613 C 0.35878 0.49823 -0.26370
 N614 N 0.35903 0.48122 -0.25775
 N615 N 0.37381 0.48094 -0.23062
 C616 C 0.38881 0.49762 -0.20800
 N617 N 0.38852 0.51462 -0.21372
 N618 N 0.37382 0.51493 -0.24129
 C619 C 0.40507 0.49728 -0.17788
 N620 N 0.41801 0.51286 -0.14573
 N621 N 0.43271 0.51252 -0.11824
 C622 C 0.43510 0.49666 -0.12226
 N623 N 0.42221 0.48111 -0.15461
 N624 N 0.40741 0.48139 -0.18171
 C625 C 1.15546 0.65682 -0.29284
 N626 N 1.15230 0.66853 -0.32897
 N627 N 1.16722 0.68346 -0.35602
 C628 C 1.18593 0.68731 -0.34822
 N629 N 1.18900 0.67551 -0.31191
 N630 N 1.17408 0.66059 -0.28474
 C631 C 1.13895 0.64032 -0.26318
 N632 N 1.14209 0.62909 -0.22493
 N633 N 1.12710 0.61415 -0.19807
 C634 C 1.10841 0.60986 -0.20858
 N635 N 1.10528 0.62108 -0.24688
 N636 N 1.12027 0.63604 -0.27364
 C637 C 1.09186 0.59342 -0.17891
 N638 N 1.07315 0.58865 -0.19135
 N639 N 1.05813 0.57381 -0.16429
 C640 C 1.06126 0.56322 -0.12369
 N641 N 1.07998 0.56799 -0.11126
 N642 N 1.09500 0.58280 -0.13841
 C643 C 0.84532 0.50617 -0.28527
 N644 N 0.82653 0.49209 -0.27483
 N645 N 0.81178 0.49205 -0.30316
 C646 C 0.81520 0.50610 -0.34309
 N647 N 0.83407 0.52021 -0.35323
 N648 N 0.84882 0.52025 -0.32494
 C649 C 0.86161 0.50607 -0.25466
 N650 N 0.88043 0.51993 -0.26611
 N651 N 0.89522 0.51972 -0.23888
 C652 C 0.89175 0.50564 -0.19918
 N653 N 0.87293 0.49180 -0.18763
 N654 N 0.85813 0.49201 -0.21488
 C655 C 0.90809 0.50528 -0.16977
 N656 N 0.90468 0.49121 -0.13011
 N657 N 0.91955 0.49077 -0.10402
 C658 C 0.93836 0.50439 -0.11666
 N659 N 0.94175 0.51848 -0.15623
 N660 N 0.92690 0.51892 -0.18229
 C661 C 0.49263 0.33740 -0.27864
 N662 N 0.47860 0.32652 -0.31819
 N663 N 0.47914 0.31213 -0.34686
 C664 C 0.49374 0.30802 -0.33724
 N665 N 0.50771 0.31894 -0.29736
 N666 N 0.50718 0.33332 -0.26866
 C667 C 0.49232 0.35356 -0.24794
 N668 N 0.50648 0.36452 -0.20875
 N669 N 0.50645 0.37944 -0.18175
 C670 C 0.49226 0.38395 -0.19296
 N671 N 0.47806 0.37295 -0.23201
 N672 N 0.47808 0.35803 -0.25901
 C673 C 0.49251 0.40069 -0.16420
 N674 N 0.47862 0.40554 -0.17648
 N675 N 0.47910 0.42099 -0.15132
 C676 C 0.49349 0.43215 -0.11296
 N677 N 0.50734 0.42726 -0.10053
 N678 N 0.50685 0.41181 -0.12570
 C679 C 0.65910 0.15352 -0.28512
 N680 N 0.66972 0.15004 -0.32470
 N681 N 0.68451 0.16481 -0.35264
 C682 C 0.68927 0.18365 -0.34214
 N683 N 0.67862 0.18707 -0.30242
 N684 N 0.66383 0.17231 -0.27444
 C685 C 0.64268 0.13722 -0.25469
 N686 N 0.63206 0.14070 -0.21502
 N687 N 0.61708 0.12590 -0.18773
 C688 C 0.61216 0.10709 -0.19914
 N689 N 0.62279 0.10362 -0.23877
 N690 N 0.63777 0.11841 -0.26604
 C691 C 0.59557 0.09076 -0.16937
 N692 N 0.59054 0.07196 -0.18137
 N693 N 0.57545 0.05713 -0.15458
 C694 C 0.56483 0.06055 -0.11478
 N695 N 0.56986 0.07935 -0.10276
 N696 N 0.58496 0.09419 -0.12957
 C697 C 1.15439 0.49637 -0.29121
 N698 N 1.15100 0.48206 -0.32995
 N699 N 1.16582 0.48211 -0.35779
 C700 C 1.18460 0.49647 -0.34805
 N701 N 1.18794 0.51077 -0.30919
 N702 N 1.17313 0.51072 -0.28128
 C703 C 1.13803 0.49637 -0.26090
 N704 N 1.14138 0.51048 -0.22142
 N705 N 1.12650 0.51051 -0.19417
 C706 C 1.10774 0.49644 -0.20549
 N707 N 1.10440 0.48233 -0.24495
 N708 N 1.11928 0.48229 -0.27215
 C709 C 1.09133 0.49648 -0.17570
 N710 N 1.07257 0.48269 -0.18824
 N711 N 1.05765 0.48271 -0.16129
 C712 C 1.06095 0.49652 -0.12078
 N713 N 1.07971 0.51032 -0.10822
 N714 N 1.09463 0.51031 -0.13523
 C715 C 0.50339 0.65772 -0.29398
 N716 N 0.51780 0.66869 -0.33233
 N717 N 0.51822 0.68393 -0.35866
 C718 C 0.50425 0.68882 -0.34782
 N719 N 0.48986 0.67778 -0.30924
 N720 N 0.48945 0.66256 -0.28282
 C721 C 0.50287 0.64087 -0.26527
 N722 N 0.48885 0.63027 -0.22542
 N723 N 0.48841 0.61498 -0.19936
 C724 C 0.50195 0.60972 -0.21232
 N725 N 0.51594 0.62031 -0.25223
 N726 N 0.51640 0.63561 -0.27822
 C727 C 0.50161 0.59302 -0.18325
 N728 N 0.51489 0.58752 -0.19729
 N729 N 0.51479 0.57254 -0.17034
 C730 C 0.50143 0.56252 -0.12833
 N731 N 0.48812 0.56799 -0.11437
 N732 N 0.48819 0.58295 -0.14140
 C733 C 0.34306 -0.15822 -0.28711
 N734 N 0.32491 -0.16793 -0.26328
 N735 N 0.31029 -0.18303 -0.29080
 C736 C 0.31328 -0.18924 -0.34281
 N737 N 0.33157 -0.17958 -0.36610
 N738 N 0.34613 -0.16429 -0.33903
 C739 C 0.35901 -0.14127 -0.25761
 N740 N 0.37413 -0.12710 -0.28840
 N741 N 0.38851 -0.11155 -0.26173
 C742 C 0.38841 -0.10976 -0.20324
 N743 N 0.37338 -0.12400 -0.17240
 N744 N 0.35884 -0.13941 -0.19916
 C745 C 0.40444 -0.09286 -0.17379
 N746 N 0.40898 -0.09433 -0.11797
 N747 N 0.42387 -0.07914 -0.09159
 C748 C 0.43453 -0.06186 -0.11978
 N749 N 0.42988 -0.06032 -0.17543
 N750 N 0.41518 -0.07561 -0.20211
 C751 C 0.50458 -0.15488 0.28508
 N752 N 0.49054 -0.17369 0.27450
 N753 N 0.49063 -0.18840 0.30257
 C754 C 0.50477 -0.18489 0.34228
 N755 N 0.51883 -0.16603 0.35262
 N756 N 0.51874 -0.15132 0.32460
 C757 C 0.50434 -0.13862 0.25491
 N758 N 0.51808 -0.11980 0.26685
 N759 N 0.51773 -0.10502 0.24008
 C760 C 0.50364 -0.10851 0.20037
 N761 N 0.48991 -0.12734 0.18830
 N762 N 0.49025 -0.14213 0.21512
 C763 C 0.50318 -0.09218 0.17139
 N764 N 0.48923 -0.09558 0.13122
 N765 N 0.48878 -0.08071 0.10530
 C766 C 0.50225 -0.06191 0.11869
 N767 N 0.51620 -0.05852 0.15880
 N768 N 0.51666 -0.07338 0.18467
 C769 C 0.34215 0.49729 0.28619
 N770 N 0.33708 0.51100 0.27377
 N771 N 0.32194 0.51072 0.30026
 C772 C 0.31124 0.49670 0.34012
 N773 N 0.31633 0.48298 0.35231
 N774 N 0.33148 0.48326 0.32588
 C775 C 0.35892 0.49767 0.25744
 N776 N 0.36426 0.48424 0.27113
 N777 N 0.37949 0.48456 0.24511
 C778 C 0.38994 0.49831 0.20444
 N779 N 0.38461 0.51175 0.19075
 N780 N 0.36938 0.51144 0.21682
 C781 C 0.40658 0.49851 0.17540
 N782 N 0.41667 0.51184 0.13338
 N783 N 0.43159 0.51180 0.10644
 C784 C 0.43697 0.49844 0.12061
 N785 N 0.42692 0.48515 0.16277
 N786 N 0.41199 0.48519 0.18967
 C787 C 1.15531 0.65688 0.28892
 N788 N 1.17169 0.65610 0.30196
 N789 N 1.18661 0.67091 0.32947
 C790 C 1.18578 0.68714 0.34454
 N791 N 1.16941 0.68793 0.33117
 N792 N 1.15443 0.67305 0.30407
 C793 C 1.13877 0.64051 0.25918
 N794 N 1.12119 0.63968 0.25560
 N795 N 1.10612 0.62477 0.22886
 C796 C 1.10815 0.61023 0.20436
 N797 N 1.12576 0.61109 0.20774
 N798 N 1.14078 0.62593 0.23488
 C799 C 1.09159 0.59389 0.17459
 N800 N 1.09440 0.58133 0.14119
 N801 N 1.07939 0.56659 0.11376
 C802 C 1.06101 0.56379 0.11912
 N803 N 1.05818 0.57629 0.15275
 N804 N 1.07323 0.59112 0.17982
 C805 C 0.49404 0.15467 0.28319
 N806 N 0.48016 0.15135 0.32341
 N807 N 0.48035 0.16622 0.35138
 C808 C 0.49442 0.18501 0.34026
 N809 N 0.50826 0.18828 0.29983
 N810 N 0.50807 0.17342 0.27183
 C811 C 0.49402 0.13826 0.25302
 N812 N 0.50797 0.14159 0.21302
 N813 N 0.50808 0.12668 0.18613
 C814 C 0.49424 0.10792 0.19828
 N815 N 0.48028 0.10460 0.23822
 N816 N 0.48016 0.11950 0.26510
 C817 C 0.49445 0.09148 0.16905
 N818 N 0.48073 0.07272 0.18180
 N819 N 0.48094 0.05778 0.15554
 C820 C 0.49487 0.06104 0.11557
 N821 N 0.50860 0.07980 0.10279
 N822 N 0.50839 0.09475 0.12908
 C823 C 0.66021 0.50553 0.27987
 N824 N 0.66384 0.49053 0.27356
 N825 N 0.67829 0.49036 0.30306
 C826 C 0.68968 0.50518 0.34003
 N827 N 0.68601 0.52019 0.34616
 N828 N 0.67156 0.52036 0.31670
 C829 C 0.64415 0.50563 0.24791
 N830 N 0.64026 0.52043 0.25542
 N831 N 0.62552 0.52041 0.22708
 C832 C 0.61415 0.50561 0.19014
 N833 N 0.61807 0.49084 0.18248
 N834 N 0.63281 0.49085 0.21087
 C835 C 0.59767 0.50544 0.15992
 N836 N 0.58631 0.49076 0.12260
 N837 N 0.57110 0.49042 0.09626
 C838 C 0.56668 0.50474 0.10634
 N839 N 0.57809 0.51945 0.14350
 N840 N 0.59331 0.51980 0.16976
 C841 C 0.84508 0.33948 0.28251
 N842 N 0.82633 0.33516 0.27337
 N843 N 0.81161 0.32060 0.30216
 C844 C 0.81504 0.30976 0.34120
 N845 N 0.83384 0.31410 0.35014
 N846 N 0.84856 0.32867 0.32140
 C847 C 0.86135 0.35570 0.25140
 N848 N 0.88013 0.36030 0.26181
 N849 N 0.89493 0.37517 0.23420
 C850 C 0.89150 0.38598 0.19514
 N851 N 0.87271 0.38135 0.18461
 N852 N 0.85791 0.36648 0.21225
 C853 C 0.90787 0.40257 0.16550
 N854 N 0.90451 0.41340 0.12631
 N855 N 0.91940 0.42864 0.10018
 C856 C 0.93819 0.43361 0.11234
 N857 N 0.94153 0.42275 0.15142
 N858 N 0.92664 0.40750 0.17750
   
