data_POSCAR
  _audit_creation_date              2014-09-24
  _audit_creation_method            'ToBaCCo'
  _symmetry_space_group_name_H-M    'P1'
  _symmetry_Int_Tables_number       1
  _symmetry_cell_setting            triclinic
  loop_
  _symmetry_equiv_pos_as_xyz
 x,y,z
_cell_length_a 23.4429
_cell_length_b 22.7238
_cell_length_c 30.7893
_cell_angle_alpha 89.983600
_cell_angle_beta 90.076500
_cell_angle_gamma 123.879900
loop_
  _atom_site_label
  _atom_site_type_symbol
  _atom_site_fract_x
  _atom_site_fract_y
  _atom_site_fract_z
C1 C 0.03212 0.50507 1.29062
 C2 C -0.03437 0.49332 1.29062
 C3 C -0.06543 0.48961 1.25052
 C4 C -0.03564 0.49061 1.21055
 C5 C 0.03029 0.50182 1.21086
 C6 C 0.06223 0.50727 1.25059
 H7 H 0.11422 0.52002 1.24998
 H8 H -0.11733 0.47709 1.25050
 C9 C 0.52276 0.48984 1.21091
 C10 C 0.47381 0.50736 1.21065
 C11 C 0.44899 0.51532 1.25005
 C12 C 0.47423 0.50954 1.29034
 C13 C 0.52395 0.49217 1.29030
 C14 C 0.54741 0.48281 1.25067
 H15 H 0.58330 0.46692 1.25079
 H16 H 0.41344 0.53159 1.24895
 C17 C 0.49344 0.96473 1.29062
 C18 C 0.51158 1.03621 1.29074
 C19 C 0.51891 1.06971 1.25060
 C20 C 0.51135 1.03586 1.21098
 C21 C 0.49362 0.96561 1.21092
 C22 C 0.48662 0.93166 1.25038
 H23 H 0.46953 0.87642 1.24938
 H24 H 0.53596 1.12493 1.24985
 C25 C 0.96765 0.49314 0.71110
 C26 C 1.03535 0.50972 0.71108
 C27 C 1.06845 0.51766 0.75075
 C28 C 1.03706 0.51299 0.79076
 C29 C 0.96894 0.49645 0.79048
 C30 C 0.93557 0.48714 0.75074
 H31 H 0.88268 0.47176 0.75070
 H32 H 1.12130 0.53293 0.75013
 C33 C 0.52480 0.49115 0.71015
 C34 C 0.47738 0.51085 0.70992
 C35 C 0.45372 0.52018 0.74941
 C36 C 0.47693 0.51094 0.78923
 C37 C 0.52448 0.49125 0.78941
 C38 C 0.54837 0.48225 0.74988
 H39 H 0.58333 0.46517 0.75002
 H40 H 0.41866 0.53712 0.74911
 C41 C 0.48525 -0.03882 0.79025
 C42 C 0.50600 0.03321 0.79014
 C43 C 0.51669 0.06849 0.75051
 C44 C 0.50855 0.03462 0.71081
 C45 C 0.48772 -0.03672 0.71051
 C46 C 0.47753 -0.07214 0.74993
 H47 H 0.45885 -0.12781 0.74882
 H48 H 0.53521 0.12417 0.75060
 O49 O 0.43174 0.63996 0.96310
 O50 O 0.43602 0.75541 0.95067
 C51 C 0.40600 0.78618 0.94196
 O52 O 0.35587 0.77698 0.96410
 O53 O 0.23823 0.65725 0.95180
 C54 C 0.20587 0.59226 0.94181
 O55 O 0.21238 0.54759 0.96212
 O56 O 0.32349 0.55097 0.95062
 C57 C 0.38689 0.58586 0.94160
 O58 O 0.43066 0.65774 1.04943
 O59 O 0.44154 0.77694 1.03776
 C60 C 0.40096 0.78634 1.05926
 O61 O 0.33768 0.75481 1.05050
 O62 O 0.21799 0.63822 1.03815
 C63 C 0.20463 0.58369 1.05907
 O64 O 0.23058 0.54922 1.04940
 O65 O 0.33933 0.54776 1.03777
 C66 C 0.39354 0.59235 1.05869
 Cr67 Cr 0.43111 0.70558 1.00025
 Cr68 Cr 0.28921 0.70479 1.00111
 Cr69 Cr 0.27855 0.55285 1.00002
 O70 O 0.33288 0.65430 1.00052
 O71 O 0.56930 0.34275 0.95103
 O72 O 0.55933 0.22408 0.96211
 C73 C 0.60028 0.21444 0.94125
 O74 O 0.66328 0.24541 0.95080
 O75 O 0.78258 0.36252 0.96336
 C76 C 0.79596 0.41688 0.94229
 O77 O 0.76994 0.45137 0.95166
 O78 O 0.66095 0.45262 0.96215
 C79 C 0.60647 0.40798 0.94150
 O80 O 0.56749 0.35935 1.03753
 O81 O 0.56292 0.24363 1.04928
 C82 C 0.59335 0.21346 1.05844
 O83 O 0.64475 0.22417 1.03717
 O84 O 0.76187 0.34421 1.04967
 C85 C 0.79387 0.40922 1.05964
 O86 O 0.78702 0.45353 1.03914
 O87 O 0.67548 0.44970 1.04942
 C88 C 0.61215 0.41410 1.05868
 Cr89 Cr 0.56873 0.29447 1.00000
 Cr90 Cr 0.71130 0.29612 1.00026
 Cr91 Cr 0.72122 0.44777 1.00056
 O92 O 0.66711 0.34620 1.00024
 O93 O 0.66121 0.45150 0.53820
 O94 O 0.77027 0.45034 0.54910
 C95 C 0.79654 0.41601 0.55833
 O96 O 0.78336 0.36188 0.53706
 O97 O 0.66401 0.24483 0.54971
 C98 C 0.60088 0.21349 0.55891
 O99 O 0.55991 0.22281 0.53772
 O100 O 0.56981 0.34149 0.54933
 C101 C 0.60683 0.40679 0.55884
 O102 O 0.67610 0.44879 0.45100
 O103 O 0.78760 0.45269 0.46168
 C104 C 0.79413 0.40838 0.44094
 O105 O 0.76215 0.34331 0.45075
 O106 O 0.64515 0.22310 0.46335
 C107 C 0.59452 0.21341 0.44155
 O108 O 0.56419 0.24372 0.45058
 O109 O 0.56809 0.35883 0.46294
 C110 C 0.61274 0.41337 0.44174
 Cr111 Cr 0.72170 0.44685 0.50003
 Cr112 Cr 0.71187 0.29531 0.50021
 Cr113 Cr 0.56941 0.29365 0.50015
 O114 O 0.66770 0.34537 0.50022
 O115 O 0.33914 0.54783 0.53735
 O116 O 0.23055 0.54981 0.54875
 C117 C 0.20429 0.58422 0.55774
 O118 O 0.21706 0.63792 0.53607
 O119 O 0.33655 0.75491 0.54860
 C120 C 0.39969 0.78637 0.55784
 O121 O 0.44060 0.77679 0.53686
 O122 O 0.43007 0.65792 0.54898
 C123 C 0.39338 0.59256 0.55821
 O124 O 0.32297 0.55057 0.45017
 O125 O 0.21167 0.54671 0.46147
 C126 C 0.20548 0.59099 0.44037
 O127 O 0.23826 0.65626 0.44972
 O128 O 0.35552 0.77624 0.46226
 C129 C 0.40608 0.78553 0.44063
 O130 O 0.43601 0.75485 0.44982
 O131 O 0.43146 0.63934 0.46272
 C132 C 0.38635 0.58544 0.44112
 Cr133 Cr 0.27818 0.55265 0.49947
 Cr134 Cr 0.28861 0.70431 0.49918
 Cr135 Cr 0.43066 0.70532 0.49959
 O136 O 0.33245 0.65403 0.49951
 C137 C 0.38307 0.50302 0.33367
 C138 C 0.45211 0.52516 0.32884
 C139 C 0.49896 0.56645 0.36220
 C140 C 0.47753 0.58525 0.39889
 C141 C 0.40864 0.56277 0.40346
 C142 C 0.36152 0.52084 0.37069
 H143 H 0.34507 0.47046 0.30918
 H144 H 0.55308 0.58760 0.35907
 H145 H 0.51515 0.61818 0.42347
 H146 H 0.30809 0.50301 0.37317
 C147 C 0.49280 0.87393 0.33438
 C148 C 0.47404 0.92257 0.32867
 C149 C 0.43279 0.92560 0.36071
 C150 C 0.41140 0.88180 0.39723
 C151 C 0.43087 0.83399 0.40288
 C152 C 0.47217 0.83089 0.37120
 H153 H 0.52502 0.87031 0.31085
 H154 H 0.41467 0.95992 0.35683
 H155 H 0.37908 0.88498 0.42090
 H156 H 0.48768 0.79424 0.37448
 C157 C 0.07457 0.57074 0.35942
 C158 C 0.07271 0.52354 0.32877
 C159 C 0.11458 0.49790 0.33611
 C160 C 0.15568 0.51762 0.37332
 C161 C 0.15803 0.56561 0.40309
 C162 C 0.11736 0.59215 0.39578
 H163 H 0.04526 0.59381 0.35434
 H164 H 0.11424 0.46106 0.31362
 H165 H 0.18718 0.49699 0.37822
 H166 H 0.11887 0.62973 0.41821
 C167 C 0.61668 0.50842 0.33951
 C168 C 0.54645 0.47463 0.33046
 C169 C 0.49796 0.42182 0.35868
 C170 C 0.51940 0.40276 0.39529
 C171 C 0.58980 0.43615 0.40432
 C172 C 0.63819 0.48966 0.37619
 H173 H 0.65484 0.54917 0.31801
 H174 H 0.44353 0.39453 0.35193
 H175 H 0.48081 0.36126 0.41621
 H176 H 0.69278 0.51620 0.38205
 C177 C 0.51046 0.12600 0.33446
 C178 C 0.52975 0.07774 0.32901
 C179 C 0.57007 0.07431 0.36165
 C180 C 0.59025 0.11754 0.39842
 C181 C 0.57041 0.16510 0.40373
 C182 C 0.52984 0.16843 0.37153
 H183 H 0.47878 0.12981 0.31050
 H184 H 0.58844 0.04017 0.35807
 H185 H 0.62202 0.11417 0.42251
 H186 H 0.51407 0.20489 0.37455
 C187 C 0.88362 0.50080 0.33629
 C188 C 0.92561 0.47536 0.32893
 C189 C 0.92421 0.42844 0.35962
 C190 C 0.88186 0.40720 0.39610
 C191 C 0.84107 0.43354 0.40347
 C192 C 0.84289 0.48120 0.37361
 H193 H 0.88353 0.53732 0.31372
 H194 H 0.95354 0.40541 0.35450
 H195 H 0.88076 0.36988 0.41857
 H196 H 0.81125 0.50166 0.37854
 C197 C 0.61597 0.50799 1.16148
 C198 C 0.54571 0.47407 1.17035
 C199 C 0.49735 0.42213 1.14158
 C200 C 0.51885 0.40365 1.10482
 C201 C 0.58925 0.43682 1.09610
 C202 C 0.63758 0.48982 1.12459
 H203 H 0.65405 0.54812 1.18335
 H204 H 0.44288 0.39459 1.14819
 H205 H 0.48030 0.36260 1.08360
 H206 H 0.69218 0.51623 1.11894
 C207 C 0.88396 0.50053 1.16455
 C208 C 0.92529 0.47423 1.17188
 C209 C 0.92372 0.42769 1.14084
 C210 C 0.88159 0.40732 1.10421
 C211 C 0.84116 0.43417 1.09703
 C212 C 0.84342 0.48177 1.12711
 H213 H 0.88405 0.53691 1.18732
 H214 H 0.95223 0.40375 1.14592
 H215 H 0.88014 0.37001 1.08158
 H216 H 0.81213 0.50268 1.12232
 C217 C 0.49828 0.11471 1.16090
 C218 C 0.52826 0.07724 1.17024
 C219 C 0.57773 0.08265 1.14182
 C220 C 0.59764 0.12553 1.10498
 C221 C 0.56857 0.16411 1.09583
 C222 C 0.51800 0.15751 1.12393
 H223 H 0.46010 0.11131 1.18248
 H224 H 0.60233 0.05509 1.14878
 H225 H 0.63675 0.12942 1.08411
 H226 H 0.49471 0.18664 1.11791
 C227 C 0.50293 0.58365 1.14532
 C228 C 0.45336 0.52538 1.16996
 C229 C 0.38429 0.48733 1.15699
 C230 C 0.36498 0.50757 1.11983
 C231 C 0.41435 0.56718 1.09577
 C232 C 0.48355 0.60472 1.10872
 H233 H 0.55641 0.61390 1.15513
 H234 H 0.34543 0.44240 1.17584
 H235 H 0.31123 0.47807 1.11072
 H236 H 0.52263 0.65073 1.09070
 C237 C 0.08157 0.57390 1.14318
 C238 C 0.07210 0.51983 1.17068
 C239 C 0.10517 0.48563 1.16077
 C240 C 0.14701 0.50520 1.12401
 C241 C 0.15711 0.55988 1.09663
 C242 C 0.12347 0.59363 1.10653
 H243 H 0.05743 0.60178 1.15053
 H244 H 0.09871 0.44392 1.18162
 H245 H 0.17237 0.47831 1.11747
 H246 H 0.13021 0.63605 1.08630
 C247 C 0.41768 0.91238 1.14617
 C248 C 0.47360 0.92356 1.17040
 C249 C 0.50751 0.89170 1.15704
 C250 C 0.48551 0.84892 1.11989
 C251 C 0.42826 0.83614 1.09627
 C252 C 0.39490 0.86869 1.10962
 H253 H 0.39059 0.93613 1.15625
 H254 H 0.55064 0.89966 1.17552
 H255 H 0.51179 0.82403 1.11044
 H256 H 0.35081 0.85993 1.09196
 C257 C 0.61487 0.51143 0.65709
 C258 C 0.54566 0.47330 0.66963
 C259 C 0.49640 0.41511 0.64474
 C260 C 0.51625 0.39413 0.60834
 C261 C 0.58561 0.43172 0.59583
 C262 C 0.63465 0.49130 0.62012
 H263 H 0.65349 0.55632 0.67612
 H264 H 0.44282 0.38483 0.65421
 H265 H 0.47738 0.34818 0.59013
 H266 H 0.68850 0.52089 0.61134
 C267 C 0.49505 0.10880 0.65696
 C268 C 0.52883 0.07681 0.67037
 C269 C 0.58459 0.08777 0.64616
 C270 C 0.60737 0.13143 0.60957
 C271 C 0.57406 0.16405 0.59614
 C272 C 0.51698 0.15148 0.61979
 H273 H 0.45202 0.10098 0.67541
 H274 H 0.61151 0.06381 0.65625
 H275 H 0.65132 0.14001 0.59190
 H276 H 0.49069 0.17637 0.61032
 C277 C 0.89400 0.51081 0.66114
 C278 C 0.92733 0.47671 0.67053
 C279 C 0.91943 0.42441 0.64209
 C280 C 0.87827 0.40589 0.60511
 C281 C 0.84400 0.43924 0.59586
 C282 C 0.85295 0.49250 0.62407
 H283 H 0.89943 0.55128 0.68273
 H284 H 0.94395 0.39676 0.64905
 H285 H 0.87243 0.36458 0.58417
 H286 H 0.82709 0.51904 0.61801
 C287 C 0.38662 0.48925 0.65683
 C288 C 0.45604 0.52759 0.66912
 C289 C 0.50497 0.58511 0.64376
 C290 C 0.48461 0.60541 0.60725
 C291 C 0.41503 0.56778 0.59508
 C292 C 0.36632 0.50868 0.61974
 H293 H 0.34824 0.44485 0.67622
 H294 H 0.55870 0.61553 0.65301
 H295 H 0.52324 0.65098 0.58873
 H296 H 0.31233 0.47910 0.61121
 C297 C 0.41496 0.91258 0.64424
 C298 C 0.46944 0.92250 0.66954
 C299 C 0.50327 0.89021 0.65690
 C300 C 0.48241 0.84799 0.61951
 C301 C 0.42635 0.83618 0.59490
 C302 C 0.39326 0.86940 0.60745
 H303 H 0.38798 0.93671 0.65372
 H304 H 0.54530 0.89721 0.67621
 H305 H 0.50847 0.82260 0.61071
 H306 H 0.35008 0.86141 0.58901
 C307 C 0.10834 0.49113 0.66118
 C308 C 0.07497 0.52521 0.67034
 C309 C 0.08236 0.57695 0.64158
 C310 C 0.12300 0.59489 0.60448
 C311 C 0.15731 0.56155 0.59543
 C312 C 0.14889 0.50886 0.62397
 H313 H 0.10337 0.45117 0.68304
 H314 H 0.05786 0.60464 0.64838
 H315 H 0.12845 0.63577 0.58329
 H316 H 0.17482 0.48237 0.61808
 C317 C 0.38343 0.49330 0.83818
 C318 C 0.45375 0.52628 0.82987
 C319 C 0.50194 0.57706 0.85921
 C320 C 0.48023 0.59534 0.89598
 C321 C 0.40979 0.56314 0.90414
 C322 C 0.36160 0.51126 0.87508
 H323 H 0.34546 0.45410 0.81585
 H324 H 0.55646 0.60391 0.85305
 H325 H 0.51870 0.63552 0.91764
 H326 H 0.30700 0.48563 0.88029
 C327 C 0.07532 0.57347 0.86128
 C328 C 0.07580 0.52919 0.82942
 C329 C 0.11859 0.50448 0.83596
 C330 C 0.15858 0.52245 0.87352
 C331 C 0.15882 0.56779 0.90447
 C332 C 0.11703 0.59323 0.89807
 H333 H 0.04552 0.59608 0.85675
 H334 H 0.12003 0.46986 0.81245
 H335 H 0.19107 0.50283 0.87773
 H336 H 0.11711 0.62892 0.92142
 C337 C 0.48612 0.87079 0.83361
 C338 C 0.46900 0.92094 0.82896
 C339 C 0.43205 0.92697 0.86281
 C340 C 0.41253 0.88410 0.89972
 C341 C 0.42990 0.83443 0.90408
 C342 C 0.46759 0.82882 0.87085
 H343 H 0.51530 0.86488 0.80879
 H344 H 0.41460 0.96195 0.85989
 H345 H 0.38293 0.88919 0.92461
 H346 H 0.48146 0.79074 0.87315
 C347 C 0.49597 0.41599 0.85528
 C348 C 0.54530 0.47352 0.83007
 C349 C 0.61462 0.51137 0.84254
 C350 C 0.63440 0.49168 0.87975
 C351 C 0.58527 0.43277 0.90437
 C352 C 0.51582 0.39542 0.89192
 H353 H 0.44231 0.38593 0.84589
 H354 H 0.65331 0.55577 0.82328
 H355 H 0.68831 0.52102 0.88846
 H356 H 0.47689 0.34995 0.91038
 C357 C 0.89347 0.51226 0.83977
 C358 C 0.92760 0.47894 0.83067
 C359 C 0.91978 0.42655 0.85901
 C360 C 0.87820 0.40746 0.89575
 C361 C 0.84343 0.44030 0.90484
 C362 C 0.85204 0.49342 0.87662
 H363 H 0.89876 0.55269 0.81820
 H364 H 0.94496 0.39953 0.85224
 H365 H 0.87260 0.36626 0.91670
 H366 H 0.82573 0.51949 0.88252
 C367 C 0.49539 0.11088 0.84262
 C368 C 0.52753 0.07672 0.83019
 C369 C 0.58250 0.08665 0.85497
 C370 C 0.60567 0.13086 0.89136
 C371 C 0.57355 0.16507 0.90399
 C372 C 0.51761 0.15397 0.87960
 H373 H 0.45311 0.10402 0.82368
 H374 H 0.60828 0.06119 0.84559
 H375 H 0.64882 0.13844 0.90961
 H376 H 0.49236 0.18020 0.88841
   
