data_POSCAR
  _audit_creation_date              2014-09-24
  _audit_creation_method            'ToBaCCo'
  _symmetry_space_group_name_H-M    'P1'
  _symmetry_Int_Tables_number       1
  _symmetry_cell_setting            triclinic
  loop_
  _symmetry_equiv_pos_as_xyz
 x,y,z
_cell_length_a 14.5869
_cell_length_b 14.4523
_cell_length_c 14.9978
_cell_angle_alpha 92.507300
_cell_angle_beta 92.308600
_cell_angle_gamma 89.837500
loop_
  _atom_site_label
  _atom_site_type_symbol
  _atom_site_fract_x
  _atom_site_fract_y
  _atom_site_fract_z
C1 C 0.01018 0.41840 0.20448
 C2 C 0.10592 0.45034 0.23228
 C3 C 0.10537 0.52541 0.29177
 C4 C 0.00492 0.56382 0.31077
 C5 C -0.02749 0.40315 0.29530
 C6 C -0.04965 0.47906 0.34385
 C7 C -0.03779 0.50328 0.16335
 C8 C -0.03653 0.58195 0.21628
 H9 H 0.16747 0.41426 0.21232
 H10 H 0.00419 0.62523 0.35788
 H11 H -0.03763 0.33394 0.31856
 H12 H -0.04699 0.50674 0.09152
 C13 C 0.02602 0.41665 0.81148
 C14 C -0.03416 0.38140 0.73974
 C15 C -0.06284 0.44553 0.67757
 C16 C -0.00393 0.52919 0.68529
 C17 C 0.10914 0.43537 0.76755
 C18 C 0.09462 0.49803 0.69612
 C19 C -0.00877 0.50862 0.84213
 C20 C -0.02449 0.57145 0.77232
 H21 H -0.04748 0.30822 0.72672
 H22 H -0.01791 0.57561 0.62929
 H23 H 0.17479 0.40676 0.78839
 H24 H 0.00045 0.53462 0.91089
 C25 C 0.18561 -0.02310 0.40386
 C26 C 0.21768 0.07797 0.40505
 C27 C 0.26493 0.10976 0.47843
 C28 C 0.27364 0.03478 0.55031
 C29 C 0.26764 -0.08149 0.43016
 C30 C 0.31248 -0.05532 0.50662
 C31 C 0.12609 -0.02711 0.48716
 C32 C 0.17238 0.00683 0.56446
 H33 H 0.20898 0.12026 0.34712
 H34 H 0.31463 0.05777 0.61114
 H35 H 0.28537 -0.14424 0.39261
 H36 H 0.06098 -0.06159 0.48698
 C37 C 0.79829 0.00222 0.40041
 C38 C 0.74896 -0.08147 0.41540
 C39 C 0.70704 -0.07767 0.50014
 C40 C 0.71754 0.01151 0.54958
 C41 C 0.73025 0.08133 0.40764
 C42 C 0.69029 0.08674 0.48656
 C43 C 0.86410 0.01673 0.48444
 C44 C 0.82054 0.02259 0.56280
 H45 H 0.75569 -0.14416 0.37398
 H46 H 0.68269 0.02023 0.61361
 H47 H 0.72146 0.13393 0.35850
 H48 H 0.93691 0.00972 0.48248
 C49 C 0.40364 0.19455 1.02134
 C50 C 0.40633 0.26356 1.09262
 C51 C 0.47754 0.33067 1.08427
 C52 C 0.53045 0.31491 0.99864
 C53 C 0.39002 0.24703 0.94273
 C54 C 0.46125 0.30769 0.92220
 C55 C 0.49642 0.15454 1.02048
 C56 C 0.56712 0.21967 1.00639
 H57 H 0.36811 0.25626 1.15225
 H58 H 0.58429 0.36723 0.98895
 H59 H 0.32113 0.25475 0.91426
 H60 H 0.51024 0.08101 1.02467
 C61 C 0.38955 0.75268 1.01265
 C62 C 0.40993 0.66595 0.95737
 C63 C 0.49918 0.64163 0.95776
 C64 C 0.55857 0.69819 1.03039
 C65 C 0.41610 0.72816 1.10684
 C66 C 0.50457 0.69986 1.11724
 C67 C 0.45775 0.82174 0.98837
 C68 C 0.55219 0.79232 1.00162
 H69 H 0.36066 0.64067 0.90657
 H70 H 0.62961 0.67132 1.03915
 H71 H 0.37032 0.73840 1.16160
 H72 H 0.43921 0.88848 0.96316
 B73 B 0.98860 1.08748 0.04495
 B74 B 0.98572 1.09152 -0.06650
 B75 B 1.08119 1.04578 -0.01128
 B76 B 1.04280 0.98719 0.07681
 B77 B 0.92564 0.99522 0.07657
 B78 B 0.88859 1.05534 -0.01584
 B79 B 0.97637 0.89788 -0.07760
 B80 B 0.97745 0.89535 0.03771
 B81 B 0.88205 0.93759 -0.02063
 B82 B 0.92317 0.99736 -0.10920
 B83 B 1.03822 0.99384 -0.10838
 B84 B 1.07274 0.92737 -0.01826
 B85 B 0.61390 0.50859 0.47299
 B86 B 0.60123 0.49863 0.58280
 B87 B 0.58759 0.60457 0.53834
 B88 B 0.53492 0.58565 0.43468
 B89 B 0.51519 0.47100 0.41609
 B90 B 0.55442 0.41580 0.51213
 B91 B 0.41396 0.53341 0.56234
 B92 B 0.42768 0.54187 0.44928
 B93 B 0.43992 0.43558 0.49515
 B94 B 0.49447 0.45580 0.60133
 B95 B 0.51597 0.56940 0.61719
 B96 B 0.47312 0.62604 0.52378
 N97 N 0.89744 1.21375 0.12802
 N98 N 0.89958 1.30152 0.15179
 C99 C 0.98615 1.33182 0.15068
 C100 C 1.04060 1.26139 0.11530
 C101 C 0.98026 1.18621 0.09949
 H102 H 1.11065 1.26892 0.09931
 H103 H 0.83804 1.17501 0.13046
 H104 H 0.84250 1.33888 0.17292
 N105 N 1.07191 0.78091 0.13691
 N106 N 1.06861 0.70327 0.17789
 C107 C 0.98329 0.67114 0.17423
 C108 C 0.92961 0.73016 0.12058
 C109 C 0.98930 0.80217 0.09836
 H110 H 0.85950 0.71861 0.09898
 H111 H 1.13412 0.81463 0.13413
 H112 H 1.12706 0.66890 0.19992
 N113 N 0.92932 1.26533 -0.05417
 N114 N 0.95959 1.35407 -0.06355
 C115 C 1.02684 1.35003 -0.12128
 C116 C 1.04688 1.25587 -0.13906
 C117 C 0.98468 1.20216 -0.09439
 H118 H 1.08001 1.23551 -0.19910
 H119 H 0.87261 1.25680 -0.01717
 H120 H 0.91946 1.41122 -0.04534
 N121 N 1.05273 0.79725 -0.20030
 N122 N 1.04687 0.71707 -0.24429
 C123 C 0.98067 0.66715 -0.21018
 C124 C 0.93936 0.72113 -0.14287
 C125 C 0.98506 0.80628 -0.14195
 H126 H 0.88715 0.70042 -0.09855
 H127 H 1.11107 0.83816 -0.20171
 H128 H 1.09642 0.69352 -0.28779
 N129 N 1.19756 0.98277 0.17126
 N130 N 1.23236 0.96426 0.25006
 C131 C 1.16467 0.95111 0.30628
 C132 C 1.08296 0.95130 0.25618
 C133 C 1.10581 0.97725 0.16942
 H134 H 1.01763 0.93295 0.28105
 H135 H 1.23907 1.00153 0.12227
 H136 H 1.30209 0.97273 0.26741
 N137 N 1.14423 1.08692 -0.21176
 N138 N 1.17137 1.09391 -0.29326
 C139 C 1.13592 1.02485 -0.34529
 C140 C 1.07881 0.97321 -0.29319
 C141 C 1.08755 1.01393 -0.20501
 H142 H 1.03864 0.91394 -0.31699
 H143 H 1.16765 1.13369 -0.16205
 H144 H 1.21552 1.14589 -0.31175
 N145 N 0.94092 1.07387 0.23524
 N146 N 0.90981 1.07443 0.31471
 C147 C 0.84607 1.00948 0.31630
 C148 C 0.83039 0.96880 0.22989
 C149 C 0.89378 1.01292 0.17861
 H150 H 0.78197 0.91500 0.20850
 H151 H 1.00264 1.10757 0.22777
 H152 H 0.93587 1.11735 0.36762
 N153 N 0.84811 0.90508 -0.24150
 N154 N 0.84570 0.90600 -0.32871
 C155 C 0.86175 0.99218 -0.35331
 C156 C 0.88173 1.04787 -0.27705
 C157 C 0.87599 0.98826 -0.20677
 H158 H 0.90087 1.12022 -0.27406
 H159 H 0.83047 0.84705 -0.20728
 H160 H 0.83126 0.84790 -0.37020
 N161 N 1.24559 1.03380 -0.06946
 N162 N 1.33457 1.06152 -0.04952
 C163 C 1.33326 1.12648 0.01693
 C164 C 1.24175 1.14010 0.04077
 C165 C 1.18768 1.07872 -0.01391
 H166 H 1.22167 1.18288 0.09663
 H167 H 1.23122 0.98040 -0.11679
 H168 H 1.38929 1.04436 -0.09003
 N169 N 0.77109 1.16472 -0.10221
 N170 N 0.69489 1.21313 -0.09195
 C171 C 0.65605 1.18931 -0.01680
 C172 C 0.71253 1.12185 0.02299
 C173 C 0.79016 1.11337 -0.03000
 H174 H 0.70076 1.08697 0.08388
 H175 H 0.81161 1.17086 -0.15714
 H176 H 0.66777 1.25829 -0.13876
 N177 N 1.14442 0.75852 -0.02969
 N178 N 1.22243 0.71400 -0.01778
 C179 C 1.28947 0.77608 -0.00005
 C180 C 1.25141 0.86208 0.00347
 C181 C 1.15780 0.85152 -0.01965
 H182 H 1.29223 0.92014 0.02442
 H183 H 1.08263 0.72292 -0.03525
 H184 H 1.22789 0.64189 -0.01863
 N185 N 0.71388 0.93794 -0.09528
 N186 N 0.62551 0.90585 -0.08440
 C187 C 0.62966 0.84424 -0.02066
 C188 C 0.72162 0.83882 0.01264
 C189 C 0.77414 0.89987 -0.03555
 H190 H 0.74404 0.80112 0.06951
 H191 H 0.72570 0.98849 -0.14043
 H192 H 0.56813 0.92406 -0.12375
 N193 N 0.71976 0.40522 0.38317
 N194 N 0.80235 0.39521 0.35448
 C195 C 0.85406 0.47083 0.37786
 C196 C 0.79808 0.53126 0.42777
 C197 C 0.71199 0.48539 0.42997
 H198 H 0.81738 0.59831 0.45675
 H199 H 0.66819 0.35719 0.36601
 H200 H 0.81905 0.33583 0.31689
 N201 N 0.30735 0.65006 0.37119
 N202 N 0.22044 0.64758 0.34280
 C203 C 0.19333 0.55879 0.33466
 C204 C 0.26618 0.50302 0.36202
 C205 C 0.33735 0.56362 0.38778
 H206 H 0.26493 0.42868 0.36542
 H207 H 0.34387 0.71127 0.38293
 H208 H 0.18106 0.70661 0.33157
 N209 N 0.70224 0.38645 0.67029
 N210 N 0.78954 0.36745 0.68185
 C211 C 0.84087 0.44060 0.65944
 C212 C 0.78076 0.50883 0.63092
 C213 C 0.69287 0.47008 0.63596
 H214 H 0.79821 0.57620 0.60819
 H215 H 0.65113 0.33870 0.68130
 H216 H 0.81081 0.30376 0.70541
 N217 N 0.24735 0.60740 0.55851
 N218 N 0.16405 0.59251 0.58593
 C219 C 0.16944 0.52978 0.64891
 C220 C 0.26162 0.50501 0.66108
 C221 C 0.30976 0.55134 0.59819
 H222 H 0.28889 0.46422 0.71346
 H223 H 0.26008 0.65913 0.51560
 H224 H 0.10577 0.62742 0.56257
 N225 N 0.63878 0.66423 0.31713
 N226 N 0.63126 0.69022 0.23374
 C227 C 0.54314 0.68285 0.20649
 C228 C 0.49331 0.65220 0.27478
 C229 C 0.55521 0.64101 0.34585
 H230 H 0.42423 0.62836 0.26551
 H231 H 0.70194 0.65018 0.34691
 H232 H 0.68644 0.70728 0.19540
 N233 N 0.62200 0.61771 0.75799
 N234 N 0.61904 0.62709 0.84555
 C235 C 0.53244 0.61468 0.86841
 C236 C 0.47784 0.59704 0.79009
 C237 C 0.53687 0.59948 0.72118
 H238 H 0.40528 0.58282 0.78263
 H239 H 0.68250 0.62645 0.72501
 H240 H 0.67520 0.64588 0.88779
 N241 N 0.59402 0.46381 0.25508
 N242 N 0.58310 0.43202 0.17150
 C243 C 0.50426 0.38568 0.16207
 C244 C 0.46178 0.39210 0.24578
 C245 C 0.52325 0.43932 0.30619
 H246 H 0.39572 0.36487 0.26132
 H247 H 0.65124 0.50290 0.27436
 H248 H 0.63131 0.44050 0.12292
 N249 N 0.39818 0.34818 0.69558
 N250 N 0.38953 0.31168 0.77295
 C251 C 0.45879 0.33846 0.83107
 C252 C 0.51718 0.39339 0.78128
 C253 C 0.47428 0.39852 0.69338
 H254 H 0.58019 0.42634 0.80593
 H255 H 0.34853 0.34036 0.64558
 H256 H 0.33469 0.26756 0.78173
 N257 N 0.61057 0.75831 0.63393
 N258 N 0.63721 0.84743 0.61903
 C259 C 0.68268 0.84370 0.54356
 C260 C 0.69536 0.75180 0.51544
 C261 C 0.64295 0.69890 0.56931
 H262 H 0.73203 0.72967 0.45864
 H263 H 0.55384 0.75054 0.67237
 H264 H 0.60938 0.90505 0.65240
 N265 N 0.52796 0.24581 0.56232
 N266 N 0.56199 0.16204 0.55659
 C267 C 0.64056 0.16725 0.51612
 C268 C 0.66047 0.25789 0.49964
 C269 C 0.58313 0.30737 0.52402
 H270 H 0.72514 0.28047 0.47690
 H271 H 0.46394 0.25607 0.58676
 H272 H 0.52864 0.10237 0.57522
 N273 N 0.49286 0.79822 0.47411
 N274 N 0.46258 0.88351 0.48521
 C275 C 0.38947 0.88472 0.53598
 C276 C 0.37860 0.79315 0.56426
 C277 C 0.44581 0.73839 0.52228
 H278 H 0.32419 0.76968 0.60437
 H279 H 0.54497 0.78363 0.43104
 H280 H 0.48357 0.93785 0.44703
 N281 N 0.42689 0.27401 0.40670
 N282 N 0.39134 0.19086 0.41182
 C283 C 0.32273 0.19411 0.46819
 C284 C 0.31020 0.28817 0.49517
 C285 C 0.38442 0.33739 0.46086
 H286 H 0.25584 0.31568 0.53553
 H287 H 0.48759 0.28275 0.37401
 H288 H 0.41605 0.13153 0.37837
   
