data_POSCAR
  _audit_creation_date              2014-09-24
  _audit_creation_method            'ToBaCCo'
  _symmetry_space_group_name_H-M    'P1'
  _symmetry_Int_Tables_number       1
  _symmetry_cell_setting            triclinic
  loop_
  _symmetry_equiv_pos_as_xyz
 x,y,z
_cell_length_a 24.7244
_cell_length_b 24.9152
_cell_length_c 24.0781
_cell_angle_alpha 89.852400
_cell_angle_beta 90.093600
_cell_angle_gamma 90.577200
loop_
  _atom_site_label
  _atom_site_type_symbol
  _atom_site_fract_x
  _atom_site_fract_y
  _atom_site_fract_z
C1 C 0.32670 0.33388 0.22369
 H2 H 0.32918 0.33763 0.26838
 C3 C 0.35932 0.36612 0.18977
 H4 H 0.38744 0.39409 0.20884
 C5 C 0.28812 0.29127 0.14492
 H6 H 0.26074 0.26170 0.12759
 C7 C 0.32042 0.32225 0.10950
 H8 H 0.31734 0.31654 0.06501
 N9 N 0.29114 0.29823 0.20085
 C10 C 0.16598 0.28117 0.32735
 H11 H 0.16369 0.23799 0.33189
 C12 C 0.13390 0.31389 0.36056
 H13 H 0.10649 0.29541 0.39010
 C14 C 0.20334 0.35735 0.28188
 H15 H 0.22981 0.37426 0.25069
 C16 C 0.17158 0.39148 0.31370
 H17 H 0.17442 0.43445 0.30715
 Zn18 Zn 0.24676 0.25730 0.24922
 N19 N 0.20113 0.30333 0.29021
 C20 C 0.28822 0.22226 0.35366
 N21 N 0.29311 0.21860 0.29751
 C22 C 0.33238 0.18824 0.27412
 C23 C 0.36780 0.15893 0.30748
 C24 C 0.32232 0.19315 0.38851
 C25 C 0.16320 0.23233 0.17513
 C26 C 0.13054 0.20009 0.14128
 C27 C 0.17797 0.12228 0.17522
 C28 C 0.20944 0.15598 0.20880
 N29 N 0.20231 0.21003 0.20730
 H30 H 0.25796 0.24765 0.37177
 H31 H 0.33583 0.18647 0.22937
 H32 H 0.39772 0.13390 0.28788
 H33 H 0.31735 0.19585 0.43311
 H34 H 0.15799 0.27539 0.17522
 H35 H 0.10006 0.21854 0.11533
 H36 H 0.18423 0.07940 0.17723
 H37 H 0.23980 0.13887 0.23563
 C38 C 0.13745 0.36996 0.35462
 C39 C 0.35572 0.36095 0.13176
 C40 C 0.13853 0.14450 0.14009
 C41 C 0.36283 0.16119 0.36558
 C42 C 0.81947 0.83316 0.22423
 H43 H 0.81932 0.83757 0.26892
 C44 C 0.85431 0.86464 0.19194
 H45 H 0.88058 0.89348 0.21251
 C46 C 0.78593 0.78926 0.14404
 H47 H 0.76003 0.75901 0.12560
 C48 C 0.82021 0.81981 0.11004
 H49 H 0.81861 0.81227 0.06598
 N50 N 0.78586 0.79668 0.19996
 C51 C 0.66263 0.77028 0.32746
 H52 H 0.66542 0.72723 0.33241
 C53 C 0.62666 0.79923 0.36015
 H54 H 0.60192 0.77836 0.39056
 C55 C 0.69143 0.84986 0.28163
 H56 H 0.71650 0.86937 0.25076
 C57 C 0.65528 0.88023 0.31275
 H58 H 0.65387 0.92321 0.30633
 Zn59 Zn 0.74242 0.75355 0.24739
 N60 N 0.69480 0.79596 0.28986
 C61 C 0.78857 0.71991 0.35025
 N62 N 0.78993 0.71497 0.29404
 C63 C 0.82584 0.68202 0.26889
 C64 C 0.85991 0.64979 0.30059
 C65 C 0.82208 0.68854 0.38360
 C66 C 0.66314 0.72583 0.16899
 C67 C 0.63020 0.69178 0.13739
 C68 C 0.67033 0.61583 0.18376
 C69 C 0.70254 0.65133 0.21436
 N70 N 0.69918 0.70516 0.20576
 H71 H 0.76150 0.74804 0.36946
 H72 H 0.82692 0.67980 0.22403
 H73 H 0.88724 0.62270 0.27985
 H74 H 0.82033 0.69357 0.42814
 H75 H 0.66031 0.76888 0.16398
 H76 H 0.60216 0.70888 0.10778
 H77 H 0.67331 0.57338 0.19240
 H78 H 0.72959 0.63566 0.24552
 C79 C 0.62235 0.85477 0.35264
 C80 C 0.85538 0.85838 0.13388
 C81 C 0.63413 0.63599 0.14389
 C82 C 0.85734 0.65174 0.35872
 C83 C 0.84285 0.31573 0.72359
 H84 H 0.84726 0.31712 0.76829
 C85 C 0.87562 0.34820 0.69021
 H86 H 0.90523 0.37456 0.70949
 C87 C 0.79890 0.27962 0.64436
 H88 H 0.76928 0.25246 0.62664
 C89 C 0.83073 0.31166 0.60933
 H90 H 0.82550 0.30788 0.56493
 N91 N 0.80494 0.28271 0.70043
 C92 C 0.67346 0.26640 0.81969
 H93 H 0.66647 0.22353 0.81942
 C94 C 0.63824 0.29951 0.84892
 H95 H 0.60577 0.28126 0.87263
 C96 C 0.72353 0.34199 0.78818
 H97 H 0.75574 0.35896 0.76351
 C98 C 0.68963 0.37646 0.81708
 H99 H 0.69689 0.41938 0.81494
 Zn100 Zn 0.76000 0.24119 0.74840
 N101 N 0.71549 0.28790 0.79043
 C102 C 0.78091 0.16964 0.83791
 N103 N 0.80405 0.19862 0.79617
 C104 C 0.85834 0.19703 0.78741
 C105 C 0.89185 0.16752 0.82254
 C106 C 0.81276 0.13902 0.87376
 C107 C 0.67175 0.21951 0.67882
 C108 C 0.63551 0.18815 0.64802
 C109 C 0.68679 0.10967 0.67319
 C110 C 0.72190 0.14252 0.70378
 N111 N 0.71375 0.19636 0.70603
 H112 H 0.73764 0.17004 0.84348
 H113 H 0.87603 0.21810 0.75260
 H114 H 0.93445 0.16721 0.81283
 H115 H 0.79299 0.11662 0.90677
 H116 H 0.66647 0.26250 0.68110
 H117 H 0.60309 0.20775 0.62591
 H118 H 0.69385 0.06686 0.67162
 H119 H 0.75575 0.12506 0.72553
 C120 C 0.64607 0.35546 0.84749
 C121 C 0.86921 0.34716 0.63240
 C122 C 0.64257 0.13227 0.64540
 C123 C 0.86938 0.13821 0.86734
 C124 C 0.33600 0.82398 0.72688
 H125 H 0.34027 0.82518 0.77159
 C126 C 0.36958 0.85589 0.69346
 H127 H 0.39880 0.88229 0.71312
 C128 C 0.29161 0.78867 0.64752
 H129 H 0.26172 0.76195 0.62963
 C130 C 0.32405 0.82013 0.61260
 H131 H 0.31839 0.81765 0.56805
 N132 N 0.29780 0.79141 0.70359
 C133 C 0.17367 0.76485 0.83034
 H134 H 0.17357 0.72148 0.83282
 C135 C 0.13764 0.79422 0.86263
 H136 H 0.11004 0.77327 0.89027
 C137 C 0.20930 0.84481 0.79070
 H138 H 0.23700 0.86439 0.76233
 C139 C 0.17353 0.87571 0.82176
 H140 H 0.17520 0.91897 0.81780
 Zn141 Zn 0.25506 0.74772 0.75141
 N142 N 0.20894 0.79041 0.79568
 C143 C 0.29917 0.70795 0.85273
 N144 N 0.30282 0.70732 0.79638
 C145 C 0.34093 0.67761 0.77025
 C146 C 0.37604 0.64536 0.80084
 C147 C 0.33337 0.67622 0.88492
 C148 C 0.16935 0.72347 0.67950
 C149 C 0.13417 0.69125 0.64837
 C150 C 0.18317 0.61330 0.67942
 C151 C 0.21713 0.64696 0.71032
 N152 N 0.21006 0.70105 0.70937
 H153 H 0.26954 0.73268 0.87293
 H154 H 0.34324 0.67818 0.72538
 H155 H 0.40455 0.62069 0.77876
 H156 H 0.32939 0.67658 0.92972
 H157 H 0.16442 0.76657 0.67975
 H158 H 0.10289 0.71019 0.62396
 H159 H 0.18951 0.57035 0.68031
 H160 H 0.24892 0.62965 0.73511
 C161 C 0.13679 0.85029 0.85806
 C162 C 0.36397 0.85390 0.63535
 C163 C 0.14078 0.63527 0.64837
 C164 C 0.37237 0.64434 0.85912
 C165 C 0.00153 -0.00473 0.00089
 C166 C -0.00358 0.50657 0.49772
 C167 C 0.49605 0.00550 0.49525
 C168 C 0.50664 0.49209 -0.00839
 C169 C 0.09826 -0.11896 -0.10762
 C170 C 0.07755 -0.07204 -0.12429
 C171 C 0.03931 -0.03992 -0.09127
 C172 C 0.03687 -0.04104 -0.03540
 H173 H 0.08690 -0.05691 -0.16538
 H174 H 0.01508 -0.01208 -0.11475
 H175 H 0.08466 -0.13705 -0.06911
 H176 H 0.06258 -0.06874 -0.01314
 C177 C 0.10569 0.40693 0.38942
 C178 C 0.09130 0.39523 0.44178
 C179 C 0.06148 0.43241 0.47798
 C180 C 0.02879 0.47107 0.45889
 H181 H 0.10444 0.35809 0.46063
 H182 H 0.06449 0.42580 0.52236
 H183 H 0.09744 0.44629 0.37249
 H184 H 0.02310 0.47568 0.41453
 C185 C 0.58477 -0.11469 0.38799
 C186 C 0.55854 -0.07142 0.36939
 C187 C 0.52183 -0.03930 0.40399
 C188 C 0.52905 -0.03220 0.45888
 H189 H 0.56211 -0.05985 0.32616
 H190 H 0.49049 -0.01805 0.38196
 H191 H 0.57673 -0.12984 0.42940
 H192 H 0.56170 -0.05325 0.47932
 C193 C 0.61100 0.39300 -0.12191
 C194 C 0.55947 0.38182 -0.10850
 C195 C 0.52458 0.41902 -0.07741
 C196 C 0.54371 0.45702 -0.04291
 H197 H 0.54071 0.34488 -0.12259
 H198 H 0.48128 0.41262 -0.08052
 H199 H 0.62787 0.43222 -0.11265
 H200 H 0.58695 0.46177 -0.03741
 C201 C -0.10072 0.10882 -0.09666
 C202 C -0.04381 0.10869 -0.09456
 C203 C -0.01295 0.07494 -0.06064
 C204 C -0.03309 0.03019 -0.03129
 H205 H -0.02071 0.13763 -0.11836
 H206 H 0.03026 0.08268 -0.05966
 H207 H -0.12246 0.08530 -0.06598
 H208 H -0.07514 0.01886 -0.03680
 C209 C -0.10795 0.61513 0.39140
 C210 C -0.11847 0.60102 0.44417
 C211 C -0.08635 0.56228 0.47674
 C212 C -0.03680 0.54526 0.46265
 H213 H -0.15419 0.61598 0.46455
 H214 H -0.10449 0.54855 0.51516
 H215 H -0.07479 0.59679 0.36954
 H216 H -0.01685 0.56238 0.42670
 C217 C 0.39715 0.12895 0.40314
 C218 C 0.44779 0.11465 0.39054
 C219 C 0.48137 0.08108 0.42736
 C220 C 0.46056 0.04308 0.46102
 H221 H 0.46664 0.12968 0.35299
 H222 H 0.52487 0.08493 0.42343
 H223 H 0.38063 0.11850 0.44342
 H224 H 0.41718 0.03660 0.46122
 C225 C 0.40669 0.60940 -0.10586
 C226 C 0.45471 0.59041 -0.12211
 C227 C 0.48920 0.55682 -0.08622
 C228 C 0.46972 0.52401 -0.04650
 H229 H 0.47177 0.60270 -0.16151
 H230 H 0.53236 0.55829 -0.09378
 H231 H 0.39271 0.60121 -0.06405
 H232 H 0.42639 0.52030 -0.04084
 C233 C -0.10841 -0.10933 0.10284
 C234 C -0.10206 -0.11124 0.04484
 C235 C -0.06662 -0.07857 0.01391
 C236 C -0.03171 -0.03893 0.03571
 H237 H -0.12577 -0.13921 0.02060
 H238 H -0.06701 -0.08434 -0.03070
 H239 H -0.08404 -0.08126 0.12633
 H240 H -0.03081 -0.03236 0.08005
 C241 C -0.09602 0.38291 0.59817
 C242 C -0.10913 0.39928 0.54680
 C243 C -0.07496 0.43584 0.51313
 C244 C -0.03863 0.47053 0.53454
 H245 H -0.14594 0.38496 0.52733
 H246 H -0.08136 0.43533 0.46862
 H247 H -0.05884 0.39706 0.61710
 H248 H -0.03378 0.47357 0.57909
 C249 C 0.39745 -0.11259 0.59743
 C250 C 0.44710 -0.09424 0.61047
 C251 C 0.48081 -0.06115 0.57259
 C252 C 0.46045 -0.02898 0.53303
 H253 H 0.46563 -0.10603 0.64930
 H254 H 0.52409 -0.06131 0.57963
 H255 H 0.38139 -0.10524 0.55628
 H256 H 0.41701 -0.02724 0.52783
 C257 C 0.38917 0.39388 0.09360
 C258 C 0.40612 0.44374 0.10591
 C259 C 0.43859 0.47720 0.06752
 C260 C 0.47266 0.45675 0.02996
 H261 H 0.39331 0.46245 0.14414
 H262 H 0.43621 0.52034 0.07222
 H263 H 0.39720 0.37750 0.05285
 H264 H 0.47751 0.41364 0.02773
 C265 C 0.10478 0.11100 0.10257
 C266 C 0.12233 0.06494 0.08055
 C267 C 0.09055 0.03168 0.04130
 C268 C 0.03612 0.03057 0.03959
 H269 H 0.16330 0.05212 0.08859
 H270 H 0.11387 0.00570 0.01489
 H271 H 0.06602 0.12682 0.08997
 H272 H 0.01403 0.05573 0.06818
 C273 C 0.10541 0.59904 0.61549
 C274 C 0.05383 0.61051 0.60348
 C275 C 0.01776 0.57480 0.57110
 C276 C 0.03525 0.53984 0.53291
 H277 H 0.03573 0.64629 0.62037
 H278 H -0.02529 0.57979 0.57697
 H279 H 0.12175 0.56063 0.60347
 H280 H 0.07819 0.53726 0.52452
 C281 C 0.60607 0.09688 0.61266
 C282 C 0.55440 0.10896 0.60135
 C283 C 0.51776 0.07403 0.56856
 C284 C 0.53495 0.03924 0.53011
 H285 H 0.53672 0.14461 0.61893
 H286 H 0.47469 0.07918 0.57442
 H287 H 0.62190 0.05853 0.59976
 H288 H 0.57782 0.03663 0.52142
 C289 C 0.59900 0.60066 0.10958
 C290 C 0.60961 0.54879 0.09981
 C291 C 0.57514 0.51326 0.06542
 C292 C 0.54064 0.53068 0.02638
 H293 H 0.64467 0.53023 0.11820
 H294 H 0.58004 0.47045 0.07123
 H295 H 0.56365 0.61882 0.09124
 H296 H 0.53746 0.57324 0.01809
   
