data_POSCAR
  _audit_creation_date              2014-09-24
  _audit_creation_method            'ToBaCCo'
  _symmetry_space_group_name_H-M    'P1'
  _symmetry_Int_Tables_number       1
  _symmetry_cell_setting            triclinic
  loop_
  _symmetry_equiv_pos_as_xyz
 x,y,z
_cell_length_a 36.3720
_cell_length_b 38.2581
_cell_length_c 36.3489
_cell_angle_alpha 90.021900
_cell_angle_beta 90.020500
_cell_angle_gamma 90.020500
loop_
  _atom_site_label
  _atom_site_type_symbol
  _atom_site_fract_x
  _atom_site_fract_y
  _atom_site_fract_z
Si1 Si 0.25001 0.25001 0.25032
 Si2 Si 0.75012 0.75017 0.24995
 Si3 Si 0.75005 0.25017 0.75017
 Si4 Si 0.25017 0.75003 0.75011
 C5 C 0.05197 0.05243 0.01255
 H6 H 0.05265 0.05391 -0.01717
 C7 C 0.07354 0.07512 0.03352
 H8 H 0.09065 0.09420 0.01971
 C9 C 0.02784 0.02640 0.06653
 H10 H 0.00968 0.00770 0.07934
 C11 C 0.04891 0.04862 0.08857
 H12 H 0.04724 0.04621 0.11819
 N13 N 0.03006 0.02839 0.02923
 C14 C 0.01497 -0.05438 -0.05201
 H15 H -0.01473 -0.05591 -0.05262
 C16 C 0.03587 -0.07700 -0.07371
 H17 H 0.02202 -0.09606 -0.09082
 C18 C 0.06898 -0.02829 -0.02799
 H19 H 0.08182 -0.00958 -0.00983
 C20 C 0.09095 -0.05043 -0.04919
 H21 H 0.12056 -0.04796 -0.04762
 Zn22 Zn 0.00126 -0.00099 -0.00126
 N23 N 0.03170 -0.03034 -0.03010
 C24 C -0.02562 0.02623 -0.06901
 N25 N -0.02758 0.02835 -0.03171
 C26 C -0.04937 0.05243 -0.01494
 C27 C -0.07111 0.07502 -0.03583
 C28 C -0.04692 0.04830 -0.09096
 C29 C -0.01253 -0.05431 0.04953
 C30 C -0.03348 -0.07680 0.07133
 C31 C -0.08850 -0.05022 0.04677
 C32 C -0.06648 -0.02821 0.02548
 N33 N -0.02921 -0.03031 0.02758
 H34 H -0.00739 0.00763 -0.08189
 H35 H -0.05000 0.05388 0.01478
 H36 H -0.08884 0.09350 -0.02192
 H37 H -0.04480 0.04638 -0.12061
 H38 H 0.01717 -0.05588 0.05014
 H39 H -0.01967 -0.09582 0.08851
 H40 H -0.11810 -0.04769 0.04522
 H41 H -0.07929 -0.00954 0.00727
 C42 C 0.07442 -0.07511 -0.07257
 C43 C 0.07226 0.07332 0.07209
 C44 C -0.07203 -0.07483 0.07023
 C45 C -0.07019 0.07302 -0.07440
 C46 C 0.05201 0.55444 0.51469
 H47 H 0.05266 0.55581 0.48497
 C48 C 0.07376 0.57708 0.53555
 H49 H 0.09097 0.59601 0.52162
 C50 C 0.02782 0.52873 0.56882
 H51 H 0.00957 0.51016 0.58173
 C52 C 0.04907 0.55091 0.59073
 H53 H 0.04745 0.54860 0.62037
 N54 N 0.02999 0.53057 0.53151
 C55 C 0.01449 0.44744 0.45079
 H56 H -0.01521 0.44599 0.45031
 C57 C 0.03524 0.42470 0.42909
 H58 H 0.02127 0.40561 0.41211
 C59 C 0.06867 0.47352 0.47444
 H60 H 0.08163 0.49228 0.49245
 C61 C 0.09049 0.45125 0.45324
 H62 H 0.12012 0.45367 0.45465
 Zn63 Zn 0.00107 0.50116 0.50117
 N64 N 0.03138 0.47155 0.47249
 C65 C -0.02554 0.52804 0.43320
 N66 N -0.02763 0.53040 0.47048
 C67 C -0.04952 0.55456 0.48700
 C68 C -0.07125 0.57695 0.46586
 C69 C -0.04681 0.54990 0.41101
 C70 C -0.01298 0.44805 0.55217
 C71 C -0.03406 0.42555 0.57383
 C72 C -0.08893 0.45220 0.54903
 C73 C -0.06680 0.47418 0.52783
 N74 N -0.02954 0.47205 0.53010
 H75 H -0.00723 0.50939 0.42053
 H76 H -0.05026 0.55621 0.51670
 H77 H -0.08908 0.59549 0.47957
 H78 H -0.04459 0.54777 0.38139
 H79 H 0.01671 0.44657 0.55304
 H80 H -0.02033 0.40710 0.59175
 H81 H -0.11854 0.45411 0.54662
 H82 H -0.07950 0.49269 0.50938
 C83 C 0.07380 0.42653 0.43002
 C84 C 0.07255 0.57541 0.57413
 C85 C -0.07260 0.42755 0.57254
 C86 C -0.07022 0.57466 0.42731
 C87 C 0.54950 0.05251 0.51456
 H88 H 0.54994 0.05391 0.48484
 C89 C 0.57126 0.07525 0.53528
 H90 H 0.58825 0.09429 0.52126
 C91 C 0.52589 0.02658 0.56882
 H92 H 0.50787 0.00787 0.58183
 C93 C 0.54716 0.04885 0.59061
 H94 H 0.54578 0.04648 0.62026
 N95 N 0.52778 0.02848 0.53150
 C96 C 0.51279 -0.05463 0.45068
 H97 H 0.48310 -0.05627 0.45013
 C98 C 0.53376 -0.07715 0.42893
 H99 H 0.51996 -0.09627 0.41184
 C100 C 0.56673 -0.02827 0.47454
 H101 H 0.57952 -0.00948 0.49264
 C102 C 0.58875 -0.05031 0.45329
 H103 H 0.61836 -0.04768 0.45476
 Zn104 Zn 0.49896 -0.00109 0.50124
 N105 N 0.52945 -0.03048 0.47251
 C106 C 0.47223 0.02584 0.43335
 N107 N 0.47007 0.02805 0.47063
 C108 C 0.44815 0.05215 0.48721
 C109 C 0.42651 0.07467 0.46613
 C110 C 0.45105 0.04784 0.41121
 C111 C 0.48539 -0.05427 0.55227
 C112 C 0.46453 -0.07685 0.57405
 C113 C 0.40940 -0.05055 0.54940
 C114 C 0.43132 -0.02843 0.52813
 N115 N 0.46861 -0.03037 0.53025
 H116 H 0.49057 0.00725 0.42062
 H117 H 0.44736 0.05368 0.51692
 H118 H 0.40871 0.09320 0.47988
 H119 H 0.45337 0.04586 0.38159
 H120 H 0.51509 -0.05571 0.55288
 H121 H 0.47842 -0.09581 0.59123
 H122 H 0.37978 -0.04817 0.54781
 H123 H 0.41844 -0.00984 0.50989
 C124 C 0.57230 -0.07505 0.42994
 C125 C 0.57037 0.07350 0.57387
 C126 C 0.42597 -0.07509 0.57287
 C127 C 0.42769 0.07259 0.42757
 C128 C 0.54935 0.55451 0.01264
 H129 H 0.54990 0.55601 -0.01708
 C130 C 0.57112 0.57710 0.03353
 H131 H 0.58823 0.59614 0.01965
 C132 C 0.52546 0.52846 0.06672
 H133 H 0.50734 0.50976 0.07959
 C134 C 0.54672 0.55058 0.08867
 H135 H 0.54524 0.54810 0.11830
 N136 N 0.52750 0.53048 0.02941
 C137 C 0.51261 0.44746 -0.05154
 H138 H 0.48291 0.44588 -0.05218
 C139 C 0.53359 0.42479 -0.07310
 H140 H 0.51981 0.40562 -0.09014
 C141 C 0.56652 0.47376 -0.02756
 H142 H 0.57930 0.49255 -0.00946
 C143 C 0.58857 0.45156 -0.04861
 H144 H 0.61818 0.45408 -0.04700
 Zn145 Zn 0.49873 0.50097 -0.00097
 N146 N 0.52925 0.47163 -0.02972
 C147 C 0.47186 0.52794 -0.06881
 N148 N 0.46976 0.53012 -0.03151
 C149 C 0.44781 0.55415 -0.01488
 C150 C 0.42606 0.57663 -0.03590
 C151 C 0.45056 0.54989 -0.09088
 C152 C 0.48535 0.44764 0.04985
 C153 C 0.46462 0.42501 0.07169
 C154 C 0.40936 0.45135 0.04740
 C155 C 0.43116 0.47351 0.02606
 N156 N 0.46845 0.47159 0.02800
 H157 H 0.49022 0.50939 -0.08158
 H158 H 0.44707 0.55566 0.01484
 H159 H 0.40821 0.59509 -0.02209
 H160 H 0.45282 0.54793 -0.12051
 H161 H 0.51506 0.44622 0.05031
 H162 H 0.47862 0.40602 0.08876
 H163 H 0.37973 0.45372 0.04598
 H164 H 0.41818 0.49215 0.00794
 C165 C 0.57214 0.42674 -0.07188
 C166 C 0.57009 0.57521 0.07211
 C167 C 0.42607 0.42677 0.07074
 C168 C 0.42715 0.57457 -0.07446
 C169 C 0.15133 -0.13555 -0.10332
 C170 C 0.14078 -0.14302 -0.13950
 C171 C 0.10849 -0.12848 -0.15377
 C172 C 0.08684 -0.10650 -0.13199
 C173 C 0.22310 -0.22402 -0.22250
 C174 C 0.12973 -0.11355 -0.08149
 C175 C 0.16321 -0.16539 -0.16208
 C176 C 0.18205 -0.18401 -0.18106
 C177 C 0.20417 -0.20566 -0.20337
 C178 C 0.09725 -0.09872 -0.09560
 H179 H 0.17623 -0.14673 -0.09197
 H180 H 0.10013 -0.13401 -0.18179
 H181 H 0.06226 -0.09515 -0.14381
 H182 H 0.13823 -0.10845 -0.05345
 C183 C 0.15042 0.36596 0.39889
 C184 C 0.13965 0.35847 0.36278
 C185 C 0.10729 0.37303 0.34869
 C186 C 0.08581 0.39506 0.37057
 C187 C 0.22145 0.27740 0.27935
 C188 C 0.12900 0.38801 0.42083
 C189 C 0.16192 0.33606 0.34009
 C190 C 0.18062 0.31743 0.32100
 C191 C 0.20260 0.29577 0.29857
 C192 C 0.09645 0.40286 0.40689
 H193 H 0.17538 0.35476 0.41010
 H194 H 0.09876 0.36750 0.32072
 H195 H 0.06118 0.40644 0.35889
 H196 H 0.13767 0.39313 0.44881
 C197 C 0.64953 -0.13485 0.39869
 C198 C 0.63893 -0.14225 0.36250
 C199 C 0.60646 -0.12790 0.34841
 C200 C 0.58471 -0.10617 0.37037
 C201 C 0.72153 -0.22247 0.27897
 C202 C 0.62784 -0.11311 0.42069
 C203 C 0.66146 -0.16435 0.33976
 C204 C 0.68038 -0.18277 0.32064
 C205 C 0.70257 -0.20422 0.29819
 C206 C 0.59519 -0.09846 0.40675
 H207 H 0.67457 -0.14590 0.40991
 H208 H 0.59806 -0.13337 0.32040
 H209 H 0.56000 -0.09495 0.35868
 H210 H 0.63640 -0.10806 0.44873
 C211 C 0.64920 0.36626 -0.10208
 C212 C 0.63877 0.35860 -0.13826
 C213 C 0.60649 0.37301 -0.15270
 C214 C 0.58475 0.39507 -0.13110
 C215 C 0.72142 0.27752 -0.22081
 C216 C 0.62752 0.38833 -0.08044
 C217 C 0.66132 0.33618 -0.16065
 C218 C 0.68024 0.31753 -0.17951
 C219 C 0.70244 0.29587 -0.20172
 C220 C 0.59505 0.40304 -0.09472
 H221 H 0.67410 0.35517 -0.09060
 H222 H 0.59823 0.36735 -0.18071
 H223 H 0.56019 0.40633 -0.14304
 H224 H 0.63593 0.39358 -0.05240
 C225 C -0.13300 0.10585 -0.15031
 C226 C -0.13754 0.14091 -0.14032
 C227 C -0.12002 0.15386 -0.10886
 C228 C -0.09807 0.13183 -0.08742
 C229 C -0.22096 0.22264 -0.22138
 C230 C -0.11105 0.08379 -0.12894
 C231 C -0.16026 0.16352 -0.16232
 C232 C -0.17935 0.18232 -0.18084
 C233 C -0.20177 0.20415 -0.20265
 C234 C -0.09334 0.09652 -0.09721
 H235 H -0.14653 0.09553 -0.17456
 H236 H -0.12327 0.18098 -0.10093
 H237 H -0.08443 0.14253 -0.06344
 H238 H -0.10836 0.05664 -0.13694
 C239 C -0.13293 0.60660 0.35089
 C240 C -0.13764 0.64173 0.36053
 C241 C -0.12028 0.65501 0.39193
 C242 C -0.09832 0.63325 0.41366
 C243 C -0.22096 0.72267 0.27850
 C244 C -0.11097 0.58481 0.37256
 C245 C -0.16034 0.66407 0.33821
 C246 C -0.17942 0.68266 0.31944
 C247 C -0.20180 0.70430 0.29739
 C248 C -0.09342 0.59788 0.40422
 H249 H -0.14633 0.59602 0.32670
 H250 H -0.12367 0.68219 0.39958
 H251 H -0.08481 0.64421 0.43758
 H252 H -0.10814 0.55761 0.36483
 C253 C 0.37845 0.15352 0.39248
 C254 C 0.36120 0.14057 0.36087
 C255 C 0.36568 0.10547 0.35102
 C256 C 0.38732 0.08337 0.37267
 C257 C 0.27886 0.22245 0.27887
 C258 C 0.40008 0.13146 0.41420
 C259 C 0.33883 0.16323 0.33856
 C260 C 0.32002 0.18206 0.31980
 C261 C 0.29787 0.20393 0.29776
 C262 C 0.40476 0.09611 0.40454
 H263 H 0.37524 0.18068 0.40031
 H264 H 0.35236 0.09515 0.32666
 H265 H 0.38997 0.05620 0.36476
 H266 H 0.41353 0.14216 0.43828
 C267 C 0.36478 0.60723 -0.15084
 C268 C 0.36016 0.64230 -0.14096
 C269 C 0.37743 0.65530 -0.10938
 C270 C 0.39923 0.63332 -0.08773
 C271 C 0.27743 0.72395 -0.22284
 C272 C 0.38658 0.58521 -0.12926
 C273 C 0.33764 0.66488 -0.16320
 C274 C 0.31871 0.68366 -0.18192
 C275 C 0.29648 0.70547 -0.20394
 C276 C 0.40406 0.59800 -0.09743
 H277 H 0.35144 0.59686 -0.17517
 H278 H 0.37411 0.68244 -0.10153
 H279 H 0.41269 0.64407 -0.06368
 H280 H 0.38935 0.55805 -0.13719
 C281 C -0.10623 -0.12754 0.15182
 C282 C -0.13862 -0.14204 0.13768
 C283 C -0.14916 -0.13479 0.10145
 C284 C -0.12748 -0.11303 0.07945
 C285 C -0.22123 -0.22240 0.22105
 C286 C -0.08449 -0.10579 0.12986
 C287 C -0.16113 -0.16417 0.16042
 C288 C -0.18005 -0.18261 0.17951
 C289 C -0.20224 -0.20411 0.20190
 C290 C -0.09491 -0.09823 0.09343
 H291 H -0.09788 -0.13289 0.17987
 H292 H -0.17413 -0.14596 0.09020
 H293 H -0.13598 -0.10810 0.05138
 H294 H -0.05985 -0.09445 0.14158
 C295 C -0.10767 0.34669 0.62194
 C296 C -0.13933 0.35962 0.63906
 C297 C -0.14921 0.39469 0.63445
 C298 C -0.12755 0.41678 0.61281
 C299 C -0.22139 0.27776 0.72136
 C300 C -0.08594 0.36874 0.60030
 C301 C -0.16166 0.33697 0.66142
 C302 C -0.18043 0.31815 0.68023
 C303 C -0.20249 0.29628 0.70236
 C304 C -0.09564 0.40406 0.59548
 H305 H -0.09983 0.31956 0.62525
 H306 H -0.17360 0.40500 0.64767
 H307 H -0.13548 0.44393 0.61004
 H308 H -0.06183 0.35805 0.58695
 C309 C 0.34920 -0.13567 0.60370
 C310 C 0.35972 -0.14299 0.63992
 C311 C 0.39196 -0.12831 0.65419
 C312 C 0.41358 -0.10633 0.63237
 C313 C 0.27734 -0.22401 0.72284
 C314 C 0.37076 -0.11367 0.58184
 C315 C 0.33731 -0.16536 0.66251
 C316 C 0.31847 -0.18398 0.68149
 C317 C 0.29632 -0.20564 0.70376
 C318 C 0.40319 -0.09870 0.59595
 H319 H 0.32434 -0.14696 0.59234
 H320 H 0.40030 -0.13372 0.68223
 H321 H 0.43811 -0.09486 0.64419
 H322 H 0.36228 -0.10869 0.55377
 C323 C 0.39262 0.37348 0.15222
 C324 C 0.36031 0.35878 0.13815
 C325 C 0.34954 0.36613 0.10200
 C326 C 0.37093 0.38817 0.08003
 C327 C 0.27861 0.27752 0.22145
 C328 C 0.41407 0.39551 0.13029
 C329 C 0.33810 0.33635 0.16086
 C330 C 0.31942 0.31767 0.17993
 C331 C 0.29746 0.29595 0.20231
 C332 C 0.40344 0.40315 0.09394
 H333 H 0.40115 0.36806 0.18021
 H334 H 0.32462 0.35481 0.09080
 H335 H 0.36227 0.39317 0.05202
 H336 H 0.43866 0.40699 0.14196
 C337 C 0.10245 0.13399 0.14910
 C338 C 0.13865 0.14152 0.13874
 C339 C 0.15310 0.12697 0.10652
 C340 C 0.13150 0.10489 0.08477
 C341 C 0.22111 0.22264 0.22157
 C342 C 0.08080 0.11190 0.12741
 C343 C 0.16105 0.16395 0.16131
 C344 C 0.17989 0.18260 0.18027
 C345 C 0.20207 0.20428 0.20252
 C346 C 0.09510 0.09705 0.09500
 H347 H 0.09096 0.14519 0.17395
 H348 H 0.18113 0.13253 0.09831
 H349 H 0.14345 0.09352 0.06025
 H350 H 0.05275 0.10676 0.13577
 C351 C 0.10343 0.63608 0.65088
 C352 C 0.13965 0.64335 0.64039
 C353 C 0.15390 0.62861 0.60817
 C354 C 0.13206 0.60663 0.58654
 C355 C 0.22278 0.72417 0.72290
 C356 C 0.08155 0.61409 0.62931
 C357 C 0.16228 0.66568 0.66283
 C358 C 0.18130 0.68426 0.68170
 C359 C 0.20364 0.70586 0.70388
 C360 C 0.09564 0.59905 0.59690
 H361 H 0.09210 0.64742 0.67573
 H362 H 0.18194 0.63396 0.59986
 H363 H 0.14386 0.59511 0.56202
 H364 H 0.05348 0.60915 0.63776
 C365 C 0.60161 0.13420 0.65043
 C366 C 0.63770 0.14164 0.63963
 C367 C 0.65174 0.12700 0.60728
 C368 C 0.62983 0.10494 0.58582
 C369 C 0.72110 0.22278 0.72150
 C370 C 0.57965 0.11213 0.62903
 C371 C 0.66042 0.16407 0.66189
 C372 C 0.67950 0.18272 0.68060
 C373 C 0.70192 0.20440 0.70261
 C374 C 0.59354 0.09719 0.59648
 H375 H 0.59044 0.14547 0.67539
 H376 H 0.67969 0.13248 0.59873
 H377 H 0.64148 0.09349 0.56119
 H378 H 0.55169 0.10706 0.63772
 C379 C 0.60140 0.63532 0.14916
 C380 C 0.63758 0.64259 0.13857
 C381 C 0.65165 0.62808 0.10616
 C382 C 0.62968 0.60630 0.08445
 C383 C 0.72114 0.72285 0.22123
 C384 C 0.57938 0.61352 0.12752
 C385 C 0.66036 0.66473 0.16108
 C386 C 0.67948 0.68315 0.18000
 C387 C 0.70193 0.70461 0.20222
 C388 C 0.59329 0.59870 0.09493
 H389 H 0.59020 0.64648 0.17416
 H390 H 0.67967 0.63346 0.09776
 H391 H 0.64134 0.59494 0.05979
 H392 H 0.55135 0.60855 0.13607
   
