data_POSCAR
  _audit_creation_date              2014-09-24
  _audit_creation_method            'ToBaCCo'
  _symmetry_space_group_name_H-M    'P1'
  _symmetry_Int_Tables_number       1
  _symmetry_cell_setting            triclinic
  loop_
  _symmetry_equiv_pos_as_xyz
 x,y,z
_cell_length_a 26.4524
_cell_length_b 24.9469
_cell_length_c 24.7399
_cell_angle_alpha 90.457000
_cell_angle_beta 90.622900
_cell_angle_gamma 90.868700
loop_
  _atom_site_label
  _atom_site_type_symbol
  _atom_site_fract_x
  _atom_site_fract_y
  _atom_site_fract_z
C1 C 0.25055 0.30225 0.28083
 C2 C 0.28946 0.32550 0.24144
 C3 C 0.30909 0.28845 0.20733
 C4 C 0.28756 0.23175 0.21496
 C5 C 0.21042 0.27440 0.24434
 C6 C 0.23015 0.23802 0.20944
 C7 C 0.27777 0.25628 0.30919
 C8 C 0.29690 0.21915 0.27482
 H9 H 0.30100 0.36735 0.24140
 H10 H 0.30326 0.20193 0.18656
 H11 H 0.17090 0.28482 0.24329
 H12 H 0.28018 0.25285 0.35275
 C13 C 0.68857 0.75536 0.30079
 C14 C 0.72521 0.80022 0.28279
 C15 C 0.76098 0.78282 0.24800
 C16 C 0.75641 0.72318 0.23337
 C17 C 0.66657 0.73159 0.24794
 C18 C 0.70205 0.71432 0.21260
 C19 C 0.72313 0.71156 0.32336
 C20 C 0.75827 0.69452 0.28767
 H21 H 0.72715 0.83981 0.30090
 H22 H 0.78632 0.71055 0.20527
 H23 H 0.62633 0.72680 0.24068
 H24 H 0.71957 0.69522 0.36360
 C25 C 0.74278 0.28861 0.76527
 C26 C 0.77701 0.31078 0.72544
 C27 C 0.80472 0.27175 0.69609
 C28 C 0.79149 0.21703 0.71116
 C29 C 0.70786 0.24966 0.73313
 C30 C 0.73364 0.21173 0.70510
 C31 C 0.77549 0.25203 0.80088
 C32 C 0.80120 0.21444 0.77239
 H33 H 0.78211 0.35352 0.71999
 H34 H 0.81096 0.18592 0.68783
 H35 H 0.66705 0.24949 0.73535
 H36 H 0.77806 0.25597 0.84445
 C37 C 0.18396 0.78801 0.82279
 C38 C 0.21103 0.83844 0.80144
 C39 C 0.24236 0.82912 0.75925
 C40 C 0.24349 0.76997 0.74184
 C41 C 0.15702 0.76338 0.77322
 C42 C 0.18800 0.75402 0.73087
 C43 C 0.22668 0.74920 0.83585
 C44 C 0.25814 0.73966 0.79360
 H45 H 0.20624 0.87795 0.81840
 H46 H 0.26820 0.76212 0.70706
 H47 H 0.11678 0.75466 0.77178
 H48 H 0.23173 0.73181 0.87543
 C49 C 0.04762 0.09208 0.03157
 H50 H 0.04078 0.08382 -0.01090
 C51 C 0.08591 0.12809 0.04722
 H52 H 0.10786 0.14794 0.01639
 C53 C 0.02778 0.07503 0.12305
 H54 H 0.00532 0.05393 0.15247
 C55 C 0.06565 0.11109 0.14056
 H56 H 0.07234 0.11678 0.18347
 N57 N 0.02100 0.06465 0.06934
 C58 C -0.00634 -0.09364 -0.00097
 H59 H -0.04653 -0.09830 0.00562
 C60 C 0.02023 -0.13459 -0.02639
 H61 H 0.00010 -0.17051 -0.03967
 C62 C 0.06824 -0.04021 0.00664
 H63 H 0.08717 -0.00378 0.01990
 C64 C 0.09606 -0.07975 -0.01921
 H65 H 0.13604 -0.07298 -0.02576
 Zn66 Zn -0.02221 0.00904 0.04262
 N67 N 0.01760 -0.04695 0.01361
 C68 C -0.05933 0.01669 -0.06382
 N69 N -0.06272 0.03811 -0.01332
 C70 C -0.08943 0.08345 -0.00421
 C71 C -0.11229 0.11025 -0.04742
 C72 C -0.08166 0.04185 -0.10781
 C73 C -0.03476 -0.04769 0.13695
 C74 C -0.05958 -0.08029 0.17390
 C75 C -0.13901 -0.05885 0.13074
 C76 C -0.11255 -0.02601 0.09471
 N77 N -0.06124 -0.02212 0.09782
 H78 H -0.03757 -0.01888 -0.07069
 H79 H -0.09097 0.10013 0.03622
 H80 H -0.13161 0.14744 -0.03978
 H81 H -0.07779 0.02398 -0.14749
 H82 H 0.00609 -0.04475 0.13779
 H83 H -0.03729 -0.10083 0.20398
 H84 H -0.17952 -0.06373 0.12590
 H85 H -0.13269 -0.00615 0.06251
 C86 C 0.07184 -0.12719 -0.03700
 C87 C 0.09646 0.13656 0.10234
 C88 C -0.11217 -0.08792 0.16986
 C89 C -0.10723 0.09015 -0.10029
 C90 C 0.05924 0.60765 0.50616
 H91 H 0.05400 0.60980 0.46280
 C92 C 0.08684 0.64770 0.53343
 H93 H 0.10197 0.68114 0.51081
 C94 C 0.04690 0.56024 0.58776
 H95 H 0.03240 0.52526 0.60834
 C96 C 0.07393 0.59980 0.61680
 H97 H 0.07987 0.59493 0.65982
 N98 N 0.04109 0.56440 0.53328
 C99 C 0.05533 0.43469 0.41594
 H100 H 0.01654 0.42143 0.40979
 C101 C 0.09415 0.40876 0.38882
 H102 H 0.08446 0.37572 0.36193
 C103 C 0.11454 0.49242 0.46031
 H104 H 0.12273 0.52435 0.48891
 C105 C 0.15442 0.46790 0.43384
 H106 H 0.19238 0.48262 0.44199
 Zn107 Zn 0.01292 0.50813 0.49071
 N108 N 0.06603 0.47565 0.45111
 C109 C -0.03009 0.53219 0.38818
 N110 N -0.03538 0.53801 0.44251
 C111 C -0.07428 0.56643 0.46322
 C112 C -0.11105 0.58795 0.42911
 C113 C -0.06583 0.55312 0.35264
 C114 C -0.00121 0.40412 0.53314
 C115 C -0.02681 0.36278 0.55943
 C116 C -0.08637 0.42730 0.59216
 C117 C -0.05969 0.46737 0.56481
 N118 N -0.01882 0.45502 0.53455
 H119 H 0.00209 0.51183 0.37195
 H120 H -0.07658 0.57311 0.50624
 H121 H -0.14197 0.60966 0.44674
 H122 H -0.06013 0.54809 0.30972
 H123 H 0.03259 0.39498 0.51116
 H124 H -0.01137 0.32307 0.55650
 H125 H -0.11938 0.43885 0.61451
 H126 H -0.07222 0.50821 0.56739
 C127 C 0.14466 0.42502 0.39790
 C128 C 0.09543 0.64348 0.58927
 C129 C -0.07101 0.37350 0.58858
 C130 C -0.10741 0.58093 0.37294
 C131 C 0.54042 0.08644 0.54677
 H132 H 0.51574 0.10847 0.52022
 C133 C 0.57975 0.11337 0.57472
 H134 H 0.58523 0.15608 0.56931
 C135 C 0.56461 0.00385 0.58526
 H136 H 0.55833 -0.03888 0.58921
 C137 C 0.60446 0.02885 0.61318
 H138 H 0.62845 0.00496 0.63890
 N139 N 0.53370 0.03259 0.55267
 C140 C 0.50744 -0.11903 0.49236
 H141 H 0.47881 -0.13001 0.52118
 C142 C 0.53324 -0.15915 0.46469
 H143 H 0.52376 -0.20052 0.47302
 C144 C 0.55545 -0.05184 0.44832
 H145 H 0.56376 -0.00975 0.44215
 C146 C 0.58196 -0.09050 0.41967
 H147 H 0.61035 -0.07731 0.39144
 Zn148 Zn 0.48344 -0.00947 0.51654
 N149 N 0.51817 -0.06651 0.48285
 C150 C 0.44838 0.01125 0.41107
 N151 N 0.44823 0.02974 0.46292
 C152 C 0.42139 0.07376 0.47677
 C153 C 0.39407 0.10154 0.43740
 C154 C 0.42189 0.03775 0.37061
 C155 C 0.43958 -0.01521 0.61933
 C156 C 0.40470 -0.03099 0.65812
 C157 C 0.36278 -0.08707 0.59086
 C158 C 0.39817 -0.06950 0.55293
 N159 N 0.43603 -0.03470 0.56791
 H160 H 0.46850 -0.02463 0.40078
 H161 H 0.42088 0.08704 0.51850
 H162 H 0.37272 0.13622 0.44943
 H163 H 0.42369 0.02226 0.32978
 H164 H 0.46909 0.01331 0.63036
 H165 H 0.40861 -0.01513 0.69882
 H166 H 0.33287 -0.11473 0.57839
 H167 H 0.39544 -0.08354 0.51150
 C168 C 0.57061 -0.14514 0.42703
 C169 C 0.61268 0.08418 0.60785
 C170 C 0.36571 -0.06735 0.64414
 C171 C 0.39403 0.08348 0.38337
 C172 C 0.53172 0.59674 0.02195
 H173 H 0.49624 0.61412 0.01026
 C174 C 0.56579 0.62672 0.05415
 H175 H 0.55611 0.66683 0.06703
 C176 C 0.58849 0.52425 0.01924
 H177 H 0.59742 0.48432 0.00548
 C178 C 0.62397 0.55321 0.05001
 H179 H 0.65967 0.53496 0.06025
 N180 N 0.54357 0.54636 0.00517
 C181 C 0.54043 0.41278 -0.09683
 H182 H 0.50932 0.39015 -0.07991
 C183 C 0.57855 0.38602 -0.12453
 H184 H 0.57670 0.34278 -0.12854
 C185 C 0.58223 0.49630 -0.11008
 H186 H 0.58387 0.53919 -0.10332
 C187 C 0.62142 0.47117 -0.13702
 H188 H 0.65285 0.49511 -0.15157
 Zn189 Zn 0.50070 0.50349 -0.04058
 N190 N 0.54380 0.46679 -0.08881
 C191 C 0.45880 0.54662 -0.13551
 N192 N 0.45511 0.54671 -0.08072
 C193 C 0.42033 0.57742 -0.05535
 C194 C 0.38864 0.61075 -0.08517
 C195 C 0.42796 0.57929 -0.16682
 C196 C 0.49510 0.41773 0.03079
 C197 C 0.47288 0.38014 0.06488
 C198 C 0.39119 0.41664 0.04303
 C199 C 0.41489 0.45273 0.00815
 N200 N 0.46610 0.45305 0.00315
 H201 H 0.48596 0.52139 -0.15522
 H202 H 0.41732 0.57633 -0.01182
 H203 H 0.36202 0.63557 -0.06396
 H204 H 0.43178 0.57814 -0.21028
 H205 H 0.53564 0.41847 0.02612
 H206 H 0.49663 0.35241 0.08656
 H207 H 0.35045 0.41696 0.04690
 H208 H 0.39230 0.48051 -0.01455
 C209 C 0.62055 0.41524 -0.14308
 C210 C 0.61281 0.60509 0.06769
 C211 C 0.42040 0.37972 0.07166
 C212 C 0.39269 0.61250 -0.14171
 N213 N 0.08826 -0.21945 -0.07366
 N214 N 0.11798 -0.24130 -0.11012
 C215 C 0.14849 -0.20291 -0.13061
 C216 C 0.13815 -0.15464 -0.10511
 C217 C 0.09961 -0.16672 -0.06966
 H218 H 0.15406 -0.11535 -0.11284
 H219 H 0.06037 -0.24042 -0.05259
 H220 H 0.11629 -0.28159 -0.12190
 N221 N 0.23617 0.40293 0.38506
 N222 N 0.26324 0.37095 0.35447
 C223 C 0.23213 0.34362 0.32040
 C224 C 0.18282 0.35906 0.32972
 C225 C 0.18689 0.39686 0.37120
 H226 H 0.14881 0.34458 0.30956
 H227 H 0.25177 0.42737 0.41552
 H228 H 0.30247 0.36745 0.35744
 N229 N 0.58301 -0.23908 0.39238
 N230 N 0.61365 -0.26440 0.35938
 C231 C 0.64796 -0.22921 0.34012
 C232 C 0.63867 -0.17904 0.36206
 C233 C 0.59703 -0.18687 0.39514
 H234 H 0.65918 -0.14208 0.35483
 H235 H 0.55263 -0.25771 0.41160
 H236 H 0.61080 -0.30522 0.34991
 N237 N 0.71321 0.40515 -0.15410
 N238 N 0.74472 0.37148 -0.17675
 C239 C 0.71795 0.33224 -0.20224
 C240 C 0.66670 0.34097 -0.19455
 C241 C 0.66550 0.38793 -0.16405
 H242 H 0.63479 0.31734 -0.20937
 H243 H 0.72453 0.43880 -0.13141
 H244 H 0.78406 0.37566 -0.17510
 N245 N -0.10701 0.11407 -0.19816
 N246 N -0.13052 0.14683 -0.23121
 C247 C -0.16461 0.17489 -0.20303
 C248 C -0.16235 0.15943 -0.14922
 C249 C -0.12551 0.12026 -0.14795
 H250 H -0.18495 0.17381 -0.11609
 H251 H -0.07793 0.08896 -0.21018
 H252 H -0.12219 0.15016 -0.27217
 N253 N -0.15031 0.59051 0.28267
 N254 N -0.18566 0.62027 0.26059
 C255 C -0.20482 0.65243 0.29890
 C256 C -0.18079 0.64269 0.34773
 C257 C -0.14581 0.60340 0.33562
 H258 H -0.18614 0.66355 0.38568
 H259 H -0.12985 0.56212 0.26120
 H260 H -0.19615 0.61848 0.21980
 N261 N 0.35447 0.09087 0.29099
 N262 N 0.32933 0.12649 0.26261
 C263 C 0.32313 0.17067 0.29326
 C264 C 0.34527 0.16270 0.34359
 C265 C 0.36512 0.11154 0.34050
 H266 H 0.34756 0.19074 0.37712
 H267 H 0.36322 0.05285 0.27628
 H268 H 0.31607 0.11979 0.22321
 N269 N 0.37214 0.66502 -0.22493
 N270 N 0.33710 0.69831 -0.24180
 C271 C 0.30275 0.70457 -0.20247
 C272 C 0.31690 0.67375 -0.15848
 C273 C 0.36114 0.64914 -0.17437
 H274 H 0.29763 0.66959 -0.12039
 H275 H 0.40358 0.65469 -0.24769
 H276 H 0.33776 0.71673 -0.27949
 N277 N -0.11286 -0.17287 0.22247
 N278 N -0.14630 -0.20686 0.24237
 C279 C -0.19272 -0.18655 0.23602
 C280 C -0.18896 -0.13728 0.21077
 C281 C -0.13730 -0.13014 0.20239
 H282 H -0.21961 -0.11218 0.19749
 H283 H -0.07432 -0.18081 0.22017
 H284 H -0.13740 -0.24416 0.25853
 N285 N -0.08989 0.27882 0.60652
 N286 N -0.12557 0.25000 0.63599
 C287 C -0.15611 0.28541 0.66033
 C288 C -0.14078 0.33709 0.64643
 C289 C -0.09909 0.33162 0.61291
 H290 H -0.15742 0.37402 0.65993
 H291 H -0.06230 0.26071 0.58313
 H292 H -0.12618 0.20830 0.63844
 N293 N 0.31506 -0.05256 0.72742
 N294 N 0.28255 -0.07942 0.75737
 C295 C 0.27426 -0.12830 0.73500
 C296 C 0.30266 -0.13238 0.68827
 C297 C 0.32820 -0.08350 0.68511
 H298 H 0.30561 -0.16640 0.66118
 H299 H 0.32781 -0.01361 0.73617
 H300 H 0.26752 -0.06441 0.79315
 N301 N 0.41273 0.29017 0.11534
 N302 N 0.38318 0.26610 0.15066
 C303 C 0.34808 0.30098 0.16719
 C304 C 0.35518 0.34926 0.14084
 C305 C 0.39657 0.34062 0.10821
 H306 H 0.33354 0.38550 0.14501
 H307 H 0.44307 0.27196 0.09620
 H308 H 0.38776 0.22675 0.16372
 N309 N 0.18410 0.17215 0.08932
 N310 N 0.21944 0.19773 0.11785
 C311 C 0.20054 0.21078 0.16639
 C312 C 0.15083 0.19270 0.16904
 C313 C 0.14190 0.16800 0.11923
 H314 H 0.12556 0.19553 0.20301
 H315 H 0.18982 0.15611 0.05080
 H316 H 0.25594 0.20578 0.10408
 N317 N 0.16744 0.70964 0.59409
 N318 N 0.19224 0.73803 0.63138
 C319 C 0.17000 0.73012 0.67939
 C320 C 0.12930 0.69500 0.67244
 C321 C 0.12906 0.68272 0.61767
 H322 H 0.10428 0.67960 0.70316
 H323 H 0.17790 0.70770 0.55356
 H324 H 0.22383 0.76228 0.62371
 N325 N 0.70027 0.08434 0.64578
 N326 N 0.73188 0.11771 0.67090
 C327 C 0.70935 0.16541 0.67714
 C328 C 0.66099 0.16225 0.65473
 C329 C 0.65681 0.10992 0.63523
 H330 H 0.63284 0.19325 0.65335
 H331 H 0.70886 0.04478 0.63582
 H332 H 0.76783 0.10709 0.68449
 N333 N 0.70097 0.63265 0.09230
 N334 N 0.72446 0.66173 0.12990
 C335 C 0.68970 0.68424 0.16215
 C336 C 0.64177 0.66927 0.14337
 C337 C 0.65076 0.63616 0.09939
 H338 H 0.60557 0.67832 0.16090
 H339 H 0.71932 0.61026 0.06277
 H340 H 0.76371 0.66441 0.13357
   
