data_POSCAR
  _audit_creation_date              2014-09-24
  _audit_creation_method            'ToBaCCo'
  _symmetry_space_group_name_H-M    'P1'
  _symmetry_Int_Tables_number       1
  _symmetry_cell_setting            triclinic
  loop_
  _symmetry_equiv_pos_as_xyz
 x,y,z
_cell_length_a 33.3669
_cell_length_b 32.4618
_cell_length_c 32.3537
_cell_angle_alpha 89.202700
_cell_angle_beta 90.530400
_cell_angle_gamma 89.950900
loop_
  _atom_site_label
  _atom_site_type_symbol
  _atom_site_fract_x
  _atom_site_fract_y
  _atom_site_fract_z
C1 C 0.14448 0.16000 0.20572
 C2 C 0.14385 0.18952 0.17352
 C3 C 0.17006 0.18587 0.14085
 C4 C 0.19747 0.15321 0.14011
 C5 C 0.19725 0.12349 0.17105
 C6 C 0.17058 0.12690 0.20404
 C7 C 0.12270 0.15545 0.24150
 N8 N 0.13495 0.12024 0.26133
 C9 C 0.16394 0.10256 0.23835
 C10 C 0.22642 0.09511 0.16186
 N11 N 0.24516 0.10765 0.12679
 C12 C 0.22731 0.14309 0.11306
 C13 C 0.16121 0.21678 0.11281
 N14 N 0.13044 0.23929 0.12761
 C15 C 0.11967 0.22310 0.16489
 H16 H 0.09921 0.17590 0.25154
 H17 H 0.17935 0.07409 0.24624
 H18 H 0.23432 0.06801 0.18008
 H19 H 0.23489 0.16019 0.08527
 H20 H 0.17526 0.22182 0.08313
 H21 H 0.09483 0.23358 0.18331
 C22 C -0.15042 0.84299 0.18834
 C23 C -0.14196 0.81492 0.15714
 C24 C -0.16690 0.81233 0.12290
 C25 C -0.20040 0.83831 0.11920
 C26 C -0.20891 0.86598 0.15013
 C27 C -0.18330 0.86879 0.18473
 C28 C -0.13079 0.85233 0.22450
 N29 N -0.15044 0.88391 0.24278
 C30 C -0.18244 0.89433 0.21847
 C31 C -0.24333 0.88671 0.13839
 N32 N -0.25544 0.87272 0.10075
 C33 C -0.22907 0.84345 0.08873
 C34 C -0.15152 0.78218 0.09801
 N35 N -0.11773 0.76693 0.11634
 C36 C -0.11141 0.78702 0.15222
 H37 H -0.10313 0.83830 0.23533
 H38 H -0.20343 0.91887 0.22477
 H39 H -0.25749 0.91106 0.15550
 H40 H -0.23078 0.82689 0.05993
 H41 H -0.16370 0.77238 0.06861
 H42 H -0.08666 0.78128 0.17341
 C43 C -0.12235 0.14837 -0.18862
 C44 C -0.11411 0.18033 -0.16090
 C45 C -0.14056 0.18845 -0.12922
 C46 C -0.17521 0.16435 -0.12439
 C47 C -0.18327 0.13303 -0.15177
 C48 C -0.15638 0.12454 -0.18362
 C49 C -0.10241 0.13351 -0.22250
 N50 N -0.12318 0.10071 -0.23754
 C51 C -0.15595 0.09488 -0.21361
 C52 C -0.21917 0.11553 -0.14045
 N53 N -0.23289 0.13503 -0.10633
 C54 C -0.20585 0.16456 -0.09604
 C55 C -0.12527 0.22122 -0.10754
 N56 N -0.09003 0.23274 -0.12492
 C57 C -0.08271 0.20774 -0.15727
 H58 H -0.07423 0.14504 -0.23423
 H59 H -0.17817 0.07099 -0.21799
 H60 H -0.23340 0.08973 -0.15547
 H61 H -0.20859 0.18516 -0.07017
 H62 H -0.13837 0.23516 -0.08062
 H63 H -0.05657 0.20955 -0.17679
 C64 C 0.14441 0.82358 -0.20284
 C65 C 0.13737 0.80260 -0.16563
 C66 C 0.16317 0.80747 -0.13247
 C67 C 0.19574 0.83442 -0.13582
 C68 C 0.20304 0.85515 -0.17274
 C69 C 0.17708 0.84952 -0.20682
 C70 C 0.12336 0.82488 -0.23935
 N71 N 0.14209 0.85096 -0.26588
 C72 C 0.17523 0.86625 -0.24637
 C73 C 0.23615 0.87982 -0.16618
 N74 N 0.24842 0.87484 -0.12605
 C75 C 0.22379 0.84716 -0.10750
 C76 C 0.14975 0.78220 -0.10098
 N77 N 0.11629 0.76261 -0.11450
 C78 C 0.10815 0.77525 -0.15372
 H79 H 0.09572 0.80861 -0.24588
 H80 H 0.19570 0.88881 -0.25910
 H81 H 0.24904 0.90088 -0.18859
 H82 H 0.22583 0.83735 -0.07540
 H83 H 0.16335 0.77811 -0.07068
 H84 H 0.08351 0.76423 -0.17257
 C85 C 0.14902 1.14175 0.79843
 C86 C 0.18423 1.14431 0.82190
 C87 C 0.18780 1.17315 0.85284
 C88 C 0.15537 1.19949 0.86098
 C89 C 0.11999 1.19571 0.83855
 C90 C 0.11685 1.16680 0.80698
 C91 C 0.13815 1.11721 0.76607
 N92 N 0.09990 1.12682 0.75456
 C93 C 0.08640 1.15664 0.77997
 C94 C 0.09315 1.22348 0.85388
 N95 N 0.11129 1.24477 0.88457
 C96 C 0.14944 1.23022 0.88935
 C97 C 0.22417 1.16593 0.87241
 N98 N 0.24186 1.13312 0.85425
 C99 C 0.21771 1.11986 0.82341
 H100 H 0.15682 1.09379 0.75256
 H101 H 0.05695 1.17066 0.77820
 H102 H 0.06263 1.22824 0.84311
 H103 H 0.17113 1.24043 0.91204
 H104 H 0.23535 1.18110 0.89978
 H105 H 0.22306 1.09276 0.80510
 C106 C 0.83673 0.87493 0.82570
 C107 C 0.81085 0.87569 0.85938
 C108 C 0.81429 0.84634 0.89048
 C109 C 0.84321 0.81522 0.88775
 C110 C 0.86785 0.81321 0.85357
 C111 C 0.86466 0.84363 0.82218
 C112 C 0.84159 0.90157 0.79289
 N113 N 0.87140 0.88723 0.76884
 C114 C 0.88559 0.85148 0.78624
 C115 C 0.89249 0.77930 0.85955
 N116 N 0.88348 0.76138 0.89672
 C117 C 0.85353 0.78335 0.91399
 C118 C 0.78485 0.85432 0.91886
 N119 N 0.76316 0.88707 0.90489
 C120 C 0.77910 0.90071 0.86879
 H121 H 0.82488 0.92974 0.78712
 H122 H 0.91046 0.83354 0.77499
 H123 H 0.91584 0.76944 0.83891
 H124 H 0.84012 0.77654 0.94368
 H125 H 0.77857 0.83667 0.94670
 H126 H 0.76799 0.92650 0.85045
 C127 C 0.17751 0.87185 1.18990
 C128 C 0.20740 0.87124 1.15971
 C129 C 0.20870 0.83945 1.13171
 C130 C 0.17955 0.80834 1.13298
 C131 C 0.15040 0.80856 1.16317
 C132 C 0.14966 0.84036 1.19214
 C133 C 0.16849 0.89939 1.22039
 N134 N 0.13641 0.88506 1.24172
 C135 C 0.12460 0.84888 1.22455
 C136 C 0.12507 0.77594 1.15558
 N137 N 0.13801 0.75634 1.12131
 C138 C 0.17126 0.77590 1.10738
 C139 C 0.24114 0.84650 1.10651
 N140 N 0.25947 0.88174 1.11873
 C141 C 0.23875 0.89735 1.15081
 H142 H 0.18437 0.92771 1.22685
 H143 H 0.09906 0.83058 1.23385
 H144 H 0.09808 0.76850 1.17241
 H145 H 0.18743 0.76788 1.07975
 H146 H 0.25051 0.82757 1.08107
 H147 H 0.24639 0.92533 1.16691
 C148 C 0.83378 1.11711 1.17882
 C149 C 0.80732 1.12339 1.14548
 C150 C 0.81278 1.15644 1.11868
 C151 C 0.84419 1.18410 1.12538
 C152 C 0.87011 1.17826 1.15856
 C153 C 0.86464 1.14467 1.18567
 C154 C 0.83632 1.08699 1.20902
 N155 N 0.86735 1.09609 1.23469
 C156 C 0.88489 1.13144 1.22060
 C157 C 0.89800 1.20946 1.15688
 N158 N 0.88905 1.23425 1.12397
 C159 C 0.85624 1.21893 1.10443
 C160 C 0.78309 1.15479 1.08905
 N161 N 0.75928 1.12219 1.09797
 C162 C 0.77382 1.10260 1.13227
 H163 H 0.81673 1.06059 1.21238
 H164 H 0.91111 1.14601 1.23379
 H165 H 0.92295 1.21392 1.17799
 H166 H 0.84266 1.23160 1.07651
 H167 H 0.77859 1.17608 1.06336
 H168 H 0.76107 1.07517 1.14630
 O169 O 0.43902 1.08970 1.05279
 O170 O 0.39606 1.05316 1.01131
 C171 C 0.40346 1.08032 1.03933
 O172 O 0.56068 1.08743 0.91307
 O173 O 0.60061 1.04826 0.95632
 C174 C 0.59545 1.07503 0.92662
 O175 O 0.44830 1.09988 0.91288
 O176 O 0.40072 1.05862 0.94309
 C177 C 0.41136 1.08968 0.92012
 O178 O 0.55051 1.07896 1.06741
 O179 O 0.59538 1.04361 1.02804
 C180 C 0.58661 1.06779 1.05809
 Zr181 Zr 0.49554 1.06426 1.03763
 O182 O 0.50330 1.12879 1.04190
 O183 O 0.48574 1.05993 1.10212
 Zr184 Zr 0.50249 1.07177 0.93392
 O185 O 0.51124 1.13602 0.94007
 O186 O 0.50091 1.07921 0.86887
 O187 O 0.46367 1.07755 0.98346
 O188 O 0.53427 1.07386 0.98891
 O189 O 0.54465 0.93955 1.06116
 O190 O 0.59283 0.97463 1.02483
 C191 C 0.58171 0.94855 1.05316
 O192 O 0.44389 0.94964 0.90016
 O193 O 0.39868 0.98675 0.93763
 C194 C 0.40768 0.96064 0.90913
 O195 O 0.55623 0.94834 0.90710
 O196 O 0.59834 0.97998 0.95325
 C197 C 0.59160 0.95633 0.92207
 O198 O 0.43261 0.93890 1.04518
 O199 O 0.39313 0.98332 1.00692
 C200 C 0.39793 0.95264 1.03243
 Zr201 Zr 0.49133 0.96017 1.03110
 O202 O 0.49462 0.89549 1.02395
 O203 O 0.48172 0.95132 1.09510
 Zr204 Zr 0.49889 0.96789 0.92734
 O205 O 0.50063 0.90274 0.92539
 O206 O 0.49922 0.97174 0.86196
 Zr207 Zr 0.43765 1.01863 0.97780
 Zr208 Zr 0.55664 1.01325 0.98737
 O209 O 0.52979 0.95492 0.98174
 O210 O 0.45903 0.95759 0.97578
 O211 O 0.52827 1.01002 1.04535
 O212 O 0.46649 1.02202 0.92030
 O213 O 0.45839 1.01333 1.03929
 O214 O 0.53669 1.01875 0.92544
 H215 H 0.55358 1.09687 0.99149
 H216 H 0.45007 1.02502 0.89476
 H217 H 0.54740 0.93031 0.98207
 H218 H 0.43876 1.01258 1.06207
 H219 H 0.51838 1.05769 0.85739
 H220 H 0.52259 0.98861 0.85382
 H221 H 0.47550 0.89231 0.93768
 H222 H 0.46994 0.88667 1.00938
 H223 H 0.49570 0.97400 1.10928
 H224 H 0.50711 1.04226 1.11421
 H225 H 0.48311 1.14204 1.02350
 H226 H 0.48717 1.14742 0.95338
 O227 O -0.08599 0.44333 0.05632
 O228 O -0.03804 0.39794 0.03446
 C229 C -0.07233 0.40635 0.05084
 O230 O -0.04009 0.55947 -0.08406
 O231 O -0.01657 0.60409 -0.03518
 C232 C -0.03348 0.59631 -0.07042
 O233 O -0.04996 0.44422 -0.07729
 O234 O -0.02088 0.39813 -0.03172
 C235 C -0.04291 0.40700 -0.06390
 O236 O -0.08400 0.55924 0.05824
 O237 O -0.03679 0.60420 0.03299
 C238 C -0.07041 0.59611 0.05120
 Zr239 Zr -0.05851 0.50125 0.04433
 O240 O -0.11930 0.50558 0.02539
 O241 O -0.07581 0.49705 0.10706
 Zr242 Zr -0.02816 0.50130 -0.05542
 O243 O -0.08646 0.50647 -0.08100
 O244 O -0.00527 0.49510 -0.11588
 O245 O -0.05111 0.46490 -0.00746
 O246 O -0.05029 0.53691 -0.00833
 O247 O 0.05016 0.55832 0.10367
 O248 O 0.02819 0.60366 0.05332
 C249 C 0.04487 0.59530 0.08882
 O250 O 0.09580 0.44255 -0.03355
 O251 O 0.04725 0.39775 -0.01103
 C252 C 0.08180 0.40571 -0.02729
 O253 O 0.09368 0.55843 -0.03936
 O254 O 0.04713 0.60373 -0.01444
 C255 C 0.08029 0.59541 -0.03314
 O256 O 0.05386 0.44303 0.10316
 O257 O 0.02907 0.39795 0.05531
 C258 C 0.04787 0.40617 0.08948
 Zr259 Zr 0.03808 0.50063 0.07611
 O260 O 0.09862 0.50472 0.09581
 O261 O 0.01881 0.49624 0.13818
 Zr262 Zr 0.06814 0.50041 -0.02363
 O263 O 0.12913 0.50438 -0.00566
 O264 O 0.08466 0.49582 -0.08643
 Zr265 Zr 0.00453 0.43939 0.01115
 Zr266 Zr 0.00511 0.56215 0.00978
 O267 O 0.06037 0.53606 0.02812
 O268 O 0.06045 0.46379 0.02921
 O269 O -0.01239 0.53784 0.06757
 O270 O 0.02174 0.46458 -0.04628
 O271 O -0.01249 0.46502 0.06779
 O272 O 0.02247 0.53784 -0.04751
 H273 H -0.07280 0.55543 -0.01615
 H274 H 0.02791 0.44529 -0.06882
 H275 H 0.08312 0.55428 0.03530
 H276 H -0.01934 0.44640 0.09119
 H277 H 0.00809 0.52131 -0.12345
 H278 H 0.07493 0.52092 -0.10103
 H279 H 0.13358 0.48392 0.01684
 H280 H 0.11329 0.48145 0.08356
 H281 H 0.00008 0.51931 0.14282
 H282 H -0.06581 0.52196 0.12108
 H283 H -0.12465 0.48272 0.00621
 H284 H -0.10520 0.49905 -0.05867
 O285 O 1.06221 -0.09497 0.44176
 O286 O 1.02605 -0.05470 0.39600
 C287 C 1.05103 -0.08427 0.40462
 O288 O 0.92795 -0.08928 0.56133
 O289 O 0.96596 -0.04901 0.60435
 C290 C 0.93967 -0.07767 0.59771
 O291 O 0.92720 -0.09450 0.44568
 O292 O 0.95865 -0.05330 0.39774
 C293 C 0.93476 -0.08313 0.40791
 O294 O 1.07322 -0.08531 0.55746
 O295 O 1.03497 -0.04828 0.60241
 C296 C 1.06347 -0.07386 0.59442
 Zr297 Zr 1.04697 -0.06880 0.49922
 O298 O 1.04676 -0.13368 0.50700
 O299 O 1.10989 -0.06976 0.49142
 Zr300 Zr 0.94540 -0.06744 0.50212
 O301 O 0.93781 -0.13199 0.50587
 O302 O 0.88226 -0.06084 0.49991
 O303 O 0.99473 -0.07700 0.46440
 O304 O 0.99769 -0.07507 0.53666
 O305 O 1.07400 0.05439 0.55170
 O306 O 1.03546 0.02020 0.59953
 C307 C 1.06404 0.04525 0.58939
 O308 O 0.93015 0.06296 0.44125
 O309 O 0.96010 0.01912 0.39586
 C310 C 0.93784 0.05063 0.40421
 O311 O 0.92966 0.06056 0.55686
 O312 O 0.96683 0.02103 0.60239
 C313 C 0.94116 0.05004 0.59399
 O314 O 1.06373 0.05756 0.43544
 O315 O 1.02684 0.01579 0.39290
 C316 C 1.05223 0.04519 0.39914
 Zr317 Zr 1.04796 0.03506 0.49518
 O318 O 1.04890 0.10019 0.49770
 O319 O 1.11091 0.03417 0.48757
 Zr320 Zr 0.94645 0.03614 0.49892
 O321 O 0.93951 0.10081 0.49956
 O322 O 0.88323 0.03060 0.49667
 Zr323 Zr 0.99427 -0.01748 0.43730
 Zr324 Zr 0.99900 -0.01502 0.56035
 O325 O 0.99890 0.04397 0.53244
 O326 O 0.99587 0.04299 0.46031
 O327 O 1.05657 -0.01612 0.53378
 O328 O 0.93715 -0.01615 0.46427
 O329 O 1.05329 -0.01779 0.46097
 O330 O 0.93942 -0.01486 0.53808
 H331 H 0.99916 -0.09895 0.55602
 H332 H 0.91353 -0.01598 0.44546
 H333 H 1.00057 0.06875 0.54989
 H334 H 1.07599 -0.01856 0.44147
 H335 H 0.87351 -0.05159 0.52742
 H336 H 0.87413 0.02387 0.52500
 H337 H 0.96682 0.11255 0.49924
 H338 H 1.03113 0.11075 0.47529
 H339 H 1.12252 0.01770 0.51068
 H340 H 1.12185 -0.05205 0.51287
 H341 H 1.02846 -0.14496 0.48574
 H342 H 0.96472 -0.14400 0.51048
 C343 C 1.12109 0.10349 0.29728
 C344 C 1.09690 0.12360 0.32310
 C345 C 1.08181 0.10398 0.36134
 C346 C 1.06921 0.06486 0.36212
 H347 H 1.08962 0.15571 0.31783
 H348 H 1.07828 0.12298 0.38832
 H349 H 1.13116 0.07278 0.30607
 H350 H 1.06896 0.04729 0.33387
 C351 C 0.86069 -0.09601 0.27778
 C352 C 0.88756 -0.11159 0.30483
 C353 C 0.90219 -0.08754 0.34004
 C354 C 0.91578 -0.10631 0.37441
 H355 H 0.89895 -0.14258 0.30154
 H356 H 0.90246 -0.05419 0.33756
 H357 H 0.84669 -0.06669 0.28446
 H358 H 0.91267 -0.13938 0.37819
 C359 C 0.88651 0.07628 0.73007
 C360 C 0.91257 0.08779 0.70088
 C361 C 0.92270 0.06020 0.66676
 C362 C 0.92630 0.07501 0.62824
 H363 H 0.92521 0.11849 0.70061
 H364 H 0.92717 0.02766 0.67328
 H365 H 0.87089 0.04721 0.72650
 H366 H 0.91867 0.10691 0.62162
 C367 C 1.12667 -0.13916 0.69616
 C368 C 1.14490 -0.11453 0.66853
 C369 C 1.12403 -0.10100 0.63013
 C370 C 1.08514 -0.09079 0.63044
 H371 H 1.17538 -0.10429 0.67344
 H372 H 1.14149 -0.09600 0.60245
 H373 H 1.09758 -0.15174 0.68797
 H374 H 1.06905 -0.09152 0.65939
 C375 C 0.27659 1.08751 1.10969
 C376 C 0.30087 1.10544 1.08207
 C377 C 0.33493 1.08291 1.06499
 C378 C 0.36935 1.10220 1.05696
 H379 H 0.29746 1.13765 1.07369
 H380 H 0.33228 1.04999 1.06029
 H381 H 0.28377 1.05662 1.12072
 H382 H 0.37315 1.13423 1.06520
 C383 C 0.27859 0.89446 0.89436
 C384 C 0.30670 0.91698 0.87538
 C385 C 0.33843 0.93690 0.89990
 C386 C 0.37502 0.94261 0.88452
 H387 H 0.30783 0.91914 0.84201
 H388 H 0.33238 0.94491 0.93168
 H389 H 0.28087 0.89036 0.92767
 H390 H 0.38182 0.93157 0.85390
 C391 C 0.71284 0.88588 1.07724
 C392 C 0.68252 0.90791 1.09245
 C393 C 0.65026 0.92340 1.06507
 C394 C 0.61310 0.92904 1.07900
 H395 H 0.68070 0.91395 1.12519
 H396 H 0.65715 0.93034 1.03304
 H397 H 0.71128 0.87685 1.04508
 H398 H 0.60558 0.91934 1.11017
 C399 C 0.73302 1.12665 0.91519
 C400 C 0.70265 1.10475 0.89929
 C401 C 0.66685 1.09444 0.92366
 C402 C 0.63108 1.09078 0.90510
 H403 H 0.70319 1.09518 0.86739
 H404 H 0.66993 1.08922 0.95670
 H405 H 0.72953 1.13971 0.94564
 H406 H 0.62785 1.09904 0.87266
 C407 C 0.11079 0.27171 0.10465
 C408 C 0.09115 0.30215 0.12306
 C409 C 0.07243 0.33533 0.09814
 C410 C 0.06382 0.37172 0.11466
 H411 H 0.09037 0.30353 0.15648
 H412 H 0.06748 0.33059 0.06536
 H413 H 0.11367 0.27233 0.07127
 H414 H 0.07115 0.37722 0.14683
 C415 C -0.06385 0.26466 -0.11048
 C416 C -0.07835 0.30130 -0.09963
 C417 C -0.05248 0.33389 -0.08261
 C418 C -0.06386 0.37337 -0.08530
 H419 H -0.11011 0.30746 -0.10361
 H420 H -0.02468 0.32548 -0.06706
 H421 H -0.03178 0.25927 -0.10988
 H422 H -0.09053 0.38140 -0.10306
 C423 C 0.09376 0.73211 -0.09255
 C424 C 0.11206 0.70132 -0.07222
 C425 C 0.08853 0.66751 -0.05425
 C426 C 0.10449 0.63011 -0.04836
 H427 H 0.14451 0.69967 -0.07151
 H428 H 0.05704 0.67272 -0.04811
 H429 H 0.06145 0.73166 -0.09647
 H430 H 0.13531 0.62438 -0.05694
 C431 C -0.09223 0.73518 0.10104
 C432 C -0.10732 0.70233 0.08207
 C433 C -0.08109 0.66863 0.06897
 C434 C -0.09567 0.63070 0.06397
 H435 H -0.13947 0.69936 0.07814
 H436 H -0.04940 0.67459 0.06481
 H437 H -0.06042 0.73643 0.10808
 H438 H -0.12691 0.62454 0.07059
 C439 C 1.07812 0.11043 0.72308
 C440 C 1.09501 0.08854 0.69310
 C441 C 1.07079 0.07132 0.65955
 C442 C 1.08704 0.06434 0.62277
 H443 H 1.12718 0.08462 0.69185
 H444 H 1.03934 0.06485 0.66482
 H445 H 1.04629 0.11715 0.72097
 H446 H 1.11766 0.07363 0.61673
 C447 C 0.88494 -0.09209 0.73486
 C448 C 0.90828 -0.10929 0.70653
 C449 C 0.92237 -0.08463 0.67110
 C450 C 0.92370 -0.10062 0.63339
 H451 H 0.91547 -0.14180 0.70804
 H452 H 0.93053 -0.05270 0.67579
 H453 H 0.87492 -0.06060 0.72952
 H454 H 0.91248 -0.13151 0.62843
 C455 C 1.11955 -0.09480 0.27389
 C456 C 1.09364 -0.11266 0.29995
 C457 C 1.07643 -0.08918 0.33409
 C458 C 1.06786 -0.10746 0.37016
 H459 H 1.08647 -0.14507 0.29772
 H460 H 1.07226 -0.05620 0.33020
 H461 H 1.12895 -0.06342 0.27989
 H462 H 1.07527 -0.13967 0.37523
 C463 C 0.87844 0.07246 0.26793
 C464 C 0.90278 0.08627 0.29771
 C465 C 0.91480 0.05954 0.33257
 C466 C 0.92194 0.07550 0.36966
 H467 H 0.91280 0.11797 0.29767
 H468 H 0.91771 0.02667 0.32787
 H469 H 0.86561 0.04190 0.27142
 H470 H 0.91612 0.10789 0.37483
 C471 C 0.09263 0.27513 -0.09432
 C472 C 0.11188 0.30142 -0.06956
 C473 C 0.08916 0.33476 -0.05025
 C474 C 0.10618 0.37079 -0.04108
 H475 H 0.14412 0.30042 -0.06576
 H476 H 0.05708 0.33087 -0.04672
 H477 H 0.06074 0.27972 -0.09966
 H478 H 0.13768 0.37577 -0.04731
 C479 C -0.08796 0.26934 0.11121
 C480 C -0.10472 0.30092 0.09054
 C481 C -0.08030 0.33579 0.07634
 C482 C -0.09703 0.37165 0.06501
 H483 H -0.13671 0.30131 0.08449
 H484 H -0.04796 0.33225 0.07588
 H485 H -0.05645 0.27054 0.11964
 H486 H -0.12908 0.37613 0.06793
 C487 C -0.09905 0.72824 -0.08412
 C488 C -0.07423 0.70206 -0.10281
 C489 C -0.05705 0.66733 -0.07875
 C490 C -0.04728 0.63155 -0.09605
 H491 H -0.06798 0.70489 -0.13549
 H492 H -0.05478 0.67034 -0.04544
 H493 H -0.10690 0.72175 -0.05218
 H494 H -0.05231 0.62722 -0.12885
 C495 C 0.11822 0.72364 0.09976
 C496 C 0.09371 0.69692 0.11862
 C497 C 0.07431 0.66394 0.09488
 C498 C 0.06042 0.62977 0.11329
 H499 H 0.08904 0.69847 0.15164
 H500 H 0.07344 0.66668 0.06141
 H501 H 0.12456 0.71986 0.06720
 H502 H 0.06391 0.62558 0.14642
 C503 C 0.27541 1.11003 0.86972
 C504 C 0.30881 1.12801 0.88334
 C505 C 0.34163 1.10221 0.89979
 C506 C 0.37945 1.11554 0.90170
 H507 H 0.31195 1.16122 0.88184
 H508 H 0.33455 1.07111 0.91003
 H509 H 0.27398 1.07667 0.86852
 H510 H 0.38706 1.14578 0.88952
 C511 C 0.29445 0.90049 1.10112
 C512 C 0.32351 0.87810 1.08391
 C513 C 0.36067 0.89668 1.06757
 C514 C 0.36112 0.93354 1.04852
 H515 H 0.32149 0.84482 1.08448
 H516 H 0.38786 0.87849 1.06958
 H517 H 0.29842 0.93340 1.10453
 H518 H 0.33327 0.95015 1.04353
 C519 C 0.72500 1.11041 1.07425
 C520 C 0.69135 1.09820 1.09259
 C521 C 0.65700 1.08500 1.06768
 C522 C 0.62001 1.08356 1.08304
 H523 H 0.68920 1.09827 1.12600
 H524 H 0.66220 1.07639 1.03590
 H525 H 0.72604 1.11345 1.04085
 H526 H 0.61423 1.09445 1.11394
 C527 C 0.72838 0.90326 0.92452
 C528 C 0.69686 0.91645 0.90227
 C529 C 0.66150 0.93359 0.92245
 C530 C 0.62642 0.93734 0.90240
 H531 H 0.69698 0.91403 0.86889
 H532 H 0.66426 0.94314 0.95433
 H533 H 0.72704 0.90271 0.95800
 H534 H 0.62310 0.92579 0.87129
   
