data_POSCAR
  _audit_creation_date              2014-09-24
  _audit_creation_method            'ToBaCCo'
  _symmetry_space_group_name_H-M    'P1'
  _symmetry_Int_Tables_number       1
  _symmetry_cell_setting            triclinic
  loop_
  _symmetry_equiv_pos_as_xyz
 x,y,z
_cell_length_a 35.9017
_cell_length_b 35.9299
_cell_length_c 35.8827
_cell_angle_alpha 90.005000
_cell_angle_beta 90.085400
_cell_angle_gamma 89.934800
loop_
  _atom_site_label
  _atom_site_type_symbol
  _atom_site_fract_x
  _atom_site_fract_y
  _atom_site_fract_z
O1 O 0.21127 1.03204 0.03471
 O2 O 0.21817 0.95825 -0.03648
 O3 O 0.21107 0.96003 0.03518
 O4 O 0.21299 1.03101 -0.03807
 O5 O 0.27390 1.03653 -0.03136
 O6 O 0.27262 0.95855 0.03560
 O7 O 0.27937 0.96413 -0.03623
 O8 O 0.27247 1.03047 0.04107
 Cu9 Cu 0.20719 0.99528 -0.00176
 Cu10 Cu 0.28078 0.99772 0.00251
 C11 C 0.24086 1.04285 0.05086
 C12 C 0.25012 0.94870 -0.04857
 C13 C 0.24139 0.94658 0.04727
 C14 C 0.24345 1.04662 -0.04649
 O15 O 0.71679 0.53379 0.53822
 O16 O 0.72492 0.45896 0.46857
 O17 O 0.72283 0.46216 0.54080
 O18 O 0.71780 0.53161 0.46550
 O19 O 0.77855 0.54023 0.46981
 O20 O 0.78431 0.46422 0.53879
 O21 O 0.78578 0.46755 0.46643
 O22 O 0.77816 0.53578 0.54246
 Cu23 Cu 0.71440 0.49615 0.50289
 Cu24 Cu 0.78789 0.50260 0.50424
 C25 C 0.74620 0.54650 0.55317
 C26 C 0.75675 0.45062 0.45556
 C27 C 0.75443 0.45107 0.55233
 C28 C 0.74716 0.54856 0.45561
 O29 O 0.72709 0.96454 1.04340
 O30 O 0.72515 1.02946 0.96360
 O31 O 0.73010 0.95700 0.97116
 O32 O 0.72039 1.03590 1.03603
 O33 O 0.78147 1.03712 1.04290
 O34 O 0.79104 0.96522 0.97015
 O35 O 0.78574 1.03787 0.96996
 O36 O 0.78857 0.96551 1.04242
 Cu37 Cu 0.71951 0.99624 1.00304
 Cu38 Cu 0.79286 1.00211 1.00645
 C39 C 0.75832 0.95354 1.05615
 C40 C 0.75519 1.04538 0.95381
 C41 C 0.76217 0.94798 0.95924
 C42 C 0.74924 1.04890 1.05179
 O43 O 0.21502 0.46216 0.53536
 O44 O 0.22119 0.53146 0.46011
 O45 O 0.22223 0.45882 0.46348
 O46 O 0.21529 0.53444 0.53280
 O47 O 0.27619 0.53186 0.54121
 O48 O 0.28360 0.46260 0.46579
 O49 O 0.28202 0.53512 0.46856
 O50 O 0.27647 0.45959 0.53769
 Cu51 Cu 0.21226 0.49682 0.49728
 Cu52 Cu 0.28574 0.49749 0.50384
 C53 C 0.24475 0.44840 0.54866
 C54 C 0.25258 0.54547 0.45187
 C55 C 0.25419 0.44810 0.45260
 C56 C 0.24450 0.54518 0.54963
 O57 O 1.03470 0.28452 0.02914
 O58 O 0.95665 0.27755 -0.03685
 O59 O 0.96266 0.28424 0.03388
 O60 O 1.02998 0.27595 -0.04329
 O61 O 1.03243 0.21516 -0.03461
 O62 O 0.96170 0.22293 0.03899
 O63 O 0.95903 0.21627 -0.03323
 O64 O 1.03290 0.22364 0.03765
 Cu65 Cu 0.99628 0.28672 -0.00532
 Cu66 Cu 0.99664 0.21329 0.00242
 C67 C 1.04603 0.25545 0.04575
 C68 C 0.94406 0.24576 -0.04584
 C69 C 0.95065 0.25487 0.04943
 C70 C 1.04326 0.24417 -0.05155
 O71 O 0.54350 0.77482 0.53313
 O72 O 0.46850 0.77461 0.46273
 O73 O 0.47105 0.77931 0.53435
 O74 O 0.54239 0.77111 0.46105
 O75 O 0.53898 0.70983 0.46422
 O76 O 0.46811 0.71800 0.53813
 O77 O 0.46619 0.71324 0.46566
 O78 O 0.53994 0.71354 0.53694
 Cu79 Cu 0.50675 0.78112 0.49717
 Cu80 Cu 0.50301 0.70751 0.50139
 C81 C 0.55426 0.74415 0.54719
 C82 C 0.45410 0.74385 0.45282
 C83 C 0.45757 0.75006 0.54881
 C84 C 0.55331 0.73911 0.45063
 O85 O 0.03995 0.71476 -0.03823
 O86 O -0.02843 0.71829 0.03832
 O87 O -0.03290 0.71467 -0.03467
 O88 O 0.04294 0.71688 0.03443
 O89 O 0.04463 0.77819 0.03041
 O90 O -0.03488 0.77606 -0.03504
 O91 O -0.02749 0.77976 0.03623
 O92 O 0.03741 0.77594 -0.04288
 Cu93 Cu 0.00536 0.70998 -0.00004
 Cu94 Cu 0.00526 0.78366 -0.00324
 C95 C 0.04987 0.74475 -0.05406
 C96 C -0.03907 0.74971 0.05066
 C97 C -0.04743 0.74485 -0.04606
 C98 C 0.05645 0.74788 0.04448
 O99 O 0.53042 0.27896 0.45837
 O100 O 0.46221 0.28431 0.53453
 O101 O 0.53424 0.28524 0.53137
 O102 O 0.45788 0.27858 0.46315
 O103 O 0.46082 0.21723 0.46616
 O104 O 0.53333 0.22414 0.53839
 O105 O 0.46249 0.22290 0.53871
 O106 O 0.53382 0.21801 0.46556
 Cu107 Cu 0.49637 0.28796 0.49612
 Cu108 Cu 0.49784 0.21432 0.50232
 C109 C 0.54382 0.24757 0.44907
 C110 C 0.45093 0.25447 0.54968
 C111 C 0.54552 0.25597 0.54771
 C112 C 0.44629 0.24674 0.45314
 O113 O 1.03315 0.04238 0.22294
 O114 O 0.96593 -0.03525 0.21768
 O115 O 0.96172 0.03737 0.21456
 O116 O 1.03867 -0.02972 0.22515
 O117 O 1.02871 -0.03165 0.28583
 O118 O 0.95863 0.04263 0.27582
 O119 O 0.95569 -0.02995 0.27805
 O120 O 1.03006 0.04066 0.28440
 Cu121 Cu 1.00048 0.00322 0.21393
 Cu122 Cu 0.99249 0.00528 0.28718
 C123 C 1.04341 0.05437 0.25467
 C124 C 0.94834 -0.04498 0.24680
 C125 C 0.94815 0.05253 0.24345
 C126 C 1.04672 -0.04219 0.25729
 O127 O 0.53674 0.54181 0.72651
 O128 O 0.46931 0.46448 0.71852
 O129 O 0.46560 0.53685 0.71622
 O130 O 0.54217 0.46930 0.72442
 O131 O 0.53360 0.46645 0.78527
 O132 O 0.45918 0.53728 0.77745
 O133 O 0.46110 0.46584 0.77950
 O134 O 0.53170 0.53931 0.78779
 Cu135 Cu 0.50427 0.50297 0.71531
 Cu136 Cu 0.49597 0.50223 0.78865
 C137 C 0.54572 0.55359 0.75871
 C138 C 0.45290 0.45284 0.74767
 C139 C 0.44934 0.54857 0.74528
 C140 C 0.55084 0.45617 0.75610
 O141 O 0.96250 1.04110 0.71254
 O142 O 1.03619 0.97028 0.71003
 O143 O 0.96334 0.96922 0.70965
 O144 O 1.03421 1.04313 0.71744
 O145 O 1.03587 1.03477 0.77842
 O146 O 0.95860 0.96870 0.77103
 O147 O 1.03106 0.96241 0.77084
 O148 O 0.96420 1.04056 0.77408
 Cu149 Cu 0.99955 1.00617 0.70621
 Cu150 Cu 0.99739 1.00099 0.77978
 C151 C 0.95149 1.05370 0.74364
 C152 C 1.04540 0.95345 0.73970
 C153 C 0.94797 0.95744 0.73925
 C154 C 1.04698 1.05151 0.74944
 O155 O 0.46259 0.54289 0.26937
 O156 O 0.52835 0.46416 0.26880
 O157 O 0.53424 0.53616 0.27419
 O158 O 0.45598 0.47079 0.26746
 O159 O 0.46139 0.47014 0.20614
 O160 O 0.53399 0.54240 0.21293
 O161 O 0.53403 0.46997 0.20778
 O162 O 0.46197 0.54247 0.20778
 Cu163 Cu 0.49500 0.50309 0.27616
 Cu164 Cu 0.49818 0.50643 0.20244
 C165 C 0.45078 0.55574 0.23852
 C166 C 0.54292 0.45418 0.23810
 C167 C 0.54666 0.55130 0.24483
 C168 C 0.44569 0.45889 0.23577
 O169 O 0.25254 0.15429 0.19413
 O170 O 0.29294 0.14402 0.24660
 O171 O 0.15474 0.19910 0.24506
 O172 O 0.14117 0.24733 0.28283
 O173 O 0.20085 0.25241 0.14778
 O174 O 0.25316 0.29125 0.13717
 O175 O 0.24967 0.30346 0.34110
 O176 O 0.20881 0.25384 0.35169
 O177 O 0.34724 0.25191 0.29691
 O178 O 0.35938 0.21037 0.24445
 O179 O 0.30263 0.34709 0.24666
 O180 O 0.24929 0.35787 0.20276
 O181 O 0.25250 0.34763 0.29581
 O182 O 0.21027 0.35892 0.24293
 O183 O 0.34747 0.30237 0.24547
 O184 O 0.35873 0.24839 0.20418
 O185 O 0.30241 0.25574 0.34148
 O186 O 0.25162 0.21071 0.35308
 O187 O 0.25136 0.19871 0.14885
 O188 O 0.29421 0.24966 0.13874
 O189 O 0.15546 0.24991 0.19192
 O190 O 0.14590 0.29420 0.24301
 O191 O 0.19987 0.15458 0.24750
 O192 O 0.25191 0.14431 0.28750
 Zr193 Zr 0.25017 0.18446 0.24448
 O194 O 0.28467 0.21676 0.27912
 Zr195 Zr 0.18451 0.24958 0.24299
 O196 O 0.21608 0.28464 0.27805
 Zr197 Zr 0.25065 0.24926 0.17834
 O198 O 0.28501 0.28444 0.21017
 Zr199 Zr 0.25194 0.25285 0.31163
 O200 O 0.21691 0.21733 0.27998
 Zr201 Zr 0.31770 0.25205 0.24634
 O202 O 0.28639 0.21647 0.21138
 Zr203 Zr 0.25211 0.31742 0.24559
 O204 O 0.21732 0.28541 0.21018
 O205 O 0.21584 0.21484 0.20913
 O206 O 0.28703 0.28735 0.28091
 C207 C 0.25268 0.16472 0.15981
 C208 C 0.16564 0.16502 0.24703
 C209 C 0.16661 0.25162 0.15791
 C210 C 0.25070 0.33748 0.33004
 C211 C 0.33659 0.25420 0.33093
 C212 C 0.33681 0.33645 0.24615
 H213 H 0.30013 0.20007 0.29462
 H214 H 0.30038 0.29970 0.19323
 H215 H 0.20001 0.19871 0.19335
 H216 H 0.19911 0.29995 0.29340
 H217 H 0.18964 0.23594 0.34316
 H218 H 0.14868 0.26308 0.30415
 H219 H 0.35343 0.26798 0.18554
 H220 H 0.31280 0.23112 0.14721
 H221 H 0.27303 0.19394 0.34877
 H222 H 0.23617 0.15410 0.30790
 H223 H 0.27076 0.35394 0.18597
 H224 H 0.23725 0.31190 0.14612
 H225 H 0.31253 0.15236 0.22910
 H226 H 0.35313 0.19133 0.26333
 H227 H 0.15406 0.31188 0.22351
 H228 H 0.19139 0.35305 0.26209
 O229 O 0.75380 0.84165 0.19605
 O230 O 0.71514 0.85313 0.24804
 O231 O 0.85259 0.79637 0.24855
 O232 O 0.86530 0.74928 0.28731
 O233 O 0.80764 0.74492 0.15129
 O234 O 0.75669 0.70430 0.14006
 O235 O 0.75390 0.69390 0.34434
 O236 O 0.79540 0.74295 0.35551
 O237 O 0.65836 0.74167 0.29701
 O238 O 0.64659 0.78473 0.24582
 O239 O 0.70468 0.64876 0.24804
 O240 O 0.75844 0.63719 0.20725
 O241 O 0.75293 0.64926 0.29942
 O242 O 0.79754 0.63815 0.24739
 O243 O 0.65978 0.69327 0.24440
 O244 O 0.64974 0.74869 0.20361
 O245 O 0.70198 0.74435 0.34298
 O246 O 0.75347 0.78678 0.35526
 O247 O 0.75665 0.79694 0.15116
 O248 O 0.71459 0.74538 0.14052
 O249 O 0.85223 0.74286 0.19637
 O250 O 0.86053 0.70130 0.24969
 O251 O 0.80788 0.84138 0.24974
 O252 O 0.75503 0.85179 0.28980
 Zr253 Zr 0.75707 0.81183 0.24659
 O254 O 0.72143 0.77981 0.28038
 Zr255 Zr 0.82238 0.74624 0.24696
 O256 O 0.78995 0.71197 0.28195
 Zr257 Zr 0.75747 0.74663 0.18098
 O258 O 0.72272 0.71143 0.21221
 Zr259 Zr 0.75328 0.74421 0.31425
 O260 O 0.78939 0.77901 0.28304
 Zr261 Zr 0.68913 0.74388 0.24731
 O262 O 0.72121 0.77954 0.21313
 Zr263 Zr 0.75483 0.67882 0.24884
 O264 O 0.79007 0.71045 0.21369
 O265 O 0.79195 0.78109 0.21216
 O266 O 0.71903 0.70910 0.28308
 C267 C 0.75413 0.83093 0.16183
 C268 C 0.84210 0.83053 0.25027
 C269 C 0.84161 0.74273 0.16210
 C270 C 0.75345 0.65975 0.33360
 C271 C 0.66805 0.74299 0.33141
 C272 C 0.67061 0.65919 0.24536
 H273 H 0.70556 0.79662 0.29528
 H274 H 0.70787 0.69609 0.19483
 H275 H 0.80799 0.79702 0.19642
 H276 H 0.80649 0.69688 0.29800
 H277 H 0.81502 0.76052 0.34739
 H278 H 0.85699 0.73490 0.30927
 H279 H 0.65455 0.72835 0.18567
 H280 H 0.69602 0.76434 0.14801
 H281 H 0.73420 0.80531 0.34863
 H282 H 0.77242 0.84312 0.30941
 H283 H 0.73941 0.64277 0.18808
 H284 H 0.77317 0.68421 0.14932
 H285 H 0.69410 0.84335 0.23312
 H286 H 0.65223 0.80354 0.26513
 H287 H 0.85289 0.68311 0.23044
 H288 H 0.81429 0.64257 0.26885
 O289 O 0.74164 0.15245 0.80715
 O290 O 0.70076 0.14115 0.75488
 O291 O 0.84048 0.19242 0.75358
 O292 O 0.85413 0.23812 0.71210
 O293 O 0.79778 0.25127 0.84781
 O294 O 0.74546 0.29246 0.85691
 O295 O 0.74781 0.29434 0.65315
 O296 O 0.78911 0.24335 0.64591
 O297 O 0.65005 0.24809 0.69848
 O298 O 0.63865 0.20635 0.75509
 O299 O 0.69540 0.34360 0.74650
 O300 O 0.74960 0.35506 0.78904
 O301 O 0.74477 0.34061 0.69630
 O302 O 0.78787 0.35400 0.74813
 O303 O 0.64993 0.29971 0.74928
 O304 O 0.63570 0.24995 0.78975
 O305 O 0.69549 0.24806 0.65437
 O306 O 0.74413 0.20184 0.64488
 O307 O 0.74488 0.19889 0.85023
 O308 O 0.70440 0.25130 0.85902
 O309 O 0.84215 0.24514 0.80297
 O310 O 0.85200 0.28692 0.75131
 O311 O 0.79436 0.14891 0.75360
 O312 O 0.74221 0.13756 0.71481
 Zr313 Zr 0.74483 0.18014 0.75536
 O314 O 0.71132 0.21151 0.71884
 Zr315 Zr 0.81203 0.24363 0.75300
 O316 O 0.78115 0.27816 0.71689
 Zr317 Zr 0.74680 0.24801 0.81833
 O318 O 0.71247 0.28198 0.78486
 Zr319 Zr 0.74504 0.24530 0.68494
 O320 O 0.77883 0.21018 0.71810
 Zr321 Zr 0.67900 0.24897 0.74985
 O322 O 0.70975 0.21486 0.78700
 Zr323 Zr 0.74561 0.31295 0.74796
 O324 O 0.78034 0.28182 0.78437
 O325 O 0.78028 0.21129 0.78886
 O326 O 0.71041 0.28192 0.71389
 C327 C 0.74216 0.16446 0.84096
 C328 C 0.82877 0.15860 0.75344
 C329 C 0.83189 0.24909 0.83691
 C330 C 0.74624 0.32877 0.66253
 C331 C 0.66129 0.24825 0.66441
 C332 C 0.66103 0.33358 0.74762
 H333 H 0.69554 0.19453 0.70405
 H334 H 0.69732 0.29815 0.80119
 H335 H 0.79576 0.19551 0.80537
 H336 H 0.79827 0.29251 0.70086
 H337 H 0.80687 0.22416 0.65476
 H338 H 0.84799 0.25517 0.69133
 H339 H 0.64453 0.26505 0.81104
 H340 H 0.68471 0.23364 0.85123
 H341 H 0.72350 0.18471 0.65100
 H342 H 0.75758 0.14608 0.69358
 H343 H 0.72858 0.35183 0.80652
 H344 H 0.76304 0.31147 0.84754
 H345 H 0.68166 0.15062 0.77235
 H346 H 0.64077 0.18983 0.73314
 H347 H 0.84354 0.30635 0.76895
 H348 H 0.80660 0.34686 0.72925
 O349 O 0.25391 0.85127 0.79514
 O350 O 0.29240 0.86102 0.74194
 O351 O 0.15427 0.80639 0.74739
 O352 O 0.13975 0.75808 0.70973
 O353 O 0.20259 0.75229 0.84342
 O354 O 0.25625 0.71501 0.85356
 O355 O 0.24781 0.70184 0.64919
 O356 O 0.20503 0.75049 0.63992
 O357 O 0.34492 0.74945 0.69067
 O358 O 0.35802 0.79502 0.74245
 O359 O 0.30216 0.65773 0.74608
 O360 O 0.24807 0.64727 0.78769
 O361 O 0.25235 0.65759 0.69431
 O362 O 0.20978 0.64611 0.74729
 O363 O 0.34683 0.70236 0.74223
 O364 O 0.35996 0.75567 0.78248
 O365 O 0.29890 0.75118 0.64708
 O366 O 0.24719 0.79434 0.63711
 O367 O 0.25168 0.80734 0.84087
 O368 O 0.29636 0.75713 0.85038
 O369 O 0.15603 0.75556 0.80044
 O370 O 0.14542 0.71116 0.74989
 O371 O 0.19949 0.85069 0.74408
 O372 O 0.25034 0.86027 0.70181
 Zr373 Zr 0.24979 0.82062 0.74534
 O374 O 0.28339 0.78815 0.71002
 Zr375 Zr 0.18395 0.75573 0.74875
 O376 O 0.21469 0.72048 0.71308
 Zr377 Zr 0.25173 0.75634 0.81186
 O378 O 0.28521 0.72082 0.77940
 Zr379 Zr 0.24951 0.75231 0.67859
 O380 O 0.21533 0.78790 0.71091
 Zr381 Zr 0.31705 0.75265 0.74209
 O382 O 0.28677 0.78856 0.77773
 Zr383 Zr 0.25152 0.68762 0.74486
 O384 O 0.21769 0.71998 0.78094
 O385 O 0.21622 0.79055 0.78161
 O386 O 0.28529 0.71752 0.70850
 C387 C 0.25309 0.84127 0.82948
 C388 C 0.16526 0.84044 0.74540
 C389 C 0.16807 0.75326 0.83415
 C390 C 0.25014 0.66790 0.66003
 C391 C 0.33328 0.74938 0.65680
 C392 C 0.33633 0.66837 0.74460
 H393 H 0.29851 0.80463 0.69406
 H394 H 0.30090 0.70570 0.79625
 H395 H 0.20064 0.80661 0.79769
 H396 H 0.19751 0.70514 0.69802
 H397 H 0.18605 0.76847 0.64871
 H398 H 0.14626 0.74146 0.68875
 H399 H 0.35375 0.73799 0.80264
 H400 H 0.31429 0.77596 0.84130
 H401 H 0.26737 0.81241 0.64193
 H402 H 0.23232 0.85147 0.68286
 H403 H 0.26865 0.65204 0.80542
 H404 H 0.23994 0.69425 0.84568
 H405 H 0.31330 0.85166 0.75734
 H406 H 0.35399 0.81098 0.72034
 H407 H 0.15465 0.69311 0.76861
 H408 H 0.19106 0.65169 0.72784
 O409 O 0.25203 0.34751 0.70562
 O410 O 0.21449 0.35748 0.75927
 O411 O 0.35040 0.29754 0.75180
 O412 O 0.36377 0.24873 0.78776
 O413 O 0.29999 0.25105 0.65440
 O414 O 0.24731 0.21286 0.64348
 O415 O 0.25432 0.19349 0.84718
 O416 O 0.29626 0.24160 0.85893
 O417 O 0.15711 0.24847 0.80623
 O418 O 0.14273 0.28891 0.75764
 O419 O 0.19989 0.15330 0.75171
 O420 O 0.25103 0.14246 0.70796
 O421 O 0.25025 0.15082 0.80055
 O422 O 0.29221 0.14130 0.74587
 O423 O 0.15549 0.19848 0.75252
 O424 O 0.14597 0.25658 0.71238
 O425 O 0.20264 0.24316 0.85005
 O426 O 0.25491 0.28591 0.86188
 O427 O 0.25116 0.30476 0.65879
 O428 O 0.20647 0.25482 0.64795
 O429 O 0.34631 0.24649 0.69753
 O430 O 0.35605 0.20246 0.74888
 O431 O 0.30684 0.34341 0.75647
 O432 O 0.25590 0.35307 0.79971
 Zr433 Zr 0.25528 0.31527 0.75456
 O434 O 0.22030 0.28259 0.78829
 Zr435 Zr 0.31893 0.24833 0.74944
 O436 O 0.28737 0.21336 0.78433
 Zr437 Zr 0.25123 0.25308 0.68630
 O438 O 0.21721 0.21714 0.71751
 Zr439 Zr 0.25269 0.24493 0.81933
 O440 O 0.28831 0.28026 0.78820
 Zr441 Zr 0.18579 0.24875 0.75525
 O442 O 0.21715 0.28541 0.72134
 Zr443 Zr 0.25030 0.18246 0.75127
 O444 O 0.28450 0.21485 0.71593
 O445 O 0.28788 0.28518 0.71747
 O446 O 0.21642 0.21185 0.78819
 C447 C 0.25117 0.33839 0.67101
 C448 C 0.34077 0.33182 0.75497
 C449 C 0.33429 0.24774 0.66376
 C450 C 0.25272 0.15988 0.83505
 C451 C 0.16834 0.24603 0.84015
 C452 C 0.16594 0.16423 0.75142
 H453 H 0.20539 0.29919 0.80438
 H454 H 0.20131 0.20277 0.70023
 H455 H 0.30381 0.30124 0.70176
 H456 H 0.30433 0.19732 0.79896
 H457 H 0.31585 0.25915 0.85071
 H458 H 0.35579 0.23437 0.80985
 H459 H 0.14779 0.23517 0.69513
 H460 H 0.18920 0.27445 0.65671
 H461 H 0.23467 0.30408 0.85758
 H462 H 0.27389 0.34309 0.81811
 H463 H 0.23131 0.14921 0.68989
 H464 H 0.26329 0.19174 0.65120
 H465 H 0.19365 0.35013 0.74275
 H466 H 0.15245 0.31042 0.77180
 H467 H 0.34763 0.18554 0.72879
 H468 H 0.30974 0.14413 0.76697
 O469 O 0.75269 0.65561 0.69888
 O470 O 0.79438 0.64394 0.74996
 O471 O 0.65634 0.69900 0.75494
 O472 O 0.64524 0.74572 0.79573
 O473 O 0.69718 0.75479 0.65771
 O474 O 0.74928 0.79387 0.64533
 O475 O 0.75601 0.80145 0.84918
 O476 O 0.71562 0.75147 0.86073
 O477 O 0.85123 0.75041 0.79939
 O478 O 0.85962 0.70918 0.74434
 O479 O 0.80445 0.84669 0.75296
 O480 O 0.74884 0.85843 0.71204
 O481 O 0.75691 0.84643 0.80461
 O482 O 0.71226 0.85906 0.75444
 O483 O 0.84912 0.80195 0.74903
 O484 O 0.85914 0.74993 0.70686
 O485 O 0.80865 0.75414 0.84613
 O486 O 0.75869 0.70840 0.85920
 O487 O 0.74839 0.70097 0.65473
 O488 O 0.78985 0.75214 0.64333
 O489 O 0.65418 0.75169 0.70412
 O490 O 0.64737 0.79396 0.75671
 O491 O 0.70150 0.65444 0.75413
 O492 O 0.75472 0.64321 0.79193
 Zr493 Zr 0.75162 0.68447 0.75006
 O494 O 0.78781 0.71589 0.78384
 Zr495 Zr 0.68603 0.74951 0.75338
 O496 O 0.71939 0.78386 0.78751
 Zr497 Zr 0.74872 0.75076 0.68542
 O498 O 0.78487 0.78496 0.71631
 Zr499 Zr 0.75681 0.75138 0.81865
 O500 O 0.72025 0.71650 0.78796
 Zr501 Zr 0.81925 0.75178 0.75021
 O502 O 0.78610 0.71727 0.71590
 Zr503 Zr 0.75384 0.81724 0.75396
 O504 O 0.71713 0.78612 0.71977
 O505 O 0.71557 0.71559 0.71708
 O506 O 0.79040 0.78642 0.78691
 C507 C 0.75122 0.66682 0.66483
 C508 C 0.66729 0.66487 0.75525
 C509 C 0.66346 0.75451 0.66969
 C510 C 0.75669 0.83567 0.83869
 C511 C 0.84228 0.75252 0.83394
 C512 C 0.83855 0.83600 0.75075
 H513 H 0.80397 0.69885 0.79819
 H514 H 0.79945 0.80054 0.69897
 H515 H 0.69909 0.69990 0.70150
 H516 H 0.70324 0.79889 0.80398
 H517 H 0.69626 0.73345 0.85293
 H518 H 0.65347 0.76164 0.81666
 H519 H 0.85174 0.76847 0.68786
 H520 H 0.80937 0.73412 0.65080
 H521 H 0.77998 0.69187 0.85357
 H522 H 0.74044 0.65290 0.81343
 H523 H 0.76955 0.85494 0.69422
 H524 H 0.73337 0.81405 0.65532
 H525 H 0.81337 0.65258 0.73197
 H526 H 0.85604 0.69119 0.76488
 H527 H 0.65485 0.81252 0.73777
 H528 H 0.69424 0.85276 0.77427
 O529 O 0.24514 0.65806 0.30878
 O530 O 0.20286 0.64820 0.25663
 O531 O 0.34245 0.70042 0.25292
 O532 O 0.35404 0.74751 0.21262
 O533 O 0.30253 0.75586 0.35069
 O534 O 0.25003 0.79635 0.36265
 O535 O 0.24817 0.80521 0.15979
 O536 O 0.28726 0.75123 0.14959
 O537 O 0.14965 0.75559 0.20649
 O538 O 0.14087 0.71184 0.26145
 O539 O 0.19544 0.84989 0.25444
 O540 O 0.25008 0.86063 0.29777
 O541 O 0.24516 0.84986 0.20462
 O542 O 0.28788 0.86178 0.25631
 O543 O 0.15072 0.80530 0.25822
 O544 O 0.13881 0.75393 0.29822
 O545 O 0.19339 0.76030 0.16098
 O546 O 0.23511 0.71559 0.14670
 O547 O 0.24995 0.70294 0.35332
 O548 O 0.20971 0.75446 0.36520
 O549 O 0.34525 0.75210 0.30405
 O550 O 0.35319 0.79455 0.25237
 O551 O 0.29689 0.65645 0.25467
 O552 O 0.24315 0.64450 0.21714
 Zr553 Zr 0.24705 0.68707 0.25771
 O554 O 0.21228 0.71934 0.22314
 Zr555 Zr 0.31339 0.75121 0.25510
 O556 O 0.28106 0.78688 0.22155
 Zr557 Zr 0.25056 0.75295 0.32286
 O558 O 0.21461 0.78749 0.29174
 Zr559 Zr 0.24410 0.75501 0.18953
 O560 O 0.27926 0.71861 0.22007
 Zr561 Zr 0.18053 0.75515 0.25666
 O562 O 0.21283 0.72034 0.29170
 Zr563 Zr 0.24625 0.82015 0.25504
 O564 O 0.28265 0.78812 0.28891
 O565 O 0.28329 0.71748 0.29109
 O566 O 0.21026 0.79004 0.22102
 C567 C 0.24665 0.66890 0.34294
 C568 C 0.33112 0.66649 0.25294
 C569 C 0.33626 0.75479 0.33849
 C570 C 0.24724 0.83930 0.17055
 C571 C 0.15949 0.75888 0.17221
 C572 C 0.16126 0.83929 0.25618
 H573 H 0.19659 0.70282 0.20765
 H574 H 0.19969 0.80292 0.30897
 H575 H 0.29946 0.70146 0.30667
 H576 H 0.29791 0.80188 0.20582
 H577 H 0.30211 0.72878 0.15573
 H578 H 0.34501 0.76234 0.19123
 H579 H 0.14762 0.76946 0.31920
 H580 H 0.18956 0.73743 0.35721
 H581 H 0.24195 0.69115 0.15721
 H582 H 0.26227 0.64969 0.19798
 H583 H 0.22848 0.85743 0.31453
 H584 H 0.26702 0.81585 0.35317
 H585 H 0.18479 0.65618 0.27586
 H586 H 0.14307 0.69581 0.23915
 H587 H 0.34580 0.81335 0.27113
 H588 H 0.30681 0.85517 0.23743
 O589 O 0.75214 0.35020 0.30018
 O590 O 0.79097 0.36054 0.24788
 O591 O 0.65142 0.30949 0.24997
 O592 O 0.63520 0.26294 0.21175
 O593 O 0.69723 0.25257 0.34524
 O594 O 0.74855 0.21215 0.35451
 O595 O 0.74312 0.20600 0.14933
 O596 O 0.70162 0.25581 0.14131
 O597 O 0.84064 0.24839 0.19366
 O598 O 0.85552 0.29119 0.24639
 O599 O 0.79362 0.15649 0.24338
 O600 O 0.74078 0.14574 0.28509
 O601 O 0.74586 0.16026 0.19308
 O602 O 0.70010 0.14974 0.24615
 O603 O 0.84012 0.19933 0.24553
 O604 O 0.85467 0.25224 0.28614
 O605 O 0.79517 0.25395 0.14977
 O606 O 0.74461 0.29910 0.14106
 O607 O 0.74922 0.30504 0.34462
 O608 O 0.79105 0.25214 0.35284
 O609 O 0.65124 0.25742 0.30180
 O610 O 0.64003 0.21445 0.24950
 O611 O 0.69782 0.35267 0.24875
 O612 O 0.74969 0.36195 0.20714
 Zr613 Zr 0.74731 0.32117 0.24955
 O614 O 0.78031 0.28870 0.21373
 Zr615 Zr 0.67954 0.25818 0.25039
 O616 O 0.70927 0.22336 0.21353
 Zr617 Zr 0.74670 0.25492 0.31410
 O618 O 0.77901 0.21914 0.28076
 Zr619 Zr 0.74552 0.25525 0.18068
 O620 O 0.71212 0.29066 0.21386
 Zr621 Zr 0.81244 0.25098 0.24495
 O622 O 0.78303 0.28697 0.28123
 Zr623 Zr 0.74455 0.18842 0.24462
 O624 O 0.71180 0.22058 0.28180
 O625 O 0.71254 0.29109 0.28461
 O626 O 0.77980 0.21836 0.20978
 C627 C 0.75170 0.33925 0.33423
 C628 C 0.66332 0.34323 0.24915
 C629 C 0.66285 0.25453 0.33561
 C630 C 0.74492 0.17173 0.15914
 C631 C 0.82933 0.25050 0.15972
 C632 C 0.82811 0.16567 0.24459
 H633 H 0.79614 0.30522 0.19851
 H634 H 0.79394 0.20286 0.29722
 H635 H 0.69749 0.30729 0.30107
 H636 H 0.69180 0.20911 0.19773
 H637 H 0.68284 0.27376 0.15058
 H638 H 0.64176 0.24777 0.18971
 H639 H 0.84811 0.23370 0.30541
 H640 H 0.80966 0.27084 0.34492
 H641 H 0.76571 0.31596 0.14631
 H642 H 0.73107 0.35471 0.18810
 H643 H 0.76038 0.15030 0.30393
 H644 H 0.73198 0.19214 0.34532
 H645 H 0.81182 0.34965 0.26231
 H646 H 0.85135 0.30887 0.22567
 H647 H 0.64785 0.19619 0.26863
 H648 H 0.68444 0.15373 0.22380
 C649 C 0.23841 0.07037 0.08099
 C650 C 0.26491 0.07301 0.10717
 C651 C 0.26365 0.10104 0.13705
 C652 C 0.25302 0.13613 0.13056
 H653 H 0.28749 0.05299 0.10785
 H654 H 0.27435 0.09323 0.16418
 H655 H 0.21397 0.08804 0.08225
 H656 H 0.24550 0.14458 0.10254
 C657 C 0.74292 0.57398 0.58325
 C658 C 0.76958 0.57798 0.60906
 C659 C 0.76683 0.60512 0.63970
 C660 C 0.75204 0.63897 0.63490
 H661 H 0.79343 0.55948 0.60903
 H662 H 0.77990 0.59797 0.66597
 H663 H 0.71735 0.58991 0.58520
 H664 H 0.74216 0.64735 0.60760
 C665 C 0.76009 0.92807 0.08541
 C666 C 0.73025 0.91791 0.10537
 C667 C 0.73311 0.89075 0.13603
 C668 C 0.75254 0.85919 0.13235
 H669 H 0.70351 0.93115 0.10079
 H670 H 0.71662 0.89548 0.16085
 H671 H 0.78722 0.91705 0.09293
 H672 H 0.76570 0.85273 0.10595
 C673 C 0.24208 0.41918 0.57711
 C674 C 0.26970 0.39480 0.58273
 C675 C 0.26711 0.36441 0.61008
 C676 C 0.25134 0.36873 0.64360
 H677 H 0.29409 0.39542 0.56501
 H678 H 0.28111 0.33854 0.60333
 H679 H 0.21618 0.41649 0.59235
 H680 H 0.24071 0.39569 0.65199
 C681 C 0.75516 0.07318 0.92367
 C682 C 0.72802 0.07515 0.89808
 C683 C 0.72873 0.10234 0.86719
 C684 C 0.74104 0.13725 0.87164
 H685 H 0.70586 0.05472 0.89816
 H686 H 0.71700 0.09382 0.84071
 H687 H 0.77907 0.09144 0.92159
 H688 H 0.74971 0.14665 0.89901
 C689 C 0.25524 0.57421 0.42281
 C690 C 0.22888 0.57844 0.39671
 C691 C 0.23136 0.60658 0.36688
 C692 C 0.24544 0.64061 0.37255
 H693 H 0.20565 0.55925 0.39564
 H694 H 0.21892 0.59973 0.34023
 H695 H 0.28018 0.59115 0.42199
 H696 H 0.25481 0.64860 0.40013
 C697 C 0.25379 0.92076 0.92476
 C698 C 0.22535 0.89905 0.91422
 C699 C 0.22997 0.86839 0.88737
 C700 C 0.25195 0.87103 0.85740
 H701 H 0.19837 0.90183 0.92745
 H702 H 0.21243 0.84411 0.89089
 H703 H 0.28136 0.91539 0.91368
 H704 H 0.26631 0.89683 0.85136
 C705 C 0.76042 0.42098 0.42758
 C706 C 0.73499 0.39394 0.42425
 C707 C 0.73793 0.36362 0.39669
 C708 C 0.75287 0.36846 0.36288
 H709 H 0.71183 0.39282 0.44353
 H710 H 0.72435 0.33755 0.40338
 H711 H 0.78542 0.42045 0.41072
 H712 H 0.76320 0.39558 0.35475
 C713 C 0.07443 0.25900 0.07497
 C714 C 0.07744 0.23384 0.10233
 C715 C 0.10475 0.23698 0.13283
 C716 C 0.13863 0.25167 0.12804
 H717 H 0.05784 0.21097 0.10376
 H718 H 0.09764 0.22409 0.15917
 H719 H 0.09152 0.28383 0.07522
 H720 H 0.14716 0.26134 0.10077
 C721 C 0.58348 0.74358 0.57590
 C722 C 0.60766 0.77158 0.58020
 C723 C 0.63788 0.77034 0.60804
 C724 C 0.63304 0.75631 0.64226
 H725 H 0.60712 0.79491 0.56109
 H726 H 0.66421 0.78301 0.60060
 H727 H 0.58620 0.71870 0.59276
 H728 H 0.60574 0.74673 0.65080
 C729 C 0.07465 0.74293 0.91602
 C730 C 0.08234 0.77241 0.89439
 C731 C 0.10827 0.77033 0.86261
 C732 C 0.14083 0.75228 0.86469
 H733 H 0.06767 0.79847 0.89844
 H734 H 0.10187 0.78693 0.83822
 H735 H 0.08701 0.71619 0.90939
 H736 H 0.14903 0.73903 0.89057
 C737 C 0.57132 0.24501 0.41888
 C738 C 0.57444 0.27150 0.39282
 C739 C 0.60139 0.26928 0.36191
 C740 C 0.63528 0.25419 0.36585
 H741 H 0.55530 0.29483 0.39281
 H742 H 0.59400 0.28307 0.33608
 H743 H 0.58808 0.21999 0.41713
 H744 H 0.64407 0.24358 0.39273
 C745 C 0.93448 0.75190 0.08170
 C746 C 0.93096 0.72466 0.10691
 C747 C 0.90383 0.72694 0.13767
 C748 C 0.86977 0.74116 0.13254
 H749 H 0.94946 0.70085 0.10608
 H750 H 0.91118 0.71437 0.16412
 H751 H 0.91846 0.77731 0.08466
 H752 H 0.86140 0.75039 0.10500
 C753 C 0.42427 0.25684 0.58040
 C754 C 0.42197 0.23017 0.60632
 C755 C 0.39552 0.23230 0.63752
 C756 C 0.36128 0.24628 0.63323
 H757 H 0.44128 0.20698 0.60590
 H758 H 0.40370 0.21991 0.66382
 H759 H 0.40757 0.28186 0.58275
 H760 H 0.35202 0.25549 0.60598
 C761 C 0.91338 0.24282 0.93046
 C762 C 0.89174 0.27211 0.92183
 C763 C 0.85958 0.26897 0.89645
 C764 C 0.86193 0.24983 0.86465
 H765 H 0.89637 0.29888 0.93494
 H766 H 0.83508 0.28561 0.90222
 H767 H 0.90595 0.21546 0.92011
 H768 H 0.88801 0.23652 0.85724
 C769 C 0.42284 0.74316 0.42634
 C770 C 0.39742 0.77048 0.42489
 C771 C 0.36497 0.76924 0.39951
 C772 C 0.36748 0.75528 0.36506
 H773 H 0.39907 0.79342 0.44443
 H774 H 0.33933 0.78231 0.40856
 H775 H 0.41917 0.71830 0.40964
 H776 H 0.39418 0.74540 0.35501
 C777 C 0.07122 0.08434 0.25744
 C778 C 0.07644 0.10892 0.22987
 C779 C 0.10378 0.13952 0.23216
 C780 C 0.13733 0.13540 0.24802
 H781 H 0.05868 0.10800 0.20545
 H782 H 0.09723 0.16504 0.21745
 H783 H 0.08646 0.08723 0.28335
 H784 H 0.14538 0.10864 0.25941
 C785 C 0.57296 0.58388 0.76279
 C786 C 0.57865 0.60896 0.73581
 C787 C 0.60573 0.63964 0.73936
 C788 C 0.63900 0.63529 0.75573
 H789 H 0.56158 0.60830 0.71090
 H790 H 0.59941 0.66540 0.72497
 H791 H 0.58747 0.58649 0.78916
 H792 H 0.64699 0.60832 0.76667
 C793 C 0.92523 0.08223 0.74365
 C794 C 0.91553 0.10094 0.77443
 C795 C 0.88814 0.13142 0.77316
 C796 C 0.85644 0.12862 0.75372
 H797 H 0.92960 0.09575 0.80066
 H798 H 0.89310 0.15562 0.79049
 H799 H 0.91323 0.09035 0.71709
 H800 H 0.84956 0.10280 0.73970
 C801 C 0.42361 0.58619 0.23793
 C802 C 0.42047 0.61031 0.26613
 C803 C 0.39325 0.64097 0.26556
 C804 C 0.35894 0.63665 0.25164
 H805 H 0.43959 0.60886 0.28947
 H806 H 0.40078 0.66670 0.27939
 H807 H 0.40695 0.58977 0.21298
 H808 H 0.35015 0.60971 0.24130
 C809 C 0.07314 0.92338 0.73733
 C810 C 0.07628 0.89692 0.76344
 C811 C 0.10351 0.86614 0.76083
 C812 C 0.13721 0.87032 0.74541
 H813 H 0.05701 0.89648 0.78663
 H814 H 0.09651 0.84020 0.77450
 H815 H 0.09010 0.92205 0.71243
 H816 H 0.14567 0.89730 0.73498
 C817 C 0.57073 0.42424 0.23717
 C818 C 0.57413 0.39941 0.26474
 C819 C 0.60164 0.36899 0.26354
 C820 C 0.63579 0.37346 0.24927
 H821 H 0.55481 0.39990 0.28790
 H822 H 0.59424 0.34299 0.27690
 H823 H 0.58783 0.42176 0.21243
 H824 H 0.64450 0.40052 0.23922
 C825 C 0.92067 0.92772 0.24385
 C826 C 0.89701 0.91979 0.27171
 C827 C 0.86674 0.89214 0.26799
 C828 C 0.87178 0.85887 0.25193
 H829 H 0.89774 0.93590 0.29723
 H830 H 0.84052 0.89830 0.28158
 H831 H 0.91732 0.91369 0.21730
 H832 H 0.89913 0.85131 0.24164
 C833 C 0.42372 0.42425 0.74446
 C834 C 0.39651 0.42164 0.76990
 C835 C 0.36596 0.39434 0.76756
 C836 C 0.37110 0.35939 0.75574
 H837 H 0.39506 0.44181 0.79230
 H838 H 0.33914 0.40264 0.77858
 H839 H 0.42345 0.40657 0.72001
 H840 H 0.39870 0.35023 0.74767
 C841 C 0.07201 0.24042 0.91940
 C842 C 0.07878 0.26733 0.89454
 C843 C 0.10701 0.26376 0.86487
 C844 C 0.14005 0.24698 0.86989
 H845 H 0.06151 0.29207 0.89426
 H846 H 0.10130 0.27797 0.83886
 H847 H 0.08718 0.21438 0.91783
 H848 H 0.14741 0.23585 0.89698
 C849 C 0.58320 0.73556 0.42275
 C850 C 0.60981 0.76147 0.41922
 C851 C 0.64121 0.75818 0.39279
 C852 C 0.63761 0.74293 0.35893
 H853 H 0.61005 0.78511 0.43797
 H854 H 0.66713 0.77162 0.40037
 H855 H 0.58475 0.71006 0.40671
 H856 H 0.61068 0.73268 0.34994
 C857 C 0.92268 0.74319 0.92901
 C858 C 0.90234 0.77315 0.91969
 C859 C 0.87066 0.77095 0.89357
 C860 C 0.87303 0.75283 0.86108
 H861 H 0.90726 0.79967 0.93321
 H862 H 0.84605 0.78725 0.89985
 H863 H 0.91503 0.71624 0.91778
 H864 H 0.89910 0.73983 0.85313
 C865 C 0.41595 0.24376 0.42581
 C866 C 0.39100 0.27111 0.42112
 C867 C 0.36072 0.26893 0.39344
 C868 C 0.36605 0.25475 0.35939
 H869 H 0.39158 0.29521 0.43925
 H870 H 0.33440 0.28199 0.40034
 H871 H 0.41335 0.21810 0.41016
 H872 H 0.39346 0.24494 0.35141
 C873 C 0.08536 0.74797 0.07361
 C874 C 0.10611 0.77785 0.08152
 C875 C 0.13509 0.77701 0.11071
 C876 C 0.12981 0.76067 0.14390
 H877 H 0.10374 0.80270 0.06460
 H878 H 0.16082 0.79173 0.10519
 H879 H 0.09005 0.72225 0.08870
 H880 H 0.10285 0.74903 0.15076
 C881 C 0.57252 0.25920 0.57829
 C882 C 0.57244 0.23511 0.60682
 C883 C 0.59865 0.23753 0.63842
 C884 C 0.63379 0.24891 0.63408
 H885 H 0.55128 0.21366 0.60810
 H886 H 0.58963 0.22663 0.66506
 H887 H 0.59099 0.28301 0.57854
 H888 H 0.64369 0.25656 0.60662
 C889 C 0.92330 0.25817 0.07961
 C890 C 0.91827 0.23095 0.10455
 C891 C 0.89079 0.23369 0.13484
 C892 C 0.85718 0.24905 0.12983
 H893 H 0.93610 0.20661 0.10409
 H894 H 0.89755 0.22033 0.16106
 H895 H 0.90788 0.28400 0.08204
 H896 H 0.84914 0.25924 0.10255
 C897 C 0.42906 0.75381 0.57795
 C898 C 0.42191 0.72645 0.60219
 C899 C 0.39408 0.73029 0.63210
 C900 C 0.36110 0.74699 0.62686
 H901 H 0.43862 0.70134 0.60184
 H902 H 0.40003 0.71669 0.65839
 H903 H 0.41471 0.78024 0.58042
 H904 H 0.35356 0.75733 0.59950
 C905 C 0.24279 0.07663 0.92574
 C906 C 0.26989 0.10203 0.92317
 C907 C 0.26834 0.13301 0.89622
 C908 C 0.25364 0.12921 0.86211
 H909 H 0.29275 0.10167 0.94291
 H910 H 0.28152 0.15896 0.90410
 H911 H 0.21823 0.07896 0.90830
 H912 H 0.24361 0.10228 0.85296
 C913 C 0.74431 0.57803 0.42721
 C914 C 0.76981 0.60505 0.42414
 C915 C 0.76706 0.63535 0.39640
 C916 C 0.75358 0.63010 0.36197
 H917 H 0.79255 0.60641 0.44397
 H918 H 0.77921 0.66194 0.40377
 H919 H 0.71972 0.57845 0.40968
 H920 H 0.74466 0.60259 0.35343
 C921 C 0.74492 0.07592 0.07943
 C922 C 0.77300 0.08666 0.10163
 C923 C 0.76792 0.11346 0.13234
 C924 C 0.74669 0.14394 0.12916
 H925 H 0.80005 0.07342 0.09943
 H926 H 0.78466 0.10945 0.15718
 H927 H 0.71722 0.08695 0.08425
 H928 H 0.73315 0.15027 0.10290
 C929 C 0.24127 0.57353 0.57911
 C930 C 0.26716 0.57733 0.60579
 C931 C 0.26447 0.60521 0.63595
 C932 C 0.25023 0.63927 0.63064
 H933 H 0.29038 0.55808 0.60691
 H934 H 0.27737 0.59836 0.66239
 H935 H 0.21628 0.59045 0.57976
 H936 H 0.24047 0.64731 0.60320
 C937 C 0.76622 0.91749 0.93214
 C938 C 0.74078 0.89041 0.92902
 C939 C 0.74384 0.85987 0.90165
 C940 C 0.75707 0.86514 0.86719
 H941 H 0.71753 0.88952 0.94821
 H942 H 0.73169 0.83330 0.90906
 H943 H 0.79127 0.91666 0.91536
 H944 H 0.76592 0.89267 0.85866
 C945 C 0.25759 0.41862 0.42431
 C946 C 0.23096 0.39305 0.41918
 C947 C 0.23428 0.36258 0.39175
 C948 C 0.24973 0.36734 0.35814
 H949 H 0.20679 0.39289 0.43722
 H950 H 0.22098 0.33638 0.39846
 H951 H 0.28339 0.41680 0.40879
 H952 H 0.25983 0.39457 0.35005
 C953 C 0.23966 0.91708 0.07538
 C954 C 0.26775 0.89332 0.08121
 C955 C 0.26539 0.86349 0.10924
 C956 C 0.24883 0.86866 0.14224
 H957 H 0.29224 0.89428 0.06364
 H958 H 0.27957 0.83752 0.10337
 H959 H 0.21380 0.91386 0.09060
 H960 H 0.23792 0.89582 0.14957
 C961 C 0.75672 0.42267 0.58172
 C962 C 0.72891 0.41747 0.60599
 C963 C 0.73090 0.39008 0.63648
 C964 C 0.74618 0.35634 0.63225
 H965 H 0.70474 0.43554 0.60516
 H966 H 0.71686 0.39704 0.66228
 H967 H 0.78242 0.40710 0.58461
 H968 H 0.75698 0.34797 0.60533
 C969 C 0.07474 0.08112 0.75366
 C970 C 0.07709 0.10956 0.72967
 C971 C 0.10403 0.14020 0.73444
 C972 C 0.13772 0.13482 0.74946
 H973 H 0.05744 0.11161 0.70682
 H974 H 0.09690 0.16708 0.72273
 H975 H 0.09177 0.08080 0.77860
 H976 H 0.14624 0.10710 0.75779
 C977 C 0.57595 0.57955 0.24836
 C978 C 0.58145 0.60554 0.22225
 C979 C 0.60946 0.63524 0.22632
 C980 C 0.64239 0.62973 0.24299
 H981 H 0.56324 0.60676 0.19818
 H982 H 0.60357 0.66169 0.21305
 H983 H 0.59173 0.58033 0.27411
 H984 H 0.64984 0.60230 0.25311
 C985 C 0.07722 0.93080 0.26189
 C986 C 0.10511 0.92820 0.23723
 C987 C 0.13611 0.90138 0.24107
 C988 C 0.13148 0.86744 0.25571
 H989 H 0.10634 0.94746 0.21404
 H990 H 0.16253 0.90872 0.22853
 H991 H 0.07756 0.91402 0.28696
 H992 H 0.10413 0.85883 0.26505
 C993 C 0.58091 0.42838 0.75925
 C994 C 0.60760 0.42517 0.73334
 C995 C 0.63770 0.39715 0.73545
 C996 C 0.63179 0.36241 0.74753
 H997 H 0.60862 0.44483 0.71047
 H998 H 0.66453 0.40456 0.72385
 H999 H 0.58168 0.41100 0.78392
 H1000 H 0.60402 0.35416 0.75595
 C1001 C 0.92017 0.08208 0.23912
 C1002 C 0.91573 0.10848 0.26506
 C1003 C 0.88900 0.13938 0.26112
 C1004 C 0.85542 0.13518 0.24544
 H1005 H 0.93393 0.10896 0.28917
 H1006 H 0.89618 0.16553 0.27431
 H1007 H 0.90462 0.08342 0.21325
 H1008 H 0.84671 0.10808 0.23546
 C1009 C 0.41897 0.57575 0.74105
 C1010 C 0.39240 0.58017 0.76683
 C1011 C 0.36156 0.60712 0.76257
 C1012 C 0.36604 0.64019 0.74597
 H1013 H 0.39202 0.56224 0.79110
 H1014 H 0.33542 0.60068 0.77615
 H1015 H 0.41752 0.59118 0.71515
 H1016 H 0.39323 0.64815 0.73562
 C1017 C 0.91770 0.93016 0.73661
 C1018 C 0.89242 0.92670 0.76378
 C1019 C 0.86236 0.89895 0.76257
 C1020 C 0.86789 0.86439 0.74987
 H1021 H 0.89266 0.94583 0.78712
 H1022 H 0.83603 0.90632 0.77533
 H1023 H 0.91556 0.91346 0.71156
 H1024 H 0.89530 0.85606 0.74033
 C1025 C 0.41559 0.43133 0.23316
 C1026 C 0.39025 0.42746 0.26023
 C1027 C 0.36031 0.39951 0.25858
 C1028 C 0.36616 0.36493 0.24603
 H1029 H 0.39022 0.44649 0.28365
 H1030 H 0.33370 0.40681 0.27078
 H1031 H 0.41366 0.41463 0.20809
 H1032 H 0.39380 0.35666 0.23713
   
