data_POSCAR
  _audit_creation_date              2014-09-24
  _audit_creation_method            'ToBaCCo'
  _symmetry_space_group_name_H-M    'P1'
  _symmetry_Int_Tables_number       1
  _symmetry_cell_setting            triclinic
  loop_
  _symmetry_equiv_pos_as_xyz
 x,y,z
_cell_length_a 40.9802
_cell_length_b 40.9793
_cell_length_c 40.6755
_cell_angle_alpha 89.893600
_cell_angle_beta 90.068600
_cell_angle_gamma 89.877800
loop_
  _atom_site_label
  _atom_site_type_symbol
  _atom_site_fract_x
  _atom_site_fract_y
  _atom_site_fract_z
C1 C 0.18876 1.23113 0.18952
 N2 N 0.21614 1.21764 0.17658
 C3 C 0.22982 1.19100 0.19094
 N4 N 0.21592 1.17765 0.21806
 C5 C 0.18853 1.19112 0.23102
 N6 N 0.17486 1.21777 0.21665
 C7 C 0.81107 0.76702 0.19191
 N8 N 0.78383 0.78038 0.17842
 C9 C 0.77000 0.80716 0.19225
 N10 N 0.78362 0.82078 0.21936
 C11 C 0.81087 0.80744 0.23286
 N12 N 0.82468 0.78066 0.21902
 C13 C 0.80680 1.23293 -0.19266
 N14 N 0.77994 1.21932 -0.17884
 C15 C 0.76678 1.19192 -0.19199
 N16 N 0.78070 1.17794 -0.21876
 C17 C 0.80756 1.19153 -0.23260
 N18 N 0.82072 1.21892 -0.21943
 C19 C 0.19369 0.76612 -0.19266
 N20 N 0.18020 0.77993 -0.21983
 C21 C 0.19379 0.80699 -0.23331
 N22 N 0.22065 0.82048 -0.21935
 C23 C 0.23416 0.80670 -0.19218
 N24 N 0.22055 0.77964 -0.17871
 C25 C 0.55042 1.04455 -0.00847
 H26 H 0.55145 1.04435 0.01811
 C27 C 0.57256 1.06336 -0.02634
 H28 H 0.59073 1.07744 -0.01328
 C29 C 0.52633 1.02514 -0.05766
 H30 H 0.50865 1.00979 -0.06978
 C31 C 0.54804 1.04355 -0.07651
 H32 H 0.54637 1.04264 -0.10306
 N33 N 0.52780 1.02609 -0.02426
 C34 C 0.45067 1.01037 0.04770
 H35 H 0.44971 0.98399 0.04764
 C36 C 0.42848 1.02816 0.06656
 H37 H 0.41036 1.01522 0.08085
 C38 C 0.47450 1.05915 0.02768
 H39 H 0.49205 1.07114 0.01203
 C40 C 0.45273 1.07791 0.04615
 H41 H 0.45424 1.10426 0.04499
 Zn42 Zn 0.50027 0.99981 0.00204
 N43 N 0.47314 1.02600 0.02885
 C44 C 0.52675 0.97403 0.06144
 N45 N 0.52768 0.97295 0.02803
 C46 C 0.54979 0.95403 0.01200
 C47 C 0.57202 0.93497 0.02963
 C48 C 0.54858 0.95537 0.08006
 C49 C 0.44996 0.99050 -0.04308
 C50 C 0.42726 0.97332 -0.06184
 C51 C 0.45083 0.92292 -0.04194
 C52 C 0.47312 0.94109 -0.02353
 N53 N 0.47234 0.97427 -0.02451
 H54 H 0.50947 0.98973 0.07375
 H55 H 0.55040 0.95414 -0.01460
 H56 H 0.58984 0.92058 0.01636
 H57 H 0.54739 0.95644 0.10662
 H58 H 0.44961 1.01690 -0.04305
 H59 H 0.40980 0.98673 -0.07664
 H60 H 0.45138 0.89655 -0.04034
 H61 H 0.49053 0.92864 -0.00798
 C62 C 0.42920 1.06242 0.06580
 C63 C 0.57163 1.06293 -0.06086
 C64 C 0.42736 0.93905 -0.06127
 C65 C 0.57172 0.93561 0.06415
 C66 C -0.00849 0.54953 1.04405
 H67 H 0.01791 0.54932 1.04383
 C68 C -0.02516 0.57223 1.06330
 H69 H -0.01136 0.58910 1.07829
 C70 C -0.05839 0.52791 1.02435
 H71 H -0.07123 0.51115 1.00850
 C72 C -0.07607 0.55023 1.04324
 H73 H -0.10245 0.55036 1.04171
 N74 N -0.02521 0.52796 1.02512
 C75 C 0.04442 0.44978 1.00582
 H76 H 0.04416 0.44992 0.97922
 C77 C 0.06300 0.42660 1.02270
 H78 H 0.07745 0.40927 1.00887
 C79 C 0.02552 0.47214 1.05602
 H80 H 0.01026 0.48940 1.06889
 C81 C 0.04377 0.44937 1.07391
 H82 H 0.04233 0.44941 1.10048
 Zn83 Zn -0.00031 0.50047 0.99749
 N84 N 0.02624 0.47197 1.02258
 C85 C 0.05864 0.52673 0.97138
 N86 N 0.02547 0.52810 0.97083
 C87 C 0.00942 0.55101 0.95277
 C88 C 0.02677 0.57371 0.93415
 C89 C 0.07698 0.54900 0.95309
 C90 C -0.04661 0.45176 0.98726
 C91 C -0.06590 0.42998 0.96950
 C92 C -0.04587 0.45414 0.91921
 C93 C -0.02698 0.47551 0.93796
 N94 N -0.02773 0.47398 0.97136
 H95 H 0.07096 0.50889 0.98655
 H96 H -0.01697 0.55182 0.95316
 H97 H 0.01349 0.59163 0.91980
 H98 H 0.10335 0.54800 0.95439
 H99 H -0.04624 0.45067 1.01384
 H100 H -0.08020 0.41202 0.98265
 H101 H -0.04501 0.45576 0.89266
 H102 H -0.01130 0.49285 0.92575
 C103 C 0.06266 0.42604 1.05723
 C104 C -0.05942 0.57299 1.06283
 C105 C -0.06553 0.43085 0.93498
 C106 C 0.06104 0.57307 0.93435
 C107 C 1.04557 -0.00942 0.55078
 H108 H 1.04515 0.01697 0.55123
 C109 C 1.06458 -0.02658 0.57347
 H110 H 1.07918 -0.01314 0.59101
 C111 C 1.02669 -0.05885 0.52742
 H112 H 1.01128 -0.07133 0.50996
 C113 C 1.04536 -0.07700 0.54970
 H114 H 1.04411 -0.10338 0.54909
 N115 N 1.02719 -0.02567 0.52833
 C116 C 1.00948 0.04549 0.45049
 H117 H 0.98308 0.04525 0.44984
 C118 C 1.02679 0.06448 0.42798
 H119 H 1.01349 0.07869 0.40992
 C120 C 1.05875 0.02586 0.47387
 H121 H 1.07113 0.01032 0.49138
 C122 C 1.07704 0.04446 0.45179
 H123 H 1.10342 0.04351 0.45303
 Zn124 Zn 1.00016 -0.00012 0.50066
 N125 N 1.02558 0.02678 0.47290
 C126 C 0.97389 0.05849 0.52767
 N127 N 0.97342 0.02530 0.52856
 C128 C 0.95531 0.00895 0.55118
 C129 C 0.93655 0.02599 0.57405
 C130 C 0.95545 0.07653 0.55013
 C131 C 0.99037 -0.04555 0.45059
 C132 C 0.97287 -0.06457 0.42829
 C133 C 0.92282 -0.04474 0.45250
 C134 C 0.94130 -0.02611 0.47437
 N135 N 0.97446 -0.02694 0.47311
 H136 H 0.98908 0.07105 0.51007
 H137 H 0.95575 -0.01745 0.55161
 H138 H 0.92216 0.01246 0.59171
 H139 H 0.95667 0.10291 0.54952
 H140 H 1.01676 -0.04524 0.44972
 H141 H 0.98602 -0.07872 0.41016
 H142 H 0.89646 -0.04389 0.45397
 H143 H 0.92907 -0.01065 0.49196
 C144 C 1.06106 0.06398 0.42832
 C145 C 1.06445 -0.06085 0.57329
 C146 C 0.93860 -0.06420 0.42895
 C147 C 0.93665 0.06026 0.57389
 C148 C 0.11435 0.38414 1.12252
 C149 C 0.11492 0.35200 1.11093
 C150 C 0.09870 0.34415 1.08172
 C151 C 0.08188 0.36825 1.06420
 C152 C 0.17436 0.25698 1.17436
 C153 C 0.09751 0.40832 1.10502
 C154 C 0.13177 0.32688 1.12901
 C155 C 0.14554 0.30532 1.14374
 C156 C 0.16126 0.27950 1.16049
 C157 C 0.08105 0.40063 1.07566
 H158 H 0.12687 0.39049 1.14509
 H159 H 0.09886 0.31933 1.07260
 H160 H 0.06904 0.36142 1.04199
 H161 H 0.09760 0.43307 1.11429
 C162 C -0.12408 0.61428 1.11531
 C163 C -0.11232 0.64630 1.11650
 C164 C -0.08323 0.65426 1.10045
 C165 C -0.06597 0.63038 1.08319
 C166 C -0.17429 0.74109 1.17727
 C167 C -0.10684 0.59031 1.09802
 C168 C -0.13012 0.67125 1.13378
 C169 C -0.14453 0.69273 1.14787
 C170 C -0.16084 0.71853 1.16393
 C171 C -0.07759 0.59812 1.08173
 H172 H -0.14657 0.60785 1.12769
 H173 H -0.07398 0.67900 1.10108
 H174 H -0.04385 0.63732 1.07047
 H175 H -0.11623 0.56564 1.09763
 C176 C -0.13327 0.37352 0.90844
 C177 C -0.11932 0.35872 0.88083
 C178 C -0.08827 0.36822 0.87030
 C179 C -0.07101 0.39210 0.88755
 C180 C -0.17842 0.26102 0.82214
 C181 C -0.11605 0.39740 0.92575
 C182 C -0.13625 0.33286 0.86412
 C183 C -0.14998 0.31068 0.85049
 C184 C -0.16555 0.28415 0.83498
 C185 C -0.08459 0.40677 0.91566
 H186 H -0.15730 0.36634 0.91682
 H187 H -0.07715 0.35679 0.84907
 H188 H -0.04668 0.39842 0.87942
 H189 H -0.12732 0.40851 0.94704
 C190 C 0.12653 0.61327 0.88214
 C191 C 0.11590 0.64576 0.88191
 C192 C 0.08736 0.65441 0.89863
 C193 C 0.06951 0.63076 0.91555
 C194 C 0.17906 0.74008 0.82178
 C195 C 0.10869 0.58953 0.89910
 C196 C 0.13419 0.67045 0.86481
 C197 C 0.14894 0.69179 0.85085
 C198 C 0.16551 0.71751 0.83496
 C199 C 0.07995 0.59802 0.91599
 H200 H 0.14857 0.60630 0.86923
 H201 H 0.07899 0.67951 0.89873
 H202 H 0.04781 0.63820 0.92875
 H203 H 0.11717 0.56449 0.89872
 C204 C 1.08694 0.13152 0.36990
 C205 C 1.11432 0.11751 0.35495
 C206 C 1.12478 0.08639 0.36454
 C207 C 1.10775 0.06917 0.38873
 C208 C 1.17392 0.17698 0.25738
 C209 C 1.06985 0.11434 0.39409
 C210 C 1.13106 0.13453 0.32901
 C211 C 1.14484 0.14835 0.30684
 C212 C 1.16067 0.16403 0.28039
 C213 C 1.07994 0.08286 0.40364
 H214 H 1.07864 0.15561 0.36266
 H215 H 1.14583 0.07523 0.35300
 H216 H 1.11586 0.04482 0.39517
 H217 H 1.04879 0.12569 0.40538
 C218 C 1.11728 -0.12606 0.61346
 C219 C 1.11822 -0.11513 0.64604
 C220 C 1.10180 -0.08647 0.65475
 C221 C 1.08446 -0.06879 0.63107
 C222 C 1.17929 -0.17822 0.74057
 C223 C 1.09991 -0.10840 0.58970
 C224 C 1.13566 -0.13331 0.67078
 C225 C 1.14985 -0.14800 0.69216
 C226 C 1.16597 -0.16458 0.71794
 C227 C 1.08329 -0.07954 0.59826
 H228 H 1.12994 -0.14821 0.60645
 H229 H 1.10223 -0.07787 0.67992
 H230 H 1.07150 -0.04700 0.63858
 H231 H 1.09973 -0.11712 0.56459
 C232 C 0.91240 -0.13192 0.37109
 C233 C 0.88481 -0.11804 0.35629
 C234 C 0.87431 -0.08695 0.36582
 C235 C 0.89150 -0.06964 0.38979
 C236 C 0.82526 -0.17814 0.25917
 C237 C 0.92965 -0.11464 0.39507
 C238 C 0.86796 -0.13515 0.33050
 C239 C 0.85416 -0.14910 0.30845
 C240 C 0.83838 -0.16497 0.28211
 C241 C 0.91953 -0.08319 0.40453
 H242 H 0.92074 -0.15597 0.36390
 H243 H 0.85310 -0.07590 0.35438
 H244 H 0.88335 -0.04532 0.39618
 H245 H 0.95088 -0.12589 0.40624
 C246 C 0.88408 0.12518 0.61450
 C247 C 0.88347 0.11411 0.64707
 C248 C 0.90007 0.08547 0.65565
 C249 C 0.91724 0.06795 0.63184
 C250 C 0.82231 0.17671 0.74152
 C251 C 0.90128 0.10767 0.59060
 C252 C 0.86612 0.13209 0.67191
 C253 C 0.85194 0.14665 0.69331
 C254 C 0.83576 0.16312 0.71902
 C255 C 0.91806 0.07883 0.59902
 H256 H 0.87127 0.14731 0.60758
 H257 H 0.89988 0.07676 0.68082
 H258 H 0.93033 0.04615 0.63925
 H259 H 0.90118 0.11650 0.56549
 C260 C 0.36605 1.12685 0.08716
 C261 C 0.35618 1.11666 0.11845
 C262 C 0.37086 1.08935 0.13300
 C263 C 0.39500 1.07200 0.11614
 C264 C 0.25796 1.17593 0.17643
 C265 C 0.39020 1.10955 0.07026
 C266 C 0.33012 1.13349 0.13505
 C267 C 0.30781 1.14723 0.14852
 C268 C 0.28116 1.16290 0.16380
 C269 C 0.40477 1.08175 0.08445
 H270 H 0.35472 1.14785 0.07559
 H271 H 0.36339 1.08125 0.15721
 H272 H 0.40603 1.05095 0.12787
 H273 H 0.39683 1.11742 0.04574
 C274 C 0.62892 1.13052 -0.08794
 C275 C 0.64336 1.11660 -0.11576
 C276 C 0.63378 1.08552 -0.12613
 C277 C 0.61011 1.06825 -0.10857
 C278 C 0.73926 1.17672 -0.17652
 C279 C 0.60525 1.11328 -0.07033
 C280 C 0.66882 1.13368 -0.13297
 C281 C 0.69059 1.14763 -0.14705
 C282 C 0.71660 1.16353 -0.16314
 C283 C 0.59574 1.08184 -0.08032
 H284 H 0.63615 1.15457 -0.07970
 H285 H 0.64494 1.07443 -0.14752
 H286 H 0.60367 1.04393 -0.11664
 H287 H 0.59435 1.12457 -0.04893
 C288 C 0.34641 0.91355 -0.09846
 C289 C 0.35502 0.88475 -0.11472
 C290 C 0.38734 0.87367 -0.11369
 C291 C 0.41096 0.89132 -0.09640
 C292 C 0.26146 0.82204 -0.17644
 C293 C 0.36994 0.93122 -0.08120
 C294 C 0.33047 0.86663 -0.13219
 C295 C 0.30929 0.85201 -0.14649
 C296 C 0.28380 0.83553 -0.16284
 C297 C 0.40251 0.92033 -0.07995
 H298 H 0.32143 0.92228 -0.09897
 H299 H 0.39427 0.85142 -0.12624
 H300 H 0.43588 0.88249 -0.09618
 H301 H 0.36253 0.95314 -0.06837
 C302 C 0.62939 0.86779 0.09062
 C303 C 0.64449 0.88183 0.11802
 C304 C 0.63516 0.91302 0.12839
 C305 C 0.61113 0.93030 0.11120
 C306 C 0.74204 0.82213 0.17717
 C307 C 0.60535 0.88504 0.07337
 C308 C 0.67038 0.86477 0.13478
 C309 C 0.69253 0.85091 0.14848
 C310 C 0.71899 0.83515 0.16414
 C311 C 0.59612 0.91661 0.08332
 H312 H 0.63642 0.84365 0.08238
 H313 H 0.64683 0.92419 0.14946
 H314 H 0.60491 0.95472 0.11921
 H315 H 0.59398 0.87368 0.05227
   
