data_POSCAR
  _audit_creation_date              2014-09-24
  _audit_creation_method            'ToBaCCo'
  _symmetry_space_group_name_H-M    'P1'
  _symmetry_Int_Tables_number       1
  _symmetry_cell_setting            triclinic
  loop_
  _symmetry_equiv_pos_as_xyz
 x,y,z
_cell_length_a 28.9747
_cell_length_b 28.6354
_cell_length_c 28.5276
_cell_angle_alpha 92.554200
_cell_angle_beta 92.729000
_cell_angle_gamma 92.831000
loop_
  _atom_site_label
  _atom_site_type_symbol
  _atom_site_fract_x
  _atom_site_fract_y
  _atom_site_fract_z
N1 N 0.16961 1.26338 0.13860
 N2 N 0.13520 1.25858 0.16660
 C3 C 0.10652 1.29356 0.16039
 C4 C 0.12355 1.32186 0.12608
 C5 C 0.16401 1.30147 0.11344
 H6 H 0.07497 1.29701 0.17866
 H7 H 0.18708 1.31229 0.08687
 Cu8 Cu 0.12906 1.20543 0.20637
 Cu9 Cu 0.21608 1.21704 0.13335
 Cu10 Cu 0.21510 1.13123 0.21468
 N11 N 0.13435 1.16317 0.25761
 N12 N 0.16837 1.13472 0.26117
 C13 C 0.16246 1.10820 0.29836
 C14 C 0.12221 1.12044 0.31947
 C15 C 0.10559 1.15588 0.29251
 H16 H 0.18528 1.08118 0.30816
 H17 H 0.07445 1.17446 0.29698
 N18 N 0.26474 1.13936 0.17046
 N19 N 0.26515 1.17216 0.13942
 C20 C 0.30180 1.16718 0.11269
 C21 C 0.32560 1.12922 0.12739
 C22 C 0.30111 1.11267 0.16432
 H23 H 0.30982 1.18891 0.08387
 H24 H 0.30808 1.08223 0.18403
 H25 H 0.18125 1.16001 0.15884
 H26 H 0.21234 1.20160 0.20308
 N27 N 0.81970 0.72706 0.14552
 N28 N 0.84592 0.72320 0.18390
 C29 C 0.87589 0.68962 0.17631
 C30 C 0.86838 0.67131 0.13065
 C31 C 0.83215 0.69587 0.11222
 H32 H 0.90186 0.67988 0.20194
 H33 H 0.81707 0.69255 0.07676
 Cu34 Cu 0.84158 0.76487 0.23906
 Cu35 Cu 0.77376 0.77465 0.14074
 Cu36 Cu 0.76976 0.85209 0.23722
 N37 N 0.83664 0.80701 0.29400
 N38 N 0.80753 0.84070 0.29340
 C39 C 0.81524 0.86853 0.33252
 C40 C 0.85210 0.85218 0.35900
 C41 C 0.86417 0.81245 0.33346
 H42 H 0.79815 0.90076 0.33863
 H43 H 0.89314 0.79118 0.34089
 N44 N 0.72858 0.85481 0.18067
 N45 N 0.73008 0.82567 0.14366
 C46 C 0.69921 0.83813 0.11015
 C47 C 0.67739 0.87712 0.12688
 C48 C 0.69680 0.88633 0.17181
 H49 H 0.69387 0.82085 0.07573
 H50 H 0.68862 0.91420 0.19629
 H51 H 0.80990 0.82122 0.18629
 H52 H 0.76418 0.78308 0.21149
 N53 N 0.80937 1.29349 -0.16365
 N54 N 0.83865 1.29349 -0.19740
 C55 C 0.86658 1.33255 -0.19218
 C56 C 0.85450 1.35841 -0.15277
 C57 C 0.81761 1.33257 -0.13591
 H58 H 0.89595 1.33966 -0.21318
 H59 H 0.80127 1.33920 -0.10316
 Cu60 Cu 0.84397 1.23810 -0.23855
 Cu61 Cu 0.77018 1.23826 -0.15254
 Cu62 Cu 0.77318 1.14200 -0.23055
 N63 N 0.84880 1.18257 -0.27933
 N64 N 0.82091 1.14528 -0.27676
 C65 C 0.83347 1.11167 -0.30754
 C66 C 0.87184 1.12860 -0.33035
 C67 C 0.88021 1.17390 -0.31135
 H68 H 0.81684 1.07701 -0.31156
 H69 H 0.90750 1.19878 -0.31953
 N70 N 0.72808 1.14623 -0.18066
 N71 N 0.72710 1.18303 -0.15123
 C72 C 0.69425 1.17505 -0.12045
 C73 C 0.67358 1.13084 -0.13033
 C74 C 0.69585 1.11368 -0.16901
 H75 H 0.68641 1.19958 -0.09248
 H76 H 0.68997 1.07954 -0.18656
 H77 H 0.80939 1.18632 -0.18280
 H78 H 0.76541 1.21298 -0.22179
 N79 N 0.18295 0.72357 -0.14850
 N80 N 0.14616 0.72783 -0.17640
 C81 C 0.11173 0.69853 -0.16322
 C82 C 0.12787 0.67495 -0.12476
 C83 C 0.17331 0.69171 -0.11675
 H84 H 0.07711 0.69574 -0.17934
 H85 H 0.19752 0.68210 -0.08931
 Cu86 Cu 0.14599 0.77329 -0.22538
 Cu87 Cu 0.23940 0.76239 -0.15173
 Cu88 Cu 0.23875 0.84873 -0.23214
 N89 N 0.14636 0.82373 -0.26919
 N90 N 0.18237 0.85317 -0.27099
 C91 C 0.17296 0.88540 -0.30238
 C92 C 0.12845 0.87592 -0.32187
 C93 C 0.11275 0.83616 -0.29984
 H94 H 0.19715 0.91349 -0.31030
 H95 H 0.07913 0.81811 -0.30484
 N96 N 0.29281 0.83881 -0.18997
 N97 N 0.29324 0.80530 -0.15978
 C98 C 0.33219 0.81093 -0.13201
 C99 C 0.35752 0.85022 -0.14492
 C100 C 0.33152 0.86666 -0.18218
 H101 H 0.33973 0.79007 -0.10225
 H102 H 0.33820 0.89897 -0.19943
 H103 H 0.20565 0.81879 -0.17731
 H104 H 0.23056 0.77816 -0.22150
 C105 C 0.47244 1.03570 0.03356
 C106 C 0.50716 1.00851 0.06265
 C107 C 0.53585 0.98282 0.03641
 C108 C 0.52751 0.98690 -0.01695
 C109 C 0.50333 1.06521 0.00272
 C110 C 0.53225 1.03998 -0.02366
 C111 C 0.44753 0.99890 -0.00019
 C112 C 0.47592 0.97354 -0.02646
 H113 H 0.51044 1.01094 0.10059
 H114 H 0.55066 0.96598 -0.03847
 H115 H 0.50382 1.10306 0.00360
 H116 H 0.41022 0.99300 -0.00267
 C117 C 0.03165 0.47027 1.03545
 C118 C 0.06065 0.50593 1.00903
 C119 C 0.03519 0.53531 0.98316
 C120 C -0.01744 0.52678 0.98646
 C121 C 0.00097 0.50102 1.06496
 C122 C -0.02468 0.53070 1.03962
 C123 C -0.00121 0.44563 0.99780
 C124 C -0.02676 0.47476 0.97234
 H125 H 0.09804 0.50882 1.01171
 H126 H -0.03834 0.55053 0.96543
 H127 H 0.00145 0.50103 1.10291
 H128 H -0.00376 0.40794 0.99155
 C129 C 1.03227 0.02945 0.46973
 C130 C 1.00350 0.05986 0.50170
 C131 C 0.97834 0.03552 0.53266
 C132 C 0.98438 -0.01768 0.52886
 C133 C 1.06186 0.00267 0.50452
 C134 C 1.03709 -0.02210 0.53546
 C135 C 0.99769 -0.00737 0.44651
 C136 C 0.97277 -0.03187 0.47701
 H137 H 1.00411 0.09760 0.50063
 H138 H 0.96389 -0.03793 0.55360
 H139 H 1.09924 0.00460 0.50583
 H140 H 0.99277 -0.01306 0.40874
 C141 C 0.12299 0.38354 1.06904
 C142 C 0.10279 0.36045 1.10618
 C143 C 0.06025 0.37567 1.12144
 C144 C 0.03828 0.41184 1.09963
 C145 C 0.05853 0.43492 1.06260
 C146 C 0.10090 0.41963 1.04722
 H147 H 0.15531 0.37320 1.05545
 H148 H 0.04288 0.35915 1.14952
 H149 H 0.00459 0.42072 1.11102
 H150 H 0.11660 0.43424 1.01715
 C151 C -0.06239 0.62247 1.12733
 C152 C -0.10456 0.63542 1.10661
 C153 C -0.12005 0.61396 1.06295
 C154 C -0.09411 0.58001 1.04092
 C155 C -0.05235 0.56680 1.06222
 C156 C -0.03666 0.58873 1.10544
 H157 H -0.04860 0.63869 1.16033
 H158 H -0.15240 0.62294 1.04599
 H159 H -0.10714 0.56353 1.00769
 H160 H -0.00397 0.58042 1.12219
 C161 C -0.07054 0.40507 0.86397
 C162 C -0.11748 0.39698 0.87314
 C163 C -0.13561 0.42214 0.91100
 C164 C -0.10656 0.45156 0.94130
 C165 C -0.05912 0.45609 0.93414
 C166 C -0.04159 0.43405 0.89447
 H167 H -0.05515 0.38655 0.83530
 H168 H -0.17171 0.41729 0.91866
 H169 H -0.12046 0.46804 0.97213
 H170 H -0.00486 0.43691 0.88882
 C171 C 0.12017 0.63046 0.94820
 C172 C 0.10235 0.64078 0.90337
 C173 C 0.06061 0.61775 0.88591
 C174 C 0.03806 0.58412 0.91223
 C175 C 0.05691 0.57293 0.95634
 C176 C 0.09775 0.59704 0.97431
 H177 H 0.15150 0.64820 0.96347
 H178 H 0.04593 0.62484 0.85153
 H179 H 0.00673 0.56587 0.89744
 H180 H 0.11247 0.59015 1.00876
 C181 C 1.12184 0.06240 0.38026
 C182 C 1.10155 0.09976 0.35786
 C183 C 1.05916 0.11470 0.37377
 C184 C 1.03766 0.09270 0.41025
 C185 C 1.05826 0.05585 0.43303
 C186 C 1.10026 0.04045 0.41675
 H187 H 1.15400 0.04895 0.36926
 H188 H 1.04160 0.14278 0.35766
 H189 H 1.00414 0.10402 0.41980
 H190 H 1.11614 0.01044 0.43098
 C191 C 1.12500 -0.05654 0.62855
 C192 C 1.10493 -0.09865 0.64391
 C193 C 1.06108 -0.11443 0.62398
 C194 C 1.03880 -0.08947 0.58910
 C195 C 1.05957 -0.04803 0.57350
 C196 C 1.10257 -0.03159 0.59419
 H197 H 1.15800 -0.04201 0.64308
 H198 H 1.04409 -0.14653 0.63438
 H199 H 1.00582 -0.10329 0.57359
 H200 H 1.11900 0.00099 0.58417
 C201 C 0.91977 -0.14034 0.41471
 C202 C 0.87723 -0.12416 0.39743
 C203 C 0.86298 -0.08111 0.41639
 C204 C 0.89271 -0.05273 0.44684
 C205 C 0.93684 -0.06705 0.45950
 C206 C 0.94948 -0.11172 0.44497
 H207 H 0.93201 -0.17358 0.40258
 H208 H 0.83008 -0.06764 0.40583
 H209 H 0.88263 -0.01810 0.45767
 H210 H 0.98371 -0.12305 0.45429
 C211 C 0.93871 0.12654 0.62029
 C212 C 0.89779 0.10511 0.63605
 C213 C 0.88402 0.05977 0.61751
 C214 C 0.91007 0.03707 0.58402
 C215 C 0.95062 0.05893 0.56843
 C216 C 0.96475 0.10372 0.58736
 H217 H 0.95163 0.16085 0.63357
 H218 H 0.85283 0.04176 0.62816
 H219 H 0.89791 0.00276 0.56974
 H220 H 0.99649 0.12119 0.57730
 C221 C 0.37901 1.12123 0.06109
 C222 C 0.36548 1.10796 0.10542
 C223 C 0.38880 1.07232 0.12734
 C224 C 0.42411 1.04989 0.10513
 C225 C 0.43791 1.06321 0.06076
 C226 C 0.41431 1.09883 0.03889
 H227 H 0.36140 1.14782 0.04255
 H228 H 0.37928 1.06089 0.16135
 H229 H 0.43918 1.02103 0.12236
 H230 H 0.42218 1.10856 0.00381
 C231 C 0.61509 1.06412 -0.12011
 C232 C 0.63734 1.10690 -0.10345
 C233 C 0.62491 1.12676 -0.06018
 C234 C 0.59101 1.10491 -0.03454
 C235 C 0.56840 1.06255 -0.05135
 C236 C 0.58102 1.04209 -0.09421
 H237 H 0.62362 1.04776 -0.15328
 H238 H 0.64157 1.15906 -0.04545
 H239 H 0.58307 1.12097 -0.00100
 H240 H 0.56401 1.00952 -0.10809
 C241 C 0.40679 0.86554 -0.07054
 C242 C 0.39651 0.87591 -0.11755
 C243 C 0.42014 0.91453 -0.13612
 C244 C 0.45009 0.94439 -0.10719
 C245 C 0.45685 0.93593 -0.05947
 C246 C 0.43641 0.89554 -0.04171
 H247 H 0.38962 0.83621 -0.05481
 H248 H 0.41372 0.92315 -0.17231
 H249 H 0.46532 0.97581 -0.12122
 H250 H 0.44097 0.88892 -0.00472
 C251 C 0.63179 0.94883 0.12073
 C252 C 0.64216 0.90445 0.10225
 C253 C 0.61838 0.88677 0.06052
 C254 C 0.58431 0.91253 0.03852
 C255 C 0.57331 0.95626 0.05795
 C256 C 0.59786 0.97434 0.09890
 H257 H 0.64992 0.96431 0.15206
 H258 H 0.62540 0.85274 0.04529
 H259 H 0.56573 0.89768 0.00708
 H260 H 0.59108 1.00852 0.11403
   
