data_POSCAR
  _audit_creation_date              2014-09-24
  _audit_creation_method            'ToBaCCo'
  _symmetry_space_group_name_H-M    'P1'
  _symmetry_Int_Tables_number       1
  _symmetry_cell_setting            triclinic
  loop_
  _symmetry_equiv_pos_as_xyz
 x,y,z
_cell_length_a 48.8345
_cell_length_b 48.7609
_cell_length_c 56.2802
_cell_angle_alpha 90.056100
_cell_angle_beta 89.966500
_cell_angle_gamma 120.217500
loop_
  _atom_site_label
  _atom_site_type_symbol
  _atom_site_fract_x
  _atom_site_fract_y
  _atom_site_fract_z
O1 O 0.03040 0.53712 1.27271
 O2 O -0.03164 0.50653 1.22671
 O3 O -0.03125 0.50663 1.27297
 O4 O 0.03002 0.53696 1.22643
 O5 O 0.02986 0.49165 1.22671
 O6 O -0.03232 0.46087 1.27252
 O7 O -0.03177 0.46128 1.22624
 O8 O 0.02934 0.49136 1.27297
 Cu9 Cu -0.00055 0.52637 1.24971
 Cu10 Cu -0.00129 0.47173 1.24960
 C11 C 0.04039 0.51943 1.28081
 C12 C -0.04229 0.47869 1.21845
 C13 C -0.04232 0.47853 1.28069
 C14 C 0.04048 0.51952 1.21863
 O15 O 0.46112 0.49221 1.27360
 O16 O 0.49218 0.46147 1.22747
 O17 O 0.49215 0.46172 1.27376
 O18 O 0.46125 0.49205 1.22732
 O19 O 0.50620 0.53778 1.22766
 O20 O 0.53756 0.50699 1.27337
 O21 O 0.53714 0.50719 1.22708
 O22 O 0.50649 0.53743 1.27396
 Cu23 Cu 0.47215 0.47231 1.25054
 Cu24 Cu 0.52637 0.52690 1.25052
 C25 C 0.47849 0.52005 1.28183
 C26 C 0.51992 0.47911 1.21928
 C27 C 0.52018 0.47914 1.28148
 C28 C 0.47841 0.52014 1.21956
 O29 O 0.50632 0.96811 1.27370
 O30 O 0.53717 1.03027 1.22774
 O31 O 0.53697 1.02987 1.27404
 O32 O 0.50637 0.96850 1.22743
 O33 O 0.46083 0.96772 1.22792
 O34 O 0.49196 1.03007 1.27371
 O35 O 0.49162 1.02948 1.22745
 O36 O 0.46131 0.96832 1.27421
 Cu37 Cu 0.52624 0.99922 1.25072
 Cu38 Cu 0.47190 0.99886 1.25083
 C39 C 0.47858 0.95762 1.28198
 C40 C 0.51963 1.04041 1.21962
 C41 C 0.51976 1.04060 1.28187
 C42 C 0.47831 0.95755 1.21972
 O43 O 0.96899 0.50629 0.72687
 O44 O 1.03136 0.53712 0.77256
 O45 O 1.03065 0.53678 0.72626
 O46 O 0.96968 0.50647 0.77316
 O47 O 0.96874 0.46077 0.77268
 O48 O 1.03064 0.49159 0.72654
 O49 O 1.03041 0.49141 0.77282
 O50 O 0.96896 0.46104 0.72638
 Cu51 Cu 1.00022 0.52621 0.74972
 Cu52 Cu 0.99963 0.47166 0.74959
 C53 C 0.95839 0.47845 0.71870
 C54 C 1.04146 0.51950 0.78061
 C55 C 1.04120 0.51943 0.71835
 C56 C 0.95871 0.47839 0.78092
 O57 O 0.49264 0.46119 0.72710
 O58 O 0.46178 0.49228 0.77298
 O59 O 0.46200 0.49206 0.72670
 O60 O 0.49259 0.46160 0.77337
 O61 O 0.53811 0.50676 0.77296
 O62 O 0.50711 0.53764 0.72701
 O63 O 0.50730 0.53746 0.77329
 O64 O 0.53774 0.50677 0.72669
 Cu65 Cu 0.47271 0.47223 0.75004
 Cu66 Cu 0.52711 0.52671 0.74998
 C67 C 0.52041 0.47868 0.71895
 C68 C 0.47929 0.52013 0.78109
 C69 C 0.47931 0.52010 0.71889
 C70 C 0.52062 0.47896 0.78113
 O71 O 0.53718 0.03013 0.72677
 O72 O 0.50652 -0.03220 0.77251
 O73 O 0.50646 -0.03161 0.72622
 O74 O 0.53705 0.02955 0.77305
 O75 O 0.49190 0.02959 0.77288
 O76 O 0.46092 -0.03249 0.72681
 O77 O 0.46138 -0.03216 0.77308
 O78 O 0.49159 0.02926 0.72660
 Cu79 Cu 0.52634 -0.00100 0.74962
 Cu80 Cu 0.47191 -0.00149 0.74986
 C81 C 0.51960 0.04027 0.71876
 C82 C 0.47876 -0.04274 0.78073
 C83 C 0.47839 -0.04264 0.71847
 C84 C 0.51972 0.04010 0.78095
 O85 O 0.38087 0.65834 0.98038
 O86 O 0.37963 0.71043 0.97296
 C87 C 0.36479 0.72490 0.96835
 O88 O 0.34065 0.72050 0.98012
 O89 O 0.28858 0.66690 0.97258
 C90 C 0.27403 0.63744 0.96807
 O91 O 0.27825 0.61771 0.97998
 O92 O 0.33173 0.61928 0.97282
 C93 C 0.36117 0.63424 0.96844
 O94 O 0.37918 0.66711 1.02762
 O95 O 0.38069 0.72059 1.02021
 C96 C 0.36088 0.72485 1.03197
 O97 O 0.33150 0.71025 1.02734
 O98 O 0.27806 0.65801 1.01981
 C99 C 0.27364 0.63393 1.03169
 O100 O 0.28817 0.61909 1.02726
 O101 O 0.34024 0.61786 1.02010
 C102 C 0.36423 0.63764 1.03207
 Cr103 Cr 0.37835 0.68825 1.00028
 Cr104 Cr 0.31057 0.68805 0.99997
 Cr105 Cr 0.31047 0.62023 1.00004
 O106 O 0.33313 0.66551 1.00010
 O107 O 0.61872 0.34022 0.98016
 O108 O 0.61982 0.28796 0.97305
 C109 C 0.63469 0.27349 0.96851
 O110 O 0.65884 0.27799 0.98029
 O111 O 0.71115 0.33153 0.97312
 C112 C 0.72569 0.36096 0.96849
 O113 O 0.72128 0.38075 0.98018
 O114 O 0.66790 0.37941 0.97297
 C115 C 0.63850 0.36442 0.96839
 O116 O 0.61998 0.33173 1.02748
 O117 O 0.61837 0.27811 1.02037
 C118 C 0.63799 0.27362 1.03217
 O119 O 0.66740 0.28805 1.02761
 O120 O 0.72102 0.34025 1.02044
 C121 C 0.72563 0.36456 1.03213
 O122 O 0.71135 0.37958 1.02748
 O123 O 0.65930 0.38090 1.02028
 C124 C 0.63504 0.36118 1.03203
 Cr125 Cr 0.62100 0.31039 1.00027
 Cr126 Cr 0.68872 0.31034 1.00036
 Cr127 Cr 0.68906 0.37838 1.00023
 O128 O 0.66626 0.33304 1.00029
 O129 O 0.65869 0.38031 0.51986
 O130 O 0.71064 0.37893 0.52729
 C131 C 0.72508 0.36403 0.53177
 O132 O 0.72069 0.33995 0.51988
 O133 O 0.66709 0.28775 0.52708
 C134 C 0.63766 0.27321 0.53153
 O135 O 0.61802 0.27756 0.51964
 O136 O 0.61957 0.33106 0.52706
 C137 C 0.63453 0.36050 0.53164
 O138 O 0.66766 0.37910 0.47262
 O139 O 0.72098 0.38046 0.48005
 C140 C 0.72526 0.36073 0.46815
 O141 O 0.71066 0.33126 0.47259
 O142 O 0.65845 0.27768 0.47979
 C143 C 0.63442 0.27333 0.46791
 O144 O 0.61961 0.28786 0.47241
 O145 O 0.61842 0.34001 0.47982
 C146 C 0.63826 0.36419 0.46805
 Cr147 Cr 0.68862 0.37795 0.49995
 Cr148 Cr 0.68836 0.31003 0.49983
 Cr149 Cr 0.62065 0.31000 0.49974
 O150 O 0.66587 0.33266 0.49984
 O151 O 0.33990 0.61788 0.52016
 O152 O 0.28773 0.61901 0.52727
 C153 C 0.27336 0.63397 0.53187
 O154 O 0.27793 0.65822 0.52016
 O155 O 0.33143 0.71060 0.52719
 C156 C 0.36082 0.72508 0.53182
 O157 O 0.38052 0.72058 0.52012
 O158 O 0.37919 0.66712 0.52721
 C159 C 0.36417 0.63770 0.53184
 O160 O 0.33137 0.61906 0.47284
 O161 O 0.27788 0.61756 0.47995
 C162 C 0.27335 0.63721 0.46822
 O163 O 0.28774 0.66665 0.47281
 O164 O 0.33990 0.72035 0.47986
 C165 C 0.36418 0.72500 0.46817
 O166 O 0.37919 0.71071 0.47279
 O167 O 0.38047 0.65856 0.47987
 C168 C 0.36075 0.63419 0.46820
 Cr169 Cr 0.31011 0.62017 0.50005
 Cr170 Cr 0.31014 0.68807 0.50001
 Cr171 Cr 0.37806 0.68834 0.50000
 O172 O 0.33277 0.66553 0.50002
 C173 C 0.44320 0.55447 0.33607
 C174 C 0.47430 0.57323 0.32752
 C175 C 0.48590 0.56199 0.30956
 C176 C 0.46673 0.53157 0.29970
 C177 C 0.43555 0.51287 0.30827
 C178 C 0.42395 0.52421 0.32615
 C179 C 0.43093 0.56633 0.35533
 C180 C 0.41114 0.54571 0.37319
 C181 C 0.39960 0.55681 0.39129
 C182 C 0.40772 0.58883 0.39205
 C183 C 0.42756 0.60950 0.37426
 C184 C 0.43896 0.59837 0.35607
 C185 C 0.39561 0.60062 0.41138
 C186 C 0.41568 0.62977 0.42257
 C187 C 0.40439 0.64066 0.44100
 C188 C 0.37270 0.62273 0.44857
 C189 C 0.35258 0.59367 0.43721
 C190 C 0.36394 0.58271 0.41889
 H191 H 0.48991 0.59647 0.33500
 H192 H 0.51005 0.57715 0.30357
 H193 H 0.41991 0.48940 0.30114
 H194 H 0.39972 0.50935 0.33204
 H195 H 0.40495 0.52104 0.37341
 H196 H 0.38475 0.54044 0.40495
 H197 H 0.43386 0.63420 0.37421
 H198 H 0.45372 0.61477 0.34240
 H199 H 0.44028 0.64393 0.41732
 H200 H 0.42053 0.66316 0.44932
 H201 H 0.32803 0.57928 0.44255
 H202 H 0.34784 0.56033 0.41041
 C203 C 0.44406 0.88760 0.33611
 C204 C 0.47422 0.89863 0.32614
 C205 C 0.48559 0.92167 0.30829
 C206 C 0.46702 0.93423 0.29982
 C207 C 0.43670 0.92296 0.30972
 C208 C 0.42544 0.90002 0.32766
 C209 C 0.43217 0.86338 0.35534
 C210 C 0.40015 0.83930 0.35611
 C211 C 0.38899 0.81669 0.37428
 C212 C 0.40962 0.81753 0.39202
 C213 C 0.44164 0.84151 0.39124
 C214 C 0.45277 0.86421 0.37316
 C215 C 0.39780 0.79357 0.41135
 C216 C 0.41558 0.77975 0.41881
 C217 C 0.40459 0.75737 0.43713
 C218 C 0.37565 0.74845 0.44853
 C219 C 0.35785 0.76226 0.44101
 C220 C 0.36876 0.78449 0.42258
 H221 H 0.48897 0.88919 0.33196
 H222 H 0.50897 0.92951 0.30112
 H223 H 0.42165 0.93201 0.30381
 H224 H 0.40228 0.89238 0.33518
 H225 H 0.38376 0.83763 0.34246
 H226 H 0.36428 0.79822 0.37425
 H227 H 0.45799 0.84304 0.40488
 H228 H 0.47743 0.88276 0.37336
 H229 H 0.43787 0.78601 0.41030
 H230 H 0.41888 0.74717 0.44244
 H231 H 0.33545 0.75591 0.44936
 H232 H 0.35471 0.79498 0.41736
 C233 C 0.11143 0.55460 0.33578
 C234 C 0.09745 0.52296 0.32803
 C235 C 0.07454 0.51160 0.31010
 C236 C 0.06499 0.53158 0.29959
 C237 C 0.07901 0.56324 0.30732
 C238 C 0.10203 0.57464 0.32518
 C239 C 0.13557 0.56661 0.35498
 C240 C 0.16272 0.59686 0.35335
 C241 C 0.18531 0.60825 0.37151
 C242 C 0.18120 0.58969 0.39177
 C243 C 0.15403 0.55940 0.39335
 C244 C 0.13151 0.54797 0.37515
 C245 C 0.20504 0.60193 0.41123
 C246 C 0.21322 0.58169 0.42307
 C247 C 0.23537 0.59312 0.44153
 C248 C 0.24996 0.62511 0.44856
 C249 C 0.24191 0.64540 0.43662
 C250 C 0.21968 0.63393 0.41821
 H251 H 0.10449 0.50707 0.33569
 H252 H 0.06424 0.48710 0.30453
 H253 H 0.07216 0.57925 0.29961
 H254 H 0.11212 0.59902 0.33097
 H255 H 0.16672 0.61156 0.33786
 H256 H 0.20623 0.63145 0.36955
 H257 H 0.14987 0.54472 0.40888
 H258 H 0.11059 0.52476 0.37706
 H259 H 0.20275 0.55704 0.41789
 H260 H 0.24115 0.57688 0.45023
 H261 H 0.25260 0.67015 0.44161
 H262 H 0.21359 0.65005 0.40969
 C263 C 0.55631 0.44407 0.33615
 C264 C 0.52463 0.42603 0.32862
 C265 C 0.51295 0.43732 0.31079
 C266 C 0.53265 0.46696 0.30014
 C267 C 0.56435 0.48496 0.30760
 C268 C 0.57605 0.47362 0.32537
 C269 C 0.56864 0.43222 0.35528
 C270 C 0.58955 0.45311 0.37255
 C271 C 0.60104 0.44198 0.39061
 C272 C 0.59180 0.40968 0.39188
 C273 C 0.57091 0.38877 0.37464
 C274 C 0.55950 0.39992 0.35652
 C275 C 0.60378 0.39785 0.41121
 C276 C 0.58331 0.36931 0.42295
 C277 C 0.59449 0.35838 0.44138
 C278 C 0.62644 0.37568 0.44841
 C279 C 0.64696 0.40413 0.43652
 C280 C 0.63572 0.41512 0.41817
 H281 H 0.50868 0.40339 0.33679
 H282 H 0.48838 0.42293 0.30551
 H283 H 0.58019 0.50782 0.29967
 H284 H 0.60069 0.48787 0.33050
 H285 H 0.59662 0.47802 0.37235
 H286 H 0.61674 0.45856 0.40386
 H287 H 0.56373 0.36383 0.37499
 H288 H 0.54385 0.38331 0.34327
 H289 H 0.55850 0.35567 0.41813
 H290 H 0.57805 0.33636 0.45014
 H291 H 0.67172 0.41801 0.44143
 H292 H 0.65212 0.43701 0.40924
 C293 C 0.55451 0.11080 0.33586
 C294 C 0.57310 0.09836 0.32737
 C295 C 0.56176 0.07536 0.30947
 C296 C 0.53140 0.06406 0.29965
 C297 C 0.51288 0.07668 0.30815
 C298 C 0.52433 0.09978 0.32597
 C299 C 0.56643 0.13502 0.35508
 C300 C 0.54588 0.13414 0.37297
 C301 C 0.55704 0.15687 0.39105
 C302 C 0.58903 0.18090 0.39174
 C303 C 0.60963 0.18179 0.37393
 C304 C 0.59844 0.15916 0.35576
 C305 C 0.60086 0.20486 0.41105
 C306 C 0.62984 0.21384 0.42231
 C307 C 0.64074 0.23605 0.44076
 C308 C 0.62298 0.24992 0.44825
 C309 C 0.59411 0.24112 0.43681
 C310 C 0.58313 0.21876 0.41847
 H311 H 0.59627 0.10601 0.33485
 H312 H 0.57678 0.06626 0.30351
 H313 H 0.48947 0.06882 0.30103
 H314 H 0.50961 0.10926 0.33183
 H315 H 0.52124 0.11555 0.37323
 H316 H 0.54074 0.15533 0.40475
 H317 H 0.63431 0.20030 0.37385
 H318 H 0.61477 0.16083 0.34205
 H319 H 0.64385 0.20328 0.41709
 H320 H 0.66310 0.24233 0.44915
 H321 H 0.57986 0.25138 0.44211
 H322 H 0.56088 0.21254 0.40992
 C323 C 0.88665 0.44322 0.33558
 C324 C 0.90066 0.47489 0.32797
 C325 C 0.92356 0.48630 0.31004
 C326 C 0.93305 0.46631 0.29941
 C327 C 0.91897 0.43460 0.30699
 C328 C 0.89596 0.42317 0.32484
 C329 C 0.86261 0.43120 0.35480
 C330 C 0.83533 0.40106 0.35307
 C331 C 0.81281 0.38966 0.37127
 C332 C 0.81714 0.40811 0.39165
 C333 C 0.84445 0.43828 0.39335
 C334 C 0.86690 0.44972 0.37511
 C335 C 0.79339 0.39590 0.41113
 C336 C 0.78538 0.41620 0.42309
 C337 C 0.76329 0.40480 0.44158
 C338 C 0.74861 0.37278 0.44850
 C339 C 0.75649 0.35243 0.43643
 C340 C 0.77866 0.36387 0.41800
 H341 H 0.89368 0.49077 0.33575
 H342 H 0.93391 0.51083 0.30458
 H343 H 0.92577 0.41861 0.29917
 H344 H 0.88582 0.39875 0.33053
 H345 H 0.83119 0.38646 0.33746
 H346 H 0.79179 0.36655 0.36924
 H347 H 0.84876 0.45286 0.40899
 H348 H 0.88793 0.47284 0.37708
 H349 H 0.79593 0.44088 0.41799
 H350 H 0.75761 0.42108 0.45038
 H351 H 0.74572 0.32766 0.44134
 H352 H 0.78464 0.34772 0.40936
 C353 C 0.55521 0.44362 1.16411
 C354 C 0.52575 0.42367 1.17492
 C355 C 0.51435 0.43517 1.19284
 C356 C 0.53218 0.46687 1.20045
 C357 C 0.56173 0.48679 1.18977
 C358 C 0.57308 0.47531 1.17179
 C359 C 0.56712 0.43146 1.14483
 C360 C 0.59943 0.44083 1.14344
 C361 C 0.61059 0.42945 1.12525
 C362 C 0.58970 0.40835 1.10810
 C363 C 0.55742 0.39894 1.10949
 C364 C 0.54627 0.41040 1.12761
 C365 C 0.60151 0.39622 1.08877
 C366 C 0.58423 0.36419 1.08188
 C367 C 0.59518 0.35279 1.06358
 C368 C 0.62361 0.37321 1.05164
 C369 C 0.64092 0.40526 1.05859
 C370 C 0.63003 0.41660 1.07698
 H371 H 0.51161 0.39902 1.16970
 H372 H 0.49157 0.41915 1.20078
 H373 H 0.57600 0.51136 1.19515
 H374 H 0.59565 0.49143 1.16362
 H375 H 0.61604 0.45660 1.15663
 H376 H 0.63552 0.43678 1.12483
 H377 H 0.54083 0.38310 1.09631
 H378 H 0.52136 0.40315 1.12790
 H379 H 0.56238 0.34783 1.09084
 H380 H 0.58128 0.32797 1.05874
 H381 H 0.66292 0.42164 1.04981
 H382 H 0.64368 0.44147 1.08174
 C383 C 0.88777 0.44437 1.16434
 C384 C 0.89895 0.47462 1.17428
 C385 C 0.92197 0.48594 1.19213
 C386 C 0.93436 0.46721 1.20062
 C387 C 0.92292 0.43680 1.19075
 C388 C 0.90001 0.42559 1.17282
 C389 C 0.86359 0.43254 1.14511
 C390 C 0.83941 0.40051 1.14438
 C391 C 0.81685 0.38938 1.12619
 C392 C 0.81786 0.41004 1.10839
 C393 C 0.84191 0.44206 1.10914
 C394 C 0.86456 0.45317 1.12725
 C395 C 0.79399 0.39823 1.08902
 C396 C 0.78029 0.41610 1.08148
 C397 C 0.75799 0.40510 1.06313
 C398 C 0.74903 0.37607 1.05178
 C399 C 0.76273 0.35819 1.05937
 C400 C 0.78489 0.36911 1.07783
 H401 H 0.88966 0.48950 1.16843
 H402 H 0.92995 0.50940 1.19928
 H403 H 0.93184 0.42163 1.19668
 H404 H 0.89225 0.40236 1.16532
 H405 H 0.83764 0.38411 1.15807
 H406 H 0.79832 0.36468 1.12624
 H407 H 0.84355 0.45843 1.09546
 H408 H 0.88318 0.47783 1.12703
 H409 H 0.78660 0.43846 1.08996
 H410 H 0.74787 0.41945 1.05776
 H411 H 0.75634 0.33571 1.05106
 H412 H 0.79528 0.35499 1.08312
 C413 C 0.55506 0.11152 1.16463
 C414 C 0.52347 0.09764 1.17234
 C415 C 0.51202 0.07471 1.19029
 C416 C 0.53187 0.06504 1.20084
 C417 C 0.56349 0.07897 1.19315
 C418 C 0.57497 0.10201 1.17529
 C419 C 0.56715 0.13567 1.14543
 C420 C 0.59742 0.16280 1.14706
 C421 C 0.60887 0.18541 1.12889
 C422 C 0.59037 0.18136 1.10863
 C423 C 0.56007 0.15422 1.10703
 C424 C 0.54858 0.13167 1.12524
 C425 C 0.60265 0.20524 1.08917
 C426 C 0.58248 0.21347 1.07730
 C427 C 0.59394 0.23565 1.05884
 C428 C 0.62588 0.25022 1.05184
 C429 C 0.64611 0.24214 1.06382
 C430 C 0.63461 0.21988 1.08222
 H431 H 0.50768 0.10476 1.16465
 H432 H 0.48756 0.06448 1.19582
 H433 H 0.57939 0.07204 1.20089
 H434 H 0.59932 0.11202 1.16953
 H435 H 0.61209 0.16675 1.16256
 H436 H 0.63208 0.20630 1.13087
 H437 H 0.54542 0.15009 1.09149
 H438 H 0.52536 0.11078 1.12331
 H439 H 0.55787 0.20303 1.08245
 H440 H 0.57775 0.24146 1.05012
 H441 H 0.67081 0.25281 1.05885
 H442 H 0.65068 0.21376 1.09076
 C443 C 0.44276 0.55540 1.16474
 C444 C 0.42497 0.52373 1.17237
 C445 C 0.43643 0.51234 1.19028
 C446 C 0.46602 0.53234 1.20088
 C447 C 0.48378 0.56405 1.19328
 C448 C 0.47223 0.57547 1.17545
 C449 C 0.43077 0.56739 1.14553
 C450 C 0.43379 0.59754 1.14725
 C451 C 0.42270 0.60891 1.12905
 C452 C 0.40845 0.59043 1.10869
 C453 C 0.40543 0.56025 1.10702
 C454 C 0.41640 0.54884 1.12525
 C455 C 0.39695 0.60262 1.08921
 C456 C 0.36857 0.58228 1.07723
 C457 C 0.35795 0.59363 1.05872
 C458 C 0.37542 0.62565 1.05179
 C459 C 0.40371 0.64605 1.06388
 C460 C 0.41437 0.63465 1.08234
 H461 H 0.40201 0.50783 1.16463
 H462 H 0.42215 0.48781 1.19575
 H463 H 0.50667 0.58006 1.20106
 H464 H 0.48662 0.59989 1.16975
 H465 H 0.44436 0.61218 1.16282
 H466 H 0.42491 0.63203 1.13107
 H467 H 0.39507 0.54564 1.09140
 H468 H 0.41419 0.52572 1.12328
 H469 H 0.35433 0.55760 1.08234
 H470 H 0.33594 0.57732 1.04991
 H471 H 0.41781 0.67081 1.05895
 H472 H 0.43656 0.65083 1.09097
 C473 C 0.11160 0.55449 1.16376
 C474 C 0.09807 0.57253 1.17134
 C475 C 0.07513 0.56128 1.18924
 C476 C 0.06512 0.53167 1.19992
 C477 C 0.07871 0.51367 1.19241
 C478 C 0.10173 0.52498 1.17457
 C479 C 0.13574 0.56628 1.14455
 C480 C 0.13555 0.54534 1.12728
 C481 C 0.15817 0.55641 1.10916
 C482 C 0.18140 0.58869 1.10783
 C483 C 0.18161 0.60966 1.12506
 C484 C 0.15907 0.59858 1.14325
 C485 C 0.20524 0.60044 1.08848
 C486 C 0.21344 0.62892 1.07667
 C487 C 0.23562 0.63979 1.05823
 C488 C 0.25020 0.62247 1.05128
 C489 C 0.24212 0.59407 1.06324
 C490 C 0.21983 0.58314 1.08158
 H491 H 0.10483 0.59515 1.16314
 H492 H 0.06502 0.57566 1.19455
 H493 H 0.07164 0.49084 1.20036
 H494 H 0.11204 0.51073 1.16940
 H495 H 0.11757 0.52044 1.12752
 H496 H 0.15714 0.53979 1.09591
 H497 H 0.19951 0.63459 1.12467
 H498 H 0.16018 0.61523 1.15649
 H499 H 0.20233 0.64257 1.08145
 H500 H 0.24132 0.66178 1.04943
 H501 H 0.25295 0.58018 1.05838
 H502 H 0.21423 0.56130 1.09057
 C503 C 0.44252 0.88643 1.16471
 C504 C 0.42268 0.89591 1.17557
 C505 C 0.43427 0.91891 1.19347
 C506 C 0.46595 0.93288 1.20098
 C507 C 0.48574 0.92325 1.19025
 C508 C 0.47417 0.90032 1.17229
 C509 C 0.43030 0.86234 1.14541
 C510 C 0.43947 0.83928 1.14400
 C511 C 0.42814 0.81679 1.12573
 C512 C 0.40730 0.81678 1.10853
 C513 C 0.39805 0.83975 1.10996
 C514 C 0.40947 0.86231 1.12816
 C515 C 0.39535 0.79301 1.08908
 C516 C 0.36343 0.77816 1.08208
 C517 C 0.35220 0.75595 1.06364
 C518 C 0.37271 0.74820 1.05168
 C519 C 0.40465 0.76303 1.05873
 C520 C 0.41581 0.78513 1.07726
 H521 H 0.39806 0.88532 1.17040
 H522 H 0.41836 0.92568 1.20146
 H523 H 0.51030 0.93365 1.19556
 H524 H 0.49018 0.89387 1.16406
 H525 H 0.45508 0.83834 1.15722
 H526 H 0.43532 0.79910 1.12526
 H527 H 0.38240 0.84062 1.09674
 H528 H 0.40239 0.88008 1.12849
 H529 H 0.34703 0.78349 1.09106
 H530 H 0.32745 0.74493 1.05871
 H531 H 0.42108 0.75760 1.04993
 H532 H 0.44061 0.79644 1.08211
 C533 C 0.55538 0.44273 0.66401
 C534 C 0.52593 0.42289 0.67485
 C535 C 0.51464 0.43454 0.69271
 C536 C 0.53258 0.46628 0.70022
 C537 C 0.56213 0.48607 0.68951
 C538 C 0.57338 0.47444 0.67159
 C539 C 0.56715 0.43045 0.64477
 C540 C 0.59939 0.43957 0.64343
 C541 C 0.61044 0.42815 0.62522
 C542 C 0.58949 0.40726 0.60800
 C543 C 0.55726 0.39806 0.60936
 C544 C 0.54622 0.40957 0.62751
 C545 C 0.60120 0.39522 0.58861
 C546 C 0.58388 0.36322 0.58166
 C547 C 0.59476 0.35191 0.56326
 C548 C 0.62314 0.37241 0.55131
 C549 C 0.64049 0.40441 0.55833
 C550 C 0.62967 0.41567 0.57681
 H551 H 0.51172 0.39823 0.66968
 H552 H 0.49185 0.41863 0.70068
 H553 H 0.57648 0.51067 0.69483
 H554 H 0.59596 0.49046 0.66338
 H555 H 0.61602 0.45521 0.65667
 H556 H 0.63533 0.43530 0.62480
 H557 H 0.54066 0.38237 0.59612
 H558 H 0.52136 0.40252 0.62778
 H559 H 0.56204 0.34684 0.59063
 H560 H 0.58084 0.32711 0.55836
 H561 H 0.66246 0.42084 0.54953
 H562 H 0.64334 0.44052 0.58163
 C563 C 0.55487 0.11150 0.66398
 C564 C 0.52327 0.09754 0.67166
 C565 C 0.51187 0.07457 0.68956
 C566 C 0.53179 0.06496 0.70007
 C567 C 0.56341 0.07899 0.69241
 C568 C 0.57484 0.10207 0.67460
 C569 C 0.56689 0.13563 0.64480
 C570 C 0.59704 0.16287 0.64651
 C571 C 0.60847 0.18544 0.62834
 C572 C 0.59004 0.18120 0.60800
 C573 C 0.55985 0.15394 0.60633
 C574 C 0.54838 0.13145 0.62455
 C575 C 0.60232 0.20499 0.58853
 C576 C 0.58213 0.21314 0.57660
 C577 C 0.59359 0.23525 0.55813
 C578 C 0.62555 0.24983 0.55118
 C579 C 0.64578 0.24182 0.56320
 C580 C 0.63429 0.21962 0.58163
 H581 H 0.50744 0.10461 0.66398
 H582 H 0.48739 0.06425 0.69509
 H583 H 0.57936 0.07209 0.70013
 H584 H 0.59920 0.11217 0.66884
 H585 H 0.61164 0.16693 0.66208
 H586 H 0.63160 0.20643 0.63035
 H587 H 0.54528 0.14970 0.59072
 H588 H 0.52524 0.11044 0.62258
 H589 H 0.55750 0.20267 0.58174
 H590 H 0.57740 0.24103 0.54936
 H591 H 0.67050 0.25251 0.55826
 H592 H 0.65035 0.21354 0.59023
 C593 C 0.88706 0.44343 0.66396
 C594 C 0.90064 0.42541 0.67144
 C595 C 0.92365 0.43668 0.68930
 C596 C 0.93368 0.46627 0.70004
 C597 C 0.92004 0.48425 0.69263
 C598 C 0.89696 0.47294 0.67484
 C599 C 0.86286 0.43163 0.64478
 C600 C 0.86295 0.45259 0.62760
 C601 C 0.84030 0.44151 0.60950
 C602 C 0.81712 0.40921 0.60810
 C603 C 0.81701 0.38823 0.62525
 C604 C 0.83958 0.39932 0.64342
 C605 C 0.79327 0.39744 0.58874
 C606 C 0.78510 0.36897 0.57687
 C607 C 0.76298 0.35812 0.55840
 C608 C 0.74840 0.37543 0.55146
 C609 C 0.75643 0.40381 0.56348
 C610 C 0.77867 0.41472 0.58186
 H611 H 0.89388 0.40280 0.66320
 H612 H 0.93379 0.42230 0.69453
 H613 H 0.92712 0.50708 0.70063
 H614 H 0.88662 0.48718 0.66975
 H615 H 0.88088 0.47750 0.62789
 H616 H 0.84126 0.45814 0.59632
 H617 H 0.79915 0.36328 0.62481
 H618 H 0.83854 0.38266 0.65659
 H619 H 0.79622 0.35533 0.58163
 H620 H 0.75733 0.33615 0.54955
 H621 H 0.74561 0.41770 0.55863
 H622 H 0.78423 0.43655 0.59088
 C623 C 0.44409 0.55578 0.66393
 C624 C 0.42613 0.52411 0.67159
 C625 C 0.43747 0.51257 0.68951
 C626 C 0.46707 0.53241 0.70014
 C627 C 0.48499 0.56410 0.69254
 C628 C 0.47361 0.57565 0.67468
 C629 C 0.43220 0.56798 0.64471
 C630 C 0.45304 0.58892 0.62744
 C631 C 0.44190 0.60037 0.60934
 C632 C 0.40963 0.59105 0.60802
 C633 C 0.38876 0.57010 0.62524
 C634 C 0.39993 0.55874 0.64340
 C635 C 0.39781 0.60307 0.58868
 C636 C 0.36925 0.58262 0.57695
 C637 C 0.35833 0.59384 0.55853
 C638 C 0.37565 0.62583 0.55148
 C639 C 0.40411 0.64632 0.56335
 C640 C 0.41509 0.63505 0.58169
 H641 H 0.40351 0.50805 0.66346
 H642 H 0.42313 0.48801 0.69489
 H643 H 0.50782 0.58005 0.70044
 H644 H 0.48781 0.60029 0.66947
 H645 H 0.47793 0.59607 0.62767
 H646 H 0.45845 0.61609 0.59611
 H647 H 0.36385 0.56286 0.62487
 H648 H 0.38334 0.54307 0.65664
 H649 H 0.35559 0.55779 0.58178
 H650 H 0.33631 0.57740 0.54980
 H651 H 0.41802 0.67111 0.55843
 H652 H 0.43698 0.65145 0.59059
 C653 C 0.44320 0.88748 0.66417
 C654 C 0.47435 0.90021 0.67262
 C655 C 0.48592 0.92310 0.69062
 C656 C 0.46666 0.93401 0.70059
 C657 C 0.43541 0.92112 0.69213
 C658 C 0.42385 0.89814 0.67422
 C659 C 0.43098 0.86334 0.64487
 C660 C 0.41110 0.86400 0.62708
 C661 C 0.39960 0.84135 0.60893
 C662 C 0.40782 0.81759 0.60807
 C663 C 0.42774 0.81693 0.62578
 C664 C 0.43912 0.83949 0.64401
 C665 C 0.39571 0.79366 0.58870
 C666 C 0.41581 0.78485 0.57741
 C667 C 0.40451 0.76262 0.55895
 C668 C 0.37279 0.74855 0.55146
 C669 C 0.35264 0.75721 0.56291
 C670 C 0.36401 0.77959 0.58126
 H671 H 0.49003 0.89286 0.66504
 H672 H 0.51012 0.93241 0.69652
 H673 H 0.41970 0.92868 0.69936
 H674 H 0.39957 0.88845 0.66840
 H675 H 0.40483 0.88237 0.62695
 H676 H 0.38468 0.84273 0.59532
 H677 H 0.43412 0.79863 0.62575
 H678 H 0.45394 0.83797 0.65763
 H679 H 0.44043 0.79553 0.58261
 H680 H 0.42066 0.75647 0.55056
 H681 H 0.32807 0.74682 0.55763
 H682 H 0.34789 0.78564 0.58982
 C683 C 0.11102 0.55396 0.66409
 C684 C 0.09872 0.57266 0.67267
 C685 C 0.07585 0.56139 0.69064
 C686 C 0.06451 0.53098 0.70047
 C687 C 0.07694 0.51233 0.69186
 C688 C 0.09992 0.52371 0.67397
 C689 C 0.13518 0.56585 0.64482
 C690 C 0.13430 0.54524 0.62694
 C691 C 0.15696 0.55638 0.60883
 C692 C 0.18094 0.58843 0.60808
 C693 C 0.18183 0.60909 0.62588
 C694 C 0.15927 0.59792 0.64407
 C695 C 0.20486 0.60026 0.58872
 C696 C 0.21395 0.62936 0.57754
 C697 C 0.23615 0.64030 0.55909
 C698 C 0.24992 0.62246 0.55152
 C699 C 0.24099 0.59346 0.56287
 C700 C 0.21864 0.58245 0.58120
 H701 H 0.10640 0.59588 0.66522
 H702 H 0.06689 0.57651 0.69666
 H703 H 0.06905 0.48887 0.69896
 H704 H 0.10925 0.50888 0.66805
 H705 H 0.11575 0.52055 0.62672
 H706 H 0.15540 0.54001 0.59516
 H707 H 0.20029 0.63382 0.62593
 H708 H 0.16097 0.61432 0.65776
 H709 H 0.20350 0.64345 0.58281
 H710 H 0.24251 0.66275 0.55078
 H711 H 0.25116 0.57914 0.55752
 H712 H 0.21236 0.56011 0.58968
 C713 C 0.44365 0.55525 0.83613
 C714 C 0.42376 0.52579 0.82526
 C715 C 0.43531 0.51445 0.80736
 C716 C 0.46698 0.53237 0.79984
 C717 C 0.48683 0.56194 0.81056
 C718 C 0.47530 0.57323 0.82854
 C719 C 0.43146 0.56704 0.85543
 C720 C 0.44065 0.59935 0.85684
 C721 C 0.42926 0.61040 0.87508
 C722 C 0.40834 0.58938 0.89224
 C723 C 0.39911 0.55710 0.89082
 C724 C 0.41059 0.54606 0.87266
 C725 C 0.39622 0.60105 0.91160
 C726 C 0.36422 0.58370 0.91841
 C727 C 0.35282 0.59454 0.93677
 C728 C 0.37321 0.62290 0.94882
 C729 C 0.40522 0.64029 0.94195
 C730 C 0.41657 0.62952 0.92350
 H731 H 0.39913 0.51159 0.83044
 H732 H 0.41936 0.49165 0.79937
 H733 H 0.51138 0.57626 0.80524
 H734 H 0.49134 0.59582 0.83677
 H735 H 0.45629 0.61603 0.84364
 H736 H 0.43642 0.63533 0.87555
 H737 H 0.38341 0.54044 0.90402
 H738 H 0.40351 0.52115 0.87233
 H739 H 0.34791 0.56188 0.90936
 H740 H 0.32802 0.58059 0.94156
 H741 H 0.42156 0.66226 0.95083
 H742 H 0.44141 0.64321 0.91878
 C743 C 0.11267 0.55485 0.83540
 C744 C 0.09867 0.52319 0.82772
 C745 C 0.07572 0.51177 0.80982
 C746 C 0.06615 0.53173 0.79929
 C747 C 0.08022 0.56343 0.80694
 C748 C 0.10329 0.57488 0.82475
 C749 C 0.13676 0.56688 0.85459
 C750 C 0.16399 0.59707 0.85291
 C751 C 0.18654 0.60848 0.87109
 C752 C 0.18230 0.59000 0.89142
 C753 C 0.15506 0.55978 0.89306
 C754 C 0.13258 0.54833 0.87484
 C755 C 0.20608 0.60225 0.91089
 C756 C 0.21412 0.58198 0.92283
 C757 C 0.23617 0.59339 0.94135
 C758 C 0.25078 0.62539 0.94833
 C759 C 0.24289 0.64573 0.93629
 C760 C 0.22076 0.63427 0.91782
 H761 H 0.10571 0.50732 0.83542
 H762 H 0.06538 0.48725 0.80431
 H763 H 0.07336 0.57941 0.79920
 H764 H 0.11341 0.59929 0.83049
 H765 H 0.16806 0.61171 0.83736
 H766 H 0.20751 0.63163 0.86909
 H767 H 0.15080 0.54518 0.90865
 H768 H 0.11159 0.52517 0.87678
 H769 H 0.20362 0.55731 0.91768
 H770 H 0.24186 0.57712 0.95013
 H771 H 0.25361 0.67048 0.94125
 H772 H 0.21476 0.65041 0.90922
 C773 C 0.44400 0.88613 0.83563
 C774 C 0.47342 0.89598 0.82474
 C775 C 0.48465 0.91898 0.80687
 C776 C 0.46666 0.93259 0.79943
 C777 C 0.43714 0.92259 0.81019
 C778 C 0.42596 0.89966 0.82811
 C779 C 0.43229 0.86204 0.85489
 C780 C 0.40005 0.83870 0.85629
 C781 C 0.38902 0.81626 0.87455
 C782 C 0.41000 0.81657 0.89176
 C783 C 0.44224 0.83979 0.89032
 C784 C 0.45326 0.86231 0.87212
 C785 C 0.39829 0.79289 0.91124
 C786 C 0.41554 0.77833 0.91826
 C787 C 0.40462 0.75618 0.93672
 C788 C 0.37627 0.74822 0.94867
 C789 C 0.35901 0.76279 0.94160
 C790 C 0.36986 0.78482 0.92306
 H791 H 0.48767 0.88567 0.82986
 H792 H 0.50742 0.92605 0.79886
 H793 H 0.42277 0.93271 0.80493
 H794 H 0.40341 0.89293 0.83637
 H795 H 0.38338 0.83752 0.84307
 H796 H 0.36412 0.79835 0.87503
 H797 H 0.45887 0.84090 0.90355
 H798 H 0.47812 0.88030 0.87179
 H799 H 0.43734 0.78383 0.90929
 H800 H 0.41848 0.74536 0.94167
 H801 H 0.33706 0.75719 0.95039
 H802 H 0.35625 0.79592 0.91819
 C803 C 0.55643 0.44391 0.83612
 C804 C 0.52477 0.42591 0.82852
 C805 C 0.51320 0.43718 0.81058
 C806 C 0.53298 0.46677 0.79989
 C807 C 0.56465 0.48474 0.80743
 C808 C 0.57624 0.47342 0.82530
 C809 C 0.56867 0.43209 0.85536
 C810 C 0.58965 0.45304 0.87258
 C811 C 0.60113 0.44196 0.89070
 C812 C 0.59180 0.40964 0.89210
 C813 C 0.57081 0.38866 0.87493
 C814 C 0.55943 0.39976 0.85674
 C815 C 0.60384 0.39788 0.91147
 C816 C 0.58342 0.36936 0.92326
 C817 C 0.59466 0.35849 0.94172
 C818 C 0.62662 0.37584 0.94872
 C819 C 0.64708 0.40427 0.93678
 C820 C 0.63579 0.41519 0.91841
 H821 H 0.50876 0.40330 0.83670
 H822 H 0.48865 0.42281 0.80526
 H823 H 0.58055 0.50756 0.79947
 H824 H 0.60087 0.48765 0.83047
 H825 H 0.59681 0.47797 0.87229
 H826 H 0.61689 0.45860 0.90389
 H827 H 0.56356 0.36371 0.87536
 H828 H 0.54372 0.38309 0.84355
 H829 H 0.55861 0.35568 0.91847
 H830 H 0.57825 0.33649 0.95050
 H831 H 0.67184 0.41819 0.94167
 H832 H 0.65216 0.43706 0.90945
 C833 C 0.88785 0.44286 0.83612
 C834 C 0.90177 0.47453 0.82846
 C835 C 0.92462 0.48602 0.81047
 C836 C 0.93418 0.46613 0.79976
 C837 C 0.92022 0.43444 0.80736
 C838 C 0.89730 0.42293 0.82529
 C839 C 0.86375 0.43069 0.85542
 C840 C 0.86351 0.40969 0.87263
 C841 C 0.84090 0.39827 0.89079
 C842 C 0.81807 0.40767 0.89222
 C843 C 0.81830 0.42870 0.87505
 C844 C 0.84084 0.44003 0.85684
 C845 C 0.79418 0.39565 0.91160
 C846 C 0.78619 0.41610 0.92337
 C847 C 0.76399 0.40486 0.94181
 C848 C 0.74913 0.37286 0.94884
 C849 C 0.75699 0.35237 0.93693
 C850 C 0.77931 0.36366 0.91857
 H851 H 0.89537 0.49063 0.83665
 H852 H 0.93500 0.51058 0.80510
 H853 H 0.92693 0.41844 0.79940
 H854 H 0.88671 0.39829 0.83050
 H855 H 0.88115 0.40246 0.87232
 H856 H 0.84163 0.38249 0.90397
 H857 H 0.80072 0.43601 0.87550
 H858 H 0.84002 0.45576 0.84365
 H859 H 0.79750 0.44094 0.91856
 H860 H 0.75850 0.42130 0.95058
 H861 H 0.74597 0.32758 0.94182
 H862 H 0.78469 0.34726 0.90964
 C863 C 0.55489 0.11114 0.83611
 C864 C 0.57284 0.09757 0.82840
 C865 C 0.56153 0.07466 0.81041
 C866 C 0.53195 0.06470 0.79977
 C867 C 0.51404 0.07833 0.80742
 C868 C 0.52540 0.10131 0.82534
 C869 C 0.56676 0.13528 0.85540
 C870 C 0.54589 0.13521 0.87266
 C871 C 0.55701 0.15785 0.89082
 C872 C 0.58928 0.18102 0.89221
 C873 C 0.61018 0.18110 0.87500
 C874 C 0.59905 0.15854 0.85678
 C875 C 0.60108 0.20494 0.91160
 C876 C 0.62957 0.21319 0.92337
 C877 C 0.64048 0.23542 0.94183
 C878 C 0.62320 0.25001 0.94886
 C879 C 0.59479 0.24189 0.93694
 C880 C 0.58383 0.21954 0.91858
 H881 H 0.59544 0.10427 0.83654
 H882 H 0.57586 0.06454 0.80500
 H883 H 0.49123 0.07131 0.79951
 H884 H 0.51120 0.11163 0.83059
 H885 H 0.52099 0.11730 0.87238
 H886 H 0.54042 0.15689 0.90403
 H887 H 0.63510 0.19895 0.87543
 H888 H 0.61566 0.15959 0.84356
 H889 H 0.64320 0.20209 0.91855
 H890 H 0.66246 0.24113 0.95059
 H891 H 0.58092 0.25271 0.94185
 H892 H 0.56198 0.21393 0.90964
   
