data_POSCAR
  _audit_creation_date              2014-09-24
  _audit_creation_method            'ToBaCCo'
  _symmetry_space_group_name_H-M    'P1'
  _symmetry_Int_Tables_number       1
  _symmetry_cell_setting            triclinic
  loop_
  _symmetry_equiv_pos_as_xyz
 x,y,z
_cell_length_a 64.3657
_cell_length_b 64.3642
_cell_length_c 62.0720
_cell_angle_alpha 89.981900
_cell_angle_beta 89.975900
_cell_angle_gamma 89.938700
loop_
  _atom_site_label
  _atom_site_type_symbol
  _atom_site_fract_x
  _atom_site_fract_y
  _atom_site_fract_z
O1 O 0.02172 0.27400 -0.02449
 O2 O -0.01866 0.27492 0.01758
 O3 O 0.02181 0.27518 0.01742
 O4 O -0.01869 0.27389 -0.02442
 O5 O -0.01851 0.23954 -0.02346
 O6 O 0.02202 0.24083 0.01841
 O7 O -0.01846 0.24057 0.01854
 O8 O 0.02190 0.23966 -0.02351
 Cu9 Cu 0.00151 0.27797 -0.00356
 Cu10 Cu 0.00174 0.23668 -0.00239
 C11 C 0.02861 0.25667 -0.03111
 C12 C -0.02536 0.25789 0.02518
 C13 C 0.02878 0.25823 0.02495
 C14 C -0.02538 0.25651 -0.03106
 O15 O 0.47868 0.77524 0.52768
 O16 O 0.51883 0.77758 0.48546
 O17 O 0.47835 0.77734 0.48578
 O18 O 0.51913 0.77543 0.52736
 O19 O 0.51933 0.74112 0.52551
 O20 O 0.47855 0.74303 0.48393
 O21 O 0.51905 0.74327 0.48360
 O22 O 0.47888 0.74092 0.52584
 Cu23 Cu 0.49873 0.77986 0.50675
 Cu24 Cu 0.49897 0.73862 0.50453
 C25 C 0.47202 0.75769 0.53390
 C26 C 0.52573 0.76082 0.47742
 C27 C 0.47156 0.76050 0.47784
 C28 C 0.52610 0.75795 0.53347
 O29 O 0.97867 0.72326 -0.01530
 O30 O 1.01886 0.72524 0.02690
 O31 O 0.97843 0.72552 0.02660
 O32 O 1.01917 0.72300 -0.01501
 O33 O 1.01938 0.75730 -0.01699
 O34 O 0.97863 0.75983 0.02463
 O35 O 1.01907 0.75955 0.02492
 O36 O 0.97888 0.75756 -0.01727
 Cu37 Cu 0.99877 0.72079 0.00598
 Cu38 Cu 0.99901 0.76202 0.00360
 C39 C 0.97197 0.74008 -0.02339
 C40 C 1.02572 0.74273 0.03305
 C41 C 0.97168 0.74310 0.03266
 C42 C 1.02618 0.73972 -0.02301
 O43 O 0.52214 0.21954 0.51722
 O44 O 0.48196 0.22056 0.47499
 O45 O 0.52240 0.22053 0.47533
 O46 O 0.48164 0.21945 0.51696
 O47 O 0.48155 0.25380 0.51786
 O48 O 0.52233 0.25488 0.47623
 O49 O 0.48190 0.25491 0.47591
 O50 O 0.52204 0.25389 0.51811
 Cu51 Cu 0.50202 0.21655 0.49605
 Cu52 Cu 0.50193 0.25784 0.49714
 C53 C 0.52892 0.23656 0.52474
 C54 C 0.47518 0.23791 0.46830
 C55 C 0.52926 0.23789 0.46877
 C56 C 0.47471 0.23644 0.52443
 O57 O 0.72003 0.02160 -0.02394
 O58 O 0.71885 -0.01871 0.01815
 O59 O 0.71879 0.02179 0.01795
 O60 O 0.72025 -0.01886 -0.02380
 O61 O 0.75459 -0.01876 -0.02264
 O62 O 0.75313 0.02185 0.01908
 O63 O 0.75319 -0.01864 0.01930
 O64 O 0.75437 0.02169 -0.02281
 Cu65 Cu 0.71601 0.00143 -0.00302
 Cu66 Cu 0.75729 0.00153 -0.00164
 C67 C 0.73739 0.02847 -0.03046
 C68 C 0.73581 -0.02549 0.02583
 C69 C 0.73573 0.02872 0.02551
 C70 C 0.73768 -0.02565 -0.03028
 O71 O 0.22350 0.51898 0.47977
 O72 O 0.22404 0.47872 0.52199
 O73 O 0.22342 0.51918 0.52173
 O74 O 0.22386 0.47850 0.48003
 O75 O 0.25821 0.47886 0.47995
 O76 O 0.25778 0.51958 0.52169
 O77 O 0.25840 0.47912 0.52191
 O78 O 0.25786 0.51934 0.47973
 Cu79 Cu 0.22024 0.49881 0.50088
 Cu80 Cu 0.26153 0.49926 0.50081
 C81 C 0.24060 0.52596 0.47263
 C82 C 0.24133 0.47213 0.52907
 C83 C 0.24051 0.52624 0.52875
 C84 C 0.24110 0.47180 0.47296
 O85 O 0.27677 1.01976 0.02187
 O86 O 0.27658 0.97943 -0.02026
 O87 O 0.27701 1.01990 -0.02009
 O88 O 0.27664 0.97931 0.02170
 O89 O 0.24228 0.97957 0.02166
 O90 O 0.24266 1.02021 -0.02018
 O91 O 0.24222 0.97973 -0.02031
 O92 O 0.24242 1.02002 0.02179
 Cu93 Cu 0.28022 0.99957 0.00080
 Cu94 Cu 0.23893 0.99991 0.00073
 C95 C 0.25962 1.02669 0.02895
 C96 C 0.25935 0.97277 -0.02738
 C97 C 0.25992 1.02692 -0.02719
 C98 C 0.25941 0.97259 0.02874
 O99 O 0.77606 0.52191 0.51780
 O100 O 0.77469 0.48183 0.47553
 O101 O 0.77489 0.52227 0.47588
 O102 O 0.77568 0.48146 0.51751
 O103 O 0.74133 0.48174 0.51845
 O104 O 0.74054 0.52253 0.47685
 O105 O 0.74034 0.48208 0.47646
 O106 O 0.74171 0.52219 0.51878
 Cu107 Cu 0.77880 0.50182 0.49658
 Cu108 Cu 0.73752 0.50215 0.49773
 C109 C 0.75912 0.52882 0.52542
 C110 C 0.75730 0.47522 0.46882
 C111 C 0.75758 0.52929 0.46934
 C112 C 0.75863 0.47474 0.52504
 C113 C 0.24306 0.25862 0.24824
 C114 C 0.25799 0.24357 0.24808
 C115 C 0.25778 0.22642 0.23205
 C116 C 0.27528 0.24349 0.26392
 C117 C 0.24183 0.27430 0.26577
 C118 C 0.22724 0.26014 0.23090
 C119 C 0.24022 0.21368 0.22957
 C120 C 0.24018 0.19775 0.21426
 C121 C 0.25775 0.19427 0.20144
 C122 C 0.27541 0.20667 0.20410
 C123 C 0.27546 0.22261 0.21938
 C124 C 0.27906 0.22567 0.27638
 C125 C 0.29511 0.22548 0.29152
 C126 C 0.30765 0.24304 0.29424
 C127 C 0.30422 0.26074 0.28161
 C128 C 0.28818 0.26094 0.26643
 C129 C 0.24162 0.29556 0.26067
 C130 C 0.24088 0.31046 0.27703
 C131 C 0.24018 0.30427 0.29864
 C132 C 0.23998 0.28309 0.30383
 C133 C 0.24068 0.26817 0.28748
 C134 C 0.23319 0.26148 0.20914
 C135 C 0.21813 0.26236 0.19295
 C136 C 0.19701 0.26215 0.19834
 C137 C 0.19099 0.26128 0.22000
 C138 C 0.20603 0.26037 0.23620
 H139 H 0.22657 0.21610 0.23947
 H140 H 0.22646 0.18817 0.21240
 H141 H 0.28911 0.20408 0.19431
 H142 H 0.28920 0.23218 0.22114
 H143 H 0.26937 0.21203 0.27458
 H144 H 0.29767 0.21169 0.30118
 H145 H 0.28578 0.27468 0.25668
 H146 H 0.24236 0.30059 0.24404
 H147 H 0.24099 0.32680 0.27283
 H148 H 0.23933 0.27813 0.32050
 H149 H 0.24042 0.25185 0.29174
 H150 H 0.24947 0.26172 0.20474
 H151 H 0.22295 0.26313 0.17624
 H152 H 0.17469 0.26116 0.22434
 H153 H 0.20114 0.25948 0.25288
 H154 H 0.31391 0.27437 0.28351
 C155 C 0.75265 0.74891 0.25129
 C156 C 0.73751 0.76376 0.25126
 C157 C 0.73589 0.77936 0.23368
 C158 C 0.72184 0.76509 0.26879
 C159 C 0.75273 0.73170 0.26726
 C160 C 0.76988 0.74911 0.23534
 C161 C 0.73541 0.80063 0.23868
 C162 C 0.73436 0.81545 0.22226
 C163 C 0.73362 0.80916 0.20068
 C164 C 0.73367 0.78797 0.19560
 C165 C 0.73468 0.77312 0.21201
 C166 C 0.72798 0.76646 0.29048
 C167 C 0.71308 0.76719 0.30685
 C168 C 0.69190 0.76680 0.30171
 C169 C 0.68569 0.76591 0.28012
 C170 C 0.70057 0.76514 0.26374
 C171 C 0.73531 0.71876 0.26980
 C172 C 0.73552 0.70277 0.28504
 C173 C 0.75319 0.69942 0.29774
 C174 C 0.77071 0.71203 0.29501
 C175 C 0.77051 0.72803 0.27980
 C176 C 0.77395 0.73134 0.22291
 C177 C 0.78999 0.73139 0.20774
 C178 C 0.80224 0.74915 0.20495
 C179 C 0.79850 0.76682 0.21753
 C180 C 0.78247 0.76678 0.23273
 H181 H 0.73620 0.80574 0.25529
 H182 H 0.73429 0.83181 0.22637
 H183 H 0.73300 0.78292 0.17896
 H184 H 0.73463 0.75679 0.20784
 H185 H 0.74430 0.76684 0.29470
 H186 H 0.71806 0.76798 0.32350
 H187 H 0.69552 0.76423 0.24712
 H188 H 0.72159 0.72108 0.25999
 H189 H 0.72192 0.69304 0.28694
 H190 H 0.78448 0.70953 0.30471
 H191 H 0.78413 0.73775 0.27799
 H192 H 0.76451 0.71753 0.22478
 H193 H 0.79279 0.71762 0.19814
 H194 H 0.80797 0.78060 0.21558
 H195 H 0.77986 0.78050 0.24246
 H196 H 0.66934 0.76564 0.27596
 C197 C 0.74351 0.24626 0.24530
 C198 C 0.75844 0.26128 0.24509
 C199 C 0.77573 0.26097 0.22922
 C200 C 0.75825 0.27868 0.26081
 C201 C 0.72780 0.24501 0.26280
 C202 C 0.74212 0.23031 0.22806
 C203 C 0.78849 0.24336 0.22697
 C204 C 0.80448 0.24314 0.21172
 C205 C 0.80800 0.26057 0.19873
 C206 C 0.79562 0.27830 0.20120
 C207 C 0.77962 0.27854 0.21642
 C208 C 0.77587 0.28260 0.27350
 C209 C 0.77565 0.29854 0.28877
 C210 C 0.75788 0.31085 0.29138
 C211 C 0.74041 0.30734 0.27845
 C212 C 0.74062 0.29141 0.26316
 C213 C 0.70657 0.24458 0.25765
 C214 C 0.69164 0.24356 0.27397
 C215 C 0.69779 0.24280 0.29558
 C216 C 0.71895 0.24289 0.30083
 C217 C 0.73390 0.24389 0.28451
 C218 C 0.74083 0.23608 0.20625
 C219 C 0.73959 0.22089 0.19021
 C220 C 0.73943 0.19982 0.19581
 C221 C 0.74039 0.19399 0.21751
 C222 C 0.74165 0.20915 0.23356
 H223 H 0.78602 0.22980 0.23698
 H224 H 0.81404 0.22937 0.21002
 H225 H 0.79825 0.29190 0.19127
 H226 H 0.77004 0.29230 0.21801
 H227 H 0.78964 0.27304 0.27184
 H228 H 0.78926 0.30116 0.29865
 H229 H 0.72701 0.28889 0.25324
 H230 H 0.70157 0.24530 0.24101
 H231 H 0.67531 0.24343 0.26973
 H232 H 0.72387 0.24220 0.31750
 H233 H 0.75021 0.24379 0.28880
 H234 H 0.74075 0.25233 0.20170
 H235 H 0.73875 0.22557 0.17346
 H236 H 0.74022 0.17773 0.22202
 H237 H 0.74250 0.20439 0.25028
 H238 H 0.72662 0.31683 0.28028
 C239 C 0.25719 0.76023 0.25436
 C240 C 0.24208 0.74539 0.25438
 C241 C 0.22478 0.74572 0.23853
 C242 C 0.24212 0.72806 0.27020
 C243 C 0.27299 0.76146 0.27178
 C244 C 0.25864 0.77598 0.23692
 C245 C 0.21214 0.76340 0.23615
 C246 C 0.19616 0.76363 0.22089
 C247 C 0.19253 0.74614 0.20803
 C248 C 0.20481 0.72835 0.21062
 C249 C 0.22079 0.72810 0.22585
 C250 C 0.22440 0.72428 0.28281
 C251 C 0.22433 0.70819 0.29792
 C252 C 0.24191 0.69560 0.30047
 C253 C 0.25951 0.69904 0.28769
 C254 C 0.25959 0.71512 0.27255
 C255 C 0.29422 0.76168 0.26653
 C256 C 0.30922 0.76251 0.28277
 C257 C 0.30317 0.76330 0.30443
 C258 C 0.28203 0.76346 0.30977
 C259 C 0.26700 0.76266 0.29353
 C260 C 0.25979 0.76994 0.21519
 C261 C 0.26057 0.78492 0.19890
 C262 C 0.26044 0.80607 0.20418
 C263 C 0.25977 0.81218 0.22581
 C264 C 0.25896 0.79721 0.24211
 H265 H 0.21470 0.77700 0.24606
 H266 H 0.18669 0.77745 0.21909
 H267 H 0.20209 0.71471 0.20079
 H268 H 0.23028 0.71428 0.22753
 H269 H 0.21074 0.73399 0.28115
 H270 H 0.21062 0.70563 0.30769
 H271 H 0.27326 0.71752 0.26269
 H272 H 0.29914 0.76090 0.24986
 H273 H 0.32553 0.76243 0.27846
 H274 H 0.27717 0.76417 0.32646
 H275 H 0.25071 0.76291 0.29790
 H276 H 0.25996 0.75364 0.21087
 H277 H 0.26119 0.78003 0.18221
 H278 H 0.25971 0.82850 0.23007
 H279 H 0.25821 0.80218 0.25876
 H280 H 0.27316 0.68932 0.28946
 C281 C 0.76063 0.25715 0.74532
 C282 C 0.74563 0.24221 0.74544
 C283 C 0.72974 0.24086 0.72814
 C284 C 0.74435 0.22644 0.76288
 C285 C 0.77797 0.25694 0.76111
 C286 C 0.76040 0.27445 0.72946
 C287 C 0.70856 0.24049 0.73355
 C288 C 0.69346 0.23941 0.71743
 C289 C 0.69938 0.23854 0.69575
 C290 C 0.72048 0.23856 0.69024
 C291 C 0.73560 0.23961 0.70636
 C292 C 0.74316 0.23246 0.78462
 C293 C 0.74221 0.21745 0.80088
 C294 C 0.74222 0.19631 0.79556
 C295 C 0.74302 0.19023 0.77392
 C296 C 0.74399 0.20522 0.75766
 C297 C 0.79071 0.23933 0.76345
 C298 C 0.80660 0.23912 0.77879
 C299 C 0.81005 0.25657 0.79177
 C300 C 0.79772 0.27432 0.78916
 C301 C 0.78182 0.27455 0.77385
 C302 C 0.77802 0.27832 0.71674
 C303 C 0.77786 0.29432 0.70151
 C304 C 0.76015 0.30673 0.69897
 C305 C 0.74266 0.30321 0.71188
 C306 C 0.74281 0.28723 0.72714
 H307 H 0.70373 0.24131 0.75025
 H308 H 0.67718 0.23936 0.72186
 H309 H 0.72522 0.23779 0.67351
 H310 H 0.75187 0.23946 0.70187
 H311 H 0.74301 0.24875 0.78896
 H312 H 0.74149 0.22232 0.81757
 H313 H 0.74476 0.20027 0.74100
 H314 H 0.78825 0.22574 0.75349
 H315 H 0.81612 0.22534 0.78061
 H316 H 0.80030 0.28792 0.79908
 H317 H 0.77225 0.28831 0.77219
 H318 H 0.79177 0.26874 0.71838
 H319 H 0.79150 0.29694 0.69165
 H320 H 0.72891 0.31279 0.71012
 H321 H 0.72920 0.28477 0.73709
 H322 H 0.74297 0.17392 0.76963
 C323 C 0.24007 0.73813 0.75472
 C324 C 0.25516 0.75299 0.75484
 C325 C 0.27244 0.75284 0.73894
 C326 C 0.25513 0.77020 0.77081
 C327 C 0.22426 0.73678 0.77212
 C328 C 0.23865 0.72250 0.73716
 C329 C 0.28514 0.73522 0.73640
 C330 C 0.30113 0.73518 0.72114
 C331 C 0.30471 0.75281 0.70845
 C332 C 0.29237 0.77054 0.71121
 C333 C 0.27637 0.77058 0.72642
 C334 C 0.27289 0.77392 0.78335
 C335 C 0.27303 0.78998 0.79850
 C336 C 0.25548 0.80259 0.80114
 C337 C 0.23782 0.79918 0.78846
 C338 C 0.23767 0.78313 0.77328
 C339 C 0.20304 0.73663 0.76686
 C340 C 0.18802 0.73577 0.78310
 C341 C 0.19404 0.73490 0.80475
 C342 C 0.21517 0.73464 0.81010
 C343 C 0.23022 0.73547 0.79387
 C344 C 0.23750 0.72870 0.71547
 C345 C 0.23674 0.71383 0.69908
 C346 C 0.23690 0.69265 0.70420
 C347 C 0.23758 0.68638 0.72580
 C348 C 0.23836 0.70123 0.74220
 H349 H 0.28262 0.72152 0.74618
 H350 H 0.31065 0.72142 0.71921
 H351 H 0.29505 0.78428 0.70151
 H352 H 0.26684 0.78435 0.72824
 H353 H 0.28654 0.76422 0.78159
 H354 H 0.28679 0.79252 0.80819
 H355 H 0.22397 0.78078 0.76346
 H356 H 0.19813 0.73750 0.75020
 H357 H 0.17171 0.73594 0.77878
 H358 H 0.22001 0.73387 0.82679
 H359 H 0.24650 0.73516 0.79824
 H360 H 0.23730 0.74503 0.71127
 H361 H 0.23612 0.71885 0.68243
 H362 H 0.23766 0.67003 0.72994
 H363 H 0.23911 0.69615 0.75882
 H364 H 0.22420 0.80891 0.79029
 C365 C 0.26043 0.23834 0.74803
 C366 C 0.24542 0.25331 0.74792
 C367 C 0.24552 0.27051 0.73195
 C368 C 0.22818 0.25328 0.76385
 C369 C 0.26178 0.22268 0.76557
 C370 C 0.27622 0.23689 0.73063
 C371 C 0.26303 0.28331 0.72944
 C372 C 0.26295 0.29935 0.71423
 C373 C 0.24530 0.30286 0.70156
 C374 C 0.22769 0.29038 0.70424
 C375 C 0.22776 0.27434 0.71941
 C376 C 0.22442 0.27103 0.77642
 C377 C 0.20849 0.27108 0.79171
 C378 C 0.19605 0.25345 0.79448
 C379 C 0.19945 0.23583 0.78173
 C380 C 0.21538 0.23577 0.76640
 C381 C 0.26196 0.20142 0.76052
 C382 C 0.26271 0.18655 0.77691
 C383 C 0.26348 0.19278 0.79850
 C384 C 0.26375 0.21396 0.80364
 C385 C 0.26302 0.22885 0.78726
 C386 C 0.27024 0.23560 0.70889
 C387 C 0.28528 0.23466 0.69265
 C388 C 0.30641 0.23478 0.69800
 C389 C 0.31245 0.23563 0.71964
 C390 C 0.29744 0.23660 0.73588
 H391 H 0.27673 0.28088 0.73925
 H392 H 0.27662 0.30899 0.71237
 H393 H 0.21393 0.29300 0.69456
 H394 H 0.21407 0.26473 0.72120
 H395 H 0.23404 0.28472 0.77460
 H396 H 0.20595 0.28481 0.80146
 H397 H 0.21777 0.22208 0.75658
 H398 H 0.26114 0.19636 0.74390
 H399 H 0.26254 0.17020 0.77276
 H400 H 0.26443 0.21894 0.82030
 H401 H 0.26331 0.24517 0.79147
 H402 H 0.25396 0.23539 0.70452
 H403 H 0.28044 0.23390 0.67596
 H404 H 0.32876 0.23568 0.72396
 H405 H 0.30236 0.23745 0.75254
 H406 H 0.18985 0.22215 0.78367
 C407 C 0.74496 0.75450 0.75225
 C408 C 0.76012 0.73968 0.75227
 C409 C 0.76168 0.72398 0.73481
 C410 C 0.77587 0.73844 0.76974
 C411 C 0.74487 0.77179 0.76810
 C412 C 0.72774 0.75421 0.73631
 C413 C 0.76200 0.70273 0.73994
 C414 C 0.76289 0.68782 0.72361
 C415 C 0.76364 0.69399 0.70199
 C416 C 0.76379 0.71516 0.69677
 C417 C 0.76293 0.73009 0.71310
 C418 C 0.76982 0.73722 0.79147
 C419 C 0.78481 0.73646 0.80776
 C420 C 0.80596 0.73669 0.80248
 C421 C 0.81207 0.73748 0.78085
 C422 C 0.79711 0.73827 0.76456
 C423 C 0.76227 0.78476 0.77055
 C424 C 0.76202 0.80088 0.78564
 C425 C 0.74431 0.80432 0.79826
 C426 C 0.72681 0.79168 0.79563
 C427 C 0.72705 0.77555 0.78058
 C428 C 0.72376 0.77187 0.72366
 C429 C 0.70780 0.77170 0.70842
 C430 C 0.69553 0.75394 0.70576
 C431 C 0.69916 0.73639 0.71857
 C432 C 0.71512 0.73655 0.73385
 H433 H 0.76118 0.69772 0.75658
 H434 H 0.76281 0.67148 0.72782
 H435 H 0.76447 0.72010 0.68010
 H436 H 0.76310 0.74640 0.70883
 H437 H 0.75352 0.73693 0.79579
 H438 H 0.77991 0.73574 0.82444
 H439 H 0.80209 0.73908 0.74790
 H440 H 0.77601 0.78238 0.76078
 H441 H 0.77561 0.81064 0.78746
 H442 H 0.71301 0.79426 0.80528
 H443 H 0.71344 0.76582 0.77883
 H444 H 0.73323 0.78567 0.72540
 H445 H 0.70509 0.78537 0.69863
 H446 H 0.68969 0.72260 0.71673
 H447 H 0.71767 0.72291 0.74373
 H448 H 0.82840 0.73762 0.77659
 C449 C 0.25964 0.04152 0.04448
 C450 C 0.25958 0.05471 0.05827
 C451 C 0.25942 0.07046 0.07472
 C452 C 0.26505 0.09088 0.06966
 C453 C 0.26482 0.10623 0.08559
 C454 C 0.25893 0.10134 0.10684
 C455 C 0.25330 0.08075 0.11176
 C456 C 0.25356 0.06543 0.09579
 C457 C 0.25866 0.11764 0.12377
 C458 C 0.24250 0.11841 0.13903
 C459 C 0.24222 0.13384 0.15489
 C460 C 0.25809 0.14866 0.15573
 C461 C 0.27425 0.14800 0.14066
 C462 C 0.27455 0.13261 0.12478
 C463 C 0.25779 0.16461 0.17197
 C464 C 0.25768 0.17807 0.18547
 H465 H 0.26955 0.09496 0.05337
 H466 H 0.26897 0.12197 0.08123
 H467 H 0.24895 0.07645 0.12801
 H468 H 0.24921 0.04966 0.09990
 H469 H 0.22991 0.10728 0.13851
 H470 H 0.22960 0.13425 0.16644
 H471 H 0.28664 0.15937 0.14120
 H472 H 0.28734 0.13227 0.11345
 C473 C 0.75969 0.54443 0.54189
 C474 C 0.76025 0.55752 0.55576
 C475 C 0.76097 0.57313 0.57233
 C476 C 0.76970 0.56847 0.59240
 C477 C 0.77038 0.58360 0.60855
 C478 C 0.76233 0.60361 0.60481
 C479 C 0.75362 0.60815 0.58455
 C480 C 0.75294 0.59299 0.56844
 C481 C 0.76293 0.61965 0.62200
 C482 C 0.76774 0.64043 0.61702
 C483 C 0.76816 0.65553 0.63321
 C484 C 0.76378 0.65007 0.65456
 C485 C 0.75902 0.62944 0.65968
 C486 C 0.75860 0.61432 0.64352
 C487 C 0.76395 0.66563 0.67119
 C488 C 0.76392 0.67860 0.68519
 H489 H 0.77602 0.55316 0.59557
 H490 H 0.77743 0.57971 0.62386
 H491 H 0.74705 0.62332 0.58127
 H492 H 0.74610 0.59674 0.55297
 H493 H 0.77140 0.64497 0.60066
 H494 H 0.77190 0.67145 0.62908
 H495 H 0.75551 0.62506 0.67614
 H496 H 0.75456 0.59853 0.64782
 C497 C 0.73537 0.95961 0.04130
 C498 C 0.73496 0.94637 0.05503
 C499 C 0.73447 0.93055 0.07142
 C500 C 0.71644 0.92741 0.08358
 C501 C 0.71597 0.91207 0.09954
 C502 C 0.73357 0.89965 0.10352
 C503 C 0.75161 0.90292 0.09117
 C504 C 0.75204 0.91827 0.07523
 C505 C 0.73314 0.88343 0.12055
 C506 C 0.74261 0.86399 0.11711
 C507 C 0.74240 0.84882 0.13323
 C508 C 0.73273 0.85286 0.15299
 C509 C 0.72320 0.87211 0.15655
 C510 C 0.72338 0.88730 0.14044
 C511 C 0.73285 0.83737 0.16971
 C512 C 0.73310 0.82446 0.18379
 H513 H 0.70273 0.93678 0.08072
 H514 H 0.70177 0.90977 0.10858
 H515 H 0.76549 0.89381 0.09404
 H516 H 0.76611 0.92061 0.06595
 H517 H 0.75001 0.86045 0.10187
 H518 H 0.74979 0.83396 0.13030
 H519 H 0.71575 0.87542 0.17182
 H520 H 0.71620 0.90219 0.14369
 C521 C 0.24159 0.45646 0.54550
 C522 C 0.24192 0.44327 0.55928
 C523 C 0.24240 0.42751 0.57572
 C524 C 0.25863 0.41304 0.57623
 C525 C 0.25912 0.39769 0.59216
 C526 C 0.24333 0.39661 0.60781
 C527 C 0.22708 0.41124 0.60716
 C528 C 0.22663 0.42659 0.59122
 C529 C 0.24376 0.38022 0.62465
 C530 C 0.22536 0.37004 0.63085
 C531 C 0.22580 0.35450 0.64658
 C532 C 0.24459 0.34895 0.65635
 C533 C 0.26296 0.35901 0.65036
 C534 C 0.26257 0.37454 0.63461
 C535 C 0.24500 0.33281 0.67240
 C536 C 0.24522 0.31921 0.68575
 H537 H 0.27089 0.41358 0.56427
 H538 H 0.27168 0.38649 0.59205
 H539 H 0.21484 0.41098 0.61914
 H540 H 0.21402 0.43775 0.59101
 H541 H 0.21069 0.37385 0.62329
 H542 H 0.21149 0.34675 0.65105
 H543 H 0.27759 0.35486 0.65786
 H544 H 0.27694 0.38228 0.63040
 C545 C 0.95985 0.25821 0.04076
 C546 C 0.94674 0.25846 0.05463
 C547 C 0.93112 0.25871 0.07123
 C548 C 0.93224 0.24463 0.08837
 C549 C 0.91706 0.24484 0.10449
 C550 C 0.90055 0.25917 0.10367
 C551 C 0.89958 0.27327 0.08637
 C552 C 0.91477 0.27302 0.07026
 C553 C 0.88439 0.25938 0.12076
 C554 C 0.87657 0.27831 0.12872
 C555 C 0.86127 0.27849 0.14471
 C556 C 0.85357 0.25978 0.15296
 C557 C 0.86127 0.24087 0.14519
 C558 C 0.87659 0.24065 0.12921
 C559 C 0.83764 0.26000 0.16922
 C560 C 0.82419 0.26023 0.18274
 H561 H 0.94487 0.23352 0.08931
 H562 H 0.91839 0.23397 0.11774
 H563 H 0.88692 0.28430 0.08513
 H564 H 0.91372 0.28395 0.05702
 H565 H 0.88245 0.29298 0.12275
 H566 H 0.85544 0.29322 0.15063
 H567 H 0.85536 0.22630 0.15141
 H568 H 0.88209 0.22583 0.12323
 C569 C 0.45643 0.75682 0.55039
 C570 C 0.44332 0.75617 0.56426
 C571 C 0.42767 0.75553 0.58081
 C572 C 0.41165 0.77025 0.58094
 C573 C 0.39650 0.76975 0.59707
 C574 C 0.39716 0.75449 0.61330
 C575 C 0.41331 0.73973 0.61300
 C576 C 0.42846 0.74028 0.59686
 C577 C 0.38109 0.75402 0.63047
 C578 C 0.37279 0.73501 0.63764
 C579 C 0.35751 0.73462 0.65366
 C580 C 0.35035 0.75319 0.66274
 C581 C 0.35857 0.77216 0.65580
 C582 C 0.37383 0.77259 0.63978
 C583 C 0.33440 0.75285 0.67899
 C584 C 0.32093 0.75274 0.69250
 H585 H 0.41086 0.78209 0.56856
 H586 H 0.38411 0.78114 0.59668
 H587 H 0.41439 0.72796 0.62541
 H588 H 0.44083 0.72885 0.59694
 H589 H 0.37786 0.72047 0.63061
 H590 H 0.35119 0.71985 0.65886
 H591 H 0.35316 0.78663 0.66275
 H592 H 0.38011 0.78745 0.63483
 C593 C 0.04127 0.74349 0.04958
 C594 C 0.05431 0.74411 0.06351
 C595 C 0.06985 0.74479 0.08016
 C596 C 0.09086 0.74671 0.07473
 C597 C 0.10598 0.74726 0.09089
 C598 C 0.10026 0.74587 0.11273
 C599 C 0.07908 0.74398 0.11802
 C600 C 0.06399 0.74345 0.10183
 C601 C 0.11633 0.74627 0.12990
 C602 C 0.11480 0.73300 0.14785
 C603 C 0.13007 0.73320 0.16387
 C604 C 0.14704 0.74668 0.16219
 C605 C 0.14865 0.76002 0.14446
 C606 C 0.13342 0.75983 0.12842
 C607 C 0.16293 0.74662 0.17850
 C608 C 0.17636 0.74646 0.19203
 H609 H 0.09557 0.74769 0.05800
 H610 H 0.12216 0.74844 0.08628
 H611 H 0.07417 0.74315 0.13468
 H612 H 0.04776 0.74202 0.10622
 H613 H 0.10199 0.72220 0.14932
 H614 H 0.12871 0.72275 0.17748
 H615 H 0.16171 0.77054 0.14302
 H616 H 0.13490 0.77042 0.11495
 C617 C 0.54478 0.23623 0.54094
 C618 C 0.55821 0.23608 0.55447
 C619 C 0.57433 0.23607 0.57051
 C620 C 0.58581 0.21799 0.57448
 C621 C 0.60162 0.21806 0.58992
 C622 C 0.60616 0.23624 0.60158
 C623 C 0.59449 0.25432 0.59749
 C624 C 0.57869 0.25421 0.58206
 C625 C 0.62299 0.23638 0.61793
 C626 C 0.63640 0.25355 0.61974
 C627 C 0.65210 0.25377 0.63528
 C628 C 0.65463 0.23686 0.64921
 C629 C 0.64143 0.21967 0.64750
 C630 C 0.62572 0.21941 0.63195
 C631 C 0.67054 0.23729 0.66546
 C632 C 0.68376 0.23779 0.67920
 H633 H 0.58261 0.20388 0.56557
 H634 H 0.61049 0.20397 0.59252
 H635 H 0.59742 0.26847 0.60640
 H636 H 0.56987 0.26828 0.57914
 H637 H 0.63487 0.26672 0.60900
 H638 H 0.66226 0.26714 0.63646
 H639 H 0.64320 0.20653 0.65826
 H640 H 0.61549 0.20609 0.63114
 C641 C 0.73783 0.04426 0.95324
 C642 C 0.73816 0.05755 0.93957
 C643 C 0.73852 0.07344 0.92326
 C644 C 0.74821 0.09248 0.92736
 C645 C 0.74856 0.10793 0.91153
 C646 C 0.73920 0.10453 0.89135
 C647 C 0.72947 0.08533 0.88740
 C648 C 0.72914 0.06990 0.90326
 C649 C 0.73962 0.12089 0.87448
 C650 C 0.74312 0.11564 0.85277
 C651 C 0.74355 0.13105 0.83690
 C652 C 0.74048 0.15188 0.84249
 C653 C 0.73697 0.15728 0.86402
 C654 C 0.73655 0.14190 0.87993
 C655 C 0.74100 0.16769 0.82610
 C656 C 0.74150 0.18081 0.81225
 H657 H 0.75556 0.09536 0.94277
 H658 H 0.75639 0.12244 0.91496
 H659 H 0.72190 0.08233 0.87214
 H660 H 0.72153 0.05524 0.89994
 H661 H 0.74582 0.09966 0.84811
 H662 H 0.74635 0.12671 0.82029
 H663 H 0.73452 0.17336 0.86851
 H664 H 0.73355 0.14640 0.89645
 C665 C 0.24045 0.54168 0.45626
 C666 C 0.24044 0.55495 0.44255
 C667 C 0.24052 0.57086 0.42625
 C668 C 0.24412 0.59157 0.43197
 C669 C 0.24430 0.60704 0.41616
 C670 C 0.24087 0.60199 0.39439
 C671 C 0.23726 0.58111 0.38882
 C672 C 0.23709 0.56566 0.40466
 C673 C 0.24105 0.61844 0.37761
 C674 C 0.25051 0.61486 0.35749
 C675 C 0.25075 0.63041 0.34175
 C676 C 0.24152 0.64970 0.34588
 C677 C 0.23205 0.65339 0.36581
 C678 C 0.23180 0.63789 0.38158
 C679 C 0.24178 0.66573 0.32972
 C680 C 0.24190 0.67928 0.31631
 H681 H 0.24688 0.59575 0.44863
 H682 H 0.24739 0.62292 0.42093
 H683 H 0.23432 0.57677 0.37225
 H684 H 0.23424 0.54967 0.40007
 H685 H 0.25798 0.60015 0.35405
 H686 H 0.25817 0.62740 0.32640
 H687 H 0.22480 0.66825 0.36915
 H688 H 0.22416 0.64102 0.39677
 C689 C 0.25922 0.95701 0.95628
 C690 C 0.25902 0.94373 0.94260
 C691 C 0.25870 0.92781 0.92632
 C692 C 0.26425 0.90741 0.93157
 C693 C 0.26385 0.89190 0.91582
 C694 C 0.25786 0.89660 0.89456
 C695 C 0.25231 0.91718 0.88944
 C696 C 0.25274 0.93267 0.90523
 C697 C 0.25739 0.88011 0.87783
 C698 C 0.24113 0.87930 0.86270
 C699 C 0.24066 0.86368 0.84705
 C700 C 0.25642 0.84871 0.84628
 C701 C 0.27268 0.84942 0.86122
 C702 C 0.27318 0.86500 0.87689
 C703 C 0.25591 0.83257 0.83025
 C704 C 0.25563 0.81896 0.81692
 H705 H 0.26881 0.90347 0.94787
 H706 H 0.26793 0.87617 0.92034
 H707 H 0.24789 0.92134 0.87317
 H708 H 0.24846 0.94843 0.90097
 H709 H 0.22862 0.89054 0.86317
 H710 H 0.22796 0.86325 0.83560
 H711 H 0.28499 0.83793 0.86073
 H712 H 0.28604 0.86536 0.88812
 C713 C 0.75684 0.45976 0.45220
 C714 C 0.75659 0.44682 0.43817
 C715 C 0.75646 0.43142 0.42136
 C716 C 0.77016 0.41456 0.42229
 C717 C 0.77024 0.39971 0.40586
 C718 C 0.75658 0.40153 0.38826
 C719 C 0.74281 0.41852 0.38752
 C720 C 0.74277 0.43336 0.40396
 C721 C 0.75674 0.38581 0.37076
 C722 C 0.73802 0.37877 0.36163
 C723 C 0.73820 0.36382 0.34529
 C724 C 0.75707 0.35574 0.33784
 C725 C 0.77578 0.36270 0.34674
 C726 C 0.77563 0.37763 0.36309
 C727 C 0.75726 0.34010 0.32128
 C728 C 0.75750 0.32686 0.30755
 H729 H 0.78079 0.41288 0.43571
 H730 H 0.78082 0.38667 0.40705
 H731 H 0.73229 0.42049 0.37406
 H732 H 0.73215 0.44640 0.40305
 H733 H 0.72322 0.38456 0.36737
 H734 H 0.72362 0.35847 0.33857
 H735 H 0.79048 0.35657 0.34106
 H736 H 0.79031 0.38294 0.36957
 C737 C 0.04427 0.25629 0.95246
 C738 C 0.05742 0.25595 0.93863
 C739 C 0.07312 0.25553 0.92213
 C740 C 0.06738 0.25530 0.90038
 C741 C 0.08262 0.25491 0.88433
 C742 C 0.10383 0.25475 0.88984
 C743 C 0.10942 0.25496 0.91176
 C744 C 0.09416 0.25534 0.92778
 C745 C 0.12004 0.25444 0.87282
 C746 C 0.13811 0.26656 0.87492
 C747 C 0.15337 0.26626 0.85890
 C748 C 0.15082 0.25384 0.84060
 C749 C 0.13291 0.24173 0.83834
 C750 C 0.11761 0.24202 0.85434
 C751 C 0.16660 0.25356 0.82419
 C752 C 0.17995 0.25344 0.81056
 H753 H 0.05113 0.25550 0.89583
 H754 H 0.07783 0.25502 0.86762
 H755 H 0.12560 0.25457 0.91652
 H756 H 0.09876 0.25545 0.94456
 H757 H 0.14030 0.27649 0.88881
 H758 H 0.16715 0.27575 0.86078
 H759 H 0.13081 0.23201 0.82426
 H760 H 0.10401 0.23231 0.85238
 C761 C 0.54140 0.76174 0.46101
 C762 C 0.55459 0.76252 0.44723
 C763 C 0.57032 0.76343 0.43077
 C764 C 0.56518 0.75926 0.40930
 C765 C 0.58045 0.76009 0.39330
 C766 C 0.60111 0.76511 0.39858
 C767 C 0.60611 0.76929 0.42022
 C768 C 0.59081 0.76847 0.43619
 C769 C 0.61737 0.76586 0.38160
 C770 C 0.63736 0.75783 0.38553
 C771 C 0.65257 0.75833 0.36945
 C772 C 0.64804 0.76687 0.34926
 C773 C 0.62824 0.77499 0.34522
 C774 C 0.61300 0.77450 0.36126
 C775 C 0.66359 0.76705 0.33260
 C776 C 0.67654 0.76704 0.31856
 H777 H 0.54937 0.75529 0.40494
 H778 H 0.57616 0.75651 0.37686
 H779 H 0.62181 0.77345 0.42475
 H780 H 0.59495 0.77178 0.45275
 H781 H 0.64112 0.75084 0.40091
 H782 H 0.66782 0.75193 0.37273
 H783 H 0.62457 0.78167 0.32965
 H784 H 0.59786 0.78105 0.35783
 C785 C 0.95709 0.73937 0.96114
 C786 C 0.94385 0.73876 0.94741
 C787 C 0.92803 0.73808 0.93104
 C788 C 0.90870 0.74743 0.93468
 C789 C 0.89336 0.74688 0.91875
 C790 C 0.89716 0.73698 0.89892
 C791 C 0.91663 0.72759 0.89544
 C792 C 0.93195 0.72814 0.91140
 C793 C 0.88094 0.73658 0.88190
 C794 C 0.88631 0.73956 0.86014
 C795 C 0.87103 0.73936 0.84414
 C796 C 0.85019 0.73616 0.84964
 C797 C 0.84469 0.73312 0.87123
 C798 C 0.85994 0.73333 0.88726
 C799 C 0.83448 0.73618 0.83314
 C800 C 0.82142 0.73633 0.81923
 H801 H 0.90553 0.75522 0.94980
 H802 H 0.87864 0.75449 0.92182
 H803 H 0.91994 0.71961 0.88047
 H804 H 0.94683 0.72080 0.90844
 H805 H 0.90229 0.74238 0.85552
 H806 H 0.87546 0.74181 0.82749
 H807 H 0.82860 0.73058 0.87566
 H808 H 0.85534 0.73072 0.90382
 C809 C 0.45962 0.23834 0.45178
 C810 C 0.44656 0.23876 0.43788
 C811 C 0.43098 0.23930 0.42128
 C812 C 0.41491 0.22468 0.42125
 C813 C 0.39974 0.22521 0.40515
 C814 C 0.40046 0.24041 0.38885
 C815 C 0.41669 0.25504 0.38903
 C816 C 0.43185 0.25447 0.40515
 C817 C 0.38431 0.24100 0.37178
 C818 C 0.37611 0.26009 0.36466
 C819 C 0.36077 0.26061 0.34873
 C820 C 0.35346 0.24209 0.33969
 C821 C 0.36157 0.22305 0.34659
 C822 C 0.37689 0.22249 0.36253
 C823 C 0.33745 0.24259 0.32353
 C824 C 0.32393 0.24288 0.31011
 H825 H 0.41406 0.21292 0.43371
 H826 H 0.38729 0.21392 0.40561
 H827 H 0.41781 0.26675 0.37657
 H828 H 0.44426 0.26582 0.40499
 H829 H 0.38131 0.27458 0.37165
 H830 H 0.35453 0.27543 0.34355
 H831 H 0.35603 0.20863 0.33967
 H832 H 0.38309 0.20758 0.36746
 C833 C 0.73829 0.95857 0.95343
 C834 C 0.73888 0.94530 0.93974
 C835 C 0.73965 0.92946 0.92341
 C836 C 0.75195 0.91176 0.92646
 C837 C 0.75272 0.89635 0.91061
 C838 C 0.74117 0.89845 0.89148
 C839 C 0.72886 0.91632 0.88857
 C840 C 0.72813 0.93171 0.90444
 C841 C 0.74189 0.88203 0.87470
 C842 C 0.72369 0.87602 0.86381
 C843 C 0.72433 0.86043 0.84815
 C844 C 0.74315 0.85066 0.84314
 C845 C 0.76136 0.85656 0.85381
 C846 C 0.76075 0.87214 0.86949
 C847 C 0.74372 0.83444 0.82721
 C848 C 0.74407 0.82076 0.81395
 H849 H 0.76089 0.90983 0.94111
 H850 H 0.76212 0.88266 0.91345
 H851 H 0.72001 0.91851 0.87392
 H852 H 0.71861 0.94539 0.90189
 H853 H 0.70889 0.88313 0.86765
 H854 H 0.71014 0.85592 0.84004
 H855 H 0.77602 0.84912 0.85002
 H856 H 0.77506 0.87660 0.87739
 C857 C 0.24121 0.45594 0.45674
 C858 C 0.24119 0.44261 0.44310
 C859 C 0.24106 0.42671 0.42680
 C860 C 0.23960 0.40577 0.43268
 C861 C 0.23934 0.39032 0.41685
 C862 C 0.24050 0.39563 0.39488
 C863 C 0.24198 0.41674 0.38914
 C864 C 0.24226 0.43215 0.40501
 C865 C 0.24016 0.37925 0.37803
 C866 C 0.22884 0.38219 0.35887
 C867 C 0.22864 0.36683 0.34295
 C868 C 0.23973 0.34834 0.34595
 C869 C 0.25099 0.34524 0.36497
 C870 C 0.25120 0.36057 0.38092
 C871 C 0.23975 0.33268 0.32941
 C872 C 0.23987 0.31966 0.31544
 H873 H 0.23859 0.40138 0.44950
 H874 H 0.23792 0.37424 0.42177
 H875 H 0.24318 0.42131 0.37240
 H876 H 0.24344 0.44831 0.40027
 H877 H 0.21997 0.39627 0.35629
 H878 H 0.21985 0.36937 0.32831
 H879 H 0.25969 0.33101 0.36742
 H880 H 0.26027 0.35796 0.39536
 C881 C 0.26011 0.04189 0.95741
 C882 C 0.26039 0.05517 0.94372
 C883 C 0.26083 0.07100 0.92734
 C884 C 0.26562 0.09153 0.93280
 C885 C 0.26619 0.10689 0.91687
 C886 C 0.26200 0.10188 0.89523
 C887 C 0.25718 0.08118 0.88993
 C888 C 0.25661 0.06586 0.90588
 C889 C 0.26264 0.11815 0.87828
 C890 C 0.27135 0.11386 0.85795
 C891 C 0.27180 0.12913 0.84194
 C892 C 0.26355 0.14887 0.84600
 C893 C 0.25492 0.15332 0.86617
 C894 C 0.25447 0.13808 0.88222
 C895 C 0.26371 0.16446 0.82937
 C896 C 0.26370 0.17742 0.81535
 H897 H 0.26899 0.09567 0.94935
 H898 H 0.27020 0.12262 0.92142
 H899 H 0.25360 0.07688 0.87348
 H900 H 0.25284 0.05001 0.90149
 H901 H 0.27802 0.09877 0.85452
 H902 H 0.27855 0.12554 0.82639
 H903 H 0.24842 0.16853 0.86945
 H904 H 0.24742 0.14178 0.89759
 C905 C 0.75724 0.54518 0.45315
 C906 C 0.75689 0.55854 0.43954
 C907 C 0.75642 0.57451 0.42332
 C908 C 0.75456 0.59538 0.42933
 C909 C 0.75407 0.61092 0.41359
 C910 C 0.75543 0.60577 0.39160
 C911 C 0.75728 0.58473 0.38573
 C912 C 0.75778 0.56922 0.40150
 C913 C 0.75495 0.62228 0.37488
 C914 C 0.74375 0.61940 0.35564
 C915 C 0.74330 0.63497 0.33993
 C916 C 0.75404 0.65359 0.34322
 C917 C 0.76523 0.65660 0.36229
 C918 C 0.76569 0.64106 0.37802
 C919 C 0.75361 0.66963 0.32707
 C920 C 0.75335 0.68316 0.31364
 H921 H 0.75342 0.59965 0.44617
 H922 H 0.75236 0.62694 0.41861
 H923 H 0.75862 0.58029 0.36896
 H924 H 0.75927 0.55311 0.39667
 H925 H 0.73511 0.60523 0.35287
 H926 H 0.73454 0.63251 0.32525
 H927 H 0.77365 0.67093 0.36497
 H928 H 0.77467 0.64364 0.39252
 C929 C 0.04124 0.73881 0.96171
 C930 C 0.05464 0.73803 0.94815
 C931 C 0.07063 0.73715 0.93196
 C932 C 0.06561 0.74023 0.91026
 C933 C 0.08115 0.73950 0.89453
 C934 C 0.10195 0.73569 0.90031
 C935 C 0.10683 0.73258 0.92218
 C936 C 0.09126 0.73331 0.93788
 C937 C 0.11848 0.73507 0.88361
 C938 C 0.13798 0.74421 0.88748
 C939 C 0.15343 0.74387 0.87164
 C940 C 0.14963 0.73437 0.85176
 C941 C 0.13033 0.72514 0.84778
 C942 C 0.11485 0.72548 0.86359
 C943 C 0.16540 0.73437 0.83531
 C944 C 0.17852 0.73452 0.82143
 H945 H 0.04970 0.74328 0.90551
 H946 H 0.07693 0.74223 0.87788
 H947 H 0.12264 0.72936 0.92711
 H948 H 0.09531 0.73085 0.95463
 H949 H 0.14116 0.75195 0.90261
 H950 H 0.16829 0.75114 0.87485
 H951 H 0.12724 0.71772 0.83245
 H952 H 0.10011 0.71807 0.86022
 C953 C 0.54519 0.23829 0.45263
 C954 C 0.55860 0.23860 0.43907
 C955 C 0.57461 0.23894 0.42289
 C956 C 0.56933 0.24116 0.40115
 C957 C 0.58485 0.24145 0.38540
 C958 C 0.60590 0.23953 0.39121
 C959 C 0.61105 0.23732 0.41313
 C960 C 0.59549 0.23702 0.42885
 C961 C 0.62240 0.23985 0.37449
 C962 C 0.64109 0.25064 0.37804
 C963 C 0.65654 0.25107 0.36220
 C964 C 0.65352 0.24071 0.34263
 C965 C 0.63502 0.22987 0.33897
 C966 C 0.61956 0.22943 0.35478
 C967 C 0.66928 0.24137 0.32621
 C968 C 0.68236 0.24198 0.31232
 H969 H 0.55321 0.24272 0.39637
 H970 H 0.58042 0.24346 0.36871
 H971 H 0.62708 0.23555 0.41809
 H972 H 0.59974 0.23523 0.44563
 H973 H 0.64364 0.25903 0.39292
 H974 H 0.67077 0.25957 0.36516
 H975 H 0.63255 0.22176 0.32390
 H976 H 0.60547 0.22076 0.35168
 C977 C 0.95912 0.25606 0.95237
 C978 C 0.94621 0.25579 0.93831
 C979 C 0.93092 0.25560 0.92141
 C980 C 0.91183 0.24567 0.92457
 C981 C 0.89696 0.24557 0.90816
 C982 C 0.90100 0.25543 0.88835
 C983 C 0.92026 0.26533 0.88533
 C984 C 0.93511 0.26540 0.90176
 C985 C 0.88516 0.25548 0.87096
 C986 C 0.88169 0.27346 0.85856
 C987 C 0.86667 0.27356 0.84230
 C988 C 0.85494 0.25571 0.83820
 C989 C 0.85831 0.23772 0.85039
 C990 C 0.87331 0.23759 0.86667
 C991 C 0.83928 0.25593 0.82168
 C992 C 0.82603 0.25619 0.80796
 H993 H 0.90841 0.23808 0.93974
 H994 H 0.88218 0.23805 0.91107
 H995 H 0.92394 0.27282 0.87018
 H996 H 0.94987 0.27308 0.89912
 H997 H 0.89036 0.28756 0.86166
 H998 H 0.86413 0.28759 0.83302
 H999 H 0.84932 0.22381 0.84732
 H1000 H 0.87579 0.22344 0.87575
 C1001 C 0.45564 0.76123 0.46168
 C1002 C 0.44227 0.76179 0.44810
 C1003 C 0.42632 0.76242 0.43186
 C1004 C 0.40570 0.76653 0.43764
 C1005 C 0.39018 0.76703 0.42189
 C1006 C 0.39509 0.76342 0.40011
 C1007 C 0.41588 0.75934 0.39447
 C1008 C 0.43137 0.75884 0.41025
 C1009 C 0.37860 0.76381 0.38337
 C1010 C 0.38236 0.77295 0.36314
 C1011 C 0.36692 0.77310 0.34730
 C1012 C 0.34753 0.76414 0.35145
 C1013 C 0.34360 0.75508 0.37154
 C1014 C 0.35902 0.75492 0.38741
 C1015 C 0.33177 0.76399 0.33500
 C1016 C 0.31867 0.76375 0.32112
 H1017 H 0.40162 0.76938 0.45432
 H1018 H 0.37438 0.77047 0.42672
 H1019 H 0.42012 0.75622 0.37790
 H1020 H 0.44727 0.75557 0.40560
 H1021 H 0.39717 0.78016 0.35963
 H1022 H 0.37011 0.78019 0.33182
 H1023 H 0.32867 0.74802 0.37490
 H1024 H 0.35573 0.74753 0.40271
 C1025 C 0.25932 0.95682 0.04507
 C1026 C 0.25937 0.94361 0.05884
 C1027 C 0.25954 0.92788 0.07533
 C1028 C 0.25373 0.90749 0.07041
 C1029 C 0.25397 0.89220 0.08641
 C1030 C 0.26004 0.89713 0.10758
 C1031 C 0.26585 0.91770 0.11235
 C1032 C 0.26561 0.93295 0.09632
 C1033 C 0.26027 0.88093 0.12463
 C1034 C 0.25330 0.88552 0.14558
 C1035 C 0.25351 0.87027 0.16162
 C1036 C 0.26069 0.85025 0.15696
 C1037 C 0.26766 0.84551 0.13617
 C1038 C 0.26746 0.86073 0.12010
 C1039 C 0.26078 0.83457 0.17349
 C1040 C 0.26072 0.82152 0.18743
 H1041 H 0.24896 0.90341 0.05421
 H1042 H 0.24916 0.87658 0.08230
 H1043 H 0.27086 0.92192 0.12841
 H1044 H 0.27021 0.94868 0.10028
 H1045 H 0.24742 0.90083 0.14950
 H1046 H 0.24800 0.87408 0.17764
 H1047 H 0.27329 0.83006 0.13240
 H1048 H 0.27317 0.85679 0.10421
 C1049 C 0.75890 0.45898 0.54138
 C1050 C 0.75906 0.44579 0.55517
 C1051 C 0.75918 0.43009 0.57169
 C1052 C 0.77329 0.41358 0.57061
 C1053 C 0.77342 0.39833 0.58666
 C1054 C 0.75938 0.39940 0.60403
 C1055 C 0.74525 0.41608 0.60496
 C1056 C 0.74517 0.43131 0.58889
 C1057 C 0.75947 0.38319 0.62107
 C1058 C 0.74069 0.37559 0.62959
 C1059 C 0.74080 0.36025 0.64554
 C1060 C 0.75965 0.35232 0.65321
 C1061 C 0.77841 0.35981 0.64489
 C1062 C 0.77834 0.37514 0.62892
 C1063 C 0.75975 0.33637 0.66946
 C1064 C 0.75990 0.32292 0.68298
 H1065 H 0.78417 0.41245 0.55733
 H1066 H 0.78430 0.38555 0.58534
 H1067 H 0.73444 0.41749 0.61825
 H1068 H 0.73421 0.44407 0.58992
 H1069 H 0.72592 0.38128 0.62368
 H1070 H 0.72618 0.35450 0.65181
 H1071 H 0.79310 0.35381 0.65074
 H1072 H 0.79306 0.38086 0.62290
 C1073 C 0.73523 0.04472 0.04156
 C1074 C 0.73495 0.05826 0.05498
 C1075 C 0.73477 0.07448 0.07092
 C1076 C 0.73852 0.06974 0.09257
 C1077 C 0.73864 0.08554 0.10803
 C1078 C 0.73503 0.10631 0.10200
 C1079 C 0.73121 0.11090 0.08019
 C1080 C 0.73108 0.09508 0.06477
 C1081 C 0.73541 0.12312 0.11838
 C1082 C 0.74485 0.14233 0.11376
 C1083 C 0.74544 0.15805 0.12929
 C1084 C 0.73660 0.15479 0.14960
 C1085 C 0.72709 0.13579 0.15432
 C1086 C 0.72648 0.12005 0.13883
 C1087 C 0.73750 0.17083 0.16571
 C1088 C 0.73834 0.18413 0.17935
 H1089 H 0.74147 0.05386 0.09749
 H1090 H 0.74190 0.08154 0.12463
 H1091 H 0.72812 0.12669 0.07509
 H1092 H 0.72813 0.09891 0.04805
 H1093 H 0.75209 0.14507 0.09827
 H1094 H 0.75292 0.17267 0.12550
 H1095 H 0.72016 0.13313 0.17000
 H1096 H 0.71887 0.10555 0.14278
 C1097 C 0.24028 0.54206 0.54503
 C1098 C 0.23998 0.55532 0.55874
 C1099 C 0.23952 0.57111 0.57515
 C1100 C 0.24214 0.56566 0.59681
 C1101 C 0.24156 0.58095 0.61279
 C1102 C 0.23835 0.60193 0.60731
 C1103 C 0.23576 0.60725 0.58547
 C1104 C 0.23634 0.59192 0.56952
 C1105 C 0.23772 0.61818 0.62429
 C1106 C 0.24732 0.63756 0.62097
 C1107 C 0.24688 0.65277 0.63704
 C1108 C 0.23683 0.64884 0.65662
 C1109 C 0.22717 0.62966 0.66005
 C1110 C 0.22760 0.61442 0.64401
 C1111 C 0.23667 0.66438 0.67329
 C1112 C 0.23668 0.67731 0.68734
 H1113 H 0.24466 0.54960 0.60134
 H1114 H 0.24388 0.57640 0.62941
 H1115 H 0.23301 0.62321 0.58076
 H1116 H 0.23422 0.59630 0.55281
 H1117 H 0.25546 0.64083 0.60608
 H1118 H 0.25448 0.66754 0.63425
 H1119 H 0.21932 0.62647 0.67514
 H1120 H 0.21984 0.59978 0.64694
 C1121 C 0.95590 0.74407 0.04895
 C1122 C 0.94267 0.74484 0.06269
 C1123 C 0.92691 0.74571 0.07912
 C1124 C 0.90801 0.75573 0.07505
 C1125 C 0.89266 0.75647 0.09097
 C1126 C 0.89601 0.74715 0.11119
 C1127 C 0.91509 0.73716 0.11513
 C1128 C 0.93043 0.73645 0.09919
 C1129 C 0.87963 0.74774 0.12805
 C1130 C 0.87565 0.73016 0.14088
 C1131 C 0.86012 0.73065 0.15662
 C1132 C 0.84837 0.74870 0.15977
 C1133 C 0.85223 0.76629 0.14714
 C1134 C 0.86775 0.76583 0.13138
 C1135 C 0.83221 0.74905 0.17579
 C1136 C 0.81859 0.74919 0.18913
 H1137 H 0.90511 0.76289 0.05954
 H1138 H 0.87804 0.76404 0.08735
 H1139 H 0.91825 0.73008 0.13062
 H1140 H 0.94503 0.72870 0.10253
 H1141 H 0.88432 0.71592 0.13851
 H1142 H 0.85719 0.71691 0.16624
 H1143 H 0.84325 0.78036 0.14947
 H1144 H 0.87061 0.77970 0.12195
 C1145 C 0.45881 0.23601 0.54062
 C1146 C 0.44545 0.23565 0.55423
 C1147 C 0.42952 0.23524 0.57050
 C1148 C 0.43305 0.24450 0.59056
 C1149 C 0.41760 0.24412 0.60639
 C1150 C 0.39838 0.23447 0.60234
 C1151 C 0.39499 0.22521 0.58211
 C1152 C 0.41048 0.22560 0.56631
 C1153 C 0.38195 0.23411 0.61915
 C1154 C 0.36099 0.23738 0.61363
 C1155 C 0.34557 0.23725 0.62950
 C1156 C 0.35087 0.23381 0.65107
 C1157 C 0.37165 0.23045 0.65672
 C1158 C 0.38710 0.23060 0.64088
 C1159 C 0.33506 0.23398 0.66747
 C1160 C 0.32193 0.23426 0.68132
 H1161 H 0.44772 0.25207 0.59395
 H1162 H 0.42057 0.25163 0.62168
 H1163 H 0.38047 0.21744 0.57861
 H1164 H 0.40761 0.21833 0.55086
 H1165 H 0.35656 0.24039 0.59709
 H1166 H 0.32954 0.23994 0.62497
 H1167 H 0.37592 0.22775 0.67337
 H1168 H 0.40304 0.22775 0.64560
 C1169 C 0.04464 0.25876 0.04115
 C1170 C 0.05799 0.25925 0.05475
 C1171 C 0.07393 0.25989 0.07098
 C1172 C 0.06899 0.25582 0.09252
 C1173 C 0.08446 0.25646 0.10830
 C1174 C 0.10512 0.26118 0.10272
 C1175 C 0.10993 0.26524 0.08101
 C1176 C 0.09443 0.26461 0.06526
 C1177 C 0.12158 0.26179 0.11947
 C1178 C 0.14141 0.25347 0.11532
 C1179 C 0.15682 0.25386 0.13118
 C1180 C 0.15263 0.26258 0.15137
 C1181 C 0.13300 0.27098 0.15563
 C1182 C 0.11756 0.27059 0.13980
 C1183 C 0.16838 0.26263 0.16782
 C1184 C 0.18148 0.26252 0.18168
 H1185 H 0.05318 0.25209 0.09711
 H1186 H 0.08032 0.25298 0.12482
 H1187 H 0.12563 0.26918 0.07625
 H1188 H 0.09841 0.26785 0.04863
 H1189 H 0.14490 0.24635 0.09993
 H1190 H 0.17194 0.24723 0.12774
 H1191 H 0.12961 0.27779 0.17120
 H1192 H 0.10255 0.27737 0.14339
 C1193 C 0.54194 0.75721 0.54970
 C1194 C 0.55525 0.75660 0.56335
 C1195 C 0.57115 0.75592 0.57964
 C1196 C 0.59175 0.75171 0.57391
 C1197 C 0.60724 0.75116 0.58969
 C1198 C 0.60230 0.75482 0.61146
 C1199 C 0.58151 0.75898 0.61706
 C1200 C 0.56606 0.75953 0.60124
 C1201 C 0.61877 0.75441 0.62822
 C1202 C 0.61501 0.74528 0.64845
 C1203 C 0.63051 0.74500 0.66423
 C1204 C 0.64995 0.75385 0.66002
 C1205 C 0.65384 0.76295 0.63994
 C1206 C 0.63838 0.76323 0.62414
 C1207 C 0.66588 0.75371 0.67628
 C1208 C 0.67933 0.75373 0.68979
 H1209 H 0.59586 0.74883 0.55724
 H1210 H 0.62303 0.74765 0.58490
 H1211 H 0.57726 0.76212 0.63362
 H1212 H 0.55016 0.76286 0.60585
 H1213 H 0.60018 0.73813 0.65199
 H1214 H 0.62735 0.73787 0.67970
 H1215 H 0.66881 0.76991 0.63653
 H1216 H 0.64166 0.77062 0.60884
   
