data_POSCAR
  _audit_creation_date              2014-09-24
  _audit_creation_method            'ToBaCCo'
  _symmetry_space_group_name_H-M    'P1'
  _symmetry_Int_Tables_number       1
  _symmetry_cell_setting            triclinic
  loop_
  _symmetry_equiv_pos_as_xyz
 x,y,z
_cell_length_a 19.1711
_cell_length_b 19.0771
_cell_length_c 19.0247
_cell_angle_alpha 83.662000
_cell_angle_beta 96.173200
_cell_angle_gamma 77.726100
loop_
  _atom_site_label
  _atom_site_type_symbol
  _atom_site_fract_x
  _atom_site_fract_y
  _atom_site_fract_z
O1 O 0.59370 0.50043 0.07157
 O2 O 0.39725 0.51706 0.04291
 O3 O 0.50731 0.40789 0.07196
 O4 O 0.48080 0.60653 0.04027
 O5 O 0.48148 0.60230 -0.07527
 O6 O 0.51816 0.40255 -0.04194
 O7 O 0.40264 0.50206 -0.06987
 O8 O 0.59692 0.49788 -0.04388
 Cu9 Cu 0.49500 0.50809 0.06835
 Cu10 Cu 0.50009 0.50151 -0.06947
 C11 C 0.62825 0.49855 0.01822
 C12 C 0.36707 0.50853 -0.01735
 C13 C 0.51610 0.37158 0.02014
 C14 C 0.47606 0.63822 -0.02289
 O15 O -0.06880 0.59852 0.51120
 O16 O -0.04336 0.40248 0.50889
 O17 O -0.03745 0.48634 0.60643
 O18 O -0.07820 0.51335 0.41069
 O19 O 0.03811 0.49960 0.40307
 O20 O 0.07726 0.48411 0.59893
 O21 O 0.07297 0.39273 0.50421
 O22 O 0.04419 0.59013 0.49270
 Cu23 Cu -0.06880 0.50143 0.50987
 Cu24 Cu 0.06998 0.49080 0.49955
 C25 C -0.01610 0.62768 0.50266
 C26 C 0.01883 0.36446 0.50542
 C27 C 0.02619 0.48190 0.63593
 C28 C -0.02640 0.50826 0.37378
 O29 O 0.50023 0.04275 0.59828
 O30 O 0.48447 0.07618 0.40268
 O31 O 0.39438 0.06525 0.49421
 O32 O 0.59030 0.04721 0.50692
 O33 O 0.60585 -0.07129 0.50989
 O34 O 0.40987 -0.05106 0.48347
 O35 O 0.50585 -0.04197 0.39985
 O36 O 0.50378 -0.07322 0.59432
 Cu37 Cu 0.49097 0.06967 0.50096
 Cu38 Cu 0.50884 -0.07150 0.49676
 C39 C 0.50118 -0.01990 0.62931
 C40 C 0.49331 0.02251 0.36814
 C41 C 0.36880 0.01014 0.48522
 C42 C 0.63136 -0.01527 0.51153
 C43 C 0.47829 -0.00570 -0.07651
 C44 C 0.47050 -0.05896 -0.02150
 C45 C 0.47228 -0.04250 0.04875
 C46 C 0.48116 0.02498 0.06558
 C47 C 0.49013 0.07763 0.01142
 C48 C 0.48677 0.06214 -0.05905
 H49 H 0.49272 0.10313 -0.10084
 H50 H 0.46742 -0.08324 0.09134
 C51 C -0.01650 0.49672 1.07486
 C52 C -0.07042 0.49778 1.01761
 C53 C -0.05099 0.49362 0.94903
 C54 C 0.02052 0.48777 0.93569
 C55 C 0.07411 0.48989 0.99230
 C56 C 0.05454 0.49369 1.06112
 H57 H 0.09549 0.49414 1.10500
 H58 H -0.09219 0.49357 0.90522
 C59 C 0.07002 0.00690 0.49154
 C60 C 0.01177 0.06653 0.49041
 C61 C -0.05712 0.05438 0.49557
 C62 C -0.06913 -0.01574 0.50515
 C63 C -0.01075 -0.07559 0.50662
 C64 C 0.05809 -0.06324 0.50087
 H65 H 0.10310 -0.10906 0.50246
 H66 H -0.10191 0.10037 0.49420
 C67 C -0.17388 0.43946 1.00912
 C68 C -0.24641 0.43938 1.00910
 C69 C -0.29435 0.49855 1.02734
 C70 C -0.26846 0.55925 1.04613
 C71 C -0.19461 0.55996 1.04471
 C72 C -0.14684 0.49905 1.02664
 C73 C -0.17200 0.62323 1.05805
 N74 N -0.21967 0.68074 1.07407
 N75 N -0.28857 0.67963 1.07663
 C76 C -0.31467 0.62112 1.06288
 H77 H -0.13857 0.39306 0.99362
 H78 H -0.26553 0.39318 0.99338
 H79 H -0.11723 0.62797 1.05495
 H80 H -0.37135 0.62392 1.06453
 C81 C 0.17478 0.55161 1.00563
 C82 C 0.24624 0.55560 1.00510
 C83 C 0.29445 0.50443 0.97582
 C84 C 0.26998 0.44534 0.94964
 C85 C 0.19849 0.43796 0.95663
 C86 C 0.14970 0.49309 0.98237
 C87 C 0.17976 0.37326 0.94201
 N88 N 0.22722 0.32169 0.91714
 N89 N 0.29299 0.32963 0.90767
 C90 C 0.31622 0.38907 0.92355
 H91 H 0.13903 0.59370 1.02685
 H92 H 0.26364 0.60024 1.02670
 H93 H 0.12859 0.36232 0.95203
 H94 H 0.37115 0.39025 0.91720
 C95 C 0.00380 -0.18725 0.45122
 C96 C 0.00427 -0.25988 0.45080
 C97 C -0.02314 -0.29820 0.50431
 C98 C -0.04900 -0.26256 0.56156
 C99 C -0.04398 -0.18959 0.56460
 C100 C -0.01923 -0.15127 0.50778
 C101 C -0.05997 -0.15883 0.62642
 N102 N -0.08325 -0.19704 0.67983
 N103 N -0.08988 -0.26464 0.67639
 C104 C -0.07296 -0.29893 0.61968
 H105 H 0.02374 -0.15919 0.40772
 H106 H 0.02495 -0.28610 0.40711
 H107 H -0.05260 -0.10544 0.63353
 H108 H -0.07687 -0.35468 0.62194
 C109 C 0.00215 0.17388 0.55194
 C110 C 0.00341 0.24568 0.55579
 C111 C 0.02693 0.28665 0.50155
 C112 C 0.04901 0.25449 0.44139
 C113 C 0.04357 0.18225 0.43549
 C114 C 0.02097 0.14150 0.49202
 C115 C 0.05816 0.15446 0.37192
 N116 N 0.08066 0.19494 0.31959
 N117 N 0.08826 0.26179 0.32609
 C118 C 0.07292 0.29307 0.38493
 H119 H -0.01596 0.14374 0.59536
 H120 H -0.01546 0.26961 0.60111
 H121 H 0.05100 0.10138 0.36299
 H122 H 0.07847 0.34807 0.38625
 C123 C 0.54441 -0.00556 -0.18078
 C124 C 0.54985 -0.00743 -0.25271
 C125 C 0.49759 -0.02869 -0.29741
 C126 C 0.43707 -0.04660 -0.26875
 C127 C 0.42845 -0.03829 -0.19651
 C128 C 0.48359 -0.01911 -0.15172
 C129 C 0.36288 -0.04520 -0.17304
 N130 N 0.31165 -0.06397 -0.21719
 N131 N 0.32081 -0.07464 -0.28387
 C132 C 0.38132 -0.06609 -0.31133
 H133 H 0.58696 0.00979 -0.14790
 H134 H 0.59588 0.00740 -0.27349
 H135 H 0.35115 -0.03427 -0.12063
 H136 H 0.38453 -0.07350 -0.36642
 C137 C 0.54859 0.01552 0.18548
 C138 C 0.55140 0.01344 0.25918
 C139 C 0.48844 0.03456 0.28996
 C140 C 0.42153 0.06008 0.24567
 C141 C 0.41831 0.05928 0.17104
 C142 C 0.48253 0.03687 0.14105
 C143 C 0.35041 0.07941 0.12897
 N144 N 0.29030 0.10131 0.15974
 N145 N 0.29352 0.10375 0.22968
 C146 C 0.35699 0.08389 0.27367
 H147 H 0.59786 -0.00298 0.16317
 H148 H 0.60285 -0.00645 0.29264
 H149 H 0.34469 0.07849 0.07189
 H150 H 0.35631 0.08660 0.33006
 C151 C 0.51925 -0.17897 -0.05933
 C152 C 0.52022 -0.25233 -0.06011
 C153 C 0.46567 -0.28218 -0.03416
 C154 C 0.40641 -0.23628 -0.01179
 C155 C 0.40481 -0.16163 -0.01180
 C156 C 0.46319 -0.13325 -0.03342
 C157 C 0.34438 -0.11765 0.00999
 N158 N 0.29012 -0.14696 0.03080
 N159 N 0.29196 -0.21715 0.03114
 C160 C 0.34812 -0.26274 0.01054
 H161 H 0.56447 -0.15860 -0.07564
 H162 H 0.56609 -0.28690 -0.07708
 H163 H 0.33918 -0.06006 0.00972
 H164 H 0.34626 -0.31898 0.01085
 C165 C 0.45019 0.20028 0.04679
 C166 C 0.45738 0.27115 0.04994
 C167 C 0.51860 0.29315 0.03026
 C168 C 0.57597 0.24129 0.01216
 C169 C 0.56955 0.16865 0.01088
 C170 C 0.50490 0.14868 0.02588
 C171 C 0.62821 0.11831 -0.00612
 N172 N 0.68851 0.13987 -0.02153
 N173 N 0.69420 0.20818 -0.02089
 C174 C 0.64006 0.25958 -0.00458
 H175 H 0.39985 0.18695 0.05698
 H176 H 0.41265 0.31036 0.06324
 H177 H 0.62697 0.06195 -0.00662
 H178 H 0.64788 0.31399 -0.00393
 C179 C -0.18055 -0.05498 0.46408
 C180 C -0.25296 -0.05512 0.46612
 C181 C -0.29026 -0.02213 0.51760
 C182 C -0.25293 0.00743 0.57094
 C183 C -0.17898 0.00624 0.56990
 C184 C -0.14324 -0.02320 0.51444
 C185 C -0.14293 0.03408 0.62512
 N186 N -0.17919 0.06203 0.67675
 N187 N -0.24890 0.06377 0.67723
 C188 C -0.28692 0.03736 0.62627
 H189 H -0.15416 -0.07749 0.42138
 H190 H -0.28101 -0.07803 0.42509
 H191 H -0.08602 0.03281 0.62857
 H192 H -0.34304 0.03928 0.63003
 C193 C 0.18127 0.04560 0.53393
 C194 C 0.25330 0.04702 0.53161
 C195 C 0.29048 0.01620 0.47895
 C196 C 0.25317 -0.01261 0.42480
 C197 C 0.17942 -0.01242 0.42613
 C198 C 0.14399 0.01492 0.48258
 C199 C 0.14320 -0.03922 0.37026
 N200 N 0.17908 -0.06532 0.31762
 N201 N 0.24858 -0.06624 0.31682
 C202 C 0.28680 -0.04083 0.36842
 H203 H 0.15512 0.06636 0.57752
 H204 H 0.28127 0.06904 0.57342
 H205 H 0.08645 -0.03867 0.36720
 H206 H 0.34270 -0.04205 0.36402
 C207 C -0.01715 0.56107 1.18059
 C208 C -0.02010 0.56459 1.25285
 C209 C -0.03954 0.50960 1.29591
 C210 C -0.05844 0.45075 1.26502
 C211 C -0.05197 0.44533 1.19205
 C212 C -0.03150 0.50142 1.14945
 C213 C -0.06254 0.38196 1.16541
 N214 N -0.08272 0.32996 1.20782
 N215 N -0.09167 0.33641 1.27543
 C216 C -0.07990 0.39475 1.30557
 H217 H -0.00041 0.60393 1.14912
 H218 H -0.00463 0.60940 1.27595
 H219 H -0.05408 0.37278 1.11167
 H220 H -0.08661 0.39628 1.36106
 C221 C 0.05766 0.53211 0.82032
 C222 C 0.05960 0.53031 0.74729
 C223 C 0.03941 0.47404 0.71447
 C224 C 0.02225 0.41592 0.75665
 C225 C 0.02008 0.41759 0.83049
 C226 C 0.03565 0.47759 0.86206
 C227 C 0.00189 0.35889 0.87044
 N228 N -0.01265 0.30277 0.83807
 N229 N -0.01026 0.30126 0.76858
 C230 C 0.00673 0.35585 0.72691
 H231 H 0.06944 0.57835 0.84355
 H232 H 0.07249 0.57535 0.71545
 H233 H 0.00018 0.35643 0.92725
 H234 H 0.00905 0.35161 0.67113
   
