data_POSCAR
  _audit_creation_date              2014-09-24
  _audit_creation_method            'ToBaCCo'
  _symmetry_space_group_name_H-M    'P1'
  _symmetry_Int_Tables_number       1
  _symmetry_cell_setting            triclinic
  loop_
  _symmetry_equiv_pos_as_xyz
 x,y,z
_cell_length_a 44.2687
_cell_length_b 44.6260
_cell_length_c 44.9634
_cell_angle_alpha 89.873200
_cell_angle_beta 89.904200
_cell_angle_gamma 90.135500
loop_
  _atom_site_label
  _atom_site_type_symbol
  _atom_site_fract_x
  _atom_site_fract_y
  _atom_site_fract_z
N1 N 0.29355 0.37625 1.35758
 N2 N 0.29320 0.35301 1.37553
 C3 C 0.27024 0.35588 1.39493
 C4 C 0.25540 0.38264 1.38920
 C5 C 0.27112 0.39505 1.36534
 H6 H 0.26504 0.33980 1.41218
 H7 H 0.26592 0.41554 1.35357
 Cu8 Cu 0.32292 0.32128 1.37216
 Cu9 Cu 0.32134 0.37879 1.32387
 Cu10 Cu 0.37233 0.32021 1.31551
 N11 N 0.35344 0.29028 1.36887
 N12 N 0.37154 0.28883 1.34577
 C13 C 0.38969 0.26481 1.34873
 C14 C 0.38309 0.25076 1.37559
 C15 C 0.35989 0.26773 1.38768
 H16 H 0.40737 0.25899 1.33318
 H17 H 0.34821 0.26380 1.40843
 N18 N 0.36983 0.35425 1.28757
 N19 N 0.35104 0.37690 1.29108
 C20 C 0.35544 0.39673 1.26882
 C21 C 0.37811 0.38610 1.25036
 C22 C 0.38666 0.35912 1.26306
 H23 H 0.34281 0.41723 1.26605
 H24 H 0.40418 0.34425 1.25531
 H25 H 0.32759 0.33323 1.31941
 H26 H 0.35569 0.35374 1.34267
 N27 N 1.20557 0.62888 0.86009
 N28 N 1.20268 0.64783 0.88220
 C29 C 1.22519 0.64320 0.90182
 C30 C 1.24316 0.62007 0.89139
 C31 C 1.22988 0.61156 0.86483
 H32 H 1.22847 0.65594 0.92196
 H33 H 1.23710 0.59388 0.85008
 Cu34 Cu 1.17006 0.67696 0.88251
 Cu35 Cu 1.17748 0.62764 0.82696
 Cu36 Cu 1.11787 0.67806 0.82810
 N37 N 1.13729 0.70585 0.88237
 N38 N 1.11686 0.70630 0.86123
 C39 C 1.09781 0.72932 0.86604
 C40 C 1.10685 0.74433 0.89164
 C41 C 1.13199 0.72848 0.90132
 H42 H 1.07931 0.73502 0.85146
 H43 H 1.14600 0.73330 0.92032
 N44 N 1.12327 0.64778 0.79652
 N45 N 1.14672 0.62958 0.79557
 C46 C 1.14490 0.61259 0.77097
 C47 C 1.11894 0.62015 0.75581
 C48 C 1.10565 0.64246 0.77265
 H49 H 1.16088 0.59539 0.76481
 H50 H 1.08493 0.65418 0.76762
 H51 H 1.16397 0.67215 0.82887
 H52 H 1.14067 0.64444 0.85005
 N53 N 0.70339 -0.12470 0.13532
 N54 N 0.70084 -0.14501 0.11437
 C55 C 0.72417 -0.14201 0.09523
 C56 C 0.74232 -0.11861 0.10488
 C57 C 0.72827 -0.10818 0.13035
 H58 H 0.72796 -0.15607 0.07605
 H59 H 0.73541 -0.08973 0.14420
 Cu60 Cu 0.66751 -0.17356 0.11523
 Cu61 Cu 0.67452 -0.12087 0.16767
 Cu62 Cu 0.61358 -0.16988 0.16795
 N63 N 0.63381 -0.20160 0.11603
 N64 N 0.61259 -0.19983 0.13640
 C65 C 0.59274 -0.22238 0.13251
 C66 C 0.60208 -0.23956 0.10843
 C67 C 0.62827 -0.22539 0.09855
 H68 H 0.57355 -0.22638 0.14686
 H69 H 0.64266 -0.23202 0.08034
 N70 N 0.61909 -0.13812 0.19799
 N71 N 0.64294 -0.12032 0.19840
 C72 C 0.64135 -0.10246 0.22241
 C73 C 0.61515 -0.10910 0.23776
 C74 C 0.60147 -0.13173 0.22162
 H75 H 0.65790 -0.08564 0.22826
 H76 H 0.58069 -0.14322 0.22721
 H77 H 0.65984 -0.16508 0.16823
 H78 H 0.63807 -0.13831 0.14463
 N79 N -0.19470 1.11581 -0.36250
 N80 N -0.19422 1.13881 -0.38083
 C81 C -0.21843 1.13749 -0.39881
 C82 C -0.23487 1.11207 -0.39164
 C83 C -0.21904 1.09871 -0.36858
 H84 H -0.22344 1.15363 -0.41607
 H85 H -0.22516 1.07854 -0.35660
 Cu86 Cu -0.16145 1.16776 -0.38050
 Cu87 Cu -0.16407 1.11108 -0.33152
 Cu88 Cu -0.13134 1.17952 -0.31356
 N89 N -0.13415 1.20107 -0.37353
 N90 N -0.12313 1.20619 -0.34695
 C91 C -0.10677 1.23162 -0.34759
 C92 C -0.10718 1.24306 -0.37641
 C93 C -0.12487 1.22279 -0.39222
 H94 H -0.09531 1.24072 -0.32842
 H95 H -0.13153 1.22414 -0.41528
 N96 N -0.13073 1.14434 -0.28695
 N97 N -0.14212 1.11795 -0.29399
 C98 C -0.13626 1.09841 -0.27182
 C99 C -0.12024 1.11325 -0.24975
 C100 C -0.11722 1.14232 -0.26031
 H101 H -0.14318 1.07517 -0.27185
 H102 H -0.10531 1.16065 -0.24992
 H103 H -0.16899 1.15563 -0.32803
 H104 H -0.13105 1.14396 -0.34180
 N105 N 0.70204 0.62654 0.63910
 N106 N 0.69678 0.64126 0.61434
 C107 C 0.72028 0.63746 0.59560
 C108 C 0.74149 0.61940 0.60955
 C109 C 0.72896 0.61291 0.63708
 H110 H 0.72197 0.64746 0.57374
 H111 H 0.73839 0.59877 0.65423
 Cu112 Cu 0.66013 0.66465 0.60983
 Cu113 Cu 0.67317 0.62460 0.67168
 Cu114 Cu 0.60704 0.66523 0.66340
 N115 N 0.63061 0.69668 0.61280
 N116 N 0.60976 0.69696 0.63363
 C117 C 0.59277 0.72178 0.63049
 C118 C 0.60381 0.73815 0.60653
 C119 C 0.62781 0.72136 0.59586
 H120 H 0.57431 0.72777 0.64507
 H121 H 0.64232 0.72662 0.57720
 N122 N 0.61511 0.63942 0.69815
 N123 N 0.64090 0.62511 0.70181
 C124 C 0.64007 0.61016 0.72779
 C125 C 0.61240 0.61510 0.74116
 C126 C 0.59707 0.63375 0.72170
 H127 H 0.65790 0.59588 0.73601
 H128 H 0.57461 0.64275 0.72459
 H129 H 0.63528 0.63184 0.64663
 H130 H 0.65300 0.66576 0.66337
 N131 N 0.79727 0.38055 0.14489
 N132 N 0.79703 0.35775 0.12640
 C133 C 0.77410 0.36120 0.10705
 C134 C 0.75944 0.38771 0.11357
 C135 C 0.77482 0.39947 0.13764
 H136 H 0.76848 0.34570 0.08944
 H137 H 0.76939 0.41976 0.14960
 Cu138 Cu 0.82674 0.32585 0.12939
 Cu139 Cu 0.82490 0.38280 0.17855
 Cu140 Cu 0.87663 0.32503 0.18546
 N141 N 0.85765 0.29503 0.13224
 N142 N 0.87634 0.29429 0.15491
 C143 C 0.89471 0.27049 0.15216
 C144 C 0.88743 0.25567 0.12617
 C145 C 0.86386 0.27190 0.11401
 H146 H 0.91254 0.26476 0.16755
 H147 H 0.85193 0.26696 0.09363
 N148 N 0.87371 0.35820 0.21402
 N149 N 0.85458 0.38066 0.21120
 C150 C 0.85828 0.39952 0.23435
 C151 C 0.88071 0.38822 0.25265
 C152 C 0.88997 0.36210 0.23892
 H153 H 0.84510 0.41952 0.23808
 H154 H 0.90741 0.34702 0.24649
 H155 H 0.85907 0.35864 0.15875
 H156 H 0.83153 0.33732 0.18219
 N157 N 0.30239 0.11826 0.85968
 N158 N 0.30364 0.14072 0.87854
 C159 C 0.28042 0.13852 0.89779
 C160 C 0.26388 0.11319 0.89085
 C161 C 0.27856 0.10074 0.86664
 H162 H 0.27567 0.15424 0.91543
 H163 H 0.27164 0.08115 0.85425
 Cu164 Cu 0.33485 0.17122 0.87558
 Cu165 Cu 0.33001 0.11518 0.82580
 Cu166 Cu 0.38392 0.17155 0.81904
 N167 N 0.36618 0.20167 0.87262
 N168 N 0.38463 0.20227 0.84970
 C169 C 0.40313 0.22611 0.85208
 C170 C 0.39612 0.24111 0.87805
 C171 C 0.37259 0.22494 0.89059
 H172 H 0.42067 0.23189 0.83630
 H173 H 0.36069 0.23017 0.91093
 N174 N 0.37989 0.13849 0.79042
 N175 N 0.35996 0.11659 0.79306
 C176 C 0.36305 0.09788 0.76968
 C177 C 0.38589 0.10874 0.75144
 C178 C 0.39603 0.13438 0.76545
 H179 H 0.34917 0.07834 0.76570
 H180 H 0.41397 0.14903 0.75796
 H181 H 0.36544 0.13779 0.84517
 H182 H 0.33845 0.16039 0.82259
 N183 N 0.20668 0.87381 0.35959
 N184 N 0.20330 0.85478 0.38167
 C185 C 0.22654 0.85806 0.40075
 C186 C 0.24551 0.88039 0.39002
 C187 C 0.23206 0.88982 0.36382
 H188 H 0.22952 0.84505 0.42082
 H189 H 0.23978 0.90745 0.34913
 Cu190 Cu 0.16896 0.82744 0.38332
 Cu191 Cu 0.17748 0.87740 0.32752
 Cu192 Cu 0.11603 0.82934 0.32949
 N193 N 0.13565 0.79887 0.38219
 N194 N 0.11485 0.79998 0.36142
 C195 C 0.09527 0.77718 0.36537
 C196 C 0.10434 0.76069 0.38989
 C197 C 0.13005 0.77522 0.40002
 H198 H 0.07653 0.77230 0.35077
 H199 H 0.14393 0.76885 0.41873
 N200 N 0.12134 0.86038 0.29879
 N201 N 0.14541 0.87782 0.29723
 C202 C 0.14297 0.89570 0.27316
 C203 C 0.11592 0.88942 0.25916
 C204 C 0.10278 0.86697 0.27603
 H205 H 0.15926 0.91258 0.26665
 H206 H 0.08145 0.85599 0.27173
 H207 H 0.14085 0.86186 0.35148
 H208 H 0.16264 0.83343 0.32980
 Zn209 Zn 0.00728 1.04166 -0.01144
 Zn210 Zn -0.02022 0.98062 -0.02097
 Zn211 Zn 0.04022 0.98760 0.00896
 Zn212 Zn -0.01497 1.00704 0.04027
 O213 O 0.00299 1.00414 0.00406
 O214 O -0.01264 1.04549 -0.04539
 O215 O -0.00027 0.94753 -0.03353
 O216 O 0.07002 1.01038 -0.00562
 O217 O -0.03271 1.00084 -0.05376
 O218 O 0.04577 1.05120 -0.01993
 O219 O 0.04328 0.95302 -0.01001
 O220 O 0.00731 0.99229 0.06974
 O221 O -0.05412 0.96690 -0.00291
 O222 O 0.04947 0.97919 0.04701
 O223 O -0.04943 0.98688 0.04182
 O224 O -0.02385 1.04458 0.05069
 O225 O -0.00736 1.07064 0.01209
 C226 C -0.02846 1.02804 -0.06129
 C227 C 0.02598 0.93809 -0.02689
 C228 C 0.07001 1.03628 -0.01730
 C229 C 0.03368 0.98134 0.07048
 C230 C -0.06391 0.97091 0.02340
 C231 C -0.02003 1.06938 0.03739
 Zn232 Zn 0.48740 0.00618 0.45831
 Zn233 Zn 0.48095 -0.02143 0.51933
 Zn234 Zn 0.54200 -0.01393 0.49064
 Zn235 Zn 0.50889 0.03957 0.51100
 O236 O 0.50468 0.00247 0.49492
 O237 O 0.45292 -0.01404 0.45601
 O238 O 0.50077 -0.05464 0.53206
 O239 O 0.55162 -0.02220 0.45281
 O240 O 0.44742 -0.03479 0.50045
 O241 O 0.51032 -0.00828 0.42900
 O242 O 0.54501 -0.04843 0.50989
 O243 O 0.54723 0.04946 0.51953
 O244 O 0.46786 -0.00175 0.55227
 O245 O 0.57171 0.00886 0.50524
 O246 O 0.48890 0.04266 0.54491
 O247 O 0.49396 0.06873 0.48814
 O248 O 0.47843 0.04413 0.44835
 C249 C 0.43811 -0.03033 0.47404
 C250 C 0.52743 -0.06363 0.52636
 C251 C 0.53656 -0.01961 0.42896
 C252 C 0.57156 0.03471 0.51690
 C253 C 0.47258 0.02517 0.56036
 C254 C 0.48159 0.06836 0.46273
 Zn255 Zn 1.00541 0.46192 0.49071
 Zn256 Zn 1.03894 0.51643 0.50805
 Zn257 Zn 0.97660 0.52230 0.48191
 Zn258 Zn 0.98587 0.49646 0.54323
 O259 O 1.00158 0.49941 0.50587
 O260 O 1.04352 0.45202 0.48159
 O261 O 1.04084 0.55039 0.48771
 O262 O 0.96286 0.50168 0.44986
 O263 O 1.06830 0.49347 0.49306
 O264 O 0.98471 0.45779 0.45739
 O265 O 0.99550 0.55547 0.46773
 O266 O 0.95157 0.51652 0.54643
 O267 O 1.04988 0.52614 0.54518
 O268 O 0.94357 0.53570 0.50171
 O269 O 1.00984 0.51204 0.57113
 O270 O 0.97725 0.45872 0.55449
 O271 O 0.99118 0.43328 0.51469
 C272 C 1.06784 0.46706 0.48272
 C273 C 1.02229 0.56498 0.47189
 C274 C 0.96780 0.47472 0.44208
 C275 C 0.93573 0.53207 0.52872
 C276 C 1.03582 0.52400 0.56971
 C277 C 0.97979 0.43415 0.54055
 Zn278 Zn 0.50655 0.46129 1.01353
 Zn279 Zn 0.48475 0.49471 0.96045
 Zn280 Zn 0.47696 0.52134 1.02125
 Zn281 Zn 0.53824 0.51642 0.99331
 O282 O 0.50153 0.49846 0.99723
 O283 O 0.49317 0.43175 0.98999
 O284 O 0.44946 0.51338 0.95790
 O285 O 0.46439 0.50125 1.05388
 O286 O 0.47758 0.45662 0.95029
 O287 O 0.48618 0.45714 1.04753
 O288 O 0.44323 0.53353 1.00237
 O289 O 0.54004 0.55098 1.01257
 O290 O 0.50734 0.51050 0.93135
 O291 O 0.49532 0.55510 1.03414
 O292 O 0.54795 0.52542 0.95567
 O293 O 0.56838 0.49450 1.00796
 O294 O 0.54526 0.45295 1.02239
 C295 C 0.48148 0.43219 0.96423
 C296 C 0.43411 0.52895 0.97597
 C297 C 0.46944 0.47457 1.06252
 C298 C 0.52160 0.56533 1.02874
 C299 C 0.53321 0.52274 0.93165
 C300 C 0.56909 0.46864 1.01969
 C301 C 1.17685 0.41612 0.43227
 C302 C 1.19460 0.43513 0.41403
 C303 C 1.22026 0.42385 0.39943
 C304 C 1.22965 0.39404 0.40384
 C305 C 1.21272 0.37582 0.42334
 C306 C 1.18664 0.38656 0.43710
 C307 C 1.14871 0.42853 0.44609
 C308 C 1.12742 0.41051 0.46123
 C309 C 1.10123 0.42308 0.47320
 C310 C 1.09596 0.45394 0.47096
 C311 C 1.11696 0.47209 0.45597
 C312 C 1.14277 0.45951 0.44283
 C313 C 1.18697 0.46543 0.41095
 C314 C 1.16203 0.47751 0.42562
 H315 H 1.20076 0.48017 0.39734
 H316 H 1.15733 0.50118 0.42283
 H317 H 1.23332 0.43875 0.38535
 H318 H 1.21893 0.35280 0.42759
 H319 H 1.08507 0.40866 0.48438
 H320 H 1.11254 0.49586 0.45347
 H321 H 1.17463 0.37143 0.45168
 H322 H 1.13023 0.38661 0.46345
 C323 C 0.32324 0.58238 0.93149
 C324 C 0.31577 0.57613 0.90153
 C325 C 0.28978 0.58853 0.88875
 C326 C 0.27069 0.60726 0.90526
 C327 C 0.27813 0.61354 0.93495
 C328 C 0.30400 0.60129 0.94793
 C329 C 0.35137 0.56865 0.94417
 C330 C 0.36103 0.57336 0.97369
 C331 C 0.38769 0.56030 0.98418
 C332 C 0.40534 0.54220 0.96554
 C333 C 0.39569 0.53719 0.93624
 C334 C 0.36909 0.55020 0.92548
 C335 C 0.33429 0.55758 0.88434
 C336 C 0.36037 0.54490 0.89605
 H337 H 0.32856 0.55281 0.86140
 H338 H 0.37397 0.53076 0.88179
 H339 H 0.28471 0.58370 0.86571
 H340 H 0.26382 0.62775 0.94838
 H341 H 0.39458 0.56454 1.00688
 H342 H 0.40904 0.52325 0.92154
 H343 H 0.30848 0.60689 0.97082
 H344 H 0.34845 0.58712 0.98899
 C345 C -0.17534 0.91634 0.06635
 C346 C -0.18309 0.92242 0.09630
 C347 C -0.20971 0.91067 0.10855
 C348 C -0.22921 0.89282 0.09156
 C349 C -0.22139 0.88639 0.06200
 C350 C -0.19482 0.89800 0.04949
 C351 C -0.14676 0.92984 0.05412
 C352 C -0.13683 0.92562 0.02457
 C353 C -0.11001 0.93892 0.01442
 C354 C -0.09250 0.95675 0.03345
 C355 C -0.10228 0.96099 0.06285
 C356 C -0.12900 0.94782 0.07324
 C357 C -0.16437 0.94029 0.11397
 C358 C -0.13790 0.95270 0.10270
 H359 H -0.17031 0.94485 0.13692
 H360 H -0.12421 0.96644 0.11730
 H361 H -0.21503 0.91541 0.13158
 H362 H -0.23601 0.87273 0.04830
 H363 H -0.10298 0.93522 -0.00836
 H364 H -0.08901 0.97465 0.07790
 H365 H -0.19006 0.89249 0.02662
 H366 H -0.14941 0.91217 0.00898
 C367 C 0.68233 0.08242 0.56739
 C368 C 0.70284 0.06135 0.57947
 C369 C 0.72949 0.07119 0.59336
 C370 C 0.73669 0.10178 0.59444
 C371 C 0.71682 0.12254 0.58164
 C372 C 0.68992 0.11308 0.56844
 C373 C 0.65366 0.07104 0.55362
 C374 C 0.63045 0.09015 0.54356
 C375 C 0.60392 0.07836 0.53143
 C376 C 0.60008 0.04732 0.52853
 C377 C 0.62309 0.02813 0.53832
 C378 C 0.64943 0.03968 0.55137
 C379 C 0.69693 0.03061 0.57712
 C380 C 0.67107 0.02001 0.56292
 H381 H 0.71275 0.01445 0.58609
 H382 H 0.66770 -0.00401 0.56143
 H383 H 0.74502 0.05494 0.60266
 H384 H 0.72189 0.14628 0.58215
 H385 H 0.58634 0.09359 0.52426
 H386 H 0.62000 0.00407 0.53677
 H387 H 0.67559 0.13008 0.55891
 H388 H 0.63207 0.11419 0.54537
 C389 C 0.42605 0.17537 0.41475
 C390 C 0.42938 0.18114 0.38400
 C391 C 0.41585 0.20661 0.37124
 C392 C 0.39723 0.22553 0.38833
 C393 C 0.39277 0.21851 0.41856
 C394 C 0.40717 0.19408 0.43163
 C395 C 0.44172 0.14874 0.42782
 C396 C 0.44326 0.14355 0.45868
 C397 C 0.45711 0.11786 0.46979
 C398 C 0.46939 0.09650 0.45046
 C399 C 0.46897 0.10191 0.41970
 C400 C 0.45598 0.12829 0.40834
 C401 C 0.44531 0.16092 0.36606
 C402 C 0.45755 0.13462 0.37783
 H403 H 0.44759 0.16504 0.34240
 H404 H 0.46889 0.11927 0.36289
 H405 H 0.41890 0.21080 0.34769
 H406 H 0.37873 0.23226 0.43268
 H407 H 0.45746 0.11425 0.49362
 H408 H 0.47911 0.08579 0.40471
 H409 H 0.40276 0.18992 0.45488
 H410 H 0.43409 0.15915 0.47459
 C411 C 0.93252 0.32398 0.59171
 C412 C 0.91997 0.30302 0.57165
 C413 C 0.90676 0.27645 0.58232
 C414 C 0.90652 0.26962 0.61293
 C415 C 0.92026 0.29003 0.63258
 C416 C 0.93289 0.31681 0.62221
 C417 C 0.94522 0.35268 0.57947
 C418 C 0.95542 0.37635 0.59765
 C419 C 0.96665 0.40281 0.58506
 C420 C 0.96850 0.40610 0.55411
 C421 C 0.95832 0.38273 0.53584
 C422 C 0.94617 0.35645 0.54822
 C423 C 0.92101 0.30847 0.54097
 C424 C 0.93430 0.33436 0.52949
 H425 H 0.91168 0.29230 0.52553
 H426 H 0.93477 0.33739 0.50557
 H427 H 0.89717 0.26096 0.56642
 H428 H 0.92090 0.28584 0.65626
 H429 H 0.97407 0.42071 0.59958
 H430 H 0.95894 0.38541 0.51186
 H431 H 0.94302 0.33148 0.63842
 H432 H 0.95444 0.37508 0.62159
 C433 C 0.07207 0.82464 -0.07077
 C434 C 0.05789 0.81176 -0.09582
 C435 C 0.06920 0.78502 -0.10812
 C436 C 0.09449 0.77053 -0.09560
 C437 C 0.10756 0.78312 -0.06998
 C438 C 0.09662 0.80959 -0.05780
 C439 C 0.06030 0.85375 -0.05900
 C440 C 0.07437 0.86916 -0.03552
 C441 C 0.06296 0.89630 -0.02545
 C442 C 0.03713 0.90902 -0.03831
 C443 C 0.02282 0.89392 -0.06181
 C444 C 0.03447 0.86658 -0.07247
 C445 C 0.03252 0.82566 -0.10838
 C446 C 0.02088 0.85228 -0.09675
 H447 H 0.02143 0.81577 -0.12746
 H448 H 0.00118 0.86205 -0.10723
 H449 H 0.05819 0.77578 -0.12753
 H450 H 0.12661 0.77288 -0.05899
 H451 H 0.07454 0.90734 -0.00729
 H452 H 0.00301 0.90366 -0.07213
 H453 H 0.10781 0.81775 -0.03815
 H454 H 0.09443 0.86093 -0.02473
 C455 C 0.56347 0.67933 1.07598
 C456 C 0.59051 0.69089 1.06360
 C457 C 0.60273 0.71788 1.07406
 C458 C 0.58888 0.73385 1.09733
 C459 C 0.56193 0.72224 1.10950
 C460 C 0.54939 0.69550 1.09899
 C461 C 0.55141 0.65018 1.06421
 C462 C 0.52434 0.63684 1.07442
 C463 C 0.51444 0.60941 1.06287
 C464 C 0.53134 0.59456 1.04101
 C465 C 0.55810 0.60787 1.03056
 C466 C 0.56810 0.63539 1.04177
 C467 C 0.60558 0.67529 1.04107
 C468 C 0.59471 0.64807 1.03052
 H469 H 0.62631 0.68412 1.03161
 H470 H 0.60738 0.63676 1.01323
 H471 H 0.62347 0.72592 1.06409
 H472 H 0.55024 0.73365 1.12729
 H473 H 0.49366 0.59968 1.07125
 H474 H 0.57125 0.59685 1.01342
 H475 H 0.52881 0.68776 1.10937
 H476 H 0.51052 0.64719 1.09127
 C477 C 0.41509 0.42741 1.17106
 C478 C 0.42134 0.39708 1.17797
 C479 C 0.40913 0.38388 1.20367
 C480 C 0.39063 0.40033 1.22304
 C481 C 0.38435 0.43036 1.21610
 C482 C 0.39637 0.44376 1.19052
 C483 C 0.42873 0.44060 1.14331
 C484 C 0.42402 0.47052 1.13425
 C485 C 0.43725 0.48160 1.10813
 C486 C 0.45553 0.46319 1.09041
 C487 C 0.46036 0.43341 1.09933
 C488 C 0.44718 0.42206 1.12542
 C489 C 0.43976 0.38001 1.15922
 C490 C 0.45241 0.39222 1.13354
 H491 H 0.44453 0.35679 1.16450
 H492 H 0.46652 0.37803 1.11981
 H493 H 0.41399 0.36058 1.20835
 H494 H 0.37033 0.44379 1.23058
 H495 H 0.43309 0.50465 1.10181
 H496 H 0.47438 0.41886 1.08588
 H497 H 0.39081 0.46692 1.18647
 H498 H 0.41019 0.48572 1.14693
 C499 C 0.58495 -0.06877 0.31944
 C500 C 0.56374 -0.07945 0.29841
 C501 C 0.57372 -0.09307 0.27204
 C502 C 0.60464 -0.09533 0.26576
 C503 C 0.62560 -0.08393 0.28617
 C504 C 0.61597 -0.07096 0.31274
 C505 C 0.57339 -0.05532 0.34778
 C506 C 0.59253 -0.04646 0.37123
 C507 C 0.58057 -0.03462 0.39744
 C508 C 0.54933 -0.03089 0.40077
 C509 C 0.53009 -0.03945 0.37750
 C510 C 0.54179 -0.05212 0.35138
 C511 C 0.53273 -0.07608 0.30359
 C512 C 0.52201 -0.06228 0.32929
 H513 H 0.51649 -0.08397 0.28737
 H514 H 0.49781 -0.06002 0.33215
 H515 H 0.55737 -0.10129 0.25606
 H516 H 0.64961 -0.08541 0.28181
 H517 H 0.59584 -0.02836 0.41518
 H518 H 0.50584 -0.03720 0.38012
 H519 H 0.63315 -0.06259 0.32754
 H520 H 0.61672 -0.04898 0.37005
 C521 C -0.08228 1.07878 -0.16799
 C522 C -0.09574 1.05891 -0.18859
 C523 C -0.10841 1.07012 -0.21511
 C524 C -0.10797 1.10103 -0.22141
 C525 C -0.09525 1.12054 -0.20042
 C526 C -0.08260 1.10969 -0.17422
 C527 C -0.06829 1.06607 -0.14038
 C528 C -0.05344 1.08406 -0.11929
 C529 C -0.04068 1.07141 -0.09398
 C530 C -0.04225 1.04043 -0.08873
 C531 C -0.05696 1.02215 -0.10963
 C532 C -0.06978 1.03474 -0.13549
 C533 C -0.09636 1.02806 -0.18258
 C534 C -0.08384 1.01627 -0.15654
 H535 H -0.10672 1.01275 -0.19823
 H536 H -0.08497 0.99227 -0.15295
 H537 H -0.11829 1.05465 -0.23088
 H538 H -0.09496 1.14450 -0.20401
 H539 H -0.02962 1.08621 -0.07832
 H540 H -0.05824 0.99816 -0.10593
 H541 H -0.07324 1.12605 -0.15923
 H542 H -0.05122 1.10797 -0.12183
 C543 C 1.08686 0.57863 0.67545
 C544 C 1.06615 0.58949 0.69690
 C545 C 1.07672 0.60383 0.72266
 C546 C 1.10779 0.60654 0.72799
 C547 C 1.12827 0.59519 0.70708
 C548 C 1.11803 0.58159 0.68105
 C549 C 1.07464 0.56396 0.64799
 C550 C 1.09316 0.55459 0.62422
 C551 C 1.08059 0.54136 0.59896
 C552 C 1.04934 0.53671 0.59694
 C553 C 1.03071 0.54587 0.62050
 C554 C 1.04301 0.55991 0.64563
 C555 C 1.03506 0.58539 0.69286
 C556 C 1.02377 0.57051 0.66800
 H557 H 1.01920 0.59346 0.70937
 H558 H 0.99953 0.56763 0.66607
 H559 H 1.06076 0.61202 0.73903
 H560 H 1.15238 0.59703 0.71074
 H561 H 1.09538 0.53472 0.58094
 H562 H 1.00644 0.54297 0.61884
 H563 H 1.13488 0.57322 0.66587
 H564 H 1.11732 0.55772 0.62444
 C565 C 0.82651 0.58528 0.57715
 C566 C 0.80545 0.59768 0.55697
 C567 C 0.77790 0.60935 0.56753
 C568 C 0.77102 0.60876 0.59807
 C569 C 0.79247 0.59727 0.61794
 C570 C 0.81975 0.58576 0.60775
 C571 C 0.85504 0.57196 0.56509
 C572 C 0.87654 0.55796 0.58342
 C573 C 0.90244 0.54531 0.57132
 C574 C 0.90792 0.54619 0.54058
 C575 C 0.88675 0.56030 0.52198
 C576 C 0.86026 0.57295 0.53402
 C577 C 0.81195 0.59811 0.52643
 C578 C 0.83882 0.58618 0.51523
 H579 H 0.79596 0.60775 0.51092
 H580 H 0.84271 0.58702 0.49144
 H581 H 0.76163 0.61827 0.55189
 H582 H 0.78833 0.59714 0.64166
 H583 H 0.91831 0.53473 0.58632
 H584 H 0.89064 0.56105 0.49818
 H585 H 0.83510 0.57733 0.62432
 H586 H 0.87382 0.55620 0.60717
 C587 C 0.68067 0.42471 1.07126
 C588 C 0.68432 0.39329 1.07349
 C589 C 0.71047 0.38135 1.08659
 C590 C 0.73253 0.40030 1.09876
 C591 C 0.72842 0.43138 1.09739
 C592 C 0.70297 0.44350 1.08365
 C593 C 0.65269 0.43657 1.05672
 C594 C 0.64821 0.46728 1.05104
 C595 C 0.62136 0.47736 1.03836
 C596 C 0.59813 0.45720 1.03124
 C597 C 0.60267 0.42645 1.03599
 C598 C 0.62994 0.41599 1.04815
 C599 C 0.66151 0.37402 1.06341
 C600 C 0.63465 0.38514 1.05156
 H601 H 0.66416 0.34996 1.06532
 H602 H 0.61743 0.36932 1.04469
 H603 H 0.71318 0.35726 1.08820
 H604 H 0.74511 0.44641 1.10675
 H605 H 0.61852 0.50120 1.03475
 H606 H 0.58506 0.41064 1.03003
 H607 H 0.70098 0.46758 1.08343
 H608 H 0.66517 0.48388 1.05611
 C609 C 0.18123 1.08364 -0.06762
 C610 C 0.20185 1.06251 -0.07940
 C611 C 0.22852 1.07230 -0.09339
 C612 C 0.23563 1.10289 -0.09481
 C613 C 0.21573 1.12370 -0.08218
 C614 C 0.18880 1.11429 -0.06892
 C615 C 0.15245 1.07234 -0.05391
 C616 C 0.12912 1.09151 -0.04426
 C617 C 0.10248 1.07981 -0.03216
 C618 C 0.09863 1.04880 -0.02892
 C619 C 0.12175 1.02954 -0.03834
 C620 C 0.14821 1.04100 -0.05135
 C621 C 0.19596 1.03178 -0.07674
 C622 C 0.16998 1.02126 -0.06254
 H623 H 0.21185 1.01558 -0.08548
 H624 H 0.16662 0.99725 -0.06080
 H625 H 0.24413 1.05606 -0.10257
 H626 H 0.22075 1.14745 -0.08297
 H627 H 0.08484 1.09509 -0.02529
 H628 H 0.11866 1.00549 -0.03653
 H629 H 0.17439 1.13134 -0.05962
 H630 H 0.13073 1.11554 -0.04639
 C631 C 0.32716 -0.08428 0.42948
 C632 C 0.32000 -0.07830 0.39936
 C633 C 0.29359 -0.09009 0.38675
 C634 C 0.27374 -0.10790 0.40359
 C635 C 0.28098 -0.11408 0.43336
 C636 C 0.30729 -0.10245 0.44619
 C637 C 0.35557 -0.07088 0.44208
 C638 C 0.36492 -0.07515 0.47180
 C639 C 0.39162 -0.06203 0.48230
 C640 C 0.40964 -0.04431 0.46349
 C641 C 0.40044 -0.03999 0.43391
 C642 C 0.37381 -0.05302 0.42315
 C643 C 0.33915 -0.06050 0.38190
 C644 C 0.36546 -0.04815 0.39352
 H645 H 0.33368 -0.05598 0.35883
 H646 H 0.37948 -0.03449 0.37906
 H647 H 0.28869 -0.08542 0.36362
 H648 H 0.26612 -0.12762 0.44703
 H649 H 0.39816 -0.06577 0.50521
 H650 H 0.41409 -0.02642 0.41902
 H651 H 0.31154 -0.10783 0.46919
 H652 H 0.35196 -0.08850 0.48727
 C653 C 0.57362 -0.17647 0.57240
 C654 C 0.55480 -0.19328 0.59170
 C655 C 0.56473 -0.22101 0.60300
 C656 C 0.59322 -0.23244 0.59515
 C657 C 0.61178 -0.21553 0.57614
 C658 C 0.60223 -0.18802 0.56495
 C659 C 0.56222 -0.14718 0.56058
 C660 C 0.57938 -0.12900 0.54131
 C661 C 0.56787 -0.10210 0.53060
 C662 C 0.53887 -0.09233 0.53865
 C663 C 0.52150 -0.11018 0.55801
 C664 C 0.53299 -0.13748 0.56903
 C665 C 0.52617 -0.18238 0.59943
 C666 C 0.51549 -0.15512 0.58833
 H667 H 0.51171 -0.19518 0.61424
 H668 H 0.49316 -0.14777 0.59493
 H669 H 0.55004 -0.23383 0.61755
 H670 H 0.63402 -0.22334 0.56996
 H671 H 0.58191 -0.08895 0.51572
 H672 H 0.49909 -0.10290 0.56448
 H673 H 0.61770 -0.17630 0.55050
 H674 H 0.60176 -0.13503 0.53407
 C675 C 1.06544 0.67811 0.42282
 C676 C 1.09519 0.68668 0.43073
 C677 C 1.10748 0.71366 0.42015
 C678 C 1.09075 0.73255 0.40147
 C679 C 1.06128 0.72406 0.39358
 C680 C 1.04872 0.69726 0.40411
 C681 C 1.05326 0.64898 0.43469
 C682 C 1.02386 0.63830 0.42857
 C683 C 1.01371 0.61101 0.44043
 C684 C 1.03262 0.59368 0.45859
 C685 C 1.06191 0.60415 0.46463
 C686 C 1.07226 0.63144 0.45302
 C687 C 1.11270 0.66822 0.44901
 C688 C 1.10150 0.64118 0.45986
 H689 H 1.13548 0.67476 0.45501
 H690 H 1.11600 0.62770 0.47392
 H691 H 1.13039 0.71961 0.42617
 H692 H 1.04771 0.73823 0.37936
 H693 H 0.99100 0.60351 0.43542
 H694 H 1.07684 0.59111 0.47867
 H695 H 1.02599 0.69196 0.39731
 H696 H 1.00834 0.65069 0.41480
 C697 C -0.07019 1.17632 0.09139
 C698 C -0.08197 1.19829 0.07185
 C699 C -0.09626 1.22387 0.08333
 C700 C -0.09804 1.22850 0.11411
 C701 C -0.08540 1.20727 0.13340
 C702 C -0.07180 1.18142 0.12228
 C703 C -0.05625 1.14874 0.07827
 C704 C -0.04663 1.12428 0.09570
 C705 C -0.03457 1.09874 0.08237
 C706 C -0.03130 1.09710 0.05140
 C707 C -0.04050 1.12142 0.03383
 C708 C -0.05352 1.14686 0.04694
 C709 C -0.07903 1.19482 0.04103
 C710 C -0.06465 1.16992 0.02887
 H711 H -0.08773 1.21179 0.02606
 H712 H -0.06277 1.16840 0.00488
 H713 H -0.10539 1.24053 0.06826
 H714 H -0.08641 1.21043 0.15725
 H715 H -0.02780 1.08014 0.09636
 H716 H -0.03862 1.12004 0.00982
 H717 H -0.06250 1.16591 0.13821
 H718 H -0.04881 1.12411 0.11959
 C719 C 0.43627 0.32226 0.91159
 C720 C 0.42501 0.30021 0.93143
 C721 C 0.41169 0.27394 0.92033
 C722 C 0.41029 0.26872 0.88963
 C723 C 0.42257 0.28998 0.87004
 C724 C 0.43524 0.31650 0.88079
 C725 C 0.44894 0.35065 0.92433
 C726 C 0.45783 0.37521 0.90655
 C727 C 0.46867 0.40150 0.91955
 C728 C 0.47141 0.40383 0.95051
 C729 C 0.46291 0.37944 0.96841
 C730 C 0.45111 0.35323 0.95563
 C731 C 0.42740 0.30435 0.96221
 C732 C 0.44064 0.33006 0.97404
 H733 H 0.41909 0.28734 0.97742
 H734 H 0.44211 0.33211 0.99800
 H735 H 0.40287 0.25726 0.93564
 H736 H 0.42187 0.28638 0.84624
 H737 H 0.47492 0.42013 0.90530
 H738 H 0.46437 0.38130 0.99241
 H739 H 0.44422 0.33207 0.86466
 H740 H 0.45600 0.37484 0.88264
 C741 C 0.58177 0.57537 0.82337
 C742 C 0.56068 0.58418 0.80139
 C743 C 0.57070 0.59783 0.77493
 C744 C 0.60164 0.60215 0.76961
 C745 C 0.62247 0.59308 0.79127
 C746 C 0.61276 0.58000 0.81783
 C747 C 0.57014 0.56116 0.85143
 C748 C 0.58908 0.55315 0.87534
 C749 C 0.57708 0.54040 0.90118
 C750 C 0.54600 0.53493 0.90374
 C751 C 0.52696 0.54258 0.87999
 C752 C 0.53869 0.55602 0.85415
 C753 C 0.52979 0.57890 0.80570
 C754 C 0.51906 0.56484 0.83136
 H755 H 0.51363 0.58551 0.78884
 H756 H 0.49496 0.56110 0.83353
 H757 H 0.55443 0.60432 0.75814
 H758 H 0.64647 0.59626 0.78782
 H759 H 0.59222 0.53479 0.91924
 H760 H 0.50282 0.53890 0.88196
 H761 H 0.62992 0.57344 0.83351
 H762 H 0.61314 0.55688 0.87477
 C763 C 0.42066 0.07515 0.66827
 C764 C 0.40495 0.05562 0.68776
 C765 C 0.39302 0.06661 0.71472
 C766 C 0.39680 0.09686 0.72258
 C767 C 0.41176 0.11613 0.70275
 C768 C 0.42344 0.10557 0.67605
 C769 C 0.43387 0.06263 0.64024
 C770 C 0.45057 0.08028 0.62012
 C771 C 0.46283 0.06780 0.59455
 C772 C 0.45893 0.03730 0.58800
 C773 C 0.44219 0.01934 0.60783
 C774 C 0.42977 0.03180 0.63396
 C775 C 0.40153 0.02530 0.68028
 C776 C 0.41357 0.01368 0.65394
 H777 H 0.38943 0.01027 0.69508
 H778 H 0.41034 -0.00992 0.64927
 H779 H 0.38143 0.05148 0.72980
 H780 H 0.41439 0.13971 0.70770
 H781 H 0.47550 0.08237 0.57978
 H782 H 0.43901 -0.00426 0.60309
 H783 H 0.43461 0.12173 0.66198
 H784 H 0.45469 0.10380 0.62364
 C785 C 0.07866 0.93079 0.18084
 C786 C 0.11032 0.92778 0.18396
 C787 C 0.12242 0.91492 0.20989
 C788 C 0.10333 0.90382 0.23231
 C789 C 0.07199 0.90603 0.22876
 C790 C 0.05975 0.91947 0.20350
 C791 C 0.06661 0.94505 0.15311
 C792 C 0.03573 0.95132 0.14906
 C793 C 0.02542 0.96369 0.12249
 C794 C 0.04550 0.97000 0.09912
 C795 C 0.07646 0.96466 0.10320
 C796 C 0.08717 0.95271 0.13015
 C797 C 0.12960 0.93691 0.16089
 C798 C 0.11825 0.94859 0.13436
 H799 H 0.15384 0.93441 0.16314
 H800 H 0.13407 0.95474 0.11695
 H801 H 0.14669 0.91272 0.21221
 H802 H 0.05680 0.89761 0.24575
 H803 H 0.00144 0.96776 0.12003
 H804 H 0.09223 0.96995 0.08546
 H805 H 0.03546 0.92032 0.20199
 H806 H 0.01915 0.94694 0.16612
 C807 C 0.91586 0.42285 0.33520
 C808 C 0.90017 0.44207 0.31553
 C809 C 0.88827 0.43073 0.28876
 C810 C 0.89204 0.40041 0.28121
 C811 C 0.90719 0.38146 0.30108
 C812 C 0.91887 0.39240 0.32764
 C813 C 0.92886 0.43576 0.36314
 C814 C 0.94519 0.41838 0.38366
 C815 C 0.95743 0.43130 0.40903
 C816 C 0.95382 0.46196 0.41494
 C817 C 0.93726 0.47957 0.39482
 C818 C 0.92487 0.46669 0.36893
 C819 C 0.89676 0.47247 0.32260
 C820 C 0.90880 0.48450 0.34871
 H821 H 0.88470 0.48726 0.30762
 H822 H 0.90565 0.50817 0.35304
 H823 H 0.87663 0.44564 0.27360
 H824 H 0.90994 0.35787 0.29632
 H825 H 0.96989 0.41699 0.42412
 H826 H 0.93429 0.50328 0.39911
 H827 H 0.93023 0.37650 0.34177
 H828 H 0.94903 0.39476 0.38063
   
