data_POSCAR
  _audit_creation_date              2014-09-24
  _audit_creation_method            'ToBaCCo'
  _symmetry_space_group_name_H-M    'P1'
  _symmetry_Int_Tables_number       1
  _symmetry_cell_setting            triclinic
  loop_
  _symmetry_equiv_pos_as_xyz
 x,y,z
_cell_length_a 39.6935
_cell_length_b 37.8346
_cell_length_c 39.7733
_cell_angle_alpha 88.355500
_cell_angle_beta 89.706200
_cell_angle_gamma 88.213500
loop_
  _atom_site_label
  _atom_site_type_symbol
  _atom_site_fract_x
  _atom_site_fract_y
  _atom_site_fract_z
N1 N 0.59122 0.68707 0.62007
 N2 N 0.58100 0.67160 0.64817
 C3 C 0.55370 0.68952 0.65981
 C4 C 0.54620 0.71727 0.63747
 C5 C 0.57032 0.71483 0.61245
 H6 H 0.53999 0.68273 0.68253
 H7 H 0.57292 0.73249 0.59078
 Cu8 Cu 0.60393 0.62908 0.66624
 Cu9 Cu 0.63191 0.67132 0.59657
 Cu10 Cu 0.67431 0.59667 0.62953
 N11 N 0.62731 0.58660 0.68384
 N12 N 0.65587 0.57526 0.67050
 C13 C 0.66781 0.54697 0.68854
 C14 C 0.64510 0.53974 0.71424
 C15 C 0.61961 0.56532 0.71030
 H16 H 0.69076 0.53226 0.68267
 H17 H 0.59746 0.56850 0.72601
 N18 N 0.68888 0.62205 0.58826
 N19 N 0.67353 0.65128 0.57649
 C20 C 0.69018 0.66305 0.54898
 C21 C 0.71683 0.63976 0.54288
 C22 C 0.71518 0.61398 0.56804
 H23 H 0.68302 0.68630 0.53393
 H24 H 0.73217 0.59128 0.57145
 H25 H 0.62941 0.61862 0.61139
 H26 H 0.65541 0.64721 0.63781
 N27 N 0.92358 0.32030 0.09327
 N28 N 0.93659 0.33080 0.12148
 C29 C 0.96272 0.30891 0.13015
 C30 C 0.96682 0.28387 0.10563
 C31 C 0.94153 0.29202 0.08250
 H32 H 0.97814 0.31137 0.15226
 H33 H 0.93588 0.27793 0.06005
 Cu34 Cu 0.91910 0.37313 0.14302
 Cu35 Cu 0.88305 0.34266 0.07377
 Cu36 Cu 0.84967 0.41638 0.11353
 N37 N 0.90052 0.41488 0.16475
 N38 N 0.87251 0.43072 0.15393
 C39 C 0.86433 0.45764 0.17413
 C40 C 0.88889 0.45917 0.19845
 C41 C 0.91154 0.43174 0.19178
 H42 H 0.84254 0.47528 0.17101
 H43 H 0.93397 0.42435 0.20596
 N44 N 0.83026 0.39777 0.07236
 N45 N 0.84217 0.36889 0.05800
 C46 C 0.82234 0.36177 0.03180
 C47 C 0.79731 0.38782 0.02916
 C48 C 0.80306 0.41027 0.05514
 H49 H 0.82593 0.33951 0.01556
 H50 H 0.78796 0.43343 0.06148
 H51 H 0.89121 0.39268 0.09094
 H52 H 0.86442 0.36353 0.11783
 N53 N 0.40617 0.18887 -0.12051
 N54 N 0.41562 0.17587 -0.14950
 C55 C 0.44248 0.19342 -0.16117
 C56 C 0.45049 0.21830 -0.13798
 C57 C 0.42712 0.21458 -0.11239
 H58 H 0.45569 0.18812 -0.18442
 H59 H 0.42516 0.22992 -0.08990
 Cu60 Cu 0.39281 0.13633 -0.16847
 Cu61 Cu 0.36652 0.17265 -0.09633
 Cu62 Cu 0.32541 0.10201 -0.12931
 N63 N 0.37044 0.09562 -0.18570
 N64 N 0.34326 0.08326 -0.17109
 C65 C 0.33209 0.05627 -0.18888
 C66 C 0.35377 0.05115 -0.21573
 C67 C 0.37792 0.07635 -0.21285
 H68 H 0.31031 0.04097 -0.18237
 H69 H 0.39906 0.08053 -0.22959
 N70 N 0.31119 0.12464 -0.08732
 N71 N 0.32597 0.15250 -0.07557
 C72 C 0.30941 0.16304 -0.04778
 C73 C 0.28341 0.14034 -0.04148
 C74 C 0.28536 0.11618 -0.06681
 H75 H 0.31608 0.18515 -0.03280
 H76 H 0.26872 0.09451 -0.07030
 H77 H 0.37043 0.12132 -0.11287
 H78 H 0.34200 0.15284 -0.13714
 N79 N 0.07717 0.80577 0.40648
 N80 N 0.06708 0.81602 0.37623
 C81 C 0.04042 0.79712 0.36769
 C82 C 0.03297 0.77422 0.39429
 C83 C 0.05680 0.78058 0.41860
 H84 H 0.02709 0.80013 0.34407
 H85 H 0.05998 0.76710 0.44275
 Cu86 Cu 0.08902 0.85369 0.35114
 Cu87 Cu 0.11771 0.82362 0.42646
 Cu88 Cu 0.15284 0.89611 0.38641
 N89 N 0.10456 0.89850 0.33284
 N90 N 0.13058 0.91400 0.34560
 C91 C 0.13732 0.94304 0.32670
 C92 C 0.11381 0.94625 0.30123
 C93 C 0.09330 0.91763 0.30588
 H94 H 0.15747 0.96083 0.33136
 H95 H 0.07236 0.91080 0.29030
 N96 N 0.17149 0.87392 0.42799
 N97 N 0.15881 0.84545 0.44255
 C98 C 0.17825 0.83520 0.46894
 C99 C 0.20398 0.85873 0.47139
 C100 C 0.19884 0.88306 0.44526
 H101 H 0.17395 0.81250 0.48536
 H102 H 0.21450 0.90516 0.43883
 H103 H 0.10944 0.87349 0.40467
 H104 H 0.14075 0.84350 0.38336
 C105 C 0.10862 0.14049 0.13289
 N106 N 0.11057 0.11568 0.15822
 C107 C 0.13487 0.08962 0.15777
 N108 N 0.15720 0.08841 0.13180
 C109 C 0.15530 0.11310 0.10634
 N110 N 0.13097 0.13911 0.10698
 C111 C 0.40023 0.86006 0.61880
 N112 N 0.37408 0.86114 0.59686
 C113 C 0.34936 0.88661 0.59900
 N114 N 0.35080 0.91102 0.62330
 C115 C 0.37686 0.91009 0.64533
 N116 N 0.40149 0.88452 0.64304
 C117 C 0.89096 0.64178 0.36771
 N118 N 0.88929 0.61837 0.34255
 C119 C 0.86535 0.59349 0.34319
 N120 N 0.84312 0.59199 0.36923
 C121 C 0.84473 0.61523 0.39453
 N122 N 0.86868 0.64010 0.39369
 C123 C 0.59810 0.34809 -0.11745
 N124 N 0.62441 0.34526 -0.09573
 C125 C 0.64970 0.36862 -0.09787
 N126 N 0.64857 0.39492 -0.12185
 C127 C 0.62233 0.39790 -0.14360
 N128 N 0.59716 0.37444 -0.14137
 C129 C 0.03403 0.22236 0.13358
 C130 C 0.04032 0.20308 0.10449
 N131 N 0.02170 0.21039 0.07649
 C132 C -0.00292 0.23622 0.07617
 C133 C -0.00871 0.25642 0.10501
 N134 N 0.01015 0.24883 0.13301
 N135 N 0.05161 0.21402 0.16206
 C136 C 0.07536 0.18729 0.16270
 C137 C 0.08240 0.16866 0.13331
 N138 N 0.06468 0.17708 0.10482
 H139 H -0.01709 0.24133 0.05331
 H140 H 0.08910 0.18113 0.18568
 C141 C 0.47834 0.78212 0.61247
 C142 C 0.46774 0.79481 0.64374
 N143 N 0.48243 0.78149 0.67233
 C144 C 0.50737 0.75609 0.67107
 C145 C 0.51863 0.74397 0.63976
 N146 N 0.50381 0.75739 0.61114
 N147 N 0.46280 0.79451 0.58398
 C148 C 0.43718 0.81916 0.58532
 C149 C 0.42709 0.83259 0.61651
 N150 N 0.44273 0.82005 0.64502
 H151 H 0.51876 0.74599 0.69422
 H152 H 0.42526 0.82868 0.56223
 C153 C 0.96613 0.71830 0.36640
 C154 C 0.95716 0.70069 0.39649
 N155 N 0.97362 0.70751 0.42529
 C156 C 0.99872 0.73117 0.42542
 C157 C 1.00741 0.74952 0.39541
 N158 N 0.99060 0.74256 0.36665
 N159 N 0.95071 0.71035 0.33731
 C160 C 0.92664 0.68555 0.33695
 C161 C 0.91706 0.66845 0.36718
 N162 N 0.93255 0.67656 0.39631
 H163 H 1.01118 0.73591 0.44891
 H164 H 0.91474 0.67963 0.31343
 C165 C 0.51912 0.27584 -0.11210
 C166 C 0.52931 0.29075 -0.14309
 N167 N 0.51401 0.28133 -0.17179
 C168 C 0.48888 0.25770 -0.17091
 C169 C 0.47808 0.24334 -0.13986
 N170 N 0.49349 0.25287 -0.11112
 N171 N 0.53526 0.28427 -0.08354
 C172 C 0.56111 0.30706 -0.08456
 C173 C 0.57084 0.32269 -0.11546
 N174 N 0.55457 0.31412 -0.14402
 H175 H 0.47704 0.25071 -0.19415
 H176 H 0.57353 0.31340 -0.06143
 C177 C 0.13990 0.01207 0.23620
 C178 C 0.10866 0.02521 0.22406
 N179 N 0.07977 0.01205 0.23701
 C180 C 0.08069 -0.01368 0.26162
 C181 C 0.11189 -0.02630 0.27435
 N182 N 0.14081 -0.01299 0.26133
 N183 N 0.16880 0.02415 0.22229
 C184 C 0.16790 0.04886 0.19676
 C185 C 0.13669 0.06267 0.18507
 N186 N 0.10776 0.05051 0.19913
 H187 H 0.05731 -0.02374 0.27154
 H188 H 0.19129 0.05804 0.18606
 C189 C 0.61934 0.47986 -0.21778
 C190 C 0.64903 0.45958 -0.21194
 N191 N 0.67676 0.46579 -0.23104
 C192 C 0.67623 0.49145 -0.25572
 C193 C 0.64674 0.51256 -0.26113
 N194 N 0.61904 0.50610 -0.24176
 N195 N 0.59113 0.47264 -0.19973
 C196 C 0.59131 0.44605 -0.17599
 C197 C 0.62124 0.42633 -0.16946
 N198 N 0.64948 0.43364 -0.18761
 H199 H 0.69888 0.49565 -0.27031
 H200 H 0.56850 0.44075 -0.16193
 C201 C 0.38071 0.98668 0.72030
 C202 C 0.34968 0.97474 0.70912
 N203 N 0.32063 0.98746 0.72307
 C204 C 0.32119 1.01169 0.74767
 C205 C 0.35218 1.02429 0.75836
 N206 N 0.38125 1.01145 0.74429
 N207 N 0.40981 0.97306 0.70722
 C208 C 0.40930 0.94805 0.68337
 C209 C 0.37827 0.93660 0.67156
 N210 N 0.34913 0.95035 0.68476
 H211 H 0.29767 1.02149 0.75829
 H212 H 0.43287 0.93765 0.67332
 C213 C 0.86160 0.52058 0.26498
 C214 C 0.89256 0.53276 0.27612
 N215 N 0.92168 0.52028 0.26213
 C216 C 0.92127 0.49620 0.23741
 C217 C 0.89029 0.48457 0.22566
 N218 N 0.86114 0.49718 0.23975
 N219 N 0.83256 0.53201 0.27985
 C220 C 0.83305 0.55517 0.30537
 C221 C 0.86394 0.56805 0.31605
 N222 N 0.89301 0.55651 0.30104
 H223 H 0.94483 0.48674 0.22661
 H224 H 0.80954 0.56388 0.31681
 C225 C 0.22508 0.11050 0.02589
 C226 C 0.21280 0.14283 0.03827
 N227 N 0.22414 0.17363 0.02477
 C228 C 0.24720 0.17358 -0.00064
 C229 C 0.25896 0.14129 -0.01362
 N230 N 0.24749 0.11045 -0.00002
 N231 N 0.21475 0.07970 0.04028
 C232 C 0.19261 0.07975 0.06649
 C233 C 0.17966 0.11206 0.07842
 N234 N 0.19009 0.14289 0.06390
 H235 H 0.25579 0.19849 -0.01101
 H236 H 0.18475 0.05483 0.07753
 C237 C 0.77547 0.61122 0.47540
 C238 C 0.78712 0.64373 0.46289
 N239 N 0.77530 0.67427 0.47640
 C240 C 0.75236 0.67379 0.50192
 C241 C 0.74124 0.64126 0.51500
 N242 N 0.75319 0.61069 0.50140
 N243 N 0.78626 0.58077 0.46102
 C244 C 0.80825 0.58132 0.43469
 C245 C 0.82055 0.61375 0.42260
 N246 N 0.80968 0.64423 0.43713
 H247 H 0.74335 0.69850 0.51228
 H248 H 0.81647 0.55667 0.42366
 C249 C 0.73043 0.36162 -0.02900
 C250 C 0.71802 0.39461 -0.04136
 N251 N 0.73146 0.42468 -0.03026
 C252 C 0.75681 0.42327 -0.00734
 C253 C 0.76975 0.39028 0.00457
 N254 N 0.75625 0.36018 -0.00669
 N255 N 0.71608 0.33161 -0.03908
 C256 C 0.68986 0.33308 -0.06101
 C257 C 0.67784 0.36603 -0.07397
 N258 N 0.69235 0.39605 -0.06383
 H259 H 0.76709 0.44763 0.00111
 H260 H 0.67883 0.30877 -0.06863
 C261 C 0.26921 0.88886 0.52948
 C262 C 0.28375 0.85659 0.54133
 N263 N 0.27153 0.82573 0.53072
 C264 C 0.24548 0.82565 0.50865
 C265 C 0.23145 0.85791 0.49607
 N266 N 0.24376 0.88881 0.50681
 N267 N 0.28060 0.91969 0.54107
 C268 C 0.30599 0.91974 0.56391
 C269 C 0.32119 0.88751 0.57513
 N270 N 0.30965 0.85665 0.56347
 H271 H 0.23629 0.80068 0.50048
 H272 H 0.31467 0.94468 0.57269
   
