data_POSCAR
  _audit_creation_date              2014-09-24
  _audit_creation_method            'ToBaCCo'
  _symmetry_space_group_name_H-M    'P1'
  _symmetry_Int_Tables_number       1
  _symmetry_cell_setting            triclinic
  loop_
  _symmetry_equiv_pos_as_xyz
 x,y,z
_cell_length_a 21.0879
_cell_length_b 21.0879
_cell_length_c 21.0879
_cell_angle_alpha 88.785900
_cell_angle_beta 91.214000
_cell_angle_gamma 91.214300
loop_
  _atom_site_label
  _atom_site_type_symbol
  _atom_site_fract_x
  _atom_site_fract_y
  _atom_site_fract_z
O1 O 0.58741 0.49292 0.05128
 O2 O 0.41301 0.50307 0.05191
 O3 O 0.49312 0.41123 0.05046
 O4 O 0.50722 0.58548 0.05228
 O5 O 0.49335 0.58857 -0.05191
 O6 O 0.50236 0.41473 -0.05376
 O7 O 0.41042 0.49600 -0.05243
 O8 O 0.58530 0.50822 -0.05271
 Cu9 Cu 0.50047 0.49792 0.06213
 Cu10 Cu 0.49763 0.50208 -0.06335
 C11 C 0.61606 0.50070 -0.00076
 C12 C 0.38181 0.49949 -0.00018
 C13 C 0.49738 0.38341 -0.00200
 C14 C 0.50056 0.61659 0.00046
 O15 O -0.05191 0.58699 0.50307
 O16 O -0.05128 0.41259 0.49292
 O17 O -0.05228 0.49278 0.58548
 O18 O -0.05046 0.50688 0.41123
 O19 O 0.05376 0.49764 0.41473
 O20 O 0.05191 0.50665 0.58856
 O21 O 0.05271 0.41470 0.50822
 O22 O 0.05243 0.58958 0.49600
 Cu23 Cu -0.06213 0.49953 0.49793
 Cu24 Cu 0.06335 0.50237 0.50207
 C25 C 0.00018 0.61819 0.49949
 C26 C 0.00076 0.38394 0.50070
 C27 C -0.00046 0.49944 0.61659
 C28 C 0.00200 0.50262 0.38341
 O29 O 0.49693 0.05191 0.58699
 O30 O 0.50708 0.05128 0.41259
 O31 O 0.41453 0.05228 0.49278
 O32 O 0.58877 0.05046 0.50688
 O33 O 0.58527 -0.05376 0.49764
 O34 O 0.41143 -0.05191 0.50665
 O35 O 0.49178 -0.05271 0.41470
 O36 O 0.50399 -0.05243 0.58958
 Cu37 Cu 0.50208 0.06213 0.49953
 Cu38 Cu 0.49792 -0.06335 0.50237
 C39 C 0.50050 -0.00018 0.61819
 C40 C 0.49930 -0.00076 0.38394
 C41 C 0.38341 0.00046 0.49944
 C42 C 0.61659 -0.00200 0.50262
 O43 O 0.44737 0.00396 -0.08939
 O44 O 0.44719 -0.00817 0.08550
 O45 O 0.44613 0.08528 0.00252
 O46 O 0.44797 -0.08856 -0.00643
 O47 O 0.55218 -0.08547 0.00738
 O48 O 0.55036 0.08877 -0.00670
 O49 O 0.55120 0.00708 0.08759
 O50 O 0.55185 -0.00306 -0.08681
 Cu51 Cu 0.43650 -0.00207 -0.00216
 Cu52 Cu 0.56206 0.00208 0.00065
 C53 C 0.49968 0.00049 -0.11770
 C54 C 0.49916 -0.00067 0.11625
 C55 C 0.49790 0.11660 -0.00246
 C56 C 0.50035 -0.11658 0.00075
 O57 O -0.08550 0.55281 0.99183
 O58 O 0.08939 0.55263 1.00396
 O59 O 0.00643 0.55203 0.91144
 O60 O -0.00252 0.55387 1.08528
 O61 O 0.00670 0.44964 1.08877
 O62 O -0.00738 0.44782 0.91453
 O63 O 0.08681 0.44815 0.99694
 O64 O -0.08759 0.44880 1.00708
 Cu65 Cu 0.00216 0.56350 0.99793
 Cu66 Cu -0.00065 0.43794 1.00208
 C67 C -0.11625 0.50084 0.99933
 C68 C 0.11770 0.50032 1.00049
 C69 C -0.00075 0.49965 0.88342
 C70 C 0.00246 0.50210 1.11660
 O71 O 0.00306 -0.08681 0.44815
 O72 O -0.00708 0.08759 0.44880
 O73 O 0.08547 0.00738 0.44782
 O74 O -0.08877 -0.00670 0.44964
 O75 O -0.08528 0.00252 0.55387
 O76 O 0.08856 -0.00643 0.55203
 O77 O 0.00817 0.08550 0.55281
 O78 O -0.00396 -0.08939 0.55263
 Cu79 Cu -0.00208 0.00065 0.43794
 Cu80 Cu 0.00207 -0.00216 0.56350
 C81 C -0.00049 -0.11770 0.50032
 C82 C 0.00067 0.11625 0.50084
 C83 C 0.11658 0.00075 0.49965
 C84 C -0.11660 -0.00246 0.50210
 N85 N -0.28168 0.46142 1.03904
 C86 C -0.31441 0.50081 0.99919
 N87 N -0.28172 0.54025 0.95934
 N88 N -0.21848 0.54073 0.95981
 C89 C -0.18578 0.50088 0.99923
 N90 N -0.21849 0.46101 1.03861
 N91 N 0.28436 0.50846 1.05468
 C92 C 0.31571 0.49955 1.00001
 N93 N 0.28132 0.49092 0.94552
 N94 N 0.21811 0.49085 0.94576
 C95 C 0.18702 0.50012 1.00035
 N96 N 0.22116 0.50906 1.05478
 N97 N 0.05448 -0.28132 0.49092
 C98 C -0.00001 -0.31571 0.49955
 N99 N -0.05468 -0.28436 0.50846
 N100 N -0.05478 -0.22116 0.50906
 C101 C -0.00035 -0.18702 0.50012
 N102 N 0.05424 -0.21811 0.49085
 N103 N -0.03904 0.28168 0.46142
 C104 C 0.00081 0.31441 0.50081
 N105 N 0.04066 0.28172 0.54025
 N106 N 0.04019 0.21848 0.54073
 C107 C 0.00077 0.18578 0.50088
 N108 N -0.03861 0.21849 0.46101
 N109 N 0.50908 -0.05448 -0.28132
 C110 C 0.50045 0.00001 -0.31571
 N111 N 0.49154 0.05468 -0.28436
 N112 N 0.49094 0.05478 -0.22116
 C113 C 0.49988 0.00035 -0.18702
 N114 N 0.50915 -0.05424 -0.21811
 N115 N 0.45975 -0.04066 0.28172
 C116 C 0.49919 -0.00081 0.31441
 N117 N 0.53858 0.03904 0.28168
 N118 N 0.53899 0.03861 0.21849
 C119 C 0.49912 -0.00077 0.18578
 N120 N 0.45927 -0.04019 0.21848
 N121 N 0.54014 -0.28161 0.04079
 C122 C 0.50070 -0.31417 0.00089
 N123 N 0.46135 -0.28153 -0.03900
 N124 N 0.46093 -0.21843 -0.03857
 C125 C 0.50077 -0.18581 0.00085
 N126 N 0.54061 -0.21840 0.04034
 N127 N 0.45838 0.27977 0.03629
 C128 C 0.49690 0.31418 -0.00272
 N129 N 0.53551 0.28338 -0.04190
 N130 N 0.53611 0.22023 -0.04155
 C131 C 0.49717 0.18583 -0.00296
 N132 N 0.45805 0.21662 0.03571
 N133 N -0.28338 -0.04190 0.46449
 C134 C -0.31418 -0.00272 0.50310
 N135 N -0.27977 0.03629 0.54162
 N136 N -0.21662 0.03571 0.54195
 C137 C -0.18583 -0.00296 0.50283
 N138 N -0.22023 -0.04155 0.46389
 N139 N 0.28161 0.04079 0.45986
 C140 C 0.31417 0.00089 0.49930
 N141 N 0.28153 -0.03900 0.53865
 N142 N 0.21843 -0.03857 0.53907
 C143 C 0.18581 0.00085 0.49923
 N144 N 0.21840 0.04034 0.45939
 N145 N 0.04190 0.46449 1.28338
 C146 C 0.00272 0.50310 1.31418
 N147 N -0.03629 0.54162 1.27977
 N148 N -0.03571 0.54195 1.21662
 C149 C 0.00296 0.50283 1.18583
 N150 N 0.04155 0.46389 1.22023
 N151 N -0.04079 0.45986 0.71839
 C152 C -0.00089 0.49930 0.68583
 N153 N 0.03901 0.53865 0.71847
 N154 N 0.03857 0.53907 0.78157
 C155 C -0.00085 0.49923 0.81419
 N156 N -0.04034 0.45939 0.78160
   
