data_POSCAR
  _audit_creation_date              2014-09-24
  _audit_creation_method            'ToBaCCo'
  _symmetry_space_group_name_H-M    'P1'
  _symmetry_Int_Tables_number       1
  _symmetry_cell_setting            triclinic
  loop_
  _symmetry_equiv_pos_as_xyz
 x,y,z
_cell_length_a 29.6400
_cell_length_b 25.5406
_cell_length_c 18.0541
_cell_angle_alpha 89.819800
_cell_angle_beta 89.991300
_cell_angle_gamma 89.928200
loop_
  _atom_site_label
  _atom_site_type_symbol
  _atom_site_fract_x
  _atom_site_fract_y
  _atom_site_fract_z
O1 O 0.19634 0.19036 0.28731
 O2 O 0.27909 0.29162 0.33480
 O3 O 0.19670 0.29112 0.28129
 O4 O 0.28087 0.18986 0.32929
 O5 O 0.30579 0.19128 0.21400
 O6 O 0.22172 0.29149 0.16602
 O7 O 0.30406 0.29199 0.21949
 O8 O 0.22102 0.18980 0.17182
 Cu9 Cu 0.23590 0.24076 0.31974
 Cu10 Cu 0.26552 0.24117 0.18127
 C11 C 0.19384 0.17365 0.22142
 C12 C 0.30623 0.30833 0.28586
 C13 C 0.19435 0.30765 0.21488
 C14 C 0.30846 0.17430 0.27996
 O15 O 0.80373 0.30720 0.28706
 O16 O 0.72036 0.20630 0.33427
 O17 O 0.80301 0.20649 0.28134
 O18 O 0.71933 0.30812 0.32920
 O19 O 0.69511 0.30813 0.21345
 O20 O 0.77768 0.20627 0.16627
 O21 O 0.69488 0.20743 0.21935
 O22 O 0.77948 0.30802 0.17132
 Cu23 Cu 0.76394 0.25686 0.31955
 Cu24 Cu 0.73445 0.25735 0.18100
 C25 C 0.80648 0.32403 0.22109
 C26 C 0.69258 0.19066 0.28569
 C27 C 0.80517 0.19002 0.21504
 C28 C 0.69248 0.32473 0.27940
 O29 O 0.77950 0.79192 0.83388
 O30 O 0.69623 0.69103 0.78699
 O31 O 0.78058 0.69012 0.82956
 O32 O 0.69694 0.79175 0.78088
 O33 O 0.72199 0.79169 0.66562
 O34 O 0.80555 0.69099 0.71430
 O35 O 0.72097 0.68998 0.67154
 O36 O 0.80454 0.79171 0.71862
 Cu37 Cu 0.73596 0.74130 0.81940
 Cu38 Cu 0.76563 0.74111 0.68093
 C39 C 0.80680 0.80821 0.78489
 C40 C 0.69372 0.67411 0.72120
 C41 C 0.80807 0.67418 0.78036
 C42 C 0.69464 0.80809 0.71438
 O43 O 0.30386 0.80938 0.78701
 O44 O 0.22057 0.70835 0.83416
 O45 O 0.30316 0.70869 0.78119
 O46 O 0.21950 0.81017 0.82956
 O47 O 0.19457 0.80964 0.71429
 O48 O 0.27814 0.70909 0.66593
 O49 O 0.19557 0.70891 0.71888
 O50 O 0.27915 0.81078 0.67155
 Cu51 Cu 0.26412 0.75902 0.81956
 Cu52 Cu 0.23449 0.75963 0.68108
 C53 C 0.30639 0.82650 0.72116
 C54 C 0.19329 0.69221 0.78519
 C55 C 0.30547 0.69255 0.71474
 C56 C 0.19202 0.82626 0.78030
 C57 C 0.99796 0.08471 0.15735
 C58 C 1.03866 0.06463 0.13036
 C59 C 1.03796 0.02956 0.07092
 C60 C 0.99747 0.01770 0.03303
 C61 C 0.95720 0.04138 0.05875
 C62 C 0.95706 0.07361 0.12183
 C63 C 0.99765 -0.01783 -0.03372
 C64 C 0.95754 -0.04157 -0.05980
 C65 C 0.95774 -0.07384 -0.12285
 C66 C 0.99877 -0.08477 -0.15816
 C67 C 1.03927 -0.06466 -0.13072
 C68 C 1.03831 -0.02972 -0.07117
 H69 H 0.99847 0.11197 0.20319
 H70 H 1.06970 0.01223 0.05513
 H71 H 0.92572 0.03576 0.02982
 H72 H 0.92597 -0.03604 -0.03110
 H73 H 0.99962 -0.11209 -0.20393
 H74 H 1.07000 -0.01256 -0.05497
 C75 C 0.49773 0.58585 0.65739
 C76 C 0.53833 0.56543 0.63051
 C77 C 0.53746 0.53029 0.57114
 C78 C 0.49691 0.51867 0.53330
 C79 C 0.45676 0.54270 0.55887
 C80 C 0.45679 0.57503 0.62184
 C81 C 0.49687 0.48304 0.46670
 C82 C 0.45667 0.45928 0.44108
 C83 C 0.45665 0.42698 0.37809
 C84 C 0.49756 0.41595 0.34253
 C85 C 0.53819 0.43603 0.36950
 C86 C 0.53742 0.47112 0.42892
 H87 H 0.49837 0.61318 0.70315
 H88 H 0.56910 0.51271 0.55535
 H89 H 0.42527 0.53727 0.52991
 H90 H 0.42517 0.46486 0.47004
 H91 H 0.49816 0.38860 0.29679
 H92 H 0.56913 0.48841 0.44479
 C93 C 0.00201 0.41408 0.15768
 C94 C -0.03866 0.43431 0.13074
 C95 C -0.03797 0.46968 0.07134
 C96 C 0.00253 0.48171 0.03346
 C97 C 0.04279 0.45785 0.05910
 C98 C 0.04290 0.42530 0.12213
 C99 C 0.00238 0.51756 -0.03327
 C100 C 0.04249 0.54139 -0.05934
 C101 C 0.04232 0.57394 -0.12240
 C102 C 0.00130 0.58502 -0.15773
 C103 C -0.03921 0.56481 -0.13030
 C104 C -0.03828 0.52962 -0.07072
 H105 H 0.00148 0.38656 0.20346
 H106 H -0.06971 0.48707 0.05557
 H107 H 0.07427 0.46356 0.03015
 H108 H 0.07406 0.53573 -0.03063
 H109 H 0.00048 0.61253 -0.20353
 H110 H -0.06998 0.51241 -0.05452
 C111 C 0.50239 0.91495 0.65687
 C112 C 0.46178 0.93543 0.62999
 C113 C 0.46261 0.97071 0.57049
 C114 C 0.50314 0.98241 0.53248
 C115 C 0.54330 0.95833 0.55809
 C116 C 0.54331 0.92586 0.62120
 C117 C 0.50311 1.01816 0.46569
 C118 C 0.54326 1.04198 0.43980
 C119 C 0.54322 1.07440 0.37664
 C120 C 0.50229 1.08551 0.34106
 C121 C 0.46170 1.06539 0.36845
 C122 C 0.46254 1.03019 0.42803
 H123 H 0.50178 0.88750 0.70274
 H124 H 0.43096 0.98833 0.55472
 H125 H 0.57478 0.96384 0.52904
 H126 H 0.57478 1.03634 0.46871
 H127 H 0.50161 1.11301 0.29525
 H128 H 0.43083 1.01296 0.44416
 N129 N 1.15457 0.11661 0.13315
 C130 C 1.15688 0.13820 0.20162
 N131 N 1.12157 0.13183 0.24866
 N132 N 1.08474 0.10615 0.22738
 C133 C 1.08195 0.08538 0.15840
 N134 N 1.11787 0.09050 0.11209
 N135 N 0.62139 0.63250 0.74862
 C136 C 0.65671 0.63870 0.70155
 N137 N 0.65437 0.61697 0.63317
 N138 N 0.61762 0.59090 0.61220
 C139 C 0.58170 0.58597 0.65852
 N140 N 0.58452 0.60686 0.72743
 N141 N -0.12142 0.36603 0.24866
 C142 C -0.15660 0.35964 0.20143
 N143 N -0.15430 0.38162 0.13302
 N144 N -0.11771 0.40811 0.11215
 C145 C -0.08192 0.41325 0.15863
 N146 N -0.08471 0.39210 0.22757
 N147 N 0.34572 0.88393 0.63298
 C148 C 0.34341 0.86197 0.70140
 N149 N 0.37876 0.86797 0.74840
 N150 N 0.41562 0.89367 0.72709
 C151 C 0.41842 0.91480 0.65814
 N152 N 0.38247 0.91005 0.61189
 N153 N -0.15333 0.62166 -0.13000
 C154 C -0.15700 0.64037 -0.20022
 N155 N -0.12340 0.62995 -0.24924
 N156 N -0.08674 0.60364 -0.22812
 C157 C -0.08257 0.58599 -0.15744
 N158 N -0.11689 0.59482 -0.10914
 N159 N 0.34737 1.12174 0.36916
 C160 C 0.34362 1.14074 0.29912
 N161 N 0.37732 1.13082 0.25005
 N162 N 0.41411 1.10468 0.27096
 C163 C 0.41833 1.08669 0.34146
 N164 N 0.38394 1.09506 0.38980
 N165 N 1.12351 -0.12941 -0.24946
 C166 C 1.15709 -0.13999 -0.20039
 N167 N 1.15339 -0.12150 -0.13023
 N168 N 1.11694 -0.09473 -0.10945
 C169 C 1.08264 -0.08575 -0.15779
 N170 N 1.08684 -0.10318 -0.22842
 N171 N 0.62084 0.36796 0.25159
 C172 C 0.65585 0.36076 0.29900
 N173 N 0.65354 0.38226 0.36754
 N174 N 0.61708 0.40903 0.38835
 C175 C 0.58144 0.41495 0.34167
 N176 N 0.58426 0.39432 0.27261
 N177 N 0.87783 -0.14644 -0.24101
 C178 C 0.84316 -0.15588 -0.19381
 N179 N 0.84517 -0.13607 -0.12415
 N180 N 0.88083 -0.10837 -0.10226
 C181 C 0.91602 -0.09985 -0.14897
 N182 N 0.91355 -0.11904 -0.21898
 N183 N 0.34447 0.36388 0.37720
 C184 C 0.34232 0.34454 0.30728
 N185 N 0.37667 0.35473 0.25979
 N186 N 0.41226 0.38236 0.28181
 C187 C 0.41491 0.40102 0.35208
 N188 N 0.38000 0.39180 0.39910
 N189 N 0.15488 0.63619 -0.12374
 C190 C 0.15692 0.65623 -0.19344
 N191 N 0.12228 0.64693 -0.24065
 N192 N 0.08656 0.61945 -0.21859
 C193 C 0.08405 0.60004 -0.14854
 N194 N 0.11922 0.60841 -0.10181
 N195 N 0.62449 1.14495 0.25780
 C196 C 0.65787 1.15691 0.30632
 N197 N 0.65464 1.13908 0.37713
 N198 N 0.61900 1.11122 0.39891
 C199 C 0.58501 1.10046 0.35089
 N200 N 0.58871 1.11746 0.27974
 N201 N 0.15564 0.36318 0.12343
 C202 C 0.15784 0.34346 0.19331
 N203 N 0.12326 0.35295 0.24061
 N204 N 0.08744 0.38032 0.21846
 C205 C 0.08476 0.39940 0.14824
 N206 N 0.11987 0.39084 0.10141
 N207 N 0.65596 0.86346 0.62265
 C208 C 0.65817 0.84391 0.69263
 N209 N 0.62361 0.85356 0.73989
 N210 N 0.58780 0.88092 0.71765
 C211 C 0.58512 0.89984 0.64734
 N212 N 0.62021 0.89112 0.60053
 N213 N 0.87647 0.14498 0.24056
 C214 C 0.84173 0.15434 0.19344
 N215 N 0.84394 0.13489 0.12359
 N216 N 0.87985 0.10760 0.10143
 C217 C 0.91511 0.09918 0.14808
 N218 N 0.91243 0.11799 0.21828
 N219 N 0.34414 0.63741 0.62319
 C220 C 0.34195 0.65679 0.69309
 N221 N 0.37653 0.64704 0.74035
 N222 N 0.41234 0.61975 0.71816
 C223 C 0.41500 0.60100 0.64794
 N224 N 0.37989 0.60982 0.60113
   
