data_POSCAR
  _audit_creation_date              2014-09-24
  _audit_creation_method            'ToBaCCo'
  _symmetry_space_group_name_H-M    'P1'
  _symmetry_Int_Tables_number       1
  _symmetry_cell_setting            triclinic
  loop_
  _symmetry_equiv_pos_as_xyz
 x,y,z
_cell_length_a 12.6949
_cell_length_b 12.7739
_cell_length_c 12.7787
_cell_angle_alpha 91.597100
_cell_angle_beta 91.512800
_cell_angle_gamma 91.425500
loop_
  _atom_site_label
  _atom_site_type_symbol
  _atom_site_fract_x
  _atom_site_fract_y
  _atom_site_fract_z
C1 C -0.00141 0.39316 0.19058
 C2 C 0.10903 0.41222 0.23609
 C3 C 0.12085 0.50000 0.29720
 C4 C 0.01806 0.56404 0.30613
 C5 C -0.07246 0.39330 0.28348
 C6 C -0.06882 0.48439 0.34069
 C7 C -0.02941 0.49384 0.13176
 C8 C -0.01496 0.58458 0.19155
 H9 H 0.17266 0.35796 0.22390
 H10 H 0.02674 0.63563 0.35731
 H11 H -0.13770 0.33660 0.28809
 H12 H -0.06861 0.49322 0.05562
 C13 C 0.02225 0.37808 0.79018
 C14 C -0.06637 0.38618 0.71909
 C15 C -0.06824 0.48227 0.66698
 C16 C 0.02513 0.54998 0.68892
 C17 C 0.11317 0.38770 0.72715
 C18 C 0.11740 0.48352 0.67351
 C19 C 0.02375 0.47324 0.85937
 C20 C 0.02278 0.56985 0.80111
 H21 H -0.13675 0.33529 0.72253
 H22 H 0.02690 0.62150 0.64103
 H23 H 0.18113 0.33765 0.73535
 H24 H 0.04650 0.47241 0.94108
 C25 C 0.19321 -0.00495 0.38865
 C26 C 0.24365 0.10307 0.40645
 C27 C 0.30444 0.11397 0.49460
 C28 C 0.30958 0.01264 0.55965
 C29 C 0.28349 -0.08007 0.39027
 C30 C 0.34104 -0.07688 0.48154
 C31 C 0.13282 -0.02832 0.48978
 C32 C 0.19339 -0.01491 0.58032
 H33 H 0.23129 0.16708 0.35332
 H34 H 0.36115 0.02051 0.63117
 H35 H 0.28537 -0.14638 0.33498
 H36 H 0.05594 -0.06642 0.48975
 C37 C 0.77865 0.01557 0.37147
 C38 C 0.71312 -0.07614 0.38089
 C39 C 0.66244 -0.08031 0.47759
 C40 C 0.67919 0.01265 0.54490
 C41 C 0.70641 0.10622 0.38287
 C42 C 0.65840 0.10854 0.47628
 C43 C 0.85250 0.02267 0.47102
 C44 C 0.79787 0.01764 0.56279
 H45 H 0.72084 -0.14582 0.33045
 H46 H 0.63254 0.01193 0.61738
 H47 H 0.71268 0.17448 0.33382
 H48 H 0.93557 0.04005 0.46875
 C49 C 0.38841 0.19673 0.99983
 C50 C 0.40523 0.24396 1.10324
 C51 C 0.49899 0.30675 1.11548
 C52 C 0.56138 0.30968 1.01763
 C53 C 0.39044 0.28245 0.92868
 C54 C 0.48742 0.34178 0.93174
 C55 C 0.48392 0.13733 0.97754
 C56 C 0.58123 0.19904 0.99109
 H57 H 0.35176 0.23193 1.16743
 H58 H 0.63392 0.36019 1.02573
 H59 H 0.33469 0.28590 0.86250
 H60 H 0.48185 0.06436 0.93226
 C61 C 0.37776 0.79048 1.02258
 C62 C 0.38714 0.71421 0.93132
 C63 C 0.48074 0.66661 0.92993
 C64 C 0.55281 0.69177 1.02615
 C65 C 0.38988 0.72578 1.11821
 C66 C 0.48289 0.67640 1.12217
 C67 C 0.47177 0.86016 1.02239
 C68 C 0.56917 0.80357 1.02204
 H69 H 0.33536 0.71678 0.86189
 H70 H 0.62592 0.64545 1.02846
 H71 H 0.33861 0.73284 1.18490
 H72 H 0.46954 0.94271 1.04046
 B73 B 0.98474 1.09506 0.04333
 B74 B 0.98944 1.08860 -0.08652
 B75 B 1.09206 1.04776 -0.01466
 B76 B 1.04316 0.98877 0.09053
 B77 B 0.91228 0.99295 0.08202
 B78 B 0.87606 1.05504 -0.02743
 B79 B 0.97758 0.87342 -0.08344
 B80 B 0.97277 0.88129 0.04863
 B81 B 0.86865 0.92233 -0.02460
 B82 B 0.91795 0.98219 -0.13146
 B83 B 1.05108 0.97793 -0.12294
 B84 B 1.08399 0.91754 -0.01155
 B85 B 0.63157 0.51509 0.46191
 B86 B 0.63046 0.51979 0.59287
 B87 B 0.59271 0.62308 0.52669
 B88 B 0.52748 0.57923 0.41796
 B89 B 0.52283 0.44765 0.41625
 B90 B 0.58588 0.41077 0.52744
 B91 B 0.41617 0.52130 0.58584
 B92 B 0.41673 0.51668 0.45393
 B93 B 0.45332 0.41111 0.52260
 B94 B 0.52142 0.45522 0.63212
 B95 B 0.52609 0.58612 0.62989
 B96 B 0.46126 0.62469 0.52190
 C97 C 0.99064 1.29185 0.13446
 C98 C 0.98750 1.20453 0.09662
 C99 C 0.97422 0.68968 0.14928
 C100 C 0.97003 0.77569 0.11009
 C101 C 1.01548 1.28169 -0.16504
 C102 C 1.00374 1.19433 -0.13553
 C103 C 1.00330 0.66947 -0.15967
 C104 C 0.98704 0.75937 -0.13092
 C105 C 1.13560 0.98962 0.28754
 C106 C 1.09629 0.98935 0.20062
 C107 C 1.15133 0.97673 -0.31448
 C108 C 1.11270 0.97439 -0.22818
 C109 C 0.82616 1.01264 0.27077
 C110 C 0.85924 1.00438 0.18499
 C111 C 0.84118 1.00290 -0.33299
 C112 C 0.87061 0.98978 -0.24367
 C113 C 1.29132 1.14188 -0.00733
 C114 C 1.20364 1.10178 -0.01079
 C115 C 0.68151 1.15758 -0.02084
 C116 C 0.76836 1.11748 -0.02754
 C117 C 1.27569 0.83621 0.01448
 C118 C 1.18859 0.86659 0.00226
 C119 C 0.66702 0.84427 0.00072
 C120 C 0.75595 0.87436 -0.01633
 C121 C 0.83046 0.51089 0.38235
 C122 C 0.74141 0.51710 0.41225
 C123 C 0.22193 0.51858 0.35121
 C124 C 0.30873 0.52073 0.39331
 C125 C 0.83286 0.51617 0.65406
 C126 C 0.74043 0.52594 0.64053
 C127 C 0.21580 0.51670 0.65098
 C128 C 0.30687 0.52696 0.63089
 C129 C 0.51918 0.64997 0.22315
 C130 C 0.53134 0.62702 0.31200
 C131 C 0.51794 0.65119 0.82789
 C132 C 0.52997 0.63565 0.73718
 C133 C 0.52079 0.35289 0.21418
 C134 C 0.52555 0.39020 0.30393
 C135 C 0.51457 0.37772 0.83439
 C136 C 0.52238 0.40615 0.74434
 C137 C 0.65353 0.82236 0.51390
 C138 C 0.64133 0.73148 0.52876
 C139 C 0.64309 0.21135 0.51632
 C140 C 0.62923 0.30238 0.53048
 C141 C 0.38133 0.82275 0.51072
 C142 C 0.41109 0.73432 0.52069
 C143 C 0.35398 0.21583 0.51797
 C144 C 0.39332 0.30330 0.52388
   
