data_POSCAR
  _audit_creation_date              2014-09-24
  _audit_creation_method            'ToBaCCo'
  _symmetry_space_group_name_H-M    'P1'
  _symmetry_Int_Tables_number       1
  _symmetry_cell_setting            triclinic
  loop_
  _symmetry_equiv_pos_as_xyz
 x,y,z
_cell_length_a 32.7589
_cell_length_b 17.9868
_cell_length_c 15.1789
_cell_angle_alpha 89.288300
_cell_angle_beta 89.699700
_cell_angle_gamma 91.778500
loop_
  _atom_site_label
  _atom_site_type_symbol
  _atom_site_fract_x
  _atom_site_fract_y
  _atom_site_fract_z
O1 O 0.78246 0.18201 0.59166
 O2 O 0.71280 0.19531 0.40329
 O3 O 0.79108 0.18095 0.42350
 O4 O 0.70400 0.19635 0.57465
 O5 O 0.71091 0.31894 0.57370
 O6 O 0.79756 0.30352 0.42109
 O7 O 0.71886 0.31793 0.40502
 O8 O 0.78904 0.30461 0.59252
 Cu9 Cu 0.74650 0.17672 0.49834
 Cu10 Cu 0.75516 0.32322 0.49776
 C11 C 0.79779 0.24130 0.62368
 C12 C 0.70371 0.25862 0.37269
 C13 C 0.80930 0.24029 0.39681
 C14 C 0.69268 0.25951 0.59999
 O15 O 0.19771 0.70531 0.44032
 O16 O 0.28137 0.68593 0.60024
 O17 O 0.20682 0.73868 0.60762
 O18 O 0.26966 0.65337 0.43568
 O19 O 0.29607 0.76355 0.39695
 O20 O 0.23227 0.84912 0.56724
 O21 O 0.30487 0.79851 0.56348
 O22 O 0.22226 0.81678 0.40134
 Cu23 Cu 0.23629 0.68489 0.52563
 Cu24 Cu 0.26636 0.81804 0.47811
 C25 C 0.19619 0.76368 0.39269
 C26 C 0.30730 0.73931 0.60933
 C27 C 0.20898 0.80883 0.61654
 C28 C 0.29326 0.69352 0.38696
 O29 O 0.28461 0.19093 -0.40811
 O30 O 0.20851 0.18806 -0.58546
 O31 O 0.28782 0.18787 -0.58071
 O32 O 0.20528 0.19115 -0.41670
 O33 O 0.20841 0.31406 -0.41894
 O34 O 0.29078 0.31084 -0.58362
 O35 O 0.21156 0.31090 -0.59172
 O36 O 0.28759 0.31384 -0.41413
 Cu37 Cu 0.24654 0.17702 -0.49719
 Cu38 Cu 0.24966 0.32488 -0.50265
 C39 C 0.29902 0.25285 -0.38104
 C40 C 0.19699 0.24900 -0.61862
 C41 C 0.30328 0.24888 -0.61005
 C42 C 0.19275 0.25303 -0.38998
 O43 O -0.28866 0.68355 -0.58453
 O44 O -0.21224 0.69267 -0.40737
 O45 O -0.29214 0.68504 -0.41466
 O46 O -0.20917 0.69116 -0.58064
 O47 O -0.20971 0.81387 -0.58318
 O48 O -0.29183 0.80772 -0.41527
 O49 O -0.21223 0.81538 -0.41288
 O50 O -0.28935 0.80626 -0.58857
 Cu51 Cu -0.25026 0.67625 -0.49625
 Cu52 Cu -0.25105 0.82263 -0.50031
 C53 C -0.30207 0.74347 -0.61648
 C54 C -0.19910 0.75548 -0.38032
 C55 C -0.30616 0.74544 -0.38670
 C56 C -0.19546 0.75345 -0.61041
 N57 N 0.04514 1.08741 0.15153
 N58 N 0.07460 1.10280 0.20807
 N59 N -0.04216 1.13079 0.10132
 N60 N -0.06809 1.18167 0.12373
 N61 N -0.04098 1.07760 0.16128
 N62 N -0.06668 1.09093 0.22650
 N63 N 0.04290 1.14055 0.09171
 N64 N 0.07027 1.19428 0.10663
 C65 C 0.09006 1.16918 0.17850
 C66 C -0.08365 1.15546 0.20060
 N67 N -0.04912 1.08459 -0.14758
 N68 N -0.07916 1.09754 -0.20292
 N69 N 0.03770 1.14562 -0.09785
 N70 N 0.06511 1.19908 -0.11543
 N71 N 0.03680 1.09586 -0.16040
 N72 N 0.06428 1.11313 -0.22178
 N73 N -0.04745 1.13533 -0.08610
 N74 N -0.07612 1.18429 -0.09772
 Mn75 Mn -0.00211 1.13847 0.00224
 C76 C -0.09588 1.15931 -0.16987
 C77 C 0.08157 1.17733 -0.19226
 N78 N -0.03751 0.91639 0.15665
 N79 N -0.06596 0.89956 0.21626
 N80 N 0.04873 0.87780 0.08568
 N81 N 0.07580 0.82680 0.10299
 N82 N 0.04860 0.92788 0.14812
 N83 N 0.07623 0.91305 0.20851
 N84 N -0.03669 0.86525 0.09546
 N85 N -0.06437 0.81185 0.11217
 Mn86 Mn 0.00369 1.00221 0.15539
 C87 C -0.08244 0.83448 0.18721
 C88 C 0.09329 0.85065 0.17844
 N89 N 0.04037 0.93737 -0.16548
 N90 N 0.07157 0.94101 -0.22050
 N91 N -0.04116 0.87009 -0.09450
 N92 N -0.06814 0.81555 -0.10873
 N93 N -0.04518 0.92419 -0.15250
 N94 N -0.07509 0.90812 -0.20778
 N95 N 0.04486 0.88424 -0.10634
 N96 N 0.07945 0.84967 -0.12052
 Mn97 Mn -0.00450 1.01037 -0.15732
 Mn98 Mn 0.00411 0.87350 -0.00506
 Cl99 Cl 0.00030 1.00596 -0.00105
 C100 C 0.09513 0.88524 -0.19321
 C101 C -0.08922 0.84060 -0.17885
 N102 N 0.46297 0.40324 0.16059
 N103 N 0.43517 0.38648 0.22151
 N104 N 0.54708 0.36311 0.08635
 N105 N 0.57593 0.31441 0.09734
 N106 N 0.54890 0.41389 0.14776
 N107 N 0.57923 0.40122 0.20249
 N108 N 0.46186 0.35373 0.09779
 N109 N 0.43389 0.30109 0.11452
 C110 C 0.41743 0.32286 0.19134
 C111 C 0.59593 0.33954 0.16912
 N112 N 0.54095 0.42066 -0.16110
 N113 N 0.56699 0.40740 -0.22572
 N114 N 0.45679 0.35865 -0.09159
 N115 N 0.42883 0.30573 -0.10559
 N116 N 0.45486 0.41154 -0.15177
 N117 N 0.42515 0.39670 -0.20789
 N118 N 0.54193 0.36760 -0.10097
 N119 N 0.56814 0.31695 -0.12252
 Mn120 Mn 0.50177 0.36036 -0.00208
 C121 C 0.58396 0.34302 -0.19922
 C122 C 0.40918 0.33092 -0.17760
 N123 N 0.54533 0.57435 0.15247
 N124 N 0.57502 0.59050 0.20826
 N125 N 0.45549 0.61502 0.10607
 N126 N 0.42122 0.65047 0.12068
 N127 N 0.45981 0.56190 0.16530
 N128 N 0.42880 0.55911 0.22082
 N129 N 0.54146 0.62846 0.09440
 N130 N 0.56832 0.68309 0.10914
 Mn131 Mn 0.50447 0.48846 0.15738
 C132 C 0.58919 0.65806 0.17957
 C133 C 0.40555 0.61538 0.19368
 N134 N 0.45166 0.57104 -0.14826
 N135 N 0.42431 0.58625 -0.20908
 N136 N 0.53706 0.63329 -0.09562
 N137 N 0.56455 0.68689 -0.11280
 N138 N 0.53793 0.58191 -0.15652
 N139 N 0.56637 0.59864 -0.21620
 N140 N 0.45168 0.62140 -0.08612
 N141 N 0.42514 0.67312 -0.10441
 Mn142 Mn 0.49648 0.49642 -0.15543
 Mn143 Mn 0.49625 0.62538 0.00482
 Cl144 Cl 0.49974 0.49284 0.00104
 C145 C 0.40752 0.64911 -0.17966
 C146 C 0.58273 0.66395 -0.18756
 N147 N 0.37546 0.21143 0.22182
 N148 N 0.34511 0.18909 0.27487
 C149 C 0.33598 0.24815 0.32431
 C150 C 0.36158 0.30718 0.30061
 N151 N 0.38568 0.28192 0.23669
 H152 H 0.36245 0.36298 0.32666
 N153 N -0.12287 0.72120 0.21920
 N154 N -0.15259 0.69720 0.27305
 C155 C -0.16292 0.75565 0.32238
 C156 C -0.13849 0.81630 0.29733
 N157 N -0.11396 0.79239 0.23293
 H158 H -0.13850 0.87210 0.32330
 N159 N 0.62791 0.77289 0.20856
 N160 N 0.65660 0.79815 0.26280
 C161 C 0.66725 0.73992 0.31359
 C162 C 0.64424 0.67820 0.28909
 N163 N 0.62011 0.70117 0.22353
 H164 H 0.64453 0.62251 0.31697
 N165 N 0.12731 1.28414 0.21408
 N166 N 0.15583 1.30799 0.26959
 C167 C 0.16787 1.24772 0.31520
 C168 C 0.14589 1.18624 0.28620
 N169 N 0.12096 1.21142 0.22341
 H170 H 0.14715 1.12925 0.30971
 N171 N 0.61473 0.22810 -0.23994
 N172 N 0.64331 0.20337 -0.29291
 C173 C 0.65850 0.26292 -0.33823
 C174 C 0.63816 0.32520 -0.31214
 N175 N 0.61113 0.30072 -0.25072
 H176 H 0.64324 0.38240 -0.33351
 N177 N 0.16079 0.93467 -0.24068
 N178 N 0.19112 0.91707 -0.29353
 C179 C 0.18458 0.84548 -0.31590
 C180 C 0.14918 0.81926 -0.27393
 N181 N 0.13548 0.87681 -0.22723
 H182 H 0.13305 0.76652 -0.28325
 N183 N 0.38831 0.76646 -0.24514
 N184 N 0.36251 0.79225 -0.30420
 C185 C 0.33860 0.73398 -0.32939
 C186 C 0.35074 0.67122 -0.28420
 N187 N 0.38177 0.69416 -0.23242
 H188 H 0.33895 0.61457 -0.28972
 N189 N -0.13592 1.26900 -0.19419
 N190 N -0.16404 1.29346 -0.24887
 C191 C -0.17358 1.23676 -0.30302
 C192 C -0.15043 1.17683 -0.28033
 N193 N -0.12734 1.19938 -0.21230
 H194 H -0.14950 1.12319 -0.31177
 N195 N 0.61919 0.77955 -0.22821
 N196 N 0.64868 0.80367 -0.28259
 C197 C 0.66250 0.74344 -0.32415
 C198 C 0.64035 0.68151 -0.29388
 N199 N 0.61369 0.70657 -0.23431
 H200 H 0.64299 0.62422 -0.31371
 N201 N 0.11888 1.29197 -0.23267
 N202 N 0.14867 1.31474 -0.28699
 C203 C 0.16148 1.25360 -0.32823
 C204 C 0.13861 1.19283 -0.29828
 N205 N 0.11247 1.21922 -0.23904
 H206 H 0.14056 1.13530 -0.31773
 N207 N 0.36748 0.21904 -0.20449
 N208 N 0.33828 0.19568 -0.25862
 C209 C 0.32947 0.25423 -0.31075
 C210 C 0.35409 0.31410 -0.28726
 N211 N 0.37732 0.28981 -0.22092
 H212 H 0.35545 0.36943 -0.31629
 N213 N -0.12856 0.72614 -0.20629
 N214 N -0.15759 0.70097 -0.25975
 C215 C -0.16821 0.75907 -0.31081
 C216 C -0.14480 0.82062 -0.28726
 N217 N -0.12049 0.79767 -0.22200
 H218 H -0.14494 0.87615 -0.31561
 N219 N 0.33951 0.56784 0.24098
 N220 N 0.30961 0.58584 0.29476
 C221 C 0.31711 0.65683 0.31856
 C222 C 0.35262 0.68229 0.27652
 N223 N 0.36543 0.62492 0.22830
 H224 H 0.36940 0.73426 0.28663
 N225 N -0.11066 1.27168 0.24871
 N226 N -0.13929 1.29684 0.30131
 C227 C -0.15767 1.23667 0.33983
 C228 C -0.13909 1.17356 0.31025
 N229 N -0.10998 1.19822 0.25355
 H230 H -0.14661 1.11589 0.32619
 N231 N 0.63676 0.23062 0.19175
 N232 N 0.66533 0.20649 0.24554
 C233 C 0.67482 0.26310 0.29984
 C234 C 0.65118 0.32264 0.27818
 N235 N 0.62785 0.29994 0.21059
 H236 H 0.65006 0.37605 0.31009
 N237 N 0.12226 0.73395 0.22470
 N238 N 0.14859 0.70850 0.28286
 C239 C 0.16457 0.76814 0.32489
 C240 C 0.14715 0.83123 0.29090
 N241 N 0.12094 0.80729 0.22864
 H242 H 0.15265 0.88848 0.30989
   
