data_POSCAR
  _audit_creation_date              2014-09-24
  _audit_creation_method            'ToBaCCo'
  _symmetry_space_group_name_H-M    'P1'
  _symmetry_Int_Tables_number       1
  _symmetry_cell_setting            triclinic
  loop_
  _symmetry_equiv_pos_as_xyz
 x,y,z
_cell_length_a 36.6287
_cell_length_b 37.0617
_cell_length_c 18.3697
_cell_angle_alpha 90.420100
_cell_angle_beta 90.251700
_cell_angle_gamma 90.426700
loop_
  _atom_site_label
  _atom_site_type_symbol
  _atom_site_fract_x
  _atom_site_fract_y
  _atom_site_fract_z
O1 O 0.77926 0.30640 0.57553
 O2 O 0.81257 0.24803 0.42667
 O3 O 0.77772 0.30901 0.43327
 O4 O 0.81499 0.24523 0.56675
 O5 O 0.76225 0.21590 0.56811
 O6 O 0.72577 0.27839 0.43231
 O7 O 0.76038 0.21782 0.42714
 O8 O 0.72692 0.27647 0.57445
 Cu9 Cu 0.80134 0.28036 0.50085
 Cu10 Cu 0.73850 0.24429 0.50067
 C11 C 0.74731 0.30136 0.60026
 C12 C 0.79227 0.22271 0.40211
 C13 C 0.74552 0.30414 0.40922
 C14 C 0.79510 0.21942 0.58922
 O15 O 0.28128 0.82330 0.56927
 O16 O 0.33362 0.77564 0.42811
 O17 O 0.28172 0.82369 0.42886
 O18 O 0.33270 0.77421 0.56956
 O19 O 0.29156 0.73039 0.56470
 O20 O 0.23949 0.78082 0.42715
 O21 O 0.29150 0.73269 0.42502
 O22 O 0.24060 0.77905 0.56973
 Cu23 Cu 0.31153 0.80355 0.49930
 Cu24 Cu 0.26145 0.75152 0.49624
 C25 C 0.25193 0.80943 0.59333
 C26 C 0.32168 0.74575 0.40335
 C27 C 0.25170 0.81094 0.40485
 C28 C 0.32123 0.74346 0.58981
 O29 O 0.23168 0.29464 -0.57468
 O30 O 0.18138 0.24037 -0.43922
 O31 O 0.21748 0.30127 -0.43631
 O32 O 0.19604 0.23348 -0.57816
 O33 O 0.24636 0.20389 -0.55143
 O34 O 0.26768 0.27140 -0.40968
 O35 O 0.23201 0.21096 -0.41354
 O36 O 0.28196 0.26486 -0.54838
 Cu37 Cu 0.20152 0.27032 -0.50987
 Cu38 Cu 0.26209 0.23491 -0.47820
 C39 C 0.26548 0.28888 -0.58462
 C40 C 0.19831 0.21659 -0.40298
 C41 C 0.24623 0.29761 -0.39841
 C42 C 0.21749 0.20718 -0.58914
 O43 O -0.26040 0.78799 -0.55649
 O44 O -0.29813 0.72330 -0.42598
 O45 O -0.24876 0.77511 -0.41806
 O46 O -0.30762 0.73461 -0.56156
 O47 O -0.26325 0.69690 -0.58944
 O48 O -0.20508 0.73678 -0.44614
 O49 O -0.25404 0.68505 -0.45185
 O50 O -0.21654 0.74970 -0.58373
 Cu51 Cu -0.28291 0.75939 -0.48753
 Cu52 Cu -0.23021 0.71338 -0.52026
 C53 C -0.23228 0.77978 -0.59286
 C54 C -0.28324 0.69274 -0.41827
 C55 C -0.21682 0.76279 -0.40788
 C56 C -0.29544 0.70838 -0.59901
 O57 O -0.02355 0.94800 0.13432
 O58 O 0.04616 0.95417 -0.11491
 O59 O -0.06951 0.95437 -0.06610
 O60 O 0.05796 0.94815 0.01205
 O61 O -0.01775 0.93243 -0.10438
 O62 O 0.04358 0.96184 0.12160
 O63 O 0.08998 0.98938 -0.07272
 O64 O -0.07237 0.96139 0.06823
 C65 C -0.05642 0.94253 0.11642
 C66 C 0.07858 0.96633 -0.12240
 C67 C -0.05133 0.92873 -0.09357
 C68 C 0.05989 0.94156 0.07804
 O69 O 0.02637 1.03239 0.11832
 O70 O -0.04147 0.99377 -0.15490
 O71 O -0.06659 1.03379 0.05170
 O72 O 0.04621 1.04083 -0.04891
 O73 O 0.02031 1.02064 -0.14599
 O74 O -0.03697 1.01550 0.14505
 O75 O 0.07333 1.01391 0.06059
 O76 O -0.05976 1.02879 -0.07324
 Co77 Co 0.00237 0.98944 0.11732
 Co78 Co 0.00151 0.97693 -0.11781
 Co79 Co -0.06191 0.99390 -0.00558
 Co80 Co 0.04951 0.99451 -0.01878
 O81 O -0.00435 0.98977 -0.00079
 C82 C 0.05919 1.03601 0.10358
 C83 C -0.05638 1.02243 -0.13826
 C84 C -0.05853 1.03698 0.11678
 C85 C 0.03584 1.04601 -0.11244
 O86 O 0.45582 0.43410 0.09219
 O87 O 0.52228 0.43283 -0.11097
 O88 O 0.41261 0.47083 -0.05577
 O89 O 0.56383 0.46866 0.08344
 O90 O 0.45340 0.43213 -0.08950
 O91 O 0.52041 0.43182 0.10102
 O92 O 0.56592 0.46140 -0.05079
 O93 O 0.41459 0.47332 0.07552
 C94 C 0.42310 0.44173 0.09175
 C95 C 0.55497 0.43592 -0.09170
 C96 C 0.42101 0.43940 -0.07624
 C97 C 0.55351 0.43762 0.09899
 O98 O 0.52199 0.50125 0.15626
 O99 O 0.45101 0.49853 -0.14372
 O100 O 0.44944 0.53896 0.06859
 O101 O 0.55092 0.52967 -0.06674
 O102 O 0.51854 0.50070 -0.14975
 O103 O 0.45635 0.50130 0.15410
 O104 O 0.54063 0.53589 0.06929
 O105 O 0.44367 0.53812 -0.06078
 Co106 Co 0.48875 0.46862 0.11593
 Co107 Co 0.48634 0.46766 -0.11089
 Co108 Co 0.43507 0.50354 0.00693
 Co109 Co 0.54893 0.49771 0.00903
 O110 O 0.49020 0.48452 0.00426
 C111 C 0.53431 0.53131 0.13511
 C112 C 0.44376 0.53026 -0.12621
 C113 C 0.44982 0.53277 0.13450
 C114 C 0.54128 0.52493 -0.13149
 C115 C 0.28525 0.30865 0.36437
 C116 C 0.27028 0.33677 0.32385
 C117 C 0.29219 0.35782 0.27121
 C118 C 0.28425 0.39434 0.26003
 C119 C 0.30599 0.41531 0.21395
 C120 C 0.33591 0.40013 0.17760
 C121 C 0.34237 0.36292 0.18531
 C122 C 0.32088 0.34209 0.23190
 C123 C 0.36037 0.42407 0.13487
 C124 C 0.39640 0.41517 0.11838
 H125 H 0.24258 0.34533 0.33463
 H126 H 0.26189 0.40694 0.28876
 H127 H 0.30001 0.44374 0.20833
 H128 H 0.36393 0.34961 0.15577
 H129 H 0.32669 0.31362 0.23673
 H130 H 0.35114 0.45114 0.12316
 H131 H 0.31383 0.30218 0.35757
 H132 H 0.40700 0.38903 0.13264
 C133 C -0.21777 0.80586 0.35458
 C134 C -0.18718 0.79832 0.31230
 C135 C -0.16952 0.82505 0.26420
 C136 C -0.13275 0.82019 0.24592
 C137 C -0.11429 0.84575 0.20421
 C138 C -0.13236 0.87676 0.17972
 C139 C -0.16965 0.88067 0.19447
 C140 C -0.18812 0.85514 0.23655
 C141 C -0.11285 0.90546 0.13977
 C142 C -0.07597 0.91291 0.15213
 H143 H -0.17389 0.77251 0.31884
 H144 H -0.11800 0.79688 0.26526
 H145 H -0.08591 0.84111 0.19131
 H146 H -0.18430 0.90399 0.17489
 H147 H -0.21683 0.85913 0.24704
 H148 H -0.12842 0.92289 0.10434
 H149 H -0.23074 0.83193 0.35176
 H150 H -0.06090 0.89739 0.19171
 C151 C 0.68136 0.69026 0.34642
 C152 C 0.64352 0.68801 0.35365
 C153 C 0.62117 0.66499 0.30453
 C154 C 0.59126 0.64566 0.33229
 C155 C 0.57148 0.62167 0.28761
 C156 C 0.58105 0.61718 0.21405
 C157 C 0.60979 0.63793 0.18570
 C158 C 0.62981 0.66141 0.23047
 C159 C 0.56230 0.59117 0.16495
 C160 C 0.54509 0.55949 0.18815
 H161 H 0.63072 0.69993 0.40106
 H162 H 0.58386 0.64838 0.38909
 H163 H 0.54883 0.60683 0.31070
 H164 H 0.61737 0.63533 0.12897
 H165 H 0.65209 0.67672 0.20708
 H166 H 0.56576 0.59520 0.10700
 H167 H 0.69477 0.67462 0.30444
 H168 H 0.54223 0.55383 0.24553
 C169 C 0.20951 1.18126 0.35760
 C170 C 0.17859 1.18348 0.31303
 C171 C 0.16627 1.15502 0.26103
 C172 C 0.13438 1.16132 0.22061
 C173 C 0.11927 1.13434 0.17636
 C174 C 0.13566 1.10027 0.17171
 C175 C 0.16871 1.09448 0.20830
 C176 C 0.18385 1.12149 0.25307
 C177 C 0.11734 1.07011 0.13279
 C178 C 0.07960 1.06603 0.13673
 H179 H 0.16139 1.20704 0.31827
 H180 H 0.12049 1.18696 0.22473
 H181 H 0.09432 1.13997 0.14684
 H182 H 0.18195 1.06848 0.20488
 H183 H 0.20856 1.11530 0.28247
 H184 H 0.13361 1.04925 0.10746
 H185 H 0.22808 1.15892 0.35208
 H186 H 0.06397 1.08516 0.16852
 C187 C 0.73367 0.32509 -0.34127
 C188 C 0.70041 0.31807 -0.30701
 C189 C 0.68278 0.34237 -0.25333
 C190 C 0.65329 0.32881 -0.21311
 C191 C 0.63320 0.35139 -0.16747
 C192 C 0.64187 0.38831 -0.16167
 C193 C 0.67248 0.40161 -0.19885
 C194 C 0.69267 0.37896 -0.24470
 C195 C 0.61820 0.41363 -0.12097
 C196 C 0.58045 0.40849 -0.11853
 H197 H 0.68604 0.29327 -0.32092
 H198 H 0.64526 0.30070 -0.21814
 H199 H 0.61053 0.33994 -0.13768
 H200 H 0.67979 0.42994 -0.19500
 H201 H 0.71490 0.39066 -0.27523
 H202 H 0.62981 0.43883 -0.10109
 H203 H 0.75015 0.34818 -0.32545
 H204 H 0.56844 0.38503 -0.14500
 C205 C 0.23134 0.82771 -0.35482
 C206 C 0.23770 0.86391 -0.33734
 C207 C 0.21294 0.88361 -0.28872
 C208 C 0.19623 0.91522 -0.31316
 C209 C 0.17178 0.93365 -0.26838
 C210 C 0.16482 0.92135 -0.19769
 C211 C 0.18245 0.89038 -0.17240
 C212 C 0.20588 0.87119 -0.21816
 C213 C 0.13962 0.94086 -0.14968
 C214 C 0.10424 0.94875 -0.17194
 H215 H 0.25808 0.87925 -0.36675
 H216 H 0.20154 0.92517 -0.36743
 H217 H 0.15869 0.95777 -0.28840
 H218 H 0.17747 0.88069 -0.11782
 H219 H 0.21885 0.84699 -0.19831
 H220 H 0.14776 0.94592 -0.09372
 H221 H 0.20792 0.81410 -0.33138
 H222 H 0.09433 0.93905 -0.22423
 C223 C 0.34318 0.72249 -0.35833
 C224 C 0.33690 0.68561 -0.34857
 C225 C 0.35976 0.66223 -0.30207
 C226 C 0.35947 0.62491 -0.31559
 C227 C 0.37965 0.60158 -0.27190
 C228 C 0.40049 0.61510 -0.21315
 C229 C 0.40057 0.65241 -0.19919
 C230 C 0.38058 0.67583 -0.24334
 C231 C 0.41999 0.59087 -0.16250
 C232 C 0.43073 0.55591 -0.18112
 H233 H 0.31541 0.67264 -0.38022
 H234 H 0.34332 0.61369 -0.35995
 H235 H 0.37784 0.57293 -0.28307
 H236 H 0.41591 0.66344 -0.15352
 H237 H 0.38075 0.70430 -0.23000
 H238 H 0.42551 0.60076 -0.10785
 H239 H 0.36624 0.73570 -0.33218
 H240 H 0.42814 0.54636 -0.23672
 C241 C -0.18996 1.19281 -0.36035
 C242 C -0.15260 1.18631 -0.35561
 C243 C -0.13757 1.15779 -0.30877
 C244 C -0.10581 1.13966 -0.33011
 C245 C -0.09126 1.11239 -0.28668
 C246 C -0.10805 1.10329 -0.22060
 C247 C -0.13932 1.12200 -0.19866
 C248 C -0.15410 1.14885 -0.24241
 C249 C -0.09276 1.07616 -0.17092
 C250 C -0.07101 1.04730 -0.19287
 H251 H -0.13415 1.20062 -0.39144
 H252 H -0.09240 1.14648 -0.38068
 H253 H -0.06651 1.09917 -0.30407
 H254 H -0.15236 1.11584 -0.14735
 H255 H -0.17800 1.16304 -0.22344
 H256 H -0.10019 1.07837 -0.11400
 H257 H -0.20902 1.17581 -0.33121
 H258 H -0.06523 1.04253 -0.24983
 C259 C 0.70057 0.66683 -0.37420
 C260 C 0.66529 0.67098 -0.34684
 C261 C 0.64666 0.64257 -0.30492
 C262 C 0.60858 0.63876 -0.31046
 C263 C 0.59014 0.61265 -0.26978
 C264 C 0.60960 0.59042 -0.22196
 C265 C 0.64762 0.59445 -0.21618
 C266 C 0.66607 0.62010 -0.25759
 C267 C 0.59113 0.56503 -0.17276
 C268 C 0.55742 0.54850 -0.18687
 H269 H 0.64959 0.69454 -0.36151
 H270 H 0.59309 0.65609 -0.34620
 H271 H 0.56071 0.61077 -0.27398
 H272 H 0.66307 0.57792 -0.17881
 H273 H 0.69531 0.62301 -0.25081
 H274 H 0.60555 0.55817 -0.12313
 H275 H 0.71478 0.64164 -0.36598
 H276 H 0.54397 0.55142 -0.23906
 C277 C 0.17944 1.19512 -0.34731
 C278 C 0.14235 1.19870 -0.33182
 C279 C 0.12372 1.17644 -0.27622
 C280 C 0.08632 1.16875 -0.28402
 C281 C 0.06854 1.14595 -0.23491
 C282 C 0.08787 1.13061 -0.17656
 C283 C 0.12470 1.14009 -0.16632
 C284 C 0.14251 1.16267 -0.21562
 C285 C 0.07127 1.10346 -0.12762
 C286 C 0.04357 1.07991 -0.15062
 H287 H 0.12601 1.21673 -0.36451
 H288 H 0.07105 1.17965 -0.32934
 H289 H 0.03980 1.14027 -0.24313
 H290 H 0.14007 1.12912 -0.12118
 H291 H 0.17097 1.16919 -0.20607
 H292 H 0.08499 1.09807 -0.07647
 H293 H 0.19548 1.17533 -0.31859
 H294 H 0.03129 1.08309 -0.20383
 C295 C 0.25490 0.32433 -0.34126
 C296 C 0.28165 0.31753 -0.28896
 C297 C 0.29560 0.34453 -0.23580
 C298 C 0.31743 0.33246 -0.17808
 C299 C 0.33562 0.35705 -0.13265
 C300 C 0.33265 0.39431 -0.14467
 C301 C 0.30884 0.40652 -0.19898
 C302 C 0.29062 0.38189 -0.24464
 C303 C 0.35683 0.42048 -0.10678
 C304 C 0.39315 0.41196 -0.09265
 H305 H 0.29384 0.29097 -0.28792
 H306 H 0.32143 0.30386 -0.16960
 H307 H 0.35294 0.34685 -0.08968
 H308 H 0.30608 0.43514 -0.20900
 H309 H 0.27437 0.39236 -0.28884
 H310 H 0.34819 0.44830 -0.10201
 H311 H 0.23973 0.34924 -0.34033
 H312 H 0.40279 0.38496 -0.10405
 C313 C -0.19227 0.77886 -0.35254
 C314 C -0.20268 0.80738 -0.30732
 C315 C -0.17726 0.82640 -0.25650
 C316 C -0.19183 0.84737 -0.19997
 C317 C -0.16900 0.86784 -0.15423
 C318 C -0.13099 0.86809 -0.16409
 C319 C -0.11623 0.84658 -0.22003
 C320 C -0.13911 0.82600 -0.26569
 C321 C -0.10857 0.89362 -0.11953
 C322 C -0.07044 0.89626 -0.12144
 H323 H -0.23080 0.81623 -0.30909
 H324 H -0.22108 0.84839 -0.19182
 H325 H -0.18124 0.88429 -0.11203
 H326 H -0.08728 0.84641 -0.23088
 H327 H -0.12674 0.81107 -0.30981
 H328 H -0.12324 0.91337 -0.08738
 H329 H -0.16508 0.76788 -0.34826
 H330 H -0.05441 0.87617 -0.14943
 C331 C 0.34385 0.72548 0.35092
 C332 C 0.33714 0.68892 0.33786
 C333 C 0.36149 0.66562 0.29462
 C334 C 0.36148 0.62850 0.30872
 C335 C 0.38353 0.60526 0.26859
 C336 C 0.40596 0.61871 0.21295
 C337 C 0.40569 0.65581 0.19819
 C338 C 0.38382 0.67917 0.23890
 C339 C 0.42720 0.59431 0.16567
 C340 C 0.43813 0.56006 0.18746
 H341 H 0.31468 0.67596 0.36594
 H342 H 0.34419 0.61740 0.35084
 H343 H 0.38194 0.57669 0.27981
 H344 H 0.42220 0.66666 0.15461
 H345 H 0.38377 0.70752 0.22531
 H346 H 0.43293 0.60298 0.11064
 H347 H 0.36776 0.73853 0.32848
 H348 H 0.43550 0.55201 0.24371
 C349 C -0.19513 1.19940 0.34808
 C350 C -0.15934 1.20074 0.32219
 C351 C -0.14465 1.17321 0.27185
 C352 C -0.10762 1.16422 0.27692
 C353 C -0.09317 1.13703 0.23289
 C354 C -0.11547 1.11859 0.18220
 C355 C -0.15208 1.12876 0.17460
 C356 C -0.16669 1.15566 0.21939
 C357 C -0.10100 1.08904 0.13648
 C358 C -0.07406 1.06586 0.16185
 H359 H -0.14035 1.22033 0.34522
 H360 H -0.08999 1.17777 0.31614
 H361 H -0.06449 1.13067 0.23829
 H362 H -0.16957 1.11535 0.13495
 H363 H -0.19509 1.16279 0.21254
 H364 H -0.11319 1.08419 0.08342
 H365 H -0.21341 1.17824 0.32893
 H366 H -0.06409 1.06863 0.21722
 C367 C 0.73097 0.32884 0.35422
 C368 C 0.69837 0.32109 0.31761
 C369 C 0.68052 0.34575 0.26575
 C370 C 0.65316 0.33173 0.21972
 C371 C 0.63299 0.35447 0.17493
 C372 C 0.63947 0.39190 0.17610
 C373 C 0.66798 0.40577 0.21945
 C374 C 0.68822 0.38300 0.26431
 C375 C 0.61579 0.41722 0.13628
 C376 C 0.57891 0.40985 0.12359
 H377 H 0.68506 0.29536 0.32737
 H378 H 0.64692 0.30311 0.21934
 H379 H 0.61208 0.34266 0.14025
 H380 H 0.67355 0.43451 0.22102
 H381 H 0.70868 0.39499 0.29969
 H382 H 0.62628 0.44403 0.12521
 H383 H 0.74664 0.35283 0.34167
 H384 H 0.56730 0.38407 0.13878
 C385 C 0.23047 0.83261 0.35323
 C386 C 0.19877 0.81988 0.31895
 C387 C 0.17377 0.84430 0.27973
 C388 C 0.15301 0.83138 0.22042
 C389 C 0.12801 0.85392 0.18518
 C390 C 0.12289 0.88949 0.21005
 C391 C 0.14337 0.90213 0.26980
 C392 C 0.16870 0.87994 0.30397
 C393 C 0.09528 0.91373 0.17839
 C394 C 0.08406 0.91306 0.10559
 H395 H 0.19180 0.79146 0.32172
 H396 H 0.15608 0.80382 0.20153
 H397 H 0.11203 0.84319 0.14020
 H398 H 0.13960 0.92930 0.29046
 H399 H 0.18340 0.89042 0.35089
 H400 H 0.08549 0.93530 0.21322
 H401 H 0.23936 0.86015 0.34433
 H402 H 0.09558 0.89385 0.06762
   
