data_POSCAR
  _audit_creation_date              2014-09-24
  _audit_creation_method            'ToBaCCo'
  _symmetry_space_group_name_H-M    'P1'
  _symmetry_Int_Tables_number       1
  _symmetry_cell_setting            triclinic
  loop_
  _symmetry_equiv_pos_as_xyz
 x,y,z
_cell_length_a 27.5845
_cell_length_b 28.9173
_cell_length_c 28.7561
_cell_angle_alpha 91.402700
_cell_angle_beta 87.934600
_cell_angle_gamma 118.517500
loop_
  _atom_site_label
  _atom_site_type_symbol
  _atom_site_fract_x
  _atom_site_fract_y
  _atom_site_fract_z
C1 C 0.53022 0.07695 0.05693
 H2 H 0.57122 0.08149 0.05106
 C3 C 0.52297 0.11440 0.08318
 H4 H 0.55899 0.14798 0.09678
 C5 C 0.43434 0.02896 0.04350
 H6 H 0.40011 -0.00402 0.02733
 C7 C 0.42505 0.06532 0.07011
 H8 H 0.38333 0.05928 0.07486
 N9 N 0.48634 0.03540 0.03761
 C10 C 0.53764 -0.08424 0.01461
 H11 H 0.53687 -0.08730 -0.02296
 C12 C 0.54816 -0.11857 0.04045
 H13 H 0.55634 -0.14757 0.02246
 C14 C 0.52620 -0.04360 0.08367
 H15 H 0.51604 -0.01536 0.10040
 C16 C 0.53671 -0.07703 0.11086
 H17 H 0.53450 -0.07410 0.14840
 Zn18 Zn 0.50361 -0.00916 -0.00047
 N19 N 0.52632 -0.04813 0.03648
 C20 C 0.61339 0.04236 -0.03771
 N21 N 0.56138 0.03549 -0.04157
 C22 C 0.55048 0.06496 -0.07126
 C23 C 0.59246 0.10237 -0.09932
 C24 C 0.65712 0.08074 -0.06401
 C25 C 0.39973 -0.09679 -0.00750
 C26 C 0.35396 -0.13697 -0.02906
 C27 C 0.39321 -0.09686 -0.10324
 C28 C 0.43883 -0.05831 -0.08020
 N29 N 0.44109 -0.05859 -0.03313
 H30 H 0.62150 0.01975 -0.01272
 H31 H 0.50909 0.05989 -0.07264
 H32 H 0.58189 0.12400 -0.12350
 H33 H 0.69845 0.08709 -0.05852
 H34 H 0.40264 -0.09632 0.02995
 H35 H 0.32162 -0.16523 -0.00663
 H36 H 0.39506 -0.09577 -0.14083
 H37 H 0.47298 -0.02910 -0.10039
 C38 C 0.54688 -0.11578 0.08928
 C39 C 0.46983 0.10900 0.09020
 C40 C 0.34950 -0.13813 -0.07806
 C41 C 0.64716 0.11188 -0.09519
 C42 C -0.09353 0.47657 0.61720
 H43 H -0.09508 0.43894 0.62226
 C44 C -0.13444 0.47924 0.59231
 H45 H -0.16732 0.44356 0.57783
 C46 C -0.04972 0.56865 0.63142
 H47 H -0.01732 0.60306 0.64778
 C48 C -0.08951 0.57326 0.60591
 H49 H -0.08754 0.61134 0.60250
 N50 N -0.05277 0.52067 0.63671
 C51 C 0.07876 0.48306 0.66189
 H52 H 0.07856 0.48405 0.69953
 C53 C 0.11982 0.47714 0.63694
 H54 H 0.15070 0.47270 0.65565
 C55 C 0.03991 0.48985 0.59185
 H56 H 0.00975 0.49655 0.57448
 C57 C 0.08014 0.48387 0.56550
 H58 H 0.08048 0.48597 0.52794
 Zn59 Zn -0.00617 0.50865 0.67538
 N60 N 0.04049 0.49012 0.63914
 C61 C -0.05697 0.40464 0.71147
 N62 N -0.05364 0.45304 0.71512
 C63 C -0.08887 0.46168 0.74365
 C64 C -0.12856 0.42122 0.77085
 C65 C -0.09750 0.36240 0.73690
 C66 C 0.08156 0.61017 0.68562
 C67 C 0.12105 0.65434 0.70898
 C68 C 0.07375 0.61598 0.78159
 C69 C 0.03604 0.57202 0.75694
 N70 N 0.04037 0.56992 0.70976
 H71 H -0.02979 0.39818 0.68734
 H72 H -0.08654 0.50011 0.74480
 H73 H -0.15471 0.43007 0.79420
 H74 H -0.10086 0.32384 0.73160
 H75 H 0.08479 0.60709 0.64819
 H76 H 0.15472 0.68463 0.68897
 H77 H 0.06859 0.61684 0.81902
 H78 H 0.00416 0.53930 0.77589
 C79 C 0.12156 0.47866 0.58810
 C80 C -0.13306 0.52788 0.58695
 C81 C 0.11782 0.65763 0.75780
 C82 C -0.13444 0.37019 0.76702
 C83 C 0.56380 0.47867 0.38353
 H84 H 0.52999 0.43918 0.37965
 C85 C 0.60733 0.48782 0.41199
 H86 H 0.60682 0.45482 0.42941
 C87 C 0.60624 0.56881 0.36334
 H88 H 0.60586 0.60010 0.34386
 C89 C 0.65063 0.57986 0.39184
 H90 H 0.68368 0.61993 0.39458
 N91 N 0.56381 0.51888 0.36006
 C92 C 0.39325 0.47835 0.33530
 H93 H 0.39413 0.48134 0.29782
 C94 C 0.34597 0.47010 0.36121
 H95 H 0.31077 0.46721 0.34329
 C96 C 0.43941 0.48155 0.40416
 H97 H 0.47609 0.48680 0.42094
 C98 C 0.39295 0.47284 0.43132
 H99 H 0.39432 0.47044 0.46872
 Zn100 Zn 0.50354 0.50031 0.32076
 N101 N 0.43883 0.48419 0.35705
 C102 C 0.44579 0.39638 0.28249
 N103 N 0.49524 0.44090 0.28569
 C104 C 0.54228 0.44333 0.26681
 C105 C 0.54109 0.39945 0.24457
 C106 C 0.44258 0.35171 0.25976
 C107 C 0.51671 0.59993 0.29960
 C108 C 0.52194 0.64050 0.27098
 C109 C 0.52804 0.59101 0.20419
 C110 C 0.52252 0.55134 0.23406
 N111 N 0.51680 0.55637 0.28079
 H112 H 0.40903 0.39508 0.29829
 H113 H 0.58108 0.47910 0.27021
 H114 H 0.57908 0.40175 0.23039
 H115 H 0.40324 0.31616 0.25806
 H116 H 0.51120 0.60251 0.33683
 H117 H 0.52007 0.67410 0.28654
 H118 H 0.53255 0.58624 0.16709
 H119 H 0.52190 0.51619 0.21974
 C120 C 0.34558 0.46774 0.41001
 C121 C 0.65151 0.53901 0.41671
 C122 C 0.52710 0.63609 0.22249
 C123 C 0.49089 0.35280 0.24128
 C124 C 0.22273 0.50992 0.57652
 C125 C 0.16863 0.47904 0.56110
 C126 C 0.16029 0.45074 0.51898
 C127 C 0.20548 0.45374 0.49244
 C128 C 0.25963 0.48553 0.50811
 C129 C 0.26778 0.51320 0.55028
 C130 C 0.30488 0.48970 0.48116
 C131 C 0.29708 0.46212 0.43870
 C132 C 0.24295 0.43005 0.42371
 C133 C 0.19759 0.42596 0.45028
 H134 H 0.11874 0.42651 0.50691
 H135 H 0.30904 0.53782 0.56276
 H136 H 0.34627 0.51538 0.49288
 H137 H 0.15638 0.40116 0.43780
 H138 H 0.23036 0.53276 0.60841
 H139 H 0.23560 0.40778 0.39153
 C140 C 0.58280 0.86005 0.15863
 C141 C 0.55252 0.84488 0.11762
 C142 C 0.52534 0.79137 0.10477
 C143 C 0.52737 0.75341 0.13287
 C144 C 0.55736 0.76898 0.17432
 C145 C 0.58538 0.82248 0.18665
 C146 C 0.55809 0.73073 0.20306
 C147 C 0.52883 0.67697 0.19109
 C148 C 0.49959 0.66217 0.14949
 C149 C 0.49898 0.69999 0.12063
 H150 H 0.50110 0.77902 0.07364
 H151 H 0.60873 0.83519 0.21822
 H152 H 0.58131 0.74280 0.23473
 H153 H 0.47560 0.68735 0.08906
 H154 H 0.60448 0.90107 0.16906
 H155 H 0.47598 0.62109 0.13974
 C156 C 0.27450 0.77189 0.92048
 C157 C 0.30579 0.82203 0.89976
 C158 C 0.29060 0.82886 0.85479
 C159 C 0.24705 0.78743 0.83149
 C160 C 0.21826 0.73759 0.85236
 C161 C 0.23204 0.73037 0.89690
 C162 C 0.17632 0.69558 0.82830
 C163 C 0.16132 0.70288 0.78382
 C164 C 0.18913 0.75339 0.76410
 C165 C 0.23180 0.79508 0.78750
 H166 H 0.31053 0.86693 0.83821
 H167 H 0.21030 0.69226 0.91346
 H168 H 0.15634 0.65699 0.84402
 H169 H 0.25289 0.83331 0.77113
 H170 H 0.28457 0.76271 0.95380
 H171 H 0.17793 0.76092 0.73053
 C172 C 0.76667 0.49660 0.57801
 C173 C 0.82138 0.53001 0.56334
 C174 C 0.83182 0.56264 0.52475
 C175 C 0.78770 0.55995 0.49966
 C176 C 0.73278 0.52540 0.51430
 C177 C 0.72273 0.49466 0.55400
 C178 C 0.68873 0.52075 0.48824
 C179 C 0.69842 0.54886 0.44667
 C180 C 0.75314 0.58407 0.43294
 C181 C 0.79736 0.58980 0.45934
 H182 H 0.87403 0.58823 0.51318
 H183 H 0.68090 0.46806 0.56573
 H184 H 0.64680 0.49433 0.49990
 H185 H 0.83913 0.61644 0.44749
 H186 H 0.75801 0.47149 0.60792
 H187 H 0.76194 0.60594 0.40093
 C188 C 0.42326 0.16510 0.10366
 C189 C 0.46207 0.14979 0.11709
 C190 C 0.49570 0.17572 0.15501
 C191 C 0.49267 0.21778 0.17762
 C192 C 0.45416 0.23338 0.16338
 C193 C 0.41908 0.20625 0.12680
 C194 C 0.45242 0.27662 0.18520
 C195 C 0.48979 0.30517 0.22015
 C196 C 0.52750 0.28896 0.23427
 C197 C 0.52863 0.24538 0.21350
 H198 H 0.52497 0.16376 0.16659
 H199 H 0.38940 0.21771 0.11528
 H200 H 0.42345 0.28917 0.17400
 H201 H 0.55836 0.23391 0.22487
 H202 H 0.39723 0.14642 0.07430
 H203 H 0.55620 0.31017 0.26150
 C204 C -0.25810 0.15299 0.86549
 C205 C -0.30655 0.15552 0.87847
 C206 C -0.31025 0.20070 0.86664
 C207 C -0.26730 0.24183 0.84185
 C208 C -0.21849 0.23937 0.83005
 C209 C -0.21431 0.19473 0.84206
 C210 C -0.17488 0.28148 0.80636
 C211 C -0.18013 0.32544 0.79283
 C212 C -0.23003 0.32615 0.80365
 C213 C -0.27265 0.28532 0.82849
 H214 H -0.34622 0.20459 0.87717
 H215 H -0.17742 0.19181 0.83287
 H216 H -0.13689 0.27999 0.79898
 H217 H -0.31022 0.28742 0.83663
 H218 H -0.25396 0.11859 0.87302
 H219 H -0.23685 0.35796 0.79246
   
