data_POSCAR
  _audit_creation_date              2014-09-24
  _audit_creation_method            'ToBaCCo'
  _symmetry_space_group_name_H-M    'P1'
  _symmetry_Int_Tables_number       1
  _symmetry_cell_setting            triclinic
  loop_
  _symmetry_equiv_pos_as_xyz
 x,y,z
_cell_length_a 21.8325
_cell_length_b 21.9180
_cell_length_c 21.8974
_cell_angle_alpha 87.395900
_cell_angle_beta 95.506300
_cell_angle_gamma 90.974700
loop_
  _atom_site_label
  _atom_site_type_symbol
  _atom_site_fract_x
  _atom_site_fract_y
  _atom_site_fract_z
C1 C 0.62250 0.55155 -0.03695
 C2 C 0.60683 0.61315 -0.03455
 C3 C 0.54903 0.63069 -0.01928
 C4 C 0.50339 0.58523 -0.00982
 C5 C 0.51718 0.52274 -0.01494
 C6 C 0.57688 0.50577 -0.02810
 C7 C 0.58842 0.44364 -0.03537
 C8 C 0.54389 0.39896 -0.02625
 C9 C 0.48528 0.41454 -0.01109
 C10 C 0.47104 0.47703 -0.00719
 C11 C 0.44363 0.60076 0.00227
 C12 C 0.39889 0.55609 0.01064
 C13 C 0.41088 0.49388 0.00457
 C14 C 0.36507 0.44787 0.01233
 C15 C 0.38108 0.38627 0.01012
 C16 C 0.44027 0.36912 -0.00067
 H17 H 0.63190 0.42886 -0.04908
 H18 H 0.55566 0.35194 -0.03209
 H19 H 0.43064 0.64787 0.00529
 H20 H 0.35479 0.57114 0.02245
 H21 H 0.64210 0.64814 -0.03929
 H22 H 0.34650 0.35079 0.01562
 C23 C -0.00963 0.63834 0.43781
 C24 C -0.00868 0.62299 0.37669
 C25 C -0.00634 0.56202 0.36025
 C26 C 0.00006 0.51515 0.40739
 C27 C -0.00146 0.53015 0.46961
 C28 C -0.00671 0.59187 0.48487
 C29 C -0.00813 0.60565 0.54682
 C30 C -0.00596 0.55958 0.59278
 C31 C -0.00019 0.49813 0.57880
 C32 C 0.00284 0.48332 0.51679
 C33 C 0.01059 0.45412 0.39424
 C34 C 0.01513 0.40833 0.44048
 C35 C 0.00994 0.42173 0.50188
 C36 C 0.01270 0.37525 0.54898
 C37 C 0.00857 0.39043 0.60969
 C38 C 0.00218 0.45095 0.62514
 H39 H -0.01139 0.65223 0.56040
 H40 H -0.00851 0.57273 0.63949
 H41 H 0.01581 0.44116 0.34796
 H42 H 0.02304 0.36225 0.42757
 H43 H -0.01247 0.65924 0.34113
 H44 H 0.00974 0.35445 0.64548
 C45 C 0.55879 0.00566 0.63396
 C46 C 0.62006 0.00791 0.61941
 C47 C 0.63504 0.00772 0.55847
 C48 C 0.58700 0.00132 0.51053
 C49 C 0.52485 0.00358 0.52380
 C50 C 0.51068 0.00773 0.58534
 C51 C 0.44889 0.01530 0.59655
 C52 C 0.40182 0.01408 0.54910
 C53 C 0.41460 0.00557 0.48842
 C54 C 0.47665 0.00116 0.47540
 C55 C 0.59946 -0.00967 0.45009
 C56 C 0.55224 -0.01382 0.40304
 C57 C 0.49054 -0.00656 0.41423
 C58 C 0.44219 -0.00821 0.36620
 C59 C 0.38122 -0.00331 0.38003
 C60 C 0.36680 0.00149 0.44038
 H61 H 0.43632 0.02241 0.64228
 H62 H 0.35515 0.01973 0.56049
 H63 H 0.64601 -0.01591 0.43868
 H64 H 0.56477 -0.02301 0.35779
 H65 H 0.65691 0.00940 0.65632
 H66 H 0.34421 -0.00495 0.34333
 O67 O 0.46006 -0.00496 -0.09612
 O68 O 0.43465 -0.01539 0.06763
 O69 O 0.43863 0.07409 -0.01415
 O70 O 0.46181 -0.09246 -0.01242
 O71 O 0.56146 -0.07832 0.01253
 O72 O 0.53834 0.08770 0.00932
 O73 O 0.53410 -0.00086 0.09231
 O74 O 0.55981 0.00805 -0.07206
 Cu75 Cu 0.43881 -0.01078 -0.01637
 Cu76 Cu 0.55834 0.00594 0.01291
 C77 C 0.51430 0.00106 -0.11201
 C78 C 0.48001 -0.01041 0.10793
 C79 C 0.48457 0.10918 -0.00125
 C80 C 0.51568 -0.11348 0.00004
 O81 O -0.08288 0.56052 0.97321
 O82 O 0.08514 0.54162 0.99697
 O83 O 0.00320 0.54157 0.90309
 O84 O -0.00111 0.56383 1.06790
 O85 O -0.01374 0.46456 1.08478
 O86 O -0.01246 0.44247 0.91941
 O87 O 0.07146 0.44233 1.01302
 O88 O -0.09631 0.46149 0.99153
 Cu89 Cu 0.00263 0.56191 0.98394
 Cu90 Cu -0.01371 0.44267 1.00400
 C91 C -0.11817 0.51413 0.97758
 C92 C 0.10687 0.48856 1.00883
 C93 C -0.00513 0.48836 0.88316
 C94 C -0.00909 0.51826 1.10430
 O95 O -0.01830 -0.06727 0.43485
 O96 O -0.00678 0.09778 0.45652
 O97 O 0.06989 0.01368 0.43538
 O98 O -0.09465 0.01673 0.45957
 O99 O -0.07099 0.00115 0.55927
 O100 O 0.09265 -0.00714 0.53458
 O101 O 0.01945 0.07985 0.55565
 O102 O 0.00237 -0.08543 0.53484
 Cu103 Cu -0.01497 0.01693 0.43654
 Cu104 Cu 0.01302 -0.00471 0.55617
 C105 C -0.00981 -0.10426 0.48101
 C106 C 0.00926 0.11686 0.50958
 C107 C 0.10913 0.00174 0.48085
 C108 C -0.11073 0.01087 0.51378
 C109 C -0.22132 0.49273 1.01068
 C110 C -0.28457 0.50104 1.00685
 C111 C -0.31480 0.53783 0.95938
 C112 C -0.27972 0.56458 0.91326
 C113 C -0.21501 0.55613 0.91740
 C114 C -0.18561 0.52138 0.96775
 C115 C -0.18227 0.58106 0.86960
 N116 N -0.21237 0.61244 0.82136
 N117 N -0.27299 0.62007 0.81724
 C118 C -0.30768 0.59692 0.86113
 H119 H -0.19975 0.46547 1.04907
 H120 H -0.30966 0.48089 1.04328
 H121 H -0.13337 0.57479 0.86911
 H122 H -0.35694 0.60286 0.85411
 C123 C 0.20815 0.50792 0.97058
 C124 C 0.27102 0.49829 0.97133
 C125 C 0.30268 0.46145 1.01784
 C126 C 0.26948 0.43539 1.06578
 C127 C 0.20512 0.44491 1.06458
 C128 C 0.17425 0.48040 1.01566
 C129 C 0.17421 0.42025 1.11378
 N130 N 0.20572 0.38832 1.16077
 N131 N 0.26608 0.37994 1.16233
 C132 C 0.29906 0.40272 1.11690
 H133 H 0.18526 0.53526 0.93292
 H134 H 0.29469 0.51786 0.93362
 H135 H 0.12565 0.42712 1.11628
 H136 H 0.34826 0.39616 1.12195
 C137 C 0.03939 -0.19729 0.45255
 C138 C 0.03950 -0.25948 0.44242
 C139 C -0.01263 -0.29596 0.45051
 C140 C -0.06628 -0.26901 0.46852
 C141 C -0.06600 -0.20581 0.47975
 C142 C -0.01262 -0.17009 0.47160
 C143 C -0.11968 -0.18030 0.49788
 N144 N -0.17029 -0.21602 0.50386
 N145 N -0.17077 -0.27530 0.49278
 C146 C -0.12062 -0.30298 0.47516
 H147 H 0.08024 -0.17015 0.44546
 H148 H 0.08056 -0.27940 0.42799
 H149 H -0.12191 -0.13234 0.50705
 H150 H -0.12372 -0.35116 0.46641
 C151 C -0.03585 0.21925 0.49649
 C152 C -0.03518 0.28155 0.50607
 C153 C 0.01645 0.30963 0.53636
 C154 C 0.06892 0.27437 0.55651
 C155 C 0.06808 0.21074 0.54723
 C156 C 0.01464 0.18306 0.51790
 C157 C 0.12154 0.17734 0.56633
 N158 N 0.17180 0.20596 0.59362
 N159 N 0.17238 0.26564 0.60273
 C160 C 0.12279 0.30084 0.58499
 H161 H -0.07685 0.19881 0.47366
 H162 H -0.07563 0.30803 0.49057
 H163 H 0.12432 0.12906 0.55912
 H164 H 0.12618 0.34921 0.59272
 C165 C 0.56388 0.04323 -0.20185
 C166 C 0.57521 0.04414 -0.26340
 C167 C 0.54759 0.00096 -0.30327
 C168 C 0.51118 -0.04699 -0.27854
 C169 C 0.49923 -0.04753 -0.21581
 C170 C 0.52488 -0.00102 -0.17765
 C171 C 0.46439 -0.09661 -0.19274
 N172 N 0.44360 -0.14190 -0.22976
 N173 N 0.45581 -0.14205 -0.28810
 C174 C 0.48931 -0.09672 -0.31351
 H175 H 0.58489 0.07828 -0.17306
 H176 H 0.60419 0.08043 -0.28053
 H177 H 0.45461 -0.10065 -0.14537
 H178 H 0.49942 -0.10074 -0.36048
 C179 C 0.49598 0.03227 0.21057
 C180 C 0.48668 0.03325 0.27249
 C181 C 0.45333 -0.01350 0.30058
 C182 C 0.42826 -0.06203 0.26492
 C183 C 0.43512 -0.06149 0.20101
 C184 C 0.46983 -0.01390 0.17385
 C185 C 0.40816 -0.10971 0.16704
 N186 N 0.37791 -0.15564 0.19552
 N187 N 0.37279 -0.15682 0.25563
 C188 C 0.39709 -0.11184 0.29130
 H189 H 0.52251 0.06897 0.19079
 H190 H 0.50562 0.07099 0.29884
 H191 H 0.41129 -0.11210 0.11835
 H192 H 0.39234 -0.11587 0.34001
 C193 C 0.53722 -0.20323 -0.05737
 C194 C 0.54554 -0.26556 -0.06221
 C195 C 0.53986 -0.30653 -0.01182
 C196 C 0.52972 -0.28326 0.04587
 C197 C 0.52344 -0.21929 0.05111
 C198 C 0.52537 -0.17964 -0.00151
 C199 C 0.51705 -0.19652 0.10891
 N200 N 0.51570 -0.23524 0.15853
 N201 N 0.52113 -0.29705 0.15334
 C202 C 0.52899 -0.32335 0.09794
 H203 H 0.54033 -0.17306 -0.09756
 H204 H 0.55479 -0.28223 -0.10623
 H205 H 0.51429 -0.14807 0.11520
 H206 H 0.52390 -0.32607 0.14587
 C207 C 0.43650 0.20467 -0.04541
 C208 C 0.42605 0.26721 -0.04579
 C209 C 0.45380 0.30272 0.00094
 C210 C 0.49183 0.27465 0.04976
 C211 C 0.50251 0.21077 0.05051
 C212 C 0.47510 0.17575 0.00165
 C213 C 0.53819 0.18374 0.10111
 N214 N 0.56287 0.21839 0.14689
 N215 N 0.55325 0.28017 0.14526
 C216 C 0.51748 0.31050 0.09769
 H217 H 0.41473 0.17866 -0.08264
 H218 H 0.39623 0.28824 -0.08299
 H219 H 0.54620 0.13531 0.10551
 H220 H 0.54600 0.30962 0.14000
 C221 C -0.19897 -0.02823 0.56676
 C222 C -0.26051 -0.02881 0.57827
 C223 C -0.30220 0.01281 0.54740
 C224 C -0.27950 0.05906 0.50727
 C225 C -0.21656 0.05955 0.49550
 C226 C -0.17645 0.01434 0.52452
 C227 C -0.19542 0.10723 0.45723
 N228 N -0.23459 0.15108 0.43270
 N229 N -0.29328 0.15110 0.44435
 C230 C -0.31687 0.10714 0.48115
 H231 H -0.16884 -0.06241 0.59021
 H232 H -0.27620 -0.06389 0.60986
 H233 H -0.14799 0.11131 0.44758
 H234 H -0.36434 0.11093 0.49044
 C235 C 0.20141 0.04806 0.44009
 C236 C 0.26364 0.04840 0.43083
 C237 C 0.30089 -0.00103 0.45183
 C238 C 0.27459 -0.05254 0.48151
 C239 C 0.21140 -0.05262 0.49162
 C240 C 0.17484 -0.00146 0.47108
 C241 C 0.18662 -0.10499 0.52029
 N242 N 0.22300 -0.15343 0.53779
 N243 N 0.28232 -0.15330 0.52826
 C244 C 0.30929 -0.10471 0.50055
 H245 H 0.17392 0.08728 0.42384
 H246 H 0.28307 0.08767 0.40738
 H247 H 0.13863 -0.10845 0.52830
 H248 H 0.35742 -0.10760 0.49328
 C249 C 0.03094 0.56856 1.19853
 C250 C 0.03153 0.57961 1.26059
 C251 C -0.01054 0.55011 1.29703
 C252 C -0.05712 0.51173 1.26845
 C253 C -0.05759 0.50042 1.20498
 C254 C -0.01212 0.52822 1.17026
 C255 C -0.10562 0.46399 1.17784
 N256 N -0.14986 0.44077 1.21193
 N257 N -0.14996 0.45206 1.27110
 C258 C -0.10566 0.48713 1.30030
 H259 H 0.06531 0.59103 1.17249
 H260 H 0.06670 0.61005 1.28083
 H261 H -0.10963 0.45480 1.12965
 H262 H -0.10954 0.49624 1.34783
 C263 C 0.04578 0.49636 0.78746
 C264 C 0.04763 0.48737 0.72512
 C265 C -0.00329 0.46266 0.69046
 C266 C -0.05742 0.44736 0.71888
 C267 C -0.05908 0.45586 0.78244
 C268 C -0.00660 0.47982 0.81686
 C269 C -0.11395 0.44130 0.80907
 N270 N -0.16333 0.41927 0.77411
 N271 N -0.16165 0.41105 0.71442
 C272 C -0.11049 0.42440 0.68559
 H273 H 0.08603 0.51512 0.81329
 H274 H 0.08924 0.49922 0.70377
 H275 H -0.11837 0.44776 0.85707
 H276 H -0.11199 0.41747 0.63687
   
