data_POSCAR
  _audit_creation_date              2014-09-24
  _audit_creation_method            'ToBaCCo'
  _symmetry_space_group_name_H-M    'P1'
  _symmetry_Int_Tables_number       1
  _symmetry_cell_setting            triclinic
  loop_
  _symmetry_equiv_pos_as_xyz
 x,y,z
_cell_length_a 18.0504
_cell_length_b 18.1473
_cell_length_c 18.1423
_cell_angle_alpha 89.930800
_cell_angle_beta 90.083100
_cell_angle_gamma 90.477700
loop_
  _atom_site_label
  _atom_site_type_symbol
  _atom_site_fract_x
  _atom_site_fract_y
  _atom_site_fract_z
C1 C 0.50961 1.00571 -0.69590
 C2 C 0.44214 1.01469 -0.65819
 C3 C 0.44181 1.00754 -0.58122
 C4 C 0.50610 0.98882 -0.54143
 C5 C 0.57150 0.97497 -0.58145
 C6 C 0.57462 0.98548 -0.65812
 C7 C 0.50558 0.98841 -0.45860
 C8 C 0.57186 0.99622 -0.41781
 C9 C 0.57124 0.99661 -0.34062
 C10 C 0.50351 0.99668 -0.30310
 C11 C 0.43685 0.99210 -0.34246
 C12 C 0.43837 0.98365 -0.41907
 H13 H 0.51104 1.01076 -0.75545
 H14 H 0.39129 1.02141 -0.55286
 H15 H 0.62176 0.95949 -0.55331
 H16 H 0.62490 1.00236 -0.44464
 H17 H 0.50267 1.00010 -0.24346
 H18 H 0.38608 0.97432 -0.44663
 C19 C -0.69307 1.51521 -0.01299
 C20 C -0.65795 1.44640 -0.01578
 C21 C -0.58056 1.44390 -0.01057
 C22 C -0.53660 1.50858 -0.00860
 C23 C -0.57369 1.57682 -0.00882
 C24 C -0.65124 1.58079 -0.00785
 C25 C -0.45325 1.50451 -0.00400
 C26 C -0.40917 1.56808 0.00828
 C27 C -0.33199 1.56394 0.01180
 C28 C -0.29766 1.49511 0.01144
 C29 C -0.33983 1.43088 0.00063
 C30 C -0.41609 1.43669 -0.01197
 H31 H -0.75308 1.51770 -0.01430
 H32 H -0.55643 1.39009 -0.00504
 H33 H -0.54387 1.62839 -0.01115
 H34 H -0.43259 1.62221 0.01298
 H35 H -0.23793 1.49197 0.01663
 H36 H -0.44474 1.38687 -0.02778
 C37 C -0.00849 0.30864 0.50429
 C38 C -0.01537 0.34611 0.43655
 C39 C -0.02782 0.42246 0.43825
 C40 C -0.01935 0.46359 0.50360
 C41 C -0.00989 0.42445 0.57013
 C42 C -0.00688 0.34753 0.57091
 C43 C -0.01368 0.54625 0.50135
 C44 C -0.01702 0.58820 0.56661
 C45 C 0.00411 0.66294 0.56809
 C46 C 0.01637 0.69897 0.50004
 C47 C 0.01317 0.65988 0.43357
 C48 C 0.00120 0.58381 0.43477
 H49 H -0.00109 0.24947 0.50576
 H50 H -0.04321 0.44926 0.38740
 H51 H -0.00351 0.45235 0.62225
 H52 H -0.03626 0.56344 0.61727
 H53 H 0.03039 0.75709 0.49817
 H54 H 0.00546 0.55515 0.38290
 O55 O -0.18608 0.99906 -0.09150
 O56 O 0.19579 1.00835 -0.09828
 O57 O -0.00220 1.10383 -0.18610
 O58 O 0.00968 0.90790 -0.18642
 O59 O 0.01252 0.81667 -0.09889
 O60 O -0.00336 1.19442 -0.09684
 O61 O 0.10457 1.00551 -0.18758
 O62 O -0.09808 1.00363 -0.18376
 Zr63 Zr 0.00449 1.00545 -0.12598
 O64 O 0.07553 0.94180 -0.06470
 O65 O -0.06406 1.06852 -0.06191
 C66 C -0.16604 1.00175 -0.15988
 C67 C 0.17329 1.00530 -0.16586
 C68 C -0.00426 1.17180 -0.16487
 C69 C 0.01156 0.83933 -0.16704
 H70 H 0.09967 1.10685 -0.09703
 O71 O 0.06989 1.07472 -0.06428
 H72 H -0.08954 0.90338 -0.09319
 O73 O -0.05841 0.93572 -0.06203
 O74 O 0.19988 1.02073 0.09808
 O75 O -0.18153 0.99424 0.10575
 O76 O 0.09835 1.19948 0.00356
 O77 O 0.11337 0.82068 -0.00274
 O78 O -0.08372 0.81035 0.00642
 O79 O -0.09975 1.18913 -0.00014
 O80 O 0.00579 1.10328 0.19337
 O81 O 0.01684 0.90542 0.19308
 O82 O -0.00231 1.19367 0.10477
 O83 O 0.01584 0.81523 0.10324
 O84 O 0.19311 1.11520 -0.00269
 O85 O -0.18736 1.09617 0.00033
 O86 O -0.17888 0.89461 0.00839
 O87 O 0.20152 0.91358 -0.00223
 O88 O 0.11264 1.01654 0.19084
 O89 O -0.09019 0.99591 0.19517
 Zr90 Zr 0.13733 1.01155 0.00104
 Zr91 Zr -0.12326 0.99845 0.00580
 Zr92 Zr 0.00173 1.13436 0.00371
 Zr93 Zr 0.01230 0.87569 0.00296
 Zr94 Zr 0.00990 1.00470 0.13339
 O95 O -0.05608 0.93458 0.07169
 O96 O 0.07301 1.07533 0.06947
 C97 C 0.18030 1.02384 0.16659
 C98 C -0.15903 0.99309 0.17355
 C99 C 0.16763 1.18210 -0.00109
 C100 C 0.18102 0.84462 -0.00430
 C101 C -0.15296 0.82791 0.00746
 C102 C -0.16747 1.16518 -0.00225
 C103 C -0.00026 1.17145 0.17295
 C104 C 0.01813 0.83743 0.17134
 H105 H -0.09470 1.09720 0.10213
 O106 O -0.06128 1.06763 0.07106
 H107 H 0.11265 0.91294 0.09924
 O108 O 0.07823 0.94196 0.06859
 C109 C 0.24632 0.98968 0.28184
 C110 C 0.31138 0.98638 0.32329
 C111 C 0.37485 1.02804 0.30374
 C112 C 0.36812 1.08111 0.24636
 C113 C 0.30110 1.08522 0.20544
 C114 C 0.24189 1.03522 0.21997
 C115 C 0.29397 1.14181 0.15305
 N116 N 0.35052 1.18988 0.14108
 N117 N 0.41340 1.18610 0.17917
 C118 C 0.42382 1.13419 0.23186
 H119 H 0.20060 0.95344 0.29587
 H120 H 0.31357 0.94661 0.36783
 H121 H 0.24265 1.15027 0.12418
 H122 H 0.47447 1.13689 0.26352
 C123 C -0.26837 1.05041 0.22744
 C124 C -0.33641 1.04611 0.26297
 C125 C -0.35661 0.98381 0.30457
 C126 C -0.30553 0.92430 0.30961
 C127 C -0.23663 0.92855 0.27146
 C128 C -0.21898 0.99163 0.22892
 C129 C -0.18876 0.86808 0.27478
 N130 N -0.20878 0.80688 0.31300
 N131 N -0.27384 0.80184 0.34717
 C132 C -0.32306 0.85791 0.34623
 H133 H -0.25453 1.09973 0.19681
 H134 H -0.37285 1.09319 0.25957
 H135 H -0.13573 0.86901 0.24728
 H136 H -0.37599 0.84912 0.37263
 C137 C -0.27653 1.06006 -0.21288
 C138 C -0.34108 1.05812 -0.25502
 C139 C -0.35806 0.99698 -0.29913
 C140 C -0.30849 0.93668 -0.30119
 C141 C -0.24280 0.93880 -0.25820
 C142 C -0.22698 1.00107 -0.21385
 C143 C -0.19665 0.87685 -0.25854
 N144 N -0.21455 0.81737 -0.30025
 N145 N -0.27602 0.81536 -0.34085
 C146 C -0.32377 0.87264 -0.34245
 H147 H -0.26585 1.10736 -0.17788
 H148 H -0.37860 1.10436 -0.25259
 H149 H -0.14697 0.87495 -0.22552
 H150 H -0.37354 0.86696 -0.37517
 C151 C 0.28198 0.94139 -0.21348
 C152 C 0.34708 0.93915 -0.25422
 C153 C 0.36504 0.99585 -0.30344
 C154 C 0.31532 1.05548 -0.31292
 C155 C 0.24863 1.05745 -0.27157
 C156 C 0.23267 1.00020 -0.22092
 C157 C 0.20187 1.11852 -0.28001
 N158 N 0.22074 1.17357 -0.32714
 N159 N 0.28335 1.17192 -0.36580
 C160 C 0.33137 1.11508 -0.36012
 H161 H 0.27097 0.89779 -0.17396
 H162 H 0.38448 0.89340 -0.24634
 H163 H 0.15086 1.12334 -0.24935
 H164 H 0.38191 1.11760 -0.39191
 C165 C 0.20810 1.30344 0.04361
 C166 C 0.24597 1.36998 0.03711
 C167 C 0.30057 1.38004 -0.01683
 C168 C 0.31475 1.32131 -0.06714
 C169 C 0.27391 1.25397 -0.06161
 C170 C 0.22001 1.24531 -0.00537
 C171 C 0.28613 1.19915 -0.11496
 N172 N 0.33591 1.21078 -0.16965
 N173 N 0.37354 1.27386 -0.17542
 C174 C 0.36425 1.32957 -0.12669
 H175 H 0.16868 1.29703 0.08769
 H176 H 0.23477 1.41281 0.07709
 H177 H 0.25599 1.14766 -0.11489
 H178 H 0.39425 1.38039 -0.13639
 C179 C 0.22564 0.73279 -0.06362
 C180 C 0.26166 0.66556 -0.06139
 C181 C 0.31353 0.65000 -0.00606
 C182 C 0.32884 0.70487 0.04856
 C183 C 0.29011 0.77299 0.04699
 C184 C 0.23709 0.78604 -0.00898
 C185 C 0.30305 0.82413 0.10391
 N186 N 0.35137 0.80815 0.15874
 N187 N 0.38667 0.74411 0.16119
 C188 C 0.37660 0.69184 0.10870
 H189 H 0.18598 0.74253 -0.10723
 H190 H 0.24977 0.62574 -0.10441
 H191 H 0.27507 0.87644 0.10585
 H192 H 0.40468 0.64004 0.11589
 C193 C -0.24911 0.74826 0.06439
 C194 C -0.28997 0.68262 0.06659
 C195 C -0.28738 0.63253 0.00780
 C196 C -0.24573 0.65047 -0.05599
 C197 C -0.20424 0.71690 -0.05811
 C198 C -0.20508 0.76533 0.00318
 C199 C -0.16360 0.73327 -0.12232
 N200 N -0.16472 0.68612 -0.18018
 N201 N -0.20418 0.62388 -0.17843
 C202 C -0.24496 0.60461 -0.11865
 H203 H -0.24969 0.78458 0.11176
 H204 H -0.32281 0.67008 0.11501
 H205 H -0.13200 0.78360 -0.12753
 H206 H -0.27680 0.55400 -0.12120
 C207 C -0.20488 1.28420 -0.05384
 C208 C -0.24403 1.34959 -0.05099
 C209 C -0.30344 1.35778 -0.00245
 C210 C -0.32664 1.29647 0.04101
 C211 C -0.28851 1.22829 0.03556
 C212 C -0.22405 1.22382 -0.00904
 C213 C -0.31532 1.16818 0.07691
 N214 N -0.37392 1.17663 0.12267
 N215 N -0.40716 1.24126 0.13061
 C216 C -0.38517 1.30150 0.09201
 H217 H -0.15696 1.28174 -0.08970
 H218 H -0.22648 1.39502 -0.08584
 H219 H -0.29142 1.11424 0.07321
 H220 H -0.41338 1.35264 0.10239
 C221 C -0.04406 1.19818 0.29828
 C222 C -0.04554 1.23836 0.36316
 C223 C -0.01110 1.30773 0.36844
 C224 C 0.02545 1.33664 0.30439
 C225 C 0.02197 1.29751 0.23624
 C226 C -0.00916 1.22525 0.23452
 C227 C 0.05248 1.33160 0.17338
 N228 N 0.09030 1.39607 0.17954
 N229 N 0.10039 1.42864 0.24438
 C230 C 0.07050 1.40064 0.30692
 H231 H -0.07058 1.14436 0.29834
 H232 H -0.07561 1.21491 0.40932
 H233 H 0.04668 1.30887 0.11909
 H234 H 0.08413 1.42800 0.35797
 C235 C -0.06438 1.22028 -0.27570
 C236 C -0.06341 1.26031 -0.34105
 C237 C -0.00396 1.30734 -0.35802
 C238 C 0.05539 1.31507 -0.30709
 C239 C 0.05400 1.27465 -0.23999
 C240 C -0.00624 1.22639 -0.22488
 C241 C 0.11474 1.28163 -0.19180
 N242 N 0.17251 1.32639 -0.20963
 N243 N 0.17403 1.36397 -0.27269
 C244 C 0.11778 1.35956 -0.32215
 H245 H -0.11011 1.18251 -0.26552
 H246 H -0.10922 1.25395 -0.37925
 H247 H 0.11715 1.25170 -0.14045
 H248 H 0.12297 1.39008 -0.37309
 C249 C -0.01730 0.81446 -0.29756
 C250 C -0.01799 0.77378 -0.36183
 C251 C 0.00924 0.70189 -0.36399
 C252 C 0.03885 0.67139 -0.29726
 C253 C 0.03518 0.71186 -0.22960
 C254 C 0.00894 0.78585 -0.23029
 C255 C 0.06072 0.67699 -0.16498
 N256 N 0.09284 0.60991 -0.16857
 N257 N 0.10202 0.57518 -0.23229
 C258 C 0.07735 0.60398 -0.29655
 H259 H -0.03855 0.86994 -0.30143
 H260 H -0.04269 0.79897 -0.41002
 H261 H 0.05665 0.70128 -0.11131
 H262 H 0.09017 0.57447 -0.34646
 C263 C -0.03883 0.74099 0.24945
 C264 C -0.04053 0.70008 0.31459
 C265 C 0.02103 0.69859 0.36191
 C266 C 0.08742 0.73454 0.34023
 C267 C 0.08903 0.77620 0.27405
 C268 C 0.02430 0.78180 0.23022
 C269 C 0.15600 0.81039 0.25339
 N270 N 0.21708 0.80289 0.29631
 N271 N 0.21552 0.76395 0.35857
 C272 C 0.15282 0.72962 0.38206
 H273 H -0.08837 0.74384 0.21581
 H274 H -0.09131 0.67164 0.32968
 H275 H 0.16060 0.84205 0.20308
 H276 H 0.15500 0.69793 0.43252
   
