data_POSCAR
  _audit_creation_date              2014-09-24
  _audit_creation_method            'ToBaCCo'
  _symmetry_space_group_name_H-M    'P1'
  _symmetry_Int_Tables_number       1
  _symmetry_cell_setting            triclinic
  loop_
  _symmetry_equiv_pos_as_xyz
 x,y,z
_cell_length_a 20.4468
_cell_length_b 20.4890
_cell_length_c 17.3937
_cell_angle_alpha 89.911300
_cell_angle_beta 90.203900
_cell_angle_gamma 90.041200
loop_
  _atom_site_label
  _atom_site_type_symbol
  _atom_site_fract_x
  _atom_site_fract_y
  _atom_site_fract_z
C1 C 0.31028 -0.09301 0.26421
 C2 C 0.33552 -0.03075 0.24378
 C3 C 0.39458 -0.02767 0.20462
 C4 C 0.43263 -0.08144 0.18154
 C5 C 0.40953 -0.14227 0.20819
 C6 C 0.34387 -0.15082 0.24178
 C7 C 0.32055 0.03199 0.28419
 C8 C 0.36509 0.03731 0.34312
 C9 C 0.42174 0.07953 0.33710
 C10 C 0.40774 0.13769 0.29636
 C11 C 0.34317 0.14826 0.26281
 C12 C 0.30611 0.09127 0.24541
 H13 H 0.26378 -0.09625 0.29354
 H14 H 0.41346 0.02114 0.19829
 H15 H 0.36057 -0.00290 0.38295
 H16 H 0.26356 0.09405 0.20839
 H17 H 0.43807 -0.18390 0.19018
 H18 H 0.44138 0.17787 0.30467
 C19 C 0.19235 -0.09170 0.74352
 C20 C 0.17715 -0.03280 0.78279
 C21 C 0.13426 -0.04015 0.84247
 C22 C 0.07767 -0.08199 0.83448
 C23 C 0.09181 -0.13969 0.79372
 C24 C 0.15661 -0.14959 0.76160
 C25 C 0.15873 0.03020 0.74411
 C26 C 0.09706 0.02802 0.71016
 C27 C 0.06052 0.08165 0.68169
 C28 C 0.08540 0.14255 0.70647
 C29 C 0.15098 0.14971 0.74116
 C30 C 0.18500 0.09203 0.76262
 H31 H 0.23503 -0.09370 0.70703
 H32 H 0.13848 -0.00053 0.88295
 H33 H 0.07635 -0.02024 0.70802
 H34 H 0.23252 0.09523 0.79002
 H35 H 0.05819 -0.17995 0.80137
 H36 H 0.05840 0.18501 0.68755
 C37 C 0.69004 0.40754 0.23605
 C38 C 0.66427 0.46957 0.25558
 C39 C 0.60459 0.47200 0.29347
 C40 C 0.56710 0.41798 0.31759
 C41 C 0.59093 0.35726 0.29187
 C42 C 0.65639 0.34972 0.25831
 C43 C 0.67941 0.53253 0.21518
 C44 C 0.63399 0.53854 0.15719
 C45 C 0.57797 0.58109 0.16486
 C46 C 0.59295 0.63880 0.20557
 C47 C 0.65823 0.64903 0.23717
 C48 C 0.69509 0.59164 0.25370
 H49 H 0.73681 0.40434 0.20736
 H50 H 0.58496 0.52054 0.29859
 H51 H 0.63717 0.49844 0.11727
 H52 H 0.73845 0.59404 0.28943
 H53 H 0.56323 0.31504 0.31001
 H54 H 0.55925 0.67900 0.19814
 C55 C 0.80522 0.40839 0.75659
 C56 C 0.82018 0.46716 0.71711
 C57 C 0.86462 0.46073 0.65870
 C58 C 0.92114 0.41894 0.66732
 C59 C 0.90717 0.36158 0.70880
 C60 C 0.84233 0.35126 0.74061
 C61 C 0.83687 0.52981 0.75670
 C62 C 0.89652 0.52687 0.79513
 C63 C 0.93445 0.58068 0.82053
 C64 C 0.91158 0.64128 0.79284
 C65 C 0.84656 0.64899 0.75728
 C66 C 0.81223 0.59169 0.73560
 H67 H 0.76207 0.40594 0.79230
 H68 H 0.86071 0.50033 0.61798
 H69 H 0.91529 0.47796 0.80058
 H70 H 0.76568 0.59524 0.70606
 H71 H 0.94105 0.32155 0.70166
 H72 H 0.93931 0.68357 0.81087
 C73 C 0.22192 0.35232 1.10249
 C74 C 0.26291 0.36023 1.03880
 C75 C 0.31907 0.39642 1.04702
 C76 C 0.32532 0.44830 1.10031
 C77 C 0.28228 0.43960 1.16410
 C78 C 0.23930 0.38201 1.17192
 C79 C 0.23675 0.36436 0.96079
 C80 C 0.18140 0.40213 0.95612
 C81 C 0.17228 0.45196 0.90111
 C82 C 0.20977 0.44108 0.83401
 C83 C 0.25633 0.38648 0.82685
 C84 C 0.27648 0.35790 0.89592
 H85 H 0.18174 0.31783 1.09969
 H86 H 0.35543 0.38588 1.00444
 H87 H 0.14606 0.39204 1.00000
 H88 H 0.31706 0.32389 0.89712
 H89 H 0.29378 0.46596 1.21370
 H90 H 0.18793 0.46141 0.78470
 C91 C 0.78095 0.14550 1.10557
 C92 C 0.73976 0.13782 1.04164
 C93 C 0.68395 0.10049 1.04842
 C94 C 0.67639 0.05028 1.10333
 C95 C 0.71972 0.05924 1.16735
 C96 C 0.76318 0.11628 1.17527
 C97 C 0.76446 0.14010 0.96301
 C98 C 0.82063 0.10396 0.95393
 C99 C 0.82611 0.05189 0.90055
 C100 C 0.78043 0.05879 0.83872
 C101 C 0.73713 0.11582 0.83153
 C102 C 0.72193 0.14694 0.90039
 H103 H 0.82093 0.18021 1.10310
 H104 H 0.64809 0.10943 1.00449
 H105 H 0.85767 0.11452 0.99604
 H106 H 0.68206 0.18168 0.90319
 H107 H 0.71018 0.03281 1.21706
 H108 H 0.78765 0.02986 0.78997
 C109 C 0.27731 0.64565 0.60255
 C110 C 0.23608 0.63801 0.53886
 C111 C 0.18013 0.60122 0.54640
 C112 C 0.17321 0.55028 0.60099
 C113 C 0.21691 0.55862 0.66446
 C114 C 0.26094 0.61502 0.67147
 C115 C 0.26187 0.63691 0.46077
 C116 C 0.31812 0.60053 0.45471
 C117 C 0.32635 0.55046 0.39996
 C118 C 0.28653 0.56027 0.33399
 C119 C 0.24062 0.61540 0.32708
 C120 C 0.22136 0.64378 0.39628
 H121 H 0.31718 0.68049 0.60026
 H122 H 0.14393 0.61118 0.50310
 H123 H 0.35406 0.61075 0.49818
 H124 H 0.18064 0.67759 0.39797
 H125 H 0.20679 0.53227 0.71429
 H126 H 0.30544 0.53863 0.28412
 C127 C 0.72326 0.85752 0.60049
 C128 C 0.76422 0.86302 0.53650
 C129 C 0.82163 0.89697 0.54407
 C130 C 0.82962 0.94934 0.59652
 C131 C 0.78903 0.94144 0.66206
 C132 C 0.74248 0.88647 0.66950
 C133 C 0.73805 0.86682 0.45845
 C134 C 0.68226 0.90371 0.45361
 C135 C 0.67218 0.95348 0.39867
 C136 C 0.70930 0.94249 0.33147
 C137 C 0.75707 0.88858 0.32446
 C138 C 0.77764 0.86045 0.39350
 H139 H 0.68187 0.82446 0.59860
 H140 H 0.85776 0.88442 0.50183
 H141 H 0.64693 0.89244 0.49705
 H142 H 0.81849 0.82677 0.39466
 H143 H 0.80770 0.96474 0.71143
 H144 H 0.68526 0.96112 0.28257
 C145 C -0.07935 0.21819 0.31792
 C146 C -0.01814 0.21677 0.35023
 C147 C -0.00422 0.18062 0.41713
 C148 C -0.05241 0.16313 0.47202
 C149 C -0.11782 0.17812 0.44177
 C150 C -0.13141 0.19905 0.36194
 C151 C 0.01620 0.27733 0.34840
 C152 C 0.00245 0.31580 0.41311
 C153 C 0.05090 0.33364 0.46716
 C154 C 0.11609 0.32057 0.43680
 C155 C 0.12896 0.29864 0.35778
 C156 C 0.07713 0.27599 0.31551
 H157 H -0.08686 0.24326 0.26357
 H158 H 0.04654 0.17186 0.42593
 H159 H -0.04825 0.32276 0.42359
 H160 H 0.08513 0.24885 0.26288
 H161 H -0.15876 0.16569 0.47758
 H162 H 0.15712 0.33412 0.47206
 C163 C -0.08052 0.77719 0.18518
 C164 C -0.01894 0.77892 0.15379
 C165 C -0.00441 0.81782 0.08955
 C166 C -0.05204 0.83427 0.03385
 C167 C -0.11756 0.82026 0.06213
 C168 C -0.13201 0.79901 0.14124
 C169 C 0.01488 0.71806 0.15108
 C170 C 0.00074 0.68304 0.08341
 C171 C 0.04879 0.66649 0.02777
 C172 C 0.11445 0.68225 0.05788
 C173 C 0.12813 0.70217 0.13767
 C174 C 0.07630 0.71908 0.18293
 H175 H -0.08885 0.75032 0.23806
 H176 H 0.04640 0.82591 0.08026
 H177 H -0.05008 0.67433 0.07471
 H178 H 0.08435 0.74308 0.23772
 H179 H -0.15770 0.83317 0.02503
 H180 H 0.15582 0.67113 0.02248
 C181 C 0.42096 0.28046 0.68442
 C182 C 0.48233 0.28162 0.65275
 C183 C 0.49629 0.31763 0.58581
 C184 C 0.44787 0.33381 0.53081
 C185 C 0.38246 0.31964 0.56016
 C186 C 0.36912 0.29893 0.63941
 C187 C 0.51588 0.22064 0.65430
 C188 C 0.50132 0.18273 0.58920
 C189 C 0.54884 0.16682 0.53342
 C190 C 0.61465 0.18178 0.56198
 C191 C 0.62880 0.20270 0.64105
 C192 C 0.57747 0.22237 0.68568
 H193 H 0.41288 0.25559 0.73868
 H194 H 0.54699 0.32566 0.57506
 H195 H 0.45055 0.17450 0.57989
 H196 H 0.58604 0.24817 0.73920
 H197 H 0.34139 0.33217 0.52437
 H198 H 0.65537 0.16997 0.52572
 C199 C 0.42178 0.72071 0.81701
 C200 C 0.48300 0.71953 0.84888
 C201 C 0.49740 0.68208 0.91460
 C202 C 0.44964 0.66455 0.96997
 C203 C 0.38421 0.68028 0.94084
 C204 C 0.37052 0.70107 0.86158
 C205 C 0.51666 0.78049 0.84853
 C206 C 0.50337 0.81737 0.91479
 C207 C 0.55215 0.83356 0.96927
 C208 C 0.61727 0.81924 0.93885
 C209 C 0.62990 0.79848 0.85935
 C210 C 0.57758 0.77925 0.81567
 H211 H 0.41334 0.74626 0.76320
 H212 H 0.54817 0.67407 0.92262
 H213 H 0.45281 0.82584 0.92542
 H214 H 0.58504 0.75383 0.76175
 H215 H 0.34316 0.66829 0.97652
 H216 H 0.65864 0.83112 0.97416
 C217 C 0.65786 0.56008 -0.01600
 C218 C 0.72019 0.58413 0.00579
 C219 C 0.72345 0.64274 0.04576
 C220 C 0.66971 0.68194 0.06724
 C221 C 0.60892 0.65954 0.03966
 C222 C 0.60051 0.59454 0.00552
 C223 C 0.78287 0.56932 -0.03482
 C224 C 0.78830 0.61507 -0.09234
 C225 C 0.83062 0.67120 -0.08416
 C226 C 0.88818 0.65675 -0.04279
 C227 C 0.89939 0.59140 -0.01172
 C228 C 0.84219 0.55390 0.00385
 H229 H 0.65404 0.51389 -0.04581
 H230 H 0.77263 0.66040 0.05328
 H231 H 0.74809 0.61180 -0.13248
 H232 H 0.84475 0.51052 0.03932
 H233 H 0.56694 0.68787 0.05709
 H234 H 0.92776 0.69125 -0.04989
 C235 C 0.65988 0.44418 0.50452
 C236 C 0.71895 0.42869 0.46596
 C237 C 0.71278 0.38314 0.40860
 C238 C 0.67050 0.32699 0.41739
 C239 C 0.61258 0.34196 0.45763
 C240 C 0.60244 0.40711 0.48851
 C241 C 0.78198 0.41346 0.50640
 C242 C 0.77905 0.35448 0.54588
 C243 C 0.83282 0.31620 0.56975
 C244 C 0.89359 0.33904 0.54250
 C245 C 0.90197 0.40452 0.50807
 C246 C 0.84417 0.43825 0.48548
 H247 H 0.65749 0.48759 0.53973
 H248 H 0.75271 0.38630 0.36839
 H249 H 0.73010 0.33591 0.55186
 H250 H 0.84741 0.48458 0.45571
 H251 H 0.57226 0.30829 0.45054
 H252 H 0.93542 0.31062 0.56071
 C253 C 0.15586 0.93959 0.01490
 C254 C 0.21821 0.91530 -0.00672
 C255 C 0.22110 0.85597 -0.04527
 C256 C 0.16743 0.81668 -0.06716
 C257 C 0.10646 0.83947 -0.03964
 C258 C 0.09785 0.90534 -0.00653
 C259 C 0.28179 0.93142 0.03267
 C260 C 0.28822 0.88665 0.09090
 C261 C 0.32994 0.83019 0.08232
 C262 C 0.38764 0.84414 0.04152
 C263 C 0.39847 0.90894 0.01006
 C264 C 0.34109 0.94628 -0.00638
 H265 H 0.15260 0.98616 0.04393
 H266 H 0.27014 0.83798 -0.05185
 H267 H 0.24858 0.89030 0.13142
 H268 H 0.34382 0.98958 -0.04189
 H269 H 0.06457 0.81071 -0.05689
 H270 H 0.42750 0.81004 0.04911
 C271 C 0.15528 0.05344 0.49602
 C272 C 0.21484 0.06927 0.53382
 C273 C 0.20972 0.11483 0.59123
 C274 C 0.16746 0.17079 0.58277
 C275 C 0.10911 0.15574 0.54313
 C276 C 0.09800 0.09027 0.51293
 C277 C 0.27738 0.08419 0.49299
 C278 C 0.27449 0.14299 0.45293
 C279 C 0.32861 0.18230 0.43213
 C280 C 0.38893 0.16010 0.46132
 C281 C 0.39694 0.09487 0.49520
 C282 C 0.33944 0.06018 0.51556
 H283 H 0.15266 0.01018 0.46051
 H284 H 0.25017 0.11175 0.63107
 H285 H 0.22536 0.16070 0.44469
 H286 H 0.34299 0.01381 0.54517
 H287 H 0.06928 0.18985 0.55046
 H288 H 0.43097 0.18881 0.44482
 C289 C 0.10476 0.47381 0.14584
 C290 C 0.11209 0.51411 0.21017
 C291 C 0.14872 0.57013 0.20385
 C292 C 0.19910 0.57840 0.14917
 C293 C 0.18918 0.53833 0.08382
 C294 C 0.13270 0.49330 0.07640
 C295 C 0.11209 0.48782 0.28807
 C296 C 0.14865 0.43182 0.29415
 C297 C 0.19938 0.42389 0.34845
 C298 C 0.19006 0.46356 0.41432
 C299 C 0.13478 0.50905 0.42165
 C300 C 0.10541 0.52803 0.35258
 H301 H 0.07075 0.43322 0.14799
 H302 H 0.13839 0.60580 0.24726
 H303 H 0.13838 0.39605 0.25071
 H304 H 0.07134 0.56852 0.35094
 H305 H 0.21122 0.55802 0.03453
 H306 H 0.21215 0.44495 0.46407
 C307 C 0.89732 0.03011 0.14568
 C308 C 0.88983 -0.01164 0.20878
 C309 C 0.85256 -0.06735 0.20081
 C310 C 0.80171 -0.07407 0.14598
 C311 C 0.80997 -0.02940 0.08326
 C312 C 0.86778 0.01311 0.07593
 C313 C 0.89140 0.01261 0.28759
 C314 C 0.85455 0.06821 0.29690
 C315 C 0.80251 0.07347 0.35053
 C316 C 0.80972 0.02743 0.41171
 C317 C 0.86750 -0.01497 0.41861
 C318 C 0.89889 -0.02978 0.34991
 H319 H 0.93220 0.06991 0.14871
 H320 H 0.86184 -0.10353 0.24416
 H321 H 0.86518 0.10533 0.25515
 H322 H 0.93417 -0.06915 0.34702
 H323 H 0.78151 -0.03601 0.03399
 H324 H 0.78055 0.03349 0.46066
 C325 C 0.39533 0.52692 0.64797
 C326 C 0.38736 0.48605 0.71162
 C327 C 0.34980 0.43066 0.70427
 C328 C 0.29949 0.42324 0.64875
 C329 C 0.30933 0.46525 0.58464
 C330 C 0.36572 0.50960 0.57867
 C331 C 0.38876 0.51117 0.79004
 C332 C 0.35300 0.56776 0.79783
 C333 C 0.30167 0.57445 0.85144
 C334 C 0.30878 0.53010 0.91442
 C335 C 0.36583 0.48678 0.92293
 C336 C 0.39532 0.46933 0.85348
 H337 H 0.43028 0.56667 0.65046
 H338 H 0.35960 0.39457 0.74755
 H339 H 0.36297 0.60405 0.75482
 H340 H 0.42943 0.42891 0.85092
 H341 H 0.28551 0.45140 0.53411
 H342 H 0.28150 0.53999 0.96348
 C343 C 0.60662 -0.02788 0.64554
 C344 C 0.61334 0.01215 0.71067
 C345 C 0.64782 0.06911 0.70379
 C346 C 0.69887 0.07714 0.65036
 C347 C 0.68966 0.03839 0.58361
 C348 C 0.63394 -0.00721 0.57563
 C349 C 0.61677 -0.01405 0.78898
 C350 C 0.65301 -0.07003 0.79385
 C351 C 0.70383 -0.08049 0.84840
 C352 C 0.69328 -0.04330 0.91600
 C353 C 0.63939 0.00473 0.92323
 C354 C 0.61110 0.02545 0.85419
 H355 H 0.57359 -0.06926 0.64744
 H356 H 0.63683 0.10480 0.74698
 H357 H 0.64059 -0.10499 0.75020
 H358 H 0.57775 0.06656 0.85324
 H359 H 0.71248 0.05845 0.53449
 H360 H 0.71300 -0.06656 0.96513
 C361 C -0.02957 0.17206 0.93327
 C362 C -0.03194 0.23326 0.90152
 C363 C -0.06879 0.24677 0.83496
 C364 C -0.08540 0.19857 0.77970
 C365 C -0.06948 0.13333 0.80937
 C366 C -0.04820 0.12023 0.88882
 C367 C 0.02857 0.26784 0.90229
 C368 C 0.06608 0.25407 0.83679
 C369 C 0.08292 0.30222 0.78226
 C370 C 0.06942 0.36752 0.81239
 C371 C 0.04808 0.38071 0.89171
 C372 C 0.02710 0.32885 0.93483
 H373 H -0.00422 0.16429 0.98742
 H374 H -0.07802 0.29731 0.82607
 H375 H 0.07278 0.20351 0.82568
 H376 H 0.00074 0.33676 0.98802
 H377 H -0.08152 0.09204 0.77390
 H378 H 0.08192 0.40842 0.77664
 C379 C 0.52910 0.17149 0.06572
 C380 C 0.53115 0.23271 0.09763
 C381 C 0.56992 0.24647 0.16238
 C382 C 0.58594 0.19840 0.21760
 C383 C 0.57138 0.13327 0.18855
 C384 C 0.55029 0.11995 0.10946
 C385 C 0.47040 0.26680 0.10014
 C386 C 0.43487 0.25324 0.16753
 C387 C 0.41727 0.30209 0.22079
 C388 C 0.43071 0.36718 0.18995
 C389 C 0.45116 0.37976 0.11058
 C390 C 0.47093 0.32773 0.06716
 H391 H 0.50236 0.16326 0.01264
 H392 H 0.57822 0.29701 0.17219
 H393 H 0.42823 0.20271 0.17990
 H394 H 0.49578 0.33550 0.01290
 H395 H 0.58386 0.09246 0.22460
 H396 H 0.41767 0.40849 0.22463
 C397 C 0.02872 0.67100 0.56666
 C398 C 0.03053 0.73193 0.59898
 C399 C 0.06763 0.74538 0.66523
 C400 C 0.08369 0.69687 0.71989
 C401 C 0.06935 0.63186 0.69003
 C402 C 0.04802 0.61912 0.61078
 C403 C -0.03028 0.76570 0.59922
 C404 C -0.06732 0.75171 0.66520
 C405 C -0.08450 0.79956 0.72044
 C406 C -0.06836 0.86487 0.69104
 C407 C -0.04698 0.87823 0.61170
 C408 C -0.02853 0.82666 0.56722
 H409 H 0.00304 0.66329 0.51273
 H410 H 0.07602 0.79587 0.67590
 H411 H -0.07477 0.70103 0.67418
 H412 H -0.00328 0.83456 0.51322
 H413 H 0.08226 0.59073 0.72537
 H414 H -0.08003 0.90597 0.72672
 C415 C 0.47302 0.67185 0.43380
 C416 C 0.47160 0.73311 0.40198
 C417 C 0.43332 0.74757 0.33686
 C418 C 0.41584 0.69983 0.28195
 C419 C 0.42991 0.63434 0.31101
 C420 C 0.45184 0.62056 0.38995
 C421 C 0.53259 0.76696 0.40134
 C422 C 0.56877 0.75375 0.33445
 C423 C 0.58485 0.80249 0.28009
 C424 C 0.57072 0.86754 0.31086
 C425 C 0.55005 0.88017 0.39052
 C426 C 0.53148 0.82781 0.43429
 H427 H 0.49964 0.66334 0.48695
 H428 H 0.42593 0.79829 0.32699
 H429 H 0.57657 0.70327 0.32306
 H430 H 0.50635 0.83519 0.48842
 H431 H 0.41704 0.59370 0.27495
 H432 H 0.58229 0.90886 0.27548
 B433 B -0.08411 0.00741 1.00563
 B434 B -0.10732 0.00061 0.91206
 B435 B -0.04429 0.04781 0.92962
 B436 B -0.00046 0.01780 1.00786
 B437 B -0.03615 -0.05259 1.03227
 B438 B -0.10228 -0.06380 0.97073
 B439 B 0.01035 -0.06719 0.88877
 B440 B 0.03074 -0.05680 0.97909
 B441 B -0.03447 -0.10715 0.96463
 B442 B -0.07381 -0.07398 0.88294
 B443 B -0.03746 -0.00432 0.85739
 B444 B 0.02546 0.00924 0.91819
 B445 B 0.41680 0.50713 0.50477
 B446 B 0.39284 0.50090 0.41192
 B447 B 0.45611 0.54782 0.42926
 B448 B 0.50039 0.51703 0.50617
 B449 B 0.46494 0.44685 0.52999
 B450 B 0.39815 0.43618 0.46968
 B451 B 0.50794 0.43269 0.38406
 B452 B 0.53092 0.44307 0.47506
 B453 B 0.46539 0.39235 0.46126
 B454 B 0.42457 0.42683 0.38122
 B455 B 0.46105 0.49655 0.35633
 B456 B 0.52595 0.50856 0.41668
 B457 B 0.58457 0.99571 0.50561
 B458 B 0.60497 1.00216 0.41124
 B459 B 0.54442 0.95290 0.43111
 B460 B 0.50157 0.98232 0.50986
 B461 B 0.53549 1.05407 0.53214
 B462 B 0.59963 1.06685 0.46879
 B463 B 0.48523 1.06570 0.38957
 B464 B 0.46748 1.05550 0.48063
 B465 B 0.53071 1.10807 0.46389
 B466 B 0.56881 1.07549 0.38149
 B467 B 0.53406 1.00417 0.35812
 B468 B 0.47321 0.98903 0.42081
 B469 B 0.08328 0.49590 1.00667
 B470 B 0.10590 0.50133 0.91344
 B471 B 0.04360 0.45353 0.93194
 B472 B -0.00051 0.48453 1.00864
 B473 B 0.03408 0.55527 1.03127
 B474 B 0.10013 0.56647 0.97017
 B475 B -0.01021 0.56764 0.88501
 B476 B -0.03248 0.55805 0.97623
 B477 B 0.03264 0.60963 0.96255
 B478 B 0.07281 0.57494 0.88197
 B479 B 0.03729 0.50430 0.85842
 B480 B -0.02690 0.49180 0.91932
 B481 B 0.08357 0.50641 0.49559
 B482 B 0.10632 0.49958 0.58929
 B483 B 0.04373 0.54691 0.57088
 B484 B 0.00006 0.51699 0.49268
 B485 B 0.03552 0.44665 0.46886
 B486 B 0.10124 0.43537 0.53089
 B487 B -0.01152 0.43259 0.61247
 B488 B -0.03142 0.44261 0.52196
 B489 B 0.03346 0.39216 0.53676
 B490 B 0.07239 0.42533 0.61865
 B491 B 0.03635 0.49515 0.64352
 B492 B -0.02622 0.50880 0.58225
 B493 B 0.58703 0.00542 -0.00349
 B494 B 0.60933 -0.00024 0.09026
 B495 B 0.54665 0.04724 0.07074
 B496 B 0.50326 0.01697 -0.00677
 B497 B 0.53770 -0.05372 -0.02924
 B498 B 0.60341 -0.06523 0.03272
 B499 B 0.49230 -0.06686 0.11568
 B500 B 0.47066 -0.05618 0.02425
 B501 B 0.53518 -0.10800 0.03946
 B502 B 0.57531 -0.07381 0.12045
 B503 B 0.53972 -0.00361 0.14405
 B504 B 0.47594 0.00915 0.08238
 B505 B 0.41399 0.49225 -0.00631
 B506 B 0.39164 0.49972 0.08756
 B507 B 0.45424 0.45215 0.06991
 B508 B 0.49745 0.48130 -0.00850
 B509 B 0.46208 0.55171 -0.03354
 B510 B 0.39651 0.56365 0.02813
 B511 B 0.50994 0.56722 0.10989
 B512 B 0.52944 0.55555 0.01944
 B513 B 0.46480 0.60680 0.03325
 B514 B 0.42575 0.57471 0.11573
 B515 B 0.46184 0.50486 0.14189
 B516 B 0.52409 0.49041 0.08106
 B517 B -0.08218 0.98968 0.49327
 B518 B -0.10774 0.99618 0.58521
 B519 B -0.04328 0.95049 0.57060
 B520 B 0.00151 0.98158 0.49430
 B521 B -0.03492 1.05085 0.46859
 B522 B -0.10301 1.06049 0.52681
 B523 B 0.00585 1.06696 0.61619
 B524 B 0.03025 1.05646 0.52558
 B525 B -0.03661 1.10608 0.53650
 B526 B -0.07805 1.07134 0.61604
 B527 B -0.04075 1.00254 0.64275
 B528 B 0.02545 0.99117 0.58414
 B529 B 0.75893 0.16384 0.24669
 B530 B 0.75132 0.14040 0.34021
 B531 B 0.79942 0.20289 0.32408
 B532 B 0.77071 0.24701 0.24543
 B533 B 0.69977 0.21251 0.21997
 B534 B 0.68717 0.14664 0.28100
 B535 B 0.68468 0.25905 0.36340
 B536 B 0.69640 0.27910 0.27316
 B537 B 0.64473 0.21492 0.28699
 B538 B 0.67662 0.17490 0.36874
 B539 B 0.74654 0.21022 0.39546
 B540 B 0.76171 0.27291 0.33521
 B541 B 0.74363 0.83422 0.74307
 B542 B 0.75023 0.85631 0.83663
 B543 B 0.70258 0.79420 0.81882
 B544 B 0.73229 0.75098 0.74068
 B545 B 0.80285 0.78626 0.71656
 B546 B 0.81458 0.85172 0.77842
 B547 B 0.81749 0.73888 0.86036
 B548 B 0.80665 0.71931 0.76984
 B549 B 0.85783 0.78399 0.78400
 B550 B 0.82503 0.82277 0.86617
 B551 B 0.75488 0.78674 0.89140
 B552 B 0.74081 0.72451 0.83040
 B553 B 0.25497 0.33476 0.75320
 B554 B 0.24861 0.35660 0.65938
 B555 B 0.29623 0.29452 0.67849
 B556 B 0.26621 0.25154 0.75676
 B557 B 0.19556 0.28678 0.77983
 B558 B 0.18398 0.35174 0.71719
 B559 B 0.18172 0.23860 0.63688
 B560 B 0.19194 0.21960 0.72749
 B561 B 0.14096 0.28401 0.71197
 B562 B 0.17429 0.32225 0.62977
 B563 B 0.24454 0.28634 0.60556
 B564 B 0.25824 0.22447 0.66739
 B565 B 0.24250 0.66740 0.25357
 B566 B 0.24917 0.64517 0.16015
 B567 B 0.20129 0.70716 0.17790
 B568 B 0.23140 0.75064 0.25627
 B569 B 0.30220 0.71550 0.28048
 B570 B 0.31372 0.65020 0.21857
 B571 B 0.31594 0.76281 0.13687
 B572 B 0.30585 0.78249 0.22736
 B573 B 0.35673 0.71786 0.21270
 B574 B 0.32358 0.67902 0.13087
 B575 B 0.25320 0.71492 0.10555
 B576 B 0.23940 0.77721 0.16660
 B577 B 0.25780 0.66519 0.74623
 B578 B 0.25126 0.64107 0.83916
 B579 B 0.29797 0.70467 0.82212
 B580 B 0.26734 0.74868 0.74503
 B581 B 0.19720 0.71306 0.72078
 B582 B 0.18659 0.64628 0.78077
 B583 B 0.18248 0.75653 0.86669
 B584 B 0.19316 0.77914 0.77560
 B585 B 0.14255 0.71368 0.78922
 B586 B 0.17693 0.67302 0.86930
 B587 B 0.24641 0.70965 0.89474
 B588 B 0.25852 0.77427 0.83444
 B589 B 0.24370 0.33432 0.24293
 B590 B 0.24893 0.35770 0.33619
 B591 B 0.20165 0.29485 0.31777
 B592 B 0.23333 0.25082 0.24153
 B593 B 0.30428 0.28595 0.21936
 B594 B 0.31446 0.35246 0.27982
 B595 B 0.31602 0.24218 0.36557
 B596 B 0.30695 0.21982 0.27443
 B597 B 0.35789 0.28488 0.28935
 B598 B 0.32257 0.32544 0.36858
 B599 B 0.25235 0.28923 0.39171
 B600 B 0.24054 0.22500 0.33111
 B601 B 0.75703 0.83635 0.25137
 B602 B 0.75085 0.85887 0.15789
 B603 B 0.79833 0.79603 0.17665
 B604 B 0.76817 0.75283 0.25455
 B605 B 0.69756 0.78748 0.27740
 B606 B 0.68592 0.85296 0.21561
 B607 B 0.68371 0.74209 0.13258
 B608 B 0.69438 0.72064 0.22382
 B609 B 0.64277 0.78518 0.20905
 B610 B 0.67683 0.82503 0.12797
 B611 B 0.74682 0.78926 0.10389
 B612 B 0.75983 0.72573 0.16562
 B613 B 0.74112 0.16641 0.75704
 B614 B 0.74852 0.14268 0.66420
 B615 B 0.70175 0.20611 0.68057
 B616 B 0.73208 0.24991 0.75776
 B617 B 0.80171 0.21390 0.78317
 B618 B 0.81241 0.14696 0.72358
 B619 B 0.81815 0.25691 0.63698
 B620 B 0.80670 0.27982 0.72779
 B621 B 0.85718 0.21392 0.71577
 B622 B 0.82347 0.17360 0.63501
 B623 B 0.75409 0.21055 0.60845
 B624 B 0.74187 0.27526 0.66832
   
