data_POSCAR
  _audit_creation_date              2014-09-24
  _audit_creation_method            'ToBaCCo'
  _symmetry_space_group_name_H-M    'P1'
  _symmetry_Int_Tables_number       1
  _symmetry_cell_setting            triclinic
  loop_
  _symmetry_equiv_pos_as_xyz
 x,y,z
_cell_length_a 38.3171
_cell_length_b 37.7868
_cell_length_c 38.5315
_cell_angle_alpha 88.168500
_cell_angle_beta 88.387000
_cell_angle_gamma 88.769900
loop_
  _atom_site_label
  _atom_site_type_symbol
  _atom_site_fract_x
  _atom_site_fract_y
  _atom_site_fract_z
C1 C 0.79313 0.65631 1.00014
 C2 C 0.79728 0.62687 0.97387
 C3 C 0.76774 0.60873 0.96889
 C4 C 0.73636 0.62127 0.99126
 C5 C 0.76256 0.67950 0.98642
 C6 C 0.73275 0.66114 0.98171
 C7 C 0.77824 0.63830 1.03320
 C8 C 0.74883 0.61953 1.02910
 H9 H 0.82040 0.62390 0.95727
 H10 H 0.71289 0.60562 0.98674
 H11 H 0.76443 0.70732 0.97953
 H12 H 0.78934 0.64238 1.05824
 C13 C 0.80497 0.35945 0.47415
 C14 C 0.81120 0.38776 0.50068
 C15 C 0.78232 0.40731 0.50944
 C16 C 0.74945 0.39731 0.49049
 C17 C 0.77470 0.33766 0.49015
 C18 C 0.74568 0.35738 0.49869
 C19 C 0.78856 0.37950 0.44337
 C20 C 0.75995 0.39999 0.45146
 H21 H 0.83586 0.39031 0.51338
 H22 H 0.72636 0.41362 0.49837
 H23 H 0.77501 0.30918 0.49321
 H24 H 0.79821 0.37588 0.41705
 C25 C 0.30035 -0.14491 -0.03623
 C26 C 0.30859 -0.12772 -0.00435
 C27 C 0.28139 -0.10483 0.00906
 C28 C 0.25043 -0.10404 -0.01275
 C29 C 0.26799 -0.16357 -0.02733
 C30 C 0.24000 -0.14113 -0.01431
 C31 C 0.29041 -0.11639 -0.06039
 C32 C 0.26238 -0.09406 -0.04815
 H33 H 0.33379 -0.13130 0.00736
 H34 H 0.22975 -0.08594 -0.00343
 H35 H 0.26722 -0.19193 -0.02317
 H36 H 0.29952 -0.11587 -0.08729
 C37 C 0.30206 0.14524 0.50265
 C38 C 0.30577 0.11904 0.47316
 C39 C 0.27622 0.10129 0.46695
 C40 C 0.24548 0.11088 0.49141
 C41 C 0.27079 0.16937 0.49176
 C42 C 0.24122 0.15115 0.48542
 C43 C 0.28845 0.12347 0.53402
 C44 C 0.25879 0.10587 0.52848
 H45 H 0.32798 0.11901 0.45510
 H46 H 0.22163 0.09558 0.48717
 H47 H 0.27322 0.19711 0.48447
 H48 H 0.29960 0.12474 0.55949
 C49 C 0.14614 0.51045 0.29862
 C50 C 0.11579 0.48459 0.30234
 C51 C 0.09893 0.47965 0.27228
 C52 C 0.11359 0.50163 0.24111
 C53 C 0.16938 0.49507 0.26928
 C54 C 0.15239 0.49072 0.23917
 C55 C 0.12991 0.54439 0.28293
 C56 C 0.11321 0.54028 0.25268
 H57 H 0.11228 0.46646 0.32439
 H58 H 0.09973 0.49733 0.21676
 H59 H 0.19643 0.48708 0.27258
 H60 H 0.13158 0.56962 0.29526
 C61 C -0.13755 -0.03085 0.30467
 C62 C -0.11081 -0.00267 0.31172
 C63 C -0.09154 0.00793 0.28334
 C64 C -0.10051 -0.01088 0.25004
 C65 C -0.15937 -0.01470 0.27484
 C66 C -0.14015 -0.00388 0.24610
 C67 C -0.11768 -0.05929 0.28862
 C68 C -0.09728 -0.04900 0.25832
 H69 H -0.10889 0.00950 0.33667
 H70 H -0.08449 -0.00112 0.22763
 H71 H -0.18744 -0.01540 0.27466
 H72 H -0.11776 -0.08595 0.29969
 C73 C 0.34875 0.46145 0.79864
 C74 C 0.37435 0.49081 0.80525
 C75 C 0.39435 0.50072 0.77712
 C76 C 0.38717 0.48024 0.74441
 C77 C 0.32769 0.47566 0.76739
 C78 C 0.34769 0.48538 0.73883
 C79 C 0.37143 0.43135 0.78371
 C80 C 0.39158 0.44105 0.75558
 H81 H 0.37558 0.50359 0.82996
 H82 H 0.40446 0.48776 0.72197
 H83 H 0.29965 0.47822 0.76761
 H84 H 0.37019 0.40422 0.79357
 C85 C 0.65362 0.99920 0.80179
 C86 C 0.62435 0.97218 0.80445
 C87 C 0.60862 0.96682 0.77393
 C88 C 0.62304 0.98986 0.74341
 C89 C 0.67844 0.98493 0.77285
 C90 C 0.66226 0.98031 0.74222
 C91 C 0.63785 1.03107 0.78657
 C92 C 0.62049 1.02655 0.75464
 H93 H 0.61985 0.95535 0.82738
 H94 H 0.60976 0.98419 0.71914
 H95 H 0.70552 0.97744 0.77611
 H96 H 0.64271 1.05673 0.79691
 C97 C -0.03344 0.30374 -0.13977
 C98 C -0.00454 0.30960 -0.11376
 C99 C 0.00534 0.27986 -0.09557
 C100 C -0.01460 0.24675 -0.10435
 C101 C -0.01928 0.27343 -0.16220
 C102 C -0.00914 0.24355 -0.14394
 C103 C -0.06288 0.28728 -0.11727
 C104 C -0.05333 0.25747 -0.09894
 H105 H 0.00732 0.33464 -0.10930
 H106 H -0.00639 0.22330 -0.08836
 H107 H -0.01788 0.27578 -0.19026
 H108 H -0.08933 0.29800 -0.11654
 C109 C 0.50057 0.29831 0.14595
 C110 C 0.47323 0.30300 0.11764
 C111 C 0.46692 0.27280 0.10064
 C112 C 0.48894 0.24062 0.11310
 C113 C 0.48630 0.26779 0.16938
 C114 C 0.48033 0.23758 0.15222
 C115 C 0.53284 0.28268 0.12728
 C116 C 0.52695 0.25260 0.11037
 H117 H 0.45575 0.32576 0.11543
 H118 H 0.48408 0.21634 0.09862
 H119 H 0.48014 0.27049 0.19678
 H120 H 0.55868 0.29354 0.12890
 C121 C 1.00610 0.80415 0.65132
 C122 C 0.98182 0.80902 0.62298
 C123 C 0.97599 0.77747 0.60444
 C124 C 0.99671 0.74700 0.61746
 C125 C 0.99143 0.77517 0.67279
 C126 C 0.98644 0.74317 0.65439
 C127 C 1.03783 0.78961 0.63529
 C128 C 1.03341 0.75803 0.61633
 H129 H 0.96257 0.83038 0.62222
 H130 H 0.99191 0.72370 0.60197
 H131 H 0.98477 0.77776 0.70010
 H132 H 1.06301 0.80054 0.64016
 C133 C 0.47452 0.80158 0.36001
 C134 C 0.50436 0.80807 0.38478
 C135 C 0.51427 0.77894 0.40391
 C136 C 0.49339 0.74577 0.39721
 C137 C 0.48737 0.77023 0.33856
 C138 C 0.49738 0.74095 0.35764
 C139 C 0.44547 0.78650 0.38386
 C140 C 0.45482 0.75738 0.40355
 H141 H 0.51711 0.83299 0.38740
 H142 H 0.50229 0.72273 0.41337
 H143 H 0.48778 0.77129 0.31045
 H144 H 0.41922 0.79761 0.38377
 C145 C 0.39307 -0.01902 0.28028
 H146 H 0.39067 0.00609 0.29295
 C147 C 0.41284 -0.04658 0.29526
 H148 H 0.42539 -0.04237 0.31957
 C149 C 0.37718 -0.05559 0.23471
 H150 H 0.36254 -0.05936 0.21162
 C151 C 0.39687 -0.08383 0.24869
 H152 H 0.39773 -0.10880 0.23566
 N153 N 0.37526 -0.02408 0.25085
 C154 C 0.35296 0.08377 0.21180
 H155 H 0.32541 0.08291 0.20703
 C156 C 0.37109 0.11456 0.20290
 H157 H 0.35714 0.13740 0.19210
 C158 C 0.40536 0.05435 0.22839
 H159 H 0.41897 0.03066 0.23732
 C160 C 0.42459 0.08435 0.21920
 H161 H 0.45267 0.08361 0.22177
 Zn162 Zn 0.34438 0.01270 0.23510
 N163 N 0.37007 0.05460 0.22493
 C164 C 0.28880 0.04964 0.27049
 N165 N 0.31008 0.02036 0.27113
 C166 C 0.31093 -0.00160 0.29982
 C167 C 0.29459 0.00843 0.33086
 C168 C 0.27172 0.06057 0.30093
 C169 C 0.34774 -0.00312 0.16637
 C170 C 0.33773 -0.01724 0.13541
 C171 C 0.27935 -0.02397 0.15993
 C172 C 0.29063 -0.00986 0.19080
 N173 N 0.32459 -0.00073 0.19357
 H174 H 0.28675 0.06588 0.24713
 H175 H 0.32633 -0.02584 0.29955
 H176 H 0.29880 -0.00773 0.35413
 H177 H 0.25695 0.08533 0.30054
 H178 H 0.37453 0.00442 0.16941
 H179 H 0.35691 -0.02051 0.11450
 H180 H 0.25278 -0.03285 0.15830
 H181 H 0.27279 -0.00766 0.21292
 C182 C 0.40737 0.11493 0.20641
 C183 C 0.41444 -0.07975 0.27979
 C184 C 0.30348 -0.02872 0.13231
 C185 C 0.27662 0.04110 0.33219
 C186 C 0.09144 1.06572 0.80383
 H187 H 0.10486 1.04750 0.82127
 C188 C 0.07362 1.09490 0.81736
 H189 H 0.07425 1.09897 0.84502
 C190 C 0.07510 1.08285 0.74681
 H191 H 0.07591 1.07815 0.71930
 C192 C 0.05680 1.11252 0.75932
 H193 H 0.04330 1.13016 0.74127
 N194 N 0.09231 1.06037 0.76907
 C195 C 0.11115 0.95536 0.72788
 H196 H 0.13939 0.95543 0.72746
 C197 C 0.09388 0.92581 0.71705
 H198 H 0.10892 0.90314 0.70801
 C199 C 0.05724 0.98526 0.73967
 H200 H 0.04327 1.00860 0.74851
 C201 C 0.03882 0.95642 0.72816
 H202 H 0.01056 0.95755 0.72809
 Zn203 Zn 0.12033 1.02175 0.75308
 N204 N 0.09277 0.98407 0.73932
 C205 C 0.14073 0.97332 0.80611
 N206 N 0.14861 1.00505 0.79042
 C207 C 0.17374 1.02569 0.80311
 C208 C 0.19328 1.01370 0.83144
 C209 C 0.15904 0.96073 0.83484
 C210 C 0.12954 1.03893 0.68285
 C211 C 0.14681 1.04781 0.65151
 C212 C 0.20059 1.05030 0.68236
 C213 C 0.18236 1.04065 0.71303
 N214 N 0.14729 1.03582 0.71292
 H215 H 0.11965 0.95793 0.79696
 H216 H 0.17824 1.05173 0.79163
 H217 H 0.21351 1.03009 0.84105
 H218 H 0.15259 0.93527 0.84678
 H219 H 0.10188 1.03377 0.68308
 H220 H 0.13204 1.04929 0.62797
 H221 H 0.22825 1.05517 0.68350
 H222 H 0.19646 1.03706 0.73672
 C223 C 0.05734 0.92619 0.71702
 C224 C 0.05612 1.11895 0.79508
 C225 C 0.18285 1.05401 0.65090
 C226 C 0.18581 0.98086 0.84762
 C227 C 0.58954 0.56006 0.30321
 H228 H 0.60478 0.54255 0.31977
 C229 C 0.57246 0.58926 0.31756
 H230 H 0.57488 0.59380 0.34499
 C231 C 0.56938 0.57651 0.24727
 H232 H 0.56882 0.57156 0.21980
 C233 C 0.55213 0.60640 0.26055
 H234 H 0.53788 0.62419 0.24322
 N235 N 0.58790 0.55426 0.26863
 C236 C 0.60593 0.44855 0.23016
 H237 H 0.63387 0.44739 0.23350
 C238 C 0.58898 0.41908 0.21876
 H239 H 0.60414 0.39533 0.21313
 C240 C 0.55266 0.48166 0.23223
 H241 H 0.53882 0.50624 0.23741
 C242 C 0.53461 0.45275 0.22036
 H243 H 0.50676 0.45512 0.21657
 Zn244 Zn 0.61531 0.51678 0.24998
 N245 N 0.58776 0.47905 0.23646
 C246 C 0.62942 0.47571 0.30900
 N247 N 0.64479 0.49817 0.28519
 C248 C 0.67870 0.50737 0.28785
 C249 C 0.69829 0.49428 0.31571
 C250 C 0.64811 0.46165 0.33689
 C251 C 0.63518 0.51954 0.17892
 C252 C 0.65234 0.53218 0.14875
 C253 C 0.68087 0.57489 0.18295
 C254 C 0.66269 0.56180 0.21247
 N255 N 0.64081 0.53414 0.21010
 H256 H 0.60237 0.46889 0.30641
 H257 H 0.69055 0.52520 0.26877
 H258 H 0.72496 0.50267 0.31777
 H259 H 0.63537 0.44325 0.35497
 H260 H 0.61704 0.49827 0.17716
 H261 H 0.64767 0.52007 0.12425
 H262 H 0.69828 0.59684 0.18523
 H263 H 0.66580 0.57391 0.23722
 C264 C 0.55294 0.42100 0.21347
 C265 C 0.55382 0.61313 0.29613
 C266 C 0.67570 0.56001 0.15059
 C267 C 0.68300 0.47107 0.34078
 C268 C 0.89046 0.48799 0.78390
 H269 H 0.88836 0.51290 0.79696
 C270 C 0.90832 0.45928 0.79936
 H271 H 0.91985 0.46239 0.82438
 C272 C 0.87572 0.45312 0.73665
 H273 H 0.86216 0.45040 0.71273
 C274 C 0.89336 0.42376 0.75114
 H275 H 0.89389 0.39906 0.73764
 N276 N 0.87443 0.48443 0.75320
 C277 C 0.85793 0.59211 0.71083
 H278 H 0.83051 0.59150 0.70505
 C279 C 0.87703 0.62224 0.70184
 H280 H 0.86413 0.64502 0.68969
 C281 C 0.90875 0.56246 0.73148
 H282 H 0.92121 0.53892 0.74239
 C283 C 0.92901 0.59176 0.72207
 H284 H 0.95689 0.59074 0.72606
 Zn285 Zn 0.84606 0.52284 0.73644
 N286 N 0.87376 0.56324 0.72607
 C287 C 0.80117 0.56623 0.77865
 N288 N 0.81214 0.53248 0.77232
 C289 C 0.80494 0.50550 0.79552
 C290 C 0.78900 0.51242 0.82774
 C291 C 0.78453 0.57421 0.81025
 C292 C 0.84964 0.50576 0.66789
 C293 C 0.83914 0.49381 0.63614
 C294 C 0.77972 0.49270 0.65879
 C295 C 0.79153 0.50443 0.69051
 N296 N 0.82611 0.51009 0.69449
 H297 H 0.80723 0.58752 0.76039
 H298 H 0.81387 0.47885 0.79012
 H299 H 0.78568 0.49102 0.84684
 H300 H 0.77816 0.60157 0.81571
 H301 H 0.87698 0.51042 0.67188
 H302 H 0.85893 0.48886 0.61620
 H303 H 0.75218 0.48803 0.65609
 H304 H 0.77330 0.50832 0.71206
 C305 C 0.91298 0.62211 0.70737
 C306 C 0.90954 0.42646 0.78317
 C307 C 0.80379 0.48676 0.63115
 C308 C 0.77979 0.54737 0.83584
 C309 C 0.27727 0.39383 -0.01282
 H310 H 0.29009 0.39275 0.01186
 C311 C 0.29298 0.41129 -0.04147
 H312 H 0.31753 0.42432 -0.03835
 C313 C 0.23034 0.37697 -0.04703
 H314 H 0.20660 0.36249 -0.04952
 C315 C 0.24520 0.39395 -0.07635
 H316 H 0.23251 0.39235 -0.10099
 N317 N 0.24661 0.37693 -0.01610
 C318 C 0.20387 0.36002 0.08934
 H319 H 0.19798 0.33218 0.08882
 C320 C 0.19529 0.37911 0.11890
 H321 H 0.18299 0.36576 0.14118
 C322 C 0.22533 0.41166 0.06029
 H323 H 0.23651 0.42443 0.03725
 C324 C 0.21665 0.43189 0.08914
 H325 H 0.22171 0.46000 0.08821
 Zn326 Zn 0.22989 0.34829 0.02188
 N327 N 0.21930 0.37626 0.06105
 C328 C 0.27406 0.30544 0.06514
 N329 N 0.26611 0.31461 0.03181
 C330 C 0.28813 0.30605 0.00486
 C331 C 0.32084 0.29050 0.01116
 C332 C 0.30615 0.28912 0.07253
 C333 C 0.16092 0.35022 0.00492
 C334 C 0.12943 0.33876 -0.00732
 C335 C 0.15376 0.27926 -0.00866
 C336 C 0.18513 0.29204 0.00344
 N337 N 0.18816 0.32712 0.00932
 H338 H 0.25674 0.31278 0.08634
 H339 H 0.28146 0.31380 -0.02142
 H340 H 0.33911 0.28620 -0.01033
 H341 H 0.31297 0.28413 0.09936
 H342 H 0.16421 0.37800 0.00968
 H343 H 0.10893 0.35824 -0.01230
 H344 H 0.15183 0.25136 -0.01366
 H345 H 0.20724 0.27420 0.00730
 C346 C 0.20171 0.41550 0.11900
 C347 C 0.27724 0.41092 -0.07395
 C348 C 0.12549 0.30290 -0.01470
 C349 C 0.33055 0.28301 0.04546
 C350 C 0.79143 0.06061 1.05766
 H351 H 0.80056 0.05339 1.03199
 C352 C 0.80629 0.04417 1.08695
 H353 H 0.82561 0.02328 1.08314
 C354 C 0.75554 0.09694 1.09329
 H355 H 0.73646 0.11824 1.09574
 C356 C 0.77048 0.08217 1.12311
 H357 H 0.76253 0.09284 1.14788
 N358 N 0.76601 0.08598 1.06133
 C359 C 0.71229 0.09978 0.96332
 H360 H 0.70770 0.12797 0.96561
 C361 C 0.69921 0.08253 0.93529
 H362 H 0.68442 0.09750 0.91605
 C363 C 0.73756 0.04614 0.98544
 H364 H 0.75212 0.03199 1.00522
 C365 C 0.72555 0.02788 0.95714
 H366 H 0.73106 -0.00022 0.95517
 Zn367 Zn 0.74765 0.11115 1.02231
 N368 N 0.73123 0.08164 0.98761
 C369 C 0.79512 0.13339 0.96951
 N370 N 0.78369 0.13946 1.00257
 C371 C 0.79907 0.16384 1.02204
 C372 C 0.82675 0.18377 1.00804
 C373 C 0.82280 0.15240 0.95468
 C374 C 0.68004 0.12044 1.04798
 C375 C 0.64938 0.13808 1.05845
 C376 C 0.67774 0.19374 1.04614
 C377 C 0.70782 0.17496 1.03547
 N378 N 0.70850 0.13895 1.03694
 H379 H 0.78317 0.11341 0.95464
 H380 H 0.78998 0.16763 1.04852
 H381 H 0.83885 0.20300 1.02384
 H382 H 0.83129 0.14734 0.92822
 H383 H 0.68116 0.09180 1.04837
 H384 H 0.62693 0.12265 1.06653
 H385 H 0.67806 0.22238 1.04563
 H386 H 0.73052 0.18920 1.02610
 C387 C 0.70609 0.04629 0.93180
 C388 C 0.79610 0.05506 1.12046
 C389 C 0.64792 0.17528 1.05790
 C390 C 0.83903 0.17790 0.97399
 C391 C 0.29477 0.56692 0.55272
 H392 H 0.31021 0.56966 0.52896
 C393 C 0.30819 0.54742 0.58086
 H394 H 0.33385 0.53503 0.57840
 C395 C 0.24298 0.58032 0.58517
 H396 H 0.21771 0.59349 0.58685
 C397 C 0.25529 0.56082 0.61388
 H398 H 0.23951 0.55957 0.63763
 N399 N 0.26315 0.58375 0.55566
 C400 C 0.23251 0.60964 0.45028
 H401 H 0.23803 0.63762 0.44961
 C402 C 0.22135 0.59381 0.42053
 H403 H 0.21802 0.60988 0.39703
 C404 C 0.22886 0.55517 0.48238
 H405 H 0.23165 0.54046 0.50672
 C406 C 0.21717 0.53828 0.45320
 H407 H 0.21115 0.51041 0.45511
 Zn408 Zn 0.24929 0.61538 0.51924
 N409 N 0.23585 0.59032 0.48040
 C410 C 0.31116 0.62776 0.48177
 N411 N 0.28832 0.64306 0.50473
 C412 C 0.29349 0.67630 0.51589
 C413 C 0.32255 0.69537 0.50386
 C414 C 0.34019 0.64598 0.46875
 C415 C 0.17968 0.64191 0.51806
 C416 C 0.15015 0.66077 0.52979
 C417 C 0.18432 0.68356 0.57547
 C418 C 0.21316 0.66401 0.56303
 N419 N 0.21049 0.64386 0.53462
 H420 H 0.30648 0.60144 0.47297
 H421 H 0.27516 0.68824 0.53399
 H422 H 0.32630 0.72161 0.51340
 H423 H 0.35710 0.63352 0.44955
 H424 H 0.17766 0.62526 0.49598
 H425 H 0.12595 0.65893 0.51618
 H426 H 0.18682 0.69908 0.59838
 H427 H 0.23745 0.66420 0.57664
 C428 C 0.21319 0.55778 0.42183
 C429 C 0.28870 0.54489 0.61220
 C430 C 0.15224 0.68194 0.55885
 C431 C 0.34628 0.68036 0.47966
 C432 C 0.79005 0.89143 0.48962
 H433 H 0.80264 0.88843 0.51435
 C434 C 0.80622 0.91062 0.46233
 H435 H 0.83091 0.92297 0.46655
 C436 C 0.74320 0.87779 0.45383
 H437 H 0.71932 0.86393 0.45012
 C438 C 0.75849 0.89666 0.42585
 H439 H 0.74597 0.89712 0.40099
 N440 N 0.75920 0.87531 0.48492
 C441 C 0.71549 0.85376 0.58934
 H442 H 0.70915 0.82613 0.58770
 C443 C 0.70698 0.87178 0.61962
 H444 H 0.69429 0.85778 0.64128
 C445 C 0.73775 0.90612 0.56239
 H446 H 0.74913 0.91968 0.53991
 C447 C 0.72926 0.92525 0.59199
 H448 H 0.73471 0.95325 0.59212
 Zn449 Zn 0.74175 0.84472 0.52118
 N450 N 0.73122 0.87087 0.56170
 C451 C 0.78474 0.79861 0.56276
 N452 N 0.77781 0.81032 0.52983
 C453 C 0.80122 0.80480 0.50319
 C454 C 0.83441 0.79058 0.50977
 C455 C 0.81732 0.78340 0.57032
 C456 C 0.67297 0.84838 0.50286
 C457 C 0.64137 0.83773 0.49012
 C458 C 0.66467 0.77789 0.48801
 C459 C 0.69621 0.78988 0.50055
 N460 N 0.69981 0.82474 0.50714
 H461 H 0.76626 0.80345 0.58375
 H462 H 0.79535 0.81441 0.47724
 H463 H 0.85390 0.78943 0.48890
 H464 H 0.82345 0.77677 0.59706
 H465 H 0.67665 0.87595 0.50827
 H466 H 0.62123 0.85766 0.48536
 H467 H 0.66228 0.75011 0.48270
 H468 H 0.71793 0.77155 0.50437
 C469 C 0.71385 0.90801 0.62115
 C470 C 0.79069 0.91293 0.42973
 C471 C 0.63678 0.80209 0.48220
 C472 C 0.84308 0.78105 0.54392
 C473 C -0.00975 0.28893 0.39736
 H474 H 0.01500 0.30204 0.39397
 C475 C -0.03679 0.30467 0.41683
 H476 H -0.03235 0.32956 0.42897
 C477 C -0.04583 0.24118 0.38455
 H478 H -0.04976 0.21710 0.37097
 C479 C -0.07361 0.25606 0.40362
 H480 H -0.09855 0.24308 0.40441
 N481 N -0.01469 0.25779 0.38163
 C482 C 0.08852 0.21233 0.35915
 H483 H 0.08552 0.20608 0.33221
 C484 C 0.11892 0.20189 0.37604
 H485 H 0.13944 0.18811 0.36167
 C486 C 0.06495 0.23708 0.41066
 H487 H 0.04355 0.25000 0.42436
 C488 C 0.09498 0.22705 0.42863
 H489 H 0.09627 0.23232 0.45602
 Zn490 Zn 0.02128 0.24058 0.35145
 N491 N 0.06234 0.22974 0.37647
 C492 C 0.06294 0.28546 0.30733
 N493 N 0.02975 0.27713 0.31747
 C494 C 0.00226 0.29895 0.30930
 C495 C 0.00792 0.33191 0.29284
 C496 C 0.06968 0.31780 0.29018
 C497 C 0.00252 0.17057 0.35485
 C498 C -0.00945 0.13836 0.34393
 C499 C -0.01031 0.16265 0.28519
 C500 C 0.00136 0.19478 0.29742
 N501 N 0.00704 0.19816 0.33183
 H502 H 0.08456 0.26826 0.31445
 H503 H -0.02387 0.29198 0.31795
 H504 H -0.01394 0.35006 0.28871
 H505 H 0.09648 0.32496 0.28437
 H506 H 0.00734 0.17404 0.38206
 H507 H -0.01436 0.11755 0.36328
 H508 H -0.01474 0.16042 0.25774
 H509 H 0.00551 0.21706 0.27956
 C510 C 0.12230 0.20887 0.41137
 C511 C -0.06946 0.28848 0.41969
 C512 C -0.01624 0.13391 0.30867
 C513 C 0.04213 0.34209 0.28420
 C514 C 1.05117 0.80646 0.06066
 H515 H 1.02716 0.82176 0.06384
 C516 C 1.07977 0.82130 0.04264
 H517 H 1.07753 0.84793 0.03158
 C518 C 1.08391 0.75376 0.07252
 H519 H 1.08592 0.72785 0.08493
 C520 C 1.11288 0.76733 0.05437
 H521 H 1.13685 0.75163 0.05313
 N522 N 1.05388 0.77342 0.07556
 C523 C 0.96070 0.71354 0.09429
 H524 H 0.96736 0.70318 0.11977
 C525 C 0.93188 0.70055 0.07814
 H526 H 0.91681 0.67990 0.09121
 C527 C 0.97102 0.75443 0.04735
 H528 H 0.98626 0.77570 0.03578
 C529 C 0.94185 0.74243 0.03035
 H530 H 0.93491 0.75423 0.00544
 Zn531 Zn 1.01692 0.75640 0.10473
 N532 N 0.97989 0.73968 0.07866
 C533 C 0.96393 0.79826 0.13508
 N534 N 0.99919 0.79377 0.13230
 C535 C 1.02098 0.81584 0.14812
 C536 C 1.00730 0.84345 0.16816
 C537 C 0.94925 0.82512 0.15500
 C538 C 1.03922 0.68624 0.11786
 C539 C 1.05078 0.65671 0.13730
 C540 C 1.05104 0.69290 0.18786
 C541 C 1.03898 0.72169 0.16753
 N542 N 1.03362 0.71795 0.13311
 H543 H 0.94697 0.78078 0.12215
 H544 H 1.04895 0.81190 0.14526
 H545 H 1.02481 0.86049 0.18113
 H546 H 0.92109 0.82801 0.15713
 H547 H 1.03461 0.68393 0.09047
 H548 H 1.05545 0.63181 0.12464
 H549 H 1.05537 0.69628 0.21520
 H550 H 1.03408 0.74701 0.17920
 C551 C 0.92216 0.71493 0.04577
 C552 C 1.11124 0.80173 0.03969
 C553 C 1.05705 0.65991 0.17271
 C554 C 0.97095 0.84793 0.17210
 C555 C 0.56200 0.27295 0.55569
 H556 H 0.53995 0.26724 0.54013
 C557 C 0.59166 0.28806 0.53981
 H558 H 0.59208 0.29385 0.51210
 C559 C 0.58904 0.27127 0.61025
 H560 H 0.58822 0.26394 0.63758
 C561 C 0.61918 0.28609 0.59547
 H562 H 0.64095 0.29095 0.61186
 N563 N 0.56104 0.26534 0.59047
 C564 C 0.47879 0.19361 0.58845
 H565 H 0.49144 0.17670 0.60759
 C566 C 0.45065 0.18069 0.57104
 H567 H 0.44230 0.15397 0.57717
 C568 C 0.47236 0.24958 0.55962
 H569 H 0.48008 0.27687 0.55635
 C570 C 0.44385 0.23768 0.54161
 H571 H 0.43050 0.25567 0.52375
 Zn572 Zn 0.52185 0.24497 0.61414
 N573 N 0.48873 0.22773 0.58313
 C574 C 0.46525 0.28820 0.63747
 N575 N 0.49944 0.27954 0.64261
 C576 C 0.51781 0.29598 0.66696
 C577 C 0.50218 0.32303 0.68630
 C578 C 0.44885 0.31540 0.65577
 C579 C 0.56159 0.18340 0.62613
 C580 C 0.57394 0.15335 0.64426
 C581 C 0.53873 0.17075 0.69411
 C582 C 0.52716 0.20064 0.67504
 N583 N 0.53866 0.20627 0.64167
 H584 H 0.45045 0.27424 0.61910
 H585 H 0.54465 0.28833 0.67134
 H586 H 0.51723 0.33620 0.70526
 H587 H 0.42173 0.32212 0.65106
 H588 H 0.57013 0.18849 0.59947
 H589 H 0.59262 0.13583 0.63152
 H590 H 0.52877 0.16636 0.72043
 H591 H 0.50853 0.21895 0.68665
 C592 C 0.43229 0.20295 0.54774
 C593 C 0.62074 0.29482 0.55982
 C594 C 0.56244 0.14657 0.67871
 C595 C 0.46746 0.33339 0.68024
 C596 C 0.47991 0.76550 0.89788
 H597 H 0.50590 0.76781 0.90753
 C598 C 0.45158 0.78068 0.91601
 H599 H 0.45606 0.79436 0.93970
 C600 C 0.44227 0.74530 0.85528
 H601 H 0.43894 0.73209 0.83114
 C602 C 0.41328 0.75998 0.87257
 H603 H 0.38779 0.75807 0.86143
 N604 N 0.47484 0.74878 0.86775
 C605 C 0.56363 0.68789 0.87261
 H606 H 0.55013 0.66646 0.86142
 C607 C 0.59258 0.68011 0.89277
 H608 H 0.60082 0.65276 0.89704
 C609 C 0.57033 0.74937 0.87995
 H610 H 0.56156 0.77635 0.87462
 C611 C 0.59994 0.74276 0.89983
 H612 H 0.61370 0.76468 0.91011
 Zn613 Zn 0.51253 0.73150 0.83981
 N614 N 0.55259 0.72202 0.86709
 C615 C 0.55736 0.77142 0.79538
 N616 N 0.52342 0.76704 0.80562
 C617 C 0.49877 0.79262 0.79890
 C618 C 0.50840 0.82538 0.78443
 C619 C 0.56813 0.80381 0.78060
 C620 C 0.48358 0.66595 0.84506
 C621 C 0.47089 0.63376 0.83516
 C622 C 0.48649 0.64949 0.77551
 C623 C 0.49915 0.68166 0.78669
 N624 N 0.49761 0.68901 0.82105
 H625 H 0.57660 0.75097 0.80150
 H626 H 0.47198 0.78883 0.80730
 H627 H 0.48883 0.84631 0.78159
 H628 H 0.59568 0.80791 0.77530
 H629 H 0.48221 0.67279 0.87213
 H630 H 0.45931 0.61620 0.85482
 H631 H 0.48789 0.64374 0.74815
 H632 H 0.51008 0.70069 0.76807
 C633 C 0.61098 0.70769 0.90678
 C634 C 0.41780 0.77847 0.90305
 C635 C 0.47234 0.62500 0.80004
 C636 C 0.54371 0.83182 0.77677
 C637 C 0.47734 -0.13404 0.33542
 C638 C 0.46151 -0.16741 0.33718
 C639 C 0.43191 -0.17217 0.31711
 C640 C 0.41723 -0.14406 0.29781
 C641 C 0.43210 -0.11041 0.29747
 C642 C 0.46275 -0.10595 0.31586
 H643 H 0.50082 -0.12894 0.34899
 H644 H 0.41944 -0.19763 0.31724
 H645 H 0.39346 -0.14846 0.28419
 H646 H 0.47537 -0.08057 0.31537
 C647 C 0.97059 0.36876 0.83772
 C648 C 0.95397 0.33578 0.83844
 C649 C 0.92425 0.33250 0.81818
 C650 C 0.91025 0.36164 0.79976
 C651 C 0.92591 0.39486 0.80057
 C652 C 0.95660 0.39789 0.81921
 H653 H 0.99440 0.37272 0.85116
 H654 H 0.91125 0.30738 0.81737
 H655 H 0.88649 0.35835 0.78576
 H656 H 0.96986 0.42290 0.81950
 C657 C 0.02397 1.21389 0.80680
 C658 C 0.00650 1.21151 0.83946
 C659 C 0.00482 1.17813 0.85655
 C660 C 0.01998 1.14816 0.84165
 C661 C 0.03783 1.15063 0.80939
 C662 C 0.03940 1.18381 0.79195
 H663 H 0.02672 1.23910 0.79302
 H664 H -0.00815 1.17467 0.88152
 H665 H 0.01775 1.12292 0.85557
 H666 H 0.05349 1.18675 0.76730
 C667 C 0.52889 0.70951 0.30890
 C668 C 0.51115 0.70807 0.34143
 C669 C 0.50677 0.67489 0.35827
 C670 C 0.51993 0.64403 0.34323
 C671 C 0.53775 0.64558 0.31088
 C672 C 0.54186 0.67861 0.29374
 H673 H 0.53355 0.73457 0.29539
 H674 H 0.49291 0.67249 0.38293
 H675 H 0.51611 0.61886 0.35689
 H676 H 0.55607 0.68067 0.26909
 C677 C 0.53094 0.32660 0.19489
 C678 C 0.50976 0.33095 0.16574
 C679 C 0.50098 0.36568 0.15404
 C680 C 0.51344 0.39500 0.17078
 C681 C 0.53545 0.39033 0.19912
 C682 C 0.54352 0.35586 0.21141
 H683 H 0.53880 0.30036 0.20421
 H684 H 0.48592 0.37070 0.13109
 H685 H 0.50739 0.42132 0.16040
 H686 H 0.56039 0.35153 0.23330
 C687 C 0.03388 0.83184 0.70072
 C688 C 0.01368 0.83558 0.67058
 C689 C 0.00595 0.87050 0.65802
 C690 C 0.01812 0.89996 0.67469
 C691 C 0.03928 0.89556 0.70357
 C692 C 0.04662 0.86134 0.71678
 H693 H 0.04141 0.80580 0.71087
 H694 H -0.00778 0.87576 0.63428
 H695 H 0.01286 0.92620 0.66367
 H696 H 0.06325 0.85742 0.73891
 C697 C 0.97608 0.67908 0.65512
 C698 C 0.97025 0.71274 0.66934
 C699 C 0.94668 0.71536 0.69805
 C700 C 0.92825 0.68583 0.71063
 C701 C 0.93386 0.65280 0.69572
 C702 C 0.95836 0.64949 0.66838
 H703 H 0.99489 0.67502 0.63422
 H704 H 0.94064 0.74051 0.70966
 H705 H 0.90928 0.68882 0.73177
 H706 H 0.96315 0.62407 0.65670
 C707 C 0.43550 0.20993 0.19266
 C708 C 0.46338 0.20613 0.16847
 C709 C 0.47328 0.17208 0.15786
 C710 C 0.45572 0.14240 0.17108
 C711 C 0.42736 0.14626 0.19456
 C712 C 0.41742 0.18024 0.20534
 H713 H 0.42683 0.23592 0.20076
 H714 H 0.49434 0.16831 0.13903
 H715 H 0.46357 0.11647 0.16210
 H716 H 0.39553 0.18377 0.22339
 C717 C 0.29271 0.45500 -0.16290
 C718 C 0.32901 0.44990 -0.16811
 C719 C 0.34811 0.43380 -0.14096
 C720 C 0.33145 0.42177 -0.11031
 C721 C 0.29516 0.42593 -0.10562
 C722 C 0.27606 0.44308 -0.13208
 H723 H 0.27671 0.46820 -0.18210
 H724 H 0.37613 0.42997 -0.14379
 H725 H 0.34697 0.40832 -0.09068
 H726 H 0.24813 0.44736 -0.12893
 C727 C 0.80696 0.96318 0.34411
 C728 C 0.84302 0.95698 0.33805
 C729 C 0.86195 0.93891 0.36423
 C730 C 0.84516 0.92537 0.39424
 C731 C 0.80896 0.93002 0.39930
 C732 C 0.79019 0.94967 0.37423
 H733 H 0.79121 0.97838 0.32607
 H734 H 0.88985 0.93445 0.36096
 H735 H 0.86045 0.91023 0.41293
 H736 H 0.76240 0.95456 0.37788
 C737 C 0.80956 0.02557 1.21471
 C738 C 0.84364 0.01089 1.21373
 C739 C 0.86178 0.01038 1.18147
 C740 C 0.84662 0.02476 1.15139
 C741 C 0.81239 0.03912 1.15237
 C742 C 0.79399 0.03874 1.18452
 H743 H 0.79463 0.02730 1.23884
 H744 H 0.88767 -0.00132 1.17901
 H745 H 0.86212 0.02489 1.12750
 H746 H 0.76732 0.04853 1.18665
 C747 C 0.35266 0.52110 0.68271
 C748 C 0.33276 0.49939 0.70566
 C749 C 0.29848 0.49145 0.69656
 C750 C 0.28425 0.50579 0.66603
 C751 C 0.30409 0.52794 0.64361
 C752 C 0.33854 0.53513 0.65211
 H753 H 0.37894 0.52820 0.68846
 H754 H 0.28254 0.47398 0.71277
 H755 H 0.25776 0.49942 0.65985
 H756 H 0.35430 0.55253 0.63555
 C757 C 0.19647 0.53772 0.32829
 C758 C 0.16568 0.51807 0.33137
 C759 C 0.15207 0.50974 0.36497
 C760 C 0.16860 0.52108 0.39440
 C761 C 0.19866 0.54158 0.39101
 C762 C 0.21278 0.54926 0.35769
 H763 H 0.20726 0.54527 0.30291
 H764 H 0.12782 0.49601 0.36900
 H765 H 0.15678 0.51543 0.41978
 H766 H 0.23601 0.56498 0.35436
 C767 C 0.64506 0.01922 0.86322
 C768 C 0.66828 0.00626 0.83733
 C769 C 0.70401 0.00275 0.84495
 C770 C 0.71615 0.01366 0.87681
 C771 C 0.69296 0.02860 0.90134
 C772 C 0.65727 0.03057 0.89461
 H773 H 0.61741 0.02209 0.85838
 H774 H 0.72302 -0.00711 0.82630
 H775 H 0.74389 0.01221 0.88155
 H776 H 0.63897 0.04204 0.91324
 C777 C 0.69850 0.93207 0.71528
 C778 C 0.67915 0.96387 0.71167
 C779 C 0.67294 0.97810 0.67830
 C780 C 0.68518 0.96048 0.64892
 C781 C 0.70343 0.92798 0.65239
 C782 C 0.71032 0.91412 0.68585
 H783 H 0.70317 0.92037 0.74080
 H784 H 0.65815 1.00263 0.67497
 H785 H 0.67930 0.97163 0.62346
 H786 H 0.72451 0.88920 0.68919
 C787 C 0.18864 0.44239 0.21242
 C788 C 0.16825 0.47350 0.20851
 C789 C 0.16047 0.48639 0.17500
 C790 C 0.17233 0.46815 0.14583
 C791 C 0.19166 0.43634 0.14973
 C792 C 0.20002 0.42381 0.18327
 H793 H 0.19453 0.43166 0.23804
 H794 H 0.14481 0.51037 0.17140
 H795 H 0.16537 0.47822 0.12026
 H796 H 0.21504 0.39943 0.18690
 C797 C -0.15540 0.30352 0.46907
 C798 C -0.16130 0.34015 0.46332
 C799 C -0.13499 0.35982 0.44586
 C800 C -0.10485 0.34324 0.43261
 C801 C -0.09982 0.30648 0.43689
 C802 C -0.12506 0.28694 0.45592
 H803 H -0.17391 0.28716 0.48331
 H804 H -0.13840 0.38813 0.44144
 H805 H -0.08614 0.35913 0.41784
 H806 H -0.12151 0.25867 0.46039
 C807 C 0.32606 0.79982 0.93699
 C808 C 0.32959 0.83426 0.94969
 C809 C 0.36278 0.84988 0.94584
 C810 C 0.39136 0.83144 0.93166
 C811 C 0.38773 0.79702 0.91999
 C812 C 0.35480 0.78145 0.92271
 H813 H 0.30122 0.78690 0.93694
 H814 H 0.36657 0.87682 0.95354
 H815 H 0.41616 0.84461 0.92886
 H816 H 0.35117 0.75503 0.91351
 C817 C 1.19639 0.81185 -0.01161
 C818 C 1.20722 0.84568 -0.00223
 C819 C 1.18452 0.86542 0.01975
 C820 C 1.15288 0.85161 0.03224
 C821 C 1.14300 0.81762 0.02353
 C822 C 1.16489 0.79801 0.00123
 H823 H 1.21176 0.79588 -0.02939
 H824 H 1.19133 0.89086 0.02920
 H825 H 1.13677 0.86701 0.04998
 H826 H 1.15762 0.77185 -0.00627
 C827 C 0.71606 0.31316 0.53875
 C828 C 0.71366 0.34148 0.51434
 C829 C 0.68048 0.35419 0.50482
 C830 C 0.65029 0.33886 0.51927
 C831 C 0.65269 0.31064 0.54378
 C832 C 0.68592 0.29796 0.55334
 H833 H 0.74127 0.30299 0.54687
 H834 H 0.67778 0.37558 0.48579
 H835 H 0.62505 0.34938 0.51161
 H836 H 0.68863 0.27603 0.57193
 C837 C 0.33835 0.19825 0.51932
 C838 C 0.33640 0.16252 0.51039
 C839 C 0.36689 0.14114 0.51210
 C840 C 0.39831 0.15487 0.52221
 C841 C 0.40009 0.19020 0.53203
 C842 C 0.36992 0.21196 0.52989
 H843 H 0.31539 0.21536 0.51967
 H844 H 0.36627 0.11329 0.50637
 H845 H 0.42110 0.13746 0.52326
 H846 H 0.37027 0.23912 0.53800
 C847 C 0.83282 0.71015 0.00649
 C848 C 0.82785 0.67327 0.00713
 C849 C 0.85567 0.65075 0.01749
 C850 C 0.88683 0.66442 0.02826
 C851 C 0.89117 0.70109 0.02911
 C852 C 0.86433 0.72389 0.01724
 H853 H 0.81230 0.72866 -0.00084
 H854 H 0.85274 0.62227 0.01847
 H855 H 0.90726 0.64627 0.03701
 H856 H 0.86706 0.75232 0.01797
 C857 C 0.70349 0.70361 0.93922
 C858 C 0.70107 0.67670 0.96528
 C859 C 0.66818 0.66261 0.97368
 C860 C 0.63881 0.67356 0.95535
 C861 C 0.64150 0.69929 0.92844
 C862 C 0.67388 0.71495 0.92109
 H863 H 0.72844 0.71479 0.93169
 H864 H 0.66504 0.64266 0.99410
 H865 H 0.61398 0.66150 0.96183
 H866 H 0.67657 0.73473 0.90027
 C867 C 0.19818 0.20121 0.47318
 C868 C 0.21097 0.16684 0.46677
 C869 C 0.19468 0.14699 0.44184
 C870 C 0.16616 0.16081 0.42401
 C871 C 0.15309 0.19500 0.43043
 C872 C 0.16931 0.21512 0.45530
 H873 H 0.21021 0.21710 0.49227
 H874 H 0.20409 0.12072 0.43559
 H875 H 0.15401 0.14442 0.40543
 H876 H 0.15988 0.24166 0.46064
 C877 C 0.59695 0.08783 0.75222
 C878 C 0.60440 0.05536 0.73596
 C879 C 0.59574 0.05313 0.70070
 C880 C 0.58173 0.08244 0.68236
 C881 C 0.57568 0.11486 0.69857
 C882 C 0.58308 0.11700 0.73382
 H883 H 0.60111 0.09117 0.77951
 H884 H 0.60068 0.02947 0.68630
 H885 H 0.57571 0.07967 0.65530
 H886 H 0.57878 0.14154 0.74721
 C887 C 1.07008 0.56657 0.21041
 C888 C 1.09840 0.57081 0.23220
 C889 C 1.11285 0.60465 0.23408
 C890 C 1.09905 0.63351 0.21517
 C891 C 1.07082 0.62925 0.19344
 C892 C 1.05654 0.59547 0.19108
 H893 H 1.05797 0.54112 0.20862
 H894 H 1.13533 0.60891 0.24967
 H895 H 1.11099 0.65909 0.21693
 H896 H 1.03459 0.59156 0.17462
 C897 C 0.94808 0.93571 0.21370
 C898 C 0.92100 0.92591 0.23754
 C899 C 0.91190 0.88983 0.23978
 C900 C 0.92860 0.86490 0.21896
 C901 C 0.95514 0.87484 0.19519
 C902 C 0.96515 0.91037 0.19302
 H903 H 0.95705 0.96262 0.21137
 H904 H 0.89062 0.88044 0.25632
 H905 H 0.92046 0.83762 0.22124
 H906 H 0.98568 0.91864 0.17483
 C907 C 0.43299 0.38899 0.75408
 C908 C 0.41338 0.41526 0.73625
 C909 C 0.41323 0.41558 0.69985
 C910 C 0.43131 0.38924 0.68162
 C911 C 0.45032 0.36253 0.69947
 C912 C 0.45156 0.36301 0.73581
 H913 H 0.43366 0.38842 0.78218
 H914 H 0.39809 0.43540 0.68558
 H915 H 0.43021 0.38951 0.65355
 H916 H 0.46594 0.34260 0.75010
 C917 C 0.44276 0.53028 0.80558
 C918 C 0.41910 0.52993 0.77853
 C919 C 0.41644 0.55943 0.75565
 C920 C 0.43549 0.58987 0.76122
 C921 C 0.45747 0.59107 0.78975
 C922 C 0.46197 0.56043 0.81097
 H923 H 0.44536 0.50763 0.82335
 H924 H 0.39789 0.55992 0.73502
 H925 H 0.43127 0.61314 0.74462
 H926 H 0.47928 0.56031 0.83272
 C927 C -0.07433 0.06913 0.26494
 C928 C -0.06776 0.03796 0.28460
 C929 C -0.04131 0.03730 0.30897
 C930 C -0.02285 0.06786 0.31493
 C931 C -0.03122 0.10011 0.29743
 C932 C -0.05641 0.10006 0.27147
 H933 H -0.09492 0.07014 0.24621
 H934 H -0.03577 0.01335 0.32422
 H935 H -0.00284 0.06645 0.33423
 H936 H -0.06382 0.12430 0.25762
 C937 C 0.05115 0.44021 0.29364
 C938 C 0.07765 0.44789 0.26886
 C939 C 0.08810 0.42201 0.24513
 C940 C 0.07467 0.38788 0.24837
 C941 C 0.05003 0.37945 0.27487
 C942 C 0.03720 0.40636 0.29642
 H943 H 0.04290 0.45977 0.31230
 H944 H 0.10872 0.42720 0.22599
 H945 H 0.08494 0.36754 0.23149
 H946 H 0.01850 0.40047 0.31730
 C947 C 0.59698 0.91030 0.74488
 C948 C 0.58717 0.93535 0.76970
 C949 C 0.56012 0.92763 0.79380
 C950 C 0.54433 0.89468 0.79430
 C951 C 0.55576 0.86860 0.77111
 C952 C 0.58165 0.87697 0.74583
 H953 H 0.61808 0.91557 0.72629
 H954 H 0.55235 0.94653 0.81326
 H955 H 0.52477 0.88879 0.81438
 H956 H 0.59091 0.85729 0.72774
 C957 C 0.69427 0.59516 0.05867
 C958 C 0.73027 0.60158 0.05920
 C959 C 0.74829 0.59207 0.08967
 C960 C 0.73055 0.57867 0.11921
 C961 C 0.69448 0.57349 0.11890
 C962 C 0.67660 0.58118 0.08815
 H963 H 0.67933 0.60167 0.03598
 H964 H 0.77622 0.59498 0.09098
 H965 H 0.74510 0.57208 0.14232
 H966 H 0.64872 0.57728 0.08723
 C967 C 0.20296 1.09746 0.56223
 C968 C 0.23853 1.08907 0.55748
 C969 C 0.25530 1.06743 0.58242
 C970 C 0.23700 1.05506 0.61210
 C971 C 0.20167 1.06475 0.61790
 C972 C 0.18478 1.08573 0.59226
 H973 H 0.18964 1.11460 0.54357
 H974 H 0.28274 1.06047 0.57911
 H975 H 0.25072 1.03817 0.63063
 H976 H 0.15784 1.09431 0.59589
 C977 C 0.26129 0.94423 0.89919
 C978 C 0.24417 0.92930 0.92894
 C979 C 0.20791 0.93574 0.93331
 C980 C 0.18917 0.95381 0.90743
 C981 C 0.20621 0.96674 0.87710
 C982 C 0.24256 0.96294 0.87374
 H983 H 0.28927 0.94124 0.89525
 H984 H 0.19311 0.92446 0.95509
 H985 H 0.16106 0.95660 0.91052
 H986 H 0.25624 0.97290 0.85058
 C987 C 0.70563 0.43142 0.42954
 C988 C 0.74086 0.42131 0.42446
 C989 C 0.75756 0.43079 0.39253
 C990 C 0.73901 0.44740 0.36573
 C991 C 0.70338 0.45587 0.37025
 C992 C 0.68715 0.44852 0.40283
 H993 H 0.69178 0.42556 0.45371
 H994 H 0.78502 0.42513 0.38777
 H995 H 0.75251 0.45259 0.34110
 H996 H 0.65999 0.45567 0.40767
 C997 C 0.80655 0.45958 0.53721
 C998 C 0.78253 0.43216 0.53810
 C999 C 0.76206 0.42578 0.56828
 C1000 C 0.76753 0.44484 0.59818
 C1001 C 0.79322 0.47098 0.59812
 C1002 C 0.81144 0.47919 0.56671
 H1003 H 0.82240 0.46499 0.51399
 H1004 H 0.74357 0.40446 0.56944
 H1005 H 0.75317 0.43753 0.62182
 H1006 H 0.83057 0.49989 0.56524
 C1007 C 0.26297 -0.05720 0.04919
 C1008 C 0.28451 -0.08675 0.04060
 C1009 C 0.31012 -0.09785 0.06453
 C1010 C 0.31537 -0.07927 0.09440
 C1011 C 0.29494 -0.04929 0.10192
 C1012 C 0.26812 -0.03878 0.07964
 H1013 H 0.24326 -0.04674 0.03199
 H1014 H 0.32608 -0.12143 0.06110
 H1015 H 0.33568 -0.08832 0.11179
 H1016 H 0.25210 -0.01554 0.08509
 C1017 C 0.26050 0.05159 0.42912
 C1018 C 0.27120 0.08648 0.43259
 C1019 C 0.27838 0.10754 0.40273
 C1020 C 0.27752 0.09328 0.36997
 C1021 C 0.26941 0.05754 0.36623
 C1022 C 0.25982 0.03708 0.39609
 H1023 H 0.25428 0.03520 0.45193
 H1024 H 0.28587 0.13486 0.40489
 H1025 H 0.28548 0.10977 0.34777
 H1026 H 0.25307 0.00957 0.39401
 C1027 C 0.74086 0.59608 0.91253
 C1028 C 0.76501 0.58671 0.93816
 C1029 C 0.79049 0.56045 0.93141
 C1030 C 0.79326 0.54541 0.89878
 C1031 C 0.77104 0.55692 0.87211
 C1032 C 0.74410 0.58157 0.87958
 H1033 H 0.72125 0.61660 0.91706
 H1034 H 0.80950 0.55308 0.95078
 H1035 H 0.81452 0.52679 0.89362
 H1036 H 0.72669 0.59087 0.85942
 C1037 C 0.09514 0.75542 0.59579
 C1038 C 0.06209 0.73950 0.60019
 C1039 C 0.05923 0.70456 0.58856
 C1040 C 0.08827 0.68612 0.57481
 C1041 C 0.12108 0.70188 0.57209
 C1042 C 0.12406 0.73683 0.58233
 H1043 H 0.09928 0.78263 0.60193
 H1044 H 0.03523 0.69030 0.59080
 H1045 H 0.08521 0.65906 0.56715
 H1046 H 0.14884 0.75005 0.57956
 C1047 C 0.57599 0.24575 1.06703
 C1048 C 0.55584 0.23166 1.09486
 C1049 C 0.56552 0.19894 1.11011
 C1050 C 0.59519 0.18058 1.09795
 C1051 C 0.61571 0.19451 1.07007
 C1052 C 0.60549 0.22720 1.05451
 H1053 H 0.56902 0.27123 1.05522
 H1054 H 0.55107 0.18836 1.13246
 H1055 H 0.60264 0.15599 1.11119
 H1056 H 0.62030 0.23853 1.03270
 C1057 C 0.92076 0.20001 0.92101
 C1058 C 0.92128 0.23697 0.92274
 C1059 C 0.89583 0.25430 0.94342
 C1060 C 0.86977 0.23503 0.96119
 C1061 C 0.86851 0.19813 0.95827
 C1062 C 0.89465 0.18077 0.93851
 H1063 H 0.93950 0.18606 0.90486
 H1064 H 0.89577 0.28283 0.94536
 H1065 H 0.84986 0.24909 0.97613
 H1066 H 0.89450 0.15230 0.93609
 C1067 C 0.43373 0.70233 0.43584
 C1068 C 0.42924 0.73849 0.42711
 C1069 C 0.39879 0.75607 0.43954
 C1070 C 0.37244 0.73749 0.45746
 C1071 C 0.37603 0.70088 0.46424
 C1072 C 0.40754 0.68379 0.45421
 H1073 H 0.45683 0.68778 0.42764
 H1074 H 0.39471 0.78421 0.43493
 H1075 H 0.34867 0.75173 0.46472
 H1076 H 0.41176 0.65582 0.45995
 C1077 C 0.57424 0.76006 0.42124
 C1078 C 0.54353 0.77980 0.42784
 C1079 C 0.54234 0.80359 0.45498
 C1080 C 0.57198 0.80890 0.47425
 C1081 C 0.60381 0.79133 0.46606
 C1082 C 0.60427 0.76596 0.44001
 H1083 H 0.57559 0.74174 0.40016
 H1084 H 0.51869 0.81885 0.46055
 H1085 H 0.57020 0.82775 0.49482
 H1086 H 0.62824 0.75210 0.43273
 C1087 C 0.03163 0.30319 -0.04297
 C1088 C 0.03375 0.28010 -0.07068
 C1089 C 0.06473 0.26072 -0.07698
 C1090 C 0.09425 0.26654 -0.05746
 C1091 C 0.09294 0.29147 -0.03101
 C1092 C 0.06076 0.30842 -0.02298
 H1093 H 0.00773 0.31812 -0.03762
 H1094 H 0.06677 0.24291 -0.09847
 H1095 H 0.11854 0.25317 -0.06458
 H1096 H 0.05842 0.32693 -0.00213
 C1097 C 0.42695 0.29552 0.05476
 C1098 C 0.43488 0.26991 0.08064
 C1099 C 0.40960 0.24513 0.09117
 C1100 C 0.37592 0.24784 0.07811
 C1101 C 0.36737 0.27482 0.05371
 C1102 C 0.39356 0.29772 0.04112
 H1103 H 0.44606 0.31497 0.04646
 H1104 H 0.41505 0.22537 0.11137
 H1105 H 0.35608 0.23000 0.08825
 H1106 H 0.38748 0.31901 0.02264
 C1107 C 0.92554 0.74463 0.58485
 C1108 C 0.94623 0.77517 0.58381
 C1109 C 0.93427 0.80528 0.56480
 C1110 C 0.90177 0.80580 0.54945
 C1111 C 0.87999 0.77657 0.55335
 C1112 C 0.89231 0.74569 0.57048
 H1113 H 0.93323 0.72097 0.59949
 H1114 H 0.94975 0.82895 0.56248
 H1115 H 0.89264 0.82994 0.53640
 H1116 H 0.87565 0.72297 0.57395
   
