data_POSCAR
  _audit_creation_date              2014-09-24
  _audit_creation_method            'ToBaCCo'
  _symmetry_space_group_name_H-M    'P1'
  _symmetry_Int_Tables_number       1
  _symmetry_cell_setting            triclinic
  loop_
  _symmetry_equiv_pos_as_xyz
 x,y,z
_cell_length_a 25.8590
_cell_length_b 27.3214
_cell_length_c 25.0164
_cell_angle_alpha 89.913400
_cell_angle_beta 92.547400
_cell_angle_gamma 88.744600
loop_
  _atom_site_label
  _atom_site_type_symbol
  _atom_site_fract_x
  _atom_site_fract_y
  _atom_site_fract_z
N1 N 0.20271 0.20478 0.22345
 N2 N -0.18363 0.82282 0.13574
 N3 N -0.15673 0.18274 -0.16863
 N4 N 0.20674 0.78403 -0.19203
 N5 N 0.18785 1.20349 0.80410
 N6 N 0.79835 0.80133 0.79710
 N7 N 0.19885 0.78988 1.18487
 N8 N 0.79708 1.21654 1.19576
 N9 N 0.53794 1.06752 1.10003
 N10 N 0.57417 1.06925 1.13844
 N11 N 0.43825 1.10488 1.03645
 N12 N 0.40169 1.13943 1.03466
 N13 N 0.43157 1.07434 1.07587
 N14 N 0.39036 1.08714 1.10212
 N15 N 0.54550 1.09997 1.06262
 N16 N 0.58751 1.12511 1.07496
 C17 C 0.60449 1.10541 1.12261
 C18 C 0.37203 1.12762 1.07576
 N19 N 0.46582 1.06091 0.88998
 N20 N 0.43120 1.06411 0.84965
 N21 N 0.56524 1.09280 0.95106
 N22 N 0.60024 1.12662 0.94715
 N23 N 0.57325 1.05670 0.91744
 N24 N 0.61473 1.06570 0.88961
 N25 N 0.45841 1.09635 0.92446
 N26 N 0.41819 1.12427 0.90870
 Mn27 Mn 0.50167 1.09900 0.99349
 C28 C 0.40194 1.10384 0.86173
 C29 C 0.63145 1.10931 0.90967
 N30 N 0.42588 0.97121 1.08307
 N31 N 0.38443 0.96932 1.11134
 N32 N 0.53627 0.92678 1.07408
 N33 N 0.57760 0.89926 1.08607
 N34 N 0.53269 0.96322 1.10791
 N35 N 0.57124 0.96091 1.14444
 N36 N 0.42875 0.93393 1.05028
 N37 N 0.38910 0.90475 1.05639
 Mn38 Mn 0.48211 1.01906 1.09210
 C39 C 0.36164 0.92811 1.09431
 C40 C 0.59861 0.92055 1.13038
 N41 N 0.56661 0.94874 0.92471
 N42 N 0.60803 0.93333 0.89969
 N43 N 0.44973 0.92554 0.93711
 N44 N 0.40873 0.89926 0.92467
 N45 N 0.45938 0.95585 0.89804
 N46 N 0.42447 0.95124 0.85820
 N47 N 0.55644 0.91814 0.96331
 N48 N 0.59127 0.88217 0.96659
 Mn49 Mn 0.51685 1.00544 0.90678
 Mn50 Mn 0.49246 0.92556 1.00612
 Cl51 Cl 0.49842 1.01222 0.99938
 C52 C 0.62318 0.89195 0.92687
 C53 C 0.39349 0.91550 0.87523
 N54 N -0.03070 0.45530 -0.10412
 N55 N -0.02592 0.41594 -0.13420
 N56 N -0.07344 0.55937 -0.07559
 N57 N -0.10132 0.59867 -0.09035
 N58 N -0.02886 0.55858 -0.09881
 N59 N -0.02511 0.59738 -0.12982
 N60 N -0.07529 0.45572 -0.08087
 N61 N -0.10163 0.41620 -0.09402
 C62 C -0.07052 0.39206 -0.12779
 C63 C -0.07057 0.62199 -0.12426
 N64 N -0.08038 0.54996 0.08141
 N65 N -0.09720 0.58272 0.11531
 N66 N -0.10630 0.45211 0.02748
 N67 N -0.13773 0.41513 0.01985
 N68 N -0.08142 0.44836 0.07425
 N69 N -0.09548 0.40903 0.09997
 N70 N -0.10416 0.55521 0.03420
 N71 N -0.13739 0.59275 0.03451
 Mn72 Mn -0.09050 0.50584 -0.02402
 C73 C -0.13223 0.60928 0.08557
 C74 C -0.13064 0.38879 0.06547
 N75 N 0.07829 0.55309 -0.06158
 N76 N 0.09402 0.59099 -0.08881
 N77 N 0.10158 0.44791 -0.01975
 N78 N 0.13471 0.41050 -0.01735
 N79 N 0.07682 0.45003 -0.06673
 N80 N 0.09238 0.41380 -0.09753
 N81 N 0.10233 0.55068 -0.01423
 N82 N 0.13495 0.58700 -0.00795
 Mn83 Mn 0.02401 0.50422 -0.08350
 C84 C 0.12941 0.61175 -0.05486
 C85 C 0.12848 0.38950 -0.06600
 N86 N 0.02511 0.44320 0.11148
 N87 N 0.02172 0.40495 0.14322
 N88 N 0.07084 0.54583 0.09488
 N89 N 0.09826 0.58364 0.11075
 N90 N 0.02614 0.54607 0.11780
 N91 N 0.02173 0.58444 0.14949
 N92 N 0.07003 0.44321 0.08907
 N93 N 0.09866 0.40490 0.10519
 Mn94 Mn -0.02773 0.49679 0.09671
 Mn95 Mn 0.08679 0.49693 0.03770
 Cl96 Cl -0.00184 0.50102 0.00663
 C97 C 0.06783 0.38147 0.13895
 C98 C 0.06735 0.60711 0.14518
 N99 N 0.89807 -0.03864 0.42159
 N100 N 0.87209 -0.03209 0.37559
 N101 N 0.91235 -0.08730 0.53514
 N102 N 0.89867 -0.11368 0.57640
 N103 N 0.88584 -0.04575 0.53246
 N104 N 0.85378 -0.04260 0.57189
 N105 N 0.92273 -0.08120 0.42296
 N106 N 0.91418 -0.10478 0.37733
 C107 C 0.88220 -0.07358 0.34847
 C108 C 0.86177 -0.08525 0.59861
 N109 N 1.06476 -0.09203 0.55487
 N110 N 1.09204 -0.10795 0.59729
 N111 N 1.03020 -0.11005 0.43774
 N112 N 1.03452 -0.14428 0.40102
 N113 N 1.07310 -0.08525 0.44332
 N114 N 1.10758 -0.10182 0.40979
 N115 N 1.02106 -0.11550 0.54902
 N116 N 1.01760 -0.14827 0.58766
 Mn117 Mn 0.97128 -0.09916 0.48637
 C118 C 1.06236 -0.14304 0.61735
 C119 C 1.08249 -0.13824 0.38328
 N120 N 0.91141 0.05451 0.54371
 N121 N 0.87585 0.06516 0.57792
 N122 N 0.96708 0.08679 0.44429
 N123 N 0.97180 0.12281 0.40985
 N124 N 0.92410 0.06322 0.43409
 N125 N 0.89763 0.08341 0.39306
 N126 N 0.95449 0.07737 0.55564
 N127 N 0.94929 0.10420 0.59934
 Mn128 Mn 0.90445 0.00831 0.48254
 C129 C 0.89971 0.09583 0.61242
 C130 C 0.92828 0.12032 0.37824
 N131 N 1.09936 0.01712 0.45587
 N132 N 1.13277 0.01747 0.41749
 N133 N 1.06352 0.05005 0.56830
 N134 N 1.07831 0.07746 0.60919
 N135 N 1.09107 0.00911 0.56761
 N136 N 1.12505 0.00743 0.60881
 N137 N 1.07387 0.05916 0.45772
 N138 N 1.08918 0.08923 0.42056
 Mn139 Mn 1.08271 -0.03791 0.50522
 Mn140 Mn 1.01486 0.06884 0.50690
 Cl141 Cl 0.99346 -0.01502 0.49526
 C142 C 1.12614 0.06280 0.39609
 C143 C 1.11635 0.05033 0.63446
 C144 C 1.17584 0.18846 0.26940
 C145 C 1.17632 0.14147 0.28472
 C146 C 1.14867 0.12576 0.33167
 C147 C 1.15407 0.07992 0.35004
 H148 H 1.19688 0.11397 0.26228
 H149 H 1.12393 0.15194 0.35149
 H150 H 1.15384 0.21504 0.29178
 H151 H 1.17963 0.05410 0.33080
 C152 C 0.84086 -0.17168 0.18830
 C153 C 0.84237 -0.12855 0.21324
 C154 C 0.86649 -0.12358 0.26741
 C155 C 0.86126 -0.08149 0.29371
 H156 H 0.82485 -0.09646 0.19370
 H157 H 0.88714 -0.15446 0.28623
 H158 H 0.86062 -0.20311 0.20704
 H159 H 0.83944 -0.05133 0.27479
 C160 C 0.87872 0.16815 0.79121
 C161 C 0.86074 0.14944 0.74511
 C162 C 0.89433 0.13559 0.70128
 C163 C 0.87215 0.11626 0.65741
 H164 H 0.81932 0.14465 0.73945
 H165 H 0.93595 0.13936 0.70540
 H166 H 0.91962 0.17540 0.79714
 H167 H 0.83052 0.11171 0.65540
 C168 C 1.18947 -0.19238 0.75837
 C169 C 1.14020 -0.19344 0.73925
 C170 C 1.12448 -0.16743 0.68938
 C171 C 1.07711 -0.17122 0.66610
 H172 H 1.11127 -0.21248 0.76080
 H173 H 1.15257 -0.14437 0.67136
 H174 H 1.21718 -0.17265 0.73583
 H175 H 1.04905 -0.19502 0.68294
 C176 C 0.24725 1.17761 1.20598
 C177 C 0.26225 1.17968 1.15559
 C178 C 0.30668 1.15006 1.13900
 C179 C 0.32698 1.15676 1.09151
 H180 H 0.24140 1.20272 1.12627
 H181 H 0.32366 1.12289 1.16657
 H182 H 0.26848 1.15369 1.23423
 H183 H 0.31142 1.18506 1.06457
 C184 C 0.25303 0.80020 0.83709
 C185 C 0.27356 0.84436 0.82968
 C186 C 0.32116 0.85927 0.85956
 C187 C 0.34701 0.89873 0.84490
 H188 H 0.25534 0.87029 0.80166
 H189 H 0.33534 0.83756 0.89367
 H190 H 0.27236 0.77557 0.86592
 H191 H 0.33385 0.91936 0.80965
 C192 C 0.77111 0.85004 1.11646
 C193 C 0.73423 0.86534 1.14877
 C194 C 0.68423 0.88337 1.12571
 C195 C 0.64892 0.90552 1.15520
 H196 H 0.73934 0.86151 1.19177
 H197 H 0.67589 0.87793 1.08325
 H198 H 0.76359 0.85251 1.07349
 H199 H 0.65763 0.91403 1.19688
 C200 C 0.80535 1.14766 0.84655
 C201 C 0.75759 1.16102 0.85996
 C202 C 0.71777 1.12461 0.87196
 C203 C 0.67237 1.14040 0.88955
 H204 H 0.74733 1.19965 0.86150
 H205 H 0.72623 1.08572 0.86885
 H206 H 0.81463 1.10896 0.84262
 H207 H 0.66635 1.17946 0.89495
 C208 C 0.18984 0.25172 0.19944
 C209 C 0.14150 0.26999 0.19655
 C210 C 0.12928 0.31624 0.16814
 C211 C 0.08161 0.33581 0.16757
 H212 H 0.11049 0.25006 0.21375
 H213 H 0.15948 0.33439 0.14744
 H214 H 0.21996 0.27161 0.18051
 H215 H 0.05172 0.31816 0.18920
 C216 C -0.15202 0.22991 -0.14256
 C217 C -0.12354 0.26572 -0.16241
 C218 C -0.11694 0.31366 -0.13591
 C219 C -0.08141 0.34440 -0.15287
 H220 H -0.10383 0.25976 -0.19921
 H221 H -0.13982 0.32319 -0.10202
 H222 H -0.17216 0.23661 -0.10612
 H223 H -0.05728 0.33331 -0.18527
 C224 C 0.18280 0.73886 -0.17754
 C225 C 0.18291 0.72182 -0.12730
 C226 C 0.15526 0.67666 -0.11544
 C227 C 0.15788 0.65634 -0.06674
 H228 H 0.20204 0.74155 -0.09483
 H229 H 0.13231 0.65966 -0.14735
 H230 H 0.16215 0.71855 -0.20867
 H231 H 0.18162 0.67249 -0.03493
 C232 C -0.16767 0.78285 0.10312
 C233 C -0.17707 0.73718 0.11770
 C234 C -0.16037 0.69489 0.08617
 C235 C -0.16055 0.65051 0.10804
 H236 H -0.19575 0.73109 0.15505
 H237 H -0.14334 0.70035 0.04782
 H238 H -0.15052 0.79026 0.06528
 H239 H -0.17366 0.64617 0.14832
 C240 C 1.16915 0.18166 0.75467
 C241 C 1.17100 0.13340 0.74515
 C242 C 1.14384 0.11427 0.69674
 C243 C 1.14640 0.06720 0.68219
 H244 H 1.18988 0.10829 0.77371
 H245 H 1.12038 0.13983 0.67231
 H246 H 1.14827 0.20521 0.72573
 H247 H 1.17094 0.04128 0.70487
 C248 C 0.82358 -0.18995 0.75062
 C249 C 0.82081 -0.14533 0.72257
 C250 C 0.84471 -0.13929 0.67412
 C251 C 0.83731 -0.09561 0.64560
 H252 H 0.80077 -0.11386 0.73862
 H253 H 0.86830 -0.16871 0.65830
 H254 H 0.84708 -0.21872 0.73350
 H255 H 0.81132 -0.06764 0.66059
 C256 C 1.17450 -0.17716 0.22202
 C257 C 1.15934 -0.19193 0.26975
 C258 C 1.13795 -0.15678 0.30814
 C259 C 1.10570 -0.17171 0.34465
 H260 H 1.16286 -0.23021 0.28095
 H261 H 1.14718 -0.11836 0.30540
 H262 H 1.16966 -0.13876 0.21178
 H263 H 1.09327 -0.20935 0.34425
 C264 C 0.80957 0.18944 0.24110
 C265 C 0.85910 0.18619 0.26597
 C266 C 0.86893 0.15432 0.30891
 C267 C 0.91690 0.15278 0.33632
 H268 H 0.89090 0.20658 0.25112
 H269 H 0.83852 0.13077 0.32163
 H270 H 0.78038 0.16767 0.25893
 H271 H 0.94610 0.17868 0.32614
 C272 C 0.15970 0.24674 -0.17935
 C273 C 0.17637 0.27626 -0.13983
 C274 C 0.14593 0.32031 -0.12584
 C275 C 0.15820 0.34578 -0.08178
 H276 H 0.21255 0.26854 -0.11773
 H277 H 0.11267 0.33150 -0.15124
 H278 H 0.12352 0.25648 -0.20081
 H279 H 0.19038 0.33356 -0.05549
 C280 C -0.17322 0.25550 0.18267
 C281 C -0.17623 0.27841 0.13247
 C282 C -0.14935 0.32081 0.12345
 C283 C -0.15599 0.34567 0.07494
 H284 H -0.19946 0.26349 0.09960
 H285 H -0.12434 0.33546 0.15522
 H286 H -0.14599 0.27028 0.21228
 H287 H -0.18232 0.33187 0.04383
 C288 C -0.18843 0.76029 -0.17259
 C289 C -0.14073 0.73470 -0.17486
 C290 C -0.13041 0.69122 -0.14632
 C291 C -0.08309 0.66603 -0.15064
 H292 H -0.11030 0.74895 -0.19838
 H293 H -0.15967 0.67651 -0.12143
 H294 H -0.21547 0.74616 -0.14491
 H295 H -0.05446 0.68083 -0.17624
 C296 C 0.18657 0.73890 0.18064
 C297 C 0.13849 0.72272 0.18433
 C298 C 0.12693 0.67231 0.16812
 C299 C 0.07946 0.65445 0.16991
 H300 H 0.10728 0.74744 0.19493
 H301 H 0.15755 0.65011 0.15145
 H302 H 0.21637 0.71364 0.16747
 H303 H 0.04868 0.67566 0.18749
 C304 C 0.23110 1.18345 0.83625
 C305 C 0.27308 1.16380 0.81452
 C306 C 0.31851 1.14792 0.84844
 C307 C 0.35661 1.12072 0.82852
 H308 H 0.27445 1.16044 0.77146
 H309 H 0.32040 1.15791 0.89041
 H310 H 0.23087 1.18706 0.87937
 H311 H 0.35345 1.10858 0.78730
 C312 C 0.23661 0.80652 1.14844
 C313 C 0.25737 0.85074 1.15146
 C314 C 0.29813 0.86547 1.11581
 C315 C 0.31565 0.91076 1.11984
 H316 H 0.24603 0.87629 1.18196
 H317 H 0.31544 0.83923 1.08910
 H318 H 0.24987 0.78153 1.11800
 H319 H 0.29795 0.93606 1.14738
 C320 C 0.75213 1.20747 1.16622
 C321 C 0.72507 1.16396 1.16928
 C322 C 0.67917 1.15706 1.13961
 C323 C 0.64946 1.11712 1.15118
 H324 H 0.73953 1.13415 1.19463
 H325 H 0.66571 1.18345 1.10939
 H326 H 0.73569 1.23487 1.13871
 H327 H 0.66090 1.09409 1.18526
 C328 C 0.75675 0.83100 0.80987
 C329 C 0.73358 0.83185 0.85958
 C330 C 0.69257 0.86462 0.86903
 C331 C 0.66517 0.86129 0.91559
 H332 H 0.74732 0.80785 0.89180
 H333 H 0.68054 0.89163 0.83892
 H334 H 0.73969 0.85615 0.78030
 H335 H 0.67474 0.83159 0.94336
   
