data_POSCAR
  _audit_creation_date              2014-09-24
  _audit_creation_method            'ToBaCCo'
  _symmetry_space_group_name_H-M    'P1'
  _symmetry_Int_Tables_number       1
  _symmetry_cell_setting            triclinic
  loop_
  _symmetry_equiv_pos_as_xyz
 x,y,z
_cell_length_a 18.1482
_cell_length_b 15.4642
_cell_length_c 16.1974
_cell_angle_alpha 89.104000
_cell_angle_beta 89.205500
_cell_angle_gamma 90.895000
loop_
  _atom_site_label
  _atom_site_type_symbol
  _atom_site_fract_x
  _atom_site_fract_y
  _atom_site_fract_z
O1 O 0.10018 0.13835 0.15912
 O2 O 0.18132 0.06424 0.07774
 C3 C 0.16641 0.11743 0.13677
 O4 O -0.11845 -0.16926 0.13573
 O5 O -0.19239 -0.07748 0.06240
 C6 C -0.18301 -0.14347 0.11061
 O7 O 0.09424 -0.15933 0.15292
 O8 O 0.17835 -0.08029 0.07414
 C9 C 0.16180 -0.13656 0.13169
 O10 O -0.10340 0.15129 0.14821
 O11 O -0.18616 0.07456 0.07120
 C12 C -0.16980 0.13212 0.12566
 Zr13 Zr -0.00229 0.09986 0.11009
 O14 O -0.01269 0.08919 0.24023
 O15 O 0.00955 0.23588 0.11721
 Zr16 Zr -0.00942 -0.11779 0.10513
 O17 O -0.01849 -0.11507 0.23521
 O18 O -0.00432 -0.25440 0.10726
 O19 O 0.05983 -0.01108 0.12381
 O20 O -0.07101 -0.00807 0.12157
 O21 O -0.09907 0.16110 -0.14052
 O22 O -0.18397 0.07749 -0.06829
 C23 C -0.16634 0.13856 -0.12096
 O24 O 0.09889 -0.15023 -0.15083
 O25 O 0.18063 -0.07817 -0.06882
 C26 C 0.16525 -0.13071 -0.12819
 O27 O -0.10585 -0.15333 -0.14509
 O28 O -0.18725 -0.07189 -0.07120
 C29 C -0.17194 -0.13034 -0.12492
 O30 O 0.10513 0.14884 -0.14601
 O31 O 0.18378 0.06776 -0.06809
 C32 C 0.17040 0.12471 -0.12547
 Zr33 Zr 0.00163 0.11028 -0.09833
 O34 O -0.00338 0.12170 -0.22846
 O35 O 0.01383 0.24626 -0.08906
 Zr36 Zr -0.00328 -0.10803 -0.10369
 O37 O -0.00877 -0.10226 -0.23420
 O38 O 0.00142 -0.24472 -0.10606
 Zr39 Zr 0.10664 -0.00588 0.00386
 Zr40 Zr -0.11293 -0.00085 0.00125
 O41 O -0.06418 0.00287 -0.11732
 O42 O 0.06508 0.00055 -0.11684
 O43 O -0.06549 0.12405 0.00558
 O44 O 0.05733 -0.12998 0.00133
 O45 O 0.06429 0.11981 0.00670
 O46 O -0.07216 -0.12799 -0.00111
 H47 H -0.10656 -0.01001 0.16860
 H48 H 0.08937 -0.18127 0.00085
 H49 H -0.09582 0.00532 -0.16664
 H50 H 0.09909 0.16977 0.00790
 H51 H -0.03943 -0.27561 0.06578
 H52 H -0.04154 -0.26804 -0.07422
 H53 H 0.03479 -0.06891 -0.25495
 H54 H 0.02882 0.07688 -0.25161
 H55 H -0.03235 0.26868 -0.06498
 H56 H -0.02407 0.26151 0.07638
 H57 H 0.02422 0.04714 0.25928
 H58 H -0.02093 -0.17637 0.25387
 O59 O 0.60328 0.65213 0.64811
 O60 O 0.68641 0.57722 0.57018
 C61 C 0.66982 0.63099 0.62778
 O62 O 0.39922 0.34327 0.63912
 O63 O 0.31839 0.42505 0.56456
 C64 C 0.33330 0.36500 0.61843
 O65 O 0.60370 0.35456 0.64850
 O66 O 0.68682 0.43362 0.56921
 C67 C 0.67047 0.37782 0.62747
 O68 O 0.39950 0.65948 0.63972
 O69 O 0.31861 0.57665 0.56599
 C70 C 0.33335 0.63592 0.61959
 Zr71 Zr 0.50196 0.61292 0.59831
 O72 O 0.49289 0.61924 0.72844
 O73 O 0.50611 0.74919 0.58613
 Zr74 Zr 0.50180 0.39397 0.59942
 O75 O 0.49218 0.38691 0.72977
 O76 O 0.50514 0.25790 0.59008
 O77 O 0.56685 0.50407 0.61608
 O78 O 0.43788 0.50232 0.61424
 O79 O 0.40219 0.66277 0.35054
 O80 O 0.32020 0.57816 0.42685
 C81 C 0.33532 0.63819 0.37242
 O82 O 0.60663 0.35879 0.34420
 O83 O 0.68809 0.43537 0.42298
 C84 C 0.67277 0.38089 0.36535
 O85 O 0.40234 0.34658 0.35194
 O86 O 0.32013 0.42860 0.42429
 C87 C 0.33580 0.36857 0.37196
 O88 O 0.61481 0.66013 0.34767
 O89 O 0.69148 0.57934 0.42885
 C90 C 0.68024 0.63764 0.37271
 Zr91 Zr 0.50683 0.61609 0.39019
 O92 O 0.50261 0.61574 0.25963
 O93 O 0.51325 0.75281 0.38878
 Zr94 Zr 0.50441 0.39745 0.39185
 O95 O 0.49820 0.39849 0.26143
 O96 O 0.51101 0.26087 0.39405
 Zr97 Zr 0.61362 0.50578 0.49636
 Zr98 Zr 0.39362 0.50364 0.49509
 O99 O 0.44169 0.50633 0.37584
 O100 O 0.57179 0.50739 0.37539
 O101 O 0.43833 0.63037 0.49387
 O102 O 0.56763 0.38032 0.49596
 O103 O 0.56883 0.63065 0.49532
 O104 O 0.43693 0.37820 0.49559
 H105 H 0.40451 0.50115 0.66319
 H106 H 0.60102 0.33021 0.49624
 H107 H 0.40931 0.50621 0.32710
 H108 H 0.60235 0.68180 0.49637
 H109 H 0.50467 0.23477 0.64749
 H110 H 0.47391 0.23870 0.43478
 H111 H 0.53605 0.44006 0.24006
 H112 H 0.54816 0.58850 0.23913
 H113 H 0.47683 0.77297 0.42994
 H114 H 0.50648 0.77167 0.64308
 H115 H 0.52356 0.57270 0.75145
 H116 H 0.52921 0.42744 0.75226
 C117 C 0.22907 0.15803 0.17970
 C118 C 0.21977 0.21848 0.23730
 C119 C 0.28325 0.26086 0.27697
 C120 C 0.27358 0.32339 0.33240
 H121 H 0.16470 0.23821 0.25466
 H122 H 0.33840 0.24124 0.25984
 H123 H 0.28432 0.13919 0.16213
 H124 H 0.21819 0.34264 0.34893
 C125 C 0.74728 0.80765 0.12896
 C126 C 0.72868 0.75697 0.19372
 C127 C 0.77611 0.73959 0.26342
 C128 C 0.75490 0.68626 0.33802
 H129 H 0.67361 0.72850 0.19508
 H130 H 0.75425 0.70900 0.30065
 H131 H 0.70401 0.81744 0.08440
 H132 H 0.80014 0.67027 0.38990
 C133 C 0.77278 0.18310 0.83770
 C134 C 0.78402 0.24179 0.77699
 C135 C 0.72145 0.28162 0.73451
 C136 C 0.73215 0.33829 0.67197
 H137 H 0.83963 0.25952 0.75730
 H138 H 0.66593 0.26353 0.75428
 H139 H 0.71690 0.16524 0.85627
 H140 H 0.78783 0.35618 0.65266
 C141 C 0.22740 0.82897 0.82772
 C142 C 0.21741 0.77413 0.76526
 C143 C 0.28051 0.73462 0.72245
 C144 C 0.27080 0.67783 0.66153
 H145 H 0.16217 0.75775 0.74549
 H146 H 0.33571 0.75173 0.74186
 H147 H 0.28285 0.84491 0.84709
 H148 H 0.21544 0.66033 0.64299
 C149 C 0.23287 0.16482 0.82904
 C150 C 0.22176 0.22004 0.76609
 C151 C 0.28338 0.26175 0.72122
 C152 C 0.27166 0.31956 0.66060
 H153 H 0.16630 0.23575 0.74756
 H154 H 0.33896 0.24612 0.73937
 H155 H 0.28839 0.14887 0.84710
 H156 H 0.21592 0.33549 0.64336
 C157 C 0.76663 0.82726 0.83337
 C158 C 0.77875 0.76823 0.77569
 C159 C 0.71769 0.72760 0.73246
 C160 C 0.73043 0.67100 0.67274
 H161 H 0.83447 0.75013 0.75915
 H162 H 0.66185 0.74496 0.74924
 H163 H 0.71083 0.84542 0.84944
 H164 H 0.78645 0.65419 0.65619
 C165 C 0.21954 0.82867 0.17028
 C166 C 0.21452 0.76855 0.23522
 C167 C 0.27856 0.73719 0.27165
 C168 C 0.27425 0.67593 0.33549
 H169 H 0.16091 0.74585 0.25757
 H170 H 0.33215 0.75976 0.24913
 H171 H 0.27433 0.84973 0.14993
 H172 H 0.22001 0.65381 0.35650
 C173 C 0.76963 0.17837 0.16512
 C174 C 0.78256 0.23885 0.22146
 C175 C 0.72174 0.28244 0.26264
 C176 C 0.73412 0.34025 0.32162
 H177 H 0.83847 0.25563 0.23859
 H178 H 0.66591 0.26553 0.24526
 H179 H 0.71356 0.16191 0.14837
 H180 H 0.79002 0.35676 0.33896
   
