data_POSCAR
  _audit_creation_date              2014-09-24
  _audit_creation_method            'ToBaCCo'
  _symmetry_space_group_name_H-M    'P1'
  _symmetry_Int_Tables_number       1
  _symmetry_cell_setting            triclinic
  loop_
  _symmetry_equiv_pos_as_xyz
 x,y,z
_cell_length_a 45.3375
_cell_length_b 46.3703
_cell_length_c 50.0644
_cell_angle_alpha 90.317900
_cell_angle_beta 89.408700
_cell_angle_gamma 89.006600
loop_
  _atom_site_label
  _atom_site_type_symbol
  _atom_site_fract_x
  _atom_site_fract_y
  _atom_site_fract_z
C1 C -0.08644 0.32825 0.01014
 C2 C -0.06950 0.32830 0.03357
 C3 C -0.03856 0.32649 0.03092
 C4 C -0.02461 0.32243 0.00583
 C5 C -0.04251 0.32099 -0.01699
 C6 C -0.07343 0.32473 -0.01537
 C7 C 0.00846 0.31928 0.00347
 C8 C 0.02343 0.32504 -0.02082
 C9 C 0.05404 0.32056 -0.02346
 C10 C 0.07029 0.31222 -0.00108
 C11 C 0.05630 0.30731 0.02350
 C12 C 0.02545 0.30995 0.02539
 H13 H -0.11020 0.32783 0.01192
 H14 H -0.02540 0.32928 0.04856
 H15 H -0.03224 0.31765 -0.03625
 H16 H 0.01170 0.33318 -0.03794
 H17 H 0.09388 0.30845 -0.00301
 H18 H 0.01499 0.30468 0.04417
 C19 C 0.41192 0.82227 0.51029
 C20 C 0.42834 0.81642 0.53326
 C21 C 0.45920 0.81835 0.53214
 C22 C 0.47381 0.82721 0.50867
 C23 C 0.45658 0.83397 0.48614
 C24 C 0.42586 0.83049 0.48648
 C25 C 0.50688 0.82767 0.50720
 C26 C 0.52175 0.82304 0.48266
 C27 C 0.55265 0.82248 0.48103
 C28 C 0.56905 0.82521 0.50446
 C29 C 0.55492 0.82897 0.52935
 C30 C 0.52394 0.83123 0.53038
 H31 H 0.38832 0.81892 0.51062
 H32 H 0.47165 0.81243 0.54962
 H33 H 0.46685 0.84167 0.46801
 H34 H 0.50947 0.81951 0.46458
 H35 H 0.59286 0.82300 0.50338
 H36 H 0.51333 0.83564 0.54944
 C37 C 1.07306 0.68110 0.00987
 C38 C 1.05810 0.69244 0.03262
 C39 C 1.02782 0.69941 0.03012
 C40 C 1.01245 0.69378 0.00645
 C41 C 1.02826 0.68270 -0.01574
 C42 C 1.05900 0.67756 -0.01495
 C43 C 0.97986 0.69948 0.00473
 C44 C 0.96668 0.70669 -0.01986
 C45 C 0.93595 0.70957 -0.02205
 C46 C 0.91837 0.70609 0.00083
 C47 C 0.93088 0.70174 0.02602
 C48 C 0.96159 0.69747 0.02764
 H49 H 1.09545 0.67326 0.01182
 H50 H 1.01624 0.71047 0.04619
 H51 H 1.01640 0.67917 -0.03392
 H52 H 0.98021 0.71063 -0.03732
 H53 H 0.89461 0.70694 -0.00101
 H54 H 0.97122 0.69278 0.04680
 C55 C 0.56938 0.19566 0.50654
 C56 C 0.55215 0.20236 0.52929
 C57 C 0.52137 0.19986 0.52785
 C58 C 0.50781 0.18922 0.50468
 C59 C 0.52568 0.18279 0.48212
 C60 C 0.55632 0.18665 0.48271
 C61 C 0.47521 0.18458 0.50419
 C62 C 0.45948 0.18708 0.48017
 C63 C 0.42912 0.18164 0.47930
 C64 C 0.41437 0.17410 0.50296
 C65 C 0.42886 0.17380 0.52761
 C66 C 0.45949 0.17808 0.52784
 H67 H 0.59310 0.19776 0.50717
 H68 H 0.50799 0.20675 0.54478
 H69 H 0.51603 0.17436 0.46407
 H70 H 0.47061 0.19416 0.46222
 H71 H 0.39126 0.16877 0.50223
 H72 H 0.47097 0.17682 0.54658
 C73 C 0.71962 -0.06349 -0.00284
 C74 C 0.71303 -0.04842 0.02115
 C75 C 0.70953 -0.01808 0.01985
 C76 C 0.71450 -0.00284 -0.00404
 C77 C 0.72270 -0.01862 -0.02709
 C78 C 0.72434 -0.04879 -0.02687
 C79 C 0.71088 0.02938 -0.00505
 C80 C 0.70367 0.04334 -0.02913
 C81 C 0.70142 0.07366 -0.03086
 C82 C 0.70379 0.08980 -0.00703
 C83 C 0.71064 0.07648 0.01734
 C84 C 0.71495 0.04644 0.01791
 H85 H 0.72295 -0.08664 -0.00292
 H86 H 0.70159 -0.00637 0.03728
 H87 H 0.72748 -0.00761 -0.04557
 H88 H 0.69872 0.03050 -0.04652
 H89 H 0.70167 0.11301 -0.00737
 H90 H 0.72215 0.03652 0.03628
 C91 C 0.19323 0.40422 0.48795
 C92 C 0.19771 0.41786 0.51254
 C93 C 0.19861 0.44805 0.51365
 C94 C 0.19340 0.46505 0.49082
 C95 C 0.18858 0.45069 0.46632
 C96 C 0.18930 0.42040 0.46463
 C97 C 0.19367 0.49744 0.49273
 C98 C 0.19988 0.51455 0.47020
 C99 C 0.20067 0.54478 0.47219
 C100 C 0.19695 0.55802 0.49729
 C101 C 0.19154 0.54154 0.52014
 C102 C 0.18858 0.51159 0.51744
 H103 H 0.19402 0.38087 0.48683
 H104 H 0.20340 0.45803 0.53261
 H105 H 0.18400 0.46271 0.44837
 H106 H 0.20420 0.50465 0.45095
 H107 H 0.19946 0.58114 0.49915
 H108 H 0.18234 0.49959 0.53498
 C109 C 0.30419 1.05716 -0.00890
 C110 C 0.31423 1.04331 0.01417
 C111 C 0.31674 1.01320 0.01438
 C112 C 0.30718 0.99651 -0.00736
 C113 C 0.29576 1.01093 -0.02984
 C114 C 0.29497 1.04138 -0.03146
 C115 C 0.30847 0.96415 -0.00623
 C116 C 0.31107 0.94724 -0.02973
 C117 C 0.31162 0.91667 -0.02895
 C118 C 0.31210 0.90363 -0.00349
 C119 C 0.30941 0.91996 0.02006
 C120 C 0.30679 0.94998 0.01848
 H121 H 0.30401 1.08043 -0.00893
 H122 H 0.32624 1.00301 0.03175
 H123 H 0.28601 0.99833 -0.04551
 H124 H 0.31170 0.95822 -0.04858
 H125 H 0.31472 0.88057 -0.00147
 H126 H 0.30363 0.96216 0.03679
 C127 C 0.82602 0.58621 0.49562
 C128 C 0.83390 0.57179 0.51907
 C129 C 0.83400 0.54153 0.51943
 C130 C 0.82423 0.52553 0.49727
 C131 C 0.81481 0.54077 0.47445
 C132 C 0.81636 0.57098 0.47315
 C133 C 0.82312 0.49320 0.49808
 C134 C 0.82444 0.47682 0.47425
 C135 C 0.82179 0.44671 0.47455
 C136 C 0.81983 0.43256 0.49914
 C137 C 0.81954 0.44811 0.52323
 C138 C 0.82033 0.47838 0.52254
 H139 H 0.82667 0.60952 0.49518
 H140 H 0.84170 0.53076 0.53720
 H141 H 0.80537 0.52936 0.45781
 H142 H 0.82768 0.48725 0.45521
 H143 H 0.81736 0.40937 0.49957
 H144 H 0.81871 0.49012 0.54121
 O145 O 0.30552 0.23758 0.25487
 O146 O 0.25314 0.26407 0.20454
 O147 O 0.26653 0.27941 0.25313
 O148 O 0.29182 0.22217 0.20633
 O149 O 0.25839 0.19315 0.22304
 O150 O 0.23203 0.25079 0.26858
 O151 O 0.21939 0.23469 0.22013
 O152 O 0.27105 0.20965 0.27152
 Cu153 Cu 0.28267 0.25369 0.22811
 Cu154 Cu 0.24184 0.21913 0.24738
 C155 C 0.29701 0.21947 0.27213
 C156 C 0.22742 0.25369 0.20351
 C157 C 0.24501 0.27484 0.26895
 C158 C 0.27929 0.19787 0.20662
 O159 O 0.74828 0.80499 0.23173
 O160 O 0.77010 0.75691 0.28666
 O161 O 0.78753 0.76362 0.23747
 O162 O 0.73144 0.79776 0.28151
 O163 O 0.69927 0.76532 0.26902
 O164 O 0.75451 0.73283 0.22321
 O165 O 0.73872 0.72441 0.27259
 O166 O 0.71518 0.77360 0.21894
 Cu167 Cu 0.76256 0.78411 0.26054
 Cu168 Cu 0.72355 0.74597 0.24458
 C169 C 0.72817 0.79743 0.21577
 C170 C 0.75811 0.73249 0.28905
 C171 C 0.78050 0.74259 0.22262
 C172 C 0.70608 0.78672 0.28353
 O173 O 0.79775 0.24059 0.24411
 O174 O 0.74077 0.21459 0.29122
 O175 O 0.75701 0.20173 0.24213
 O176 O 0.78284 0.25203 0.29349
 O177 O 0.75127 0.28521 0.27947
 O178 O 0.72698 0.23554 0.22667
 O179 O 0.70955 0.24729 0.27577
 O180 O 0.76667 0.27438 0.23040
 Cu181 Cu 0.77263 0.22384 0.26922
 Cu182 Cu 0.73534 0.26386 0.25175
 C183 C 0.79185 0.26202 0.22917
 C184 C 0.71537 0.22667 0.29155
 C185 C 0.73821 0.21027 0.22517
 C186 C 0.77152 0.27721 0.29532
 O187 O 0.20566 0.75273 0.24041
 O188 O 0.25647 0.78240 0.29038
 O189 O 0.24243 0.79480 0.24118
 O190 O 0.21967 0.73991 0.28971
 O191 O 0.25515 0.71066 0.27495
 O192 O 0.27785 0.76547 0.22636
 O193 O 0.29183 0.75319 0.27527
 O194 O 0.24126 0.72361 0.22561
 Cu195 Cu 0.22749 0.77033 0.26700
 Cu196 Cu 0.27002 0.73520 0.24917
 C197 C 0.21507 0.73360 0.22400
 C198 C 0.28288 0.77282 0.29135
 C199 C 0.26375 0.78933 0.22516
 C200 C 0.23373 0.71602 0.29086
 O201 O 0.77523 0.28390 0.72151
 O202 O 0.74634 0.22874 0.76735
 O203 O 0.73576 0.24487 0.71817
 O204 O 0.78769 0.26676 0.76962
 O205 O 0.75501 0.29827 0.78570
 O206 O 0.70238 0.27593 0.73391
 O207 O 0.71363 0.26044 0.78302
 O208 O 0.74222 0.31524 0.73732
 Cu209 Cu 0.76450 0.25284 0.74266
 Cu210 Cu 0.72500 0.29060 0.76160
 C211 C 0.76326 0.30891 0.72129
 C212 C 0.72527 0.23536 0.78334
 C213 C 0.71054 0.25700 0.71677
 C214 C 0.78033 0.28607 0.78657
 O215 O 0.28420 0.71960 0.73313
 O216 O 0.23789 0.68647 0.78485
 O217 O 0.24543 0.67897 0.73314
 O218 O 0.27573 0.72728 0.78429
 O219 O 0.24057 0.75940 0.77591
 O220 O 0.21021 0.71099 0.72491
 O221 O 0.20227 0.71811 0.77657
 O222 O 0.24881 0.75151 0.72501
 Cu223 Cu 0.26429 0.69978 0.75959
 Cu224 Cu 0.22180 0.73811 0.74982
 C225 C 0.27447 0.74118 0.72019
 C226 C 0.21242 0.69701 0.78996
 C227 C 0.22297 0.68694 0.71991
 C228 C 0.26321 0.75155 0.78892
 O229 O 0.23305 0.27175 0.72539
 O230 O 0.25337 0.22243 0.77951
 O231 O 0.26986 0.22869 0.72968
 O232 O 0.21632 0.26516 0.77514
 O233 O 0.18210 0.23485 0.76258
 O234 O 0.23499 0.19947 0.71630
 O235 O 0.21964 0.19188 0.76627
 O236 O 0.19814 0.24221 0.71280
 Cu237 Cu 0.24660 0.25000 0.75374
 Cu238 Cu 0.20524 0.21408 0.73830
 C239 C 0.21242 0.26530 0.70958
 C240 C 0.23991 0.19885 0.78230
 C241 C 0.26130 0.20831 0.71471
 C242 C 0.19014 0.25594 0.77692
 O243 O 0.81232 0.76800 0.75453
 O244 O 0.75824 0.79666 0.70661
 O245 O 0.77294 0.80891 0.75621
 O246 O 0.79715 0.75425 0.70627
 O247 O 0.76438 0.72432 0.72263
 O248 O 0.73868 0.77943 0.77067
 O249 O 0.72514 0.76630 0.72160
 O250 O 0.77836 0.73933 0.77104
 Cu251 Cu 0.78834 0.78504 0.72916
 Cu252 Cu 0.74823 0.74933 0.74783
 C253 C 0.80430 0.74930 0.77143
 C254 C 0.73256 0.78621 0.70567
 C255 C 0.75207 0.80316 0.77241
 C256 C 0.78514 0.72968 0.70629
 C257 C 0.33450 0.08682 0.03749
 C258 C 0.33572 0.10477 0.05999
 C259 C 0.32223 0.09670 0.08402
 C260 C 0.30885 0.06964 0.08574
 C261 C 0.30774 0.05163 0.06331
 C262 C 0.31981 0.06039 0.03874
 N263 N 0.32031 0.11716 0.10557
 N264 N 0.30553 0.11217 0.12675
 C265 C 0.30169 0.13306 0.14775
 C266 C 0.28305 0.12662 0.16925
 C267 C 0.27637 0.14743 0.18878
 C268 C 0.28842 0.17512 0.18721
 C269 C 0.30801 0.18122 0.16608
 C270 C 0.31453 0.16040 0.14644
 H271 H 0.34433 0.09395 0.01891
 H272 H 0.34619 0.12551 0.05842
 H273 H 0.29832 0.06285 0.10410
 H274 H 0.29607 0.03151 0.06484
 H275 H 0.27297 0.10566 0.17043
 H276 H 0.26129 0.14199 0.20482
 H277 H 0.31765 0.20233 0.16429
 H278 H 0.32900 0.16589 0.12998
 C279 C 0.85441 0.61458 0.54324
 C280 C 0.85418 0.63301 0.56545
 C281 C 0.83834 0.62588 0.58855
 C282 C 0.82426 0.59914 0.58985
 C283 C 0.82457 0.58067 0.56773
 C284 C 0.83881 0.58863 0.54388
 N285 N 0.83457 0.64706 0.60930
 N286 N 0.81769 0.64281 0.62930
 C287 C 0.81179 0.66432 0.64935
 C288 C 0.79189 0.65804 0.66993
 C289 C 0.78354 0.67918 0.68861
 C290 C 0.79509 0.70708 0.68707
 C291 C 0.81568 0.71317 0.66674
 C292 C 0.82393 0.69197 0.64796
 H293 H 0.86586 0.62110 0.52523
 H294 H 0.86519 0.65351 0.56422
 H295 H 0.81193 0.59307 0.60751
 H296 H 0.81211 0.56098 0.56876
 H297 H 0.78232 0.63684 0.67113
 H298 H 0.76776 0.67372 0.70407
 H299 H 0.82498 0.73444 0.66503
 H300 H 0.83929 0.69734 0.63214
 C301 C 0.71784 0.95077 0.07027
 C302 C 0.71814 0.93570 0.09439
 C303 C 0.71111 0.90652 0.09515
 C304 C 0.70315 0.89254 0.07144
 C305 C 0.70313 0.90742 0.04720
 C306 C 0.71090 0.93681 0.04597
 N307 N 0.71370 0.89133 0.11992
 N308 N 0.70543 0.86539 0.12263
 C309 C 0.70954 0.84974 0.14698
 C310 C 0.69753 0.82227 0.14936
 C311 C 0.70279 0.80560 0.17209
 C312 C 0.72050 0.81607 0.19279
 C313 C 0.73210 0.84391 0.19057
 C314 C 0.72658 0.86065 0.16793
 H315 H 0.72487 0.97293 0.07075
 H316 H 0.72455 0.94670 0.11251
 H317 H 0.69743 0.86997 0.07154
 H318 H 0.69634 0.89576 0.02960
 H319 H 0.68444 0.81356 0.13335
 H320 H 0.69365 0.78421 0.17310
 H321 H 0.74582 0.85260 0.20614
 H322 H 0.73621 0.88179 0.16653
 C323 C 0.22309 0.40761 0.55590
 C324 C 0.22571 0.39200 0.57957
 C325 C 0.20674 0.36924 0.58500
 C326 C 0.18518 0.36196 0.56628
 C327 C 0.18257 0.37751 0.54255
 C328 C 0.20138 0.40062 0.53720
 N329 N 0.20999 0.35385 0.60953
 N330 N 0.19332 0.33316 0.61598
 C331 C 0.19708 0.31764 0.64039
 C332 C 0.17933 0.29387 0.64552
 C333 C 0.18365 0.27727 0.66843
 C334 C 0.20584 0.28430 0.68666
 C335 C 0.22303 0.30873 0.68184
 C336 C 0.21874 0.32523 0.65891
 H337 H 0.23814 0.42504 0.55215
 H338 H 0.24253 0.39768 0.59378
 H339 H 0.17029 0.34441 0.57002
 H340 H 0.16547 0.37185 0.52863
 H341 H 0.16252 0.28786 0.63143
 H342 H 0.17005 0.25860 0.67156
 H343 H 0.24030 0.31475 0.69547
 H344 H 0.23266 0.34360 0.65546
 C345 C 0.88824 0.34110 0.06304
 C346 C 0.87275 0.33767 0.08702
 C347 C 0.88472 0.32119 0.10761
 C348 C 0.91338 0.30961 0.10468
 C349 C 0.92923 0.31339 0.08084
 C350 C 0.91645 0.32825 0.05910
 N351 N 0.86648 0.31506 0.13033
 N352 N 0.87387 0.29698 0.14821
 C353 C 0.85422 0.29012 0.16982
 C354 C 0.86196 0.26797 0.18746
 C355 C 0.84203 0.25912 0.20722
 C356 C 0.81400 0.27242 0.20966
 C357 C 0.80671 0.29525 0.19242
 C358 C 0.82656 0.30398 0.17269
 H359 H 0.87794 0.35400 0.04766
 H360 H 0.85082 0.34708 0.08921
 H361 H 0.92314 0.29684 0.12044
 H362 H 0.95054 0.30268 0.07896
 H363 H 0.88319 0.25706 0.18544
 H364 H 0.84833 0.24151 0.22022
 H365 H 0.78536 0.30603 0.19375
 H366 H 0.82001 0.32118 0.15935
 C367 C 0.42446 0.78403 0.57317
 C368 C 0.40943 0.77471 0.59597
 C369 C 0.38295 0.78820 0.60403
 C370 C 0.37176 0.81151 0.58921
 C371 C 0.38674 0.82085 0.56643
 C372 C 0.41315 0.80709 0.55805
 N373 N 0.36744 0.77733 0.62679
 N374 N 0.34281 0.78814 0.63458
 C375 C 0.32680 0.77689 0.65687
 C376 C 0.29932 0.78920 0.66359
 C377 C 0.28246 0.77790 0.68444
 C378 C 0.29291 0.75403 0.69898
 C379 C 0.32080 0.74204 0.69250
 C380 C 0.33760 0.75333 0.67160
 H381 H 0.44453 0.77275 0.56702
 H382 H 0.41820 0.75664 0.60718
 H383 H 0.35134 0.82235 0.59507
 H384 H 0.37770 0.83888 0.55534
 H385 H 0.29078 0.80735 0.65236
 H386 H 0.26110 0.78766 0.68894
 H387 H 0.32949 0.72366 0.70333
 H388 H 0.35882 0.74346 0.66679
 C389 C 0.05777 0.69829 0.08200
 C390 C 0.07271 0.70244 0.10602
 C391 C 0.10338 0.70470 0.10619
 C392 C 0.11902 0.70336 0.08191
 C393 C 0.10420 0.69974 0.05783
 C394 C 0.07317 0.69680 0.05723
 N395 N 0.11819 0.70890 0.13104
 N396 N 0.14596 0.70500 0.13291
 C397 C 0.16182 0.71021 0.15700
 C398 C 0.19146 0.70154 0.15811
 C399 C 0.20839 0.70807 0.18042
 C400 C 0.19602 0.72385 0.20196
 C401 C 0.16599 0.73199 0.20110
 C402 C 0.14895 0.72509 0.17884
 H403 H 0.03424 0.69519 0.08337
 H404 H 0.06036 0.70336 0.12464
 H405 H 0.14274 0.70571 0.08145
 H406 H 0.11741 0.70042 0.03977
 H407 H 0.20163 0.69013 0.14138
 H408 H 0.23146 0.70161 0.18035
 H409 H 0.15584 0.74419 0.21736
 H410 H 0.12607 0.73211 0.17836
 C411 C 0.55470 0.20321 0.57959
 C412 C 0.56906 0.21032 0.60326
 C413 C 0.59564 0.22513 0.60242
 C414 C 0.60700 0.23412 0.57770
 C415 C 0.59233 0.22769 0.55409
 C416 C 0.56635 0.21151 0.55462
 N417 N 0.61138 0.22996 0.62663
 N418 N 0.63916 0.23327 0.62610
 C419 C 0.65605 0.23846 0.64953
 C420 C 0.68657 0.23400 0.64810
 C421 C 0.70404 0.23925 0.67028
 C422 C 0.69130 0.24978 0.69419
 C423 C 0.66061 0.25443 0.69564
 C424 C 0.64300 0.24848 0.67351
 H425 H 0.53499 0.19042 0.58086
 H426 H 0.56008 0.20328 0.62222
 H427 H 0.62727 0.24609 0.57666
 H428 H 0.60152 0.23528 0.53543
 H429 H 0.69683 0.22638 0.62968
 H430 H 0.72767 0.23579 0.66848
 H431 H 0.65029 0.26263 0.71382
 H432 H 0.61940 0.25224 0.67492
 C433 C 0.71026 0.07461 0.92040
 C434 C 0.71096 0.08969 0.89630
 C435 C 0.69969 0.11783 0.89486
 C436 C 0.68649 0.13044 0.91765
 C437 C 0.68593 0.11557 0.94185
 C438 C 0.69856 0.08758 0.94398
 N439 N 0.70390 0.13387 0.87076
 N440 N 0.69342 0.15931 0.86804
 C441 C 0.69935 0.17650 0.84498
 C442 C 0.68600 0.20381 0.84325
 C443 C 0.69359 0.22250 0.82261
 C444 C 0.71492 0.21423 0.80331
 C445 C 0.72758 0.18636 0.80454
 C446 C 0.71984 0.16761 0.82519
 H447 H 0.72095 0.05358 0.92066
 H448 H 0.72133 0.07975 0.87888
 H449 H 0.67728 0.15212 0.91699
 H450 H 0.67524 0.12617 0.95873
 H451 H 0.67026 0.21095 0.85842
 H452 H 0.68340 0.24379 0.82229
 H453 H 0.74406 0.17933 0.78999
 H454 H 0.73055 0.14660 0.82616
 C455 C 0.22736 0.55475 0.42899
 C456 C 0.23214 0.57196 0.40655
 C457 C 0.21540 0.59723 0.40279
 C458 C 0.19363 0.60512 0.42177
 C459 C 0.18890 0.58801 0.44423
 C460 C 0.20575 0.56268 0.44813
 N461 N 0.22132 0.61482 0.37998
 N462 N 0.20643 0.63773 0.37533
 C463 C 0.21260 0.65600 0.35306
 C464 C 0.19552 0.68110 0.34975
 C465 C 0.20192 0.70030 0.32916
 C466 C 0.22562 0.69465 0.31143
 C467 C 0.24232 0.66903 0.31442
 C468 C 0.23590 0.64987 0.33507
 H469 H 0.24091 0.53553 0.43161
 H470 H 0.24907 0.56572 0.39214
 H471 H 0.18038 0.62456 0.41935
 H472 H 0.17188 0.59448 0.45849
 H473 H 0.17750 0.68604 0.36348
 H474 H 0.18861 0.71980 0.32742
 H475 H 0.26073 0.66405 0.30113
 H476 H 0.24941 0.63056 0.33722
 C477 C 0.31800 0.91071 0.92174
 C478 C 0.31490 0.89417 0.89846
 C479 C 0.30527 0.86579 0.89985
 C480 C 0.29866 0.85401 0.92483
 C481 C 0.30096 0.87057 0.94803
 C482 C 0.31066 0.89948 0.94722
 N483 N 0.30078 0.84967 0.87577
 N484 N 0.29953 0.82227 0.87604
 C485 C 0.29269 0.80557 0.85286
 C486 C 0.27797 0.81782 0.83101
 C487 C 0.26872 0.80031 0.80994
 C488 C 0.27457 0.77044 0.81018
 C489 C 0.29018 0.75848 0.83166
 C490 C 0.29881 0.77589 0.85296
 H491 H 0.32676 0.93202 0.91928
 H492 H 0.32022 0.90350 0.87926
 H493 H 0.29054 0.83225 0.92636
 H494 H 0.29339 0.86063 0.96624
 H495 H 0.27275 0.84068 0.83067
 H496 H 0.25676 0.81007 0.79360
 H497 H 0.29478 0.73551 0.83246
 H498 H 0.30992 0.76619 0.86981
 C499 C 0.80133 0.44085 0.42854
 C500 C 0.79612 0.42403 0.40589
 C501 C 0.80848 0.39629 0.40350
 C502 C 0.82712 0.38584 0.42365
 C503 C 0.83241 0.40266 0.44631
 C504 C 0.81910 0.43014 0.44924
 N505 N 0.80049 0.37868 0.38122
 N506 N 0.80998 0.35285 0.37838
 C507 C 0.80096 0.33482 0.35675
 C508 C 0.81253 0.30673 0.35483
 C509 C 0.80318 0.28808 0.33472
 C510 C 0.78193 0.29725 0.31619
 C511 C 0.77057 0.32561 0.31799
 C512 C 0.78000 0.34426 0.33808
 H513 H 0.79047 0.46176 0.43033
 H514 H 0.78167 0.43228 0.39052
 H515 H 0.83707 0.36449 0.42219
 H516 H 0.84652 0.39398 0.46174
 H517 H 0.82862 0.29919 0.36914
 H518 H 0.81240 0.26639 0.33389
 H519 H 0.75425 0.33336 0.30398
 H520 H 0.77068 0.36589 0.33920
 C521 C 0.09698 0.33473 0.94760
 C522 C 0.11287 0.33254 0.92357
 C523 C 0.10118 0.31791 0.90168
 C524 C 0.07258 0.30682 0.90362
 C525 C 0.05659 0.30914 0.92759
 C526 C 0.06897 0.32240 0.95007
 N527 N 0.11965 0.31250 0.87872
 N528 N 0.11141 0.29681 0.85932
 C529 C 0.13050 0.28951 0.83723
 C530 C 0.12063 0.27011 0.81793
 C531 C 0.13972 0.25990 0.79778
 C532 C 0.16911 0.26907 0.79652
 C533 C 0.17863 0.28951 0.81528
 C534 C 0.15952 0.29959 0.83553
 H535 H 0.10693 0.34533 0.96451
 H536 H 0.13486 0.34123 0.92233
 H537 H 0.06302 0.29543 0.88696
 H538 H 0.03518 0.29920 0.92896
 H539 H 0.09835 0.26214 0.81906
 H540 H 0.13165 0.24425 0.78361
 H541 H 0.20111 0.29702 0.81486
 H542 H 0.16768 0.31462 0.85021
 C543 C 0.55789 0.79763 0.43651
 C544 C 0.57221 0.79377 0.41187
 C545 C 0.59654 0.81048 0.40511
 C546 C 0.60647 0.83126 0.42331
 C547 C 0.59223 0.83507 0.44800
 C548 C 0.56780 0.81828 0.45487
 N549 N 0.61141 0.80514 0.38016
 N550 N 0.63336 0.81986 0.37257
 C551 C 0.64915 0.81353 0.34827
 C552 C 0.67447 0.82912 0.34225
 C553 C 0.69232 0.82133 0.32037
 C554 C 0.68500 0.79777 0.30406
 C555 C 0.65871 0.78310 0.30935
 C556 C 0.64095 0.79086 0.33130
 H557 H 0.53937 0.78412 0.44139
 H558 H 0.56451 0.77754 0.39809
 H559 H 0.62531 0.84437 0.41857
 H560 H 0.60013 0.85133 0.46166
 H561 H 0.68097 0.84668 0.35515
 H562 H 0.71239 0.83312 0.31681
 H563 H 0.65245 0.76486 0.29719
 H564 H 0.62138 0.77855 0.33548
 C565 C 0.89649 0.73464 0.95164
 C566 C 0.88115 0.73911 0.92801
 C567 C 0.89104 0.72636 0.90417
 C568 C 0.91699 0.70935 0.90399
 C569 C 0.93217 0.70436 0.92784
 C570 C 0.92174 0.71656 0.95205
 N571 N 0.87336 0.73005 0.88092
 N572 N 0.88268 0.72489 0.85729
 C573 C 0.86321 0.72840 0.83515
 C574 C 0.87459 0.73604 0.81013
 C575 C 0.85551 0.74233 0.78904
 C576 C 0.82482 0.74012 0.79256
 C577 C 0.81361 0.73098 0.81729
 C578 C 0.83261 0.72547 0.83849
 H579 H 0.88829 0.74509 0.96970
 H580 H 0.86130 0.75244 0.92830
 H581 H 0.92491 0.69919 0.88570
 H582 H 0.95141 0.69020 0.92747
 H583 H 0.89815 0.73829 0.80730
 H584 H 0.86468 0.74929 0.77013
 H585 H 0.79006 0.72924 0.82059
 H586 H 0.82338 0.71926 0.85760
 C587 C 0.38315 0.19606 0.45485
 C588 C 0.36696 0.19891 0.43147
 C589 C 0.37966 0.19165 0.40677
 C590 C 0.40890 0.18116 0.40560
 C591 C 0.42503 0.17773 0.42911
 C592 C 0.41231 0.18512 0.45407
 N593 N 0.36215 0.19510 0.38340
 N594 N 0.37295 0.19495 0.35984
 C595 C 0.35418 0.19858 0.33723
 C596 C 0.36610 0.20826 0.31306
 C597 C 0.34764 0.21458 0.29155
 C598 C 0.31704 0.21060 0.29378
 C599 C 0.30536 0.19956 0.31765
 C600 C 0.32371 0.19385 0.33926
 H601 H 0.37283 0.20278 0.47351
 H602 H 0.34450 0.20720 0.43255
 H603 H 0.41905 0.17525 0.38663
 H604 H 0.44727 0.16891 0.42776
 H605 H 0.38956 0.21190 0.31122
 H606 H 0.35723 0.22292 0.27332
 H607 H 0.28188 0.19631 0.31998
 H608 H 0.31403 0.18610 0.35767
 C609 C 0.75272 0.94383 0.93016
 C610 C 0.75731 0.92940 0.90582
 C611 C 0.73963 0.90620 0.89874
 C612 C 0.71753 0.89716 0.91659
 C613 C 0.71307 0.91142 0.94100
 C614 C 0.73045 0.93506 0.94794
 N615 N 0.74464 0.89203 0.87354
 N616 N 0.72797 0.87208 0.86538
 C617 C 0.73297 0.85706 0.84064
 C618 C 0.71431 0.83450 0.83399
 C619 C 0.71982 0.81774 0.81117
 C620 C 0.74415 0.82336 0.79445
 C621 C 0.76222 0.84680 0.80057
 C622 C 0.75673 0.86351 0.82353
 H623 H 0.76662 0.96180 0.93512
 H624 H 0.77454 0.93645 0.89234
 H625 H 0.70364 0.87918 0.91166
 H626 H 0.69556 0.90441 0.95421
 H627 H 0.69590 0.82938 0.84697
 H628 H 0.70547 0.79987 0.80705
 H629 H 0.78120 0.85159 0.78817
 H630 H 0.77141 0.88094 0.82824
 C631 C 0.17152 0.38018 0.43549
 C632 C 0.17350 0.36391 0.41193
 C633 C 0.19201 0.37241 0.39098
 C634 C 0.20749 0.39829 0.39331
 C635 C 0.20538 0.41471 0.41680
 C636 C 0.18796 0.40541 0.43840
 N637 N 0.19627 0.35338 0.36857
 N638 N 0.21482 0.35832 0.34996
 C639 C 0.22022 0.33828 0.32847
 C640 C 0.24219 0.34421 0.30955
 C641 C 0.24980 0.32395 0.28972
 C642 C 0.23545 0.29733 0.28850
 C643 C 0.21275 0.29182 0.30706
 C644 C 0.20522 0.31206 0.32688
 H645 H 0.15771 0.37267 0.45171
 H646 H 0.16140 0.34405 0.41036
 H647 H 0.22191 0.40535 0.37736
 H648 H 0.21849 0.43392 0.41858
 H649 H 0.25396 0.36430 0.31059
 H650 H 0.26733 0.32890 0.27572
 H651 H 0.20121 0.27157 0.30667
 H652 H 0.18816 0.30693 0.34128
 C653 C 0.28668 0.04193 0.91962
 C654 C 0.27906 0.05675 0.89634
 C655 C 0.27042 0.08577 0.89755
 C656 C 0.26799 0.09953 0.92247
 C657 C 0.27500 0.08473 0.94579
 C658 C 0.28535 0.05575 0.94495
 N659 N 0.26482 0.10117 0.87336
 N660 N 0.26574 0.12857 0.87290
 C661 C 0.25989 0.14515 0.84950
 C662 C 0.26765 0.17418 0.84941
 C663 C 0.26178 0.19138 0.82726
 C664 C 0.24743 0.17991 0.80495
 C665 C 0.23958 0.15070 0.80503
 C666 C 0.24601 0.13333 0.82709
 H667 H 0.29510 0.02012 0.91720
 H668 H 0.28101 0.04589 0.87719
 H669 H 0.26051 0.12179 0.92395
 H670 H 0.27145 0.09623 0.96440
 H671 H 0.27828 0.18350 0.86662
 H672 H 0.26788 0.21385 0.82787
 H673 H 0.22849 0.14134 0.78809
 H674 H 0.23969 0.11092 0.82685
 C675 C 0.81362 0.57501 0.42301
 C676 C 0.80663 0.59055 0.39997
 C677 C 0.79411 0.61826 0.40198
 C678 C 0.78746 0.62988 0.42732
 C679 C 0.79380 0.61418 0.45032
 C680 C 0.80755 0.58676 0.44854
 N681 N 0.78860 0.63443 0.37820
 N682 N 0.78603 0.66180 0.37895
 C683 C 0.77983 0.67870 0.35578
 C684 C 0.78453 0.70840 0.35685
 C685 C 0.77815 0.72575 0.33488
 C686 C 0.76628 0.71370 0.31162
 C687 C 0.76146 0.68384 0.31058
 C688 C 0.76846 0.66639 0.33242
 H689 H 0.82446 0.55414 0.42081
 H690 H 0.81180 0.58133 0.38052
 H691 H 0.77724 0.65107 0.42934
 H692 H 0.78791 0.62361 0.46951
 H693 H 0.79318 0.71811 0.37480
 H694 H 0.78187 0.74872 0.33633
 H695 H 0.75232 0.67403 0.29289
 H696 H 0.76448 0.64346 0.33126
 C697 C 0.10605 0.67660 0.95945
 C698 C 0.12152 0.67342 0.93532
 C699 C 0.10705 0.66446 0.91220
 C700 C 0.07740 0.65711 0.91387
 C701 C 0.06194 0.65959 0.93811
 C702 C 0.07555 0.67057 0.96133
 N703 N 0.12133 0.66534 0.88658
 N704 N 0.14927 0.66611 0.88427
 C705 C 0.16376 0.67028 0.85910
 C706 C 0.19406 0.66452 0.85696
 C707 C 0.20961 0.67179 0.83379
 C708 C 0.19512 0.68564 0.81260
 C709 C 0.16452 0.69069 0.81447
 C710 C 0.14888 0.68282 0.83745
 H711 H 0.11797 0.68586 0.97589
 H712 H 0.14443 0.67957 0.93443
 H713 H 0.06606 0.64981 0.89620
 H714 H 0.03932 0.65267 0.93818
 H715 H 0.20580 0.65510 0.87360
 H716 H 0.23322 0.66786 0.83301
 H717 H 0.15283 0.70135 0.79844
 H718 H 0.12548 0.68775 0.83880
 C719 C 0.60259 0.16917 0.45921
 C720 C 0.62145 0.16907 0.43692
 C721 C 0.61291 0.18272 0.41330
 C722 C 0.58455 0.19534 0.41179
 C723 C 0.56559 0.19531 0.43401
 C724 C 0.57470 0.18287 0.45816
 N725 N 0.63404 0.18524 0.39195
 N726 N 0.62845 0.19963 0.37097
 C727 C 0.64989 0.20381 0.35017
 C728 C 0.64247 0.22171 0.32879
 C729 C 0.66353 0.22851 0.30936
 C730 C 0.69251 0.21735 0.31090
 C731 C 0.69966 0.19851 0.33189
 C732 C 0.67856 0.19187 0.35144
 H733 H 0.61005 0.15912 0.47746
 H734 H 0.64319 0.15918 0.43834
 H735 H 0.57737 0.20602 0.39374
 H736 H 0.54434 0.20622 0.43269
 H737 H 0.62047 0.23105 0.32758
 H738 H 0.65724 0.24295 0.29340
 H739 H 0.72178 0.18957 0.33365
 H740 H 0.68483 0.17796 0.36780
 C741 C 0.88116 0.33898 0.96082
 C742 C 0.86326 0.33791 0.93831
 C743 C 0.87224 0.32222 0.91572
 C744 C 0.89969 0.30777 0.91569
 C745 C 0.91770 0.30875 0.93814
 C746 C 0.90873 0.32419 0.96138
 N747 N 0.85274 0.32050 0.89347
 N748 N 0.85981 0.30657 0.87233
 C749 C 0.84017 0.30370 0.85031
 C750 C 0.84940 0.28714 0.82828
 C751 C 0.83018 0.28207 0.80724
 C752 C 0.80128 0.29361 0.80786
 C753 C 0.79232 0.31101 0.82966
 C754 C 0.81159 0.31598 0.85078
 H755 H 0.87352 0.35225 0.97742
 H756 H 0.84221 0.34933 0.93850
 H757 H 0.90702 0.29521 0.89850
 H758 H 0.93789 0.29602 0.93743
 H759 H 0.87137 0.27760 0.82770
 H760 H 0.83782 0.26866 0.79071
 H761 H 0.77019 0.32015 0.83073
 H762 H 0.80398 0.32889 0.86765
 C763 C 0.37992 0.84441 0.46145
 C764 C 0.36233 0.84243 0.43873
 C765 C 0.37305 0.82840 0.41569
 C766 C 0.40220 0.81758 0.41516
 C767 C 0.41982 0.81961 0.43780
 C768 C 0.40864 0.83242 0.46142
 N769 N 0.35341 0.82355 0.39391
 N770 N 0.36139 0.80877 0.37351
 C771 C 0.34178 0.80210 0.35218
 C772 C 0.35217 0.78430 0.33138
 C773 C 0.33317 0.77527 0.31133
 C774 C 0.30331 0.78403 0.31168
 C775 C 0.29309 0.80264 0.33220
 C776 C 0.31215 0.81155 0.35235
 H777 H 0.37081 0.85468 0.47926
 H778 H 0.33993 0.85093 0.43939
 H779 H 0.41106 0.80667 0.39759
 H780 H 0.44169 0.80985 0.43721
 H781 H 0.37494 0.77684 0.33107
 H782 H 0.34180 0.76105 0.29578
 H783 H 0.27023 0.80976 0.33303
 H784 H 0.30361 0.82531 0.36827
 C785 C 0.32883 0.88283 0.05192
 C786 C 0.32737 0.86825 0.07622
 C787 C 0.30598 0.87598 0.09540
 C788 C 0.28626 0.89895 0.09023
 C789 C 0.28767 0.91355 0.06591
 C790 C 0.30878 0.90542 0.04638
 N791 N 0.30389 0.85932 0.11930
 N792 N 0.28498 0.86507 0.13761
 C793 C 0.28202 0.84737 0.16079
 C794 C 0.26009 0.85432 0.17972
 C795 C 0.25481 0.83601 0.20128
 C796 C 0.27144 0.81035 0.20419
 C797 C 0.29420 0.80400 0.18566
 C798 C 0.29944 0.82232 0.16414
 H799 H 0.34559 0.87639 0.03741
 H800 H 0.34269 0.85059 0.08000
 H801 H 0.26942 0.90523 0.10471
 H802 H 0.27176 0.93068 0.06209
 H803 H 0.24652 0.87356 0.17735
 H804 H 0.23715 0.84154 0.21521
 H805 H 0.30743 0.78444 0.18734
 H806 H 0.31656 0.81649 0.14978
 C807 C 0.83505 0.40721 0.55267
 C808 C 0.83250 0.39133 0.57616
 C809 C 0.81288 0.40027 0.59640
 C810 C 0.79621 0.42585 0.59317
 C811 C 0.79877 0.44183 0.56964
 C812 C 0.81793 0.43243 0.54898
 N813 N 0.80929 0.38218 0.61926
 N814 N 0.79156 0.38853 0.63835
 C815 C 0.78703 0.36944 0.66038
 C816 C 0.76631 0.37716 0.68015
 C817 C 0.75932 0.35789 0.70055
 C818 C 0.77302 0.33045 0.70149
 C819 C 0.79464 0.32317 0.68215
 C820 C 0.80158 0.34247 0.66176
 H821 H 0.85031 0.39967 0.53727
 H822 H 0.84547 0.37169 0.57843
 H823 H 0.78079 0.43314 0.60853
 H824 H 0.78512 0.46102 0.56727
 H825 H 0.75494 0.39786 0.67932
 H826 H 0.74260 0.36420 0.71513
 H827 H 0.80560 0.30223 0.68230
 H828 H 0.81774 0.33600 0.64673
 C829 C 0.72624 0.12170 0.04108
 C830 C 0.72826 0.13858 0.06414
 C831 C 0.71866 0.12806 0.08879
 C832 C 0.70673 0.10036 0.09018
 C833 C 0.70416 0.08361 0.06701
 C834 C 0.71386 0.09408 0.04212
 N835 N 0.72115 0.14604 0.11195
 N836 N 0.71886 0.13633 0.13560
 C837 C 0.72133 0.15493 0.15837
 C838 C 0.72886 0.14305 0.18307
 C839 C 0.73376 0.16099 0.20508
 C840 C 0.73037 0.19106 0.20284
 C841 C 0.72145 0.20281 0.17835
 C842 C 0.71726 0.18493 0.15621
 H843 H 0.73465 0.13026 0.02249
 H844 H 0.73766 0.15985 0.06288
 H845 H 0.69897 0.09188 0.10904
 H846 H 0.69410 0.06267 0.06854
 H847 H 0.73193 0.11995 0.18500
 H848 H 0.74054 0.15139 0.22377
 H849 H 0.71883 0.22592 0.17604
 H850 H 0.71116 0.19455 0.13736
 C851 C 0.20645 0.54174 0.56817
 C852 C 0.20873 0.55545 0.59295
 C853 C 0.19595 0.58276 0.59724
 C854 C 0.18012 0.59604 0.57652
 C855 C 0.17789 0.58237 0.55162
 C856 C 0.19135 0.55519 0.54709
 N857 N 0.20094 0.59706 0.62218
 N858 N 0.18960 0.62164 0.62797
 C859 C 0.19625 0.63633 0.65240
 C860 C 0.18253 0.66298 0.65793
 C861 C 0.19039 0.67899 0.68044
 C862 C 0.21235 0.66863 0.69777
 C863 C 0.22546 0.64144 0.69259
 C864 C 0.21746 0.62540 0.67015
 H865 H 0.21747 0.52104 0.56523
 H866 H 0.22113 0.54508 0.60869
 H867 H 0.17006 0.61720 0.57936
 H868 H 0.16592 0.59315 0.53584
 H869 H 0.16619 0.67168 0.64440
 H870 H 0.17990 0.69987 0.68380
 H871 H 0.24241 0.63283 0.70554
 H872 H 0.22844 0.60486 0.66632
 C873 C 0.88668 0.72182 0.05075
 C874 C 0.86835 0.72375 0.07316
 C875 C 0.87510 0.70832 0.09617
 C876 C 0.90022 0.69020 0.09649
 C877 C 0.91821 0.68745 0.07363
 C878 C 0.91170 0.70336 0.05042
 N879 N 0.85591 0.71180 0.11877
 N880 N 0.86406 0.70767 0.14269
 C881 C 0.84342 0.71240 0.16413
 C882 C 0.85318 0.72357 0.18845
 C883 C 0.83276 0.73282 0.20796
 C884 C 0.80233 0.73015 0.20362
 C885 C 0.79275 0.71714 0.17993
 C886 C 0.81309 0.70864 0.16022
 H887 H 0.88135 0.73530 0.03385
 H888 H 0.84916 0.73798 0.07286
 H889 H 0.90558 0.67789 0.11415
 H890 H 0.93695 0.67271 0.07413
 H891 H 0.87651 0.72660 0.19166
 H892 H 0.84068 0.74260 0.22617
 H893 H 0.76944 0.71482 0.17608
 H894 H 0.80514 0.69983 0.14161
 C895 C 0.42367 0.15913 0.57623
 C896 C 0.40769 0.15931 0.60037
 C897 C 0.37898 0.17089 0.60157
 C898 C 0.36645 0.18246 0.57840
 C899 C 0.38258 0.18305 0.55457
 C900 C 0.41145 0.17137 0.55301
 N901 N 0.36328 0.17242 0.62655
 N902 N 0.33523 0.17409 0.62703
 C903 C 0.31825 0.17877 0.65094
 C904 C 0.28801 0.17348 0.65037
 C905 C 0.26980 0.18160 0.67186
 C906 C 0.28149 0.19586 0.69412
 C907 C 0.31208 0.20030 0.69509
 C908 C 0.33041 0.19158 0.67372
 H909 H 0.44558 0.14951 0.57589
 H910 H 0.41765 0.15037 0.61813
 H911 H 0.34452 0.19208 0.57895
 H912 H 0.37258 0.19361 0.53762
 H913 H 0.27838 0.16386 0.63282
 H914 H 0.24632 0.17803 0.67042
 H915 H 0.32168 0.21123 0.71200
 H916 H 0.35372 0.19616 0.67442
 C917 C 0.06517 0.27777 0.06478
 C918 C 0.08242 0.27050 0.08684
 C919 C 0.10881 0.28478 0.09164
 C920 C 0.11775 0.30664 0.07417
 C921 C 0.10058 0.31392 0.05216
 C922 C 0.07416 0.29950 0.04715
 N923 N 0.12638 0.27648 0.11402
 N924 N 0.15084 0.28841 0.11888
 C925 C 0.16899 0.28013 0.14085
 C926 C 0.19619 0.29345 0.14398
 C927 C 0.21504 0.28517 0.16456
 C928 C 0.20688 0.26339 0.18248
 C929 C 0.17928 0.25039 0.17957
 C930 C 0.16050 0.25865 0.15890
 H931 H 0.04510 0.26608 0.06127
 H932 H 0.07535 0.25355 0.10012
 H933 H 0.13803 0.31807 0.07746
 H934 H 0.10785 0.33102 0.03915
 H935 H 0.20294 0.31005 0.13018
 H936 H 0.23610 0.29565 0.16627
 H937 H 0.17236 0.23355 0.19303
 H938 H 0.13953 0.24807 0.15689
 C939 C 0.56220 0.81246 0.57653
 C940 C 0.57992 0.80872 0.59897
 C941 C 0.60812 0.82041 0.59975
 C942 C 0.61811 0.83688 0.57808
 C943 C 0.60038 0.84070 0.55561
 C944 C 0.57242 0.82806 0.55435
 N945 N 0.62666 0.81378 0.62199
 N946 N 0.65290 0.82288 0.62378
 C947 C 0.67177 0.81488 0.64543
 C948 C 0.70035 0.82575 0.64622
 C949 C 0.71995 0.81692 0.66609
 C950 C 0.71128 0.79689 0.68554
 C951 C 0.68235 0.78644 0.68500
 C952 C 0.66275 0.79537 0.66517
 H953 H 0.54100 0.80207 0.57611
 H954 H 0.57200 0.79590 0.61549
 H955 H 0.63983 0.84622 0.57825
 H956 H 0.60876 0.85313 0.53902
 H957 H 0.70760 0.84075 0.63111
 H958 H 0.74207 0.82538 0.66591
 H959 H 0.67493 0.77106 0.69971
 H960 H 0.64078 0.78661 0.66500
   
