data_POSCAR
  _audit_creation_date              2014-09-24
  _audit_creation_method            'ToBaCCo'
  _symmetry_space_group_name_H-M    'P1'
  _symmetry_Int_Tables_number       1
  _symmetry_cell_setting            triclinic
  loop_
  _symmetry_equiv_pos_as_xyz
 x,y,z
_cell_length_a 39.8868
_cell_length_b 39.9079
_cell_length_c 39.9003
_cell_angle_alpha 89.991100
_cell_angle_beta 89.998900
_cell_angle_gamma 90.034300
loop_
  _atom_site_label
  _atom_site_type_symbol
  _atom_site_fract_x
  _atom_site_fract_y
  _atom_site_fract_z
C1 C 0.27843 0.23596 0.23551
 C2 C 0.26403 0.22157 0.26417
 C3 C 0.23578 0.23573 0.27836
 C4 C 0.22145 0.26444 0.26403
 C5 C 0.23556 0.27856 0.23571
 C6 C 0.26426 0.26422 0.22135
 C7 C 0.30590 0.22761 0.21642
 N8 N 0.30877 0.25009 0.19095
 C9 C 0.28332 0.27257 0.19385
 C10 C 0.21645 0.30599 0.22732
 N11 N 0.19107 0.30893 0.24988
 C12 C 0.19401 0.28355 0.27244
 C13 C 0.22743 0.21665 0.30584
 N14 N 0.24990 0.19119 0.30870
 C15 C 0.27238 0.19408 0.28323
 H16 H 0.32227 0.20639 0.22055
 H17 H 0.27916 0.29377 0.17746
 H18 H 0.22105 0.32281 0.20654
 H19 H 0.17718 0.27895 0.29321
 H20 H 0.20623 0.22080 0.32225
 H21 H 0.29360 0.17770 0.27906
 C22 C 0.72134 -0.23620 0.23543
 C23 C 0.73571 -0.22178 0.26410
 C24 C 0.76401 -0.23590 0.27824
 C25 C 0.77839 -0.26454 0.26383
 C26 C 0.76424 -0.27867 0.23568
 C27 C 0.73550 -0.26434 0.22132
 C28 C 0.69386 -0.22792 0.21637
 N29 N 0.69068 -0.25036 0.19068
 C30 C 0.71643 -0.27273 0.19389
 C31 C 0.78333 -0.30609 0.22731
 N32 N 0.80907 -0.30925 0.24971
 C33 C 0.80588 -0.28356 0.27215
 C34 C 0.77237 -0.21682 0.30571
 N35 N 0.74984 -0.19141 0.30862
 C36 C 0.72733 -0.19432 0.28318
 H37 H 0.67790 -0.20662 0.22121
 H38 H 0.72129 -0.29406 0.17796
 H39 H 0.77850 -0.32201 0.20597
 H40 H 0.82182 -0.27873 0.29348
 H41 H 0.79361 -0.22093 0.32208
 H42 H 0.70608 -0.17798 0.27906
 C43 C 0.72170 0.23622 0.76437
 C44 C 0.73615 0.22179 0.73576
 C45 C 0.76445 0.23596 0.72164
 C46 C 0.77875 0.26468 0.73601
 C47 C 0.76452 0.27882 0.76412
 C48 C 0.73579 0.26443 0.77845
 C49 C 0.69420 0.22789 0.78339
 N50 N 0.69094 0.25037 0.80903
 C51 C 0.71665 0.27282 0.80584
 C52 C 0.78353 0.30632 0.77246
 N53 N 0.80931 0.30953 0.75010
 C54 C 0.80621 0.28378 0.72772
 C55 C 0.77289 0.21685 0.69421
 N56 N 0.75041 0.19137 0.69133
 C57 C 0.72785 0.19428 0.71672
 H58 H 0.67830 0.20652 0.77859
 H59 H 0.72142 0.29420 0.82172
 H60 H 0.77863 0.32226 0.79377
 H61 H 0.82220 0.27897 0.70642
 H62 H 0.79414 0.22099 0.67787
 H63 H 0.70661 0.17789 0.72084
 C64 C 0.27865 -0.23630 0.76478
 C65 C 0.26430 -0.22189 0.73610
 C66 C 0.23598 -0.23600 0.72197
 C67 C 0.22155 -0.26463 0.73640
 C68 C 0.23568 -0.27875 0.76456
 C69 C 0.26445 -0.26444 0.77890
 C70 C 0.30614 -0.22802 0.78383
 N71 N 0.30930 -0.25046 0.80953
 C72 C 0.28352 -0.27283 0.80634
 C73 C 0.21653 -0.30615 0.77295
 N74 N 0.19078 -0.30931 0.75056
 C75 C 0.19403 -0.28364 0.72811
 C76 C 0.22764 -0.21692 0.69449
 N77 N 0.25020 -0.19152 0.69157
 C78 C 0.27272 -0.19444 0.71700
 H79 H 0.32215 -0.20675 0.77895
 H80 H 0.27859 -0.29412 0.82230
 H81 H 0.22135 -0.32208 0.79430
 H82 H 0.17809 -0.27878 0.70678
 H83 H 0.20639 -0.22103 0.67814
 H84 H 0.29399 -0.17810 0.72112
 C85 C 0.72136 -0.23616 0.76477
 C86 C 0.73573 -0.22174 0.73610
 C87 C 0.76403 -0.23585 0.72196
 C88 C 0.77842 -0.26450 0.73638
 C89 C 0.76427 -0.27862 0.76454
 C90 C 0.73553 -0.26430 0.77889
 C91 C 0.69388 -0.22788 0.78383
 N92 N 0.69070 -0.25033 0.80952
 C93 C 0.71645 -0.27269 0.80633
 C94 C 0.78336 -0.30604 0.77292
 N95 N 0.80910 -0.30921 0.75052
 C96 C 0.80590 -0.28352 0.72808
 C97 C 0.77239 -0.21678 0.69448
 N98 N 0.74986 -0.19138 0.69156
 C99 C 0.72735 -0.19429 0.71700
 H100 H 0.67791 -0.20659 0.77898
 H101 H 0.72132 -0.29401 0.82226
 H102 H 0.77852 -0.32196 0.79426
 H103 H 0.82184 -0.27868 0.70674
 H104 H 0.79363 -0.22089 0.67812
 H105 H 0.70610 -0.17795 0.72112
 C106 C 0.27851 0.23613 0.76437
 C107 C 0.26410 0.22171 0.73573
 C108 C 0.23579 0.23582 0.72159
 C109 C 0.22143 0.26448 0.73598
 C110 C 0.23568 0.27865 0.76420
 C111 C 0.26441 0.26428 0.77851
 C112 C 0.30601 0.22782 0.78338
 N113 N 0.30926 0.25025 0.80907
 C114 C 0.28354 0.27265 0.80592
 C115 C 0.21662 0.30612 0.77260
 N116 N 0.19111 0.30899 0.75017
 C117 C 0.19393 0.28354 0.72768
 C118 C 0.22740 0.21672 0.69414
 N119 N 0.24991 0.19130 0.69125
 C120 C 0.27245 0.19423 0.71667
 H121 H 0.32193 0.20648 0.77854
 H122 H 0.27875 0.29400 0.82184
 H123 H 0.22082 0.32250 0.79380
 H124 H 0.17750 0.27939 0.70650
 H125 H 0.20615 0.22082 0.67779
 H126 H 0.29369 0.17789 0.72080
 C127 C 0.27863 -0.23629 0.23539
 C128 C 0.26429 -0.22189 0.26408
 C129 C 0.23597 -0.23599 0.27820
 C130 C 0.22153 -0.26461 0.26377
 C131 C 0.23564 -0.27871 0.23559
 C132 C 0.26441 -0.26440 0.22125
 C133 C 0.30612 -0.22801 0.21634
 N134 N 0.30927 -0.25042 0.19063
 C135 C 0.28347 -0.27278 0.19381
 C136 C 0.21649 -0.30611 0.22720
 N137 N 0.19075 -0.30928 0.24961
 C138 C 0.19401 -0.28362 0.27207
 C139 C 0.22764 -0.21694 0.30570
 N140 N 0.25021 -0.19155 0.30862
 C141 C 0.27272 -0.19445 0.28319
 H142 H 0.32214 -0.20673 0.22121
 H143 H 0.27856 -0.29408 0.17786
 H144 H 0.22131 -0.32202 0.20586
 H145 H 0.17807 -0.27877 0.29340
 H146 H 0.20639 -0.22105 0.32205
 H147 H 0.29400 -0.17812 0.27907
 C148 C 0.72172 0.23613 0.23557
 C149 C 0.73612 0.22175 0.26422
 C150 C 0.76435 0.23599 0.27840
 C151 C 0.77866 0.26473 0.26405
 C152 C 0.76451 0.27885 0.23590
 C153 C 0.73586 0.26444 0.22147
 C154 C 0.69427 0.22773 0.21645
 N155 N 0.69138 0.25026 0.19103
 C156 C 0.71679 0.27280 0.19398
 C157 C 0.78353 0.30636 0.22759
 N158 N 0.80924 0.30959 0.25002
 C159 C 0.80608 0.28385 0.27242
 C160 C 0.77275 0.21690 0.30586
 N161 N 0.75032 0.19138 0.30871
 C162 C 0.72782 0.19423 0.28326
 H163 H 0.67793 0.20647 0.22054
 H164 H 0.72092 0.29405 0.17763
 H165 H 0.77869 0.32228 0.20625
 H166 H 0.82202 0.27905 0.29376
 H167 H 0.79396 0.22109 0.32226
 H168 H 0.70663 0.17779 0.27908
 O169 O 0.22230 0.03231 0.46740
 O170 O 0.22241 -0.03292 0.53271
 O171 O 0.22229 0.03234 0.53267
 O172 O 0.22241 -0.03295 0.46744
 O173 O 0.27786 -0.03282 0.46744
 O174 O 0.27773 0.03248 0.53267
 O175 O 0.27786 -0.03279 0.53272
 O176 O 0.27774 0.03245 0.46741
 Cu177 Cu 0.21676 -0.00032 0.50005
 Cu178 Cu 0.28339 -0.00016 0.50006
 C179 C 0.25000 0.04339 0.45639
 C180 C 0.25015 -0.04386 0.54374
 C181 C 0.24999 0.04343 0.54368
 C182 C 0.25016 -0.04390 0.45642
 O183 O 0.77797 0.03249 0.53266
 O184 O 0.77776 -0.03278 0.46741
 O185 O 0.77794 0.03248 0.46739
 O186 O 0.77777 -0.03277 0.53269
 O187 O 0.72233 -0.03265 0.53270
 O188 O 0.72250 0.03260 0.46741
 O189 O 0.72232 -0.03266 0.46742
 O190 O 0.72252 0.03261 0.53268
 Cu191 Cu 0.78346 -0.00016 0.50004
 Cu192 Cu 0.71682 -0.00001 0.50005
 C193 C 0.75028 0.04357 0.54368
 C194 C 0.75001 -0.04374 0.45640
 C195 C 0.75025 0.04356 0.45638
 C196 C 0.75002 -0.04372 0.54372
 O197 O 0.46746 0.22247 0.03205
 O198 O 0.53276 0.22259 -0.03322
 O199 O 0.53275 0.22251 0.03205
 O200 O 0.46747 0.22255 -0.03322
 O201 O 0.46746 0.27797 -0.03317
 O202 O 0.53275 0.27792 0.03211
 O203 O 0.53277 0.27801 -0.03317
 O204 O 0.46746 0.27789 0.03210
 Cu205 Cu 0.50011 0.21694 -0.00059
 Cu206 Cu 0.50011 0.28354 -0.00053
 C207 C 0.45645 0.25016 0.04309
 C208 C 0.54379 0.25032 -0.04421
 C209 C 0.54377 0.25021 0.04310
 C210 C 0.45644 0.25026 -0.04421
 O211 O 0.53266 0.77709 0.03273
 O212 O 0.46736 0.77707 -0.03255
 O213 O 0.46736 0.77708 0.03273
 O214 O 0.53266 0.77710 -0.03254
 O215 O 0.53264 0.72168 -0.03254
 O216 O 0.46734 0.72166 0.03274
 O217 O 0.46734 0.72165 -0.03254
 O218 O 0.53264 0.72168 0.03274
 Cu219 Cu 0.50001 0.78268 0.00009
 Cu220 Cu 0.49999 0.71608 0.00010
 C221 C 0.54367 0.74939 0.04376
 C222 C 0.45633 0.74936 -0.04356
 C223 C 0.45633 0.74937 0.04375
 C224 C 0.54367 0.74939 -0.04356
 O225 O 0.03239 0.46768 0.22208
 O226 O -0.03287 0.53294 0.22200
 O227 O 0.03243 0.53294 0.22195
 O228 O -0.03290 0.46767 0.22213
 O229 O -0.03287 0.46777 0.27756
 O230 O 0.03246 0.53304 0.27738
 O231 O -0.03284 0.53304 0.27742
 O232 O 0.03243 0.46778 0.27751
 Cu233 Cu -0.00024 0.50030 0.21645
 Cu234 Cu -0.00020 0.50042 0.28306
 C235 C 0.04342 0.45671 0.24981
 C236 C -0.04388 0.54400 0.24969
 C237 C 0.04348 0.54400 0.24964
 C238 C -0.04391 0.45670 0.24987
 O239 O 0.03243 0.53294 0.77826
 O240 O -0.03290 0.46767 0.77809
 O241 O 0.03239 0.46768 0.77812
 O242 O -0.03288 0.53294 0.77823
 O243 O -0.03285 0.53306 0.72280
 O244 O 0.03242 0.46781 0.72269
 O245 O -0.03287 0.46779 0.72266
 O246 O 0.03245 0.53307 0.72284
 Cu247 Cu -0.00024 0.50030 0.78377
 Cu248 Cu -0.00021 0.50045 0.71716
 C249 C 0.04347 0.54401 0.75058
 C250 C -0.04390 0.45671 0.75035
 C251 C 0.04342 0.45673 0.75039
 C252 C -0.04388 0.54401 0.75053
 C253 C 0.38418 0.25008 0.11541
 C254 C 0.39098 0.23656 0.14705
 C255 C 0.36623 0.23653 0.17186
 C256 C 0.33431 0.25008 0.16537
 C257 C 0.32776 0.26363 0.13346
 C258 C 0.35254 0.26360 0.10867
 C259 C 0.40967 0.25009 0.08989
 C260 C 0.43103 0.25011 0.06851
 H261 H 0.41543 0.22612 0.15257
 H262 H 0.37225 0.22635 0.19626
 H263 H 0.30335 0.27382 0.12748
 H264 H 0.34698 0.27404 0.08423
 C265 C 0.61598 0.74947 0.11604
 C266 C 0.64225 0.72643 0.11467
 C267 C 0.66708 0.72640 0.13939
 C268 C 0.66624 0.74958 0.16627
 C269 C 0.63931 0.77271 0.16708
 C270 C 0.61457 0.77257 0.14227
 C271 C 0.59046 0.74942 0.09054
 C272 C 0.56909 0.74940 0.06917
 H273 H 0.64362 0.70843 0.09437
 H274 H 0.68689 0.70821 0.13676
 H275 H 0.63666 0.79093 0.18685
 H276 H 0.59424 0.79052 0.14361
 C277 C 0.61614 0.25041 -0.11644
 C278 C 0.61464 0.22748 -0.14281
 C279 C 0.63941 0.22739 -0.16759
 C280 C 0.66646 0.25039 -0.16659
 C281 C 0.66739 0.27342 -0.13958
 C282 C 0.64253 0.27334 -0.11489
 C283 C 0.59060 0.25039 -0.09096
 C284 C 0.56922 0.25036 -0.06962
 H285 H 0.59421 0.20962 -0.14429
 H286 H 0.63667 0.20932 -0.18750
 H287 H 0.68732 0.29148 -0.13680
 H288 H 0.64397 0.29119 -0.09448
 C289 C 0.38401 0.74940 -0.11583
 C290 C 0.35790 0.72614 -0.11462
 C291 C 0.33306 0.72610 -0.13934
 C292 C 0.33374 0.74949 -0.16605
 C293 C 0.36052 0.77283 -0.16670
 C294 C 0.38526 0.77270 -0.14189
 C295 C 0.40953 0.74936 -0.09033
 C296 C 0.43090 0.74935 -0.06897
 H297 H 0.35666 0.70797 -0.09447
 H298 H 0.31340 0.70771 -0.13686
 H299 H 0.36304 0.79125 -0.18631
 H300 H 0.40546 0.79083 -0.14310
 C301 C 0.11564 0.38440 0.24987
 C302 C 0.13069 0.37458 0.21977
 C303 C 0.15546 0.34981 0.21974
 C304 C 0.16551 0.33448 0.24988
 C305 C 0.15019 0.34455 0.28002
 C306 C 0.12544 0.36935 0.27999
 C307 C 0.09016 0.40992 0.24986
 C308 C 0.06882 0.43130 0.24984
 H309 H 0.12321 0.38601 0.19629
 H310 H 0.16639 0.34235 0.19608
 H311 H 0.15764 0.33361 0.30368
 H312 H 0.11402 0.37683 0.30346
 C313 C 0.11591 0.61621 0.75067
 C314 C 0.11452 0.64248 0.72762
 C315 C 0.13932 0.66724 0.72751
 C316 C 0.16628 0.66633 0.75061
 C317 C 0.16710 0.63941 0.77374
 C318 C 0.14221 0.61473 0.77369
 C319 C 0.09034 0.59074 0.75066
 C320 C 0.06893 0.56940 0.75064
 H321 H 0.09416 0.64390 0.70969
 H322 H 0.13667 0.68707 0.70933
 H323 H 0.18694 0.63670 0.79190
 H324 H 0.14356 0.59439 0.79164
 C325 C -0.11620 0.61621 0.24965
 C326 C -0.14263 0.61462 0.22678
 C327 C -0.16747 0.63931 0.22671
 C328 C -0.16648 0.66636 0.24969
 C329 C -0.13940 0.66739 0.27264
 C330 C -0.11464 0.64261 0.27254
 C331 C -0.09068 0.59073 0.24965
 C332 C -0.06930 0.56939 0.24966
 H333 H -0.14412 0.59418 0.20896
 H334 H -0.18743 0.63651 0.20870
 H335 H -0.13661 0.68733 0.29067
 H336 H -0.09419 0.64412 0.29035
 C337 C -0.11614 0.38432 0.75019
 C338 C -0.11443 0.35785 0.72740
 C339 C -0.13913 0.33299 0.72729
 C340 C -0.16630 0.33400 0.75013
 C341 C -0.16745 0.36112 0.77301
 C342 C -0.14266 0.38590 0.77295
 C343 C -0.09066 0.40987 0.75023
 C344 C -0.06931 0.43127 0.75028
 H345 H -0.09390 0.35635 0.70968
 H346 H -0.13623 0.31299 0.70935
 H347 H -0.18749 0.36393 0.79093
 H348 H -0.14427 0.40639 0.79070
 C349 C 0.24992 0.11569 0.38412
 C350 C 0.26342 0.10895 0.35247
 C351 C 0.26344 0.13372 0.32769
 C352 C 0.24990 0.16562 0.33424
 C353 C 0.23638 0.17212 0.36617
 C354 C 0.23641 0.14732 0.39092
 C355 C 0.24993 0.09018 0.40962
 C356 C 0.24995 0.06881 0.43097
 H357 H 0.27385 0.08451 0.34691
 H358 H 0.27361 0.12774 0.30329
 H359 H 0.22619 0.19651 0.37219
 H360 H 0.22599 0.15284 0.41538
 C361 C 0.75045 0.11586 0.61594
 C362 C 0.73686 0.10912 0.64756
 C363 C 0.73684 0.13390 0.67233
 C364 C 0.75045 0.16579 0.66580
 C365 C 0.76409 0.17227 0.63391
 C366 C 0.76406 0.14746 0.60917
 C367 C 0.75041 0.09035 0.59044
 C368 C 0.75036 0.06898 0.56909
 H369 H 0.72635 0.08470 0.65310
 H370 H 0.72658 0.12793 0.69671
 H371 H 0.77433 0.19665 0.62791
 H372 H 0.77455 0.15298 0.58473
 C373 C 0.25024 -0.11609 0.61607
 C374 C 0.23663 -0.14770 0.60934
 C375 C 0.23660 -0.17249 0.63411
 C376 C 0.25024 -0.16598 0.66600
 C377 C 0.26389 -0.13410 0.67248
 C378 C 0.26386 -0.10934 0.64767
 C379 C 0.25022 -0.09059 0.59056
 C380 C 0.25019 -0.06925 0.56918
 H381 H 0.22611 -0.15323 0.58492
 H382 H 0.22633 -0.19686 0.62815
 H383 H 0.27415 -0.12811 0.69685
 H384 H 0.27438 -0.08492 0.65318
 C385 C 0.74985 -0.11599 0.38411
 C386 C 0.76343 -0.14760 0.39085
 C387 C 0.76345 -0.17238 0.36608
 C388 C 0.74983 -0.16587 0.33419
 C389 C 0.73622 -0.13399 0.32770
 C390 C 0.73626 -0.10924 0.35250
 C391 C 0.74989 -0.09050 0.40962
 C392 C 0.74993 -0.06914 0.43098
 H393 H 0.77394 -0.15313 0.41527
 H394 H 0.77369 -0.19675 0.37205
 H395 H 0.72597 -0.12800 0.30332
 H396 H 0.72577 -0.08482 0.34698
 C397 C 0.61599 0.74949 -0.11584
 C398 C 0.64224 0.72642 -0.11448
 C399 C 0.66707 0.72639 -0.13920
 C400 C 0.66625 0.74961 -0.16606
 C401 C 0.63934 0.77276 -0.16686
 C402 C 0.61460 0.77262 -0.14205
 C403 C 0.59047 0.74943 -0.09034
 C404 C 0.56910 0.74941 -0.06897
 H405 H 0.64359 0.70840 -0.09420
 H406 H 0.68686 0.70818 -0.13659
 H407 H 0.63671 0.79101 -0.18661
 H408 H 0.59429 0.79059 -0.14338
 C409 C 0.38408 0.25030 -0.11643
 C410 C 0.38559 0.22742 -0.14284
 C411 C 0.36081 0.22732 -0.16761
 C412 C 0.33374 0.25027 -0.16656
 C413 C 0.33280 0.27325 -0.13951
 C414 C 0.35767 0.27317 -0.11483
 C415 C 0.40963 0.25028 -0.09096
 C416 C 0.43101 0.25027 -0.06962
 H417 H 0.40603 0.20961 -0.14436
 H418 H 0.36356 0.20930 -0.18755
 H419 H 0.31286 0.29126 -0.13669
 H420 H 0.35622 0.29099 -0.09438
 C421 C 0.38399 0.74942 0.11602
 C422 C 0.35770 0.72637 0.11463
 C423 C 0.33286 0.72634 0.13934
 C424 C 0.33371 0.74952 0.16622
 C425 C 0.36066 0.77266 0.16704
 C426 C 0.38541 0.77252 0.14224
 C427 C 0.40952 0.74938 0.09052
 C428 C 0.43089 0.74937 0.06916
 H429 H 0.35632 0.70838 0.09434
 H430 H 0.31304 0.70814 0.13671
 H431 H 0.36333 0.79089 0.18681
 H432 H 0.40576 0.79048 0.14358
 C433 C 0.61600 0.25020 0.11545
 C434 C 0.60922 0.23658 0.14705
 C435 C 0.63395 0.23657 0.17188
 C436 C 0.66585 0.25024 0.16543
 C437 C 0.67239 0.26388 0.13356
 C438 C 0.64762 0.26384 0.10876
 C439 C 0.59052 0.25019 0.08992
 C440 C 0.56917 0.25019 0.06853
 H441 H 0.58478 0.22605 0.15253
 H442 H 0.62794 0.22630 0.19624
 H443 H 0.69677 0.27416 0.12762
 H444 H 0.65317 0.27436 0.08435
 C445 C -0.11619 0.61624 0.75058
 C446 C -0.11465 0.64262 0.72767
 C447 C -0.13939 0.66741 0.72757
 C448 C -0.16646 0.66641 0.75055
 C449 C -0.16743 0.63937 0.77355
 C450 C -0.14260 0.61467 0.77348
 C451 C -0.09068 0.59075 0.75058
 C452 C -0.06930 0.56941 0.75057
 H453 H -0.09420 0.64412 0.70984
 H454 H -0.13661 0.68734 0.70952
 H455 H -0.18738 0.63658 0.79159
 H456 H -0.14408 0.59425 0.79132
 C457 C -0.11619 0.38436 0.25002
 C458 C -0.11457 0.35794 0.27289
 C459 C -0.13928 0.33309 0.27298
 C460 C -0.16637 0.33406 0.25003
 C461 C -0.16743 0.36114 0.22709
 C462 C -0.14263 0.38590 0.22717
 C463 C -0.09069 0.40989 0.24999
 C464 C -0.06933 0.43128 0.24994
 H465 H -0.09410 0.35647 0.29068
 H466 H -0.13646 0.31314 0.29099
 H467 H -0.18740 0.36391 0.20909
 H468 H -0.14416 0.40635 0.20936
 C469 C 0.11566 0.38445 0.75029
 C470 C 0.14733 0.39120 0.76380
 C471 C 0.17211 0.36644 0.76379
 C472 C 0.16555 0.33454 0.75022
 C473 C 0.13361 0.32804 0.73669
 C474 C 0.10886 0.35283 0.73676
 C475 C 0.09018 0.40995 0.75031
 C476 C 0.06883 0.43132 0.75034
 H477 H 0.15289 0.41563 0.77425
 H478 H 0.19653 0.37243 0.77396
 H479 H 0.12759 0.30365 0.72648
 H480 H 0.08439 0.34730 0.72632
 C481 C 0.11589 0.61621 0.24953
 C482 C 0.11455 0.64244 0.27263
 C483 C 0.13934 0.66721 0.27273
 C484 C 0.16625 0.66635 0.24957
 C485 C 0.16702 0.63948 0.22638
 C486 C 0.14214 0.61479 0.22644
 C487 C 0.09034 0.59074 0.24954
 C488 C 0.06893 0.56939 0.24958
 H489 H 0.09423 0.64381 0.29061
 H490 H 0.13673 0.68699 0.29095
 H491 H 0.18682 0.63682 0.20816
 H492 H 0.14346 0.59450 0.20845
 C493 C 0.74988 -0.11596 0.61605
 C494 C 0.73628 -0.10921 0.64765
 C495 C 0.73624 -0.13395 0.67246
 C496 C 0.74986 -0.16584 0.66599
 C497 C 0.76348 -0.17234 0.63410
 C498 C 0.76347 -0.14757 0.60932
 C499 C 0.74991 -0.09047 0.59053
 C500 C 0.74995 -0.06912 0.56915
 H501 H 0.72578 -0.08478 0.65316
 H502 H 0.72598 -0.12797 0.69684
 H503 H 0.77373 -0.19672 0.62814
 H504 H 0.77397 -0.15309 0.58490
 C505 C 0.25027 -0.11615 0.38414
 C506 C 0.26390 -0.10940 0.35254
 C507 C 0.26392 -0.13414 0.32773
 C508 C 0.25025 -0.16602 0.33421
 C509 C 0.23660 -0.17253 0.36609
 C510 C 0.23664 -0.14776 0.39086
 C511 C 0.25024 -0.09066 0.40965
 C512 C 0.25020 -0.06931 0.43102
 H513 H 0.27443 -0.08497 0.34704
 H514 H 0.27420 -0.12815 0.30337
 H515 H 0.22632 -0.19690 0.37204
 H516 H 0.22610 -0.15329 0.41527
 C517 C 0.75038 0.11585 0.38411
 C518 C 0.76387 0.14750 0.39091
 C519 C 0.76389 0.17231 0.36617
 C520 C 0.75036 0.16579 0.33424
 C521 C 0.73685 0.13387 0.32769
 C522 C 0.73689 0.10909 0.35246
 C523 C 0.75035 0.09034 0.40961
 C524 C 0.75031 0.06897 0.43096
 H525 H 0.77429 0.15304 0.41537
 H526 H 0.77406 0.19671 0.37219
 H527 H 0.72667 0.12787 0.30328
 H528 H 0.72646 0.08464 0.34690
 C529 C 0.24990 0.11577 0.61588
 C530 C 0.23631 0.14736 0.60910
 C531 C 0.23627 0.17217 0.63383
 C532 C 0.24990 0.16571 0.66573
 C533 C 0.26351 0.13384 0.67226
 C534 C 0.26349 0.10906 0.64750
 C535 C 0.24991 0.09024 0.59040
 C536 C 0.24994 0.06886 0.56907
 H537 H 0.22581 0.15285 0.58466
 H538 H 0.22603 0.19654 0.62782
 H539 H 0.27376 0.12789 0.69665
 H540 H 0.27399 0.08465 0.65305
   
