data_POSCAR
  _audit_creation_date              2014-09-24
  _audit_creation_method            'ToBaCCo'
  _symmetry_space_group_name_H-M    'P1'
  _symmetry_Int_Tables_number       1
  _symmetry_cell_setting            triclinic
  loop_
  _symmetry_equiv_pos_as_xyz
 x,y,z
_cell_length_a 49.1230
_cell_length_b 48.8590
_cell_length_c 48.7309
_cell_angle_alpha 90.023700
_cell_angle_beta 89.932300
_cell_angle_gamma 89.856600
loop_
  _atom_site_label
  _atom_site_type_symbol
  _atom_site_fract_x
  _atom_site_fract_y
  _atom_site_fract_z
N1 N 0.17597 1.23297 0.15720
 N2 N 0.15749 1.23312 0.17668
 C3 C 0.14008 1.25399 0.17225
 C4 C 0.14804 1.26781 0.14863
 C5 C 0.17101 1.25369 0.13973
 H6 H 0.12283 1.25853 0.18524
 H7 H 0.18330 1.25793 0.12185
 Cu8 Cu 0.15764 1.20580 0.20578
 Cu9 Cu 0.20497 1.20581 0.15567
 Cu10 Cu 0.20506 1.15586 0.20600
 N11 N 0.15752 1.17684 0.23323
 N12 N 0.17607 1.15745 0.23319
 C13 C 0.17111 1.14004 0.25395
 C14 C 0.14804 1.14884 0.26798
 C15 C 0.14005 1.17238 0.25407
 H16 H 0.18343 1.12221 0.25824
 H17 H 0.12272 1.18528 0.25853
 N18 N 0.23271 1.15764 0.17677
 N19 N 0.23266 1.17664 0.15756
 C20 C 0.25373 1.17213 0.14043
 C21 C 0.26781 1.14911 0.14919
 C22 C 0.25382 1.14055 0.17236
 H23 H 0.25828 1.18459 0.12272
 H24 H 0.25846 1.12302 0.18502
 H25 H 0.18324 1.17546 0.17549
 H26 H 0.20587 1.19724 0.19720
 N27 N 0.82399 0.76745 0.15701
 N28 N 0.84300 0.76803 0.17594
 C29 C 0.86060 0.74732 0.17144
 C30 C 0.85214 0.73293 0.14848
 C31 C 0.82878 0.74634 0.13991
 H32 H 0.87822 0.74300 0.18398
 H33 H 0.81644 0.74149 0.12222
 Cu34 Cu 0.84305 0.79606 0.20432
 Cu35 Cu 0.79486 0.79453 0.15540
 Cu36 Cu 0.79463 0.84474 0.20569
 N37 N 0.84264 0.82432 0.23249
 N38 N 0.82364 0.84326 0.23288
 C39 C 0.82822 0.86040 0.25396
 C40 C 0.85150 0.85186 0.26775
 C41 C 0.86001 0.82876 0.25338
 H42 H 0.81553 0.87788 0.25862
 H43 H 0.87763 0.81619 0.25753
 N44 N 0.76703 0.84280 0.17643
 N45 N 0.76714 0.82372 0.15728
 C46 C 0.74615 0.82821 0.14008
 C47 C 0.73205 0.85125 0.14877
 C48 C 0.74595 0.85989 0.17194
 H49 H 0.74173 0.81578 0.12232
 H50 H 0.74122 0.87744 0.18456
 H51 H 0.81609 0.82560 0.17453
 H52 H 0.79453 0.80335 0.19684
 N53 N 0.82378 1.23182 -0.15690
 N54 N 0.84270 1.23140 -0.17597
 C55 C 0.86010 1.25220 -0.17155
 C56 C 0.85167 1.26647 -0.14843
 C57 C 0.82847 1.25285 -0.13973
 H58 H 0.87760 1.25657 -0.18424
 H59 H 0.81608 1.25758 -0.12201
 Cu60 Cu 0.84299 1.20339 -0.20436
 Cu61 Cu 0.79469 1.20482 -0.15543
 Cu62 Cu 0.79474 1.15478 -0.20585
 N63 N 0.84280 1.17515 -0.23252
 N64 N 0.82388 1.15622 -0.23299
 C65 C 0.82868 1.13907 -0.25406
 C66 C 0.85205 1.14759 -0.26772
 C67 C 0.86034 1.17069 -0.25331
 H68 H 0.81613 1.12157 -0.25874
 H69 H 0.87793 1.18327 -0.25738
 N70 N 0.76701 1.15675 -0.17665
 N71 N 0.76700 1.17576 -0.15743
 C72 C 0.74592 1.17133 -0.14032
 C73 C 0.73189 1.14836 -0.14911
 C74 C 0.74594 1.13972 -0.17225
 H75 H 0.74136 1.18376 -0.12256
 H76 H 0.74133 1.12219 -0.18491
 H77 H 0.81612 1.17379 -0.17467
 H78 H 0.79452 1.19616 -0.19691
 N79 N 0.17557 0.76903 -0.15566
 N80 N 0.15561 0.77061 -0.17350
 C81 C 0.13800 0.75005 -0.16883
 C82 C 0.14736 0.73473 -0.14680
 C83 C 0.17134 0.74748 -0.13903
 H84 H 0.11964 0.74666 -0.18050
 H85 H 0.18479 0.74161 -0.12252
 Cu86 Cu 0.15435 0.79935 -0.20111
 Cu87 Cu 0.20534 0.79521 -0.15504
 Cu88 Cu 0.20517 0.84537 -0.20517
 N89 N 0.15536 0.82710 -0.22975
 N90 N 0.17531 0.84486 -0.23135
 C91 C 0.17094 0.86156 -0.25285
 C92 C 0.14680 0.85396 -0.26561
 C93 C 0.13759 0.83188 -0.25021
 H94 H 0.18437 0.87809 -0.25851
 H95 H 0.11933 0.82008 -0.25351
 N96 N 0.23363 0.84262 -0.17685
 N97 N 0.23368 0.82352 -0.15775
 C98 C 0.25520 0.82745 -0.14113
 C99 C 0.26949 0.85018 -0.15013
 C100 C 0.25513 0.85920 -0.17289
 H101 H 0.25980 0.81491 -0.12348
 H102 H 0.25972 0.87678 -0.18548
 H103 H 0.18447 0.82733 -0.17293
 H104 H 0.20350 0.80391 -0.19652
 C105 C 0.49980 0.99989 -0.00039
 C106 C 0.00052 0.49953 0.99930
 C107 C 1.00030 -0.00059 0.49957
 C108 C 0.13331 0.32459 1.09941
 C109 C 0.10995 0.33613 1.11107
 C110 C 0.09939 0.32528 1.13537
 C111 C 0.11199 0.30284 1.14790
 C112 C 0.13548 0.29076 1.13628
 C113 C 0.14599 0.30217 1.11185
 C114 C 0.09657 0.35875 1.09778
 C115 C 0.08528 0.37748 1.08636
 C116 C 0.07191 0.39913 1.07270
 C117 C 0.06033 0.41736 1.06078
 C118 C 0.04625 0.43878 1.04627
 C119 C 0.02163 0.44903 1.05639
 C120 C 0.00734 0.46898 1.04174
 C121 C 0.01780 0.47982 1.01698
 C122 C 0.04222 0.46843 1.00664
 C123 C 0.05647 0.44848 1.02134
 H124 H 0.14167 0.33284 1.08057
 H125 H 0.08129 0.33408 1.14459
 H126 H 0.10305 0.29511 1.16661
 H127 H 0.16393 0.29391 1.10200
 H128 H 0.01316 0.44118 1.07535
 H129 H -0.01221 0.47557 1.04960
 H130 H 0.05014 0.47459 0.98686
 H131 H 0.07520 0.44020 1.01296
 C132 C -0.13589 0.67033 1.10385
 C133 C -0.10888 0.66384 1.11023
 C134 C -0.09470 0.67968 1.12936
 C135 C -0.10741 0.70203 1.14197
 C136 C -0.13451 0.70889 1.13553
 C137 C -0.14864 0.69271 1.11638
 C138 C -0.09555 0.64127 1.09674
 C139 C -0.08428 0.62257 1.08522
 C140 C -0.07093 0.60092 1.07150
 C141 C -0.05934 0.58264 1.05963
 C142 C -0.04521 0.56109 1.04532
 C143 C -0.02053 0.55112 1.05549
 C144 C -0.00625 0.53090 1.04116
 C145 C -0.01677 0.51952 1.01670
 C146 C -0.04122 0.53070 1.00623
 C147 C -0.05547 0.55093 1.02061
 H148 H -0.14708 0.65816 1.08910
 H149 H -0.07373 0.67489 1.13439
 H150 H -0.09581 0.71412 1.15639
 H151 H -0.16957 0.69716 1.11112
 H152 H -0.01202 0.55939 1.07423
 H153 H 0.01334 0.52453 1.04903
 H154 H -0.04914 0.52418 0.98659
 H155 H -0.07421 0.55904 1.01214
 C156 C -0.09669 0.32181 0.86819
 C157 C -0.10966 0.33568 0.88966
 C158 C -0.13539 0.32719 0.89849
 C159 C -0.14806 0.30482 0.88602
 C160 C -0.13513 0.29056 0.86451
 C161 C -0.10930 0.29943 0.85568
 C162 C -0.09635 0.35831 0.90293
 C163 C -0.08503 0.37706 0.91418
 C164 C -0.07155 0.39876 0.92756
 C165 C -0.05984 0.41705 0.93919
 C166 C -0.04562 0.43854 0.95333
 C167 C -0.05577 0.44878 0.97809
 C168 C -0.04138 0.46882 0.99246
 C169 C -0.01689 0.47976 0.98191
 C170 C -0.00650 0.46837 0.95735
 C171 C -0.02092 0.44831 0.94304
 H172 H -0.07672 0.32817 0.86124
 H173 H -0.14562 0.33780 0.91510
 H174 H -0.16797 0.29883 0.89330
 H175 H -0.09857 0.28899 0.83935
 H176 H -0.07454 0.44085 0.98662
 H177 H -0.04924 0.47538 1.01214
 H178 H 0.01310 0.47458 0.94939
 H179 H -0.01251 0.44001 0.92422
 C180 C 0.13260 0.67607 0.90219
 C181 C 0.10950 0.66444 0.89022
 C182 C 0.09885 0.67560 0.86608
 C183 C 0.11119 0.69835 0.85397
 C184 C 0.13441 0.71033 0.86587
 C185 C 0.14498 0.69883 0.89014
 C186 C 0.09640 0.64143 0.90303
 C187 C 0.08527 0.62239 0.91401
 C188 C 0.07201 0.60042 0.92716
 C189 C 0.06047 0.58196 0.93869
 C190 C 0.04645 0.56031 0.95284
 C191 C 0.02184 0.55031 0.94262
 C192 C 0.00755 0.53023 0.95704
 C193 C 0.01797 0.51907 0.98166
 C194 C 0.04241 0.53018 0.99208
 C195 C 0.05666 0.55025 0.97761
 H196 H 0.14096 0.66766 0.92096
 H197 H 0.08093 0.66678 0.85666
 H198 H 0.10243 0.70644 0.83531
 H199 H 0.16265 0.70745 0.90008
 H200 H 0.01336 0.55849 0.92381
 H201 H -0.01202 0.52387 0.94916
 H202 H 0.05028 0.52381 1.01180
 H203 H 0.07535 0.55838 0.98610
 C204 C 1.09916 0.13535 0.32525
 C205 C 1.10985 0.11118 0.33621
 C206 C 1.13334 0.09968 0.32480
 C207 C 1.14605 0.11215 0.30240
 C208 C 1.13544 0.13646 0.29089
 C209 C 1.11180 0.14792 0.30284
 C210 C 1.09644 0.09782 0.35879
 C211 C 1.08513 0.08633 0.37747
 C212 C 1.07174 0.07258 0.39905
 C213 C 1.06012 0.06060 0.41722
 C214 C 1.04598 0.04607 0.43858
 C215 C 1.05629 0.02128 0.44844
 C216 C 1.04204 0.00664 0.46845
 C217 C 1.01752 0.01692 0.47970
 C218 C 1.00694 0.04147 0.46862
 C219 C 1.02123 0.05606 0.44862
 H220 H 1.08095 0.14444 0.33395
 H221 H 1.14179 0.08094 0.33312
 H222 H 1.16409 0.10242 0.29423
 H223 H 1.10276 0.16652 0.29500
 H224 H 1.07510 0.01297 0.44028
 H225 H 1.05005 -0.01301 0.47476
 H226 H 0.98731 0.04925 0.47508
 H227 H 1.01268 0.07489 0.44061
 C228 C 1.13399 -0.09937 0.67499
 C229 C 1.10916 -0.10935 0.66531
 C230 C 1.09688 -0.13158 0.67837
 C231 C 1.10930 -0.14379 0.70109
 C232 C 1.13435 -0.13392 0.71126
 C233 C 1.14650 -0.11149 0.69772
 C234 C 1.09605 -0.09647 0.64226
 C235 C 1.08492 -0.08549 0.62317
 C236 C 1.07169 -0.07236 0.60108
 C237 C 1.06021 -0.06088 0.58250
 C238 C 1.04623 -0.04683 0.56069
 C239 C 1.02170 -0.05709 0.55055
 C240 C 1.00742 -0.04277 0.53034
 C241 C 1.01777 -0.01818 0.51918
 C242 C 1.04216 -0.00774 0.53041
 C243 C 1.05640 -0.02212 0.55060
 H244 H 1.14367 -0.08211 0.66504
 H245 H 1.07759 -0.13942 0.67108
 H246 H 1.09897 -0.16084 0.71058
 H247 H 1.16565 -0.10303 0.70449
 H248 H 1.01326 -0.07586 0.55874
 H249 H 0.98789 -0.05067 0.52391
 H250 H 1.04998 0.01194 0.52402
 H251 H 1.07504 -0.01361 0.55881
 C252 C 0.90034 -0.13456 0.32492
 C253 C 0.88932 -0.11071 0.33627
 C254 C 0.86557 -0.09947 0.32519
 C255 C 0.85295 -0.11189 0.30272
 C256 C 0.86393 -0.13586 0.29079
 C257 C 0.88781 -0.14705 0.30243
 C258 C 0.90269 -0.09743 0.35890
 C259 C 0.91408 -0.08610 0.37761
 C260 C 0.92764 -0.07260 0.39923
 C261 C 0.93944 -0.06087 0.41742
 C262 C 0.95381 -0.04663 0.43880
 C263 C 0.94361 -0.02198 0.44915
 C264 C 0.95812 -0.00757 0.46910
 C265 C 0.98278 -0.01796 0.47985
 C266 C 0.99322 -0.04239 0.46832
 C267 C 0.97869 -0.05674 0.44835
 H268 H 0.91875 -0.14344 0.33335
 H269 H 0.85687 -0.08097 0.33382
 H270 H 0.83471 -0.10237 0.29480
 H271 H 0.89713 -0.16541 0.29431
 H272 H 0.92469 -0.01358 0.44139
 H273 H 0.95020 0.01203 0.47573
 H274 H 1.01294 -0.05022 0.47438
 H275 H 0.98715 -0.07546 0.43995
 C276 C 0.86673 0.09907 0.67480
 C277 C 0.89074 0.11007 0.66413
 C278 C 0.90175 0.13371 0.67578
 C279 C 0.88893 0.14625 0.69814
 C280 C 0.86477 0.13528 0.70936
 C281 C 0.85382 0.11151 0.69715
 C282 C 0.90430 0.09680 0.64155
 C283 C 0.91572 0.08544 0.62282
 C284 C 0.92918 0.07186 0.60113
 C285 C 0.94080 0.06004 0.58281
 C286 C 0.95486 0.04569 0.56122
 C287 C 0.97940 0.05584 0.55096
 C288 C 0.99359 0.04142 0.53071
 C289 C 0.98310 0.01688 0.51960
 C290 C 0.95879 0.00645 0.53107
 C291 C 0.94465 0.02092 0.55131
 H292 H 0.85803 0.08075 0.66592
 H293 H 0.92037 0.14240 0.66768
 H294 H 0.89826 0.16442 0.70652
 H295 H 0.83536 0.10220 0.70474
 H296 H 0.98788 0.07466 0.55901
 H297 H 1.01309 0.04929 0.52411
 H298 H 0.95090 -0.01322 0.52474
 H299 H 0.92600 0.01250 0.55963
 C300 C 0.32594 1.09956 0.13484
 C301 C 0.33734 1.11084 0.11110
 C302 C 0.32633 1.13482 0.10001
 C303 C 0.30388 1.14738 0.11246
 C304 C 0.29205 1.13610 0.13625
 C305 C 0.30350 1.11206 0.14734
 C306 C 0.35989 1.09744 0.09776
 C307 C 0.37851 1.08602 0.08635
 C308 C 0.39999 1.07240 0.07272
 C309 C 0.41806 1.06057 0.06083
 C310 C 0.43930 1.04621 0.04635
 C311 C 0.44906 1.05635 0.02142
 C312 C 0.46890 1.04189 0.00678
 C313 C 0.48011 1.01733 0.01719
 C314 C 0.46916 1.00691 0.04191
 C315 C 0.44931 1.02142 0.05650
 H316 H 0.33429 1.08096 0.14359
 H317 H 0.33497 1.14372 0.08161
 H318 H 0.29584 1.16581 0.10324
 H319 H 0.29514 1.10267 0.16555
 H320 H 0.44093 1.07519 0.01298
 H321 H 0.47513 1.04977 -0.01300
 H322 H 0.47558 0.98724 0.04980
 H323 H 0.44137 1.01299 0.07545
 C324 C 0.67262 1.13495 -0.10072
 C325 C 0.66234 1.11041 -0.11118
 C326 C 0.67446 1.09847 -0.13425
 C327 C 0.69692 1.11086 -0.14669
 C328 C 0.70765 1.13546 -0.13622
 C329 C 0.69508 1.14741 -0.11312
 C330 C 0.63977 1.09714 -0.09787
 C331 C 0.62113 1.08581 -0.08652
 C332 C 0.59961 1.07229 -0.07298
 C333 C 0.58149 1.06053 -0.06120
 C334 C 0.56020 1.04623 -0.04686
 C335 C 0.55030 1.02148 -0.05712
 C336 C 0.53044 1.00700 -0.04265
 C337 C 0.51934 1.01740 -0.01796
 C338 C 0.53040 1.04195 -0.00746
 C339 C 0.55029 1.05637 -0.02196
 H340 H 0.66338 1.14439 -0.08285
 H341 H 0.66669 1.07944 -0.14252
 H342 H 0.70589 1.10094 -0.16435
 H343 H 0.70252 1.16632 -0.10445
 H344 H 0.55836 1.01305 -0.07604
 H345 H 0.52416 0.98732 -0.05058
 H346 H 0.52407 1.04981 0.01231
 H347 H 0.55835 1.07516 -0.01343
 C348 C 0.32750 0.89949 -0.13560
 C349 C 0.33928 0.88770 -0.11231
 C350 C 0.32878 0.86328 -0.10179
 C351 C 0.30635 0.85087 -0.11427
 C352 C 0.29400 0.86277 -0.13747
 C353 C 0.30507 0.88714 -0.14812
 C354 C 0.36160 0.90109 -0.09875
 C355 C 0.37999 0.91260 -0.08719
 C356 C 0.40117 0.92639 -0.07341
 C357 C 0.41897 0.93841 -0.06145
 C358 C 0.43989 0.95304 -0.04694
 C359 C 0.44972 0.94304 -0.02198
 C360 C 0.46932 0.95771 -0.00737
 C361 C 0.48023 0.98234 -0.01786
 C362 C 0.46913 0.99265 -0.04255
 C363 C 0.44954 0.97793 -0.05712
 H364 H 0.33548 0.91840 -0.14393
 H365 H 0.33777 0.85394 -0.08377
 H366 H 0.29870 0.83208 -0.10550
 H367 H 0.29635 0.89697 -0.16593
 H368 H 0.44186 0.92414 -0.01352
 H369 H 0.47563 0.94993 0.01241
 H370 H 0.47529 1.01237 -0.05046
 H371 H 0.44152 0.98625 -0.07607
 C372 C 0.67288 0.86454 0.10027
 C373 C 0.66279 0.88940 0.11028
 C374 C 0.67502 0.90163 0.13309
 C375 C 0.69738 0.88917 0.14573
 C376 C 0.70790 0.86424 0.13571
 C377 C 0.69524 0.85202 0.11287
 C378 C 0.64029 0.90268 0.09683
 C379 C 0.62167 0.91404 0.08540
 C380 C 0.60015 0.92760 0.07184
 C381 C 0.58201 0.93939 0.06007
 C382 C 0.56067 0.95371 0.04578
 C383 C 0.55072 0.97852 0.05601
 C384 C 0.53072 0.99296 0.04162
 C385 C 0.51958 0.98247 0.01705
 C386 C 0.53074 0.95790 0.00654
 C387 C 0.55071 0.94349 0.02098
 H388 H 0.66357 0.85488 0.08261
 H389 H 0.66739 0.92091 0.14100
 H390 H 0.70645 0.89933 0.16316
 H391 H 0.70251 0.83283 0.10456
 H392 H 0.55882 0.98701 0.07484
 H393 H 0.52435 1.01264 0.04955
 H394 H 0.52438 0.94998 -0.01317
 H395 H 0.55878 0.92464 0.01250
   
