data_POSCAR
  _audit_creation_date              2014-09-24
  _audit_creation_method            'ToBaCCo'
  _symmetry_space_group_name_H-M    'P1'
  _symmetry_Int_Tables_number       1
  _symmetry_cell_setting            triclinic
  loop_
  _symmetry_equiv_pos_as_xyz
 x,y,z
_cell_length_a 30.4315
_cell_length_b 31.9846
_cell_length_c 30.4306
_cell_angle_alpha 90.016200
_cell_angle_beta 90.005000
_cell_angle_gamma 89.982100
loop_
  _atom_site_label
  _atom_site_type_symbol
  _atom_site_fract_x
  _atom_site_fract_y
  _atom_site_fract_z
Si1 Si 0.25016 0.24996 0.25002
 Si2 Si 0.75012 0.75001 0.25003
 Si3 Si 0.75010 0.25006 0.75004
 Si4 Si 0.25007 0.75001 0.75001
 C5 C 0.06223 0.06245 0.01515
 H6 H 0.06314 0.06414 -0.02035
 C7 C 0.08805 0.08954 0.04020
 H8 H 0.10864 0.11223 0.02369
 C9 C 0.03310 0.03157 0.07964
 H10 H 0.01126 0.00934 0.09495
 C11 C 0.05832 0.05810 0.10596
 H12 H 0.05623 0.05530 0.14135
 N13 N 0.03588 0.03384 0.03509
 C14 C 0.01770 -0.06525 -0.06184
 H15 H -0.01780 -0.06697 -0.06259
 C16 C 0.04265 -0.09232 -0.08778
 H17 H 0.02606 -0.11505 -0.10827
 C18 C 0.08229 -0.03422 -0.03310
 H19 H 0.09767 -0.01188 -0.01140
 C20 C 0.10851 -0.06073 -0.05845
 H21 H 0.14391 -0.05784 -0.05658
 Zn22 Zn 0.00141 -0.00124 -0.00131
 N23 N 0.03773 -0.03655 -0.03565
 C24 C -0.03058 0.03127 -0.08233
 N25 N -0.03289 0.03392 -0.03778
 C26 C -0.05887 0.06284 -0.01781
 C27 C -0.08486 0.08981 -0.04281
 C28 C -0.05605 0.05762 -0.10860
 C29 C -0.01550 -0.06480 0.05957
 C30 C -0.04075 -0.09142 0.08572
 C31 C -0.10625 -0.05930 0.05618
 C32 C -0.07974 -0.03331 0.03058
 N33 N -0.03521 -0.03608 0.03317
 H34 H -0.00884 0.00893 -0.09766
 H35 H -0.05960 0.06466 0.01769
 H36 H -0.10604 0.11199 -0.02623
 H37 H -0.05357 0.05520 -0.14400
 H38 H 0.01999 -0.06674 0.06052
 H39 H -0.02439 -0.11344 0.10722
 H40 H -0.14163 -0.05679 0.05346
 H41 H -0.09488 -0.01116 0.00851
 C42 C 0.08873 -0.09016 -0.08643
 C43 C 0.08640 0.08748 0.08628
 C44 C -0.08680 -0.08870 0.08440
 C45 C -0.08384 0.08726 -0.08887
 C46 C 0.06246 0.56484 0.51759
 H47 H 0.06329 0.56646 0.48209
 C48 C 0.08849 0.59186 0.54252
 H49 H 0.10913 0.61443 0.52591
 C50 C 0.03340 0.53417 0.58222
 H51 H 0.01152 0.51202 0.59763
 C52 C 0.05881 0.56064 0.60842
 H53 H 0.05683 0.55788 0.64382
 N54 N 0.03606 0.53635 0.53766
 C55 C 0.01744 0.43689 0.44130
 H56 H -0.01807 0.43519 0.44080
 C57 C 0.04219 0.40971 0.41530
 H58 H 0.02544 0.38691 0.39503
 C59 C 0.08225 0.46803 0.46943
 H60 H 0.09778 0.49047 0.49090
 C61 C 0.10828 0.44141 0.44401
 H62 H 0.14369 0.44430 0.44559
 Zn63 Zn 0.00148 0.50121 0.50141
 N64 N 0.03767 0.46571 0.46719
 C65 C -0.03022 0.53330 0.42018
 N66 N -0.03276 0.53620 0.46470
 C67 C -0.05898 0.56512 0.48435
 C68 C -0.08502 0.59180 0.45903
 C69 C -0.05571 0.55935 0.39361
 C70 C -0.01547 0.43775 0.56238
 C71 C -0.04074 0.41089 0.58824
 C72 C -0.10624 0.44284 0.55847
 C73 C -0.07971 0.46907 0.53316
 N74 N -0.03518 0.46646 0.53596
 H75 H -0.00828 0.51099 0.40509
 H76 H -0.05990 0.56715 0.51983
 H77 H -0.10640 0.61397 0.47535
 H78 H -0.05305 0.55672 0.35823
 H79 H 0.02001 0.43593 0.56348
 H80 H -0.02439 0.38882 0.60970
 H81 H -0.14161 0.44517 0.55553
 H82 H -0.09483 0.49120 0.51106
 C83 C 0.08827 0.41189 0.41628
 C84 C 0.08698 0.58986 0.58860
 C85 C -0.08680 0.41336 0.58662
 C86 C -0.08378 0.58894 0.41299
 C87 C 0.55930 0.06268 0.51736
 H88 H 0.55988 0.06427 0.48185
 C89 C 0.58540 0.08980 0.54207
 H90 H 0.60582 0.11245 0.52529
 C91 C 0.53086 0.03190 0.58221
 H92 H 0.50922 0.00965 0.59778
 C93 C 0.55636 0.05848 0.60820
 H94 H 0.55467 0.05572 0.64362
 N95 N 0.53320 0.03408 0.53763
 C96 C 0.51527 -0.06544 0.44125
 H97 H 0.47978 -0.06734 0.44053
 C98 C 0.54034 -0.09235 0.41523
 H99 H 0.52386 -0.11516 0.39473
 C100 C 0.57972 -0.03404 0.46986
 H101 H 0.59501 -0.01162 0.49152
 C102 C 0.60606 -0.06039 0.44444
 H103 H 0.64144 -0.05727 0.44622
 Zn104 Zn 0.49874 -0.00127 0.50152
 N105 N 0.53518 -0.03661 0.46736
 C106 C 0.46718 0.03088 0.42024
 N107 N 0.46443 0.03362 0.46476
 C108 C 0.43820 0.06255 0.48440
 C109 C 0.41246 0.08947 0.45907
 C110 C 0.44198 0.05717 0.39365
 C111 C 0.48207 -0.06466 0.56265
 C112 C 0.45693 -0.09144 0.58872
 C113 C 0.39129 -0.05970 0.55905
 C114 C 0.41769 -0.03354 0.53352
 N115 N 0.46223 -0.03607 0.53619
 H116 H 0.48913 0.00857 0.40517
 H117 H 0.43714 0.06447 0.51989
 H118 H 0.39113 0.11169 0.47537
 H119 H 0.44487 0.05471 0.35828
 H120 H 0.51757 -0.06641 0.56366
 H121 H 0.47339 -0.11339 0.61023
 H122 H 0.35590 -0.05742 0.55623
 H123 H 0.40246 -0.01149 0.51140
 C124 C 0.58641 -0.08988 0.41646
 C125 C 0.58428 0.08779 0.58816
 C126 C 0.41087 -0.08904 0.58728
 C127 C 0.41401 0.08686 0.41302
 C128 C 0.55937 0.56507 0.01516
 H129 H 0.56015 0.56687 -0.02033
 C130 C 0.58548 0.59192 0.04020
 H131 H 0.60612 0.61457 0.02369
 C132 C 0.53046 0.53403 0.07966
 H133 H 0.50863 0.51178 0.09497
 C134 C 0.55595 0.56032 0.10596
 H135 H 0.55406 0.55734 0.14135
 N136 N 0.53305 0.53645 0.03511
 C137 C 0.51523 0.43721 -0.06162
 H138 H 0.47974 0.43541 -0.06246
 C139 C 0.54031 0.41006 -0.08735
 H140 H 0.52383 0.38721 -0.10778
 C141 C 0.57968 0.46845 -0.03281
 H142 H 0.59495 0.49087 -0.01114
 C143 C 0.60602 0.44187 -0.05794
 H144 H 0.64141 0.44481 -0.05596
 Zn145 Zn 0.49865 0.50127 -0.00126
 N146 N 0.53513 0.46604 -0.03549
 C147 C 0.46682 0.53356 -0.08239
 N148 N 0.46422 0.53623 -0.03785
 C149 C 0.43794 0.56502 -0.01807
 C150 C 0.41197 0.59186 -0.04327
 C151 C 0.44140 0.55978 -0.10885
 C152 C 0.48232 0.43755 0.05944
 C153 C 0.45739 0.41063 0.08555
 C154 C 0.39152 0.44247 0.05650
 C155 C 0.41772 0.46877 0.03092
 N156 N 0.46228 0.46626 0.03328
 H157 H 0.48880 0.51135 -0.09757
 H158 H 0.43697 0.56687 0.01741
 H159 H 0.39058 0.61396 -0.02686
 H160 H 0.44415 0.55738 -0.14423
 H161 H 0.51782 0.43583 0.06021
 H162 H 0.47402 0.38861 0.10685
 H163 H 0.35611 0.44476 0.05396
 H164 H 0.40234 0.49094 0.00904
 C165 C 0.58638 0.41228 -0.08583
 C166 C 0.58412 0.58962 0.08627
 C167 C 0.41132 0.41303 0.08445
 C168 C 0.41333 0.58931 -0.08933
 C169 C 0.16810 -0.17089 -0.16693
 C170 C 0.12944 -0.15349 -0.18382
 C171 C 0.10351 -0.12740 -0.15760
 C172 C 0.21770 -0.21916 -0.21710
 C173 C 0.15485 -0.13610 -0.09739
 C174 C 0.18071 -0.16221 -0.12366
 C175 C 0.19505 -0.19727 -0.19416
 C176 C 0.11598 -0.11832 -0.11410
 H177 H 0.11946 -0.15990 -0.21733
 H178 H 0.07410 -0.11378 -0.17161
 H179 H 0.16504 -0.13016 -0.06387
 H180 H 0.21055 -0.17559 -0.11024
 C181 C 0.16690 0.33096 0.33531
 C182 C 0.12811 0.34836 0.31871
 C183 C 0.10243 0.37452 0.34508
 C184 C 0.21606 0.28256 0.28488
 C185 C 0.15428 0.36591 0.40488
 C186 C 0.17988 0.33972 0.37845
 C187 C 0.19359 0.30450 0.30792
 C188 C 0.11528 0.38368 0.38846
 H189 H 0.11785 0.34189 0.28529
 H190 H 0.07292 0.38814 0.33129
 H191 H 0.16475 0.37191 0.43830
 H192 H 0.20982 0.32635 0.39165
 C193 C 0.66620 -0.16961 0.33532
 C194 C 0.62734 -0.15244 0.31864
 C195 C 0.60126 -0.12669 0.34507
 C196 C 0.71593 -0.21747 0.28487
 C197 C 0.65285 -0.13529 0.40509
 C198 C 0.67886 -0.16106 0.37861
 C199 C 0.69324 -0.19573 0.30792
 C200 C 0.61378 -0.11773 0.38859
 H201 H 0.61732 -0.15876 0.28512
 H202 H 0.57170 -0.11322 0.33122
 H203 H 0.66308 -0.12945 0.43862
 H204 H 0.70883 -0.17429 0.39188
 C205 C 0.66614 0.33117 -0.16548
 C206 C 0.62755 0.34846 -0.18265
 C207 C 0.60150 0.37468 -0.15671
 C208 C 0.71591 0.28268 -0.21523
 C209 C 0.65257 0.36632 -0.09621
 C210 C 0.67855 0.34008 -0.12220
 C211 C 0.69321 0.30466 -0.19244
 C212 C 0.61376 0.38400 -0.11320
 H213 H 0.61773 0.34188 -0.21617
 H214 H 0.57215 0.38823 -0.17093
 H215 H 0.66259 0.37243 -0.06268
 H216 H 0.70832 0.32677 -0.10856
 C217 C -0.16482 0.16799 -0.16769
 C218 C -0.15929 0.12602 -0.17946
 C219 C -0.13288 0.09980 -0.15392
 C220 C -0.21515 0.21707 -0.21618
 C221 C -0.11738 0.15750 -0.10464
 C222 C -0.14379 0.18368 -0.13027
 C223 C -0.19216 0.19483 -0.19399
 C224 C -0.11164 0.11523 -0.11617
 H225 H -0.17554 0.11353 -0.20830
 H226 H -0.12961 0.06730 -0.16333
 H227 H -0.10103 0.17044 -0.07611
 H228 H -0.14776 0.21616 -0.12093
 C229 C -0.16486 0.66856 0.33304
 C230 C -0.15901 0.62654 0.32167
 C231 C -0.13259 0.60067 0.34761
 C232 C -0.21516 0.71710 0.28392
 C233 C -0.11774 0.65884 0.39647
 C234 C -0.14416 0.68467 0.37046
 C235 C -0.19219 0.69506 0.30635
 C236 C -0.11166 0.61652 0.38534
 H237 H -0.17501 0.61373 0.29285
 H238 H -0.12906 0.56812 0.33850
 H239 H -0.10163 0.67210 0.42498
 H240 H -0.14838 0.71719 0.37949
 C241 C 0.33447 0.16779 0.33297
 C242 C 0.33997 0.12579 0.32134
 C243 C 0.36588 0.09949 0.34731
 C244 C 0.28479 0.21695 0.28389
 C245 C 0.38092 0.15719 0.39673
 C246 C 0.35501 0.18344 0.37068
 C247 C 0.30754 0.19468 0.30630
 C248 C 0.38664 0.11488 0.38534
 H249 H 0.32408 0.11332 0.29229
 H250 H 0.36915 0.06696 0.33798
 H251 H 0.39691 0.17010 0.42547
 H252 H 0.35103 0.21594 0.37992
 C253 C 0.33287 0.66984 -0.16895
 C254 C 0.33863 0.62789 -0.18066
 C255 C 0.36484 0.60172 -0.15483
 C256 C 0.28285 0.71881 -0.21791
 C257 C 0.37967 0.65945 -0.10539
 C258 C 0.35346 0.68557 -0.13130
 C259 C 0.30572 0.69662 -0.19552
 C260 C 0.38565 0.61719 -0.11686
 H261 H 0.32272 0.61535 -0.20966
 H262 H 0.36830 0.56923 -0.16422
 H263 H 0.39569 0.67244 -0.07670
 H264 H 0.34930 0.71804 -0.12200
 C265 C -0.16667 -0.16834 0.16547
 C266 C -0.12914 -0.18439 0.14492
 C267 C -0.10313 -0.15854 0.11853
 C268 C -0.21587 -0.21697 0.21556
 C269 C -0.15223 -0.10048 0.13313
 C270 C -0.17815 -0.12637 0.15953
 C271 C -0.19339 -0.19488 0.19271
 C272 C -0.11440 -0.11627 0.11233
 H273 H -0.12003 -0.21688 0.14923
 H274 H -0.07455 -0.17176 0.10253
 H275 H -0.16144 -0.06796 0.12950
 H276 H -0.20707 -0.11360 0.17540
 C277 C -0.16676 0.33243 0.66618
 C278 C -0.17850 0.37438 0.66056
 C279 C -0.15255 0.40069 0.63466
 C280 C -0.21592 0.28318 0.71565
 C281 C -0.10289 0.34310 0.61990
 C282 C -0.12893 0.31683 0.64580
 C283 C -0.19346 0.30550 0.69302
 C284 C -0.11442 0.38535 0.61404
 H285 H -0.20764 0.38681 0.67632
 H286 H -0.16198 0.43317 0.63128
 H287 H -0.07407 0.33022 0.60402
 H288 H -0.11960 0.28437 0.64987
 C289 C 0.33132 -0.16960 0.66770
 C290 C 0.31950 -0.12769 0.66185
 C291 C 0.34532 -0.10151 0.63567
 C292 C 0.28227 -0.21867 0.71748
 C293 C 0.39499 -0.15913 0.62110
 C294 C 0.36909 -0.18527 0.64727
 C295 C 0.30471 -0.19643 0.69474
 C296 C 0.38339 -0.11692 0.61499
 H297 H 0.29040 -0.11521 0.67763
 H298 H 0.33583 -0.06906 0.63211
 H299 H 0.42377 -0.17206 0.60518
 H300 H 0.37847 -0.21770 0.65150
 C301 C 0.33260 0.33227 0.16543
 C302 C 0.37015 0.31665 0.14455
 C303 C 0.39576 0.34285 0.11817
 C304 C 0.28403 0.28308 0.21553
 C305 C 0.34623 0.40043 0.13340
 C306 C 0.32070 0.37418 0.15979
 C307 C 0.30627 0.30538 0.19267
 C308 C 0.38408 0.38507 0.11230
 H309 H 0.37958 0.28421 0.14860
 H310 H 0.42437 0.32995 0.10192
 H311 H 0.33670 0.43289 0.13002
 H312 H 0.29176 0.38662 0.17591
 C313 C 0.16603 0.16864 0.16596
 C314 C 0.12268 0.15994 0.17824
 C315 C 0.09670 0.13368 0.15228
 C316 C 0.21565 0.21723 0.21572
 C317 C 0.15736 0.12487 0.10149
 C318 C 0.18329 0.15111 0.12752
 C319 C 0.19295 0.19520 0.19300
 C320 C 0.11378 0.11576 0.11364
 H321 H 0.10897 0.17343 0.20789
 H322 H 0.06311 0.12774 0.16220
 H323 H 0.17164 0.11115 0.07226
 H324 H 0.21687 0.15753 0.11780
 C325 C 0.16741 0.67068 0.66792
 C326 C 0.12407 0.66220 0.68038
 C327 C 0.09783 0.63605 0.65455
 C328 C 0.21741 0.71908 0.71752
 C329 C 0.15823 0.62692 0.60351
 C330 C 0.18441 0.65305 0.62941
 C331 C 0.19458 0.69713 0.69485
 C332 C 0.11464 0.61804 0.61583
 H333 H 0.11056 0.67577 0.71008
 H334 H 0.06425 0.63028 0.66461
 H335 H 0.17231 0.61312 0.57422
 H336 H 0.21798 0.65930 0.61955
 C337 C 0.66521 0.16880 0.66670
 C338 C 0.62199 0.16024 0.67956
 C339 C 0.59558 0.13402 0.65398
 C340 C 0.71549 0.21734 0.71585
 C341 C 0.65556 0.12497 0.60242
 C342 C 0.68191 0.15117 0.62807
 C343 C 0.69254 0.19533 0.69336
 C344 C 0.61210 0.11601 0.61514
 H345 H 0.60871 0.17381 0.70936
 H346 H 0.56211 0.12818 0.66434
 H347 H 0.66941 0.11117 0.57303
 H348 H 0.71538 0.15748 0.61791
 C349 C 0.66521 0.66942 0.16600
 C350 C 0.62185 0.66106 0.17853
 C351 C 0.59538 0.63526 0.15255
 C352 C 0.71551 0.71739 0.21573
 C353 C 0.65558 0.62623 0.10124
 C354 C 0.68199 0.65202 0.12729
 C355 C 0.69256 0.69559 0.19302
 C356 C 0.61198 0.61748 0.11363
 H357 H 0.60850 0.67447 0.20838
 H358 H 0.56181 0.62958 0.16267
 H359 H 0.66949 0.61259 0.07179
 H360 H 0.71556 0.65819 0.11737
   
