data_POSCAR
  _audit_creation_date              2014-09-24
  _audit_creation_method            'ToBaCCo'
  _symmetry_space_group_name_H-M    'P1'
  _symmetry_Int_Tables_number       1
  _symmetry_cell_setting            triclinic
  loop_
  _symmetry_equiv_pos_as_xyz
 x,y,z
_cell_length_a 25.4146
_cell_length_b 25.3756
_cell_length_c 43.5724
_cell_angle_alpha 89.895900
_cell_angle_beta 92.413200
_cell_angle_gamma 89.996600
loop_
  _atom_site_label
  _atom_site_type_symbol
  _atom_site_fract_x
  _atom_site_fract_y
  _atom_site_fract_z
C1 C -0.00243 0.38714 1.02825
 C2 C -0.00046 0.36028 1.00036
 C3 C 0.00152 0.38742 0.97254
 C4 C 0.00172 0.44308 0.97227
 C5 C -0.00043 0.47095 1.00041
 C6 C -0.00260 0.44291 1.02857
 C7 C -0.00488 0.47138 1.05616
 C8 C -0.00507 0.52624 1.05612
 C9 C -0.00283 0.55484 1.02850
 C10 C -0.00040 0.52694 1.00038
 C11 C 0.00402 0.47153 0.94466
 C12 C 0.00426 0.52639 0.94462
 C13 C 0.00205 0.55492 0.97221
 C14 C 0.00222 0.61068 0.97249
 C15 C -0.00035 0.63767 1.00031
 C16 C -0.00295 0.61061 1.02816
 H17 H -0.00661 0.45137 1.07806
 H18 H -0.00692 0.54613 1.07801
 H19 H 0.00573 0.45155 0.92279
 H20 H 0.00613 0.54633 0.92271
 H21 H -0.00046 0.31746 1.00023
 H22 H -0.00033 0.68052 1.00028
 C23 C 0.39238 0.00819 0.52937
 C24 C 0.36265 0.00850 0.50169
 C25 C 0.38682 0.00890 0.47350
 C26 C 0.44233 0.00887 0.47268
 C27 C 0.47302 0.00875 0.50066
 C28 C 0.44796 0.00851 0.52916
 C29 C 0.47907 0.00851 0.55661
 C30 C 0.53383 0.00871 0.55612
 C31 C 0.55956 0.00876 0.52813
 C32 C 0.52884 0.00873 0.50014
 C33 C 0.46793 0.00886 0.44470
 C34 C 0.52268 0.00861 0.44418
 C35 C 0.55385 0.00852 0.47162
 C36 C 0.60940 0.00816 0.47136
 C37 C 0.63923 0.00839 0.49900
 C38 C 0.61517 0.00875 0.52726
 H39 H 0.46128 0.00839 0.57876
 H40 H 0.55591 0.00873 0.57792
 H41 H 0.44578 0.00894 0.42292
 H42 H 0.54043 0.00852 0.42202
 H43 H 0.31996 0.00828 0.50208
 H44 H 0.68193 0.00815 0.49846
 C45 C 0.09031 0.00258 0.26459
 H46 H 0.09413 0.00207 0.23996
 C47 C 0.13533 0.00494 0.28415
 H48 H 0.17400 0.00602 0.27462
 C49 C 0.03538 0.00231 0.30726
 H50 H -0.00351 0.00216 0.31629
 C51 C 0.07923 0.00472 0.32756
 H52 H 0.07386 0.00575 0.35209
 N53 N 0.04159 0.00042 0.27640
 C54 C -0.06114 -0.07572 0.20687
 H55 H -0.09382 -0.04836 0.20620
 C56 C -0.06216 -0.11939 0.18741
 H57 H -0.09565 -0.12569 0.17163
 C58 C 0.02312 -0.10025 0.22763
 H59 H 0.05624 -0.09277 0.24334
 C60 C 0.02369 -0.14443 0.20854
 H61 H 0.05750 -0.17048 0.20938
 Zn62 Zn -0.01844 -0.00310 0.24908
 N63 N -0.01833 -0.06622 0.22587
 C64 C -0.01535 0.04850 0.19150
 N65 N -0.01639 0.05597 0.22240
 C66 C -0.01404 0.10525 0.23472
 C67 C -0.01215 0.14954 0.21562
 C68 C -0.01345 0.09158 0.17166
 C69 C -0.08885 -0.04523 0.28995
 C70 C -0.13150 -0.04609 0.30911
 C71 C -0.15798 0.03928 0.28922
 C72 C -0.11478 0.03856 0.27039
 N73 N -0.08051 -0.00272 0.27170
 H74 H -0.01561 0.00920 0.18210
 H75 H -0.01383 0.11009 0.25939
 H76 H -0.01072 0.18865 0.22554
 H77 H -0.01292 0.08519 0.14709
 H78 H -0.06130 -0.07775 0.29029
 H79 H -0.13681 -0.07932 0.32432
 H80 H -0.18418 0.07298 0.28879
 H81 H -0.10819 0.07145 0.25529
 C82 C -0.01900 -0.15360 0.18794
 C83 C 0.12963 0.00571 0.31594
 C84 C -0.16589 -0.00309 0.30908
 C85 C -0.01208 0.14252 0.18378
 C86 C 0.01369 0.10479 0.76479
 H87 H 0.01362 0.10974 0.74012
 C88 C 0.01170 0.14899 0.78385
 H89 H 0.01034 0.18815 0.77391
 C90 C 0.01476 0.04785 0.80803
 H91 H 0.01496 0.00850 0.81745
 C92 C 0.01276 0.09083 0.82784
 H93 H 0.01210 0.08433 0.85241
 N94 N 0.01597 0.05545 0.77713
 C95 C 0.08886 -0.04544 0.70979
 H96 H 0.06130 -0.07795 0.70940
 C97 C 0.13168 -0.04625 0.69076
 H98 H 0.13712 -0.07942 0.67560
 C99 C 0.11467 0.03824 0.72937
 H100 H 0.10797 0.07105 0.74445
 C101 C 0.15804 0.03902 0.71068
 H102 H 0.18427 0.07268 0.71118
 Zn103 Zn 0.01820 -0.00352 0.75051
 N104 N 0.08039 -0.00302 0.72799
 C105 C -0.03547 0.00194 0.69227
 N106 N -0.04175 0.00001 0.72312
 C107 C -0.09050 0.00213 0.73489
 C108 C -0.13548 0.00451 0.71530
 C109 C -0.07928 0.00436 0.67193
 C110 C 0.06087 -0.07618 0.79286
 C111 C 0.06184 -0.11982 0.81244
 C112 C -0.02399 -0.14485 0.79133
 C113 C -0.02337 -0.10070 0.77212
 N114 N 0.01808 -0.06668 0.77381
 H115 H 0.00344 0.00181 0.68328
 H116 H -0.09438 0.00159 0.75952
 H117 H -0.17418 0.00556 0.72479
 H118 H -0.07385 0.00541 0.64740
 H119 H 0.09354 -0.04882 0.79348
 H120 H 0.09529 -0.12609 0.82826
 H121 H -0.05781 -0.17087 0.79054
 H122 H -0.05647 -0.09322 0.75637
 C123 C 0.16611 -0.00328 0.69088
 C124 C 0.01147 0.14183 0.81569
 C125 C 0.01866 -0.15399 0.81199
 C126 C -0.12971 0.00532 0.68351
 C127 C -0.00564 -0.36002 0.05435
 C128 C -0.00801 -0.33252 0.07679
 C129 C -0.01074 -0.29838 0.10221
 C130 C -0.01295 -0.26760 0.12315
 C131 C -0.01536 -0.22971 0.14672
 C132 C -0.01718 -0.19583 0.16600
 C133 C -0.00402 0.35752 0.05446
 C134 C -0.00530 0.32943 0.07676
 C135 C -0.00669 0.29420 0.10181
 C136 C -0.00785 0.26218 0.12223
 C137 C -0.00921 0.22254 0.14495
 C138 C -0.01045 0.18696 0.16327
 C139 C 0.36402 0.00701 0.55743
 C140 C 0.33836 0.00577 0.58007
 C141 C 0.30610 0.00406 0.60563
 C142 C 0.27670 0.00246 0.62661
 C143 C 0.24020 0.00047 0.65012
 C144 C 0.20733 -0.00125 0.66924
 C145 C -0.35276 0.00885 0.55327
 C146 C -0.32280 0.00886 0.57548
 C147 C -0.28570 0.00870 0.60051
 C148 C -0.25235 0.00837 0.62100
 C149 C -0.21142 0.00769 0.64392
 C150 C -0.17496 0.00680 0.66253
 C151 C 0.00494 -0.35990 0.94625
 C152 C 0.00735 -0.33242 0.92375
 C153 C 0.01013 -0.29836 0.89823
 C154 C 0.01240 -0.26767 0.87719
 C155 C 0.01487 -0.22990 0.85348
 C156 C 0.01676 -0.19612 0.83407
 C157 C 0.00321 0.35629 0.94485
 C158 C 0.00449 0.32824 0.92260
 C159 C 0.00590 0.29309 0.89759
 C160 C 0.00708 0.26116 0.87719
 C161 C 0.00849 0.22164 0.85449
 C162 C 0.00978 0.18616 0.83618
 C163 C -0.36236 0.00702 0.44325
 C164 C -0.33686 0.00581 0.42056
 C165 C -0.30484 0.00414 0.39489
 C166 C -0.27569 0.00256 0.37380
 C167 C -0.23948 0.00061 0.35014
 C168 C -0.20685 -0.00110 0.33088
 C169 C 0.35296 0.00907 0.44601
 C170 C 0.32291 0.00911 0.42385
 C171 C 0.28574 0.00900 0.39886
 C172 C 0.25235 0.00870 0.37838
 C173 C 0.21140 0.00805 0.35548
 C174 C 0.17491 0.00718 0.33689
   
