data_POSCAR
  _audit_creation_date              2014-09-24
  _audit_creation_method            'ToBaCCo'
  _symmetry_space_group_name_H-M    'P1'
  _symmetry_Int_Tables_number       1
  _symmetry_cell_setting            triclinic
  loop_
  _symmetry_equiv_pos_as_xyz
 x,y,z
_cell_length_a 44.6484
_cell_length_b 44.6454
_cell_length_c 44.6434
_cell_angle_alpha 89.999400
_cell_angle_beta 89.999900
_cell_angle_gamma 90.000600
loop_
  _atom_site_label
  _atom_site_type_symbol
  _atom_site_fract_x
  _atom_site_fract_y
  _atom_site_fract_z
Si1 Si 0.25001 0.49999 0.99999
 Si2 Si 0.75000 0.50000 -0.00001
 Si3 Si -0.00000 0.24999 0.49999
 Si4 Si 1.00000 0.75000 0.49999
 Si5 Si 0.50000 -0.00000 0.24999
 Si6 Si 0.50000 -0.00000 0.74999
 C7 C 0.29575 0.02288 0.46410
 H8 H 0.29643 0.03994 0.48129
 C9 C 0.31615 0.02373 0.44043
 H10 H 0.33258 0.04155 0.43928
 C11 C 0.27415 -0.02179 0.44506
 H12 H 0.25820 -0.03983 0.44728
 C13 C 0.29419 -0.02178 0.42100
 H14 H 0.29344 -0.03968 0.40464
 N15 N 0.27522 0.00043 0.46593
 C16 C 0.20424 0.03589 0.52287
 H17 H 0.20356 0.01870 0.53993
 C18 C 0.18384 0.05956 0.52372
 H19 H 0.16741 0.06071 0.54154
 C20 C 0.22584 0.05493 0.47820
 H21 H 0.24179 0.05271 0.46016
 C22 C 0.20580 0.07898 0.47820
 H23 H 0.20655 0.09535 0.46030
 Zn24 Zn 0.25000 0.00000 0.49999
 N25 N 0.22477 0.03406 0.50042
 C26 C 0.27415 0.02179 0.55492
 N27 N 0.27522 -0.00042 0.53405
 C28 C 0.29575 -0.02287 0.53588
 C29 C 0.31615 -0.02372 0.55955
 C30 C 0.29419 0.02179 0.57898
 C31 C 0.20424 -0.03588 0.47712
 C32 C 0.18384 -0.05956 0.47626
 C33 C 0.20580 -0.07898 0.52178
 C34 C 0.22584 -0.05493 0.52178
 N35 N 0.22477 -0.03406 0.49957
 H36 H 0.25820 0.03983 0.55270
 H37 H 0.29643 -0.03994 0.51869
 H38 H 0.33258 -0.04154 0.56070
 H39 H 0.29344 0.03969 0.59535
 H40 H 0.20356 -0.01869 0.46005
 H41 H 0.16741 -0.06071 0.45844
 H42 H 0.20655 -0.09535 0.53968
 H43 H 0.24179 -0.05270 0.53982
 C44 C 0.18458 0.08124 0.50113
 C45 C 0.31541 0.00115 0.41874
 C46 C 0.18458 -0.08124 0.49885
 C47 C 0.31541 -0.00114 0.58124
 C48 C 0.70425 0.02286 0.53588
 H49 H 0.70357 0.03993 0.51869
 C50 C 0.68384 0.02371 0.55955
 H51 H 0.66741 0.04153 0.56070
 C52 C 0.72584 -0.02181 0.55492
 H53 H 0.74180 -0.03984 0.55269
 C54 C 0.70581 -0.02180 0.57898
 H55 H 0.70656 -0.03970 0.59534
 N56 N 0.72478 0.00041 0.53405
 C57 C 0.79576 0.03588 0.47711
 H58 H 0.79644 0.01869 0.46005
 C59 C 0.81616 0.05955 0.47626
 H60 H 0.83259 0.06070 0.45844
 C61 C 0.77416 0.05492 0.52178
 H62 H 0.75821 0.05269 0.53982
 C63 C 0.79420 0.07897 0.52178
 H64 H 0.79345 0.09534 0.53968
 Zn65 Zn 0.75000 -0.00001 0.49999
 N66 N 0.77523 0.03405 0.49956
 C67 C 0.72584 0.02178 0.44506
 N68 N 0.72478 -0.00044 0.46593
 C69 C 0.70425 -0.02288 0.46410
 C70 C 0.68384 -0.02374 0.44042
 C71 C 0.70581 0.02178 0.42100
 C72 C 0.79576 -0.03590 0.52286
 C73 C 0.81616 -0.05957 0.52372
 C74 C 0.79420 -0.07899 0.47820
 C75 C 0.77416 -0.05494 0.47819
 N76 N 0.77523 -0.03407 0.50041
 H77 H 0.74180 0.03982 0.44728
 H78 H 0.70357 -0.03995 0.48129
 H79 H 0.66741 -0.04156 0.43928
 H80 H 0.70656 0.03968 0.40463
 H81 H 0.79644 -0.01871 0.53993
 H82 H 0.83259 -0.06072 0.54154
 H83 H 0.79345 -0.09536 0.46030
 H84 H 0.75821 -0.05271 0.46015
 C85 C 0.81542 0.08123 0.49885
 C86 C 0.68458 0.00113 0.58123
 C87 C 0.81542 -0.08125 0.50113
 C88 C 0.68458 -0.00115 0.41874
 C89 C 0.47708 0.20424 1.03584
 H90 H 0.46004 0.20355 1.01862
 C91 C 0.47620 0.18384 1.05952
 H92 H 0.45839 0.16740 1.06063
 C93 C 0.52171 0.22586 1.05495
 H94 H 0.53974 0.24182 1.05276
 C95 C 0.52167 0.20582 1.07901
 H96 H 0.53955 0.20658 1.09540
 N97 N 0.49952 0.22479 1.03405
 C98 C 0.46417 0.29577 0.97705
 H99 H 0.48140 0.29646 0.96002
 C100 C 0.44050 0.31617 0.97614
 H101 H 0.43939 0.33261 0.95832
 C102 C 0.44503 0.27416 1.02166
 H103 H 0.44721 0.25819 1.03970
 C104 C 0.42097 0.29419 1.02160
 H105 H 0.40456 0.29343 1.03946
 Zn106 Zn 0.50001 0.25001 0.99999
 N107 N 0.46595 0.27523 0.99950
 C108 C 0.47830 0.22585 0.94502
 N109 N 0.50049 0.22479 0.96593
 C110 C 0.52294 0.20425 0.96413
 C111 C 0.52382 0.18385 0.94045
 C112 C 0.47834 0.20582 0.92097
 C113 C 0.53583 0.29577 1.02293
 C114 C 0.55951 0.31617 1.02384
 C115 C 0.57904 0.29420 0.97838
 C116 C 0.55498 0.27417 0.97832
 N117 N 0.53406 0.27523 1.00048
 H118 H 0.46027 0.24181 0.94723
 H119 H 0.53998 0.20356 0.98134
 H120 H 0.54164 0.16741 0.93933
 H121 H 0.46046 0.20657 0.90458
 H122 H 0.51860 0.29646 1.03996
 H123 H 0.56061 0.33261 1.04166
 H124 H 0.59545 0.29345 0.96052
 H125 H 0.55280 0.25821 0.96027
 C126 C 0.41876 0.31542 0.99867
 C127 C 0.49875 0.18459 1.08123
 C128 C 0.58124 0.31543 1.00131
 C129 C 0.50127 0.18459 0.91874
 C130 C 0.47707 0.79575 -0.03586
 H131 H 0.46003 0.79643 -0.01865
 C132 C 0.47619 0.81615 -0.05954
 H133 H 0.45838 0.83259 -0.06066
 C134 C 0.52170 0.77414 -0.05497
 H135 H 0.53973 0.75818 -0.05278
 C136 C 0.52166 0.79417 -0.07903
 H137 H 0.53954 0.79342 -0.09542
 N138 N 0.49951 0.77521 -0.03407
 C139 C 0.46417 0.70422 0.02293
 H140 H 0.48140 0.70353 0.03996
 C141 C 0.44049 0.68382 0.02384
 H142 H 0.43939 0.66738 0.04166
 C143 C 0.44502 0.72583 -0.02168
 H144 H 0.44720 0.74179 -0.03972
 C145 C 0.42096 0.70580 -0.02162
 H146 H 0.40455 0.70656 -0.03948
 Zn147 Zn 0.50000 0.74998 -0.00001
 N148 N 0.46594 0.72476 0.00048
 C149 C 0.47829 0.77414 0.05495
 N150 N 0.50048 0.77521 0.03405
 C151 C 0.52293 0.79574 0.03585
 C152 C 0.52381 0.81615 0.05952
 C153 C 0.47833 0.79417 0.07901
 C154 C 0.53583 0.70422 -0.02295
 C155 C 0.55950 0.68382 -0.02386
 C156 C 0.57903 0.70580 0.02160
 C157 C 0.55498 0.72583 0.02166
 N158 N 0.53405 0.72476 -0.00050
 H159 H 0.46026 0.75818 0.05275
 H160 H 0.53997 0.79643 0.01864
 H161 H 0.54162 0.83259 0.06064
 H162 H 0.46045 0.79342 0.09540
 H163 H 0.51860 0.70354 -0.03998
 H164 H 0.56061 0.66739 -0.04168
 H165 H 0.59544 0.70655 0.03946
 H166 H 0.55279 0.74179 0.03970
 C167 C 0.41876 0.68457 0.00131
 C168 C 0.49874 0.81541 -0.08125
 C169 C 0.58124 0.68457 -0.00133
 C170 C 0.50126 0.81540 0.08124
 C171 C 1.03583 0.47706 0.20422
 H172 H 1.01860 0.46003 0.20353
 C173 C 1.05951 0.47615 0.18382
 H174 H 1.06061 0.45833 0.16738
 C175 C 1.05498 0.52167 0.22583
 H176 H 1.05280 0.53971 0.24180
 C177 C 1.07904 0.52160 0.20580
 H178 H 1.09545 0.53946 0.20656
 N179 N 1.03406 0.49950 0.22476
 C180 C 0.97707 0.46414 0.29574
 H181 H 0.96003 0.48135 0.29643
 C182 C 0.97619 0.44046 0.31615
 H183 H 0.95837 0.43934 0.33259
 C184 C 1.02170 0.44504 0.27414
 H185 H 1.03974 0.44724 0.25818
 C186 C 1.02167 0.42098 0.29418
 H187 H 1.03954 0.40459 0.29342
 Zn188 Zn 1.00000 0.50000 0.24998
 N189 N 0.99952 0.46594 0.27521
 C190 C 0.94502 0.47833 0.22583
 N191 N 0.96595 0.50049 0.22476
 C192 C 0.96417 0.52294 0.20422
 C193 C 0.94050 0.52385 0.18381
 C194 C 0.92097 0.47839 0.20579
 C195 C 1.02293 0.53585 0.29575
 C196 C 1.02381 0.55952 0.31615
 C197 C 0.97834 0.57901 0.29417
 C198 C 0.97830 0.55496 0.27413
 N199 N 1.00049 0.53406 0.27520
 H200 H 0.94720 0.46029 0.24179
 H201 H 0.98141 0.53996 0.20353
 H202 H 0.93940 0.54167 0.16738
 H203 H 0.90455 0.46053 0.20655
 H204 H 1.03997 0.51863 0.29644
 H205 H 1.04162 0.56064 0.33259
 H206 H 0.96046 0.59541 0.29341
 H207 H 0.96027 0.55276 0.25817
 C208 C 0.99874 0.41875 0.31541
 C209 C 1.08125 0.49867 0.18457
 C210 C 1.00126 0.58124 0.31540
 C211 C 0.91876 0.50132 0.18456
 C212 C -0.03583 0.47705 0.79577
 H213 H -0.01860 0.46003 0.79646
 C214 C -0.05950 0.47615 0.81617
 H215 H -0.06061 0.45833 0.83260
 C216 C -0.05498 0.52167 0.77415
 H217 H -0.05279 0.53971 0.75819
 C218 C -0.07903 0.52161 0.79419
 H219 H -0.09544 0.53946 0.79343
 N220 N -0.03405 0.49950 0.77523
 C221 C 0.02292 0.46414 0.70424
 H222 H 0.03996 0.48135 0.70354
 C223 C 0.02380 0.44046 0.68383
 H224 H 0.04161 0.43935 0.66739
 C225 C -0.02170 0.44503 0.72585
 H226 H -0.03974 0.44723 0.74181
 C227 C -0.02167 0.42098 0.70581
 H228 H -0.03955 0.40459 0.70657
 Zn229 Zn 0.00000 0.49999 0.75000
 N230 N 0.00048 0.46593 0.72478
 C231 C 0.05498 0.47832 0.77415
 N232 N 0.03406 0.50049 0.77522
 C233 C 0.03583 0.52293 0.79576
 C234 C 0.05951 0.52384 0.81616
 C235 C 0.07904 0.47838 0.79418
 C236 C -0.02293 0.53585 0.70424
 C237 C -0.02381 0.55953 0.68383
 C238 C 0.02167 0.57901 0.70581
 C239 C 0.02171 0.55495 0.72584
 N240 N -0.00048 0.53405 0.72478
 H241 H 0.05280 0.46028 0.75819
 H242 H 0.01860 0.53996 0.79646
 H243 H 0.06062 0.54166 0.83260
 H244 H 0.09545 0.46052 0.79342
 H245 H -0.03997 0.51864 0.70355
 H246 H -0.04163 0.56065 0.66740
 H247 H 0.03955 0.59540 0.70656
 H248 H 0.03974 0.55275 0.74180
 C249 C 0.00125 0.41875 0.68458
 C250 C -0.08124 0.49867 0.81542
 C251 C -0.00126 0.58124 0.68458
 C252 C 0.08125 0.50131 0.81541
 C253 C 0.07784 0.18672 0.50022
 C254 C 0.09862 0.18859 0.47288
 C255 C 0.12092 0.16772 0.47304
 C256 C 0.12022 0.14705 0.50053
 C257 C 0.08865 0.13348 0.50068
 C258 C 0.06640 0.15431 0.50052
 C259 C 0.09868 0.18907 0.52748
 C260 C 0.12098 0.16820 0.52764
 C261 C 0.05351 0.20877 0.50008
 C262 C 0.03272 0.22597 0.50000
 C263 C 0.14391 0.12428 0.50071
 C264 C 0.16276 0.10495 0.50089
 H265 H 0.09607 0.20489 0.45502
 H266 H 0.13748 0.16613 0.45531
 H267 H 0.08416 0.10958 0.50090
 H268 H 0.04285 0.14824 0.50060
 H269 H 0.09617 0.20568 0.54506
 H270 H 0.13758 0.16693 0.54536
 C271 C 0.68673 0.57785 -0.00052
 C272 C 0.68895 0.59857 -0.02787
 C273 C 0.66808 0.62087 -0.02803
 C274 C 0.64705 0.62022 -0.00082
 C275 C 0.66784 0.62104 0.02657
 C276 C 0.68872 0.59874 0.02673
 C277 C 0.65432 0.56640 -0.00062
 C278 C 0.63349 0.58865 -0.00078
 C279 C 0.70878 0.55351 -0.00035
 C280 C 0.72598 0.53273 -0.00021
 C281 C 0.62428 0.64390 -0.00099
 C282 C 0.60495 0.66276 -0.00114
 H283 H 0.70548 0.59599 -0.04552
 H284 H 0.66672 0.63739 -0.04582
 H285 H 0.66633 0.63767 0.04424
 H286 H 0.70509 0.59627 0.04453
 H287 H 0.64826 0.54284 -0.00058
 H288 H 0.60959 0.58415 -0.00087
 C289 C 0.92215 -0.18673 0.50022
 C290 C 0.90155 -0.18884 0.52767
 C291 C 0.87925 -0.16797 0.52783
 C292 C 0.87977 -0.14706 0.50052
 C293 C 0.87885 -0.16798 0.47323
 C294 C 0.90115 -0.18885 0.47307
 C295 C 0.93360 -0.15432 0.50013
 C296 C 0.91135 -0.13349 0.50029
 C297 C 0.94649 -0.20878 0.50007
 C298 C 0.96728 -0.22598 0.50000
 C299 C 0.85609 -0.12429 0.50071
 C300 C 0.83724 -0.10496 0.50089
 H301 H 0.90420 -0.20529 0.54538
 H302 H 0.86280 -0.16653 0.54568
 H303 H 0.86214 -0.16655 0.45562
 H304 H 0.90355 -0.20531 0.45533
 H305 H 0.95715 -0.14825 0.49995
 H306 H 0.91584 -0.10959 0.50025
 C307 C 0.31327 0.42214 0.99948
 C308 C 0.31135 0.40132 1.02678
 C309 C 0.33223 0.37902 1.02663
 C310 C 0.35295 0.37976 0.99918
 C311 C 0.36651 0.41134 0.99911
 C312 C 0.34568 0.43359 0.99927
 C313 C 0.31098 0.40135 0.97219
 C314 C 0.33185 0.37905 0.97203
 C315 C 0.29122 0.44648 0.99965
 C316 C 0.27402 0.46726 0.99978
 C317 C 0.37572 0.35608 0.99901
 C318 C 0.39505 0.33723 0.99886
 H319 H 0.29502 0.40383 1.04462
 H320 H 0.33378 0.36243 1.04434
 H321 H 0.39041 0.41584 0.99894
 H322 H 0.35174 0.45715 0.99924
 H323 H 0.29440 0.40389 0.95457
 H324 H 0.33316 0.36248 0.95428
 C325 C 0.92215 0.18672 0.49976
 C326 C 0.90147 0.18848 0.52718
 C327 C 0.87917 0.16761 0.52702
 C328 C 0.87977 0.14704 0.49946
 C329 C 0.91134 0.13348 0.49914
 C330 C 0.93360 0.15431 0.49930
 C331 C 0.90122 0.18917 0.47259
 C332 C 0.87892 0.16830 0.47243
 C333 C 0.94649 0.20877 0.49991
 C334 C 0.96727 0.22597 0.49998
 C335 C 0.85609 0.12427 0.49927
 C336 C 0.83724 0.10494 0.49909
 H337 H 0.90408 0.20471 0.54510
 H338 H 0.86267 0.16595 0.54481
 H339 H 0.91584 0.10958 0.49882
 H340 H 0.95715 0.14825 0.49912
 H341 H 0.90366 0.20585 0.45506
 H342 H 0.86226 0.16709 0.45476
 C343 C 0.31327 0.57784 0.00050
 C344 C 0.31093 0.59867 0.02776
 C345 C 0.33180 0.62097 0.02791
 C346 C 0.35295 0.62022 0.00080
 C347 C 0.33227 0.62092 -0.02668
 C348 C 0.31140 0.59862 -0.02684
 C349 C 0.34568 0.56639 0.00079
 C350 C 0.36651 0.58865 0.00094
 C351 C 0.29122 0.55350 0.00033
 C352 C 0.27402 0.53272 0.00020
 C353 C 0.37572 0.64390 0.00097
 C354 C 0.39504 0.66276 0.00112
 H355 H 0.29432 0.59617 0.04534
 H356 H 0.33308 0.63757 0.04564
 H357 H 0.33386 0.63748 -0.04442
 H358 H 0.29510 0.59608 -0.04470
 H359 H 0.35174 0.54284 0.00087
 H360 H 0.39041 0.58415 0.00116
 C361 C 0.07785 -0.18673 0.49976
 C362 C 0.06641 -0.15433 0.49869
 C363 C 0.08866 -0.13350 0.49853
 C364 C 0.12023 -0.14705 0.49945
 C365 C 0.12144 -0.16868 0.47274
 C366 C 0.09914 -0.18956 0.47290
 C367 C 0.09816 -0.18810 0.52747
 C368 C 0.12046 -0.16723 0.52731
 C369 C 0.05351 -0.20878 0.49991
 C370 C 0.03273 -0.22598 0.49998
 C371 C 0.14391 -0.12428 0.49927
 C372 C 0.16276 -0.10496 0.49909
 H373 H 0.04286 -0.14827 0.49811
 H374 H 0.08417 -0.10961 0.49781
 H375 H 0.13833 -0.16772 0.45527
 H376 H 0.09692 -0.20648 0.45557
 H377 H 0.09532 -0.20408 0.54558
 H378 H 0.13672 -0.16532 0.54529
 C379 C 0.68673 0.42216 1.00050
 C380 C 0.68847 0.40150 0.97306
 C381 C 0.66760 0.37920 0.97322
 C382 C 0.64705 0.37978 1.00080
 C383 C 0.63349 0.41135 1.00116
 C384 C 0.65432 0.43360 1.00100
 C385 C 0.68920 0.40120 1.02765
 C386 C 0.66833 0.37890 1.02781
 C387 C 0.70878 0.44649 1.00033
 C388 C 0.72598 0.46728 1.00020
 C389 C 0.62428 0.35610 1.00097
 C390 C 0.60496 0.33724 1.00112
 H391 H 0.70468 0.40412 0.95513
 H392 H 0.66592 0.36272 0.95542
 H393 H 0.60959 0.41585 1.00150
 H394 H 0.64826 0.45716 1.00121
 H395 H 0.70589 0.40363 1.04517
 H396 H 0.66713 0.36223 1.04547
 C397 C 0.49968 0.07785 1.18672
 C398 C 0.47245 0.09870 1.18911
 C399 C 0.47228 0.12100 1.16823
 C400 C 0.49935 0.12022 1.14704
 C401 C 0.49915 0.08865 1.13347
 C402 C 0.49932 0.06640 1.15431
 C403 C 0.52704 0.09860 1.18854
 C404 C 0.52687 0.12090 1.16767
 C405 C 0.49985 0.05351 1.20877
 C406 C 0.49995 0.03272 1.22597
 C407 C 0.49916 0.14391 1.12427
 C408 C 0.49898 0.16276 1.10494
 H409 H 0.45489 0.09621 1.20575
 H410 H 0.45457 0.13761 1.16698
 H411 H 0.49889 0.08415 1.10957
 H412 H 0.49922 0.04284 1.14824
 H413 H 0.54493 0.09604 1.20481
 H414 H 0.54461 0.13744 1.16605
 C415 C -0.00032 0.68673 0.57784
 C416 C -0.02766 0.68899 0.59857
 C417 C -0.02783 0.66811 0.62087
 C418 C -0.00065 0.64705 0.62022
 C419 C 0.02676 0.66781 0.62102
 C420 C 0.02693 0.68869 0.59872
 C421 C -0.00046 0.65432 0.56639
 C422 C -0.00064 0.63348 0.58864
 C423 C -0.00014 0.70878 0.55350
 C424 C -0.00005 0.72598 0.53272
 C425 C -0.00085 0.62427 0.64390
 C426 C -0.00103 0.60495 0.66276
 H427 H -0.04528 0.70554 0.59600
 H428 H -0.04562 0.66677 0.63740
 H429 H 0.04443 0.66628 0.63765
 H430 H 0.04476 0.70504 0.59624
 H431 H -0.00043 0.64826 0.54283
 H432 H -0.00076 0.60958 0.58414
 C433 C 0.49968 0.92215 -0.18674
 C434 C 0.52699 0.90134 -0.18862
 C435 C 0.52681 0.87904 -0.16775
 C436 C 0.49935 0.87977 -0.14706
 C437 C 0.47222 0.87905 -0.16819
 C438 C 0.47240 0.90135 -0.18907
 C439 C 0.49942 0.93360 -0.15433
 C440 C 0.49924 0.91134 -0.13349
 C441 C 0.49985 0.94649 -0.20879
 C442 C 0.49995 0.96727 -0.22599
 C443 C 0.49915 0.85609 -0.12429
 C444 C 0.49897 0.83723 -0.10496
 H445 H 0.54485 0.90386 -0.20493
 H446 H 0.54452 0.86245 -0.16617
 H447 H 0.45448 0.86247 -0.16690
 H448 H 0.45481 0.90388 -0.20567
 H449 H 0.49937 0.95715 -0.14826
 H450 H 0.49905 0.91584 -0.10959
 C451 C 0.99968 0.31326 0.42214
 C452 C 0.99912 0.34567 0.43359
 C453 C 0.99894 0.36650 0.41134
 C454 C 0.99934 0.35294 0.37976
 C455 C 0.97237 0.33162 0.37887
 C456 C 0.97254 0.31075 0.40117
 C457 C 1.02713 0.31157 0.40151
 C458 C 1.02695 0.33244 0.37921
 C459 C 0.99985 0.29121 0.44648
 C460 C 0.99994 0.27401 0.46727
 C461 C 0.99914 0.37572 0.35608
 C462 C 0.99896 0.39504 0.33723
 H463 H 0.99888 0.35173 0.45715
 H464 H 0.99855 0.39040 0.41584
 H465 H 0.95472 0.33279 0.36218
 H466 H 0.95505 0.29403 0.40358
 H467 H 1.04508 0.29538 0.40414
 H468 H 1.04476 0.33415 0.36274
 C469 C 0.50032 0.92214 0.18672
 C470 C 0.50065 0.93359 0.15431
 C471 C 0.50083 0.91134 0.13348
 C472 C 0.50065 0.87976 0.14704
 C473 C 0.47315 0.87908 0.16769
 C474 C 0.47297 0.90138 0.18856
 C475 C 0.52756 0.90130 0.18910
 C476 C 0.52774 0.87900 0.16822
 C477 C 0.50015 0.94648 0.20877
 C478 C 0.50005 0.96727 0.22597
 C479 C 0.50085 0.85608 0.12427
 C480 C 0.50103 0.83723 0.10495
 H481 H 0.50074 0.95715 0.14825
 H482 H 0.50107 0.91584 0.10957
 H483 H 0.45541 0.86252 0.16608
 H484 H 0.45509 0.90393 0.20484
 H485 H 0.54513 0.90380 0.20573
 H486 H 0.54546 0.86240 0.16697
 C487 C 0.00031 0.31326 0.57784
 C488 C 0.00053 0.34567 0.56639
 C489 C 0.00070 0.36651 0.58864
 C490 C 0.00065 0.35294 0.62022
 C491 C 0.02779 0.33184 0.62091
 C492 C 0.02762 0.31096 0.59862
 C493 C -0.02697 0.31135 0.59868
 C494 C -0.02680 0.33222 0.62098
 C495 C 0.00014 0.29121 0.55351
 C496 C 0.00005 0.27401 0.53272
 C497 C 0.00084 0.37572 0.64390
 C498 C 0.00103 0.39504 0.66276
 H499 H 0.00054 0.35173 0.54283
 H500 H 0.00087 0.39041 0.58414
 H501 H 0.04555 0.33315 0.63747
 H502 H 0.04522 0.29438 0.59607
 H503 H -0.04482 0.29502 0.59618
 H504 H -0.04449 0.33378 0.63759
 C505 C 0.50033 0.07785 0.81326
 C506 C 0.47295 0.09858 0.81146
 C507 C 0.47313 0.12088 0.83233
 C508 C 0.50066 0.12023 0.85293
 C509 C 0.52772 0.12103 0.83172
 C510 C 0.52754 0.09873 0.81084
 C511 C 0.50072 0.06640 0.84567
 C512 C 0.50090 0.08865 0.86650
 C513 C 0.50015 0.05351 0.79121
 C514 C 0.50006 0.03272 0.77400
 C515 C 0.50086 0.14391 0.87571
 C516 C 0.50104 0.16277 0.89503
 H517 H 0.45505 0.09601 0.79520
 H518 H 0.45538 0.13742 0.83396
 H519 H 0.54542 0.13765 0.83295
 H520 H 0.54509 0.09625 0.79419
 H521 H 0.50085 0.04284 0.85173
 H522 H 0.50118 0.08416 0.89040
 C523 C 1.00032 0.68673 0.42214
 C524 C 1.02740 0.68931 0.40110
 C525 C 1.02758 0.66843 0.37880
 C526 C 1.00066 0.64705 0.37976
 C527 C 0.97299 0.66748 0.37927
 C528 C 0.97282 0.68836 0.40156
 C529 C 1.00098 0.65432 0.43359
 C530 C 1.00116 0.63349 0.41134
 C531 C 1.00015 0.70878 0.44648
 C532 C 1.00006 0.72598 0.46726
 C533 C 1.00085 0.62427 0.35608
 C534 C 1.00103 0.60495 0.33722
 H535 H 1.04486 0.70607 0.40348
 H536 H 1.04519 0.66730 0.36207
 H537 H 0.95515 0.66574 0.36283
 H538 H 0.95483 0.70450 0.40424
 H539 H 1.00129 0.64826 0.45715
 H540 H 1.00161 0.60959 0.41583
 C541 C 1.18674 0.49948 0.07784
 C542 C 1.18889 0.47207 0.09850
 C543 C 1.16802 0.47192 0.12080
 C544 C 1.14706 0.49919 0.12022
 C545 C 1.13350 0.49934 0.08865
 C546 C 1.15433 0.49949 0.06639
 C547 C 1.18881 0.52667 0.09880
 C548 C 1.16793 0.52651 0.12110
 C549 C 1.20879 0.49965 0.05351
 C550 C 1.22599 0.49978 0.03272
 C551 C 1.12429 0.49902 0.14390
 C552 C 1.10496 0.49887 0.16276
 H553 H 1.20537 0.45439 0.09588
 H554 H 1.16661 0.45409 0.13728
 H555 H 1.10960 0.49933 0.08415
 H556 H 1.14827 0.49961 0.04284
 H557 H 1.20523 0.54443 0.09637
 H558 H 1.16647 0.54415 0.13778
 C559 C 0.57785 0.00022 0.68672
 C560 C 0.56641 0.00016 0.65430
 C561 C 0.58866 0.00032 0.63347
 C562 C 0.62023 0.00052 0.64704
 C563 C 0.62113 -0.02679 0.66794
 C564 C 0.59883 -0.02694 0.68881
 C565 C 0.59848 0.02765 0.68884
 C566 C 0.62078 0.02781 0.66797
 C567 C 0.55351 0.00007 0.70877
 C568 C 0.53273 0.00000 0.72597
 C569 C 0.64391 0.00070 0.62427
 C570 C 0.66277 0.00089 0.60495
 H571 H 0.54285 0.00001 0.64824
 H572 H 0.58417 0.00031 0.60957
 H573 H 0.63782 -0.04441 0.66650
 H574 H 0.59642 -0.04470 0.70526
 H575 H 0.59584 0.04535 0.70531
 H576 H 0.63724 0.04565 0.66655
 C577 C -0.18673 0.49949 0.92214
 C578 C -0.18856 0.52686 0.90140
 C579 C -0.16769 0.52670 0.87910
 C580 C -0.14705 0.49919 0.87977
 C581 C -0.16824 0.47211 0.87898
 C582 C -0.18911 0.47227 0.90127
 C583 C -0.15433 0.49914 0.93360
 C584 C -0.13349 0.49898 0.91134
 C585 C -0.20878 0.49966 0.94648
 C586 C -0.22599 0.49980 0.96726
 C587 C -0.12428 0.49902 0.85609
 C588 C -0.10495 0.49887 0.83723
 H589 H -0.20484 0.54474 0.90396
 H590 H -0.16608 0.54445 0.86256
 H591 H -0.16698 0.45440 0.86236
 H592 H -0.20574 0.45470 0.90376
 H593 H -0.14827 0.49903 0.95715
 H594 H -0.10959 0.49873 0.91584
 C595 C 0.42215 0.00023 0.31326
 C596 C 0.40167 -0.02735 0.31171
 C597 C 0.37937 -0.02719 0.33258
 C598 C 0.37977 0.00053 0.35294
 C599 C 0.37873 0.02739 0.33147
 C600 C 0.40102 0.02723 0.31060
 C601 C 0.43359 0.00102 0.34567
 C602 C 0.41134 0.00118 0.36650
 C603 C 0.44649 0.00008 0.29121
 C604 C 0.46727 0.00001 0.27401
 C605 C 0.35608 0.00072 0.37571
 C606 C 0.33723 0.00090 0.39503
 H607 H 0.40441 -0.04537 0.29561
 H608 H 0.36300 -0.04508 0.33437
 H609 H 0.36194 0.04495 0.33255
 H610 H 0.40335 0.04465 0.29379
 H611 H 0.45714 0.00142 0.35173
 H612 H 0.41583 0.00172 0.39040
 C613 C 0.18674 0.50050 0.92214
 C614 C 0.18934 0.52754 0.90106
 C615 C 0.16847 0.52770 0.87876
 C616 C 0.14706 0.50080 0.87976
 C617 C 0.13351 0.50136 0.91133
 C618 C 0.15434 0.50121 0.93359
 C619 C 0.18835 0.47296 0.90161
 C620 C 0.16747 0.47311 0.87931
 C621 C 0.20879 0.50033 0.94647
 C622 C 0.22599 0.50020 0.96726
 C623 C 0.12429 0.50097 0.85608
 C624 C 0.10496 0.50112 0.83722
 H625 H 0.20612 0.54499 0.90340
 H626 H 0.16736 0.54528 0.86200
 H627 H 0.10961 0.50185 0.91583
 H628 H 0.14828 0.50156 0.95714
 H629 H 0.20447 0.45496 0.90431
 H630 H 0.16571 0.45525 0.86291
 C631 C 0.57785 -0.00024 0.31326
 C632 C 0.56641 -0.00022 0.34567
 C633 C 0.58866 -0.00038 0.36651
 C634 C 0.62023 -0.00054 0.35293
 C635 C 0.62111 0.02679 0.33206
 C636 C 0.59881 0.02695 0.31119
 C637 C 0.59850 -0.02765 0.31111
 C638 C 0.62080 -0.02781 0.33198
 C639 C 0.55351 -0.00009 0.29121
 C640 C 0.53272 -0.00001 0.27401
 C641 C 0.64391 -0.00073 0.37570
 C642 C 0.66277 -0.00091 0.39503
 H643 H 0.54285 -0.00010 0.35174
 H644 H 0.58417 -0.00040 0.39041
 H645 H 0.63779 0.04442 0.33352
 H646 H 0.59638 0.04471 0.29476
 H647 H 0.59587 -0.04533 0.29462
 H648 H 0.63728 -0.04563 0.33338
 C649 C 0.81327 0.50051 0.07784
 C650 C 0.81095 0.52779 0.09865
 C651 C 0.83183 0.52794 0.12095
 C652 C 0.85295 0.50081 0.12022
 C653 C 0.86651 0.50092 0.08864
 C654 C 0.84568 0.50076 0.06639
 C655 C 0.81137 0.47319 0.09864
 C656 C 0.83225 0.47335 0.12094
 C657 C 0.79122 0.50034 0.05350
 C658 C 0.77401 0.50021 0.03272
 C659 C 0.87572 0.50098 0.14390
 C660 C 0.89505 0.50113 0.16275
 H661 H 0.79436 0.54539 0.09613
 H662 H 0.83313 0.54568 0.13753
 H663 H 0.89041 0.50110 0.08414
 H664 H 0.85174 0.50081 0.04283
 H665 H 0.79505 0.45534 0.09612
 H666 H 0.83382 0.45563 0.13752
 C667 C 0.42215 -0.00023 0.68672
 C668 C 0.40037 -0.02663 0.69008
 C669 C 0.37806 -0.02678 0.66920
 C670 C 0.37977 -0.00053 0.64705
 C671 C 0.41131 -0.00231 0.63352
 C672 C 0.43356 -0.00215 0.65435
 C673 C 0.40235 0.02787 0.68754
 C674 C 0.38005 0.02772 0.66667
 C675 C 0.44649 -0.00008 0.70877
 C676 C 0.46727 -0.00001 0.72597
 C677 C 0.35608 -0.00072 0.62428
 C678 C 0.33723 -0.00090 0.60495
 H679 H 0.40226 -0.04365 0.70734
 H680 H 0.36085 -0.04395 0.66858
 H681 H 0.41578 -0.00359 0.60965
 H682 H 0.45709 -0.00329 0.64831
 H683 H 0.40554 0.04624 0.70315
 H684 H 0.36413 0.04595 0.66440
   
