data_POSCAR
  _audit_creation_date              2014-09-24
  _audit_creation_method            'ToBaCCo'
  _symmetry_space_group_name_H-M    'P1'
  _symmetry_Int_Tables_number       1
  _symmetry_cell_setting            triclinic
  loop_
  _symmetry_equiv_pos_as_xyz
 x,y,z
_cell_length_a 63.3868
_cell_length_b 63.7906
_cell_length_c 63.8701
_cell_angle_alpha 89.991100
_cell_angle_beta 90.004800
_cell_angle_gamma 90.014900
loop_
  _atom_site_label
  _atom_site_type_symbol
  _atom_site_fract_x
  _atom_site_fract_y
  _atom_site_fract_z
N1 N 0.28339 0.24111 0.22524
 N2 N 0.27478 0.25795 0.21704
 C3 C 0.28596 0.26372 0.20006
 C4 C 0.30250 0.24974 0.19742
 C5 C 0.30030 0.23559 0.21376
 H6 H 0.28222 0.27701 0.19026
 H7 H 0.31033 0.22234 0.21721
 Cu8 Cu 0.24977 0.27061 0.22941
 Cu9 Cu 0.27210 0.22758 0.25019
 Cu10 Cu 0.22756 0.24990 0.27249
 N11 N 0.22477 0.28298 0.24206
 N12 N 0.21620 0.27482 0.25892
 C13 C 0.19928 0.28630 0.26443
 C14 C 0.19704 0.30261 0.25026
 C15 C 0.21356 0.29996 0.23627
 H16 H 0.18929 0.28287 0.27770
 H17 H 0.21726 0.30974 0.22296
 N18 N 0.24137 0.22467 0.28390
 N19 N 0.25834 0.21621 0.27544
 C20 C 0.26398 0.19931 0.28677
 C21 C 0.24989 0.19695 0.30319
 C22 C 0.23577 0.21336 0.30081
 H23 H 0.27728 0.18934 0.28321
 H24 H 0.22248 0.21693 0.31077
 H25 H 0.24126 0.23723 0.24600
 H26 H 0.25837 0.25412 0.26278
 N27 N 0.71666 -0.24055 0.22471
 N28 N 0.72559 -0.25705 0.21620
 C29 C 0.71441 -0.26282 0.19922
 C30 C 0.69746 -0.24918 0.19686
 C31 C 0.69953 -0.23524 0.21346
 H32 H 0.71839 -0.27601 0.18940
 H33 H 0.68941 -0.22215 0.21724
 Cu34 Cu 0.75095 -0.26944 0.22814
 Cu35 Cu 0.72786 -0.22717 0.24976
 Cu36 Cu 0.77246 -0.24940 0.27195
 N37 N 0.77567 -0.28205 0.24116
 N38 N 0.78398 -0.27415 0.25825
 C39 C 0.80075 -0.28576 0.26391
 C40 C 0.80322 -0.30198 0.24958
 C41 C 0.78688 -0.29901 0.23535
 H42 H 0.81034 -0.28250 0.27750
 H43 H 0.78330 -0.30844 0.22177
 N44 N 0.75852 -0.22434 0.28352
 N45 N 0.74153 -0.21589 0.27510
 C46 C 0.73582 -0.19907 0.28651
 C47 C 0.74989 -0.19675 0.30295
 C48 C 0.76406 -0.21310 0.30050
 H49 H 0.72249 -0.18913 0.28297
 H50 H 0.77738 -0.21667 0.31044
 H51 H 0.75884 -0.23633 0.24561
 H52 H 0.74180 -0.25388 0.26180
 N53 N 0.71628 0.24193 0.77404
 N54 N 0.72465 0.25900 0.78200
 C55 C 0.71346 0.26476 0.79898
 C56 C 0.69714 0.25056 0.80182
 C57 C 0.69949 0.23628 0.78563
 H58 H 0.71686 0.27837 0.80846
 H59 H 0.68984 0.22266 0.78254
 Cu60 Cu 0.74935 0.27204 0.76941
 Cu61 Cu 0.72777 0.22825 0.74929
 Cu62 Cu 0.77237 0.25050 0.72710
 N63 N 0.77469 0.28404 0.75702
 N64 N 0.78360 0.27556 0.74051
 C65 C 0.80072 0.28684 0.73520
 C66 C 0.80280 0.30344 0.74915
 C67 C 0.78588 0.30104 0.76280
 H68 H 0.81081 0.28309 0.72210
 H69 H 0.78191 0.31084 0.77600
 N70 N 0.75869 0.22516 0.71580
 N71 N 0.74169 0.21672 0.72422
 C72 C 0.73613 0.19975 0.71297
 C73 C 0.75030 0.19731 0.69663
 C74 C 0.76439 0.21376 0.69898
 H75 H 0.72281 0.18980 0.71652
 H76 H 0.77771 0.21731 0.68905
 H77 H 0.75844 0.23838 0.75376
 H78 H 0.74141 0.25466 0.73630
 N79 N 0.28366 -0.24136 0.77484
 N80 N 0.27503 -0.25819 0.78304
 C81 C 0.28626 -0.26401 0.79998
 C82 C 0.30284 -0.25006 0.80258
 C83 C 0.30063 -0.23589 0.78627
 H84 H 0.28252 -0.27730 0.80978
 H85 H 0.31067 -0.22265 0.78280
 Cu86 Cu 0.24994 -0.27078 0.77075
 Cu87 Cu 0.27230 -0.22777 0.74995
 Cu88 Cu 0.22765 -0.25001 0.72776
 N89 N 0.22484 -0.28309 0.75818
 N90 N 0.21623 -0.27488 0.74138
 C91 C 0.19923 -0.28628 0.73593
 C92 C 0.19693 -0.30267 0.75010
 C93 C 0.21360 -0.30002 0.76402
 H94 H 0.18938 -0.28276 0.72259
 H95 H 0.21736 -0.30964 0.77742
 N96 N 0.24153 -0.22483 0.71629
 N97 N 0.25848 -0.21634 0.72476
 C98 C 0.26411 -0.19942 0.71345
 C99 C 0.25004 -0.19709 0.69701
 C100 C 0.23594 -0.21353 0.69935
 H101 H 0.27758 -0.18962 0.71684
 H102 H 0.22247 -0.21693 0.68957
 H103 H 0.24146 -0.23737 0.75421
 H104 H 0.25849 -0.25427 0.73738
 N105 N 0.71605 -0.24183 0.77410
 N106 N 0.72441 -0.25892 0.78203
 C107 C 0.71324 -0.26469 0.79902
 C108 C 0.69696 -0.25047 0.80190
 C109 C 0.69929 -0.23618 0.78572
 H110 H 0.71664 -0.27831 0.80848
 H111 H 0.68966 -0.22254 0.78267
 Cu112 Cu 0.74907 -0.27197 0.76943
 Cu113 Cu 0.72752 -0.22813 0.74937
 Cu114 Cu 0.77214 -0.25030 0.72720
 N115 N 0.77444 -0.28387 0.75707
 N116 N 0.78337 -0.27533 0.74059
 C117 C 0.80053 -0.28654 0.73531
 C118 C 0.80262 -0.30315 0.74926
 C119 C 0.78565 -0.30082 0.76287
 H120 H 0.81065 -0.28274 0.72225
 H121 H 0.78168 -0.31065 0.77605
 N122 N 0.75844 -0.22499 0.71591
 N123 N 0.74144 -0.21657 0.72433
 C124 C 0.73586 -0.19960 0.71308
 C125 C 0.75004 -0.19715 0.69675
 C126 C 0.76414 -0.21358 0.69909
 H127 H 0.72254 -0.18967 0.71663
 H128 H 0.77746 -0.21711 0.68916
 H129 H 0.74116 -0.25451 0.73636
 H130 H 0.75818 -0.23827 0.75388
 N131 N 0.28296 0.24068 0.77512
 N132 N 0.27407 0.25724 0.78359
 C133 C 0.28531 0.26307 0.80051
 C134 C 0.30216 0.24941 0.80282
 C135 C 0.30010 0.23539 0.78636
 H136 H 0.28142 0.27619 0.81047
 H137 H 0.31038 0.22240 0.78267
 Cu138 Cu 0.24870 0.26959 0.77170
 Cu139 Cu 0.27172 0.22724 0.75015
 Cu140 Cu 0.22714 0.24947 0.72793
 N141 N 0.22400 0.28216 0.75869
 N142 N 0.21564 0.27421 0.74163
 C143 C 0.19886 0.28582 0.73599
 C144 C 0.19651 0.30201 0.75028
 C145 C 0.21281 0.29915 0.76446
 H146 H 0.18922 0.28275 0.72238
 H147 H 0.21621 0.30862 0.77807
 N148 N 0.24108 0.22441 0.71640
 N149 N 0.25802 0.21593 0.72488
 C150 C 0.26370 0.19907 0.71352
 C151 C 0.24967 0.19678 0.69704
 C152 C 0.23555 0.21318 0.69941
 H153 H 0.27717 0.18928 0.71692
 H154 H 0.22209 0.21658 0.68962
 H155 H 0.25780 0.25396 0.73807
 H156 H 0.24075 0.23646 0.75431
 N157 N 0.28457 -0.24150 0.22612
 N158 N 0.27617 -0.25854 0.21814
 C159 C 0.28735 -0.26431 0.20116
 C160 C 0.30370 -0.25014 0.19835
 C161 C 0.30138 -0.23587 0.21455
 H162 H 0.28392 -0.27790 0.19167
 H163 H 0.31105 -0.22227 0.21765
 Cu164 Cu 0.25142 -0.27153 0.23065
 Cu165 Cu 0.27308 -0.22781 0.25085
 Cu166 Cu 0.22837 -0.24992 0.27292
 N167 N 0.22600 -0.28339 0.24294
 N168 N 0.21710 -0.27490 0.25946
 C169 C 0.19992 -0.28612 0.26472
 C170 C 0.19785 -0.30259 0.25072
 C171 C 0.21473 -0.30031 0.23710
 H172 H 0.18964 -0.28240 0.27768
 H173 H 0.21863 -0.31029 0.22400
 N174 N 0.24211 -0.22466 0.28426
 N175 N 0.25915 -0.21626 0.27588
 C176 C 0.26474 -0.19932 0.28716
 C177 C 0.25053 -0.19687 0.30346
 C178 C 0.23640 -0.21326 0.30107
 H179 H 0.27809 -0.18940 0.28365
 H180 H 0.22304 -0.21679 0.31097
 H181 H 0.25935 -0.25419 0.26378
 H182 H 0.24240 -0.23785 0.24628
 N183 N 0.71685 0.24023 0.22484
 N184 N 0.72574 0.25678 0.21636
 C185 C 0.71454 0.26256 0.19940
 C186 C 0.69771 0.24887 0.19707
 C187 C 0.69975 0.23488 0.21356
 H188 H 0.71844 0.27568 0.18943
 H189 H 0.68948 0.22188 0.21726
 Cu190 Cu 0.75105 0.26922 0.22831
 Cu191 Cu 0.72803 0.22686 0.24988
 Cu192 Cu 0.77255 0.24919 0.27214
 N193 N 0.77567 0.28189 0.24138
 N194 N 0.78401 0.27397 0.25847
 C195 C 0.80074 0.28563 0.26414
 C196 C 0.80308 0.30183 0.24986
 C197 C 0.78682 0.29891 0.23563
 H198 H 0.81036 0.28260 0.27778
 H199 H 0.78343 0.30837 0.22201
 N200 N 0.75866 0.22409 0.28365
 N201 N 0.74168 0.21561 0.27521
 C202 C 0.73599 0.19878 0.28661
 C203 C 0.75005 0.19648 0.30305
 C204 C 0.76421 0.21285 0.30063
 H205 H 0.72269 0.18880 0.28306
 H206 H 0.77750 0.21643 0.31059
 H207 H 0.74190 0.25361 0.26194
 H208 H 0.75900 0.23612 0.24575
 O209 O 0.23265 0.02042 0.47979
 O210 O 0.23266 -0.02042 0.52056
 O211 O 0.23262 0.02040 0.52055
 O212 O 0.23269 -0.02039 0.47979
 O213 O 0.26748 -0.02035 0.47982
 O214 O 0.26742 0.02044 0.52058
 O215 O 0.26745 -0.02038 0.52058
 O216 O 0.26744 0.02046 0.47981
 Cu217 Cu 0.22917 -0.00001 0.50017
 Cu218 Cu 0.27094 0.00005 0.50020
 C219 C 0.25004 0.02744 0.47281
 C220 C 0.25006 -0.02740 0.52756
 C221 C 0.25001 0.02741 0.52755
 C222 C 0.25010 -0.02736 0.47281
 O223 O 0.76750 0.02033 0.52049
 O224 O 0.76736 -0.02051 0.47974
 O225 O 0.76739 0.02031 0.47973
 O226 O 0.76746 -0.02048 0.52050
 O227 O 0.73266 -0.02046 0.52059
 O228 O 0.73260 0.02033 0.47981
 O229 O 0.73256 -0.02049 0.47982
 O230 O 0.73271 0.02036 0.52057
 Cu231 Cu 0.77091 -0.00009 0.50011
 Cu232 Cu 0.72915 -0.00006 0.50021
 C233 C 0.75013 0.02735 0.52752
 C234 C 0.74994 -0.02750 0.47279
 C235 C 0.74998 0.02731 0.47278
 C236 C 0.75007 -0.02746 0.52753
 O237 O 0.47949 0.26790 0.02025
 O238 O 0.52063 0.26798 -0.02048
 O239 O 0.47955 0.26799 -0.02052
 O240 O 0.52057 0.26785 0.02029
 O241 O 0.52053 0.23328 0.02020
 O242 O 0.47953 0.23341 -0.02060
 O243 O 0.52060 0.23341 -0.02056
 O244 O 0.47946 0.23333 0.02016
 Cu245 Cu 0.50006 0.27140 -0.00011
 Cu246 Cu 0.50003 0.22989 -0.00021
 C247 C 0.47243 0.25060 0.02719
 C248 C 0.52766 0.25071 -0.02751
 C249 C 0.47251 0.25072 -0.02755
 C250 C 0.52758 0.25054 0.02724
 O251 O 0.52093 0.76658 0.02054
 O252 O 0.47984 0.76646 -0.02023
 O253 O 0.47986 0.76654 0.02053
 O254 O 0.52091 0.76648 -0.02023
 O255 O 0.52093 0.73191 -0.02015
 O256 O 0.47988 0.73196 0.02061
 O257 O 0.47986 0.73188 -0.02016
 O258 O 0.52095 0.73201 0.02062
 Cu259 Cu 0.50038 0.76998 0.00015
 Cu260 Cu 0.50041 0.72848 0.00024
 C261 C 0.52798 0.74932 0.02758
 C262 C 0.47281 0.74915 -0.02719
 C263 C 0.47284 0.74926 0.02757
 C264 C 0.52796 0.74919 -0.02718
 O265 O 0.02011 0.48010 0.26655
 O266 O -0.02096 0.52093 0.26647
 O267 O -0.02096 0.48011 0.26653
 O268 O 0.02011 0.52091 0.26649
 O269 O 0.02013 0.52087 0.23196
 O270 O -0.02094 0.48006 0.23200
 O271 O -0.02095 0.52089 0.23194
 O272 O 0.02013 0.48005 0.23202
 Cu273 Cu -0.00043 0.50052 0.26997
 Cu274 Cu -0.00041 0.50046 0.22852
 C275 C 0.02716 0.47307 0.24930
 C276 C -0.02799 0.52791 0.24919
 C277 C -0.02799 0.47309 0.24927
 C278 C 0.02716 0.52788 0.24922
 O279 O 0.02035 0.52080 0.76814
 O280 O -0.02075 0.47997 0.76799
 O281 O 0.02032 0.47998 0.76809
 O282 O -0.02073 0.52079 0.76804
 O283 O -0.02064 0.52084 0.73351
 O284 O 0.02040 0.48003 0.73356
 O285 O -0.02067 0.48002 0.73346
 O286 O 0.02043 0.52084 0.73361
 Cu287 Cu -0.00021 0.50038 0.77152
 Cu288 Cu -0.00011 0.50044 0.73008
 C289 C 0.02743 0.52782 0.75090
 C290 C -0.02775 0.47300 0.75070
 C291 C 0.02739 0.47300 0.75083
 C292 C -0.02772 0.52781 0.75076
 C293 C 0.33666 0.26736 0.15179
 C294 C 0.35009 0.25013 0.14933
 C295 C 0.34798 0.23278 0.16255
 C296 C 0.33253 0.23263 0.17818
 C297 C 0.31891 0.24988 0.18081
 C298 C 0.32119 0.26725 0.16739
 C299 C 0.36603 0.25027 0.13328
 C300 C 0.37940 0.25035 0.11985
 C301 C 0.39507 0.25043 0.10415
 C302 C 0.40847 0.25047 0.09075
 C303 C 0.42449 0.25051 0.07477
 C304 C 0.43229 0.23155 0.06694
 C305 C 0.44788 0.23155 0.05145
 C306 C 0.45589 0.25057 0.04357
 C307 C 0.44793 0.26956 0.05155
 C308 C 0.43234 0.26950 0.06704
 H309 H 0.33817 0.28090 0.14165
 H310 H 0.35827 0.21934 0.16078
 H311 H 0.33122 0.21891 0.18803
 H312 H 0.31117 0.28088 0.16897
 H313 H 0.42634 0.21675 0.07281
 H314 H 0.45366 0.21667 0.04565
 H315 H 0.45374 0.28446 0.04583
 H316 H 0.42641 0.28427 0.07299
 C317 C 0.64993 0.76544 0.16541
 C318 C 0.65031 0.75015 0.14975
 C319 C 0.66629 0.73506 0.14970
 C320 C 0.68186 0.73524 0.16522
 C321 C 0.68174 0.75058 0.18116
 C322 C 0.66545 0.76569 0.18096
 C323 C 0.63432 0.74995 0.13374
 C324 C 0.62093 0.74981 0.12033
 C325 C 0.60524 0.74967 0.10464
 C326 C 0.59184 0.74958 0.09124
 C327 C 0.57583 0.74951 0.07525
 C328 C 0.56804 0.73050 0.06751
 C329 C 0.55248 0.73041 0.05199
 C330 C 0.54449 0.74938 0.04400
 C331 C 0.55244 0.76841 0.05188
 C332 C 0.56800 0.76845 0.06740
 H333 H 0.63761 0.77721 0.16560
 H334 H 0.66674 0.72313 0.13763
 H335 H 0.69389 0.72326 0.16452
 H336 H 0.66449 0.77783 0.19273
 H337 H 0.57399 0.71574 0.07348
 H338 H 0.54670 0.71549 0.04627
 H339 H 0.54664 0.78328 0.04607
 H340 H 0.57392 0.78326 0.07327
 C341 C 0.64777 0.23730 -0.16712
 C342 C 0.64972 0.25074 -0.14993
 C343 C 0.66715 0.26412 -0.14846
 C344 C 0.68257 0.26408 -0.16413
 C345 C 0.68078 0.25062 -0.18151
 C346 C 0.66316 0.23722 -0.18280
 C347 C 0.63384 0.25080 -0.13381
 C348 C 0.62052 0.25083 -0.12034
 C349 C 0.60489 0.25084 -0.10459
 C350 C 0.59153 0.25083 -0.09116
 C351 C 0.57554 0.25080 -0.07514
 C352 C 0.56775 0.26977 -0.06730
 C353 C 0.55218 0.26976 -0.05179
 C354 C 0.54419 0.25074 -0.04391
 C355 C 0.55214 0.23176 -0.05189
 C356 C 0.56771 0.23181 -0.06740
 H357 H 0.63432 0.22690 -0.16843
 H358 H 0.66884 0.27457 -0.13520
 H359 H 0.69591 0.27450 -0.16245
 H360 H 0.66109 0.22676 -0.19596
 H361 H 0.57370 0.28456 -0.07318
 H362 H 0.54641 0.28464 -0.04599
 H363 H 0.54633 0.21685 -0.04617
 H364 H 0.57362 0.21704 -0.07336
 C365 C 0.34846 0.76678 -0.16265
 C366 C 0.35055 0.74941 -0.14945
 C367 C 0.33709 0.73220 -0.15189
 C368 C 0.32158 0.73235 -0.16746
 C369 C 0.31931 0.74975 -0.18086
 C370 C 0.33297 0.76697 -0.17824
 C371 C 0.36651 0.74925 -0.13340
 C372 C 0.37989 0.74915 -0.11998
 C373 C 0.39556 0.74908 -0.10427
 C374 C 0.40896 0.74905 -0.09087
 C375 C 0.42496 0.74906 -0.07486
 C376 C 0.43276 0.73010 -0.06704
 C377 C 0.44833 0.73010 -0.05151
 C378 C 0.45630 0.74912 -0.04361
 C379 C 0.44834 0.76810 -0.05159
 C380 C 0.43278 0.76805 -0.06711
 H381 H 0.35878 0.78020 -0.16088
 H382 H 0.33859 0.71865 -0.14177
 H383 H 0.31153 0.71874 -0.16903
 H384 H 0.33167 0.78070 -0.18808
 H385 H 0.42683 0.71530 -0.07293
 H386 H 0.45411 0.71522 -0.04572
 H387 H 0.45413 0.78301 -0.04585
 H388 H 0.42685 0.78283 -0.07306
 C389 C 0.16277 0.34818 0.23258
 C390 C 0.14941 0.35071 0.24983
 C391 C 0.15160 0.33756 0.26722
 C392 C 0.16707 0.32193 0.26738
 C393 C 0.18061 0.31923 0.25011
 C394 C 0.17826 0.33257 0.23270
 C395 C 0.13346 0.36678 0.24969
 C396 C 0.12009 0.38022 0.24960
 C397 C 0.10442 0.39594 0.24951
 C398 C 0.09103 0.40936 0.24946
 C399 C 0.07502 0.42537 0.24941
 C400 C 0.06720 0.43320 0.26835
 C401 C 0.05163 0.44873 0.26833
 C402 C 0.04367 0.45664 0.24934
 C403 C 0.05165 0.44867 0.23038
 C404 C 0.06722 0.43314 0.23044
 H405 H 0.16119 0.35826 0.21901
 H406 H 0.14137 0.33940 0.28068
 H407 H 0.16844 0.31213 0.28113
 H408 H 0.18822 0.33093 0.21906
 H409 H 0.07313 0.42730 0.28313
 H410 H 0.04584 0.45452 0.28319
 H411 H 0.04587 0.45441 0.21549
 H412 H 0.07316 0.42719 0.21569
 C413 C 0.16553 0.65034 0.76606
 C414 C 0.14985 0.65010 0.75069
 C415 C 0.14975 0.66549 0.73512
 C416 C 0.16525 0.68109 0.73490
 C417 C 0.18123 0.68159 0.75030
 C418 C 0.18107 0.66589 0.76591
 C419 C 0.13387 0.63405 0.75086
 C420 C 0.12047 0.62062 0.75096
 C421 C 0.10478 0.60492 0.75103
 C422 C 0.09137 0.59151 0.75105
 C423 C 0.07534 0.57551 0.75103
 C424 C 0.06755 0.56773 0.73205
 C425 C 0.05197 0.55221 0.73199
 C426 C 0.04396 0.54425 0.75095
 C427 C 0.05190 0.55218 0.76995
 C428 C 0.06749 0.56770 0.76996
 H429 H 0.16576 0.63847 0.77821
 H430 H 0.13766 0.66546 0.72312
 H431 H 0.16452 0.69265 0.72255
 H432 H 0.19286 0.66543 0.77812
 H433 H 0.07352 0.57366 0.71730
 H434 H 0.04620 0.54645 0.71710
 H435 H 0.04608 0.54640 0.78481
 H436 H 0.07340 0.57361 0.78474
 C437 C -0.15016 0.66565 0.26509
 C438 C -0.15004 0.65047 0.24931
 C439 C -0.16540 0.65103 0.23363
 C440 C -0.18084 0.66668 0.23368
 C441 C -0.18121 0.68216 0.24949
 C442 C -0.16556 0.68133 0.26522
 C443 C -0.13414 0.63436 0.24922
 C444 C -0.12081 0.62088 0.24916
 C445 C -0.10517 0.60512 0.24912
 C446 C -0.09180 0.59168 0.24911
 C447 C -0.07582 0.57565 0.24912
 C448 C -0.06802 0.56782 0.23018
 C449 C -0.05246 0.55228 0.23018
 C450 C -0.04450 0.54435 0.24917
 C451 C -0.05246 0.55232 0.26813
 C452 C -0.06801 0.56786 0.26809
 H453 H -0.13832 0.66537 0.27733
 H454 H -0.16546 0.63934 0.22132
 H455 H -0.19238 0.66646 0.22123
 H456 H -0.16500 0.69272 0.27773
 H457 H -0.07395 0.57374 0.21541
 H458 H -0.04668 0.54648 0.21531
 H459 H -0.04667 0.54657 0.28301
 H460 H -0.07394 0.57381 0.28285
 C461 C -0.16603 0.35064 0.76493
 C462 C -0.15008 0.35064 0.74983
 C463 C -0.14972 0.33500 0.73452
 C464 C -0.16523 0.31941 0.73426
 C465 C -0.18148 0.31916 0.74939
 C466 C -0.18158 0.33510 0.76475
 C467 C -0.13410 0.36668 0.75003
 C468 C -0.12071 0.38011 0.75017
 C469 C -0.10503 0.39583 0.75031
 C470 C -0.09163 0.40925 0.75040
 C471 C -0.07562 0.42527 0.75048
 C472 C -0.06786 0.43304 0.76947
 C473 C -0.05229 0.44858 0.76957
 C474 C -0.04427 0.45656 0.75063
 C475 C -0.05219 0.44865 0.73162
 C476 C -0.06776 0.43311 0.73157
 H477 H -0.16646 0.36270 0.77687
 H478 H -0.13742 0.33484 0.72273
 H479 H -0.16429 0.30766 0.72212
 H480 H -0.19359 0.33576 0.77674
 H481 H -0.07384 0.42708 0.78421
 H482 H -0.04655 0.45432 0.78447
 H483 H -0.04636 0.45444 0.71677
 H484 H -0.07365 0.42721 0.71677
 C485 C 0.23242 0.16239 0.34846
 C486 C 0.24994 0.14929 0.35091
 C487 C 0.26745 0.15174 0.33781
 C488 C 0.26745 0.16721 0.32229
 C489 C 0.24991 0.18050 0.31967
 C490 C 0.23239 0.17788 0.33297
 C491 C 0.24996 0.13334 0.36687
 C492 C 0.24997 0.12000 0.38024
 C493 C 0.24999 0.10437 0.39589
 C494 C 0.25001 0.09101 0.40926
 C495 C 0.25002 0.07506 0.42521
 C496 C 0.23093 0.06725 0.43297
 C497 C 0.23091 0.05176 0.44846
 C498 C 0.25004 0.04386 0.45641
 C499 C 0.26916 0.05182 0.44850
 C500 C 0.26912 0.06732 0.43301
 H501 H 0.21876 0.16061 0.35850
 H502 H 0.28112 0.14171 0.33959
 H503 H 0.28130 0.16880 0.31253
 H504 H 0.21853 0.18763 0.33137
 H505 H 0.21605 0.07314 0.42704
 H506 H 0.21593 0.04598 0.45420
 H507 H 0.28415 0.04609 0.45427
 H508 H 0.28400 0.07325 0.42711
 C509 C 0.76788 0.16263 0.65151
 C510 C 0.75040 0.14946 0.64911
 C511 C 0.73289 0.15190 0.66221
 C512 C 0.73284 0.16743 0.67766
 C513 C 0.75034 0.18079 0.68023
 C514 C 0.76787 0.17818 0.66694
 C515 C 0.75042 0.13347 0.63320
 C516 C 0.75041 0.12008 0.61988
 C517 C 0.75038 0.10440 0.60428
 C518 C 0.75035 0.09101 0.59096
 C519 C 0.75030 0.07503 0.57504
 C520 C 0.76937 0.06723 0.56723
 C521 C 0.76934 0.05171 0.55177
 C522 C 0.75019 0.04378 0.54391
 C523 C 0.73109 0.05173 0.55187
 C524 C 0.73117 0.06725 0.56733
 H525 H 0.78155 0.16087 0.64148
 H526 H 0.71925 0.14181 0.66046
 H527 H 0.71899 0.16900 0.68741
 H528 H 0.78170 0.18800 0.66850
 H529 H 0.78427 0.07314 0.57309
 H530 H 0.78430 0.04594 0.54598
 H531 H 0.71608 0.04597 0.54616
 H532 H 0.71631 0.07318 0.57327
 C533 C 0.26291 -0.14726 0.66699
 C534 C 0.25006 -0.14940 0.64932
 C535 C 0.23721 -0.16710 0.64719
 C536 C 0.23718 -0.18260 0.66267
 C537 C 0.25005 -0.18063 0.68054
 C538 C 0.26293 -0.16274 0.68249
 C539 C 0.25005 -0.13344 0.63337
 C540 C 0.25004 -0.12007 0.62003
 C541 C 0.25005 -0.10441 0.60440
 C542 C 0.25006 -0.09104 0.59105
 C543 C 0.25006 -0.07507 0.57512
 C544 C 0.23096 -0.06731 0.56732
 C545 C 0.23094 -0.05180 0.55185
 C546 C 0.25006 -0.04383 0.54395
 C547 C 0.26918 -0.05174 0.55190
 C548 C 0.26916 -0.06726 0.56738
 H549 H 0.27290 -0.13359 0.66882
 H550 H 0.22722 -0.16894 0.63355
 H551 H 0.22719 -0.19617 0.66048
 H552 H 0.27291 -0.16053 0.69604
 H553 H 0.21608 -0.07325 0.57321
 H554 H 0.21595 -0.04606 0.54608
 H555 H 0.28417 -0.04596 0.54617
 H556 H 0.28404 -0.07315 0.57330
 C557 C 0.73230 -0.15158 0.33759
 C558 C 0.74973 -0.14925 0.35082
 C559 C 0.76720 -0.16242 0.34845
 C560 C 0.76727 -0.17787 0.33292
 C561 C 0.74982 -0.18036 0.31949
 C562 C 0.73233 -0.16700 0.32204
 C563 C 0.74970 -0.13333 0.36681
 C564 C 0.74970 -0.12000 0.38019
 C565 C 0.74971 -0.10439 0.39586
 C566 C 0.74974 -0.09105 0.40923
 C567 C 0.74978 -0.07511 0.42519
 C568 C 0.76891 -0.06735 0.43293
 C569 C 0.76898 -0.05186 0.44842
 C570 C 0.74988 -0.04392 0.45639
 C571 C 0.73074 -0.05184 0.44851
 C572 C 0.73071 -0.06733 0.43301
 H573 H 0.71867 -0.14148 0.33931
 H574 H 0.78080 -0.16074 0.35859
 H575 H 0.78109 -0.18768 0.33140
 H576 H 0.71854 -0.16849 0.31218
 H577 H 0.78377 -0.07326 0.42698
 H578 H 0.78399 -0.04611 0.45414
 H579 H 0.71577 -0.04608 0.45430
 H580 H 0.71581 -0.07323 0.42714
 C581 C 0.64761 0.76266 -0.16703
 C582 C 0.64967 0.74931 -0.14978
 C583 C 0.66717 0.73604 -0.14828
 C584 C 0.68255 0.73609 -0.16396
 C585 C 0.68065 0.74946 -0.18141
 C586 C 0.66296 0.76275 -0.18274
 C587 C 0.63384 0.74923 -0.13364
 C588 C 0.62055 0.74918 -0.12015
 C589 C 0.60498 0.74914 -0.10437
 C590 C 0.59165 0.74913 -0.09092
 C591 C 0.57571 0.74914 -0.07488
 C592 C 0.56791 0.76813 -0.06711
 C593 C 0.55238 0.76816 -0.05157
 C594 C 0.54444 0.74917 -0.04359
 C595 C 0.55241 0.73016 -0.05150
 C596 C 0.56794 0.73017 -0.06704
 H597 H 0.63410 0.77298 -0.16837
 H598 H 0.66894 0.72566 -0.13496
 H599 H 0.69596 0.72576 -0.16226
 H600 H 0.66081 0.77314 -0.19595
 H601 H 0.57382 0.78290 -0.07308
 H602 H 0.54659 0.78306 -0.04583
 H603 H 0.54664 0.71527 -0.04569
 H604 H 0.57387 0.71538 -0.07294
 C605 C 0.33647 0.26730 -0.15180
 C606 C 0.35011 0.25022 -0.14951
 C607 C 0.34813 0.23289 -0.16277
 C608 C 0.33256 0.23261 -0.17827
 C609 C 0.31872 0.24970 -0.18073
 C610 C 0.32088 0.26706 -0.16728
 C611 C 0.36612 0.25046 -0.13354
 C612 C 0.37954 0.25061 -0.12017
 C613 C 0.39524 0.25073 -0.10452
 C614 C 0.40866 0.25079 -0.09115
 C615 C 0.42468 0.25079 -0.07519
 C616 C 0.43250 0.23180 -0.06744
 C617 C 0.44806 0.23176 -0.05194
 C618 C 0.45602 0.25075 -0.04397
 C619 C 0.44804 0.26976 -0.05186
 C620 C 0.43247 0.26976 -0.06737
 H621 H 0.33790 0.28082 -0.14163
 H622 H 0.35859 0.21956 -0.16110
 H623 H 0.33134 0.21891 -0.18816
 H624 H 0.31069 0.28057 -0.16875
 H625 H 0.42657 0.21702 -0.07339
 H626 H 0.45386 0.21686 -0.04621
 H627 H 0.45382 0.28465 -0.04607
 H628 H 0.42652 0.28455 -0.07326
 C629 C 0.33353 0.73641 0.14855
 C630 C 0.35108 0.74961 0.15013
 C631 C 0.35317 0.76289 0.16742
 C632 C 0.33778 0.76299 0.18310
 C633 C 0.32004 0.74977 0.18170
 C634 C 0.31812 0.73647 0.16421
 C635 C 0.36694 0.74952 0.13401
 C636 C 0.38024 0.74946 0.12053
 C637 C 0.39583 0.74940 0.10477
 C638 C 0.40916 0.74936 0.09132
 C639 C 0.42509 0.74933 0.07528
 C640 C 0.43289 0.73034 0.06752
 C641 C 0.44841 0.73029 0.05198
 C642 C 0.45635 0.74928 0.04399
 C643 C 0.44840 0.76830 0.05189
 C644 C 0.43287 0.76830 0.06743
 H645 H 0.33173 0.72608 0.13520
 H646 H 0.36673 0.77315 0.16881
 H647 H 0.33995 0.77332 0.19634
 H648 H 0.30466 0.72620 0.16244
 H649 H 0.42697 0.71557 0.07349
 H650 H 0.45420 0.71539 0.04624
 H651 H 0.45417 0.78318 0.04608
 H652 H 0.42695 0.78309 0.07333
 C653 C 0.65184 0.23225 0.16258
 C654 C 0.64987 0.24957 0.14929
 C655 C 0.66350 0.26666 0.15159
 C656 C 0.67905 0.26646 0.16711
 C657 C 0.68120 0.24911 0.18058
 C658 C 0.66738 0.23200 0.17812
 C659 C 0.63388 0.24979 0.13331
 C660 C 0.62049 0.24995 0.11992
 C661 C 0.60480 0.25011 0.10425
 C662 C 0.59140 0.25022 0.09086
 C663 C 0.57540 0.25031 0.07489
 C664 C 0.56756 0.23137 0.06703
 C665 C 0.55201 0.23143 0.05152
 C666 C 0.54407 0.25047 0.04366
 C667 C 0.55206 0.26943 0.05166
 C668 C 0.56762 0.26933 0.06718
 H669 H 0.64140 0.21891 0.16091
 H670 H 0.66208 0.28017 0.14140
 H671 H 0.68923 0.27998 0.16857
 H672 H 0.66859 0.21831 0.18803
 H673 H 0.57348 0.21656 0.07290
 H674 H 0.54620 0.21656 0.04570
 H675 H 0.54629 0.28435 0.04595
 H676 H 0.57358 0.28409 0.07315
 C677 C -0.16614 0.64975 0.76507
 C678 C -0.15015 0.64985 0.75002
 C679 C -0.14977 0.66551 0.73474
 C680 C -0.16532 0.68104 0.73445
 C681 C -0.18163 0.68119 0.74953
 C682 C -0.18174 0.66524 0.76487
 C683 C -0.13414 0.63386 0.75024
 C684 C -0.12073 0.62048 0.75039
 C685 C -0.10503 0.60481 0.75052
 C686 C -0.09161 0.59143 0.75060
 C687 C -0.07559 0.57545 0.75066
 C688 C -0.06771 0.56769 0.73172
 C689 C -0.05214 0.55218 0.73173
 C690 C -0.04423 0.54423 0.75073
 C691 C -0.05226 0.55214 0.76969
 C692 C -0.06784 0.56765 0.76963
 H693 H -0.16658 0.63767 0.77699
 H694 H -0.13743 0.66573 0.72299
 H695 H -0.16437 0.69281 0.72233
 H696 H -0.19378 0.66450 0.77681
 H697 H -0.07361 0.57363 0.71694
 H698 H -0.04629 0.54643 0.71687
 H699 H -0.04652 0.54635 0.78458
 H700 H -0.07383 0.57355 0.78438
 C701 C -0.16713 0.35171 0.23635
 C702 C -0.14967 0.35026 0.24965
 C703 C -0.14763 0.33302 0.26304
 C704 C -0.16297 0.31729 0.26313
 C705 C -0.18062 0.31856 0.24980
 C706 C -0.18251 0.33599 0.23640
 C707 C -0.13384 0.36643 0.24956
 C708 C -0.12056 0.37995 0.24949
 C709 C -0.10499 0.39575 0.24942
 C710 C -0.09167 0.40923 0.24938
 C711 C -0.07574 0.42531 0.24934
 C712 C -0.06797 0.43317 0.26828
 C713 C -0.05244 0.44873 0.26828
 C714 C -0.04448 0.45665 0.24929
 C715 C -0.05241 0.44865 0.23032
 C716 C -0.06794 0.43308 0.23037
 H717 H -0.16889 0.36502 0.22594
 H718 H -0.13414 0.33172 0.27338
 H719 H -0.16084 0.30409 0.27354
 H720 H -0.19589 0.33766 0.22604
 H721 H -0.07390 0.42725 0.28306
 H722 H -0.04668 0.45455 0.28315
 H723 H -0.04662 0.45440 0.21544
 H724 H -0.07385 0.42710 0.21562
 C725 C 0.14709 0.33303 0.73721
 C726 C 0.14914 0.35029 0.75055
 C727 C 0.16664 0.35182 0.76380
 C728 C 0.18205 0.33614 0.76373
 C729 C 0.18016 0.31868 0.75037
 C730 C 0.16247 0.31734 0.73709
 C731 C 0.13328 0.36643 0.75066
 C732 C 0.11998 0.37992 0.75073
 C733 C 0.10439 0.39570 0.75079
 C734 C 0.09106 0.40917 0.75082
 C735 C 0.07512 0.42523 0.75083
 C736 C 0.06730 0.43300 0.76979
 C737 C 0.05178 0.44856 0.76981
 C738 C 0.04387 0.45656 0.75083
 C739 C 0.05186 0.44865 0.73185
 C740 C 0.06738 0.43309 0.73188
 H741 H 0.13357 0.33168 0.72691
 H742 H 0.16840 0.36514 0.77417
 H743 H 0.19546 0.33787 0.77404
 H744 H 0.16034 0.30412 0.72671
 H745 H 0.07319 0.42702 0.78455
 H746 H 0.04597 0.45431 0.78469
 H747 H 0.04611 0.45446 0.71698
 H748 H 0.07333 0.42717 0.71711
 C749 C 0.15177 0.66306 0.26715
 C750 C 0.14980 0.64976 0.24985
 C751 C 0.16349 0.65201 0.23282
 C752 C 0.17911 0.66749 0.23308
 C753 C 0.18125 0.68097 0.25040
 C754 C 0.16737 0.67856 0.26744
 C755 C 0.13376 0.63380 0.24960
 C756 C 0.12032 0.62044 0.24945
 C757 C 0.10459 0.60480 0.24932
 C758 C 0.09115 0.59144 0.24926
 C759 C 0.07509 0.57549 0.24923
 C760 C 0.06730 0.56769 0.23027
 C761 C 0.05170 0.55219 0.23024
 C762 C 0.04368 0.54429 0.24922
 C763 C 0.05163 0.55224 0.26820
 C764 C 0.06723 0.56774 0.26819
 H765 H 0.14127 0.66143 0.28044
 H766 H 0.16208 0.64181 0.21933
 H767 H 0.18934 0.66892 0.21961
 H768 H 0.16858 0.68847 0.28112
 H769 H 0.07328 0.57358 0.21551
 H770 H 0.04593 0.54641 0.21537
 H771 H 0.04580 0.54650 0.28308
 H772 H 0.07316 0.57367 0.28295
 C773 C 0.76769 -0.16238 0.65176
 C774 C 0.75015 -0.14933 0.64925
 C775 C 0.73257 -0.15187 0.66225
 C776 C 0.73252 -0.16739 0.67770
 C777 C 0.75008 -0.18064 0.68037
 C778 C 0.76768 -0.17792 0.66719
 C779 C 0.75017 -0.13336 0.63334
 C780 C 0.75017 -0.11999 0.62001
 C781 C 0.75017 -0.10434 0.60440
 C782 C 0.75016 -0.09098 0.59106
 C783 C 0.75014 -0.07504 0.57512
 C784 C 0.73103 -0.06725 0.56740
 C785 C 0.73098 -0.05177 0.55191
 C786 C 0.75010 -0.04386 0.54394
 C787 C 0.76923 -0.05180 0.55182
 C788 C 0.76923 -0.06728 0.56731
 H789 H 0.78141 -0.16052 0.64180
 H790 H 0.71888 -0.14187 0.66041
 H791 H 0.71862 -0.16906 0.68737
 H792 H 0.78156 -0.18764 0.66884
 H793 H 0.71616 -0.07316 0.57334
 H794 H 0.71599 -0.04600 0.54618
 H795 H 0.78421 -0.04605 0.54602
 H796 H 0.78412 -0.07321 0.57318
 C797 C 0.23281 -0.16212 0.34843
 C798 C 0.25037 -0.14909 0.35100
 C799 C 0.26798 -0.15163 0.33804
 C800 C 0.26805 -0.16714 0.32258
 C801 C 0.25047 -0.18036 0.31986
 C802 C 0.23284 -0.17765 0.33299
 C803 C 0.25033 -0.13314 0.36692
 C804 C 0.25029 -0.11979 0.38026
 C805 C 0.25025 -0.10416 0.39589
 C806 C 0.25021 -0.09082 0.40925
 C807 C 0.25018 -0.07490 0.42520
 C808 C 0.26927 -0.06711 0.43299
 C809 C 0.26927 -0.05164 0.44849
 C810 C 0.25013 -0.04375 0.45641
 C811 C 0.23102 -0.05170 0.44847
 C812 C 0.23107 -0.06717 0.43297
 H813 H 0.21908 -0.16026 0.35836
 H814 H 0.28168 -0.14165 0.33992
 H815 H 0.28197 -0.16881 0.31294
 H816 H 0.21895 -0.18735 0.33131
 H817 H 0.28416 -0.07299 0.42708
 H818 H 0.28424 -0.04586 0.45426
 H819 H 0.21602 -0.04597 0.45423
 H820 H 0.21620 -0.07310 0.42705
 C821 C 0.76756 0.16187 0.34822
 C822 C 0.74991 0.14898 0.35086
 C823 C 0.73230 0.15158 0.33792
 C824 C 0.73233 0.16701 0.32238
 C825 C 0.75000 0.18009 0.31956
 C826 C 0.76762 0.17733 0.33270
 C827 C 0.74988 0.13307 0.36683
 C828 C 0.74987 0.11974 0.38021
 C829 C 0.74987 0.10414 0.39586
 C830 C 0.74988 0.09081 0.40923
 C831 C 0.74990 0.07488 0.42519
 C832 C 0.73081 0.06713 0.43301
 C833 C 0.73081 0.05164 0.44850
 C834 C 0.74995 0.04371 0.45638
 C835 C 0.76906 0.05162 0.44841
 C836 C 0.76901 0.06710 0.43292
 H837 H 0.78130 0.15996 0.35813
 H838 H 0.71854 0.14170 0.33986
 H839 H 0.71841 0.16874 0.31274
 H840 H 0.78158 0.18692 0.33094
 H841 H 0.71593 0.07304 0.42713
 H842 H 0.71584 0.04589 0.45430
 H843 H 0.78406 0.04586 0.45413
 H844 H 0.78388 0.07300 0.42696
 C845 C 0.23692 0.16689 0.64718
 C846 C 0.24982 0.14924 0.64928
 C847 C 0.26269 0.14709 0.66694
 C848 C 0.26267 0.16253 0.68246
 C849 C 0.24974 0.18038 0.68055
 C850 C 0.23686 0.18236 0.66269
 C851 C 0.24985 0.13332 0.63332
 C852 C 0.24987 0.11998 0.61996
 C853 C 0.24989 0.10435 0.60433
 C854 C 0.24991 0.09100 0.59099
 C855 C 0.24993 0.07504 0.57507
 C856 C 0.26905 0.06729 0.56732
 C857 C 0.26909 0.05178 0.55185
 C858 C 0.24998 0.04383 0.54393
 C859 C 0.23084 0.05173 0.55184
 C860 C 0.23084 0.06723 0.56730
 H861 H 0.22692 0.16873 0.63355
 H862 H 0.27272 0.13345 0.66873
 H863 H 0.27267 0.16032 0.69600
 H864 H 0.22683 0.19589 0.66053
 H865 H 0.28391 0.07323 0.57323
 H866 H 0.28409 0.04604 0.54611
 H867 H 0.21587 0.04594 0.54608
 H868 H 0.21596 0.07313 0.57320
   
