data_POSCAR
  _audit_creation_date              2014-09-24
  _audit_creation_method            'ToBaCCo'
  _symmetry_space_group_name_H-M    'P1'
  _symmetry_Int_Tables_number       1
  _symmetry_cell_setting            triclinic
  loop_
  _symmetry_equiv_pos_as_xyz
 x,y,z
_cell_length_a 31.5645
_cell_length_b 32.0601
_cell_length_c 31.0090
_cell_angle_alpha 90.278100
_cell_angle_beta 89.405500
_cell_angle_gamma 89.189600
loop_
  _atom_site_label
  _atom_site_type_symbol
  _atom_site_fract_x
  _atom_site_fract_y
  _atom_site_fract_z
N1 N 0.20640 0.21505 0.19300
 N2 N -0.22849 0.76484 0.24823
 N3 N -0.22753 0.21920 -0.22262
 N4 N 0.21918 0.79777 -0.18453
 N5 N 0.21643 1.21012 0.79713
 N6 N 0.77806 0.78008 0.76192
 N7 N 0.20194 0.79229 1.18698
 N8 N 0.81193 1.21074 1.21814
 O9 O 0.54950 0.98004 0.92019
 O10 O 0.47047 0.96552 1.09603
 O11 O 0.56666 0.93180 1.04582
 O12 O 0.42754 0.98339 0.98371
 O13 O 0.54946 0.96465 1.10339
 O14 O 0.48061 0.95425 0.95179
 O15 O 0.42500 1.00211 1.05929
 O16 O 0.55882 0.94021 0.97195
 C17 C 0.56586 0.94726 0.93340
 C18 C 0.43350 0.97122 1.08298
 C19 C 0.56539 0.93339 1.08561
 C20 C 0.44256 0.95344 0.96219
 O21 O 0.47661 1.02224 0.90825
 O22 O 0.55253 1.04364 1.09607
 O23 O 0.59285 1.01969 0.97588
 O24 O 0.46390 1.07567 1.03901
 O25 O 0.47232 1.04701 1.09980
 O26 O 0.53715 1.05210 0.95118
 O27 O 0.46288 1.05848 0.96541
 O28 O 0.59953 1.00970 1.05517
 Co29 Co 0.50740 1.00378 0.95427
 Co30 Co 0.51097 1.00492 1.09119
 Co31 Co 0.57432 0.97757 1.01240
 Co32 Co 0.45021 1.02755 1.01246
 O33 O 0.51254 1.00171 1.02023
 C34 C 0.45360 1.05132 0.92658
 C35 C 0.59026 1.03752 1.08343
 C36 C 0.57646 1.05058 0.95635
 C37 C 0.46074 1.07790 1.07860
 O38 O 0.04095 0.46659 0.04217
 O39 O 0.03865 0.53984 -0.07367
 O40 O -0.00259 0.41660 -0.05434
 O41 O -0.00543 0.59143 0.01747
 O42 O 0.04114 0.46504 -0.06668
 O43 O 0.03499 0.54611 0.05113
 O44 O -0.00897 0.58620 -0.06164
 O45 O -0.00094 0.41692 0.02337
 C46 C 0.03425 0.42861 0.03775
 C47 C 0.02864 0.57725 -0.07084
 C48 C 0.03413 0.42724 -0.06430
 C49 C 0.02652 0.58285 0.04020
 O50 O -0.04456 0.53852 0.07517
 O51 O -0.03727 0.46016 -0.10320
 O52 O -0.08158 0.44830 0.02520
 O53 O -0.08602 0.55342 -0.05619
 O54 O -0.04116 0.53573 -0.10634
 O55 O -0.03727 0.46111 0.07459
 O56 O -0.08406 0.56731 0.02527
 O57 O -0.08139 0.45226 -0.05179
 Co58 Co -0.00314 0.50263 0.05332
 Co59 Co -0.00161 0.50024 -0.08147
 Co60 Co -0.03992 0.43912 -0.01460
 Co61 Co -0.04402 0.56754 -0.01887
 O62 O -0.02167 0.50262 -0.01500
 C63 C -0.07682 0.55962 0.06406
 C64 C -0.07348 0.44973 -0.09079
 C65 C -0.07276 0.44789 0.06384
 C66 C -0.07736 0.54954 -0.09523
 O67 O 1.09672 0.03671 0.45757
 O68 O 0.91186 0.01952 0.53104
 O69 O 0.98377 0.01641 0.41718
 O70 O 1.04119 0.06670 0.55609
 O71 O 0.95880 0.05008 0.47330
 O72 O 1.10048 0.03760 0.53895
 O73 O 0.96705 0.05280 0.55236
 O74 O 1.05925 0.00181 0.41109
 C75 C 1.08412 0.03127 0.41977
 C76 C 0.92783 0.04614 0.55764
 C77 C 0.96650 0.04884 0.43359
 C78 C 1.08041 0.06715 0.55617
 O79 O 1.09836 -0.04285 0.54082
 O80 O 0.92561 -0.02015 0.45790
 O81 O 1.04649 -0.07465 0.44857
 O82 O 0.98113 -0.02507 0.58459
 O83 O 0.95264 -0.04922 0.52779
 O84 O 1.10428 -0.04368 0.45902
 O85 O 1.05765 -0.01024 0.58872
 O86 O 0.97495 -0.06319 0.45213
 Co87 Co 1.09249 -0.00330 0.49909
 Co88 Co 0.95829 0.00075 0.50177
 Co89 Co 1.01631 -0.02789 0.43722
 Co90 Co 1.01251 0.01868 0.56441
 O91 O 1.02268 -0.00427 0.49929
 C92 C 1.08636 -0.03709 0.57930
 C93 C 0.93777 -0.05436 0.44341
 C94 C 1.08535 -0.07467 0.44531
 C95 C 0.95880 -0.05210 0.56700
 C96 C 1.14850 0.13598 0.28453
 C97 C 1.16708 0.11872 0.24704
 C98 C 1.18572 0.14487 0.21671
 C99 C 1.18548 0.18812 0.22333
 C100 C 1.16612 0.20431 0.26081
 N101 N 1.14879 0.17815 0.29041
 C102 C 1.13042 0.10908 0.31849
 N103 N 1.13434 0.12029 0.36066
 C104 C 1.11985 0.09609 0.39345
 C105 C 1.09972 0.05825 0.38457
 C106 C 1.09443 0.04667 0.34127
 C107 C 1.10985 0.07184 0.30823
 H108 H 1.20059 0.13145 0.18813
 H109 H 1.16580 0.23757 0.26694
 H110 H 1.12403 0.10647 0.42639
 H111 H 1.07874 0.01796 0.33292
 H112 H 1.16834 0.08533 0.24176
 H113 H 1.10537 0.06240 0.27505
 C114 C 0.84043 -0.16720 0.34105
 C115 C 0.86237 -0.18957 0.30863
 C116 C 0.83992 -0.21317 0.27901
 C117 C 0.79560 -0.21535 0.28197
 C118 C 0.77505 -0.19431 0.31636
 N119 N 0.79754 -0.17052 0.34421
 C120 C 0.86353 -0.13896 0.37017
 N121 N 0.90587 -0.14497 0.37560
 C122 C 0.92954 -0.11889 0.39968
 C123 C 0.91090 -0.08356 0.41940
 C124 C 0.86719 -0.07680 0.41481
 C125 C 0.84328 -0.10470 0.39049
 H126 H 0.85713 -0.22830 0.25279
 H127 H 0.74096 -0.19551 0.31996
 H128 H 0.96314 -0.12535 0.40254
 H129 H 0.85169 -0.04995 0.42968
 H130 H 0.89643 -0.18743 0.30501
 H131 H 0.80967 -0.09887 0.38655
 C132 C 0.83064 0.14755 0.67727
 C133 C 0.78617 0.15034 0.67997
 C134 C 0.76706 0.17454 0.71252
 C135 C 0.79195 0.19633 0.74199
 C136 C 0.83614 0.19336 0.73777
 N137 N 0.85405 0.16942 0.70605
 C138 C 0.85342 0.12160 0.64451
 N139 N 0.89546 0.12839 0.63791
 C140 C 0.91944 0.10521 0.60991
 C141 C 0.90132 0.07252 0.58660
 C142 C 0.85807 0.06482 0.59261
 C143 C 0.83399 0.08918 0.62157
 H144 H 0.73282 0.17628 0.71488
 H145 H 0.85639 0.20925 0.76029
 H146 H 0.95273 0.11219 0.60627
 H147 H 0.84304 0.03957 0.57554
 H148 H 0.76615 0.13446 0.65731
 H149 H 0.80104 0.08170 0.62648
 C150 C 1.16906 -0.12829 0.71485
 C151 C 1.18404 -0.10885 0.75231
 C152 C 1.20201 -0.13303 0.78481
 C153 C 1.20514 -0.17649 0.78012
 C154 C 1.19095 -0.19462 0.74173
 N155 N 1.17357 -0.17042 0.71041
 C156 C 1.14771 -0.10412 0.68059
 N157 N 1.15134 -0.11704 0.63878
 C158 C 1.13213 -0.09631 0.60593
 C159 C 1.10692 -0.06069 0.61447
 C160 C 1.10216 -0.04738 0.65745
 C161 C 1.12255 -0.06883 0.69047
 H162 H 1.21230 -0.11803 0.81418
 H163 H 1.19299 -0.22807 0.73713
 H164 H 1.13639 -0.10779 0.57327
 H165 H 1.08296 -0.02013 0.66555
 H166 H 1.18180 -0.07537 0.75659
 H167 H 1.11795 -0.05829 0.72341
 C168 C 0.33042 1.17902 1.15345
 C169 C 0.32099 1.18364 1.19771
 C170 C 0.28028 1.19617 1.21072
 C171 C 0.24931 1.20494 1.17993
 C172 C 0.26047 1.20199 1.13616
 N173 N 0.30000 1.18892 1.12424
 C174 C 0.37064 1.16009 1.13712
 N175 N 0.37897 1.16161 1.09395
 C176 C 0.41089 1.13910 1.07495
 C177 C 0.43554 1.11158 1.09958
 C178 C 0.42952 1.11160 1.14445
 C179 C 0.39722 1.13573 1.16336
 H180 H 0.27273 1.19872 1.24478
 H181 H 0.23732 1.20853 1.11152
 H182 H 0.41465 1.14028 1.04025
 H183 H 0.44788 1.09081 1.16466
 H184 H 0.34420 1.17723 1.22223
 H185 H 0.39168 1.13263 1.19761
 C186 C 0.32200 0.84349 0.88779
 C187 C 0.28732 0.82584 0.90941
 C188 C 0.25409 0.80950 0.88569
 C189 C 0.25542 0.81014 0.84042
 C190 C 0.29175 0.82587 0.82007
 N191 N 0.32351 0.84223 0.84389
 C192 C 0.35489 0.86672 0.91123
 N193 N 0.39417 0.87087 0.89317
 C194 C 0.42406 0.89592 0.91067
 C195 C 0.41437 0.91996 0.94750
 C196 C 0.37450 0.91538 0.96705
 C197 C 0.34488 0.88871 0.94934
 H198 H 0.22669 0.79778 0.90276
 H199 H 0.29418 0.82635 0.78525
 H200 H 0.45437 0.89887 0.89439
 H201 H 0.36552 0.93380 0.99502
 H202 H 0.28534 0.82540 0.94426
 H203 H 0.31367 0.88752 0.96399
 C204 C 0.66855 0.82570 1.18743
 C205 C 0.66886 0.78213 1.19037
 C206 C 0.70138 0.76214 1.21288
 C207 C 0.73407 0.78543 1.23135
 C208 C 0.73174 0.82911 1.22837
 N209 N 0.69944 0.84780 1.20698
 C210 C 0.63666 0.84868 1.16245
 N211 N 0.62147 0.88544 1.17859
 C212 C 0.59630 0.91126 1.15536
 C213 C 0.58668 0.90158 1.11235
 C214 C 0.60125 0.86336 1.09520
 C215 C 0.62593 0.83650 1.12043
 H216 H 0.70202 0.72841 1.21455
 H217 H 0.75647 0.84837 1.24131
 H218 H 0.58582 0.94045 1.16989
 H219 H 0.59466 0.85490 1.06211
 H220 H 0.64445 0.76387 1.17529
 H221 H 0.63846 0.80779 1.10650
 C222 C 0.68470 1.15760 0.85844
 C223 C 0.67515 1.19811 0.84384
 C224 C 0.70378 1.21828 0.81660
 C225 C 0.74167 1.19822 0.80393
 C226 C 0.75003 1.15791 0.81923
 N227 N 0.72186 1.13900 0.84581
 C228 C 0.65589 1.13409 0.88707
 N229 N 0.67241 1.10226 0.91079
 C230 C 0.64792 1.07690 0.93524
 C231 C 0.60372 1.08213 0.93589
 C232 C 0.58599 1.11539 0.91259
 C233 C 0.61190 1.14146 0.88822
 H234 H 0.69668 1.24958 0.80561
 H235 H 0.77928 1.14179 0.81060
 H236 H 0.66295 1.05162 0.95265
 H237 H 0.55199 1.12034 0.91191
 H238 H 0.64647 1.21443 0.85385
 H239 H 0.59728 1.16569 0.86906
 C240 C 0.14041 0.30947 0.12454
 C241 C 0.18305 0.31517 0.13545
 C242 C 0.20426 0.28467 0.15915
 C243 C 0.18346 0.24825 0.17175
 C244 C 0.14079 0.24385 0.16056
 N245 N 0.12074 0.27400 0.13740
 C246 C 0.11613 0.34057 0.09918
 N247 N 0.08038 0.32824 0.07876
 C248 C 0.05506 0.35529 0.05686
 C249 C 0.06476 0.39785 0.05536
 C250 C 0.10198 0.41111 0.07526
 C251 C 0.12763 0.38272 0.09722
 H252 H 0.23721 0.28915 0.16710
 H253 H 0.12374 0.21601 0.16917
 H254 H 0.02663 0.34371 0.04202
 H255 H 0.11051 0.44371 0.07523
 H256 H 0.20041 0.34222 0.12509
 H257 H 0.15503 0.39432 0.11383
 C258 C -0.17400 0.33326 -0.18139
 C259 C -0.17504 0.32391 -0.22563
 C260 C -0.19386 0.28699 -0.23941
 C261 C -0.21115 0.25918 -0.20925
 C262 C -0.21047 0.27054 -0.16545
 N263 N -0.19219 0.30659 -0.15294
 C264 C -0.15183 0.36978 -0.16381
 N265 N -0.16410 0.38445 -0.12433
 C266 C -0.14157 0.41317 -0.10240
 C267 C -0.10301 0.42750 -0.11924
 C268 C -0.09076 0.41462 -0.16091
 C269 C -0.11518 0.38581 -0.18342
 H270 H -0.19438 0.27982 -0.27355
 H271 H -0.22316 0.25021 -0.14093
 H272 H -0.15245 0.42259 -0.07054
 H273 H -0.06112 0.42478 -0.17497
 H274 H -0.16152 0.34472 -0.24927
 H275 H -0.10383 0.37419 -0.21431
 C276 C 0.13813 0.70591 -0.13283
 C277 C 0.12090 0.74383 -0.14754
 C278 C 0.14747 0.77370 -0.16515
 C279 C 0.19122 0.76599 -0.16846
 C280 C 0.20721 0.72744 -0.15422
 N281 N 0.18062 0.69866 -0.13712
 C282 C 0.11088 0.67345 -0.11380
 N283 N 0.12244 0.63250 -0.11790
 C284 C 0.09758 0.60117 -0.10310
 C285 C 0.05837 0.61041 -0.08322
 C286 C 0.04677 0.65242 -0.07708
 C287 C 0.07291 0.68393 -0.09210
 H288 H 0.13395 0.80313 -0.17560
 H289 H 0.24079 0.72043 -0.15653
 H290 H 0.10790 0.56914 -0.10800
 H291 H 0.01719 0.66096 -0.06112
 H292 H 0.08719 0.75033 -0.14602
 H293 H 0.06331 0.71607 -0.08672
 C294 C -0.17375 0.66466 0.17635
 C295 C -0.19167 0.69890 0.15485
 C296 C -0.20931 0.73175 0.17851
 C297 C -0.20993 0.73056 0.22371
 C298 C -0.19119 0.69601 0.24418
 N299 N -0.17342 0.66439 0.22029
 C300 C -0.15312 0.63066 0.15130
 N301 N -0.11503 0.61471 0.16400
 C302 C -0.09152 0.58847 0.13828
 C303 C -0.10565 0.57836 0.09676
 C304 C -0.14614 0.59207 0.08458
 C305 C -0.17001 0.61794 0.11180
 H306 H -0.22211 0.75841 0.16147
 H307 H -0.19064 0.69435 0.27901
 H308 H -0.06059 0.57814 0.14896
 H309 H -0.15853 0.58443 0.05311
 H310 H -0.19098 0.70087 0.12001
 H311 H -0.20061 0.62939 0.10122
 C312 C 1.16509 0.16047 0.68424
 C313 C 1.18809 0.13448 0.71186
 C314 C 1.20492 0.15081 0.74948
 C315 C 1.20007 0.19359 0.75959
 C316 C 1.17660 0.21850 0.73049
 N317 N 1.15960 0.20148 0.69441
 C318 C 1.14527 0.14285 0.64564
 N319 N 1.10309 0.14905 0.63890
 C320 C 1.08201 0.12797 0.60770
 C321 C 1.10353 0.09814 0.58197
 C322 C 1.14757 0.09370 0.58660
 C323 C 1.16843 0.11579 0.61849
 H324 H 1.22063 0.12954 0.77132
 H325 H 1.17212 0.25159 0.73623
 H326 H 1.04811 0.13259 0.60491
 H327 H 1.16557 0.07126 0.56737
 H328 H 1.19182 0.10145 0.70506
 H329 H 1.20205 0.11051 0.62314
 C330 C 0.85294 -0.15525 0.67130
 C331 C 0.83486 -0.19339 0.65938
 C332 C 0.80827 -0.21376 0.68847
 C333 C 0.79960 -0.19622 0.72916
 C334 C 0.81726 -0.15762 0.73937
 N335 N 0.84342 -0.13860 0.71078
 C336 C 0.88311 -0.13299 0.64309
 N337 N 0.91041 -0.10586 0.66156
 C338 C 0.93725 -0.08207 0.63798
 C339 C 0.93681 -0.08396 0.59279
 C340 C 0.90985 -0.11260 0.57299
 C341 C 0.88303 -0.13720 0.59797
 H342 H 0.79561 -0.24390 0.68003
 H343 H 0.81179 -0.14361 0.77079
 H344 H 0.95731 -0.06023 0.65456
 H345 H 0.90812 -0.11466 0.53817
 H346 H 0.84232 -0.20823 0.62880
 H347 H 0.86122 -0.15764 0.58187
 C348 C 1.16186 -0.17027 0.31072
 C349 C 1.15387 -0.21101 0.29676
 C350 C 1.16811 -0.22395 0.25596
 C351 C 1.18994 -0.19629 0.22851
 C352 C 1.19784 -0.15593 0.24472
 N353 N 1.18384 -0.14433 0.28452
 C354 C 1.14489 -0.15316 0.35170
 N355 N 1.16619 -0.12172 0.37106
 C356 C 1.14937 -0.09918 0.40437
 C357 C 1.10775 -0.10633 0.41851
 C358 C 1.08597 -0.14003 0.40059
 C359 C 1.10456 -0.16374 0.36734
 H360 H 1.16214 -0.25570 0.24588
 H361 H 1.21337 -0.13278 0.22511
 H362 H 1.16737 -0.07362 0.41737
 H363 H 1.05369 -0.14645 0.41042
 H364 H 1.13691 -0.23262 0.31709
 H365 H 1.08628 -0.18785 0.35200
 C366 C 0.88748 0.15951 0.31477
 C367 C 0.90660 0.18236 0.28162
 C368 C 0.88138 0.20079 0.25007
 C369 C 0.83702 0.19610 0.25108
 C370 C 0.81931 0.17377 0.28571
 N371 N 0.84456 0.15646 0.31616
 C372 C 0.91258 0.13634 0.34680
 N373 N 0.89624 0.13123 0.38720
 C374 C 0.91496 0.10595 0.41667
 C375 C 0.95121 0.08243 0.40528
 C376 C 0.96925 0.08799 0.36423
 C377 C 0.95028 0.11526 0.33503
 H378 H 0.89671 0.21696 0.22375
 H379 H 0.78537 0.16996 0.28836
 H380 H 0.89998 0.10226 0.44796
 H381 H 0.99713 0.07020 0.35428
 H382 H 0.94067 0.18557 0.27981
 H383 H 0.96353 0.11780 0.30283
 C384 C 0.14840 0.30398 -0.13646
 C385 C 0.19280 0.30561 -0.13846
 C386 C 0.21559 0.27432 -0.16054
 C387 C 0.19440 0.24143 -0.18113
 C388 C 0.14983 0.24104 -0.17774
 N389 N 0.12851 0.27161 -0.15577
 C390 C 0.12207 0.33613 -0.11405
 N391 N 0.08274 0.32551 -0.09991
 C392 C 0.05516 0.35365 -0.08198
 C393 C 0.06614 0.39578 -0.07848
 C394 C 0.10687 0.40743 -0.09194
 C395 C 0.13497 0.37772 -0.10964
 H396 H 0.24980 0.27618 -0.16223
 H397 H 0.13197 0.21583 -0.19163
 H398 H 0.02413 0.34325 -0.07191
 H399 H 0.11652 0.43966 -0.08996
 H400 H 0.20990 0.33033 -0.12277
 H401 H 0.16557 0.38770 -0.12136
 C402 C -0.15836 0.32513 0.16121
 C403 C -0.17675 0.29373 0.13631
 C404 C -0.18724 0.25598 0.15529
 C405 C -0.18003 0.24899 0.19952
 C406 C -0.16250 0.28209 0.22345
 N407 N -0.15170 0.31836 0.20387
 C408 C -0.14171 0.36311 0.14073
 N409 N -0.10468 0.37924 0.15502
 C410 C -0.08397 0.40969 0.13325
 C411 C -0.09985 0.42444 0.09397
 C412 C -0.13960 0.41057 0.08058
 C413 C -0.16069 0.38009 0.10394
 H414 H -0.19897 0.23152 0.13461
 H415 H -0.15705 0.27902 0.25769
 H416 H -0.05363 0.41996 0.14494
 H417 H -0.15329 0.42159 0.05076
 H418 H -0.18092 0.29727 0.10192
 H419 H -0.19062 0.36874 0.09228
 C420 C -0.16893 0.66412 -0.19795
 C421 C -0.14288 0.69398 -0.21714
 C422 C -0.16035 0.73175 -0.23054
 C423 C -0.20402 0.74001 -0.22566
 C424 C -0.22924 0.70873 -0.20742
 N425 N -0.21122 0.67243 -0.19345
 C426 C -0.15007 0.62683 -0.17738
 N427 N -0.16601 0.61411 -0.13877
 C428 C -0.14552 0.58557 -0.11396
 C429 C -0.10582 0.56927 -0.12702
 C430 C -0.09073 0.57911 -0.16838
 C431 C -0.11279 0.60783 -0.19367
 H432 H -0.13929 0.75499 -0.24353
 H433 H -0.26305 0.71357 -0.20342
 H434 H -0.15871 0.57814 -0.08261
 H435 H -0.06044 0.56702 -0.17991
 H436 H -0.10893 0.68928 -0.21973
 H437 H -0.09968 0.61665 -0.22466
 C438 C 0.12740 0.71098 0.11535
 C439 C 0.10772 0.74125 0.14179
 C440 C 0.13246 0.76834 0.16573
 C441 C 0.17704 0.76583 0.16325
 C442 C 0.19532 0.73563 0.13530
 N443 N 0.17045 0.70891 0.11308
 C444 C 0.10228 0.67960 0.09235
 N445 N 0.11697 0.63953 0.09009
 C446 C 0.09397 0.60842 0.07234
 C447 C 0.05365 0.61694 0.05551
 C448 C 0.03873 0.65838 0.05583
 C449 C 0.06283 0.68974 0.07443
 H450 H 0.11672 0.79174 0.18572
 H451 H 0.22941 0.73230 0.13242
 H452 H 0.10689 0.57697 0.07215
 H453 H 0.00791 0.66634 0.04295
 H454 H 0.07355 0.74326 0.14489
 H455 H 0.05061 0.72146 0.07506
 C456 C 0.32441 1.15299 0.84947
 C457 C 0.29279 1.16955 0.87696
 C458 C 0.25750 1.18960 0.85965
 C459 C 0.25308 1.19343 0.81465
 C460 C 0.28654 1.17748 0.78838
 N461 N 0.32041 1.15747 0.80612
 C462 C 0.36091 1.12945 0.86711
 N463 N 0.37667 1.09505 0.84596
 C464 C 0.40774 1.07030 0.86302
 C465 C 0.42409 1.07958 0.90380
 C466 C 0.40952 1.11592 0.92495
 C467 C 0.37821 1.14086 0.90677
 H468 H 0.23263 1.20019 0.88155
 H469 H 0.28553 1.18061 0.75367
 H470 H 0.41844 1.04273 0.84557
 H471 H 0.42172 1.12474 0.95616
 H472 H 0.29436 1.16562 0.91157
 H473 H 0.36729 1.16853 0.92394
 C474 C 0.30299 0.85783 1.13409
 C475 C 0.26831 0.84822 1.10810
 C476 C 0.23558 0.82420 1.12485
 C477 C 0.23689 0.81012 1.16781
 C478 C 0.27394 0.81787 1.19142
 N479 N 0.30533 0.84144 1.17437
 C480 C 0.33605 0.88688 1.11962
 N481 N 0.37631 0.88196 1.13428
 C482 C 0.40781 0.90856 1.12336
 C483 C 0.39934 0.94296 1.09675
 C484 C 0.35778 0.94917 1.08229
 C485 C 0.32620 0.92111 1.09333
 H486 H 0.20803 0.81903 1.10512
 H487 H 0.27725 0.80626 1.22394
 H488 H 0.43938 0.90272 1.13543
 H489 H 0.34971 0.97554 1.06213
 H490 H 0.26603 0.85982 1.07546
 H491 H 0.29424 0.92680 1.08224
 C492 C 0.72016 1.13451 1.16320
 C493 C 0.75812 1.11666 1.17789
 C494 C 0.78819 1.14184 1.19722
 C495 C 0.78103 1.18518 1.20175
 C496 C 0.74175 1.20141 1.18783
 N497 N 0.71283 1.17607 1.16931
 C498 C 0.68771 1.10915 1.14170
 N499 N 0.64614 1.12038 1.14607
 C500 C 0.61466 1.09828 1.12750
 C501 C 0.62432 1.06274 1.10239
 C502 C 0.66704 1.05120 1.09661
 C503 C 0.69877 1.07421 1.11626
 H504 H 0.81784 1.12762 1.20709
 H505 H 0.73408 1.23422 1.19179
 H506 H 0.58214 1.10851 1.13246
 H507 H 0.67592 1.02414 1.07733
 H508 H 0.76456 1.08354 1.17469
 H509 H 0.73154 1.06499 1.11105
 C510 C 0.68271 0.84374 0.83552
 C511 C 0.71311 0.81882 0.85651
 C512 C 0.74400 0.79735 0.83236
 C513 C 0.74482 0.80032 0.78725
 C514 C 0.71412 0.82578 0.76748
 N515 N 0.68441 0.84665 0.79172
 C516 C 0.65020 0.86831 0.86006
 N517 N 0.63408 0.90423 0.84294
 C518 C 0.60588 0.92928 0.86482
 C519 C 0.59261 0.91875 0.90666
 C520 C 0.60767 0.88119 0.92422
 C521 C 0.63615 0.85588 0.90108
 H522 H 0.76794 0.77928 0.84900
 H523 H 0.71403 0.82923 0.73279
 H524 H 0.59484 0.95791 0.85006
 H525 H 0.59795 0.87162 0.95625
 H526 H 0.71408 0.81687 0.89130
 H527 H 0.64696 0.82698 0.91539
   
