data_POSCAR
  _audit_creation_date              2014-09-24
  _audit_creation_method            'ToBaCCo'
  _symmetry_space_group_name_H-M    'P1'
  _symmetry_Int_Tables_number       1
  _symmetry_cell_setting            triclinic
  loop_
  _symmetry_equiv_pos_as_xyz
 x,y,z
_cell_length_a 25.0260
_cell_length_b 25.2484
_cell_length_c 25.0392
_cell_angle_alpha 91.956700
_cell_angle_beta 90.205500
_cell_angle_gamma 87.998200
loop_
  _atom_site_label
  _atom_site_type_symbol
  _atom_site_fract_x
  _atom_site_fract_y
  _atom_site_fract_z
C1 C 0.00810 0.44870 0.21455
 C2 C 0.05777 0.45631 0.24919
 C3 C 0.05678 0.50146 0.28023
 C4 C 0.00538 0.53640 0.27343
 C5 C -0.03872 0.45392 0.25340
 C6 C -0.04069 0.49913 0.28420
 C7 C 0.00365 0.49953 0.18212
 C8 C 0.00195 0.54568 0.21267
 H9 H 0.09180 0.42853 0.24819
 H10 H 0.00389 0.57289 0.29942
 H11 H -0.06960 0.42490 0.25447
 H12 H 0.00496 0.49955 0.13905
 C13 C 0.01101 0.43546 0.78694
 C14 C -0.03223 0.43267 0.74808
 C15 C -0.03551 0.47585 0.71263
 C16 C 0.00784 0.51303 0.72122
 C17 C 0.05837 0.43740 0.75368
 C18 C 0.05753 0.48019 0.71763
 C19 C 0.00525 0.48769 0.81322
 C20 C 0.00331 0.53142 0.77750
 H21 H -0.06170 0.40231 0.74825
 H22 H 0.00632 0.54374 0.69096
 H23 H 0.09150 0.40908 0.75489
 H24 H 0.00686 0.49231 0.85627
 C25 C 0.22279 0.00927 0.43893
 C26 C 0.25602 0.05862 0.44517
 C27 C 0.28698 0.06078 0.48977
 C28 C 0.28157 0.01247 0.52554
 C29 C 0.26303 -0.03728 0.44323
 C30 C 0.29367 -0.03631 0.48811
 C31 C 0.19051 0.00885 0.49123
 C32 C 0.22104 0.00995 0.53668
 H33 H 0.25398 0.09025 0.41695
 H34 H 0.30734 0.01358 0.56168
 H35 H 0.26380 -0.07078 0.41495
 H36 H 0.14747 0.00867 0.49291
 C37 C 0.76173 0.00986 0.43634
 C38 C 0.73940 -0.04189 0.43831
 C39 C 0.71029 -0.05120 0.48582
 C40 C 0.70756 -0.00485 0.52264
 C41 C 0.71457 0.04921 0.44491
 C42 C 0.68613 0.04195 0.48994
 C43 C 0.79477 0.01618 0.48809
 C44 C 0.76655 0.00778 0.53352
 H45 H 0.74268 -0.07013 0.40484
 H46 H 0.68423 -0.01009 0.55933
 H47 H 0.70972 0.08504 0.42245
 H48 H 0.83579 0.02826 0.48897
 C49 C 0.43212 0.21997 1.00540
 C50 C 0.43357 0.26055 1.04757
 C51 C 0.47872 0.29366 1.04644
 C52 C 0.51482 0.27939 1.00109
 C53 C 0.43597 0.24784 0.95617
 C54 C 0.48157 0.28010 0.95207
 C55 C 0.48330 0.19058 1.01056
 C56 C 0.52993 0.22270 1.00702
 H57 H 0.40800 0.25922 1.08236
 H58 H 0.54840 0.30625 0.99904
 H59 H 0.40475 0.24630 0.92611
 H60 H 0.48596 0.15059 1.02442
 C61 C 0.44789 0.77024 1.00335
 C62 C 0.45508 0.72178 0.96550
 C63 C 0.50196 0.69401 0.97162
 C64 C 0.53772 0.71729 1.01604
 C65 C 0.45549 0.74905 1.05919
 C66 C 0.50231 0.72154 1.06621
 C67 C 0.49496 0.80112 0.99422
 C68 C 0.54507 0.77242 1.00177
 H69 H 0.42889 0.71486 0.93156
 H70 H 0.57423 0.69256 1.02295
 H71 H 0.42632 0.75599 1.09078
 H72 H 0.49288 0.83887 0.97532
 B73 B 0.98935 1.04558 0.02276
 B74 B 0.98914 1.04601 -0.04425
 B75 B 1.04352 1.02290 -0.01163
 B76 B 1.02263 0.99016 0.04134
 B77 B 0.95546 0.99295 0.04123
 B78 B 0.93447 1.02759 -0.01156
 B79 B 0.98847 0.93812 -0.04897
 B80 B 0.98864 0.93752 0.01851
 B81 B 0.93424 0.96075 -0.01437
 B82 B 0.95505 0.99375 -0.06740
 B83 B 1.02251 0.99100 -0.06756
 B84 B 1.04294 0.95635 -0.01443
 B85 B 0.56254 0.50268 0.47536
 B86 B 0.56230 0.50186 0.54246
 B87 B 0.54216 0.55699 0.51161
 B88 B 0.50851 0.53890 0.45615
 B89 B 0.50758 0.47200 0.45248
 B90 B 0.54081 0.44926 0.50647
 B91 B 0.45333 0.50732 0.54235
 B92 B 0.45324 0.50806 0.47483
 B93 B 0.47323 0.45239 0.50629
 B94 B 0.50742 0.47098 0.56191
 B95 B 0.50841 0.53750 0.56475
 B96 B 0.47500 0.56067 0.51140
 C97 C 0.99580 1.33601 0.10742
 C98 C 1.00349 1.29154 0.13890
 C99 C 1.01428 1.29834 0.19335
 C100 C 1.01676 1.34918 0.21647
 C101 C 1.00882 1.39455 0.18562
 C102 C 0.99829 1.38724 0.13054
 C103 C 0.99943 1.23874 0.11606
 C104 C 0.99619 1.19421 0.09769
 C105 C 0.99284 1.14229 0.07561
 C106 C 0.99066 1.09876 0.05468
 H107 H 0.98715 1.33109 0.06515
 H108 H 1.02011 1.26428 0.21818
 H109 H 1.02402 1.35323 0.25907
 H110 H 0.99071 1.42039 0.10520
 C111 C 1.01812 0.69343 0.19233
 C112 C 0.99306 0.70019 0.14277
 C113 C 0.96997 0.65668 0.11668
 C114 C 0.97236 0.60679 0.13957
 C115 C 0.99813 0.59930 0.18906
 C116 C 1.02052 0.64351 0.21535
 C117 C 0.99161 0.75137 0.11818
 C118 C 0.99051 0.79377 0.09689
 C119 C 0.98944 0.84307 0.07115
 C120 C 0.98881 0.88472 0.04857
 H121 H 1.03622 0.72668 0.21303
 H122 H 0.95019 0.66125 0.07847
 H123 H 0.95355 0.57421 0.11856
 H124 H 1.04089 0.63957 0.25321
 C125 C 1.05300 1.31542 -0.13532
 C126 C 1.00288 1.29721 -0.12236
 C127 C 0.95723 1.32965 -0.12872
 C128 C 0.96107 1.37784 -0.15371
 C129 C 1.01030 1.39278 -0.17543
 C130 C 1.05696 1.36348 -0.16048
 C131 C 0.99805 1.24347 -0.10759
 C132 C 0.99467 1.19774 -0.09712
 C133 C 0.99165 1.14440 -0.08438
 C134 C 0.98993 1.09967 -0.07026
 H135 H 1.08888 1.29139 -0.12817
 H136 H 0.91835 1.31655 -0.11694
 H137 H 0.92472 1.40149 -0.15972
 H138 H 1.09669 1.37600 -0.16925
 C139 C 1.00240 0.68062 -0.22053
 C140 C 0.99080 0.69277 -0.16699
 C141 C 0.98178 0.65202 -0.13227
 C142 C 0.98518 0.59919 -0.15065
 C143 C 0.99815 0.58555 -0.20453
 C144 C 1.00582 0.62781 -0.23925
 C145 C 0.98930 0.74686 -0.14699
 C146 C 0.98857 0.79153 -0.12849
 C147 C 0.98819 0.84284 -0.10454
 C148 C 0.98817 0.88561 -0.08182
 H149 H 1.00944 0.71201 -0.24784
 H150 H 0.97221 0.66105 -0.09069
 H151 H 0.97646 0.56976 -0.12201
 H152 H 1.01587 0.62150 -0.28076
 C153 C 1.19947 1.00543 0.28815
 C154 C 1.14438 0.99937 0.28396
 C155 C 1.11349 0.99708 0.33026
 C156 C 1.13765 1.00064 0.38072
 C157 C 1.19330 1.00678 0.38552
 C158 C 1.22368 1.00900 0.33834
 C159 C 1.11979 0.99563 0.23203
 C160 C 1.09953 0.99293 0.18836
 C161 C 1.07538 0.99057 0.13744
 C162 C 1.05353 0.98954 0.09454
 H163 H 1.22381 1.00721 0.25260
 H164 H 1.07071 0.99229 0.32735
 H165 H 1.11230 0.99798 0.41515
 H166 H 1.26657 1.01321 0.34046
 C167 C 1.19889 1.02729 -0.31306
 C168 C 1.15217 0.99923 -0.30632
 C169 C 1.12867 0.97405 -0.35067
 C170 C 1.15123 0.97726 -0.40142
 C171 C 1.19775 1.00601 -0.40891
 C172 C 1.22163 1.03051 -0.36394
 C173 C 1.12748 0.99682 -0.25436
 C174 C 1.10551 0.99470 -0.21158
 C175 C 1.07848 0.99247 -0.16210
 C176 C 1.05452 0.99115 -0.12038
 H177 H 1.21752 1.04702 -0.27909
 H178 H 1.09271 0.95197 -0.34607
 H179 H 1.13240 0.95667 -0.43469
 H180 H 1.25727 1.05300 -0.36805
 C181 C 0.78540 1.02674 0.28801
 C182 C 0.83962 1.01294 0.28343
 C183 C 0.86991 1.00105 0.32872
 C184 C 0.84560 1.00214 0.37881
 C185 C 0.79082 1.01608 0.38411
 C186 C 0.76102 1.02779 0.33781
 C187 C 0.86312 1.00803 0.23165
 C188 C 0.88210 1.00352 0.18787
 C189 C 0.90461 0.99851 0.13691
 C190 C 0.92539 0.99510 0.09395
 H191 H 0.76159 1.03510 0.25285
 H192 H 0.91186 0.98939 0.32510
 H193 H 0.86932 0.98995 0.41269
 H194 H 0.71830 1.03589 0.33970
 C195 C 0.86709 0.99196 -0.35410
 C196 C 0.83547 1.00543 -0.30943
 C197 C 0.78175 1.02078 -0.31593
 C198 C 0.75945 1.02225 -0.36703
 C199 C 0.79073 1.00853 -0.41235
 C200 C 0.84491 0.99344 -0.40527
 C201 C 0.85811 1.00296 -0.25691
 C202 C 0.87772 1.00070 -0.21315
 C203 C 0.90186 0.99803 -0.16257
 C204 C 0.92400 0.99592 -0.12006
 H205 H 0.90874 0.97980 -0.34934
 H206 H 0.75703 1.03139 -0.28150
 H207 H 0.71782 1.03445 -0.37063
 H208 H 0.86991 0.98150 -0.43905
 C209 C 1.33311 1.10914 -0.00624
 C210 C 1.28480 1.13820 0.00048
 C211 C 1.28521 1.19297 0.00924
 C212 C 1.33347 1.21878 0.01146
 C213 C 1.38315 1.19037 0.00606
 C214 C 1.38187 1.13488 -0.00400
 C215 C 1.23430 1.11271 -0.00282
 C216 C 1.19113 1.09304 -0.00536
 C217 C 1.14027 1.07073 -0.00800
 C218 C 1.09718 1.05097 -0.00989
 H219 H 1.33308 1.06666 -0.01404
 H220 H 1.24804 1.21601 0.01369
 H221 H 1.33192 1.26157 0.01679
 H222 H 1.41786 1.11104 -0.01172
 C223 C 0.68094 1.21042 0.00835
 C224 C 0.68946 1.15554 0.00205
 C225 C 0.64543 1.12315 -0.00169
 C226 C 0.59336 1.14519 0.00051
 C227 C 0.58349 1.20072 0.00666
 C228 C 0.62882 1.23281 0.01056
 C229 C 0.74309 1.13207 -0.00107
 C230 C 0.78728 1.11102 -0.00386
 C231 C 0.83833 1.08473 -0.00706
 C232 C 0.88109 1.06085 -0.00946
 H233 H 0.71468 1.23611 0.01150
 H234 H 0.65129 1.08056 -0.00695
 H235 H 0.56134 1.11791 -0.00459
 H236 H 0.62535 1.27528 0.01611
 C237 C 1.29663 0.78613 -0.00467
 C238 C 1.28881 0.84054 -0.01025
 C239 C 1.33248 0.87353 -0.01123
 C240 C 1.38438 0.85191 -0.00703
 C241 C 1.39294 0.79676 -0.00238
 C242 C 1.34818 0.76447 -0.00042
 C243 C 1.23564 0.86246 -0.01312
 C244 C 1.19089 0.88071 -0.01469
 C245 C 1.13908 0.90313 -0.01553
 C246 C 1.09568 0.92453 -0.01548
 H247 H 1.26287 0.76049 -0.00315
 H248 H 1.32638 0.91598 -0.01466
 H249 H 1.41694 0.87884 -0.00642
 H250 H 1.35326 0.72214 0.00462
 C251 C 0.69276 0.78725 -0.01308
 C252 C 0.69591 0.84228 -0.01205
 C253 C 0.64943 0.87424 -0.00759
 C254 C 0.59976 0.85124 -0.00366
 C255 C 0.59552 0.79549 -0.00400
 C256 C 0.64325 0.76398 -0.00909
 C257 C 0.74702 0.86601 -0.01420
 C258 C 0.78978 0.88615 -0.01523
 C259 C 0.83947 0.91029 -0.01564
 C260 C 0.88153 0.93175 -0.01541
 H261 H 0.72869 0.76218 -0.01688
 H262 H 0.65162 0.91706 -0.00632
 H263 H 0.56530 0.87783 0.00177
 H264 H 0.64344 0.72126 -0.01158
 C265 C 0.82853 0.55777 0.33782
 C266 C 0.81208 0.51643 0.36941
 C267 C 0.84762 0.47379 0.37903
 C268 C 0.89780 0.47070 0.35469
 C269 C 0.91342 0.51032 0.32044
 C270 C 0.87918 0.55485 0.31359
 C271 C 0.75788 0.51512 0.38910
 C272 C 0.71281 0.51175 0.40567
 C273 C 0.66055 0.50681 0.42617
 C274 C 0.61674 0.50341 0.44567
 H275 H 0.80144 0.59103 0.33006
 H276 H 0.83561 0.44166 0.40343
 H277 H 0.92344 0.43584 0.36025
 H278 H 0.89003 0.58536 0.28666
 C279 C 0.18345 0.56276 0.33229
 C280 C 0.20370 0.52241 0.36474
 C281 C 0.17221 0.47908 0.37458
 C282 C 0.12228 0.47457 0.35003
 C283 C 0.10279 0.51347 0.31539
 C284 C 0.13309 0.55839 0.30782
 C285 C 0.25781 0.52290 0.38531
 C286 C 0.30298 0.52074 0.40274
 C287 C 0.35541 0.51645 0.42426
 C288 C 0.39926 0.51240 0.44449
 H289 H 0.20742 0.59646 0.32420
 H290 H 0.18720 0.44761 0.39955
 H291 H 0.09982 0.43935 0.35605
 H292 H 0.11950 0.58820 0.28037
 C293 C 0.84651 0.54169 0.64813
 C294 C 0.81654 0.49729 0.63464
 C295 C 0.83916 0.44650 0.63975
 C296 C 0.88982 0.43971 0.66196
 C297 C 0.91901 0.48373 0.67998
 C298 C 0.89791 0.53502 0.67003
 C299 C 0.76150 0.50243 0.61851
 C300 C 0.71517 0.50333 0.60539
 C301 C 0.66142 0.50216 0.58868
 C302 C 0.61655 0.50104 0.57141
 H303 H 0.82937 0.58131 0.64385
 H304 H 0.81681 0.41188 0.62831
 H305 H 0.90561 0.39955 0.66574
 H306 H 0.91858 0.57006 0.68329
 C307 C 0.16634 0.54948 0.64973
 C308 C 0.20181 0.50648 0.63826
 C309 C 0.18611 0.45500 0.64636
 C310 C 0.13689 0.44639 0.66936
 C311 C 0.10214 0.48926 0.68524
 C312 C 0.11630 0.54090 0.67242
 C313 C 0.25557 0.51368 0.62080
 C314 C 0.30137 0.51532 0.60669
 C315 C 0.35476 0.51368 0.58911
 C316 C 0.39939 0.51087 0.57139
 H317 H 0.17808 0.58961 0.64307
 H318 H 0.21272 0.42134 0.63639
 H319 H 0.12648 0.40570 0.67485
 H320 H 0.09119 0.57506 0.68374
 C321 C 0.51302 0.71061 0.21519
 C322 C 0.52865 0.65729 0.21942
 C323 C 0.54141 0.62627 0.17343
 C324 C 0.53604 0.64808 0.12298
 C325 C 0.51723 0.70072 0.11854
 C326 C 0.50737 0.73226 0.16503
 C327 C 0.52641 0.63374 0.27056
 C328 C 0.52217 0.61444 0.31345
 C329 C 0.51602 0.59132 0.36315
 C330 C 0.51136 0.56994 0.40487
 H331 H 0.50312 0.73488 0.25054
 H332 H 0.55336 0.58482 0.17647
 H333 H 0.54357 0.62315 0.08756
 H334 H 0.49349 0.77322 0.16242
 C335 C 0.49319 0.59636 0.85746
 C336 C 0.53163 0.61575 0.82347
 C337 C 0.56788 0.65271 0.84300
 C338 C 0.56261 0.67377 0.89511
 C339 C 0.52076 0.65822 0.92763
 C340 C 0.48773 0.61756 0.90940
 C341 C 0.52870 0.60322 0.76727
 C342 C 0.52374 0.59330 0.72026
 C343 C 0.51673 0.58005 0.66578
 C344 C 0.51149 0.56502 0.62011
 H345 H 0.46492 0.56779 0.84262
 H346 H 0.59761 0.66808 0.81685
 H347 H 0.58753 0.70602 0.90776
 H348 H 0.45474 0.60571 0.93368
 C349 C 0.54980 0.35793 0.16249
 C350 C 0.50591 0.37485 0.19442
 C351 C 0.45443 0.37181 0.17327
 C352 C 0.44626 0.34867 0.12269
 C353 C 0.48943 0.32732 0.09160
 C354 C 0.54170 0.33505 0.11100
 C355 C 0.51181 0.39291 0.24973
 C356 C 0.51273 0.40773 0.29632
 C357 C 0.51110 0.42600 0.35072
 C358 C 0.50905 0.44371 0.39631
 H359 H 0.59007 0.36055 0.17809
 H360 H 0.42011 0.38571 0.19675
 H361 H 0.40546 0.34640 0.10847
 H362 H 0.57613 0.31959 0.08883
 C363 C 0.53304 0.37417 0.85158
 C364 C 0.50899 0.35442 0.80450
 C365 C 0.47913 0.30904 0.80640
 C366 C 0.47163 0.28441 0.85457
 C367 C 0.49349 0.30452 0.90316
 C368 C 0.52588 0.34912 0.90047
 C369 C 0.51266 0.38023 0.75385
 C370 C 0.51264 0.39956 0.71021
 C371 C 0.51062 0.42139 0.65863
 C372 C 0.50860 0.44116 0.61525
 H373 H 0.55650 0.40937 0.85072
 H374 H 0.46108 0.29261 0.77035
 H375 H 0.44948 0.24841 0.85266
 H376 H 0.54354 0.36656 0.93610
 C377 C 0.69522 0.80244 0.47931
 C378 C 0.65321 0.79661 0.51464
 C379 C 0.63060 0.84098 0.54217
 C380 C 0.64969 0.89148 0.53365
 C381 C 0.69126 0.89822 0.49673
 C382 C 0.71411 0.85246 0.47043
 C383 C 0.63187 0.74511 0.51936
 C384 C 0.61436 0.70147 0.52000
 C385 C 0.59306 0.65078 0.51799
 C386 C 0.57279 0.60842 0.51517
 H387 H 0.71319 0.76821 0.45807
 H388 H 0.59752 0.83670 0.56931
 H389 H 0.62974 0.92491 0.55412
 H390 H 0.74785 0.85433 0.44383
 C391 C 0.58964 0.15697 0.48762
 C392 C 0.61463 0.19171 0.52373
 C393 C 0.65547 0.17280 0.55706
 C394 C 0.67455 0.12035 0.55092
 C395 C 0.65288 0.08665 0.51136
 C396 C 0.60878 0.10455 0.48137
 C397 C 0.60361 0.24765 0.52103
 C398 C 0.59489 0.29441 0.51666
 C399 C 0.58278 0.34865 0.51084
 C400 C 0.56832 0.39421 0.50704
 H401 H 0.55811 0.17137 0.46152
 H402 H 0.67530 0.19956 0.58480
 H403 H 0.70993 0.10813 0.57283
 H404 H 0.59253 0.07946 0.44978
 C405 C 0.34518 0.84084 0.55684
 C406 C 0.37432 0.81491 0.51523
 C407 C 0.38276 0.84126 0.46790
 C408 C 0.35978 0.89175 0.46085
 C409 C 0.32799 0.91685 0.50111
 C410 C 0.32231 0.89178 0.54992
 C411 C 0.39274 0.76021 0.51880
 C412 C 0.40828 0.71432 0.51897
 C413 C 0.42763 0.66085 0.51703
 C414 C 0.44623 0.61601 0.51457
 H415 H 0.33835 0.82092 0.59371
 H416 H 0.40533 0.82187 0.43548
 H417 H 0.36470 0.91026 0.42286
 H418 H 0.29738 0.90999 0.58121
 C419 C 0.33703 0.18856 0.55246
 C420 C 0.36665 0.20754 0.51001
 C421 C 0.37538 0.17512 0.46423
 C422 C 0.35246 0.12549 0.45956
 C423 C 0.32051 0.10722 0.50073
 C424 C 0.31421 0.13849 0.54792
 C425 C 0.38581 0.26104 0.51138
 C426 C 0.40218 0.30556 0.51028
 C427 C 0.42274 0.35711 0.50780
 C428 C 0.44255 0.40005 0.50605
 H429 H 0.32995 0.21319 0.58817
 H430 H 0.39831 0.18903 0.43119
 H431 H 0.35774 0.10219 0.42270
 H432 H 0.28902 0.12574 0.57973
   
