data_POSCAR
  _audit_creation_date              2014-09-24
  _audit_creation_method            'ToBaCCo'
  _symmetry_space_group_name_H-M    'P1'
  _symmetry_Int_Tables_number       1
  _symmetry_cell_setting            triclinic
  loop_
  _symmetry_equiv_pos_as_xyz
 x,y,z
_cell_length_a 30.0717
_cell_length_b 30.0051
_cell_length_c 70.6755
_cell_angle_alpha 86.904900
_cell_angle_beta 94.397200
_cell_angle_gamma 118.332800
loop_
  _atom_site_label
  _atom_site_type_symbol
  _atom_site_fract_x
  _atom_site_fract_y
  _atom_site_fract_z
C1 C 0.03155 0.12097 0.51829
 H2 H 0.06507 0.11610 0.51986
 C3 C 0.02902 0.15790 0.52853
 H4 H 0.06053 0.18076 0.53823
 C5 C -0.05035 0.09610 0.50382
 H6 H -0.08073 0.07235 0.49394
 C7 C -0.05453 0.13284 0.51387
 H8 H -0.08837 0.13707 0.51166
 N9 N -0.00775 0.09085 0.50631
 C10 C 0.02191 -0.03709 0.50388
 H11 H 0.03093 -0.03509 0.48922
 C12 C 0.01793 -0.07781 0.51555
 H13 H 0.02437 -0.10688 0.50982
 C14 C -0.00156 -0.00381 0.52869
 H15 H -0.01106 0.02392 0.53358
 C16 C -0.00622 -0.04390 0.54078
 H17 H -0.01782 -0.04571 0.55505
 Zn18 Zn 0.00475 0.04525 0.49314
 N19 N 0.01160 -0.00149 0.51053
 C20 C 0.10831 0.08389 0.48346
 N21 N 0.06415 0.08602 0.48032
 C22 C 0.06045 0.12084 0.46814
 C23 C 0.10194 0.15517 0.45833
 C24 C 0.15115 0.11795 0.47395
 C25 C -0.09528 -0.02468 0.48153
 C26 C -0.13243 -0.06143 0.46964
 C27 C -0.07241 -0.03358 0.44523
 C28 C -0.03686 0.00282 0.45751
 N29 N -0.04838 0.00597 0.47541
 H30 H 0.11059 0.05650 0.49351
 H31 H 0.02490 0.12183 0.46607
 H32 H 0.09758 0.18184 0.44843
 H33 H 0.18630 0.11643 0.47679
 H34 H -0.10305 -0.02247 0.49605
 H35 H -0.16783 -0.08671 0.47579
 H36 H -0.06114 -0.03331 0.43106
 H37 H 0.00083 0.02694 0.45293
 C38 C 0.00245 -0.08216 0.53411
 C39 C -0.01426 0.16450 0.52635
 C40 C -0.12108 -0.06829 0.45123
 C41 C 0.14829 0.15445 0.46127
 C42 C 1.10932 0.00150 0.14806
 H43 H 1.11014 0.03779 0.14887
 C44 C 1.14262 -0.00352 0.13680
 H45 H 1.16837 0.02904 0.12869
 C46 C 1.07395 -0.08496 0.15761
 H47 H 1.04748 -0.11629 0.16598
 C48 C 1.10689 -0.09167 0.14652
 H49 H 1.10559 -0.12835 0.14649
 N50 N 1.07582 -0.03885 0.15812
 C51 C 0.95847 0.00278 0.16685
 H52 H 0.96024 0.00448 0.18216
 C53 C 0.92083 0.00894 0.15598
 H54 H 0.89392 0.01579 0.16299
 C55 C 0.98904 -0.01189 0.13918
 H56 H 1.01455 -0.02159 0.13268
 C57 C 0.95176 -0.00658 0.12783
 H58 H 0.94975 -0.01110 0.11263
 Zn59 Zn 1.03558 -0.02520 0.17365
 N60 N 0.99149 -0.00762 0.15834
 C61 C 1.07855 0.07170 0.19124
 N62 N 1.08105 0.02798 0.18964
 C63 C 1.11854 0.02093 0.19895
 C64 C 1.15517 0.05833 0.21064
 C65 C 1.11429 0.11007 0.20294
 C66 C 0.95399 -0.12126 0.17919
 C67 C 0.91734 -0.16104 0.18951
 C68 C 0.96518 -0.12195 0.21846
 C69 C 1.00048 -0.08253 0.20762
 N70 N 0.99406 -0.08264 0.18835
 H71 H 1.04903 0.07700 0.18344
 H72 H 1.12015 -0.01384 0.19713
 H73 H 1.18514 0.05208 0.21760
 H74 H 1.11112 0.14419 0.20432
 H75 H 0.94944 -0.12000 0.16387
 H76 H 0.88489 -0.19082 0.18205
 H77 H 0.96997 -0.12049 0.23380
 H78 H 1.03189 -0.05102 0.21467
 C79 C 0.91659 0.00318 0.13624
 C80 C 1.14208 -0.05045 0.13602
 C81 C 0.92241 -0.16122 0.20941
 C82 C 1.15332 0.10364 0.21286
 C83 C 0.03571 0.96205 0.85967
 H84 H 0.00345 0.92532 0.85723
 C85 C 0.07641 0.96574 0.87154
 H86 H 0.07378 0.93192 0.87878
 C87 C 0.07897 1.04989 0.85241
 H88 H 0.08058 1.08235 0.84450
 C89 C 0.12087 1.05529 0.86414
 H90 H 0.15410 1.09205 0.86517
 N91 N 0.03722 1.00376 0.85053
 C92 C -0.10540 0.99814 0.84252
 H93 H -0.09608 1.02403 0.83048
 C94 C -0.14517 0.99126 0.85330
 H95 H -0.16588 1.01159 0.84883
 C96 C -0.09159 0.93835 0.86165
 H97 H -0.07050 0.91801 0.86504
 C98 C -0.13145 0.92995 0.87279
 H99 H -0.13855 0.90412 0.88481
 Zn100 Zn -0.01938 0.99135 0.83351
 N101 N -0.07828 0.97315 0.84716
 C102 C -0.07058 0.89333 0.81668
 N103 N -0.02752 0.93843 0.81803
 C104 C 0.01418 0.94730 0.80893
 C105 C 0.01386 0.91002 0.79794
 C106 C -0.07253 0.85471 0.80581
 C107 C 0.00269 1.09334 0.82637
 C108 C 0.00416 1.13410 0.81538
 C109 C -0.01582 1.08368 0.78742
 C110 C -0.01644 1.04408 0.79890
 N111 N -0.00784 1.04928 0.81804
 H112 H -0.10308 0.88708 0.82422
 H113 H 0.04794 0.98351 0.81036
 H114 H 0.04739 0.91828 0.79064
 H115 H -0.10672 0.81866 0.80512
 H116 H 0.00764 1.09602 0.84166
 H117 H 0.01102 1.16830 0.82230
 H118 H -0.02367 1.07854 0.77225
 H119 H -0.02601 1.00847 0.79254
 C120 C -0.15823 0.95781 0.86916
 C121 C 0.12001 1.01271 0.87380
 C122 C -0.00618 1.12911 0.79568
 C123 C -0.02968 0.86275 0.79639
 O124 O 0.53253 -0.06634 0.02176
 O125 O 0.44033 -0.06215 -0.01483
 O126 O 0.52580 -0.06457 -0.01502
 O127 O 0.44516 -0.06735 0.02209
 O128 O 0.48584 0.01610 0.02286
 O129 O 0.56538 0.01894 -0.01483
 O130 O 0.47985 0.02130 -0.01399
 O131 O 0.57268 0.01716 0.02214
 Cu132 Cu 0.48188 -0.07346 0.00346
 Cu133 Cu 0.52996 0.02673 0.00408
 C134 C 0.56866 -0.02521 0.02809
 C135 C 0.44413 -0.01965 -0.02057
 C136 C 0.55948 -0.02242 -0.02126
 C137 C 0.45161 -0.02617 0.02883
 O138 O -0.08228 0.52933 0.64171
 O139 O -0.09250 0.43262 0.67853
 O140 O -0.09237 0.51998 0.67815
 O141 O -0.09075 0.43856 0.64177
 O142 O -0.00755 0.47362 0.64545
 O143 O -0.00909 0.55717 0.68179
 O144 O -0.00921 0.47022 0.68234
 O145 O 0.00092 0.56382 0.64530
 Cu146 Cu -0.09777 0.47656 0.65970
 Cu147 Cu 0.00202 0.51976 0.66412
 C148 C -0.03853 0.56303 0.63720
 C149 C -0.05215 0.43512 0.68670
 C150 C -0.05134 0.55278 0.68611
 C151 C -0.04922 0.44175 0.63739
 O152 O 0.54000 0.57653 0.31182
 O153 O 0.45070 0.49896 0.34808
 O154 O 0.53246 0.58593 0.34776
 O155 O 0.45470 0.49277 0.31170
 O156 O 0.49697 0.45014 0.31859
 O157 O 0.57797 0.54632 0.35394
 O158 O 0.49564 0.45901 0.35479
 O159 O 0.58278 0.53426 0.31824
 Cu160 Cu 0.49011 0.54267 0.32918
 Cu161 Cu 0.54274 0.49335 0.33704
 C162 C 0.57685 0.56854 0.30890
 C163 C 0.45798 0.46552 0.35760
 C164 C 0.56878 0.58255 0.35687
 C165 C 0.46186 0.45522 0.30911
 C166 C 0.02642 0.25129 0.54007
 C167 C 0.02576 0.28698 0.55176
 C168 C -0.01802 0.27643 0.56078
 C169 C -0.06197 0.23003 0.55755
 C170 C -0.06135 0.19414 0.54586
 C171 C -0.01683 0.20405 0.53727
 N172 N -0.01609 0.31251 0.57372
 N173 N -0.05477 0.30622 0.58203
 C174 C -0.05228 0.34146 0.59549
 C175 C -0.09713 0.33451 0.60273
 C176 C -0.09609 0.36736 0.61622
 C177 C -0.04988 0.40766 0.62287
 C178 C -0.00477 0.41462 0.61558
 C179 C -0.00594 0.38189 0.60193
 H180 H 0.06102 0.26046 0.53337
 H181 H 0.05976 0.32267 0.55406
 H182 H -0.09632 0.22101 0.56439
 H183 H -0.09511 0.15800 0.54410
 H184 H -0.13302 0.30340 0.59793
 H185 H -0.13152 0.36084 0.62158
 H186 H 0.03137 0.44533 0.62039
 H187 H 0.02931 0.38788 0.59660
 C188 C 0.89371 0.77635 0.23662
 C189 C 0.85562 0.74223 0.24806
 C190 C 0.80532 0.73175 0.24407
 C191 C 0.79311 0.75457 0.22807
 C192 C 0.83107 0.78814 0.21645
 C193 C 0.88183 0.79989 0.22077
 N194 N 0.76779 0.69883 0.25673
 N195 N 0.72316 0.69372 0.25580
 C196 C 0.68624 0.66100 0.26872
 C197 C 0.64048 0.66255 0.26900
 C198 C 0.60461 0.63242 0.28199
 C199 C 0.61382 0.59974 0.29476
 C200 C 0.65944 0.59764 0.29418
 C201 C 0.69540 0.62812 0.28136
 H202 H 0.93250 0.78460 0.24018
 H203 H 0.86545 0.72474 0.26032
 H204 H 0.75444 0.74688 0.22467
 H205 H 0.82102 0.80618 0.20442
 H206 H 0.63296 0.68772 0.25932
 H207 H 0.56978 0.63476 0.28205
 H208 H 0.66776 0.57295 0.30384
 H209 H 0.73039 0.62607 0.28138
 C210 C 0.19342 0.05850 -0.10257
 C211 C 0.23368 0.06045 -0.09065
 C212 C 0.24546 0.02049 -0.09002
 C213 C 0.21734 -0.02101 -0.10187
 C214 C 0.17745 -0.02285 -0.11387
 C215 C 0.16442 0.01647 -0.11416
 N216 N 0.28517 0.02220 -0.07699
 N217 N 0.29322 -0.01573 -0.07430
 C218 C 0.33223 -0.01526 -0.06121
 C219 C 0.33470 -0.06034 -0.05754
 C220 C 0.37120 -0.06181 -0.04442
 C221 C 0.40631 -0.01785 -0.03485
 C222 C 0.40428 0.02764 -0.03881
 C223 C 0.36741 0.02891 -0.05182
 H224 H 0.18420 0.08923 -0.10235
 H225 H 0.25509 0.09268 -0.08158
 H226 H 0.22602 -0.05214 -0.10182
 H227 H 0.15678 -0.05517 -0.12294
 H228 H 0.30780 -0.09461 -0.06472
 H229 H 0.37186 -0.09737 -0.04174
 H230 H 0.43074 0.06212 -0.03165
 H231 H 0.36631 0.06426 -0.05447
 C232 C -0.05161 0.84871 0.55641
 C233 C -0.06173 0.80558 0.56765
 C234 C -0.02818 0.78540 0.56891
 C235 C 0.01566 0.80858 0.55855
 C236 C 0.02563 0.85154 0.54716
 C237 C -0.00773 0.87226 0.54610
 N238 N -0.03900 0.74210 0.58106
 N239 N -0.00788 0.72467 0.58416
 C240 C -0.01786 0.68208 0.59659
 C241 C 0.02114 0.66998 0.60135
 C242 C 0.01401 0.63073 0.61431
 C243 C -0.03270 0.60232 0.62260
 C244 C -0.07248 0.61341 0.61735
 C245 C -0.06504 0.65326 0.60452
 H246 H -0.07844 0.86333 0.55561
 H247 H -0.09565 0.78802 0.57552
 H248 H 0.04220 0.79364 0.55930
 H249 H 0.05976 0.86902 0.53941
 H250 H 0.05758 0.69182 0.59530
 H251 H 0.04529 0.62288 0.61797
 H252 H -0.10881 0.59221 0.62353
 H253 H -0.09585 0.66184 0.60097
 C254 C 0.21183 0.13102 0.24220
 C255 C 0.24934 0.16865 0.25364
 C256 C 0.26763 0.21978 0.24859
 C257 C 0.24800 0.23303 0.23182
 C258 C 0.21077 0.19540 0.22025
 C259 C 0.19222 0.14387 0.22529
 N260 N 0.30576 0.25733 0.26076
 N261 N 0.32002 0.30436 0.25813
 C262 C 0.35784 0.34196 0.27036
 C263 C 0.36471 0.39144 0.26883
 C264 C 0.39918 0.42847 0.28123
 C265 C 0.42809 0.41676 0.29522
 C266 C 0.42242 0.36744 0.29633
 C267 C 0.38727 0.33016 0.28409
 H268 H 0.19785 0.09183 0.24671
 H269 H 0.26395 0.15798 0.26659
 H270 H 0.26172 0.27236 0.22757
 H271 H 0.19718 0.20668 0.20720
 H272 H 0.34239 0.40101 0.25827
 H273 H 0.40292 0.46622 0.27997
 H274 H 0.44408 0.35732 0.30701
 H275 H 0.38281 0.29217 0.28545
 C276 C 0.77763 -0.09022 -0.10738
 C277 C 0.74225 -0.09300 -0.09498
 C278 C 0.73286 -0.05206 -0.09334
 C279 C 0.75851 -0.00842 -0.10458
 C280 C 0.79348 -0.00561 -0.11712
 C281 C 0.80430 -0.04628 -0.11869
 N282 N 0.69793 -0.05526 -0.07995
 N283 N 0.69199 -0.01730 -0.07645
 C284 C 0.65756 -0.01979 -0.06300
 C285 C 0.65726 0.02485 -0.05841
 C286 C 0.62522 0.02410 -0.04492
 C287 C 0.59249 -0.02163 -0.03592
 C288 C 0.59230 -0.06658 -0.04079
 C289 C 0.62469 -0.06567 -0.05415
 H290 H 0.78262 -0.12339 -0.10837
 H291 H 0.72233 -0.12711 -0.08649
 H292 H 0.75206 0.02390 -0.10352
 H293 H 0.81371 0.02985 -0.12477
 H294 H 0.68238 0.06043 -0.06516
 H295 H 0.62617 0.05932 -0.04153
 H296 H 0.56761 -0.10240 -0.03408
 H297 H 0.62414 -0.10071 -0.05751
 C298 C 0.16333 -0.09934 0.11370
 C299 C 0.19696 -0.10249 0.10186
 C300 C 0.24590 -0.06217 0.10042
 C301 C 0.26149 -0.01909 0.11142
 C302 C 0.22813 -0.01601 0.12331
 C303 C 0.17835 -0.05569 0.12436
 N304 N 0.27851 -0.06499 0.08730
 N305 N 0.32108 -0.02715 0.08397
 C306 C 0.35396 -0.02851 0.07066
 C307 C 0.39754 0.01631 0.06649
 C308 C 0.42953 0.01705 0.05301
 C309 C 0.41862 -0.02736 0.04356
 C310 C 0.37526 -0.07261 0.04804
 C311 C 0.34305 -0.07317 0.06143
 H312 H 0.12519 -0.13039 0.11407
 H313 H 0.18448 -0.13592 0.09346
 H314 H 0.29930 0.01241 0.11072
 H315 H 0.24131 0.01764 0.13165
 H316 H 0.40633 0.05095 0.07354
 H317 H 0.46269 0.05246 0.04994
 H318 H 0.36578 -0.10742 0.04099
 H319 H 0.30958 -0.10831 0.06445
 C320 C 0.86236 0.87424 0.42546
 C321 C 0.82888 0.83252 0.41471
 C322 C 0.77740 0.80774 0.41778
 C323 C 0.75935 0.82508 0.43187
 C324 C 0.79278 0.86636 0.44295
 C325 C 0.84544 0.89222 0.44007
 N326 N 0.74457 0.76498 0.40645
 N327 N 0.69660 0.74516 0.40622
 C328 C 0.66453 0.70238 0.39476
 C329 C 0.61388 0.69060 0.39093
 C330 C 0.58249 0.65111 0.37881
 C331 C 0.60108 0.62195 0.37067
 C332 C 0.65142 0.63254 0.37511
 C333 C 0.68309 0.67277 0.38692
 H334 H 0.90193 0.88968 0.42283
 H335 H 0.84330 0.81915 0.40397
 H336 H 0.71940 0.80661 0.43439
 H337 H 0.77618 0.87876 0.45314
 H338 H 0.59910 0.71300 0.39694
 H339 H 0.54373 0.64356 0.37571
 H340 H 0.66673 0.61077 0.36897
 H341 H 0.72207 0.68095 0.38982
 C342 C 0.02734 0.22082 0.78636
 C343 C 0.02407 0.25921 0.77520
 C344 C -0.01617 0.24762 0.76166
 C345 C -0.05325 0.19694 0.75930
 C346 C -0.04973 0.15848 0.77029
 C347 C -0.00938 0.17003 0.78392
 N348 N -0.01759 0.28772 0.75013
 N349 N -0.05528 0.28096 0.73886
 C350 C -0.05511 0.32106 0.72683
 C351 C -0.09884 0.31264 0.71566
 C352 C -0.09868 0.35022 0.70297
 C353 C -0.05442 0.39665 0.70115
 C354 C -0.01094 0.40527 0.71267
 C355 C -0.01130 0.36797 0.72543
 H356 H 0.05894 0.23071 0.79668
 H357 H 0.05302 0.29812 0.77707
 H358 H -0.08461 0.18703 0.74887
 H359 H -0.07890 0.11970 0.76830
 H360 H -0.13284 0.27660 0.71659
 H361 H -0.13268 0.34244 0.69424
 H362 H 0.02371 0.44072 0.71167
 H363 H 0.02302 0.37546 0.73388
 C364 C 0.86037 0.04230 0.12670
 C365 C 0.82026 0.04291 0.11544
 C366 C 0.79271 0.00503 0.10216
 C367 C 0.80592 -0.03347 0.10015
 C368 C 0.84632 -0.03374 0.11119
 C369 C 0.87399 0.00414 0.12456
 N370 N 0.75229 0.00686 0.09060
 N371 N 0.72206 -0.02992 0.08017
 C372 C 0.68258 -0.02829 0.06796
 C373 C 0.64759 -0.07229 0.05860
 C374 C 0.60982 -0.07165 0.04595
 C375 C 0.60686 -0.02658 0.04227
 C376 C 0.64181 0.01751 0.05183
 C377 C 0.67923 0.01664 0.06464
 H378 H 0.88126 0.07201 0.13686
 H379 H 0.81056 0.07288 0.11708
 H380 H 0.78535 -0.06309 0.08995
 H381 H 0.85562 -0.06394 0.10943
 H382 H 0.64990 -0.10711 0.06101
 H383 H 0.58361 -0.10617 0.03876
 H384 H 0.64044 0.05278 0.04933
 H385 H 0.70601 0.05120 0.07167
 C386 C 0.22639 0.17744 0.44373
 C387 C 0.26591 0.21181 0.43284
 C388 C 0.27240 0.26073 0.42896
 C389 C 0.24004 0.27568 0.43671
 C390 C 0.20089 0.24161 0.44771
 C391 C 0.19287 0.19172 0.45102
 N392 N 0.31082 0.29389 0.41664
 N393 N 0.31390 0.33595 0.41058
 C394 C 0.35147 0.36893 0.39794
 C395 C 0.34883 0.41153 0.39011
 C396 C 0.38361 0.44332 0.37709
 C397 C 0.42201 0.43315 0.37184
 C398 C 0.42512 0.39084 0.38003
 C399 C 0.39006 0.35889 0.39290
 H400 H 0.22109 0.13928 0.44590
 H401 H 0.29068 0.19987 0.42696
 H402 H 0.24465 0.31348 0.43412
 H403 H 0.17658 0.25426 0.45349
 H404 H 0.31923 0.41965 0.39390
 H405 H 0.38030 0.47565 0.37108
 H406 H 0.45418 0.38190 0.37627
 H407 H 0.39295 0.32625 0.39880
 C408 C 0.01365 0.81604 0.78518
 C409 C 0.01484 0.78024 0.77368
 C410 C -0.02732 0.74993 0.76191
 C411 C -0.07135 0.75521 0.76198
 C412 C -0.07255 0.79118 0.77343
 C413 C -0.02982 0.82244 0.78501
 N414 N -0.02388 0.71529 0.74966
 N415 N -0.06141 0.68522 0.73914
 C416 C -0.05785 0.65154 0.72646
 C417 C -0.10165 0.61747 0.71631
 C418 C -0.09954 0.58502 0.70339
 C419 C -0.05326 0.58633 0.70029
 C420 C -0.00923 0.62045 0.71059
 C421 C -0.01150 0.65275 0.72362
 H422 H 0.04687 0.83880 0.79420
 H423 H 0.04889 0.77638 0.77382
 H424 H -0.10444 0.73224 0.75295
 H425 H -0.10640 0.79548 0.77284
 H426 H -0.13753 0.61627 0.71834
 H427 H -0.13415 0.55930 0.69567
 H428 H 0.02694 0.62234 0.70853
 H429 H 0.02296 0.67895 0.73129
   
