data_POSCAR
  _audit_creation_date              2014-09-24
  _audit_creation_method            'ToBaCCo'
  _symmetry_space_group_name_H-M    'P1'
  _symmetry_Int_Tables_number       1
  _symmetry_cell_setting            triclinic
  loop_
  _symmetry_equiv_pos_as_xyz
 x,y,z
_cell_length_a 25.0091
_cell_length_b 19.6680
_cell_length_c 19.7106
_cell_angle_alpha 89.847000
_cell_angle_beta 90.119800
_cell_angle_gamma 89.884500
loop_
  _atom_site_label
  _atom_site_type_symbol
  _atom_site_fract_x
  _atom_site_fract_y
  _atom_site_fract_z
O1 O 0.07564 0.11530 0.12589
 O2 O 0.13436 0.05434 0.06038
 C3 C 0.12364 0.09757 0.10797
 O4 O -0.07484 -0.12630 0.11660
 O5 O -0.13341 -0.05995 0.05561
 C6 C -0.12281 -0.10789 0.09881
 O7 O 0.07547 -0.12040 0.12388
 O8 O 0.13427 -0.05862 0.05945
 C9 C 0.12368 -0.10288 0.10643
 O10 O -0.07463 0.12261 0.11890
 O11 O -0.13332 0.05812 0.05678
 C12 C -0.12265 0.10501 0.10083
 Zr13 Zr 0.00051 0.08416 0.08701
 O14 O -0.00570 0.08271 0.19411
 O15 O 0.00673 0.19149 0.08782
 Zr16 Zr 0.00038 -0.08778 0.08551
 O17 O -0.00585 -0.08873 0.19262
 O18 O 0.00642 -0.19516 0.08454
 O19 O 0.04809 -0.00216 0.09975
 O20 O -0.04601 -0.00177 0.09848
 O21 O -0.07441 0.12522 -0.11631
 O22 O -0.13321 0.05935 -0.05578
 C23 C -0.12244 0.10720 -0.09890
 O24 O 0.07564 -0.11751 -0.12442
 O25 O 0.13437 -0.05709 -0.05839
 C26 C 0.12365 -0.10016 -0.10613
 O27 O -0.07466 -0.12367 -0.11860
 O28 O -0.13333 -0.05871 -0.05694
 C29 C -0.12268 -0.10568 -0.10092
 O30 O 0.07587 0.11815 -0.12243
 O31 O 0.13449 0.05580 -0.05744
 C32 C 0.12387 0.10005 -0.10446
 Zr33 Zr 0.00068 0.08610 -0.08460
 O34 O -0.00537 0.08712 -0.19175
 O35 O 0.00692 0.19343 -0.08350
 Zr36 Zr 0.00049 -0.08586 -0.08608
 O37 O -0.00554 -0.08450 -0.19323
 O38 O 0.00654 -0.19324 -0.08672
 Zr39 Zr 0.07996 -0.00117 0.00079
 Zr40 Zr -0.07891 -0.00052 0.00014
 O41 O -0.04584 0.00046 -0.09794
 O42 O 0.04825 0.00007 -0.09843
 O43 O -0.04703 0.09865 0.00112
 O44 O 0.04687 -0.09945 -0.00021
 O45 O 0.04705 0.09737 0.00150
 O46 O -0.04721 -0.09995 -0.00058
 H47 H -0.07037 -0.00213 0.13806
 H48 H 0.07116 -0.13931 -0.00044
 H49 H -0.07013 0.00101 -0.13771
 H50 H 0.07139 0.13705 0.00193
 H51 H -0.02335 -0.21258 0.05648
 H52 H -0.02344 -0.21127 -0.05947
 H53 H 0.02431 -0.05662 -0.21068
 H54 H 0.02452 0.05956 -0.20968
 H55 H -0.02293 0.21109 -0.05579
 H56 H -0.02307 0.20977 0.06015
 H57 H 0.02417 0.05475 0.21178
 H58 H 0.02411 -0.06149 0.21078
 O59 O 0.57493 0.61942 0.62197
 O60 O 0.63360 0.55739 0.55741
 C61 C 0.62295 0.60149 0.60424
 O62 O 0.42491 0.37713 0.61828
 O63 O 0.36600 0.44180 0.55601
 C64 C 0.37683 0.39487 0.60029
 O65 O 0.57526 0.38392 0.62485
 O66 O 0.63377 0.44469 0.55880
 C67 C 0.62321 0.40152 0.60668
 O68 O 0.42477 0.62571 0.61575
 O69 O 0.36609 0.55903 0.55606
 C70 C 0.37678 0.60706 0.59882
 Zr71 Zr 0.49978 0.58724 0.58383
 O72 O 0.49395 0.58856 0.69096
 O73 O 0.50570 0.69460 0.58169
 Zr74 Zr 0.50000 0.41519 0.58597
 O75 O 0.49403 0.41601 0.69309
 O76 O 0.50635 0.30783 0.58677
 O77 O 0.54751 0.50134 0.59824
 O78 O 0.45353 0.50131 0.59726
 O79 O 0.42414 0.62373 0.37991
 O80 O 0.36566 0.55902 0.44215
 C81 C 0.37618 0.60597 0.39791
 O82 O 0.57493 0.38134 0.37638
 O83 O 0.63360 0.44341 0.44093
 C84 C 0.62294 0.39929 0.39411
 O85 O 0.42468 0.37484 0.38311
 O86 O 0.36590 0.44094 0.44340
 C87 C 0.37665 0.39307 0.40048
 O88 O 0.57451 0.61693 0.37352
 O89 O 0.63338 0.55611 0.43960
 C90 C 0.62256 0.59929 0.39174
 Zr91 Zr 0.49942 0.58558 0.41229
 O92 O 0.49314 0.58452 0.30517
 O93 O 0.50541 0.69294 0.41132
 Zr94 Zr 0.49981 0.41346 0.41457
 O95 O 0.49356 0.41205 0.30745
 O96 O 0.50615 0.30611 0.41660
 Zr97 Zr 0.57916 0.50040 0.49918
 Zr98 Zr 0.42027 0.50042 0.49908
 O99 O 0.45320 0.49939 0.40093
 O100 O 0.54718 0.49941 0.40011
 O101 O 0.45185 0.59974 0.49792
 O102 O 0.54642 0.40194 0.50044
 O103 O 0.54605 0.59883 0.49791
 O104 O 0.45222 0.40108 0.50039
 H105 H 0.42945 0.50152 0.63711
 H106 H 0.57085 0.36221 0.50093
 H107 H 0.42884 0.49902 0.36123
 H108 H 0.57034 0.63856 0.49743
 H109 H 0.47619 0.28974 0.55983
 H110 H 0.47596 0.28857 0.44378
 H111 H 0.52288 0.44035 0.28925
 H112 H 0.52291 0.55645 0.28770
 H113 H 0.47550 0.71102 0.43866
 H114 H 0.47519 0.71210 0.55478
 H115 H 0.52351 0.56038 0.70912
 H116 H 0.52359 0.44434 0.71061
 C117 C 0.16934 0.12871 0.14303
 C118 C 0.16276 0.17725 0.19376
 C119 C 0.20845 0.21002 0.22733
 N120 N 0.19980 0.25838 0.27503
 N121 N 0.24076 0.28914 0.30537
 C122 C 0.29190 0.27261 0.28911
 N123 N 0.30055 0.22412 0.24154
 N124 N 0.25960 0.19339 0.21117
 C125 C 0.33759 0.30655 0.32152
 C126 C 0.33098 0.35797 0.36934
 H127 H 0.12290 0.19255 0.20887
 H128 H 0.37746 0.29105 0.30664
 H129 H 0.20921 0.11358 0.12779
 H130 H 0.29111 0.37356 0.38408
 C131 C 0.83136 0.85725 0.12975
 C132 C 0.83765 0.80597 0.17807
 C133 C 0.79171 0.77254 0.21036
 N134 N 0.79999 0.72422 0.25849
 N135 N 0.75880 0.69399 0.28879
 C136 C 0.70777 0.71098 0.27201
 N137 N 0.69949 0.75918 0.22375
 N138 N 0.74068 0.78943 0.19348
 C139 C 0.66186 0.67870 0.30552
 C140 C 0.66826 0.63035 0.35674
 H141 H 0.87741 0.79027 0.19347
 H142 H 0.62206 0.69410 0.28995
 H143 H 0.79157 0.87303 0.11452
 H144 H 0.70809 0.61516 0.37238
 C145 C 0.83186 0.14243 0.86980
 C146 C 0.83830 0.19364 0.82151
 C147 C 0.79244 0.22742 0.78892
 N148 N 0.80080 0.27563 0.74078
 N149 N 0.75965 0.30615 0.71023
 C150 C 0.70861 0.28958 0.72678
 N151 N 0.70025 0.24150 0.77504
 N152 N 0.74139 0.21096 0.80555
 C153 C 0.66272 0.32213 0.69304
 C154 C 0.66904 0.37040 0.64179
 H155 H 0.87811 0.20899 0.80635
 H156 H 0.62294 0.30695 0.70849
 H157 H 0.79202 0.12700 0.88476
 H158 H 0.70884 0.38541 0.62624
 C159 C 0.16934 0.86855 0.85898
 C160 C 0.16276 0.82039 0.80789
 C161 C 0.20846 0.78795 0.77403
 N162 N 0.19983 0.73997 0.72594
 N163 N 0.24080 0.70964 0.69521
 C164 C 0.29193 0.72624 0.71144
 N165 N 0.30056 0.77434 0.75941
 N166 N 0.25959 0.80464 0.79017
 C167 C 0.33764 0.69281 0.67855
 C168 C 0.33107 0.64168 0.63042
 H169 H 0.12290 0.80528 0.79257
 H170 H 0.37749 0.70845 0.69333
 H171 H 0.20921 0.88346 0.87445
 H172 H 0.29121 0.62588 0.61585
 C173 C 0.16965 0.13189 0.86114
 C174 C 0.16316 0.18085 0.81042
 C175 C 0.20884 0.21373 0.77676
 N176 N 0.20006 0.26177 0.72845
 N177 N 0.24092 0.29241 0.69779
 C178 C 0.29213 0.27609 0.71431
 N179 N 0.30091 0.22797 0.76255
 N180 N 0.26004 0.19735 0.79323
 C181 C 0.33779 0.30975 0.68135
 C182 C 0.33118 0.36030 0.63224
 H183 H 0.12329 0.19614 0.79504
 H184 H 0.37768 0.29456 0.69671
 H185 H 0.20952 0.11663 0.87657
 H186 H 0.29127 0.37554 0.61696
 C187 C 0.83151 0.86008 0.86712
 C188 C 0.83784 0.80959 0.81821
 C189 C 0.79198 0.77630 0.78529
 N190 N 0.80045 0.72825 0.73720
 N191 N 0.75939 0.69797 0.70656
 C192 C 0.70828 0.71462 0.72291
 N193 N 0.69981 0.76260 0.77107
 N194 N 0.74087 0.79290 0.80169
 C195 C 0.66242 0.68206 0.68927
 C196 C 0.66876 0.63324 0.63870
 H197 H 0.87765 0.79417 0.80299
 H198 H 0.62261 0.69743 0.70452
 H199 H 0.79169 0.87553 0.88222
 H200 H 0.70858 0.61797 0.62342
 C201 C 0.16541 0.86787 0.13798
 C202 C 0.15971 0.81896 0.18919
 C203 C 0.20595 0.78639 0.22245
 N204 N 0.19791 0.73847 0.27100
 N205 N 0.23922 0.70806 0.30132
 C206 C 0.29018 0.72447 0.28422
 N207 N 0.29824 0.77247 0.23574
 N208 N 0.25692 0.80288 0.20540
 C209 C 0.33629 0.69099 0.31685
 C210 C 0.33024 0.64048 0.36606
 H211 H 0.12024 0.80324 0.20546
 H212 H 0.37601 0.70623 0.30121
 H213 H 0.20538 0.88270 0.12277
 H214 H 0.29050 0.62520 0.38155
 C215 C 0.83154 0.13962 0.13243
 C216 C 0.83788 0.19015 0.18130
 C217 C 0.79201 0.22372 0.21391
 N218 N 0.80047 0.27183 0.26194
 N219 N 0.75940 0.30234 0.29233
 C220 C 0.70830 0.28586 0.27578
 N221 N 0.69983 0.23783 0.22768
 N222 N 0.74090 0.20731 0.19730
 C223 C 0.66243 0.31862 0.30921
 C224 C 0.66876 0.36751 0.35971
 H225 H 0.87768 0.20535 0.19673
 H226 H 0.62262 0.30330 0.29388
 H227 H 0.79172 0.12440 0.11708
 H228 H 0.70858 0.38276 0.37504
   
