data_POSCAR
  _audit_creation_date              2014-09-24
  _audit_creation_method            'ToBaCCo'
  _symmetry_space_group_name_H-M    'P1'
  _symmetry_Int_Tables_number       1
  _symmetry_cell_setting            triclinic
  loop_
  _symmetry_equiv_pos_as_xyz
 x,y,z
_cell_length_a 29.2333
_cell_length_b 29.1869
_cell_length_c 29.1072
_cell_angle_alpha 90.104000
_cell_angle_beta 89.988300
_cell_angle_gamma 90.220300
loop_
  _atom_site_label
  _atom_site_type_symbol
  _atom_site_fract_x
  _atom_site_fract_y
  _atom_site_fract_z
O1 O 0.56352 0.11703 0.00380
 O2 O 0.61421 0.05720 0.00428
 C3 C 0.60482 0.10039 0.00422
 O4 O 0.43144 -0.00301 0.11195
 O5 O 0.38293 -0.00316 0.05003
 C6 C 0.39076 -0.00379 0.09387
 O7 O 0.55878 0.00623 0.11736
 O8 O 0.61290 0.00326 0.06068
 C9 C 0.60108 0.00599 0.10384
 O10 O 0.43434 0.11427 -0.00517
 O11 O 0.38469 0.05319 -0.00452
 C12 C 0.39331 0.09680 -0.00602
 Zr13 Zr 0.49920 0.08208 0.00013
 O14 O 0.49192 0.13184 0.05267
 O15 O 0.50420 0.13440 -0.04992
 Zr16 Zr 0.49709 0.00012 0.08108
 O17 O 0.48916 0.04917 0.13406
 O18 O 0.50142 -0.05245 0.13097
 O19 O 0.53891 0.04826 0.04858
 O20 O 0.45796 0.04620 0.04503
 O21 O 0.44129 0.00696 -0.11796
 O22 O 0.38786 0.00031 -0.06079
 C23 C 0.39937 0.00530 -0.10356
 O24 O 0.56659 -0.11365 -0.00149
 O25 O 0.61602 -0.05271 0.00253
 C26 C 0.60751 -0.09622 0.00010
 O27 O 0.43923 -0.11639 0.00267
 O28 O 0.38671 -0.05848 -0.00231
 C29 C 0.39751 -0.10148 0.00159
 O30 O 0.56748 0.00253 -0.11385
 O31 O 0.61718 0.00278 -0.05278
 C32 C 0.60827 0.00363 -0.09657
 Zr33 Zr 0.50307 -0.00015 -0.08192
 O34 O 0.50046 -0.05584 -0.12869
 O35 O 0.50699 0.04517 -0.13832
 Zr36 Zr 0.50200 -0.08121 -0.00083
 O37 O 0.49892 -0.13078 -0.05398
 O38 O 0.50672 -0.13391 0.04875
 Zr39 Zr 0.56912 0.00172 0.00206
 Zr40 Zr 0.43173 -0.00120 -0.00301
 O41 O 0.46234 -0.04754 -0.04890
 O42 O 0.54422 -0.04604 -0.04646
 O43 O 0.46071 0.04676 -0.04884
 O44 O 0.53941 -0.04565 0.04774
 O45 O 0.54074 0.04786 -0.04560
 O46 O 0.45861 -0.04787 0.04512
 H47 H 0.43661 0.06491 0.06361
 H48 H 0.55963 -0.06423 0.06762
 H49 H 0.44187 -0.06649 -0.06839
 H50 H 0.56095 0.06795 -0.06411
 H51 H 0.47338 -0.07141 0.12862
 H52 H 0.48521 -0.12622 0.07378
 H53 H 0.52642 -0.12677 -0.07340
 H54 H 0.53133 -0.06957 -0.13015
 H55 H 0.50619 0.07649 -0.12547
 H56 H 0.48032 0.12839 -0.07328
 H57 H 0.51952 0.13050 0.07228
 H58 H 0.50978 0.07510 0.12686
 O59 O 0.00488 0.43646 -0.11663
 O60 O 0.00567 0.38485 -0.05725
 C61 C 0.00745 0.39507 -0.10066
 O62 O 0.10861 0.57276 -0.00058
 O63 O 0.04536 0.61897 -0.00163
 C64 C 0.08926 0.61276 -0.00037
 O65 O 0.11835 0.44523 -0.00837
 O66 O 0.06310 0.38939 -0.00491
 C67 C 0.10548 0.40264 -0.00831
 O68 O -0.01202 0.56368 -0.11599
 O69 O -0.01207 0.61411 -0.05572
 C70 C -0.01397 0.60511 -0.09933
 Zr71 Zr -0.00394 0.49967 -0.08264
 O72 O 0.04196 0.50792 -0.13824
 O73 O -0.06010 0.49270 -0.12782
 Zr74 Zr 0.08008 0.50609 -0.00317
 O75 O 0.12964 0.51562 -0.05538
 O76 O 0.13249 0.50449 0.04701
 O77 O 0.04734 0.46265 -0.04971
 O78 O 0.04113 0.54295 -0.04916
 O79 O -0.12041 0.55426 -0.00016
 O80 O -0.06499 0.60990 0.00073
 C81 C -0.10748 0.59676 -0.00023
 O82 O 0.00383 0.43548 0.11469
 O83 O 0.00821 0.38512 0.05428
 C84 C 0.00640 0.39424 0.09784
 O85 O 0.00153 0.56521 0.11459
 O86 O -0.00677 0.61453 0.05391
 C87 C -0.00268 0.60611 0.09730
 O88 O -0.11076 0.42858 0.01134
 O89 O -0.04883 0.38100 0.00414
 C90 C -0.09219 0.38842 0.01085
 Zr91 Zr -0.08196 0.49359 0.00124
 O92 O -0.13545 0.49506 0.05009
 O93 O -0.13104 0.48358 -0.05141
 Zr94 Zr 0.00165 0.50011 0.08118
 O95 O -0.04785 0.50180 0.13429
 O96 O 0.05484 0.49868 0.13051
 Zr97 Zr 0.00401 0.43107 -0.00107
 Zr98 Zr -0.00605 0.56805 -0.00083
 O99 O -0.04900 0.53604 0.04754
 O100 O -0.04331 0.45585 0.04781
 O101 O -0.05247 0.53723 -0.04681
 O102 O 0.04985 0.46346 0.04456
 O103 O -0.04618 0.45560 -0.04646
 O104 O 0.04442 0.54449 0.04517
 H105 H 0.05813 0.56486 -0.06882
 H106 H 0.07095 0.44422 0.06283
 H107 H -0.06896 0.55509 0.06731
 H108 H -0.06418 0.43284 -0.06426
 H109 H 0.12726 0.53029 0.06842
 H110 H 0.07398 0.52629 0.12575
 H111 H -0.06671 0.47370 0.13167
 H112 H -0.12251 0.48369 0.07925
 H113 H -0.12922 0.51028 -0.07227
 H114 H -0.04720 0.49412 -0.15927
 H115 H 0.06969 0.49015 -0.13079
 H116 H 0.12597 0.49035 -0.07776
 O117 O -0.11817 -0.01662 0.55956
 O118 O -0.05987 -0.01706 0.61249
 C119 C -0.10268 -0.01946 0.60149
 O120 O 0.01550 -0.11255 0.42848
 O121 O 0.00990 -0.05020 0.38091
 C122 C 0.01609 -0.09367 0.38827
 O123 O -0.00011 -0.12323 0.55419
 O124 O -0.00300 -0.06821 0.61029
 C125 C -0.00250 -0.11067 0.59682
 O126 O -0.11300 -0.00090 0.43048
 O127 O -0.05094 0.00269 0.38224
 C128 C -0.09472 0.00219 0.38979
 Zr129 Zr -0.08232 -0.00746 0.49619
 O130 O -0.13137 -0.05994 0.48550
 O131 O -0.13346 0.04336 0.50017
 Zr132 Zr 0.00308 -0.08426 0.49360
 O133 O -0.04758 -0.13481 0.48080
 O134 O 0.05311 -0.13625 0.49717
 O135 O -0.04745 -0.05593 0.53509
 O136 O -0.04334 -0.04907 0.45391
 O137 O -0.00861 0.11629 0.44543
 O138 O -0.00064 0.06146 0.38948
 C139 C -0.00574 0.10372 0.40275
 O140 O 0.11102 0.00163 0.56970
 O141 O 0.04945 -0.00845 0.61734
 C142 C 0.09285 -0.00279 0.61014
 O143 O 0.11690 0.00598 0.44183
 O144 O 0.05999 0.00840 0.38767
 C145 C 0.10280 0.00860 0.39968
 O146 O -0.00527 0.10653 0.57295
 O147 O -0.00701 0.04314 0.61930
 C148 C -0.00578 0.08717 0.61306
 Zr149 Zr -0.00523 0.07771 0.50639
 O150 O 0.04280 0.13220 0.50702
 O151 O -0.05959 0.12499 0.51291
 Zr152 Zr 0.08037 0.00107 0.50401
 O153 O 0.12933 0.05471 0.50532
 O154 O 0.13324 -0.04824 0.50758
 Zr155 Zr -0.00387 -0.00882 0.56862
 Zr156 Zr 0.00229 0.00204 0.43117
 O157 O 0.04494 0.04890 0.46594
 O158 O 0.04182 0.04289 0.54689
 O159 O -0.04849 0.04417 0.46038
 O160 O 0.04640 -0.05055 0.53843
 O161 O -0.05169 0.03761 0.54165
 O162 O 0.05050 -0.04447 0.45785
 H163 H -0.05986 -0.06754 0.43057
 H164 H 0.06564 -0.07014 0.55830
 H165 H 0.06356 0.07082 0.44784
 H166 H -0.07223 0.05409 0.56309
 H167 H 0.08152 -0.12335 0.48403
 H168 H 0.13322 -0.06562 0.47836
 H169 H 0.12198 0.07475 0.53172
 H170 H 0.06456 0.12640 0.53234
 H171 H -0.08298 0.11644 0.48983
 H172 H -0.16311 0.02696 0.49771
 H173 H -0.12588 -0.08378 0.50893
 H174 H -0.06742 -0.13671 0.50828
 C175 C -0.27731 0.14579 -0.02248
 C176 C -0.27628 0.18841 0.00063
 C177 C -0.31603 0.20155 0.02546
 C178 C -0.35547 0.17373 0.02543
 C179 C -0.35550 0.13167 0.00247
 C180 C -0.31612 0.11799 -0.02126
 C181 C -0.31614 0.24219 0.05054
 C182 C -0.27757 0.26998 0.05216
 C183 C -0.23732 0.25874 0.02774
 C184 C -0.23717 0.21813 0.00027
 C185 C -0.19848 0.20931 -0.02754
 C186 C -0.16147 0.23938 -0.02894
 C187 C -0.16077 0.27871 -0.00174
 C188 C -0.19795 0.28796 0.02830
 C189 C -0.19447 0.32662 0.05732
 C190 C -0.15826 0.35726 0.05300
 C191 C -0.12377 0.35021 0.02042
 C192 C -0.12391 0.30984 -0.00553
 H193 H -0.24840 0.13230 -0.04094
 H194 H -0.38563 0.18410 0.04444
 H195 H -0.31534 0.08544 -0.03923
 H196 H -0.34636 0.25258 0.06942
 H197 H -0.28106 0.30109 0.07177
 H198 H -0.19639 0.18019 -0.05020
 H199 H -0.13323 0.23190 -0.05188
 H200 H -0.21932 0.33451 0.08346
 H201 H -0.15795 0.38765 0.07447
 H202 H -0.09693 0.30401 -0.03043
 C203 C 0.34103 0.78483 0.02559
 C204 C 0.29470 0.79212 0.01398
 C205 C 0.28212 0.83644 -0.00143
 C206 C 0.31515 0.87177 -0.00482
 C207 C 0.36111 0.86329 0.00617
 C208 C 0.37325 0.81960 0.02170
 C209 C 0.23685 0.84496 -0.01392
 C210 C 0.20393 0.81032 -0.01243
 C211 C 0.21491 0.76550 0.00211
 C212 C 0.26092 0.75660 0.01639
 C213 C 0.27186 0.71231 0.03236
 C214 C 0.23987 0.67736 0.03257
 C215 C 0.19549 0.68487 0.01734
 C216 C 0.18177 0.72901 0.00253
 C217 C 0.13562 0.73420 -0.01167
 C218 C 0.10523 0.69688 -0.01195
 C219 C 0.11985 0.65327 0.00158
 C220 C 0.16490 0.64790 0.01670
 H221 H 0.35415 0.75251 0.03724
 H222 H 0.30527 0.90544 -0.01689
 H223 H 0.40825 0.81184 0.03104
 H224 H 0.22681 0.87871 -0.02559
 H225 H 0.17001 0.81978 -0.02313
 H226 H 0.30507 0.70303 0.04507
 H227 H 0.25022 0.64380 0.04456
 H228 H 0.12200 0.76644 -0.02315
 H229 H 0.07045 0.70201 -0.02366
 H230 H 0.17647 0.61451 0.02805
 C231 C 0.27202 0.14316 -0.00263
 C232 C 0.27873 0.19085 -0.00905
 C233 C 0.32428 0.20640 -0.01582
 C234 C 0.36110 0.17566 -0.01509
 C235 C 0.35393 0.12874 -0.00798
 C236 C 0.30897 0.11283 -0.00216
 C237 C 0.33317 0.25270 -0.02301
 C238 C 0.29801 0.28435 -0.02349
 C239 C 0.25200 0.27107 -0.01651
 C240 C 0.24214 0.22358 -0.00884
 C241 C 0.19622 0.21064 -0.00061
 C242 C 0.16121 0.24280 0.00045
 C243 C 0.17021 0.28915 -0.00706
 C244 C 0.21565 0.30388 -0.01622
 C245 C 0.22282 0.35108 -0.02455
 C246 C 0.18696 0.38218 -0.02239
 C247 C 0.14229 0.36787 -0.01214
 C248 C 0.13403 0.32100 -0.00509
 H249 H 0.23870 0.12803 0.00211
 H250 H 0.39559 0.18853 -0.02006
 H251 H 0.30221 0.07672 0.00327
 H252 H 0.36793 0.26475 -0.02820
 H253 H 0.30846 0.31930 -0.02886
 H254 H 0.18609 0.17573 0.00580
 H255 H 0.12662 0.23120 0.00738
 H256 H 0.25570 0.36547 -0.03296
 H257 H 0.19460 0.41795 -0.02879
 H258 H 0.09962 0.30932 0.00260
 C259 C -0.27150 0.85720 0.00414
 C260 C -0.27862 0.80946 -0.00161
 C261 C -0.32436 0.79398 -0.00712
 C262 C -0.36086 0.82487 -0.00669
 C263 C -0.35329 0.87184 -0.00070
 C264 C -0.30826 0.88772 0.00451
 C265 C -0.33381 0.74764 -0.01304
 C266 C -0.29902 0.71572 -0.01274
 C267 C -0.25290 0.72885 -0.00632
 C268 C -0.24231 0.77657 -0.00173
 C269 C -0.19588 0.78963 0.00247
 C270 C -0.16107 0.75728 0.00279
 C271 C -0.17096 0.71061 -0.00041
 C272 C -0.21705 0.69573 -0.00465
 C273 C -0.22547 0.64807 -0.00645
 C274 C -0.18985 0.61684 -0.00497
 C275 C -0.14427 0.63146 -0.00145
 C276 C -0.13501 0.67860 0.00084
 H277 H -0.23809 0.87214 0.00882
 H278 H -0.39546 0.81204 -0.01102
 H279 H -0.30130 0.92391 0.00922
 H280 H -0.36869 0.73577 -0.01784
 H281 H -0.30975 0.68084 -0.01814
 H282 H -0.18511 0.82484 0.00527
 H283 H -0.12596 0.76898 0.00597
 H284 H -0.25919 0.63332 -0.00840
 H285 H -0.19843 0.58073 -0.00660
 H286 H -0.09992 0.69042 0.00385
 C287 C -0.02454 -0.27476 0.14321
 C288 C -0.00058 -0.27462 0.18545
 C289 C 0.02280 -0.31530 0.19802
 C290 C 0.02080 -0.35456 0.17004
 C291 C -0.00298 -0.35387 0.12841
 C292 C -0.02541 -0.31363 0.11523
 C293 C 0.04837 -0.31664 0.23830
 C294 C 0.05163 -0.27849 0.26656
 C295 C 0.02863 -0.23731 0.25607
 C296 C 0.00116 -0.23564 0.21546
 C297 C -0.02454 -0.19558 0.20694
 C298 C -0.02423 -0.15884 0.23746
 C299 C 0.00249 -0.15988 0.27708
 C300 C 0.03063 -0.19844 0.28602
 C301 C 0.05904 -0.19683 0.32527
 C302 C 0.05584 -0.16103 0.35663
 C303 C 0.02515 -0.12504 0.34969
 C304 C 0.00000 -0.12340 0.30883
 H305 H -0.04225 -0.24521 0.13022
 H306 H 0.03892 -0.38533 0.18005
 H307 H -0.04389 -0.31214 0.08300
 H308 H 0.06622 -0.34760 0.24814
 H309 H 0.07147 -0.28305 0.29735
 H310 H -0.04670 -0.19205 0.17764
 H311 H -0.04561 -0.12946 0.23017
 H312 H 0.08372 -0.22294 0.33321
 H313 H 0.07661 -0.16221 0.38745
 H314 H -0.02349 -0.09530 0.30313
 C315 C 0.03483 0.33666 0.78737
 C316 C 0.01782 0.29166 0.79355
 C317 C 0.00049 0.27989 0.83755
 C318 C -0.00165 0.31301 0.87292
 C319 C 0.01300 0.35814 0.86491
 C320 C 0.03204 0.36909 0.82221
 C321 C -0.01533 0.23544 0.84564
 C322 C -0.01502 0.20250 0.81092
 C323 C 0.00057 0.21292 0.76616
 C324 C 0.01704 0.25839 0.75738
 C325 C 0.03103 0.26962 0.71234
 C326 C 0.02900 0.23796 0.67705
 C327 C 0.01334 0.19363 0.68490
 C328 C -0.00055 0.17988 0.72949
 C329 C -0.01508 0.13373 0.73503
 C330 C -0.01649 0.10333 0.69761
 C331 C -0.00389 0.11799 0.65356
 C332 C 0.01133 0.16313 0.64783
 H333 H 0.05050 0.34833 0.75605
 H334 H -0.01605 0.30406 0.90607
 H335 H 0.04484 0.40332 0.81543
 H336 H -0.02844 0.22603 0.87918
 H337 H -0.02821 0.16924 0.82005
 H338 H 0.04291 0.30312 0.70256
 H339 H 0.03966 0.24850 0.64296
 H340 H -0.02541 0.11998 0.76775
 H341 H -0.02802 0.06845 0.70311
 H342 H 0.02209 0.17476 0.61412
 C343 C 0.01486 0.27328 0.14495
 C344 C 0.00582 0.27951 0.19238
 C345 C -0.00275 0.32483 0.20780
 C346 C -0.00184 0.36187 0.17708
 C347 C 0.00701 0.35506 0.13029
 C348 C 0.01533 0.31039 0.11463
 C349 C -0.01237 0.33321 0.25387
 C350 C -0.01418 0.29766 0.28529
 C351 C -0.00620 0.25180 0.27197
 C352 C 0.00475 0.24259 0.22491
 C353 C 0.01463 0.19692 0.21216
 C354 C 0.01393 0.16151 0.24410
 C355 C 0.00278 0.16982 0.28995
 C356 C -0.00810 0.21496 0.30440
 C357 C -0.02054 0.22136 0.35090
 C358 C -0.02030 0.18509 0.38182
 C359 C -0.00804 0.14078 0.36794
 C360 C 0.00280 0.13323 0.32159
 H361 H 0.02128 0.24019 0.12994
 H362 H -0.00869 0.39614 0.18973
 H363 H 0.02223 0.30391 0.07864
 H364 H -0.01870 0.36780 0.26588
 H365 H -0.02136 0.30768 0.32012
 H366 H 0.02375 0.18731 0.17764
 H367 H 0.02222 0.12715 0.23271
 H368 H -0.03090 0.25388 0.36481
 H369 H -0.02975 0.19212 0.41712
 H370 H 0.01200 0.09909 0.31022
 C371 C -0.01870 -0.27686 0.85641
 C372 C -0.01856 -0.28402 0.80832
 C373 C -0.01872 -0.32997 0.79241
 C374 C -0.01832 -0.36673 0.82334
 C375 C -0.01712 -0.35929 0.87107
 C376 C -0.01801 -0.31367 0.88700
 C377 C -0.01878 -0.33935 0.74554
 C378 C -0.01711 -0.30422 0.71373
 C379 C -0.01523 -0.25784 0.72754
 C380 C -0.01752 -0.24741 0.77554
 C381 C -0.01857 -0.20085 0.78899
 C382 C -0.01647 -0.16572 0.75683
 C383 C -0.01248 -0.17536 0.71008
 C384 C -0.01142 -0.22156 0.69481
 C385 C -0.00577 -0.22961 0.64728
 C386 C -0.00265 -0.19356 0.61638
 C387 C -0.00471 -0.14791 0.63128
 C388 C -0.00936 -0.13901 0.67840
 H389 H -0.01850 -0.24326 0.87172
 H390 H -0.01810 -0.40136 0.80970
 H391 H -0.01746 -0.30590 0.92343
 H392 H -0.01966 -0.37442 0.73317
 H393 H -0.01779 -0.31488 0.67834
 H394 H -0.02138 -0.19022 0.82430
 H395 H -0.01751 -0.13054 0.76880
 H396 H -0.00292 -0.26332 0.63257
 H397 H 0.00147 -0.20187 0.58034
 H398 H -0.01055 -0.10388 0.69050
 C399 C 0.34303 0.03191 0.78336
 C400 C 0.29754 0.01650 0.78964
 C401 C 0.28530 -0.00078 0.83354
 C402 C 0.31805 -0.00355 0.86896
 C403 C 0.36337 0.01028 0.86117
 C404 C 0.37510 0.02858 0.81833
 C405 C 0.24068 -0.01581 0.84160
 C406 C 0.20798 -0.01488 0.80690
 C407 C 0.21870 0.00101 0.76232
 C408 C 0.26422 0.01718 0.75369
 C409 C 0.27528 0.03273 0.70911
 C410 C 0.24353 0.03190 0.67396
 C411 C 0.19935 0.01586 0.68154
 C412 C 0.18578 0.00068 0.72577
 C413 C 0.13992 -0.01449 0.73110
 C414 C 0.10962 -0.01524 0.69387
 C415 C 0.12396 -0.00113 0.65018
 C416 C 0.16880 0.01474 0.64456
 H417 H 0.35545 0.04655 0.75185
 H418 H 0.30853 -0.01750 0.90212
 H419 H 0.40959 0.04049 0.81151
 H420 H 0.23097 -0.02886 0.87507
 H421 H 0.17456 -0.02749 0.81608
 H422 H 0.30855 0.04537 0.69964
 H423 H 0.25389 0.04375 0.64021
 H424 H 0.12633 -0.02610 0.76345
 H425 H 0.07500 -0.02748 0.69926
 H426 H 0.18020 0.02642 0.61109
 C427 C -0.34888 0.01424 0.21926
 C428 C -0.30144 0.01232 0.21087
 C429 C -0.28686 0.00787 0.16457
 C430 C -0.31913 0.00647 0.12825
 C431 C -0.36653 0.00842 0.13736
 C432 C -0.38031 0.01237 0.18365
 C433 C -0.24018 0.00430 0.15498
 C434 C -0.20780 0.00422 0.19022
 C435 C -0.22074 0.00852 0.23685
 C436 C -0.26833 0.01379 0.24711
 C437 C -0.28140 0.02051 0.29338
 C438 C -0.24970 0.02003 0.32862
 C439 C -0.20354 0.01317 0.31959
 C440 C -0.18798 0.00773 0.27372
 C441 C -0.14035 0.00131 0.26713
 C442 C -0.11009 -0.00002 0.30451
 C443 C -0.12613 0.00481 0.34971
 C444 C -0.17297 0.01169 0.35668
 H445 H -0.36343 0.01629 0.25313
 H446 H -0.30714 0.00312 0.09313
 H447 H -0.41610 0.01392 0.19327
 H448 H -0.22850 0.00093 0.11979
 H449 H -0.17264 0.00093 0.17971
 H450 H -0.31608 0.02674 0.30393
 H451 H -0.26164 0.02494 0.36357
 H452 H -0.12539 -0.00326 0.23362
 H453 H -0.07404 -0.00544 0.29794
 H454 H -0.18597 0.01589 0.39133
 C455 C 0.26924 -0.01022 0.13993
 C456 C 0.27564 -0.00210 0.18756
 C457 C 0.32105 0.00528 0.20312
 C458 C 0.35798 0.00386 0.17253
 C459 C 0.35114 -0.00411 0.12561
 C460 C 0.30642 -0.01105 0.10959
 C461 C 0.32976 0.01419 0.24925
 C462 C 0.29436 0.01671 0.28065
 C463 C 0.24839 0.01011 0.26722
 C464 C 0.23886 -0.00074 0.22019
 C465 C 0.19312 -0.01051 0.20771
 C466 C 0.15797 -0.00987 0.24000
 C467 C 0.16663 0.00157 0.28574
 C468 C 0.21182 0.01281 0.29970
 C469 C 0.21860 0.02644 0.34582
 C470 C 0.18285 0.02587 0.37721
 C471 C 0.13873 0.01239 0.36407
 C472 C 0.13050 0.00133 0.31788
 H473 H 0.23598 -0.01542 0.12486
 H474 H 0.39230 0.00974 0.18545
 H475 H 0.30003 -0.01712 0.07342
 H476 H 0.36449 0.01941 0.26133
 H477 H 0.30458 0.02287 0.31564
 H478 H 0.18340 -0.01986 0.17326
 H479 H 0.12355 -0.01841 0.22895
 H480 H 0.25103 0.03811 0.35897
 H481 H 0.19008 0.03597 0.41232
 H482 H 0.09634 -0.00861 0.30718
 C483 C -0.33251 0.03702 0.79447
 C484 C -0.29378 0.00829 0.79370
 C485 C -0.28382 -0.01729 0.83394
 C486 C -0.31425 -0.01704 0.87165
 C487 C -0.35456 0.00862 0.86961
 C488 C -0.36238 0.03673 0.83154
 C489 C -0.24428 -0.04382 0.83566
 C490 C -0.21446 -0.04566 0.79837
 C491 C -0.22379 -0.02203 0.75705
 C492 C -0.26490 0.00416 0.75429
 C493 C -0.27677 0.02408 0.71174
 C494 C -0.24862 0.02029 0.67362
 C495 C -0.20717 -0.00281 0.67633
 C496 C -0.19384 -0.02413 0.71807
 C497 C -0.15061 -0.04576 0.71915
 C498 C -0.12190 -0.04532 0.68081
 C499 C -0.13541 -0.02413 0.63986
 C500 C -0.17852 -0.00378 0.63757
 H501 H -0.34087 0.06014 0.76695
 H502 H -0.30776 -0.03843 0.90136
 H503 H -0.39266 0.05800 0.82996
 H504 H -0.23627 -0.06345 0.86618
 H505 H -0.18494 -0.06721 0.80256
 H506 H -0.30845 0.04194 0.70624
 H507 H -0.25924 0.03620 0.64174
 H508 H -0.13722 -0.06198 0.74949
 H509 H -0.08856 -0.06118 0.68345
 H510 H -0.18889 0.01333 0.60622
   
