data_POSCAR
  _audit_creation_date              2014-09-24
  _audit_creation_method            'ToBaCCo'
  _symmetry_space_group_name_H-M    'P1'
  _symmetry_Int_Tables_number       1
  _symmetry_cell_setting            triclinic
  loop_
  _symmetry_equiv_pos_as_xyz
 x,y,z
_cell_length_a 58.4472
_cell_length_b 58.3939
_cell_length_c 24.8809
_cell_angle_alpha 89.970800
_cell_angle_beta 89.891600
_cell_angle_gamma 120.002500
loop_
  _atom_site_label
  _atom_site_type_symbol
  _atom_site_fract_x
  _atom_site_fract_y
  _atom_site_fract_z
C1 C 0.19330 0.51011 0.50085
 C2 C 0.20395 0.50777 0.45181
 C3 C 0.22822 0.50813 0.45250
 C4 C 0.24287 0.51285 0.50042
 C5 C 0.23190 0.51607 0.54857
 C6 C 0.20668 0.51359 0.54972
 C7 C 0.26938 0.51433 0.50027
 C8 C 0.28001 0.51029 0.54805
 C9 C 0.30518 0.51277 0.54880
 C10 C 0.31919 0.51758 0.50045
 C11 C 0.30872 0.52035 0.45192
 C12 C 0.28435 0.51963 0.45239
 H13 H 0.17425 0.50901 0.50105
 H14 H 0.23542 0.50449 0.41537
 H15 H 0.24290 0.52067 0.58560
 H16 H 0.26881 0.50491 0.58500
 H17 H 0.33817 0.51853 0.50035
 H18 H 0.27749 0.52350 0.41509
 C19 C 0.48332 -0.32028 0.49867
 C20 C 0.48099 -0.30992 0.44937
 C21 C 0.48084 -0.28591 0.44950
 C22 C 0.48531 -0.27105 0.49713
 C23 C 0.48905 -0.28149 0.54552
 C24 C 0.48717 -0.30648 0.54713
 C25 C 0.48619 -0.24479 0.49619
 C26 C 0.48212 -0.23390 0.54357
 C27 C 0.48359 -0.20915 0.54315
 C28 C 0.48724 -0.19597 0.49405
 C29 C 0.49063 -0.20648 0.44605
 C30 C 0.49106 -0.23030 0.44781
 H31 H 0.48268 -0.33914 0.49917
 H32 H 0.47704 -0.27908 0.41209
 H33 H 0.49368 -0.27022 0.58225
 H34 H 0.47753 -0.24454 0.58116
 H35 H 0.48777 -0.17717 0.49331
 H36 H 0.49545 -0.23717 0.41110
 C37 C 1.31580 0.80658 0.50121
 C38 C 1.30641 0.79314 0.45220
 C39 C 1.28330 0.76816 0.45268
 C40 C 1.26841 0.75749 0.50025
 C41 C 1.27792 0.77219 0.54825
 C42 C 1.30196 0.79620 0.54943
 C43 C 1.24306 0.73128 0.49967
 C44 C 1.23291 0.71626 0.54726
 C45 C 1.20868 0.69229 0.54764
 C46 C 1.19562 0.68224 0.49853
 C47 C 1.20546 0.69630 0.45034
 C48 C 1.22861 0.72111 0.45161
 H49 H 1.33396 0.82545 0.50194
 H50 H 1.27712 0.75708 0.41566
 H51 H 1.26666 0.76534 0.58505
 H52 H 1.24381 0.72302 0.58438
 H53 H 1.17735 0.66346 0.49776
 H54 H 1.23500 0.73243 0.41484
 C55 C 0.80255 0.48331 0.49550
 C56 C 0.79281 0.48777 0.44762
 C57 C 0.76991 0.48989 0.44948
 C58 C 0.75561 0.48581 0.49797
 C59 C 0.76585 0.48090 0.54529
 C60 C 0.78968 0.48055 0.54460
 C61 C 0.73022 0.48663 0.49911
 C62 C 0.72024 0.49099 0.54758
 C63 C 0.69598 0.49069 0.54914
 C64 C 0.68262 0.48795 0.50051
 C65 C 0.69252 0.48467 0.45157
 C66 C 0.71563 0.48300 0.45155
 H67 H 0.82072 0.48263 0.49481
 H68 H 0.76363 0.49498 0.41284
 H69 H 0.75543 0.47702 0.58305
 H70 H 0.73130 0.49487 0.58439
 H71 H 0.66447 0.48867 0.50045
 H72 H 0.72188 0.47863 0.41398
 C73 C 0.51170 0.31710 0.50528
 C74 C 0.51551 0.30741 0.45657
 C75 C 0.51745 0.28438 0.45703
 C76 C 0.51367 0.26979 0.50490
 C77 C 0.50858 0.27951 0.55282
 C78 C 0.50862 0.30363 0.55396
 C79 C 0.51495 0.24460 0.50497
 C80 C 0.51929 0.23438 0.55314
 C81 C 0.51950 0.21037 0.55388
 C82 C 0.51773 0.19776 0.50476
 C83 C 0.51400 0.20759 0.45620
 C84 C 0.51169 0.23038 0.45690
 H85 H 0.51083 0.33519 0.50503
 H86 H 0.52214 0.27825 0.41969
 H87 H 0.50431 0.26833 0.58964
 H88 H 0.52271 0.24498 0.59047
 H89 H 0.51862 0.17969 0.50428
 H90 H 0.50714 0.23666 0.41962
 C91 C 0.68197 0.19680 0.49995
 C92 C 0.69584 0.20658 0.45159
 C93 C 0.72000 0.23052 0.45215
 C94 C 0.72972 0.24550 0.49989
 C95 C 0.71491 0.23522 0.54766
 C96 C 0.69154 0.21063 0.54825
 C97 C 0.75504 0.27169 0.49991
 C98 C 0.76977 0.28212 0.54769
 C99 C 0.79289 0.30714 0.54846
 C100 C 0.80209 0.32104 0.49976
 C101 C 0.78857 0.31071 0.45144
 C102 C 0.76475 0.28655 0.45210
 H103 H 0.66368 0.17803 0.50020
 H104 H 0.73121 0.23708 0.41523
 H105 H 0.72112 0.24631 0.58468
 H106 H 0.76354 0.27075 0.58444
 H107 H 0.82032 0.33986 0.49900
 H108 H 0.75384 0.27970 0.41498
 O109 O 0.96307 0.44403 0.10078
 O110 O 0.93437 0.44927 0.04625
 C111 C 0.93948 0.43831 0.08625
 O112 O 1.03749 0.56130 0.09027
 O113 O 1.06715 0.55329 0.04543
 C114 C 1.06135 0.56660 0.07913
 O115 O 0.96389 0.52299 0.09279
 O116 O 0.93468 0.48715 0.04295
 C117 C 0.94016 0.50489 0.07976
 O118 O 1.03672 0.47744 0.09660
 O119 O 1.06682 0.51352 0.04799
 C120 C 1.06070 0.49526 0.08406
 Zr121 Zr 1.00026 0.47191 0.06828
 O122 O 1.00217 0.47200 0.15321
 O123 O 0.99843 0.43489 0.06375
 Zr124 Zr 1.00079 0.53017 0.06319
 O125 O 1.00285 0.53367 0.14796
 O126 O 0.99814 0.56494 0.05654
 O127 O 0.97704 0.48962 0.07574
 O128 O 1.02325 0.51241 0.07673
 O129 O 1.03860 0.47590 -0.09095
 O130 O 1.06761 0.51299 -0.04387
 C131 C 1.06230 0.49437 -0.07844
 O132 O 0.96555 0.52001 -0.10634
 O133 O 0.93560 0.48595 -0.05327
 C134 C 0.94161 0.50232 -0.09304
 O135 O 1.03950 0.55891 -0.09831
 O136 O 1.06817 0.55230 -0.04642
 C137 C 1.06311 0.56455 -0.08394
 O138 O 0.96498 0.44126 -0.09811
 O139 O 0.93524 0.44796 -0.05015
 C140 C 0.94112 0.43584 -0.08661
 Zr141 Zr 1.00151 0.47037 -0.06598
 O142 O 1.00497 0.46936 -0.15053
 O143 O 0.99867 0.43289 -0.05890
 Zr144 Zr 1.00202 0.52867 -0.07128
 O145 O 1.00556 0.53113 -0.15599
 O146 O 0.99922 0.56347 -0.06985
 Zr147 Zr 0.96145 0.48066 -0.00276
 Zr148 Zr 1.04072 0.51989 -0.00004
 O149 O 1.02459 0.51066 -0.07800
 O150 O 0.97848 0.48781 -0.08021
 O151 O 1.02475 0.47859 0.00236
 O152 O 0.97808 0.52199 -0.00523
 O153 O 0.97742 0.45543 0.00081
 O154 O 1.02533 0.54573 -0.00364
 H155 H 1.03457 0.51839 0.10915
 H156 H 0.96596 0.52922 -0.00694
 H157 H 1.03631 0.51596 -0.10991
 H158 H 0.96507 0.43608 0.00172
 H159 H 1.01441 0.57856 0.03854
 H160 H 1.01593 0.57788 -0.05497
 H161 H 0.99434 0.51306 -0.17014
 H162 H 0.99203 0.47356 -0.16654
 H163 H 1.01359 0.43513 -0.03635
 H164 H 0.99782 0.42905 0.10138
 H165 H 0.99099 0.47906 0.16663
 H166 H 0.98916 0.51655 0.16301
 O167 O 0.44380 0.48039 0.10147
 O168 O 0.44888 0.51462 0.04780
 C169 C 0.43793 0.49826 0.08745
 O170 O 0.56074 0.52338 0.09277
 O171 O 0.55347 0.48670 0.04504
 C172 C 0.56623 0.50507 0.08034
 O173 O 0.52161 0.55820 0.09713
 O174 O 0.48645 0.55219 0.04575
 C175 C 0.50350 0.56381 0.08385
 O176 O 0.47842 0.44107 0.09745
 O177 O 0.51414 0.44734 0.04736
 C178 C 0.49643 0.43525 0.08438
 Zr179 Zr 0.47186 0.47146 0.06854
 O180 O 0.47180 0.46896 0.15337
 O181 O 0.43418 0.43685 0.06558
 Zr182 Zr 0.52990 0.52949 0.06528
 O183 O 0.53396 0.53104 0.14989
 O184 O 0.56441 0.56711 0.05840
 O185 O 0.48929 0.51230 0.07729
 O186 O 0.51232 0.48918 0.07731
 O187 O 0.47636 0.43849 -0.09089
 O188 O 0.51335 0.44617 -0.04402
 C189 C 0.49456 0.43292 -0.07827
 O190 O 0.52114 0.55689 -0.10159
 O191 O 0.48611 0.55151 -0.05025
 C192 C 0.50330 0.56290 -0.08848
 O193 O 0.55990 0.52203 -0.09562
 O194 O 0.55308 0.48587 -0.04628
 C195 C 0.56574 0.50407 -0.08226
 O196 O 0.44170 0.47740 -0.09758
 O197 O 0.44797 0.51334 -0.04842
 C198 C 0.43602 0.49557 -0.08527
 Zr199 Zr 0.47095 0.47006 -0.06613
 O200 O 0.47111 0.46693 -0.15086
 O201 O 0.43329 0.43550 -0.06204
 Zr202 Zr 0.52884 0.52794 -0.06940
 O203 O 0.53013 0.52605 -0.15425
 O204 O 0.56352 0.56558 -0.06960
 Zr205 Zr 0.48057 0.51963 -0.00102
 Zr206 Zr 0.52015 0.47992 0.00008
 O207 O 0.51125 0.48743 -0.07760
 O208 O 0.48808 0.51067 -0.07889
 O209 O 0.47886 0.45435 0.00180
 O210 O 0.52185 0.54451 -0.00253
 O211 O 0.45563 0.47833 0.00117
 O212 O 0.54574 0.52123 -0.00196
 H213 H 0.51828 0.48379 0.10973
 H214 H 0.52904 0.56390 -0.00318
 H215 H 0.51689 0.48120 -0.10927
 H216 H 0.43628 0.47120 0.00190
 H217 H 0.57872 0.56442 0.04420
 H218 H 0.57713 0.56407 -0.04891
 H219 H 0.51301 0.52306 -0.16815
 H220 H 0.47456 0.48403 -0.16605
 H221 H 0.43518 0.42210 -0.04125
 H222 H 0.43660 0.42228 0.05192
 H223 H 0.47804 0.48695 0.16745
 H224 H 0.51630 0.52521 0.16535
 O225 O 0.47993 0.03522 0.10412
 O226 O 0.51479 0.06507 0.05256
 C227 C 0.49784 0.05912 0.09130
 O228 O 0.52361 -0.03907 0.08757
 O229 O 0.48613 -0.06781 0.04131
 C230 C 0.50506 -0.06268 0.07496
 O231 O 0.55864 0.03431 0.09668
 O232 O 0.55256 0.06460 0.04937
 C233 C 0.56448 0.05833 0.08550
 O234 O 0.44064 -0.03841 0.09693
 O235 O 0.44692 -0.06749 0.04556
 C236 C 0.43475 -0.06215 0.08283
 Zr237 Zr 0.47154 -0.00134 0.07023
 O238 O 0.46974 -0.00462 0.15505
 O239 O 0.43619 0.00016 0.06682
 Zr240 Zr 0.52920 -0.00192 0.06393
 O241 O 0.53105 -0.00536 0.14826
 O242 O 0.56551 -0.00092 0.05223
 O243 O 0.51240 0.02168 0.07898
 O244 O 0.48892 -0.02455 0.07636
 O245 O 0.43811 -0.03626 -0.09050
 O246 O 0.44565 -0.06651 -0.04670
 C247 C 0.43245 -0.06030 -0.07978
 O248 O 0.55606 0.03672 -0.10178
 O249 O 0.55136 0.06573 -0.04695
 C250 C 0.56218 0.06042 -0.08697
 O251 O 0.52075 -0.03726 -0.09993
 O252 O 0.48477 -0.06687 -0.05046
 C253 C 0.50253 -0.06113 -0.08742
 O254 O 0.47825 0.03761 -0.09413
 O255 O 0.51409 0.06617 -0.04358
 C256 C 0.49678 0.06119 -0.08093
 Zr257 Zr 0.46988 0.00026 -0.06408
 O258 O 0.46592 -0.00178 -0.14873
 O259 O 0.43550 0.00351 -0.05677
 Zr260 Zr 0.52745 -0.00042 -0.07027
 O261 O 0.52616 -0.00235 -0.15524
 O262 O 0.56475 0.00180 -0.07059
 Zr263 Zr 0.51972 0.03888 0.00181
 Zr264 Zr 0.47933 -0.04049 -0.00157
 O265 O 0.48689 -0.02282 -0.07824
 O266 O 0.51045 0.02345 -0.07688
 O267 O 0.45416 -0.02439 0.00259
 O268 O 0.54433 0.02222 -0.00254
 O269 O 0.47853 0.02291 0.00450
 O270 O 0.52050 -0.02514 -0.00457
 H271 H 0.48353 -0.03644 0.10802
 H272 H 0.56372 0.03426 -0.00343
 H273 H 0.48054 -0.03409 -0.11072
 H274 H 0.47152 0.03524 0.00605
 H275 H 0.57222 -0.00125 0.08859
 H276 H 0.56291 -0.01351 -0.04986
 H277 H 0.52198 0.01115 -0.16816
 H278 H 0.48341 0.01078 -0.16407
 H279 H 0.42269 -0.01147 -0.03434
 H280 H 0.43064 -0.00018 0.10461
 H281 H 0.48749 0.00807 0.16895
 H282 H 0.52491 0.00603 0.16469
 N283 N 1.15463 0.50373 0.35789
 C284 C 1.16484 0.50221 0.31006
 N285 N 1.18799 0.50211 0.30915
 N286 N 1.20059 0.50366 0.35490
 C287 C 1.19047 0.50531 0.40320
 N288 N 1.16719 0.50527 0.40344
 C289 C 1.15084 0.50060 0.26160
 C290 C 1.13734 0.49908 0.22368
 C291 C 1.11917 0.49678 0.18246
 N292 N 1.09427 0.47586 0.18322
 N293 N 1.07599 0.47502 0.15018
 C294 C 1.08194 0.49509 0.11519
 N295 N 1.10703 0.51592 0.11388
 N296 N 1.12534 0.51679 0.14715
 N297 N 0.48162 0.67632 0.30680
 C298 C 0.48227 0.65343 0.30858
 N299 N 0.48140 0.64234 0.35683
 N300 N 0.48027 0.65388 0.40201
 C301 C 0.47997 0.67701 0.40097
 N302 N 0.48042 0.68785 0.35219
 C303 C 0.48576 0.64170 0.26092
 C304 C 0.48950 0.63069 0.22387
 C305 C 0.49461 0.61624 0.18360
 N306 N 0.51564 0.61261 0.18916
 N307 N 0.51901 0.59666 0.15596
 C308 C 0.50144 0.58377 0.11600
 N309 N 0.48053 0.58768 0.11005
 N310 N 0.47713 0.60361 0.14340
 N311 N 0.35343 -0.15854 0.35855
 C312 C 0.34347 -0.17009 0.31055
 N313 N 0.32154 -0.19439 0.30948
 N314 N 0.30984 -0.20662 0.35524
 C315 C 0.31958 -0.19497 0.40370
 N316 N 0.34175 -0.17072 0.40413
 C317 C 0.35546 -0.15571 0.26207
 C318 C 0.36660 -0.14166 0.22408
 C319 C 0.38114 -0.12274 0.18271
 N320 N 0.39453 -0.12786 0.14443
 N321 N 0.41072 -0.10887 0.11059
 C322 C 0.41411 -0.08413 0.11412
 N323 N 0.40039 -0.07923 0.15205
 N324 N 0.38419 -0.09820 0.18569
 N325 N 0.81116 0.49670 0.30296
 C326 C 0.83268 0.49361 0.30306
 N327 N 0.84111 0.48887 0.35015
 N328 N 0.82844 0.48715 0.39574
 C329 C 0.80686 0.49018 0.39621
 N330 N 0.79843 0.49495 0.34876
 C331 C 0.84721 0.49600 0.25481
 C332 C 0.86124 0.49818 0.21727
 C333 C 0.88005 0.50123 0.17669
 N334 N 0.90481 0.52235 0.17877
 N335 N 0.92363 0.52386 0.14631
 C336 C 0.91841 0.50429 0.11059
 N337 N 0.89347 0.48325 0.10800
 N338 N 0.87461 0.48170 0.14070
 N339 N 0.51321 0.32090 0.31152
 C340 C 0.51431 0.34466 0.31298
 N341 N 0.51677 0.35653 0.36104
 N342 N 0.51786 0.34496 0.40631
 C343 C 0.51654 0.32106 0.40540
 N344 N 0.51434 0.30932 0.35695
 C345 C 0.51122 0.35665 0.26514
 C346 C 0.50800 0.36779 0.22753
 C347 C 0.50357 0.38232 0.18617
 N348 N 0.48228 0.38567 0.18949
 N349 N 0.47947 0.40167 0.15539
 C350 C 0.49783 0.41488 0.11665
 N351 N 0.51899 0.41122 0.11288
 N352 N 0.52184 0.39523 0.14714
 N353 N 0.65136 0.15420 0.35776
 C354 C 0.66222 0.16444 0.30931
 N355 N 0.68460 0.18841 0.30711
 N356 N 0.69561 0.20177 0.35222
 C357 C 0.68463 0.19159 0.40101
 N358 N 0.66232 0.16751 0.40265
 C359 C 0.64959 0.14976 0.26159
 C360 C 0.63734 0.13572 0.22446
 C361 C 0.62114 0.11711 0.18410
 N362 N 0.60763 0.12322 0.14801
 N363 N 0.59016 0.10475 0.11505
 C364 C 0.58552 0.07952 0.11744
 N365 N 0.59927 0.07359 0.15332
 N366 N 0.61673 0.09204 0.18608
 N367 N 0.51936 0.16257 -0.35277
 C368 C 0.51800 0.17262 -0.30469
 N369 N 0.51817 0.19593 -0.30327
 N370 N 0.51941 0.20862 -0.34882
 C371 C 0.52038 0.19839 -0.39743
 N372 N 0.52053 0.17517 -0.39811
 C373 C 0.51459 0.15746 -0.25685
 C374 C 0.51095 0.14272 -0.21971
 C375 C 0.50590 0.12311 -0.17944
 N376 N 0.48438 0.09868 -0.18411
 N377 N 0.48098 0.07922 -0.15121
 C378 C 0.49899 0.08350 -0.11243
 N379 N 0.52040 0.10810 -0.10736
 N380 N 0.52383 0.12758 -0.14042
 N381 N 0.68611 0.49651 -0.30787
 C382 C 0.66252 0.49573 -0.30813
 N383 N 0.65042 0.49369 -0.35565
 N384 N 0.66139 0.49229 -0.40149
 C385 C 0.68498 0.49293 -0.40190
 N386 N 0.69711 0.49509 -0.35391
 C387 C 0.65024 0.49742 -0.25936
 C388 C 0.63839 0.49909 -0.22122
 C389 C 0.62269 0.50166 -0.17976
 N390 N 0.61945 0.52306 -0.17978
 N391 N 0.60209 0.52419 -0.14684
 C392 C 0.58728 0.50396 -0.11262
 N393 N 0.59082 0.48266 -0.11196
 N394 N 0.60819 0.48149 -0.14515
 N395 N 0.81178 0.31646 -0.31024
 C396 C 0.83382 0.34070 -0.31145
 N397 N 0.84220 0.35351 -0.35900
 N398 N 0.82898 0.34255 -0.40397
 C399 C 0.80684 0.31828 -0.40344
 N400 N 0.79851 0.30547 -0.35542
 C401 C 0.84877 0.35291 -0.26375
 C402 C 0.86297 0.36473 -0.22652
 C403 C 0.88173 0.38039 -0.18591
 N404 N 0.90657 0.38425 -0.18823
 N405 N 0.92520 0.40128 -0.15520
 C406 C 0.91968 0.41512 -0.11867
 N407 N 0.89468 0.41102 -0.11592
 N408 N 0.87602 0.39399 -0.14915
 N409 N 0.48608 -0.19246 -0.31246
 C410 C 0.48436 -0.17016 -0.31463
 N411 N 0.48139 -0.16131 -0.36295
 N412 N 0.48041 -0.17415 -0.40781
 C413 C 0.48235 -0.19638 -0.40617
 N414 N 0.48505 -0.20537 -0.35746
 C415 C 0.48746 -0.15481 -0.26733
 C416 C 0.49072 -0.14029 -0.23010
 C417 C 0.49519 -0.12121 -0.18911
 N418 N 0.51639 -0.09651 -0.19290
 N419 N 0.51926 -0.07765 -0.15894
 C420 C 0.50103 -0.08282 -0.11991
 N421 N 0.47997 -0.10770 -0.11568
 N422 N 0.47707 -0.12658 -0.14980
 N423 N 0.31525 0.50360 -0.30727
 C424 C 0.33982 0.50662 -0.30825
 N425 N 0.35279 0.51141 -0.35570
 N426 N 0.34166 0.51324 -0.40083
 C427 C 0.31708 0.51027 -0.40041
 N428 N 0.30410 0.50545 -0.35259
 C429 C 0.35212 0.50417 -0.26048
 C430 C 0.36405 0.50199 -0.22325
 C431 C 0.37987 0.49903 -0.18290
 N432 N 0.38390 0.47815 -0.18547
 N433 N 0.40118 0.47672 -0.15293
 C434 C 0.41510 0.49615 -0.11671
 N435 N 0.41082 0.51695 -0.11367
 N436 N 0.39354 0.51841 -0.14642
 N437 N 1.19591 0.67767 -0.30956
 C438 C 1.17226 0.65494 -0.31069
 N439 N 1.16135 0.64424 -0.35873
 N440 N 1.17349 0.65599 -0.40429
 C441 C 1.19705 0.67898 -0.40382
 N442 N 1.20811 0.68943 -0.35530
 C443 C 1.15767 0.64303 -0.26235
 C444 C 1.14344 0.63200 -0.22451
 C445 C 1.12430 0.61761 -0.18339
 N446 N 1.12907 0.60409 -0.14483
 N447 N 1.10989 0.58807 -0.11117
 C448 C 1.08530 0.58497 -0.11517
 N449 N 1.08075 0.59880 -0.15339
 N450 N 1.09991 0.61483 -0.18686
 N451 N 0.83544 0.47435 -0.36266
 C452 C 0.82916 0.48083 -0.31483
 N453 N 0.80891 0.48589 -0.31236
 N454 N 0.79559 0.48479 -0.35668
 C455 C 0.80213 0.47870 -0.40498
 N456 N 0.82219 0.47331 -0.40685
 C457 C 0.84552 0.48460 -0.26905
 C458 C 0.86090 0.48837 -0.23334
 C459 C 0.88080 0.49330 -0.19417
 N460 N 0.87550 0.47678 -0.15177
 N461 N 0.89477 0.48015 -0.11843
 C462 C 0.91996 0.50008 -0.12655
 N463 N 0.92512 0.51666 -0.16883
 N464 N 0.90586 0.51331 -0.20206
 N465 N 0.50176 0.31274 -0.30332
 C466 C 0.50234 0.33625 -0.30351
 N467 N 0.50457 0.34856 -0.35093
 N468 N 0.50634 0.33786 -0.39681
 C469 C 0.50589 0.31436 -0.39725
 N470 N 0.50354 0.30202 -0.34936
 C471 C 0.50047 0.34825 -0.25468
 C472 C 0.49876 0.35988 -0.21630
 C473 C 0.49630 0.37543 -0.17453
 N474 N 0.47471 0.37831 -0.17336
 N475 N 0.47376 0.39580 -0.14057
 C476 C 0.49436 0.41106 -0.10774
 N477 N 0.51583 0.40785 -0.10822
 N478 N 0.51682 0.39036 -0.14125
 N479 N 0.67776 0.19404 -0.30732
 C480 C 0.65294 0.17289 -0.30896
 N481 N 0.64046 0.16499 -0.35684
 N482 N 0.65247 0.17759 -0.40186
 C483 C 0.67744 0.19859 -0.40079
 N484 N 0.68978 0.20672 -0.35249
 C485 C 0.64068 0.15722 -0.26202
 C486 C 0.62931 0.14216 -0.22555
 C487 C 0.61457 0.12225 -0.18603
 N488 N 0.61038 0.09745 -0.19319
 N489 N 0.59436 0.07794 -0.16038
 C490 C 0.58195 0.08255 -0.11921
 N491 N 0.58639 0.10751 -0.11169
 N492 N 0.60240 0.12705 -0.14467
 N493 N 1.15778 0.50984 -0.35510
 C494 C 1.16945 0.51116 -0.30739
 N495 N 1.19398 0.51409 -0.30698
 N496 N 1.20631 0.51543 -0.35309
 C497 C 1.19456 0.51384 -0.40128
 N498 N 1.17007 0.51115 -0.40103
 C499 C 1.15513 0.50823 -0.25853
 C500 C 1.14123 0.50508 -0.22013
 C501 C 1.12263 0.50073 -0.17805
 N502 N 1.12765 0.51978 -0.14119
 N503 N 1.10880 0.51711 -0.10715
 C504 C 1.08430 0.49535 -0.10902
 N505 N 1.07952 0.47618 -0.14544
 N506 N 1.09835 0.47881 -0.17931
 N507 N 0.49462 0.68389 -0.31054
 C508 C 0.49240 0.65963 -0.31111
 N509 N 0.48867 0.64693 -0.35850
 N510 N 0.48709 0.65800 -0.40397
 C511 C 0.48923 0.68228 -0.40413
 N512 N 0.49300 0.69500 -0.35624
 C513 C 0.49464 0.64733 -0.26304
 C514 C 0.49672 0.63525 -0.22588
 C515 C 0.49969 0.61921 -0.18595
 N516 N 0.52015 0.61459 -0.18996
 N517 N 0.52158 0.59719 -0.15766
 C518 C 0.50256 0.58370 -0.12027
 N519 N 0.48217 0.58853 -0.11584
 N520 N 0.48070 0.60593 -0.14835
 N521 N 0.31216 -0.18730 -0.30531
 C522 C 0.33479 -0.16353 -0.30612
 N523 N 0.34626 -0.15287 -0.35394
 N524 N 0.33560 -0.16557 -0.39957
 C525 C 0.31300 -0.18943 -0.39930
 N526 N 0.30146 -0.20004 -0.35113
 C527 C 0.34701 -0.14956 -0.25751
 C528 C 0.35888 -0.13621 -0.21933
 C529 C 0.37473 -0.11837 -0.17760
 N530 N 0.37817 -0.09365 -0.17619
 N531 N 0.39576 -0.07555 -0.14306
 C532 C 0.41058 -0.08148 -0.11014
 N533 N 0.40682 -0.10640 -0.11096
 N534 N 0.38924 -0.12453 -0.14429
 N535 N 0.49683 -0.19062 0.30038
 C536 C 0.49656 -0.16753 0.30027
 N537 N 0.49483 -0.15708 0.34763
 N538 N 0.49325 -0.16936 0.39371
 C539 C 0.49341 -0.19254 0.39434
 N540 N 0.49524 -0.20293 0.34664
 C541 C 0.49831 -0.15379 0.25122
 C542 C 0.50002 -0.14048 0.21270
 C543 C 0.50259 -0.12245 0.17077
 N544 N 0.52458 -0.09828 0.16867
 N545 N 0.52576 -0.07971 0.13589
 C546 C 0.50499 -0.08462 0.10396
 N547 N 0.48309 -0.10904 0.10534
 N548 N 0.48188 -0.12763 0.13838
 N549 N 0.36044 0.52733 0.35708
 C550 C 0.34744 0.52081 0.30960
 N551 N 0.32204 0.51548 0.30806
 N552 N 0.30996 0.51638 0.35293
 C553 C 0.32283 0.52250 0.40088
 N554 N 0.34838 0.52816 0.40181
 C555 C 0.35988 0.51709 0.26326
 C556 C 0.37136 0.51327 0.22717
 C557 C 0.38615 0.50809 0.18775
 N558 N 0.39808 0.52488 0.14599
 N559 N 0.41391 0.52125 0.11274
 C560 C 0.41840 0.50077 0.12030
 N561 N 0.40625 0.48391 0.16190
 N562 N 0.39041 0.48751 0.19502
 N563 N 1.18812 0.68662 0.30543
 C564 C 1.16564 0.66271 0.30587
 N565 N 1.15617 0.65010 0.35333
 N566 N 1.16877 0.66092 0.39896
 C567 C 1.19132 0.68482 0.39906
 N568 N 1.20075 0.69746 0.35125
 C569 C 1.15152 0.65061 0.25733
 C570 C 1.13803 0.63891 0.21919
 C571 C 1.12002 0.62335 0.17746
 N572 N 1.12580 0.60872 0.14358
 N573 N 1.10750 0.59145 0.11010
 C574 C 1.08277 0.58814 0.10971
 N575 N 1.07722 0.60307 0.14321
 N576 N 1.09550 0.62035 0.17648
 N577 N 0.50552 0.18839 0.31224
 C578 C 0.50961 0.16747 0.31316
 N579 N 0.51505 0.15983 0.36048
 N580 N 0.51643 0.17266 0.40556
 C581 C 0.51234 0.19359 0.40525
 N582 N 0.50694 0.20128 0.35753
 C583 C 0.50724 0.15255 0.26571
 C584 C 0.50505 0.13816 0.22901
 C585 C 0.50200 0.11898 0.18952
 N586 N 0.52060 0.12478 0.15102
 N587 N 0.51901 0.10588 0.11848
 C588 C 0.49888 0.08056 0.12379
 N589 N 0.48026 0.07494 0.16216
 N590 N 0.48182 0.09380 0.19449
 N591 N 0.67991 0.48802 0.30670
 C592 C 0.65620 0.48695 0.30795
 N593 N 0.64404 0.48420 0.35585
 N594 N 0.65529 0.48277 0.40121
 C595 C 0.67914 0.48404 0.40047
 N596 N 0.69116 0.48655 0.35218
 C597 C 0.64459 0.49033 0.26006
 C598 C 0.63379 0.49376 0.22224
 C599 C 0.61958 0.49831 0.18064
 N600 N 0.61666 0.51989 0.18317
 N601 N 0.60061 0.52266 0.14928
 C602 C 0.58692 0.50395 0.11160
 N603 N 0.59020 0.48253 0.10856
 N604 N 0.60623 0.47973 0.14259
 N605 N 0.83299 0.36215 0.35577
 C606 C 0.82611 0.34905 0.30838
 N607 N 0.80591 0.32369 0.30724
 N608 N 0.79318 0.31175 0.35241
 C609 C 0.80034 0.32471 0.40025
 N610 N 0.82035 0.35022 0.40081
 C611 C 0.84209 0.36124 0.26175
 C612 C 0.85734 0.37247 0.22548
 C613 C 0.87739 0.38699 0.18606
 N614 N 0.90208 0.39098 0.19359
 N615 N 0.92167 0.40667 0.16059
 C616 C 0.91725 0.41893 0.11887
 N617 N 0.89242 0.41469 0.11102
 N618 N 0.87280 0.39900 0.14416
   
