data_POSCAR
  _audit_creation_date              2014-09-24
  _audit_creation_method            'ToBaCCo'
  _symmetry_space_group_name_H-M    'P1'
  _symmetry_Int_Tables_number       1
  _symmetry_cell_setting            triclinic
  loop_
  _symmetry_equiv_pos_as_xyz
 x,y,z
_cell_length_a 42.9030
_cell_length_b 42.6044
_cell_length_c 7.6015
_cell_angle_alpha 89.852300
_cell_angle_beta 90.701800
_cell_angle_gamma 89.989600
loop_
  _atom_site_label
  _atom_site_type_symbol
  _atom_site_fract_x
  _atom_site_fract_y
  _atom_site_fract_z
C1 C 0.18761 0.21950 0.06740
 C2 C 0.17268 0.24815 0.03199
 C3 C 0.18668 0.27668 0.07424
 C4 C 0.21728 0.27735 0.14320
 C5 C 0.23369 0.24884 0.16949
 C6 C 0.21877 0.21977 0.13366
 C7 C 0.23583 0.19191 0.15891
 C8 C 0.26604 0.19243 0.22623
 C9 C 0.28157 0.22094 0.25966
 C10 C 0.26490 0.24944 0.23423
 C11 C 0.23163 0.30583 0.18894
 C12 C 0.26185 0.30640 0.25599
 C13 C 0.27916 0.27858 0.27594
 C14 C 0.31011 0.27910 0.34102
 C15 C 0.32591 0.25089 0.37011
 C16 C 0.31261 0.22178 0.32746
 H17 H 0.22614 0.16922 0.12627
 H18 H 0.27678 0.17000 0.25357
 H19 H 0.21957 0.32802 0.17385
 H20 H 0.27135 0.32895 0.29344
 H21 H 0.14865 0.24837 -0.01454
 H22 H 0.34996 0.25184 0.41578
 C23 C 0.68558 0.22026 0.26955
 C24 C 0.66954 0.24896 0.26370
 C25 C 0.68511 0.27774 0.27569
 C26 C 0.71808 0.27833 0.28286
 C27 C 0.73497 0.24965 0.28295
 C28 C 0.71875 0.22052 0.27769
 C29 C 0.73621 0.19258 0.26855
 C30 C 0.76864 0.19305 0.27002
 C31 C 0.78512 0.22147 0.27935
 C32 C 0.76818 0.25011 0.28590
 C33 C 0.73459 0.30681 0.28978
 C34 C 0.76707 0.30727 0.28986
 C35 C 0.78435 0.27925 0.28718
 C36 C 0.81733 0.27951 0.27930
 C37 C 0.83354 0.25102 0.27502
 C38 C 0.81809 0.22213 0.27394
 H39 H 0.72499 0.16998 0.25479
 H40 H 0.78067 0.17081 0.26050
 H41 H 0.72252 0.32911 0.29188
 H42 H 0.77851 0.32990 0.29079
 H43 H 0.64423 0.24899 0.26218
 H44 H 0.85875 0.25137 0.26481
 C45 C 0.68431 0.72090 0.69552
 C46 C 0.66888 0.74943 0.66974
 C47 C 0.68423 0.77809 0.69038
 C48 C 0.71626 0.77848 0.73636
 C49 C 0.73236 0.74972 0.76205
 C50 C 0.71634 0.72080 0.74142
 C51 C 0.73284 0.69260 0.76518
 C52 C 0.76404 0.69274 0.81544
 C53 C 0.78044 0.72107 0.83619
 C54 C 0.76455 0.74988 0.80828
 C55 C 0.73264 0.80680 0.75623
 C56 C 0.76387 0.80697 0.80615
 C57 C 0.78061 0.77882 0.82911
 C58 C 0.81246 0.77869 0.88270
 C59 C 0.82729 0.74994 0.91545
 C60 C 0.81217 0.72135 0.88772
 H61 H 0.72185 0.67002 0.74613
 H62 H 0.77503 0.67027 0.83936
 H63 H 0.72150 0.82926 0.73490
 H64 H 0.77446 0.82962 0.82924
 H65 H 0.64421 0.74933 0.63627
 H66 H 0.85185 0.74968 0.95162
 C67 C 0.31571 0.77984 0.77970
 C68 C 0.33173 0.75126 0.78508
 C69 C 0.31603 0.72250 0.78137
 C70 C 0.28302 0.72212 0.77581
 C71 C 0.26626 0.75090 0.77179
 C72 C 0.28270 0.77986 0.77400
 C73 C 0.26580 0.80798 0.76094
 C74 C 0.23346 0.80780 0.74468
 C75 C 0.21648 0.77948 0.74258
 C76 C 0.23311 0.75070 0.75479
 C77 C 0.26644 0.69380 0.76468
 C78 C 0.23410 0.69360 0.74883
 C79 C 0.21681 0.72173 0.74483
 C80 C 0.18393 0.72160 0.71719
 C81 C 0.16837 0.75030 0.69093
 C82 C 0.18361 0.77921 0.71478
 H83 H 0.27748 0.83048 0.75902
 H84 H 0.22201 0.83022 0.72688
 H85 H 0.27837 0.67142 0.76402
 H86 H 0.22290 0.67103 0.73279
 H87 H 0.35702 0.75139 0.78308
 H88 H 0.14320 0.75015 0.67449
 O89 O 1.03271 -0.03503 0.04832
 O90 O 0.97505 0.02424 0.18555
 O91 O 0.97306 -0.03560 0.10717
 O92 O 1.03463 0.02411 0.12509
 O93 O 1.02713 0.03352 -0.15770
 O94 O 0.96431 -0.02488 -0.17291
 O95 O 0.96813 0.03462 -0.09626
 O96 O 1.02393 -0.02618 -0.23372
 Cu97 Cu 1.00481 -0.00699 0.14336
 Cu98 Cu 0.99477 0.00552 -0.19188
 C99 C 1.03832 -0.04094 -0.11167
 C100 C 0.96214 0.04030 0.06346
 C101 C 0.95821 -0.04057 -0.03546
 C102 C 1.04136 0.03913 -0.01380
 O103 O 0.52905 0.46279 0.60527
 O104 O 0.47168 0.52323 0.72821
 O105 O 0.46906 0.46434 0.63621
 O106 O 0.53211 0.52174 0.69619
 O107 O 0.52795 0.53292 0.41360
 O108 O 0.46494 0.47565 0.35377
 O109 O 0.46821 0.53446 0.44562
 O110 O 0.52559 0.47398 0.32267
 Cu111 Cu 0.50105 0.49140 0.69315
 Cu112 Cu 0.49611 0.50578 0.35717
 C113 C 0.53706 0.45760 0.44793
 C114 C 0.46033 0.53972 0.60312
 C115 C 0.45637 0.45990 0.48679
 C116 C 0.54050 0.53758 0.56310
 O117 O 0.02614 0.52589 -0.22093
 O118 O -0.02963 0.46515 -0.08303
 O119 O -0.03349 0.52456 -0.16367
 O120 O 0.02995 0.46658 -0.13827
 O121 O 0.03512 0.47526 0.14678
 O122 O -0.02506 0.53596 0.11553
 O123 O -0.02442 0.47648 0.19834
 O124 O 0.03476 0.53452 0.06125
 Cu125 Cu -0.00277 0.49415 -0.17821
 Cu126 Cu 0.00607 0.50709 0.15711
 C127 C 0.04046 0.54053 -0.09881
 C128 C -0.03672 0.46010 0.07605
 C129 C -0.03975 0.54059 -0.02797
 C130 C 0.04283 0.46052 0.00918
 O131 O 0.47236 1.03764 0.61231
 O132 O 0.53247 0.97721 0.67298
 O133 O 0.53278 1.03560 0.57867
 O134 O 0.47218 0.97834 0.70658
 O135 O 0.46828 0.96643 0.42538
 O136 O 0.52662 1.02523 0.29627
 O137 O 0.52800 0.96627 0.39037
 O138 O 0.46637 1.02532 0.33251
 Cu139 Cu 0.50297 1.00889 0.66943
 Cu140 Cu 0.49661 0.99431 0.33442
 C141 C 0.45915 1.04200 0.46407
 C142 C 0.54045 0.96123 0.54009
 C143 C 0.54005 1.04039 0.41956
 C144 C 0.46038 0.96177 0.58347
 C145 C 1.12991 0.14000 0.02259
 C146 C 1.13207 0.16094 -0.11963
 C147 C 1.15176 0.18699 -0.10518
 C148 C 1.16983 0.19187 0.04859
 C149 C 1.16738 0.17046 0.18984
 C150 C 1.14741 0.14455 0.17761
 C151 C 1.10822 0.11330 0.01079
 C152 C 1.10511 0.09305 0.15558
 C153 C 1.08360 0.06837 0.14589
 C154 C 1.06538 0.06389 -0.00743
 C155 C 1.06926 0.08407 -0.15256
 C156 C 1.09045 0.10898 -0.14358
 C157 C 1.14405 0.12353 0.31878
 C158 C 1.12320 0.09822 0.30806
 C159 C 1.11414 0.15568 -0.27252
 C160 C 1.09373 0.13006 -0.28450
 H161 H 1.15740 0.12686 0.43923
 H162 H 1.12102 0.08275 0.42061
 H163 H 1.11575 0.17161 -0.38338
 H164 H 1.08013 0.12695 -0.40420
 H165 H 1.15332 0.20335 -0.21430
 H166 H 1.17995 0.17475 0.31212
 H167 H 1.08080 0.05293 0.25816
 H168 H 1.05525 0.08092 -0.27084
 C169 C 0.62716 0.63957 0.63353
 C170 C 0.63065 0.66052 0.49209
 C171 C 0.65022 0.68651 0.51216
 C172 C 0.66580 0.69188 0.67294
 C173 C 0.66191 0.67089 0.81426
 C174 C 0.64289 0.64436 0.79432
 C175 C 0.60606 0.61254 0.61414
 C176 C 0.60206 0.59185 0.75635
 C177 C 0.58100 0.56681 0.73899
 C178 C 0.56424 0.56248 0.58043
 C179 C 0.56910 0.58315 0.43834
 C180 C 0.58973 0.60834 0.45494
 C181 C 0.63890 0.62279 0.93228
 C182 C 0.61880 0.59696 0.91367
 C183 C 0.61405 0.65540 0.33457
 C184 C 0.59384 0.62976 0.31648
 H185 H 0.65122 0.62603 1.05614
 H186 H 0.61606 0.58110 1.02406
 H187 H 0.61650 0.67148 0.22490
 H188 H 0.58114 0.62682 0.19357
 H189 H 0.65302 0.70292 0.40415
 H190 H 0.67344 0.67545 0.93933
 H191 H 0.57739 0.55103 0.84897
 H192 H 0.55625 0.58016 0.31583
 C193 C -0.12365 0.35908 0.19529
 C194 C -0.13896 0.35630 0.35693
 C195 C -0.15923 0.33075 0.38415
 C196 C -0.16418 0.30848 0.24981
 C197 C -0.14907 0.31207 0.08794
 C198 C -0.12869 0.33716 0.06013
 C199 C -0.10149 0.38512 0.16759
 C200 C -0.08607 0.38746 0.00649
 C201 C -0.06513 0.41208 -0.02017
 C202 C -0.05902 0.43431 0.11307
 C203 C -0.07437 0.43148 0.27553
 C204 C -0.09588 0.40692 0.30290
 C205 C -0.11277 0.34037 -0.09908
 C206 C -0.09175 0.36505 -0.12523
 C207 C -0.13318 0.37883 0.48834
 C208 C -0.11196 0.40361 0.46210
 H209 H -0.11646 0.32357 -0.20413
 H210 H -0.07977 0.36656 -0.24960
 H211 H -0.14498 0.37717 0.61315
 H212 H -0.10803 0.42022 0.56779
 H213 H -0.17055 0.32774 0.50977
 H214 H -0.15271 0.29477 -0.01479
 H215 H -0.05336 0.41373 -0.14528
 H216 H -0.06989 0.44844 0.37879
 C217 C 0.37440 0.85977 0.69882
 C218 C 0.36992 0.83770 0.56380
 C219 C 0.34996 0.81224 0.59117
 C220 C 0.33458 0.80859 0.75206
 C221 C 0.33894 0.83099 0.88622
 C222 C 0.35892 0.85679 0.85984
 C223 C 0.39608 0.88622 0.67156
 C224 C 0.40119 0.90813 0.80695
 C225 C 0.42238 0.93300 0.78037
 C226 C 0.43790 0.93604 0.61856
 C227 C 0.43215 0.91378 0.48489
 C228 C 0.41157 0.88884 0.51084
 C229 C 0.36418 0.87944 0.99129
 C230 C 0.38501 0.90456 0.96564
 C231 C 0.38588 0.84121 0.40490
 C232 C 0.40639 0.86633 0.37902
 H233 H 0.35227 0.87760 1.11570
 H234 H 0.38857 0.92124 1.07134
 H235 H 0.38258 0.82434 0.29986
 H236 H 0.41841 0.86808 0.25484
 H237 H 0.34667 0.79487 0.48850
 H238 H 0.32727 0.82798 1.01080
 H239 H 0.42659 0.94995 0.88401
 H240 H 0.44406 0.91557 0.36026
 C241 C -0.12890 0.64094 -0.06752
 C242 C -0.13216 0.66105 0.07731
 C243 C -0.15246 0.68665 0.06386
 C244 C -0.16894 0.69246 -0.09384
 C245 C -0.16526 0.67228 -0.23837
 C246 C -0.14556 0.64616 -0.22505
 C247 C -0.10700 0.61441 -0.05558
 C248 C -0.10332 0.59460 -0.20127
 C249 C -0.08164 0.57003 -0.19110
 C250 C -0.06379 0.56532 -0.03654
 C251 C -0.06823 0.58512 0.10921
 C252 C -0.08965 0.60982 0.10003
 C253 C -0.14176 0.62548 -0.36677
 C254 C -0.12101 0.60008 -0.35500
 C255 C -0.11458 0.65553 0.23122
 C256 C -0.09361 0.63035 0.24227
 H257 H -0.15476 0.62910 -0.48821
 H258 H -0.11850 0.58486 -0.46793
 H259 H -0.11683 0.67096 0.34344
 H260 H -0.08020 0.62708 0.36264
 H261 H -0.15504 0.70248 0.17425
 H262 H -0.17740 0.67724 -0.36129
 H263 H -0.07840 0.55490 -0.30387
 H264 H -0.05459 0.58175 0.22878
 C265 C 0.37190 1.14358 0.38908
 C266 C 0.35538 1.14754 0.23008
 C267 C 0.33530 1.17329 0.21039
 C268 C 0.33143 1.19486 0.34923
 C269 C 0.34863 1.19058 0.50693
 C270 C 0.36864 1.16492 0.52804
 C271 C 0.39351 1.11694 0.40938
 C272 C 0.41020 1.11321 0.56798
 C273 C 0.43108 1.08819 0.58585
 C274 C 0.43573 1.06720 0.44562
 C275 C 0.41868 1.07115 0.28755
 C276 C 0.39744 1.09600 0.26892
 C277 C 0.38564 1.16032 0.68502
 C278 C 0.40607 1.13486 0.70474
 C279 C 0.35960 1.12590 0.09323
 C280 C 0.38032 1.10058 0.11221
 H281 H 0.38321 1.17660 0.79333
 H282 H 0.41891 1.13223 0.82752
 H283 H 0.34692 1.12867 -0.02996
 H284 H 0.38312 1.08459 0.00292
 H285 H 0.32348 1.17713 0.08525
 H286 H 0.34597 1.20699 0.61461
 H287 H 0.44414 1.08545 0.70794
 H288 H 0.42208 1.05510 0.17902
 C289 C 1.12523 -0.14166 -0.22921
 C290 C 1.12271 -0.15989 -0.38228
 C291 C 1.14211 -0.18627 -0.40096
 C292 C 1.16505 -0.19345 -0.27199
 C293 C 1.16745 -0.17442 -0.12066
 C294 C 1.14728 -0.14892 -0.09723
 C295 C 1.10384 -0.11490 -0.20443
 C296 C 1.10528 -0.09787 -0.04680
 C297 C 1.08415 -0.07334 -0.02046
 C298 C 1.06179 -0.06542 -0.15074
 C299 C 1.06115 -0.08217 -0.31041
 C300 C 1.08193 -0.10730 -0.33690
 C301 C 1.14828 -0.13097 0.05752
 C302 C 1.12750 -0.10601 0.08280
 C303 C 1.10065 -0.15149 -0.51253
 C304 C 1.08080 -0.12551 -0.49090
 H305 H 1.16499 -0.13653 0.16106
 H306 H 1.12875 -0.09306 0.20520
 H307 H 1.09866 -0.16515 -0.63217
 H308 H 1.06412 -0.11995 -0.59448
 H309 H 1.13990 -0.20079 -0.51742
 H310 H 1.18407 -0.18039 -0.01721
 H311 H 1.08496 -0.06052 0.10259
 H312 H 1.04385 -0.07644 -0.41049
 C313 C 0.62458 0.35651 0.34655
 C314 C 0.62933 0.33484 0.48397
 C315 C 0.64994 0.30978 0.46015
 C316 C 0.66569 0.30617 0.30049
 C317 C 0.66102 0.32816 0.16394
 C318 C 0.64041 0.35354 0.18670
 C319 C 0.60227 0.38254 0.37000
 C320 C 0.59699 0.40406 0.23227
 C321 C 0.57535 0.42861 0.25540
 C322 C 0.55953 0.43175 0.41608
 C323 C 0.56535 0.40983 0.55206
 C324 C 0.58645 0.38519 0.52959
 C325 C 0.63489 0.37577 0.05272
 C326 C 0.61351 0.40050 0.07484
 C327 C 0.61299 0.33834 0.64156
 C328 C 0.59189 0.36309 0.66390
 H329 H 0.64704 0.37391 -0.07089
 H330 H 0.60982 0.41691 -0.03256
 H331 H 0.61648 0.32177 0.74843
 H332 H 0.57965 0.36486 0.78730
 H333 H 0.65342 0.29267 0.56451
 H334 H 0.67294 0.32514 0.04023
 H335 H 0.57111 0.44533 0.15010
 H336 H 0.55324 0.41174 0.67593
 C337 C 0.87018 -0.14186 -0.07387
 C338 C 0.85268 -0.14644 -0.22900
 C339 C 0.83276 -0.17241 -0.24139
 C340 C 0.83051 -0.19387 -0.10043
 C341 C 0.84865 -0.18904 0.05308
 C342 C 0.86816 -0.16288 0.06805
 C343 C 0.89167 -0.11501 -0.06144
 C344 C 0.90933 -0.11062 0.09327
 C345 C 0.93037 -0.08559 0.10276
 C346 C 0.93423 -0.06536 -0.04218
 C347 C 0.91605 -0.06988 -0.19572
 C348 C 0.89468 -0.09468 -0.20594
 C349 C 0.88595 -0.15753 0.22137
 C350 C 0.90613 -0.13175 0.23401
 C351 C 0.85593 -0.12531 -0.36980
 C352 C 0.87665 -0.09990 -0.35864
 H353 H 0.88438 -0.17349 0.33215
 H354 H 0.91962 -0.12855 0.35406
 H355 H 0.84261 -0.12865 -0.49031
 H356 H 0.87877 -0.08437 -0.47100
 H357 H 0.81995 -0.17662 -0.36296
 H358 H 0.84718 -0.20548 0.16194
 H359 H 0.94430 -0.08239 0.22132
 H360 H 0.91882 -0.05440 -0.30788
 C361 C 0.36693 0.36039 0.41394
 C362 C 0.36291 0.33934 0.55443
 C363 C 0.34302 0.31360 0.53230
 C364 C 0.32779 0.30852 0.37006
 C365 C 0.33203 0.32982 0.23044
 C366 C 0.35130 0.35608 0.25250
 C367 C 0.38872 0.38685 0.43438
 C368 C 0.39338 0.40749 0.29265
 C369 C 0.41516 0.43186 0.31063
 C370 C 0.43207 0.43557 0.46918
 C371 C 0.42658 0.41498 0.61088
 C372 C 0.40515 0.39045 0.59373
 C373 C 0.35587 0.37768 0.11530
 C374 C 0.37657 0.40297 0.13498
 C375 C 0.37952 0.34394 0.71246
 C376 C 0.40037 0.36905 0.73160
 H377 H 0.34359 0.37481 -0.00900
 H378 H 0.37979 0.41883 0.02500
 H379 H 0.37665 0.32780 0.82149
 H380 H 0.41311 0.37154 0.85470
 H381 H 0.34000 0.29699 0.63910
 H382 H 0.32089 0.32548 0.10401
 H383 H 0.41921 0.44760 0.20101
 H384 H 0.43952 0.41753 0.73341
 C385 C 0.12650 0.64186 -0.22180
 C386 C 0.14842 0.64953 -0.09011
 C387 C 0.16829 0.67524 -0.11507
 C388 C 0.16570 0.69407 -0.26769
 C389 C 0.14289 0.68646 -0.39638
 C390 C 0.12381 0.65988 -0.37612
 C391 C 0.10539 0.61491 -0.19538
 C392 C 0.08362 0.60693 -0.32757
 C393 C 0.06310 0.58165 -0.29953
 C394 C 0.06381 0.56511 -0.13863
 C395 C 0.08603 0.57340 -0.00861
 C396 C 0.10695 0.59809 -0.03654
 C397 C 0.10190 0.65108 -0.50606
 C398 C 0.08235 0.62492 -0.48288
 C399 C 0.14958 0.63177 0.06581
 C400 C 0.12905 0.60662 0.09263
 H401 H 0.09980 0.66456 -0.62666
 H402 H 0.06577 0.61904 -0.58628
 H403 H 0.16619 0.63763 0.16910
 H404 H 0.13041 0.59383 0.21589
 H405 H 0.18482 0.68152 -0.01191
 H406 H 0.14055 0.70081 -0.51384
 H407 H 0.04591 0.57564 -0.39951
 H408 H 0.08688 0.56075 0.11535
 C409 C 0.62819 1.14019 0.31169
 C410 C 0.62439 1.16036 0.16685
 C411 C 0.64364 1.18689 0.15296
 C412 C 0.66767 1.19246 0.27776
 C413 C 0.67154 1.17143 0.42012
 C414 C 0.65147 1.14566 0.43955
 C415 C 0.60673 1.11337 0.33288
 C416 C 0.60921 1.09450 0.48397
 C417 C 0.58772 1.07014 0.50838
 C418 C 0.56417 1.06421 0.38186
 C419 C 0.56263 1.08265 0.22798
 C420 C 0.58358 1.10769 0.20434
 C421 C 0.65365 1.12575 0.58686
 C422 C 0.63271 1.10077 0.60942
 C423 C 0.60113 1.15382 0.04024
 C424 C 0.58128 1.12778 0.05781
 H425 H 0.67135 1.12983 0.68710
 H426 H 0.63485 1.08634 0.72657
 H427 H 0.59814 1.16906 -0.07302
 H428 H 0.56357 1.12373 -0.04235
 H429 H 0.64033 1.20297 0.04350
 H430 H 0.68911 1.17608 0.52051
 H431 H 0.58910 1.05595 0.62686
 H432 H 0.54433 1.07844 0.13131
 C433 C 0.12854 0.35755 0.05105
 C434 C 0.14685 0.35007 -0.09519
 C435 C 0.16624 0.32360 -0.08728
 C436 C 0.16715 0.30501 0.06537
 C437 C 0.14898 0.31284 0.21104
 C438 C 0.12951 0.33913 0.20461
 C439 C 0.10755 0.38483 0.04225
 C440 C 0.08916 0.39214 0.18816
 C441 C 0.06885 0.41777 0.17822
 C442 C 0.06619 0.43539 0.02207
 C443 C 0.08477 0.42786 -0.12317
 C444 C 0.10582 0.40273 -0.11301
 C445 C 0.11074 0.34714 0.34765
 C446 C 0.09094 0.37329 0.33973
 C447 C 0.14510 0.36901 -0.24646
 C448 C 0.12487 0.39489 -0.25535
 H449 H 0.11126 0.33300 0.46635
 H450 H 0.07671 0.37863 0.45258
 H451 H 0.15924 0.36360 -0.35958
 H452 H 0.12399 0.40874 -0.37501
 H453 H 0.18038 0.31727 -0.19901
 H454 H 0.14991 0.29826 0.32820
 H455 H 0.05430 0.42334 0.28956
 H456 H 0.08279 0.44149 -0.24345
 C457 C 0.62673 0.85900 0.61963
 C458 C 0.64239 0.85454 0.78112
 C459 C 0.66152 0.82816 0.80359
 C460 C 0.66559 0.80694 0.66423
 C461 C 0.65006 0.81192 0.50271
 C462 C 0.63039 0.83783 0.47999
 C463 C 0.60556 0.88594 0.59761
 C464 C 0.58932 0.88990 0.43770
 C465 C 0.56867 0.91510 0.41865
 C466 C 0.56382 0.93601 0.55899
 C467 C 0.58049 0.93187 0.71815
 C468 C 0.60147 0.90685 0.73804
 C469 C 0.61389 0.84268 0.32164
 C470 C 0.59361 0.86826 0.30103
 C471 C 0.63824 0.87630 0.91730
 C472 C 0.61809 0.90203 0.89618
 H473 H 0.61650 0.82646 0.21321
 H474 H 0.58102 0.87100 0.17751
 H475 H 0.65049 0.87329 1.04166
 H476 H 0.61524 0.91807 1.00523
 H477 H 0.67301 0.82387 0.92921
 H478 H 0.65299 0.79532 0.39625
 H479 H 0.55589 0.91799 0.29574
 H480 H 0.57692 0.94787 0.82675
 C481 C 0.87745 0.14287 0.18818
 C482 C 0.86213 0.14546 0.34984
 C483 C 0.84202 0.17106 0.37768
 C484 C 0.83731 0.19369 0.24435
 C485 C 0.85261 0.19048 0.08291
 C486 C 0.87271 0.16519 0.05403
 C487 C 0.89912 0.11650 0.15907
 C488 C 0.91433 0.11416 -0.00259
 C489 C 0.93470 0.08911 -0.03078
 C490 C 0.94045 0.06650 0.10162
 C491 C 0.92536 0.06938 0.26467
 C492 C 0.90439 0.09431 0.29344
 C493 C 0.88848 0.16202 -0.10563
 C494 C 0.90899 0.13696 -0.13329
 C495 C 0.86762 0.12258 0.48038
 C496 C 0.88845 0.09756 0.45304
 H497 H 0.88501 0.17908 -0.21002
 H498 H 0.92081 0.13544 -0.25813
 H499 H 0.85585 0.12414 0.60530
 H500 H 0.89215 0.08065 0.55798
 H501 H 0.83046 0.17374 0.50276
 H502 H 0.84908 0.20801 -0.01914
 H503 H 0.94634 0.08742 -0.15624
 H504 H 0.92958 0.05211 0.36718
 C505 C 0.37517 0.64268 0.70863
 C506 C 0.37084 0.66455 0.57181
 C507 C 0.35081 0.69005 0.59660
 C508 C 0.33521 0.69389 0.75662
 C509 C 0.33948 0.67171 0.89262
 C510 C 0.35952 0.64590 0.86891
 C511 C 0.39679 0.61611 0.68394
 C512 C 0.40167 0.59438 0.82106
 C513 C 0.42269 0.56933 0.79681
 C514 C 0.43828 0.56590 0.63557
 C515 C 0.43285 0.58803 0.50015
 C516 C 0.41240 0.61317 0.52380
 C517 C 0.36461 0.62345 1.00224
 C518 C 0.38537 0.59823 0.97904
 C519 C 0.38695 0.66076 0.41368
 C520 C 0.40742 0.63551 0.39020
 H521 H 0.35259 0.62551 1.12617
 H522 H 0.38877 0.58167 1.08601
 H523 H 0.38379 0.67748 0.30726
 H524 H 0.41951 0.63351 0.26643
 H525 H 0.34759 0.70724 0.49245
 H526 H 0.32765 0.67488 1.01647
 H527 H 0.42667 0.55248 0.90178
 H528 H 0.44483 0.58591 0.37595
   
