data_POSCAR
  _audit_creation_date              2014-09-24
  _audit_creation_method            'ToBaCCo'
  _symmetry_space_group_name_H-M    'P1'
  _symmetry_Int_Tables_number       1
  _symmetry_cell_setting            triclinic
  loop_
  _symmetry_equiv_pos_as_xyz
 x,y,z
_cell_length_a 47.4436
_cell_length_b 47.4511
_cell_length_c 39.9050
_cell_angle_alpha 90.102000
_cell_angle_beta 89.988100
_cell_angle_gamma 90.841400
loop_
  _atom_site_label
  _atom_site_type_symbol
  _atom_site_fract_x
  _atom_site_fract_y
  _atom_site_fract_z
C1 C -0.07525 0.28127 0.00342
 C2 C -0.06059 0.28464 0.03394
 C3 C -0.03088 0.28455 0.03311
 C4 C -0.01598 0.27861 0.00343
 C5 C -0.03160 0.27331 -0.02605
 C6 C -0.06116 0.27568 -0.02687
 C7 C 0.01573 0.27763 0.00315
 C8 C 0.03095 0.28162 -0.02694
 C9 C 0.06028 0.27863 -0.02807
 C10 C 0.07504 0.27399 0.00173
 C11 C 0.06076 0.27116 0.03230
 C12 C 0.03115 0.27209 0.03269
 H13 H -0.09801 0.27985 0.00366
 H14 H -0.01941 0.29001 0.05561
 H15 H -0.02065 0.26816 -0.04884
 H16 H 0.02034 0.28708 -0.04992
 H17 H 0.09768 0.27135 0.00098
 H18 H 0.02042 0.26836 0.05617
 C19 C 0.42454 0.77472 0.49823
 C20 C 0.43976 0.77899 0.52793
 C21 C 0.46923 0.78153 0.52649
 C22 C 0.48398 0.77758 0.49616
 C23 C 0.46807 0.77250 0.46675
 C24 C 0.43844 0.77182 0.46747
 C25 C 0.51570 0.77767 0.49551
 C26 C 0.53074 0.78278 0.46553
 C27 C 0.56026 0.78099 0.46441
 C28 C 0.57514 0.77608 0.49412
 C29 C 0.56089 0.77173 0.52444
 C30 C 0.53131 0.77171 0.52476
 H31 H 0.40182 0.77228 0.49923
 H32 H 0.48035 0.78648 0.54942
 H33 H 0.47843 0.76877 0.44310
 H34 H 0.51982 0.78814 0.44272
 H35 H 0.59787 0.77428 0.49345
 H36 H 0.52077 0.76683 0.54806
 C37 C 1.07466 0.71794 -0.00232
 C38 C 1.05968 0.71475 0.02798
 C39 C 1.03003 0.71484 0.02668
 C40 C 1.01540 0.72096 -0.00309
 C41 C 1.03126 0.72571 -0.03251
 C42 C 1.06087 0.72324 -0.03290
 C43 C 0.98375 0.72282 -0.00318
 C44 C 0.96807 0.71908 -0.03301
 C45 C 0.93868 0.72220 -0.03341
 C46 C 0.92447 0.72704 -0.00321
 C47 C 0.93930 0.73001 0.02693
 C48 C 0.96884 0.72887 0.02660
 H49 H 1.09740 0.71941 -0.00165
 H50 H 1.01837 0.70933 0.04901
 H51 H 1.02047 0.73060 -0.05547
 H52 H 0.97835 0.71361 -0.05623
 H53 H 0.90183 0.72972 -0.00327
 H54 H 0.97990 0.73276 0.04985
 C55 C 0.57565 0.22545 0.50531
 C56 C 0.56064 0.22025 0.53497
 C57 C 0.53113 0.21772 0.53371
 C58 C 0.51621 0.22242 0.50366
 C59 C 0.53195 0.22860 0.47443
 C60 C 0.56154 0.22933 0.47490
 C61 C 0.48450 0.22187 0.50297
 C62 C 0.46971 0.21741 0.47269
 C63 C 0.44024 0.21926 0.47127
 C64 C 0.42508 0.22338 0.50096
 C65 C 0.43904 0.22684 0.53166
 C66 C 0.46865 0.22685 0.53233
 H67 H 0.59839 0.22785 0.50610
 H68 H 0.52010 0.21214 0.55649
 H69 H 0.52149 0.23311 0.45107
 H70 H 0.48081 0.21259 0.44979
 H71 H 0.40236 0.22527 0.50002
 H72 H 0.47904 0.23102 0.55593
 C73 C 0.72329 -0.07283 -0.00116
 C74 C 0.72834 -0.05882 0.02947
 C75 C 0.72890 -0.02908 0.02950
 C76 C 0.72246 -0.01351 0.00045
 C77 C 0.71660 -0.02841 -0.02941
 C78 C 0.71816 -0.05788 -0.03074
 C79 C 0.72248 0.01815 0.00119
 C80 C 0.72867 0.03387 -0.02796
 C81 C 0.72805 0.06359 -0.02800
 C82 C 0.72320 0.07750 0.00264
 C83 C 0.71840 0.06245 0.03234
 C84 C 0.71689 0.03293 0.03110
 H85 H 0.72545 -0.09547 -0.00268
 H86 H 0.73358 -0.01798 0.05248
 H87 H 0.71086 -0.01733 -0.05199
 H88 H 0.73319 0.02289 -0.05097
 H89 H 0.72531 0.10022 0.00405
 H90 H 0.71141 0.02170 0.05379
 C91 C 0.22371 0.42176 0.50293
 C92 C 0.21929 0.43727 0.53232
 C93 C 0.21692 0.46667 0.53034
 C94 C 0.22111 0.48111 0.49976
 C95 C 0.22644 0.46487 0.47076
 C96 C 0.22695 0.43531 0.47201
 C97 C 0.22106 0.51283 0.49833
 C98 C 0.21692 0.52713 0.46774
 C99 C 0.21918 0.55661 0.46578
 C100 C 0.22342 0.57227 0.49519
 C101 C 0.22666 0.55882 0.52612
 C102 C 0.22624 0.52923 0.52735
 H103 H 0.22600 0.39911 0.50429
 H104 H 0.21188 0.47796 0.55304
 H105 H 0.23050 0.47489 0.44695
 H106 H 0.21203 0.51568 0.44501
 H107 H 0.22561 0.59500 0.49383
 H108 H 0.23026 0.51933 0.55116
 C109 C 0.27789 1.07276 0.00148
 C110 C 0.28175 1.05737 0.03100
 C111 C 0.28353 1.02798 0.02927
 C112 C 0.27889 1.01341 -0.00108
 C113 C 0.27358 1.02942 -0.03021
 C114 C 0.27414 1.05921 -0.02967
 C115 C 0.27907 0.98168 -0.00215
 C116 C 0.28423 0.96712 -0.03237
 C117 C 0.28316 0.93743 -0.03414
 C118 C 0.27915 0.92227 -0.00414
 C119 C 0.27459 0.93609 0.02637
 C120 C 0.27372 0.96562 0.02698
 H121 H 0.27562 1.09538 0.00337
 H122 H 0.28846 1.01678 0.05201
 H123 H 0.26975 1.01870 -0.05362
 H124 H 0.29010 0.97874 -0.05458
 H125 H 0.27729 0.89952 -0.00451
 H126 H 0.26876 0.97579 0.05042
 C127 C 0.77543 0.57832 0.50482
 C128 C 0.77954 0.56288 0.53426
 C129 C 0.78183 0.53346 0.53229
 C130 C 0.77783 0.51895 0.50165
 C131 C 0.77278 0.53513 0.47260
 C132 C 0.77240 0.56470 0.47386
 C133 C 0.77786 0.48721 0.50018
 C134 C 0.78208 0.47283 0.46958
 C135 C 0.77982 0.44334 0.46756
 C136 C 0.77558 0.42775 0.49696
 C137 C 0.77233 0.44127 0.52790
 C138 C 0.77266 0.47085 0.52917
 H139 H 0.77321 0.60099 0.50614
 H140 H 0.78667 0.52222 0.55503
 H141 H 0.76887 0.52509 0.44874
 H142 H 0.78703 0.48423 0.44688
 H143 H 0.77343 0.40501 0.49560
 H144 H 0.76859 0.48077 0.55301
 O145 O 0.25008 0.20443 0.22850
 O146 O 0.22317 0.25478 0.29111
 O147 O 0.21028 0.24156 0.22914
 O148 O 0.26067 0.21564 0.29130
 O149 O 0.29226 0.24708 0.27435
 O150 O 0.24141 0.27345 0.21227
 O151 O 0.25470 0.28624 0.27415
 O152 O 0.28109 0.23645 0.21161
 Cu153 Cu 0.23288 0.22595 0.26165
 Cu154 Cu 0.27045 0.26400 0.24141
 C155 C 0.27010 0.21201 0.20913
 C156 C 0.23476 0.27904 0.29367
 C157 C 0.21723 0.26169 0.20980
 C158 C 0.28497 0.22700 0.29374
 O159 O 0.75745 0.79477 0.22874
 O160 O 0.78140 0.74428 0.29258
 O161 O 0.79555 0.75636 0.23067
 O162 O 0.74423 0.78391 0.29109
 O163 O 0.71242 0.75309 0.27309
 O164 O 0.76407 0.72499 0.21319
 O165 O 0.74950 0.71341 0.27496
 O166 O 0.72611 0.76336 0.21100
 Cu167 Cu 0.77284 0.77292 0.26261
 Cu168 Cu 0.73488 0.73556 0.24136
 C169 C 0.73796 0.78743 0.20853
 C170 C 0.76922 0.72032 0.29497
 C171 C 0.78845 0.73632 0.21114
 C172 C 0.71960 0.77313 0.29261
 O173 O 0.74640 0.29611 0.27000
 O174 O 0.71693 0.24522 0.20883
 O175 O 0.70621 0.25843 0.27133
 O176 O 0.75605 0.28389 0.20724
 O177 O 0.78718 0.25282 0.22397
 O178 O 0.73684 0.22673 0.28757
 O179 O 0.74786 0.21386 0.22523
 O180 O 0.77685 0.26436 0.28661
 Cu181 Cu 0.72829 0.27404 0.23771
 Cu182 Cu 0.76524 0.23625 0.25740
 C183 C 0.76645 0.28877 0.28909
 C184 C 0.72765 0.22090 0.20629
 C185 C 0.71308 0.23849 0.29073
 C186 C 0.78008 0.27268 0.20450
 O187 O 0.27760 0.75606 0.20690
 O188 O 0.25003 0.70411 0.26803
 O189 O 0.24012 0.71587 0.20521
 O190 O 0.28982 0.74230 0.26868
 O191 O 0.25868 0.77323 0.28577
 O192 O 0.20826 0.74601 0.22253
 O193 O 0.21899 0.73511 0.28524
 O194 O 0.24582 0.78636 0.22392
 Cu195 Cu 0.26755 0.72654 0.23553
 Cu196 Cu 0.22983 0.76327 0.25606
 C197 C 0.26600 0.77999 0.20459
 C198 C 0.22995 0.71096 0.28742
 C199 C 0.21583 0.72650 0.20271
 C200 C 0.28278 0.76201 0.28836
 O201 O 0.75603 0.21070 0.77259
 O202 O 0.78058 0.26226 0.70951
 O203 O 0.79417 0.25014 0.77147
 O204 O 0.74329 0.22164 0.71025
 O205 O 0.71145 0.25155 0.72815
 O206 O 0.76259 0.28039 0.78917
 O207 O 0.74871 0.29221 0.72719
 O208 O 0.72455 0.24108 0.79026
 Cu209 Cu 0.77171 0.23321 0.73910
 Cu210 Cu 0.73368 0.26939 0.76036
 C211 C 0.73639 0.21735 0.79266
 C212 C 0.76851 0.28593 0.70725
 C213 C 0.78691 0.26965 0.79136
 C214 C 0.71872 0.23180 0.70853
 O215 O 0.22279 0.73831 0.70849
 O216 O 0.25020 0.78899 0.77144
 O217 O 0.26067 0.77822 0.70856
 O218 O 0.21007 0.75111 0.77063
 O219 O 0.24088 0.71978 0.78742
 O220 O 0.29196 0.74736 0.72536
 O221 O 0.28077 0.75738 0.78820
 O222 O 0.25400 0.70741 0.72534
 Cu223 Cu 0.23279 0.76724 0.73813
 Cu224 Cu 0.26996 0.72982 0.75818
 C225 C 0.23417 0.71430 0.70581
 C226 C 0.26998 0.78157 0.79091
 C227 C 0.28487 0.76737 0.70608
 C228 C 0.21688 0.73119 0.79006
 O229 O 0.25109 0.29079 0.72983
 O230 O 0.27768 0.24082 0.79284
 O231 O 0.29081 0.25362 0.73069
 O232 O 0.24038 0.27997 0.79257
 O233 O 0.20887 0.24832 0.77585
 O234 O 0.25972 0.22169 0.71372
 O235 O 0.24645 0.20908 0.77572
 O236 O 0.22006 0.25869 0.71306
 Cu237 Cu 0.26820 0.26942 0.76309
 Cu238 Cu 0.23070 0.23122 0.74292
 C239 C 0.23108 0.28312 0.71049
 C240 C 0.26617 0.21654 0.79546
 C241 C 0.28387 0.23350 0.71124
 C242 C 0.21612 0.26857 0.79510
 O243 O 0.73497 0.77917 0.71314
 O244 O 0.78526 0.75426 0.77653
 O245 O 0.77488 0.74261 0.71394
 O246 O 0.74603 0.79213 0.77554
 O247 O 0.71513 0.75984 0.79196
 O248 O 0.74434 0.70998 0.73040
 O249 O 0.75420 0.72215 0.79305
 O250 O 0.70425 0.74662 0.72931
 Cu251 Cu 0.76333 0.77035 0.74324
 Cu252 Cu 0.72633 0.73146 0.76282
 C253 C 0.71119 0.76678 0.70994
 C254 C 0.77826 0.73400 0.79575
 C255 C 0.76445 0.71790 0.71139
 C256 C 0.72589 0.78445 0.79456
 C257 C 0.29460 0.09830 0.06827
 C258 C 0.29025 0.11410 0.09752
 C259 C 0.27255 0.10324 0.12309
 C260 C 0.26041 0.07631 0.11951
 C261 C 0.26458 0.06086 0.09016
 C262 C 0.28113 0.07196 0.06394
 C263 C 0.26649 0.11983 0.15124
 C264 C 0.27758 0.14731 0.15391
 C265 C 0.29603 0.15779 0.12887
 C266 C 0.30242 0.14105 0.10097
 C267 C 0.30716 0.18519 0.13165
 C268 C 0.29932 0.20244 0.15831
 C269 C 0.28019 0.19265 0.18274
 C270 C 0.26982 0.16478 0.18071
 H271 H 0.30769 0.10689 0.04838
 H272 H 0.24688 0.06760 0.13890
 H273 H 0.25376 0.04074 0.08735
 H274 H 0.25248 0.11168 0.17053
 H275 H 0.31612 0.14934 0.08146
 H276 H 0.32145 0.19350 0.11279
 H277 H 0.30773 0.22377 0.15930
 H278 H 0.25521 0.15690 0.19948
 C279 C 0.79176 0.60404 0.57147
 C280 C 0.78712 0.61985 0.60066
 C281 C 0.76962 0.60874 0.62626
 C282 C 0.75801 0.58156 0.62280
 C283 C 0.76247 0.56610 0.59351
 C284 C 0.77877 0.57744 0.56723
 C285 C 0.76319 0.62532 0.65431
 C286 C 0.77370 0.65304 0.65682
 C287 C 0.79199 0.66378 0.63177
 C288 C 0.79876 0.64705 0.60399
 C289 C 0.80255 0.69142 0.63441
 C290 C 0.79425 0.70866 0.66091
 C291 C 0.77523 0.69860 0.68531
 C292 C 0.76550 0.67050 0.68345
 H293 H 0.80469 0.61283 0.55155
 H294 H 0.74464 0.57266 0.64222
 H295 H 0.75202 0.54578 0.59077
 H296 H 0.74930 0.61699 0.67360
 H297 H 0.81232 0.65553 0.58445
 H298 H 0.81671 0.69993 0.61555
 H299 H 0.80217 0.73017 0.66176
 H300 H 0.75097 0.66241 0.70220
 C301 C 0.72016 0.89880 0.06369
 C302 C 0.72490 0.88292 0.09266
 C303 C 0.74315 0.89346 0.11779
 C304 C 0.75578 0.92011 0.11384
 C305 C 0.75068 0.93605 0.08509
 C306 C 0.73310 0.92554 0.05921
 C307 C 0.74862 0.87712 0.14629
 C308 C 0.73588 0.85041 0.14998
 C309 C 0.71697 0.84028 0.12519
 C310 C 0.71162 0.85657 0.09673
 C311 C 0.70401 0.81378 0.12900
 C312 C 0.71026 0.79707 0.15665
 C313 C 0.72963 0.80648 0.18103
 C314 C 0.74207 0.83344 0.17776
 H315 H 0.70549 0.89054 0.04519
 H316 H 0.76987 0.92855 0.13286
 H317 H 0.76179 0.95601 0.08270
 H318 H 0.76296 0.88505 0.16539
 H319 H 0.69737 0.84858 0.07756
 H320 H 0.68936 0.80578 0.11032
 H321 H 0.70034 0.77643 0.15850
 H322 H 0.75698 0.84100 0.19641
 C323 C 0.20664 0.39632 0.56943
 C324 C 0.21093 0.38062 0.59871
 C325 C 0.22830 0.39173 0.62448
 C326 C 0.24013 0.41881 0.62107
 C327 C 0.23599 0.43418 0.59170
 C328 C 0.21981 0.42282 0.56528
 C329 C 0.23432 0.37525 0.65268
 C330 C 0.22350 0.34766 0.65520
 C331 C 0.20535 0.33695 0.62995
 C332 C 0.19902 0.35356 0.60200
 C333 C 0.19444 0.30946 0.63259
 C334 C 0.20220 0.29234 0.65934
 C335 C 0.22105 0.30235 0.68399
 C336 C 0.23120 0.33030 0.68207
 H337 H 0.19382 0.38753 0.54938
 H338 H 0.25340 0.42771 0.64062
 H339 H 0.24657 0.45443 0.58903
 H340 H 0.24810 0.38358 0.67212
 H341 H 0.18556 0.34509 0.58233
 H342 H 0.18038 0.30097 0.61357
 H343 H 0.19397 0.27094 0.66022
 H344 H 0.24559 0.33835 0.70101
 C345 C 0.89667 0.29623 0.06626
 C346 C 0.88023 0.29313 0.09528
 C347 C 0.89164 0.28000 0.12383
 C348 C 0.91981 0.27163 0.12348
 C349 C 0.93606 0.27465 0.09446
 C350 C 0.92446 0.28592 0.06481
 C351 C 0.87450 0.27472 0.15187
 C352 C 0.84602 0.28229 0.15156
 C353 C 0.83499 0.29664 0.12355
 C354 C 0.85219 0.30209 0.09567
 C355 C 0.80667 0.30460 0.12347
 C356 C 0.78913 0.29756 0.15035
 C357 C 0.79951 0.28226 0.17772
 C358 C 0.82818 0.27512 0.17843
 H359 H 0.88755 0.30662 0.04478
 H360 H 0.92900 0.26175 0.14528
 H361 H 0.95706 0.26606 0.09488
 H362 H 0.88311 0.26403 0.17350
 H363 H 0.84349 0.31248 0.07388
 H364 H 0.79793 0.31577 0.10230
 H365 H 0.76716 0.30336 0.14921
 H366 H 0.83648 0.26356 0.19956
 C367 C 0.39883 0.79133 0.56480
 C368 C 0.38296 0.78710 0.59409
 C369 C 0.39347 0.76970 0.61983
 C370 C 0.42014 0.75772 0.61637
 C371 C 0.43570 0.76186 0.58704
 C372 C 0.42495 0.77814 0.56069
 C373 C 0.37682 0.76380 0.64808
 C374 C 0.34963 0.77480 0.65072
 C375 C 0.33952 0.79298 0.62552
 C376 C 0.35631 0.79916 0.59749
 C377 C 0.31242 0.80407 0.62831
 C378 C 0.29506 0.79640 0.65512
 C379 C 0.30445 0.77750 0.67969
 C380 C 0.33205 0.76723 0.67765
 H381 H 0.39052 0.80420 0.54479
 H382 H 0.42858 0.74442 0.63588
 H383 H 0.45564 0.75126 0.58437
 H384 H 0.38468 0.75000 0.66749
 H385 H 0.34830 0.81266 0.57786
 H386 H 0.30440 0.81816 0.60934
 H387 H 0.27395 0.80473 0.65609
 H388 H 0.33962 0.75278 0.69652
 C389 C 0.10191 0.70336 0.06128
 C390 C 0.11776 0.70638 0.09077
 C391 C 0.10584 0.71958 0.11905
 C392 C 0.07777 0.72814 0.11793
 C393 C 0.06208 0.72515 0.08848
 C394 C 0.07418 0.71370 0.05914
 C395 C 0.12241 0.72475 0.14762
 C396 C 0.15082 0.71696 0.14813
 C397 C 0.16233 0.70253 0.12039
 C398 C 0.14571 0.69722 0.09197
 C399 C 0.19056 0.69435 0.12111
 C400 C 0.20758 0.70133 0.14849
 C401 C 0.19676 0.71676 0.17560
 C402 C 0.16813 0.72405 0.17553
 H403 H 0.11141 0.69294 0.04000
 H404 H 0.06820 0.73812 0.13948
 H405 H 0.04113 0.73385 0.08837
 H406 H 0.11342 0.73551 0.16902
 H407 H 0.15479 0.68676 0.07041
 H408 H 0.19967 0.68311 0.10017
 H409 H 0.22954 0.69541 0.14791
 H410 H 0.15949 0.73572 0.19643
 C411 C 0.60217 0.20727 0.57051
 C412 C 0.61851 0.21109 0.59953
 C413 C 0.60812 0.22761 0.62622
 C414 C 0.58112 0.23906 0.62397
 C415 C 0.56514 0.23542 0.59487
 C416 C 0.57576 0.22012 0.56755
 C417 C 0.62524 0.23330 0.65414
 C418 C 0.65280 0.22303 0.65547
 C419 C 0.66282 0.20568 0.62933
 C420 C 0.64553 0.19962 0.60166
 C421 C 0.69032 0.19538 0.63081
 C422 C 0.70814 0.20312 0.65722
 C423 C 0.69881 0.22129 0.68266
 C424 C 0.67082 0.23065 0.68198
 H425 H 0.61039 0.19511 0.54977
 H426 H 0.57278 0.25167 0.64424
 H427 H 0.54498 0.24575 0.59314
 H428 H 0.61747 0.24646 0.67428
 H429 H 0.65345 0.18681 0.58129
 H430 H 0.69829 0.18192 0.61111
 H431 H 0.72955 0.19551 0.65716
 H432 H 0.66328 0.24451 0.70155
 C433 C 0.71941 0.10556 0.93767
 C434 C 0.72388 0.12151 0.90858
 C435 C 0.74209 0.11153 0.88337
 C436 C 0.75489 0.08535 0.88733
 C437 C 0.75004 0.06933 0.91618
 C438 C 0.73254 0.07930 0.94216
 C439 C 0.74735 0.12799 0.85478
 C440 C 0.73444 0.15424 0.85107
 C441 C 0.71554 0.16375 0.87591
 C442 C 0.71040 0.14736 0.90447
 C443 C 0.70241 0.18978 0.87207
 C444 C 0.70854 0.20669 0.84439
 C445 C 0.72797 0.19794 0.82000
 C446 C 0.74051 0.17139 0.82326
 H447 H 0.70481 0.11336 0.95627
 H448 H 0.76895 0.07736 0.86825
 H449 H 0.76128 0.04977 0.91858
 H450 H 0.76167 0.12052 0.83563
 H451 H 0.69618 0.15489 0.92370
 H452 H 0.68775 0.19730 0.89078
 H453 H 0.69854 0.22700 0.84255
 H454 H 0.75546 0.16434 0.80460
 C455 C 0.20622 0.59694 0.42847
 C456 C 0.21042 0.61271 0.39913
 C457 C 0.22813 0.60232 0.37355
 C458 C 0.24039 0.57581 0.37720
 C459 C 0.23628 0.56034 0.40659
 C460 C 0.21976 0.57105 0.43282
 C461 C 0.23407 0.61899 0.34533
 C462 C 0.22279 0.64606 0.34256
 C463 C 0.20427 0.65598 0.36759
 C464 C 0.19806 0.63919 0.39558
 C465 C 0.19289 0.68293 0.36472
 C466 C 0.20059 0.70035 0.33801
 C467 C 0.21983 0.69119 0.31363
 C468 C 0.23041 0.66371 0.31572
 H469 H 0.19316 0.60520 0.44839
 H470 H 0.25391 0.56745 0.35780
 H471 H 0.24714 0.54057 0.40944
 H472 H 0.24812 0.61124 0.32605
 H473 H 0.18432 0.64709 0.41508
 H474 H 0.17853 0.69080 0.38355
 H475 H 0.19201 0.72135 0.33701
 H476 H 0.24513 0.65632 0.29699
 C477 C 0.29403 0.89522 0.93243
 C478 C 0.29097 0.87949 0.90286
 C479 C 0.27813 0.89165 0.87455
 C480 C 0.27010 0.91990 0.87573
 C481 C 0.27323 0.93551 0.90527
 C482 C 0.28417 0.92310 0.93461
 C483 C 0.27282 0.87515 0.84594
 C484 C 0.28016 0.84661 0.84541
 C485 C 0.29434 0.83491 0.87318
 C486 C 0.29974 0.85144 0.90164
 C487 C 0.30216 0.80659 0.87246
 C488 C 0.29507 0.78964 0.84507
 C489 C 0.27984 0.80063 0.81795
 C490 C 0.27291 0.82934 0.81800
 H491 H 0.30410 0.88550 0.95376
 H492 H 0.26045 0.92968 0.85414
 H493 H 0.26501 0.95666 0.90548
 H494 H 0.26230 0.88430 0.82450
 H495 H 0.30996 0.84220 0.92323
 H496 H 0.31321 0.79736 0.89342
 H497 H 0.30071 0.76762 0.84566
 H498 H 0.26140 0.83809 0.79708
 C499 C 0.79232 0.40270 0.43020
 C500 C 0.78795 0.38691 0.40083
 C501 C 0.77053 0.39757 0.37518
 C502 C 0.75874 0.42431 0.37879
 C503 C 0.76296 0.43975 0.40823
 C504 C 0.77919 0.42883 0.43454
 C505 C 0.76439 0.38096 0.34691
 C506 C 0.77513 0.35366 0.34419
 C507 C 0.79335 0.34341 0.36928
 C508 C 0.79981 0.36017 0.39731
 C509 C 0.80413 0.31619 0.36643
 C510 C 0.79610 0.29883 0.33970
 C511 C 0.77712 0.30835 0.31528
 C512 C 0.76719 0.33609 0.31733
 H513 H 0.80517 0.39425 0.45016
 H514 H 0.74544 0.43286 0.35934
 H515 H 0.75240 0.45970 0.41104
 H516 H 0.75057 0.38893 0.32759
 H517 H 0.81331 0.35204 0.41687
 H518 H 0.81825 0.30805 0.38532
 H519 H 0.80416 0.27762 0.33872
 H520 H 0.75269 0.34377 0.29857
 C521 C 0.10190 0.29111 0.93575
 C522 C 0.11786 0.28709 0.90656
 C523 C 0.10703 0.26988 0.88046
 C524 C 0.07997 0.25790 0.88346
 C525 C 0.06430 0.26187 0.91267
 C526 C 0.07535 0.27794 0.93937
 C527 C 0.12372 0.26419 0.85230
 C528 C 0.15123 0.27526 0.85008
 C529 C 0.16167 0.29328 0.87564
 C530 C 0.14487 0.29920 0.90361
 C531 C 0.18907 0.30447 0.87325
 C532 C 0.20638 0.29710 0.84645
 C533 C 0.19665 0.27835 0.82152
 C534 C 0.16878 0.26794 0.82318
 H535 H 0.11045 0.30382 0.95605
 H536 H 0.07128 0.24476 0.86366
 H537 H 0.04400 0.25131 0.91497
 H538 H 0.11560 0.25054 0.83261
 H539 H 0.15313 0.31257 0.92351
 H540 H 0.19735 0.31844 0.89250
 H541 H 0.22771 0.30551 0.84577
 H542 H 0.16095 0.25362 0.80401
 C543 C 0.60201 0.79514 0.42920
 C544 C 0.61855 0.79172 0.40035
 C545 C 0.60828 0.77492 0.37357
 C546 C 0.58121 0.76283 0.37554
 C547 C 0.56503 0.76606 0.40450
 C548 C 0.57554 0.78161 0.43192
 C549 C 0.62560 0.76962 0.34584
 C550 C 0.65324 0.78053 0.34481
 C551 C 0.66313 0.79816 0.37102
 C552 C 0.64565 0.80384 0.39849
 C553 C 0.69071 0.80910 0.36983
 C554 C 0.70872 0.80173 0.34367
 C555 C 0.69951 0.78328 0.31818
 C556 C 0.67145 0.77328 0.31854
 H557 H 0.61016 0.80749 0.45003
 H558 H 0.57295 0.75000 0.35520
 H559 H 0.54482 0.75523 0.40604
 H560 H 0.61792 0.75624 0.32565
 H561 H 0.65348 0.81687 0.41892
 H562 H 0.69858 0.82279 0.38959
 H563 H 0.73018 0.80983 0.34397
 H564 H 0.66401 0.75920 0.29893
 C565 C 0.89592 0.71013 0.93206
 C566 C 0.87913 0.71441 0.90363
 C567 C 0.88957 0.73113 0.87695
 C568 C 0.91703 0.74237 0.87865
 C569 C 0.93349 0.73825 0.90719
 C570 C 0.92287 0.72270 0.93449
 C571 C 0.87213 0.73709 0.84956
 C572 C 0.84426 0.72681 0.84869
 C573 C 0.83414 0.70933 0.87486
 C574 C 0.85168 0.70310 0.90206
 C575 C 0.80636 0.69891 0.87381
 C576 C 0.78848 0.70641 0.84762
 C577 C 0.79799 0.72453 0.82203
 C578 C 0.82612 0.73430 0.82248
 H579 H 0.88768 0.69776 0.95278
 H580 H 0.92542 0.75513 0.85838
 H581 H 0.95408 0.74836 0.90853
 H582 H 0.87999 0.75034 0.82939
 H583 H 0.84371 0.69014 0.92243
 H584 H 0.79831 0.68538 0.89356
 H585 H 0.76694 0.69852 0.84786
 H586 H 0.83378 0.74809 0.80275
 C587 C 0.39910 0.20585 0.43466
 C588 C 0.38319 0.20961 0.40541
 C589 C 0.39383 0.22702 0.37945
 C590 C 0.42066 0.23947 0.38267
 C591 C 0.43626 0.23582 0.41197
 C592 C 0.42539 0.21954 0.43854
 C593 C 0.37715 0.23245 0.35124
 C594 C 0.34981 0.22098 0.34885
 C595 C 0.33955 0.20280 0.37428
 C596 C 0.35636 0.19708 0.40227
 C597 C 0.31228 0.19127 0.37174
 C598 C 0.29493 0.19848 0.34495
 C599 C 0.30448 0.21736 0.32015
 C600 C 0.33223 0.22809 0.32195
 H601 H 0.39069 0.19297 0.45484
 H602 H 0.42920 0.25278 0.36298
 H603 H 0.45632 0.24681 0.41444
 H604 H 0.38513 0.24624 0.33166
 H605 H 0.34825 0.18359 0.42207
 H606 H 0.30414 0.17718 0.39089
 H607 H 0.27369 0.18981 0.34416
 H608 H 0.33993 0.24253 0.30290
 C609 C 0.70413 0.90026 0.93376
 C610 C 0.70738 0.88398 0.90460
 C611 C 0.72359 0.89474 0.87764
 C612 C 0.73532 0.92196 0.87977
 C613 C 0.73229 0.93786 0.90899
 C614 C 0.71729 0.92695 0.93659
 C615 C 0.72870 0.87777 0.84953
 C616 C 0.71818 0.85001 0.84823
 C617 C 0.70114 0.83956 0.87463
 C618 C 0.69566 0.85669 0.90254
 C619 C 0.69060 0.81182 0.87314
 C620 C 0.69781 0.79421 0.84644
 C621 C 0.71569 0.80401 0.82074
 C622 C 0.72526 0.83221 0.82147
 H623 H 0.69218 0.89177 0.95468
 H624 H 0.74771 0.93057 0.85929
 H625 H 0.74287 0.95819 0.91055
 H626 H 0.74163 0.88586 0.82918
 H627 H 0.68308 0.84846 0.92311
 H628 H 0.67737 0.80351 0.89304
 H629 H 0.69008 0.77263 0.84649
 H630 H 0.73890 0.84012 0.80171
 C631 C 0.21593 0.39362 0.43538
 C632 C 0.22119 0.37682 0.40715
 C633 C 0.24259 0.38496 0.38432
 C634 C 0.25807 0.40992 0.38990
 C635 C 0.25277 0.42647 0.41813
 C636 C 0.23184 0.41839 0.44126
 C637 C 0.24845 0.36781 0.35660
 C638 C 0.23339 0.34249 0.35159
 C639 C 0.21174 0.33452 0.37415
 C640 C 0.20566 0.35182 0.40170
 C641 C 0.19688 0.30910 0.36911
 C642 C 0.20388 0.29135 0.34247
 C643 C 0.22574 0.29879 0.32025
 C644 C 0.24010 0.32469 0.32474
 H645 H 0.19950 0.38739 0.45287
 H646 H 0.27456 0.41645 0.37267
 H647 H 0.26551 0.44527 0.42228
 H648 H 0.26505 0.37394 0.33926
 H649 H 0.18921 0.34559 0.41918
 H650 H 0.18018 0.30270 0.38611
 H651 H 0.19246 0.27157 0.33960
 H652 H 0.25703 0.33072 0.30785
 C653 C 0.28313 0.10238 0.93750
 C654 C 0.27912 0.11881 0.90874
 C655 C 0.26195 0.10842 0.88247
 C656 C 0.24972 0.08148 0.88505
 C657 C 0.25403 0.06507 0.91360
 C658 C 0.27045 0.07533 0.94067
 C659 C 0.25704 0.12524 0.85423
 C660 C 0.26919 0.15233 0.85192
 C661 C 0.28705 0.16239 0.87778
 C662 C 0.29193 0.14556 0.90600
 C663 C 0.29934 0.18936 0.87527
 C664 C 0.29332 0.20659 0.84790
 C665 C 0.27488 0.19719 0.82253
 C666 C 0.26328 0.16975 0.82448
 H667 H 0.29696 0.11053 0.95694
 H668 H 0.23646 0.07319 0.86513
 H669 H 0.24312 0.04494 0.91487
 H670 H 0.24350 0.11741 0.83427
 H671 H 0.30534 0.15347 0.92604
 H672 H 0.31320 0.19734 0.89479
 H673 H 0.30254 0.22759 0.84707
 H674 H 0.24911 0.16216 0.80505
 C675 C 0.78429 0.60614 0.43740
 C676 C 0.77957 0.62290 0.40909
 C677 C 0.75832 0.61498 0.38594
 C678 C 0.74245 0.59023 0.39129
 C679 C 0.74725 0.57369 0.41961
 C680 C 0.76802 0.58158 0.44305
 C681 C 0.75302 0.63211 0.35810
 C682 C 0.76853 0.65719 0.35327
 C683 C 0.79003 0.66492 0.37619
 C684 C 0.79551 0.64766 0.40386
 C685 C 0.80537 0.69007 0.37134
 C686 C 0.79904 0.70777 0.34450
 C687 C 0.77736 0.70059 0.32191
 C688 C 0.76247 0.67497 0.32624
 H689 H 0.80060 0.61221 0.45513
 H690 H 0.72608 0.58386 0.37381
 H691 H 0.73425 0.55505 0.42357
 H692 H 0.73655 0.62616 0.34050
 H693 H 0.81185 0.65371 0.42159
 H694 H 0.82196 0.69627 0.38861
 H695 H 0.81087 0.72732 0.34176
 H696 H 0.74568 0.66914 0.30905
 C697 C 0.10267 0.71304 0.93261
 C698 C 0.11908 0.71739 0.90377
 C699 C 0.10971 0.73594 0.87865
 C700 C 0.08376 0.74924 0.88242
 C701 C 0.06742 0.74473 0.91112
 C702 C 0.07674 0.72693 0.93710
 C703 C 0.12660 0.74120 0.85040
 C704 C 0.15281 0.72814 0.84703
 C705 C 0.16184 0.70897 0.87174
 C706 C 0.14488 0.70363 0.89989
 C707 C 0.18798 0.69588 0.86822
 C708 C 0.20547 0.70239 0.84104
 C709 C 0.19712 0.72208 0.81683
 C710 C 0.17045 0.73447 0.81972
 H711 H 0.10998 0.69817 0.95114
 H712 H 0.07627 0.76358 0.86340
 H713 H 0.04824 0.75660 0.91341
 H714 H 0.11957 0.75578 0.83135
 H715 H 0.15200 0.68921 0.91905
 H716 H 0.19517 0.68103 0.88685
 H717 H 0.22586 0.69252 0.83946
 H718 H 0.16367 0.74963 0.80122
 C719 C 0.60191 0.21892 0.43657
 C720 C 0.61812 0.22458 0.40789
 C721 C 0.61022 0.24650 0.38601
 C722 C 0.58604 0.26211 0.39301
 C723 C 0.57003 0.25634 0.42166
 C724 C 0.57791 0.23487 0.44383
 C725 C 0.62682 0.25270 0.35779
 C726 C 0.65132 0.23739 0.35129
 C727 C 0.65897 0.21521 0.37293
 C728 C 0.64226 0.20886 0.40099
 C729 C 0.68352 0.20005 0.36645
 C730 C 0.70073 0.20720 0.33926
 C731 C 0.69366 0.22955 0.31792
 C732 C 0.66861 0.24428 0.32386
 H733 H 0.60796 0.20208 0.45331
 H734 H 0.57968 0.27899 0.37653
 H735 H 0.55179 0.26910 0.42687
 H736 H 0.62089 0.26969 0.34118
 H737 H 0.64829 0.19200 0.41773
 H738 H 0.68966 0.18294 0.38272
 H739 H 0.71985 0.19546 0.33527
 H740 H 0.66289 0.26160 0.30766
 C741 C 0.89781 0.28612 0.93760
 C742 C 0.88211 0.28209 0.90814
 C743 C 0.89176 0.26333 0.88331
 C744 C 0.91730 0.24948 0.88800
 C745 C 0.93298 0.25376 0.91724
 C746 C 0.92341 0.27187 0.94286
 C747 C 0.87557 0.25844 0.85440
 C748 C 0.84979 0.27207 0.85006
 C749 C 0.84050 0.29146 0.87449
 C750 C 0.85675 0.29641 0.90331
 C751 C 0.81476 0.30509 0.87002
 C752 C 0.79785 0.29882 0.84226
 C753 C 0.80640 0.27887 0.81837
 C754 C 0.83277 0.26604 0.82212
 H755 H 0.89033 0.30114 0.95592
 H756 H 0.92498 0.23495 0.86923
 H757 H 0.95190 0.24157 0.92018
 H758 H 0.88281 0.24369 0.83558
 H759 H 0.84942 0.31101 0.92225
 H760 H 0.80739 0.32011 0.88841
 H761 H 0.77768 0.30904 0.84003
 H762 H 0.83967 0.25064 0.80389
 C763 C 0.39718 0.78246 0.43053
 C764 C 0.38044 0.77703 0.40219
 C765 C 0.38849 0.75594 0.37917
 C766 C 0.41332 0.74096 0.38466
 C767 C 0.42979 0.74641 0.41304
 C768 C 0.42178 0.76700 0.43640
 C769 C 0.37136 0.74984 0.35136
 C770 C 0.34614 0.76436 0.34645
 C771 C 0.33828 0.78571 0.36921
 C772 C 0.35557 0.79203 0.39683
 C773 C 0.31296 0.80003 0.36429
 C774 C 0.29522 0.79280 0.33756
 C775 C 0.30253 0.77123 0.31513
 C776 C 0.32832 0.75740 0.31952
 H777 H 0.39099 0.79864 0.44817
 H778 H 0.41979 0.72472 0.36728
 H779 H 0.44844 0.73399 0.41714
 H780 H 0.37741 0.73348 0.33387
 H781 H 0.34941 0.80825 0.41446
 H782 H 0.30664 0.81650 0.38144
 H783 H 0.27553 0.80381 0.33478
 H784 H 0.33427 0.74070 0.30246
 C785 C 0.28609 0.89554 0.06399
 C786 C 0.28052 0.87857 0.09206
 C787 C 0.25831 0.88558 0.11403
 C788 C 0.24234 0.90965 0.10779
 C789 C 0.24790 0.92632 0.07965
 C790 C 0.26962 0.91931 0.05730
 C791 C 0.25210 0.86817 0.14152
 C792 C 0.26759 0.84364 0.14708
 C793 C 0.29003 0.83681 0.12536
 C794 C 0.29649 0.85443 0.09812
 C795 C 0.30528 0.81215 0.13087
 C796 C 0.29792 0.79400 0.15711
 C797 C 0.27530 0.80028 0.17849
 C798 C 0.26053 0.82545 0.17358
 H799 H 0.30313 0.89014 0.04716
 H800 H 0.22523 0.91531 0.12435
 H801 H 0.23471 0.94430 0.07490
 H802 H 0.23488 0.87342 0.15819
 H803 H 0.31355 0.84905 0.08128
 H804 H 0.32259 0.80663 0.11451
 H805 H 0.30968 0.77481 0.16033
 H806 H 0.24300 0.83058 0.18980
 C807 C 0.78411 0.40030 0.56459
 C808 C 0.77928 0.38346 0.59295
 C809 C 0.75781 0.39071 0.61584
 C810 C 0.74183 0.41487 0.61020
 C811 C 0.74676 0.43150 0.58187
 C812 C 0.76775 0.42427 0.55868
 C813 C 0.75240 0.37348 0.64372
 C814 C 0.76803 0.34898 0.64884
 C815 C 0.78975 0.34195 0.62619
 C816 C 0.79533 0.35931 0.59848
 C817 C 0.80521 0.31738 0.63133
 C818 C 0.79877 0.29952 0.65815
 C819 C 0.77685 0.30598 0.68047
 C820 C 0.76185 0.33106 0.67589
 H821 H 0.80059 0.39475 0.54705
 H822 H 0.72529 0.42073 0.62748
 H823 H 0.73369 0.44968 0.57770
 H824 H 0.73575 0.37891 0.66111
 H825 H 0.81185 0.35378 0.58096
 H826 H 0.82198 0.31171 0.61427
 H827 H 0.81068 0.28039 0.66109
 H828 H 0.74487 0.33632 0.69285
 C829 C 0.70467 0.10398 0.06789
 C830 C 0.70822 0.12045 0.09691
 C831 C 0.72470 0.11027 0.12368
 C832 C 0.73641 0.08339 0.12151
 C833 C 0.73309 0.06730 0.09240
 C834 C 0.71782 0.07767 0.06497
 C835 C 0.73009 0.12748 0.15164
 C836 C 0.71958 0.15495 0.15296
 C837 C 0.70227 0.16479 0.12675
 C838 C 0.69651 0.14740 0.09901
 C839 C 0.69174 0.19223 0.12826
 C840 C 0.69918 0.21014 0.15478
 C841 C 0.71730 0.20096 0.18029
 C842 C 0.72689 0.17304 0.17954
 H843 H 0.69251 0.11204 0.04710
 H844 H 0.74901 0.07521 0.14184
 H845 H 0.74368 0.04728 0.09077
 H846 H 0.74322 0.11985 0.17184
 H847 H 0.68373 0.15519 0.07859
 H848 H 0.67832 0.20008 0.10851
 H849 H 0.69143 0.23148 0.15475
 H850 H 0.74071 0.16560 0.19916
 C851 C 0.21565 0.60015 0.56289
 C852 C 0.22083 0.61695 0.59128
 C853 C 0.24216 0.60929 0.61413
 C854 C 0.25767 0.58482 0.60840
 C855 C 0.25243 0.56827 0.58003
 C856 C 0.23154 0.57584 0.55690
 C857 C 0.24792 0.62640 0.64205
 C858 C 0.23284 0.65124 0.64725
 C859 C 0.21128 0.65875 0.62466
 C860 C 0.20530 0.64147 0.59691
 C861 C 0.19643 0.68372 0.62991
 C862 C 0.20336 0.70148 0.65678
 C863 C 0.22513 0.69448 0.67902
 C864 C 0.23946 0.66902 0.67433
 H865 H 0.19927 0.60599 0.54540
 H866 H 0.27411 0.57867 0.62564
 H867 H 0.26518 0.54987 0.57580
 H868 H 0.26445 0.62063 0.65940
 H869 H 0.18891 0.64734 0.57942
 H870 H 0.17980 0.68978 0.61289
 H871 H 0.19197 0.72093 0.65980
 H872 H 0.25633 0.66333 0.69122
 C873 C 0.89956 0.71823 0.06589
 C874 C 0.88380 0.72320 0.09498
 C875 C 0.89225 0.74494 0.11725
 C876 C 0.91668 0.76091 0.11033
 C877 C 0.93227 0.75580 0.08126
 C878 C 0.92367 0.73467 0.05861
 C879 C 0.87590 0.75065 0.14570
 C880 C 0.85107 0.73508 0.15197
 C881 C 0.84296 0.71298 0.13003
 C882 C 0.85946 0.70708 0.10179
 C883 C 0.81810 0.69756 0.13626
 C884 C 0.80086 0.70456 0.16331
 C885 C 0.80826 0.72699 0.18479
 C886 C 0.83378 0.74178 0.17932
 H887 H 0.89301 0.70162 0.04875
 H888 H 0.92350 0.77762 0.12714
 H889 H 0.95068 0.76883 0.07607
 H890 H 0.88219 0.76756 0.16257
 H891 H 0.85304 0.69033 0.08475
 H892 H 0.81164 0.68049 0.11977
 H893 H 0.78139 0.69277 0.16695
 H894 H 0.83975 0.75916 0.19564
 C895 C 0.39797 0.21525 0.56898
 C896 C 0.38136 0.22040 0.59738
 C897 C 0.38939 0.24201 0.62002
 C898 C 0.41413 0.25778 0.61412
 C899 C 0.43049 0.25258 0.58572
 C900 C 0.42246 0.23148 0.56272
 C901 C 0.37236 0.24782 0.64785
 C902 C 0.34723 0.23248 0.65315
 C903 C 0.33941 0.21059 0.63079
 C904 C 0.35661 0.20457 0.60315
 C905 C 0.31421 0.19544 0.63609
 C906 C 0.29650 0.20240 0.66276
 C907 C 0.30374 0.22452 0.68475
 C908 C 0.32946 0.23916 0.68005
 H909 H 0.39178 0.19869 0.55161
 H910 H 0.42059 0.27443 0.63121
 H911 H 0.44908 0.26556 0.58130
 H912 H 0.37839 0.26459 0.66503
 H913 H 0.35046 0.18795 0.58582
 H914 H 0.30794 0.17854 0.61926
 H915 H 0.27687 0.19075 0.66579
 H916 H 0.33533 0.25629 0.69677
 C917 C 0.10197 0.28220 0.06951
 C918 C 0.11868 0.27677 0.09768
 C919 C 0.11033 0.25545 0.12047
 C920 C 0.08510 0.24035 0.11497
 C921 C 0.06864 0.24581 0.08672
 C922 C 0.07709 0.26650 0.06351
 C923 C 0.12756 0.24926 0.14800
 C924 C 0.15318 0.26392 0.15280
 C925 C 0.16126 0.28555 0.13030
 C926 C 0.14389 0.29195 0.10300
 C927 C 0.18690 0.30007 0.13509
 C928 C 0.20477 0.29276 0.16140
 C929 C 0.19729 0.27088 0.18354
 C930 C 0.17116 0.25685 0.17933
 H931 H 0.10847 0.29849 0.05200
 H932 H 0.07836 0.22396 0.13220
 H933 H 0.04970 0.23329 0.08253
 H934 H 0.12131 0.23270 0.16529
 H935 H 0.15026 0.30835 0.08555
 H936 H 0.19337 0.31676 0.11813
 H937 H 0.22470 0.30395 0.16406
 H938 H 0.16508 0.23993 0.19619
 C939 C 0.60100 0.78323 0.56315
 C940 C 0.61699 0.77800 0.59198
 C941 C 0.60902 0.75573 0.61365
 C942 C 0.58496 0.73934 0.60631
 C943 C 0.56913 0.74471 0.57754
 C944 C 0.57711 0.76653 0.55557
 C945 C 0.62542 0.74998 0.64203
 C946 C 0.64979 0.76610 0.64888
 C947 C 0.65751 0.78862 0.62745
 C948 C 0.64101 0.79451 0.59923
 C949 C 0.68192 0.80461 0.63428
 C950 C 0.69897 0.79792 0.66158
 C951 C 0.69185 0.77523 0.68272
 C952 C 0.66691 0.75967 0.67645
 H953 H 0.60710 0.80034 0.54656
 H954 H 0.57854 0.72219 0.62263
 H955 H 0.55097 0.73139 0.57208
 H956 H 0.61944 0.73272 0.65848
 H957 H 0.64708 0.81165 0.58265
 H958 H 0.68810 0.82199 0.61817
 H959 H 0.71800 0.81029 0.66583
 H960 H 0.66116 0.74208 0.69248
   
