data_POSCAR
  _audit_creation_date              2014-09-24
  _audit_creation_method            'ToBaCCo'
  _symmetry_space_group_name_H-M    'P1'
  _symmetry_Int_Tables_number       1
  _symmetry_cell_setting            triclinic
  loop_
  _symmetry_equiv_pos_as_xyz
 x,y,z
_cell_length_a 24.2147
_cell_length_b 25.5970
_cell_length_c 24.2151
_cell_angle_alpha 90.000000
_cell_angle_beta 89.999900
_cell_angle_gamma 90.000000
loop_
  _atom_site_label
  _atom_site_type_symbol
  _atom_site_fract_x
  _atom_site_fract_y
  _atom_site_fract_z
Si1 Si 0.25000 0.25017 0.25000
 Si2 Si 0.75000 0.75000 0.25000
 Si3 Si 0.75000 0.24983 0.75000
 Si4 Si 0.25000 0.75000 0.75000
 C5 C 0.07800 0.07812 0.01967
 H6 H 0.07950 0.08019 -0.02494
 C7 C 0.11028 0.11196 0.05134
 H8 H 0.13672 0.13986 0.03061
 C9 C 0.04096 0.03947 0.10047
 H10 H 0.01325 0.01178 0.11952
 C11 C 0.07247 0.07258 0.13375
 H12 H 0.06895 0.06940 0.17819
 N13 N 0.04478 0.04233 0.04451
 C14 C 0.02252 -0.08082 -0.07821
 H15 H -0.02209 -0.08290 -0.07946
 C16 C 0.05402 -0.11440 -0.11097
 H17 H 0.03314 -0.14213 -0.13749
 C18 C 0.10352 -0.04230 -0.04144
 H19 H 0.12272 -0.01472 -0.01371
 C20 C 0.13662 -0.07516 -0.07345
 H21 H 0.18109 -0.07193 -0.07024
 Zn22 Zn 0.00169 -0.00143 -0.00153
 N23 N 0.04754 -0.04520 -0.04490
 C24 C -0.03838 0.03984 -0.10311
 N25 N -0.04150 0.04264 -0.04712
 C26 C -0.07444 0.07837 -0.02180
 C27 C -0.10726 0.11214 -0.05300
 C28 C -0.07045 0.07289 -0.13593
 C29 C -0.01944 -0.08100 0.07486
 C30 C -0.05113 -0.11433 0.10772
 C31 C -0.13351 -0.07475 0.07010
 C32 C -0.10023 -0.04215 0.03801
 N33 N -0.04427 -0.04529 0.04153
 H34 H -0.01093 0.01216 -0.12255
 H35 H -0.07541 0.08035 0.02282
 H36 H -0.13353 0.13993 -0.03188
 H37 H -0.06756 0.06972 -0.18042
 H38 H 0.02516 -0.08326 0.07615
 H39 H -0.03041 -0.14208 0.13434
 H40 H -0.17796 -0.07128 0.06690
 H41 H -0.11929 -0.01453 0.01024
 C42 C 0.11194 -0.11169 -0.10906
 C43 C 0.10793 0.10933 0.10925
 C44 C -0.10903 -0.11126 0.10585
 C45 C -0.10575 0.10950 -0.11093
 C46 C 0.07821 0.58082 0.52252
 H47 H 0.07946 0.58290 0.47791
 C48 C 0.11097 0.61440 0.55402
 H49 H 0.13749 0.64213 0.53314
 C50 C 0.04144 0.54231 0.60352
 H51 H 0.01370 0.51473 0.62272
 C52 C 0.07345 0.57516 0.63662
 H53 H 0.07023 0.57194 0.68109
 N54 N 0.04490 0.54520 0.54754
 C55 C 0.02179 0.42163 0.42556
 H56 H -0.02283 0.41964 0.42460
 C57 C 0.05299 0.38786 0.39275
 H58 H 0.03188 0.36007 0.36648
 C59 C 0.10311 0.46016 0.46162
 H60 H 0.12254 0.48784 0.48907
 C61 C 0.13593 0.42711 0.42955
 H62 H 0.18042 0.43028 0.43244
 Zn63 Zn 0.00153 0.50143 0.50170
 N64 N 0.04711 0.45736 0.45850
 C65 C -0.03801 0.54215 0.39977
 N66 N -0.04153 0.54529 0.45573
 C67 C -0.07487 0.58100 0.48056
 C68 C -0.10773 0.61433 0.44887
 C69 C -0.07010 0.57475 0.36649
 C70 C -0.01967 0.42188 0.57801
 C71 C -0.05134 0.38804 0.61028
 C72 C -0.13375 0.42742 0.57247
 C73 C -0.10047 0.46054 0.54096
 N74 N -0.04451 0.45768 0.54479
 H75 H -0.01024 0.51453 0.38071
 H76 H -0.07616 0.58326 0.52516
 H77 H -0.13435 0.64208 0.46959
 H78 H -0.06690 0.57128 0.32204
 H79 H 0.02493 0.41981 0.57950
 H80 H -0.03061 0.36014 0.63672
 H81 H -0.17820 0.43060 0.56896
 H82 H -0.11953 0.48822 0.51326
 C83 C 0.11092 0.39050 0.39426
 C84 C 0.10905 0.61169 0.61194
 C85 C -0.10926 0.39067 0.60794
 C86 C -0.10585 0.61126 0.39097
 C87 C 0.57444 0.07837 0.52180
 H88 H 0.57541 0.08036 0.47717
 C89 C 0.60725 0.11214 0.55300
 H90 H 0.63352 0.13993 0.53188
 C91 C 0.53838 0.03984 0.60311
 H92 H 0.51093 0.01216 0.62254
 C93 C 0.57045 0.07289 0.63593
 H94 H 0.56756 0.06972 0.68042
 N95 N 0.54150 0.04264 0.54711
 C96 C 0.51945 -0.08100 0.42513
 H97 H 0.47485 -0.08326 0.42384
 C98 C 0.55113 -0.11432 0.39227
 H99 H 0.53041 -0.14208 0.36565
 C100 C 0.60024 -0.04215 0.46198
 H101 H 0.61929 -0.01452 0.48975
 C102 C 0.63352 -0.07475 0.42989
 H103 H 0.67796 -0.07128 0.43309
 Zn104 Zn 0.49831 -0.00143 0.50153
 N105 N 0.54427 -0.04529 0.45846
 C106 C 0.45904 0.03947 0.39953
 N107 N 0.45522 0.04233 0.45549
 C108 C 0.42200 0.07812 0.48033
 C109 C 0.38972 0.11196 0.44866
 C110 C 0.42753 0.07258 0.36625
 C111 C 0.47749 -0.08082 0.57820
 C112 C 0.44599 -0.11440 0.61097
 C113 C 0.36338 -0.07516 0.57345
 C114 C 0.39649 -0.04231 0.54143
 N115 N 0.45247 -0.04520 0.54489
 H116 H 0.48675 0.01178 0.38047
 H117 H 0.42050 0.08019 0.52493
 H118 H 0.36328 0.13986 0.46939
 H119 H 0.43105 0.06940 0.32181
 H120 H 0.52210 -0.08290 0.57945
 H121 H 0.46687 -0.14213 0.63749
 H122 H 0.31892 -0.07194 0.57023
 H123 H 0.37728 -0.01473 0.51371
 C124 C 0.60904 -0.11126 0.39414
 C125 C 0.60575 0.10950 0.61093
 C126 C 0.38806 -0.11169 0.60905
 C127 C 0.39207 0.10933 0.39074
 C128 C 0.57487 0.58100 0.01945
 H129 H 0.57616 0.58326 -0.02515
 C130 C 0.60773 0.61432 0.05113
 H131 H 0.63435 0.64208 0.03041
 C132 C 0.53801 0.54215 0.10024
 H133 H 0.51024 0.51453 0.11929
 C134 C 0.57010 0.57475 0.13352
 H135 H 0.56690 0.57128 0.17796
 N136 N 0.54153 0.54529 0.04428
 C137 C 0.51966 0.42188 -0.07800
 H138 H 0.47506 0.41981 -0.07949
 C139 C 0.55134 0.38804 -0.11027
 H140 H 0.53060 0.36014 -0.13671
 C141 C 0.60047 0.46053 -0.04095
 H142 H 0.61953 0.48822 -0.01325
 C143 C 0.63375 0.42742 -0.07246
 H144 H 0.67819 0.43060 -0.06895
 Zn145 Zn 0.49847 0.50143 -0.00169
 N146 N 0.54451 0.45767 -0.04478
 C147 C 0.45856 0.54231 -0.10351
 N148 N 0.45510 0.54520 -0.04753
 C149 C 0.42179 0.58082 -0.02251
 C150 C 0.38903 0.61440 -0.05401
 C151 C 0.42655 0.57516 -0.13662
 C152 C 0.47820 0.42163 0.07445
 C153 C 0.44700 0.38786 0.10726
 C154 C 0.36407 0.42711 0.07046
 C155 C 0.39689 0.46016 0.03839
 N156 N 0.45288 0.45736 0.04151
 H157 H 0.48629 0.51473 -0.12271
 H158 H 0.42054 0.58290 0.02210
 H159 H 0.36251 0.64213 -0.03313
 H160 H 0.42977 0.57194 -0.18108
 H161 H 0.52282 0.41965 0.07541
 H162 H 0.46811 0.36007 0.13353
 H163 H 0.31958 0.43028 0.06757
 H164 H 0.37745 0.48785 0.01094
 C165 C 0.60925 0.39067 -0.10793
 C166 C 0.60585 0.61126 0.10904
 C167 C 0.38907 0.39051 0.10575
 C168 C 0.39095 0.61169 -0.11194
 N169 N 0.23320 -0.17506 -0.17349
 C170 C 0.20922 -0.20992 -0.20814
 N171 N 0.15334 -0.21265 -0.21028
 N172 N 0.12247 -0.18158 -0.17872
 C173 C 0.14629 -0.14657 -0.14387
 N174 N 0.20233 -0.14400 -0.14194
 N175 N 0.15147 0.28964 0.29259
 C176 C 0.20734 0.29232 0.29444
 N177 N 0.23162 0.32697 0.32908
 N178 N 0.20101 0.35800 0.36089
 C179 C 0.14496 0.35555 0.35925
 N180 N 0.12085 0.32068 0.32443
 N181 N 0.65105 -0.21114 0.29204
 C182 C 0.70689 -0.20807 0.29423
 N183 N 0.73069 -0.17343 0.32921
 N184 N 0.69962 -0.14281 0.36104
 C185 C 0.64359 -0.14568 0.35906
 N186 N 0.61999 -0.18052 0.32388
 N187 N 0.65116 0.28922 -0.20833
 C188 C 0.70699 0.29192 -0.20582
 N189 N 0.73085 0.32677 -0.17111
 N190 N 0.69981 0.35797 -0.13986
 C191 C 0.64378 0.35550 -0.14221
 N192 N 0.62013 0.32041 -0.17707
 N193 N -0.20741 0.21036 -0.15148
 C194 C -0.20557 0.20768 -0.20734
 N195 N -0.17093 0.17303 -0.23162
 N196 N -0.13911 0.14200 -0.20101
 C197 C -0.14076 0.14445 -0.14496
 N198 N -0.17558 0.17932 -0.12086
 N199 N -0.17078 0.67343 0.26932
 C200 C -0.20577 0.70807 0.29312
 N201 N -0.20796 0.71114 0.34895
 N202 N -0.17612 0.68052 0.38002
 C203 C -0.14093 0.64568 0.35641
 N204 N -0.13895 0.64281 0.30039
 N205 N 0.32889 0.17323 0.26915
 C206 C 0.29417 0.20808 0.29300
 N207 N 0.29167 0.21078 0.34884
 N208 N 0.32292 0.17959 0.37987
 C209 C 0.35779 0.14449 0.35621
 N210 N 0.36013 0.14203 0.30018
 N211 N 0.32651 0.67506 -0.23320
 C212 C 0.29186 0.70993 -0.20921
 N213 N 0.28973 0.71265 -0.15334
 N214 N 0.32129 0.68159 -0.12247
 C215 C 0.35614 0.64658 -0.14629
 N216 N 0.35806 0.64400 -0.20233
 N217 N -0.23068 -0.17343 0.17078
 C218 C -0.20688 -0.20807 0.20577
 N219 N -0.15105 -0.21114 0.20796
 N220 N -0.11998 -0.18052 0.17612
 C221 C -0.14359 -0.14568 0.14093
 N222 N -0.19961 -0.14281 0.13896
 N223 N -0.15116 0.28922 0.70833
 C224 C -0.20700 0.29192 0.70583
 N225 N -0.23085 0.32678 0.67112
 N226 N -0.19982 0.35797 0.63987
 C227 C -0.14379 0.35551 0.64222
 N228 N -0.12014 0.32041 0.67708
 N229 N 0.34667 -0.21265 0.71028
 C230 C 0.29079 -0.20993 0.70814
 N231 N 0.26680 -0.17506 0.67349
 N232 N 0.29768 -0.14400 0.64194
 C233 C 0.35371 -0.14658 0.64386
 N234 N 0.37753 -0.18159 0.67871
 N235 N 0.26837 0.32697 0.17093
 C236 C 0.29266 0.29232 0.20557
 N237 N 0.34852 0.28964 0.20741
 N238 N 0.37914 0.32068 0.17558
 C239 C 0.35503 0.35555 0.14076
 N240 N 0.29899 0.35800 0.13911
 N241 N 0.17111 0.17323 0.23085
 C242 C 0.20582 0.20808 0.20700
 N243 N 0.20833 0.21078 0.15116
 N244 N 0.17708 0.17959 0.12013
 C245 C 0.14221 0.14450 0.14379
 N246 N 0.13986 0.14203 0.19982
 N247 N 0.17349 0.67506 0.73320
 C248 C 0.20814 0.70992 0.70921
 N249 N 0.21028 0.71265 0.65334
 N250 N 0.17872 0.68158 0.62247
 C251 C 0.14387 0.64658 0.64629
 N252 N 0.14194 0.64400 0.70233
 N253 N 0.67092 0.17303 0.73162
 C254 C 0.70556 0.20769 0.70734
 N255 N 0.70741 0.21036 0.65148
 N256 N 0.67557 0.17933 0.62086
 C257 C 0.64075 0.14445 0.64496
 N258 N 0.63911 0.14200 0.70101
 N259 N 0.67079 0.67343 0.23068
 C260 C 0.70577 0.70807 0.20688
 N261 N 0.70796 0.71114 0.15105
 N262 N 0.67612 0.68052 0.11998
 C263 C 0.64093 0.64568 0.14359
 N264 N 0.63896 0.64281 0.19961
   
