data_POSCAR
  _audit_creation_date              2014-09-24
  _audit_creation_method            'ToBaCCo'
  _symmetry_space_group_name_H-M    'P1'
  _symmetry_Int_Tables_number       1
  _symmetry_cell_setting            triclinic
  loop_
  _symmetry_equiv_pos_as_xyz
 x,y,z
_cell_length_a 43.3520
_cell_length_b 43.3143
_cell_length_c 39.9082
_cell_angle_alpha 90.074000
_cell_angle_beta 90.001000
_cell_angle_gamma 120.039100
loop_
  _atom_site_label
  _atom_site_type_symbol
  _atom_site_fract_x
  _atom_site_fract_y
  _atom_site_fract_z
O1 O 0.04435 0.49165 0.00878
 O2 O 0.00238 0.53082 -0.04304
 O3 O 0.04464 0.55171 0.00905
 O4 O 0.00215 0.47079 -0.04338
 O5 O -0.04472 0.44736 -0.00983
 O6 O -0.00222 0.52828 0.04262
 O7 O -0.04448 0.50739 -0.00947
 O8 O -0.00252 0.46821 0.04234
 Cu9 Cu 0.02811 0.51360 -0.02053
 Cu10 Cu -0.02821 0.48544 0.01980
 C11 C 0.02816 0.47364 0.03451
 C12 C -0.02829 0.52541 -0.03519
 C13 C 0.02853 0.55351 0.03486
 C14 C -0.02862 0.44557 -0.03566
 O15 O 0.55171 0.50676 -0.00952
 O16 O 0.47087 0.46825 0.04276
 O17 O 0.49181 0.44681 -0.00927
 O18 O 0.53076 0.52820 0.04247
 O19 O 0.50723 0.55142 0.00878
 O20 O 0.46828 0.47003 -0.04295
 O21 O 0.44733 0.49146 0.00907
 O22 O 0.52817 0.52997 -0.04321
 Cu23 Cu 0.51366 0.48516 0.02001
 Cu24 Cu 0.48537 0.51305 -0.02048
 C25 C 0.55344 0.52457 -0.03537
 C26 C 0.44561 0.47367 0.03493
 C27 C 0.47379 0.44483 -0.03505
 C28 C 0.52527 0.55340 0.03454
 O29 O 0.52876 0.99844 -0.04295
 O30 O 0.44759 0.95635 0.00885
 O31 O 0.46900 0.99864 -0.04319
 O32 O 0.50732 0.95609 0.00901
 O33 O 0.53080 1.00296 0.04272
 O34 O 0.49248 1.04552 -0.00949
 O35 O 0.47107 1.00323 0.04254
 O36 O 0.55224 1.04531 -0.00924
 Cu37 Cu 0.48579 0.97266 -0.02047
 Cu38 Cu 0.51401 1.02898 0.02003
 C39 C 0.55405 1.02913 -0.03502
 C40 C 0.44579 0.97252 0.03464
 C41 C 0.47458 1.02942 -0.03535
 C42 C 0.52523 0.97219 0.03486
 O43 O 1.04519 0.55208 0.49057
 O44 O 1.00305 0.47085 0.54229
 O45 O 1.04528 0.49221 0.49020
 O46 O 1.00290 0.53068 0.54256
 O47 O 0.95606 0.50725 0.50890
 O48 O 0.99844 0.46878 0.45656
 O49 O 0.95620 0.44741 0.50864
 O50 O 0.99835 0.52865 0.45690
 Cu51 Cu 1.02883 0.51381 0.51980
 Cu52 Cu 0.97254 0.48565 0.47935
 C53 C 1.02904 0.55393 0.46482
 C54 C 0.97235 0.44558 0.53440
 C55 C 1.02918 0.47432 0.46434
 C56 C 0.97217 0.52516 0.53475
 O57 O 0.44753 0.49214 0.49112
 O58 O 0.52892 0.53126 0.54271
 O59 O 0.50743 0.55207 0.49070
 O60 O 0.46899 0.47135 0.54317
 O61 O 0.49212 0.44765 0.50951
 O62 O 0.53056 0.52837 0.45703
 O63 O 0.55205 0.50756 0.50904
 O64 O 0.47066 0.46843 0.45746
 Cu65 Cu 0.48588 0.51409 0.52032
 Cu66 Cu 0.51368 0.48561 0.47986
 C67 C 0.44551 0.47399 0.46539
 C68 C 0.55407 0.52571 0.53477
 C69 C 0.52518 0.55370 0.46482
 C70 C 0.47438 0.44603 0.53539
 O71 O 0.50712 -0.04457 0.49061
 O72 O 0.46803 -0.00256 0.54258
 O73 O 0.44716 -0.04476 0.49035
 O74 O 0.52801 -0.00231 0.54275
 O75 O 0.55145 0.04461 0.50924
 O76 O 0.47060 0.00216 0.45686
 O77 O 0.49147 0.04437 0.50908
 O78 O 0.53056 0.00236 0.45710
 Cu79 Cu 0.48521 -0.02828 0.51995
 Cu80 Cu 0.51338 0.02811 0.47969
 C81 C 0.52514 -0.02835 0.46490
 C82 C 0.47347 0.02816 0.53481
 C83 C 0.44539 -0.02863 0.46456
 C84 C 0.55323 0.02846 0.53501
 C85 C 0.31107 0.43199 0.23324
 C86 C 0.31098 0.43198 0.26762
 C87 C 0.27680 0.42295 0.27748
 N88 N 0.25597 0.41701 0.25027
 C89 C 0.27694 0.42296 0.22319
 C90 C 0.26516 0.41915 0.31107
 C91 C 0.23130 0.41329 0.32078
 C92 C 0.21724 0.40390 0.35283
 C93 C 0.18557 0.40407 0.35277
 C94 C 0.18112 0.41354 0.32069
 N95 N 0.20913 0.41916 0.30144
 C96 C 0.15330 0.41963 0.31083
 C97 C 0.14558 0.42330 0.27718
 C98 C 0.12052 0.43238 0.26711
 C99 C 0.12051 0.43220 0.23273
 C100 C 0.14557 0.42302 0.22288
 N101 N 0.16049 0.41717 0.25010
 C102 C 0.15331 0.41903 0.18930
 C103 C 0.18122 0.41302 0.17959
 C104 C 0.18577 0.40345 0.14757
 C105 C 0.21755 0.40351 0.14763
 C106 C 0.23156 0.41311 0.17969
 N107 N 0.20927 0.41890 0.19893
 C108 C 0.26546 0.41915 0.18954
 H109 H 0.33369 0.43794 0.21747
 H110 H 0.33352 0.43792 0.28352
 H111 H 0.21519 0.43085 0.22236
 H112 H 0.22892 0.39820 0.37421
 H113 H 0.16814 0.39850 0.37409
 H114 H 0.10394 0.43847 0.28287
 H115 H 0.10393 0.43812 0.21682
 H116 H 0.22933 0.39779 0.12631
 H117 H 0.21513 0.43099 0.27799
 H118 H 0.16834 0.39769 0.12619
 C119 C 0.56713 0.87913 0.23266
 C120 C 0.56722 0.87913 0.26704
 C121 C 0.57631 0.85402 0.27689
 N122 N 0.58221 0.83907 0.24969
 C123 C 0.57618 0.85402 0.22260
 C124 C 0.58020 0.84626 0.31048
 C125 C 0.58614 0.81830 0.32020
 C126 C 0.59562 0.81373 0.35224
 C127 C 0.59553 0.78191 0.35218
 C128 C 0.58601 0.76789 0.32010
 N129 N 0.58029 0.79022 0.30085
 C130 C 0.57997 0.73395 0.31024
 C131 C 0.57620 0.72245 0.27659
 C132 C 0.56715 0.68828 0.26653
 C133 C 0.56721 0.68835 0.23215
 C134 C 0.57629 0.72257 0.22230
 N135 N 0.58221 0.74344 0.24951
 C136 C 0.58015 0.73421 0.18871
 C137 C 0.58607 0.76812 0.17899
 C138 C 0.59552 0.78217 0.14696
 C139 C 0.59543 0.81390 0.14702
 C140 C 0.58594 0.81839 0.17909
 N141 N 0.58024 0.79034 0.19834
 C142 C 0.57992 0.84628 0.18895
 H143 H 0.56112 0.89576 0.21689
 H144 H 0.56129 0.89576 0.28294
 H145 H 0.56839 0.78437 0.22178
 H146 H 0.60134 0.83117 0.37363
 H147 H 0.60118 0.77011 0.37350
 H148 H 0.56115 0.66563 0.28229
 H149 H 0.56127 0.66577 0.21625
 H150 H 0.60106 0.83135 0.12570
 H151 H 0.56842 0.78431 0.27740
 H152 H 0.60122 0.77044 0.12558
 C153 C 0.12153 0.68863 0.23302
 C154 C 0.12159 0.68873 0.26740
 C155 C 0.14667 0.72298 0.27732
 N156 N 0.16154 0.74385 0.25015
 C157 C 0.14657 0.72283 0.22303
 C158 C 0.15447 0.73465 0.31093
 C159 C 0.18242 0.76860 0.32071
 C160 C 0.18705 0.78265 0.35278
 C161 C 0.21884 0.81443 0.35277
 C162 C 0.23278 0.81895 0.32069
 N163 N 0.21044 0.79087 0.30139
 C164 C 0.26666 0.84689 0.31087
 C165 C 0.27806 0.85467 0.27722
 C166 C 0.31217 0.87986 0.26718
 C167 C 0.31200 0.87986 0.23280
 C168 C 0.27779 0.85467 0.22292
 N169 N 0.25702 0.83967 0.25012
 C170 C 0.26608 0.84688 0.18933
 C171 C 0.23219 0.81883 0.17959
 C172 C 0.21806 0.81420 0.14756
 C173 C 0.18639 0.78230 0.14757
 C174 C 0.18201 0.76831 0.17960
 N175 N 0.21007 0.79071 0.19888
 C176 C 0.15422 0.73433 0.18940
 H177 H 0.10491 0.66596 0.21721
 H178 H 0.10503 0.66614 0.28326
 H179 H 0.21612 0.78485 0.22229
 H180 H 0.16967 0.77090 0.37415
 H181 H 0.23067 0.83189 0.37413
 H182 H 0.33483 0.89653 0.28295
 H183 H 0.33451 0.89654 0.21691
 H184 H 0.16892 0.77045 0.12624
 H185 H 0.21630 0.78491 0.27791
 H186 H 0.22970 0.83166 0.12622
 C187 C 0.87934 0.56737 0.73272
 C188 C 0.87930 0.56744 0.76710
 C189 C 0.85418 0.57651 0.77698
 N190 N 0.83927 0.58242 0.74979
 C191 C 0.85425 0.57641 0.72269
 C192 C 0.84638 0.58037 0.81058
 C193 C 0.81840 0.58626 0.82031
 C194 C 0.81376 0.59568 0.85238
 C195 C 0.78194 0.59554 0.85233
 C196 C 0.76799 0.58605 0.82023
 N197 N 0.79036 0.58039 0.80096
 C198 C 0.73409 0.57997 0.81037
 C199 C 0.72266 0.57627 0.77671
 C200 C 0.68853 0.56721 0.76663
 C201 C 0.68868 0.56736 0.73225
 C202 C 0.72289 0.57649 0.72242
 N203 N 0.74369 0.58235 0.74964
 C204 C 0.73459 0.58043 0.68884
 C205 C 0.76848 0.58636 0.67912
 C206 C 0.78257 0.59586 0.64710
 C207 C 0.81427 0.59576 0.64715
 C208 C 0.81871 0.58622 0.67920
 N209 N 0.79065 0.58049 0.69845
 C210 C 0.84655 0.58017 0.68904
 H211 H 0.89598 0.56137 0.71694
 H212 H 0.89590 0.56150 0.78298
 H213 H 0.78464 0.56860 0.72187
 H214 H 0.83116 0.60139 0.87377
 H215 H 0.77010 0.60113 0.87367
 H216 H 0.66587 0.56116 0.78239
 H217 H 0.66615 0.56143 0.71634
 H218 H 0.83174 0.60141 0.62584
 H219 H 0.78451 0.56854 0.77749
 H220 H 0.77089 0.60159 0.62573
 C221 C 0.43243 0.12082 0.73332
 C222 C 0.43265 0.12087 0.76770
 C223 C 0.42364 0.14600 0.77780
 N224 N 0.41751 0.16091 0.75074
 C225 C 0.42330 0.14592 0.72351
 C226 C 0.42002 0.15379 0.81147
 C227 C 0.41399 0.18167 0.82135
 C228 C 0.40456 0.18617 0.85344
 C229 C 0.40444 0.21789 0.85352
 C230 C 0.41380 0.23192 0.82147
 N231 N 0.41962 0.20969 0.80210
 C232 C 0.41968 0.26581 0.81176
 C233 C 0.42348 0.27743 0.77817
 C234 C 0.43255 0.31165 0.76831
 C235 C 0.43255 0.31171 0.73393
 C236 C 0.42348 0.27752 0.72388
 N237 N 0.41751 0.25655 0.75096
 C238 C 0.41964 0.26599 0.69022
 C239 C 0.41353 0.23203 0.68037
 C240 C 0.40389 0.21798 0.64832
 C241 C 0.40376 0.18613 0.64825
 C242 C 0.41334 0.18159 0.68025
 N243 N 0.41928 0.20971 0.69960
 C244 C 0.41929 0.15363 0.68994
 H245 H 0.43830 0.10417 0.71739
 H246 H 0.43872 0.10427 0.78344
 H247 H 0.43124 0.21565 0.72301
 H248 H 0.39900 0.16875 0.87477
 H249 H 0.39877 0.22962 0.87492
 H250 H 0.43852 0.33423 0.78421
 H251 H 0.43852 0.33434 0.71817
 H252 H 0.39796 0.16866 0.62687
 H253 H 0.43141 0.21566 0.77863
 H254 H 0.39819 0.22976 0.62702
 C255 C 0.68859 0.12155 0.76742
 C256 C 0.68846 0.12146 0.73304
 C257 C 0.72263 0.14647 0.72300
 N258 N 0.74367 0.16145 0.75009
 C259 C 0.72284 0.14662 0.77729
 C260 C 0.73409 0.15408 0.68935
 C261 C 0.76805 0.18185 0.67951
 C262 C 0.78200 0.18618 0.64746
 C263 C 0.81390 0.21784 0.64741
 C264 C 0.81858 0.23201 0.67944
 N265 N 0.79049 0.20993 0.69877
 C266 C 0.84667 0.26591 0.68916
 C267 C 0.85449 0.27767 0.72274
 C268 C 0.87971 0.31190 0.73259
 C269 C 0.87973 0.31211 0.76697
 C270 C 0.85453 0.27799 0.77703
 N271 N 0.83950 0.25692 0.74995
 C272 C 0.84677 0.26662 0.81069
 C273 C 0.81883 0.23274 0.82054
 C274 C 0.81433 0.21882 0.85262
 C275 C 0.78255 0.18703 0.85267
 C276 C 0.76848 0.18239 0.82062
 N277 N 0.79074 0.21039 0.80127
 C278 C 0.73454 0.15444 0.81088
 H279 H 0.66603 0.10502 0.78331
 H280 H 0.66578 0.10484 0.71726
 H281 H 0.78478 0.21625 0.77782
 H282 H 0.77011 0.16867 0.62613
 H283 H 0.83133 0.22944 0.62604
 H284 H 0.89639 0.33440 0.71669
 H285 H 0.89643 0.33479 0.78274
 H286 H 0.77081 0.16966 0.87405
 H287 H 0.78467 0.21602 0.72220
 H288 H 0.83181 0.23066 0.87396
 C289 C 0.04549 0.46039 0.05592
 C290 C 0.06065 0.45062 0.07469
 C291 C 0.07906 0.44074 0.09750
 C292 C 0.09530 0.43366 0.11763
 C293 C 0.11490 0.42696 0.14189
 C294 C 0.13209 0.42261 0.16317
 C295 C 0.53851 0.58412 0.05586
 C296 C 0.54830 0.60921 0.07453
 C297 C 0.55822 0.63769 0.09721
 C298 C 0.56535 0.66118 0.11722
 C299 C 0.57211 0.68764 0.14138
 C300 C 0.57652 0.70932 0.16259
 C301 C 0.41521 0.95514 0.05605
 C302 C 0.39027 0.93991 0.07482
 C303 C 0.36199 0.92143 0.09761
 C304 C 0.33867 0.90512 0.11773
 C305 C 0.31239 0.88545 0.14197
 C306 C 0.29085 0.86819 0.16323
 C307 C 0.95473 0.53826 0.55626
 C308 C 0.93947 0.54797 0.57502
 C309 C 0.92096 0.55785 0.59775
 C310 C 0.90464 0.56500 0.61777
 C311 C 0.88499 0.57185 0.64188
 C312 C 0.86777 0.57637 0.66302
 C313 C 0.46133 0.41557 0.55699
 C314 C 0.45167 0.39070 0.57585
 C315 C 0.44184 0.36243 0.59870
 C316 C 0.43473 0.33907 0.61881
 C317 C 0.42792 0.31267 0.64301
 C318 C 0.42342 0.29099 0.66420
 C319 C 0.58378 0.04592 0.55653
 C320 C 0.60876 0.06118 0.57531
 C321 C 0.63718 0.07969 0.59805
 C322 C 0.66067 0.09600 0.61807
 C323 C 0.68721 0.11565 0.64218
 C324 C 0.70900 0.13286 0.66333
 C325 C 0.46229 0.04599 0.94429
 C326 C 0.45256 0.06123 0.92554
 C327 C 0.44264 0.07968 0.90280
 C328 C 0.43544 0.09592 0.88276
 C329 C 0.42853 0.11549 0.85862
 C330 C 0.42393 0.13264 0.83746
 C331 C 0.58397 0.53768 0.94314
 C332 C 0.60893 0.54742 0.92438
 C333 C 0.63731 0.55735 0.90165
 C334 C 0.66077 0.56456 0.88163
 C335 C 0.68728 0.57148 0.85752
 C336 C 0.70904 0.57608 0.83637
 C337 C 0.95482 0.41671 0.94389
 C338 C 0.93958 0.39174 0.92506
 C339 C 0.92111 0.36337 0.90222
 C340 C 0.90484 0.33993 0.88212
 C341 C 0.88522 0.31345 0.85792
 C342 C 0.86802 0.29170 0.83672
 C343 C 0.53844 0.95433 0.44349
 C344 C 0.54827 0.93914 0.42477
 C345 C 0.55822 0.92068 0.40205
 C346 C 0.56538 0.90439 0.38200
 C347 C 0.57215 0.88474 0.35782
 C348 C 0.57657 0.86751 0.33660
 C349 C 0.41483 0.46073 0.44407
 C350 C 0.38979 0.45094 0.42539
 C351 C 0.36139 0.44103 0.40268
 C352 C 0.33798 0.43391 0.38262
 C353 C 0.31160 0.42717 0.35843
 C354 C 0.28999 0.42277 0.33719
 C355 C 0.04641 0.58460 0.44351
 C356 C 0.06163 0.60967 0.42487
 C357 C 0.08011 0.63813 0.40224
 C358 C 0.09642 0.66161 0.38227
 C359 C 0.11606 0.68807 0.35817
 C360 C 0.13328 0.70975 0.33699
 C361 C 0.95440 0.53871 0.94345
 C362 C 0.93921 0.54854 0.92476
 C363 C 0.92076 0.55848 0.90207
 C364 C 0.90447 0.56561 0.88205
 C365 C 0.88483 0.57236 0.85789
 C366 C 0.86760 0.57676 0.83668
 C367 C 0.46134 0.41581 0.94472
 C368 C 0.45152 0.39072 0.92605
 C369 C 0.44160 0.36226 0.90335
 C370 C 0.43447 0.33879 0.88331
 C371 C 0.42772 0.31235 0.85912
 C372 C 0.42332 0.29070 0.83788
 C373 C 0.58469 0.04649 0.94365
 C374 C 0.60972 0.06169 0.92498
 C375 C 0.63815 0.08016 0.90232
 C376 C 0.66160 0.09645 0.88231
 C377 C 0.68803 0.11607 0.85818
 C378 C 0.70967 0.13327 0.83698
 C379 C 0.04569 0.46199 0.44392
 C380 C 0.06088 0.45223 0.42511
 C381 C 0.07929 0.44229 0.40231
 C382 C 0.09550 0.43508 0.38222
 C383 C 0.11503 0.42815 0.35804
 C384 C 0.13216 0.42355 0.33685
 C385 C 0.53824 0.58417 0.44325
 C386 C 0.54791 0.60907 0.42442
 C387 C 0.55775 0.63739 0.40163
 C388 C 0.56487 0.66080 0.38157
 C389 C 0.57168 0.68724 0.35741
 C390 C 0.57618 0.70895 0.33625
 C391 C 0.41656 0.95483 0.44412
 C392 C 0.39161 0.93960 0.42529
 C393 C 0.36328 0.92115 0.40245
 C394 C 0.33987 0.90489 0.38234
 C395 C 0.31342 0.88529 0.35813
 C396 C 0.29170 0.86811 0.33692
 C397 C 0.53826 0.95467 0.05632
 C398 C 0.54791 0.93936 0.07505
 C399 C 0.55773 0.92079 0.09775
 C400 C 0.56484 0.90444 0.11773
 C401 C 0.57164 0.88475 0.14182
 C402 C 0.57614 0.86751 0.16295
 C403 C 0.41512 0.46063 0.05647
 C404 C 0.39021 0.45097 0.07528
 C405 C 0.36191 0.44117 0.09809
 C406 C 0.33853 0.43409 0.11816
 C407 C 0.31212 0.42733 0.14234
 C408 C 0.29044 0.42288 0.16352
 C409 C 0.04601 0.58407 0.05641
 C410 C 0.06129 0.60906 0.07521
 C411 C 0.07981 0.63747 0.09798
 C412 C 0.09613 0.66096 0.11802
 C413 C 0.11579 0.68749 0.14217
 C414 C 0.13300 0.70927 0.16335
 C415 C 0.46027 0.04551 0.55629
 C416 C 0.45055 0.06071 0.57512
 C417 C 0.44073 0.07916 0.59800
 C418 C 0.43371 0.09544 0.61817
 C419 C 0.42709 0.11509 0.64248
 C420 C 0.42279 0.13234 0.66378
 C421 C 0.58477 0.53898 0.55606
 C422 C 0.60984 0.54878 0.57471
 C423 C 0.63828 0.55868 0.59736
 C424 C 0.66173 0.56578 0.61736
 C425 C 0.68815 0.57249 0.64151
 C426 C 0.70977 0.57686 0.66272
 C427 C 0.95494 0.41499 0.55580
 C428 C 0.93970 0.39004 0.57457
 C429 C 0.92121 0.36176 0.59737
 C430 C 0.90489 0.33845 0.61750
 C431 C 0.88522 0.31218 0.64176
 C432 C 0.86796 0.29066 0.66303
   
