data_POSCAR
  _audit_creation_date              2014-09-24
  _audit_creation_method            'ToBaCCo'
  _symmetry_space_group_name_H-M    'P1'
  _symmetry_Int_Tables_number       1
  _symmetry_cell_setting            triclinic
  loop_
  _symmetry_equiv_pos_as_xyz
 x,y,z
_cell_length_a 37.1782
_cell_length_b 37.0716
_cell_length_c 38.8149
_cell_angle_alpha 90.265700
_cell_angle_beta 89.133200
_cell_angle_gamma 90.103400
loop_
  _atom_site_label
  _atom_site_type_symbol
  _atom_site_fract_x
  _atom_site_fract_y
  _atom_site_fract_z
C1 C 0.27881 0.38522 0.02562
 C2 C 0.29974 0.37798 0.05422
 C3 C 0.32957 0.35550 0.05082
 C4 C 0.33708 0.33756 0.01928
 C5 C 0.31542 0.34539 -0.00944
 C6 C 0.28619 0.36956 -0.00662
 C7 C 0.36543 0.30882 0.01733
 C8 C 0.38244 0.29888 -0.01421
 C9 C 0.40737 0.26995 -0.01614
 C10 C 0.41704 0.25366 0.01526
 C11 C 0.40077 0.26329 0.04653
 C12 C 0.37459 0.29000 0.04733
 H13 H 0.25767 0.40478 0.02881
 H14 H 0.34599 0.35150 0.07323
 H15 H 0.31970 0.33099 -0.03341
 H16 H 0.37652 0.31426 -0.03688
 H17 H 0.43713 0.23297 0.01598
 H18 H 0.36116 0.29536 0.07171
 C19 C 0.71857 0.60847 -0.02837
 C20 C 0.70832 0.61274 0.00632
 C21 C 0.68118 0.63784 0.01473
 C22 C 0.66624 0.66044 -0.01075
 C23 C 0.67914 0.65684 -0.04505
 C24 C 0.70439 0.63046 -0.05385
 C25 C 0.63774 0.68776 -0.00164
 C26 C 0.61434 0.70137 -0.02699
 C27 C 0.58857 0.72839 -0.01922
 C28 C 0.58446 0.73881 0.01553
 C29 C 0.60688 0.72545 0.04094
 C30 C 0.63394 0.70092 0.03235
 H31 H 0.73802 0.58802 -0.03583
 H32 H 0.67215 0.63976 0.04119
 H33 H 0.67018 0.67445 -0.06528
 H34 H 0.61683 0.69132 -0.05289
 H35 H 0.56333 0.75714 0.02359
 H36 H 0.65200 0.69282 0.05242
 C37 C 0.73131 0.38752 0.98796
 C38 C 0.71016 0.37973 0.95933
 C39 C 0.68804 0.34914 0.95976
 C40 C 0.68721 0.32578 0.98843
 C41 C 0.70853 0.33442 1.01714
 C42 C 0.73053 0.36519 1.01690
 C43 C 0.66493 0.29215 0.98784
 C44 C 0.65011 0.27751 1.01842
 C45 C 0.62965 0.24525 1.01809
 C46 C 0.62317 0.22901 0.98575
 C47 C 0.63641 0.24395 0.95502
 C48 C 0.65811 0.27469 0.95638
 H49 H 0.74864 0.41108 0.98772
 H50 H 0.67116 0.34412 0.93778
 H51 H 0.70910 0.31683 1.03931
 H52 H 0.65344 0.29235 1.04211
 H53 H 0.60758 0.20454 0.98400
 H54 H 0.66966 0.28478 0.93254
 C55 C 0.26708 0.60378 1.01008
 C56 C 0.27900 0.61072 0.97634
 C57 C 0.30384 0.63857 0.97038
 C58 C 0.31468 0.66140 0.99767
 C59 C 0.30075 0.65475 1.03114
 C60 C 0.27764 0.62572 1.03738
 C61 C 0.33908 0.69292 0.99136
 C62 C 0.36021 0.70702 1.01822
 C63 C 0.38120 0.73846 1.01386
 C64 C 0.38366 0.75316 0.98047
 C65 C 0.36329 0.73939 0.95339
 C66 C 0.34070 0.70982 0.95896
 H67 H 0.24907 0.58132 1.01504
 H68 H 0.31371 0.64272 0.94435
 H69 H 0.30692 0.67240 1.05252
 H70 H 0.36110 0.69269 1.04230
 H71 H 0.40084 0.77603 0.97518
 H72 H 0.32435 0.70055 0.93787
 C73 C -0.01667 0.28608 0.40266
 C74 C 0.01486 0.30602 0.39670
 C75 C 0.01623 0.33003 0.36905
 C76 C -0.01201 0.33220 0.34529
 C77 C -0.04367 0.31204 0.35194
 C78 C -0.04615 0.28945 0.38086
 C79 C -0.00678 0.35359 0.31290
 C80 C -0.03609 0.36823 0.29484
 C81 C -0.03048 0.38682 0.26348
 C82 C 0.00514 0.39345 0.25239
 C83 C 0.03435 0.37944 0.26992
 C84 C 0.02831 0.35880 0.29933
 H85 H -0.01817 0.26709 0.42378
 H86 H 0.04004 0.34657 0.36599
 H87 H -0.06585 0.31253 0.33423
 H88 H -0.06323 0.36420 0.30448
 H89 H 0.01044 0.41136 0.23100
 H90 H 0.05148 0.34685 0.31130
 C91 C 0.01583 0.70391 0.59673
 C92 C 0.04766 0.69713 0.61413
 C93 C 0.04768 0.67305 0.64179
 C94 C 0.01595 0.65444 0.65167
 C95 C -0.01558 0.66055 0.63251
 C96 C -0.01609 0.68595 0.60577
 C97 C 0.01513 0.63070 0.68299
 C98 C -0.01753 0.62465 0.70121
 C99 C -0.01868 0.60454 0.73185
 C100 C 0.01364 0.59064 0.74447
 C101 C 0.04637 0.59667 0.72740
 C102 C 0.04699 0.61560 0.69622
 H103 H 0.01599 0.72409 0.57663
 H104 H 0.07222 0.67027 0.65611
 H105 H -0.04008 0.64584 0.63814
 H106 H -0.04206 0.63734 0.69297
 H107 H 0.01340 0.57333 0.76684
 H108 H 0.07249 0.61861 0.68279
 C109 C 0.97294 0.72634 0.39427
 C110 C 0.94372 0.70790 0.38070
 C111 C 0.94820 0.68648 0.35157
 C112 C 0.98160 0.68468 0.33408
 C113 C 1.01130 0.70354 0.34818
 C114 C 1.00729 0.72479 0.37857
 C115 C 0.98424 0.66365 0.30098
 C116 C 1.01662 0.64687 0.29012
 C117 C 1.01809 0.62541 0.25984
 C118 C 0.98581 0.61933 0.24215
 C119 C 0.95373 0.63608 0.25203
 C120 C 0.95332 0.65898 0.28062
 H121 H 0.96838 0.74091 0.41798
 H122 H 0.92514 0.67137 0.34279
 H123 H 1.03682 0.70337 0.33448
 H124 H 1.04053 0.65087 0.30510
 H125 H 0.98457 0.59914 0.22218
 H126 H 0.92829 0.67241 0.28711
 C127 C 1.01396 0.27974 0.60825
 C128 C 0.97906 0.28181 0.62229
 C129 C 0.97331 0.29979 0.65397
 C130 C 1.00261 0.31539 0.67149
 C131 C 1.03720 0.31380 0.65582
 C132 C 1.04299 0.29468 0.62535
 C133 C 0.99872 0.33003 0.70737
 C134 C 1.02844 0.32809 0.72934
 C135 C 1.02810 0.34419 0.76192
 C136 C 0.99515 0.35682 0.77487
 C137 C 0.96491 0.36062 0.75375
 C138 C 0.96695 0.34701 0.71967
 H139 H 1.01898 0.26492 0.58450
 H140 H 0.94669 0.29968 0.66566
 H141 H 1.06031 0.32619 0.66767
 H142 H 1.05254 0.31391 0.72130
 H143 H 0.99366 0.36702 0.80058
 H144 H 0.94460 0.35058 0.70252
 C145 C 0.39224 0.02108 0.26963
 C146 C 0.38408 0.04995 0.29145
 C147 C 0.35385 0.04811 0.31305
 C148 C 0.33138 0.01738 0.31306
 C149 C 0.34131 -0.01256 0.29231
 C150 C 0.37159 -0.01072 0.26980
 C151 C 0.29679 0.01811 0.33327
 C152 C 0.28293 -0.01292 0.34997
 C153 C 0.25145 -0.01074 0.37075
 C154 C 0.23444 0.02296 0.37447
 C155 C 0.24731 0.05373 0.35792
 C156 C 0.27803 0.05101 0.33692
 H157 H 0.41594 0.02330 0.25356
 H158 H 0.34778 0.07102 0.32953
 H159 H 0.32411 -0.03615 0.29185
 H160 H 0.29745 -0.03812 0.34796
 H161 H 0.21183 0.02582 0.39178
 H162 H 0.28765 0.07510 0.32404
 C163 C 0.61423 0.01221 0.74433
 C164 C 0.62304 0.03754 0.71905
 C165 C 0.65118 0.03061 0.69577
 C166 C 0.67126 -0.00156 0.69771
 C167 C 0.66038 -0.02790 0.72191
 C168 C 0.63173 -0.02139 0.74534
 C169 C 0.70415 -0.00668 0.67547
 C170 C 0.71645 -0.04139 0.66597
 C171 C 0.74800 -0.04569 0.64600
 C172 C 0.76602 -0.01503 0.63363
 C173 C 0.75400 0.01977 0.64203
 C174 C 0.72389 0.02360 0.66387
 H175 H 0.59240 0.01840 0.76214
 H176 H 0.65725 0.05065 0.67634
 H177 H 0.67536 -0.05275 0.72408
 H178 H 0.70172 -0.06522 0.67389
 H179 H 0.78862 -0.01843 0.61597
 H180 H 0.71615 0.05037 0.67202
 C181 C 0.39312 1.02736 0.71562
 C182 C 0.38817 0.99202 0.70383
 C183 C 0.36657 0.98584 0.67497
 C184 C 0.34718 1.01450 0.65962
 C185 C 0.35140 1.04963 0.67382
 C186 C 0.37466 1.05602 0.70116
 C187 C 0.32098 1.00773 0.63079
 C188 C 0.30691 1.03676 0.61146
 C189 C 0.27737 1.03201 0.58948
 C190 C 0.26559 0.99661 0.58292
 C191 C 0.28084 0.96714 0.59943
 C192 C 0.30758 0.97268 0.62390
 H193 H 0.41123 1.03259 0.73672
 H194 H 0.36454 0.95850 0.66557
 H195 H 0.33628 1.07242 0.66479
 H196 H 0.31726 1.06366 0.61489
 H197 H 0.24466 0.99140 0.56443
 H198 H 0.31647 0.94944 0.63802
 C199 C 0.61743 0.99363 0.27657
 C200 C 0.61785 0.96038 0.29330
 C201 C 0.63461 0.95750 0.32523
 C202 C 0.65292 0.98746 0.33957
 C203 C 0.65246 1.02063 0.32144
 C204 C 0.63497 1.02378 0.28983
 C205 C 0.67398 0.98392 0.37213
 C206 C 0.68377 1.01483 0.39130
 C207 C 0.70769 1.01257 0.41877
 C208 C 0.71890 0.97848 0.42976
 C209 C 0.70832 0.94731 0.41226
 C210 C 0.68681 0.95005 0.38310
 H211 H 0.60077 0.99638 0.25422
 H212 H 0.63343 0.93183 0.33828
 H213 H 0.66716 1.04387 0.33053
 H214 H 0.67338 1.04101 0.38486
 H215 H 0.73758 0.97610 0.45080
 H216 H 0.68147 0.92568 0.36866
 O217 O 0.85608 0.79357 0.47547
 O218 O 0.82951 0.84346 0.55340
 O219 O 0.87581 0.78914 0.53514
 O220 O 0.81606 0.84551 0.48524
 O221 O 0.77061 0.80878 0.49659
 O222 O 0.83083 0.75313 0.55014
 O223 O 0.78392 0.80642 0.56243
 O224 O 0.81325 0.75352 0.48637
 Cu225 Cu 0.84810 0.82279 0.51331
 Cu226 Cu 0.79499 0.77685 0.52536
 C227 C 0.83969 0.76455 0.46813
 C228 C 0.80161 0.83437 0.57053
 C229 C 0.86429 0.76049 0.54924
 C230 C 0.78357 0.83624 0.48116
 O231 O 0.16889 0.14263 0.51809
 O232 O 0.11625 0.20935 0.47299
 O233 O 0.15915 0.15705 0.45334
 O234 O 0.13134 0.19948 0.53567
 O235 O 0.17741 0.23709 0.53153
 O236 O 0.20805 0.19082 0.45283
 O237 O 0.16373 0.24502 0.46775
 O238 O 0.21601 0.17881 0.51873
 Cu239 Cu 0.13947 0.17327 0.49518
 Cu240 Cu 0.19632 0.21625 0.49218
 C241 C 0.20097 0.14901 0.52677
 C242 C 0.13029 0.23895 0.46384
 C243 C 0.18907 0.16611 0.43958
 C244 C 0.14862 0.22685 0.54639
 O245 O 0.12476 0.81743 0.53313
 O246 O 0.15976 0.87930 0.46779
 O247 O 0.11085 0.82764 0.46846
 O248 O 0.17050 0.86868 0.53184
 O249 O 0.21382 0.83097 0.51635
 O250 O 0.15233 0.78794 0.45338
 O251 O 0.20138 0.84025 0.45127
 O252 O 0.16665 0.77783 0.51856
 Cu253 Cu 0.13701 0.85206 0.50124
 Cu254 Cu 0.18769 0.80519 0.48326
 C255 C 0.13999 0.78725 0.53745
 C256 C 0.18709 0.87126 0.44933
 C257 C 0.12060 0.80035 0.45080
 C258 C 0.20241 0.85720 0.53479
 O259 O 0.88604 0.17467 0.52769
 O260 O 0.82629 0.11922 0.47561
 O261 O 0.87292 0.17115 0.46195
 O262 O 0.84422 0.12081 0.53843
 O263 O 0.79894 0.15854 0.54683
 O264 O 0.83067 0.21181 0.47165
 O265 O 0.78273 0.15919 0.48301
 O266 O 0.84236 0.21365 0.53804
 Cu267 Cu 0.86192 0.14294 0.49951
 Cu268 Cu 0.80935 0.19008 0.51047
 C269 C 0.87441 0.20311 0.54241
 C270 C 0.79386 0.12886 0.47201
 C271 C 0.85772 0.20054 0.45422
 C272 C 0.81603 0.13014 0.55494
 O273 O 0.50631 0.84060 0.88364
 O274 O 0.45817 0.89513 0.82151
 O275 O 0.44084 0.84567 0.86520
 O276 O 0.52439 0.89155 0.84038
 O277 O 0.53510 0.85080 0.79998
 O278 O 0.45129 0.80370 0.82584
 O279 O 0.46804 0.85483 0.78046
 O280 O 0.51738 0.79934 0.84373
 Cu281 Cu 0.48158 0.87246 0.85653
 Cu282 Cu 0.49398 0.82315 0.80820
 C283 C 0.51914 0.81017 0.87480
 C284 C 0.45486 0.88479 0.79053
 C285 C 0.43249 0.81614 0.85083
 C286 C 0.54375 0.87963 0.81564
 O287 O 0.54723 0.15525 0.13760
 O288 O 0.48716 0.12471 0.20688
 O289 O 0.48033 0.16082 0.15087
 O290 O 0.55587 0.11802 0.19357
 O291 O 0.56508 0.16681 0.22504
 O292 O 0.49257 0.21201 0.17750
 O293 O 0.49590 0.17574 0.23529
 O294 O 0.56089 0.20420 0.16736
 Cu295 Cu 0.51685 0.13442 0.16965
 Cu296 Cu 0.52982 0.19470 0.20446
 C297 C 0.56360 0.18519 0.14009
 C298 C 0.48060 0.14525 0.23239
 C299 C 0.47443 0.19414 0.15573
 C300 C 0.57295 0.13453 0.21688
 O301 O 0.52402 0.12930 0.79173
 O302 O 0.47116 0.17249 0.86004
 O303 O 0.45578 0.13869 0.80220
 O304 O 0.53791 0.16202 0.84870
 O305 O 0.53938 0.21490 0.82275
 O306 O 0.46061 0.18859 0.77166
 O307 O 0.47068 0.22380 0.83134
 O308 O 0.52988 0.18144 0.76476
 Cu309 Cu 0.49641 0.14540 0.82831
 Cu310 Cu 0.49992 0.20751 0.79472
 C311 C 0.53666 0.14797 0.76711
 C312 C 0.46300 0.20560 0.85817
 C313 C 0.44525 0.15866 0.77792
 C314 C 0.55215 0.19285 0.84437
 O315 O 0.52881 0.87888 0.18207
 O316 O 0.46939 0.83904 0.11893
 O317 O 0.46140 0.88748 0.16810
 O318 O 0.53523 0.83175 0.13467
 O319 O 0.51987 0.78845 0.17101
 O320 O 0.44656 0.84585 0.20617
 O321 O 0.45286 0.79700 0.15605
 O322 O 0.51449 0.83717 0.22036
 Cu323 Cu 0.49972 0.86379 0.14734
 Cu324 Cu 0.48169 0.81287 0.19224
 C325 C 0.53245 0.86497 0.21157
 C326 C 0.45199 0.81055 0.12601
 C327 C 0.44210 0.87699 0.19341
 C328 C 0.53979 0.80036 0.14667
 O329 O 0.79618 0.47918 0.87249
 O330 O 0.86226 0.53676 0.83002
 O331 O 0.80293 0.54726 0.86258
 O332 O 0.85498 0.46848 0.83528
 O333 O 0.82547 0.46489 0.78646
 O334 O 0.76991 0.54238 0.81596
 O335 O 0.83135 0.53516 0.78195
 O336 O 0.76596 0.47290 0.82422
 Cu337 Cu 0.83207 0.50784 0.85492
 Cu338 Cu 0.79505 0.50335 0.79721
 C339 C 0.76953 0.46690 0.85622
 C340 C 0.85828 0.54619 0.79900
 C341 C 0.77717 0.55797 0.84425
 C342 C 0.85043 0.45414 0.80586
 O343 O 0.13430 0.53146 0.17809
 O344 O 0.19730 0.46713 0.14047
 O345 O 0.14238 0.46252 0.18070
 O346 O 0.18726 0.53614 0.13512
 O347 O 0.22445 0.54416 0.17831
 O348 O 0.17730 0.47094 0.22554
 O349 O 0.23427 0.47476 0.18398
 O350 O 0.16976 0.54059 0.22238
 Cu351 Cu 0.16183 0.49858 0.15417
 Cu352 Cu 0.20523 0.50842 0.20705
 C353 C 0.14075 0.54686 0.20657
 C354 C 0.22634 0.45975 0.15559
 C355 C 0.15158 0.45441 0.21095
 C356 C 0.21344 0.55263 0.14857
 O357 O 0.87789 0.47255 0.15539
 O358 O 0.82303 0.53013 0.10148
 O359 O 0.86826 0.54206 0.15100
 O360 O 0.83348 0.46219 0.10599
 O361 O 0.78853 0.45846 0.14362
 O362 O 0.82484 0.53750 0.19011
 O363 O 0.77818 0.52736 0.13924
 O364 O 0.83375 0.46768 0.19374
 Cu365 Cu 0.85523 0.50241 0.12491
 Cu366 Cu 0.80186 0.49774 0.17068
 C367 C 0.86531 0.45960 0.18328
 C368 C 0.79091 0.53760 0.11026
 C369 C 0.85305 0.55299 0.17859
 C370 C 0.80476 0.44704 0.11663
 O371 O 0.17552 0.51475 0.88496
 O372 O 0.12730 0.44039 0.84673
 O373 O 0.17590 0.44625 0.89262
 O374 O 0.13205 0.50958 0.83417
 O375 O 0.17620 0.50174 0.79624
 O376 O 0.22001 0.43788 0.85471
 O377 O 0.17072 0.43181 0.80822
 O378 O 0.22152 0.50705 0.84909
 Cu379 Cu 0.14812 0.47853 0.86808
 Cu380 Cu 0.20133 0.46920 0.82281
 C381 C 0.20710 0.52280 0.87510
 C382 C 0.14054 0.42284 0.82163
 C383 C 0.20564 0.43166 0.88395
 C384 C 0.14680 0.51659 0.80524
 C385 C 0.25301 0.38310 0.09900
 C386 C 0.28760 0.39253 0.08773
 C387 C 0.30356 0.42362 0.10190
 C388 C 0.28516 0.44401 0.12740
 C389 C 0.25045 0.43372 0.13872
 C390 C 0.23478 0.40331 0.12379
 C391 C 0.22098 0.37033 0.14157
 C392 C 0.24093 0.34830 0.11448
 H393 H 0.32914 0.43323 0.09185
 H394 H 0.29692 0.46898 0.13650
 H395 H 0.19125 0.36786 0.13992
 H396 H 0.23191 0.36720 0.16791
 H397 H 0.22275 0.33311 0.09715
 H398 H 0.26356 0.33235 0.12496
 C399 C 0.76279 0.58043 0.02723
 C400 C 0.72726 0.59155 0.03317
 C401 C 0.71108 0.58131 0.06496
 C402 C 0.73138 0.56375 0.09056
 C403 C 0.76828 0.55639 0.08499
 C404 C 0.78255 0.56351 0.05224
 C405 C 0.81642 0.58247 0.04181
 C406 C 0.79475 0.60099 0.01416
 H407 H 0.68309 0.58725 0.07038
 H408 H 0.71845 0.55674 0.11480
 H409 H 0.83695 0.56354 0.03115
 H410 H 0.82620 0.60127 0.06204
 H411 H 0.80293 0.59250 -0.01231
 H412 H 0.79205 0.63059 0.01814
 C413 C 0.72028 0.38894 0.89583
 C414 C 0.71249 0.40317 0.92865
 C415 C 0.71316 0.44097 0.93249
 C416 C 0.72800 0.46271 0.90635
 C417 C 0.74205 0.44704 0.87590
 C418 C 0.73489 0.41052 0.86985
 C419 C 0.75937 0.38120 0.85741
 C420 C 0.74339 0.35762 0.88572
 H421 H 0.70599 0.45328 0.95700
 H422 H 0.73210 0.49117 0.91152
 H423 H 0.78827 0.38770 0.86118
 H424 H 0.75251 0.37177 0.83109
 H425 H 0.76302 0.35042 0.90590
 H426 H 0.72729 0.33467 0.87570
 C427 C 0.22527 0.58538 0.94861
 C428 C 0.26244 0.59043 0.94780
 C429 C 0.28248 0.57284 0.92148
 C430 C 0.26483 0.55191 0.89612
 C431 C 0.22693 0.54884 0.89656
 C432 C 0.20810 0.56533 0.92376
 C433 C 0.17718 0.59091 0.92258
 C434 C 0.19607 0.61294 0.94998
 H435 H 0.31154 0.57480 0.92085
 H436 H 0.28071 0.53780 0.87675
 H437 H 0.15172 0.57835 0.93200
 H438 H 0.17534 0.60495 0.89740
 H439 H 0.18146 0.61306 0.97516
 H440 H 0.20523 0.63986 0.94080
 C441 C 0.08179 0.29787 0.40168
 C442 C 0.04749 0.29961 0.41737
 C443 C 0.04490 0.29068 0.45256
 C444 C 0.07396 0.27420 0.46903
 C445 C 0.10620 0.26681 0.45075
 C446 C 0.11066 0.28187 0.41807
 C447 C 0.12449 0.26523 0.38541
 C448 C 0.09299 0.28273 0.36744
 H449 H 0.01958 0.29335 0.46647
 H450 H 0.07005 0.26415 0.49499
 H451 H 0.12309 0.23526 0.38565
 H452 H 0.15097 0.27663 0.37737
 H453 H 0.07329 0.26292 0.35723
 H454 H 0.10134 0.30418 0.34905
 C455 C 0.10526 0.70308 0.58054
 C456 C 0.08020 0.71740 0.60415
 C457 C 0.08232 0.75447 0.61175
 C458 C 0.10489 0.77713 0.59206
 C459 C 0.12564 0.76304 0.56439
 C460 C 0.12776 0.72546 0.56117
 C461 C 0.12449 0.70221 0.52985
 C462 C 0.09989 0.67781 0.55100
 H463 H 0.06370 0.76647 0.63021
 H464 H 0.10340 0.80598 0.59633
 H465 H 0.15046 0.68926 0.52253
 H466 H 0.11055 0.71600 0.50844
 H467 H 0.11171 0.65081 0.55583
 H468 H 0.07169 0.67746 0.54184
 C469 C 0.88688 0.74264 0.38551
 C470 C 0.90780 0.71347 0.39593
 C471 C 0.89682 0.69462 0.42567
 C472 C 0.86951 0.70882 0.44734
 C473 C 0.85381 0.74240 0.43979
 C474 C 0.86075 0.75715 0.40722
 C475 C 0.86897 0.79483 0.39592
 C476 C 0.89761 0.77884 0.37205
 H477 H 0.91199 0.67148 0.43416
 H478 H 0.86459 0.69634 0.47216
 H479 H 0.88052 0.81204 0.41650
 H480 H 0.84625 0.80711 0.38189
 H481 H 0.92542 0.78671 0.37911
 H482 H 0.89130 0.78187 0.34432
 C483 C 0.95800 0.22843 0.58976
 C484 C 0.95019 0.26209 0.60438
 C485 C 0.91680 0.27792 0.59669
 C486 C 0.89149 0.25900 0.57654
 C487 C 0.89932 0.22402 0.56390
 C488 C 0.93336 0.20997 0.57015
 C489 C 0.94343 0.17447 0.58523
 C490 C 0.97058 0.19480 0.60677
 H491 H 0.91045 0.30480 0.60595
 H492 H 0.86595 0.27157 0.57106
 H493 H 0.95615 0.15623 0.56580
 H494 H 0.92123 0.16222 0.60077
 H495 H 0.99885 0.18815 0.59961
 H496 H 0.96425 0.19437 0.63486
 C497 C 0.44098 0.08564 0.29953
 C498 C 0.40532 0.08343 0.28838
 C499 C 0.39297 0.11109 0.26679
 C500 C 0.41750 0.13558 0.25166
 C501 C 0.45451 0.13298 0.25839
 C502 C 0.46501 0.11004 0.28489
 C503 C 0.49583 0.08444 0.28721
 C504 C 0.46962 0.05775 0.30358
 H505 H 0.36545 0.11078 0.25802
 H506 H 0.40823 0.15330 0.23154
 H507 H 0.51668 0.09420 0.30526
 H508 H 0.50623 0.07558 0.26153
 H509 H 0.47535 0.05244 0.33112
 H510 H 0.46566 0.03320 0.28762
 C511 C 0.56801 0.07486 0.70879
 C512 C 0.60400 0.07230 0.71867
 C513 C 0.61955 0.10274 0.73447
 C514 C 0.59765 0.13148 0.74610
 C515 C 0.56012 0.12998 0.74186
 C516 C 0.54655 0.10315 0.72013
 C517 C 0.51385 0.07975 0.72274
 C518 C 0.53738 0.04868 0.71012
 H519 H 0.64755 0.10223 0.74176
 H520 H 0.60932 0.15209 0.76238
 H521 H 0.49302 0.08759 0.70395
 H522 H 0.50381 0.07622 0.74963
 H523 H 0.53004 0.03884 0.68405
 H524 H 0.54044 0.02722 0.72970
 C525 C 0.40251 0.96461 0.76004
 C526 C 0.40391 0.96226 0.72409
 C527 C 0.42364 0.93344 0.70921
 C528 C 0.43991 0.90717 0.73038
 C529 C 0.43647 0.90933 0.76665
 C530 C 0.41832 0.93902 0.78060
 C531 C 0.38783 0.93958 0.80605
 C532 C 0.37037 0.96761 0.78344
 H533 H 0.42670 0.93142 0.68149
 H534 H 0.45515 0.88547 0.71847
 H535 H 0.39608 0.95044 0.83149
 H536 H 0.37287 0.91359 0.80703
 H537 H 0.36839 0.99440 0.79618
 H538 H 0.34525 0.95798 0.77120
 C539 C 0.60583 0.92625 0.24025
 C540 C 0.60055 0.92954 0.27581
 C541 C 0.57227 0.90950 0.29116
 C542 C 0.55095 0.88610 0.27091
 C543 C 0.55758 0.88276 0.23512
 C544 C 0.58491 0.90376 0.22050
 C545 C 0.61630 0.89223 0.19870
 C546 C 0.63930 0.91705 0.22049
 H547 H 0.56578 0.91305 0.31825
 H548 H 0.52855 0.87196 0.28285
 H549 H 0.61393 0.90141 0.17160
 H550 H 0.62285 0.86317 0.20177
 H551 H 0.65011 0.94059 0.20599
 H552 H 0.65925 0.90249 0.23631
 C553 C 0.44688 0.22794 0.95142
 C554 C 0.42114 0.25588 0.95184
 C555 C 0.40733 0.26563 0.91906
 C556 C 0.42044 0.24958 0.88817
 C557 C 0.44701 0.22271 0.88906
 C558 C 0.45893 0.21173 0.92116
 C559 C 0.49672 0.20881 0.93308
 C560 C 0.48405 0.22689 0.96611
 H561 H 0.38625 0.28533 0.91652
 H562 H 0.40983 0.25816 0.86371
 H563 H 0.51589 0.22555 0.91775
 H564 H 0.50504 0.18030 0.93669
 H565 H 0.49570 0.25424 0.96997
 H566 H 0.48602 0.20862 0.98862
 C567 C 0.54953 0.77809 0.96180
 C568 C 0.56781 0.74549 0.95486
 C569 C 0.56471 0.73186 0.92067
 C570 C 0.54835 0.75231 0.89456
 C571 C 0.53456 0.78695 0.90169
 C572 C 0.53349 0.79796 0.93611
 C573 C 0.54365 0.83321 0.95179
 C574 C 0.56155 0.81176 0.97991
 H575 H 0.57508 0.70574 0.91329
 H576 H 0.54767 0.74147 0.86863
 H577 H 0.51975 0.84858 0.96113
 H578 H 0.56300 0.84873 0.93549
 H579 H 0.54808 0.81551 1.00544
 H580 H 0.59132 0.81475 0.97994
 C581 C 0.42382 0.78327 0.03677
 C582 C 0.39803 0.75594 0.04217
 C583 C 0.38746 0.74963 0.07706
 C584 C 0.40421 0.76775 0.10458
 C585 C 0.43166 0.79306 0.09821
 C586 C 0.43997 0.80121 0.06390
 C587 C 0.47588 0.80196 0.04625
 C588 C 0.45851 0.78212 0.01658
 H589 H 0.36598 0.73116 0.08370
 H590 H 0.39605 0.76152 0.13079
 H591 H 0.49641 0.78563 0.05970
 H592 H 0.48443 0.82984 0.03954
 H593 H 0.46885 0.75421 0.01284
 H594 H 0.45771 0.79862 -0.00724
 C595 C 0.58974 0.20156 0.04761
 C596 C 0.61580 0.22918 0.04892
 C597 C 0.62812 0.23856 0.08237
 C598 C 0.61229 0.22353 0.11238
 C599 C 0.58426 0.19819 0.10994
 C600 C 0.57469 0.18651 0.07713
 C601 C 0.53807 0.18414 0.06212
 C602 C 0.55416 0.20082 0.02984
 H603 H 0.64976 0.25758 0.08601
 H604 H 0.62133 0.23247 0.13741
 H605 H 0.51815 0.20186 0.07554
 H606 H 0.52924 0.15574 0.05838
 H607 H 0.54372 0.22830 0.02453
 H608 H 0.55383 0.18197 0.00749
 C609 C 0.27393 0.09642 0.57258
 C610 C 0.25823 0.06201 0.57642
 C611 C 0.22112 0.05938 0.56896
 C612 C 0.20246 0.08827 0.55444
 C613 C 0.22006 0.12092 0.54638
 C614 C 0.25546 0.12493 0.55756
 C615 C 0.28806 0.13795 0.53858
 C616 C 0.30835 0.10698 0.55487
 H617 H 0.20595 0.03508 0.57434
 H618 H 0.17443 0.08426 0.54822
 H619 H 0.29696 0.16490 0.54783
 H620 H 0.28563 0.13528 0.51016
 H621 H 0.32898 0.11621 0.57338
 H622 H 0.31780 0.08637 0.53590
 C623 C 0.74068 0.07107 0.41093
 C624 C 0.72489 0.04541 0.43310
 C625 C 0.73324 0.04761 0.46837
 C626 C 0.75478 0.07575 0.48092
 C627 C 0.76848 0.10237 0.45860
 C628 C 0.76249 0.09868 0.42340
 C629 C 0.74754 0.12572 0.39927
 C630 C 0.72336 0.09596 0.38589
 H631 H 0.72322 0.02749 0.48625
 H632 H 0.76092 0.07667 0.50812
 H633 H 0.76793 0.13485 0.37996
 H634 H 0.73261 0.14773 0.41278
 H635 H 0.72947 0.08831 0.35870
 H636 H 0.69444 0.10088 0.39191
 C637 C 0.73881 0.89055 0.62525
 C638 C 0.76179 0.91802 0.63649
 C639 C 0.79915 0.91146 0.63419
 C640 C 0.81256 0.88178 0.61534
 C641 C 0.78884 0.85775 0.59897
 C642 C 0.75207 0.86099 0.60688
 C643 C 0.72052 0.86063 0.58347
 C644 C 0.70607 0.89287 0.60361
 H645 H 0.81805 0.93105 0.64411
 H646 H 0.84133 0.87960 0.61097
 H647 H 0.70381 0.83597 0.58675
 H648 H 0.72803 0.86714 0.55634
 H649 H 0.68110 0.88673 0.61857
 H650 H 0.70519 0.91805 0.58818
 C651 C 0.21202 0.96342 0.41756
 C652 C 0.23582 0.95758 0.38969
 C653 C 0.24089 0.92126 0.37911
 C654 C 0.22480 0.89248 0.39784
 C655 C 0.20263 0.89953 0.42696
 C656 C 0.19569 0.93548 0.43525
 C657 C 0.19871 0.95436 0.46916
 C658 C 0.21696 0.98498 0.44986
 H659 H 0.25745 0.91488 0.35677
 H660 H 0.23010 0.86494 0.38991
 H661 H 0.21678 0.94027 0.48724
 H662 H 0.17196 0.96185 0.48016
 H663 H 0.24576 0.98850 0.45648
 H664 H 0.20077 1.01016 0.45033
 C665 C 0.06389 0.35880 0.81394
 C666 C 0.06081 0.35294 0.77830
 C667 C 0.09185 0.36280 0.75823
 C668 C 0.12028 0.38312 0.77270
 C669 C 0.11926 0.39276 0.80784
 C670 C 0.09250 0.37643 0.82788
 C671 C 0.07539 0.38016 0.86257
 C672 C 0.04334 0.35979 0.84756
 H673 H 0.09242 0.35933 0.73053
 H674 H 0.14097 0.39405 0.75579
 H675 H 0.06890 0.40859 0.86940
 H676 H 0.08988 0.36472 0.88252
 H677 H 0.01909 0.37712 0.84816
 H678 H 0.03949 0.33246 0.85868
 C679 C 0.05528 0.59941 0.21286
 C680 C 0.05039 0.60909 0.24761
 C681 C 0.07993 0.60046 0.26923
 C682 C 0.11057 0.58134 0.25616
 C683 C 0.11307 0.57123 0.22101
 C684 C 0.08513 0.58253 0.20048
 C685 C 0.07280 0.58111 0.16431
 C686 C 0.03896 0.60044 0.17774
 H687 H 0.07881 0.60612 0.29656
 H688 H 0.13139 0.57340 0.27377
 H689 H 0.06765 0.55307 0.15535
 H690 H 0.08983 0.59787 0.14686
 H691 H 0.01478 0.58307 0.17517
 H692 H 0.03622 0.62839 0.16789
 C693 C 0.90665 0.40767 0.25699
 C694 C 0.94061 0.39855 0.24303
 C695 C 0.94495 0.40223 0.20689
 C696 C 0.91917 0.41997 0.18725
 C697 C 0.88811 0.43468 0.20293
 C698 C 0.88115 0.42567 0.23743
 C699 C 0.86964 0.44901 0.26695
 C700 C 0.89739 0.42951 0.28836
 H701 H 0.96888 0.39251 0.19361
 H702 H 0.92474 0.42400 0.16007
 H703 H 0.84150 0.44336 0.27537
 H704 H 0.87608 0.47799 0.26273
 H705 H 0.88516 0.41277 0.30915
 H706 H 0.91993 0.44717 0.29661
 C707 C 0.91560 0.59517 0.73251
 C708 C 0.94851 0.59837 0.74972
 C709 C 0.94749 0.59314 0.78579
 C710 C 0.91671 0.57920 0.80227
 C711 C 0.88620 0.56946 0.78319
 C712 C 0.88534 0.58047 0.74875
 C713 C 0.87429 0.56051 0.71721
 C714 C 0.90726 0.57650 0.69933
 H715 H 0.97091 0.59832 0.80130
 H716 H 0.91813 0.57331 0.82952
 H717 H 0.84855 0.57076 0.70688
 H718 H 0.87578 0.53074 0.72027
 H719 H 0.90046 0.59588 0.67867
 H720 H 0.92779 0.55599 0.69193
 C721 C 0.74972 0.63681 0.89851
 C722 C 0.71603 0.62472 0.91017
 C723 C 0.69836 0.59862 0.89002
 C724 C 0.71723 0.58009 0.86359
 C725 C 0.75411 0.58700 0.85778
 C726 C 0.76863 0.61790 0.87328
 C727 C 0.80394 0.62529 0.88990
 C728 C 0.78317 0.64635 0.91735
 H729 H 0.67189 0.58908 0.89771
 H730 H 0.70462 0.55691 0.85166
 H731 H 0.82168 0.64262 0.87365
 H732 H 0.81700 0.60084 0.90038
 H733 H 0.78878 0.67580 0.91664
 H734 H 0.78448 0.63408 0.94331
 C735 C 0.22898 0.38989 0.96821
 C736 C 0.26499 0.37878 0.96476
 C737 C 0.27953 0.38038 0.93063
 C738 C 0.25976 0.39593 0.90336
 C739 C 0.22439 0.40902 0.90903
 C740 C 0.20972 0.40303 0.94157
 C741 C 0.17728 0.41132 0.96289
 C742 C 0.19833 0.39605 0.99319
 H743 H 0.30714 0.37272 0.92532
 H744 H 0.27285 0.39930 0.87847
 H745 H 0.15373 0.39462 0.95555
 H746 H 0.17223 0.44081 0.96507
 H747 H 0.18706 0.37036 1.00337
 H748 H 0.20341 0.41717 1.01290
 C749 C 0.22802 0.62376 0.08155
 C750 C 0.26409 0.61802 0.07239
 C751 C 0.28549 0.59892 0.09579
 C752 C 0.26936 0.58067 0.12395
 C753 C 0.23165 0.58099 0.12852
 C754 C 0.21215 0.60542 0.10873
 C755 C 0.17674 0.60307 0.09113
 C756 C 0.19417 0.62349 0.06130
 H757 H 0.31381 0.59475 0.09019
 H758 H 0.28572 0.56291 0.13927
 H759 H 0.15548 0.61882 0.10484
 H760 H 0.16905 0.57507 0.08397
 H761 H 0.18305 0.65105 0.05804
 H762 H 0.19599 0.60717 0.03732
 C763 C 0.73668 0.38301 0.07880
 C764 C 0.75264 0.37485 0.04684
 C765 C 0.78953 0.38258 0.04244
 C766 C 0.80790 0.40319 0.06715
 C767 C 0.78951 0.41684 0.09650
 C768 C 0.75468 0.40373 0.10306
 C769 C 0.72115 0.42343 0.11333
 C770 C 0.70152 0.40073 0.08685
 H771 H 0.80319 0.37576 0.01844
 H772 H 0.83533 0.41134 0.06149
 H773 H 0.72225 0.45258 0.10672
 H774 H 0.71268 0.41748 0.14030
 H775 H 0.69124 0.41673 0.06493
 H776 H 0.68180 0.38166 0.09857
 C777 C 0.91717 0.69878 0.60692
 C778 C 0.94983 0.69557 0.58847
 C779 C 0.95000 0.70655 0.55370
 C780 C 0.92096 0.72606 0.54050
 C781 C 0.89079 0.73428 0.56147
 C782 C 0.88809 0.71752 0.59360
 C783 C 0.87817 0.73307 0.62796
 C784 C 0.90987 0.71256 0.64253
 H785 H 0.97367 0.70274 0.53751
 H786 H 0.92310 0.73670 0.51459
 H787 H 0.85171 0.72296 0.63753
 H788 H 0.88157 0.76287 0.62900
 H789 H 0.90165 0.69061 0.66042
 H790 H 0.93166 0.73043 0.65205
 C791 C 0.89172 0.28187 0.40572
 C792 C 0.92148 0.26743 0.38795
 C793 C 0.92316 0.22966 0.38438
 C794 C 0.89919 0.20734 0.40302
 C795 C 0.87329 0.22242 0.42584
 C796 C 0.86805 0.25983 0.42423
 C797 C 0.86410 0.28699 0.45258
 C798 C 0.88992 0.31101 0.43235
 H799 H 0.94539 0.21738 0.37033
 H800 H 0.90357 0.17847 0.40240
 H801 H 0.87522 0.27747 0.47738
 H802 H 0.83636 0.29804 0.45436
 H803 H 0.91599 0.31537 0.44543
 H804 H 0.87700 0.33584 0.42248
 C805 C 0.09507 0.25284 0.62507
 C806 C 0.07954 0.28504 0.61382
 C807 C 0.09578 0.30259 0.58555
 C808 C 0.12282 0.28504 0.56595
 C809 C 0.13288 0.24936 0.57380
 C810 C 0.12074 0.23505 0.60513
 C811 C 0.10635 0.19873 0.61448
 C812 C 0.07824 0.21817 0.63653
 H813 H 0.08484 0.32775 0.57631
 H814 H 0.13207 0.29735 0.54215
 H815 H 0.12571 0.18299 0.62991
 H816 H 0.09458 0.18402 0.59232
 H817 H 0.08151 0.21363 0.66459
 H818 H 0.05042 0.21455 0.62710
 C819 C 0.03091 0.77497 0.41412
 C820 C 0.03637 0.74425 0.39334
 C821 C 0.07313 0.73357 0.38959
 C822 C 0.10119 0.75188 0.40751
 C823 C 0.09373 0.78236 0.42863
 C824 C 0.05801 0.79321 0.42973
 C825 C 0.03414 0.82101 0.44546
 C826 C 0.00327 0.80109 0.42772
 H827 H 0.08030 0.70989 0.37465
 H828 H 0.12841 0.74170 0.40532
 H829 H 0.03946 0.84834 0.43487
 H830 H 0.03301 0.81920 0.47404
 H831 H -0.00930 0.81692 0.40685
 H832 H -0.01586 0.78926 0.44683
 C833 C 0.61966 0.91501 0.75920
 C834 C 0.61968 0.95172 0.76851
 C835 C 0.60304 0.96067 0.80045
 C836 C 0.58155 0.93546 0.81821
 C837 C 0.57540 0.90092 0.80414
 C838 C 0.59739 0.89038 0.77621
 C839 C 0.58847 0.87102 0.74364
 C840 C 0.61278 0.89776 0.72500
 H841 H 0.60465 0.98780 0.81078
 H842 H 0.56687 0.94443 0.84097
 H843 H 0.55969 0.87369 0.73669
 H844 H 0.59913 0.84303 0.74313
 H845 H 0.59806 0.91578 0.70725
 H846 H 0.63741 0.88514 0.71373
 C847 C 0.39901 0.96516 0.21608
 C848 C 0.38198 0.96008 0.24825
 C849 C 0.37909 0.92349 0.25898
 C850 C 0.39681 0.89530 0.24025
 C851 C 0.41626 0.90263 0.20935
 C852 C 0.41380 0.93774 0.19728
 C853 C 0.42952 0.96183 0.17049
 C854 C 0.41236 0.99297 0.19098
 H855 H 0.36636 0.91687 0.28341
 H856 H 0.39696 0.86841 0.25100
 H857 H 0.41737 0.95738 0.14483
 H858 H 0.45942 0.96221 0.17081
 H859 H 0.39003 1.00638 0.17731
 H860 H 0.43318 1.01147 0.20117
 C861 C 0.63565 0.05996 0.23671
 C862 C 0.63227 0.05697 0.27270
 C863 C 0.61940 0.08811 0.29031
 C864 C 0.60308 0.11653 0.27178
 C865 C 0.60082 0.11478 0.23548
 C866 C 0.62135 0.08822 0.21902
 C867 C 0.62114 0.06809 0.18568
 C868 C 0.63812 0.03673 0.20504
 H869 H 0.61699 0.08830 0.31816
 H870 H 0.58872 0.13734 0.28599
 H871 H 0.63951 0.08030 0.16610
 H872 H 0.59358 0.06183 0.17667
 H873 H 0.66648 0.03160 0.19701
 H874 H 0.62060 0.01256 0.20475
 C875 C 0.36797 0.10266 0.74781
 C876 C 0.38070 0.09265 0.71497
 C877 C 0.40722 0.11481 0.69961
 C878 C 0.42517 0.14116 0.71939
 C879 C 0.41721 0.14506 0.75487
 C880 C 0.38614 0.12793 0.76745
 C881 C 0.37767 0.10880 0.80034
 C882 C 0.35749 0.08119 0.77887
 H883 H 0.41741 0.10859 0.67398
 H884 H 0.44855 0.15444 0.70825
 H885 H 0.35972 0.12490 0.81762
 H886 H 0.40171 0.09725 0.81283
 H887 H 0.32796 0.08153 0.78376
 H888 H 0.36996 0.05413 0.77941
 C889 C 0.57766 0.72122 0.09896
 C890 C 0.60188 0.73843 0.07647
 C891 C 0.61355 0.77336 0.08518
 C892 C 0.59629 0.79260 0.11198
 C893 C 0.56712 0.77709 0.13027
 C894 C 0.56071 0.74016 0.12559
 C895 C 0.52599 0.72061 0.12038
 C896 C 0.54456 0.69991 0.09135
 H897 H 0.63257 0.78737 0.06858
 H898 H 0.60279 0.82086 0.11546
 H899 H 0.50412 0.73853 0.11135
 H900 H 0.51865 0.70336 0.14276
 H901 H 0.53335 0.70585 0.06559
 H902 H 0.54800 0.67078 0.09706
 C903 C 0.40844 0.20929 0.08488
 C904 C 0.41207 0.24633 0.07892
 C905 C 0.42847 0.26720 0.10482
 C906 C 0.44620 0.25036 0.13231
 C907 C 0.44754 0.21236 0.13438
 C908 C 0.42555 0.19285 0.11193
 C909 C 0.43071 0.15848 0.09224
 C910 C 0.41154 0.17647 0.06251
 H911 H 0.43044 0.29621 0.10211
 H912 H 0.46159 0.26693 0.14980
 H913 H 0.41517 0.13578 0.10374
 H914 H 0.45946 0.15259 0.08630
 H915 H 0.38488 0.16422 0.05717
 H916 H 0.42944 0.17966 0.03963
 C917 C 0.61465 0.25211 0.89481
 C918 C 0.62517 0.22905 0.92130
 C919 C 0.61970 0.19172 0.91625
 C920 C 0.59860 0.17917 0.88882
 C921 C 0.58271 0.20374 0.86593
 C922 C 0.59388 0.23978 0.86777
 C923 C 0.57240 0.27380 0.86709
 C924 C 0.59514 0.28726 0.89671
 H925 H 0.62898 0.17252 0.93505
 H926 H 0.59208 0.15072 0.88755
 H927 H 0.54367 0.26959 0.87441
 H928 H 0.57699 0.28914 0.84288
 H929 H 0.57960 0.29072 0.92121
 H930 H 0.61280 0.31035 0.88957
 C931 C 0.35784 0.79062 0.91164
 C932 C 0.36766 0.75499 0.91874
 C933 C 0.38918 0.73699 0.89393
 C934 C 0.40653 0.75659 0.86739
 C935 C 0.40297 0.79447 0.86585
 C936 C 0.37545 0.81002 0.88609
 C937 C 0.37210 0.84460 0.90590
 C938 C 0.35210 0.82335 0.93366
 H939 H 0.39644 0.70901 0.89770
 H940 H 0.42663 0.74293 0.85163
 H941 H 0.35480 0.86451 0.89273
 H942 H 0.39822 0.85532 0.91505
 H943 H 0.32318 0.83067 0.93587
 H944 H 0.36646 0.82293 0.95848
 C945 C 0.75715 0.90140 0.41181
 C946 C 0.72291 0.91227 0.42285
 C947 C 0.70544 0.89144 0.44841
 C948 C 0.72423 0.86395 0.46568
 C949 C 0.76097 0.85778 0.45817
 C950 C 0.77584 0.87515 0.42929
 C951 C 0.81107 0.89375 0.42337
 C952 C 0.79049 0.92250 0.40397
 H953 H 0.67853 0.89848 0.45709
 H954 H 0.71117 0.85027 0.48707
 H955 H 0.82954 0.87774 0.40652
 H956 H 0.82311 0.90419 0.44751
 H957 H 0.79697 0.92281 0.37592
 H958 H 0.79093 0.94933 0.41683
 C959 C 0.28255 0.90761 0.56847
 C960 C 0.26616 0.93087 0.59251
 C961 C 0.23111 0.92228 0.60399
 C962 C 0.21133 0.89495 0.58754
 C963 C 0.22624 0.87577 0.55928
 C964 C 0.26307 0.88036 0.55235
 C965 C 0.28240 0.88605 0.51879
 C966 C 0.30350 0.91592 0.53636
 H967 H 0.21767 0.93927 0.62294
 H968 H 0.18325 0.89146 0.59461
 H969 H 0.26450 0.89595 0.49821
 H970 H 0.29930 0.86247 0.51140
 H971 H 0.29762 0.94320 0.52609
 H972 H 0.33253 0.90956 0.53892
 C973 C 0.19563 0.09775 0.36777
 C974 C 0.23253 0.08951 0.36770
 C975 C 0.25535 0.11511 0.38333
 C976 C 0.24092 0.14317 0.40396
 C977 C 0.20337 0.14611 0.40940
 C978 C 0.18164 0.12526 0.38795
 C979 C 0.14580 0.10755 0.39164
 C980 C 0.16080 0.07732 0.36881
 H981 H 0.28419 0.11098 0.38314
 H982 H 0.25925 0.15966 0.41871
 H983 H 0.12418 0.12327 0.37919
 H984 H 0.13979 0.09868 0.41844
 H985 H 0.14802 0.07618 0.34312
 H986 H 0.16127 0.05125 0.38256
 C987 C 0.74969 0.07814 0.60996
 C988 C 0.77104 0.05153 0.62511
 C989 C 0.80820 0.05182 0.61711
 C990 C 0.82323 0.07838 0.59553
 C991 C 0.80164 0.10579 0.58170
 C992 C 0.76467 0.10450 0.58869
 C993 C 0.74081 0.13333 0.60291
 C994 C 0.72467 0.10490 0.62648
 H995 H 0.82571 0.03126 0.62726
 H996 H 0.85174 0.07726 0.58946
 H997 H 0.72164 0.14332 0.58344
 H998 H 0.75587 0.15468 0.61686
 H999 H 0.69604 0.09883 0.62092
 H1000 H 0.73057 0.10990 0.65410
 C1001 C 0.91379 0.63109 0.20019
 C1002 C 0.91984 0.62536 0.23528
 C1003 C 0.89499 0.60305 0.25301
 C1004 C 0.86985 0.58203 0.23465
 C1005 C 0.86954 0.58276 0.19828
 C1006 C 0.88966 0.61005 0.18220
 C1007 C 0.91143 0.61197 0.14965
 C1008 C 0.93773 0.63574 0.16926
 H1009 H 0.89769 0.59870 0.28043
 H1010 H 0.85388 0.56229 0.24859
 H1011 H 0.89718 0.62658 0.12899
 H1012 H 0.92323 0.58556 0.14191
 H1013 H 0.93811 0.66410 0.16009
 H1014 H 0.96457 0.62329 0.17174
 C1015 C 0.93781 0.40499 0.79580
 C1016 C 0.93326 0.38160 0.76761
 C1017 C 0.89797 0.37889 0.75445
 C1018 C 0.86990 0.40142 0.76734
 C1019 C 0.87639 0.42641 0.79414
 C1020 C 0.91030 0.42617 0.80889
 C1021 C 0.93480 0.45722 0.81590
 C1022 C 0.96506 0.43423 0.80124
 H1023 H 0.89215 0.36033 0.73369
 H1024 H 0.84366 0.40007 0.75568
 H1025 H 0.93731 0.46265 0.84396
 H1026 H 0.92880 0.48127 0.79996
 H1027 H 0.98523 0.42716 0.82091
 H1028 H 0.97652 0.44474 0.77662
 C1029 C 0.09142 0.59461 0.77487
 C1030 C 0.07968 0.58259 0.74263
 C1031 C 0.09819 0.55312 0.72759
 C1032 C 0.12301 0.53302 0.74707
 C1033 C 0.12922 0.54201 0.78187
 C1034 C 0.11533 0.57479 0.79390
 C1035 C 0.09922 0.58671 0.82745
 C1036 C 0.07288 0.60892 0.80657
 H1037 H 0.09093 0.54351 0.70223
 H1038 H 0.13435 0.50857 0.73611
 H1039 H 0.11810 0.60353 0.84262
 H1040 H 0.08600 0.56437 0.84188
 H1041 H 0.07685 0.63847 0.80968
 H1042 H 0.04469 0.59963 0.80996
 C1043 C 0.08536 0.37961 0.22655
 C1044 C 0.07130 0.38906 0.25900
 C1045 C 0.09202 0.41266 0.27937
 C1046 C 0.12168 0.43132 0.26477
 C1047 C 0.13072 0.42670 0.22960
 C1048 C 0.11413 0.39809 0.21221
 C1049 C 0.10068 0.39313 0.17642
 C1050 C 0.06916 0.37234 0.19219
 H1051 H 0.08295 0.41974 0.30517
 H1052 H 0.13447 0.45232 0.27975
 H1053 H 0.11890 0.37595 0.16042
 H1054 H 0.09220 0.41875 0.16423
 H1055 H 0.06961 0.34316 0.18550
 H1056 H 0.04301 0.38587 0.18813
   
