data_POSCAR
  _audit_creation_date              2014-09-24
  _audit_creation_method            'ToBaCCo'
  _symmetry_space_group_name_H-M    'P1'
  _symmetry_Int_Tables_number       1
  _symmetry_cell_setting            triclinic
  loop_
  _symmetry_equiv_pos_as_xyz
 x,y,z
_cell_length_a 18.8612
_cell_length_b 19.3799
_cell_length_c 23.9354
_cell_angle_alpha 89.944800
_cell_angle_beta 89.810700
_cell_angle_gamma 89.814000
loop_
  _atom_site_label
  _atom_site_type_symbol
  _atom_site_fract_x
  _atom_site_fract_y
  _atom_site_fract_z
B1 B 0.27030 0.21012 0.19627
 B2 B 0.29958 0.29000 0.20750
 B3 B 0.21388 0.27779 0.19684
 B4 B 0.18936 0.20256 0.22662
 B5 B 0.26354 0.16966 0.25799
 B6 B 0.33271 0.22435 0.24539
 B7 B 0.23305 0.29430 0.30668
 B8 B 0.20336 0.21464 0.29538
 B9 B 0.28907 0.22708 0.30682
 B10 B 0.31399 0.30206 0.27646
 B11 B 0.23984 0.33472 0.24543
 B12 B 0.17079 0.28013 0.25788
 B13 B 0.72961 0.78945 0.19670
 B14 B 0.70057 0.70966 0.20820
 B15 B 0.78616 0.72217 0.19674
 B16 B 0.81067 0.79764 0.22594
 B17 B 0.73657 0.83045 0.25791
 B18 B 0.66748 0.77541 0.24617
 B19 B 0.76762 0.70639 0.30643
 B20 B 0.79717 0.78588 0.29478
 B21 B 0.71151 0.77322 0.30708
 B22 B 0.68659 0.69796 0.27727
 B23 B 0.76067 0.66540 0.24569
 B24 B 0.82962 0.72031 0.25724
 B25 B 0.71887 0.21638 -0.19601
 B26 B 0.70398 0.29785 -0.21308
 B27 B 0.78481 0.27483 -0.19407
 B28 B 0.80158 0.19435 -0.21783
 B29 B 0.72793 0.16956 -0.25444
 B30 B 0.66657 0.23458 -0.25083
 B31 B 0.78342 0.28361 -0.30526
 B32 B 0.79882 0.20240 -0.28780
 B33 B 0.71788 0.22548 -0.30779
 B34 B 0.70076 0.30591 -0.28342
 B35 B 0.77438 0.33039 -0.24724
 B36 B 0.83556 0.26559 -0.25057
 B37 B 0.27181 0.78524 -0.19395
 B38 B 0.29727 0.70600 -0.21036
 B39 B 0.21280 0.72069 -0.19619
 B40 B 0.19012 0.79942 -0.22048
 B41 B 0.26431 0.83206 -0.25244
 B42 B 0.33157 0.77332 -0.24545
 B43 B 0.22693 0.71397 -0.30673
 B44 B 0.20093 0.79291 -0.28990
 B45 B 0.28551 0.77814 -0.30510
 B46 B 0.30860 0.69948 -0.28015
 B47 B 0.23440 0.66713 -0.24861
 B48 B 0.16732 0.72570 -0.25539
 B49 B 1.21552 1.27494 0.80693
 B50 B 1.29689 1.29768 0.78809
 B51 B 1.28121 1.21668 0.80633
 B52 B 1.19945 1.19425 0.78321
 B53 B 1.16606 1.26518 0.74926
 B54 B 1.22698 1.33013 0.75317
 B55 B 1.28628 1.22386 0.69497
 B56 B 1.20498 1.20119 0.71284
 B57 B 1.22018 1.28244 0.69499
 B58 B 1.30198 1.30459 0.71809
 B59 B 1.33517 1.23377 0.75220
 B60 B 1.27441 1.16901 0.74853
 B61 B 0.78302 0.72374 0.80659
 B62 B 0.70186 0.70184 0.78687
 B63 B 0.71772 0.78229 0.80583
 B64 B 0.79999 0.80474 0.78379
 B65 B 0.83359 0.73421 0.74949
 B66 B 0.77219 0.66954 0.75233
 B67 B 0.71464 0.77721 0.69476
 B68 B 0.79570 0.79901 0.71349
 B69 B 0.78027 0.71833 0.69492
 B70 B 0.69799 0.69617 0.71693
 B71 B 0.66459 0.76659 0.75139
 B72 B 0.72583 0.83105 0.74882
 B73 B 1.22989 0.70943 0.30301
 B74 B 1.19961 0.78922 0.29248
 B75 B 1.28551 0.77755 0.30334
 B76 B 1.31096 0.70283 0.27294
 B77 B 1.23729 0.66996 0.24108
 B78 B 1.16739 0.72401 0.25396
 B79 B 1.26621 0.79547 0.19366
 B80 B 1.29689 0.71590 0.20433
 B81 B 1.21101 0.72777 0.19262
 B82 B 1.18511 0.80226 0.22363
 B83 B 1.25876 0.83490 0.25514
 B84 B 1.32853 0.78094 0.24241
 B85 B 0.77252 1.28644 0.30428
 B86 B 0.79973 1.20679 0.29023
 B87 B 0.71472 1.22078 0.30332
 B88 B 0.69101 1.29812 0.27662
 B89 B 0.76505 1.33055 0.24448
 B90 B 0.83327 1.27331 0.25366
 B91 B 0.73050 1.20966 0.19325
 B92 B 0.70283 1.28910 0.20740
 B93 B 0.78787 1.27486 0.19353
 B94 B 0.81198 1.19775 0.22081
 B95 B 0.73797 1.16560 0.25258
 B96 B 0.66988 1.22272 0.24356
 O97 O 0.43882 1.09002 0.08004
 O98 O 0.57215 0.87133 0.05326
 O99 O 0.35433 0.94419 0.03264
 O100 O 0.64470 1.08489 0.02485
 O101 O 0.44061 0.89116 0.07634
 O102 O 0.56020 1.09277 0.07913
 O103 O 0.63861 0.96302 0.05817
 O104 O 0.35321 1.06925 0.02601
 C105 C 0.37447 1.09239 0.07174
 C106 C 0.62519 0.90224 0.07224
 C107 C 0.37656 0.90781 0.07335
 C108 C 0.62290 1.10395 0.07022
 O109 O 0.56018 1.13710 -0.03532
 O110 O 0.40975 0.85926 -0.02558
 O111 O 0.41359 1.05900 -0.07939
 O112 O 0.63225 0.92513 -0.04563
 O113 O 0.53816 0.86128 -0.05313
 O114 O 0.42962 1.14302 -0.02589
 O115 O 0.61326 1.04895 -0.07481
 O116 O 0.40552 0.94286 -0.07897
 Co117 Co 0.49807 1.10593 0.02205
 Co118 Co 0.49138 0.88420 0.01176
 Co119 Co 0.39148 1.00315 -0.02246
 Co120 Co 0.61775 1.00463 -0.00824
 O121 O 0.50013 0.99846 0.00122
 C122 C 0.59864 1.11170 -0.07454
 C123 C 0.38874 0.88326 -0.07018
 C124 C 0.40628 1.12072 -0.07113
 C125 C 0.60106 0.87496 -0.06607
 O126 O 0.96030 0.63780 0.55419
 O127 O 1.07286 0.35849 0.52642
 O128 O 0.88813 0.44929 0.57454
 O129 O 1.09336 0.55918 0.57856
 O130 O 0.94225 0.36203 0.53471
 O131 O 1.08853 0.64250 0.52524
 O132 O 1.08911 0.44297 0.57973
 O133 O 0.86696 0.57288 0.54625
 C134 C 0.89745 0.62347 0.56702
 C135 C 1.09633 0.38102 0.57164
 C136 C 0.90361 0.38690 0.57398
 C137 C 1.10990 0.61863 0.56968
 O138 O 1.05690 0.61101 0.42357
 O139 O 0.94208 0.40641 0.42039
 O140 O 0.86166 0.53456 0.44222
 O141 O 1.14846 0.43377 0.47479
 O142 O 1.06354 0.41176 0.42043
 O143 O 0.92539 0.62785 0.44826
 O144 O 1.14459 0.55890 0.46627
 O145 O 0.85704 0.41278 0.47436
 Co146 Co 1.00682 0.61630 0.48875
 Co147 Co 1.00422 0.39444 0.47790
 Co148 Co 0.88286 0.49347 0.50828
 Co149 Co 1.10909 0.49931 0.52235
 O150 O 1.00029 0.50170 0.49886
 C151 C 1.12135 0.59544 0.42577
 C152 C 0.87941 0.39398 0.42889
 C153 C 0.87333 0.59578 0.42911
 C154 C 1.12778 0.41056 0.42913
 O155 O 1.08676 0.45647 0.09414
 O156 O 1.08377 0.54097 -0.09678
 O157 O 1.09006 0.38028 -0.02647
 O158 O 1.08869 0.62104 0.02507
 O159 O 1.05499 0.42266 -0.10423
 O160 O 1.05657 0.57555 0.10284
 O161 O 1.03770 0.63328 -0.06799
 O162 O 1.04019 0.36440 0.06624
 C163 C 1.08961 0.39295 0.09005
 C164 C 1.08728 0.60428 -0.09172
 C165 C 1.09817 0.38625 -0.07756
 C166 C 1.09737 0.61454 0.07617
 O167 O 0.91409 0.54315 0.09593
 O168 O 0.91148 0.45453 -0.09364
 O169 O 0.91035 0.37993 0.02678
 O170 O 0.90830 0.61939 -0.02693
 O171 O 0.94071 0.57329 -0.10429
 O172 O 0.94408 0.42454 0.10410
 O173 O 0.95916 0.63496 0.06538
 O174 O 0.95980 0.36314 -0.06578
 Co175 Co 1.00034 0.49979 0.08991
 Co176 Co 0.99779 0.49795 -0.09045
 Co177 Co 1.00007 0.38576 0.00009
 Co178 Co 0.99856 0.61363 -0.00111
 O179 O 0.99926 0.49939 -0.00037
 C180 C 0.91042 0.60648 0.09036
 C181 C 0.90917 0.39103 -0.08887
 C182 C 0.90200 0.38698 0.07773
 C183 C 0.89898 0.61163 -0.07771
 O184 O 0.58814 0.95767 0.59426
 O185 O 0.58587 1.04167 0.40335
 O186 O 0.58874 0.87915 0.47424
 O187 O 0.59261 1.11988 0.52564
 O188 O 0.55487 0.92310 0.39657
 O189 O 0.55927 1.07661 0.60364
 O190 O 0.54141 1.13433 0.43320
 O191 O 0.53989 0.86603 0.56738
 C192 C 0.59059 0.89416 0.58984
 C193 C 0.59015 1.10495 0.40876
 C194 C 0.59675 0.88523 0.42313
 C195 C 0.60155 1.11370 0.57663
 O196 O 0.41595 1.04515 0.59581
 O197 O 0.41263 0.95668 0.40603
 O198 O 0.40944 0.88323 0.52839
 O199 O 0.41217 1.12249 0.47398
 O200 O 0.44363 1.07551 0.39655
 O201 O 0.44499 0.92686 0.60543
 O202 O 0.46280 1.13650 0.56651
 O203 O 0.45830 0.86454 0.43565
 Co204 Co 0.50199 1.00147 0.59046
 Co205 Co 0.49935 0.99937 0.41000
 Co206 Co 0.49921 0.88702 0.50137
 Co207 Co 0.50215 1.11480 0.49998
 O208 O 0.50069 1.00071 0.50043
 C209 C 0.41277 1.10846 0.59025
 C210 C 0.40948 0.89315 0.41073
 C211 C 0.40165 0.89033 0.57940
 C212 C 0.40307 1.11498 0.42310
 O213 O 1.12973 1.06052 0.44327
 O214 O 0.87349 1.06268 0.55830
 O215 O 0.91506 1.02973 0.39100
 O216 O 1.08743 1.02751 0.61086
 O217 O 0.87997 1.08190 0.46167
 O218 O 1.12092 1.08020 0.53998
 O219 O 0.97456 1.08829 0.59545
 O220 O 1.03015 1.08705 0.40385
 C221 C 1.09363 1.09953 0.41204
 C222 C 0.91031 1.09986 0.59016
 C223 C 0.88727 1.08105 0.41060
 C224 C 1.11687 1.07759 0.59140
 O225 O 1.12764 0.93591 0.55858
 O226 O 0.87240 0.93756 0.44300
 O227 O 1.08884 0.96743 0.39216
 O228 O 0.91430 0.97116 0.61083
 O229 O 0.87899 0.91883 0.54046
 O230 O 1.12064 0.91580 0.46363
 O231 O 1.02653 0.91012 0.59540
 O232 O 0.97262 0.91030 0.40382
 Co233 Co 1.11432 0.99829 0.50111
 Co234 Co 0.88688 1.00016 0.50070
 Co235 Co 1.00175 0.99868 0.40813
 Co236 Co 1.00086 0.99925 0.59170
 O237 O 1.00098 0.99913 0.50026
 C238 C 1.09042 0.89785 0.58949
 C239 C 0.90864 0.89854 0.41160
 C240 C 1.11460 0.91568 0.41261
 C241 C 0.88433 0.92137 0.59176
 O242 O 0.62770 0.56095 -0.05981
 O243 O 0.37014 0.56187 0.05824
 O244 O 0.41228 0.53263 -0.10910
 O245 O 0.58525 0.53312 0.10836
 O246 O 0.37896 0.58395 -0.03747
 O247 O 0.62114 0.58314 0.03677
 O248 O 0.47024 0.58945 0.09519
 O249 O 0.52679 0.58889 -0.09619
 C250 C 0.59127 0.59869 -0.09161
 C251 C 0.40662 0.60165 0.08798
 C252 C 0.38460 0.58330 -0.08875
 C253 C 0.61325 0.58384 0.08784
 O254 O 0.62847 0.43977 0.05785
 O255 O 0.36990 0.44073 -0.05863
 O256 O 0.58382 0.46936 -0.11053
 O257 O 0.41223 0.46884 0.10848
 O258 O 0.37955 0.41803 0.03671
 O259 O 0.62117 0.41836 -0.03970
 O260 O 0.52815 0.41285 0.09626
 O261 O 0.47030 0.41248 -0.09516
 Co262 Co 0.61366 0.50056 -0.00100
 Co263 Co 0.38532 0.50103 -0.00015
 Co264 Co 0.49821 0.50078 -0.09174
 Co265 Co 0.49878 0.50106 0.09160
 O266 O 0.49899 0.50079 -0.00027
 C267 C 0.59225 0.40134 0.08947
 C268 C 0.40600 0.40253 -0.09028
 C269 C 0.61394 0.41957 -0.09095
 C270 C 0.38584 0.41752 0.08782
 C271 C 0.29756 1.16597 0.14519
 C272 C 0.32887 1.13103 0.11036
 C273 C 0.82047 0.68793 0.64387
 C274 C 0.85739 0.66159 0.60823
 C275 C 0.70167 0.83242 0.14649
 C276 C 0.66956 0.86597 0.11194
 C277 C 1.18005 0.31412 0.64363
 C278 C 1.14171 0.34148 0.60912
 C279 C 0.67685 1.18356 -0.14649
 C280 C 0.63892 1.15433 -0.11290
 C281 C 1.20215 0.66438 0.35291
 C282 C 1.16922 0.63015 0.38697
 C283 C 0.30473 0.81959 -0.14190
 C284 C 0.34138 0.84733 -0.10722
 C285 C 0.80261 0.32532 0.35518
 C286 C 0.83589 0.35681 0.38985
 C287 C 1.17506 0.31413 0.14898
 C288 C 1.13927 0.35104 0.11995
 C289 C 0.67756 0.81448 0.64647
 C290 C 0.64141 0.85189 0.61815
 C291 C 1.17451 0.68267 -0.14898
 C292 C 1.13804 0.64569 -0.12067
 C293 C 0.67661 1.18342 0.35089
 C294 C 0.64056 1.14631 0.37942
 C295 C 0.82483 0.68578 0.14884
 C296 C 0.86070 0.64865 0.11999
 C297 C 0.32476 1.18765 0.64673
 C298 C 0.36170 1.15073 0.61849
 C299 C 0.82205 0.31120 -0.14527
 C300 C 0.85838 0.34849 -0.11702
 C301 C 0.32443 0.81407 0.35138
 C302 C 0.36011 0.85105 0.38048
 C303 C 1.15950 1.17854 0.34024
 C304 C 1.12856 1.14578 0.37504
 C305 C 0.65769 0.66170 -0.17192
 C306 C 0.62616 0.63509 -0.13452
 C307 C 0.84357 1.16325 0.67041
 C308 C 0.87539 1.13687 0.63292
 C309 C 0.34124 0.68075 0.15960
 C310 C 0.37224 0.64809 0.12488
 C311 C 1.15610 0.82981 0.66728
 C312 C 1.12462 0.85773 0.63053
 C313 C 0.65847 0.32649 0.16378
 C314 C 0.62726 0.35773 0.12832
 C315 C 0.84170 0.82162 0.33925
 C316 C 0.87333 0.85340 0.37410
 C317 C 0.34007 0.33796 -0.17002
 C318 C 0.37110 0.36527 -0.13274
 C319 C 1.17976 0.30803 -0.14135
 C320 C 1.14594 0.34236 -0.10850
 C321 C 0.67555 0.80581 0.35865
 C322 C 0.64286 0.84036 0.39189
 C323 C 0.81789 0.68988 -0.14169
 C324 C 0.85141 0.65544 -0.10882
 C325 C 0.32506 1.19452 0.35831
 C326 C 0.35741 1.15997 0.39167
 C327 C 1.17508 0.69485 0.14089
 C328 C 1.14287 0.65996 0.10759
 C329 C 0.68300 1.19240 0.63999
 C330 C 0.64931 1.15789 0.60728
 C331 C 0.82317 0.30830 0.14223
 C332 C 0.85574 0.34283 0.10909
 C333 C 0.32116 0.81281 0.64404
 C334 C 0.35445 0.84711 0.61104
 C335 C 0.32132 1.18589 -0.14243
 C336 C 0.36022 1.15958 -0.10805
 C337 C 0.79526 0.66404 0.35621
 C338 C 0.82800 0.63113 0.39034
 C339 C 0.70081 1.17123 0.14282
 C340 C 0.66708 1.14024 0.10856
 C341 C 1.19447 0.68059 0.64111
 C342 C 1.15765 0.65391 0.60627
 C343 C 0.67750 0.81184 -0.14323
 C344 C 0.64048 0.83721 -0.10743
 C345 C 1.20598 0.33809 0.35713
 C346 C 1.17408 0.37272 0.39136
 C347 C 0.29389 0.84019 0.14442
 C348 C 0.32767 0.87403 0.11109
 C349 C 0.82540 0.31566 0.64540
 C350 C 0.86358 0.34423 0.61191
 C351 C 1.16778 1.15864 0.66829
 C352 C 1.14519 1.12534 0.63016
 C353 C 0.66181 0.67162 0.16139
 C354 C 0.63927 0.63555 0.12475
 C355 C 1.16067 0.82631 0.33953
 C356 C 1.13884 0.86287 0.37611
 C357 C 0.66561 0.33951 -0.16843
 C358 C 0.64260 0.37215 -0.12994
 C359 C 0.83876 1.16736 0.33597
 C360 C 0.86133 1.13177 0.37289
 C361 C 0.33573 0.66672 -0.16459
 C362 C 0.35795 0.63305 -0.12654
 C363 C 0.83361 0.84143 0.66939
 C364 C 0.85618 0.87422 0.63095
 C365 C 0.33830 0.32813 0.16065
 C366 C 0.36062 0.36491 0.12430
   
