data_POSCAR
  _audit_creation_date              2014-09-24
  _audit_creation_method            'ToBaCCo'
  _symmetry_space_group_name_H-M    'P1'
  _symmetry_Int_Tables_number       1
  _symmetry_cell_setting            triclinic
  loop_
  _symmetry_equiv_pos_as_xyz
 x,y,z
_cell_length_a 33.8521
_cell_length_b 46.6848
_cell_length_c 32.4139
_cell_angle_alpha 90.081500
_cell_angle_beta 90.000100
_cell_angle_gamma 90.078300
loop_
  _atom_site_label
  _atom_site_type_symbol
  _atom_site_fract_x
  _atom_site_fract_y
  _atom_site_fract_z
O1 O 0.30091 0.22152 0.25058
 O2 O 0.24551 0.27720 0.19486
 O3 O 0.30083 0.27738 0.25068
 O4 O 0.24558 0.22149 0.19477
 O5 O 0.20036 0.22143 0.24366
 O6 O 0.25555 0.27729 0.29959
 O7 O 0.20025 0.27711 0.24380
 O8 O 0.25563 0.22146 0.29949
 Cu9 Cu 0.27777 0.24940 0.21785
 Cu10 Cu 0.22345 0.24931 0.27656
 C11 C 0.28772 0.21190 0.28455
 C12 C 0.21334 0.28666 0.20975
 C13 C 0.28761 0.28696 0.28468
 C14 C 0.21340 0.21187 0.20953
 O15 O 0.70096 0.27798 0.25493
 O16 O 0.75636 0.22225 0.19916
 O17 O 0.70106 0.22229 0.25496
 O18 O 0.75627 0.27809 0.19914
 O19 O 0.80151 0.27825 0.24801
 O20 O 0.74632 0.22243 0.30390
 O21 O 0.80164 0.22239 0.24807
 O22 O 0.74623 0.27814 0.30387
 Cu23 Cu 0.72417 0.25014 0.22212
 Cu24 Cu 0.77849 0.25032 0.28083
 C25 C 0.71405 0.28756 0.28901
 C26 C 0.78844 0.21271 0.21410
 C27 C 0.71418 0.21284 0.28904
 C28 C 0.78836 0.28784 0.21399
 O29 O 0.74639 0.77816 0.69609
 O30 O 0.80146 0.72235 0.75191
 O31 O 0.74617 0.72245 0.69606
 O32 O 0.80170 0.77821 0.75192
 O33 O 0.75646 0.77830 0.80079
 O34 O 0.70090 0.72256 0.74499
 O35 O 0.75618 0.72246 0.80082
 O36 O 0.70112 0.77824 0.74503
 Cu37 Cu 0.77850 0.75029 0.71913
 Cu38 Cu 0.72417 0.75040 0.77784
 C39 C 0.71426 0.78772 0.71095
 C40 C 0.78820 0.71279 0.78589
 C41 C 0.71397 0.71299 0.71092
 C42 C 0.78861 0.78792 0.78594
 O43 O 0.30090 0.77817 0.74934
 O44 O 0.24553 0.72240 0.80515
 O45 O 0.30084 0.72231 0.74932
 O46 O 0.24556 0.77811 0.80514
 O47 O 0.20034 0.77804 0.75625
 O48 O 0.25555 0.72226 0.70040
 O49 O 0.20027 0.72235 0.75621
 O50 O 0.25562 0.77809 0.70042
 Cu51 Cu 0.27777 0.75026 0.78210
 Cu52 Cu 0.22345 0.75018 0.72339
 C53 C 0.28770 0.78773 0.71535
 C54 C 0.21337 0.71286 0.79028
 C55 C 0.28761 0.71267 0.71533
 C56 C 0.21337 0.78765 0.79036
 C57 C 1.02064 0.02125 0.02112
 C58 C 0.97882 0.02109 0.02144
 C59 C 0.95846 -0.00034 -0.00031
 C60 C 0.97877 -0.02177 -0.02203
 C61 C 1.02059 -0.02192 -0.02165
 C62 C 1.04093 -0.00033 -0.00025
 H63 H 1.07297 -0.00033 -0.00022
 H64 H 0.92643 -0.00034 -0.00034
 C65 C 0.51965 0.52158 0.52151
 C66 C 0.47783 0.52136 0.52188
 C67 C 0.45751 0.49995 0.50006
 C68 C 0.47785 0.47860 0.47822
 C69 C 0.51967 0.47850 0.47855
 C70 C 0.53998 0.50007 0.50002
 H71 H 0.57201 0.50011 0.50001
 H72 H 0.42547 0.49990 0.50008
 C73 C -0.02242 0.47826 0.02195
 C74 C 0.01940 0.47809 0.02155
 C75 C 0.03974 0.49967 0.00021
 C76 C 0.01945 0.52124 -0.02110
 C77 C -0.02237 0.52107 -0.02144
 C78 C -0.04273 0.49966 0.00027
 H79 H -0.07476 0.49966 0.00029
 H80 H 0.07178 0.49967 0.00018
 C81 C 0.47855 0.97864 0.52174
 C82 C 0.52037 0.97853 0.52140
 C83 C 0.54067 1.00007 0.49994
 C84 C 0.52035 1.02154 0.47846
 C85 C 0.47853 1.02132 0.47808
 C86 C 0.45821 0.99995 0.49990
 H87 H 0.42617 0.99990 0.49988
 H88 H 0.57271 1.00011 0.49995
 C89 C 1.14941 0.14826 0.14491
 C90 C 1.13522 0.15878 0.18250
 C91 C 1.15636 0.17980 0.20395
 C92 C 1.19216 0.19067 0.18806
 C93 C 1.20611 0.17983 0.15011
 C94 C 1.18487 0.15881 0.12878
 C95 C 1.12762 0.12658 0.12298
 C96 C 1.10931 0.10836 0.10476
 C97 C 1.08742 0.08653 0.08325
 C98 C 1.09404 0.05760 0.09218
 C99 C 1.07248 0.03636 0.07169
 C100 C 1.04392 0.04386 0.04220
 C101 C 1.03777 0.07292 0.03298
 C102 C 1.05933 0.09415 0.05353
 H103 H 1.10779 0.15073 0.19526
 H104 H 1.14453 0.18749 0.23296
 H105 H 1.23346 0.18755 0.13676
 H106 H 1.19612 0.15078 0.09969
 H107 H 1.11572 0.05148 0.11511
 H108 H 1.07765 0.01408 0.07922
 H109 H 1.01627 0.07913 0.00994
 H110 H 1.05407 0.11647 0.04629
 C111 C 0.64860 0.64847 0.64534
 C112 C 0.63443 0.65909 0.68292
 C113 C 0.65570 0.68007 0.70431
 C114 C 0.69148 0.69071 0.68834
 C115 C 0.70548 0.67988 0.65053
 C116 C 0.68414 0.65890 0.62920
 C117 C 0.62671 0.62682 0.62345
 C118 C 0.60835 0.60862 0.60526
 C119 C 0.58641 0.58681 0.58376
 C120 C 0.59309 0.55788 0.59258
 C121 C 0.57153 0.53665 0.57206
 C122 C 0.54290 0.54417 0.54266
 C123 C 0.53668 0.57325 0.53355
 C124 C 0.55824 0.59446 0.55413
 H125 H 0.60695 0.65115 0.69569
 H126 H 0.64411 0.68794 0.73331
 H127 H 0.73289 0.68762 0.63739
 H128 H 0.69538 0.65081 0.60014
 H129 H 0.61484 0.55173 0.61542
 H130 H 0.57676 0.51436 0.57949
 H131 H 0.51512 0.57947 0.51058
 H132 H 0.55293 0.61678 0.54698
 C133 C -0.14897 0.35253 0.15040
 C134 C -0.18420 0.34167 0.13411
 C135 C -0.20495 0.32025 0.15506
 C136 C -0.19073 0.30931 0.19279
 C137 C -0.15513 0.32046 0.20882
 C138 C -0.13448 0.34188 0.18775
 C139 C -0.12766 0.37455 0.12872
 C140 C -0.10979 0.39294 0.11045
 C141 C -0.08839 0.41478 0.08849
 C142 C -0.09538 0.41910 0.04638
 C143 C -0.07418 0.44000 0.02485
 C144 C -0.04561 0.45667 0.04518
 C145 C -0.03917 0.45254 0.08759
 C146 C -0.06036 0.43161 0.10908
 H147 H -0.19566 0.34977 0.10518
 H148 H -0.23215 0.31233 0.14160
 H149 H -0.14311 0.31269 0.23768
 H150 H -0.10720 0.35014 0.20062
 H151 H -0.11704 0.40621 0.03017
 H152 H -0.07958 0.44287 -0.00782
 H153 H -0.01764 0.46544 0.10396
 H154 H -0.05481 0.42851 0.14169
 C155 C 0.35167 0.85332 0.65068
 C156 C 0.31638 0.84252 0.63439
 C157 C 0.29556 0.82116 0.65538
 C158 C 0.30981 0.81030 0.69302
 C159 C 0.34535 0.82129 0.70914
 C160 C 0.36611 0.84266 0.68807
 C161 C 0.37310 0.87526 0.62895
 C162 C 0.39105 0.89357 0.61062
 C163 C 0.41252 0.91533 0.58855
 C164 C 0.40561 0.91951 0.54641
 C165 C 0.42685 0.94034 0.52477
 C166 C 0.45537 0.95709 0.54506
 C167 C 0.46174 0.95308 0.58751
 C168 C 0.44051 0.93222 0.60909
 H169 H 0.30495 0.85062 0.60544
 H170 H 0.26831 0.81318 0.64214
 H171 H 0.35713 0.81340 0.73802
 H172 H 0.39343 0.85086 0.70094
 H173 H 0.38398 0.90657 0.53023
 H174 H 0.42150 0.94311 0.49208
 H175 H 0.48323 0.96604 0.60384
 H176 H 0.44600 0.92923 0.64173
 C177 C -0.14839 0.64696 -0.14961
 C178 C -0.13384 0.65765 -0.18696
 C179 C -0.15441 0.67911 -0.20796
 C180 C -0.18986 0.69017 -0.19182
 C181 C -0.20421 0.67929 -0.15421
 C182 C -0.18359 0.65783 -0.13328
 C183 C -0.12719 0.62490 -0.12798
 C184 C -0.10942 0.60648 -0.10975
 C185 C -0.08813 0.58460 -0.08785
 C186 C -0.06022 0.56775 -0.10850
 C187 C -0.03911 0.54680 -0.08705
 C188 C -0.04551 0.54265 -0.04463
 C189 C -0.07397 0.55935 -0.02424
 C190 C -0.09509 0.58027 -0.04573
 H191 H -0.10661 0.64939 -0.19986
 H192 H -0.14256 0.68701 -0.23682
 H193 H -0.23139 0.68732 -0.14095
 H194 H -0.19510 0.64972 -0.10437
 H195 H -0.05470 0.57086 -0.14111
 H196 H -0.01768 0.53389 -0.10346
 H197 H -0.07934 0.55647 0.00843
 H198 H -0.11665 0.59317 -0.02947
 C199 C 0.35168 1.14640 0.34914
 C200 C 0.36613 1.15711 0.31177
 C201 C 0.34537 1.17846 0.29073
 C202 C 0.30983 1.18937 0.30685
 C203 C 0.29556 1.17844 0.34447
 C204 C 0.31638 1.15711 0.36544
 C205 C 0.37310 1.12449 0.37085
 C206 C 0.39105 1.10620 0.38917
 C207 C 0.41250 1.08448 0.41124
 C208 C 0.44052 1.06766 0.39071
 C209 C 0.46175 1.04684 0.41230
 C210 C 0.45534 1.04280 0.45474
 C211 C 0.42679 1.05948 0.47501
 C212 C 0.40556 1.08027 0.45337
 H213 H 0.39345 1.14898 0.29889
 H214 H 0.35715 1.18639 0.26186
 H215 H 0.26831 1.18636 0.35772
 H216 H 0.30494 1.14897 0.39437
 H217 H 0.44603 1.07067 0.35808
 H218 H 0.48325 1.03394 0.39599
 H219 H 0.42142 1.05669 0.50770
 H220 H 0.38391 1.09315 0.46954
 C221 C 1.14932 -0.14884 -0.14514
 C222 C 1.13515 -0.15943 -0.18272
 C223 C 1.15630 -0.18041 -0.20412
 C224 C 1.19211 -0.19118 -0.18821
 C225 C 1.20605 -0.18028 -0.15028
 C226 C 1.18478 -0.15929 -0.12899
 C227 C 1.12751 -0.12718 -0.12326
 C228 C 1.10919 -0.10898 -0.10510
 C229 C 1.08730 -0.08717 -0.08365
 C230 C 1.05911 -0.09480 -0.05401
 C231 C 1.03757 -0.07359 -0.03351
 C232 C 1.04383 -0.04452 -0.04271
 C233 C 1.07247 -0.03701 -0.07212
 C234 C 1.09402 -0.05824 -0.09256
 H235 H 1.10771 -0.15145 -0.19550
 H236 H 1.14448 -0.18816 -0.23313
 H237 H 1.23339 -0.18793 -0.13690
 H238 H 1.19602 -0.15121 -0.09991
 H239 H 1.05377 -0.11712 -0.04679
 H240 H 1.01600 -0.07981 -0.01052
 H241 H 1.07774 -0.01472 -0.07962
 H242 H 1.11578 -0.05210 -0.11542
 C243 C 0.64873 0.35198 0.35459
 C244 C 0.63457 0.34136 0.31700
 C245 C 0.65583 0.32042 0.29561
 C246 C 0.69160 0.30982 0.31157
 C247 C 0.70559 0.32066 0.34939
 C248 C 0.68427 0.34161 0.37073
 C249 C 0.62684 0.37357 0.37650
 C250 C 0.60846 0.39172 0.39472
 C251 C 0.58650 0.41346 0.41623
 C252 C 0.55836 0.40573 0.44587
 C253 C 0.53677 0.42688 0.46647
 C254 C 0.54294 0.45597 0.45738
 C255 C 0.57154 0.46358 0.42796
 C256 C 0.59313 0.44242 0.40742
 H257 H 0.60710 0.34926 0.30423
 H258 H 0.64423 0.31253 0.26660
 H259 H 0.73300 0.31297 0.36253
 H260 H 0.69551 0.34970 0.39980
 H261 H 0.55309 0.38339 0.45302
 H262 H 0.51524 0.42059 0.48946
 H263 H 0.57673 0.48588 0.42053
 H264 H 0.61485 0.44863 0.38456
 C265 C 0.85170 -0.14747 -0.15050
 C266 C 0.86612 -0.15825 -0.18785
 C267 C 0.84533 -0.17965 -0.20891
 C268 C 0.80966 -0.19064 -0.19287
 C269 C 0.79552 -0.17957 -0.15513
 C270 C 0.81641 -0.15818 -0.13420
 C271 C 0.87317 -0.12548 -0.12883
 C272 C 0.89115 -0.10711 -0.11056
 C273 C 0.91265 -0.08529 -0.08859
 C274 C 0.94069 -0.06851 -0.10919
 C275 C 0.96195 -0.04758 -0.08769
 C276 C 0.95557 -0.04339 -0.04526
 C277 C 0.92700 -0.06002 -0.02492
 C278 C 0.90573 -0.08092 -0.04646
 H279 H 0.89345 -0.15011 -0.20072
 H280 H 0.85729 -0.18751 -0.23777
 H281 H 0.76827 -0.18737 -0.14167
 H282 H 0.80501 -0.14998 -0.10527
 H283 H 0.94618 -0.07165 -0.14181
 H284 H 0.98347 -0.03471 -0.10407
 H285 H 0.92164 -0.05711 0.00777
 H286 H 0.88407 -0.09377 -0.03023
 C287 C 0.35132 0.35279 0.34940
 C288 C 0.36581 0.34209 0.31200
 C289 C 0.34513 0.32064 0.29093
 C290 C 0.30964 0.30959 0.30704
 C291 C 0.29534 0.32049 0.34468
 C292 C 0.31607 0.34194 0.36569
 C293 C 0.37265 0.37482 0.37112
 C294 C 0.39052 0.39322 0.38943
 C295 C 0.41192 0.41507 0.41147
 C296 C 0.43986 0.43196 0.39090
 C297 C 0.46104 0.45290 0.41247
 C298 C 0.45468 0.45699 0.45491
 C299 C 0.42620 0.44026 0.47522
 C300 C 0.40501 0.41935 0.45361
 H301 H 0.39308 0.35032 0.29913
 H302 H 0.35694 0.31273 0.26204
 H303 H 0.26813 0.31247 0.35792
 H304 H 0.30461 0.35006 0.39463
 H305 H 0.44534 0.42889 0.35826
 H306 H 0.48249 0.46584 0.39612
 H307 H 0.42086 0.44309 0.50792
 H308 H 0.38342 0.40641 0.46981
 C309 C 0.14824 0.64827 -0.14429
 C310 C 0.13404 0.65882 -0.18184
 C311 C 0.15523 0.67983 -0.20318
 C312 C 0.19096 0.69056 -0.18718
 C313 C 0.20499 0.67981 -0.14939
 C314 C 0.18374 0.65879 -0.12811
 C315 C 0.12644 0.62659 -0.12246
 C316 C 0.10812 0.60837 -0.10434
 C317 C 0.08623 0.58653 -0.08293
 C318 C 0.05811 0.59414 -0.05321
 C319 C 0.03655 0.57291 -0.03276
 C320 C 0.04273 0.54385 -0.04209
 C321 C 0.07132 0.53636 -0.07158
 C322 C 0.09288 0.55760 -0.09197
 H323 H 0.10660 0.65081 -0.19464
 H324 H 0.14361 0.68765 -0.23217
 H325 H 0.23237 0.68761 -0.13623
 H326 H 0.19500 0.65076 -0.09907
 H327 H 0.05282 0.61646 -0.04590
 H328 H 0.01502 0.57911 -0.00972
 H329 H 0.07652 0.51408 -0.07918
 H330 H 0.11459 0.55148 -0.11489
 C331 C 0.64911 1.14830 0.35465
 C332 C 0.63491 1.15879 0.31706
 C333 C 0.65608 1.17977 0.29566
 C334 C 0.69181 1.19054 0.31162
 C335 C 0.70584 1.17984 0.34945
 C336 C 0.68460 1.15886 0.37079
 C337 C 0.62730 1.12666 0.37656
 C338 C 0.60898 1.10848 0.39476
 C339 C 0.58708 1.08670 0.41626
 C340 C 0.59380 1.05774 0.40744
 C341 C 0.57224 1.03655 0.42794
 C342 C 0.54360 1.04411 0.45733
 C343 C 0.53735 1.07319 0.46644
 C344 C 0.55890 1.09438 0.44588
 H345 H 0.60747 1.15075 0.30428
 H346 H 0.64446 1.18754 0.26664
 H347 H 0.73322 1.18768 0.36259
 H348 H 0.69587 1.15087 0.39986
 H349 H 0.61556 1.05157 0.38460
 H350 H 0.57750 1.01425 0.42051
 H351 H 0.51577 1.07945 0.48941
 H352 H 0.55356 1.11671 0.45304
 C353 C 0.14815 0.35115 0.14443
 C354 C 0.13396 0.34053 0.18197
 C355 C 0.15517 0.31956 0.20326
 C356 C 0.19091 0.30892 0.18725
 C357 C 0.20492 0.31974 0.14946
 C358 C 0.18365 0.34072 0.12823
 C359 C 0.12633 0.37281 0.12266
 C360 C 0.10801 0.39101 0.10458
 C361 C 0.08611 0.41283 0.08325
 C362 C 0.05789 0.40521 0.05361
 C363 C 0.03635 0.42643 0.03321
 C364 C 0.04264 0.45549 0.04250
 C365 C 0.07132 0.46300 0.07192
 C366 C 0.09286 0.44176 0.09226
 H367 H 0.10652 0.34847 0.19479
 H368 H 0.14356 0.31168 0.23225
 H369 H 0.23231 0.31201 0.13629
 H370 H 0.19490 0.34881 0.09920
 H371 H 0.05252 0.38288 0.04631
 H372 H 0.01475 0.42021 0.01022
 H373 H 0.07660 0.48528 0.07950
 H374 H 0.11465 0.44789 0.11512
 C375 C 0.64925 0.85215 0.64533
 C376 C 0.63505 0.84166 0.68294
 C377 C 0.65622 0.82072 0.70435
 C378 C 0.69193 0.80999 0.68838
 C379 C 0.70596 0.82070 0.65054
 C380 C 0.68473 0.84165 0.62919
 C381 C 0.62743 0.87373 0.62340
 C382 C 0.60910 0.89186 0.60518
 C383 C 0.58717 0.91358 0.58366
 C384 C 0.55901 0.90581 0.55403
 C385 C 0.53744 0.92693 0.53345
 C386 C 0.54363 0.95604 0.54255
 C387 C 0.57225 0.96369 0.57196
 C388 C 0.59383 0.94255 0.59248
 H389 H 0.60762 0.84966 0.69572
 H390 H 0.64459 0.81293 0.73337
 H391 H 0.73332 0.81290 0.63740
 H392 H 0.69599 0.84964 0.60011
 H393 H 0.55372 0.88346 0.54688
 H394 H 0.51589 0.92061 0.51047
 H395 H 0.57747 0.98600 0.57939
 H396 H 0.61557 0.94879 0.61533
 C397 C 0.85228 0.14697 0.14962
 C398 C 0.86676 0.15778 0.18697
 C399 C 0.84605 0.17922 0.20796
 C400 C 0.81053 0.19012 0.19181
 C401 C 0.79626 0.17911 0.15420
 C402 C 0.81702 0.15768 0.13328
 C403 C 0.87363 0.12494 0.12800
 C404 C 0.89152 0.10653 0.10978
 C405 C 0.91291 0.08467 0.08786
 C406 C 0.94083 0.06787 0.10852
 C407 C 0.96201 0.04692 0.08706
 C408 C 0.95566 0.04272 0.04463
 C409 C 0.92721 0.05937 0.02423
 C410 C 0.90602 0.08029 0.04573
 H411 H 0.89405 0.14965 0.19987
 H412 H 0.85784 0.18721 0.23682
 H413 H 0.76902 0.18702 0.14093
 H414 H 0.80557 0.14947 0.10437
 H415 H 0.94630 0.07102 0.14114
 H416 H 0.98343 0.03404 0.10348
 H417 H 0.92189 0.05645 -0.00846
 H418 H 0.88446 0.09316 0.02946
 C419 C 0.35133 0.64693 0.65070
 C420 C 0.36582 0.65769 0.68807
 C421 C 0.34515 0.67911 0.70912
 C422 C 0.30965 0.69007 0.69300
 C423 C 0.29535 0.67911 0.65537
 C424 C 0.31608 0.65769 0.63440
 C425 C 0.37265 0.62493 0.62900
 C426 C 0.39052 0.60656 0.61069
 C427 C 0.41190 0.58474 0.58866
 C428 C 0.43987 0.56792 0.60921
 C429 C 0.46105 0.54702 0.58764
 C430 C 0.45465 0.54290 0.54520
 C431 C 0.42614 0.55957 0.52491
 C432 C 0.40495 0.58043 0.54652
 H433 H 0.39310 0.64951 0.70095
 H434 H 0.35696 0.68707 0.73800
 H435 H 0.26813 0.68707 0.64213
 H436 H 0.30461 0.64953 0.60547
 H437 H 0.44538 0.57101 0.64184
 H438 H 0.48252 0.53414 0.60397
 H439 H 0.42078 0.55671 0.49222
 H440 H 0.38334 0.59331 0.53034
   
