data_POSCAR
  _audit_creation_date              2014-09-24
  _audit_creation_method            'ToBaCCo'
  _symmetry_space_group_name_H-M    'P1'
  _symmetry_Int_Tables_number       1
  _symmetry_cell_setting            triclinic
  loop_
  _symmetry_equiv_pos_as_xyz
 x,y,z
_cell_length_a 38.2244
_cell_length_b 37.8543
_cell_length_c 37.9371
_cell_angle_alpha 90.115600
_cell_angle_beta 89.851200
_cell_angle_gamma 90.030800
loop_
  _atom_site_label
  _atom_site_type_symbol
  _atom_site_fract_x
  _atom_site_fract_y
  _atom_site_fract_z
C1 C 0.28070 0.41140 -0.00015
 C2 C 0.28907 0.39597 0.03217
 C3 C 0.30933 0.36518 0.03209
 C4 C 0.31787 0.34756 0.00003
 C5 C 0.30340 0.36114 -0.03179
 C6 C 0.28490 0.39333 -0.03221
 C7 C 0.33992 0.31425 -0.00023
 C8 C 0.35413 0.30086 -0.03229
 C9 C 0.37219 0.26844 -0.03329
 C10 C 0.37581 0.24968 -0.00162
 C11 C 0.36868 0.26535 0.03097
 C12 C 0.34876 0.29642 0.03152
 H13 H 0.26614 0.43602 0.00009
 H14 H 0.31767 0.35535 0.05717
 H15 H 0.30552 0.34633 -0.05589
 H16 H 0.35199 0.31594 -0.05612
 H17 H 0.38958 0.22461 -0.00190
 H18 H 0.34074 0.30620 0.05679
 C19 C 0.72535 0.59117 0.00493
 C20 C 0.71855 0.60845 0.03683
 C21 C 0.69731 0.63865 0.03644
 C22 C 0.68186 0.65074 0.00459
 C23 C 0.69179 0.63372 -0.02750
 C24 C 0.71499 0.60505 -0.02750
 C25 C 0.65511 0.68020 0.00492
 C26 C 0.64483 0.69700 -0.02694
 C27 C 0.61627 0.72036 -0.02774
 C28 C 0.59903 0.72769 0.00408
 C29 C 0.61169 0.71626 0.03662
 C30 C 0.63865 0.69118 0.03689
 H31 H 0.74201 0.56798 0.00508
 H32 H 0.69335 0.65252 0.06086
 H33 H 0.68149 0.64190 -0.05250
 H34 H 0.65869 0.69199 -0.05106
 H35 H 0.57656 0.74522 0.00384
 H36 H 0.64573 0.68007 0.06192
 C37 C 0.75393 0.37100 1.00812
 C38 C 0.73836 0.36390 0.97563
 C39 C 0.70730 0.34429 0.97525
 C40 C 0.68893 0.33658 1.00695
 C41 C 0.70247 0.35070 1.03891
 C42 C 0.73511 0.36782 1.03967
 C43 C 0.65499 0.31595 1.00653
 C44 C 0.64046 0.30221 1.03825
 C45 C 0.60794 0.28469 1.03836
 C46 C 0.59060 0.28043 1.00604
 C47 C 0.60668 0.28830 0.97391
 C48 C 0.63764 0.30801 0.97433
 H49 H 0.77888 0.38467 1.00840
 H50 H 0.69790 0.33572 0.95009
 H51 H 0.68744 0.34949 1.06287
 H52 H 0.65484 0.30396 1.06250
 H53 H 0.56594 0.26620 1.00551
 H54 H 0.64775 0.31642 0.94937
 C55 C 0.25038 0.62654 0.99694
 C56 C 0.26551 0.63382 0.96419
 C57 C 0.29559 0.65510 0.96322
 C58 C 0.31251 0.66555 0.99497
 C59 C 0.30029 0.65046 1.02708
 C60 C 0.26895 0.63119 1.02826
 C61 C 0.34132 0.69300 0.99494
 C62 C 0.35206 0.70937 1.02696
 C63 C 0.37545 0.73794 1.02692
 C64 C 0.38385 0.75310 0.99440
 C65 C 0.37865 0.73491 0.96270
 C66 C 0.35732 0.70465 0.96305
 H67 H 0.22584 0.61214 0.99772
 H68 H 0.30494 0.66361 0.93788
 H69 H 0.31477 0.65343 1.05111
 H70 H 0.34157 0.70124 1.05192
 H71 H 0.39915 0.77726 0.99405
 H72 H 0.35316 0.69087 0.93860
 C73 C 0.00494 0.25507 0.38666
 C74 C 0.03649 0.27278 0.38101
 C75 C 0.03681 0.30175 0.35783
 C76 C 0.00575 0.31229 0.33993
 C77 C -0.02594 0.29407 0.34803
 C78 C -0.02664 0.26657 0.37250
 C79 C 0.00603 0.34128 0.31247
 C80 C -0.02604 0.35532 0.29970
 C81 C -0.02699 0.37716 0.26997
 C82 C 0.00492 0.38748 0.25499
 C83 C 0.03717 0.37946 0.27030
 C84 C 0.03779 0.35484 0.29801
 H85 H 0.00455 0.23287 0.40466
 H86 H 0.06112 0.31553 0.35394
 H87 H -0.05030 0.30060 0.33566
 H88 H -0.05028 0.35020 0.31311
 H89 H 0.00461 0.40481 0.23226
 H90 H 0.06292 0.34619 0.30733
 C91 C -0.00588 0.72584 0.59729
 C92 C 0.02573 0.71479 0.61193
 C93 C 0.02466 0.69031 0.63948
 C94 C -0.00767 0.67954 0.65493
 C95 C -0.03900 0.69533 0.64202
 C96 C -0.03823 0.71822 0.61285
 C97 C -0.00838 0.65134 0.68330
 C98 C -0.04022 0.63483 0.69407
 C99 C -0.03999 0.60622 0.71775
 C100 C -0.00747 0.59218 0.72750
 C101 C 0.02396 0.60973 0.72085
 C102 C 0.02322 0.63978 0.69941
 H103 H -0.00510 0.74332 0.57466
 H104 H 0.04922 0.67951 0.64778
 H105 H -0.06389 0.69016 0.65418
 H106 H -0.06502 0.64347 0.68402
 H107 H -0.00685 0.56876 0.74397
 H108 H 0.04734 0.65377 0.69566
 C109 C 1.00224 0.75522 0.37875
 C110 C 0.97008 0.74031 0.36961
 C111 C 0.97004 0.71118 0.34674
 C112 C 1.00191 0.69443 0.33692
 C113 C 1.03320 0.70593 0.35350
 C114 C 1.03366 0.73658 0.37452
 C115 C 1.00272 0.66578 0.30925
 C116 C 1.03448 0.65710 0.29151
 C117 C 1.03493 0.63245 0.26382
 C118 C 1.00280 0.61921 0.25200
 C119 C 0.97151 0.62459 0.27034
 C120 C 0.97167 0.64762 0.29934
 H121 H 1.00222 0.77939 0.39421
 H122 H 0.94532 0.70247 0.33642
 H123 H 1.05694 0.69111 0.35014
 H124 H 1.05874 0.66951 0.29870
 H125 H 1.00257 0.60165 0.22939
 H126 H 0.94763 0.65139 0.31366
 C127 C 1.00488 0.25605 0.61265
 C128 C 0.97304 0.27287 0.61944
 C129 C 0.97255 0.30039 0.64441
 C130 C 1.00347 0.31003 0.66313
 C131 C 1.03537 0.29290 0.65405
 C132 C 1.03637 0.26692 0.62786
 C133 C 1.00259 0.33639 0.69303
 C134 C 1.03392 0.35238 0.70550
 C135 C 1.03431 0.37196 0.73708
 C136 C 1.00266 0.37564 0.75552
 C137 C 0.97060 0.36721 0.73999
 C138 C 0.97068 0.34558 0.70995
 H139 H 1.00553 0.23453 0.59378
 H140 H 0.94810 0.31361 0.64929
 H141 H 1.05942 0.29897 0.66742
 H142 H 1.05775 0.34978 0.69064
 H143 H 1.00246 0.39019 0.78021
 H144 H 0.94600 0.33577 0.70056
 C145 C 0.37306 -0.00191 0.24775
 C146 C 0.36789 0.02970 0.26603
 C147 C 0.34813 0.02894 0.29721
 C148 C 0.33307 -0.00312 0.30958
 C149 C 0.34372 -0.03511 0.29297
 C150 C 0.36582 -0.03463 0.26329
 C151 C 0.30561 -0.00297 0.33838
 C152 C 0.29368 -0.03487 0.35426
 C153 C 0.26369 -0.03512 0.37577
 C154 C 0.24593 -0.00328 0.38120
 C155 C 0.26122 0.02910 0.37269
 C156 C 0.28973 0.02917 0.34949
 H157 H 0.38798 -0.00128 0.22337
 H158 H 0.34485 0.05324 0.31144
 H159 H 0.33463 -0.06024 0.30227
 H160 H 0.30722 -0.05939 0.35011
 H161 H 0.22215 -0.00338 0.39688
 H162 H 0.29835 0.05436 0.33985
 C163 C 0.62670 0.00536 0.75367
 C164 C 0.63003 0.03701 0.73490
 C165 C 0.64774 0.03629 0.70237
 C166 C 0.66251 0.00443 0.68908
 C167 C 0.65486 -0.02741 0.70733
 C168 C 0.63437 -0.02737 0.73810
 C169 C 0.68416 0.00430 0.65559
 C170 C 0.69259 -0.02778 0.63777
 C171 C 0.71312 -0.02772 0.60710
 C172 C 0.72164 0.00480 0.59194
 C173 C 0.71672 0.03676 0.60992
 C174 C 0.69826 0.03630 0.64196
 H175 H 0.61296 0.00577 0.77875
 H176 H 0.64924 0.06029 0.68733
 H177 H 0.66470 -0.05229 0.69818
 H178 H 0.68383 -0.05294 0.64727
 H179 H 0.73653 0.00492 0.56756
 H180 H 0.69598 0.06061 0.65652
 C181 C 0.41300 0.99987 0.72236
 C182 C 0.39946 0.96699 0.71270
 C183 C 0.37052 0.96605 0.69008
 C184 C 0.35298 0.99773 0.68028
 C185 C 0.36442 1.02999 0.69579
 C186 C 0.39485 1.03128 0.71629
 C187 C 0.32357 0.99733 0.65370
 C188 C 0.31220 1.02917 0.63736
 C189 C 0.28641 1.02881 0.61107
 C190 C 0.27520 0.99593 0.59845
 C191 C 0.28366 0.96420 0.61519
 C192 C 0.30729 0.96511 0.64338
 H193 H 0.43642 1.00070 0.73845
 H194 H 0.36244 0.94072 0.68021
 H195 H 0.34982 1.05401 0.69249
 H196 H 0.32385 1.05413 0.64396
 H197 H 0.25712 0.99518 0.57645
 H198 H 0.31273 0.94075 0.65679
 C199 C 0.58763 1.00168 0.28175
 C200 C 0.60363 0.96938 0.28938
 C201 C 0.63455 0.96973 0.30916
 C202 C 0.65134 1.00207 0.31842
 C203 C 0.63687 1.03394 0.30492
 C204 C 0.60488 1.03409 0.28659
 C205 C 0.68489 1.00263 0.33981
 C206 C 0.69888 1.03491 0.35319
 C207 C 0.73149 1.03576 0.37028
 C208 C 0.75002 1.00412 0.37378
 C209 C 0.73406 0.97151 0.36773
 C210 C 0.70256 0.97085 0.34891
 H211 H 0.56320 1.00127 0.26724
 H212 H 0.64521 0.94460 0.31630
 H213 H 0.65094 1.05836 0.30740
 H214 H 0.68432 1.05912 0.35147
 H215 H 0.77514 1.00456 0.38702
 H216 H 0.69220 0.94545 0.34221
 O217 O 0.87409 0.83054 0.46543
 O218 O 0.82146 0.87581 0.53105
 O219 O 0.86940 0.82722 0.53276
 O220 O 0.82651 0.87788 0.46397
 O221 O 0.78520 0.83733 0.45917
 O222 O 0.83003 0.78487 0.52915
 O223 O 0.77974 0.83580 0.52765
 O224 O 0.83410 0.78877 0.45991
 Cu225 Cu 0.85178 0.85676 0.49906
 Cu226 Cu 0.80313 0.80728 0.49399
 C227 C 0.86350 0.80214 0.45132
 C228 C 0.79124 0.86504 0.53967
 C229 C 0.85838 0.79701 0.54196
 C230 C 0.79842 0.86683 0.45009
 O231 O 0.18265 0.12502 0.53382
 O232 O 0.12909 0.17716 0.47432
 O233 O 0.17308 0.12677 0.46738
 O234 O 0.13373 0.17097 0.54155
 O235 O 0.17237 0.21417 0.54028
 O236 O 0.21640 0.16542 0.46610
 O237 O 0.17029 0.21790 0.47088
 O238 O 0.22369 0.16592 0.53491
 Cu239 Cu 0.15068 0.14620 0.50460
 Cu240 Cu 0.19992 0.19513 0.50295
 C241 C 0.21228 0.13583 0.54441
 C242 C 0.14028 0.20628 0.46218
 C243 C 0.20189 0.13723 0.45475
 C244 C 0.14473 0.20026 0.55316
 O245 O 0.12670 0.82037 0.53910
 O246 O 0.17409 0.87139 0.47394
 O247 O 0.12613 0.82451 0.47210
 O248 O 0.17565 0.86760 0.54115
 O249 O 0.21699 0.82712 0.53873
 O250 O 0.16524 0.78168 0.46848
 O251 O 0.21470 0.83011 0.46964
 O252 O 0.16547 0.77737 0.53711
 Cu253 Cu 0.14685 0.84999 0.50720
 Cu254 Cu 0.19485 0.79972 0.50363
 C255 C 0.13653 0.78982 0.54835
 C256 C 0.20234 0.86000 0.46060
 C257 C 0.13654 0.79564 0.45879
 C258 C 0.20526 0.85623 0.55082
 O259 O 0.87618 0.17658 0.53027
 O260 O 0.82640 0.12772 0.46478
 O261 O 0.87449 0.17448 0.46269
 O262 O 0.82580 0.13064 0.53188
 O263 O 0.78483 0.17152 0.53062
 O264 O 0.83659 0.21829 0.46077
 O265 O 0.78660 0.16991 0.46186
 O266 O 0.83728 0.21964 0.53040
 Cu267 Cu 0.85457 0.14838 0.49776
 Cu268 Cu 0.80734 0.19937 0.49612
 C269 C 0.86615 0.20662 0.54104
 C270 C 0.79809 0.13976 0.45231
 C271 C 0.86456 0.20365 0.44980
 C272 C 0.79630 0.14210 0.54203
 O273 O 0.47873 0.87316 0.82040
 O274 O 0.54033 0.82440 0.87429
 O275 O 0.54485 0.87550 0.82991
 O276 O 0.47361 0.82805 0.87090
 O277 O 0.47592 0.78546 0.83108
 O278 O 0.54853 0.83576 0.78734
 O279 O 0.54454 0.78267 0.83391
 O280 O 0.48066 0.83255 0.77874
 Cu281 Cu 0.50904 0.85414 0.85279
 Cu282 Cu 0.51283 0.80486 0.80358
 C283 C 0.46939 0.86199 0.79026
 C284 C 0.55265 0.79500 0.86400
 C285 C 0.55812 0.86496 0.80121
 C286 C 0.46305 0.79857 0.85929
 O287 O 0.52945 0.17594 0.12977
 O288 O 0.46233 0.12520 0.17460
 O289 O 0.46275 0.17220 0.12600
 O290 O 0.52899 0.12711 0.17749
 O291 O 0.52607 0.16710 0.21968
 O292 O 0.45812 0.21401 0.16645
 O293 O 0.45802 0.16570 0.21641
 O294 O 0.52662 0.21818 0.16972
 Cu295 Cu 0.49647 0.14618 0.14802
 Cu296 Cu 0.49218 0.19562 0.19725
 C297 C 0.53876 0.20612 0.14082
 C298 C 0.44907 0.13610 0.20328
 C299 C 0.44925 0.20079 0.13686
 C300 C 0.53797 0.13796 0.20777
 O301 O 0.53595 0.13073 0.82918
 O302 O 0.46486 0.17547 0.87413
 O303 O 0.46930 0.12946 0.82442
 O304 O 0.53127 0.18089 0.87537
 O305 O 0.53201 0.22297 0.83532
 O306 O 0.46854 0.16965 0.78247
 O307 O 0.46393 0.21773 0.83406
 O308 O 0.53675 0.17093 0.78707
 Cu309 Cu 0.50043 0.15019 0.85467
 Cu310 Cu 0.50037 0.19956 0.80548
 C311 C 0.54777 0.14195 0.80008
 C312 C 0.45290 0.20451 0.86292
 C313 C 0.45876 0.13988 0.79453
 C314 C 0.54156 0.21104 0.86511
 O315 O 0.46602 0.82776 0.12517
 O316 O 0.53043 0.87221 0.17921
 O317 O 0.53222 0.82265 0.13174
 O318 O 0.46369 0.87349 0.17450
 O319 O 0.45765 0.83252 0.21546
 O320 O 0.52854 0.78050 0.17153
 O321 O 0.52575 0.83259 0.22137
 O322 O 0.46027 0.78534 0.16469
 Cu323 Cu 0.49896 0.85301 0.14885
 Cu324 Cu 0.49299 0.80335 0.19745
 C325 C 0.45226 0.79902 0.13508
 C326 C 0.53814 0.86170 0.20989
 C327 C 0.54137 0.79250 0.14296
 C328 C 0.44899 0.86210 0.20224
 O329 O 0.82755 0.46105 0.87910
 O330 O 0.86860 0.52901 0.82582
 O331 O 0.82161 0.52819 0.87532
 O332 O 0.87415 0.46192 0.83091
 O333 O 0.83385 0.45538 0.78978
 O334 O 0.77931 0.52336 0.83629
 O335 O 0.82862 0.52426 0.78438
 O336 O 0.78579 0.45458 0.83945
 Cu337 Cu 0.85191 0.49598 0.85663
 Cu338 Cu 0.80259 0.48918 0.80826
 C339 C 0.79960 0.44633 0.86883
 C340 C 0.85709 0.53753 0.79569
 C341 C 0.79120 0.53634 0.86488
 C342 C 0.86351 0.44742 0.80280
 O343 O 0.18109 0.47257 0.12817
 O344 O 0.13027 0.53924 0.17394
 O345 O 0.17636 0.53930 0.12507
 O346 O 0.13085 0.47115 0.17409
 O347 O 0.17015 0.47284 0.21658
 O348 O 0.21779 0.54275 0.16546
 O349 O 0.16967 0.54330 0.21607
 O350 O 0.22234 0.47446 0.16859
 Cu351 Cu 0.15063 0.50507 0.14657
 Cu352 Cu 0.19894 0.50841 0.19624
 C353 C 0.21093 0.46307 0.13920
 C354 C 0.14093 0.55318 0.20239
 C355 C 0.20507 0.55200 0.13583
 C356 C 0.14178 0.46061 0.20372
 O357 O 0.82543 0.53096 0.13212
 O358 O 0.87555 0.46539 0.17921
 O359 O 0.82844 0.46372 0.13137
 O360 O 0.87529 0.53283 0.17751
 O361 O 0.83672 0.53242 0.22095
 O362 O 0.78749 0.46204 0.17254
 O363 O 0.83645 0.46283 0.22198
 O364 O 0.78461 0.53109 0.17325
 Cu365 Cu 0.85504 0.49841 0.15106
 Cu366 Cu 0.80721 0.49725 0.20163
 C367 C 0.79611 0.54167 0.14354
 C368 C 0.86522 0.45271 0.20835
 C369 C 0.79985 0.45152 0.14311
 C370 C 0.86513 0.54377 0.20737
 O371 O 0.17107 0.53764 0.87390
 O372 O 0.12619 0.46566 0.82990
 O373 O 0.17612 0.47023 0.87540
 O374 O 0.12349 0.53292 0.82623
 O375 O 0.16210 0.53405 0.78300
 O376 O 0.21701 0.47046 0.83437
 O377 O 0.16527 0.46530 0.78691
 O378 O 0.21153 0.53957 0.83228
 Cu379 Cu 0.14545 0.50152 0.85544
 Cu380 Cu 0.19314 0.50234 0.80484
 C381 C 0.19910 0.55052 0.86152
 C382 C 0.13694 0.45388 0.80055
 C383 C 0.20580 0.46012 0.86427
 C384 C 0.13286 0.54365 0.79599
 C385 C 0.27078 0.41120 0.06468
 C386 C 0.23109 0.41041 0.05848
 C387 C 0.21200 0.42655 0.08365
 C388 C 0.23371 0.44218 0.11397
 C389 C 0.25523 0.41063 0.12756
 C390 C 0.27483 0.39426 0.10169
 C391 C 0.28004 0.45022 0.07066
 C392 C 0.26096 0.46617 0.09636
 H393 H 0.21874 0.39650 0.03676
 H394 H 0.18361 0.42593 0.08300
 H395 H 0.25516 0.40199 0.15482
 H396 H 0.29131 0.37174 0.10745
 H397 H 0.30148 0.46354 0.05736
 H398 H 0.26684 0.49271 0.10542
 C399 C 0.73730 0.59404 0.06920
 C400 C 0.72702 0.55539 0.07599
 C401 C 0.74588 0.53937 0.10155
 C402 C 0.77386 0.56290 0.11840
 C403 C 0.79574 0.57739 0.08751
 C404 C 0.77688 0.59360 0.06233
 C405 C 0.73397 0.61176 0.10598
 C406 C 0.75333 0.59531 0.13183
 H407 H 0.70508 0.54240 0.06325
 H408 H 0.73936 0.51316 0.11105
 H409 H 0.82413 0.57705 0.08640
 H410 H 0.78931 0.60657 0.04005
 H411 H 0.71809 0.63480 0.11160
 H412 H 0.75383 0.60439 0.15897
 C413 C 0.75301 0.38339 0.94362
 C414 C 0.75514 0.42315 0.95202
 C415 C 0.77076 0.44274 0.92693
 C416 C 0.78193 0.42179 0.89433
 C417 C 0.80576 0.39244 0.90852
 C418 C 0.79070 0.37246 0.93428
 C419 C 0.73336 0.38225 0.90798
 C420 C 0.74856 0.40250 0.88222
 H421 H 0.74509 0.43514 0.97594
 H422 H 0.77561 0.47072 0.93058
 H423 H 0.83201 0.38742 0.89874
 H424 H 0.80412 0.35037 0.94643
 H425 H 0.70966 0.36741 0.90298
 H426 H 0.73787 0.40442 0.85582
 C427 C 0.25007 0.61422 0.93267
 C428 C 0.21195 0.62501 0.92543
 C429 C 0.19564 0.60492 0.90067
 C430 C 0.21869 0.57552 0.88515
 C431 C 0.25140 0.59485 0.87106
 C432 C 0.26788 0.61535 0.89600
 C433 C 0.24861 0.57448 0.94113
 C434 C 0.23174 0.55477 0.91702
 H435 H 0.19916 0.64726 0.93816
 H436 H 0.16897 0.61000 0.89231
 H437 H 0.26063 0.59282 0.84407
 H438 H 0.29122 0.63043 0.88992
 H439 H 0.26011 0.56260 0.96438
 H440 H 0.22755 0.52671 0.92074
 C441 C 0.06790 0.25856 0.40134
 C442 C 0.07760 0.22126 0.38826
 C443 C 0.10245 0.20481 0.40773
 C444 C 0.11572 0.22678 0.43892
 C445 C 0.12829 0.26178 0.42219
 C446 C 0.10320 0.27845 0.40228
 C447 C 0.05852 0.25405 0.44061
 C448 C 0.08278 0.23673 0.45964
 H449 H 0.06633 0.20914 0.36493
 H450 H 0.11231 0.17873 0.40107
 H451 H 0.15441 0.27246 0.42562
 H452 H 0.10817 0.30337 0.38917
 H453 H 0.03410 0.26287 0.45240
 H454 H 0.07783 0.22905 0.48665
 C455 C 0.05900 0.73224 0.59787
 C456 C 0.06498 0.72357 0.55879
 C457 C 0.09175 0.74166 0.54375
 C458 C 0.11027 0.76763 0.56854
 C459 C 0.08111 0.79079 0.58442
 C460 C 0.05492 0.77255 0.59971
 C461 C 0.09525 0.72572 0.61512
 C462 C 0.12217 0.74443 0.59961
 H463 H 0.05106 0.70282 0.54486
 H464 H 0.10119 0.73535 0.51751
 H465 H 0.08197 0.81943 0.58584
 H466 H 0.03381 0.78584 0.61364
 H467 H 0.09965 0.70861 0.63753
 H468 H 0.14902 0.74300 0.60872
 C469 C 0.93794 0.75465 0.38881
 C470 C 0.93018 0.79331 0.37923
 C471 C 0.90448 0.80845 0.39898
 C472 C 0.88868 0.78378 0.42692
 C473 C 0.87625 0.75118 0.40593
 C474 C 0.90209 0.73588 0.38577
 C475 C 0.94492 0.75488 0.42879
 C476 C 0.91989 0.77066 0.44825
 H477 H 0.94327 0.80732 0.35802
 H478 H 0.89569 0.83535 0.39463
 H479 H 0.84968 0.74108 0.40674
 H480 H 0.89718 0.71265 0.36980
 H481 H 0.96781 0.74332 0.44102
 H482 H 0.92254 0.77402 0.47648
 C483 C 0.94105 0.25856 0.59976
 C484 C 0.90610 0.27912 0.59924
 C485 C 0.88016 0.26258 0.58023
 C486 C 0.89151 0.22696 0.56389
 C487 C 0.92424 0.23576 0.54229
 C488 C 0.94936 0.25299 0.56039
 C489 C 0.93090 0.22172 0.61367
 C490 C 0.90512 0.20540 0.59515
 H491 H 0.90203 0.30453 0.61180
 H492 H 0.85423 0.27379 0.57714
 H493 H 0.92831 0.22738 0.51530
 H494 H 0.97356 0.26120 0.54776
 H495 H 0.94259 0.20981 0.63683
 H496 H 0.89491 0.17967 0.60250
 C497 C 0.38753 0.06186 0.25210
 C498 C 0.42671 0.05310 0.24887
 C499 C 0.44597 0.07819 0.23283
 C500 C 0.42522 0.11101 0.22225
 C501 C 0.39542 0.09716 0.19902
 C502 C 0.37580 0.07159 0.21454
 C503 C 0.38712 0.09747 0.27222
 C504 C 0.40708 0.12325 0.25652
 H505 H 0.43854 0.02901 0.25863
 H506 H 0.47367 0.07464 0.22772
 H507 H 0.38972 0.10721 0.17287
 H508 H 0.35330 0.05986 0.20159
 H509 H 0.37272 0.10247 0.29634
 H510 H 0.40939 0.14972 0.26729
 C511 C 0.60999 0.06884 0.74950
 C512 C 0.62285 0.07957 0.78645
 C513 C 0.60309 0.10483 0.80248
 C514 C 0.57196 0.11744 0.78037
 C515 C 0.58836 0.12961 0.74525
 C516 C 0.60847 0.10418 0.72904
 C517 C 0.57126 0.05893 0.75447
 C518 C 0.55188 0.08372 0.77096
 H519 H 0.64615 0.06872 0.79864
 H520 H 0.60950 0.11545 0.82828
 H521 H 0.58490 0.15585 0.73434
 H522 H 0.62187 0.10929 0.70439
 H523 H 0.55981 0.03428 0.74554
 H524 H 0.52451 0.07937 0.77719
 C525 C 0.41557 0.93497 0.73081
 C526 C 0.40062 0.89722 0.72574
 C527 C 0.41778 0.87184 0.74518
 C528 C 0.44808 0.88668 0.76755
 C529 C 0.47135 0.90591 0.74079
 C530 C 0.45460 0.93110 0.72188
 C531 C 0.41391 0.94049 0.77094
 C532 C 0.43087 0.91584 0.78986
 H533 H 0.37870 0.89073 0.70887
 H534 H 0.41045 0.84415 0.74469
 H535 H 0.49803 0.89814 0.73484
 H536 H 0.46740 0.94532 0.70062
 H537 H 0.39898 0.96138 0.78363
 H538 H 0.42997 0.91602 0.81847
 C539 C 0.58879 0.93673 0.27074
 C540 C 0.58872 0.94357 0.23088
 C541 C 0.57296 0.91834 0.21156
 C542 C 0.55846 0.88717 0.23317
 C543 C 0.59038 0.87392 0.25406
 C544 C 0.60638 0.89988 0.27389
 C545 C 0.55042 0.92976 0.28067
 C546 C 0.53484 0.90393 0.26137
 H547 H 0.60176 0.96585 0.21851
 H548 H 0.57311 0.91961 0.18298
 H549 H 0.59948 0.84678 0.25347
 H550 H 0.62904 0.89427 0.29002
 H551 H 0.53735 0.94241 0.30278
 H552 H 0.50896 0.89406 0.26784
 C553 C 0.39100 0.25479 0.93633
 C554 C 0.37823 0.21758 0.92578
 C555 C 0.39788 0.20164 0.90041
 C556 C 0.42874 0.22406 0.88745
 C557 C 0.41206 0.25904 0.87536
 C558 C 0.39206 0.27521 0.90089
 C559 C 0.42996 0.25030 0.94560
 C560 C 0.44908 0.23373 0.92076
 H561 H 0.35502 0.20518 0.93675
 H562 H 0.39148 0.17575 0.88988
 H563 H 0.41519 0.26987 0.84907
 H564 H 0.37852 0.29973 0.89560
 H565 H 0.44176 0.25948 0.96992
 H566 H 0.47643 0.22742 0.92491
 C567 C 0.60336 0.73806 0.94107
 C568 C 0.60180 0.77823 0.94723
 C569 C 0.58591 0.79648 0.92133
 C570 C 0.57319 0.77359 0.89038
 C571 C 0.60623 0.75359 0.87826
 C572 C 0.62218 0.73478 0.90482
 C573 C 0.56556 0.72663 0.93310
 C574 C 0.55011 0.74491 0.90676
 H575 H 0.61378 0.79152 0.96957
 H576 H 0.58476 0.82514 0.92193
 H577 H 0.61627 0.75430 0.85149
 H578 H 0.64587 0.71984 0.89999
 H579 H 0.55286 0.70414 0.94547
 H580 H 0.52488 0.73720 0.89621
 C581 C 0.39314 0.75149 0.05789
 C582 C 0.38149 0.78927 0.06741
 C583 C 0.40014 0.80438 0.09398
 C584 C 0.42912 0.78065 0.10883
 C585 C 0.41020 0.74647 0.11992
 C586 C 0.39123 0.73111 0.09329
 C587 C 0.43286 0.75418 0.05095
 C588 C 0.45109 0.77010 0.07679
 H589 H 0.35979 0.80272 0.05481
 H590 H 0.39437 0.83065 0.10396
 H591 H 0.41188 0.73510 0.14610
 H592 H 0.37749 0.70639 0.09727
 H593 H 0.44581 0.74447 0.02738
 H594 H 0.47877 0.77567 0.07402
 C595 C 0.59309 0.26635 0.06839
 C596 C 0.61015 0.26806 0.10551
 C597 C 0.59294 0.24815 0.13054
 C598 C 0.56049 0.22872 0.11622
 C599 C 0.53818 0.25810 0.10004
 C600 C 0.55497 0.27763 0.07532
 C601 C 0.59157 0.22654 0.06041
 C602 C 0.57458 0.20721 0.08481
 H603 H 0.63288 0.28375 0.11224
 H604 H 0.60129 0.24686 0.15782
 H605 H 0.51212 0.26483 0.10926
 H606 H 0.54282 0.30050 0.06319
 H607 H 0.60439 0.21420 0.03795
 H608 H 0.57340 0.17862 0.08275
 C609 C 0.26967 0.05987 0.59652
 C610 C 0.22963 0.05619 0.59925
 C611 C 0.21150 0.08180 0.58281
 C612 C 0.23440 0.11012 0.56517
 C613 C 0.25789 0.12371 0.59527
 C614 C 0.27653 0.09737 0.61184
 C615 C 0.27770 0.06385 0.55700
 C616 C 0.25963 0.09004 0.54093
 H617 H 0.21647 0.03586 0.61454
 H618 H 0.18316 0.08299 0.58448
 H619 H 0.25938 0.15123 0.60316
 H620 H 0.29348 0.10308 0.63398
 H621 H 0.29814 0.04920 0.54345
 H622 H 0.26580 0.09833 0.51429
 C623 C 0.74637 0.06753 0.39015
 C624 C 0.75055 0.05792 0.42931
 C625 C 0.76739 0.08236 0.44878
 C626 C 0.77788 0.11552 0.42834
 C627 C 0.79981 0.10200 0.39720
 C628 C 0.78344 0.07710 0.37732
 C629 C 0.72699 0.10341 0.39126
 C630 C 0.74355 0.12857 0.41146
 H631 H 0.74058 0.03385 0.44104
 H632 H 0.77297 0.07818 0.47646
 H633 H 0.82574 0.11184 0.39078
 H634 H 0.79545 0.06580 0.35392
 H635 H 0.70286 0.10905 0.37745
 H636 H 0.73343 0.15516 0.41467
 C637 C 0.73138 0.93975 0.59170
 C638 C 0.72206 0.93375 0.55279
 C639 C 0.74107 0.90799 0.53677
 C640 C 0.76836 0.89036 0.56053
 C641 C 0.79010 0.92085 0.57606
 C642 C 0.77107 0.94603 0.59226
 C643 C 0.72734 0.90263 0.60859
 C644 C 0.74687 0.87673 0.59214
 H645 H 0.70057 0.94700 0.53964
 H646 H 0.73498 0.89879 0.51039
 H647 H 0.81849 0.92164 0.57651
 H648 H 0.78348 0.96788 0.60602
 H649 H 0.71094 0.89685 0.63119
 H650 H 0.74693 0.84943 0.60078
 C651 C 0.25027 0.93308 0.39650
 C652 C 0.21293 0.92282 0.38534
 C653 C 0.19785 0.89762 0.40581
 C654 C 0.22120 0.88464 0.43595
 C655 C 0.25511 0.87220 0.41759
 C656 C 0.27038 0.89761 0.39672
 C657 C 0.24744 0.94276 0.43584
 C658 C 0.23174 0.91809 0.45597
 H659 H 0.19978 0.93391 0.36257
 H660 H 0.17188 0.88727 0.40053
 H661 H 0.26602 0.84593 0.42055
 H662 H 0.29434 0.89257 0.38225
 H663 H 0.25710 0.96722 0.44712
 H664 H 0.22661 0.92252 0.48373
 C665 C 0.06424 0.39122 0.75062
 C666 C 0.07474 0.37839 0.78769
 C667 C 0.09983 0.39829 0.80354
 C668 C 0.11257 0.42947 0.78118
 C669 C 0.12464 0.41265 0.74617
 C670 C 0.09940 0.39241 0.73010
 C671 C 0.05484 0.43054 0.75524
 C672 C 0.07942 0.44993 0.77173
 H673 H 0.06390 0.35496 0.80009
 H674 H 0.11028 0.39188 0.82933
 H675 H 0.15066 0.41602 0.73517
 H676 H 0.10462 0.37902 0.70540
 H677 H 0.03064 0.44238 0.74621
 H678 H 0.07522 0.47754 0.77808
 C679 C 0.06611 0.61600 0.24951
 C680 C 0.10357 0.62920 0.25860
 C681 C 0.12983 0.60925 0.24331
 C682 C 0.11607 0.57827 0.22075
 C683 C 0.09265 0.55768 0.24603
 C684 C 0.06672 0.57694 0.26071
 C685 C 0.06588 0.61585 0.20899
 C686 C 0.09138 0.59609 0.19418
 H687 H 0.10935 0.65223 0.27456
 H688 H 0.15739 0.61523 0.24661
 H689 H 0.09904 0.53163 0.25580
 H690 H 0.05026 0.56619 0.28148
 H691 H 0.04818 0.63164 0.19316
 H692 H 0.09515 0.59537 0.16580
 C693 C 0.94160 0.39327 0.25618
 C694 C 0.94012 0.39043 0.21578
 C695 C 0.91405 0.40912 0.20087
 C696 C 0.89059 0.42895 0.22731
 C697 C 0.87765 0.39981 0.25250
 C698 C 0.90448 0.38088 0.26781
 C699 C 0.94171 0.43297 0.26467
 C700 C 0.91512 0.45121 0.25004
 H701 H 0.95704 0.37337 0.20022
 H702 H 0.90903 0.40770 0.17274
 H703 H 0.85024 0.39396 0.25717
 H704 H 0.89928 0.35865 0.28500
 H705 H 0.95910 0.44505 0.28385
 H706 H 0.90905 0.47784 0.25846
 C707 C 0.92951 0.59143 0.73517
 C708 C 0.92551 0.55182 0.72705
 C709 C 0.90041 0.53536 0.74622
 C710 C 0.88115 0.55931 0.77245
 C711 C 0.90981 0.57732 0.79446
 C712 C 0.93439 0.59408 0.77534
 C713 C 0.89205 0.60639 0.72958
 C714 C 0.86666 0.58940 0.74930
 H715 H 0.93943 0.53843 0.70591
 H716 H 0.89240 0.50848 0.74047
 H717 H 0.90954 0.57917 0.82303
 H718 H 0.95475 0.60966 0.78791
 H719 H 0.88566 0.62818 0.71228
 H720 H 0.83925 0.59675 0.74854
 C721 C 0.73261 0.58941 0.93978
 C722 C 0.72651 0.60477 0.90238
 C723 C 0.74555 0.58800 0.87629
 C724 C 0.76864 0.55765 0.89009
 C725 C 0.79102 0.57519 0.91890
 C726 C 0.77246 0.59170 0.94424
 C727 C 0.72439 0.54992 0.93560
 C728 C 0.74289 0.53359 0.90972
 H729 H 0.70924 0.62670 0.89663
 H730 H 0.74432 0.59565 0.84877
 H731 H 0.81938 0.57672 0.91835
 H732 H 0.78522 0.60677 0.96496
 H733 H 0.70379 0.53651 0.95011
 H734 H 0.73714 0.50671 0.90163
 C735 C 0.26627 0.40745 0.93761
 C736 C 0.26696 0.38879 0.90108
 C737 C 0.24702 0.40548 0.87586
 C738 C 0.22854 0.43910 0.88936
 C739 C 0.20765 0.42640 0.92166
 C740 C 0.22699 0.40984 0.94624
 C741 C 0.27781 0.44550 0.92919
 C742 C 0.25831 0.46177 0.90419
 H743 H 0.28174 0.36517 0.89490
 H744 H 0.24495 0.39589 0.84897
 H745 H 0.17941 0.42811 0.92423
 H746 H 0.21497 0.39788 0.96928
 H747 H 0.30091 0.45785 0.94040
 H748 H 0.26543 0.48744 0.89372
 C749 C 0.25483 0.61194 0.06063
 C750 C 0.24955 0.57261 0.05186
 C751 C 0.23325 0.55396 0.07725
 C752 C 0.22449 0.57532 0.11042
 C753 C 0.25960 0.59187 0.12173
 C754 C 0.27555 0.61125 0.09563
 C755 C 0.21836 0.62559 0.07137
 C756 C 0.20260 0.60655 0.09728
 H757 H 0.25788 0.56028 0.02740
 H758 H 0.22644 0.52639 0.07357
 H759 H 0.27079 0.58887 0.14781
 H760 H 0.30033 0.62442 0.09996
 H761 H 0.20631 0.64889 0.06001
 H762 H 0.17716 0.61355 0.10798
 C763 C 0.74953 0.38816 0.07123
 C764 C 0.75395 0.42725 0.06117
 C765 C 0.77039 0.44707 0.08554
 C766 C 0.78020 0.42703 0.11905
 C767 C 0.74563 0.41028 0.13180
 C768 C 0.72951 0.38969 0.10674
 C769 C 0.78640 0.37546 0.08146
 C770 C 0.80235 0.39570 0.10632
 H771 H 0.74455 0.43866 0.03679
 H772 H 0.77629 0.47471 0.08100
 H773 H 0.73507 0.41379 0.15815
 H774 H 0.70530 0.37586 0.11225
 H775 H 0.79857 0.35191 0.07062
 H776 H 0.82808 0.38945 0.11663
 C777 C 0.93015 0.73735 0.59728
 C778 C 0.93686 0.77736 0.59726
 C779 C 0.91259 0.79647 0.58001
 C780 C 0.88257 0.77447 0.56422
 C781 C 0.90030 0.74619 0.54143
 C782 C 0.92502 0.72709 0.55842
 C783 C 0.89295 0.73402 0.61339
 C784 C 0.86797 0.75366 0.59596
 H785 H 0.95834 0.78988 0.61121
 H786 H 0.91371 0.82513 0.57975
 H787 H 0.89180 0.73944 0.51500
 H788 H 0.93810 0.70486 0.54597
 H789 H 0.88654 0.71809 0.63621
 H790 H 0.84071 0.75427 0.60397
 C791 C 0.94025 0.25121 0.38885
 C792 C 0.93817 0.26312 0.42754
 C793 C 0.91190 0.24827 0.44616
 C794 C 0.88981 0.22200 0.42525
 C795 C 0.87657 0.24369 0.39357
 C796 C 0.90316 0.25925 0.37434
 C797 C 0.94159 0.21072 0.38964
 C798 C 0.91579 0.19562 0.40869
 H799 H 0.95401 0.28431 0.43845
 H800 H 0.90456 0.25813 0.47196
 H801 H 0.84916 0.24633 0.38672
 H802 H 0.89800 0.27484 0.35100
 H803 H 0.96028 0.19507 0.37471
 H804 H 0.91274 0.16711 0.40960
 C805 C 0.06962 0.25100 0.61237
 C806 C 0.07253 0.26186 0.57349
 C807 C 0.09881 0.24605 0.55568
 C808 C 0.12012 0.21994 0.57748
 C809 C 0.13332 0.24229 0.60880
 C810 C 0.10667 0.25883 0.62727
 C811 C 0.06755 0.21059 0.61252
 C812 C 0.09338 0.19453 0.59438
 H813 H 0.05734 0.28310 0.56189
 H814 H 0.10684 0.25513 0.52983
 H815 H 0.16069 0.24480 0.61588
 H816 H 0.11176 0.27523 0.65014
 H817 H 0.04833 0.19569 0.62751
 H818 H 0.09597 0.16596 0.59444
 C819 C 0.06351 0.74898 0.39446
 C820 C 0.07505 0.78621 0.38275
 C821 C 0.10020 0.80101 0.40331
 C822 C 0.11187 0.77750 0.43395
 C823 C 0.07820 0.76831 0.45374
 C824 C 0.05360 0.75275 0.43370
 C825 C 0.09810 0.72760 0.39552
 C826 C 0.12338 0.74262 0.41640
 H827 H 0.06485 0.79948 0.35961
 H828 H 0.11135 0.82680 0.39776
 H829 H 0.07348 0.77455 0.48124
 H830 H 0.02895 0.74409 0.44497
 H831 H 0.10285 0.70296 0.38180
 H832 H 0.14901 0.73084 0.41991
 C833 C 0.61713 0.94160 0.75236
 C834 C 0.61879 0.90575 0.73240
 C835 C 0.60000 0.87923 0.74827
 C836 C 0.58153 0.89079 0.78248
 C837 C 0.61077 0.90613 0.80562
 C838 C 0.62926 0.93262 0.78998
 C839 C 0.57750 0.94848 0.75558
 C840 C 0.55945 0.92270 0.77186
 H841 H 0.63241 0.90119 0.70775
 H842 H 0.59833 0.85276 0.73735
 H843 H 0.61685 0.89651 0.83183
 H844 H 0.65112 0.94551 0.80294
 H845 H 0.56443 0.97191 0.74578
 H846 H 0.53173 0.92527 0.77740
 C847 C 0.38480 0.93517 0.24971
 C848 C 0.37536 0.92681 0.21110
 C849 C 0.39576 0.90159 0.19588
 C850 C 0.42398 0.88670 0.22039
 C851 C 0.44425 0.91891 0.23341
 C852 C 0.42433 0.94348 0.24936
 C853 C 0.38299 0.89884 0.26843
 C854 C 0.40369 0.87347 0.25299
 H855 H 0.35379 0.93913 0.19719
 H856 H 0.39163 0.89247 0.16906
 H857 H 0.47213 0.92260 0.22975
 H858 H 0.43591 0.96698 0.26088
 H859 H 0.36760 0.89314 0.29175
 H860 H 0.40540 0.84671 0.26304
 C861 C 0.59052 0.06441 0.26823
 C862 C 0.58944 0.05665 0.22844
 C863 C 0.57302 0.08138 0.20908
 C864 C 0.55903 0.11292 0.23052
 C865 C 0.53614 0.09675 0.25955
 C866 C 0.55233 0.07164 0.27906
 C867 C 0.60799 0.10149 0.27027
 C868 C 0.59138 0.12683 0.25033
 H869 H 0.60212 0.03407 0.21615
 H870 H 0.57219 0.07945 0.18054
 H871 H 0.51014 0.10626 0.26609
 H872 H 0.53972 0.05946 0.30167
 H873 H 0.63061 0.10799 0.28612
 H874 H 0.60012 0.15408 0.24925
 C875 C 0.40854 0.06395 0.73534
 C876 C 0.40986 0.05672 0.77513
 C877 C 0.42550 0.08227 0.79420
 C878 C 0.43847 0.11387 0.77230
 C879 C 0.46186 0.09803 0.74348
 C880 C 0.44644 0.07210 0.72438
 C881 C 0.38984 0.10020 0.73283
 C882 C 0.40565 0.12642 0.75239
 H883 H 0.39796 0.03383 0.78756
 H884 H 0.42650 0.08085 0.82276
 H885 H 0.48759 0.10820 0.73685
 H886 H 0.45938 0.05982 0.70198
 H887 H 0.36664 0.10523 0.71729
 H888 H 0.39584 0.15330 0.75342
 C889 C 0.59581 0.73389 0.06920
 C890 C 0.60998 0.72712 0.10690
 C891 C 0.59282 0.74620 0.13278
 C892 C 0.56334 0.76994 0.11839
 C893 C 0.58167 0.79276 0.09040
 C894 C 0.59859 0.77419 0.06531
 C895 C 0.55656 0.72587 0.07224
 C896 C 0.53989 0.74432 0.09790
 H897 H 0.63146 0.70949 0.11293
 H898 H 0.59968 0.74463 0.16046
 H899 H 0.58341 0.82138 0.09144
 H900 H 0.61426 0.78719 0.04522
 H901 H 0.54356 0.70518 0.05734
 H902 H 0.51317 0.73832 0.10549
 C903 C 0.38774 0.25012 0.06291
 C904 C 0.37703 0.21176 0.07089
 C905 C 0.39653 0.19596 0.09636
 C906 C 0.42530 0.21972 0.11177
 C907 C 0.44645 0.23221 0.07989
 C908 C 0.42726 0.24850 0.05500
 C909 C 0.38598 0.26891 0.09918
 C910 C 0.40580 0.25294 0.12475
 H911 H 0.35533 0.19845 0.05810
 H912 H 0.39147 0.16919 0.10523
 H913 H 0.47440 0.22837 0.07690
 H914 H 0.43939 0.25970 0.03171
 H915 H 0.37095 0.29254 0.10470
 H916 H 0.40727 0.26294 0.15153
 C917 C 0.59190 0.27007 0.94122
 C918 C 0.55386 0.28077 0.93395
 C919 C 0.53831 0.26192 0.90783
 C920 C 0.56169 0.23344 0.89119
 C921 C 0.59421 0.25389 0.87853
 C922 C 0.61016 0.27324 0.90475
 C923 C 0.59092 0.23003 0.94772
 C924 C 0.57515 0.21117 0.92217
 H925 H 0.54099 0.30293 0.94674
 H926 H 0.51260 0.26873 0.89790
 H927 H 0.60382 0.25324 0.85160
 H928 H 0.63335 0.28887 0.89959
 H929 H 0.60333 0.21722 0.97002
 H930 H 0.57453 0.18251 0.92311
 C931 C 0.39918 0.74856 0.93092
 C932 C 0.40049 0.72807 0.89557
 C933 C 0.42121 0.74393 0.87036
 C934 C 0.43820 0.77875 0.88289
 C935 C 0.40738 0.80153 0.89545
 C936 C 0.38717 0.78588 0.92044
 C937 C 0.43799 0.75242 0.94089
 C938 C 0.45779 0.76878 0.91652
 H939 H 0.38687 0.70345 0.89058
 H940 H 0.42489 0.73290 0.84419
 H941 H 0.40145 0.82749 0.88492
 H942 H 0.36399 0.79856 0.93117
 H943 H 0.44918 0.74298 0.96536
 H944 H 0.48509 0.77481 0.92127
 C945 C 0.74933 0.93985 0.38727
 C946 C 0.73031 0.90374 0.38697
 C947 C 0.74632 0.87851 0.40721
 C948 C 0.77982 0.89162 0.42562
 C949 C 0.80287 0.90591 0.39566
 C950 C 0.78700 0.93109 0.37570
 C951 C 0.75198 0.94884 0.42679
 C952 C 0.76841 0.92431 0.44632
 H953 H 0.70657 0.89801 0.37253
 H954 H 0.73622 0.85182 0.40960
 H955 H 0.82918 0.89657 0.39021
 H956 H 0.79980 0.94318 0.35317
 H957 H 0.74165 0.97273 0.43864
 H958 H 0.77358 0.92839 0.47412
 C959 C 0.26485 0.93131 0.60174
 C960 C 0.22517 0.93733 0.60316
 C961 C 0.20609 0.91180 0.58756
 C962 C 0.22787 0.88139 0.57184
 C963 C 0.25465 0.89890 0.54740
 C964 C 0.27367 0.92483 0.56274
 C965 C 0.26953 0.89444 0.61896
 C966 C 0.24994 0.86817 0.60314
 H967 H 0.21290 0.95925 0.61696
 H968 H 0.17770 0.91223 0.58859
 H969 H 0.26058 0.88934 0.52108
 H970 H 0.29501 0.93789 0.54902
 H971 H 0.28633 0.88916 0.64129
 H972 H 0.25019 0.84095 0.61202
 C973 C 0.24768 0.06166 0.39213
 C974 C 0.21046 0.07192 0.38079
 C975 C 0.19595 0.09829 0.40039
 C976 C 0.21973 0.11203 0.42999
 C977 C 0.22968 0.07914 0.45100
 C978 C 0.24494 0.05357 0.43179
 C979 C 0.26843 0.09682 0.39115
 C980 C 0.25374 0.12323 0.41121
 H981 H 0.19700 0.05999 0.35859
 H982 H 0.17012 0.10884 0.39493
 H983 H 0.22396 0.07556 0.47876
 H984 H 0.25405 0.02939 0.44398
 H985 H 0.29269 0.10075 0.37685
 H986 H 0.26525 0.14934 0.41347
 C987 C 0.73607 0.06878 0.59507
 C988 C 0.73463 0.10550 0.61328
 C989 C 0.75451 0.13093 0.59661
 C990 C 0.77368 0.11724 0.56349
 C991 C 0.79472 0.08530 0.57684
 C992 C 0.77534 0.06054 0.59326
 C993 C 0.72502 0.07646 0.55692
 C994 C 0.74445 0.10162 0.54066
 H995 H 0.71939 0.11144 0.63667
 H996 H 0.75616 0.15800 0.60592
 H997 H 0.82302 0.08312 0.57556
 H998 H 0.78728 0.03761 0.60549
 H999 H 0.70237 0.06453 0.54444
 H1000 H 0.73780 0.11150 0.51470
 C1001 C 0.93958 0.60439 0.25699
 C1002 C 0.92764 0.61872 0.22099
 C1003 C 0.90186 0.59955 0.20542
 C1004 C 0.89016 0.56738 0.22690
 C1005 C 0.92387 0.54675 0.23383
 C1006 C 0.94895 0.56539 0.25036
 C1007 C 0.90551 0.60224 0.27896
 C1008 C 0.87959 0.58260 0.26317
 H1009 H 0.93811 0.64258 0.20914
 H1010 H 0.89040 0.60699 0.18035
 H1011 H 0.92870 0.52022 0.22430
 H1012 H 0.97392 0.55350 0.25706
 H1013 H 0.90195 0.61420 0.30470
 H1014 H 0.85421 0.57836 0.27532
 C1015 C 0.93841 0.38607 0.75463
 C1016 C 0.90292 0.38398 0.73519
 C1017 C 0.87697 0.40372 0.75076
 C1018 C 0.88890 0.42342 0.78426
 C1019 C 0.90396 0.39446 0.80811
 C1020 C 0.92980 0.37507 0.79270
 C1021 C 0.94577 0.42604 0.75652
 C1022 C 0.92061 0.44507 0.77257
 H1023 H 0.89831 0.36894 0.71132
 H1024 H 0.85063 0.40508 0.74025
 H1025 H 0.89462 0.38923 0.83464
 H1026 H 0.94249 0.35326 0.80611
 H1027 H 0.96914 0.43855 0.74615
 H1028 H 0.92368 0.47311 0.77747
 C1029 C 0.05645 0.59539 0.73931
 C1030 C 0.09229 0.61449 0.73679
 C1031 C 0.11852 0.59813 0.75550
 C1032 C 0.10649 0.56437 0.77468
 C1033 C 0.07535 0.57666 0.79740
 C1034 C 0.04976 0.59291 0.77917
 C1035 C 0.06451 0.55746 0.72725
 C1036 C 0.09056 0.54151 0.74546
 H1037 H 0.09704 0.63852 0.72209
 H1038 H 0.14507 0.60824 0.75651
 H1039 H 0.07421 0.57476 0.82593
 H1040 H 0.02718 0.60444 0.79229
 H1041 H 0.05215 0.54497 0.70470
 H1042 H 0.10081 0.51590 0.73777
 C1043 C 0.06899 0.39910 0.25549
 C1044 C 0.10452 0.39902 0.27491
 C1045 C 0.12997 0.41887 0.25842
 C1046 C 0.11751 0.43651 0.22398
 C1047 C 0.10328 0.40588 0.20163
 C1048 C 0.07797 0.38657 0.21792
 C1049 C 0.06058 0.43875 0.25188
 C1050 C 0.08510 0.45761 0.23470
 H1051 H 0.10932 0.38533 0.29950
 H1052 H 0.15624 0.42163 0.26882
 H1053 H 0.11279 0.39948 0.17539
 H1054 H 0.06598 0.36372 0.20552
 H1055 H 0.03661 0.45103 0.26128
 H1056 H 0.08072 0.48487 0.22753
   
