data_POSCAR
  _audit_creation_date              2014-09-24
  _audit_creation_method            'ToBaCCo'
  _symmetry_space_group_name_H-M    'P1'
  _symmetry_Int_Tables_number       1
  _symmetry_cell_setting            triclinic
  loop_
  _symmetry_equiv_pos_as_xyz
 x,y,z
_cell_length_a 42.3317
_cell_length_b 25.6236
_cell_length_c 15.0290
_cell_angle_alpha 90.029600
_cell_angle_beta 89.885100
_cell_angle_gamma 90.201600
loop_
  _atom_site_label
  _atom_site_type_symbol
  _atom_site_fract_x
  _atom_site_fract_y
  _atom_site_fract_z
C1 C 0.74909 0.24773 0.45602
 C2 C 0.74904 0.24856 0.54647
 C3 C 0.72272 0.27211 0.59785
 C4 C 0.77540 0.22559 0.59786
 C5 C 0.77463 0.22202 0.40539
 C6 C 0.72393 0.27295 0.40368
 C7 C 0.72891 0.31211 0.65900
 C8 C 0.70426 0.33539 0.70646
 C9 C 0.67264 0.31904 0.69402
 C10 C 0.66685 0.27772 0.63375
 C11 C 0.69160 0.25443 0.58692
 C12 C 0.80626 0.24499 0.58864
 C13 C 0.83125 0.22135 0.63351
 C14 C 0.82579 0.17827 0.68953
 C15 C 0.79463 0.16006 0.70083
 C16 C 0.76967 0.18361 0.65544
 C17 C 0.77613 0.16746 0.40044
 C18 C 0.80106 0.14338 0.35531
 C19 C 0.82516 0.17361 0.31636
 C20 C 0.82345 0.22828 0.32125
 C21 C 0.79810 0.25230 0.36429
 C22 C 0.70144 0.24225 0.35944
 C23 C 0.67675 0.26582 0.31307
 C24 C 0.67478 0.32045 0.30801
 C25 C 0.69791 0.35110 0.35032
 C26 C 0.72214 0.32748 0.39867
 H27 H 0.75286 0.32590 0.66900
 H28 H 0.71017 0.36662 0.75217
 H29 H 0.64318 0.26307 0.62218
 H30 H 0.68645 0.22249 0.54199
 H31 H 0.81099 0.27822 0.54614
 H32 H 0.85486 0.23679 0.62405
 H33 H 0.74594 0.16840 0.66375
 H34 H 0.75811 0.14367 0.43196
 H35 H 0.80191 0.10117 0.35263
 H36 H 0.84161 0.25242 0.29118
 H37 H 0.79718 0.29450 0.36769
 H38 H 0.70263 0.20007 0.36269
 H39 H 0.65932 0.24137 0.28057
 H40 H 0.69682 0.39329 0.34770
 H41 H 0.73946 0.35159 0.43236
 H42 H 0.78956 0.12713 0.74371
 C43 C 0.24938 0.74673 0.45232
 C44 C 0.24959 0.74706 0.54275
 C45 C 0.22348 0.77062 0.59473
 C46 C 0.27596 0.72360 0.59358
 C47 C 0.27472 0.72111 0.40090
 C48 C 0.22407 0.77227 0.40090
 C49 C 0.22981 0.81140 0.65437
 C50 C 0.20525 0.83476 0.70208
 C51 C 0.17390 0.81750 0.69127
 C52 C 0.16781 0.77571 0.63292
 C53 C 0.19240 0.75232 0.58556
 C54 C 0.30690 0.74256 0.58401
 C55 C 0.33182 0.71876 0.62901
 C56 C 0.32621 0.67595 0.68553
 C57 C 0.29499 0.65809 0.69699
 C58 C 0.27010 0.68180 0.65148
 C59 C 0.27621 0.66656 0.39582
 C60 C 0.30113 0.64252 0.35068
 C61 C 0.32524 0.67279 0.31186
 C62 C 0.32350 0.72745 0.31667
 C63 C 0.29815 0.75144 0.35973
 C64 C 0.20108 0.74187 0.35815
 C65 C 0.17632 0.76575 0.31249
 C66 C 0.17475 0.82041 0.30667
 C67 C 0.19835 0.85073 0.34760
 C68 C 0.22266 0.82681 0.39523
 H69 H 0.25373 0.82570 0.66283
 H70 H 0.21082 0.86669 0.74664
 H71 H 0.14403 0.76106 0.62357
 H72 H 0.18717 0.71993 0.54163
 H73 H 0.31175 0.77567 0.54134
 H74 H 0.35548 0.73394 0.61936
 H75 H 0.24630 0.66693 0.66013
 H76 H 0.25822 0.64275 0.42743
 H77 H 0.30201 0.60031 0.34805
 H78 H 0.34167 0.75160 0.28667
 H79 H 0.29724 0.79363 0.36329
 H80 H 0.20196 0.69968 0.36190
 H81 H 0.15854 0.74151 0.28109
 H82 H 0.19759 0.89293 0.34442
 H83 H 0.24036 0.85070 0.42779
 H84 H 0.28979 0.62538 0.74023
 C85 C 0.24884 0.25302 -0.45610
 C86 C 0.24914 0.25314 -0.54652
 C87 C 0.27569 0.27660 -0.59733
 C88 C 0.22318 0.22927 -0.59855
 C89 C 0.22314 0.22787 -0.40498
 C90 C 0.27428 0.27817 -0.40429
 C91 C 0.27008 0.31811 -0.65576
 C92 C 0.29512 0.34174 -0.70149
 C93 C 0.32640 0.32427 -0.68965
 C94 C 0.33165 0.28157 -0.63240
 C95 C 0.30654 0.25777 -0.58756
 C96 C 0.19275 0.25050 -0.59628
 C97 C 0.16815 0.22691 -0.64338
 C98 C 0.17360 0.18201 -0.69549
 C99 C 0.20459 0.16205 -0.69989
 C100 C 0.22907 0.18549 -0.65180
 C101 C 0.22514 0.17515 -0.38142
 C102 C 0.20085 0.15152 -0.33259
 C103 C 0.17366 0.17996 -0.30836
 C104 C 0.17201 0.23308 -0.33239
 C105 C 0.19679 0.25694 -0.37865
 C106 C 0.29791 0.24768 -0.36526
 C107 C 0.32326 0.27150 -0.32169
 C108 C 0.32481 0.32610 -0.31425
 C109 C 0.30051 0.35646 -0.35093
 C110 C 0.27557 0.33264 -0.39652
 H111 H 0.24634 0.33281 -0.66476
 H112 H 0.28987 0.37417 -0.74516
 H113 H 0.35517 0.26627 -0.62199
 H114 H 0.31120 0.22469 -0.54484
 H115 H 0.18803 0.28542 -0.55805
 H116 H 0.14488 0.24415 -0.63885
 H117 H 0.25258 0.16904 -0.65515
 H118 H 0.24551 0.15235 -0.40088
 H119 H 0.20317 0.11063 -0.31569
 H120 H 0.15178 0.25665 -0.31449
 H121 H 0.19523 0.29800 -0.39517
 H122 H 0.29720 0.20556 -0.37089
 H123 H 0.34157 0.24724 -0.29341
 H124 H 0.30122 0.39862 -0.34627
 H125 H 0.25742 0.35657 -0.42641
 H126 H 0.20998 0.12786 -0.73941
 C127 C -0.25110 0.75306 -0.45610
 C128 C -0.25082 0.75269 -0.54651
 C129 C -0.22429 0.77601 -0.59747
 C130 C -0.27678 0.72854 -0.59834
 C131 C -0.27668 0.72787 -0.40472
 C132 C -0.22569 0.77853 -0.40452
 C133 C -0.22990 0.81753 -0.65584
 C134 C -0.20485 0.84127 -0.70129
 C135 C -0.17357 0.82387 -0.68918
 C136 C -0.16832 0.78111 -0.63210
 C137 C -0.19345 0.75721 -0.58753
 C138 C -0.30729 0.74947 -0.59580
 C139 C -0.33184 0.72578 -0.64302
 C140 C -0.32627 0.68108 -0.69554
 C141 C -0.29523 0.66138 -0.70008
 C142 C -0.27079 0.68492 -0.65191
 C143 C -0.27465 0.67510 -0.38159
 C144 C -0.29890 0.65134 -0.33285
 C145 C -0.32608 0.67971 -0.30837
 C146 C -0.32775 0.73291 -0.33188
 C147 C -0.30299 0.75690 -0.37803
 C148 C -0.20202 0.74828 -0.36516
 C149 C -0.17681 0.77233 -0.32129
 C150 C -0.17544 0.82695 -0.31386
 C151 C -0.19977 0.85708 -0.35096
 C152 C -0.22456 0.83302 -0.39686
 H153 H -0.25365 0.83221 -0.66490
 H154 H -0.21009 0.87374 -0.74487
 H155 H -0.14480 0.76587 -0.62153
 H156 H -0.18881 0.72414 -0.54478
 H157 H -0.31210 0.78428 -0.55738
 H158 H -0.35515 0.74283 -0.63832
 H159 H -0.24722 0.66869 -0.65549
 H160 H -0.25429 0.65235 -0.40137
 H161 H -0.29657 0.61040 -0.31632
 H162 H -0.34798 0.75642 -0.31374
 H163 H -0.30457 0.79798 -0.39432
 H164 H -0.20261 0.70614 -0.37062
 H165 H -0.15848 0.74823 -0.29272
 H166 H -0.19919 0.89925 -0.34634
 H167 H -0.24275 0.85678 -0.42696
 H168 H -0.28974 0.62734 -0.73988
 O169 O -0.04392 0.90894 0.16227
 O170 O -0.07869 0.95651 0.07821
 C171 C -0.07227 0.92253 0.13935
 O172 O 0.04509 1.09625 0.15328
 O173 O 0.07981 1.04541 0.07409
 C174 C 0.07344 1.08206 0.13088
 O175 O -0.04339 1.09196 0.16349
 O176 O -0.07833 1.04386 0.08015
 C177 C -0.07179 1.07782 0.14136
 O178 O 0.04456 0.90426 0.15298
 O179 O 0.07941 0.95549 0.07457
 C180 C 0.07295 0.91876 0.13107
 Zr181 Zr 0.00032 0.93460 0.11234
 O182 O 0.00397 0.93602 0.25284
 O183 O -0.00342 0.85220 0.11374
 Zr184 Zr 0.00069 1.06654 0.11231
 O185 O 0.00389 1.06819 0.25283
 O186 O -0.00056 1.14885 0.10410
 O187 O -0.02771 1.00057 0.13010
 O188 O 0.02794 1.00053 0.12857
 O189 O 0.04446 0.90518 -0.15462
 O190 O 0.07950 0.95516 -0.07470
 C191 C 0.07290 0.91890 -0.13206
 O192 O -0.04359 1.09229 -0.16101
 O193 O -0.07855 1.04472 -0.07642
 C194 C -0.07201 1.07871 -0.13768
 O195 O 0.04488 1.09748 -0.15173
 O196 O 0.07959 1.04518 -0.07581
 C197 C 0.07323 1.08245 -0.13122
 O198 O -0.04397 0.90896 -0.16182
 O199 O -0.07862 0.95724 -0.07811
 C200 C -0.07228 0.92313 -0.13922
 Zr201 Zr 0.00025 0.93475 -0.11229
 O202 O 0.00362 0.93591 -0.25287
 O203 O -0.00334 0.85231 -0.11305
 Zr204 Zr 0.00055 1.06655 -0.11176
 O205 O 0.00415 1.06527 -0.25230
 O206 O -0.00220 1.14898 -0.11260
 Zr207 Zr -0.04687 1.00059 0.00063
 Zr208 Zr 0.04750 1.00043 -0.00019
 O209 O 0.02787 1.00066 -0.12869
 O210 O -0.02788 1.00071 -0.12927
 O211 O 0.02845 0.92430 -0.00025
 O212 O -0.02702 1.07600 0.00068
 O213 O -0.02725 0.92520 0.00021
 O214 O 0.02890 1.07654 0.00014
 H215 H 0.04222 1.00057 0.18074
 H216 H -0.04115 1.10674 0.00107
 H217 H 0.04218 1.00078 -0.18095
 H218 H -0.04149 0.89442 0.00012
 H219 H -0.00018 1.16182 0.16622
 H220 H 0.01136 1.16181 -0.06363
 H221 H -0.01432 1.04581 -0.27537
 H222 H -0.01446 0.95624 -0.27559
 H223 H 0.01419 0.83855 -0.07666
 H224 H 0.01335 0.83839 0.07444
 H225 H -0.01451 0.95522 0.27616
 H226 H -0.01260 1.04443 0.27624
 O227 O 0.45606 0.40840 0.16036
 O228 O 0.42138 0.45600 0.07587
 C229 C 0.42772 0.42206 0.13721
 O230 O 0.54541 0.59531 0.15168
 O231 O 0.58020 0.54448 0.07275
 C232 C 0.57378 0.58114 0.12949
 O233 O 0.45697 0.59106 0.16136
 O234 O 0.42216 0.54281 0.07792
 C235 C 0.42862 0.57687 0.13902
 O236 O 0.54473 0.40322 0.15221
 O237 O 0.57966 0.45447 0.07406
 C238 C 0.57314 0.41778 0.13057
 Zr239 Zr 0.50058 0.43361 0.11118
 O240 O 0.50409 0.43533 0.25170
 O241 O 0.49680 0.35123 0.11343
 Zr242 Zr 0.50105 0.56556 0.11046
 O243 O 0.50414 0.56749 0.25098
 O244 O 0.49982 0.64785 0.10175
 O245 O 0.47262 0.49963 0.12846
 O246 O 0.52825 0.49956 0.12715
 O247 O 0.54508 0.40381 -0.15563
 O248 O 0.58001 0.45395 -0.07571
 C249 C 0.57349 0.41763 -0.13302
 O250 O 0.45659 0.59048 -0.16277
 O251 O 0.42164 0.54289 -0.07805
 C252 C 0.42816 0.57681 -0.13948
 O253 O 0.54516 0.59642 -0.15350
 O254 O 0.57987 0.54433 -0.07725
 C255 C 0.57349 0.58154 -0.13273
 O256 O 0.45666 0.40749 -0.16338
 O257 O 0.42202 0.45586 -0.07988
 C258 C 0.42835 0.42171 -0.14087
 Zr259 Zr 0.50082 0.43338 -0.11355
 O260 O 0.50430 0.43418 -0.25411
 O261 O 0.49726 0.35094 -0.11361
 Zr262 Zr 0.50092 0.56525 -0.11369
 O263 O 0.50460 0.56365 -0.25421
 O264 O 0.49804 0.64765 -0.11529
 Zr265 Zr 0.45367 0.49939 -0.00119
 Zr266 Zr 0.54795 0.49931 -0.00151
 O267 O 0.52836 0.49936 -0.13010
 O268 O 0.47264 0.49927 -0.13105
 O269 O 0.52888 0.42317 -0.00120
 O270 O 0.47338 0.57486 -0.00135
 O271 O 0.47320 0.42396 -0.00116
 O272 O 0.52926 0.57540 -0.00169
 H273 H 0.54247 0.49970 0.17943
 H274 H 0.45920 0.60554 -0.00120
 H275 H 0.54271 0.49945 -0.18228
 H276 H 0.45892 0.39324 -0.00117
 H277 H 0.50016 0.66095 0.16380
 H278 H 0.51135 0.66065 -0.06593
 H279 H 0.48601 0.54451 -0.27728
 H280 H 0.48639 0.45486 -0.27702
 H281 H 0.51489 0.33727 -0.07751
 H282 H 0.51336 0.33731 0.07356
 H283 H 0.48543 0.45416 0.27481
 H284 H 0.48780 0.54346 0.27438
 N285 N 0.38208 0.33346 0.28124
 C286 C 0.35183 0.34890 0.26649
 N287 N 0.34685 0.38894 0.20882
 N288 N 0.37097 0.41228 0.16764
 C289 C 0.40108 0.39671 0.18282
 N290 N 0.40619 0.35690 0.24041
 N291 N -0.11787 0.83340 0.28245
 C292 C -0.14813 0.84872 0.26746
 N293 N -0.15311 0.88888 0.21005
 N294 N -0.12899 0.91244 0.16933
 C295 C -0.09886 0.89699 0.18472
 N296 N -0.09374 0.85706 0.24206
 N297 N 0.61862 0.67387 0.26739
 C298 C 0.64878 0.65653 0.25853
 N299 N 0.65408 0.61443 0.20534
 N300 N 0.63032 0.59074 0.16332
 C301 C 0.60025 0.60806 0.17305
 N302 N 0.59485 0.65007 0.22580
 N303 N 0.15380 1.11522 0.20602
 C304 C 0.14860 1.15748 0.25889
 N305 N 0.11846 1.17497 0.26782
 N306 N 0.09464 1.15114 0.22658
 C307 C 0.09994 1.10896 0.17415
 N308 N 0.12998 1.09151 0.16434
 N309 N 0.61807 0.32748 -0.27604
 C310 C 0.64853 0.34251 -0.26210
 N311 N 0.65398 0.38222 -0.20376
 N312 N 0.63020 0.40584 -0.16194
 C313 C 0.59990 0.39079 -0.17674
 N314 N 0.59429 0.35113 -0.23445
 N315 N 0.11719 0.82919 -0.27641
 C316 C 0.14763 0.84332 -0.26065
 N317 N 0.15334 0.88222 -0.20119
 N318 N 0.12960 0.90607 -0.15953
 C319 C 0.09922 0.89195 -0.17582
 N320 N 0.09347 0.85303 -0.23492
 N321 N 0.38316 0.66372 -0.28663
 C322 C 0.35280 0.64997 -0.26840
 N323 N 0.34743 0.61169 -0.20759
 N324 N 0.37139 0.58829 -0.16656
 C325 C 0.40169 0.60215 -0.18500
 N326 N 0.40712 0.64028 -0.24581
 N327 N -0.11721 1.16612 -0.28344
 C328 C -0.14753 1.15228 -0.26494
 N329 N -0.15280 1.11378 -0.20447
 N330 N -0.12876 1.09026 -0.16402
 C331 C -0.09851 1.10420 -0.18273
 N332 N -0.09317 1.14256 -0.24318
 N333 N 0.62083 0.68028 -0.25075
 C334 C 0.64889 0.65543 -0.26235
 N335 N 0.65196 0.60628 -0.22941
 N336 N 0.62813 0.58312 -0.18676
 C337 C 0.60009 0.60790 -0.17636
 N338 N 0.59684 0.65686 -0.20927
 N339 N 0.15167 1.10678 -0.22863
 C340 C 0.14862 1.15584 -0.26201
 N341 N 0.12059 1.18078 -0.25042
 N342 N 0.09661 1.15753 -0.20855
 C343 C 0.09985 1.10867 -0.17520
 N344 N 0.12786 1.08379 -0.18561
 N345 N 0.38080 0.32853 -0.27055
 C346 C 0.35183 0.35118 -0.26930
 N347 N 0.34826 0.39734 -0.22607
 N348 N 0.37265 0.41973 -0.18500
 C349 C 0.40161 0.39715 -0.18662
 N350 N 0.40528 0.35123 -0.23037
 N351 N -0.11953 0.82977 -0.26944
 C352 C -0.14854 0.85224 -0.26852
 N353 N -0.15228 0.89835 -0.22522
 N354 N -0.12800 0.92087 -0.18378
 C355 C -0.09898 0.89845 -0.18510
 N356 N -0.09516 0.85259 -0.22891
 N357 N 0.34861 0.60104 0.22515
 C358 C 0.35225 0.64755 0.26731
 N359 N 0.38124 0.67045 0.26772
 N360 N 0.40568 0.64766 0.22772
 C361 C 0.40195 0.60140 0.18498
 N362 N 0.37297 0.57856 0.18421
 N363 N -0.11890 1.17123 0.27134
 C364 C -0.14791 1.14835 0.27135
 N365 N -0.15164 1.10191 0.22898
 N366 N -0.12738 1.07949 0.18748
 C367 C -0.09839 1.10232 0.18782
 N368 N -0.09455 1.14849 0.23078
 N369 N 0.65243 0.39234 0.21977
 C370 C 0.64846 0.34532 0.26001
 N371 N 0.61964 0.32193 0.25638
 N372 N 0.59564 0.34490 0.21488
 C373 C 0.59968 0.39181 0.17446
 N374 N 0.62854 0.41502 0.17736
 N375 N 0.11944 0.82255 0.25627
 C376 C 0.14837 0.84561 0.25927
 N377 N 0.15241 0.89257 0.21884
 N378 N 0.12849 0.91549 0.17686
 C379 C 0.09954 0.89258 0.17459
 N380 N 0.09542 0.84575 0.21520
   
