data_POSCAR
  _audit_creation_date              2014-09-24
  _audit_creation_method            'ToBaCCo'
  _symmetry_space_group_name_H-M    'P1'
  _symmetry_Int_Tables_number       1
  _symmetry_cell_setting            triclinic
  loop_
  _symmetry_equiv_pos_as_xyz
 x,y,z
_cell_length_a 24.8782
_cell_length_b 27.2210
_cell_length_c 24.8825
_cell_angle_alpha 90.696600
_cell_angle_beta 91.246700
_cell_angle_gamma 90.206100
loop_
  _atom_site_label
  _atom_site_type_symbol
  _atom_site_fract_x
  _atom_site_fract_y
  _atom_site_fract_z
Si1 Si 1.25258 0.25637 0.24712
 Si2 Si 0.75493 -0.23862 0.25006
 Si3 Si 0.75578 0.25690 -0.24624
 Si4 Si 1.25143 -0.25196 -0.24540
 Si5 Si 0.24549 0.25286 0.75156
 Si6 Si 0.74697 0.74427 0.74717
 Si7 Si 0.74023 0.24208 0.24923
 Si8 Si 0.24053 0.74915 0.24972
 N9 N 1.10027 0.05489 0.05036
 N10 N 1.13927 0.08691 0.05963
 N11 N 1.06350 -0.04415 0.09479
 N12 N 1.07216 -0.07770 0.13171
 N13 N 1.09894 -0.04792 0.05665
 N14 N 1.13259 -0.08434 0.06663
 N15 N 1.06383 0.05823 0.08767
 N16 N 1.07733 0.09235 0.12352
 C17 C 1.12377 0.11063 0.10469
 C18 C 1.11484 -0.10309 0.11332
 N19 N 0.91018 -0.04691 0.05909
 N20 N 0.87071 -0.07533 0.07487
 N21 N 0.94686 0.05877 0.08982
 N22 N 0.93191 0.08975 0.12812
 N23 N 0.90946 0.05585 0.05180
 N24 N 0.86909 0.08521 0.06261
 N25 N 0.94811 -0.04381 0.09655
 N26 N 0.93546 -0.07012 0.13868
 Mn27 Mn 1.00574 0.00749 0.09267
 C28 C 0.88723 -0.08972 0.12434
 C29 C 0.88336 0.10622 0.11019
 N30 N 1.09472 -0.05459 -0.05947
 N31 N 1.12992 -0.08977 -0.06838
 N32 N 1.05724 0.04761 -0.10122
 N33 N 1.06606 0.07925 -0.13971
 N34 N 1.09662 0.04863 -0.06526
 N35 N 1.13352 0.08108 -0.07857
 N36 N 1.05669 -0.05514 -0.09690
 N37 N 1.06506 -0.09037 -0.13247
 Mn38 Mn 1.09832 0.00013 -0.00442
 C39 C 1.11023 -0.11215 -0.11357
 C40 C 1.11386 0.09975 -0.12527
 N41 N 0.90576 0.04850 -0.06253
 N42 N 0.87000 0.08307 -0.07165
 N43 N 0.94151 -0.05486 -0.09586
 N44 N 0.92581 -0.08573 -0.13441
 N45 N 0.90691 -0.05439 -0.05679
 N46 N 0.86721 -0.08536 -0.06758
 N47 N 0.94173 0.04770 -0.10022
 N48 N 0.93126 0.08164 -0.13644
 Mn49 Mn 0.90781 0.00053 -0.00214
 Mn50 Mn 0.99938 -0.00357 -0.09902
 Cl51 Cl 1.00281 0.00115 -0.00313
 C52 C 0.88680 0.10390 -0.11740
 C53 C 0.87937 -0.10463 -0.11615
 N54 N 1.09150 0.55473 0.55360
 N55 N 1.12809 0.58873 0.56484
 N56 N 1.05600 0.45182 0.59212
 N57 N 1.06904 0.42148 0.63140
 N58 N 1.09317 0.45151 0.55549
 N59 N 1.13205 0.42092 0.56846
 N60 N 1.05373 0.55520 0.58958
 N61 N 1.06376 0.58953 0.62639
 C62 C 1.10952 0.61099 0.60956
 C63 C 1.11665 0.40246 0.61585
 N64 N 0.90256 0.44784 0.54885
 N65 N 0.86752 0.41228 0.55771
 N66 N 0.93838 0.55297 0.58519
 N67 N 0.92788 0.58828 0.62014
 N68 N 0.90119 0.55103 0.54703
 N69 N 0.86408 0.58450 0.55560
 N70 N 0.93958 0.44960 0.58730
 N71 N 0.93074 0.41537 0.62313
 Mn72 Mn 0.99683 0.50236 0.58915
 C73 C 0.88620 0.39170 0.60384
 C74 C 0.88171 0.60835 0.60078
 N75 N 1.09518 0.44837 0.44058
 N76 N 1.13041 0.41267 0.43453
 N77 N 1.05787 0.55055 0.40001
 N78 N 1.06851 0.58481 0.36449
 N79 N 1.09397 0.55162 0.43924
 N80 N 1.12986 0.58650 0.43188
 N81 N 1.05862 0.44694 0.40182
 N82 N 1.06794 0.41025 0.36831
 Mn83 Mn 1.09384 0.50150 0.49722
 C84 C 1.11238 0.38865 0.38965
 C85 C 1.11302 0.60738 0.38564
 N86 N 0.90304 0.54853 0.43055
 N87 N 0.86546 0.58046 0.41665
 N88 N 0.94251 0.44507 0.39677
 N89 N 0.93259 0.41060 0.35994
 N90 N 0.90457 0.44554 0.43272
 N91 N 0.86785 0.41172 0.42126
 N92 N 0.94174 0.54850 0.39545
 N93 N 0.93180 0.58063 0.35733
 Mn94 Mn 0.90224 0.49825 0.48979
 Mn95 Mn 1.00022 0.49776 0.39786
 Cl96 Cl 0.99816 0.49987 0.49347
 C97 C 0.88392 0.60016 0.37069
 C98 C 0.88635 0.38971 0.37641
 N99 N 0.59078 0.05245 0.56605
 N100 N 0.62961 0.08370 0.58012
 N101 N 0.55154 -0.04993 0.60216
 N102 N 0.56465 -0.08013 0.64163
 N103 N 0.58827 -0.05090 0.56519
 N104 N 0.62650 -0.08217 0.57770
 N105 N 0.55237 0.05361 0.60128
 N106 N 0.56373 0.08607 0.63974
 C107 C 0.61220 0.10461 0.62633
 C108 C 0.61169 -0.10001 0.62553
 N109 N 0.39736 -0.04904 0.55884
 N110 N 0.35787 -0.07935 0.57127
 N111 N 0.43710 0.05401 0.59626
 N112 N 0.42572 0.08529 0.63507
 N113 N 0.39942 0.05421 0.55838
 N114 N 0.36093 0.08542 0.57123
 N115 N 0.43523 -0.04923 0.59657
 N116 N 0.42268 -0.07978 0.63505
 Mn117 Mn 0.49393 0.00203 0.59939
 C118 C 0.37440 -0.09840 0.61896
 C119 C 0.37821 0.10463 0.61919
 N120 N 0.59068 -0.05276 0.45109
 N121 N 0.62995 -0.08373 0.44150
 N122 N 0.55656 0.04999 0.41105
 N123 N 0.56899 0.08282 0.37465
 N124 N 0.59246 0.05049 0.45052
 N125 N 0.63020 0.08352 0.44222
 N126 N 0.55516 -0.05330 0.41129
 N127 N 0.57025 -0.08416 0.37300
 Mn128 Mn 0.59075 -0.00010 0.50817
 C129 C 0.61703 -0.10302 0.39267
 C130 C 0.61447 0.10389 0.39528
 N131 N 0.40157 0.05238 0.44077
 N132 N 0.36475 0.08473 0.42565
 N133 N 0.43798 -0.05244 0.40645
 N134 N 0.42708 -0.08618 0.36902
 N135 N 0.39950 -0.05092 0.44190
 N136 N 0.36149 -0.08339 0.42931
 N137 N 0.44077 0.05127 0.40622
 N138 N 0.43215 0.08332 0.36778
 Mn139 Mn 0.39885 0.00176 0.49991
 Mn140 Mn 0.49752 -0.00123 0.40823
 Cl141 Cl 0.49511 0.00058 0.50387
 C142 C 0.38442 0.10382 0.37975
 C143 C 0.37964 -0.10562 0.38429
 N144 N 0.59770 0.55592 0.06437
 N145 N 0.63333 0.59139 0.07279
 N146 N 0.55738 0.45533 0.10441
 N147 N 0.56430 0.41998 0.13979
 N148 N 0.59418 0.45258 0.06746
 N149 N 0.62669 0.41531 0.07643
 N150 N 0.56022 0.55822 0.10064
 N151 N 0.56927 0.59485 0.13475
 C152 C 0.61456 0.61564 0.11647
 C153 C 0.60732 0.39481 0.12137
 N154 N 0.40394 0.45943 0.06415
 N155 N 0.36307 0.43169 0.07812
 N156 N 0.44437 0.56229 0.09814
 N157 N 0.42985 0.59371 0.13621
 N158 N 0.40910 0.56248 0.05805
 N159 N 0.37058 0.59428 0.06734
 N160 N 0.44138 0.45964 0.10219
 N161 N 0.42680 0.43254 0.14299
 Mn162 Mn 0.50102 0.50882 0.10186
 C163 C 0.37792 0.41517 0.12740
 C164 C 0.38381 0.61365 0.11606
 N165 N 0.59564 0.44766 -0.04871
 N166 N 0.63703 0.42088 -0.06368
 N167 N 0.56178 0.54973 -0.08976
 N168 N 0.57278 0.58264 -0.12653
 N169 N 0.59888 0.55010 -0.05162
 N170 N 0.63655 0.58240 -0.06201
 N171 N 0.55793 0.44691 -0.08664
 N172 N 0.57308 0.41991 -0.12801
 Mn173 Mn 0.59713 0.50157 0.00810
 C174 C 0.62229 0.40356 -0.11309
 C175 C 0.61940 0.60346 -0.10823
 N176 N 0.40938 0.55640 -0.05747
 N177 N 0.37540 0.59158 -0.07122
 N178 N 0.44130 0.45036 -0.08876
 N179 N 0.42651 0.41796 -0.12630
 N180 N 0.40470 0.45331 -0.05161
 N181 N 0.36459 0.42282 -0.06254
 N182 N 0.44799 0.55337 -0.09229
 N183 N 0.44224 0.58666 -0.12975
 Mn184 Mn 0.40634 0.50789 0.00325
 Mn185 Mn 0.50210 0.49990 -0.08968
 Cl186 Cl 0.50167 0.50426 0.00590
 C187 C 0.39653 0.60991 -0.11678
 C188 C 0.37852 0.40102 -0.10925
 C189 C 1.16526 0.13919 0.18952
 C190 C 1.19772 0.17078 0.21999
 C191 C 1.22282 0.21120 0.19657
 C192 C 1.22040 0.21583 0.13943
 C193 C 1.18515 0.18474 0.10880
 C194 C 1.15764 0.14631 0.13441
 C195 C 1.17813 0.19353 0.05340
 N196 N 1.20816 0.22818 0.02946
 N197 N 1.24474 0.25436 0.05715
 C198 C 1.25219 0.24901 0.11088
 H199 H 1.14554 0.10907 0.20935
 H200 H 1.20042 0.16518 0.26301
 H201 H 1.14902 0.17348 0.02881
 H202 H 1.28478 0.26897 0.12929
 C203 C 1.14369 0.69234 0.64009
 C204 C 1.17560 0.72196 0.67405
 C205 C 1.20909 0.70172 0.71413
 C206 C 1.20726 0.64950 0.72188
 C207 C 1.17630 0.61953 0.68564
 C208 C 1.14412 0.64139 0.64521
 C209 C 1.17759 0.56802 0.69135
 N210 N 1.20576 0.54785 0.73248
 N211 N 1.23216 0.57570 0.76847
 C212 C 1.23326 0.62533 0.76495
 H213 H 1.11850 0.70934 0.60956
 H214 H 1.17406 0.76135 0.66868
 H215 H 1.15622 0.54349 0.66380
 H216 H 1.25328 0.64430 0.79710
 C217 C 0.67878 0.17292 0.63310
 C218 C 0.70974 0.20796 0.66139
 C219 C 0.70633 0.21354 0.71728
 C220 C 0.67083 0.18189 0.74509
 C221 C 0.64164 0.14423 0.71664
 C222 C 0.64421 0.14085 0.65960
 C223 C 0.61272 0.11000 0.74702
 N224 N 0.60957 0.11556 0.80100
 N225 N 0.63394 0.15256 0.82705
 C226 C 0.66434 0.18563 0.80107
 H227 H 0.68227 0.17066 0.58982
 H228 H 0.73725 0.23020 0.63902
 H229 H 0.59385 0.07789 0.72936
 H230 H 0.68267 0.21457 0.82467
 C231 C 0.64792 0.65406 0.20076
 C232 C 0.68051 0.68717 0.22925
 C233 C 0.71049 0.72301 0.20299
 C234 C 0.70656 0.72529 0.14551
 C235 C 0.66994 0.69361 0.11722
 C236 C 0.64334 0.65600 0.14480
 C237 C 0.66088 0.70058 0.06185
 N238 N 0.69030 0.73403 0.03539
 N239 N 0.72866 0.76015 0.06052
 C240 C 0.73831 0.75627 0.11412
 H241 H 0.62748 0.62560 0.22263
 H242 H 0.68329 0.68373 0.27257
 H243 H 0.63037 0.68012 0.03944
 H244 H 0.77220 0.77580 0.13002
 C245 C 0.87940 -0.15773 0.18800
 C246 C 0.84915 -0.19132 0.21633
 C247 C 0.79296 -0.18827 0.21660
 C248 C 0.76702 -0.14785 0.19121
 C249 C 0.79826 -0.11257 0.16433
 C250 C 0.85438 -0.11956 0.16008
 C251 C 0.77215 -0.07115 0.14276
 N252 N 0.71796 -0.06734 0.14473
 N253 N 0.68818 -0.10207 0.16676
 C254 C 0.71070 -0.14219 0.18964
 H255 H 0.92251 -0.16271 0.18619
 H256 H 0.87001 -0.22074 0.23670
 H257 H 0.79414 -0.04131 0.12519
 H258 H 0.68403 -0.16940 0.20528
 C259 C 0.80231 0.35104 0.63333
 C260 C 0.77463 0.32068 0.66820
 C261 C 0.80176 0.29061 0.70535
 C262 C 0.85943 0.29076 0.70552
 C263 C 0.88716 0.31891 0.66682
 C264 C 0.85854 0.35189 0.63329
 C265 C 0.94329 0.31363 0.66332
 N266 N 0.97061 0.28626 0.69968
 N267 N 0.94557 0.26420 0.73942
 C268 C 0.89142 0.26609 0.74391
 H269 H 0.77945 0.37568 0.60782
 H270 H 0.73110 0.32221 0.66743
 H271 H 0.96574 0.33049 0.63170
 H272 H 0.87530 0.25056 0.77911
 C273 C 0.31367 -0.17061 0.62791
 C274 C 0.28671 -0.20533 0.65844
 C275 C 0.28777 -0.20283 0.71486
 C276 C 0.31474 -0.16229 0.74065
 C277 C 0.33992 -0.12575 0.70934
 C278 C 0.34168 -0.13141 0.65261
 C279 C 0.36107 -0.08367 0.73601
 N280 N 0.36028 -0.08005 0.79027
 N281 N 0.33912 -0.11524 0.81981
 C282 C 0.31639 -0.15592 0.79701
 H283 H 0.31379 -0.17515 0.58460
 H284 H 0.26639 -0.23525 0.63745
 H285 H 0.37681 -0.05278 0.71456
 H286 H 0.29911 -0.18204 0.82357
 C287 C 0.37108 0.35001 0.19504
 C288 C 0.34243 0.31491 0.22292
 C289 C 0.28659 0.31076 0.21631
 C290 C 0.25848 0.34665 0.18545
 C291 C 0.28762 0.38414 0.15951
 C292 C 0.34461 0.38339 0.16128
 C293 C 0.25845 0.42140 0.13315
 N294 N 0.20412 0.41892 0.12941
 N295 N 0.17698 0.38191 0.15041
 C296 C 0.20223 0.34575 0.17795
 H297 H 0.41457 0.34985 0.19843
 H298 H 0.36467 0.28940 0.24779
 H299 H 0.27782 0.45316 0.11662
 H300 H 0.17793 0.31659 0.19290
 C301 C 0.84880 0.13957 -0.20030
 C302 C 0.81633 0.17298 -0.22740
 C303 C 0.79119 0.21178 -0.20010
 C304 C 0.79692 0.21475 -0.14286
 C305 C 0.83287 0.18236 -0.11592
 C306 C 0.85735 0.14362 -0.14479
 C307 C 0.84347 0.18999 -0.06055
 N308 N 0.81588 0.22445 -0.03302
 N309 N 0.77840 0.25158 -0.05712
 C310 C 0.76773 0.24753 -0.11063
 H311 H 0.86678 0.10982 -0.22289
 H312 H 0.81202 0.16910 -0.27068
 H313 H 0.87375 0.16938 -0.03886
 H314 H 0.73463 0.26811 -0.12593
 C315 C 0.82280 0.67141 0.36623
 C316 C 0.79521 0.70839 0.33922
 C317 C 0.79936 0.71399 0.28355
 C318 C 0.83136 0.68019 0.25436
 C319 C 0.85753 0.64092 0.28157
 C320 C 0.85456 0.63760 0.33852
 C321 C 0.88384 0.60526 0.25014
 N322 N 0.88687 0.61054 0.19624
 N323 N 0.86484 0.64863 0.17126
 C324 C 0.83718 0.68339 0.19836
 H325 H 0.81918 0.66926 0.40946
 H326 H 0.76998 0.73242 0.36253
 H327 H 0.90070 0.57236 0.26701
 H328 H 0.82036 0.71314 0.17563
 C329 C 0.31963 0.17259 0.37023
 C330 C 0.29188 0.20828 0.34106
 C331 C 0.30064 0.21502 0.28615
 C332 C 0.33867 0.18429 0.26034
 C333 C 0.36421 0.14553 0.28914
 C334 C 0.35594 0.14072 0.34544
 C335 C 0.39517 0.11177 0.25947
 N336 N 0.40394 0.11905 0.20664
 N337 N 0.38317 0.15722 0.18083
 C338 C 0.35086 0.18979 0.20576
 H339 H 0.31195 0.16946 0.41275
 H340 H 0.26227 0.22979 0.36186
 H341 H 0.41111 0.07861 0.27637
 H342 H 0.33535 0.21965 0.18246
 C343 C 0.34289 0.68547 -0.12466
 C344 C 0.31303 0.71954 -0.15373
 C345 C 0.30932 0.71666 -0.20988
 C346 C 0.34249 0.68268 -0.23752
 C347 C 0.37125 0.64649 -0.20804
 C348 C 0.37050 0.64768 -0.15072
 C349 C 0.39647 0.60867 -0.23757
 N350 N 0.39607 0.60936 -0.29197
 N351 N 0.37122 0.64452 -0.31931
 C352 C 0.34420 0.68079 -0.29406
 H353 H 0.34281 0.68762 -0.08114
 H354 H 0.29006 0.74623 -0.13158
 H355 H 0.41530 0.57756 -0.21906
 H356 H 0.32400 0.70723 -0.31877
 C357 C 1.15461 -0.13856 -0.19567
 C358 C 1.18515 -0.17122 -0.22524
 C359 C 1.20134 -0.21650 -0.20401
 C360 C 1.18027 -0.23102 -0.15389
 C361 C 1.15077 -0.19677 -0.12279
 C362 C 1.13917 -0.14993 -0.14374
 C363 C 1.13226 -0.21116 -0.07233
 N364 N 1.14122 -0.25749 -0.05505
 N365 N 1.16708 -0.29021 -0.08500
 C366 C 1.18635 -0.27860 -0.13383
 H367 H 1.14442 -0.10332 -0.21290
 H368 H 1.19694 -0.16005 -0.26485
 H369 H 1.10997 -0.18636 -0.04694
 H370 H 1.20551 -0.30674 -0.15663
 C371 C 1.19788 0.34917 0.36542
 C372 C 1.22779 0.31902 0.33203
 C373 C 1.20304 0.28751 0.29379
 C374 C 1.14545 0.28521 0.29148
 C375 C 1.11535 0.31351 0.32866
 C376 C 1.14174 0.34836 0.36271
 C377 C 1.05926 0.30658 0.33009
 N378 N 1.03424 0.27702 0.29325
 N379 N 1.06155 0.25437 0.25498
 C380 C 1.11580 0.25799 0.25249
 H381 H 1.21900 0.37518 0.39162
 H382 H 1.27122 0.32210 0.33468
 H383 H 1.03511 0.32388 0.36048
 H384 H 1.13383 0.24170 0.21837
 C385 C 0.62870 -0.17336 0.33016
 C386 C 0.65976 -0.20582 0.30035
 C387 C 0.71605 -0.20300 0.30207
 C388 C 0.74144 -0.16754 0.33664
 C389 C 0.70981 -0.13267 0.36471
 C390 C 0.65268 -0.13641 0.36222
 C391 C 0.73691 -0.09393 0.39227
 N392 N 0.79132 -0.09294 0.39537
 N393 N 0.82078 -0.12751 0.37217
 C394 C 0.79782 -0.16457 0.34297
 H395 H 0.58530 -0.17670 0.32748
 H396 H 0.63910 -0.23179 0.27398
 H397 H 0.71610 -0.06349 0.41019
 H398 H 0.82415 -0.19134 0.32538
 C399 C 0.63236 0.34011 -0.18385
 C400 C 0.66264 0.30833 -0.21515
 C401 C 0.71891 0.30860 -0.21152
 C402 C 0.74505 0.34622 -0.18024
 C403 C 0.71396 0.38007 -0.15008
 C404 C 0.65718 0.37460 -0.14919
 C405 C 0.74102 0.41868 -0.12252
 N406 N 0.79542 0.42103 -0.12212
 N407 N 0.82464 0.38762 -0.14757
 C408 C 0.80139 0.35036 -0.17633
 H409 H 0.58895 0.33655 -0.18553
 H410 H 0.64137 0.28192 -0.24053
 H411 H 0.71986 0.44783 -0.10241
 H412 H 0.82738 0.32438 -0.19524
 C413 C 1.16893 0.17494 -0.13062
 C414 C 1.19639 0.21075 -0.15863
 C415 C 1.19787 0.20955 -0.21489
 C416 C 1.16999 0.17143 -0.24355
 C417 C 1.14363 0.13383 -0.21488
 C418 C 1.14238 0.13633 -0.15781
 C419 C 1.12151 0.09387 -0.24455
 N420 N 1.12269 0.09342 -0.29895
 N421 N 1.14499 0.12983 -0.32587
 C422 C 1.16867 0.16861 -0.30017
 H423 H 1.16878 0.17725 -0.08711
 H424 H 1.21812 0.23863 -0.13563
 H425 H 1.10445 0.06226 -0.22554
 H426 H 1.18579 0.19683 -0.32455
 C427 C 1.18375 0.62725 0.32260
 C428 C 1.21480 0.65981 0.29395
 C429 C 1.20705 0.71095 0.29753
 C430 C 1.17078 0.72911 0.33696
 C431 C 1.13956 0.69535 0.36670
 C432 C 1.14494 0.64430 0.35757
 C433 C 1.10299 0.71381 0.40407
 N434 N 1.09758 0.76296 0.41101
 N435 N 1.12598 0.79473 0.38282
 C436 C 1.16199 0.77961 0.34603
 H437 H 1.18996 0.58812 0.31714
 H438 H 1.24460 0.64380 0.26837
 H439 H 1.07860 0.68960 0.42772
 H440 H 1.18248 0.80737 0.32390
 C441 C 0.68448 0.12094 0.33021
 C442 C 0.71433 0.15251 0.29900
 C443 C 0.70699 0.20354 0.30183
 C444 C 0.67232 0.22312 0.34152
 C445 C 0.64218 0.19065 0.37362
 C446 C 0.64729 0.13937 0.36632
 C447 C 0.60693 0.21063 0.41138
 N448 N 0.60206 0.26003 0.41647
 N449 N 0.62980 0.29059 0.38613
 C450 C 0.66448 0.27390 0.34883
 H451 H 0.68981 0.08164 0.32546
 H452 H 0.74245 0.13627 0.27165
 H453 H 0.58323 0.18743 0.43684
 H454 H 0.68486 0.30063 0.32506
 C455 C 0.63420 0.64911 -0.19215
 C456 C 0.66428 0.67889 -0.22529
 C457 C 0.71255 0.70007 -0.20689
 C458 C 0.73220 0.68863 -0.15430
 C459 C 0.69895 0.66257 -0.11866
 C460 C 0.65060 0.64022 -0.13876
 C461 C 0.71599 0.65994 -0.06429
 N462 N 0.76557 0.67593 -0.04877
 N463 N 0.79928 0.69472 -0.08376
 C464 C 0.78448 0.70112 -0.13584
 H465 H 0.59785 0.63247 -0.20891
 H466 H 0.64978 0.68486 -0.26599
 H467 H 0.69049 0.64695 -0.03323
 H468 H 0.81457 0.71439 -0.16211
 C469 C 0.86971 -0.17028 -0.18470
 C470 C 0.84034 -0.20446 -0.21518
 C471 C 0.78492 -0.20991 -0.20876
 C472 C 0.75839 -0.17898 -0.17116
 C473 C 0.78783 -0.14175 -0.14274
 C474 C 0.84459 -0.13903 -0.14789
 C475 C 0.75875 -0.10769 -0.11163
 N476 N 0.70520 -0.11352 -0.10539
 N477 N 0.67835 -0.15056 -0.12873
 C478 C 0.70295 -0.18331 -0.16124
 H479 H 0.91278 -0.16835 -0.18998
 H480 H 0.86160 -0.22681 -0.24379
 H481 H 0.77695 -0.07551 -0.09346
 H482 H 0.67848 -0.21218 -0.17866
 C483 C 0.81153 0.36847 0.31447
 C484 C 0.77857 0.33508 0.28662
 C485 C 0.78795 0.28429 0.28880
 C486 C 0.83172 0.26725 0.32145
 C487 C 0.86582 0.30167 0.34915
 C488 C 0.85533 0.35248 0.34541
 C489 C 0.90905 0.28402 0.38058
 N490 N 0.91747 0.23502 0.38424
 N491 N 0.88551 0.20264 0.35874
 C492 C 0.84302 0.21698 0.32774
 H493 H 0.80236 0.40730 0.31229
 H494 H 0.74453 0.34967 0.26457
 H495 H 0.93615 0.30873 0.40229
 H496 H 0.81903 0.18877 0.30815
 C497 C 0.30685 -0.12654 0.31888
 C498 C 0.27554 -0.15963 0.28847
 C499 C 0.28430 -0.21074 0.29025
 C500 C 0.32608 -0.22801 0.32578
 C501 C 0.35819 -0.19375 0.35643
 C502 C 0.34844 -0.14279 0.35258
 C503 C 0.39906 -0.21166 0.39075
 N504 N 0.40743 -0.26063 0.39439
 N505 N 0.37776 -0.29282 0.36600
 C506 C 0.33762 -0.27833 0.33209
 H507 H 0.29824 -0.08763 0.31625
 H508 H 0.24311 -0.14425 0.26469
 H509 H 0.42435 -0.18716 0.41483
 H510 H 0.31594 -0.30653 0.31009
 C511 C 0.36846 0.32673 -0.16660
 C512 C 0.33825 0.29211 -0.19588
 C513 C 0.28204 0.29487 -0.19900
 C514 C 0.25575 0.33350 -0.17114
 C515 C 0.28670 0.37013 -0.14327
 C516 C 0.34368 0.36586 -0.14000
 C517 C 0.25931 0.41092 -0.12174
 N518 N 0.20493 0.41286 -0.12454
 N519 N 0.17587 0.37719 -0.14794
 C520 C 0.19931 0.33779 -0.17131
 H521 H 0.41182 0.32307 -0.16506
 H522 H 0.35950 0.26382 -0.21755
 H523 H 0.28007 0.44208 -0.10398
 H524 H 0.17329 0.31022 -0.18939
 C525 C 1.19635 -0.14909 0.14042
 C526 C 1.22354 -0.18374 0.17124
 C527 C 1.19642 -0.21505 0.20623
 C528 C 1.13852 -0.21520 0.20361
 C529 C 1.11094 -0.17928 0.17199
 C530 C 1.14052 -0.14464 0.14222
 C531 C 1.05422 -0.18071 0.16898
 N532 N 1.02677 -0.21518 0.19589
 N533 N 1.05205 -0.24927 0.22439
 C534 C 1.10636 -0.25089 0.22839
 H535 H 1.21964 -0.12407 0.11656
 H536 H 1.26707 -0.18405 0.16960
 H537 H 1.03102 -0.15627 0.14397
 H538 H 1.12268 -0.28236 0.24763
 C539 C 1.12406 0.32953 0.67350
 C540 C 1.15347 0.29461 0.70190
 C541 C 1.20979 0.29671 0.70508
 C542 C 1.23693 0.33559 0.67922
 C543 C 1.20675 0.37251 0.65244
 C544 C 1.14986 0.36831 0.64811
 C545 C 1.23470 0.41345 0.63271
 N546 N 1.28908 0.41534 0.63622
 N547 N 1.31752 0.37941 0.65855
 C548 C 1.29343 0.33977 0.68010
 H549 H 1.08067 0.32610 0.67117
 H550 H 1.13156 0.26633 0.72237
 H551 H 1.21421 0.44470 0.61581
 H552 H 1.31899 0.31194 0.69726
 C553 C 0.62083 -0.16954 0.68868
 C554 C 0.65105 -0.20573 0.71445
 C555 C 0.70687 -0.20866 0.70816
 C556 C 0.73277 -0.17307 0.67605
 C557 C 0.70261 -0.13384 0.65393
 C558 C 0.64570 -0.13394 0.65749
 C559 C 0.73095 -0.09505 0.63005
 N560 N 0.78469 -0.09826 0.62347
 N561 N 0.81228 -0.13724 0.63980
 C562 C 0.78827 -0.17462 0.66561
 H563 H 0.57754 -0.16980 0.69255
 H564 H 0.63025 -0.23160 0.73920
 H565 H 0.71158 -0.06147 0.61792
 H566 H 0.81318 -0.20499 0.67728
 C567 C 0.68925 0.34791 0.14364
 C568 C 0.71771 0.31196 0.17117
 C569 C 0.69206 0.27971 0.20583
 C570 C 0.63455 0.27980 0.20653
 C571 C 0.60538 0.31698 0.17841
 C572 C 0.63354 0.35263 0.14865
 C573 C 0.54874 0.31580 0.17915
 N574 N 0.52305 0.28015 0.20612
 N575 N 0.55000 0.24496 0.23145
 C576 C 0.60442 0.24328 0.23197
 H577 H 0.71160 0.37359 0.11971
 H578 H 0.76105 0.31134 0.16762
 H579 H 0.52417 0.34154 0.15723
 H580 H 0.62256 0.21178 0.24977
 C581 C 0.86816 0.17919 0.16830
 C582 C 0.83530 0.21104 0.19703
 C583 C 0.77982 0.20249 0.20065
 C584 C 0.75673 0.16266 0.17062
 C585 C 0.79044 0.12872 0.14367
 C586 C 0.84673 0.13777 0.14169
 C587 C 0.76646 0.08587 0.12127
 N588 N 0.71239 0.07994 0.12159
 N589 N 0.68060 0.11351 0.14340
 C590 C 0.70091 0.15449 0.16776
 H591 H 0.91079 0.18716 0.16662
 H592 H 0.85398 0.24242 0.21689
 H593 H 0.78974 0.05628 0.10466
 H594 H 0.67317 0.18002 0.18466
 C595 C 0.86455 0.65413 0.68501
 C596 C 0.83292 0.68298 0.71808
 C597 C 0.78512 0.70390 0.69890
 C598 C 0.76844 0.69403 0.64467
 C599 C 0.80352 0.66883 0.60945
 C600 C 0.85039 0.64583 0.63078
 C601 C 0.78986 0.66756 0.55418
 N602 N 0.74138 0.68422 0.53679
 N603 N 0.70572 0.70209 0.57086
 C604 C 0.71736 0.70697 0.62410
 H605 H 0.90001 0.63729 0.70270
 H606 H 0.84596 0.68804 0.75939
 H607 H 0.81738 0.65477 0.52427
 H608 H 0.68571 0.71908 0.64964
 C609 C 0.32129 0.17843 0.62846
 C610 C 0.29390 0.21322 0.65881
 C611 C 0.29201 0.21004 0.71496
 C612 C 0.31858 0.17045 0.74098
 C613 C 0.34423 0.13369 0.70979
 C614 C 0.34699 0.13876 0.65310
 C615 C 0.36441 0.09199 0.73653
 N616 N 0.36254 0.08929 0.79077
 N617 N 0.34136 0.12509 0.82022
 C618 C 0.31939 0.16539 0.79730
 H619 H 0.32252 0.18262 0.58526
 H620 H 0.27299 0.24217 0.63772
 H621 H 0.38036 0.06077 0.71517
 H622 H 0.30322 0.19305 0.82364
 C623 C 0.36855 0.68678 0.17440
 C624 C 0.33535 0.71916 0.20218
 C625 C 0.27937 0.71184 0.20378
 C626 C 0.25660 0.67283 0.17154
 C627 C 0.29071 0.63811 0.14628
 C628 C 0.34717 0.64593 0.14672
 C629 C 0.26690 0.59555 0.12289
 N630 N 0.21276 0.59076 0.12005
 N631 N 0.18071 0.62517 0.13971
 C632 C 0.20075 0.66574 0.16511
 H633 H 0.41144 0.69384 0.17437
 H634 H 0.35437 0.74991 0.22293
 H635 H 0.29034 0.56529 0.10797
 H636 H 0.17270 0.69171 0.17994
   
