data_POSCAR
  _audit_creation_date              2014-09-24
  _audit_creation_method            'ToBaCCo'
  _symmetry_space_group_name_H-M    'P1'
  _symmetry_Int_Tables_number       1
  _symmetry_cell_setting            triclinic
  loop_
  _symmetry_equiv_pos_as_xyz
 x,y,z
_cell_length_a 56.7409
_cell_length_b 56.5895
_cell_length_c 22.4248
_cell_angle_alpha 90.357800
_cell_angle_beta 89.806200
_cell_angle_gamma 120.433800
loop_
  _atom_site_label
  _atom_site_type_symbol
  _atom_site_fract_x
  _atom_site_fract_y
  _atom_site_fract_z
C1 C 0.16678 0.46317 0.49877
 C2 C 0.18075 0.46581 0.44488
 C3 C 0.20455 0.46405 0.44621
 C4 C 0.21448 0.45954 0.49997
 C5 C 0.19960 0.45623 0.55281
 C6 C 0.17646 0.45918 0.55343
 C7 C 0.24102 0.45974 0.50153
 C8 C 0.25749 0.46839 0.55335
 C9 C 0.28238 0.46882 0.55507
 C10 C 0.29211 0.46272 0.50324
 C11 C 0.27694 0.45566 0.45029
 C12 C 0.25089 0.45273 0.45048
 H13 H 0.14753 0.46260 0.49744
 H14 H 0.21590 0.46743 0.40521
 H15 H 0.20631 0.45188 0.59429
 H16 H 0.25128 0.47502 0.59268
 H17 H 0.31198 0.46435 0.50356
 H18 H 0.23898 0.44597 0.40989
 C19 C 0.53584 -0.28878 0.50089
 C20 C 0.53933 -0.27561 0.44575
 C21 C 0.53228 -0.25517 0.44154
 C22 C 0.52096 -0.24855 0.49055
 C23 C 0.51623 -0.26336 0.54394
 C24 C 0.52459 -0.28265 0.55041
 C25 C 0.51424 -0.22617 0.48658
 C26 C 0.51507 -0.21122 0.53802
 C27 C 0.50801 -0.19084 0.53546
 C28 C 0.50169 -0.18405 0.48011
 C29 C 0.50136 -0.19808 0.42801
 C30 C 0.50729 -0.21926 0.43162
 H31 H 0.53923 -0.30583 0.50398
 H32 H 0.53609 -0.24422 0.39995
 H33 H 0.50629 -0.25972 0.58121
 H34 H 0.52134 -0.21519 0.58051
 H35 H 0.49830 -0.16693 0.47715
 H36 H 0.50615 -0.23039 0.39131
 C37 C 1.30089 0.82533 0.49564
 C38 C 1.29082 0.81089 0.44154
 C39 C 1.26462 0.78720 0.44097
 C40 C 1.24877 0.77761 0.49364
 C41 C 1.25958 0.79290 0.54664
 C42 C 1.28552 0.81625 0.54803
 C43 C 1.22149 0.75152 0.49456
 C44 C 1.21118 0.73693 0.54845
 C45 C 1.18473 0.71408 0.55208
 C46 C 1.16967 0.70359 0.49928
 C47 C 1.18056 0.71591 0.44418
 C48 C 1.20560 0.74066 0.44234
 H49 H 1.32066 0.84383 0.49781
 H50 H 1.25734 0.77570 0.39981
 H51 H 1.24791 0.78714 0.58756
 H52 H 1.22342 0.74344 0.58856
 H53 H 1.14999 0.68489 0.49990
 H54 H 1.21272 0.75074 0.39983
 C55 C 0.81496 0.50941 0.50523
 C56 C 0.79853 0.49854 0.45449
 C57 C 0.77168 0.49337 0.45565
 C58 C 0.76160 0.50102 0.50530
 C59 C 0.77851 0.51198 0.55593
 C60 C 0.80497 0.51582 0.55656
 C61 C 0.73404 0.49851 0.50291
 C62 C 0.71847 0.49489 0.55503
 C63 C 0.69262 0.49272 0.55213
 C64 C 0.68273 0.49481 0.49599
 C65 C 0.69793 0.49850 0.44413
 C66 C 0.72331 0.50030 0.44770
 H67 H 0.83505 0.51161 0.50521
 H68 H 0.75894 0.48378 0.41698
 H69 H 0.77151 0.51806 0.59483
 H70 H 0.72597 0.49287 0.59790
 H71 H 0.66344 0.49417 0.49178
 H72 H 0.73497 0.50412 0.40702
 C73 C 0.49448 0.31642 0.50458
 C74 C 0.49087 0.30177 0.45152
 C75 C 0.49482 0.27925 0.45183
 C76 C 0.50313 0.27169 0.50428
 C77 C 0.50796 0.28777 0.55622
 C78 C 0.50216 0.30911 0.55770
 C79 C 0.50474 0.24604 0.50586
 C80 C 0.49951 0.23095 0.55922
 C81 C 0.49772 0.20525 0.55976
 C82 C 0.50103 0.19451 0.50580
 C83 C 0.50698 0.20942 0.45282
 C84 C 0.50966 0.23539 0.45332
 H85 H 0.49281 0.33462 0.50364
 H86 H 0.49060 0.26735 0.41125
 H87 H 0.51520 0.28310 0.59653
 H88 H 0.49539 0.23835 0.60028
 H89 H 0.50060 0.17517 0.50484
 H90 H 0.51492 0.24682 0.41212
 C91 C 0.70405 0.17713 0.50611
 C92 C 0.71829 0.18679 0.45240
 C93 C 0.74483 0.20951 0.45312
 C94 C 0.75732 0.22313 0.50704
 C95 C 0.74243 0.21313 0.56056
 C96 C 0.71584 0.19034 0.56027
 C97 C 0.78546 0.24794 0.50682
 C98 C 0.80293 0.25515 0.55681
 C99 C 0.82944 0.27843 0.55624
 C100 C 0.83873 0.29389 0.50329
 C101 C 0.82170 0.28694 0.45326
 C102 C 0.79502 0.26475 0.45608
 H103 H 0.68354 0.15951 0.50556
 H104 H 0.75571 0.21610 0.41123
 H105 H 0.75093 0.22348 0.60251
 H106 H 0.79612 0.24254 0.59635
 H107 H 0.85847 0.31236 0.50101
 H108 H 0.78180 0.26075 0.41806
 N109 N 0.95918 0.51941 0.04653
 N110 N 0.93905 0.52437 0.05573
 N111 N 1.01481 0.53771 0.10738
 N112 N 1.03281 0.55135 0.14967
 N113 N 1.01537 0.55455 0.06666
 N114 N 1.03375 0.58016 0.08023
 N115 N 0.95856 0.50231 0.08672
 N116 N 0.93788 0.49498 0.12363
 C117 C 0.92560 0.50849 0.10321
 C118 C 1.04439 0.57780 0.13227
 N119 N 1.02868 0.47783 0.07054
 N120 N 1.04955 0.47564 0.08995
 N121 N 0.96657 0.45616 0.08836
 N122 N 0.94667 0.43933 0.12397
 N123 N 0.97250 0.44240 0.04966
 N124 N 0.95687 0.41574 0.05860
 N125 N 1.02256 0.49136 0.10943
 N126 N 1.03892 0.49877 0.15587
 Mn127 Mn 0.99057 0.49685 0.09835
 C128 C 1.05570 0.48904 0.14323
 C129 C 0.94054 0.41421 0.10442
 N130 N 1.02515 0.55981 -0.05988
 N131 N 1.04133 0.58651 -0.06693
 N132 N 0.97532 0.51107 -0.12046
 N133 N 0.96076 0.50638 -0.16936
 N134 N 0.96922 0.52442 -0.08102
 N135 N 0.95037 0.52925 -0.10233
 N136 N 1.03138 0.54625 -0.09830
 N137 N 1.05214 0.56325 -0.13192
 Mn138 Mn 0.99213 0.53973 -0.00691
 C139 C 1.05836 0.58825 -0.11134
 C140 C 0.94506 0.51746 -0.15717
 N141 N 0.98227 0.44755 -0.07826
 N142 N 0.96774 0.42200 -0.09817
 N143 N 1.03936 0.50023 -0.09641
 N144 N 1.06094 0.50914 -0.13110
 N145 N 1.03847 0.48252 -0.05758
 N146 N 1.05923 0.47838 -0.06609
 N147 N 0.98340 0.46479 -0.11875
 N148 N 0.96988 0.45158 -0.16701
 Mn149 Mn 1.00552 0.46227 -0.00386
 Mn150 Mn 1.00740 0.50559 -0.10879
 Cl151 Cl 0.99883 0.50104 -0.00535
 C152 C 0.95990 0.42498 -0.15343
 C153 C 1.07329 0.49565 -0.11141
 N154 N 0.47499 0.45156 0.06939
 N155 N 0.46669 0.42571 0.08213
 N156 N 0.46851 0.49980 0.11668
 N157 N 0.45780 0.50696 0.16039
 N158 N 0.44946 0.48301 0.07938
 N159 N 0.42515 0.47817 0.09709
 N160 N 0.49360 0.46809 0.10770
 N161 N 0.49836 0.45399 0.14756
 C162 C 0.48170 0.42762 0.13069
 C163 C 0.43085 0.49348 0.14747
 N164 N 0.53639 0.56482 0.06461
 N165 N 0.54541 0.59090 0.07689
 N166 N 0.54606 0.51712 0.09843
 N167 N 0.56024 0.51080 0.13466
 N168 N 0.56167 0.53323 0.05564
 N169 N 0.58709 0.53871 0.06225
 N170 N 0.52122 0.54914 0.10842
 N171 N 0.51971 0.56413 0.15187
 Mn172 Mn 0.50736 0.50856 0.10828
 C173 C 0.53464 0.59009 0.13130
 C174 C 0.58569 0.52416 0.11118
 N175 N 0.44384 0.48179 -0.04909
 N176 N 0.41795 0.47424 -0.05782
 N177 N 0.48501 0.46662 -0.10192
 N178 N 0.49106 0.45272 -0.14021
 N179 N 0.46960 0.45068 -0.05869
 N180 N 0.46439 0.42533 -0.06691
 N181 N 0.45916 0.49787 -0.09232
 N182 N 0.44408 0.50183 -0.13120
 Mn183 Mn 0.45919 0.46649 0.01025
 C184 C 0.41851 0.48734 -0.10851
 C185 C 0.47805 0.42705 -0.11782
 N186 N 0.55610 0.53182 -0.07253
 N187 N 0.57966 0.53349 -0.08554
 N188 N 0.51180 0.54744 -0.10055
 N189 N 0.50600 0.56186 -0.13753
 N190 N 0.53098 0.56367 -0.06292
 N191 N 0.53883 0.58955 -0.07335
 N192 N 0.53714 0.51571 -0.11065
 N193 N 0.54716 0.50585 -0.15031
 Mn194 Mn 0.54657 0.54863 -0.00393
 Mn195 Mn 0.49821 0.50696 -0.10198
 Cl196 Cl 0.50278 0.50768 0.00320
 C197 C 0.57368 0.51712 -0.13422
 C198 C 0.52284 0.58806 -0.11946
 N199 N 0.44405 -0.02338 0.06928
 N200 N 0.41890 -0.04376 0.07940
 N201 N 0.49247 0.03409 0.10722
 N202 N 0.50032 0.05434 0.14604
 N203 N 0.47515 0.03423 0.06874
 N204 N 0.47064 0.05447 0.08040
 N205 N 0.46112 -0.02360 0.10831
 N206 N 0.44822 -0.04418 0.14553
 C207 C 0.42194 -0.05660 0.12706
 C208 C 0.48667 0.06697 0.12829
 N209 N 0.55693 0.02921 0.05976
 N210 N 0.58313 0.04566 0.07165
 N211 N 0.50986 -0.02659 0.10243
 N212 N 0.50099 -0.04766 0.13860
 N213 N 0.52473 -0.02828 0.05945
 N214 N 0.52660 -0.05050 0.06569
 N215 N 0.54172 0.03107 0.10170
 N216 N 0.55716 0.04902 0.14284
 Mn217 Mn 0.50136 0.00386 0.10552
 C218 C 0.58291 0.05822 0.12301
 C219 C 0.51157 -0.06238 0.11527
 N220 N 0.47265 0.03399 -0.05930
 N221 N 0.46637 0.05308 -0.06986
 N222 N 0.45710 -0.02408 -0.10239
 N223 N 0.44199 -0.04215 -0.14355
 N224 N 0.44166 -0.02328 -0.05961
 N225 N 0.41556 -0.04043 -0.07111
 N226 N 0.48865 0.03369 -0.10138
 N227 N 0.49401 0.05285 -0.14125
 Mn228 Mn 0.45809 0.00533 0.00492
 C229 C 0.48024 0.06496 -0.12052
 C230 C 0.41619 -0.05239 -0.12303
 N231 N 0.52267 -0.02823 -0.06970
 N232 N 0.52687 -0.04858 -0.08337
 N233 N 0.53777 0.03062 -0.10719
 N234 N 0.55126 0.05110 -0.14445
 N235 N 0.55452 0.02938 -0.06876
 N236 N 0.57996 0.04903 -0.07897
 N237 N 0.50610 -0.02690 -0.10848
 N238 N 0.49842 -0.04634 -0.14915
 Mn239 Mn 0.53997 0.00044 -0.00489
 Mn240 Mn 0.49745 0.00339 -0.10543
 Cl241 Cl 0.49924 0.00327 -0.00000
 C242 C 0.51135 -0.05983 -0.13276
 C243 C 0.57752 0.06243 -0.12622
 C244 C 1.17140 0.46983 0.38974
 C245 C 1.15312 0.47944 0.38466
 C246 C 1.14164 0.48163 0.32734
 C247 C 1.13608 0.50290 0.32028
 C248 C 1.12200 0.50376 0.27028
 C249 C 1.11218 0.48271 0.22709
 C250 C 1.11908 0.46221 0.23249
 C251 C 1.13374 0.46166 0.28223
 C252 C 1.09356 0.48096 0.17850
 C253 C 1.07677 0.49218 0.18560
 H254 H 1.14831 0.48765 0.42350
 H255 H 1.14229 0.51869 0.35414
 H256 H 1.11846 0.52075 0.26645
 H257 H 1.11207 0.44593 0.19959
 H258 H 1.13762 0.44490 0.28687
 H259 H 1.09114 0.46862 0.13935
 H260 H 1.17989 0.46682 0.34895
 H261 H 1.07760 0.50270 0.22663
 C262 C 0.54737 0.71589 0.39407
 C263 C 0.55891 0.69909 0.39603
 C264 C 0.55571 0.67925 0.34882
 C265 C 0.54854 0.68079 0.28950
 C266 C 0.54318 0.65971 0.24877
 C267 C 0.54459 0.63673 0.26705
 C268 C 0.55229 0.63559 0.32572
 C269 C 0.55813 0.65675 0.36585
 C270 C 0.53677 0.61285 0.22776
 C271 C 0.54067 0.61460 0.16624
 H272 H 0.56782 0.69763 0.43741
 H273 H 0.54672 0.69790 0.27447
 H274 H 0.53699 0.66096 0.20385
 H275 H 0.55352 0.61809 0.34079
 H276 H 0.56354 0.65496 0.41121
 H277 H 0.52955 0.59320 0.24901
 H278 H 0.54319 0.72162 0.35116
 H279 H 0.55021 0.63429 0.14428
 C280 C 0.30622 -0.18022 0.38843
 C281 C 0.33456 -0.16231 0.38809
 C282 C 0.35099 -0.14854 0.33460
 C283 C 0.33996 -0.14277 0.28446
 C284 C 0.35720 -0.12591 0.23890
 C285 C 0.38570 -0.11463 0.24297
 C286 C 0.39632 -0.12156 0.29183
 C287 C 0.37923 -0.13816 0.33717
 C288 C 0.40548 -0.09447 0.20008
 C289 C 0.39949 -0.08051 0.15711
 H290 H 0.34590 -0.15851 0.42918
 H291 H 0.31828 -0.15016 0.28160
 H292 H 0.34814 -0.12137 0.20166
 H293 H 0.41814 -0.11318 0.29631
 H294 H 0.38826 -0.14221 0.37540
 H295 H 0.42675 -0.08844 0.20626
 H296 H 0.29598 -0.18845 0.34623
 H297 H 0.37870 -0.08596 0.14732
 C298 C 0.80912 0.49224 0.40006
 C299 C 0.83545 0.51022 0.37916
 C300 C 0.84709 0.50497 0.32505
 C301 C 0.86728 0.52732 0.29293
 C302 C 0.88031 0.52318 0.24435
 C303 C 0.87369 0.49653 0.22763
 C304 C 0.85335 0.47416 0.25948
 C305 C 0.83995 0.47828 0.30742
 C306 C 0.88982 0.49175 0.18224
 C307 C 0.90378 0.50985 0.13576
 H308 H 0.84765 0.52965 0.40201
 H309 H 0.87331 0.54808 0.30613
 H310 H 0.89643 0.54093 0.22189
 H311 H 0.84823 0.45347 0.24802
 H312 H 0.82491 0.46065 0.33213
 H313 H 0.89187 0.47384 0.18742
 H314 H 0.79528 0.47459 0.37342
 H315 H 0.90004 0.52635 0.12575
 C316 C 0.48452 0.31098 0.39515
 C317 C 0.46987 0.32475 0.39534
 C318 C 0.47248 0.34421 0.34859
 C319 C 0.47700 0.34101 0.28810
 C320 C 0.48078 0.36109 0.24650
 C321 C 0.48058 0.38476 0.26523
 C322 C 0.47581 0.38766 0.32541
 C323 C 0.47137 0.36743 0.36641
 C324 C 0.48665 0.40753 0.22450
 C325 C 0.47795 0.40396 0.16538
 H326 H 0.45959 0.32483 0.43607
 H327 H 0.47763 0.32315 0.27298
 H328 H 0.48469 0.35853 0.20032
 H329 H 0.47560 0.40574 0.34080
 H330 H 0.46796 0.37038 0.41276
 H331 H 0.49605 0.42791 0.24387
 H332 H 0.49372 0.30916 0.35432
 H333 H 0.46625 0.38359 0.14636
 C334 C 0.70479 0.17458 0.39495
 C335 C 0.68717 0.14645 0.38791
 C336 C 0.66914 0.13453 0.33556
 C337 C 0.66300 0.10870 0.31411
 C338 C 0.64387 0.09584 0.26839
 C339 C 0.62996 0.10831 0.24465
 C340 C 0.63613 0.13416 0.26605
 C341 C 0.65585 0.14737 0.31053
 C342 C 0.60723 0.09355 0.20208
 C343 C 0.60760 0.07653 0.15741
 H344 H 0.68636 0.13267 0.42225
 H345 H 0.67274 0.09829 0.33341
 H346 H 0.63903 0.07561 0.25363
 H347 H 0.62536 0.14394 0.24891
 H348 H 0.65974 0.16702 0.32728
 H349 H 0.58962 0.09611 0.20618
 H350 H 0.70855 0.18808 0.35757
 H351 H 0.62615 0.07613 0.14837
 C352 C 0.49378 0.19140 -0.38590
 C353 C 0.48421 0.16330 -0.38246
 C354 C 0.48619 0.15005 -0.32791
 C355 C 0.51064 0.16162 -0.29517
 C356 C 0.51400 0.14657 -0.25010
 C357 C 0.49266 0.12021 -0.23583
 C358 C 0.46779 0.10917 -0.26684
 C359 C 0.46478 0.12382 -0.31319
 C360 C 0.49746 0.10330 -0.19334
 C361 C 0.47751 0.08580 -0.15333
 H362 H 0.47437 0.15017 -0.42063
 H363 H 0.52765 0.18159 -0.30673
 H364 H 0.53343 0.15527 -0.22717
 H365 H 0.45123 0.08864 -0.25747
 H366 H 0.44595 0.11441 -0.33860
 H367 H 0.51707 0.10434 -0.19424
 H368 H 0.49781 0.20281 -0.34450
 H369 H 0.45919 0.08695 -0.14697
 C370 C 0.67776 0.48947 -0.39495
 C371 C 0.64977 0.48054 -0.39436
 C372 C 0.63465 0.48179 -0.34169
 C373 C 0.64740 0.50144 -0.29617
 C374 C 0.63170 0.50467 -0.25194
 C375 C 0.60296 0.48821 -0.25246
 C376 C 0.59054 0.46783 -0.29652
 C377 C 0.60615 0.46479 -0.34076
 C378 C 0.58486 0.49243 -0.21126
 C379 C 0.59358 0.51234 -0.16634
 H380 H 0.63776 0.47144 -0.43419
 H381 H 0.66930 0.51522 -0.29627
 H382 H 0.64219 0.52064 -0.21900
 H383 H 0.56850 0.45475 -0.29801
 H384 H 0.59581 0.44955 -0.37542
 H385 H 0.56304 0.47973 -0.21867
 H386 H 0.68821 0.49320 -0.35258
 H387 H 0.61492 0.52485 -0.15478
 C388 C 0.84505 0.28637 -0.39064
 C389 C 0.87258 0.30721 -0.38750
 C390 C 0.88742 0.32130 -0.33192
 C391 C 0.91513 0.34151 -0.33698
 C392 C 0.92932 0.35826 -0.28857
 C393 C 0.91618 0.35517 -0.23360
 C394 C 0.88901 0.33388 -0.22698
 C395 C 0.87459 0.31722 -0.27587
 C396 C 0.93019 0.37523 -0.18480
 C397 C 0.94537 0.40311 -0.19775
 H398 H 0.88420 0.31459 -0.42826
 H399 H 0.92566 0.34509 -0.37928
 H400 H 0.95047 0.37413 -0.29455
 H401 H 0.87854 0.33107 -0.18486
 H402 H 0.85327 0.30205 -0.26981
 H403 H 0.92666 0.36848 -0.13887
 H404 H 0.83495 0.27593 -0.34995
 H405 H 0.94592 0.40962 -0.24332
 C406 C 0.50836 -0.17611 -0.40934
 C407 C 0.49098 -0.16554 -0.40185
 C408 C 0.49137 -0.14903 -0.34987
 C409 C 0.51353 -0.13630 -0.30996
 C410 C 0.51381 -0.11900 -0.26460
 C411 C 0.49196 -0.11409 -0.25842
 C412 C 0.46971 -0.12723 -0.29762
 C413 C 0.46942 -0.14447 -0.34271
 C414 C 0.49233 -0.09388 -0.21552
 C415 C 0.51023 -0.08257 -0.16731
 H416 H 0.47573 -0.16998 -0.43580
 H417 H 0.53114 -0.13874 -0.31478
 H418 H 0.53162 -0.10877 -0.23623
 H419 H 0.45267 -0.12372 -0.29414
 H420 H 0.45215 -0.15388 -0.37291
 H421 H 0.47782 -0.08711 -0.22313
 H422 H 0.52143 -0.17499 -0.37311
 H423 H 0.52382 -0.08992 -0.15516
 C424 C 0.29893 0.47707 -0.38983
 C425 C 0.31242 0.46349 -0.37157
 C426 C 0.33146 0.47248 -0.32054
 C427 C 0.33424 0.45281 -0.28859
 C428 C 0.35400 0.46079 -0.24397
 C429 C 0.37180 0.48871 -0.23136
 C430 C 0.36894 0.50841 -0.26310
 C431 C 0.34870 0.50038 -0.30686
 C432 C 0.39502 0.49758 -0.18990
 C433 C 0.39376 0.48224 -0.14036
 H434 H 0.30845 0.44506 -0.39520
 H435 H 0.32141 0.43122 -0.29900
 H436 H 0.35616 0.44513 -0.22142
 H437 H 0.38269 0.53005 -0.25470
 H438 H 0.34743 0.51602 -0.33178
 H439 H 0.41395 0.51633 -0.19976
 H440 H 0.29957 0.49314 -0.36218
 H441 H 0.37434 0.46509 -0.12639
 C442 C 1.17449 0.70179 -0.39219
 C443 C 1.14665 0.68448 -0.38057
 C444 C 1.13631 0.66981 -0.32373
 C445 C 1.11087 0.66459 -0.30242
 C446 C 1.09906 0.64806 -0.25250
 C447 C 1.11229 0.63596 -0.22385
 C448 C 1.13798 0.64158 -0.24452
 C449 C 1.15009 0.65865 -0.29368
 C450 C 1.09809 0.61466 -0.17820
 C451 C 1.07817 0.61390 -0.14044
 H452 H 1.13158 0.68272 -0.41250
 H453 H 1.09980 0.67278 -0.32537
 H454 H 1.07891 0.64353 -0.23861
 H455 H 1.14832 0.63212 -0.22364
 H456 H 1.16949 0.66190 -0.30999
 H457 H 1.10217 0.59791 -0.17708
 H458 H 1.18859 0.70729 -0.35516
 H459 H 1.07577 0.63161 -0.13565
 C460 C 0.82103 0.52454 -0.38747
 C461 C 0.84955 0.53787 -0.38721
 C462 C 0.86593 0.53893 -0.33493
 C463 C 0.89195 0.54260 -0.34549
 C464 C 0.90723 0.54090 -0.29893
 C465 C 0.89686 0.53565 -0.24050
 C466 C 0.87163 0.53370 -0.22904
 C467 C 0.85613 0.53513 -0.27591
 C468 C 0.91214 0.53199 -0.19165
 C469 C 0.92731 0.51924 -0.20201
 H470 H 0.86028 0.54513 -0.42916
 H471 H 0.90018 0.54594 -0.39032
 H472 H 0.92711 0.54354 -0.30886
 H473 H 0.86353 0.53022 -0.18409
 H474 H 0.83655 0.53306 -0.26563
 H475 H 0.91063 0.53841 -0.14689
 H476 H 0.80979 0.51853 -0.34598
 H477 H 0.92680 0.51067 -0.24562
 C478 C 0.50401 0.32267 -0.38823
 C479 C 0.48921 0.33594 -0.37805
 C480 C 0.49151 0.35136 -0.32326
 C481 C 0.51703 0.36946 -0.29771
 C482 C 0.51902 0.38724 -0.25177
 C483 C 0.49549 0.38656 -0.22976
 C484 C 0.46987 0.36756 -0.25375
 C485 C 0.46798 0.35037 -0.30058
 C486 C 0.49826 0.40786 -0.18745
 C487 C 0.47781 0.40372 -0.14710
 H488 H 0.47357 0.33328 -0.40941
 H489 H 0.53550 0.37094 -0.31545
 H490 H 0.53900 0.40204 -0.23447
 H491 H 0.45145 0.36705 -0.23882
 H492 H 0.44818 0.33677 -0.32032
 H493 H 0.51655 0.42792 -0.19010
 H494 H 0.51513 0.32071 -0.35121
 H495 H 0.46095 0.38327 -0.13839
 C496 C 0.70055 0.18025 -0.38323
 C497 C 0.67230 0.16922 -0.38115
 C498 C 0.65487 0.15423 -0.32968
 C499 C 0.66310 0.14208 -0.28620
 C500 C 0.64462 0.12496 -0.24283
 C501 C 0.61757 0.11972 -0.24216
 C502 C 0.60980 0.13271 -0.28435
 C503 C 0.62819 0.14967 -0.32769
 C504 C 0.59616 0.09934 -0.20219
 C505 C 0.60069 0.08561 -0.15618
 H506 H 0.66220 0.17121 -0.42012
 H507 H 0.68332 0.14461 -0.28714
 H508 H 0.65144 0.11514 -0.21182
 H509 H 0.58912 0.12904 -0.28502
 H510 H 0.62130 0.15867 -0.36086
 H511 H 0.57526 0.09391 -0.21135
 H512 H 0.71180 0.18211 -0.34290
 H513 H 0.62111 0.09118 -0.14254
 C514 C 1.16412 0.45845 -0.39123
 C515 C 1.14518 0.46714 -0.38299
 C516 C 1.13426 0.46897 -0.32415
 C517 C 1.12504 0.48760 -0.31770
 C518 C 1.11373 0.48970 -0.26412
 C519 C 1.11125 0.47308 -0.21530
 C520 C 1.12009 0.45408 -0.22179
 C521 C 1.13171 0.45214 -0.27564
 C522 C 1.09726 0.47379 -0.15987
 C523 C 1.09666 0.49723 -0.14303
 H524 H 1.14002 0.47588 -0.41982
 H525 H 1.12638 0.50051 -0.35458
 H526 H 1.10608 0.50373 -0.26204
 H527 H 1.11781 0.44062 -0.18533
 H528 H 1.13791 0.43700 -0.27961
 H529 H 1.08476 0.45481 -0.13607
 H530 H 1.17143 0.45312 -0.35191
 H531 H 1.11001 0.51636 -0.16538
 C532 C 0.52037 0.70361 -0.39497
 C533 C 0.53463 0.69042 -0.37898
 C534 C 0.52783 0.67251 -0.32661
 C535 C 0.54871 0.67008 -0.29948
 C536 C 0.54267 0.65079 -0.25483
 C537 C 0.51547 0.63319 -0.23710
 C538 C 0.49456 0.63580 -0.26372
 C539 C 0.50069 0.65554 -0.30774
 C540 C 0.50849 0.61045 -0.19544
 C541 C 0.52635 0.61229 -0.15081
 H542 H 0.55242 0.69412 -0.40443
 H543 H 0.56971 0.68269 -0.31401
 H544 H 0.55919 0.64880 -0.23646
 H545 H 0.47343 0.62218 -0.25128
 H546 H 0.48413 0.65656 -0.32899
 H547 H 0.48925 0.59148 -0.20141
 H548 H 0.50658 0.70441 -0.36251
 H549 H 0.54424 0.63187 -0.14033
 C550 C 0.29749 -0.17051 -0.39430
 C551 C 0.31455 -0.14228 -0.38860
 C552 C 0.33226 -0.12985 -0.33619
 C553 C 0.33755 -0.10425 -0.31508
 C554 C 0.35633 -0.09104 -0.26898
 C555 C 0.37068 -0.10293 -0.24468
 C556 C 0.36540 -0.12851 -0.26583
 C557 C 0.34603 -0.14208 -0.31064
 C558 C 0.39305 -0.08777 -0.20180
 C559 C 0.39175 -0.07135 -0.15706
 H560 H 0.31555 -0.12897 -0.42427
 H561 H 0.32742 -0.09434 -0.33487
 H562 H 0.36056 -0.07100 -0.25432
 H563 H 0.37656 -0.13779 -0.24822
 H564 H 0.34278 -0.16153 -0.32722
 H565 H 0.41118 -0.08946 -0.20586
 H566 H 0.29356 -0.18344 -0.35575
 H567 H 0.37276 -0.07183 -0.14798
 C568 C 0.49692 -0.18931 0.36912
 C569 C 0.48040 -0.17778 0.36251
 C570 C 0.48114 -0.16162 0.31017
 C571 C 0.50381 -0.14910 0.27158
 C572 C 0.50573 -0.13031 0.22870
 C573 C 0.48497 -0.12376 0.22362
 C574 C 0.46185 -0.13727 0.26034
 C575 C 0.46000 -0.15589 0.30324
 C576 C 0.48773 -0.10112 0.18583
 C577 C 0.50757 -0.08786 0.14182
 H578 H 0.46711 -0.17950 0.39911
 H579 H 0.52082 -0.15250 0.27647
 H580 H 0.52409 -0.12002 0.20203
 H581 H 0.44556 -0.13266 0.25732
 H582 H 0.44239 -0.16513 0.33254
 H583 H 0.47385 -0.09366 0.19501
 H584 H 0.50740 -0.19141 0.33083
 H585 H 0.52045 -0.09575 0.12715
 C586 C 0.28916 0.45347 0.39375
 C587 C 0.31606 0.47322 0.37996
 C588 C 0.33046 0.47384 0.32448
 C589 C 0.35324 0.49884 0.30768
 C590 C 0.36946 0.50013 0.25959
 C591 C 0.36358 0.47625 0.22790
 C592 C 0.33994 0.45144 0.24255
 C593 C 0.32350 0.45017 0.29068
 C594 C 0.38261 0.47662 0.18204
 C595 C 0.41071 0.49466 0.18654
 H596 H 0.32705 0.49009 0.41099
 H597 H 0.35882 0.51741 0.33260
 H598 H 0.38685 0.51983 0.24806
 H599 H 0.33488 0.43281 0.21846
 H600 H 0.30619 0.43053 0.30283
 H601 H 0.37489 0.46066 0.14826
 H602 H 0.27629 0.43845 0.36071
 H603 H 0.41882 0.50895 0.22351
 C604 C 1.16629 0.70180 0.38860
 C605 C 1.15565 0.67357 0.38323
 C606 C 1.13831 0.65594 0.33395
 C607 C 1.13355 0.62913 0.33047
 C608 C 1.11488 0.61041 0.28967
 C609 C 1.10045 0.61800 0.25121
 C610 C 1.10569 0.64514 0.25327
 C611 C 1.12451 0.66399 0.29437
 C612 C 1.07901 0.59638 0.21319
 C613 C 1.06636 0.60103 0.16519
 H614 H 1.16013 0.66344 0.41858
 H615 H 1.14382 0.62236 0.36060
 H616 H 1.11125 0.58968 0.28913
 H617 H 1.09462 0.65165 0.22514
 H618 H 1.12728 0.68434 0.29662
 H619 H 1.07293 0.57536 0.22353
 H620 H 1.16566 0.71364 0.35159
 H621 H 1.07282 0.62159 0.15047
 C622 C 0.51039 0.19765 0.39690
 C623 C 0.49228 0.17027 0.38269
 C624 C 0.49618 0.15574 0.33238
 C625 C 0.47311 0.13326 0.30710
 C626 C 0.47601 0.11707 0.26393
 C627 C 0.50214 0.12283 0.24598
 C628 C 0.52527 0.14541 0.27103
 C629 C 0.52235 0.16198 0.31349
 C630 C 0.50549 0.10417 0.20521
 C631 C 0.48659 0.08950 0.16058
 H632 H 0.47420 0.15882 0.41003
 H633 H 0.45278 0.12787 0.32174
 H634 H 0.45778 0.09935 0.24671
 H635 H 0.54559 0.14996 0.25838
 H636 H 0.54051 0.17881 0.33340
 H637 H 0.52300 0.10157 0.21115
 H638 H 0.52647 0.21067 0.36614
 H639 H 0.47070 0.09404 0.15006
 C640 C 0.68702 0.49961 0.38545
 C641 C 0.67464 0.51514 0.37633
 C642 C 0.65983 0.51322 0.32106
 C643 C 0.65941 0.53635 0.30061
 C644 C 0.64314 0.53426 0.25194
 C645 C 0.62650 0.50878 0.22407
 C646 C 0.62720 0.48573 0.24406
 C647 C 0.64400 0.48796 0.29171
 C648 C 0.60574 0.50511 0.17998
 C649 C 0.60938 0.52549 0.14029
 H650 H 0.67583 0.52915 0.41095
 H651 H 0.67124 0.55591 0.32314
 H652 H 0.64244 0.55223 0.23838
 H653 H 0.61419 0.46584 0.22375
 H654 H 0.64348 0.46966 0.30750
 H655 H 0.58625 0.48611 0.18098
 H656 H 0.68936 0.48855 0.34849
 H657 H 0.62943 0.54327 0.13330
 C658 C 0.83103 0.30340 0.39824
 C659 C 0.85771 0.31453 0.37710
 C660 C 0.86774 0.33169 0.32308
 C661 C 0.88983 0.33316 0.29149
 C662 C 0.90109 0.35073 0.24278
 C663 C 0.89061 0.36744 0.22530
 C664 C 0.86835 0.36575 0.25655
 C665 C 0.85690 0.34796 0.30477
 C666 C 0.90435 0.38904 0.17990
 C667 C 0.92167 0.38884 0.13588
 H668 H 0.87152 0.30963 0.39979
 H669 H 0.89870 0.32103 0.30522
 H670 H 0.91873 0.35206 0.22083
 H671 H 0.86024 0.37877 0.24454
 H672 H 0.84035 0.34789 0.32906
 H673 H 0.90181 0.40674 0.18337
 H674 H 0.81602 0.30497 0.37154
 H675 H 0.92275 0.37059 0.12706
   
