data_POSCAR
  _audit_creation_date              2014-09-24
  _audit_creation_method            'ToBaCCo'
  _symmetry_space_group_name_H-M    'P1'
  _symmetry_Int_Tables_number       1
  _symmetry_cell_setting            triclinic
  loop_
  _symmetry_equiv_pos_as_xyz
 x,y,z
_cell_length_a 67.0728
_cell_length_b 67.3619
_cell_length_c 66.6766
_cell_angle_alpha 89.912700
_cell_angle_beta 90.108900
_cell_angle_gamma 89.550600
loop_
  _atom_site_label
  _atom_site_type_symbol
  _atom_site_fract_x
  _atom_site_fract_y
  _atom_site_fract_z
C1 C 0.22036 0.51519 1.02559
 H2 H 0.21974 0.52648 1.01403
 C3 C 0.20724 0.51612 1.04179
 H4 H 0.19642 0.52809 1.04190
 C5 C 0.23445 0.48526 1.03787
 H6 H 0.24496 0.47315 1.03618
 C7 C 0.22158 0.48552 1.05431
 H8 H 0.22324 0.47382 1.06530
 N9 N 0.23359 0.49995 1.02392
 C10 C 0.27848 0.52306 0.98305
 H11 H 0.27747 0.51236 0.97101
 C12 C 0.29208 0.53857 0.98178
 H13 H 0.30103 0.53991 0.96837
 C14 C 0.26776 0.53412 1.01498
 H15 H 0.25857 0.53205 1.02809
 C16 C 0.28149 0.54961 1.01454
 H17 H 0.28267 0.55920 1.02748
 Zn18 Zn 0.24948 0.49900 1.00056
 N19 N 0.26648 0.52126 0.99934
 C20 C 0.23200 0.51305 0.96417
 N21 N 0.23180 0.49853 0.97837
 C22 C 0.21806 0.48381 0.97782
 C23 C 0.20397 0.48312 0.96240
 C24 C 0.21825 0.51288 0.94843
 C25 C 0.28089 0.47615 1.01506
 C26 C 0.29472 0.46061 1.01584
 C27 C 0.27796 0.44535 0.98776
 C28 C 0.26454 0.46133 0.98738
 N29 N 0.26621 0.47628 1.00098
 H30 H 0.24259 0.52498 0.96512
 H31 H 0.21792 0.47271 0.98957
 H32 H 0.19295 0.47146 0.96248
 H33 H 0.21887 0.52444 0.93715
 H34 H 0.28196 0.48832 1.02556
 H35 H 0.30633 0.46078 1.02714
 H36 H 0.27664 0.43367 0.97670
 H37 H 0.25302 0.46190 0.97605
 C38 C 0.29394 0.55204 0.99776
 C39 C 0.20742 0.50103 1.05655
 C40 C 0.29341 0.44499 1.00201
 C41 C 0.20392 0.49782 0.94742
 C42 C 0.78043 0.51255 -0.02135
 H43 H 0.78086 0.52393 -0.00992
 C44 C 0.79431 0.51271 -0.03694
 H45 H 0.80546 0.52423 -0.03729
 C46 C 0.76594 0.48318 -0.03407
 H47 H 0.75517 0.47145 -0.03272
 C48 C 0.77944 0.48283 -0.04997
 H49 H 0.77847 0.47106 -0.06095
 N50 N 0.76650 0.49803 -0.02028
 C51 C 0.71681 0.52143 0.01460
 H52 H 0.71541 0.50952 0.02540
 C53 C 0.70297 0.53698 0.01446
 H54 H 0.69101 0.53708 0.02535
 C55 C 0.73403 0.53559 -0.01287
 H56 H 0.74591 0.53479 -0.02375
 C57 C 0.72062 0.55158 -0.01339
 H58 H 0.72232 0.56301 -0.02469
 Zn59 Zn 0.74888 0.49841 0.00192
 N60 N 0.73195 0.52099 0.00107
 C61 C 0.76280 0.51350 0.03916
 N62 N 0.76472 0.49875 0.02539
 C63 C 0.77892 0.48437 0.02737
 C64 C 0.79202 0.48453 0.04366
 C65 C 0.77551 0.51417 0.05576
 C66 C 0.71969 0.47362 -0.01415
 C67 C 0.70621 0.45796 -0.01462
 C68 C 0.71796 0.44775 0.01809
 C69 C 0.73151 0.46340 0.01776
 N70 N 0.73214 0.47593 0.00177
 H71 H 0.75159 0.52495 0.03718
 H72 H 0.78030 0.47298 0.01602
 H73 H 0.80356 0.47324 0.04463
 H74 H 0.77364 0.52597 0.06661
 H75 H 0.72022 0.48404 -0.02649
 H76 H 0.69684 0.45623 -0.02772
 H77 H 0.71731 0.43840 0.03128
 H78 H 0.74112 0.46583 0.03053
 C79 C 0.70476 0.55228 0.00030
 C80 C 0.79392 0.49771 -0.05156
 C81 C 0.70500 0.44484 0.00175
 C82 C 0.79050 0.49965 0.05809
 C83 C -0.01609 0.27911 0.47115
 H84 H -0.02850 0.27842 0.48147
 C85 C -0.01645 0.29275 0.45538
 H86 H -0.02920 0.30262 0.45433
 C87 C 0.01601 0.26788 0.46167
 H88 H 0.02881 0.25844 0.46438
 C89 C 0.01636 0.28136 0.44575
 H90 H 0.02926 0.28109 0.43606
 N91 N -0.00011 0.26692 0.47392
 C92 C -0.02604 0.22177 0.51265
 H93 H -0.01616 0.22290 0.52543
 C94 C -0.04174 0.20831 0.51300
 H95 H -0.04406 0.19958 0.52642
 C96 C -0.03482 0.23201 0.47979
 H97 H -0.03173 0.24092 0.46668
 C98 C -0.05047 0.21845 0.47933
 H99 H -0.05922 0.21712 0.46575
 Zn100 Zn -0.00040 0.25003 0.49664
 N101 N -0.02301 0.23344 0.49632
 C102 C -0.01604 0.26759 0.53237
 N103 N -0.00041 0.26675 0.51941
 C104 C 0.01553 0.27891 0.52155
 C105 C 0.01632 0.29245 0.53733
 C106 C -0.01584 0.28089 0.54844
 C107 C 0.02520 0.22149 0.48043
 C108 C 0.04104 0.20796 0.47989
 C109 C 0.04974 0.21758 0.51365
 C110 C 0.03396 0.23125 0.51337
 N111 N 0.02213 0.23299 0.49687
 H112 H -0.02889 0.25831 0.53006
 H113 H 0.02762 0.27812 0.51085
 H114 H 0.02922 0.30189 0.53885
 H115 H -0.02854 0.28160 0.55841
 H116 H 0.01532 0.22290 0.46765
 H117 H 0.04344 0.19944 0.46636
 H118 H 0.05854 0.21604 0.52719
 H119 H 0.03086 0.24007 0.52654
 C120 C -0.05412 0.20628 0.49609
 C121 C 0.00001 0.29428 0.44227
 C122 C 0.05350 0.20565 0.49674
 C123 C 0.00045 0.29362 0.55100
 C124 C 0.98561 0.71989 0.52618
 H125 H 0.97439 0.71991 0.51450
 C126 C 0.98483 0.70585 0.54158
 H127 H 0.97297 0.69504 0.54158
 C128 C 1.01525 0.73338 0.53969
 H129 H 1.02735 0.74378 0.53869
 C130 C 1.01504 0.71960 0.55536
 H131 H 1.02677 0.71996 0.56653
 N132 N 1.00055 0.73341 0.52560
 C133 C 0.97788 0.78205 0.48865
 H134 H 0.99003 0.78309 0.47806
 C135 C 0.96222 0.79579 0.48790
 H136 H 0.96228 0.80728 0.47653
 C137 C 0.96328 0.76597 0.51659
 H138 H 0.96399 0.75465 0.52805
 C139 C 0.94719 0.77929 0.51624
 H140 H 0.93560 0.77806 0.52744
 Zn141 Zn 1.00111 0.75106 0.50345
 N142 N 0.97817 0.76756 0.50286
 C143 C 0.98784 0.73583 0.46593
 N144 N 1.00244 0.73522 0.48012
 C145 C 1.01795 0.72219 0.47878
 C146 C 1.01919 0.70898 0.46273
 C147 C 0.98849 0.72286 0.44960
 C148 C 1.02502 0.77994 0.52133
 C149 C 1.04054 0.79354 0.52280
 C150 C 1.05188 0.78323 0.49005
 C151 C 1.03637 0.76953 0.48939
 N152 N 1.02336 0.76811 0.50493
 H153 H 0.97542 0.74601 0.46750
 H154 H 1.02924 0.72192 0.49039
 H155 H 1.03170 0.69876 0.46193
 H156 H 0.97649 0.72320 0.43872
 H157 H 1.01422 0.77880 0.53330
 H158 H 1.04178 0.80239 0.53627
 H159 H 1.06160 0.78452 0.47719
 H160 H 1.03440 0.76045 0.47620
 C161 C 0.94668 0.79456 0.50189
 C162 C 0.99971 0.70555 0.55642
 C163 C 1.05417 0.79553 0.50693
 C164 C 1.00423 0.70906 0.44796
 C165 C 0.47419 -0.01977 0.27960
 H166 H 0.48614 -0.03060 0.28071
 C167 C 0.45834 -0.02035 0.29312
 H168 H 0.45835 -0.03161 0.30472
 C169 C 0.46035 0.00864 0.26368
 H170 H 0.46135 0.02011 0.25241
 C171 C 0.44415 0.00854 0.27681
 H172 H 0.43262 0.01975 0.27515
 N173 N 0.47490 -0.00546 0.26524
 C174 C 0.51328 -0.02924 0.21828
 H175 H 0.52461 -0.01791 0.21781
 C176 C 0.51400 -0.04502 0.20477
 H177 H 0.52586 -0.04511 0.19382
 C178 C 0.48342 -0.04137 0.23238
 H179 H 0.47143 -0.03979 0.24307
 C180 C 0.48339 -0.05730 0.21901
 H181 H 0.47160 -0.06806 0.22042
 Zn182 Zn 0.49769 -0.00514 0.24856
 N183 N 0.49825 -0.02777 0.23181
 C184 C 0.53460 -0.01909 0.26469
 N185 N 0.52026 -0.00473 0.26564
 C186 C 0.52099 0.00984 0.27971
 C187 C 0.53666 0.01043 0.29350
 C188 C 0.55060 -0.01900 0.27812
 C189 C 0.48262 0.01817 0.21738
 C190 C 0.48191 0.03378 0.20362
 C191 C 0.51145 0.04733 0.21903
 C192 C 0.51159 0.03144 0.23252
 N193 N 0.49724 0.01732 0.23152
 H194 H 0.53358 -0.03079 0.25370
 H195 H 0.50918 0.02085 0.28037
 H196 H 0.53669 0.02192 0.30483
 H197 H 0.56196 -0.03043 0.27695
 H198 H 0.47156 0.00658 0.21675
 H199 H 0.47001 0.03427 0.19263
 H200 H 0.52320 0.05824 0.21982
 H201 H 0.52336 0.03025 0.24354
 C202 C 0.49881 -0.05944 0.20474
 C203 C 0.44304 -0.00603 0.29188
 C204 C 0.49651 0.04860 0.20426
 C205 C 0.55174 -0.00416 0.29286
 C206 C 0.52816 -0.01213 0.71990
 H207 H 0.51660 -0.02318 0.71874
 C208 C 0.54424 -0.01252 0.70663
 H209 H 0.54483 -0.02389 0.69519
 C210 C 0.54073 0.01671 0.73563
 H211 H 0.53915 0.02829 0.74670
 C212 C 0.55711 0.01682 0.72273
 H213 H 0.56819 0.02830 0.72438
 N214 N 0.52670 0.00232 0.73404
 C215 C 0.48830 -0.02037 0.78135
 H216 H 0.47717 -0.00867 0.78177
 C217 C 0.48732 -0.03611 0.79493
 H218 H 0.47516 -0.03655 0.80557
 C219 C 0.51760 -0.03391 0.76681
 H220 H 0.52955 -0.03282 0.75604
 C221 C 0.51720 -0.04993 0.78014
 H222 H 0.52895 -0.06102 0.77950
 Zn223 Zn 0.50359 0.00269 0.75030
 N224 N 0.50317 -0.01963 0.76755
 C225 C 0.46686 -0.01145 0.73457
 N226 N 0.48126 0.00256 0.73288
 C227 C 0.48061 0.01642 0.71805
 C228 C 0.46494 0.01666 0.70424
 C229 C 0.45083 -0.01166 0.72118
 C230 C 0.51726 0.02700 0.78126
 C231 C 0.51725 0.04310 0.79440
 C232 C 0.48789 0.05591 0.77760
 C233 C 0.48850 0.03957 0.76474
 N234 N 0.50311 0.02558 0.76672
 H235 H 0.46778 -0.02257 0.74621
 H236 H 0.49244 0.02718 0.71685
 H237 H 0.46496 0.02758 0.69232
 H238 H 0.43938 -0.02274 0.72302
 H239 H 0.52849 0.01546 0.78273
 H240 H 0.52847 0.04380 0.80606
 H241 H 0.47623 0.06697 0.77572
 H242 H 0.47717 0.03800 0.75334
 C243 C 0.50192 -0.05117 0.79447
 C244 C 0.55897 0.00215 0.70788
 C245 C 0.50238 0.05781 0.79271
 C246 C 0.44974 0.00248 0.70568
 C247 C 0.28018 0.01378 0.47619
 H248 H 0.28069 0.02575 0.48697
 C249 C 0.29347 0.01348 0.46011
 H250 H 0.30431 0.02522 0.45877
 C251 C 0.26598 -0.01653 0.46555
 H252 H 0.25557 -0.02843 0.46794
 C253 C 0.27891 -0.01736 0.44917
 H254 H 0.27786 -0.02970 0.43885
 N255 N 0.26671 -0.00101 0.47855
 C256 C 0.22176 0.02705 0.51650
 H257 H 0.22225 0.01727 0.52938
 C258 C 0.20866 0.04324 0.51628
 H259 H 0.19909 0.04595 0.52907
 C260 C 0.23308 0.03496 0.48380
 H261 H 0.24236 0.03145 0.47105
 C262 C 0.21985 0.05106 0.48277
 H263 H 0.21921 0.06005 0.46931
 Zn264 Zn 0.25016 0.00038 0.50149
 N265 N 0.23382 0.02337 0.50053
 C266 C 0.26765 0.01634 0.53701
 N267 N 0.26729 0.00075 0.52408
 C268 C 0.28017 -0.01481 0.52615
 C269 C 0.29402 -0.01518 0.54180
 C270 C 0.28117 0.01651 0.55297
 C271 C 0.22019 -0.02421 0.48694
 C272 C 0.20641 -0.03960 0.48713
 C273 C 0.21813 -0.04880 0.52016
 C274 C 0.23198 -0.03344 0.51916
 N275 N 0.23279 -0.02157 0.50267
 H276 H 0.25770 0.02883 0.53485
 H277 H 0.27982 -0.02683 0.51542
 H278 H 0.30441 -0.02752 0.54285
 H279 H 0.28102 0.02895 0.56322
 H280 H 0.22090 -0.01431 0.47417
 H281 H 0.19697 -0.04167 0.47414
 H282 H 0.21737 -0.05765 0.53369
 H283 H 0.24171 -0.03070 0.53177
 C284 C 0.20751 0.05533 0.49919
 C285 C 0.29296 -0.00225 0.44630
 C286 C 0.20505 -0.05209 0.50399
 C287 C 0.29469 0.00065 0.55548
 C288 C 0.72122 0.01644 0.52275
 H289 H 0.71978 0.02723 0.51079
 C290 C 0.70841 0.01731 0.53921
 H291 H 0.69702 0.02878 0.53968
 C292 C 0.73724 -0.01219 0.53601
 H293 H 0.74829 -0.02385 0.53455
 C294 C 0.72479 -0.01183 0.55277
 H295 H 0.72670 -0.02306 0.56427
 N296 N 0.73525 0.00184 0.52144
 C297 C 0.77948 0.02501 0.47989
 H298 H 0.77875 0.01401 0.46811
 C299 C 0.79286 0.04070 0.47836
 H300 H 0.80194 0.04186 0.46503
 C301 C 0.76829 0.03667 0.51144
 H302 H 0.75899 0.03479 0.52451
 C303 C 0.78175 0.05238 0.51072
 H304 H 0.78264 0.06233 0.52342
 Zn305 Zn 0.75078 0.00088 0.49782
 N306 N 0.76740 0.02340 0.49613
 C307 C 0.73290 0.01413 0.46134
 N308 N 0.73281 -0.00006 0.47587
 C309 C 0.71905 -0.01478 0.47579
 C310 C 0.70485 -0.01582 0.46050
 C311 C 0.71904 0.01360 0.44571
 C312 C 0.78293 -0.02135 0.51179
 C313 C 0.79682 -0.03685 0.51255
 C314 C 0.77927 -0.05285 0.48541
 C315 C 0.76579 -0.03690 0.48503
 N316 N 0.76780 -0.02163 0.49820
 H317 H 0.74354 0.02605 0.46190
 H318 H 0.71901 -0.02561 0.48779
 H319 H 0.69383 -0.02747 0.46094
 H320 H 0.71960 0.02487 0.43414
 H321 H 0.78427 -0.00893 0.52196
 H322 H 0.80874 -0.03638 0.52350
 H323 H 0.77763 -0.06481 0.47471
 H324 H 0.75392 -0.03667 0.47407
 C325 C 0.79434 0.05458 0.49402
 C326 C 0.71001 0.00298 0.55447
 C327 C 0.79511 -0.05284 0.49921
 C328 C 0.70470 -0.00149 0.44516
 C329 C 0.48443 0.21780 1.02431
 H330 H 0.47304 0.21818 1.01280
 C331 C 0.48358 0.20360 1.03955
 H332 H 0.47150 0.19303 1.03961
 C333 C 0.51447 0.23059 1.03760
 H334 H 0.52673 0.24082 1.03659
 C335 C 0.51421 0.21663 1.05311
 H336 H 0.52607 0.21666 1.06415
 N337 N 0.49957 0.23108 1.02373
 C338 C 0.47703 0.28125 0.98885
 H339 H 0.48909 0.28257 0.97819
 C340 C 0.46145 0.29508 0.98870
 H341 H 0.46149 0.30696 0.97774
 C342 C 0.46251 0.26423 1.01625
 H343 H 0.46319 0.25248 1.02726
 C344 C 0.44649 0.27763 1.01648
 H345 H 0.43492 0.27603 1.02767
 Zn346 Zn 0.49993 0.24926 1.00201
 N347 N 0.47730 0.26621 1.00247
 C348 C 0.48546 0.23576 0.96432
 N349 N 0.50026 0.23407 0.97820
 C350 C 0.51522 0.22051 0.97610
 C351 C 0.51570 0.20791 0.95951
 C352 C 0.48536 0.22345 0.94748
 C353 C 0.52484 0.27734 1.01984
 C354 C 0.54059 0.29070 1.02110
 C355 C 0.55092 0.28075 0.98791
 C356 C 0.53520 0.26727 0.98745
 N357 N 0.52256 0.26581 1.00329
 H358 H 0.47353 0.24641 0.96642
 H359 H 0.52663 0.21930 0.98754
 H360 H 0.52749 0.19690 0.95839
 H361 H 0.47349 0.22504 0.93656
 H362 H 0.51433 0.27617 1.03206
 H363 H 0.54229 0.29933 1.03466
 H364 H 0.56032 0.28211 0.97481
 H365 H 0.53276 0.25844 0.97417
 C366 C 0.44594 0.29338 1.00267
 C367 C 0.49861 0.20290 1.05424
 C368 C 0.55380 0.29277 1.00489
 C369 C 0.50055 0.20918 0.94498
 C370 C 0.48235 0.77791 -0.02820
 H371 H 0.47092 0.77784 -0.01677
 C372 C 0.48141 0.79171 -0.04379
 H373 H 0.46899 0.80205 -0.04446
 C374 C 0.51257 0.76458 -0.04095
 H375 H 0.52492 0.75429 -0.03950
 C376 C 0.51221 0.77814 -0.05684
 H377 H 0.52437 0.77813 -0.06750
 N378 N 0.49779 0.76477 -0.02701
 C379 C 0.47521 0.71840 0.01234
 H380 H 0.48599 0.71910 0.02441
 C381 C 0.45976 0.70468 0.01320
 H382 H 0.45855 0.69531 0.02633
 C383 C 0.46385 0.73008 -0.01922
 H384 H 0.46576 0.73973 -0.03201
 C385 C 0.44841 0.71627 -0.01919
 H386 H 0.43871 0.71548 -0.03214
 Zn387 Zn 0.49888 0.74827 -0.00410
 N388 N 0.47681 0.73094 -0.00355
 C389 C 0.48449 0.76416 0.03282
 N390 N 0.49890 0.76524 0.01854
 C391 C 0.51325 0.77935 0.01937
 C392 C 0.51369 0.79292 0.03518
 C393 C 0.48444 0.77733 0.04896
 C394 C 0.52263 0.71769 -0.01885
 C395 C 0.53838 0.70404 -0.01932
 C396 C 0.55289 0.72049 0.00933
 C397 C 0.53672 0.73371 0.00940
 N398 N 0.52201 0.73207 -0.00457
 H399 H 0.47284 0.75326 0.03167
 H400 H 0.52426 0.78019 0.00757
 H401 H 0.52504 0.80425 0.03531
 H402 H 0.47301 0.77598 0.06032
 H403 H 0.51064 0.71661 -0.02965
 H404 H 0.53855 0.69257 -0.03069
 H405 H 0.56430 0.72173 0.02076
 H406 H 0.53575 0.74497 0.02088
 C407 C 0.44615 0.70329 -0.00280
 C408 C 0.49660 0.79210 -0.05826
 C409 C 0.55368 0.70527 -0.00501
 C410 C 0.49914 0.79203 0.05028
 C411 C 1.02338 0.48935 0.21958
 H412 H 1.01180 0.47826 0.21900
 C413 C 1.03913 0.48861 0.20594
 H414 H 1.03951 0.47694 0.19480
 C415 C 1.03644 0.51844 0.23440
 H416 H 1.03522 0.53020 0.24532
 C417 C 1.05244 0.51829 0.22101
 H418 H 1.06359 0.52978 0.22207
 N419 N 1.02242 0.50398 0.23357
 C420 C 0.98643 0.48056 0.28244
 H421 H 0.97547 0.49235 0.28379
 C422 C 0.98614 0.46456 0.29576
 H423 H 0.97495 0.46424 0.30744
 C424 C 1.01482 0.46722 0.26604
 H425 H 1.02616 0.46843 0.25465
 C426 C 1.01507 0.45093 0.27904
 H427 H 1.02642 0.43957 0.27719
 Zn428 Zn 1.00022 0.50425 0.25108
 N429 N 1.00052 0.48153 0.26785
 C430 C 0.96284 0.49046 0.23674
 N431 N 0.97697 0.50473 0.23495
 C432 C 0.97546 0.51916 0.22075
 C433 C 0.95921 0.51968 0.20764
 C434 C 0.94629 0.49048 0.22401
 C435 C 1.01620 0.52744 0.28161
 C436 C 1.01729 0.54302 0.29531
 C437 C 0.98700 0.55673 0.28112
 C438 C 0.98650 0.54087 0.26765
 N439 N 1.00103 0.52667 0.26809
 H440 H 0.96446 0.47890 0.24786
 H441 H 0.98710 0.53012 0.21944
 H442 H 0.95856 0.53104 0.19615
 H443 H 0.93512 0.47911 0.22583
 H444 H 1.02743 0.51581 0.28178
 H445 H 1.02962 0.54343 0.30580
 H446 H 0.97511 0.56769 0.28080
 H447 H 0.97432 0.53975 0.25709
 C448 C 1.00060 0.44946 0.29417
 C449 C 1.05395 0.50322 0.20655
 C450 C 1.00250 0.55789 0.29527
 C451 C 0.94436 0.50515 0.20910
 C452 C -0.02601 0.48152 0.78024
 H453 H -0.01417 0.47055 0.78112
 C454 C -0.04180 0.48089 0.79383
 H455 H -0.04188 0.46943 0.80522
 C456 C -0.03953 0.51042 0.76496
 H457 H -0.03841 0.52212 0.75395
 C458 C -0.05566 0.51030 0.77818
 H459 H -0.06702 0.52172 0.77684
 N460 N -0.02514 0.49613 0.76620
 C461 C 0.01373 0.47371 0.71896
 H462 H 0.02495 0.48516 0.71889
 C463 C 0.01472 0.45828 0.70505
 H464 H 0.02700 0.45780 0.69454
 C465 C -0.01590 0.46060 0.73280
 H466 H -0.02802 0.46179 0.74339
 C467 C -0.01553 0.44493 0.71910
 H468 H -0.02747 0.43421 0.71928
 Zn469 Zn -0.00220 0.49679 0.74977
 N470 N -0.00135 0.47454 0.73252
 C471 C 0.03470 0.48274 0.76594
 N472 N 0.02017 0.49689 0.76712
 C473 C 0.02057 0.51109 0.78157
 C474 C 0.03612 0.51158 0.79548
 C475 C 0.05060 0.48273 0.77950
 C476 C -0.01684 0.52102 0.71898
 C477 C -0.01722 0.53700 0.70563
 C478 C 0.01225 0.54984 0.72178
 C479 C 0.01205 0.53362 0.73485
 N480 N -0.00241 0.51966 0.73328
 H481 H 0.03394 0.47133 0.75462
 H482 H 0.00861 0.52193 0.78240
 H483 H 0.03592 0.52281 0.80708
 H484 H 0.06215 0.47150 0.77813
 H485 H -0.02792 0.50949 0.71781
 H486 H -0.02864 0.53762 0.69414
 H487 H 0.02382 0.56086 0.72332
 H488 H 0.02362 0.53209 0.74604
 C489 C -0.00011 0.44368 0.70489
 C490 C -0.05687 0.49548 0.79299
 C491 C -0.00248 0.55164 0.70687
 C492 C 0.05144 0.49726 0.79458
 C493 C 0.10102 0.16178 0.49705
 C494 C 0.10291 0.17959 0.50786
 C495 C 0.08767 0.19388 0.50759
 C496 C 0.06996 0.19062 0.49679
 C497 C 0.06804 0.17275 0.48609
 C498 C 0.08341 0.15865 0.48604
 C499 C 0.11721 0.14646 0.49729
 C500 C 0.11262 0.12613 0.49613
 C501 C 0.12775 0.11177 0.49594
 C502 C 0.14778 0.11736 0.49736
 C503 C 0.15250 0.13754 0.49886
 C504 C 0.13739 0.15197 0.49861
 C505 C 0.16367 0.10205 0.49739
 C506 C 0.17768 0.10120 0.51304
 C507 C 0.19204 0.08605 0.51359
 C508 C 0.19288 0.07182 0.49825
 C509 C 0.17919 0.07297 0.48233
 C510 C 0.16456 0.08785 0.48202
 H511 H 0.11608 0.18246 0.51677
 H512 H 0.08989 0.20755 0.51578
 H513 H 0.05454 0.16943 0.47789
 H514 H 0.08147 0.14534 0.47721
 H515 H 0.09731 0.12121 0.49562
 H516 H 0.12380 0.09624 0.49504
 H517 H 0.16791 0.14214 0.49984
 H518 H 0.14160 0.16744 0.49915
 H519 H 0.17716 0.11197 0.52508
 H520 H 0.20250 0.08542 0.52598
 H521 H 0.17952 0.06205 0.47043
 H522 H 0.15392 0.08830 0.46978
 C523 C 0.66118 0.59960 -0.00104
 C524 C 0.65526 0.57965 0.00038
 C525 C 0.66942 0.56436 0.00082
 C526 C 0.68984 0.56860 -0.00040
 C527 C 0.69583 0.58846 -0.00216
 C528 C 0.68165 0.60381 -0.00237
 C529 C 0.64599 0.61583 -0.00110
 C530 C 0.64847 0.63286 -0.01307
 C531 C 0.63387 0.64781 -0.01345
 C532 C 0.61641 0.64594 -0.00204
 C533 C 0.61402 0.62909 0.01010
 C534 C 0.62868 0.61428 0.01067
 C535 C 0.60049 0.66127 -0.00305
 C536 C 0.58051 0.65564 -0.00539
 C537 C 0.56538 0.66997 -0.00625
 C538 C 0.56990 0.69022 -0.00456
 C539 C 0.58988 0.69589 -0.00217
 C540 C 0.60507 0.68154 -0.00158
 H541 H 0.63963 0.57580 0.00094
 H542 H 0.66439 0.54916 0.00184
 H543 H 0.71150 0.59211 -0.00296
 H544 H 0.68677 0.61899 -0.00321
 H545 H 0.66146 0.63444 -0.02252
 H546 H 0.63598 0.66059 -0.02306
 H547 H 0.60083 0.62746 0.01928
 H548 H 0.62647 0.60163 0.02043
 H549 H 0.57661 0.64013 -0.00672
 H550 H 0.55008 0.66520 -0.00791
 H551 H 0.59374 0.71142 -0.00092
 H552 H 0.62036 0.68623 0.00033
 C553 C 0.89970 -0.16155 0.50216
 C554 C 0.89517 -0.18181 0.50391
 C555 C 0.91042 -0.19611 0.50394
 C556 C 0.93042 -0.19041 0.50191
 C557 C 0.93490 -0.17016 0.50001
 C558 C 0.91971 -0.15588 0.50023
 C559 C 0.88369 -0.14627 0.50234
 C560 C 0.88580 -0.12903 0.51393
 C561 C 0.87109 -0.11426 0.51364
 C562 C 0.85400 -0.11625 0.50157
 C563 C 0.85178 -0.13367 0.49017
 C564 C 0.86644 -0.14856 0.49063
 C565 C 0.83879 -0.10007 0.50068
 C566 C 0.81834 -0.10438 0.49918
 C567 C 0.80414 -0.08907 0.49849
 C568 C 0.81007 -0.06914 0.49947
 C569 C 0.83047 -0.06482 0.50084
 C570 C 0.84466 -0.08008 0.50134
 H571 H 0.87987 -0.18654 0.50553
 H572 H 0.90658 -0.21164 0.50532
 H573 H 0.95021 -0.16536 0.49862
 H574 H 0.92359 -0.14038 0.49868
 H575 H 0.89882 -0.12705 0.52334
 H576 H 0.87309 -0.10129 0.52298
 H577 H 0.83896 -0.13560 0.48051
 H578 H 0.86454 -0.16164 0.48142
 H579 H 0.81327 -0.11960 0.49891
 H580 H 0.78849 -0.09280 0.49760
 H581 H 0.83546 -0.04957 0.50127
 H582 H 0.86027 -0.07618 0.50200
 C583 C 0.33731 0.39796 1.00319
 C584 C 0.34304 0.41796 1.00455
 C585 C 0.32877 0.43315 1.00417
 C586 C 0.30844 0.42875 1.00220
 C587 C 0.30265 0.40883 1.00052
 C588 C 0.31693 0.39358 1.00111
 C589 C 0.35261 0.38185 1.00392
 C590 C 0.35073 0.36476 0.99198
 C591 C 0.36549 0.34997 0.99226
 C592 C 0.38252 0.35205 1.00434
 C593 C 0.38429 0.36895 1.01647
 C594 C 0.36947 0.38362 1.01636
 C595 C 0.39866 0.33692 1.00396
 C596 C 0.41865 0.34279 1.00245
 C597 C 0.43395 0.32863 1.00194
 C598 C 0.42961 0.30830 1.00314
 C599 C 0.40963 0.30240 1.00480
 C600 C 0.39428 0.31658 1.00505
 H601 H 0.35861 0.42193 1.00567
 H602 H 0.33367 0.44840 1.00513
 H603 H 0.28704 0.40505 0.99915
 H604 H 0.31196 0.37835 1.00028
 H605 H 0.33810 0.36302 0.98202
 H606 H 0.36387 0.33715 0.98263
 H607 H 0.39713 0.37076 1.02616
 H608 H 0.37120 0.39633 1.02611
 H609 H 0.42242 0.35836 1.00141
 H610 H 0.44924 0.33358 1.00083
 H611 H 0.40589 0.28681 1.00564
 H612 H 0.37899 0.31169 1.00634
 C613 C 0.89947 0.16202 0.49466
 C614 C 0.89710 0.18013 0.48435
 C615 C 0.91197 0.19456 0.48500
 C616 C 0.92975 0.19117 0.49574
 C617 C 0.93212 0.17304 0.50600
 C618 C 0.91713 0.15878 0.50564
 C619 C 0.88375 0.14651 0.49391
 C620 C 0.88897 0.12624 0.49425
 C621 C 0.87431 0.11165 0.49399
 C622 C 0.85398 0.11684 0.49296
 C623 C 0.84875 0.13711 0.49233
 C624 C 0.86342 0.15174 0.49296
 C625 C 0.83840 0.10117 0.49270
 C626 C 0.81987 0.10424 0.50211
 C627 C 0.80548 0.08933 0.50223
 C628 C 0.80933 0.07081 0.49323
 C629 C 0.82783 0.06780 0.48376
 C630 C 0.84206 0.08281 0.48332
 H631 H 0.88386 0.18310 0.47551
 H632 H 0.90943 0.20843 0.47714
 H633 H 0.94569 0.16965 0.51415
 H634 H 0.91941 0.14523 0.51411
 H635 H 0.90444 0.12156 0.49459
 H636 H 0.87899 0.09626 0.49485
 H637 H 0.83330 0.14173 0.49123
 H638 H 0.85876 0.16715 0.49294
 H639 H 0.81655 0.11805 0.50972
 H640 H 0.79132 0.09238 0.50938
 H641 H 0.83156 0.05369 0.47695
 H642 H 0.85595 0.07997 0.47558
 C643 C 0.33844 0.59825 -0.00328
 C644 C 0.32021 0.60117 0.00674
 C645 C 0.30569 0.58639 0.00680
 C646 C 0.30912 0.56811 -0.00283
 C647 C 0.32737 0.56520 -0.01282
 C648 C 0.34170 0.58012 -0.01324
 C649 C 0.35409 0.61388 -0.00318
 C650 C 0.37443 0.60864 -0.00323
 C651 C 0.38913 0.62320 -0.00331
 C652 C 0.38396 0.64348 -0.00287
 C653 C 0.36362 0.64874 -0.00263
 C654 C 0.34890 0.63416 -0.00297
 C655 C 0.39974 0.65897 -0.00263
 C656 C 0.39671 0.67740 -0.01216
 C657 C 0.41158 0.69184 -0.01199
 C658 C 0.43005 0.68813 -0.00260
 C659 C 0.43308 0.66966 0.00686
 C660 C 0.41808 0.65540 0.00704
 H661 H 0.31720 0.61478 0.01482
 H662 H 0.29174 0.58938 0.01438
 H663 H 0.33082 0.55126 -0.02012
 H664 H 0.35534 0.57739 -0.02146
 H665 H 0.37911 0.59323 -0.00301
 H666 H 0.40457 0.61848 -0.00388
 H667 H 0.35899 0.66415 -0.00199
 H668 H 0.33343 0.63886 -0.00324
 H669 H 0.38294 0.68066 -0.02003
 H670 H 0.40850 0.70596 -0.01916
 H671 H 0.44716 0.66600 0.01395
 H672 H 0.42091 0.64159 0.01490
 C673 C 0.10035 -0.15995 0.50834
 C674 C 0.08205 -0.15677 0.51814
 C675 C 0.06715 -0.17114 0.51765
 C676 C 0.07025 -0.18931 0.50771
 C677 C 0.08872 -0.19267 0.49828
 C678 C 0.10348 -0.17814 0.49844
 C679 C 0.11590 -0.14424 0.50817
 C680 C 0.13631 -0.14922 0.50819
 C681 C 0.15082 -0.13443 0.50757
 C682 C 0.14533 -0.11423 0.50725
 C683 C 0.12492 -0.10927 0.50757
 C684 C 0.11044 -0.12404 0.50781
 C685 C 0.16073 -0.09840 0.50641
 C686 C 0.15699 -0.08060 0.49595
 C687 C 0.17123 -0.06561 0.49535
 C688 C 0.18984 -0.06811 0.50482
 C689 C 0.19369 -0.08599 0.51511
 C690 C 0.17928 -0.10086 0.51603
 H691 H 0.07916 -0.14316 0.52627
 H692 H 0.05307 -0.16777 0.52482
 H693 H 0.09185 -0.20657 0.49076
 H694 H 0.11724 -0.18109 0.49049
 H695 H 0.14116 -0.16457 0.50878
 H696 H 0.16634 -0.13890 0.50706
 H697 H 0.12004 -0.09392 0.50774
 H698 H 0.09492 -0.11953 0.50744
 H699 H 0.14307 -0.07823 0.48803
 H700 H 0.16748 -0.05196 0.48759
 H701 H 0.20792 -0.08863 0.52235
 H702 H 0.18266 -0.11420 0.52448
 C703 C 0.66092 0.39827 1.00306
 C704 C 0.65708 0.41628 0.99302
 C705 C 0.67128 0.43131 0.99269
 C706 C 0.68995 0.42866 1.00202
 C707 C 0.69393 0.41052 1.01179
 C708 C 0.67956 0.39560 1.01243
 C709 C 0.64547 0.38248 1.00385
 C710 C 0.65087 0.36226 1.00377
 C711 C 0.63631 0.34752 1.00453
 C712 C 0.61592 0.35260 1.00505
 C713 C 0.61055 0.37283 1.00501
 C714 C 0.62510 0.38753 1.00463
 C715 C 0.60030 0.33697 1.00550
 C716 C 0.58231 0.34014 1.01585
 C717 C 0.56732 0.32587 1.01563
 C718 C 0.57002 0.30779 1.00543
 C719 C 0.58820 0.30441 0.99545
 C720 C 0.60306 0.31886 0.99534
 H721 H 0.64309 0.41881 0.98528
 H722 H 0.66744 0.44515 0.98531
 H723 H 0.70820 0.40775 1.01889
 H724 H 0.68302 0.38207 1.02055
 H725 H 0.66636 0.35773 1.00290
 H726 H 0.64109 0.33215 1.00484
 H727 H 0.59505 0.37740 1.00504
 H728 H 0.62029 0.40290 1.00510
 H729 H 0.57972 0.35369 1.02418
 H730 H 0.55346 0.32925 1.02323
 H731 H 0.59103 0.29058 0.98770
 H732 H 0.61657 0.31592 0.98698
 C733 C 0.49626 0.09611 1.16082
 C734 C 0.49145 0.07665 1.15510
 C735 C 0.49153 0.06129 1.16919
 C736 C 0.49638 0.06501 1.18935
 C737 C 0.50120 0.08447 1.19508
 C738 C 0.50115 0.09985 1.18097
 C739 C 0.49628 0.11237 1.14576
 C740 C 0.51145 0.12664 1.14578
 C741 C 0.51172 0.14165 1.13129
 C742 C 0.49679 0.14276 1.11649
 C743 C 0.48152 0.12860 1.11660
 C744 C 0.48128 0.11357 1.13105
 C745 C 0.49729 0.15844 1.10082
 C746 C 0.47965 0.16805 1.09462
 C747 C 0.48009 0.18254 1.07960
 C748 C 0.49817 0.18773 1.07043
 C749 C 0.51582 0.17818 1.07671
 C750 C 0.51539 0.16371 1.09174
 H751 H 0.48797 0.07323 1.13963
 H752 H 0.48812 0.04640 1.16421
 H753 H 0.50474 0.08787 1.21054
 H754 H 0.50466 0.11473 1.18588
 H755 H 0.52332 0.12601 1.15680
 H756 H 0.52357 0.15247 1.13172
 H757 H 0.46992 0.12894 1.10529
 H758 H 0.46927 0.10291 1.13078
 H759 H 0.46552 0.16453 1.10154
 H760 H 0.46629 0.18984 1.07532
 H761 H 0.52994 0.18160 1.06972
 H762 H 0.52918 0.15634 1.09597
 C763 C -0.00083 0.66098 0.60293
 C764 C 0.01718 0.66673 0.59398
 C765 C 0.01736 0.68125 0.57900
 C766 C -0.00048 0.69038 0.57262
 C767 C -0.01848 0.68473 0.58165
 C768 C -0.01866 0.67020 0.59665
 C769 C -0.00102 0.64526 0.61858
 C770 C -0.01347 0.64699 0.63544
 C771 C -0.01366 0.63212 0.65010
 C772 C -0.00140 0.61521 0.64823
 C773 C 0.01104 0.61349 0.63137
 C774 C 0.01122 0.62833 0.61672
 C775 C -0.00165 0.59933 0.66369
 C776 C 0.01618 0.59007 0.66989
 C777 C 0.01592 0.57478 0.68406
 C778 C -0.00218 0.56835 0.69233
 C779 C -0.02000 0.57773 0.68627
 C780 C -0.01973 0.59307 0.67213
 H781 H 0.03119 0.66008 0.59864
 H782 H 0.03145 0.68510 0.57219
 H783 H -0.03245 0.69162 0.57721
 H784 H -0.03280 0.66596 0.60311
 H785 H -0.02285 0.65998 0.63745
 H786 H -0.02320 0.63399 0.66305
 H787 H 0.02040 0.60048 0.62933
 H788 H 0.02071 0.62638 0.60374
 H789 H 0.03037 0.59471 0.66382
 H790 H 0.02987 0.56771 0.68825
 H791 H -0.03416 0.57324 0.69252
 H792 H -0.03373 0.59979 0.66753
 C793 C 0.49962 0.90032 -0.16331
 C794 C 0.50537 0.89695 -0.18329
 C795 C 0.50617 0.91266 -0.19699
 C796 C 0.50129 0.93211 -0.19099
 C797 C 0.49570 0.93547 -0.17097
 C798 C 0.49486 0.91977 -0.15731
 C799 C 0.49861 0.88369 -0.14872
 C800 C 0.48283 0.88266 -0.13493
 C801 C 0.48214 0.86741 -0.12075
 C802 C 0.49723 0.85282 -0.11999
 C803 C 0.51285 0.85366 -0.13400
 C804 C 0.51352 0.86892 -0.14822
 C805 C 0.49689 0.83712 -0.10433
 C806 C 0.50247 0.81746 -0.10883
 C807 C 0.50230 0.80280 -0.09394
 C808 C 0.49652 0.80749 -0.07424
 C809 C 0.49095 0.82714 -0.06977
 C810 C 0.49114 0.84177 -0.08462
 H811 H 0.50890 0.88208 -0.18841
 H812 H 0.51027 0.90954 -0.21237
 H813 H 0.49223 0.95032 -0.16577
 H814 H 0.49075 0.92291 -0.14193
 H815 H 0.47093 0.89361 -0.13519
 H816 H 0.46971 0.86696 -0.11042
 H817 H 0.52483 0.84280 -0.13364
 H818 H 0.52598 0.86945 -0.15851
 H819 H 0.50673 0.81336 -0.12393
 H820 H 0.50646 0.78775 -0.09790
 H821 H 0.48682 0.83132 -0.05465
 H822 H 0.48714 0.85684 -0.08056
 C823 C 1.00080 0.33804 0.39591
 C824 C 0.98268 0.33073 0.40318
 C825 C 0.98238 0.31629 0.41824
 C826 C 1.00027 0.30858 0.42652
 C827 C 1.01844 0.31585 0.41879
 C828 C 1.01866 0.33036 0.40380
 C829 C 1.00108 0.35389 0.38041
 C830 C 1.01448 0.36974 0.38200
 C831 C 1.01454 0.38488 0.36766
 C832 C 1.00122 0.38449 0.35136
 C833 C 0.98790 0.36856 0.34970
 C834 C 0.98782 0.35344 0.36409
 C835 C 1.00109 0.40079 0.33631
 C836 C 0.98299 0.40823 0.32860
 C837 C 0.98284 0.42389 0.31482
 C838 C 1.00078 0.43248 0.30843
 C839 C 1.01888 0.42492 0.31601
 C840 C 1.01903 0.40926 0.32977
 H841 H 0.96864 0.33640 0.39740
 H842 H 0.96796 0.31086 0.42282
 H843 H 1.03269 0.31117 0.42482
 H844 H 1.03289 0.33563 0.39840
 H845 H 1.02466 0.37066 0.39459
 H846 H 1.02474 0.39711 0.36956
 H847 H 0.97767 0.36768 0.33716
 H848 H 0.97751 0.34127 0.36232
 H849 H 0.96890 0.40218 0.33348
 H850 H 0.96866 0.42922 0.30909
 H851 H 1.03295 0.43134 0.31156
 H852 H 1.03323 0.40371 0.33525
 C853 C 0.49874 0.89422 0.16124
 C854 C 0.48087 0.90074 0.16998
 C855 C 0.48089 0.91568 0.18449
 C856 C 0.49884 0.92478 0.19057
 C857 C 0.51677 0.91789 0.18178
 C858 C 0.51670 0.90280 0.16743
 C859 C 0.49861 0.87879 0.14540
 C860 C 0.51268 0.86324 0.14561
 C861 C 0.51267 0.84886 0.13051
 C862 C 0.49869 0.84982 0.11478
 C863 C 0.48464 0.86543 0.11461
 C864 C 0.48456 0.87970 0.12979
 C865 C 0.49882 0.83473 0.09851
 C866 C 0.48085 0.82793 0.09021
 C867 C 0.48096 0.81409 0.07463
 C868 C 0.49905 0.80657 0.06705
 C869 C 0.51702 0.81322 0.07548
 C870 C 0.51691 0.82717 0.09098
 H871 H 0.46679 0.89429 0.16553
 H872 H 0.46657 0.92061 0.19010
 H873 H 0.53110 0.92362 0.18630
 H874 H 0.53072 0.89804 0.16092
 H875 H 0.52353 0.86206 0.15761
 H876 H 0.52348 0.83686 0.13129
 H877 H 0.47391 0.86686 0.10253
 H878 H 0.47374 0.89171 0.12910
 H879 H 0.46664 0.83323 0.09582
 H880 H 0.46684 0.80951 0.06834
 H881 H 0.53121 0.80757 0.07018
 H882 H 0.53104 0.83225 0.09686
 C883 C 0.00115 0.33672 0.59873
 C884 C 0.00770 0.34176 0.57938
 C885 C 0.00751 0.32776 0.56396
 C886 C 0.00070 0.30840 0.56748
 C887 C -0.00595 0.30335 0.58679
 C888 C -0.00570 0.31735 0.60226
 C889 C 0.00138 0.35170 0.61507
 C890 C -0.01437 0.35294 0.62892
 C891 C -0.01440 0.36747 0.64388
 C892 C 0.00128 0.38112 0.64527
 C893 C 0.01715 0.37970 0.63162
 C894 C 0.01722 0.36515 0.61672
 C895 C 0.00093 0.39704 0.66063
 C896 C 0.00654 0.41645 0.65554
 C897 C 0.00617 0.43153 0.66989
 C898 C 0.00026 0.42755 0.68970
 C899 C -0.00537 0.40812 0.69479
 C900 C -0.00508 0.39303 0.68039
 H901 H 0.01269 0.35665 0.57606
 H902 H 0.01237 0.33221 0.54915
 H903 H -0.01107 0.28848 0.59001
 H904 H -0.01059 0.31292 0.61706
 H905 H -0.02692 0.34298 0.62789
 H906 H -0.02694 0.36835 0.65405
 H907 H 0.02961 0.38979 0.63254
 H908 H 0.02977 0.36435 0.60655
 H909 H 0.01090 0.42007 0.64035
 H910 H 0.01020 0.44641 0.66535
 H911 H -0.00974 0.40450 0.70997
 H912 H -0.00926 0.37816 0.68479
 C913 C 0.50060 0.10607 0.83509
 C914 C 0.51883 0.09959 0.82694
 C915 C 0.51940 0.08408 0.81305
 C916 C 0.50173 0.07474 0.80694
 C917 C 0.48348 0.08141 0.81487
 C918 C 0.48292 0.09688 0.82880
 C919 C 0.50008 0.12202 0.85043
 C920 C 0.48756 0.12041 0.86722
 C921 C 0.48738 0.13514 0.88195
 C922 C 0.49969 0.15185 0.88022
 C923 C 0.51210 0.15353 0.86335
 C924 C 0.51231 0.13877 0.84862
 C925 C 0.49982 0.16722 0.89619
 C926 C 0.51782 0.17575 0.90251
 C927 C 0.51803 0.18958 0.91811
 C928 C 0.50025 0.19522 0.92775
 C929 C 0.48220 0.18694 0.92118
 C930 C 0.48199 0.17311 0.90559
 H931 H 0.53273 0.10625 0.83162
 H932 H 0.53367 0.07941 0.80705
 H933 H 0.46963 0.07439 0.81061
 H934 H 0.46863 0.10168 0.83465
 H935 H 0.47822 0.10752 0.86921
 H936 H 0.47791 0.13321 0.89493
 H937 H 0.52154 0.16636 0.86144
 H938 H 0.52190 0.14056 0.83572
 H939 H 0.53183 0.17139 0.89571
 H940 H 0.53215 0.19586 0.92266
 H941 H 0.46827 0.19079 0.92842
 H942 H 0.46785 0.16700 0.90090
 C943 C 1.00521 0.66606 0.40010
 C944 C 0.99935 0.68580 0.39631
 C945 C 0.99910 0.69980 0.41178
 C946 C 1.00469 0.69436 0.43138
 C947 C 1.01052 0.67461 0.43514
 C948 C 1.01078 0.66064 0.41970
 C949 C 1.00535 0.65104 0.38380
 C950 C 1.02077 0.63683 0.38266
 C951 C 1.02051 0.62215 0.36791
 C952 C 1.00484 0.62132 0.35392
 C953 C 0.98962 0.63576 0.35478
 C954 C 0.98987 0.65046 0.36958
 C955 C 1.00420 0.60516 0.33880
 C956 C 0.99833 0.60906 0.31892
 C957 C 0.99776 0.59375 0.30478
 C958 C 1.00303 0.57423 0.31022
 C959 C 1.00879 0.57035 0.33013
 C960 C 1.00938 0.58563 0.34424
 H961 H 0.99521 0.69048 0.38131
 H962 H 0.99475 0.71495 0.40837
 H963 H 1.01453 0.66984 0.45014
 H964 H 1.01498 0.64548 0.42319
 H965 H 1.03310 0.63712 0.39316
 H966 H 1.03264 0.61147 0.36739
 H967 H 0.97723 0.63537 0.34436
 H968 H 0.97766 0.66104 0.37021
 H969 H 0.99447 0.62400 0.31423
 H970 H 0.99350 0.59726 0.28950
 H971 H 1.01254 0.55541 0.33492
 H972 H 1.01358 0.58209 0.35953
 C973 C 1.16465 0.50133 0.10390
 C974 C 1.17377 0.48355 0.09779
 C975 C 1.18801 0.48345 0.08252
 C976 C 1.19356 0.50120 0.07271
 C977 C 1.18448 0.51907 0.07928
 C978 C 1.17030 0.51910 0.09461
 C979 C 1.14898 0.50130 0.11961
 C980 C 1.14828 0.51626 0.13427
 C981 C 1.13322 0.51646 0.14874
 C982 C 1.11851 0.50170 0.14886
 C983 C 1.11929 0.48667 0.13428
 C984 C 1.13435 0.48647 0.11983
 C985 C 1.10223 0.50212 0.16394
 C986 C 1.09550 0.48446 0.17280
 C987 C 1.07992 0.48482 0.18668
 C988 C 1.07071 0.50286 0.19204
 C989 C 1.07753 0.52054 0.18328
 C990 C 1.09311 0.52018 0.16939
 H991 H 1.16983 0.46960 0.10480
 H992 H 1.19381 0.46916 0.07793
 H993 H 1.18858 0.53330 0.07309
 H994 H 1.16351 0.53307 0.09896
 H995 H 1.15950 0.52772 0.13467
 H996 H 1.13320 0.52806 0.15996
 H997 H 1.10800 0.47529 0.13376
 H998 H 1.13429 0.47494 0.10853
 H999 H 1.10244 0.47035 0.16916
 H1000 H 1.07521 0.47099 0.19341
 H1001 H 1.07054 0.53464 0.18686
 H1002 H 1.09773 0.53400 0.16259
 C1003 C 0.60698 0.00315 0.66486
 C1004 C 0.60008 -0.01496 0.67262
 C1005 C 0.58470 -0.01529 0.68674
 C1006 C 0.57580 0.00248 0.69340
 C1007 C 0.58285 0.02059 0.68578
 C1008 C 0.59828 0.02092 0.67174
 C1009 C 0.62291 0.00349 0.64938
 C1010 C 0.62196 0.01714 0.63342
 C1011 C 0.63671 0.01727 0.61865
 C1012 C 0.65269 0.00370 0.61942
 C1013 C 0.65372 -0.00991 0.63539
 C1014 C 0.63902 -0.00998 0.65023
 C1015 C 0.66799 0.00350 0.60337
 C1016 C 0.67472 -0.01454 0.59519
 C1017 C 0.68851 -0.01472 0.57950
 C1018 C 0.69596 0.00315 0.57170
 C1019 C 0.68947 0.02119 0.58015
 C1020 C 0.67560 0.02136 0.59577
 H1021 H 0.60630 -0.02893 0.66750
 H1022 H 0.57981 -0.02948 0.69247
 H1023 H 0.57619 0.03454 0.69038
 H1024 H 0.60341 0.03513 0.66628
 H1025 H 0.60958 0.02746 0.63208
 H1026 H 0.63536 0.02772 0.60635
 H1027 H 0.66601 -0.02038 0.63649
 H1028 H 0.64038 -0.02047 0.66249
 H1029 H 0.66890 -0.02852 0.60056
 H1030 H 0.69291 -0.02885 0.57313
 H1031 H 0.69517 0.03520 0.57475
 H1032 H 0.67089 0.03548 0.60199
 C1033 C -0.16295 0.49673 0.90045
 C1034 C -0.16934 0.47897 0.90940
 C1035 C -0.18328 0.47930 0.92494
 C1036 C -0.19129 0.49739 0.93185
 C1037 C -0.18499 0.51514 0.92282
 C1038 C -0.17096 0.51481 0.90735
 C1039 C -0.14787 0.49637 0.88412
 C1040 C -0.14930 0.50964 0.86787
 C1041 C -0.13498 0.50942 0.85266
 C1042 C -0.11899 0.49583 0.85329
 C1043 C -0.11761 0.48248 0.86944
 C1044 C -0.13184 0.48279 0.88472
 C1045 C -0.10361 0.49576 0.83734
 C1046 C -0.09647 0.47777 0.82939
 C1047 C -0.08156 0.47768 0.81478
 C1048 C -0.07335 0.49558 0.80788
 C1049 C -0.08068 0.51358 0.81573
 C1050 C -0.09568 0.51367 0.83024
 H1051 H -0.16367 0.46477 0.90430
 H1052 H -0.18758 0.46537 0.93171
 H1053 H -0.19103 0.52931 0.92760
 H1054 H -0.16620 0.52878 0.90097
 H1055 H -0.16163 0.52005 0.86676
 H1056 H -0.13653 0.51972 0.84026
 H1057 H -0.10528 0.47206 0.87047
 H1058 H -0.13007 0.47261 0.89719
 H1059 H -0.10252 0.46375 0.83439
 H1060 H -0.07653 0.46357 0.80880
 H1061 H -0.07447 0.52763 0.81104
 H1062 H -0.10073 0.52774 0.83630
 C1063 C 0.39547 -0.00597 0.33535
 C1064 C 0.40312 0.01198 0.32804
 C1065 C 0.41842 0.01196 0.31385
 C1066 C 0.42632 -0.00601 0.30652
 C1067 C 0.41841 -0.02397 0.31363
 C1068 C 0.40321 -0.02395 0.32794
 C1069 C 0.37977 -0.00593 0.35097
 C1070 C 0.38122 -0.01879 0.36752
 C1071 C 0.36677 -0.01838 0.38258
 C1072 C 0.35043 -0.00521 0.38135
 C1073 C 0.34889 0.00749 0.36464
 C1074 C 0.36344 0.00718 0.34966
 C1075 C 0.33528 -0.00452 0.39761
 C1076 C 0.32689 0.01368 0.40374
 C1077 C 0.31301 0.01438 0.41933
 C1078 C 0.30726 -0.00307 0.42928
 C1079 C 0.31554 -0.02128 0.42306
 C1080 C 0.32932 -0.02200 0.40738
 H1081 H 0.39761 0.02605 0.33369
 H1082 H 0.42439 0.02606 0.30899
 H1083 H 0.42387 -0.03808 0.30804
 H1084 H 0.39739 -0.03800 0.33312
 H1085 H 0.39381 -0.02885 0.36905
 H1086 H 0.36864 -0.02810 0.39540
 H1087 H 0.33633 0.01756 0.36304
 H1088 H 0.36183 0.01708 0.33694
 H1089 H 0.33130 0.02746 0.39672
 H1090 H 0.30674 0.02863 0.42354
 H1091 H 0.31165 -0.03499 0.43053
 H1092 H 0.33526 -0.03630 0.40287
 C1093 C 0.15948 0.49754 0.90050
 C1094 C 0.16588 0.51550 0.90897
 C1095 C 0.18028 0.51558 0.92413
 C1096 C 0.18875 0.49770 0.93113
 C1097 C 0.18245 0.47974 0.92256
 C1098 C 0.16797 0.47966 0.90745
 C1099 C 0.14390 0.49749 0.88460
 C1100 C 0.14509 0.48415 0.86843
 C1101 C 0.13037 0.48408 0.85356
 C1102 C 0.11420 0.49743 0.85446
 C1103 C 0.11302 0.51080 0.87057
 C1104 C 0.12766 0.51079 0.88550
 C1105 C 0.09851 0.49736 0.83875
 C1106 C 0.09095 0.51530 0.83097
 C1107 C 0.07587 0.51526 0.81648
 C1108 C 0.06792 0.49728 0.80952
 C1109 C 0.07562 0.47933 0.81722
 C1110 C 0.09079 0.47938 0.83162
 H1111 H 0.15985 0.52956 0.90379
 H1112 H 0.18458 0.52966 0.93056
 H1113 H 0.18882 0.46572 0.92744
 H1114 H 0.16323 0.46555 0.90142
 H1115 H 0.15756 0.47393 0.86711
 H1116 H 0.13178 0.47378 0.84118
 H1117 H 0.10056 0.52104 0.87181
 H1118 H 0.12607 0.52100 0.89792
 H1119 H 0.09684 0.52937 0.83597
 H1120 H 0.07055 0.52933 0.81062
 H1121 H 0.06962 0.46523 0.81244
 H1122 H 0.09615 0.46534 0.83754
 C1123 C 0.59909 -0.00408 0.33681
 C1124 C 0.59091 -0.02204 0.33008
 C1125 C 0.57566 -0.02206 0.31577
 C1126 C 0.56827 -0.00413 0.30776
 C1127 C 0.57658 0.01381 0.31435
 C1128 C 0.59177 0.01384 0.32872
 C1129 C 0.61500 -0.00403 0.35238
 C1130 C 0.63073 0.00962 0.35138
 C1131 C 0.64546 0.00990 0.36622
 C1132 C 0.64488 -0.00355 0.38234
 C1133 C 0.62929 -0.01731 0.38327
 C1134 C 0.61448 -0.01751 0.36849
 C1135 C 0.66034 -0.00305 0.39826
 C1136 C 0.66872 -0.02074 0.40577
 C1137 C 0.68318 -0.02025 0.42088
 C1138 C 0.68949 -0.00205 0.42891
 C1139 C 0.68105 0.01564 0.42138
 C1140 C 0.66670 0.01514 0.40618
 H1141 H 0.59637 -0.03612 0.33580
 H1142 H 0.56944 -0.03614 0.31124
 H1143 H 0.57141 0.02787 0.30832
 H1144 H 0.59757 0.02795 0.33373
 H1145 H 0.63178 0.01997 0.33899
 H1146 H 0.65746 0.02048 0.36498
 H1147 H 0.62831 -0.02766 0.39567
 H1148 H 0.60240 -0.02799 0.36992
 H1149 H 0.66428 -0.03497 0.39975
 H1150 H 0.68960 -0.03412 0.42610
 H1151 H 0.68527 0.02989 0.42748
 H1152 H 0.66027 0.02899 0.40090
 C1153 C 0.83347 0.50242 0.10629
 C1154 C 0.82602 0.48406 0.09981
 C1155 C 0.81188 0.48317 0.08442
 C1156 C 0.80489 0.50061 0.07507
 C1157 C 0.81216 0.51899 0.08173
 C1158 C 0.82623 0.51988 0.09718
 C1159 C 0.84905 0.50333 0.12217
 C1160 C 0.86464 0.51711 0.12082
 C1161 C 0.87955 0.51769 0.13546
 C1162 C 0.87930 0.50443 0.15173
 C1163 C 0.86368 0.49074 0.15319
 C1164 C 0.84869 0.49023 0.13861
 C1165 C 0.89553 0.50464 0.16689
 C1166 C 0.90410 0.48677 0.17371
 C1167 C 0.91983 0.48694 0.18748
 C1168 C 0.92727 0.50499 0.19485
 C1169 C 0.91850 0.52285 0.18819
 C1170 C 0.90284 0.52268 0.17432
 H1171 H 0.83143 0.47031 0.10634
 H1172 H 0.80641 0.46879 0.07984
 H1173 H 0.80730 0.53270 0.07472
 H1174 H 0.83143 0.53429 0.10198
 H1175 H 0.86560 0.52717 0.10818
 H1176 H 0.89157 0.52821 0.13380
 H1177 H 0.86298 0.48052 0.16572
 H1178 H 0.83672 0.47967 0.14030
 H1179 H 0.89895 0.47266 0.16802
 H1180 H 0.92646 0.47292 0.19199
 H1181 H 0.92363 0.53700 0.19381
 H1182 H 0.89634 0.53667 0.16951
 C1183 C 0.40173 0.00169 0.66242
 C1184 C 0.40958 0.01978 0.66921
 C1185 C 0.42500 0.02005 0.68333
 C1186 C 0.43307 0.00223 0.69093
 C1187 C 0.42518 -0.01586 0.68417
 C1188 C 0.40967 -0.01612 0.67017
 C1189 C 0.38549 0.00139 0.64719
 C1190 C 0.38524 -0.01325 0.63216
 C1191 C 0.37009 -0.01347 0.61776
 C1192 C 0.35493 0.00102 0.61793
 C1193 C 0.35513 0.01566 0.63291
 C1194 C 0.37019 0.01580 0.64743
 C1195 C 0.33912 0.00100 0.60236
 C1196 C 0.33338 0.01873 0.59279
 C1197 C 0.31891 0.01863 0.57768
 C1198 C 0.30973 0.00082 0.57192
 C1199 C 0.31531 -0.01688 0.58174
 C1200 C 0.32990 -0.01680 0.59672
 H1201 H 0.40400 0.03378 0.66339
 H1202 H 0.43052 0.03425 0.68838
 H1203 H 0.43119 -0.02987 0.68948
 H1204 H 0.40382 -0.03031 0.66549
 H1205 H 0.39698 -0.02433 0.63128
 H1206 H 0.37045 -0.02476 0.60621
 H1207 H 0.34348 0.02686 0.63352
 H1208 H 0.36972 0.02706 0.65898
 H1209 H 0.34044 0.03261 0.59667
 H1210 H 0.31527 0.03247 0.57021
 H1211 H 0.30829 -0.03080 0.57795
 H1212 H 0.33386 -0.03064 0.60406
   
