data_POSCAR
  _audit_creation_date              2014-09-24
  _audit_creation_method            'ToBaCCo'
  _symmetry_space_group_name_H-M    'P1'
  _symmetry_Int_Tables_number       1
  _symmetry_cell_setting            triclinic
  loop_
  _symmetry_equiv_pos_as_xyz
 x,y,z
_cell_length_a 46.5823
_cell_length_b 45.9446
_cell_length_c 45.8076
_cell_angle_alpha 90.218300
_cell_angle_beta 90.125500
_cell_angle_gamma 89.654100
loop_
  _atom_site_label
  _atom_site_type_symbol
  _atom_site_fract_x
  _atom_site_fract_y
  _atom_site_fract_z
N1 N 0.18249 1.24157 0.16388
 N2 N 0.15994 1.23775 0.18062
 C3 C 0.14055 1.25891 0.17525
 C4 C 0.15156 1.27691 0.15395
 C5 C 0.17826 1.26535 0.14728
 H6 H 0.11985 1.26085 0.18575
 H7 H 0.19316 1.27325 0.13110
 Cu8 Cu 0.15734 1.20516 0.20732
 Cu9 Cu 0.21461 1.21427 0.16349
 Cu10 Cu 0.21467 1.16110 0.21669
 N11 N 0.16045 1.17909 0.24044
 N12 N 0.18294 1.16208 0.24423
 C13 C 0.17920 1.14615 0.26853
 C14 C 0.15289 1.15356 0.28049
 C15 C 0.14158 1.17457 0.26215
 H16 H 0.19424 1.13006 0.27663
 H17 H 0.12107 1.18553 0.26430
 N18 N 0.24476 1.16386 0.18673
 N19 N 0.24498 1.18442 0.16668
 C20 C 0.26751 1.17990 0.14880
 C21 C 0.28199 1.15526 0.15799
 C22 C 0.26705 1.14564 0.18206
 H23 H 0.27247 1.19290 0.12986
 H24 H 0.27169 1.12635 0.19471
 H25 H 0.19403 1.17830 0.18038
 H26 H 0.20941 1.20487 0.20726
 N27 N 0.81520 0.75703 0.16624
 N28 N 0.83408 0.75686 0.18762
 C29 C 0.85316 0.73518 0.18305
 C30 C 0.84562 0.72094 0.15756
 C31 C 0.82143 0.73530 0.14749
 H32 H 0.87132 0.73035 0.19700
 H33 H 0.80972 0.73072 0.12760
 Cu34 Cu 0.83225 0.78509 0.21922
 Cu35 Cu 0.78525 0.78661 0.16315
 Cu36 Cu 0.78851 0.84325 0.21301
 N37 N 0.83630 0.81887 0.24446
 N38 N 0.81933 0.84167 0.24172
 C39 C 0.82669 0.86182 0.26172
 C40 C 0.84944 0.85101 0.27788
 C41 C 0.85505 0.82368 0.26635
 H42 H 0.81615 0.88270 0.26445
 H43 H 0.87153 0.80851 0.27331
 N44 N 0.75880 0.84077 0.18247
 N45 N 0.75720 0.81888 0.16379
 C46 C 0.73469 0.82338 0.14580
 C47 C 0.72164 0.84935 0.15354
 C48 C 0.73742 0.85980 0.17683
 H49 H 0.72848 0.80913 0.12807
 H50 H 0.73363 0.87988 0.18862
 H51 H 0.81056 0.81732 0.18344
 H52 H 0.78306 0.79896 0.20657
 N53 N 0.81176 1.24704 -0.16483
 N54 N 0.83115 1.24713 -0.18565
 C55 C 0.84912 1.26961 -0.18119
 C56 C 0.84052 1.28420 -0.15624
 C57 C 0.81678 1.26932 -0.14640
 H58 H 0.86748 1.27464 -0.19462
 H59 H 0.80435 1.27415 -0.12705
 Cu60 Cu 0.83186 1.21680 -0.21544
 Cu61 Cu 0.78183 1.21774 -0.16270
 Cu62 Cu 0.78234 1.16384 -0.21589
 N63 N 0.83214 1.18624 -0.24500
 N64 N 0.81290 1.16542 -0.24479
 C65 C 0.81871 1.14637 -0.26642
 C66 C 0.84289 1.15580 -0.28097
 C67 C 0.85080 1.18123 -0.26692
 H68 H 0.80656 1.12688 -0.27094
 H69 H 0.86919 1.19459 -0.27185
 N70 N 0.75320 1.16601 -0.18478
 N71 N 0.75326 1.18632 -0.16431
 C72 C 0.73129 1.18154 -0.14590
 C73 C 0.71670 1.15717 -0.15532
 C74 C 0.73110 1.14786 -0.17999
 H75 H 0.72625 1.19468 -0.12693
 H76 H 0.72600 1.12902 -0.19319
 H77 H 0.80475 1.18496 -0.18330
 H78 H 0.78102 1.20793 -0.20682
 N79 N 0.18656 0.75365 -0.16382
 N80 N 0.16681 0.75368 -0.18438
 C81 C 0.14827 0.73185 -0.17936
 C82 C 0.15694 0.71752 -0.15434
 C83 C 0.18125 0.73192 -0.14501
 H84 H 0.12974 0.72683 -0.19268
 H85 H 0.19408 0.72694 -0.12595
 Cu86 Cu 0.16714 0.78288 -0.21504
 Cu87 Cu 0.21791 0.78154 -0.16309
 Cu88 Cu 0.21952 0.83263 -0.21873
 N89 N 0.16759 0.81202 -0.24575
 N90 N 0.18842 0.83114 -0.24730
 C91 C 0.18348 0.84904 -0.27000
 C92 C 0.15804 0.84081 -0.28321
 C93 C 0.14852 0.81723 -0.26730
 H94 H 0.19696 0.86714 -0.27599
 H95 H 0.12899 0.80513 -0.27095
 N96 N 0.24885 0.83055 -0.18763
 N97 N 0.24793 0.81142 -0.16621
 C98 C 0.26996 0.81637 -0.14780
 C99 C 0.28546 0.83966 -0.15814
 C100 C 0.27158 0.84812 -0.18342
 H101 H 0.27424 0.80427 -0.12805
 H102 H 0.27726 0.86621 -0.19725
 H103 H 0.19655 0.81482 -0.18480
 H104 H 0.21850 0.78930 -0.20748
 Si105 Si 0.49930 1.00074 -0.00234
 Si106 Si 0.00041 0.49979 1.00014
 Si107 Si 1.00293 0.00134 0.50192
 C108 C 0.11099 0.34628 1.11501
 N109 N 0.13809 0.33862 1.10713
 N110 N 0.15137 0.31628 1.11994
 C111 C 0.13806 0.30079 1.14111
 N112 N 0.11103 0.30862 1.14912
 N113 N 0.09773 0.33091 1.13628
 C114 C 0.09587 0.37016 1.10017
 N115 N 0.06801 0.37620 1.10653
 N116 N 0.05391 0.39715 1.09238
 C117 C 0.06718 0.41290 1.07139
 N118 N 0.09510 0.40700 1.06515
 N119 N 0.10919 0.38598 1.07927
 C120 C 0.05125 0.43517 1.05500
 N121 N 0.06464 0.45162 1.03463
 N122 N 0.04990 0.47103 1.01899
 C123 C 0.02127 0.47460 1.02314
 N124 N 0.00788 0.45827 1.04352
 N125 N 0.02262 0.43894 1.05924
 C126 C -0.11105 0.65237 1.11622
 N127 N -0.09960 0.66542 1.14018
 N128 N -0.11352 0.68709 1.15355
 C129 C -0.13930 0.69657 1.14336
 N130 N -0.15075 0.68350 1.11944
 N131 N -0.13691 0.66175 1.10616
 C132 C -0.09551 0.62894 1.10100
 N133 N -0.10810 0.61433 1.07862
 N134 N -0.09382 0.59356 1.06428
 C135 C -0.06638 0.58673 1.07171
 N136 N -0.05379 0.60131 1.09413
 N137 N -0.06812 0.62199 1.10856
 C138 C -0.05035 0.56455 1.05518
 N139 N -0.02183 0.56043 1.05989
 N140 N -0.00708 0.54107 1.04410
 C141 C -0.02040 0.52505 1.02322
 N142 N -0.04891 0.52900 1.01860
 N143 N -0.06363 0.54844 1.03429
 C144 C -0.11870 0.35406 0.88499
 N145 N -0.10950 0.34434 0.85856
 N146 N -0.12263 0.32225 0.84527
 C147 C -0.14548 0.30914 0.85789
 N148 N -0.15479 0.31899 0.88421
 N149 N -0.14161 0.34100 0.89754
 C150 C -0.10353 0.37754 0.90030
 N151 N -0.11084 0.38489 0.92805
 N152 N -0.09634 0.40528 0.94250
 C153 C -0.07407 0.41920 0.92969
 N154 N -0.06691 0.41206 0.90184
 N155 N -0.08136 0.39157 0.88742
 C156 C -0.05714 0.44050 0.94626
 N157 N -0.03574 0.45559 0.93324
 N158 N -0.01941 0.47371 0.94874
 C159 C -0.02390 0.47732 0.97777
 N160 N -0.04532 0.46235 0.99077
 N161 N -0.06173 0.44434 0.97528
 C162 C 0.11693 0.64734 0.88645
 N163 N 0.10710 0.65739 0.86041
 N164 N 0.11991 0.67966 0.84732
 C165 C 0.14303 0.69265 0.85978
 N166 N 0.15293 0.68250 0.88573
 N167 N 0.14008 0.66030 0.89886
 C168 C 0.10223 0.62351 0.90147
 N169 N 0.11008 0.61585 0.92895
 N170 N 0.09602 0.59509 0.94313
 C171 C 0.07369 0.58112 0.93029
 N172 N 0.06600 0.58858 0.90269
 N173 N 0.08000 0.60942 0.88854
 C174 C 0.05718 0.55950 0.94663
 N175 N 0.03559 0.54451 0.93359
 N176 N 0.01954 0.52619 0.94895
 C177 C 0.02452 0.52227 0.97786
 N178 N 0.04612 0.53714 0.99087
 N179 N 0.06225 0.55534 0.97551
 C180 C 1.11414 0.11751 0.35210
 N181 N 1.14091 0.10891 0.34401
 N182 N 1.15361 0.12080 0.32094
 C183 C 1.14002 0.14171 0.30512
 N184 N 1.11334 0.15045 0.31339
 N185 N 1.10062 0.13853 0.33641
 C186 C 1.09949 0.10345 0.37659
 N187 N 1.07178 0.11028 0.38285
 N188 N 1.05791 0.09649 0.40404
 C189 C 1.07126 0.07543 0.41984
 N190 N 1.09907 0.06879 0.41380
 N191 N 1.11293 0.08254 0.39254
 C192 C 1.05528 0.05892 0.44179
 N193 N 1.06839 0.03774 0.45765
 N194 N 1.05336 0.02149 0.47612
 C195 C 1.02473 0.02588 0.47934
 N196 N 1.01164 0.04713 0.46365
 N197 N 1.02666 0.06343 0.44527
 C198 C 1.11699 -0.11901 0.64830
 N199 N 1.14300 -0.10954 0.65765
 N200 N 1.15641 -0.12270 0.67973
 C201 C 1.14435 -0.14588 0.69323
 N202 N 1.11844 -0.15548 0.68370
 N203 N 1.10498 -0.14225 0.66170
 C204 C 1.10165 -0.10376 0.62479
 N205 N 1.07423 -0.11099 0.61791
 N206 N 1.05985 -0.09635 0.59746
 C207 C 1.07240 -0.07404 0.58303
 N208 N 1.09991 -0.06698 0.58972
 N209 N 1.11426 -0.08155 0.61025
 C210 C 1.05600 -0.05694 0.56163
 N211 N 1.06879 -0.03548 0.54615
 N212 N 1.05351 -0.01895 0.52792
 C213 C 1.02492 -0.02330 0.52457
 N214 N 1.01214 -0.04479 0.53992
 N215 N 1.02742 -0.06140 0.55805
 C216 C 0.89052 -0.10819 0.34594
 N217 N 0.86880 -0.09471 0.33143
 N218 N 0.85548 -0.10799 0.30940
 C219 C 0.86345 -0.13522 0.30096
 N220 N 0.88522 -0.14870 0.31546
 N221 N 0.89849 -0.13543 0.33756
 C222 C 0.90534 -0.09327 0.36997
 N223 N 0.92612 -0.10705 0.38560
 N224 N 0.93991 -0.09320 0.40701
 C225 C 0.93343 -0.06506 0.41352
 N226 N 0.91258 -0.05133 0.39796
 N227 N 0.89875 -0.06520 0.37662
 C228 C 0.94937 -0.04933 0.43625
 N229 N 0.94481 -0.02042 0.44055
 N230 N 0.96012 -0.00577 0.46024
 C231 C 0.98041 -0.01956 0.47642
 N232 N 0.98488 -0.04848 0.47235
 N233 N 0.96963 -0.06313 0.45257
 C234 C 0.88515 0.11412 0.65211
 N235 N 0.86138 0.10225 0.66421
 N236 N 0.84750 0.11593 0.68568
 C237 C 0.85694 0.14195 0.69597
 N238 N 0.88066 0.15386 0.68378
 N239 N 0.89448 0.14023 0.66222
 C240 C 0.90090 0.09859 0.62902
 N241 N 0.92342 0.11128 0.61539
 N242 N 0.93814 0.09689 0.59496
 C243 C 0.93095 0.06924 0.58751
 N244 N 0.90840 0.05658 0.60111
 N245 N 0.89360 0.07101 0.62144
 C246 C 0.94776 0.05300 0.56573
 N247 N 0.94306 0.02419 0.56121
 N248 N 0.95897 0.00919 0.54220
 C249 C 0.97999 0.02252 0.52692
 N250 N 0.98463 0.05133 0.53124
 N251 N 0.96881 0.06631 0.55036
 C252 C 0.35069 1.11356 0.11627
 N253 N 0.33775 1.10116 0.13961
 N254 N 0.31614 1.11464 0.15315
 C255 C 0.30659 1.14097 0.14377
 N256 N 0.31959 1.15344 0.12050
 N257 N 0.34128 1.14000 0.10702
 C258 C 0.37379 1.09817 0.10069
 N259 N 0.38796 1.11119 0.07845
 N260 N 0.40825 1.09683 0.06371
 C261 C 0.41502 1.06890 0.07061
 N262 N 0.40092 1.05593 0.09291
 N263 N 0.38072 1.07032 0.10772
 C264 C 0.43652 1.05263 0.05361
 N265 N 0.44055 1.02369 0.05809
 N266 N 0.45925 1.00864 0.04196
 C267 C 0.47469 1.02204 0.02092
 N268 N 0.47085 1.05097 0.01650
 N269 N 0.45204 1.06601 0.03254
 C270 C 0.64639 1.11779 -0.11521
 N271 N 0.65642 1.10768 -0.14117
 N272 N 0.67870 1.12033 -0.15405
 C273 C 0.69173 1.14359 -0.14148
 N274 N 0.68159 1.15381 -0.11561
 N275 N 0.65938 1.14110 -0.10269
 C276 C 0.62261 1.10315 -0.10036
 N277 N 0.61486 1.11123 -0.07294
 N278 N 0.59420 1.09712 -0.05889
 C279 C 0.58041 1.07450 -0.07179
 N280 N 0.58795 1.06660 -0.09933
 N281 N 0.60870 1.08064 -0.11335
 C282 C 0.55885 1.05791 -0.05558
 N283 N 0.54405 1.03607 -0.06869
 N284 N 0.52575 1.01994 -0.05344
 C285 C 0.52166 1.02510 -0.02457
 N286 N 0.53635 1.04695 -0.01148
 N287 N 0.55453 1.06315 -0.02673
 C288 C 0.35492 0.88033 -0.11720
 N289 N 0.34583 0.88924 -0.14392
 N290 N 0.32389 0.87610 -0.15713
 C291 C 0.31031 0.85353 -0.14414
 N292 N 0.31956 0.84448 -0.11754
 N293 N 0.34142 0.85767 -0.10429
 C294 C 0.37817 0.89564 -0.10193
 N295 N 0.38496 0.88867 -0.07397
 N296 N 0.40510 0.90337 -0.05955
 C297 C 0.41930 0.92550 -0.07259
 N298 N 0.41271 0.93231 -0.10065
 N299 N 0.39248 0.91767 -0.11504
 C300 C 0.44037 0.94265 -0.05606
 N301 N 0.45551 0.96412 -0.06917
 N302 N 0.47350 0.98060 -0.05372
 C303 C 0.47694 0.97619 -0.02465
 N304 N 0.46191 0.95471 -0.01157
 N305 N 0.44403 0.93816 -0.02701
 C306 C 0.65201 0.89030 0.11269
 N307 N 0.66067 0.86333 0.10408
 N308 N 0.68275 0.85018 0.11719
 C309 C 0.69692 0.86350 0.13942
 N310 N 0.68816 0.89038 0.14811
 N311 N 0.66614 0.90356 0.13496
 C312 C 0.62827 0.90527 0.09772
 N313 N 0.62152 0.93324 0.10462
 N314 N 0.60062 0.94722 0.09046
 C315 C 0.58561 0.93372 0.06895
 N316 N 0.59221 0.90567 0.06217
 N317 N 0.61319 0.89170 0.07627
 C318 C 0.56341 0.94961 0.05258
 N319 N 0.54731 0.93591 0.03201
 N320 N 0.52800 0.95069 0.01637
 C321 C 0.52421 0.97967 0.02072
 N322 N 0.54017 0.99337 0.04132
 N323 N 0.55938 0.97858 0.05704
   
