data_POSCAR
  _audit_creation_date              2014-09-24
  _audit_creation_method            'ToBaCCo'
  _symmetry_space_group_name_H-M    'P1'
  _symmetry_Int_Tables_number       1
  _symmetry_cell_setting            triclinic
  loop_
  _symmetry_equiv_pos_as_xyz
 x,y,z
_cell_length_a 14.3880
_cell_length_b 14.3525
_cell_length_c 14.7895
_cell_angle_alpha 90.262100
_cell_angle_beta 89.954500
_cell_angle_gamma 84.034100
loop_
  _atom_site_label
  _atom_site_type_symbol
  _atom_site_fract_x
  _atom_site_fract_y
  _atom_site_fract_z
C1 C 1.19752 0.18614 0.17802
 C2 C 1.25787 0.24690 0.12601
 C3 C 1.30307 0.30750 0.17517
 C4 C 1.28869 0.29334 0.27948
 C5 C 1.26417 0.13102 0.24110
 C6 C 1.31019 0.18543 0.29769
 C7 C 1.13446 0.25223 0.23749
 C8 C 1.18139 0.30642 0.29302
 H9 H 1.27205 0.23468 0.05538
 H10 H 1.32807 0.33847 0.32326
 H11 H 1.26444 0.05591 0.24889
 H12 H 1.06035 0.24595 0.24451
 C13 C 0.69646 -0.31992 0.18628
 C14 C 0.75672 -0.26253 0.12912
 C15 C 0.80166 -0.19832 0.17346
 C16 C 0.79157 -0.20540 0.27651
 C17 C 0.76418 -0.37039 0.25189
 C18 C 0.81316 -0.31112 0.30044
 C19 C 0.63579 -0.24836 0.24525
 C20 C 0.68645 -0.18902 0.29292
 H21 H 0.77029 -0.27916 0.05916
 H22 H 0.83322 -0.15795 0.31540
 H23 H 0.76453 -0.44415 0.26625
 H24 H 0.56251 -0.25388 0.25831
 C25 C 0.70281 0.18382 -0.32168
 C26 C 0.76937 0.23036 -0.37328
 C27 C 0.82362 0.28883 -0.32275
 C28 C 0.80242 0.28697 -0.22410
 C29 C 0.75771 0.13032 -0.25541
 C30 C 0.81021 0.18599 -0.19802
 C31 C 0.64710 0.25724 -0.27055
 C32 C 0.70117 0.31539 -0.21618
 H33 H 0.78456 0.21486 -0.44364
 H34 H 0.84614 0.33019 -0.18256
 H35 H 0.74985 0.05719 -0.24237
 H36 H 0.57200 0.25847 -0.26269
 C37 C 1.18398 -0.30166 -0.31936
 C38 C 1.23801 -0.23553 -0.37283
 C39 C 1.29689 -0.18818 -0.32425
 C40 C 1.29217 -0.20829 -0.22157
 C41 C 1.25565 -0.36411 -0.26552
 C42 C 1.30965 -0.31657 -0.21040
 C43 C 1.13040 -0.23933 -0.25028
 C44 C 1.18691 -0.18939 -0.20003
 H45 H 1.22181 -0.21799 -0.44202
 H46 H 1.33787 -0.16798 -0.17931
 H47 H 1.25149 -0.43884 -0.25941
 H48 H 1.05620 -0.23929 -0.23834
 C49 C 0.18179 0.19779 0.81669
 C50 C 0.23023 0.26033 0.87126
 C51 C 0.29728 0.30786 0.82534
 C52 C 0.29534 0.29388 0.72781
 C53 C 0.13129 0.26096 0.74751
 C54 C 0.18986 0.31197 0.70052
 C55 C 0.25689 0.13709 0.76130
 C56 C 0.31555 0.18796 0.71350
 H57 H 0.20443 0.28325 0.93701
 H58 H 0.34235 0.33621 0.68948
 H59 H 0.05804 0.25944 0.73220
 H60 H 0.25308 0.06314 0.74897
 C61 C 0.68653 0.69709 0.82408
 C62 C 0.73980 0.75929 0.87385
 C63 C 0.80414 0.80579 0.82251
 C64 C 0.79248 0.78898 0.72301
 C65 C 0.63325 0.75726 0.76143
 C66 C 0.68977 0.80715 0.70278
 C67 C 0.75281 0.63686 0.76992
 C68 C 0.80868 0.68673 0.71061
 H69 H 0.71856 0.78386 0.94047
 H70 H 0.83717 0.82941 0.68001
 H71 H 0.55849 0.75634 0.75253
 H72 H 0.74839 0.56214 0.76307
 C73 C 0.68287 0.19990 0.31916
 C74 C 0.72660 0.27375 0.37293
 C75 C 0.78302 0.32504 0.32623
 C76 C 0.78475 0.30157 0.22286
 C77 C 0.62754 0.25382 0.24675
 C78 C 0.68032 0.30478 0.19340
 C79 C 0.76365 0.14292 0.26817
 C80 C 0.81630 0.19582 0.21585
 H81 H 0.71389 0.28462 0.44429
 H82 H 0.82729 0.34596 0.18178
 H83 H 0.55569 0.24281 0.23196
 H84 H 0.76670 0.06756 0.26037
 C85 C 0.19728 0.68243 0.31879
 C86 C 0.26352 0.73599 0.37304
 C87 C 0.31187 0.79492 0.32596
 C88 C 0.29177 0.79068 0.22233
 C89 C 0.13572 0.75463 0.26449
 C90 C 0.18344 0.80811 0.20929
 C91 C 0.25990 0.62852 0.24936
 C92 C 0.31039 0.68517 0.19943
 H93 H 0.28083 0.71859 0.44205
 H94 H 0.33225 0.83660 0.18081
 H95 H 0.06129 0.75024 0.25734
 H96 H 0.25921 0.55431 0.23670
 O97 O 1.15348 0.04541 0.11263
 O98 O 0.84453 -0.05023 0.11949
 O99 O 0.94574 0.16790 0.11558
 O100 O 1.05326 -0.16313 0.10880
 O101 O 0.81966 0.11509 0.07581
 O102 O 1.18061 -0.11477 0.06645
 O103 O 0.89896 -0.17452 0.05322
 O104 O 1.09753 0.17505 0.05645
 C105 C 1.14383 0.13165 0.11612
 C106 C 0.85677 -0.13737 0.11915
 C107 C 0.86443 0.15480 0.13400
 C108 C 1.13616 -0.15187 0.12605
 O109 O 1.16082 -0.05665 -0.10962
 O110 O 0.83363 0.06281 -0.10109
 O111 O 1.03848 0.15883 -0.11400
 O112 O 0.94959 -0.15285 -0.12107
 O113 O 0.82303 -0.09183 -0.06175
 O114 O 1.16882 0.09477 -0.06373
 O115 O 1.11360 -0.18076 -0.06107
 O116 O 0.87859 0.18920 -0.05522
 Co117 Co 1.14945 -0.00730 0.00193
 Co118 Co 0.84642 0.00870 0.00813
 Co119 Co 0.99032 0.15556 0.00041
 Co120 Co 1.00354 -0.15079 -0.00500
 O121 O 0.99738 0.00159 0.00135
 C122 C 1.15057 -0.13907 -0.12163
 C123 C 0.84381 0.14551 -0.11662
 C124 C 1.12478 0.14303 -0.12237
 C125 C 0.86200 -0.13783 -0.12608
 O126 O 1.17259 0.59718 0.55886
 O127 O 0.82612 0.40200 0.56738
 O128 O 0.88405 0.68583 0.57170
 O129 O 1.11470 0.31939 0.56072
 O130 O 0.84174 0.55792 0.61913
 O131 O 1.16677 0.44372 0.60781
 O132 O 0.95620 0.34377 0.61776
 O133 O 1.04377 0.65515 0.61668
 C134 C 1.12965 0.64393 0.61948
 C135 C 0.87022 0.35399 0.62713
 C136 C 0.84891 0.64191 0.63323
 C137 C 1.15515 0.36137 0.62029
 O138 O 1.17986 0.38387 0.43398
 O139 O 0.81785 0.62040 0.44536
 O140 O 1.09509 0.67368 0.44107
 O141 O 0.89697 0.33038 0.44030
 O142 O 0.83735 0.46136 0.39142
 O143 O 1.15152 0.54311 0.38493
 O144 O 1.05155 0.34033 0.38887
 O145 O 0.94232 0.66749 0.39544
 Co146 Co 1.15112 0.49271 0.49661
 Co147 Co 0.84677 0.50986 0.50561
 Co148 Co 0.99160 0.65403 0.50631
 Co149 Co 1.00423 0.34961 0.50227
 O150 O 0.99838 0.50139 0.50256
 C151 C 1.13482 0.34864 0.37371
 C152 C 0.86037 0.65611 0.38303
 C153 C 1.14152 0.62923 0.38079
 C154 C 0.84845 0.37536 0.38167
 O155 O 0.66106 0.04450 0.61352
 O156 O 0.34836 -0.04622 0.62026
 O157 O 0.44718 0.16430 0.61695
 O158 O 0.56270 -0.16147 0.60975
 O159 O 0.32264 0.11490 0.57055
 O160 O 0.69009 -0.11720 0.56321
 O161 O 0.40658 -0.17428 0.56252
 O162 O 0.59985 0.17469 0.56152
 C163 C 0.64884 0.13133 0.61992
 C164 C 0.35997 -0.13287 0.62433
 C165 C 0.36567 0.15013 0.63248
 C166 C 0.64671 -0.15373 0.62400
 O167 O 0.66558 -0.05670 0.38804
 O168 O 0.34034 0.05778 0.39630
 O169 O 0.54310 0.15782 0.38941
 O170 O 0.45565 -0.15664 0.38535
 O171 O 0.32820 -0.09736 0.44293
 O172 O 0.67416 0.09701 0.43978
 O173 O 0.61752 -0.18054 0.43664
 O174 O 0.38346 0.18555 0.44303
 Co175 Co 0.65576 -0.00779 0.50154
 Co176 Co 0.35132 0.00682 0.50737
 Co177 Co 0.49385 0.15358 0.50254
 Co178 Co 0.51000 -0.15182 0.49867
 O179 O 0.50273 0.00012 0.50260
 C180 C 0.65042 -0.13821 0.37351
 C181 C 0.34904 0.14120 0.38157
 C182 C 0.62925 0.14399 0.38116
 C183 C 0.36893 -0.14389 0.38038
 O184 O 0.66116 0.53625 0.11326
 O185 O 0.34849 0.45453 0.11559
 O186 O 0.44420 0.65604 0.10970
 O187 O 0.56102 0.32423 0.08672
 O188 O 0.31974 0.61689 0.05602
 O189 O 0.68685 0.37510 0.04865
 O190 O 0.40879 0.32585 0.05777
 O191 O 0.59540 0.66686 0.06486
 C192 C 0.64361 0.62252 0.12334
 C193 C 0.36283 0.36706 0.12103
 C194 C 0.36092 0.64973 0.11967
 C195 C 0.64142 0.33796 0.10635
 O196 O 0.67746 0.44215 -0.11677
 O197 O 0.34185 0.55266 -0.11336
 O198 O 0.54826 0.65591 -0.11202
 O199 O 0.44071 0.35503 -0.12953
 O200 O 0.32165 0.39948 -0.05415
 O201 O 0.67779 0.59783 -0.05650
 O202 O 0.60479 0.32156 -0.09275
 O203 O 0.38837 0.68064 -0.06903
 Co204 Co 0.65839 0.48878 -0.00238
 Co205 Co 0.35076 0.50562 0.00038
 Co206 Co 0.49404 0.64886 -0.00224
 Co207 Co 0.50373 0.34762 -0.01939
 O208 O 0.50267 0.49748 -0.00578
 C209 C 0.65976 0.36253 -0.13995
 C210 C 0.35191 0.63593 -0.12918
 C211 C 0.63467 0.64536 -0.11614
 C212 C 0.35450 0.36092 -0.12347
   
