data_POSCAR
  _audit_creation_date              2014-09-24
  _audit_creation_method            'ToBaCCo'
  _symmetry_space_group_name_H-M    'P1'
  _symmetry_Int_Tables_number       1
  _symmetry_cell_setting            triclinic
  loop_
  _symmetry_equiv_pos_as_xyz
 x,y,z
_cell_length_a 31.2557
_cell_length_b 30.8616
_cell_length_c 31.2982
_cell_angle_alpha 89.150400
_cell_angle_beta 95.667600
_cell_angle_gamma 101.163300
loop_
  _atom_site_label
  _atom_site_type_symbol
  _atom_site_fract_x
  _atom_site_fract_y
  _atom_site_fract_z
C1 C 0.56769 0.55597 -0.04285
 C2 C 0.55721 0.60100 -0.03437
 C3 C 0.51497 0.60768 -0.02897
 C4 C 0.47973 0.57056 -0.02931
 C5 C 0.48574 0.52717 -0.03858
 C6 C 0.52740 0.51955 -0.04648
 C7 C 0.53214 0.47698 -0.05732
 C8 C 0.49698 0.44182 -0.05921
 C9 C 0.45565 0.44727 -0.04881
 C10 C 0.44965 0.49048 -0.03925
 C11 C 0.43817 0.57552 -0.01854
 C12 C 0.40338 0.54007 -0.01930
 C13 C 0.40822 0.49755 -0.02988
 C14 C 0.36861 0.46032 -0.03038
 C15 C 0.37894 0.41578 -0.04129
 C16 C 0.42073 0.41040 -0.04859
 H17 H 0.56346 0.47055 -0.06465
 H18 H 0.50282 0.41017 -0.06897
 H19 H 0.43178 0.60659 -0.00798
 H20 H 0.37230 0.54624 -0.01095
 H21 H 0.58410 0.62870 -0.03510
 H22 H 0.35285 0.38697 -0.04185
 C23 C -0.03730 0.57222 0.45687
 C24 C -0.03124 0.56361 0.41447
 C25 C -0.02328 0.52260 0.40146
 C26 C -0.02120 0.48912 0.43325
 C27 C -0.02956 0.49687 0.47617
 C28 C -0.03836 0.53829 0.48773
 C29 C -0.04944 0.54424 0.52940
 C30 C -0.05009 0.51092 0.55984
 C31 C -0.03886 0.47050 0.55017
 C32 C -0.02907 0.46312 0.50775
 C33 C -0.00938 0.44868 0.42404
 C34 C -0.00831 0.41602 0.45502
 C35 C -0.01909 0.42198 0.49677
 C36 C -0.01926 0.38827 0.52807
 C37 C -0.02961 0.39605 0.56947
 C38 C -0.03865 0.43659 0.58121
 H39 H -0.05870 0.57451 0.53870
 H40 H -0.05996 0.51721 0.59093
 H41 H 0.00044 0.44176 0.39316
 H42 H 0.00162 0.38613 0.44571
 H43 H -0.03415 0.58957 0.39139
 H44 H -0.03102 0.36989 0.59312
 C45 C 0.56303 -0.02223 0.59752
 C46 C 0.60586 -0.02159 0.58690
 C47 C 0.61733 -0.01696 0.54450
 C48 C 0.58380 -0.01315 0.51111
 C49 C 0.53934 -0.01839 0.52045
 C50 C 0.52873 -0.02491 0.56346
 C51 C 0.48402 -0.03430 0.57079
 C52 C 0.45109 -0.03392 0.53769
 C53 C 0.46083 -0.02366 0.49552
 C54 C 0.50535 -0.01670 0.48659
 C55 C 0.59345 -0.00312 0.46865
 C56 C 0.56053 -0.00098 0.43608
 C57 C 0.51647 -0.00827 0.44415
 C58 C 0.48236 -0.00671 0.40719
 C59 C 0.43638 -0.01466 0.42007
 C60 C 0.42681 -0.02197 0.46238
 H61 H 0.47301 -0.04378 0.60173
 H62 H 0.41762 -0.04230 0.54572
 H63 H 0.62654 0.00444 0.45974
 H64 H 0.56999 0.00659 0.40406
 H65 H 0.63009 -0.02773 0.61193
 H66 H 0.40976 -0.01420 0.39524
 O67 O 0.51557 0.01843 -0.06950
 O68 O 0.47773 0.01382 0.03794
 O69 O 0.49134 0.07487 -0.02019
 O70 O 0.50425 -0.04128 -0.01068
 O71 O 0.57262 -0.01920 0.01731
 O72 O 0.55976 0.09647 0.00777
 O73 O 0.54605 0.03576 0.06606
 O74 O 0.58406 0.04040 -0.04194
 Cu75 Cu 0.49032 0.01440 -0.01845
 Cu76 Cu 0.57249 0.04068 0.01516
 C77 C 0.55612 0.02951 -0.07410
 C78 C 0.50544 0.02385 0.07034
 C79 C 0.52342 0.10542 -0.00762
 C80 C 0.54084 -0.04991 0.00473
 O81 O -0.06036 0.56120 0.98715
 O82 O 0.04016 0.51537 0.99901
 O83 O -0.00731 0.54124 0.93477
 O84 O -0.01179 0.53610 1.05193
 O85 O -0.05097 0.46842 1.04588
 O86 O -0.04650 0.47355 0.92821
 O87 O 0.00111 0.44761 0.99270
 O88 O -0.09938 0.49345 0.98077
 Cu89 Cu -0.00593 0.54528 0.99397
 Cu90 Cu -0.05302 0.46399 0.98634
 C91 C -0.09708 0.53496 0.98164
 C92 C 0.03785 0.47387 0.99753
 C93 C -0.02587 0.50826 0.91154
 C94 C -0.03188 0.50139 1.06896
 O95 O 0.01954 -0.07360 0.52409
 O96 O 0.03536 0.04766 0.52830
 O97 O 0.08712 -0.00901 0.52108
 O98 O -0.03116 -0.01676 0.53214
 O99 O -0.01719 -0.01858 0.60264
 O100 O 0.10021 -0.01073 0.59164
 O101 O 0.04913 0.04586 0.59882
 O102 O 0.03318 -0.07561 0.59458
 Cu103 Cu 0.02655 -0.01279 0.51930
 Cu104 Cu 0.04279 -0.01502 0.60392
 C105 C 0.02345 -0.09529 0.55859
 C106 C 0.04421 0.06735 0.56437
 C107 C 0.11376 -0.00861 0.55462
 C108 C -0.04411 -0.01857 0.56951
 C109 C -0.38464 0.54641 0.95247
 C110 C -0.34644 0.57803 0.95879
 C111 C -0.30320 0.56562 0.95835
 C112 C -0.26531 0.59601 0.97291
 C113 C -0.22425 0.58398 0.97571
 C114 C -0.22039 0.54127 0.96352
 C115 C -0.25826 0.51128 0.94809
 C116 C -0.29921 0.52325 0.94543
 C117 C -0.17827 0.52575 0.96797
 C118 C -0.13731 0.55318 0.97628
 H119 H -0.34782 0.61157 0.96734
 H120 H -0.26760 0.62878 0.98318
 H121 H -0.19615 0.60795 0.98847
 H122 H -0.25624 0.47821 0.93848
 H123 H -0.32773 0.49902 0.93380
 H124 H -0.17965 0.49064 0.96416
 H125 H -0.40820 0.55289 0.95509
 H126 H -0.13405 0.58860 0.97826
 C127 C 0.32205 0.46875 0.98009
 C128 C 0.28472 0.43606 0.97994
 C129 C 0.24263 0.44722 0.98881
 C130 C 0.20393 0.41560 0.98134
 C131 C 0.16342 0.42633 0.98710
 C132 C 0.16107 0.46898 1.00089
 C133 C 0.19998 0.50012 1.00945
 C134 C 0.24031 0.48947 1.00354
 C135 C 0.11916 0.48356 1.00427
 C136 C 0.07811 0.45577 1.00033
 H137 H 0.28575 0.40234 0.97171
 H138 H 0.20493 0.38284 0.97000
 H139 H 0.13435 0.40140 0.97954
 H140 H 0.19916 0.53318 1.02009
 H141 H 0.26956 0.51461 1.01003
 H142 H 0.12070 0.51861 1.00873
 H143 H 0.34506 0.46273 0.97453
 H144 H 0.07484 0.42039 0.99780
 C145 C -0.04245 -0.38245 0.46685
 C146 C -0.01365 -0.35642 0.49754
 C147 C -0.01149 -0.30840 0.50343
 C148 C 0.01119 -0.28779 0.54097
 C149 C 0.01611 -0.24218 0.54688
 C150 C -0.00161 -0.21611 0.51515
 C151 C -0.02413 -0.23670 0.47757
 C152 C -0.02908 -0.28226 0.47167
 C153 C 0.00431 -0.16741 0.51885
 C154 C 0.01697 -0.14381 0.55723
 H155 H 0.00925 -0.37194 0.51772
 H156 H 0.02563 -0.30701 0.56566
 H157 H 0.03476 -0.22763 0.57581
 H158 H -0.03760 -0.21736 0.45236
 H159 H -0.04558 -0.29628 0.44164
 H160 H -0.00250 -0.14927 0.48985
 H161 H -0.06537 -0.36813 0.44569
 H162 H 0.02166 -0.16086 0.58724
 C163 C -0.01097 0.34389 0.51795
 C164 C 0.01353 0.32124 0.54707
 C165 C 0.02016 0.27548 0.54084
 C166 C 0.05006 0.25897 0.57009
 C167 C 0.05587 0.21536 0.56713
 C168 C 0.03155 0.18710 0.53486
 C169 C 0.00251 0.20385 0.50491
 C170 C -0.00345 0.24742 0.50796
 C171 C 0.03502 0.14007 0.53175
 C172 C 0.04773 0.11549 0.56693
 H173 H 0.02907 0.33826 0.57628
 H174 H 0.06887 0.27984 0.59560
 H175 H 0.07952 0.20411 0.59006
 H176 H -0.01653 0.18278 0.47967
 H177 H -0.02729 0.25823 0.48502
 H178 H 0.02317 0.12311 0.50155
 H179 H -0.02426 0.32937 0.48716
 H180 H 0.05680 0.13091 0.59817
 C181 C 0.55505 -0.01943 -0.35879
 C182 C 0.58748 -0.00863 -0.32426
 C183 C 0.57638 -0.00463 -0.27983
 C184 C 0.60461 0.02508 -0.25138
 C185 C 0.59422 0.03058 -0.20962
 C186 C 0.55553 0.00587 -0.19545
 C187 C 0.52776 -0.02437 -0.22372
 C188 C 0.53817 -0.02991 -0.26534
 C189 C 0.54233 0.01103 -0.15205
 C190 C 0.57115 0.02889 -0.11704
 H191 H 0.62156 0.00178 -0.32960
 H192 H 0.63432 0.04479 -0.26181
 H193 H 0.61607 0.05482 -0.18909
 H194 H 0.49793 -0.04402 -0.21348
 H195 H 0.51641 -0.05424 -0.28591
 H196 H 0.50852 -0.00225 -0.14689
 H197 H 0.52215 -0.02135 -0.35069
 H198 H 0.60568 0.03999 -0.12023
 C199 C 0.49580 0.00278 0.35678
 C200 C 0.46580 0.00747 0.32217
 C201 C 0.47962 0.01490 0.27843
 C202 C 0.44825 0.01899 0.24414
 C203 C 0.46028 0.02500 0.20230
 C204 C 0.50404 0.02672 0.19401
 C205 C 0.53554 0.02368 0.22848
 C206 C 0.52354 0.01767 0.27024
 C207 C 0.51824 0.03179 0.15022
 C208 C 0.48974 0.02117 0.11313
 H209 H 0.43162 0.00535 0.32698
 H210 H 0.41432 0.01744 0.24970
 H211 H 0.43525 0.02870 0.17687
 H212 H 0.56951 0.02529 0.22301
 H213 H 0.54869 0.01493 0.29595
 H214 H 0.55301 0.04182 0.14718
 H215 H 0.48755 -0.00208 0.38165
 H216 H 0.45516 0.00900 0.11513
 C217 C 0.50776 -0.34854 -0.02551
 C218 C 0.54011 -0.31218 -0.01111
 C219 C 0.53254 -0.26626 -0.00996
 C220 C 0.56895 -0.23149 -0.00874
 C221 C 0.56371 -0.18761 -0.00763
 C222 C 0.52176 -0.17752 -0.00711
 C223 C 0.48531 -0.21224 -0.00822
 C224 C 0.49055 -0.25619 -0.00928
 C225 C 0.51475 -0.13142 -0.00686
 C226 C 0.54741 -0.09576 0.00763
 H227 H 0.57266 -0.31684 0.00039
 H228 H 0.60164 -0.23828 -0.00927
 H229 H 0.59256 -0.16189 -0.00811
 H230 H 0.45265 -0.20535 -0.00783
 H231 H 0.46167 -0.28184 -0.00879
 H232 H 0.48241 -0.12546 -0.01780
 H233 H 0.47555 -0.34225 -0.03536
 H234 H 0.57908 -0.10119 0.02132
 C235 C 0.42634 0.36439 -0.05462
 C236 C 0.45599 0.34613 -0.02709
 C237 C 0.46155 0.29952 -0.02832
 C238 C 0.49175 0.28577 0.00261
 C239 C 0.49833 0.24229 0.00323
 C240 C 0.47490 0.21146 -0.02735
 C241 C 0.44439 0.22493 -0.05805
 C242 C 0.43793 0.26855 -0.05883
 C243 C 0.48053 0.16492 -0.02716
 C244 C 0.51896 0.15192 -0.00999
 H245 H 0.47606 0.36748 -0.00257
 H246 H 0.51020 0.30875 0.02666
 H247 H 0.52112 0.23287 0.02828
 H248 H 0.42573 0.20168 -0.08176
 H249 H 0.41447 0.27738 -0.08344
 H250 H 0.45399 0.14029 -0.04209
 H251 H 0.40282 0.34391 -0.07709
 H252 H 0.54700 0.17645 0.00211
 C253 C -0.33897 -0.01808 0.53586
 C254 C -0.30232 -0.00917 0.56654
 C255 C -0.25680 -0.01217 0.55854
 C256 C -0.22244 0.00605 0.58930
 C257 C -0.17908 0.00358 0.58411
 C258 C -0.16889 -0.01753 0.54799
 C259 C -0.20303 -0.03540 0.51694
 C260 C -0.24659 -0.03321 0.52225
 C261 C -0.12303 -0.02013 0.54144
 C262 C -0.09049 -0.01967 0.57551
 H263 H -0.30603 0.00376 0.59760
 H264 H -0.22912 0.02254 0.61752
 H265 H -0.15363 0.01900 0.60812
 H266 H -0.19604 -0.05170 0.48874
 H267 H -0.27183 -0.04858 0.49811
 H268 H -0.11493 -0.02357 0.50895
 H269 H -0.33291 -0.02543 0.50379
 H270 H -0.09899 -0.01978 0.60821
 C271 C 0.37971 -0.02895 0.46957
 C272 C 0.36340 -0.00140 0.49626
 C273 C 0.31593 -0.00407 0.50014
 C274 C 0.30317 0.01415 0.53657
 C275 C 0.25885 0.01305 0.54115
 C276 C 0.22614 -0.00622 0.50914
 C277 C 0.23896 -0.02352 0.47226
 C278 C 0.28326 -0.02260 0.46777
 C279 C 0.17873 -0.00776 0.51248
 C280 C 0.16101 -0.00575 0.55152
 H281 H 0.38663 0.02295 0.51562
 H282 H 0.32763 0.02934 0.56164
 H283 H 0.25059 0.02812 0.56941
 H284 H 0.21456 -0.03789 0.44678
 H285 H 0.29158 -0.03558 0.43846
 H286 H 0.15665 -0.01291 0.48328
 H287 H 0.35735 -0.05330 0.44958
 H288 H 0.18201 -0.00379 0.58132
 C289 C -0.01972 0.51509 1.35733
 C290 C -0.00870 0.54900 1.32763
 C291 C -0.00877 0.54205 1.28077
 C292 C -0.03364 0.50456 1.25891
 C293 C -0.03452 0.50088 1.21418
 C294 C -0.01063 0.53473 1.19040
 C295 C 0.01425 0.57189 1.21250
 C296 C 0.01505 0.57557 1.25698
 C297 C -0.01100 0.53372 1.14285
 C298 C -0.03315 0.49904 1.11598
 H299 H 0.00355 0.58238 1.33919
 H300 H -0.05340 0.47855 1.27592
 H301 H -0.05449 0.47180 1.19869
 H302 H 0.03293 0.59855 1.19521
 H303 H 0.03423 0.60498 1.27285
 H304 H 0.00745 0.56239 1.12801
 H305 H -0.02499 0.48171 1.34541
 H306 H -0.05149 0.46937 1.12904
 C307 C -0.04938 0.44053 0.62593
 C308 C -0.02576 0.47325 0.65411
 C309 C -0.03176 0.47472 0.70057
 C310 C 0.00087 0.50114 0.72809
 C311 C -0.00281 0.50263 0.77223
 C312 C -0.03958 0.47788 0.78985
 C313 C -0.07241 0.45183 0.76232
 C314 C -0.06886 0.45052 0.71817
 C315 C -0.04399 0.47707 0.83666
 C316 C -0.02254 0.51075 0.86489
 H317 H 0.00018 0.49739 0.64199
 H318 H 0.02977 0.52015 0.71549
 H319 H 0.02374 0.52230 0.79241
 H320 H -0.10111 0.43254 0.77503
 H321 H -0.09545 0.43073 0.69819
 H322 H -0.06597 0.44934 0.84920
 H323 H -0.07156 0.41295 0.63824
 H324 H -0.00295 0.54026 0.85269
   
