data_POSCAR
  _audit_creation_date              2014-09-24
  _audit_creation_method            'ToBaCCo'
  _symmetry_space_group_name_H-M    'P1'
  _symmetry_Int_Tables_number       1
  _symmetry_cell_setting            triclinic
  loop_
  _symmetry_equiv_pos_as_xyz
 x,y,z
_cell_length_a 29.4638
_cell_length_b 29.4546
_cell_length_c 29.4627
_cell_angle_alpha 90.114000
_cell_angle_beta 89.953900
_cell_angle_gamma 90.184900
loop_
  _atom_site_label
  _atom_site_type_symbol
  _atom_site_fract_x
  _atom_site_fract_y
  _atom_site_fract_z
O1 O -0.11938 0.05611 -0.00236
 O2 O 0.11397 0.06627 0.00809
 O3 O -0.01106 0.11477 0.06480
 O4 O -0.00046 0.12057 -0.05589
 O5 O 0.00440 0.06837 -0.11379
 O6 O -0.01064 0.05788 0.11855
 O7 O 0.05722 0.12008 0.00660
 O8 O -0.06703 0.11422 0.00319
 Zr9 Zr -0.00352 0.08060 0.00295
 O10 O 0.04133 0.04595 -0.03766
 O11 O -0.04511 0.03805 0.03985
 C12 C -0.10837 0.09865 0.00128
 C13 C 0.09961 0.10772 0.00867
 C14 C -0.01356 0.10020 0.10613
 C15 C 0.00297 0.10978 -0.09844
 H16 H 0.05402 0.06098 0.06572
 O17 O 0.03670 0.04168 0.04433
 H18 H -0.06024 0.06136 -0.06122
 O19 O -0.04106 0.04204 -0.04170
 O20 O 0.11899 -0.05473 0.00401
 O21 O -0.11353 -0.06648 -0.01025
 O22 O 0.05452 -0.00329 0.11912
 O23 O 0.06560 0.01202 -0.11392
 O24 O -0.05517 0.00240 -0.12025
 O25 O -0.06812 -0.00465 0.11251
 O26 O 0.00396 -0.11823 0.05532
 O27 O 0.00559 -0.11242 -0.06764
 O28 O -0.00199 -0.06609 0.11336
 O29 O 0.00619 -0.05425 -0.11984
 O30 O 0.11277 0.00095 0.06698
 O31 O -0.12002 -0.00534 0.05403
 O32 O -0.11329 -0.00381 -0.06848
 O33 O 0.11912 0.01070 -0.05684
 O34 O 0.06666 -0.11271 -0.00145
 O35 O -0.05552 -0.11860 -0.01006
 Zr36 Zr 0.07938 0.00435 0.00339
 Zr37 Zr -0.07975 -0.00314 -0.00499
 Zr38 Zr -0.00457 -0.00263 0.07926
 Zr39 Zr 0.00360 0.00504 -0.07992
 Zr40 Zr 0.00361 -0.07867 -0.00429
 O41 O -0.03725 -0.04026 -0.04579
 O42 O 0.04047 -0.04007 0.04082
 C43 C 0.10787 -0.09728 0.00223
 C44 C -0.09820 -0.10784 -0.01167
 C45 C 0.09715 -0.00214 0.10818
 C46 C 0.10693 0.01395 -0.09922
 C47 C -0.09776 -0.00155 -0.10976
 C48 C -0.10928 -0.00489 0.09672
 C49 C 0.00180 -0.10747 0.09808
 C50 C 0.00576 -0.09689 -0.10889
 H51 H -0.06069 -0.06483 0.05400
 O52 O -0.04128 -0.04384 0.03637
 H53 H 0.06568 -0.05367 -0.06094
 O54 O 0.04462 -0.03619 -0.04151
 O55 O 0.38017 0.55616 -0.00268
 O56 O 0.61319 0.56869 0.00448
 O57 O 0.48800 0.61533 0.06303
 O58 O 0.49869 0.61964 -0.05680
 O59 O 0.50430 0.56696 -0.11428
 O60 O 0.49068 0.56029 0.11821
 O61 O 0.55483 0.62058 0.00427
 O62 O 0.43243 0.61420 0.00202
 Zr63 Zr 0.49564 0.58028 0.00210
 O64 O 0.54068 0.54556 -0.03813
 O65 O 0.45459 0.53879 0.04006
 C66 C 0.39114 0.59867 0.00042
 C67 C 0.59753 0.60990 0.00403
 C68 C 0.48688 0.60240 0.10491
 C69 C 0.50268 0.60833 -0.09903
 H70 H 0.55430 0.56268 0.06455
 O71 O 0.53681 0.54278 0.04386
 H72 H 0.43918 0.56082 -0.06195
 O73 O 0.45845 0.54169 -0.04232
 O74 O 0.61885 0.44572 0.00469
 O75 O 0.38600 0.43542 -0.01094
 O76 O 0.55537 0.49863 0.11906
 O77 O 0.56518 0.51076 -0.11410
 O78 O 0.44440 0.50090 -0.12004
 O79 O 0.43238 0.49724 0.11310
 O80 O 0.50343 0.38273 0.05664
 O81 O 0.50533 0.38674 -0.06629
 O82 O 0.49833 0.43562 0.11427
 O83 O 0.50603 0.44437 -0.11906
 O84 O 0.61340 0.50313 0.06679
 O85 O 0.38033 0.49556 0.05471
 O86 O 0.38641 0.49607 -0.06799
 O87 O 0.61900 0.51031 -0.05725
 O88 O 0.56640 0.38761 0.00008
 O89 O 0.44274 0.38170 -0.00885
 Zr90 Zr 0.57952 0.50515 0.00324
 Zr91 Zr 0.42024 0.49741 -0.00459
 Zr92 Zr 0.49581 0.49883 0.07962
 Zr93 Zr 0.50326 0.50406 -0.07987
 Zr94 Zr 0.50308 0.42137 -0.00330
 O95 O 0.46237 0.45948 -0.04505
 O96 O 0.54040 0.46095 0.04105
 C97 C 0.60767 0.40310 0.00351
 C98 C 0.40048 0.39404 -0.01241
 C99 C 0.59809 0.50012 0.10819
 C100 C 0.60657 0.51302 -0.09961
 C101 C 0.40181 0.49744 -0.10937
 C102 C 0.39117 0.49664 0.09738
 C103 C 0.50164 0.39415 0.09916
 C104 C 0.50570 0.40186 -0.10772
 H105 H 0.43909 0.43625 0.05483
 O106 O 0.45868 0.45706 0.03718
 H107 H 0.56536 0.44590 -0.06009
 O108 O 0.54435 0.46361 -0.04083
 O109 O -0.11932 0.55518 0.49953
 O110 O 0.11393 0.56522 0.50832
 O111 O -0.00901 0.61318 0.56702
 O112 O -0.00086 0.61921 0.44438
 O113 O 0.00402 0.56679 0.38634
 O114 O -0.00941 0.55502 0.61927
 O115 O 0.05723 0.61907 0.50679
 O116 O -0.06700 0.61326 0.50441
 Zr117 Zr -0.00343 0.57954 0.50387
 O118 O 0.04113 0.54449 0.46288
 O119 O -0.04462 0.53691 0.54133
 C120 C -0.10847 0.59784 0.50275
 C121 C 0.09959 0.60667 0.50877
 C122 C -0.01094 0.59762 0.60822
 C123 C 0.00231 0.60823 0.40178
 H124 H 0.05488 0.55964 0.56622
 O125 O 0.03724 0.54056 0.54492
 H126 H -0.06016 0.55973 0.44011
 O127 O -0.04079 0.54040 0.45943
 O128 O 0.11932 0.44415 0.50460
 O129 O -0.11345 0.43264 0.49110
 O130 O 0.05582 0.49518 0.61949
 O131 O 0.06680 0.50899 0.38668
 O132 O -0.05583 0.50038 0.38079
 O133 O -0.06520 0.49157 0.61421
 O134 O 0.00473 0.38035 0.55570
 O135 O 0.00792 0.38578 0.43469
 O136 O -0.00005 0.43261 0.61368
 O137 O 0.00642 0.44250 0.38080
 O138 O 0.11371 0.50007 0.56721
 O139 O -0.11921 0.49298 0.55757
 O140 O -0.11375 0.49535 0.43327
 O141 O 0.11906 0.50951 0.44487
 O142 O 0.06702 0.38615 0.49971
 O143 O -0.05528 0.38049 0.49048
 Zr144 Zr 0.07947 0.50320 0.50411
 Zr145 Zr -0.07979 0.49582 0.49680
 Zr146 Zr -0.00330 0.49572 0.57963
 Zr147 Zr 0.00367 0.50320 0.42029
 Zr148 Zr 0.00397 0.42025 0.49668
 O149 O -0.03728 0.45855 0.45545
 O150 O 0.04146 0.45833 0.54153
 C151 C 0.10826 0.40156 0.50303
 C152 C -0.09787 0.39147 0.48900
 C153 C 0.09838 0.49668 0.60845
 C154 C 0.10801 0.51105 0.40228
 C155 C -0.09837 0.49707 0.39186
 C156 C -0.10672 0.49114 0.59997
 C157 C 0.00335 0.39138 0.59827
 C158 C 0.00827 0.40010 0.39321
 H159 H -0.05982 0.43351 0.55501
 O160 O -0.04075 0.45481 0.53739
 H161 H 0.06598 0.44500 0.44017
 O162 O 0.04474 0.46258 0.45928
 O163 O 0.38015 0.05399 0.50013
 O164 O 0.61307 0.06637 0.50529
 O165 O 0.49073 0.11204 0.56736
 O166 O 0.49798 0.11783 0.44482
 O167 O 0.50345 0.06556 0.38668
 O168 O 0.49116 0.05400 0.61967
 O169 O 0.55482 0.11839 0.50599
 O170 O 0.43245 0.11202 0.50503
 Zr171 Zr 0.49570 0.07820 0.50417
 O172 O 0.54036 0.04352 0.46291
 O173 O 0.45505 0.03596 0.54207
 C174 C 0.39115 0.09650 0.50347
 C175 C 0.59744 0.10757 0.50539
 C176 C 0.48937 0.09657 0.60863
 C177 C 0.50144 0.10694 0.40226
 H178 H 0.55507 0.05934 0.56576
 O179 O 0.53727 0.03991 0.54488
 H180 H 0.43918 0.05857 0.44037
 O181 O 0.45870 0.03927 0.45957
 O182 O 0.61925 -0.05645 0.50448
 O183 O 0.38600 -0.06681 0.49025
 O184 O 0.55642 -0.00546 0.61917
 O185 O 0.56623 0.00765 0.38645
 O186 O 0.44383 -0.00122 0.38129
 O187 O 0.43533 -0.00939 0.61481
 O188 O 0.50454 -0.12053 0.55567
 O189 O 0.50701 -0.11557 0.43540
 O190 O 0.50073 -0.06817 0.61362
 O191 O 0.50586 -0.05922 0.38121
 O192 O 0.61411 0.00042 0.56672
 O193 O 0.38106 -0.00799 0.55841
 O194 O 0.38609 -0.00562 0.43402
 O195 O 0.61884 0.00853 0.44433
 O196 O 0.56692 -0.11461 0.49993
 O197 O 0.44307 -0.12028 0.49070
 Zr198 Zr 0.57951 0.00286 0.50379
 Zr199 Zr 0.42013 -0.00489 0.49743
 Zr200 Zr 0.49700 -0.00512 0.57979
 Zr201 Zr 0.50329 0.00190 0.42046
 Zr202 Zr 0.50348 -0.08079 0.49696
 O203 O 0.46236 -0.04236 0.45596
 O204 O 0.54147 -0.04225 0.54125
 C205 C 0.60822 -0.09912 0.50311
 C206 C 0.40073 -0.10805 0.48770
 C207 C 0.59893 -0.00339 0.60799
 C208 C 0.60752 0.00986 0.40180
 C209 C 0.40139 -0.00443 0.39258
 C210 C 0.39374 -0.00978 0.60076
 C211 C 0.50384 -0.10936 0.59813
 C212 C 0.50733 -0.10163 0.39385
 H213 H 0.43996 -0.06746 0.55538
 O214 O 0.45910 -0.04611 0.53787
 H215 H 0.56552 -0.05606 0.44029
 O216 O 0.54443 -0.03840 0.45949
 C217 C 0.21131 0.16146 0.03973
 C218 C 0.21234 0.20122 0.01290
 C219 C 0.17268 0.21196 -0.01230
 C220 C 0.13455 0.18289 -0.01177
 C221 C 0.13552 0.14250 0.01306
 C222 C 0.17378 0.13265 0.03938
 C223 C 0.17165 0.25108 -0.03873
 C224 C 0.20909 0.27978 -0.04115
 C225 C 0.24963 0.27038 -0.01731
 C226 C 0.25134 0.23032 0.01003
 C227 C 0.29216 0.22042 0.03317
 C228 C 0.32961 0.24904 0.03074
 C229 C 0.32823 0.28873 0.00522
 C230 C 0.28842 0.29985 -0.01957
 C231 C 0.28897 0.34053 -0.04502
 C232 C 0.32631 0.36963 -0.04390
 C233 C 0.36479 0.35920 -0.01811
 C234 C 0.36615 0.31802 0.00535
 H235 H 0.23905 0.15108 0.06100
 H236 H 0.10505 0.19059 -0.03233
 H237 H 0.17500 0.10184 0.05941
 H238 H 0.14154 0.25958 -0.05803
 H239 H 0.20503 0.30911 -0.06245
 H240 H 0.29657 0.19055 0.05363
 H241 H 0.35993 0.24015 0.04952
 H242 H 0.26084 0.35162 -0.06541
 H243 H 0.32470 0.40115 -0.06277
 H244 H 0.39576 0.30990 0.02558
 C245 C 0.21122 -0.33973 0.53976
 C246 C 0.21253 -0.30034 0.51242
 C247 C 0.17299 -0.28965 0.48700
 C248 C 0.13476 -0.31854 0.48771
 C249 C 0.13551 -0.35864 0.51299
 C250 C 0.17358 -0.36835 0.53960
 C251 C 0.17220 -0.25079 0.46019
 C252 C 0.20973 -0.22225 0.45769
 C253 C 0.25014 -0.23160 0.48177
 C254 C 0.25168 -0.27152 0.50930
 C255 C 0.29250 -0.28161 0.53236
 C256 C 0.33003 -0.25314 0.52988
 C257 C 0.32872 -0.21343 0.50440
 C258 C 0.28897 -0.20221 0.47956
 C259 C 0.28957 -0.16146 0.45422
 C260 C 0.32689 -0.13236 0.45556
 C261 C 0.36526 -0.14291 0.48145
 C262 C 0.36662 -0.18417 0.50470
 H263 H 0.23878 -0.34991 0.56136
 H264 H 0.10536 -0.31095 0.46697
 H265 H 0.17457 -0.39893 0.56001
 H266 H 0.14219 -0.24236 0.44070
 H267 H 0.20588 -0.19311 0.43608
 H268 H 0.29685 -0.31154 0.55274
 H269 H 0.36034 -0.26213 0.54863
 H270 H 0.26146 -0.15026 0.43388
 H271 H 0.32532 -0.10073 0.43689
 H272 H 0.39617 -0.19233 0.52502
 C273 C 0.85397 0.77493 -0.01490
 C274 C 0.80666 0.78265 -0.01223
 C275 C 0.79177 0.82838 -0.01134
 C276 C 0.82315 0.86445 -0.01240
 C277 C 0.87012 0.85622 -0.01370
 C278 C 0.88485 0.81090 -0.01551
 C279 C 0.74559 0.83808 -0.00881
 C280 C 0.71361 0.80348 -0.00637
 C281 C 0.72651 0.75732 -0.00638
 C282 C 0.77380 0.74670 -0.00995
 C283 C 0.78664 0.70053 -0.01086
 C284 C 0.75470 0.66594 -0.00804
 C285 C 0.70865 0.67564 -0.00401
 C286 C 0.69372 0.72139 -0.00302
 C287 C 0.64651 0.72909 0.00147
 C288 C 0.61580 0.69303 0.00423
 C289 C 0.63074 0.64791 0.00280
 C290 C 0.67740 0.63959 -0.00112
 H291 H 0.86858 0.74152 -0.01604
 H292 H 0.81069 0.89905 -0.01118
 H293 H 0.92067 0.80276 -0.01696
 H294 H 0.73395 0.87296 -0.00837
 H295 H 0.67881 0.81431 -0.00451
 H296 H 0.82134 0.68966 -0.01383
 H297 H 0.76631 0.63105 -0.00891
 H298 H 0.63192 0.76250 0.00302
 H299 H 0.58001 0.70077 0.00732
 H300 H 0.68959 0.60491 -0.00235
 C301 C 0.85252 0.27307 0.47974
 C302 C 0.80553 0.28055 0.48645
 C303 C 0.79096 0.32606 0.49225
 C304 C 0.82231 0.36203 0.49181
 C305 C 0.86879 0.35382 0.48620
 C306 C 0.88340 0.30905 0.47975
 C307 C 0.74521 0.33558 0.49907
 C308 C 0.71334 0.30093 0.50119
 C309 C 0.72596 0.25493 0.49645
 C310 C 0.77273 0.24460 0.48818
 C311 C 0.78512 0.19869 0.48210
 C312 C 0.75326 0.16402 0.48457
 C313 C 0.70782 0.17341 0.49340
 C314 C 0.69337 0.21891 0.49959
 C315 C 0.64681 0.22628 0.50890
 C316 C 0.61618 0.19020 0.51117
 C317 C 0.63063 0.14540 0.50454
 C318 C 0.67667 0.13731 0.49590
 H319 H 0.86688 0.23985 0.47499
 H320 H 0.81043 0.39648 0.49689
 H321 H 0.91907 0.30153 0.47507
 H322 H 0.73386 0.37033 0.50321
 H323 H 0.67886 0.31161 0.50651
 H324 H 0.81935 0.18813 0.47515
 H325 H 0.76445 0.12932 0.47962
 H326 H 0.63269 0.25943 0.51478
 H327 H 0.58088 0.19762 0.51820
 H328 H 0.68835 0.10284 0.49054
 C329 C 0.77265 0.14703 -0.00031
 C330 C 0.78017 0.19430 0.00438
 C331 C 0.82576 0.20942 0.00851
 C332 C 0.86189 0.17833 0.00773
 C333 C 0.85372 0.13168 0.00272
 C334 C 0.80871 0.11654 -0.00109
 C335 C 0.83524 0.25554 0.01323
 C336 C 0.80059 0.28733 0.01344
 C337 C 0.75461 0.27429 0.00895
 C338 C 0.74418 0.22693 0.00479
 C339 C 0.69814 0.21383 0.00104
 C340 C 0.66354 0.24565 0.00072
 C341 C 0.67310 0.29186 0.00404
 C342 C 0.71868 0.30699 0.00835
 C343 C 0.72628 0.35437 0.01153
 C344 C 0.69033 0.38500 0.01017
 C345 C 0.64538 0.36987 0.00563
 C346 C 0.63710 0.32307 0.00283
 H347 H 0.73939 0.13224 -0.00371
 H348 H 0.89647 0.19064 0.01088
 H349 H 0.80105 0.08074 -0.00493
 H350 H 0.86998 0.26730 0.01662
 H351 H 0.81127 0.32210 0.01721
 H352 H 0.68740 0.17900 -0.00176
 H353 H 0.62878 0.23386 -0.00240
 H354 H 0.75954 0.36918 0.01483
 H355 H 0.69807 0.42090 0.01258
 H356 H 0.60255 0.31074 -0.00062
 C357 C 0.77406 -0.35526 0.50248
 C358 C 0.78156 -0.30784 0.50469
 C359 C 0.82721 -0.29257 0.50713
 C360 C 0.86344 -0.32366 0.50674
 C361 C 0.85544 -0.37068 0.50393
 C362 C 0.81013 -0.38580 0.50209
 C363 C 0.83663 -0.24625 0.50980
 C364 C 0.80189 -0.21450 0.50991
 C365 C 0.75582 -0.22774 0.50719
 C366 C 0.74547 -0.27522 0.50447
 C367 C 0.69941 -0.28844 0.50130
 C368 C 0.66471 -0.25668 0.50067
 C369 C 0.67413 -0.21037 0.50329
 C370 C 0.71974 -0.19511 0.50681
 C371 C 0.72718 -0.14768 0.50969
 C372 C 0.69110 -0.11713 0.50865
 C373 C 0.64611 -0.13235 0.50474
 C374 C 0.63798 -0.17924 0.50226
 H375 H 0.74071 -0.37019 0.50100
 H376 H 0.89798 -0.31091 0.50843
 H377 H 0.80206 -0.42166 0.50019
 H378 H 0.87142 -0.23429 0.51174
 H379 H 0.81257 -0.17959 0.51192
 H380 H 0.68875 -0.32333 0.49894
 H381 H 0.62995 -0.26860 0.49801
 H382 H 0.76043 -0.13278 0.51281
 H383 H 0.69876 -0.08120 0.51087
 H384 H 0.60343 -0.19168 0.49936
 C385 C 0.22685 0.35278 0.50896
 C386 C 0.21906 0.30538 0.50680
 C387 C 0.17335 0.29027 0.50405
 C388 C 0.13744 0.32153 0.50293
 C389 C 0.14592 0.36834 0.50465
 C390 C 0.19097 0.38346 0.50788
 C391 C 0.16358 0.24402 0.50229
 C392 C 0.19808 0.21211 0.50307
 C393 C 0.24420 0.22518 0.50548
 C394 C 0.25490 0.27262 0.50719
 C395 C 0.30105 0.28571 0.50886
 C396 C 0.33558 0.25383 0.50873
 C397 C 0.32580 0.20758 0.50714
 C398 C 0.28006 0.19242 0.50582
 C399 C 0.27225 0.14499 0.50480
 C400 C 0.30820 0.11436 0.50432
 C401 C 0.35334 0.12957 0.50494
 C402 C 0.36179 0.17639 0.50666
 H403 H 0.26019 0.36756 0.51160
 H404 H 0.10278 0.30924 0.50062
 H405 H 0.19882 0.41938 0.50952
 H406 H 0.12872 0.23227 0.50020
 H407 H 0.18719 0.17725 0.50136
 H408 H 0.31197 0.32058 0.50994
 H409 H 0.37047 0.26562 0.50979
 H410 H 0.23883 0.13014 0.50437
 H411 H 0.30037 0.07841 0.50334
 H412 H 0.39649 0.18875 0.50738
 C413 C 0.22640 0.85419 0.00908
 C414 C 0.21868 0.80681 0.00669
 C415 C 0.17306 0.79165 0.00301
 C416 C 0.13711 0.82282 0.00184
 C417 C 0.14552 0.86960 0.00403
 C418 C 0.19050 0.88480 0.00778
 C419 C 0.16338 0.74544 0.00032
 C420 C 0.19795 0.71362 0.00059
 C421 C 0.24401 0.72678 0.00372
 C422 C 0.25453 0.77413 0.00744
 C423 C 0.30052 0.78720 0.01174
 C424 C 0.33511 0.75540 0.01164
 C425 C 0.32555 0.70930 0.00715
 C426 C 0.27994 0.69417 0.00321
 C427 C 0.27234 0.64693 -0.00142
 C428 C 0.30835 0.61644 -0.00216
 C429 C 0.35333 0.63163 0.00161
 C430 C 0.36160 0.67823 0.00643
 H431 H 0.25972 0.86904 0.01164
 H432 H 0.10251 0.81050 -0.00101
 H433 H 0.19829 0.92072 0.00959
 H434 H 0.12858 0.73364 -0.00227
 H435 H 0.18713 0.67877 -0.00161
 H436 H 0.31124 0.82196 0.01540
 H437 H 0.36988 0.76715 0.01491
 H438 H 0.23908 0.63214 -0.00490
 H439 H 0.30068 0.58064 -0.00594
 H440 H 0.39620 0.69052 0.00952
 C441 C -0.04549 0.21204 0.15920
 C442 C -0.02105 0.21198 0.20052
 C443 C 0.00277 0.17172 0.21206
 C444 C 0.00289 0.13394 0.18265
 C445 C -0.01953 0.13586 0.14090
 C446 C -0.04434 0.17482 0.12998
 C447 C 0.02738 0.16976 0.25232
 C448 C 0.02997 0.20709 0.28104
 C449 C 0.00789 0.24836 0.27070
 C450 C -0.01875 0.25060 0.23019
 C451 C -0.04192 0.29146 0.22059
 C452 C -0.03932 0.32878 0.24942
 C453 C -0.01332 0.32732 0.28884
 C454 C 0.01112 0.28729 0.29982
 C455 C 0.03769 0.28792 0.33978
 C456 C 0.03776 0.32543 0.36855
 C457 C 0.01213 0.36408 0.35851
 C458 C -0.01242 0.36542 0.31792
 H459 H -0.06498 0.24061 0.14768
 H460 H 0.02239 0.10397 0.19116
 H461 H -0.06238 0.17689 0.09800
 H462 H 0.04535 0.13907 0.26156
 H463 H 0.04964 0.20221 0.31138
 H464 H -0.06285 0.29584 0.19103
 H465 H -0.05809 0.35915 0.24075
 H466 H 0.05854 0.25992 0.35026
 H467 H 0.05763 0.32392 0.39947
 H468 H -0.03240 0.39523 0.31002
 C469 C 0.50945 0.35216 0.77375
 C470 C 0.50135 0.30537 0.78127
 C471 C 0.49594 0.29081 0.82684
 C472 C 0.49812 0.32207 0.86291
 C473 C 0.50551 0.36835 0.85466
 C474 C 0.51135 0.38286 0.80975
 C475 C 0.48812 0.24514 0.83631
 C476 C 0.48558 0.21328 0.80164
 C477 C 0.49068 0.22583 0.75565
 C478 C 0.49848 0.27270 0.74527
 C479 C 0.50308 0.28536 0.69925
 C480 C 0.50088 0.25350 0.66462
 C481 C 0.49396 0.20772 0.67413
 C482 C 0.48848 0.19308 0.71966
 C483 C 0.48142 0.14609 0.72712
 C484 C 0.48090 0.11528 0.69110
 C485 C 0.48713 0.12993 0.64630
 C486 C 0.49306 0.17642 0.63811
 H487 H 0.51443 0.36646 0.74054
 H488 H 0.49341 0.31030 0.89744
 H489 H 0.51734 0.41834 0.80212
 H490 H 0.48392 0.23380 0.87106
 H491 H 0.47951 0.17887 0.81229
 H492 H 0.50850 0.31984 0.68853
 H493 H 0.50490 0.26491 0.62987
 H494 H 0.47659 0.13172 0.76033
 H495 H 0.47593 0.07962 0.69862
 H496 H 0.49798 0.18833 0.60364
 C497 C 0.00819 0.85360 0.77248
 C498 C -0.00003 0.80684 0.78012
 C499 C -0.00507 0.79232 0.82573
 C500 C -0.00250 0.82358 0.86171
 C501 C 0.00505 0.86981 0.85338
 C502 C 0.01053 0.88433 0.80845
 C503 C -0.01289 0.74670 0.83537
 C504 C -0.01555 0.71476 0.80082
 C505 C -0.01065 0.72722 0.75479
 C506 C -0.00323 0.77412 0.74423
 C507 C 0.00064 0.78675 0.69815
 C508 C -0.00163 0.75480 0.66362
 C509 C -0.00780 0.70895 0.67333
 C510 C -0.01270 0.69435 0.71893
 C511 C -0.01891 0.64728 0.72660
 C512 C -0.01919 0.61636 0.69070
 C513 C -0.01353 0.63099 0.64582
 C514 C -0.00849 0.67754 0.63744
 H515 H 0.01305 0.86782 0.73922
 H516 H -0.00698 0.81181 0.89628
 H517 H 0.01661 0.91979 0.80081
 H518 H -0.01692 0.73544 0.87017
 H519 H -0.02162 0.68039 0.81158
 H520 H 0.00544 0.82129 0.68731
 H521 H 0.00185 0.76616 0.62880
 H522 H -0.02310 0.63292 0.75990
 H523 H -0.02344 0.58064 0.69836
 H524 H -0.00407 0.68946 0.60291
 C525 C 0.46792 -0.28178 0.15124
 C526 C 0.48026 -0.28619 0.19721
 C527 C 0.49298 -0.33000 0.21275
 C528 C 0.49247 -0.36781 0.18313
 C529 C 0.48215 -0.36224 0.13696
 C530 C 0.46924 -0.31874 0.12194
 C531 C 0.50745 -0.33551 0.25742
 C532 C 0.51149 -0.29837 0.28639
 C533 C 0.50004 -0.25402 0.27215
 C534 C 0.48182 -0.24827 0.22768
 C535 C 0.46555 -0.20488 0.21526
 C536 C 0.46827 -0.16805 0.24472
 C537 C 0.48822 -0.17248 0.28732
 C538 C 0.50523 -0.21536 0.30126
 C539 C 0.52729 -0.21765 0.34368
 C540 C 0.52945 -0.17996 0.37212
 C541 C 0.51004 -0.13837 0.35956
 C542 C 0.49053 -0.13445 0.31646
 H543 H 0.45882 -0.24983 0.13613
 H544 H 0.50277 -0.40084 0.19555
 H545 H 0.46015 -0.31268 0.08683
 H546 H 0.51679 -0.36880 0.26989
 H547 H 0.52282 -0.30575 0.32033
 H548 H 0.44923 -0.19838 0.18326
 H549 H 0.45480 -0.13563 0.23386
 H550 H 0.54358 -0.24797 0.35583
 H551 H 0.54598 -0.18370 0.40475
 H552 H 0.47574 -0.10239 0.30625
 C553 C 0.00754 0.77507 0.14541
 C554 C 0.00513 0.78244 0.19283
 C555 C 0.00216 0.82807 0.20805
 C556 C 0.00115 0.86434 0.17686
 C557 C 0.00318 0.85644 0.12976
 C558 C 0.00659 0.81118 0.11478
 C559 C 0.00011 0.83740 0.25441
 C560 C 0.00081 0.80261 0.28622
 C561 C 0.00345 0.75653 0.27302
 C562 C 0.00551 0.74625 0.22551
 C563 C 0.00760 0.70014 0.21229
 C564 C 0.00758 0.66531 0.24405
 C565 C 0.00565 0.67465 0.29040
 C566 C 0.00379 0.72034 0.30570
 C567 C 0.00227 0.72773 0.35319
 C568 C 0.00205 0.69150 0.38372
 C569 C 0.00338 0.64634 0.36849
 C570 C 0.00540 0.63833 0.32154
 H571 H 0.01027 0.74178 0.13056
 H572 H -0.00128 0.89883 0.18958
 H573 H 0.00848 0.80315 0.07892
 H574 H -0.00211 0.87216 0.26637
 H575 H -0.00105 0.81321 0.32114
 H576 H 0.00902 0.68950 0.17736
 H577 H 0.00905 0.63052 0.23207
 H578 H 0.00124 0.76108 0.36812
 H579 H 0.00073 0.69918 0.41966
 H580 H 0.00661 0.60371 0.30904
 C581 C 0.50324 -0.27313 0.85290
 C582 C 0.50909 -0.28082 0.80590
 C583 C 0.51273 -0.32645 0.79078
 C584 C 0.51100 -0.36246 0.82175
 C585 C 0.50510 -0.35406 0.86812
 C586 C 0.50138 -0.30910 0.88327
 C587 C 0.51774 -0.33604 0.74479
 C588 C 0.51780 -0.30144 0.71303
 C589 C 0.51322 -0.25552 0.72616
 C590 C 0.51052 -0.24493 0.77346
 C591 C 0.50942 -0.19883 0.78677
 C592 C 0.50897 -0.16427 0.75501
 C593 C 0.50922 -0.17409 0.70881
 C594 C 0.51137 -0.21977 0.69358
 C595 C 0.51066 -0.22774 0.64625
 C596 C 0.50833 -0.19191 0.61571
 C597 C 0.50646 -0.14688 0.63104
 C598 C 0.50706 -0.13825 0.67772
 H599 H 0.49910 -0.23988 0.86750
 H600 H 0.51394 -0.39710 0.80958
 H601 H 0.49662 -0.30138 0.91892
 H602 H 0.52112 -0.37080 0.73311
 H603 H 0.52200 -0.31202 0.67830
 H604 H 0.50937 -0.18802 0.82167
 H605 H 0.50790 -0.12939 0.76682
 H606 H 0.51104 -0.26117 0.63147
 H607 H 0.50771 -0.19980 0.57979
 H608 H 0.50558 -0.10356 0.69004
 C609 C 0.50591 0.27492 0.14737
 C610 C 0.50440 0.28214 0.19483
 C611 C 0.50240 0.32775 0.21038
 C612 C 0.50164 0.36417 0.17941
 C613 C 0.50287 0.35623 0.13247
 C614 C 0.50515 0.31118 0.11705
 C615 C 0.50105 0.33687 0.25678
 C616 C 0.50146 0.30188 0.28832
 C617 C 0.50320 0.25584 0.27477
 C618 C 0.50472 0.24580 0.22722
 C619 C 0.50633 0.19977 0.21364
 C620 C 0.50626 0.16477 0.24513
 C621 C 0.50466 0.17386 0.29151
 C622 C 0.50326 0.21946 0.30714
 C623 C 0.50186 0.22659 0.35465
 C624 C 0.50149 0.19019 0.38489
 C625 C 0.50252 0.14515 0.36929
 C626 C 0.50431 0.13737 0.32235
 H627 H 0.50765 0.24170 0.13223
 H628 H 0.50001 0.39874 0.19201
 H629 H 0.50625 0.30357 0.08108
 H630 H 0.49957 0.37160 0.26896
 H631 H 0.50023 0.31231 0.32332
 H632 H 0.50753 0.18931 0.17866
 H633 H 0.50740 0.13003 0.23292
 H634 H 0.50097 0.25983 0.36983
 H635 H 0.50030 0.19765 0.42088
 H636 H 0.50521 0.10282 0.30963
 C637 C 0.00347 0.22698 0.85454
 C638 C 0.00607 0.21926 0.80722
 C639 C 0.00880 0.17359 0.79214
 C640 C 0.00808 0.13751 0.82329
 C641 C 0.00466 0.14573 0.87016
 C642 C 0.00276 0.19102 0.88517
 C643 C 0.01199 0.16395 0.74596
 C644 C 0.01215 0.19854 0.71410
 C645 C 0.00891 0.24462 0.72713
 C646 C 0.00587 0.25517 0.77450
 C647 C 0.00230 0.30123 0.78753
 C648 C 0.00146 0.33577 0.75564
 C649 C 0.00423 0.32611 0.70945
 C650 C 0.00824 0.28050 0.69439
 C651 C 0.01122 0.27284 0.64704
 C652 C 0.00976 0.30875 0.61637
 C653 C 0.00535 0.35370 0.63146
 C654 C 0.00281 0.36205 0.67821
 H655 H 0.00188 0.26035 0.86935
 H656 H 0.00996 0.10293 0.81071
 H657 H 0.00049 0.19917 0.92098
 H658 H 0.01426 0.12912 0.73421
 H659 H 0.01457 0.18773 0.67928
 H660 H -0.00027 0.31204 0.82233
 H661 H -0.00155 0.37055 0.76736
 H662 H 0.01468 0.23959 0.63229
 H663 H 0.01208 0.30102 0.58048
 H664 H -0.00047 0.39663 0.69047
 C665 C 0.14539 -0.00794 0.22714
 C666 C 0.19283 -0.00701 0.21961
 C667 C 0.20812 -0.00482 0.17397
 C668 C 0.17703 -0.00334 0.13785
 C669 C 0.13019 -0.00401 0.14606
 C670 C 0.11487 -0.00647 0.19107
 C671 C 0.25440 -0.00398 0.16444
 C672 C 0.28616 -0.00499 0.19912
 C673 C 0.27292 -0.00684 0.24520
 C674 C 0.22545 -0.00797 0.25564
 C675 C 0.21223 -0.00976 0.30172
 C676 C 0.24401 -0.00994 0.33644
 C677 C 0.29029 -0.00848 0.32692
 C678 C 0.30554 -0.00724 0.28123
 C679 C 0.35296 -0.00621 0.27363
 C680 C 0.38348 -0.00565 0.30969
 C681 C 0.36822 -0.00617 0.35478
 C682 C 0.32142 -0.00798 0.36307
 H683 H 0.13045 -0.00974 0.26043
 H684 H 0.18948 -0.00156 0.10325
 H685 H 0.07891 -0.00717 0.19874
 H686 H 0.26629 -0.00238 0.12964
 H687 H 0.32105 -0.00403 0.18838
 H688 H 0.17733 -0.01084 0.31244
 H689 H 0.23213 -0.01107 0.37126
 H690 H 0.36789 -0.00569 0.24030
 H691 H 0.41941 -0.00462 0.30193
 H692 H 0.30903 -0.00867 0.39773
 C693 C 0.35478 0.49735 0.77333
 C694 C 0.30745 0.49465 0.78094
 C695 C 0.29236 0.49167 0.82657
 C696 C 0.32352 0.49227 0.86270
 C697 C 0.37041 0.49578 0.85460
 C698 C 0.38541 0.49791 0.80934
 C699 C 0.24617 0.48831 0.83611
 C700 C 0.21431 0.48817 0.80147
 C701 C 0.22735 0.49162 0.75543
 C702 C 0.27472 0.49495 0.74497
 C703 C 0.28774 0.49891 0.69896
 C704 C 0.25584 0.49973 0.66437
 C705 C 0.20965 0.49654 0.67392
 C706 C 0.19461 0.49220 0.71948
 C707 C 0.14727 0.48877 0.72703
 C708 C 0.11659 0.49011 0.69108
 C709 C 0.13164 0.49484 0.64617
 C710 C 0.17840 0.49784 0.63791
 H711 H 0.36959 0.49910 0.73998
 H712 H 0.31091 0.49022 0.89724
 H713 H 0.42123 0.50028 0.80126
 H714 H 0.23440 0.48588 0.87091
 H715 H 0.17950 0.48563 0.81221
 H716 H 0.32253 0.50182 0.68824
 H717 H 0.26756 0.50302 0.62963
 H718 H 0.13254 0.48499 0.76025
 H719 H 0.08072 0.48742 0.69876
 H720 H 0.19064 0.50139 0.60338
 C721 C 0.85537 -0.00086 0.77285
 C722 C 0.80805 -0.00421 0.78040
 C723 C 0.79295 -0.00734 0.82601
 C724 C 0.82405 -0.00671 0.86215
 C725 C 0.87092 -0.00289 0.85412
 C726 C 0.88596 -0.00022 0.80890
 C727 C 0.74678 -0.01094 0.83553
 C728 C 0.71494 -0.01116 0.80090
 C729 C 0.72799 -0.00772 0.75486
 C730 C 0.77535 -0.00435 0.74440
 C731 C 0.78839 -0.00099 0.69835
 C732 C 0.75650 -0.00055 0.66374
 C733 C 0.71029 -0.00347 0.67332
 C734 C 0.69525 -0.00730 0.71893
 C735 C 0.64790 -0.01034 0.72655
 C736 C 0.61722 -0.00920 0.69062
 C737 C 0.63226 -0.00503 0.64565
 C738 C 0.67902 -0.00240 0.63732
 H739 H 0.87017 0.00145 0.73953
 H740 H 0.81141 -0.00901 0.89666
 H741 H 0.92177 0.00257 0.80090
 H742 H 0.73500 -0.01347 0.87032
 H743 H 0.68015 -0.01395 0.81165
 H744 H 0.82320 0.00155 0.68760
 H745 H 0.76823 0.00226 0.62896
 H746 H 0.63314 -0.01354 0.75981
 H747 H 0.58135 -0.01154 0.69838
 H748 H 0.69125 0.00066 0.60273
 C749 C -0.35468 0.49514 0.22557
 C750 C -0.30725 0.49643 0.21810
 C751 C -0.29202 0.49846 0.17245
 C752 C -0.32320 0.49970 0.13623
 C753 C -0.37028 0.49875 0.14423
 C754 C -0.38530 0.49626 0.18950
 C755 C -0.24567 0.49930 0.16304
 C756 C -0.21386 0.49825 0.19778
 C757 C -0.22707 0.49649 0.24388
 C758 C -0.27458 0.49578 0.25423
 C759 C -0.28781 0.49477 0.30035
 C760 C -0.25603 0.49453 0.33513
 C761 C -0.20969 0.49509 0.32571
 C762 C -0.19441 0.49580 0.28001
 C763 C -0.14693 0.49584 0.27254
 C764 C -0.11638 0.49594 0.30871
 C765 C -0.13162 0.49590 0.35385
 C766 C -0.17854 0.49517 0.36196
 H767 H -0.36955 0.49312 0.25887
 H768 H -0.31050 0.50137 0.10171
 H769 H -0.42117 0.49522 0.19757
 H770 H -0.23373 0.50082 0.12825
 H771 H -0.17893 0.49920 0.18713
 H772 H -0.32273 0.49448 0.31104
 H773 H -0.26797 0.49397 0.36995
 H774 H -0.13201 0.49578 0.23919
 H775 H -0.08042 0.49614 0.30102
 H776 H -0.19100 0.49497 0.39660
 C777 C 0.16049 0.04544 0.78901
 C778 C 0.20139 0.02039 0.78900
 C779 C 0.21266 -0.00358 0.82926
 C780 C 0.18328 -0.00342 0.86706
 C781 C 0.14187 0.01958 0.86519
 C782 C 0.13132 0.04464 0.82626
 C783 C 0.25261 -0.02862 0.83120
 C784 C 0.28137 -0.03132 0.79394
 C785 C 0.27133 -0.00901 0.75269
 C786 C 0.23094 0.01774 0.75033
 C787 C 0.22127 0.04056 0.70927
 C788 C 0.24998 0.03769 0.67194
 C789 C 0.28946 0.01187 0.67360
 C790 C 0.30056 -0.01222 0.71384
 C791 C 0.34076 -0.03833 0.71351
 C792 C 0.36949 -0.03853 0.67597
 C793 C 0.35920 -0.01345 0.63700
 C794 C 0.31848 0.01080 0.63548
 H795 H 0.14932 0.06529 0.76053
 H796 H 0.19153 -0.02310 0.89700
 H797 H 0.09965 0.06316 0.82421
 H798 H 0.26162 -0.04679 0.86186
 H799 H 0.31139 -0.05140 0.79879
 H800 H 0.19163 0.06128 0.70469
 H801 H 0.24121 0.05616 0.64140
 H802 H 0.35155 -0.05863 0.74182
 H803 H 0.40056 -0.05807 0.67773
 H804 H 0.31040 0.03046 0.60548
 C805 C 0.27237 0.49486 0.14642
 C806 C 0.27999 0.50223 0.19331
 C807 C 0.32562 0.50674 0.20802
 C808 C 0.36163 0.50433 0.17686
 C809 C 0.35334 0.49749 0.13052
 C810 C 0.30837 0.49266 0.11579
 C811 C 0.33526 0.51380 0.25376
 C812 C 0.30068 0.51624 0.28561
 C813 C 0.25463 0.51181 0.27297
 C814 C 0.24408 0.50509 0.22597
 C815 C 0.19800 0.50147 0.21322
 C816 C 0.16345 0.50338 0.24512
 C817 C 0.17315 0.50897 0.29104
 C818 C 0.21876 0.51360 0.30577
 C819 C 0.22642 0.51932 0.35289
 C820 C 0.19050 0.51933 0.38373
 C821 C 0.14561 0.51388 0.36898
 C822 C 0.13724 0.50936 0.32238
 H823 H 0.23908 0.49058 0.13202
 H824 H 0.39622 0.50828 0.18882
 H825 H 0.30073 0.48719 0.08023
 H826 H 0.37007 0.51740 0.26516
 H827 H 0.31145 0.52169 0.32008
 H828 H 0.18717 0.49708 0.17862
 H829 H 0.12863 0.50009 0.23366
 H830 H 0.25971 0.52337 0.36736
 H831 H 0.19817 0.52321 0.41948
 H832 H 0.10269 0.50514 0.31037
 C833 C 0.77195 -0.00864 0.14589
 C834 C 0.77943 -0.00038 0.19267
 C835 C 0.82496 0.00554 0.20722
 C836 C 0.86100 0.00340 0.17606
 C837 C 0.85284 -0.00439 0.12985
 C838 C 0.80799 -0.01048 0.11523
 C839 C 0.83446 0.01378 0.25279
 C840 C 0.79986 0.01622 0.28463
 C841 C 0.75391 0.01048 0.27215
 C842 C 0.74349 0.00214 0.22537
 C843 C 0.69753 -0.00350 0.21288
 C844 C 0.66299 -0.00176 0.24482
 C845 C 0.67255 0.00577 0.29050
 C846 C 0.71801 0.01240 0.30494
 C847 C 0.72552 0.02029 0.35178
 C848 C 0.68966 0.02027 0.38270
 C849 C 0.64496 0.01267 0.36829
 C850 C 0.63667 0.00612 0.32191
 H851 H 0.73873 -0.01374 0.13157
 H852 H 0.89549 0.00841 0.18791
 H853 H 0.80048 -0.01669 0.07977
 H854 H 0.86920 0.01839 0.26409
 H855 H 0.81055 0.02255 0.31897
 H856 H 0.68682 -0.00956 0.17849
 H857 H 0.62828 -0.00666 0.23357
 H858 H 0.75865 0.02628 0.36597
 H859 H 0.69721 0.02593 0.41825
 H860 H 0.60227 0.00027 0.31018
 C861 C -0.34051 0.54438 0.78824
 C862 C -0.29933 0.51980 0.78823
 C863 C -0.28777 0.49598 0.82851
 C864 C -0.31707 0.49598 0.86639
 C865 C -0.35869 0.51860 0.86457
 C866 C -0.36959 0.54340 0.82555
 C867 C -0.24760 0.47130 0.83041
 C868 C -0.21892 0.46877 0.79308
 C869 C -0.22921 0.49095 0.75183
 C870 C -0.26976 0.51745 0.74955
 C871 C -0.27951 0.54043 0.70859
 C872 C -0.25075 0.53788 0.67127
 C873 C -0.21119 0.51218 0.67280
 C874 C -0.20004 0.48792 0.71292
 C875 C -0.15986 0.46178 0.71242
 C876 C -0.13112 0.46184 0.67489
 C877 C -0.14137 0.48721 0.63609
 C878 C -0.18213 0.51140 0.63468
 H879 H -0.35199 0.56395 0.75969
 H880 H -0.30855 0.47650 0.89638
 H881 H -0.40143 0.56160 0.82352
 H882 H -0.23837 0.45327 0.86108
 H883 H -0.18867 0.44900 0.79792
 H884 H -0.30920 0.56112 0.70413
 H885 H -0.25957 0.55649 0.64082
 H886 H -0.14913 0.44122 0.74056
 H887 H -0.10006 0.44227 0.67653
 H888 H -0.19021 0.53123 0.60479
   
