data_POSCAR
  _audit_creation_date              2014-09-24
  _audit_creation_method            'ToBaCCo'
  _symmetry_space_group_name_H-M    'P1'
  _symmetry_Int_Tables_number       1
  _symmetry_cell_setting            triclinic
  loop_
  _symmetry_equiv_pos_as_xyz
 x,y,z
_cell_length_a 38.6891
_cell_length_b 38.6075
_cell_length_c 38.4968
_cell_angle_alpha 69.001500
_cell_angle_beta 88.688200
_cell_angle_gamma 88.712400
loop_
  _atom_site_label
  _atom_site_type_symbol
  _atom_site_fract_x
  _atom_site_fract_y
  _atom_site_fract_z
O1 O 0.53971 0.49601 0.02338
 O2 O 0.44472 0.49473 0.02603
 O3 O 0.49321 0.44917 0.02078
 O4 O 0.49082 0.54182 0.02772
 O5 O 0.49033 0.56741 -0.03356
 O6 O 0.49284 0.47504 -0.04043
 O7 O 0.44373 0.52027 -0.03512
 O8 O 0.53913 0.52216 -0.03782
 Cu9 Cu 0.49223 0.49280 0.03061
 Cu10 Cu 0.49141 0.52372 -0.04289
 C11 C 0.55571 0.50960 -0.00760
 C12 C 0.42781 0.50724 -0.00396
 C13 C 0.49332 0.44627 -0.01107
 C14 C 0.49029 0.57046 -0.00180
 O15 O -0.03131 0.53670 0.50442
 O16 O -0.02066 0.43713 0.51880
 O17 O -0.02402 0.47591 0.56199
 O18 O -0.02846 0.49743 0.46080
 O19 O 0.02811 0.50415 0.45602
 O20 O 0.03254 0.48294 0.55707
 O21 O 0.03592 0.44383 0.51348
 O22 O 0.02523 0.54297 0.49927
 Cu23 Cu -0.03178 0.48623 0.51191
 Cu24 Cu 0.03608 0.49406 0.50601
 C25 C -0.00478 0.55686 0.49988
 C26 C 0.00949 0.42359 0.51815
 C27 C 0.00495 0.47620 0.57675
 C28 C -0.00084 0.50397 0.44116
 O29 O 0.50327 0.03046 0.53328
 O30 O 0.50176 0.03368 0.43677
 O31 O 0.45458 0.03082 0.48715
 O32 O 0.54994 0.03242 0.48280
 O33 O 0.55153 -0.02879 0.50440
 O34 O 0.45666 -0.03030 0.50641
 O35 O 0.50438 -0.02747 0.45691
 O36 O 0.50355 -0.03065 0.55365
 Cu37 Cu 0.50214 0.03799 0.48305
 Cu38 Cu 0.50421 -0.03543 0.50739
 C39 C 0.50347 -0.00058 0.56010
 C40 C 0.50320 0.00367 0.43027
 C41 C 0.43931 -0.00014 0.49731
 C42 C 0.56702 0.00202 0.49285
 C43 C 0.50362 -0.00781 0.00635
 C44 C 0.50298 0.02429 -0.02358
 C45 C 0.50451 0.02351 -0.06167
 C46 C 0.49989 0.06116 -0.01993
 C47 C 0.50486 -0.00876 0.04518
 C48 C 0.50362 -0.04389 0.00124
 C49 C 0.53653 0.02288 -0.07922
 C50 C 0.53795 0.02224 -0.11526
 C51 C 0.50735 0.02140 -0.13385
 C52 C 0.47531 0.02136 -0.11591
 C53 C 0.47391 0.02274 -0.08014
 C54 C 0.52379 0.08882 -0.03821
 C55 C 0.52129 0.12351 -0.03469
 C56 C 0.49474 0.13127 -0.01294
 C57 C 0.47056 0.10370 0.00505
 C58 C 0.47297 0.06903 0.00135
 C59 C 0.48112 -0.03026 0.07189
 C60 C 0.48221 -0.03176 0.10859
 C61 C 0.50712 -0.01183 0.11935
 C62 C 0.53105 0.00951 0.09268
 C63 C 0.53012 0.01078 0.05598
 C64 C 0.47235 -0.05950 -0.00287
 C65 C 0.47225 -0.09416 -0.00654
 C66 C 0.50349 -0.11332 -0.00674
 C67 C 0.53485 -0.09717 -0.00347
 C68 C 0.53488 -0.06275 0.00079
 H69 H 0.56034 0.02302 -0.06501
 H70 H 0.56290 0.02195 -0.12850
 H71 H 0.45142 0.02087 -0.12985
 H72 H 0.44904 0.02298 -0.06671
 H73 H 0.54479 0.08343 -0.05472
 H74 H 0.54050 0.14411 -0.04852
 H75 H 0.45382 0.04831 0.01506
 H76 H 0.46141 -0.04558 0.06430
 H77 H 0.46321 -0.04808 0.12848
 H78 H 0.55082 0.02473 0.10037
 H79 H 0.54920 0.02685 0.03603
 H80 H 0.44807 -0.04498 -0.00280
 H81 H 0.44782 -0.10598 -0.00937
 H82 H 0.55921 -0.11160 -0.00336
 H83 H 0.55918 -0.05080 0.00383
 H84 H 0.44955 0.10915 0.02154
 C85 C -0.01977 0.50102 0.99094
 C86 C 0.00406 0.50479 1.01458
 C87 C 0.04161 0.50461 1.00603
 C88 C -0.00566 0.50845 1.05068
 C89 C -0.05733 0.50112 0.99892
 C90 C -0.00952 0.49703 0.95531
 C91 C 0.06294 0.47683 1.02986
 C92 C 0.09867 0.47756 1.02391
 C93 C 0.11387 0.50639 0.99421
 C94 C 0.09232 0.53392 0.96996
 C95 C 0.05648 0.53308 0.97590
 C96 C -0.02430 0.48073 1.07814
 C97 C -0.02987 0.48276 1.11344
 C98 C -0.01664 0.51239 1.12196
 C99 C 0.00118 0.54055 1.09400
 C100 C 0.00672 0.53849 1.05884
 C101 C -0.07456 0.53349 0.99888
 C102 C -0.11054 0.53391 1.00352
 C103 C -0.12963 0.50182 1.00874
 C104 C -0.11212 0.46929 1.00953
 C105 C -0.07632 0.46907 1.00429
 C106 C -0.01398 0.52713 0.92192
 C107 C -0.00570 0.52342 0.88792
 C108 C 0.00639 0.48927 0.88676
 C109 C 0.01077 0.45908 0.92028
 C110 C 0.00315 0.46304 0.95440
 H111 H 0.05187 0.45469 1.05328
 H112 H 0.11444 0.45559 1.04270
 H113 H 0.10325 0.55676 0.94715
 H114 H 0.04044 0.55517 0.95765
 H115 H -0.03341 0.45687 1.07271
 H116 H -0.04330 0.46039 1.13450
 H117 H 0.02124 0.56011 1.03806
 H118 H -0.06023 0.55855 0.99442
 H119 H -0.12349 0.55928 1.00291
 H120 H -0.12629 0.44434 1.01310
 H121 H -0.06338 0.44394 1.00415
 H122 H -0.02394 0.55345 0.92225
 H123 H -0.00962 0.54694 0.86242
 H124 H 0.02011 0.43252 0.92000
 H125 H 0.00650 0.43952 0.98002
 H126 H 0.01122 0.56403 1.09946
 C127 C 0.01528 -0.01956 0.50342
 C128 C -0.01054 0.00341 0.50686
 C129 C -0.04735 -0.00516 0.50537
 C130 C -0.00346 0.03875 0.51206
 C131 C 0.05211 -0.01037 0.50468
 C132 C 0.00852 -0.05532 0.49853
 C133 C -0.06199 -0.00398 0.47196
 C134 C -0.09750 -0.00915 0.47032
 C135 C -0.11865 -0.01609 0.50221
 C136 C -0.10368 -0.01809 0.53577
 C137 C -0.06837 -0.01227 0.53722
 C138 C -0.00946 0.07248 0.48281
 C139 C -0.00504 0.10612 0.48795
 C140 C 0.00467 0.10657 0.52272
 C141 C 0.01079 0.07271 0.55200
 C142 C 0.00703 0.03901 0.54660
 C143 C 0.07331 -0.03472 0.53205
 C144 C 0.10868 -0.02841 0.53186
 C145 C 0.12365 0.00221 0.50399
 C146 C 0.10218 0.02710 0.47703
 C147 C 0.06669 0.02078 0.47730
 C148 C -0.01076 -0.08334 0.52496
 C149 C -0.01353 -0.11825 0.52187
 C150 C 0.00328 -0.12587 0.49253
 C151 C 0.02173 -0.09740 0.46563
 C152 C 0.02440 -0.06260 0.46868
 H153 H -0.04606 0.00183 0.44708
 H154 H -0.10853 -0.00756 0.44417
 H155 H -0.11952 -0.02297 0.56058
 H156 H -0.05742 -0.01303 0.56313
 H157 H -0.01783 0.07267 0.45608
 H158 H -0.01026 0.13182 0.46509
 H159 H 0.01147 0.01314 0.56952
 H160 H 0.06247 -0.05893 0.55334
 H161 H 0.12442 -0.04775 0.55336
 H162 H 0.11300 0.05065 0.45494
 H163 H 0.05080 0.03947 0.45551
 H164 H -0.02256 -0.07866 0.54870
 H165 H -0.02758 -0.13974 0.54326
 H166 H 0.03454 -0.10221 0.44243
 H167 H 0.03946 -0.04144 0.44803
 H168 H 0.01836 0.07241 0.57902
 C169 C -0.38818 0.53273 0.95914
 C170 C -0.35213 0.53494 0.95881
 C171 C -0.33332 0.51537 0.99069
 C172 C -0.35103 0.49355 1.02317
 C173 C -0.38709 0.49162 1.02367
 C174 C -0.40606 0.51115 0.99164
 N175 N -0.29640 0.51808 0.98934
 N176 N -0.27756 0.49782 1.01584
 C177 C -0.24064 0.50044 1.01458
 C178 C -0.22126 0.47293 1.04116
 C179 C -0.18514 0.47366 1.03967
 C180 C -0.16784 0.50238 1.01185
 C181 C -0.18733 0.53062 0.98585
 C182 C -0.22347 0.52955 0.98702
 H183 H -0.40205 0.54825 0.93408
 H184 H -0.33878 0.55186 0.93361
 H185 H -0.33707 0.47820 1.04821
 H186 H -0.40010 0.47474 1.04913
 H187 H -0.23420 0.45046 1.06261
 H188 H -0.17067 0.45171 1.06016
 H189 H -0.17457 0.55288 0.96397
 H190 H -0.23792 0.55125 0.96629
 C191 C 0.37382 0.49265 1.03215
 C192 C 0.33777 0.49193 1.03392
 C193 C 0.31844 0.50485 1.00144
 C194 C 0.33562 0.51875 0.96677
 C195 C 0.37181 0.51965 0.96485
 C196 C 0.39146 0.50655 0.99757
 N197 N 0.28152 0.50354 1.00475
 N198 N 0.26170 0.51344 0.97682
 C199 C 0.22482 0.51174 0.98149
 C200 C 0.20395 0.52120 0.95011
 C201 C 0.16788 0.51952 0.95404
 C202 C 0.15212 0.50832 0.98958
 C203 C 0.17322 0.49914 1.02097
 C204 C 0.20915 0.50074 1.01701
 H205 H 0.38779 0.48231 1.05802
 H206 H 0.32477 0.48119 1.06080
 H207 H 0.32115 0.52894 0.94125
 H208 H 0.38430 0.53056 0.93771
 H209 H 0.21568 0.52970 0.92257
 H210 H 0.15237 0.52647 0.92934
 H211 H 0.16193 0.49114 1.04868
 H212 H 0.22464 0.49352 1.04175
 C213 C -0.04113 -0.38984 0.49901
 C214 C -0.04420 -0.35312 0.49762
 C215 C -0.01484 -0.33134 0.49329
 C216 C 0.01779 -0.34662 0.48984
 C217 C 0.02099 -0.38327 0.49140
 C218 C -0.00839 -0.40563 0.49637
 N219 N -0.01855 -0.29424 0.49331
 N220 N 0.00738 -0.27316 0.48828
 C221 C 0.00507 -0.23626 0.48888
 C222 C 0.03492 -0.21489 0.48099
 C223 C 0.03417 -0.17906 0.48195
 C224 C 0.00343 -0.16384 0.49100
 C225 C -0.02662 -0.18540 0.49905
 C226 C -0.02587 -0.22131 0.49787
 H227 H -0.06440 -0.40596 0.50282
 H228 H -0.06953 -0.34172 0.50027
 H229 H 0.04095 -0.33042 0.48644
 H230 H 0.04666 -0.39413 0.48913
 H231 H 0.05895 -0.22617 0.47428
 H232 H 0.05790 -0.16350 0.47626
 H233 H -0.05072 -0.17435 0.50592
 H234 H -0.04928 -0.23738 0.50418
 C235 C 0.04443 0.37213 0.50886
 C236 C 0.04770 0.33572 0.50961
 C237 C 0.02090 0.31057 0.52389
 C238 C -0.00938 0.32222 0.53771
 C239 C -0.01296 0.35886 0.53634
 C240 C 0.01386 0.38426 0.52172
 N241 N 0.02435 0.27412 0.52228
 N242 N 0.00423 0.24785 0.54025
 C243 C 0.00666 0.21208 0.53683
 C244 C -0.01125 0.18237 0.56242
 C245 C -0.01089 0.14765 0.55861
 C246 C 0.00685 0.14235 0.52860
 C247 C 0.02507 0.17208 0.50313
 C248 C 0.02523 0.20659 0.50736
 H249 H 0.06544 0.39109 0.49720
 H250 H 0.07109 0.32715 0.49871
 H251 H -0.03057 0.30334 0.54863
 H252 H -0.03679 0.36740 0.54647
 H253 H -0.02580 0.18627 0.58514
 H254 H -0.02542 0.12526 0.57838
 H255 H 0.03899 0.16862 0.47983
 H256 H 0.03910 0.22918 0.48708
 C257 C 0.50080 -0.03554 -0.37285
 C258 C 0.50038 -0.03635 -0.33625
 C259 C 0.50345 -0.00357 -0.32901
 C260 C 0.50646 0.03034 -0.35887
 C261 C 0.50621 0.03136 -0.39549
 C262 C 0.50353 -0.00160 -0.40305
 N263 N 0.50299 -0.00529 -0.29124
 N264 N 0.51269 0.02180 -0.28259
 C265 C 0.51139 0.02076 -0.24506
 C266 C 0.52933 0.04745 -0.23616
 C267 C 0.52841 0.04737 -0.19983
 C268 C 0.50885 0.02097 -0.17206
 C269 C 0.49056 -0.00560 -0.18105
 C270 C 0.49204 -0.00593 -0.21725
 H271 H 0.49856 -0.06151 -0.37738
 H272 H 0.49794 -0.06264 -0.31342
 H273 H 0.50860 0.05609 -0.35391
 H274 H 0.50838 0.05805 -0.41783
 H275 H 0.54418 0.06824 -0.25742
 H276 H 0.54248 0.06827 -0.19352
 H277 H 0.47543 -0.02628 -0.15998
 H278 H 0.47778 -0.02668 -0.22359
 C279 C 0.50493 0.03934 0.36162
 C280 C 0.50609 0.04066 0.32487
 C281 C 0.50605 0.00791 0.31718
 C282 C 0.50480 -0.02643 0.34676
 C283 C 0.50374 -0.02782 0.38354
 C284 C 0.50382 0.00507 0.39137
 N285 N 0.50727 0.01029 0.27922
 N286 N 0.50614 -0.01839 0.27034
 C287 C 0.50729 -0.01611 0.23241
 C288 C 0.50358 -0.04857 0.22472
 C289 C 0.50378 -0.04725 0.18800
 C290 C 0.50792 -0.01333 0.15830
 C291 C 0.51216 0.01920 0.16609
 C292 C 0.51175 0.01787 0.20286
 H293 H 0.50509 0.06517 0.36670
 H294 H 0.50704 0.06727 0.30229
 H295 H 0.50474 -0.05216 0.34150
 H296 H 0.50290 -0.05464 0.40582
 H297 H 0.50026 -0.07491 0.24728
 H298 H 0.50088 -0.07280 0.18279
 H299 H 0.51508 0.04574 0.14372
 H300 H 0.51471 0.04335 0.20813
 C301 C 0.48043 -0.38735 0.03406
 C302 C 0.48021 -0.35196 0.03617
 C303 C 0.49005 -0.32120 0.00528
 C304 C 0.49963 -0.32602 -0.02813
 C305 C 0.49934 -0.36126 -0.03047
 C306 C 0.48992 -0.39229 0.00066
 N307 N 0.48995 -0.28539 0.00838
 N308 N 0.50409 -0.25769 -0.01625
 C309 C 0.50345 -0.22170 -0.01357
 C310 C 0.52491 -0.19424 -0.03729
 C311 C 0.52511 -0.15893 -0.03503
 C312 C 0.50329 -0.15049 -0.00941
 C313 C 0.48142 -0.17792 0.01402
 C314 C 0.48164 -0.21336 0.01215
 H315 H 0.47291 -0.41077 0.05841
 H316 H 0.47268 -0.34851 0.06201
 H317 H 0.50714 -0.30258 -0.05244
 H318 H 0.50688 -0.36427 -0.05652
 H319 H 0.54171 -0.20036 -0.05730
 H320 H 0.54200 -0.13808 -0.05352
 H321 H 0.46457 -0.17205 0.03415
 H322 H 0.46470 -0.23413 0.03063
 C323 C 0.49669 0.40561 -0.04914
 C324 C 0.49672 0.37061 -0.05209
 C325 C 0.49367 0.33867 -0.02026
 C326 C 0.49079 0.34198 0.01487
 C327 C 0.49092 0.37697 0.01792
 C328 C 0.49377 0.40917 -0.01409
 N329 N 0.49377 0.30334 -0.02444
 N330 N 0.48952 0.27317 0.00300
 C331 C 0.49008 0.23802 -0.00167
 C332 C 0.48442 0.20581 0.02936
 C333 C 0.48549 0.17105 0.02572
 C334 C 0.49242 0.16807 -0.00912
 C335 C 0.49779 0.20051 -0.04027
 C336 C 0.49660 0.23519 -0.03663
 H337 H 0.49898 0.42985 -0.07431
 H338 H 0.49903 0.36835 -0.07929
 H339 H 0.48850 0.31760 0.03990
 H340 H 0.48857 0.37881 0.04529
 H341 H 0.47944 0.20765 0.05644
 H342 H 0.48160 0.14646 0.05025
 H343 H 0.50274 0.19905 -0.06752
 H344 H 0.50096 0.25972 -0.06107
 C345 C -0.37716 0.03527 0.47112
 C346 C -0.34105 0.03532 0.46873
 C347 C -0.32194 0.00275 0.48634
 C348 C -0.33938 -0.03016 0.50623
 C349 C -0.37548 -0.03036 0.50830
 C350 C -0.39476 0.00238 0.49086
 N351 N -0.28496 0.00388 0.48389
 N352 N -0.26611 -0.02347 0.50293
 C353 C -0.22914 -0.02233 0.50075
 C354 C -0.21010 -0.04998 0.52756
 C355 C -0.17405 -0.04843 0.52763
 C356 C -0.15650 -0.01947 0.50038
 C357 C -0.17556 0.00755 0.47268
 C358 C -0.21165 0.00630 0.47298
 H359 H -0.39130 0.06088 0.45723
 H360 H -0.32788 0.06085 0.45332
 H361 H -0.32516 -0.05572 0.52003
 H362 H -0.38829 -0.05613 0.52373
 H363 H -0.22330 -0.07224 0.54899
 H364 H -0.15986 -0.06966 0.54914
 H365 H -0.16258 0.03029 0.45157
 H366 H -0.22585 0.02787 0.45184
 C367 C 0.38438 -0.03571 0.50898
 C368 C 0.34837 -0.03730 0.51032
 C369 C 0.32830 -0.00484 0.50148
 C370 C 0.34468 0.02960 0.49114
 C371 C 0.38084 0.03128 0.48972
 C372 C 0.40107 -0.00142 0.49865
 N373 N 0.29147 -0.00797 0.50323
 N374 N 0.27090 0.01980 0.49620
 C375 C 0.23416 0.01513 0.49828
 C376 C 0.21227 0.04623 0.49097
 C377 C 0.17631 0.04224 0.49283
 C378 C 0.16172 0.00694 0.50214
 C379 C 0.18384 -0.02415 0.50929
 C380 C 0.21964 -0.02014 0.50744
 H381 H 0.39912 -0.06142 0.51601
 H382 H 0.33599 -0.06398 0.51831
 H383 H 0.32962 0.05508 0.48416
 H384 H 0.39292 0.05811 0.48167
 H385 H 0.22311 0.07356 0.48390
 H386 H 0.15994 0.06667 0.48743
 H387 H 0.17345 -0.05161 0.51580
 H388 H 0.23593 -0.04464 0.51302
 C389 C 0.02780 0.52100 1.37835
 C390 C 0.02742 0.52460 1.34093
 C391 C -0.00264 0.51746 1.32530
 C392 C -0.03284 0.50754 1.34737
 C393 C -0.03257 0.50414 1.38483
 C394 C -0.00209 0.51036 1.40086
 N395 N -0.00129 0.51947 1.28739
 N396 N -0.02672 0.51126 1.27153
 C397 C -0.02420 0.51274 1.23377
 C398 C -0.05248 0.50217 1.21797
 C399 C -0.05028 0.50224 1.18157
 C400 C -0.01968 0.51306 1.16030
 C401 C 0.00856 0.52389 1.17623
 C402 C 0.00635 0.52374 1.21254
 H403 H 0.05168 0.52608 1.38976
 H404 H 0.05084 0.53232 1.32419
 H405 H -0.05642 0.50195 1.33586
 H406 H -0.05600 0.49582 1.40143
 H407 H -0.07618 0.49363 1.23400
 H408 H -0.07255 0.49404 1.16999
 H409 H 0.03269 0.53175 1.16087
 H410 H 0.02866 0.53188 1.22410
 C411 C -0.02119 0.45270 0.64097
 C412 C -0.02101 0.44919 0.67840
 C413 C 0.00626 0.46334 0.69229
 C414 C 0.03422 0.47978 0.66860
 C415 C 0.03438 0.48270 0.63131
 C416 C 0.00635 0.46983 0.61694
 N417 N 0.00420 0.46212 0.72993
 N418 N 0.02395 0.48120 0.74185
 C419 C 0.02129 0.48092 0.77914
 C420 C 0.03767 0.50871 0.78776
 C421 C 0.03335 0.51108 0.82300
 C422 C 0.01312 0.48510 0.85045
 C423 C -0.00221 0.45634 0.84226
 C424 C 0.00158 0.45442 0.80675
 H425 H -0.04306 0.44239 0.63071
 H426 H -0.04268 0.43642 0.69639
 H427 H 0.05568 0.49076 0.67876
 H428 H 0.05589 0.49614 0.61343
 H429 H 0.05296 0.52925 0.76675
 H430 H 0.04556 0.53337 0.82878
 H431 H -0.01809 0.43615 0.86293
 H432 H -0.01120 0.43257 0.80076
   
