data_POSCAR
  _audit_creation_date              2014-09-24
  _audit_creation_method            'ToBaCCo'
  _symmetry_space_group_name_H-M    'P1'
  _symmetry_Int_Tables_number       1
  _symmetry_cell_setting            triclinic
  loop_
  _symmetry_equiv_pos_as_xyz
 x,y,z
_cell_length_a 50.8140
_cell_length_b 51.4738
_cell_length_c 20.1049
_cell_angle_alpha 90.015100
_cell_angle_beta 89.988600
_cell_angle_gamma 120.017400
loop_
  _atom_site_label
  _atom_site_type_symbol
  _atom_site_fract_x
  _atom_site_fract_y
  _atom_site_fract_z
C1 C 0.27274 0.43240 0.55816
 C2 C 0.28567 0.43472 0.49503
 C3 C 0.27084 0.43426 0.43603
 C4 C 0.24219 0.43246 0.43951
 C5 C 0.22895 0.43142 0.50231
 C6 C 0.24374 0.43045 0.56165
 C7 C 0.22848 0.42649 0.62247
 C8 C 0.20112 0.42634 0.62583
 C9 C 0.18744 0.43012 0.56859
 C10 C 0.20078 0.43131 0.50570
 C11 C 0.22613 0.43110 0.38162
 C12 C 0.19870 0.43080 0.38481
 C13 C 0.18607 0.43226 0.44616
 C14 C 0.15885 0.43379 0.44967
 C15 C 0.14686 0.43355 0.51285
 C16 C 0.16025 0.43153 0.57238
 H17 H 0.23689 0.42274 0.66863
 H18 H 0.19065 0.42251 0.67429
 H19 H 0.23435 0.42982 0.33280
 H20 H 0.18749 0.42881 0.33797
 H21 H 0.30883 0.43946 0.49105
 H22 H 0.12867 0.43847 0.51632
 C23 C 0.49040 -0.18580 0.54272
 C24 C 0.49569 -0.17047 0.48228
 C25 C 0.50055 -0.18196 0.42327
 C26 C 0.50064 -0.20944 0.42485
 C27 C 0.49563 -0.22511 0.48580
 C28 C 0.49028 -0.21333 0.54484
 C29 C 0.48606 -0.22881 0.60501
 C30 C 0.48734 -0.25512 0.60742
 C31 C 0.49278 -0.26716 0.54975
 C32 C 0.49674 -0.25223 0.48808
 C33 C 0.50678 -0.22107 0.36749
 C34 C 0.50784 -0.24752 0.36957
 C35 C 0.50264 -0.26382 0.42916
 C36 C 0.50505 -0.29023 0.43247
 C37 C 0.50173 -0.30405 0.49478
 C38 C 0.49548 -0.29311 0.55277
 H39 H 0.48241 -0.22043 0.65139
 H40 H 0.48463 -0.26555 0.65556
 H41 H 0.51174 -0.20944 0.32036
 H42 H 0.51390 -0.25417 0.32380
 H43 H 0.49495 -0.14979 0.48086
 H44 H 0.50202 -0.32490 0.49836
 C45 C 1.19200 0.71568 0.56972
 C46 C 1.18047 0.70237 0.50726
 C47 C 1.19828 0.71164 0.44974
 C48 C 1.22843 0.73577 0.45304
 C49 C 1.24051 0.75043 0.51455
 C50 C 1.22241 0.74033 0.57316
 C51 C 1.23501 0.75588 0.63300
 C52 C 1.26466 0.77981 0.63593
 C53 C 1.28311 0.79005 0.57887
 C54 C 1.27090 0.77513 0.51734
 C55 C 1.24670 0.74573 0.39585
 C56 C 1.27637 0.76929 0.39868
 C57 C 1.28897 0.78469 0.45851
 C58 C 1.31943 0.80865 0.46154
 C59 C 1.33093 0.82251 0.52305
 C60 C 1.31364 0.81410 0.58183
 H61 H 1.22215 0.75023 0.67869
 H62 H 1.27289 0.78983 0.68418
 H63 H 1.23832 0.73545 0.34779
 H64 H 1.28927 0.77479 0.35305
 H65 H 1.15816 0.68261 0.50346
 H66 H 1.35276 0.84289 0.52330
 C67 C 0.82772 0.53860 0.44772
 C68 C 0.84055 0.53922 0.50952
 C69 C 0.82359 0.53192 0.56882
 C70 C 0.79273 0.52499 0.56549
 C71 C 0.77949 0.52484 0.50300
 C72 C 0.79705 0.53156 0.44393
 C73 C 0.78386 0.53230 0.38304
 C74 C 0.75386 0.52574 0.37962
 C75 C 0.73600 0.51916 0.43725
 C76 C 0.74893 0.51904 0.49974
 C77 C 0.77534 0.52041 0.62331
 C78 C 0.74585 0.51529 0.62021
 C79 C 0.73176 0.51406 0.55900
 C80 C 0.70197 0.51024 0.55562
 C81 C 0.68984 0.51052 0.49282
 C82 C 0.70602 0.51407 0.43397
 H83 H 0.79672 0.53858 0.33726
 H84 H 0.74517 0.52699 0.33131
 H85 H 0.78456 0.52209 0.67250
 H86 H 0.73499 0.51344 0.66742
 H87 H 0.86375 0.54363 0.51009
 H88 H 0.66663 0.50591 0.48878
 C89 C 0.44272 0.18000 0.42691
 C90 C 0.44244 0.16542 0.48600
 C91 C 0.44288 0.17749 0.54931
 C92 C 0.44235 0.20495 0.55273
 C93 C 0.44297 0.22014 0.49307
 C94 C 0.44307 0.20761 0.43021
 C95 C 0.44357 0.22310 0.37204
 C96 C 0.44551 0.25098 0.37523
 C97 C 0.44622 0.26418 0.43668
 C98 C 0.44429 0.24841 0.49622
 C99 C 0.44092 0.21770 0.61401
 C100 C 0.44282 0.24558 0.61700
 C101 C 0.44506 0.26152 0.55893
 C102 C 0.44864 0.29052 0.56164
 C103 C 0.44972 0.30522 0.50264
 C104 C 0.44969 0.29314 0.44051
 H105 H 0.44256 0.21393 0.32310
 H106 H 0.44651 0.26212 0.32888
 H107 H 0.43799 0.20642 0.66094
 H108 H 0.44238 0.25453 0.66547
 H109 H 0.44476 0.14578 0.48138
 H110 H 0.45198 0.32731 0.50532
 C111 C 0.72803 0.17572 0.55743
 C112 C 0.71505 0.16527 0.49429
 C113 C 0.73011 0.17919 0.43517
 C114 C 0.75971 0.20440 0.43844
 C115 C 0.77327 0.21595 0.50130
 C116 C 0.75731 0.20197 0.56103
 C117 C 0.77176 0.21410 0.62234
 C118 C 0.80023 0.23978 0.62515
 C119 C 0.81609 0.25403 0.56696
 C120 C 0.80294 0.24166 0.50437
 C121 C 0.77622 0.21827 0.38032
 C122 C 0.80518 0.24331 0.38345
 C123 C 0.81910 0.25540 0.44486
 C124 C 0.84841 0.28124 0.44861
 C125 C 0.86117 0.29243 0.51123
 C126 C 0.84508 0.28004 0.57002
 H127 H 0.76173 0.20399 0.66944
 H128 H 0.81006 0.24795 0.67378
 H129 H 0.76713 0.20978 0.33143
 H130 H 0.81639 0.25305 0.33685
 H131 H 0.69169 0.14733 0.49093
 H132 H 0.88353 0.31219 0.51424
 O133 O 0.97253 0.52420 -0.08169
 O134 O 1.02739 0.55990 0.09061
 O135 O 0.94067 0.48179 0.06830
 O136 O 1.06662 0.55344 -0.05089
 O137 O 0.97275 0.52841 0.08032
 O138 O 1.02905 0.55356 -0.10411
 O139 O 1.06543 0.55357 0.07342
 O140 O 0.93959 0.47936 -0.05073
 C141 C 0.94553 0.50439 -0.07474
 C142 C 1.05517 0.57013 0.09128
 C143 C 0.94594 0.50776 0.08065
 C144 C 1.05675 0.56557 -0.09065
 O145 O 1.02818 0.50311 -0.12978
 O146 O 0.97613 0.48394 0.14507
 O147 O 0.97007 0.44730 -0.04425
 O148 O 1.04987 0.49622 0.07589
 O149 O 1.03076 0.51387 0.14777
 O150 O 0.97261 0.47494 -0.12466
 O151 O 1.05574 0.49802 -0.05209
 O152 O 0.97203 0.45158 0.07375
 Co153 Co 1.00063 0.51324 -0.09867
 Co154 Co 1.00184 0.52020 0.10676
 Co155 Co 0.95957 0.46843 0.01136
 Co156 Co 1.05397 0.52333 0.01169
 O157 O 1.00439 0.50662 0.00747
 C158 C 1.04639 0.49469 -0.11091
 C159 C 0.97229 0.45855 0.13269
 C160 C 0.96936 0.45062 -0.10463
 C161 C 1.04319 0.49850 0.13446
 O162 O 0.50823 0.48513 -0.14004
 O163 O 0.47644 0.50699 0.13332
 O164 O 0.48514 0.45368 0.05545
 O165 O 0.44394 0.49130 -0.06984
 O166 O 0.50968 0.48513 0.13098
 O167 O 0.47920 0.51041 -0.14534
 O168 O 0.44152 0.49702 0.05709
 O169 O 0.48389 0.45450 -0.06226
 C170 C 0.48945 0.45902 -0.12212
 C171 C 0.44901 0.49610 0.11611
 C172 C 0.49093 0.45889 0.11487
 C173 C 0.45189 0.49308 -0.12908
 O174 O 0.52715 0.56089 -0.09519
 O175 O 0.55488 0.53593 0.08076
 O176 O 0.54579 0.49026 -0.06605
 O177 O 0.48203 0.55378 0.04703
 O178 O 0.52230 0.55979 0.10044
 O179 O 0.55499 0.53484 -0.08145
 O180 O 0.48132 0.55016 -0.07704
 O181 O 0.54738 0.49207 0.05372
 Co182 Co 0.51625 0.52171 -0.10625
 Co183 Co 0.51485 0.52086 0.09991
 Co184 Co 0.51457 0.47579 -0.00475
 Co185 Co 0.46608 0.52163 -0.01077
 O186 O 0.50272 0.51026 -0.00497
 C187 C 0.50766 0.56853 -0.09622
 C188 C 0.56475 0.51828 0.07542
 C189 C 0.56389 0.51654 -0.08418
 C190 C 0.50414 0.56861 0.08578
 O191 O 0.55417 0.03546 -0.09893
 O192 O 0.52621 0.00030 0.10623
 O193 O 0.55473 0.07081 0.05936
 O194 O 0.47958 -0.04931 -0.06169
 O195 O 0.52383 0.04561 0.13804
 O196 O 0.52422 -0.01582 -0.07670
 O197 O 0.49606 -0.04121 0.05690
 O198 O 0.55542 0.07559 -0.06399
 C199 C 0.56744 0.06317 -0.09503
 C200 C 0.51891 -0.02605 0.09303
 C201 C 0.55000 0.06427 0.11956
 C202 C 0.50507 -0.04225 -0.08301
 O203 O 0.47306 -0.01414 -0.12564
 O204 O 0.46878 0.02280 0.09457
 O205 O 0.50178 0.06920 -0.06617
 O206 O 0.45126 -0.02892 0.08182
 O207 O 0.47956 -0.00980 0.16951
 O208 O 0.50604 0.03960 -0.13985
 O209 O 0.44334 -0.02800 -0.03879
 O210 O 0.50017 0.06794 0.06113
 Co211 Co 0.51329 0.01115 -0.10190
 Co212 Co 0.49760 0.01120 0.09524
 Co213 Co 0.52563 0.06580 -0.00150
 Co214 Co 0.47117 -0.03186 0.00885
 O215 O 0.50410 0.01665 -0.00371
 C216 C 0.44669 -0.02525 -0.10049
 C217 C 0.47598 0.04972 0.09048
 C218 C 0.49891 0.05920 -0.12466
 C219 C 0.45578 -0.03258 0.14234
 C220 C 1.14529 0.43840 0.39229
 C221 C 1.11584 0.43437 0.39048
 C222 C 1.10449 0.44429 0.33427
 N223 N 1.07871 0.44576 0.34165
 N224 N 1.06855 0.45569 0.29237
 C225 C 1.08371 0.46434 0.23364
 N226 N 1.10928 0.46253 0.22592
 N227 N 1.11959 0.45283 0.27542
 C228 C 1.07308 0.47579 0.17906
 C229 C 1.05204 0.48533 0.18883
 H230 H 1.10027 0.42409 0.43151
 H231 H 1.08338 0.47831 0.13056
 H232 H 1.15833 0.44656 0.34708
 H233 H 1.04306 0.48460 0.23810
 C234 C 0.50951 0.69644 0.37509
 C235 C 0.52370 0.67916 0.37694
 C236 C 0.52652 0.66358 0.31844
 N237 N 0.50798 0.65692 0.26468
 N238 N 0.50962 0.64084 0.21440
 C239 C 0.53005 0.63113 0.21599
 N240 N 0.54875 0.63817 0.26929
 N241 N 0.54694 0.65398 0.31964
 C242 C 0.53088 0.61119 0.16474
 C243 C 0.50793 0.59608 0.11774
 H244 H 0.53487 0.67821 0.42198
 H245 H 0.54833 0.60511 0.17031
 H246 H 0.50274 0.70022 0.32678
 H247 H 0.49039 0.60196 0.11114
 C248 C 0.33776 -0.17888 0.40424
 C249 C 0.36954 -0.16288 0.40729
 C250 C 0.38867 -0.14027 0.35799
 N251 N 0.37652 -0.13318 0.30569
 N252 N 0.39416 -0.11015 0.26614
 C253 C 0.42450 -0.09332 0.27788
 N254 N 0.43661 -0.10066 0.32962
 N255 N 0.41901 -0.12367 0.36898
 C256 C 0.44420 -0.06674 0.23790
 C257 C 0.43434 -0.05888 0.18084
 H258 H 0.38098 -0.16486 0.45082
 H259 H 0.46765 -0.05303 0.25355
 H260 H 0.32730 -0.18033 0.35655
 H261 H 0.41165 -0.07328 0.16167
 C262 C 0.84772 0.54553 0.38893
 C263 C 0.84030 0.52541 0.33630
 C264 C 0.86213 0.52973 0.28335
 N265 N 0.85448 0.50832 0.23610
 N266 N 0.87463 0.51089 0.19041
 C267 C 0.90319 0.53504 0.19007
 N268 N 0.91069 0.55670 0.23669
 N269 N 0.89053 0.55412 0.28242
 C270 C 0.92670 0.53643 0.14493
 C271 C 0.92120 0.51218 0.10469
 H272 H 0.81837 0.50500 0.33593
 H273 H 0.94970 0.55500 0.15038
 H274 H 0.87053 0.56463 0.39211
 H275 H 0.89827 0.49338 0.10029
 C276 C 0.45605 0.31292 0.38208
 C277 C 0.48008 0.34242 0.38550
 C278 C 0.48370 0.36646 0.34091
 N279 N 0.46507 0.36121 0.28804
 N280 N 0.46818 0.38392 0.25047
 C281 C 0.48978 0.41262 0.26498
 N282 N 0.50828 0.41774 0.31783
 N283 N 0.50526 0.39508 0.35514
 C284 C 0.49442 0.43796 0.22342
 C285 C 0.48008 0.43405 0.16235
 H286 H 0.49560 0.34895 0.42730
 H287 H 0.51183 0.46023 0.23858
 H288 H 0.44105 0.30509 0.33941
 H289 H 0.46336 0.41177 0.14578
 C290 C 0.71324 0.16859 0.37119
 C291 C 0.69194 0.13848 0.35997
 C292 C 0.67024 0.12849 0.30445
 N293 N 0.64525 0.10080 0.30679
 N294 N 0.62428 0.09173 0.25925
 C295 C 0.62755 0.10994 0.20725
 N296 N 0.65284 0.13749 0.20413
 N297 N 0.67375 0.14670 0.25214
 C298 C 0.60384 0.10005 0.15579
 C299 C 0.57439 0.07709 0.16923
 H300 H 0.68936 0.12175 0.39606
 H301 H 0.60931 0.11124 0.10798
 H302 H 0.71605 0.18503 0.33413
 H303 H 0.56883 0.06756 0.21878
 C304 C 0.44687 0.16400 -0.39279
 C305 C 0.44267 0.13497 -0.38964
 C306 C 0.45165 0.12400 -0.33110
 N307 N 0.45069 0.09723 -0.33424
 N308 N 0.45991 0.08743 -0.28300
 C309 C 0.47036 0.10397 -0.22649
 N310 N 0.47098 0.13060 -0.22295
 N311 N 0.46188 0.14048 -0.27439
 C312 C 0.48154 0.09369 -0.17051
 C313 C 0.48662 0.06964 -0.17778
 H314 H 0.43276 0.11947 -0.43062
 H315 H 0.48703 0.10594 -0.12401
 H316 H 0.45491 0.17698 -0.34770
 H317 H 0.48223 0.05832 -0.22536
 C318 C 0.68409 0.50539 -0.38675
 C319 C 0.66271 0.51477 -0.38069
 C320 C 0.64664 0.51174 -0.31772
 N321 N 0.63593 0.53057 -0.30424
 N322 N 0.62137 0.52818 -0.24749
 C323 C 0.61684 0.50677 -0.20215
 N324 N 0.62732 0.48773 -0.21586
 N325 N 0.64220 0.49034 -0.27236
 C326 C 0.59835 0.50236 -0.14234
 C327 C 0.59174 0.52426 -0.12127
 H328 H 0.66016 0.52776 -0.41990
 H329 H 0.58713 0.48042 -0.11918
 H330 H 0.68813 0.49586 -0.34280
 H331 H 0.60424 0.54659 -0.14236
 C332 C 0.85699 0.29755 -0.36784
 C333 C 0.88789 0.31321 -0.35282
 C334 C 0.90082 0.33975 -0.30966
 N335 N 0.92880 0.35045 -0.28240
 N336 N 0.94149 0.37579 -0.24718
 C337 C 0.92688 0.39163 -0.23925
 N338 N 0.89907 0.38108 -0.26705
 N339 N 0.88623 0.35557 -0.30144
 C340 C 0.94054 0.41974 -0.20141
 C341 C 0.96062 0.42515 -0.14936
 H342 H 0.90325 0.30761 -0.37803
 H343 H 0.93206 0.43505 -0.20980
 H344 H 0.84145 0.30119 -0.33768
 H345 H 0.96639 0.40825 -0.13561
 C346 C 0.48464 -0.17274 -0.39720
 C347 C 0.50480 -0.14337 -0.37774
 C348 C 0.50044 -0.13009 -0.31689
 N349 N 0.52316 -0.10327 -0.29500
 N350 N 0.51950 -0.09056 -0.24075
 C351 C 0.49294 -0.10417 -0.20634
 N352 N 0.47016 -0.13102 -0.22826
 N353 N 0.47389 -0.14382 -0.28238
 C354 C 0.48795 -0.08920 -0.14926
 C355 C 0.51121 -0.06210 -0.12441
 H356 H 0.52509 -0.12995 -0.40704
 H357 H 0.46505 -0.09830 -0.13032
 H358 H 0.46534 -0.18695 -0.36599
 H359 H 0.53417 -0.05326 -0.14281
 C360 C 0.28989 0.43470 -0.38406
 C361 C 0.31499 0.43028 -0.38358
 C362 C 0.33566 0.43819 -0.32639
 N363 N 0.36280 0.43946 -0.33419
 N364 N 0.38264 0.44815 -0.28426
 C365 C 0.37597 0.45569 -0.22446
 N366 N 0.34861 0.45395 -0.21627
 N367 N 0.32885 0.44548 -0.26639
 C368 C 0.39826 0.46684 -0.17001
 C369 C 0.42907 0.47745 -0.18120
 H370 H 0.32059 0.42140 -0.42661
 H371 H 0.39067 0.46924 -0.12121
 H372 H 0.28435 0.44114 -0.33735
 H373 H 0.43700 0.47683 -0.23087
 C374 C 1.17406 0.70266 -0.37261
 C375 C 1.14229 0.68566 -0.37372
 C376 C 1.12400 0.66747 -0.31708
 N377 N 1.13666 0.66073 -0.26512
 N378 N 1.11919 0.64198 -0.21742
 C379 C 1.08846 0.62942 -0.21994
 N380 N 1.07596 0.63653 -0.27137
 N381 N 1.09337 0.65510 -0.31910
 C382 C 1.06826 0.60664 -0.17170
 C383 C 1.07835 0.59381 -0.12420
 H384 H 1.12994 0.68568 -0.41755
 H385 H 1.04406 0.59747 -0.17858
 H386 H 1.18492 0.70544 -0.32489
 H387 H 1.10247 0.60282 -0.11646
 C388 C 0.83720 0.53048 -0.37078
 C389 C 0.86842 0.54747 -0.35851
 C390 C 0.88260 0.54469 -0.29718
 N391 N 0.86882 0.51979 -0.25814
 N392 N 0.88314 0.51705 -0.20526
 C393 C 0.91161 0.53926 -0.18930
 N394 N 0.92508 0.56420 -0.22788
 N395 N 0.91092 0.56682 -0.28089
 C396 C 0.92940 0.53606 -0.13558
 C397 C 0.92158 0.50881 -0.10480
 H398 H 0.88307 0.56495 -0.39291
 H399 H 0.95188 0.55513 -0.12720
 H400 H 0.82317 0.51645 -0.33062
 H401 H 0.89906 0.48958 -0.11121
 C402 C 0.45473 0.30812 -0.37629
 C403 C 0.48081 0.33639 -0.37368
 C404 C 0.48429 0.36115 -0.33143
 N405 N 0.46338 0.35757 -0.28480
 N406 N 0.46640 0.38117 -0.25069
 C407 C 0.49019 0.40914 -0.26273
 N408 N 0.51096 0.41257 -0.30928
 N409 N 0.50804 0.38904 -0.34300
 C410 C 0.49461 0.43556 -0.22535
 C411 C 0.47842 0.43344 -0.16786
 H412 H 0.49801 0.34205 -0.41168
 H413 H 0.51353 0.45717 -0.23972
 H414 H 0.43741 0.30081 -0.33818
 H415 H 0.46047 0.41174 -0.15116
 C416 C 0.71090 0.16068 -0.38517
 C417 C 0.68890 0.13016 -0.38490
 C418 C 0.66941 0.11479 -0.32728
 N419 N 0.66570 0.13016 -0.27656
 N420 N 0.64633 0.11553 -0.22713
 C421 C 0.63014 0.08503 -0.22655
 N422 N 0.63417 0.06980 -0.27683
 N423 N 0.65333 0.08439 -0.32633
 C424 C 0.60698 0.06813 -0.17565
 C425 C 0.59625 0.08146 -0.13099
 H426 H 0.68661 0.11628 -0.42745
 H427 H 0.59563 0.04387 -0.17853
 H428 H 0.71513 0.17238 -0.33838
 H429 H 0.60704 0.10567 -0.12835
 C430 C 1.14807 0.43412 -0.36605
 C431 C 1.11806 0.42787 -0.35835
 C432 C 1.10774 0.43802 -0.30086
 N433 N 1.07999 0.43570 -0.30301
 N434 N 1.07088 0.44682 -0.25422
 C435 C 1.08915 0.46064 -0.20123
 N436 N 1.11674 0.46250 -0.19834
 N437 N 1.12596 0.45151 -0.24748
 C438 C 1.07972 0.47433 -0.14906
 C439 C 1.05610 0.48017 -0.16016
 H440 H 1.10148 0.41633 -0.39717
 H441 H 1.09246 0.48132 -0.10299
 H442 H 1.16256 0.44235 -0.32277
 H443 H 1.04467 0.47467 -0.20791
 C444 C 0.49100 0.69003 -0.38448
 C445 C 0.51191 0.68170 -0.36387
 C446 C 0.50718 0.66294 -0.30495
 N447 N 0.52968 0.65789 -0.28468
 N448 N 0.52533 0.63958 -0.23388
 C449 C 0.49826 0.62554 -0.20141
 N450 N 0.47579 0.63074 -0.22138
 N451 N 0.48019 0.64918 -0.27209
 C452 C 0.49232 0.60298 -0.14966
 C453 C 0.51479 0.59666 -0.12967
 H454 H 0.53248 0.68898 -0.39261
 H455 H 0.46922 0.58913 -0.13210
 H456 H 0.47130 0.68448 -0.35405
 H457 H 0.53793 0.61082 -0.14674
 C458 C 0.32669 -0.16817 -0.36036
 C459 C 0.35822 -0.15145 -0.35146
 C460 C 0.37396 -0.12341 -0.31361
 N461 N 0.36052 -0.11648 -0.26357
 N462 N 0.37597 -0.09042 -0.23120
 C463 C 0.40504 -0.07024 -0.24898
 N464 N 0.41811 -0.07716 -0.29942
 N465 N 0.40291 -0.10325 -0.33094
 C466 C 0.42389 -0.04251 -0.21162
 C467 C 0.41983 -0.04027 -0.14385
 H468 H 0.37275 -0.15671 -0.38113
 H469 H 0.44566 -0.02694 -0.23365
 H470 H 0.31245 -0.16581 -0.32372
 H471 H 0.39807 -0.05524 -0.12106
 C472 C 0.50397 -0.16566 0.36011
 C473 C 0.52197 -0.13455 0.35515
 C474 C 0.52373 -0.11831 0.29353
 N475 N 0.54081 -0.08793 0.29167
 N476 N 0.54114 -0.07282 0.23753
 C477 C 0.52453 -0.08757 0.18308
 N478 N 0.50778 -0.11796 0.18468
 N479 N 0.50745 -0.13306 0.23877
 C480 C 0.52127 -0.07128 0.12649
 C481 C 0.53429 -0.04015 0.12646
 H482 H 0.53475 -0.12167 0.39802
 H483 H 0.50415 -0.08444 0.08966
 H484 H 0.49207 -0.17853 0.31651
 H485 H 0.55195 -0.02680 0.16208
 C486 C 0.28745 0.43914 0.37201
 C487 C 0.30810 0.42912 0.36169
 C488 C 0.32979 0.43982 0.30617
 N489 N 0.35486 0.43691 0.30942
 N490 N 0.37579 0.44805 0.26162
 C491 C 0.37231 0.46236 0.20856
 N492 N 0.34698 0.46483 0.20469
 N493 N 0.32617 0.45392 0.25283
 C494 C 0.39563 0.47551 0.15645
 C495 C 0.42531 0.48162 0.16707
 H496 H 0.31027 0.41493 0.39843
 H497 H 0.38978 0.48211 0.11011
 H498 H 0.28523 0.45290 0.33426
 H499 H 0.43172 0.47695 0.21507
 C500 C 1.18579 0.69390 0.38796
 C501 C 1.15693 0.68579 0.36426
 C502 C 1.14413 0.66702 0.30459
 N503 N 1.11654 0.66088 0.28146
 N504 N 1.10404 0.64280 0.22937
 C505 C 1.11869 0.63019 0.19836
 N506 N 1.14641 0.63653 0.22117
 N507 N 1.15894 0.65467 0.27317
 C508 C 1.10380 0.60775 0.14535
 C509 C 1.07454 0.59919 0.12362
 H510 H 1.14331 0.69335 0.39033
 H511 H 1.11462 0.59531 0.12889
 H512 H 1.19985 0.68738 0.36029
 H513 H 1.06386 0.61181 0.13972
 C514 C 0.44663 0.16786 0.36273
 C515 C 0.43233 0.13717 0.34899
 C516 C 0.44000 0.12528 0.28993
 N517 N 0.42670 0.09518 0.28070
 N518 N 0.43489 0.08407 0.22998
 C519 C 0.45667 0.10266 0.18646
 N520 N 0.46969 0.13274 0.19525
 N521 N 0.46151 0.14385 0.24594
 C522 C 0.46826 0.09094 0.13416
 C523 C 0.45796 0.06038 0.12660
 H524 H 0.41590 0.12132 0.38386
 H525 H 0.48765 0.10706 0.10548
 H526 H 0.46228 0.18351 0.32649
 H527 H 0.43842 0.04413 0.15470
 C528 C 0.69041 0.51061 0.36945
 C529 C 0.67532 0.52628 0.35512
 C530 C 0.65816 0.52177 0.29303
 N531 N 0.64934 0.54171 0.27554
 N532 N 0.63241 0.53721 0.22153
 C533 C 0.62347 0.51249 0.18298
 N534 N 0.63232 0.49253 0.20042
 N535 N 0.64950 0.49716 0.25421
 C536 C 0.60194 0.50581 0.12758
 C537 C 0.59427 0.52692 0.10610
 H538 H 0.67640 0.54268 0.39047
 H539 H 0.58933 0.48297 0.10931
 H540 H 0.69155 0.49605 0.33209
 H541 H 0.60760 0.54986 0.12347
 C542 C 0.86569 0.29830 0.38875
 C543 C 0.88160 0.32962 0.38934
 C544 C 0.90008 0.34850 0.33400
 N545 N 0.91709 0.37850 0.34376
 N546 N 0.93329 0.39662 0.29437
 C547 C 0.93313 0.38550 0.23309
 N548 N 0.91625 0.35538 0.22325
 N549 N 0.90007 0.33714 0.27294
 C550 C 0.94890 0.40600 0.17722
 C551 C 0.96457 0.43698 0.18703
 H552 H 0.88045 0.34132 0.43304
 H553 H 0.94550 0.39692 0.12734
 H554 H 0.86582 0.28650 0.34432
 H555 H 0.96765 0.44583 0.23709
   
