data_POSCAR
  _audit_creation_date              2014-09-24
  _audit_creation_method            'ToBaCCo'
  _symmetry_space_group_name_H-M    'P1'
  _symmetry_Int_Tables_number       1
  _symmetry_cell_setting            triclinic
  loop_
  _symmetry_equiv_pos_as_xyz
 x,y,z
_cell_length_a 43.6966
_cell_length_b 44.6727
_cell_length_c 45.3178
_cell_angle_alpha 88.362700
_cell_angle_beta 90.612400
_cell_angle_gamma 88.238700
loop_
  _atom_site_label
  _atom_site_type_symbol
  _atom_site_fract_x
  _atom_site_fract_y
  _atom_site_fract_z
C1 C 0.29305 0.24164 0.23809
 C2 C 0.28093 0.23026 0.26446
 C3 C 0.25607 0.24460 0.27708
 C4 C 0.24306 0.27066 0.26352
 C5 C 0.25507 0.28193 0.23753
 C6 C 0.28026 0.26729 0.22469
 C7 C 0.31642 0.23171 0.22045
 N8 N 0.31814 0.25061 0.19649
 C9 C 0.29605 0.27250 0.19900
 C10 C 0.23742 0.30675 0.22901
 N11 N 0.21485 0.31084 0.24911
 C12 C 0.21825 0.28876 0.27030
 C13 C 0.24874 0.22813 0.30201
 N14 N 0.26856 0.20411 0.30483
 C15 C 0.28830 0.20531 0.28185
 H16 H 0.33108 0.21210 0.22490
 H17 H 0.29117 0.29049 0.18298
 H18 H 0.24092 0.32075 0.20954
 H19 H 0.20330 0.28546 0.28892
 H20 H 0.23040 0.23344 0.31703
 H21 H 0.30631 0.18889 0.27759
 C22 C 0.71074 -0.23650 0.24678
 C23 C 0.72409 -0.22518 0.27225
 C24 C 0.74950 -0.23960 0.28522
 C25 C 0.76192 -0.26568 0.27275
 C26 C 0.74866 -0.27669 0.24770
 C27 C 0.72286 -0.26208 0.23468
 C28 C 0.68612 -0.22699 0.22942
 N29 N 0.68275 -0.24624 0.20678
 C30 C 0.70546 -0.26781 0.21015
 C31 C 0.76554 -0.30161 0.24008
 N32 N 0.78919 -0.30639 0.25977
 C33 C 0.78681 -0.28426 0.27996
 C34 C 0.75737 -0.22350 0.30954
 N35 N 0.73730 -0.19974 0.31163
 C36 C 0.71699 -0.20067 0.28874
 H37 H 0.67177 -0.20750 0.23364
 H38 H 0.70984 -0.28628 0.19576
 H39 H 0.76045 -0.31490 0.22123
 H40 H 0.80216 -0.28108 0.29836
 H41 H 0.77602 -0.22905 0.32482
 H42 H 0.69848 -0.18453 0.28407
 C43 C 0.73451 0.22711 0.76026
 C44 C 0.74650 0.21543 0.73432
 C45 C 0.77073 0.22892 0.72055
 C46 C 0.78328 0.25446 0.73267
 C47 C 0.77147 0.26596 0.75827
 C48 C 0.74670 0.25223 0.77214
 C49 C 0.71067 0.21872 0.77777
 N50 N 0.70764 0.23813 0.80036
 C51 C 0.72987 0.25878 0.79682
 C52 C 0.78789 0.29080 0.76464
 N53 N 0.80958 0.29495 0.74351
 C54 C 0.80658 0.27254 0.72388
 C55 C 0.77693 0.21314 0.69547
 N56 N 0.75690 0.19050 0.69373
 C57 C 0.73832 0.19178 0.71756
 H58 H 0.69627 0.20009 0.77340
 H59 H 0.73410 0.27721 0.81110
 H60 H 0.78352 0.30491 0.78319
 H61 H 0.82038 0.26890 0.70460
 H62 H 0.79418 0.21832 0.67930
 H63 H 0.72009 0.17662 0.72245
 C64 C 0.26607 -0.23581 0.76195
 C65 C 0.25279 -0.22408 0.73563
 C66 C 0.22837 -0.23804 0.72303
 C67 C 0.21692 -0.26391 0.73651
 C68 C 0.22981 -0.27543 0.76251
 C69 C 0.25481 -0.26128 0.77531
 C70 C 0.29006 -0.22684 0.77898
 N71 N 0.29411 -0.24619 0.80268
 C72 C 0.27235 -0.26739 0.80034
 C73 C 0.21360 -0.30034 0.77048
 N74 N 0.19119 -0.30439 0.74981
 C75 C 0.19338 -0.28189 0.72901
 C76 C 0.21999 -0.22184 0.69782
 N77 N 0.23875 -0.19825 0.69477
 C78 C 0.25893 -0.19953 0.71788
 H79 H 0.30362 -0.20765 0.77367
 H80 H 0.26883 -0.28589 0.81568
 H81 H 0.21850 -0.31457 0.78975
 H82 H 0.17858 -0.27792 0.70996
 H83 H 0.20177 -0.22714 0.68266
 H84 H 0.27650 -0.18353 0.72185
 C85 C 0.72015 -0.23013 0.77427
 C86 C 0.73101 -0.21806 0.74756
 C87 C 0.75559 -0.23180 0.73385
 C88 C 0.76964 -0.25779 0.74661
 C89 C 0.75907 -0.26947 0.77291
 C90 C 0.73407 -0.25560 0.78676
 C91 C 0.69616 -0.22214 0.79215
 N92 N 0.69489 -0.24225 0.81538
 C93 C 0.71839 -0.26272 0.81196
 C94 C 0.77675 -0.29470 0.77997
 N95 N 0.79802 -0.29895 0.75849
 C96 C 0.79354 -0.27617 0.73798
 C97 C 0.76096 -0.21553 0.70832
 N98 N 0.74028 -0.19215 0.70612
 C99 C 0.72184 -0.19363 0.73010
 H100 H 0.68060 -0.20326 0.78770
 H101 H 0.72406 -0.28183 0.82632
 H102 H 0.77342 -0.30911 0.79914
 H103 H 0.80678 -0.27250 0.71828
 H104 H 0.77840 -0.22070 0.69231
 H105 H 0.70333 -0.17790 0.73481
 C106 C 0.28175 0.22898 0.75671
 C107 C 0.26822 0.21748 0.73138
 C108 C 0.24330 0.23239 0.71821
 C109 C 0.23154 0.25888 0.73006
 C110 C 0.24480 0.27026 0.75499
 C111 C 0.27024 0.25517 0.76836
 C112 C 0.30611 0.21918 0.77420
 N113 N 0.31005 0.23876 0.79644
 C114 C 0.28790 0.26087 0.79275
 C115 C 0.22825 0.29595 0.76157
 N116 N 0.20533 0.30034 0.74117
 C117 C 0.20727 0.27763 0.72188
 C118 C 0.23465 0.21625 0.69435
 N119 N 0.25363 0.19169 0.69264
 C120 C 0.27433 0.19233 0.71525
 H121 H 0.31999 0.19931 0.77024
 H122 H 0.28412 0.27974 0.80679
 H123 H 0.23277 0.31046 0.77974
 H124 H 0.19180 0.27452 0.70349
 H125 H 0.21600 0.22226 0.67922
 H126 H 0.29216 0.17550 0.72005
 C127 C 0.26671 -0.23037 0.23830
 C128 C 0.25543 -0.21824 0.26445
 C129 C 0.23142 -0.23161 0.27884
 C130 C 0.21841 -0.25720 0.26744
 C131 C 0.22944 -0.26899 0.24179
 C132 C 0.25379 -0.25552 0.22717
 C133 C 0.28977 -0.22237 0.21944
 N134 N 0.29136 -0.24213 0.19695
 C135 C 0.26907 -0.26241 0.20186
 C136 C 0.21232 -0.29341 0.23571
 N137 N 0.19087 -0.29699 0.25714
 C138 C 0.19475 -0.27462 0.27665
 C139 C 0.22478 -0.21503 0.30311
 N140 N 0.24405 -0.19175 0.30392
 C141 C 0.26300 -0.19363 0.28036
 H142 H 0.30426 -0.20352 0.22249
 H143 H 0.26384 -0.28116 0.18838
 H144 H 0.21593 -0.30750 0.21701
 H145 H 0.18123 -0.27050 0.29602
 H146 H 0.20719 -0.21973 0.31907
 H147 H 0.28049 -0.17787 0.27474
 C148 C 0.73566 0.23360 0.23285
 C149 C 0.74887 0.22112 0.25894
 C150 C 0.77421 0.23393 0.27140
 C151 C 0.78668 0.25946 0.25796
 C152 C 0.77371 0.27154 0.23230
 C153 C 0.74807 0.25862 0.21970
 C154 C 0.71067 0.22639 0.21594
 N155 N 0.70768 0.24655 0.19291
 C156 C 0.73064 0.26624 0.19511
 C157 C 0.79006 0.29609 0.22421
 N158 N 0.81305 0.29966 0.24431
 C159 C 0.81090 0.27704 0.26511
 C160 C 0.78200 0.21719 0.29648
 N161 N 0.76208 0.19450 0.29955
 C162 C 0.74172 0.19686 0.27662
 H163 H 0.69546 0.20822 0.22052
 H164 H 0.73464 0.28474 0.17985
 H165 H 0.78469 0.31036 0.20511
 H166 H 0.82579 0.27306 0.28409
 H167 H 0.80063 0.22152 0.31153
 H168 H 0.72331 0.18176 0.27270
 O169 O 0.22844 0.03433 0.46802
 O170 O 0.22010 -0.02692 0.52340
 O171 O 0.22404 0.03070 0.52524
 O172 O 0.22305 -0.02333 0.46606
 O173 O 0.27327 -0.02940 0.46933
 O174 O 0.27435 0.02567 0.52876
 O175 O 0.27038 -0.03229 0.52681
 O176 O 0.27868 0.02854 0.47151
 Cu177 Cu 0.21889 0.00424 0.49530
 Cu178 Cu 0.27923 -0.00245 0.49941
 C179 C 0.25507 0.04191 0.46032
 C180 C 0.24389 -0.03995 0.53472
 C181 C 0.24919 0.03746 0.53722
 C182 C 0.24781 -0.03569 0.45752
 O183 O 0.72356 0.03120 0.52546
 O184 O 0.72025 -0.02870 0.47203
 O185 O 0.71876 -0.02662 0.52920
 O186 O 0.72613 0.02925 0.46835
 O187 O 0.77640 0.02342 0.47104
 O188 O 0.76903 -0.03256 0.53143
 O189 O 0.77055 -0.03460 0.47391
 O190 O 0.77382 0.02541 0.52845
 Cu191 Cu 0.71717 0.00186 0.49846
 Cu192 Cu 0.77750 -0.00518 0.50141
 C193 C 0.74908 0.03856 0.53624
 C194 C 0.74466 -0.04198 0.46381
 C195 C 0.74269 -0.03913 0.54075
 C196 C 0.75259 0.03602 0.45941
 O197 O 0.48006 0.21502 0.02395
 O198 O 0.54044 0.21375 -0.03176
 O199 O 0.53948 0.21677 0.02548
 O200 O 0.48093 0.21245 -0.03331
 O201 O 0.47800 0.26179 -0.03694
 O202 O 0.53644 0.26611 0.02157
 O203 O 0.53775 0.26308 -0.03578
 O204 O 0.47722 0.26439 0.02050
 Cu205 Cu 0.51051 0.20956 -0.00357
 Cu206 Cu 0.50706 0.26879 -0.00813
 C207 C 0.46842 0.23985 0.03194
 C208 C 0.54950 0.23809 -0.04333
 C209 C 0.54785 0.24226 0.03367
 C210 C 0.46939 0.23641 -0.04513
 O211 O 0.51970 0.73456 0.03398
 O212 O 0.46163 0.73410 -0.02587
 O213 O 0.52131 0.73361 -0.02338
 O214 O 0.46030 0.73389 0.03147
 O215 O 0.45861 0.78331 0.03027
 O216 O 0.51987 0.78302 -0.02541
 O217 O 0.46014 0.78351 -0.02724
 O218 O 0.51803 0.78398 0.03206
 Cu219 Cu 0.49091 0.72910 0.00417
 Cu220 Cu 0.48900 0.78841 0.00219
 C221 C 0.52869 0.75943 0.04332
 C222 C 0.45087 0.75885 -0.03670
 C223 C 0.53114 0.75813 -0.03379
 C224 C 0.44905 0.75850 0.04041
 O225 O 0.03273 0.47676 0.22643
 O226 O -0.03049 0.53242 0.22917
 O227 O 0.02891 0.53459 0.23082
 O228 O -0.02644 0.47446 0.22588
 O229 O -0.02663 0.46961 0.27445
 O230 O 0.02850 0.53002 0.27940
 O231 O -0.03104 0.52794 0.27776
 O232 O 0.03298 0.47202 0.27502
 Cu233 Cu 0.00117 0.50507 0.22323
 Cu234 Cu 0.00091 0.49942 0.28155
 C235 C 0.04372 0.46482 0.25014
 C236 C -0.04165 0.53977 0.25378
 C237 C 0.03822 0.54259 0.25597
 C238 C -0.03593 0.46164 0.24929
 O239 O 0.02587 0.52930 0.72439
 O240 O -0.03117 0.47070 0.72071
 O241 O -0.03341 0.52895 0.72412
 O242 O 0.02838 0.47158 0.72062
 O243 O 0.02898 0.46657 0.76919
 O244 O -0.03274 0.52463 0.77273
 O245 O -0.03075 0.46624 0.76930
 O246 O 0.02703 0.52459 0.77299
 Cu247 Cu -0.00275 0.50054 0.71761
 Cu248 Cu -0.00190 0.49504 0.77594
 C249 C 0.03636 0.53690 0.74924
 C250 C -0.04070 0.45835 0.74433
 C251 C -0.04348 0.53687 0.74899
 C252 C 0.03943 0.45938 0.74422
 C253 C 0.37999 0.24180 0.12535
 C254 C 0.37276 0.21643 0.14267
 C255 C 0.35231 0.21933 0.16589
 C256 C 0.33915 0.24742 0.17232
 C257 C 0.34715 0.27226 0.15466
 N258 N 0.36710 0.26887 0.13207
 C259 C 0.40195 0.24031 0.10061
 N260 N 0.41422 0.26618 0.09022
 C261 C 0.43495 0.26672 0.06805
 C262 C 0.44475 0.24000 0.05505
 C263 C 0.43198 0.21316 0.06497
 C264 C 0.41050 0.21321 0.08749
 H265 H 0.34671 0.19945 0.17865
 H266 H 0.33800 0.29443 0.15901
 H267 H 0.44410 0.28796 0.06099
 H268 H 0.43856 0.19206 0.05529
 H269 H 0.38297 0.19457 0.13893
 H270 H 0.40071 0.19218 0.09411
 C271 C 0.61681 0.75976 0.13878
 C272 C 0.61872 0.78296 0.15884
 C273 C 0.64056 0.78097 0.18154
 C274 C 0.66084 0.75582 0.18468
 C275 C 0.65760 0.73287 0.16414
 N276 N 0.63605 0.73541 0.14228
 C277 C 0.59410 0.76065 0.11422
 N278 N 0.58539 0.73440 0.10261
 C279 C 0.56472 0.73339 0.08003
 C280 C 0.55157 0.75999 0.06762
 C281 C 0.56057 0.78732 0.07895
 C282 C 0.58179 0.78777 0.10212
 H283 H 0.64141 0.79954 0.19619
 H284 H 0.67168 0.71262 0.16531
 H285 H 0.55860 0.71182 0.07187
 H286 H 0.55124 0.80841 0.06991
 H287 H 0.60327 0.80234 0.15748
 H288 H 0.58875 0.80918 0.10997
 C289 C 0.64193 0.23516 -0.13298
 C290 C 0.64515 0.21128 -0.15218
 C291 C 0.66704 0.21222 -0.17426
 C292 C 0.68608 0.23701 -0.17773
 C293 C 0.68181 0.26060 -0.15791
 N294 N 0.66012 0.25913 -0.13661
 C295 C 0.61871 0.23520 -0.10939
 N296 N 0.60697 0.26181 -0.09994
 C297 C 0.58509 0.26338 -0.07882
 C298 C 0.57379 0.23706 -0.06585
 C299 C 0.58607 0.20945 -0.07486
 C300 C 0.60849 0.20842 -0.09647
 H301 H 0.66892 0.19306 -0.18816
 H302 H 0.69506 0.28055 -0.15941
 H303 H 0.57647 0.28516 -0.07234
 H304 H 0.57833 0.18857 -0.06526
 H305 H 0.63059 0.19216 -0.15065
 H306 H 0.61789 0.18682 -0.10261
 C307 C 0.36034 0.75884 -0.13010
 C308 C 0.35722 0.78193 -0.15158
 C309 C 0.33522 0.78029 -0.17389
 C310 C 0.31598 0.75554 -0.17536
 C311 C 0.32033 0.73265 -0.15338
 N312 N 0.34205 0.73485 -0.13187
 C313 C 0.38342 0.75964 -0.10595
 N314 N 0.39437 0.73340 -0.09322
 C315 C 0.41578 0.73251 -0.07115
 C316 C 0.42739 0.75919 -0.06053
 C317 C 0.41602 0.78646 -0.07302
 C318 C 0.39407 0.78680 -0.09557
 H319 H 0.33352 0.79886 -0.18962
 H320 H 0.30697 0.71275 -0.15318
 H321 H 0.42371 0.71098 -0.06199
 H322 H 0.42403 0.80761 -0.06534
 H323 H 0.37189 0.80100 -0.15161
 H324 H 0.38530 0.80819 -0.10433
 C325 C 0.14326 0.37744 0.24528
 C326 C 0.15893 0.37002 0.21941
 C327 C 0.18245 0.34820 0.22069
 C328 C 0.19088 0.33385 0.24765
 C329 C 0.17511 0.34237 0.27310
 N330 N 0.15210 0.36355 0.27126
 C331 C 0.11762 0.40004 0.24544
 N332 N 0.10817 0.41074 0.27181
 C333 C 0.08471 0.43126 0.27397
 C334 C 0.06917 0.44233 0.24849
 C335 C 0.07831 0.43146 0.22112
 C336 C 0.10226 0.41027 0.21948
 H337 H 0.19370 0.34237 0.20042
 H338 H 0.18111 0.33244 0.29448
 H339 H 0.07836 0.43897 0.29555
 H340 H 0.06673 0.43909 0.20090
 H341 H 0.15357 0.38090 0.19833
 H342 H 0.10803 0.40188 0.19807
 C343 C 0.12665 0.62818 0.75030
 C344 C 0.13024 0.64622 0.72489
 C345 C 0.15172 0.66859 0.72469
 C346 C 0.17018 0.67331 0.74978
 C347 C 0.16597 0.65428 0.77476
 N348 N 0.14459 0.63275 0.77439
 C349 C 0.10366 0.60443 0.75094
 N350 N 0.08889 0.59757 0.72552
 C351 C 0.06751 0.57621 0.72453
 C352 C 0.05963 0.56023 0.75031
 C353 C 0.07449 0.56690 0.77685
 C354 C 0.09658 0.58888 0.77724
 H355 H 0.15396 0.68156 0.70442
 H356 H 0.17893 0.65672 0.79490
 H357 H 0.05664 0.57188 0.70358
 H358 H 0.06915 0.55506 0.79725
 H359 H 0.11650 0.64322 0.70523
 H360 H 0.10780 0.59376 0.79789
 C361 C -0.14138 0.62696 0.25605
 C362 C -0.16403 0.62919 0.23395
 C363 C -0.18726 0.65111 0.23532
 C364 C -0.18847 0.67122 0.25881
 C365 C -0.16557 0.66743 0.28102
 N366 N -0.14310 0.64580 0.27905
 C367 C -0.11578 0.60455 0.25488
 N368 N -0.10233 0.59381 0.28046
 C369 C -0.07876 0.57314 0.28078
 C370 C -0.06723 0.56226 0.25418
 C371 C -0.08048 0.57344 0.22760
 C372 C -0.10461 0.59452 0.22784
 H373 H -0.20385 0.65204 0.21752
 H374 H -0.16517 0.68140 0.30002
 H375 H -0.06904 0.56531 0.30177
 H376 H -0.07219 0.56594 0.20653
 H377 H -0.16412 0.61399 0.21578
 H378 H -0.11395 0.60319 0.20699
 C379 C -0.12739 0.36388 0.73989
 C380 C -0.12976 0.34454 0.71621
 C381 C -0.15070 0.32160 0.71738
 C382 C -0.16961 0.31748 0.74216
 C383 C -0.16607 0.33742 0.76553
 N384 N -0.14538 0.35950 0.76382
 C385 C -0.10530 0.38841 0.74001
 N386 N -0.09558 0.39877 0.76638
 C387 C -0.07520 0.42106 0.76833
 C388 C -0.06339 0.43447 0.74265
 C389 C -0.07348 0.42449 0.71523
 C390 C -0.09441 0.40160 0.71380
 H391 H -0.15194 0.30754 0.69847
 H392 H -0.17916 0.33549 0.78549
 H393 H -0.06823 0.42818 0.78995
 H394 H -0.06520 0.43436 0.69483
 H395 H -0.11530 0.34659 0.69709
 H396 H -0.10220 0.39477 0.69236
 C397 C 0.26753 0.13600 0.37204
 C398 C 0.29493 0.14184 0.35726
 C399 C 0.29530 0.16440 0.33537
 C400 C 0.26849 0.18110 0.32783
 C401 C 0.24155 0.17445 0.34299
 N402 N 0.24175 0.15237 0.36427
 C403 C 0.26544 0.11201 0.39519
 N404 N 0.23732 0.10183 0.40232
 C405 C 0.23338 0.07975 0.42308
 C406 C 0.25877 0.06639 0.43809
 C407 C 0.28794 0.07680 0.43143
 C408 C 0.29137 0.09963 0.41021
 H409 H 0.31667 0.16881 0.32447
 H410 H 0.22021 0.18635 0.33763
 H411 H 0.21044 0.07252 0.42762
 H412 H 0.30814 0.06742 0.44273
 H413 H 0.31584 0.12896 0.36193
 H414 H 0.31410 0.10756 0.40614
 C415 C 0.75093 0.12819 0.62511
 C416 C 0.72475 0.13587 0.64131
 C417 C 0.72674 0.15648 0.66367
 C418 C 0.75474 0.16944 0.67031
 C419 C 0.78047 0.16105 0.65376
 N420 N 0.77798 0.14082 0.63201
 C421 C 0.74997 0.10607 0.60136
 N422 N 0.77612 0.09064 0.59421
 C423 C 0.77663 0.06939 0.57325
 C424 C 0.74961 0.06250 0.55817
 C425 C 0.72262 0.07867 0.56470
 C426 C 0.72272 0.10049 0.58604
 H427 H 0.70623 0.16240 0.67561
 H428 H 0.80260 0.17014 0.65840
 H429 H 0.79802 0.05763 0.56874
 H430 H 0.70132 0.07447 0.55333
 H431 H 0.70299 0.12576 0.63731
 H432 H 0.70165 0.11292 0.59014
 C433 C 0.23550 -0.13200 0.62568
 C434 C 0.20889 -0.14738 0.63292
 C435 C 0.20994 -0.16910 0.65569
 C436 C 0.23739 -0.17580 0.67123
 C437 C 0.26351 -0.16016 0.66309
 N438 N 0.26191 -0.13908 0.64087
 C439 C 0.23619 -0.10868 0.60176
 N440 N 0.26388 -0.10071 0.59110
 C441 C 0.26683 -0.07919 0.56962
 C442 C 0.24082 -0.06401 0.55754
 C443 C 0.21199 -0.07174 0.56817
 C444 C 0.20955 -0.09393 0.59029
 H445 H 0.18916 -0.18043 0.66127
 H446 H 0.28529 -0.16490 0.67404
 H447 H 0.28954 -0.07391 0.56217
 H448 H 0.19134 -0.06040 0.55968
 H449 H 0.18754 -0.14321 0.62106
 H450 H 0.18708 -0.09876 0.59855
 C451 C 0.73698 -0.13410 0.37768
 C452 C 0.70984 -0.13980 0.36219
 C453 C 0.70995 -0.16156 0.34079
 C454 C 0.73704 -0.17758 0.33423
 C455 C 0.76378 -0.17108 0.35001
 N456 N 0.76309 -0.14978 0.37092
 C457 C 0.73821 -0.11095 0.40052
 N458 N 0.76581 -0.09986 0.40822
 C459 C 0.76862 -0.07820 0.42854
 C460 C 0.74255 -0.06621 0.44232
 C461 C 0.71399 -0.07770 0.43514
 C462 C 0.71173 -0.10012 0.41456
 H463 H 0.68867 -0.16587 0.32950
 H464 H 0.78531 -0.18250 0.34546
 H465 H 0.79112 -0.07012 0.43357
 H466 H 0.69332 -0.06951 0.44558
 H467 H 0.68870 -0.12739 0.36595
 H468 H 0.68943 -0.10890 0.41017
 C469 C 0.62816 0.75625 -0.11882
 C470 C 0.65101 0.73359 -0.11910
 C471 C 0.67340 0.73423 -0.14074
 C472 C 0.67350 0.75751 -0.16249
 C473 C 0.65048 0.78032 -0.16064
 N474 N 0.62888 0.77906 -0.13928
 C475 C 0.60337 0.75603 -0.09679
 N476 N 0.58949 0.78242 -0.08928
 C477 C 0.56648 0.78375 -0.06930
 C478 C 0.55599 0.75738 -0.05573
 C479 C 0.56970 0.72995 -0.06352
 C480 C 0.59324 0.72916 -0.08399
 H481 H 0.69025 0.71607 -0.14013
 H482 H 0.64926 0.79925 -0.17595
 H483 H 0.55641 0.80537 -0.06410
 H484 H 0.56221 0.70901 -0.05385
 H485 H 0.65194 0.71557 -0.10262
 H486 H 0.60289 0.70764 -0.09003
 C487 C 0.37745 0.23299 -0.13689
 C488 C 0.37432 0.20920 -0.15609
 C489 C 0.35186 0.21104 -0.17823
 C490 C 0.33220 0.23663 -0.18170
 C491 C 0.33646 0.26001 -0.16185
 N492 N 0.35861 0.25762 -0.14057
 C493 C 0.40119 0.23265 -0.11330
 N494 N 0.41024 0.25925 -0.10277
 C495 C 0.43187 0.26097 -0.08117
 C496 C 0.44576 0.23478 -0.06863
 C497 C 0.43653 0.20707 -0.07885
 C498 C 0.41427 0.20588 -0.10108
 H499 H 0.35013 0.19205 -0.19226
 H500 H 0.32281 0.28053 -0.16325
 H501 H 0.43812 0.28283 -0.07384
 H502 H 0.44643 0.18629 -0.06962
 H503 H 0.38932 0.18950 -0.15456
 H504 H 0.40716 0.18421 -0.10809
 C505 C 0.35519 0.75703 0.12855
 C506 C 0.33314 0.73498 0.13019
 C507 C 0.31175 0.73541 0.15272
 C508 C 0.31182 0.75788 0.17403
 C509 C 0.33396 0.78015 0.17081
 N510 N 0.35464 0.77910 0.14860
 C511 C 0.37901 0.75681 0.10557
 N512 N 0.39144 0.78308 0.09656
 C513 C 0.41359 0.78431 0.07570
 C514 C 0.42470 0.75794 0.06284
 C515 C 0.41243 0.73064 0.07211
 C516 C 0.38972 0.72996 0.09341
 H517 H 0.29547 0.71776 0.15306
 H518 H 0.33529 0.79840 0.18578
 H519 H 0.42260 0.80583 0.06936
 H520 H 0.42047 0.70970 0.06301
 H521 H 0.33208 0.71762 0.11408
 H522 H 0.38121 0.70850 0.10062
 C523 C 0.63874 0.24879 0.12610
 C524 C 0.65359 0.27518 0.13304
 C525 C 0.67597 0.27445 0.15518
 C526 C 0.68408 0.24748 0.17035
 C527 C 0.66887 0.22153 0.16265
 N528 N 0.64702 0.22282 0.14100
 C529 C 0.61497 0.24810 0.10253
 N530 N 0.60803 0.22126 0.09101
 C531 C 0.58672 0.21876 0.06920
 C532 C 0.57094 0.24436 0.05756
 C533 C 0.57742 0.27219 0.06934
 C534 C 0.59916 0.27415 0.09187
 H535 H 0.68678 0.29511 0.16046
 H536 H 0.67464 0.20016 0.17341
 H537 H 0.58231 0.19682 0.06088
 H538 H 0.56547 0.29247 0.06134
 H539 H 0.64861 0.29620 0.12134
 H540 H 0.60295 0.29585 0.10092
 C541 C -0.13604 0.63113 0.75504
 C542 C -0.15249 0.63532 0.78103
 C543 C -0.17453 0.65853 0.78223
 C544 C -0.18033 0.67808 0.75761
 C545 C -0.16298 0.67296 0.73203
 N546 N -0.14186 0.65003 0.73145
 C547 C -0.11249 0.60667 0.75295
 N548 N -0.10326 0.59054 0.77761
 C549 C -0.08149 0.56815 0.77691
 C550 C -0.06764 0.56076 0.75016
 C551 C -0.07697 0.57696 0.72445
 C552 C -0.09924 0.59991 0.72577
 H553 H -0.18636 0.66120 0.80282
 H554 H -0.16637 0.68653 0.71213
 H555 H -0.07505 0.55621 0.79726
 H556 H -0.06689 0.57209 0.70333
 H557 H -0.14846 0.62078 0.80029
 H558 H -0.10601 0.61217 0.70568
 C559 C -0.12285 0.36764 0.24275
 C560 C -0.14325 0.36512 0.21897
 C561 C -0.16444 0.34247 0.21942
 C562 C -0.16588 0.32197 0.24364
 C563 C -0.14494 0.32561 0.26716
 N564 N -0.12452 0.34799 0.26612
 C565 C -0.10017 0.39160 0.24350
 N566 N -0.08951 0.40050 0.27009
 C567 C -0.06902 0.42264 0.27252
 C568 C -0.05796 0.43727 0.24712
 C569 C -0.06826 0.42810 0.21948
 C570 C -0.08919 0.40529 0.21756
 H571 H -0.17936 0.34135 0.20040
 H572 H -0.14478 0.31119 0.28666
 H573 H -0.06151 0.42882 0.29429
 H574 H -0.06008 0.43848 0.19929
 H575 H -0.14343 0.38076 0.20031
 H576 H -0.09621 0.39829 0.19593
 C577 C 0.13695 0.36997 0.73857
 C578 C 0.14543 0.35591 0.71241
 C579 C 0.16824 0.33341 0.71326
 C580 C 0.18258 0.32446 0.74007
 C581 C 0.17350 0.33905 0.76574
 N582 N 0.15117 0.36096 0.76437
 C583 C 0.11228 0.39352 0.73914
 N584 N 0.09858 0.39949 0.76529
 C585 C 0.07548 0.42039 0.76754
 C586 C 0.06473 0.43674 0.74240
 C587 C 0.07880 0.43127 0.71533
 C588 C 0.10261 0.40993 0.71362
 H589 H 0.17463 0.32306 0.69284
 H590 H 0.18360 0.33263 0.78696
 H591 H 0.06543 0.42403 0.78892
 H592 H 0.07159 0.44367 0.69544
 H593 H 0.13430 0.36153 0.69149
 H594 H 0.11340 0.40686 0.69253
 C595 C 0.12569 0.63613 0.26118
 C596 C 0.12885 0.65534 0.28487
 C597 C 0.15054 0.67760 0.28359
 C598 C 0.16937 0.68115 0.25868
 C599 C 0.16504 0.66136 0.23533
 N600 N 0.14368 0.63996 0.23717
 C601 C 0.10292 0.61227 0.26101
 N602 N 0.09347 0.60188 0.23458
 C603 C 0.07286 0.57987 0.23243
 C604 C 0.06055 0.56670 0.25799
 C605 C 0.07018 0.57682 0.28551
 C606 C 0.09134 0.59951 0.28714
 H607 H 0.15239 0.69162 0.30248
 H608 H 0.17803 0.66286 0.21528
 H609 H 0.06623 0.57265 0.21075
 H610 H 0.06148 0.56713 0.30581
 H611 H 0.11447 0.65369 0.30409
 H612 H 0.09886 0.60639 0.30864
 C613 C 0.73556 -0.12652 0.63638
 C614 C 0.70921 -0.13246 0.65283
 C615 C 0.71073 -0.15407 0.67574
 C616 C 0.73838 -0.16973 0.68253
 C617 C 0.76421 -0.16289 0.66576
 N618 N 0.76216 -0.14180 0.64357
 C619 C 0.73589 -0.10380 0.61182
 N620 N 0.76350 -0.09473 0.60185
 C621 C 0.76619 -0.07426 0.57935
 C622 C 0.73997 -0.06149 0.56526
 C623 C 0.71122 -0.07058 0.57496
 C624 C 0.70905 -0.09175 0.59808
 H625 H 0.69016 -0.15867 0.68791
 H626 H 0.78616 -0.17391 0.67048
 H627 H 0.78885 -0.06801 0.57258
 H628 H 0.69039 -0.06150 0.56455
 H629 H 0.68769 -0.12049 0.64859
 H630 H 0.68658 -0.09872 0.60453
 C631 C 0.24296 -0.12401 0.36764
 C632 C 0.21602 -0.13904 0.36124
 C633 C 0.21640 -0.16113 0.34019
 C634 C 0.24356 -0.16867 0.32553
 C635 C 0.27010 -0.15333 0.33270
 N636 N 0.26918 -0.13181 0.35337
 C637 C 0.24369 -0.10051 0.39003
 N638 N 0.27066 -0.09486 0.40387
 C639 C 0.27275 -0.07410 0.42516
 C640 C 0.24658 -0.05764 0.43371
 C641 C 0.21875 -0.06265 0.41923
 C642 C 0.21723 -0.08384 0.39737
 H643 H 0.19532 -0.17214 0.33526
 H644 H 0.29164 -0.15873 0.32227
 H645 H 0.29473 -0.07077 0.43558
 H646 H 0.19805 -0.05018 0.42476
 H647 H 0.19488 -0.13432 0.37264
 H648 H 0.19556 -0.08673 0.38624
 C649 C 0.76286 0.12700 0.36752
 C650 C 0.79006 0.14151 0.36051
 C651 C 0.78981 0.16370 0.33818
 C652 C 0.76257 0.17176 0.32286
 C653 C 0.73581 0.15703 0.33083
 N654 N 0.73664 0.13545 0.35261
 C655 C 0.76142 0.10327 0.39103
 N656 N 0.73356 0.09629 0.40206
 C657 C 0.73013 0.07488 0.42361
 C658 C 0.75579 0.05892 0.43546
 C659 C 0.78470 0.06542 0.42418
 C660 C 0.78762 0.08739 0.40195
 H661 H 0.81104 0.17428 0.33275
 H662 H 0.71416 0.16284 0.32007
 H663 H 0.70738 0.07054 0.43155
 H664 H 0.80511 0.05346 0.43244
 H665 H 0.81131 0.13631 0.37222
 H666 H 0.81015 0.09133 0.39334
 C667 C 0.24821 0.12491 0.62818
 C668 C 0.22203 0.14234 0.63491
 C669 C 0.22380 0.16401 0.65628
 C670 C 0.25162 0.16886 0.67087
 C671 C 0.27736 0.15116 0.66336
 N672 N 0.27505 0.13004 0.64246
 C673 C 0.24769 0.10174 0.60538
 N674 N 0.27456 0.09235 0.59316
 C675 C 0.27579 0.07163 0.57172
 C676 C 0.24878 0.05924 0.56118
 C677 C 0.22095 0.06815 0.57387
 C678 C 0.22030 0.08910 0.59603
 H679 H 0.20325 0.17684 0.66143
 H680 H 0.29939 0.15439 0.67366
 H681 H 0.29777 0.06522 0.56267
 H682 H 0.19960 0.05880 0.56680
 H683 H 0.20040 0.13989 0.62359
 H684 H 0.19852 0.09485 0.60577
   
