data_POSCAR
  _audit_creation_date              2014-09-24
  _audit_creation_method            'ToBaCCo'
  _symmetry_space_group_name_H-M    'P1'
  _symmetry_Int_Tables_number       1
  _symmetry_cell_setting            triclinic
  loop_
  _symmetry_equiv_pos_as_xyz
 x,y,z
_cell_length_a 19.1464
_cell_length_b 18.9716
_cell_length_c 19.0823
_cell_angle_alpha 96.917900
_cell_angle_beta 80.368400
_cell_angle_gamma 74.072600
loop_
  _atom_site_label
  _atom_site_type_symbol
  _atom_site_fract_x
  _atom_site_fract_y
  _atom_site_fract_z
C1 C 0.56680 0.50951 0.00791
 C2 C 0.51080 0.57241 -0.00211
 C3 C 0.44045 0.56564 -0.00733
 C4 C 0.42355 0.49885 -0.00282
 C5 C 0.48055 0.43555 0.00252
 C6 C 0.55055 0.44178 0.00838
 H7 H 0.59388 0.39207 0.01123
 H8 H 0.39720 0.61396 -0.01336
 C9 C -0.01679 0.43132 0.49954
 C10 C 0.00795 0.47697 0.54768
 C11 C 0.02348 0.54076 0.52761
 C12 C 0.01634 0.56085 0.45984
 C13 C -0.01017 0.51575 0.41234
 C14 C -0.02435 0.45121 0.43205
 H15 H -0.04015 0.41500 0.39330
 H16 H 0.03927 0.57657 0.56676
 C17 C 0.48781 0.00573 0.40862
 C18 C 0.43370 -0.00402 0.46337
 C19 C 0.45036 -0.01239 0.53120
 C20 C 0.51916 -0.00995 0.54711
 C21 C 0.57540 -0.00451 0.49020
 C22 C 0.55792 0.00326 0.42227
 H23 H 0.60028 0.00633 0.37818
 H24 H 0.40682 -0.01634 0.57356
 O25 O 0.46362 -0.00426 -0.11874
 O26 O 0.43254 0.01377 0.07898
 O27 O 0.42859 0.10597 -0.01079
 O28 O 0.46242 -0.09514 -0.02592
 O29 O 0.58207 -0.11244 -0.02946
 O30 O 0.54921 0.08832 -0.02148
 O31 O 0.55212 0.00076 0.07181
 O32 O 0.58409 -0.02443 -0.12615
 Cu33 Cu 0.43473 0.00646 -0.01924
 Cu34 Cu 0.57921 -0.01388 -0.02760
 C35 C 0.52863 -0.01622 -0.15595
 C36 C 0.48750 0.01087 0.10882
 C37 C 0.48347 0.13133 -0.01300
 C38 C 0.52676 -0.13730 -0.02682
 O39 O -0.11411 0.55962 0.99087
 O40 O 0.07951 0.55864 0.97627
 O41 O -0.00586 0.54365 0.88343
 O42 O -0.02973 0.57196 1.08137
 O43 O 0.00807 0.44983 1.07559
 O44 O 0.02980 0.42163 0.87806
 O45 O 0.11536 0.43669 0.97068
 O46 O -0.07935 0.43786 0.98732
 Cu47 Cu -0.02066 0.57066 0.98266
 Cu48 Cu 0.02205 0.42401 0.97649
 C49 C -0.12982 0.49910 0.99288
 C50 C 0.12958 0.49842 0.97518
 C51 C 0.01443 0.47805 0.84745
 C52 C -0.01363 0.51540 1.11183
 O53 O 0.02561 -0.10872 0.40191
 O54 O -0.01699 0.09625 0.43792
 O55 O 0.10532 -0.01399 0.40166
 O56 O -0.09360 0.00185 0.43322
 O57 O -0.09651 -0.00077 0.54910
 O58 O 0.10318 -0.01687 0.51742
 O59 O -0.01736 0.09399 0.55349
 O60 O 0.02500 -0.11050 0.51760
 Cu61 Cu 0.00568 -0.00598 0.40705
 Cu62 Cu 0.00331 -0.00863 0.54599
 C63 C 0.03060 -0.14412 0.45427
 C64 C -0.02310 0.12973 0.50153
 C65 C 0.13756 -0.01611 0.45467
 C66 C -0.12831 0.00090 0.49568
 C67 C -0.32151 0.47938 1.06290
 C68 C -0.35949 0.50955 1.00974
 C69 C -0.32105 0.53665 0.95507
 C70 C -0.24708 0.53302 0.95123
 C71 C -0.20798 0.50052 1.00063
 C72 C -0.24487 0.47363 1.05734
 C73 C -0.35915 0.45934 1.12418
 C74 C -0.32158 0.43082 1.17602
 C75 C -0.24624 0.42270 1.16891
 C76 C -0.20813 0.44418 1.11055
 H77 H -0.41827 0.46725 1.13384
 H78 H -0.35131 0.41568 1.22238
 H79 H -0.21744 0.40101 1.20961
 H80 H -0.15018 0.43889 1.10868
 H81 H -0.34741 0.55823 0.91287
 H82 H -0.21937 0.55410 0.90788
 C83 C 0.28819 0.54769 1.04755
 C84 C 0.35025 0.49775 0.99649
 C85 C 0.33791 0.44819 0.94249
 C86 C 0.26617 0.44954 0.93628
 C87 C 0.20429 0.50059 0.98353
 C88 C 0.21479 0.54913 1.04098
 C89 C 0.29767 0.59266 1.10801
 C90 C 0.23679 0.63919 1.15917
 C91 C 0.16528 0.64126 1.15226
 C92 C 0.15414 0.59660 1.09430
 H93 H 0.35210 0.59083 1.11776
 H94 H 0.24522 0.67295 1.20506
 H95 H 0.11813 0.67671 1.19275
 H96 H 0.09752 0.59872 1.09342
 H97 H 0.38409 0.41008 0.90271
 H98 H 0.25883 0.41126 0.89317
 C99 C 0.09392 -0.35247 0.46076
 C100 C 0.03079 -0.37221 0.44450
 C101 C -0.02334 -0.31907 0.42104
 C102 C -0.01938 -0.24692 0.41979
 C103 C 0.03802 -0.22457 0.44300
 C104 C 0.09646 -0.27785 0.46163
 C105 C 0.15608 -0.40605 0.47346
 C106 C 0.21664 -0.38582 0.49085
 C107 C 0.21746 -0.31237 0.49455
 C108 C 0.15832 -0.25880 0.47960
 H109 H 0.15910 -0.46425 0.46866
 H110 H 0.26347 -0.42754 0.50091
 H111 H 0.26478 -0.29708 0.50777
 H112 H 0.16220 -0.20285 0.48074
 H113 H -0.07291 -0.33072 0.40975
 H114 H -0.06465 -0.20657 0.40558
 C115 C -0.09289 0.33944 0.50229
 C116 C -0.02890 0.35935 0.51454
 C117 C 0.02923 0.30580 0.53210
 C118 C 0.02690 0.23316 0.53338
 C119 C -0.03185 0.21048 0.51375
 C120 C -0.09343 0.26407 0.50001
 C121 C -0.15646 0.39282 0.49218
 C122 C -0.21773 0.37204 0.47759
 C123 C -0.21733 0.29814 0.47355
 C124 C -0.15600 0.24450 0.48493
 H125 H -0.15975 0.45107 0.49642
 H126 H -0.26593 0.41359 0.46967
 H127 H -0.26515 0.28245 0.46238
 H128 H -0.15843 0.18799 0.48297
 H129 H 0.07899 0.31886 0.54091
 H130 H 0.07398 0.19294 0.54498
 C131 C 0.55355 0.04191 -0.34082
 C132 C 0.52720 -0.01053 -0.38026
 C133 C 0.50529 -0.06431 -0.34467
 C134 C 0.50934 -0.06720 -0.27308
 C135 C 0.53819 -0.01855 -0.23466
 C136 C 0.56383 0.03445 -0.26939
 C137 C 0.56357 0.10550 -0.36770
 C138 C 0.59344 0.15381 -0.33041
 C139 C 0.61102 0.14167 -0.26424
 C140 C 0.59520 0.08345 -0.23323
 H141 H 0.54733 0.11921 -0.41714
 H142 H 0.60260 0.20109 -0.35281
 H143 H 0.63478 0.17899 -0.23570
 H144 H 0.60753 0.07765 -0.18073
 H145 H 0.48485 -0.10510 -0.37271
 H146 H 0.48911 -0.10764 -0.24708
 C147 C 0.48819 0.07765 0.30477
 C148 C 0.47509 0.01651 0.33540
 C149 C 0.45822 -0.03955 0.29286
 C150 C 0.45808 -0.03800 0.22014
 C151 C 0.47698 0.01837 0.18762
 C152 C 0.49062 0.07768 0.22991
 C153 C 0.49920 0.13873 0.34690
 C154 C 0.51346 0.19747 0.31565
 C155 C 0.51732 0.19659 0.24209
 C156 C 0.50630 0.13728 0.19938
 H157 H 0.49597 0.14223 0.40440
 H158 H 0.52156 0.24389 0.34870
 H159 H 0.52851 0.24227 0.21803
 H160 H 0.50947 0.13895 0.14255
 H161 H 0.44855 -0.08673 0.31518
 H162 H 0.44723 -0.08342 0.18806
 C163 C 0.54462 -0.31674 0.04826
 C164 C 0.52131 -0.35741 -0.00629
 C165 C 0.50498 -0.32569 -0.06672
 C166 C 0.51149 -0.25601 -0.07426
 C167 C 0.53531 -0.21562 -0.02218
 C168 C 0.55372 -0.24608 0.03906
 C169 C 0.55310 -0.34144 0.11424
 C170 C 0.57600 -0.30090 0.16696
 C171 C 0.58836 -0.23373 0.15637
 C172 C 0.57648 -0.20589 0.09362
 H173 H 0.54059 -0.39130 0.12649
 H174 H 0.58319 -0.32124 0.21671
 H175 H 0.60550 -0.20211 0.19776
 H176 H 0.58448 -0.15235 0.08898
 H177 H 0.48691 -0.35540 -0.10890
 H178 H 0.49612 -0.23253 -0.12055
 C179 C 0.42838 0.34017 0.05777
 C180 C 0.47116 0.36077 0.00020
 C181 C 0.51213 0.30744 -0.06023
 C182 C 0.51330 0.23397 -0.06369
 C183 C 0.47223 0.21157 -0.00784
 C184 C 0.42760 0.26486 0.05304
 C185 C 0.38870 0.39189 0.12086
 C186 C 0.34692 0.37058 0.17696
 C187 C 0.34488 0.29737 0.17178
 C188 C 0.38504 0.24472 0.11070
 H189 H 0.39018 0.44880 0.12763
 H190 H 0.31638 0.41096 0.22489
 H191 H 0.31275 0.28106 0.21573
 H192 H 0.38299 0.18825 0.10970
 H193 H 0.54544 0.32258 -0.10429
 H194 H 0.54778 0.19392 -0.11001
 C195 C -0.30283 -0.06315 0.52353
 C196 C -0.35160 -0.00581 0.49739
 C197 C -0.32517 0.05148 0.47374
 C198 C -0.25430 0.05431 0.47738
 C199 C -0.20613 -0.00006 0.50437
 C200 C -0.23001 -0.05944 0.52816
 C201 C -0.32172 -0.12754 0.53861
 C202 C -0.27270 -0.18415 0.56221
 C203 C -0.20307 -0.17913 0.56929
 C204 C -0.18140 -0.11797 0.55181
 H205 H -0.37349 -0.13599 0.53034
 H206 H -0.28839 -0.23282 0.57390
 H207 H -0.16491 -0.22374 0.58681
 H208 H -0.12578 -0.11810 0.55577
 H209 H -0.36057 0.09581 0.45319
 H210 H -0.23637 0.09909 0.45767
 C211 C 0.30539 0.05672 0.43915
 C212 C 0.35885 -0.00565 0.45275
 C213 C 0.33955 -0.07071 0.46150
 C214 C 0.26833 -0.07424 0.45903
 C215 C 0.21491 -0.01383 0.44499
 C216 C 0.23386 0.05149 0.43232
 C217 C 0.32010 0.12525 0.43539
 C218 C 0.26787 0.18545 0.42001
 C219 C 0.19953 0.17911 0.40956
 C220 C 0.18214 0.11319 0.41634
 H221 H 0.37148 0.13328 0.44529
 H222 H 0.28035 0.23739 0.41655
 H223 H 0.15917 0.22602 0.39757
 H224 H 0.12777 0.11142 0.40943
 H225 H 0.37950 -0.11852 0.47270
 H226 H 0.25434 -0.12412 0.46950
 C227 C -0.08407 0.54826 1.31582
 C228 C -0.01506 0.52765 1.33774
 C229 C 0.05125 0.50866 1.28615
 C230 C 0.05024 0.50655 1.21322
 C231 C -0.01708 0.52534 1.19005
 C232 C -0.08504 0.54836 1.24136
 C233 C -0.15215 0.56857 1.36639
 C234 C -0.21955 0.58874 1.34402
 C235 C -0.22044 0.58928 1.27124
 C236 C -0.15393 0.56942 1.22020
 H237 H -0.15376 0.56962 1.42349
 H238 H -0.27135 0.60428 1.38337
 H239 H -0.27292 0.60505 1.25421
 H240 H -0.15696 0.57069 1.16424
 H241 H 0.10424 0.49190 1.30220
 H242 H 0.10255 0.48857 1.17427
 C243 C 0.08339 0.44609 0.64324
 C244 C 0.01412 0.46347 0.62161
 C245 C -0.05163 0.47921 0.67340
 C246 C -0.04999 0.48179 0.74631
 C247 C 0.01747 0.46781 0.76928
 C248 C 0.08506 0.44812 0.71779
 C249 C 0.15104 0.42725 0.59228
 C250 C 0.21868 0.41134 0.61441
 C251 C 0.22023 0.41399 0.68739
 C252 C 0.15416 0.43229 0.73886
 H253 H 0.15217 0.42394 0.53506
 H254 H 0.27015 0.39685 0.57472
 H255 H 0.27290 0.40176 0.70421
 H256 H 0.15765 0.43392 0.79504
 H257 H -0.10486 0.49321 0.65756
 H258 H -0.10200 0.49670 0.78544
   
