data_POSCAR
  _audit_creation_date              2014-09-24
  _audit_creation_method            'ToBaCCo'
  _symmetry_space_group_name_H-M    'P1'
  _symmetry_Int_Tables_number       1
  _symmetry_cell_setting            triclinic
  loop_
  _symmetry_equiv_pos_as_xyz
 x,y,z
_cell_length_a 17.2801
_cell_length_b 17.9749
_cell_length_c 16.6618
_cell_angle_alpha 92.847900
_cell_angle_beta 89.375500
_cell_angle_gamma 91.406200
loop_
  _atom_site_label
  _atom_site_type_symbol
  _atom_site_fract_x
  _atom_site_fract_y
  _atom_site_fract_z
N1 N 0.37188 0.34231 1.33756
 N2 N 1.13569 0.63862 0.88404
 N3 N 0.63768 -0.14692 0.14861
 N4 N -0.15062 1.17193 -0.33636
 N5 N 0.66304 0.66748 0.62207
 N6 N 0.83785 0.34383 0.13438
 N7 N 0.37096 0.13620 0.90390
 N8 N 0.12799 0.85036 0.36431
 Zn9 Zn 0.07636 0.93975 0.02769
 Zn10 Zn 0.02769 1.07999 -0.04451
 Zn11 Zn -0.06565 0.93916 -0.06812
 Zn12 Zn -0.06077 1.02006 0.09383
 O13 O -0.00556 0.99515 0.00250
 O14 O 0.16640 0.98005 -0.00364
 O15 O -0.01563 1.08951 -0.14135
 O16 O -0.02586 0.85218 -0.10123
 O17 O 0.13130 1.08449 -0.05721
 O18 O 0.07416 0.84905 -0.02035
 O19 O -0.08703 0.98583 -0.15543
 O20 O -0.15395 0.97357 0.09379
 O21 O -0.00044 1.16312 0.01117
 O22 O -0.15653 0.91523 -0.02653
 O23 O -0.07756 1.11904 0.10580
 O24 O -0.01385 0.99274 0.18413
 O25 O 0.08343 0.92710 0.13292
 C26 C 0.18314 1.03948 -0.03854
 C27 C -0.06480 1.04828 -0.17991
 C28 C 0.03140 0.81886 -0.07475
 C29 C -0.18738 0.93081 0.04108
 C30 C -0.04799 1.17342 0.06900
 C31 C 0.04437 0.95210 0.19288
 Zn32 Zn 0.48562 -0.08762 0.46854
 Zn33 Zn 0.53476 0.07268 0.45150
 Zn34 Zn 0.38502 0.03451 0.53050
 Zn35 Zn 0.53499 0.00578 0.61202
 O36 O 0.48535 0.00635 0.51572
 O37 O 0.53342 -0.08944 0.37365
 O38 O 0.47560 0.14910 0.42712
 O39 O 0.31560 -0.03040 0.48610
 O40 O 0.56554 0.02920 0.35821
 O41 O 0.39026 -0.12364 0.44591
 O42 O 0.36525 0.12133 0.48822
 O43 O 0.47288 0.03472 0.69408
 O44 O 0.62046 0.11425 0.49623
 O45 O 0.36028 0.04762 0.63405
 O46 O 0.62072 0.06563 0.61579
 O47 O 0.56738 -0.08508 0.63485
 O48 O 0.53305 -0.15468 0.52721
 C49 C 0.56299 -0.03839 0.33238
 C50 C 0.40623 0.16433 0.44631
 C51 C 0.32421 -0.09450 0.45236
 C52 C 0.40119 0.04921 0.69682
 C53 C 0.65136 0.10738 0.56408
 C54 C 0.56486 -0.14748 0.59568
 Zn55 Zn 1.04656 0.40332 0.45385
 Zn56 Zn 1.10491 0.55380 0.50178
 Zn57 Zn 0.94389 0.53546 0.43322
 Zn58 Zn 0.97963 0.48301 0.59652
 O59 O 1.01828 0.49429 0.49581
 O60 O 1.14749 0.39690 0.42850
 O61 O 1.09368 0.63579 0.44893
 O62 O 0.91804 0.47324 0.34687
 O63 O 1.19054 0.51106 0.46060
 O64 O 0.99802 0.38049 0.36344
 O65 O 0.97797 0.62246 0.39316
 O66 O 0.88825 0.52320 0.61064
 O67 O 1.12859 0.58402 0.60229
 O68 O 0.85585 0.55984 0.49089
 O69 O 1.03843 0.52726 0.67404
 O70 O 0.96298 0.38785 0.61873
 O71 O 1.02011 0.32796 0.51591
 C72 C 1.20197 0.44559 0.43187
 C73 C 1.04060 0.65967 0.40565
 C74 C 0.94614 0.41053 0.32401
 C75 C 0.84131 0.55360 0.56558
 C76 C 1.09797 0.56974 0.66939
 C77 C 0.98118 0.32784 0.58079
 Zn78 Zn 0.46789 0.47534 0.87683
 Zn79 Zn 0.59441 0.55956 0.96321
 Zn80 Zn 0.43337 0.55743 1.03423
 Zn81 Zn 0.52467 0.42085 1.02997
 O82 O 0.50526 0.50370 0.97606
 O83 O 0.52354 0.51176 0.79590
 O84 O 0.58948 0.64773 1.01817
 O85 O 0.34842 0.57023 0.97760
 O86 O 0.61485 0.58013 0.85863
 O87 O 0.37220 0.50643 0.86314
 O88 O 0.46976 0.64769 1.06748
 O89 O 0.47413 0.41630 1.12350
 O90 O 0.67801 0.51475 1.00229
 O91 O 0.39996 0.51444 1.12426
 O92 O 0.62410 0.41323 1.05153
 O93 O 0.49585 0.33692 0.97649
 O94 O 0.45993 0.37682 0.85939
 C95 C 0.58134 0.55650 0.79416
 C96 C 0.53587 0.67883 1.05950
 C97 C 0.32799 0.54561 0.90808
 C98 C 0.42191 0.45610 1.15624
 C99 C 0.68314 0.45431 1.03839
 C100 C 0.46925 0.32469 0.90645
 C101 C 1.29438 0.36206 0.36164
 C102 C 1.28013 0.42666 0.40176
 H103 H 1.24806 0.32101 0.35174
 H104 H 1.32721 0.46673 0.41244
 C105 C 0.20895 0.61598 0.91394
 C106 C 0.25126 0.56235 0.87819
 H107 H 0.23232 0.64604 0.96668
 H108 H 0.23118 0.53125 0.82496
 C109 C -0.29130 0.89304 0.13198
 C110 C -0.26304 0.89640 0.05755
 H111 H -0.26000 0.92071 0.18150
 H112 H -0.29416 0.86929 0.00767
 C113 C 0.76786 0.13189 0.64391
 C114 C 0.72473 0.14840 0.58172
 H115 H 0.80955 0.15456 0.65206
 H116 H 0.74509 0.18994 0.54087
 C117 C 0.40689 0.27719 0.36783
 C118 C 0.37102 0.23255 0.41942
 H119 H 0.46441 0.26283 0.34657
 H120 H 0.31341 0.24473 0.44163
 C121 C 0.87972 0.24631 0.63257
 C122 C 0.95398 0.25659 0.61100
 H123 H 0.83876 0.29000 0.62460
 H124 H 0.99322 0.21050 0.61003
 C125 C 0.10333 0.70371 -0.07628
 C126 C 0.04997 0.74470 -0.10972
 H127 H 0.12869 0.72427 -0.01992
 H128 H 0.02284 0.72604 -0.16567
 C129 C 0.62146 0.78329 1.10488
 C130 C 0.55043 0.75201 1.10103
 H131 H 0.66881 0.75560 1.07349
 H132 H 0.50224 0.77946 1.13100
 C133 C 0.41208 0.37665 1.27190
 C134 C 0.38385 0.43234 1.23096
 H135 H 0.46667 0.35331 1.25182
 H136 H 0.33048 0.45858 1.24958
 C137 C 0.59617 -0.12759 0.22168
 C138 C 0.59666 -0.05755 0.25325
 H139 H 0.56564 -0.17129 0.25262
 H140 H 0.62450 -0.01311 0.22115
 C141 C -0.09546 1.14354 -0.27448
 C142 C -0.10196 1.07361 -0.25196
 H143 H -0.05451 1.18208 -0.24473
 H144 H -0.14292 1.03565 -0.28237
 C145 C 1.09932 0.60224 0.81489
 C146 C 1.13292 0.60448 0.74242
 H147 H 1.04207 0.57729 0.82163
 H148 H 1.18784 0.63425 0.73650
 C149 C 0.72257 0.63043 0.57401
 C150 C 0.77052 0.58239 0.60533
 H151 H 0.73293 0.64673 0.51297
 H152 H 0.76240 0.56812 0.66724
 C153 C 0.76800 0.36420 1.09622
 C154 C 0.75848 0.43234 1.06901
 H155 H 0.72214 0.32226 1.08846
 H156 H 0.80588 0.47293 1.07155
 C157 C 0.29261 1.12316 -0.06952
 C158 C 0.26462 1.05438 -0.05960
 H159 H 0.25618 1.17057 -0.05618
 H160 H 0.30288 1.00760 -0.06674
 C161 C 0.19073 -0.10528 0.39933
 C162 C 0.25705 -0.13691 0.41922
 H163 H 0.18589 -0.04524 0.40461
 H164 H 0.26416 -0.19602 0.40628
 C165 C 0.62403 -0.27180 0.58740
 C166 C 0.60018 -0.21201 0.63156
 H167 H 0.61832 -0.27248 0.52263
 H168 H 0.61115 -0.20772 0.69545
 C169 C 1.10888 0.77963 0.39778
 C170 C 1.05284 0.73252 0.36975
 H171 H 1.14078 0.76451 0.44997
 H172 H 1.01592 0.74729 0.32123
 C173 C -0.13955 1.26743 0.12167
 C174 C -0.06966 1.25065 0.09160
 H175 H -0.18246 1.22335 0.12976
 H176 H -0.02983 1.29555 0.07688
 C177 C 0.40908 0.20415 0.93174
 C178 C 0.44427 0.24922 0.88031
 H179 H 0.40083 0.22325 0.99396
 H180 H 0.44494 0.23431 0.81651
 C181 C 0.64344 0.64592 0.70256
 C182 C 0.60833 0.58010 0.71450
 H183 H 0.65389 0.68499 0.75308
 H184 H 0.59372 0.54413 0.66246
 C185 C 0.40516 0.09277 0.83853
 C186 C 0.36409 0.07235 0.77330
 H187 H 0.46762 0.08840 0.83672
 H188 H 0.30246 0.08203 0.77290
 C189 C 0.10087 0.86831 0.28657
 C190 C 0.06732 0.93308 0.27421
 H191 H 0.10725 0.82735 0.23709
 H192 H 0.05521 0.97153 0.32464
 C193 C 0.86817 0.39177 0.19970
 C194 C 0.91918 0.36779 0.25166
 H195 H 0.84535 0.44709 0.20995
 H196 H 0.94195 0.31244 0.24278
   
