data_POSCAR
  _audit_creation_date              2014-09-24
  _audit_creation_method            'ToBaCCo'
  _symmetry_space_group_name_H-M    'P1'
  _symmetry_Int_Tables_number       1
  _symmetry_cell_setting            triclinic
  loop_
  _symmetry_equiv_pos_as_xyz
 x,y,z
_cell_length_a 20.3209
_cell_length_b 20.3209
_cell_length_c 20.3209
_cell_angle_alpha 90.000000
_cell_angle_beta 90.000000
_cell_angle_gamma 90.000000
loop_
  _atom_site_label
  _atom_site_type_symbol
  _atom_site_fract_x
  _atom_site_fract_y
  _atom_site_fract_z
Si1 Si 0.00003 0.49998 0.25012
 Si2 Si 0.00003 0.49998 0.75012
 Si3 Si 0.25003 -0.00002 0.50012
 Si4 Si 0.75003 -0.00002 0.50012
 Si5 Si 0.50003 0.24998 1.00012
 Si6 Si 0.50003 0.74998 1.00012
 B7 B 1.00003 1.06709 0.04155
 B8 B 1.00003 1.06709 -0.04131
 B9 B 1.06714 1.04142 0.00012
 B10 B 1.04146 0.99998 0.06723
 B11 B 0.95859 0.99998 0.06723
 B12 B 0.93292 1.04142 0.00012
 B13 B 1.00003 0.93287 -0.04131
 B14 B 1.00003 0.93287 0.04155
 B15 B 0.93292 0.95855 0.00012
 B16 B 0.95859 0.99998 -0.06699
 B17 B 1.04146 0.99998 -0.06699
 B18 B 1.06714 0.95855 0.00012
 B19 B 0.56714 0.49998 0.45869
 B20 B 0.50003 0.54142 0.43301
 B21 B 0.50003 0.45855 0.43301
 B22 B 0.54146 0.43287 0.50012
 B23 B 0.56714 0.49998 0.54155
 B24 B 0.54146 0.56709 0.50012
 B25 B 0.43292 0.49998 0.54155
 B26 B 0.50003 0.45855 0.56723
 B27 B 0.50003 0.54142 0.56723
 B28 B 0.45859 0.56709 0.50012
 B29 B 0.43292 0.49998 0.45869
 B30 B 0.45859 0.43287 0.50012
 C31 C 1.00003 1.42466 0.20227
 C32 C 1.00003 1.37142 0.17618
 C33 C 1.00003 1.30737 0.14931
 C34 C 1.00003 1.25215 0.12772
 C35 C 1.00003 1.18760 0.10215
 C36 C 1.00003 1.13343 0.07813
 C37 C 1.00003 0.57531 0.20227
 C38 C 1.00003 0.62855 0.17618
 C39 C 1.00003 0.69259 0.14931
 C40 C 1.00003 0.74782 0.12772
 C41 C 1.00003 0.81236 0.10215
 C42 C 1.00003 0.86654 0.07813
 C43 C 1.00003 1.42466 -0.20203
 C44 C 1.00003 1.37142 -0.17594
 C45 C 1.00003 1.30737 -0.14907
 C46 C 1.00003 1.25215 -0.12748
 C47 C 1.00003 1.18760 -0.10191
 C48 C 1.00003 1.13343 -0.07789
 C49 C 1.00003 0.57531 -0.20203
 C50 C 1.00003 0.62855 -0.17594
 C51 C 1.00003 0.69259 -0.14907
 C52 C 1.00003 0.74782 -0.12748
 C53 C 1.00003 0.81236 -0.10191
 C54 C 1.00003 0.86654 -0.07789
 C55 C 1.20217 0.99998 0.42479
 C56 C 1.17609 0.99998 0.37156
 C57 C 1.14922 0.99998 0.30751
 C58 C 1.12763 0.99998 0.25228
 C59 C 1.10206 0.99998 0.18774
 C60 C 1.07804 0.99998 0.13356
 C61 C 1.20217 0.99998 -0.42455
 C62 C 1.17609 0.99998 -0.37131
 C63 C 1.14922 0.99998 -0.30727
 C64 C 1.12763 0.99998 -0.25204
 C65 C 1.10206 0.99998 -0.18750
 C66 C 1.07804 0.99998 -0.13332
 C67 C 0.79788 0.99998 0.42479
 C68 C 0.82397 0.99998 0.37156
 C69 C 0.85084 0.99998 0.30751
 C70 C 0.87243 0.99998 0.25228
 C71 C 0.89800 0.99998 0.18774
 C72 C 0.92201 0.99998 0.13356
 C73 C 0.79788 0.99998 -0.42455
 C74 C 0.82397 0.99998 -0.37131
 C75 C 0.85084 0.99998 -0.30727
 C76 C 0.87243 0.99998 -0.25204
 C77 C 0.89800 0.99998 -0.18750
 C78 C 0.92201 0.99998 -0.13332
 C79 C 1.42470 1.20213 0.00012
 C80 C 1.37146 1.17604 0.00012
 C81 C 1.30742 1.14917 0.00012
 C82 C 1.25219 1.12758 0.00012
 C83 C 1.18765 1.10201 0.00012
 C84 C 1.13347 1.07800 0.00012
 C85 C 0.57535 1.20213 0.00012
 C86 C 0.62859 1.17604 0.00012
 C87 C 0.69264 1.14917 0.00012
 C88 C 0.74787 1.12758 0.00012
 C89 C 0.81241 1.10201 0.00012
 C90 C 0.86659 1.07800 0.00012
 C91 C 1.42470 0.79784 0.00012
 C92 C 1.37146 0.82392 0.00012
 C93 C 1.30742 0.85079 0.00012
 C94 C 1.25219 0.87238 0.00012
 C95 C 1.18765 0.89796 0.00012
 C96 C 1.13347 0.92197 0.00012
 C97 C 0.57535 0.79784 0.00012
 C98 C 0.62859 0.82392 0.00012
 C99 C 0.69264 0.85079 0.00012
 C100 C 0.74787 0.87238 0.00012
 C101 C 0.81241 0.89796 0.00012
 C102 C 0.86659 0.92197 0.00012
 C103 C 0.92470 0.49998 0.29797
 C104 C 0.87146 0.49998 0.32406
 C105 C 0.80742 0.49998 0.35093
 C106 C 0.75219 0.49998 0.37252
 C107 C 0.68765 0.49998 0.39809
 C108 C 0.63347 0.49998 0.42211
 C109 C 0.07535 0.49998 0.29797
 C110 C 0.12859 0.49998 0.32406
 C111 C 0.19264 0.49998 0.35093
 C112 C 0.24787 0.49998 0.37252
 C113 C 0.31241 0.49998 0.39809
 C114 C 0.36659 0.49998 0.42211
 C115 C 0.92470 0.49998 0.70227
 C116 C 0.87146 0.49998 0.67618
 C117 C 0.80742 0.49998 0.64931
 C118 C 0.75219 0.49998 0.62772
 C119 C 0.68765 0.49998 0.60215
 C120 C 0.63347 0.49998 0.57813
 C121 C 0.07535 0.49998 0.70227
 C122 C 0.12859 0.49998 0.67618
 C123 C 0.19264 0.49998 0.64931
 C124 C 0.24787 0.49998 0.62772
 C125 C 0.31241 0.49998 0.60215
 C126 C 0.36659 0.49998 0.57813
 C127 C 0.50003 0.70213 0.07545
 C128 C 0.50003 0.67604 0.12869
 C129 C 0.50003 0.64917 0.19273
 C130 C 0.50003 0.62758 0.24796
 C131 C 0.50003 0.60201 0.31250
 C132 C 0.50003 0.57800 0.36668
 C133 C 0.50003 0.70213 0.92479
 C134 C 0.50003 0.67604 0.87156
 C135 C 0.50003 0.64917 0.80751
 C136 C 0.50003 0.62758 0.75228
 C137 C 0.50003 0.60201 0.68774
 C138 C 0.50003 0.57800 0.63356
 C139 C 0.50003 0.29784 0.07545
 C140 C 0.50003 0.32392 0.12869
 C141 C 0.50003 0.35079 0.19273
 C142 C 0.50003 0.37238 0.24796
 C143 C 0.50003 0.39796 0.31250
 C144 C 0.50003 0.42197 0.36668
 C145 C 0.50003 0.29784 0.92479
 C146 C 0.50003 0.32392 0.87156
 C147 C 0.50003 0.35079 0.80751
 C148 C 0.50003 0.37238 0.75228
 C149 C 0.50003 0.39796 0.68774
 C150 C 0.50003 0.42197 0.63356
 C151 C 0.70217 0.92466 0.50012
 C152 C 0.67609 0.87142 0.50012
 C153 C 0.64922 0.80737 0.50012
 C154 C 0.62763 0.75215 0.50012
 C155 C 0.60206 0.68760 0.50012
 C156 C 0.57804 0.63343 0.50012
 C157 C 0.70217 0.07531 0.50012
 C158 C 0.67609 0.12855 0.50012
 C159 C 0.64922 0.19259 0.50012
 C160 C 0.62763 0.24782 0.50012
 C161 C 0.60206 0.31236 0.50012
 C162 C 0.57804 0.36654 0.50012
 C163 C 0.29788 0.92466 0.50012
 C164 C 0.32397 0.87142 0.50012
 C165 C 0.35084 0.80737 0.50012
 C166 C 0.37243 0.75215 0.50012
 C167 C 0.39800 0.68760 0.50012
 C168 C 0.42201 0.63343 0.50012
 C169 C 0.29788 0.07531 0.50012
 C170 C 0.32397 0.12855 0.50012
 C171 C 0.35084 0.19259 0.50012
 C172 C 0.37243 0.24782 0.50012
 C173 C 0.39800 0.31236 0.50012
 C174 C 0.42201 0.36654 0.50012
   
