data_POSCAR
  _audit_creation_date              2014-09-24
  _audit_creation_method            'ToBaCCo'
  _symmetry_space_group_name_H-M    'P1'
  _symmetry_Int_Tables_number       1
  _symmetry_cell_setting            triclinic
  loop_
  _symmetry_equiv_pos_as_xyz
 x,y,z
_cell_length_a 32.2032
_cell_length_b 32.0639
_cell_length_c 31.9345
_cell_angle_alpha 86.953300
_cell_angle_beta 89.827100
_cell_angle_gamma 105.581400
loop_
  _atom_site_label
  _atom_site_type_symbol
  _atom_site_fract_x
  _atom_site_fract_y
  _atom_site_fract_z
C1 C 0.52895 0.36131 0.01880
 C2 C 0.56507 0.39559 0.01746
 C3 C 0.55137 0.43318 0.01309
 N4 N 0.50789 0.42224 0.00958
 C5 C 0.49411 0.37843 0.01321
 C6 C 0.57829 0.47634 0.00662
 C7 C 0.56014 0.51094 -0.00468
 C8 C 0.58057 0.54854 -0.02832
 C9 C 0.55431 0.57586 -0.02707
 C10 C 0.51865 0.55460 -0.00229
 N11 N 0.52218 0.51479 0.01065
 C12 C 0.48535 0.57280 0.01023
 C13 C 0.44621 0.54594 0.02766
 C14 C 0.41858 0.55833 0.05486
 C15 C 0.38316 0.52342 0.06106
 C16 C 0.39072 0.49079 0.03796
 N17 N 0.42941 0.50439 0.01795
 C18 C 0.36116 0.45026 0.03265
 C19 C 0.37485 0.41468 0.01967
 C20 C 0.34811 0.37708 0.00500
 C21 C 0.37366 0.34989 -0.00185
 C22 C 0.41530 0.37159 0.00898
 N23 N 0.41570 0.41108 0.02210
 C24 C 0.45087 0.35366 0.00875
 H25 H 0.52887 0.32756 0.02225
 H26 H 0.59742 0.39199 0.01691
 H27 H 0.44123 0.43255 0.03616
 H28 H 0.61110 0.55586 -0.04512
 H29 H 0.56107 0.60785 -0.04259
 H30 H 0.42350 0.58919 0.06898
 H31 H 0.35518 0.52210 0.08047
 H32 H 0.36269 0.31767 -0.01331
 H33 H 0.50256 0.49373 0.03311
 H34 H 0.31378 0.36989 -0.00021
 C35 C 0.03878 0.61109 0.63270
 C36 C 0.03701 0.64291 0.60296
 C37 C 0.02202 0.62230 0.56662
 N38 N 0.01521 0.57888 0.57329
 C39 C 0.02571 0.57199 0.61360
 C40 C 0.01297 0.64304 0.52866
 C41 C 0.00149 0.61937 0.49214
 C42 C -0.02416 0.62926 0.46029
 C43 C -0.02519 0.60040 0.42982
 C44 C -0.00116 0.57285 0.44427
 N45 N 0.01464 0.58423 0.48250
 C46 C 0.00743 0.53979 0.42104
 C47 C 0.02030 0.50453 0.43998
 C48 C 0.03425 0.47411 0.41872
 C49 C 0.03794 0.44260 0.44806
 C50 C 0.02751 0.45544 0.48664
 N51 N 0.01646 0.49319 0.48143
 C52 C 0.02419 0.43084 0.52526
 C53 C 0.01721 0.44731 0.56423
 C54 C 0.00795 0.42263 0.60177
 C55 C 0.00707 0.45069 0.63255
 C56 C 0.01541 0.49197 0.61316
 N57 N 0.02212 0.48960 0.57158
 C58 C 0.02075 0.53081 0.63436
 H59 H 0.04873 0.61641 0.66475
 H60 H 0.04598 0.67723 0.60798
 H61 H 0.03415 0.51584 0.55043
 H62 H -0.04081 0.65444 0.45915
 H63 H -0.04214 0.59949 0.40052
 H64 H 0.04032 0.47393 0.38541
 H65 H 0.04655 0.41340 0.44105
 H66 H 0.00230 0.44141 0.66560
 H67 H 0.03700 0.57179 0.49890
 H68 H 0.00360 0.38809 0.60694
 C69 C 0.43026 0.03014 0.54856
 C70 C 0.45927 0.02839 0.57945
 C71 C 0.49074 0.01201 0.56206
 N72 N 0.48270 0.00546 0.52105
 C73 C 0.44586 0.01671 0.51262
 C74 C 0.52544 0.00178 0.58374
 C75 C 0.56222 -0.00308 0.56193
 C76 C 0.59179 -0.02348 0.57893
 C77 C 0.62385 -0.01900 0.54939
 C78 C 0.61320 0.00388 0.51482
 N79 N 0.57525 0.01307 0.52250
 C80 C 0.63947 0.01728 0.47819
 C81 C 0.62149 0.02687 0.43953
 C82 C 0.64397 0.04982 0.40467
 C83 C 0.61451 0.04837 0.37344
 C84 C 0.57471 0.02621 0.39069
 N85 N 0.57902 0.01305 0.43100
 C86 C 0.53563 0.01583 0.36873
 C87 C 0.49474 0.00571 0.38929
 C88 C 0.45522 -0.00645 0.36964
 C89 C 0.42399 -0.00771 0.39939
 C90 C 0.44502 0.00400 0.43654
 N91 N 0.48807 0.01221 0.43005
 C92 C 0.42482 0.01168 0.47367
 H93 H 0.40120 0.04027 0.55265
 H94 H 0.45729 0.03850 0.61099
 H95 H 0.51164 0.02689 0.45075
 H96 H 0.59042 -0.04028 0.60941
 H97 H 0.65164 -0.03171 0.55292
 H98 H 0.67788 0.06662 0.40190
 H99 H 0.62160 0.06291 0.34198
 H100 H 0.38979 -0.01464 0.39360
 H101 H 0.56162 0.03325 0.50369
 H102 H 0.44900 -0.01174 0.33686
 O103 O 0.42730 -0.04168 -0.07556
 O104 O 0.43439 -0.04202 0.03968
 O105 O 0.43596 0.01694 -0.02039
 O106 O 0.42439 -0.10024 -0.01554
 O107 O 0.49522 -0.08789 -0.01902
 O108 O 0.50662 0.02977 -0.02721
 O109 O 0.50534 -0.02712 0.03451
 O110 O 0.49795 -0.03021 -0.08035
 Cu111 Cu 0.42341 -0.04292 -0.01740
 Cu112 Cu 0.50842 -0.02766 -0.02345
 C113 C 0.46147 -0.03609 -0.09755
 C114 C 0.47107 -0.03438 0.05666
 C115 C 0.47313 0.04331 -0.02506
 C116 C 0.45774 -0.11405 -0.01628
 O117 O -0.08275 0.50092 1.02979
 O118 O 0.03437 0.51417 1.02806
 O119 O -0.02427 0.50672 0.97140
 O120 O -0.02382 0.50813 1.08659
 O121 O -0.03483 0.43698 1.09126
 O122 O -0.03741 0.43536 0.97610
 O123 O 0.02289 0.44297 1.03233
 O124 O -0.09423 0.42975 1.03590
 Cu125 Cu -0.02298 0.51465 1.02847
 Cu126 Cu -0.03693 0.42910 1.03422
 C127 C -0.10839 0.46308 1.03362
 C128 C 0.04856 0.48085 1.02983
 C129 C -0.03102 0.47076 0.95416
 C130 C -0.02934 0.47276 1.10852
 O131 O 0.03975 -0.00896 0.43005
 O132 O 0.05684 0.10925 0.43430
 O133 O 0.10563 0.05605 0.44048
 O134 O -0.00979 0.04329 0.42244
 O135 O -0.02262 0.03443 0.49075
 O136 O 0.09364 0.05067 0.50896
 O137 O 0.04219 0.10104 0.50232
 O138 O 0.02854 -0.01655 0.49863
 Cu139 Cu 0.04926 0.05084 0.42494
 Cu140 Cu 0.03412 0.04158 0.50701
 C141 C 0.03199 -0.03276 0.46375
 C142 C 0.05208 0.12520 0.46899
 C143 C 0.11927 0.05530 0.47770
 C144 C -0.03591 0.03647 0.45346
 C145 C -0.37617 0.48602 1.00895
 C146 C -0.35423 0.46491 1.03694
 C147 C -0.30710 0.47296 1.03525
 N148 N -0.28844 0.44476 1.05575
 N149 N -0.24598 0.45042 1.05313
 C150 C -0.22059 0.48469 1.03010
 N151 N -0.23915 0.51327 1.01008
 N152 N -0.28167 0.50737 1.01239
 C153 C -0.17378 0.49098 1.02664
 C154 C -0.15514 0.45722 1.03617
 H155 H -0.37173 0.44166 1.06092
 H156 H -0.15381 0.52230 1.01493
 H157 H -0.35649 0.51441 0.99178
 H158 H -0.17549 0.42517 1.04517
 C159 C 0.31425 0.44462 1.03948
 C160 C 0.29400 0.47579 1.02480
 C161 C 0.24718 0.46946 1.02840
 N162 N 0.23009 0.50254 1.01676
 N163 N 0.18770 0.49734 1.01921
 C164 C 0.16078 0.45877 1.03324
 N165 N 0.17785 0.42562 1.04477
 N166 N 0.22030 0.43087 1.04249
 C167 C 0.11384 0.45246 1.03547
 C168 C 0.09541 0.48685 1.02859
 H169 H 0.31302 0.50574 1.00934
 H170 H 0.09341 0.42011 1.04308
 H171 H 0.29483 0.41386 1.05306
 H172 H 0.11595 0.51945 1.02256
 C173 C 0.01303 -0.31265 0.52875
 C174 C 0.02118 -0.28387 0.49324
 C175 C 0.02061 -0.23814 0.49467
 N176 N 0.02859 -0.21192 0.45913
 N177 N 0.02836 -0.17046 0.45981
 C178 C 0.02013 -0.15363 0.49609
 N179 N 0.01211 -0.17986 0.53164
 N180 N 0.01226 -0.22134 0.53094
 C181 C 0.02073 -0.10761 0.49760
 C182 C 0.02785 -0.07948 0.46186
 H183 H 0.03003 -0.29430 0.46362
 H184 H 0.01628 -0.09542 0.52781
 H185 H 0.00939 -0.29891 0.55828
 H186 H 0.03188 -0.09173 0.43158
 C187 C 0.02298 0.38417 0.52509
 C188 C 0.05694 0.36950 0.51007
 C189 C 0.05376 0.32288 0.50905
 N190 N 0.07986 0.30885 0.48292
 N191 N 0.07643 0.26661 0.48101
 C192 C 0.04700 0.23690 0.50545
 N193 N 0.02134 0.25099 0.53195
 N194 N 0.02447 0.29315 0.53356
 C195 C 0.04267 0.19014 0.50397
 C196 C 0.05809 0.17228 0.47031
 H197 H 0.08565 0.39263 0.49709
 H198 H 0.02482 0.16888 0.52923
 H199 H -0.00528 0.36081 0.53863
 H200 H 0.07314 0.19301 0.44351
 C201 C 0.52509 -0.00341 -0.37187
 C202 C 0.48802 -0.01888 -0.34655
 C203 C 0.49001 -0.02172 -0.30045
 N204 N 0.45310 -0.03492 -0.27703
 N205 N 0.45442 -0.03684 -0.23528
 C206 C 0.49276 -0.02567 -0.21542
 N207 N 0.52965 -0.01266 -0.23883
 N208 N 0.52831 -0.01063 -0.28055
 C209 C 0.49502 -0.02708 -0.16940
 C210 C 0.45840 -0.03631 -0.14348
 H211 H 0.45673 -0.03051 -0.36049
 H212 H 0.52667 -0.01960 -0.15557
 H213 H 0.55575 0.00195 -0.35629
 H214 H 0.42671 -0.04296 -0.15715
 C215 C 0.53808 0.01708 0.32218
 C216 C 0.51908 -0.01934 0.30007
 C217 C 0.51783 -0.01808 0.25404
 N218 N 0.48749 -0.04851 0.23477
 N219 N 0.48512 -0.04744 0.19311
 C220 C 0.51330 -0.01609 0.16914
 N221 N 0.54404 0.01403 0.18837
 N222 N 0.54610 0.01324 0.23009
 C223 C 0.51111 -0.01483 0.12311
 C224 C 0.47337 -0.03467 0.10262
 H225 H 0.50189 -0.04907 0.31722
 H226 H 0.53922 0.00350 0.10500
 H227 H 0.55603 0.04665 0.30533
 H228 H 0.44422 -0.04970 0.12078
 C229 C 0.49230 -0.38170 0.00523
 C230 C 0.45915 -0.36143 -0.00035
 C231 C 0.46699 -0.31409 -0.00411
 N232 N 0.43311 -0.29680 -0.00872
 N233 N 0.43927 -0.25401 -0.01150
 C234 C 0.47958 -0.22686 -0.00981
 N235 N 0.51354 -0.24413 -0.00535
 N236 N 0.50737 -0.28700 -0.00248
 C237 C 0.48654 -0.17955 -0.01247
 C238 C 0.45202 -0.16107 -0.01395
 H239 H 0.42619 -0.38061 -0.00347
 H240 H 0.51930 -0.15898 -0.01271
 H241 H 0.52504 -0.36124 0.00255
 H242 H 0.41931 -0.18179 -0.01299
 C243 C 0.44140 0.30610 0.00474
 C244 C 0.46330 0.28787 -0.02377
 C245 C 0.45694 0.24082 -0.02414
 N246 N 0.48673 0.22492 -0.04313
 N247 N 0.48253 0.18240 -0.04191
 C248 C 0.44823 0.15424 -0.02183
 N249 N 0.41811 0.17009 -0.00339
 N250 N 0.42249 0.21263 -0.00432
 C251 C 0.44354 0.10735 -0.01949
 C252 C 0.47781 0.09019 -0.02828
 H253 H 0.48800 0.30879 -0.04424
 H254 H 0.41283 0.08594 -0.00880
 H255 H 0.41557 0.28519 0.02403
 H256 H 0.50921 0.11168 -0.03668
 C257 C -0.31594 0.02054 0.48218
 C258 C -0.28851 0.01460 0.45029
 C259 C -0.24249 0.01826 0.45760
 N260 N -0.21627 0.01471 0.42539
 N261 N -0.17459 0.01815 0.43163
 C262 C -0.15762 0.02510 0.47037
 N263 N -0.18387 0.02846 0.50258
 N264 N -0.22546 0.02520 0.49631
 C265 C -0.11169 0.02907 0.47800
 C266 C -0.08200 0.03110 0.44559
 H267 H -0.30097 0.00488 0.41987
 H268 H -0.10079 0.03162 0.51006
 H269 H -0.30244 0.02469 0.51320
 H270 H -0.09253 0.02996 0.41339
 C271 C 0.37873 0.01141 0.47140
 C272 C 0.36419 0.04744 0.47946
 C273 C 0.31891 0.04722 0.47331
 N274 N 0.30134 0.07405 0.49458
 N275 N 0.26025 0.07386 0.48912
 C276 C 0.23550 0.04724 0.46176
 N277 N 0.25327 0.02089 0.44010
 N278 N 0.29412 0.02067 0.44595
 C279 C 0.19036 0.04685 0.45475
 C280 C 0.16518 0.05916 0.48479
 H281 H 0.38630 0.07619 0.49082
 H282 H 0.17559 0.03349 0.42622
 H283 H 0.35626 -0.01697 0.45977
 H284 H 0.17846 0.06848 0.51510
 C285 C 0.00200 0.54272 1.37489
 C286 C -0.02107 0.50765 1.35302
 C287 C -0.02247 0.50912 1.30700
 N288 N -0.03844 0.47198 1.28714
 N289 N -0.03822 0.47232 1.24542
 C290 C -0.02211 0.50989 1.22201
 N291 N -0.00657 0.54714 1.24187
 N292 N -0.00658 0.54676 1.28362
 C293 C -0.02107 0.51059 1.17595
 C294 C -0.02994 0.47253 1.15451
 H295 H -0.03652 0.47729 1.37008
 H296 H -0.01214 0.54174 1.15860
 H297 H 0.01520 0.57385 1.35824
 H298 H -0.03736 0.44143 1.17193
 C299 C 0.02217 0.52900 0.68086
 C300 C -0.01314 0.50609 0.70561
 C301 C -0.01268 0.50618 0.75162
 N302 N -0.04160 0.47486 0.77487
 N303 N -0.04154 0.47461 0.81661
 C304 C -0.01280 0.50595 0.83658
 N305 N 0.01580 0.53752 0.81332
 N306 N 0.01603 0.53752 0.77160
 C307 C -0.01270 0.50654 0.88256
 C308 C -0.03162 0.46978 0.90822
 H309 H -0.04159 0.48682 0.69083
 H310 H 0.00431 0.53625 0.89657
 H311 H 0.05041 0.54863 0.69564
 H312 H -0.04557 0.43912 0.89438
   
