data_POSCAR
  _audit_creation_date              2014-09-24
  _audit_creation_method            'ToBaCCo'
  _symmetry_space_group_name_H-M    'P1'
  _symmetry_Int_Tables_number       1
  _symmetry_cell_setting            triclinic
  loop_
  _symmetry_equiv_pos_as_xyz
 x,y,z
_cell_length_a 42.3840
_cell_length_b 43.1540
_cell_length_c 35.6784
_cell_angle_alpha 89.796100
_cell_angle_beta 91.086600
_cell_angle_gamma 90.203700
loop_
  _atom_site_label
  _atom_site_type_symbol
  _atom_site_fract_x
  _atom_site_fract_y
  _atom_site_fract_z
C1 C 1.27348 0.22255 0.27045
 C2 C 1.24964 0.23695 0.24919
 C3 C 1.22904 0.21914 0.22708
 C4 C 1.23235 0.18687 0.22568
 C5 C 1.25629 0.17248 0.24717
 C6 C 1.27719 0.19007 0.27009
 C7 C 1.24736 0.27094 0.24880
 C8 C 1.27134 0.28853 0.23252
 C9 C 1.26972 0.32115 0.23121
 C10 C 1.24391 0.33559 0.24848
 C11 C 1.22014 0.31809 0.26563
 C12 C 1.22162 0.28568 0.26489
 H13 H 1.28980 0.23719 0.28605
 H14 H 1.21065 0.23050 0.21064
 H15 H 1.29021 0.27624 0.21902
 H16 H 1.20350 0.27193 0.27816
 H17 H 1.25787 0.14747 0.24647
 H18 H 1.24252 0.36059 0.24987
 C19 C 0.77238 -0.27667 0.26567
 C20 C 0.74658 -0.26281 0.24725
 C21 C 0.72324 -0.28123 0.23042
 C22 C 0.72594 -0.31356 0.23075
 C23 C 0.75209 -0.32740 0.24886
 C24 C 0.77539 -0.30922 0.26742
 C25 C 0.74442 -0.22886 0.24478
 C26 C 0.76706 -0.21209 0.22504
 C27 C 0.76537 -0.17967 0.22260
 C28 C 0.74128 -0.16406 0.24120
 C29 C 0.71829 -0.18076 0.26081
 C30 C 0.71978 -0.21322 0.26206
 H31 H 0.79041 -0.26168 0.27768
 H32 H 0.70349 -0.27028 0.21594
 H33 H 0.78589 -0.22435 0.21134
 H34 H 0.70239 -0.22630 0.27750
 H35 H 0.75292 -0.35243 0.25024
 H36 H 0.73984 -0.13903 0.23946
 C37 C 0.77287 0.22122 -0.23240
 C38 C 0.74921 0.23690 -0.25267
 C39 C 0.72524 0.22009 -0.27102
 C40 C 0.72521 0.18761 -0.27002
 C41 C 0.74904 0.17205 -0.24967
 C42 C 0.77266 0.18871 -0.23023
 C43 C 0.74888 0.27096 -0.25375
 C44 C 0.77308 0.28741 -0.27137
 C45 C 0.77230 0.32008 -0.27379
 C46 C 0.74745 0.33566 -0.25597
 C47 C 0.72366 0.31929 -0.23745
 C48 C 0.72410 0.28690 -0.23727
 H49 H 0.79113 0.23438 -0.21785
 H50 H 0.70701 0.23234 -0.28673
 H51 H 0.79125 0.27430 -0.28508
 H52 H 0.70588 0.27405 -0.22293
 H53 H 0.74847 0.14698 -0.24782
 H54 H 0.74690 0.36071 -0.25514
 C55 C 1.27528 -0.27806 -0.22878
 C56 C 1.24985 -0.26304 -0.24632
 C57 C 1.22614 -0.28029 -0.26429
 C58 C 1.22818 -0.31267 -0.26585
 C59 C 1.25398 -0.32768 -0.24836
 C60 C 1.27756 -0.31066 -0.22872
 C61 C 1.24870 -0.22903 -0.24661
 C62 C 1.27117 -0.21217 -0.26649
 C63 C 1.27034 -0.17970 -0.26708
 C64 C 1.24715 -0.16418 -0.24682
 C65 C 1.22506 -0.18092 -0.22591
 C66 C 1.22570 -0.21344 -0.22642
 H67 H 1.29366 -0.26387 -0.21609
 H68 H 1.20667 -0.26837 -0.27813
 H69 H 1.28880 -0.22442 -0.28225
 H70 H 1.20855 -0.22667 -0.21079
 H71 H 1.25431 -0.35275 -0.24833
 H72 H 1.24696 -0.13907 -0.24635
 C73 C 0.21459 0.26608 0.72294
 C74 C 0.23128 0.24341 0.74304
 C75 C 0.21489 0.21994 0.76175
 C76 C 0.18154 0.21942 0.76194
 C77 C 0.16516 0.24282 0.74164
 C78 C 0.18150 0.26568 0.72147
 C79 C 0.26603 0.24481 0.74552
 C80 C 0.28096 0.26828 0.76641
 C81 C 0.31424 0.26985 0.76998
 C82 C 0.33195 0.24729 0.75086
 C83 C 0.31714 0.22394 0.72938
 C84 C 0.28410 0.22272 0.72717
 H85 H 0.22747 0.28406 0.70839
 H86 H 0.22853 0.20333 0.77801
 H87 H 0.26613 0.28560 0.77892
 H88 H 0.27237 0.20455 0.71126
 H89 H 0.13966 0.24236 0.73943
 H90 H 0.35739 0.24700 0.75320
 C91 C 0.71394 0.76410 0.72085
 C92 C 0.73161 0.74404 0.74356
 C93 C 0.71644 0.72222 0.76597
 C94 C 0.68316 0.72030 0.76666
 C95 C 0.66569 0.74076 0.74301
 C96 C 0.68069 0.76274 0.71965
 C97 C 0.76625 0.74696 0.74496
 C98 C 0.78034 0.77098 0.76562
 C99 C 0.81329 0.77440 0.76715
 C100 C 0.83205 0.75360 0.74711
 C101 C 0.81816 0.72938 0.72610
 C102 C 0.78511 0.72621 0.72534
 H103 H 0.72665 0.78161 0.70539
 H104 H 0.73112 0.70643 0.78211
 H105 H 0.76550 0.78706 0.78044
 H106 H 0.77399 0.70751 0.70973
 H107 H 0.64030 0.73971 0.74287
 H108 H 0.85748 0.75612 0.74812
 C109 C 0.71721 0.26681 0.22973
 C110 C 0.73381 0.24627 0.25322
 C111 C 0.71732 0.22594 0.27645
 C112 C 0.68419 0.22604 0.27659
 C113 C 0.66770 0.24669 0.25281
 C114 C 0.68404 0.26713 0.22922
 C115 C 0.76852 0.24637 0.25422
 C116 C 0.78486 0.26836 0.27588
 C117 C 0.81797 0.26803 0.27837
 C118 C 0.83461 0.24539 0.25855
 C119 C 0.81838 0.22322 0.23661
 C120 C 0.78525 0.22391 0.23463
 H121 H 0.73020 0.28274 0.21218
 H122 H 0.73040 0.20996 0.29430
 H123 H 0.77168 0.28573 0.29083
 H124 H 0.77240 0.20668 0.21835
 H125 H 0.64214 0.24685 0.25268
 H126 H 0.86015 0.24492 0.26035
 C127 C 0.22047 0.76846 0.22678
 C128 C 0.23640 0.74562 0.24730
 C129 C 0.21961 0.72499 0.26962
 C130 C 0.18650 0.72712 0.27269
 C131 C 0.17075 0.75051 0.25152
 C132 C 0.18739 0.77130 0.22814
 C133 C 0.27113 0.74532 0.24833
 C134 C 0.28724 0.76688 0.27080
 C135 C 0.32030 0.76705 0.27302
 C136 C 0.33719 0.74547 0.25199
 C137 C 0.32129 0.72353 0.22934
 C138 C 0.28808 0.72362 0.22770
 H139 H 0.23451 0.78496 0.21132
 H140 H 0.23289 0.70705 0.28403
 H141 H 0.27390 0.78364 0.28652
 H142 H 0.27539 0.70667 0.21084
 H143 H 0.14548 0.75267 0.25327
 H144 H 0.36274 0.74561 0.25351
 N145 N 0.96785 -0.03358 0.06943
 N146 N 0.94581 -0.03915 0.09433
 N147 N 1.03328 -0.05505 0.04123
 N148 N 1.05301 -0.07788 0.04863
 N149 N 1.03408 -0.03449 0.06828
 N150 N 1.05413 -0.04323 0.09517
 N151 N 0.96708 -0.05468 0.04302
 N152 N 0.94464 -0.07515 0.04916
 C153 C 0.93143 -0.06515 0.08111
 C154 C 1.06620 -0.07009 0.08206
 N155 N 1.03016 -0.03316 -0.06531
 N156 N 1.05162 -0.03903 -0.09070
 N157 N 0.96435 -0.05445 -0.03747
 N158 N 0.94427 -0.07703 -0.04516
 N159 N 0.96394 -0.03358 -0.06435
 N160 N 0.94373 -0.04175 -0.09129
 N161 N 1.03054 -0.05459 -0.03910
 N162 N 1.05218 -0.07556 -0.04585
 Mn163 Mn 0.99880 -0.05486 0.00193
 C164 C 1.06531 -0.06550 -0.07795
 C165 C 0.93120 -0.06867 -0.07851
 N166 N 1.03495 0.03288 0.06783
 N167 N 1.05806 0.03875 0.09221
 N168 N 0.96762 0.05454 0.04344
 N169 N 0.94838 0.07716 0.05254
 N170 N 0.96877 0.03342 0.07003
 N171 N 0.95046 0.04132 0.09798
 N172 N 1.03384 0.05433 0.04161
 N173 N 1.05609 0.07526 0.04739
 Mn174 Mn 1.00146 -0.00043 0.06931
 C175 C 1.07119 0.06518 0.07885
 C176 C 0.93746 0.06843 0.08638
 N177 N 0.96398 0.03362 -0.06380
 N178 N 0.94207 0.04045 -0.08931
 N179 N 1.03092 0.05516 -0.03921
 N180 N 1.04966 0.07827 -0.04868
 N181 N 1.03030 0.03385 -0.06543
 N182 N 1.04886 0.04190 -0.09323
 N183 N 0.96491 0.05475 -0.03738
 N184 N 0.94378 0.07647 -0.04421
 Mn185 Mn 0.99709 0.00019 -0.06511
 Mn186 Mn 0.99930 0.05489 0.00215
 Cl187 Cl 0.99917 -0.00003 0.00206
 C188 C 0.92944 0.06711 -0.07644
 C189 C 1.06114 0.06948 -0.08211
 N190 N 1.05750 0.53199 0.54046
 N191 N 1.08101 0.55080 0.54952
 N192 N 1.03325 0.46663 0.56391
 N193 N 1.03888 0.44416 0.58841
 N194 N 1.05492 0.46705 0.53807
 N195 N 1.07577 0.44491 0.54425
 N196 N 1.03627 0.53172 0.56679
 N197 N 1.04474 0.55055 0.59435
 C198 C 1.07255 0.56257 0.58293
 C199 C 1.06538 0.43062 0.57555
 N200 N 0.94296 0.47174 0.53718
 N201 N 0.91918 0.45301 0.54405
 N202 N 0.96842 0.53466 0.56628
 N203 N 0.96418 0.55573 0.59241
 N204 N 0.94634 0.53669 0.54006
 N205 N 0.92633 0.55907 0.54788
 N206 N 0.96478 0.46958 0.56368
 N207 N 0.95614 0.44928 0.58948
 Mn208 Mn 1.00067 0.50055 0.56555
 C209 C 0.92777 0.43880 0.57643
 C210 C 0.93795 0.57095 0.58049
 N211 N 1.05411 0.46937 0.45755
 N212 N 1.07606 0.44916 0.44914
 N213 N 1.03441 0.53546 0.43293
 N214 N 1.04051 0.55768 0.40857
 N215 N 1.05634 0.53446 0.45942
 N216 N 1.07793 0.55603 0.45376
 N217 N 1.03213 0.47035 0.43115
 N218 N 1.03872 0.45078 0.40397
 Mn219 Mn 1.05596 0.50079 0.49886
 C220 C 1.06603 0.43739 0.41592
 C221 C 1.06764 0.57049 0.42204
 N222 N 0.94554 0.53873 0.45902
 N223 N 0.92376 0.55968 0.45136
 N224 N 0.96390 0.47270 0.43108
 N225 N 0.95786 0.45026 0.40687
 N226 N 0.94219 0.47359 0.45681
 N227 N 0.92083 0.45175 0.45084
 N228 N 0.96633 0.53771 0.43221
 N229 N 0.95894 0.55776 0.40540
 Mn230 Mn 0.94402 0.50529 0.49825
 Mn231 Mn 0.99919 0.50400 0.43146
 Cl232 Cl 0.99997 0.50267 0.49855
 C233 C 0.93264 0.57168 0.41810
 C234 C 0.93091 0.43733 0.41963
 N235 N 0.55655 0.02693 0.54223
 N236 N 0.57960 0.04643 0.55053
 N237 N 0.53167 -0.03805 0.56503
 N238 N 0.53647 -0.06124 0.58872
 N239 N 0.55309 -0.03799 0.53891
 N240 N 0.57286 -0.06123 0.54394
 N241 N 0.53525 0.02695 0.56846
 N242 N 0.54323 0.04666 0.59529
 C243 C 0.57085 0.05884 0.58346
 C244 C 0.56214 -0.07567 0.57498
 N245 N 0.44170 -0.03233 0.53818
 N246 N 0.41765 -0.05068 0.54514
 N247 N 0.46743 0.03035 0.56812
 N248 N 0.46303 0.05099 0.59468
 N249 N 0.44530 0.03252 0.54200
 N250 N 0.42512 0.05463 0.55026
 N251 N 0.46339 -0.03456 0.56483
 N252 N 0.45438 -0.05448 0.59081
 Mn253 Mn 0.49946 -0.00389 0.56702
 C254 C 0.42598 -0.06473 0.57771
 C255 C 0.43669 0.06616 0.58306
 N256 N 0.55253 -0.03468 0.45849
 N257 N 0.57464 -0.05444 0.44921
 N258 N 0.53353 0.03205 0.43533
 N259 N 0.53975 0.05467 0.41159
 N260 N 0.55563 0.03022 0.46153
 N261 N 0.57755 0.05152 0.45624
 N262 N 0.53065 -0.03294 0.43204
 N263 N 0.53741 -0.05159 0.40401
 Mn264 Mn 0.55471 -0.00386 0.50032
 C265 C 0.56472 -0.06520 0.41547
 C266 C 0.56720 0.06676 0.42510
 N267 N 0.44462 0.03544 0.46127
 N268 N 0.42314 0.05680 0.45428
 N269 N 0.46267 -0.03004 0.43201
 N270 N 0.45688 -0.05226 0.40749
 N271 N 0.44098 -0.02961 0.45777
 N272 N 0.41980 -0.05157 0.45147
 N273 N 0.46554 0.03488 0.43461
 N274 N 0.45855 0.05566 0.40850
 Mn275 Mn 0.44289 0.00157 0.49977
 Mn276 Mn 0.49808 0.00098 0.43311
 Cl277 Cl 0.49878 -0.00130 0.50007
 C278 C 0.43234 0.06952 0.42157
 C279 C 0.43004 -0.06554 0.42002
 N280 N 0.55714 0.52698 0.04030
 N281 N 0.58050 0.54598 0.04924
 N282 N 0.53335 0.46164 0.06459
 N283 N 0.53909 0.43945 0.08940
 N284 N 0.55510 0.46203 0.03887
 N285 N 0.57610 0.44009 0.04537
 N286 N 0.53585 0.52675 0.06655
 N287 N 0.54412 0.54580 0.09394
 C288 C 0.57187 0.55792 0.08250
 C289 C 0.56573 0.42600 0.07680
 N290 N 0.44312 0.46573 0.03746
 N291 N 0.41874 0.44814 0.04555
 N292 N 0.46809 0.52910 0.06566
 N293 N 0.46362 0.55024 0.09159
 N294 N 0.44598 0.53069 0.03945
 N295 N 0.42566 0.55286 0.04713
 N296 N 0.46486 0.46408 0.06413
 N297 N 0.45553 0.44528 0.09119
 Mn298 Mn 0.50054 0.49529 0.06559
 C299 C 0.42689 0.43510 0.07877
 C300 C 0.43721 0.56507 0.07961
 N301 N 0.55445 0.46349 -0.04138
 N302 N 0.57678 0.44356 -0.04911
 N303 N 0.53450 0.52917 -0.06734
 N304 N 0.54090 0.55072 -0.09246
 N305 N 0.55634 0.52861 -0.04073
 N306 N 0.57819 0.54980 -0.04709
 N307 N 0.53288 0.46412 -0.06827
 N308 N 0.54036 0.44471 -0.09533
 Mn309 Mn 0.55598 0.49536 -0.00075
 C310 C 0.56761 0.43165 -0.08252
 C311 C 0.56810 0.56360 -0.07933
 N312 N 0.44559 0.53192 -0.04154
 N313 N 0.42403 0.55309 -0.04903
 N314 N 0.46442 0.46597 -0.06879
 N315 N 0.45765 0.44448 -0.09398
 N316 N 0.44271 0.46677 -0.04302
 N317 N 0.42073 0.44569 -0.04987
 N318 N 0.46643 0.53090 -0.06829
 N319 N 0.45931 0.55118 -0.09494
 Mn320 Mn 0.44412 0.49887 -0.00196
 Mn321 Mn 0.49955 0.49747 -0.06857
 Cl322 Cl 0.50004 0.49673 -0.00141
 C323 C 0.43308 0.56519 -0.08214
 C324 C 0.43041 0.43183 -0.08164
 C325 C 1.16827 0.13469 0.15645
 C326 C 1.18386 0.16069 0.14159
 C327 C 1.20484 0.17753 0.16418
 C328 C 1.21091 0.16836 0.20131
 C329 C 1.19588 0.14166 0.21476
 N330 N 1.17508 0.12587 0.19241
 C331 C 1.14426 0.11681 0.13462
 N332 N 1.13474 0.08868 0.14787
 C333 C 1.11195 0.07145 0.13034
 C334 C 1.09710 0.08252 0.09751
 C335 C 1.10659 0.11129 0.08324
 C336 C 1.12992 0.12854 0.10168
 H337 H 1.21655 0.19765 0.15258
 H338 H 1.20001 0.13383 0.24328
 H339 H 1.10523 0.04937 0.14230
 H340 H 1.09554 0.12081 0.05814
 H341 H 1.18033 0.16813 0.11289
 H342 H 1.13569 0.15109 0.09048
 C343 C 1.15737 0.63619 0.67353
 C344 C 1.14825 0.65962 0.69825
 C345 C 1.17132 0.67614 0.71831
 C346 C 1.20339 0.66929 0.71400
 C347 C 1.21149 0.64558 0.68922
 N348 N 1.18864 0.63005 0.66968
 C349 C 1.13418 0.61852 0.65057
 N350 N 1.14364 0.60635 0.61750
 C351 C 1.12411 0.58921 0.59513
 C352 C 1.09310 0.58293 0.60599
 C353 C 1.08274 0.59521 0.63993
 C354 C 1.10316 0.61308 0.66227
 H355 H 1.16412 0.69426 0.73723
 H356 H 1.23598 0.63988 0.68474
 H357 H 1.13310 0.58003 0.56926
 H358 H 1.05903 0.59068 0.64940
 H359 H 1.12371 0.66571 0.70146
 H360 H 1.09496 0.62169 0.68879
 C361 C 0.65435 0.13632 0.67019
 C362 C 0.64535 0.16129 0.69269
 C363 C 0.66846 0.17812 0.71228
 C364 C 0.70036 0.16993 0.70973
 C365 C 0.70832 0.14482 0.68704
 N366 N 0.68547 0.12904 0.66789
 C367 C 0.63129 0.11808 0.64796
 N368 N 0.64113 0.10450 0.61591
 C369 C 0.62191 0.08633 0.59448
 C370 C 0.59087 0.08036 0.60542
 C371 C 0.58007 0.09414 0.63829
 C372 C 0.60018 0.11315 0.65960
 H373 H 0.66146 0.19739 0.72958
 H374 H 0.73271 0.13808 0.68400
 H375 H 0.63120 0.07604 0.56939
 H376 H 0.55629 0.08992 0.64771
 H377 H 0.62091 0.16818 0.69455
 H378 H 0.59174 0.12300 0.68538
 C379 C 0.65590 0.63272 0.17249
 C380 C 0.64644 0.65647 0.19656
 C381 C 0.66928 0.67372 0.21603
 C382 C 0.70144 0.66727 0.21177
 C383 C 0.70988 0.64312 0.18782
 N384 N 0.68724 0.62689 0.16879
 C385 C 0.63297 0.61457 0.14979
 N386 N 0.64260 0.60225 0.11689
 C387 C 0.62324 0.58484 0.09464
 C388 C 0.59224 0.57848 0.10545
 C389 C 0.58171 0.59088 0.13924
 C390 C 0.60197 0.60900 0.16148
 H391 H 0.66184 0.69218 0.23432
 H392 H 0.73445 0.63771 0.18343
 H393 H 0.63234 0.57555 0.06888
 H394 H 0.55801 0.58628 0.14867
 H395 H 0.62183 0.66232 0.19960
 H396 H 0.59365 0.61776 0.18787
 C397 C 0.83295 -0.13119 0.15683
 C398 C 0.81675 -0.15693 0.14173
 C399 C 0.79475 -0.17260 0.16329
 C400 C 0.78823 -0.16249 0.19956
 C401 C 0.80390 -0.13606 0.21323
 N402 N 0.82572 -0.12143 0.19192
 C403 C 0.85780 -0.11445 0.13598
 N404 N 0.86802 -0.08635 0.14877
 C405 C 0.89125 -0.06996 0.13174
 C406 C 0.90568 -0.08186 0.09984
 C407 C 0.89561 -0.11070 0.08620
 C408 C 0.87197 -0.12713 0.10421
 H409 H 0.78254 -0.19249 0.15147
 H410 H 0.79935 -0.12751 0.24109
 H411 H 0.89845 -0.04779 0.14319
 H412 H 0.90636 -0.12089 0.06188
 H413 H 0.82052 -0.16504 0.11358
 H414 H 0.86572 -0.14974 0.09349
 C415 C 0.83978 0.36872 0.66285
 C416 C 0.80960 0.38110 0.66708
 C417 C 0.78761 0.36538 0.68852
 C418 C 0.79523 0.33684 0.70577
 C419 C 0.82617 0.32552 0.70105
 N420 N 0.84737 0.34164 0.68032
 C421 C 0.86298 0.38465 0.63920
 N422 N 0.89358 0.38766 0.65111
 C423 C 0.91516 0.40401 0.63113
 C424 C 0.90618 0.41834 0.59719
 C425 C 0.87508 0.41433 0.58390
 C426 C 0.85347 0.39767 0.60482
 H427 H 0.76417 0.37509 0.68974
 H428 H 0.83400 0.30440 0.71463
 H429 H 0.93903 0.40633 0.64210
 H430 H 0.86715 0.42475 0.55773
 H431 H 0.80299 0.40280 0.65379
 H432 H 0.82945 0.39516 0.59433
 C433 C 0.33657 -0.13141 0.66557
 C434 C 0.30467 -0.12273 0.66427
 C435 C 0.28316 -0.13810 0.68681
 C436 C 0.29332 -0.16215 0.71051
 C437 C 0.32552 -0.16974 0.71161
 N438 N 0.34613 -0.15428 0.68952
 C439 C 0.35989 -0.11602 0.64163
 N440 N 0.38993 -0.11148 0.65480
 C441 C 0.41197 -0.09616 0.63447
 C442 C 0.40404 -0.08445 0.59880
 C443 C 0.37362 -0.09006 0.58421
 C444 C 0.35152 -0.10578 0.60548
 H445 H 0.25850 -0.13164 0.68518
 H446 H 0.33425 -0.18791 0.73000
 H447 H 0.43530 -0.09251 0.64652
 H448 H 0.36661 -0.08172 0.55664
 H449 H 0.29642 -0.10410 0.64624
 H450 H 0.32815 -0.10982 0.59372
 C451 C 0.33741 0.37114 0.16983
 C452 C 0.30716 0.38343 0.17407
 C453 C 0.28513 0.36745 0.19525
 C454 C 0.29281 0.33879 0.21214
 C455 C 0.32401 0.32795 0.20804
 N456 N 0.34514 0.34419 0.18746
 C457 C 0.36052 0.38659 0.14564
 N458 N 0.39157 0.38783 0.15621
 C459 C 0.41351 0.40258 0.13508
 C460 C 0.40450 0.41682 0.10113
 C461 C 0.37282 0.41480 0.08929
 C462 C 0.35081 0.39989 0.11147
 H463 H 0.26158 0.37695 0.19631
 H464 H 0.33201 0.30693 0.22172
 H465 H 0.43779 0.40347 0.14499
 H466 H 0.36484 0.42531 0.06320
 H467 H 0.30046 0.40509 0.16079
 H468 H 0.32645 0.39863 0.10188
 C469 C 0.83875 0.13988 -0.16002
 C470 C 0.82418 0.16683 -0.14671
 C471 C 0.80308 0.18297 -0.16991
 C472 C 0.79603 0.17227 -0.20615
 C473 C 0.81070 0.14512 -0.21831
 N474 N 0.83141 0.12990 -0.19532
 C475 C 0.86156 0.12161 -0.13695
 N476 N 0.86987 0.09287 -0.14898
 C477 C 0.89104 0.07482 -0.12997
 C478 C 0.90533 0.08556 -0.09672
 C479 C 0.89712 0.11498 -0.08368
 C480 C 0.87550 0.13312 -0.10371
 H481 H 0.79166 0.20343 -0.15916
 H482 H 0.80590 0.13613 -0.24613
 H483 H 0.89683 0.05227 -0.14103
 H484 H 0.90786 0.12427 -0.05830
 H485 H 0.82824 0.17534 -0.11861
 H486 H 0.87058 0.15603 -0.09331
 C487 C 0.84820 0.64749 0.33086
 C488 C 0.83798 0.67706 0.34093
 C489 C 0.81454 0.69168 0.31949
 C490 C 0.80060 0.67681 0.28807
 C491 C 0.81225 0.64727 0.27871
 N492 N 0.83544 0.63374 0.29986
 C493 C 0.87166 0.63046 0.35394
 N494 N 0.89288 0.61178 0.33697
 C495 C 0.91375 0.59405 0.35690
 C496 C 0.91314 0.59368 0.39619
 C497 C 0.89161 0.61285 0.41423
 C498 C 0.87105 0.63150 0.39324
 H499 H 0.80633 0.71394 0.32907
 H500 H 0.80366 0.63509 0.25412
 H501 H 0.92985 0.57930 0.34202
 H502 H 0.89034 0.61302 0.44452
 H503 H 0.84789 0.68873 0.36528
 H504 H 0.85399 0.64556 0.40758
 C505 C 0.34808 0.14628 0.33588
 C506 C 0.33559 0.17450 0.34769
 C507 C 0.31247 0.18913 0.32583
 C508 C 0.30125 0.17567 0.29210
 C509 C 0.31492 0.14738 0.28127
 N510 N 0.33771 0.13381 0.30294
 C511 C 0.37155 0.12926 0.35886
 N512 N 0.39382 0.11201 0.34160
 C513 C 0.41473 0.09410 0.36120
 C514 C 0.41308 0.09208 0.40034
 C515 C 0.39058 0.10990 0.41869
 C516 C 0.36993 0.12870 0.39810
 H517 H 0.30252 0.21029 0.33658
 H518 H 0.30846 0.13638 0.25504
 H519 H 0.43163 0.08045 0.34607
 H520 H 0.38851 0.10877 0.44888
 H521 H 0.34358 0.18520 0.37360
 H522 H 0.35203 0.14154 0.41265
 C523 C 0.34962 0.64330 -0.16722
 C524 C 0.33985 0.67269 -0.15595
 C525 C 0.31652 0.68809 -0.17661
 C526 C 0.30239 0.67430 -0.20863
 C527 C 0.31355 0.64487 -0.21919
 N528 N 0.33659 0.63049 -0.19866
 C529 C 0.37280 0.62548 -0.14476
 N530 N 0.39378 0.60689 -0.16229
 C531 C 0.41449 0.58863 -0.14285
 C532 C 0.41393 0.58768 -0.10357
 C533 C 0.39265 0.60675 -0.08501
 C534 C 0.37225 0.62587 -0.10546
 H535 H 0.30861 0.71012 -0.16599
 H536 H 0.30472 0.63347 -0.24422
 H537 H 0.43040 0.57394 -0.15810
 H538 H 0.39144 0.60646 -0.05471
 H539 H 0.34997 0.68362 -0.13122
 H540 H 0.35536 0.63982 -0.09069
 C541 C 1.15895 -0.13337 -0.15798
 C542 C 1.17588 -0.15870 -0.14310
 C543 C 1.19719 -0.17429 -0.16544
 C544 C 1.20216 -0.16455 -0.20236
 C545 C 1.18545 -0.13874 -0.21598
 N546 N 1.16449 -0.12410 -0.19382
 C547 C 1.13539 -0.11625 -0.13599
 N548 N 1.12554 -0.08794 -0.14847
 C549 C 1.10351 -0.07108 -0.13034
 C550 C 1.08996 -0.08271 -0.09761
 C551 C 1.09969 -0.11177 -0.08423
 C552 C 1.12214 -0.12867 -0.10336
 H553 H 1.21024 -0.19364 -0.15363
 H554 H 1.18870 -0.13051 -0.24434
 H555 H 1.09653 -0.04877 -0.14162
 H556 H 1.08956 -0.12173 -0.05927
 H557 H 1.17335 -0.16634 -0.11446
 H558 H 1.12822 -0.15143 -0.09287
 C559 C 1.14828 0.36387 0.32678
 C560 C 1.13957 0.34067 0.30102
 C561 C 1.16297 0.32554 0.28095
 C562 C 1.19480 0.33383 0.28617
 C563 C 1.20242 0.35710 0.31212
 N564 N 1.17936 0.37114 0.33164
 C565 C 1.12510 0.38038 0.34969
 N566 N 1.13499 0.39182 0.38340
 C567 C 1.11604 0.40890 0.40544
 C568 C 1.08524 0.41616 0.39344
 C569 C 1.07426 0.40438 0.35898
 C570 C 1.09409 0.38631 0.33705
 H571 H 1.15626 0.30756 0.26122
 H572 H 1.22674 0.36377 0.31737
 H573 H 1.12549 0.41753 0.43180
 H574 H 1.05066 0.40962 0.34870
 H575 H 1.11516 0.33383 0.29697
 H576 H 1.08561 0.37816 0.31003
 C577 C 0.64719 -0.13442 0.32212
 C578 C 0.63840 -0.15868 0.29795
 C579 C 0.66157 -0.17374 0.27757
 C580 C 0.69323 -0.16435 0.28090
 C581 C 0.70091 -0.13975 0.30492
 N582 N 0.67807 -0.12583 0.32495
 C583 C 0.62427 -0.11862 0.34595
 N584 N 0.63464 -0.10721 0.37946
 C585 C 0.61562 -0.09123 0.40254
 C586 C 0.58422 -0.08518 0.39186
 C587 C 0.57282 -0.09686 0.35755
 C588 C 0.59275 -0.11379 0.33455
 H589 H 0.65484 -0.19271 0.25927
 H590 H 0.72513 -0.13214 0.30855
 H591 H 0.62540 -0.08252 0.42870
 H592 H 0.54875 -0.09249 0.34829
 H593 H 0.61417 -0.16652 0.29560
 H594 H 0.58389 -0.12203 0.30772
 C595 C 0.65500 0.36507 -0.17186
 C596 C 0.68687 0.37373 -0.16861
 C597 C 0.70908 0.35925 -0.19070
 C598 C 0.69968 0.33606 -0.21593
 C599 C 0.66748 0.32842 -0.21895
 N600 N 0.64612 0.34307 -0.19723
 C601 C 0.63132 0.37944 -0.14777
 N602 N 0.60251 0.38755 -0.16223
 C603 C 0.58092 0.40300 -0.14156
 C604 C 0.58814 0.41121 -0.10433
 C605 C 0.61708 0.40163 -0.08858
 C606 C 0.63866 0.38584 -0.11015
 H607 H 0.73372 0.36563 -0.18742
 H608 H 0.65940 0.31080 -0.23843
 H609 H 0.55870 0.40973 -0.15456
 H610 H 0.62349 0.40711 -0.05983
 H611 H 0.69456 0.39157 -0.14919
 H612 H 0.66106 0.37902 -0.09762
 C613 C 1.13272 0.15167 -0.17526
 C614 C 1.16193 0.14431 -0.19055
 C615 C 1.17808 0.16659 -0.21129
 C616 C 1.16507 0.19628 -0.21767
 C617 C 1.13527 0.20224 -0.20223
 N618 N 1.12046 0.18036 -0.18135
 C619 C 1.11545 0.12951 -0.15145
 N620 N 1.09906 0.14054 -0.12195
 C621 C 1.08235 0.12168 -0.09902
 C622 C 1.08083 0.08968 -0.10575
 C623 C 1.09732 0.07775 -0.13618
 C624 C 1.11492 0.09755 -0.15890
 H625 H 1.20033 0.15996 -0.22323
 H626 H 1.12431 0.22474 -0.20492
 H627 H 1.06970 0.13183 -0.07606
 H628 H 1.09656 0.05321 -0.14237
 H629 H 1.17253 0.12180 -0.18588
 H630 H 1.12726 0.08810 -0.18253
 C631 C 1.13713 0.66434 0.34272
 C632 C 1.16893 0.67124 0.35045
 C633 C 1.18496 0.69213 0.32773
 C634 C 1.16982 0.70641 0.29658
 C635 C 1.13769 0.69888 0.29020
 N636 N 1.12267 0.67828 0.31277
 C637 C 1.11919 0.64129 0.36503
 N638 N 1.09235 0.62874 0.34980
 C639 C 1.07519 0.60670 0.36774
 C640 C 1.08498 0.59574 0.40316
 C641 C 1.11208 0.60880 0.41984
 C642 C 1.12910 0.63166 0.40109
 H643 H 1.20906 0.69756 0.33572
 H644 H 1.12463 0.70796 0.26633
 H645 H 1.05427 0.59739 0.35399
 H646 H 1.12019 0.60129 0.44736
 H647 H 1.18183 0.66040 0.37334
 H648 H 1.14957 0.64158 0.41506
 C649 C 0.63550 0.16186 0.34700
 C650 C 0.66167 0.17836 0.36144
 C651 C 0.67738 0.19941 0.33855
 C652 C 0.66699 0.20445 0.30147
 C653 C 0.64028 0.18820 0.28843
 N654 N 0.62554 0.16758 0.31112
 C655 C 0.61830 0.13832 0.36923
 N656 N 0.58935 0.12876 0.35659
 C657 C 0.57243 0.10647 0.37430
 C658 C 0.58467 0.09208 0.40671
 C659 C 0.61434 0.10157 0.42046
 C660 C 0.63128 0.12454 0.40180
 H661 H 0.69750 0.21200 0.34996
 H662 H 0.63154 0.19131 0.25997
 H663 H 0.54963 0.09979 0.36274
 H664 H 0.62472 0.09086 0.44524
 H665 H 0.66994 0.17550 0.39007
 H666 H 0.65451 0.13057 0.41246
 C667 C 0.63721 0.65577 -0.16213
 C668 C 0.66787 0.66601 -0.15310
 C669 C 0.68288 0.68724 -0.17643
 C670 C 0.66785 0.69861 -0.20937
 C671 C 0.63704 0.68747 -0.21724
 N672 N 0.62301 0.66674 -0.19400
 C673 C 0.61990 0.63275 -0.13900
 N674 N 0.59286 0.62004 -0.15349
 C675 C 0.57575 0.59844 -0.13479
 C676 C 0.58572 0.58812 -0.09919
 C677 C 0.61318 0.60114 -0.08330
 C678 C 0.63022 0.62352 -0.10291
 H679 H 0.70593 0.69540 -0.16742
 H680 H 0.62430 0.69391 -0.24256
 H681 H 0.55461 0.58908 -0.14802
 H682 H 0.62152 0.59401 -0.05573
 H683 H 0.68062 0.65783 -0.12855
 H684 H 0.65098 0.63330 -0.08948
 C685 C 0.85674 -0.15494 -0.16518
 C686 C 0.83104 -0.17182 -0.15136
 C687 C 0.81680 -0.19465 -0.17354
 C688 C 0.82797 -0.20079 -0.20953
 C689 C 0.85332 -0.18299 -0.22262
 N690 N 0.86683 -0.16079 -0.20048
 C691 C 0.87364 -0.13159 -0.14193
 N692 N 0.88839 -0.10730 -0.15884
 C693 C 0.90566 -0.08601 -0.13911
 C694 C 0.90956 -0.08907 -0.10013
 C695 C 0.89439 -0.11376 -0.08217
 C696 C 0.87638 -0.13494 -0.10285
 H697 H 0.79737 -0.20787 -0.16229
 H698 H 0.86230 -0.18663 -0.25045
 H699 H 0.91723 -0.06741 -0.15402
 H700 H 0.89698 -0.11706 -0.05216
 H701 H 0.82188 -0.16741 -0.12379
 H702 H 0.86580 -0.15436 -0.08844
 C703 C 0.86527 0.33715 0.34485
 C704 C 0.83927 0.32106 0.35940
 C705 C 0.82410 0.29839 0.33781
 C706 C 0.83489 0.29121 0.30198
 C707 C 0.86155 0.30697 0.28891
 N708 N 0.87571 0.32931 0.31025
 C709 C 0.88171 0.36249 0.36567
 N710 N 0.91016 0.37270 0.35328
 C711 C 0.92640 0.39628 0.37010
 C712 C 0.91400 0.41124 0.40137
 C713 C 0.88478 0.40123 0.41465
 C714 C 0.86850 0.37709 0.39688
 H715 H 0.80403 0.28626 0.34926
 H716 H 0.87061 0.30214 0.26139
 H717 H 0.94888 0.40334 0.35891
 H718 H 0.87424 0.41233 0.43852
 H719 H 0.83060 0.32546 0.38713
 H720 H 0.84562 0.37070 0.40730
 C721 C 0.36637 -0.16512 0.34232
 C722 C 0.34087 -0.18226 0.35635
 C723 C 0.32613 -0.20456 0.33385
 C724 C 0.33686 -0.21028 0.29760
 C725 C 0.36305 -0.19352 0.28505
 N726 N 0.37680 -0.17159 0.30730
 C727 C 0.38230 -0.14010 0.36408
 N728 N 0.41061 -0.12922 0.35212
 C729 C 0.42638 -0.10575 0.36967
 C730 C 0.41360 -0.09158 0.40124
 C731 C 0.38452 -0.10232 0.41416
 C732 C 0.36873 -0.12639 0.39565
 H733 H 0.30641 -0.21751 0.34487
 H734 H 0.37204 -0.19723 0.25724
 H735 H 0.44877 -0.09811 0.35877
 H736 H 0.37373 -0.09182 0.43827
 H737 H 0.33231 -0.17891 0.38436
 H738 H 0.34591 -0.13338 0.40571
 C739 C 0.36018 0.33826 -0.16292
 C740 C 0.32875 0.33016 -0.15595
 C741 C 0.31362 0.30776 -0.17803
 C742 C 0.32937 0.29312 -0.20765
 C743 C 0.36085 0.30251 -0.21383
 N744 N 0.37498 0.32439 -0.19185
 C745 C 0.37771 0.36196 -0.14057
 N746 N 0.40470 0.37420 -0.15471
 C747 C 0.42207 0.39614 -0.13631
 C748 C 0.41248 0.40718 -0.10142
 C749 C 0.38508 0.39461 -0.08594
 C750 C 0.36775 0.37196 -0.10522
 H751 H 0.28990 0.30134 -0.17050
 H752 H 0.37416 0.29357 -0.23690
 H753 H 0.44316 0.40512 -0.14916
 H754 H 0.37704 0.40226 -0.05888
 H755 H 0.31556 0.34095 -0.13394
 H756 H 0.34713 0.36235 -0.09209
 C757 C 1.14073 -0.15849 0.16518
 C758 C 1.16897 -0.17094 0.15234
 C759 C 1.18429 -0.19399 0.17309
 C760 C 1.17166 -0.20519 0.20691
 C761 C 1.14314 -0.19179 0.21868
 N762 N 1.12887 -0.16902 0.19804
 C763 C 1.12334 -0.13465 0.14328
 N764 N 1.10700 -0.11223 0.16135
 C765 C 1.08978 -0.09036 0.14249
 C766 C 1.08765 -0.09094 0.10320
 C767 C 1.10435 -0.11378 0.08411
 C768 C 1.12233 -0.13550 0.10395
 H769 H 1.20543 -0.20377 0.16148
 H770 H 1.13266 -0.19831 0.24494
 H771 H 1.07689 -0.07331 0.15819
 H772 H 1.10311 -0.11514 0.05381
 H773 H 1.17929 -0.16289 0.12653
 H774 H 1.13439 -0.15339 0.08866
 C775 C 1.13268 0.33317 0.65378
 C776 C 1.15862 0.31719 0.63931
 C777 C 1.17436 0.29525 0.66143
 C778 C 1.16424 0.28863 0.69778
 C779 C 1.13766 0.30427 0.71086
 N780 N 1.12291 0.32592 0.68896
 C781 C 1.11563 0.35771 0.63214
 N782 N 1.08715 0.36771 0.64442
 C783 C 1.07047 0.39057 0.62672
 C784 C 1.08241 0.40497 0.59462
 C785 C 1.11162 0.39510 0.58143
 C786 C 1.12835 0.37175 0.60009
 H787 H 1.19431 0.28315 0.64994
 H788 H 1.12906 0.29978 0.73873
 H789 H 1.04804 0.39757 0.63789
 H790 H 1.12186 0.40580 0.55697
 H791 H 1.16676 0.32104 0.61118
 H792 H 1.15123 0.36558 0.58968
 C793 C 0.62923 -0.17398 0.65086
 C794 C 0.65984 -0.18270 0.64114
 C795 C 0.67643 -0.20389 0.66339
 C796 C 0.66312 -0.21663 0.69602
 C797 C 0.63204 -0.20743 0.70431
 N798 N 0.61645 -0.18654 0.68216
 C799 C 0.61113 -0.15021 0.62933
 N800 N 0.58678 -0.13553 0.64617
 C801 C 0.57014 -0.11239 0.62904
 C802 C 0.57805 -0.10243 0.59294
 C803 C 0.60236 -0.11778 0.57459
 C804 C 0.61874 -0.14178 0.59245
 H805 H 0.69950 -0.21070 0.65405
 H806 H 0.62050 -0.21530 0.72935
 H807 H 0.55134 -0.10129 0.64404
 H808 H 0.60886 -0.11112 0.54647
 H809 H 0.67147 -0.17298 0.61710
 H810 H 0.63702 -0.15340 0.57724
 C811 C 0.63426 0.33129 0.15795
 C812 C 0.65969 0.31434 0.14379
 C813 C 0.67584 0.29343 0.16702
 C814 C 0.66658 0.28889 0.20416
 C815 C 0.64057 0.30558 0.21697
 N816 N 0.62542 0.32611 0.19396
 C817 C 0.61677 0.35477 0.13524
 N818 N 0.58854 0.36522 0.14774
 C819 C 0.57154 0.38744 0.12934
 C820 C 0.58294 0.40076 0.09632
 C821 C 0.61185 0.39034 0.08279
 C822 C 0.62887 0.36755 0.10213
 H823 H 0.69536 0.28051 0.15581
 H824 H 0.63270 0.30283 0.24547
 H825 H 0.54936 0.39489 0.14078
 H826 H 0.62164 0.40019 0.05757
 H827 H 0.66708 0.31669 0.11511
 H828 H 0.65154 0.36090 0.09149
 C829 C 0.86765 0.15312 0.17681
 C830 C 0.87615 0.15930 0.21431
 C831 C 0.86029 0.18236 0.23377
 C832 C 0.83585 0.19908 0.21612
 C833 C 0.82811 0.19221 0.17863
 N834 N 0.84415 0.16995 0.16010
 C835 C 0.88451 0.12986 0.15438
 N836 N 0.88687 0.13443 0.11676
 C837 C 0.90288 0.11470 0.09446
 C838 C 0.91766 0.08840 0.10984
 C839 C 0.91468 0.08263 0.14832
 C840 C 0.89822 0.10333 0.17071
 H841 H 0.86688 0.18693 0.26271
 H842 H 0.80963 0.20484 0.16391
 H843 H 0.90441 0.11983 0.06483
 H844 H 0.92564 0.06253 0.16124
 H845 H 0.89524 0.14701 0.22828
 H846 H 0.89618 0.09850 0.20035
 C847 C 0.87473 0.66438 0.66638
 C848 C 0.88408 0.67381 0.70269
 C849 C 0.86584 0.69520 0.72192
 C850 C 0.83812 0.70715 0.70548
 C851 C 0.82949 0.69710 0.66932
 N852 N 0.84770 0.67635 0.65105
 C853 C 0.89255 0.64114 0.64448
 N854 N 0.87879 0.62918 0.61282
 C855 C 0.89298 0.60734 0.59154
 C856 C 0.92283 0.59594 0.60196
 C857 C 0.93778 0.60824 0.63401
 C858 C 0.92292 0.63089 0.65516
 H859 H 0.87306 0.70186 0.75004
 H860 H 0.80842 0.70590 0.65544
 H861 H 0.88067 0.59856 0.56691
 H862 H 0.96099 0.60032 0.64281
 H863 H 0.90475 0.66456 0.71681
 H864 H 0.93544 0.64006 0.67932
 C865 C 0.37239 0.15759 0.67043
 C866 C 0.38039 0.16504 0.70780
 C867 C 0.36242 0.18665 0.72698
 C868 C 0.33627 0.20071 0.70938
 C869 C 0.32873 0.19232 0.67230
 N870 N 0.34670 0.17136 0.65408
 C871 C 0.39033 0.13468 0.64835
 N872 N 0.37699 0.12341 0.61610
 C873 C 0.39150 0.10207 0.59445
 C874 C 0.42127 0.09058 0.60505
 C875 C 0.43579 0.10222 0.63772
 C876 C 0.42058 0.12434 0.65928
 H877 H 0.36864 0.19199 0.75583
 H878 H 0.30884 0.20273 0.65762
 H879 H 0.37954 0.09379 0.56934
 H880 H 0.45893 0.09420 0.64666
 H881 H 0.39983 0.15410 0.72263
 H882 H 0.43276 0.13317 0.68389
 C883 C 0.37411 0.65710 0.16738
 C884 C 0.38273 0.66375 0.20478
 C885 C 0.36552 0.68537 0.22483
 C886 C 0.33945 0.70025 0.20812
 C887 C 0.33113 0.69252 0.17102
 N888 N 0.34843 0.67152 0.15189
 C889 C 0.39159 0.63430 0.14462
 N890 N 0.37733 0.62205 0.11343
 C891 C 0.39156 0.60054 0.09168
 C892 C 0.42193 0.58990 0.10114
 C893 C 0.43738 0.60270 0.13255
 C894 C 0.42249 0.62498 0.15413
 H895 H 0.37228 0.69007 0.25368
 H896 H 0.31122 0.70351 0.15704
 H897 H 0.37891 0.59136 0.06751
 H898 H 0.46102 0.59547 0.14053
 H899 H 0.40209 0.65212 0.21897
 H900 H 0.43538 0.63477 0.17769
   
