data_POSCAR
  _audit_creation_date              2014-09-24
  _audit_creation_method            'ToBaCCo'
  _symmetry_space_group_name_H-M    'P1'
  _symmetry_Int_Tables_number       1
  _symmetry_cell_setting            triclinic
  loop_
  _symmetry_equiv_pos_as_xyz
 x,y,z
_cell_length_a 34.0408
_cell_length_b 10.5659
_cell_length_c 11.0449
_cell_angle_alpha 95.227400
_cell_angle_beta 89.070000
_cell_angle_gamma 83.978300
loop_
  _atom_site_label
  _atom_site_type_symbol
  _atom_site_fract_x
  _atom_site_fract_y
  _atom_site_fract_z
C1 C 0.69431 0.10166 0.54043
 C2 C 0.69842 0.06117 0.41551
 C3 C 0.73441 0.06637 0.35518
 C4 C 0.76678 0.11833 0.41244
 C5 C 0.76162 0.16827 0.53795
 C6 C 0.72464 0.16313 0.59762
 H7 H 0.72077 0.19503 0.69363
 H8 H 0.73504 0.04263 0.25797
 C9 C 0.23000 0.85016 0.58147
 C10 C 0.23232 0.83952 0.45310
 C11 C 0.26593 0.87064 0.39347
 C12 C 0.29793 0.91009 0.45857
 C13 C 0.29567 0.92479 0.58807
 C14 C 0.26101 0.89750 0.64715
 H15 H 0.25932 0.90224 0.74562
 H16 H 0.26760 0.86106 0.29478
 C17 C 0.26563 0.40199 -0.51583
 C18 C 0.25146 0.40680 -0.39373
 C19 C 0.21104 0.40007 -0.37173
 C20 C 0.18527 0.38105 -0.46833
 C21 C 0.19795 0.39664 -0.58981
 C22 C 0.23859 0.40533 -0.61069
 H23 H 0.25010 0.40837 -0.70204
 H24 H 0.20079 0.39302 -0.27940
 C25 C -0.19442 0.67387 -0.51841
 C26 C -0.20571 0.66165 -0.39616
 C27 C -0.24542 0.64898 -0.36978
 C28 C -0.27293 0.63645 -0.46213
 C29 C -0.26217 0.65458 -0.58448
 C30 C -0.22268 0.67376 -0.60900
 H31 H -0.21300 0.68854 -0.69993
 H32 H -0.25410 0.63330 -0.27790
 N33 N 0.03430 1.20045 0.18907
 N34 N 0.06621 1.23240 0.24557
 N35 N -0.05534 1.24345 0.12763
 N36 N -0.09400 1.27573 0.12825
 N37 N -0.04627 1.17879 0.22154
 N38 N -0.07804 1.17063 0.28893
 N39 N 0.02753 1.26743 0.09557
 N40 N 0.05551 1.34428 0.08442
 C41 C 0.07891 1.32333 0.18040
 C42 C -0.10762 1.23382 0.23196
 N43 N -0.05797 1.08553 -0.20755
 N44 N -0.08918 1.07920 -0.27637
 N45 N 0.02086 1.21170 -0.16447
 N46 N 0.04867 1.28299 -0.19561
 N47 N 0.02199 1.10786 -0.23992
 N48 N 0.04949 1.10612 -0.32436
 N49 N -0.06147 1.19107 -0.13371
 N50 N -0.09565 1.25886 -0.14982
 Mn51 Mn -0.01718 1.23092 -0.01846
 C52 C -0.11255 1.18758 -0.23916
 C53 C 0.06593 1.21474 -0.29659
 N54 N -0.02969 0.90710 0.24224
 N55 N -0.05726 0.89613 0.32575
 N56 N 0.05543 0.82666 0.13376
 N57 N 0.09000 0.76001 0.14372
 N58 N 0.05174 0.92999 0.21045
 N59 N 0.08384 0.93667 0.27470
 N60 N -0.02458 0.80300 0.16659
 N61 N -0.04770 0.71833 0.19698
 Mn62 Mn 0.00255 1.05461 0.21729
 C63 C -0.06796 0.77725 0.29569
 C64 C 0.10728 0.83020 0.23169
 N65 N 0.04101 0.84238 -0.21470
 N66 N 0.07256 0.84345 -0.28520
 N67 N -0.03252 0.75060 -0.08960
 N68 N -0.06142 0.67862 -0.07405
 N69 N -0.03944 0.81772 -0.18262
 N70 N -0.07233 0.79103 -0.23497
 N71 N 0.04937 0.77337 -0.12365
 N72 N 0.08697 0.72594 -0.13026
 Mn73 Mn -0.00873 0.96296 -0.21182
 Mn74 Mn 0.01204 0.78706 0.02162
 Cl75 Cl -0.00293 1.00945 0.00237
 C76 C 0.10078 0.76915 -0.23261
 C77 C -0.08534 0.70308 -0.16761
 N78 N 0.54880 0.65654 -0.16174
 N79 N 0.58580 0.67521 -0.18771
 N80 N 0.45828 0.66715 -0.20090
 N81 N 0.42747 0.70964 -0.26152
 N82 N 0.46853 0.75716 -0.12163
 N83 N 0.44427 0.86316 -0.12427
 N84 N 0.53681 0.56924 -0.24083
 N85 N 0.56467 0.52778 -0.32273
 C86 C 0.59491 0.59414 -0.28921
 C87 C 0.41908 0.83165 -0.21284
 N88 N 0.43325 0.33742 -0.10103
 N89 N 0.39587 0.31717 -0.08509
 N90 N 0.51685 0.31528 -0.22768
 N91 N 0.54858 0.27799 -0.29716
 N92 N 0.51426 0.23882 -0.14108
 N93 N 0.54419 0.14733 -0.15074
 N94 N 0.43649 0.41374 -0.18722
 N95 N 0.40165 0.44699 -0.23221
 Mn96 Mn 0.48687 0.49085 -0.21511
 C97 C 0.37665 0.38563 -0.16831
 C98 C 0.56496 0.17270 -0.24945
 N99 N 0.47926 0.77880 0.13631
 N100 N 0.44890 0.86899 0.14612
 N101 N 0.55640 0.60735 0.18531
 N102 N 0.58979 0.59227 0.24374
 N103 N 0.55986 0.68043 0.09656
 N104 N 0.59601 0.71453 0.09016
 N105 N 0.47705 0.70244 0.22331
 N106 N 0.44576 0.73899 0.29380
 Mn107 Mn 0.51436 0.72022 -0.01249
 C108 C 0.42880 0.84337 0.24626
 C109 C 0.61410 0.65961 0.18322
 N110 N 0.52532 0.26087 0.11750
 N111 N 0.54939 0.15473 0.12223
 N112 N 0.45546 0.44770 0.23579
 N113 N 0.42890 0.47160 0.32586
 N114 N 0.44527 0.35772 0.15612
 N115 N 0.41157 0.31821 0.18949
 N116 N 0.53512 0.35105 0.19765
 N117 N 0.56556 0.30864 0.26015
 Mn118 Mn 0.47939 0.29686 0.00747
 Mn119 Mn 0.50617 0.52750 0.21172
 Cl120 Cl 0.49674 0.50895 -0.00188
 C121 C 0.57413 0.18636 0.21225
 C122 C 0.40154 0.39118 0.29450
 N123 N 0.36842 0.28168 0.44927
 N124 N 0.33260 0.28256 0.49710
 C125 C 0.30841 0.37537 0.45195
 C126 C 0.32976 0.43484 0.36960
 C127 C 0.36772 0.37295 0.37199
 H128 H 0.31915 0.51075 0.31502
 H129 H 0.39258 0.21719 0.46698
 H130 H 0.32478 0.21816 0.55733
 N131 N -0.09876 0.58763 0.34580
 N132 N -0.13208 0.56046 0.39435
 C133 C -0.15313 0.66986 0.43925
 C134 C -0.13249 0.77255 0.41723
 C135 C -0.09798 0.71525 0.35790
 H136 H -0.14255 0.87333 0.43231
 H137 H -0.07772 0.51981 0.30057
 H138 H -0.14085 0.46880 0.39254
 N139 N 0.68587 0.64998 0.13297
 N140 N 0.72055 0.64515 0.19905
 C141 C 0.71045 0.65940 0.31922
 C142 C 0.66931 0.67729 0.32989
 C143 C 0.65544 0.66745 0.21353
 H144 H 0.65068 0.69581 0.41077
 H145 H 0.68447 0.63324 0.03856
 H146 H 0.74866 0.62326 0.15880
 N147 N 0.14818 1.35375 0.12550
 N148 N 0.18228 1.36840 0.19221
 C149 C 0.17135 1.39823 0.31065
 C150 C 0.12996 1.41188 0.31801
 C151 C 0.11684 1.37675 0.20302
 H152 H 0.11117 1.43251 0.39871
 H153 H 0.14814 1.31132 0.03632
 H154 H 0.21078 1.34192 0.15617
 N155 N 0.60715 -0.01405 -0.34717
 N156 N 0.64310 -0.03133 -0.41189
 C157 C 0.66082 0.07685 -0.39266
 C158 C 0.63687 0.16486 -0.31551
 C159 C 0.60324 0.10543 -0.29200
 H160 H 0.64082 0.26455 -0.29315
 H161 H 0.58532 -0.07655 -0.35542
 H162 H 0.65311 -0.11238 -0.46950
 N163 N 0.17187 0.68411 -0.22304
 N164 N 0.20583 0.70756 -0.27159
 C165 C 0.19869 0.79696 -0.35049
 C166 C 0.15850 0.83364 -0.35017
 C167 C 0.14259 0.75878 -0.26987
 H168 H 0.14289 0.91018 -0.39415
 H169 H 0.16904 0.61991 -0.15769
 H170 H 0.23346 0.66391 -0.24998
 N171 N 0.36103 0.99433 -0.17115
 N172 N 0.32484 1.01622 -0.22774
 C173 C 0.32792 0.95236 -0.33977
 C174 C 0.36530 0.88700 -0.35450
 C175 C 0.38471 0.91355 -0.24834
 H176 H 0.37472 0.80811 -0.42029
 H177 H 0.36588 1.01911 -0.07930
 H178 H 0.29914 1.06274 -0.18454
 N179 N -0.17854 1.31472 -0.23662
 N180 N -0.21376 1.30789 -0.29869
 C181 C -0.20789 1.21215 -0.38907
 C182 C -0.16928 1.15407 -0.38386
 C183 C -0.15210 1.22067 -0.28747
 H184 H -0.15607 1.06971 -0.43839
 H185 H -0.17464 1.37816 -0.16066
 H186 H -0.23976 1.36801 -0.27725
 N187 N 0.64019 0.47947 -0.44779
 N188 N 0.67739 0.49034 -0.49683
 C189 C 0.69204 0.58772 -0.43141
 C190 C 0.66579 0.63689 -0.33652
 C191 C 0.63328 0.56921 -0.35310
 H192 H 0.66844 0.71863 -0.27171
 H193 H 0.62055 0.41762 -0.48425
 H194 H 0.69036 0.43479 -0.57306
 N195 N 0.10948 1.17378 -0.47600
 N196 N 0.14297 1.21732 -0.52302
 C197 C 0.15237 1.31569 -0.44659
 C198 C 0.12614 1.33329 -0.34600
 C199 C 0.09937 1.24376 -0.37027
 H200 H 0.12614 1.40262 -0.26755
 H201 H 0.09528 1.09873 -0.51700
 H202 H 0.15840 1.17586 -0.60173
 N203 N 0.30908 0.32038 -0.13833
 N204 N 0.27572 0.32691 -0.19836
 C205 C 0.27866 0.40315 -0.28908
 C206 C 0.31497 0.45192 -0.28187
 C207 C 0.33395 0.39220 -0.18937
 H208 H 0.32776 0.51044 -0.34430
 H209 H 0.31559 0.26067 -0.06937
 H210 H 0.25280 0.27129 -0.18351
 N211 N -0.15549 0.70108 -0.11233
 N212 N -0.18782 0.69976 -0.17698
 C213 C -0.17763 0.65815 -0.29378
 C214 C -0.13705 0.62738 -0.30084
 C215 C -0.12408 0.65908 -0.18588
 H216 H -0.11796 0.59781 -0.37908
 H217 H -0.15474 0.74399 -0.02347
 H218 H -0.21582 0.73757 -0.14300
 N219 N 0.37148 1.01546 0.26463
 N220 N 0.33692 1.03342 0.32420
 C221 C 0.33307 0.93133 0.38668
 C222 C 0.36486 0.84169 0.35904
 C223 C 0.38929 0.90039 0.28674
 H224 H 0.36945 0.74532 0.38587
 H225 H 0.38242 1.08063 0.21065
 H226 H 0.31615 1.11282 0.32015
 N227 N -0.16085 1.10697 0.16911
 N228 N -0.19319 1.06417 0.22502
 C229 C -0.20015 1.13154 0.33511
 C230 C -0.17150 1.21711 0.35067
 C231 C -0.14781 1.19863 0.24521
 H232 H -0.16789 1.28492 0.42760
 H233 H -0.14656 1.06277 0.08948
 H234 H -0.20653 0.98498 0.18904
 N235 N 0.62882 0.00864 0.17893
 N236 N 0.66233 -0.02443 0.23285
 C237 C 0.66299 0.04682 0.34048
 C238 C 0.62863 0.12952 0.35411
 C239 C 0.60803 0.10335 0.25020
 H240 H 0.62152 0.20762 0.42371
 H241 H 0.62195 -0.02599 0.09106
 H242 H 0.68529 -0.08856 0.19279
 N243 N 0.17179 0.69525 0.23034
 N244 N 0.20488 0.69654 0.29119
 C245 C 0.20054 0.79587 0.37757
 C246 C 0.16415 0.86341 0.36808
 C247 C 0.14659 0.79543 0.27604
 H248 H 0.15294 0.95354 0.41599
 H249 H 0.16718 0.62960 0.15677
 H250 H 0.23031 0.63345 0.27102
   
