data_POSCAR
  _audit_creation_date              2014-09-24
  _audit_creation_method            'ToBaCCo'
  _symmetry_space_group_name_H-M    'P1'
  _symmetry_Int_Tables_number       1
  _symmetry_cell_setting            triclinic
  loop_
  _symmetry_equiv_pos_as_xyz
 x,y,z
_cell_length_a 23.5809
_cell_length_b 23.2258
_cell_length_c 23.2871
_cell_angle_alpha 90.218900
_cell_angle_beta 90.127200
_cell_angle_gamma 89.877800
loop_
  _atom_site_label
  _atom_site_type_symbol
  _atom_site_fract_x
  _atom_site_fract_y
  _atom_site_fract_z
C1 C 0.44913 1.00004 -0.53154
 C2 C 0.44909 0.99979 -0.47093
 C3 C 0.50095 0.99992 -0.44131
 C4 C 0.55298 1.00006 -0.47053
 C5 C 0.55305 0.99986 -0.53126
 C6 C 0.50110 0.99996 -0.56086
 H7 H 0.50110 0.99997 -0.60755
 H8 H 0.50070 0.99990 -0.39465
 C9 C -0.55298 1.47091 0.00028
 C10 C -0.55292 1.53160 -0.00011
 C11 C -0.50108 1.56103 -0.00009
 C12 C -0.44941 1.53118 0.00007
 C13 C -0.44951 1.47059 -0.00002
 C14 C -0.50126 1.44113 0.00020
 H15 H -0.50128 1.39438 0.00031
 H16 H -0.50082 1.60781 -0.00019
 C17 C 0.00064 0.46913 0.44808
 C18 C 0.00044 0.52964 0.44773
 C19 C 0.00054 0.55989 0.49972
 C20 C 0.00052 0.53068 0.55211
 C21 C 0.00014 0.47017 0.55246
 C22 C 0.00035 0.43992 0.50047
 H23 H 0.00027 0.39314 0.50091
 H24 H 0.00060 0.60667 0.49928
 O25 O -0.14656 1.00178 -0.07878
 O26 O 0.14624 0.99796 -0.07851
 O27 O -0.00240 1.07812 -0.14722
 O28 O 0.00189 0.92156 -0.14774
 O29 O 0.00203 0.85214 -0.07711
 O30 O -0.00238 1.14760 -0.07613
 O31 O 0.07611 0.99804 -0.14806
 O32 O -0.07660 1.00163 -0.14819
 Zr33 Zr -0.00019 0.99986 -0.10105
 O34 O 0.05172 0.94791 -0.05217
 O35 O -0.05198 1.05185 -0.05191
 C36 C -0.12905 1.00252 -0.13171
 C37 C 0.12860 0.99718 -0.13148
 C38 C -0.00336 1.13099 -0.12913
 C39 C 0.00289 0.86870 -0.13000
 H40 H 0.07525 1.07624 -0.07596
 O41 O 0.05132 1.05149 -0.05155
 H42 H -0.07560 0.92350 -0.07659
 O43 O -0.05160 0.94828 -0.05199
 O44 O 0.14644 1.00164 0.07892
 O45 O -0.14634 0.99828 0.07869
 O46 O 0.07577 1.14775 0.00248
 O47 O 0.07615 0.85195 -0.00219
 O48 O -0.07592 0.85209 0.00144
 O49 O -0.07630 1.14786 -0.00138
 O50 O 0.00211 1.07826 0.14792
 O51 O -0.00180 0.92171 0.14740
 O52 O 0.00188 1.14768 0.07729
 O53 O -0.00179 0.85223 0.07631
 O54 O 0.14619 1.07847 0.00231
 O55 O -0.14653 1.07868 -0.00168
 O56 O -0.14632 0.92140 0.00161
 O57 O 0.14638 0.92112 -0.00190
 O58 O 0.07651 1.00166 0.14837
 O59 O -0.07621 0.99832 0.14824
 Zr60 Zr 0.10071 0.99983 0.00017
 Zr61 Zr -0.10084 1.00000 -0.00000
 Zr62 Zr -0.00020 1.10031 0.00042
 Zr63 Zr 0.00006 0.89952 -0.00025
 Zr64 Zr 0.00008 0.99997 0.10122
 O65 O -0.05171 0.94807 0.05199
 O66 O 0.05173 1.05183 0.05243
 C67 C 0.12895 1.00245 0.13186
 C68 C -0.12869 0.99751 0.13166
 C69 C 0.12826 1.13138 0.00331
 C70 C 0.12860 0.86823 -0.00293
 C71 C -0.12841 0.86848 0.00234
 C72 C -0.12875 1.13157 -0.00237
 C73 C 0.00294 1.13112 0.13018
 C74 C -0.00268 0.86884 0.12930
 H75 H -0.07559 1.07645 0.07664
 O76 O -0.05159 1.05163 0.05208
 H77 H 0.07566 0.92347 0.07626
 O78 O 0.05160 0.94825 0.05182
 C79 C 0.40062 1.00052 0.43602
 C80 C 0.36110 1.00107 0.40285
 C81 C 0.31756 1.00178 0.35910
 C82 C 0.29706 0.94991 0.33618
 C83 C 0.25949 0.95042 0.28949
 C84 C 0.24234 1.00280 0.26515
 C85 C 0.26221 1.05470 0.28856
 C86 C 0.29978 1.05418 0.33526
 C87 C 0.20400 1.00320 0.21663
 C88 C 0.17083 1.00313 0.17696
 H89 H 0.31099 0.90908 0.35364
 H90 H 0.24432 0.90999 0.27198
 H91 H 0.24917 1.09549 0.27033
 H92 H 0.31585 1.09457 0.35201
 C93 C -0.39849 0.99937 0.43635
 C94 C -0.35914 0.99882 0.40314
 C95 C -0.31588 0.99809 0.35928
 C96 C -0.29862 0.94572 0.33467
 C97 C -0.26140 0.94523 0.28784
 C98 C -0.24138 0.99713 0.26505
 C99 C -0.25801 1.04947 0.29016
 C100 C -0.29522 1.04995 0.33698
 C101 C -0.20337 0.99676 0.21643
 C102 C -0.17041 0.99684 0.17672
 H103 H -0.31483 0.90534 0.35092
 H104 H -0.24876 0.90446 0.26902
 H105 H -0.24271 1.08990 0.27315
 H106 H -0.30876 1.09077 0.35504
 C107 C -0.39866 1.00057 -0.43779
 C108 C -0.35939 1.00114 -0.40430
 C109 C -0.31623 1.00186 -0.36015
 C110 C -0.29896 1.05426 -0.33569
 C111 C -0.26181 1.05478 -0.28864
 C112 C -0.24187 1.00288 -0.26549
 C113 C -0.25851 0.95052 -0.29044
 C114 C -0.29566 0.95000 -0.33748
 C115 C -0.20386 1.00329 -0.21670
 C116 C -0.17087 1.00322 -0.17687
 H117 H -0.31510 1.09465 -0.35225
 H118 H -0.24914 1.09558 -0.26995
 H119 H -0.24327 0.91009 -0.27315
 H120 H -0.30921 0.90917 -0.35542
 C121 C 0.39797 0.99923 -0.43657
 C122 C 0.35892 0.99864 -0.40303
 C123 C 0.31589 0.99789 -0.35896
 C124 C 0.29524 1.04974 -0.33603
 C125 C 0.25804 1.04920 -0.28921
 C126 C 0.24141 0.99682 -0.26474
 C127 C 0.26146 0.94494 -0.28813
 C128 C 0.29866 0.94548 -0.33497
 C129 C 0.20334 0.99640 -0.21619
 C130 C 0.17034 0.99647 -0.17652
 H131 H 0.30873 1.09058 -0.35363
 H132 H 0.24272 1.08962 -0.27172
 H133 H 0.24881 0.90414 -0.26982
 H134 H 0.31484 0.90510 -0.35175
 C135 C 0.39593 1.43682 0.00099
 C136 C 0.35669 1.40363 0.00174
 C137 C 0.31354 1.35989 0.00268
 C138 C 0.29726 1.33532 0.05498
 C139 C 0.26032 1.28826 0.05558
 C140 C 0.23972 1.26536 0.00385
 C141 C 0.25528 1.29050 -0.04839
 C142 C 0.29221 1.33755 -0.04899
 C143 C 0.20221 1.21652 0.00429
 C144 C 0.16960 1.17660 0.00416
 H145 H 0.31408 1.35172 0.09516
 H146 H 0.24839 1.26932 0.09624
 H147 H 0.23942 1.27331 -0.08864
 H148 H 0.30509 1.35568 -0.08971
 C149 C 0.39860 0.56383 -0.00071
 C150 C 0.35892 0.59666 -0.00140
 C151 C 0.31526 0.64007 -0.00228
 C152 C 0.29428 0.66254 0.04941
 C153 C 0.25694 0.70943 0.04883
 C154 C 0.24064 0.73427 -0.00343
 C155 C 0.26087 0.71120 -0.05518
 C156 C 0.29821 0.66430 -0.05460
 C157 C 0.20285 0.78305 -0.00386
 C158 C 0.17007 0.82297 -0.00375
 H159 H 0.30776 0.64469 0.09014
 H160 H 0.24139 0.72677 0.08910
 H161 H 0.24838 0.72991 -0.09585
 H162 H 0.31476 0.64780 -0.09480
 C163 C -0.39816 0.56496 0.00057
 C164 C -0.35867 0.59784 0.00113
 C165 C -0.31513 0.64118 0.00187
 C166 C -0.29774 0.66557 0.05415
 C167 C -0.26036 0.71228 0.05464
 C168 C -0.24043 0.73499 0.00283
 C169 C -0.25709 0.71002 -0.04941
 C170 C -0.29446 0.66332 -0.04989
 C171 C -0.20259 0.78356 0.00319
 C172 C -0.16980 0.82333 0.00307
 H173 H -0.31403 0.64931 0.09441
 H174 H -0.24760 0.73110 0.09529
 H175 H -0.24176 0.72710 -0.08972
 H176 H -0.30818 0.64533 -0.09059
 C177 C -0.39837 1.43641 -0.00057
 C178 C -0.35897 1.40324 -0.00117
 C179 C -0.31554 1.35961 -0.00194
 C180 C -0.29448 1.33750 0.04981
 C181 C -0.25716 1.29060 0.04931
 C182 C -0.24094 1.26539 -0.00291
 C183 C -0.26128 1.28806 -0.05471
 C184 C -0.29860 1.33497 -0.05422
 C185 C -0.20308 1.21667 -0.00327
 C186 C -0.17025 1.17680 -0.00314
 H187 H -0.30785 1.35569 0.09050
 H188 H -0.24152 1.27357 0.08962
 H189 H -0.24884 1.26906 -0.09535
 H190 H -0.31519 1.35121 -0.09446
 C191 C 0.00131 1.43696 0.39920
 C192 C 0.00206 1.40429 0.35908
 C193 C 0.00297 1.36089 0.31526
 C194 C -0.04814 1.33885 0.29391
 C195 C -0.04765 1.29123 0.25716
 C196 C 0.00392 1.26542 0.24200
 C197 C 0.05511 1.28814 0.26242
 C198 C 0.05461 1.33578 0.29918
 C199 C 0.00423 1.21616 0.20481
 C200 C 0.00396 1.17605 0.17209
 H201 H -0.08831 1.35751 0.30685
 H202 H -0.08741 1.27406 0.24125
 H203 H 0.09519 1.26858 0.25059
 H204 H 0.09428 1.35205 0.31621
 C205 C -0.00076 1.43684 -0.39572
 C206 C -0.00170 1.40424 -0.35582
 C207 C -0.00283 1.36086 -0.31232
 C208 C -0.05454 1.33581 -0.29687
 C209 C -0.05519 1.28813 -0.26052
 C210 C -0.00411 1.26531 -0.23989
 C211 C 0.04751 1.29107 -0.25441
 C212 C 0.04816 1.33872 -0.29074
 C213 C -0.00456 1.21602 -0.20313
 C214 C -0.00437 1.17590 -0.17073
 H215 H -0.09412 1.35215 -0.31409
 H216 H -0.09532 1.26862 -0.24920
 H217 H 0.08719 1.27382 -0.23832
 H218 H 0.08838 1.35732 -0.30320
 C219 C 0.00111 0.56284 -0.39900
 C220 C 0.00180 0.59551 -0.35888
 C221 C 0.00269 0.63891 -0.31506
 C222 C 0.05437 0.66354 -0.29845
 C223 C 0.05490 0.71118 -0.26170
 C224 C 0.00372 0.73440 -0.24182
 C225 C -0.04790 0.70908 -0.25751
 C226 C -0.04842 0.66145 -0.29425
 C227 C 0.00408 0.78366 -0.20463
 C228 C 0.00386 0.82377 -0.17191
 H229 H 0.09405 0.64687 -0.31508
 H230 H 0.09502 0.73036 -0.24947
 H231 H -0.08765 0.72664 -0.24201
 H232 H -0.08861 0.64318 -0.30759
 C233 C -0.00019 0.56297 0.39590
 C234 C -0.00093 0.59558 0.35600
 C235 C -0.00189 0.63897 0.31249
 C236 C -0.05364 0.66356 0.29591
 C237 C -0.05429 0.71124 0.25957
 C238 C -0.00316 0.73453 0.24008
 C239 C 0.04853 0.70924 0.25572
 C240 C 0.04918 0.66158 0.29205
 C241 C -0.00364 0.78382 0.20330
 C242 C -0.00353 0.82393 0.17090
 H243 H -0.09330 0.64685 0.31225
 H244 H -0.09446 0.73039 0.24736
 H245 H 0.08825 0.72686 0.24052
 H246 H 0.08941 0.64334 0.30539
   
