data_POSCAR
  _audit_creation_date              2014-09-24
  _audit_creation_method            'ToBaCCo'
  _symmetry_space_group_name_H-M    'P1'
  _symmetry_Int_Tables_number       1
  _symmetry_cell_setting            triclinic
  loop_
  _symmetry_equiv_pos_as_xyz
 x,y,z
_cell_length_a 16.6753
_cell_length_b 16.7030
_cell_length_c 30.1416
_cell_angle_alpha 89.978800
_cell_angle_beta 89.898900
_cell_angle_gamma 119.264700
loop_
  _atom_site_label
  _atom_site_type_symbol
  _atom_site_fract_x
  _atom_site_fract_y
  _atom_site_fract_z
Zn1 Zn 0.94078 0.06961 1.02138
 Zn2 Zn 1.11930 0.06774 1.02210
 Zn3 Zn 0.94154 -0.10931 1.02475
 Zn4 Zn 0.99959 0.00404 0.94236
 O5 O 1.00021 0.00796 1.00275
 O6 O 1.01392 0.17109 1.05232
 O7 O 1.14674 -0.00272 1.05672
 O8 O 0.84604 -0.13094 1.05969
 O9 O 1.14500 0.16779 1.05391
 O10 O 0.84615 0.00177 1.05758
 O11 O 1.01527 -0.13376 1.05853
 O12 O 0.94065 -0.11015 0.92127
 O13 O 1.20154 0.10595 0.97779
 O14 O 0.89787 -0.19535 0.98214
 O15 O 1.11219 0.05495 0.91895
 O16 O 0.94471 0.06203 0.91781
 O17 O 0.89613 0.10642 0.97644
 C18 C 1.09724 0.20533 1.06416
 C19 C 1.09888 -0.08520 1.06967
 C20 C 0.81364 -0.07976 1.07191
 C21 C 0.90167 -0.18792 0.94018
 C22 C 1.19169 0.09555 0.93614
 C23 C 0.90287 0.10076 0.93476
 Zn24 Zn 0.06414 0.95274 0.52760
 Zn25 Zn -0.11880 0.94903 0.52251
 Zn26 Zn 0.05740 1.12830 0.51904
 Zn27 Zn 0.00362 0.99924 0.44393
 O28 O 0.00147 1.00713 0.50358
 O29 O -0.00808 0.85875 0.56302
 O30 O -0.14801 1.02452 0.55209
 O31 O 0.15458 1.16016 0.55403
 O32 O -0.14238 0.85617 0.55964
 O33 O 0.15940 1.03055 0.56125
 O34 O -0.01739 1.15547 0.55026
 O35 O 0.06074 1.10712 0.41709
 O36 O -0.20131 0.90036 0.47798
 O37 O 0.09671 1.20573 0.47221
 O38 O -0.10759 0.94344 0.42041
 O39 O 0.05663 0.93569 0.42523
 O40 O 0.10759 0.90410 0.48689
 C41 C -0.09203 0.82431 0.57392
 C42 C -0.10098 1.10904 0.56193
 C43 C 0.18974 1.11464 0.57064
 C44 C 0.09376 1.18862 0.43100
 C45 C -0.18806 0.90244 0.43639
 C46 C 0.09705 0.89872 0.44512
 O47 O 0.19490 0.50670 0.28472
 O48 O 0.19380 0.65801 0.30436
 C49 C 0.23332 0.74197 0.31524
 O50 O 0.30641 0.80234 0.29646
 O51 O 0.46254 0.80056 0.30789
 C52 C 0.50783 0.75813 0.31231
 O53 O 0.48991 0.68633 0.29057
 O54 O 0.33643 0.53152 0.29833
 C55 C 0.25022 0.48675 0.30412
 O56 O 0.20310 0.54728 0.19820
 O57 O 0.19416 0.69500 0.21721
 C58 C 0.25123 0.76825 0.19764
 O59 O 0.33545 0.81265 0.20802
 O60 O 0.49197 0.81677 0.22012
 C61 C 0.51352 0.76512 0.19827
 O62 O 0.47118 0.67839 0.20228
 O63 O 0.31970 0.52019 0.20944
 C64 C 0.24867 0.50745 0.18821
 Cr65 Cr 0.20193 0.60457 0.25124
 Cr66 Cr 0.39618 0.80263 0.25801
 Cr67 Cr 0.40142 0.60673 0.25031
 O68 O 0.33333 0.67138 0.25333
 O69 O 0.80367 0.49888 0.79391
 O70 O 0.79727 0.34052 0.80317
 C71 C 0.75345 0.25431 0.80887
 O72 O 0.68640 0.20139 0.78442
 O73 O 0.53524 0.20790 0.80087
 C74 C 0.49313 0.25146 0.81069
 O75 O 0.50629 0.32386 0.79070
 O76 O 0.66104 0.47180 0.80756
 C77 C 0.74610 0.51154 0.81621
 O78 O 0.80252 0.47998 0.70492
 O79 O 0.80525 0.32515 0.71429
 C80 C 0.74894 0.25956 0.68997
 O81 O 0.66292 0.21737 0.69711
 O82 O 0.50692 0.21401 0.71347
 C83 C 0.49188 0.27339 0.69464
 O84 O 0.53676 0.35834 0.70339
 O85 O 0.68900 0.51032 0.72043
 C86 C 0.75941 0.52388 0.69831
 Cr87 Cr 0.79721 0.40876 0.75398
 Cr88 Cr 0.60043 0.21522 0.74907
 Cr89 Cr 0.60099 0.41349 0.75540
 O90 O 0.66617 0.34592 0.75268
 C91 C 0.22305 0.35875 0.15972
 C92 C 0.18643 0.28597 0.13007
 C93 C 0.13892 0.28826 0.09234
 C94 C 0.13223 0.36820 0.08321
 C95 C 0.17097 0.44351 0.11325
 C96 C 0.21451 0.43726 0.15260
 C97 C 0.16727 0.52344 0.10188
 N98 N 0.12573 0.52646 0.06379
 N99 N 0.08863 0.45564 0.03598
 C100 C 0.09087 0.37697 0.04421
 H101 H 0.25606 0.35218 0.18938
 H102 H 0.19275 0.22580 0.13749
 H103 H 0.19882 0.58451 0.12208
 H104 H 0.06191 0.32305 0.01970
 C105 C 0.58568 0.76621 0.12620
 C106 C 0.65765 0.80358 0.09563
 C107 C 0.73863 0.88502 0.10494
 C108 C 0.74862 0.92843 0.14655
 C109 C 0.67595 0.88983 0.17809
 C110 C 0.59272 0.80857 0.16728
 C111 C 0.69132 0.93218 0.22010
 N112 N 0.77228 1.00834 0.22908
 N113 N 0.83969 1.04491 0.19928
 C114 C 0.83094 1.00745 0.15852
 H115 H 0.52350 0.70381 0.11754
 H116 H 0.64980 0.76899 0.06422
 H117 H 0.64156 0.90497 0.24655
 H118 H 0.88920 1.03918 0.13632
 C119 C 0.13106 0.80097 0.17017
 C120 C 0.09386 0.83539 0.13926
 C121 C 0.14024 0.87512 0.09968
 C122 C 0.22429 0.87658 0.09021
 C123 C 0.26211 0.84071 0.12160
 C124 C 0.21573 0.80456 0.16248
 C125 C 0.34325 0.83921 0.11001
 N126 N 0.38410 0.87301 0.07026
 N127 N 0.34890 0.90707 0.04105
 C128 C 0.27025 0.90948 0.04952
 H129 H 0.09394 0.77270 0.20088
 H130 H 0.02916 0.83298 0.14684
 H131 H 0.37385 0.80986 0.13147
 H132 H 0.24342 0.93511 0.02395
 C133 C 0.81612 0.68568 0.67805
 C134 C 0.85206 0.75847 0.64805
 C135 C 0.86780 0.74466 0.60385
 C136 C 0.84426 0.65540 0.58910
 C137 C 0.80567 0.58089 0.61940
 C138 C 0.79427 0.59706 0.66451
 C139 C 0.77689 0.49216 0.60305
 N140 N 0.78966 0.47993 0.55965
 N141 N 0.82832 0.55025 0.53147
 C142 C 0.85588 0.63752 0.54465
 H143 H 0.80648 0.69885 0.71231
 H144 H 0.86909 0.82641 0.65957
 H145 H 0.74332 0.43233 0.62419
 H146 H 0.88559 0.69184 0.52019
 C147 C 0.41610 0.18606 0.62698
 C148 C 0.34267 0.14673 0.59745
 C149 C 0.26640 0.15996 0.60250
 C150 C 0.26357 0.21300 0.63875
 C151 C 0.33880 0.25355 0.66865
 C152 C 0.41580 0.24018 0.66238
 C153 C 0.33221 0.30247 0.70524
 N154 N 0.25598 0.31063 0.71115
 N155 N 0.18525 0.27223 0.68335
 C156 C 0.18601 0.22328 0.64766
 H157 H 0.47361 0.17372 0.62232
 H158 H 0.34540 0.10549 0.57037
 H159 H 0.38590 0.33301 0.72969
 H160 H 0.12493 0.19146 0.62748
 C161 C 0.74876 0.13176 0.64890
 C162 C 0.78424 0.09545 0.61800
 C163 C 0.85651 0.15252 0.58953
 C164 C 0.88946 0.24888 0.59077
 C165 C 0.85647 0.28628 0.62398
 C166 C 0.78563 0.22673 0.65352
 C167 C 0.89410 0.38223 0.62549
 N168 N 0.95709 0.43632 0.59497
 N169 N 0.98470 0.40113 0.56269
 C170 C 0.95261 0.30960 0.55928
 H171 H 0.69446 0.08496 0.67086
 H172 H 0.75667 0.02175 0.61754
 H173 H 0.87333 0.41530 0.64993
 H174 H 0.97483 0.28590 0.53103
 C175 C 0.33451 0.20120 0.83398
 C176 C 0.26207 0.16236 0.86394
 C177 C 0.27320 0.13410 0.90628
 C178 C 0.36101 0.14580 0.91832
 C179 C 0.43580 0.18876 0.88803
 C180 C 0.42123 0.21398 0.84519
 C181 C 0.52345 0.20676 0.90201
 N182 N 0.53421 0.17765 0.94238
 N183 N 0.46333 0.13223 0.96971
 C184 C 0.37735 0.11496 0.95907
 H185 H 0.32234 0.22058 0.80140
 H186 H 0.19644 0.15490 0.85380
 H187 H 0.58365 0.24421 0.88139
 H188 H 0.32329 0.07618 0.98248
 C189 C 0.75982 0.65208 0.84940
 C190 C 0.79879 0.72545 0.87879
 C191 C 0.85895 0.72917 0.91212
 C192 C 0.87926 0.65631 0.91624
 C193 C 0.83936 0.58138 0.88618
 C194 C 0.78087 0.58071 0.85192
 C195 C 0.85899 0.50914 0.89170
 N196 N 0.91719 0.51348 0.92415
 N197 N 0.95697 0.58507 0.95142
 C198 C 0.94033 0.65667 0.94852
 H199 H 0.71540 0.65275 0.82336
 H200 H 0.78258 0.78054 0.87518
 H201 H 0.82790 0.44889 0.87094
 H202 H 0.97549 0.71309 0.97134
 C203 C 0.88121 0.25384 0.85013
 C204 C 0.91774 0.21662 0.87995
 C205 C 0.86024 0.13906 0.90502
 C206 C 0.76384 0.09796 0.90015
 C207 C 0.72607 0.13489 0.86934
 C208 C 0.78589 0.21357 0.84363
 C209 C 0.62958 0.09192 0.86612
 N210 N 0.57584 0.01709 0.89120
 N211 N 0.61161 -0.01807 0.91945
 C212 C 0.70366 0.01967 0.92476
 H213 H 0.92831 0.31343 0.83098
 H214 H 0.99173 0.24848 0.88338
 H215 H 0.59550 0.11704 0.84464
 H216 H 0.72881 -0.01196 0.94815
 C217 C 0.58045 0.82927 0.38429
 C218 C 0.65242 0.86099 0.41480
 C219 C 0.73310 0.85758 0.40533
 C220 C 0.73991 0.81869 0.36447
 C221 C 0.66928 0.79165 0.33237
 C222 C 0.58728 0.79420 0.34307
 C223 C 0.68466 0.76483 0.29015
 N224 N 0.76072 0.75730 0.28244
 N225 N 0.82305 0.77521 0.31385
 C226 C 0.81502 0.80500 0.35451
 H227 H 0.51885 0.83218 0.39297
 H228 H 0.64573 0.89028 0.44572
 H229 H 0.63859 0.75136 0.26269
 H230 H 0.86685 0.81599 0.37866
 C231 C 0.25052 0.41583 0.37636
 C232 C 0.21056 0.34537 0.40760
 C233 C 0.12906 0.26424 0.39809
 C234 C 0.08620 0.25476 0.35616
 C235 C 0.12949 0.32438 0.32363
 C236 C 0.21064 0.40697 0.33451
 C237 C 0.09034 0.30820 0.28089
 N238 N 0.00947 0.23138 0.27272
 N239 N -0.03484 0.16943 0.30424
 C240 C 0.00024 0.17863 0.34562
 H241 H 0.31239 0.47837 0.38519
 H242 H 0.24422 0.35392 0.43934
 H243 H 0.12349 0.35490 0.25362
 H244 H -0.04067 0.12701 0.36984
 C245 C 0.25463 0.84260 0.37972
 C246 C 0.22263 0.87926 0.41238
 C247 C 0.12843 0.84571 0.41817
 C248 C 0.06517 0.77072 0.39233
 C249 C 0.09714 0.73628 0.35756
 C250 C 0.19347 0.77242 0.35135
 C251 C 0.03079 0.66986 0.32924
 N252 N -0.06008 0.63504 0.33787
 N253 N -0.08957 0.66315 0.37240
 C254 C -0.03010 0.72998 0.39982
 H255 H 0.32821 0.87119 0.37578
 H256 H 0.27177 0.93688 0.43187
 H257 H 0.04918 0.64642 0.29978
 H258 H -0.05773 0.75070 0.42726
   
