data_POSCAR
  _audit_creation_date              2014-09-24
  _audit_creation_method            'ToBaCCo'
  _symmetry_space_group_name_H-M    'P1'
  _symmetry_Int_Tables_number       1
  _symmetry_cell_setting            triclinic
  loop_
  _symmetry_equiv_pos_as_xyz
 x,y,z
_cell_length_a 38.5759
_cell_length_b 37.8865
_cell_length_c 26.7773
_cell_angle_alpha 89.527000
_cell_angle_beta 90.295600
_cell_angle_gamma 121.065900
loop_
  _atom_site_label
  _atom_site_type_symbol
  _atom_site_fract_x
  _atom_site_fract_y
  _atom_site_fract_z
O1 O -0.05171 0.43843 -0.02038
 O2 O -0.00957 0.52808 0.06376
 O3 O -0.05293 0.50638 -0.01630
 O4 O -0.00885 0.46030 0.06328
 O5 O 0.04625 0.48919 0.01669
 O6 O 0.00394 0.54006 -0.05921
 O7 O 0.04708 0.55787 0.02000
 O8 O 0.00319 0.47114 -0.06704
 Cu9 Cu -0.03648 0.47968 0.02696
 Cu10 Cu 0.03069 0.51711 -0.02714
 C11 C -0.03190 0.44035 -0.05915
 C12 C 0.02606 0.55822 0.05612
 C13 C -0.03176 0.53201 -0.05034
 C14 C 0.02657 0.46776 0.05450
 O15 O 0.55486 0.50890 -0.02466
 O16 O 0.46224 0.46778 0.05116
 O17 O 0.48254 0.44433 -0.02801
 O18 O 0.53400 0.53255 0.05687
 O19 O 0.51550 0.56782 0.00913
 O20 O 0.46280 0.47881 -0.07526
 O21 O 0.44302 0.50335 0.00509
 O22 O 0.53410 0.54233 -0.07231
 Cu23 Cu 0.51077 0.48524 0.01861
 Cu24 Cu 0.48699 0.52680 -0.03781
 C25 C 0.55926 0.53116 -0.06269
 C26 C 0.43704 0.47889 0.04121
 C27 C 0.46426 0.44661 -0.06642
 C28 C 0.53269 0.56480 0.04819
 O29 O 0.51604 0.99655 -0.07497
 O30 O 0.43898 0.95209 0.02395
 O31 O 0.44926 0.99556 -0.05604
 O32 O 0.50531 0.95321 0.00672
 O33 O 0.53935 1.01016 0.05089
 O34 O 0.48546 1.05360 -0.01462
 O35 O 0.47250 1.00964 0.06705
 O36 O 0.55165 1.05282 -0.03010
 Cu37 Cu 0.47406 0.96868 -0.02960
 Cu38 Cu 0.51558 1.03735 0.02266
 C39 C 0.54715 1.03208 -0.06920
 C40 C 0.44257 0.97315 0.06239
 C41 C 0.45818 1.03208 -0.04650
 C42 C 0.53134 0.97417 0.04009
 O43 O 0.95569 0.51067 0.51858
 O44 O 1.00207 0.47778 0.42482
 O45 O 0.94121 0.44017 0.48816
 O46 O 1.01939 0.54848 0.46193
 O47 O 1.05879 0.54513 0.51944
 O48 O 0.98135 0.43708 0.54490
 O49 O 1.04153 0.47451 0.48239
 O50 O 0.99430 0.50687 0.57700
 Cu51 Cu 0.97584 0.49454 0.46730
 Cu52 Cu 1.02306 0.49075 0.53663
 C53 C 0.96634 0.51342 0.56394
 C54 C 1.02988 0.47099 0.43722
 C55 C 0.94770 0.42057 0.52206
 C56 C 1.05263 0.56520 0.48603
 O57 O 0.53379 0.52848 0.42622
 O58 O 0.49087 0.44576 0.52089
 O59 O 0.46307 0.46435 0.44281
 O60 O 0.56198 0.51148 0.50666
 O61 O 0.54561 0.54924 0.55189
 O62 O 0.44662 0.50161 0.48888
 O63 O 0.47527 0.48313 0.56803
 O64 O 0.51770 0.56574 0.47290
 Cu65 Cu 0.51422 0.48384 0.46963
 Cu66 Cu 0.49445 0.52843 0.52523
 C67 C 0.53269 0.56098 0.43318
 C68 C 0.47592 0.45040 0.56065
 C69 C 0.43830 0.47551 0.45445
 C70 C 0.57062 0.53847 0.54010
 O71 O 0.46506 -0.00329 0.57527
 O72 O 0.49754 -0.05542 0.48760
 O73 O 0.52726 -0.01056 0.56837
 O74 O 0.43312 -0.05038 0.49694
 O75 O 0.46128 0.00549 0.44948
 O76 O 0.55672 0.04493 0.52017
 O77 O 0.52469 -0.00006 0.43917
 O78 O 0.49343 0.05225 0.52707
 Cu79 Cu 0.47786 -0.03560 0.53665
 Cu80 Cu 0.51216 0.03127 0.47918
 C81 C 0.47425 0.03354 0.56636
 C82 C 0.51576 -0.03678 0.44770
 C83 C 0.55759 0.02436 0.55747
 C84 C 0.43109 -0.02960 0.46076
 C85 C 0.34778 0.48428 0.22556
 C86 C 0.34690 0.48256 0.27661
 C87 C 0.30961 0.47619 0.29111
 N88 N 0.28798 0.47452 0.25029
 C89 C 0.31103 0.47898 0.21007
 C90 C 0.29797 0.47646 0.34118
 C91 C 0.26037 0.47187 0.35434
 C92 C 0.25186 0.48214 0.40040
 C93 C 0.21210 0.47181 0.39908
 C94 C 0.19709 0.45496 0.35246
 N95 N 0.22668 0.45495 0.32550
 C96 C 0.15644 0.43823 0.33698
 C97 C 0.14416 0.42782 0.28677
 C98 C 0.10465 0.40238 0.27077
 C99 C 0.10553 0.40384 0.21949
 C100 C 0.14552 0.43039 0.20596
 N101 N 0.16910 0.44467 0.24714
 C102 C 0.15965 0.44402 0.15682
 C103 C 0.20106 0.46241 0.14422
 C104 C 0.21819 0.48295 0.09970
 C105 C 0.25798 0.49346 0.10046
 C106 C 0.26441 0.47965 0.14571
 N107 N 0.22950 0.46053 0.17206
 C108 C 0.30119 0.48269 0.15999
 H109 H 0.37355 0.49070 0.20294
 H110 H 0.37189 0.48739 0.29998
 H111 H 0.22426 0.44320 0.20448
 H112 H 0.27211 0.49573 0.43187
 H113 H 0.19617 0.47613 0.42931
 H114 H 0.07797 0.38480 0.29368
 H115 H 0.07965 0.38746 0.19505
 H116 H 0.27959 0.50946 0.07080
 H117 H 0.22285 0.44036 0.29146
 H118 H 0.20366 0.48959 0.06947
 C119 C 0.60888 0.71007 0.21438
 C120 C 0.61064 0.70994 0.26567
 C121 C 0.58839 0.72679 0.28239
 N122 N 0.57326 0.73730 0.24328
 C123 C 0.58531 0.72668 0.20167
 C124 C 0.57877 0.72882 0.33267
 C125 C 0.56621 0.75607 0.34829
 C126 C 0.54893 0.75443 0.39425
 C127 C 0.54375 0.78766 0.39603
 C128 C 0.55774 0.80861 0.35103
 N129 N 0.57145 0.78921 0.32215
 C130 C 0.55922 0.84569 0.33855
 C131 C 0.56346 0.85969 0.28846
 C132 C 0.57169 0.89831 0.27329
 C133 C 0.56695 0.89684 0.22239
 C134 C 0.55763 0.85786 0.20774
 N135 N 0.55543 0.83526 0.24826
 C136 C 0.54659 0.84159 0.15901
 C137 C 0.54439 0.80460 0.14495
 C138 C 0.52654 0.78300 0.10145
 C139 C 0.53382 0.75114 0.09962
 C140 C 0.55610 0.75419 0.14191
 N141 N 0.56251 0.78693 0.16925
 C142 C 0.57174 0.72850 0.15311
 H143 H 0.62294 0.69881 0.18941
 H144 H 0.62623 0.69849 0.28808
 H145 H 0.58179 0.79907 0.19989
 H146 H 0.54083 0.73172 0.42363
 H147 H 0.53087 0.79530 0.42692
 H148 H 0.57948 0.92470 0.29637
 H149 H 0.56973 0.92176 0.19950
 H150 H 0.52389 0.72847 0.07026
 H151 H 0.58723 0.80025 0.28870
 H152 H 0.51043 0.78973 0.07341
 C153 C 0.11747 0.65678 0.28333
 C154 C 0.12282 0.65576 0.23297
 C155 C 0.14972 0.69604 0.21805
 N156 N 0.16166 0.72144 0.25783
 C157 C 0.14210 0.69743 0.29773
 C158 C 0.16161 0.70948 0.16831
 C159 C 0.19510 0.74873 0.15682
 C160 C 0.20352 0.76706 0.10993
 C161 C 0.24081 0.80260 0.11315
 C162 C 0.25416 0.80488 0.16191
 N163 N 0.22596 0.77210 0.18834
 C164 C 0.29329 0.83394 0.17928
 C165 C 0.30295 0.83973 0.23071
 C166 C 0.34171 0.85910 0.25037
 C167 C 0.33763 0.85866 0.30127
 C168 C 0.29648 0.83917 0.31111
 N169 N 0.27533 0.82757 0.26786
 C170 C 0.27904 0.83349 0.35917
 C171 C 0.23781 0.80456 0.36889
 C172 C 0.21743 0.80250 0.41239
 C173 C 0.17923 0.76798 0.40885
 C174 C 0.17750 0.74985 0.36344
 N175 N 0.21328 0.77234 0.33940
 C176 C 0.14473 0.71189 0.34668
 H177 H 0.09827 0.63047 0.30688
 H178 H 0.10865 0.62830 0.21032
 H179 H 0.22216 0.76355 0.30758
 H180 H 0.18511 0.75556 0.07659
 H181 H 0.25675 0.82376 0.08270
 H182 H 0.36997 0.87141 0.23038
 H183 H 0.36227 0.87065 0.32788
 H184 H 0.15575 0.75704 0.43691
 H185 H 0.23016 0.76313 0.22356
 H186 H 0.22905 0.82336 0.44373
 C187 C 0.68495 0.57470 0.71788
 C188 C 0.68739 0.57963 0.76872
 C189 C 0.71198 0.56553 0.78618
 N190 N 0.72609 0.55395 0.74735
 C191 C 0.70976 0.55961 0.70546
 C192 C 0.71769 0.55895 0.83699
 C193 C 0.74749 0.54992 0.85187
 C194 C 0.74776 0.53203 0.89714
 C195 C 0.78196 0.52938 0.89762
 C196 C 0.80180 0.54586 0.85268
 N197 N 0.78071 0.55866 0.82519
 C198 C 0.83980 0.55136 0.83974
 C199 C 0.85587 0.56263 0.79098
 C200 C 0.89569 0.57733 0.77723
 C201 C 0.89697 0.57990 0.72616
 C202 C 0.85764 0.56480 0.71008
 N203 N 0.83274 0.55493 0.74976
 C204 C 0.84410 0.55537 0.66009
 C205 C 0.80484 0.54559 0.64560
 C206 C 0.78577 0.52607 0.60157
 C207 C 0.74867 0.52303 0.60123
 C208 C 0.74608 0.54092 0.64500
 N209 N 0.78065 0.55493 0.67160
 C210 C 0.71376 0.54673 0.65747
 H211 H 0.66670 0.58147 0.69359
 H212 H 0.67187 0.59134 0.79027
 H213 H 0.78893 0.57330 0.70327
 H214 H 0.72554 0.52168 0.92672
 H215 H 0.79135 0.51729 0.92814
 H216 H 0.92153 0.58522 0.80052
 H217 H 0.92377 0.59045 0.70357
 H218 H 0.72647 0.50972 0.57160
 H219 H 0.79027 0.57589 0.79229
 H220 H 0.79724 0.51495 0.57272
 C221 C 0.41603 0.10532 0.78041
 C222 C 0.41262 0.10343 0.72938
 C223 C 0.42414 0.14271 0.71276
 N224 N 0.43265 0.16799 0.75215
 C225 C 0.42767 0.14527 0.79366
 C226 C 0.43143 0.15633 0.66241
 C227 C 0.43595 0.19441 0.64766
 C228 C 0.45276 0.21463 0.60291
 C229 C 0.45018 0.24952 0.60222
 C230 C 0.43162 0.24957 0.64646
 N231 N 0.42301 0.21582 0.67389
 C232 C 0.42117 0.27903 0.65953
 C233 C 0.40940 0.28146 0.70856
 C234 C 0.38768 0.29970 0.72227
 C235 C 0.38715 0.29965 0.77359
 C236 C 0.40892 0.28175 0.78930
 N237 N 0.42197 0.27016 0.74950
 C238 C 0.42066 0.28013 0.83891
 C239 C 0.43392 0.25295 0.85303
 C240 C 0.45497 0.25583 0.89647
 C241 C 0.46017 0.22256 0.89723
 C242 C 0.44234 0.20031 0.85412
 N243 N 0.42617 0.21892 0.82757
 C244 C 0.43862 0.16223 0.84209
 H245 H 0.41083 0.07990 0.80414
 H246 H 0.40375 0.07634 0.70715
 H247 H 0.40744 0.20697 0.79643
 H248 H 0.46586 0.20546 0.57385
 H249 H 0.46088 0.27218 0.57243
 H250 H 0.37406 0.31211 0.69784
 H251 H 0.37296 0.31198 0.79664
 H252 H 0.47498 0.21545 0.92665
 H253 H 0.40579 0.20588 0.70644
 H254 H 0.46557 0.27937 0.92482
 C255 C 0.69539 0.08736 0.71915
 C256 C 0.69194 0.08875 0.77005
 C257 C 0.71447 0.12993 0.78314
 N258 N 0.73181 0.15363 0.74220
 C259 C 0.71986 0.12774 0.70297
 C260 C 0.71657 0.14600 0.83121
 C261 C 0.74794 0.18598 0.84438
 C262 C 0.74762 0.20772 0.88562
 C263 C 0.78476 0.24354 0.88719
 C264 C 0.80679 0.24270 0.84689
 N265 N 0.78407 0.20754 0.82092
 C266 C 0.84767 0.27257 0.83680
 C267 C 0.86548 0.27509 0.78980
 C268 C 0.90656 0.29700 0.77954
 C269 C 0.91037 0.29526 0.72881
 C270 C 0.87149 0.27149 0.70981
 N271 N 0.84416 0.25928 0.74719
 C272 C 0.86131 0.26543 0.65853
 C273 C 0.82255 0.23468 0.64121
 C274 C 0.80849 0.23091 0.59257
 C275 C 0.77053 0.19612 0.59117
 C276 C 0.76265 0.17882 0.63866
 N277 N 0.79464 0.20239 0.66875
 C278 C 0.72788 0.14093 0.65255
 H279 H 0.68125 0.05982 0.69656
 H280 H 0.67475 0.06250 0.79450
 H281 H 0.79891 0.19468 0.70468
 H282 H 0.72327 0.19873 0.91202
 H283 H 0.79439 0.26736 0.91504
 H284 H 0.93130 0.31300 0.80566
 H285 H 0.93861 0.31015 0.70845
 H286 H 0.75143 0.18474 0.55842
 H287 H 0.79418 0.19667 0.79228
 H288 H 0.82390 0.25047 0.56078
 C289 C 0.04550 0.45373 0.09117
 C290 C 0.08016 0.45491 0.08271
 C291 C 0.10225 0.44982 0.12447
 C292 C 0.13128 0.44116 0.11668
 H293 H 0.09350 0.46210 0.04574
 H294 H 0.09644 0.45626 0.16184
 H295 H 0.03173 0.44476 0.12786
 H296 H 0.13705 0.43592 0.07870
 C297 C 0.54892 0.59749 0.08603
 C298 C 0.55272 0.63418 0.07811
 C299 C 0.56039 0.66213 0.12015
 C300 C 0.57128 0.70148 0.11253
 H301 H 0.54778 0.64265 0.04113
 H302 H 0.55406 0.64928 0.15759
 H303 H 0.55535 0.59001 0.12279
 H304 H 0.57602 0.71303 0.07447
 C305 C 0.41199 0.95497 0.10238
 C306 C 0.38254 0.91529 0.10154
 C307 C 0.35257 0.89622 0.14198
 C308 C 0.32535 0.85581 0.14096
 H309 H 0.38079 0.89607 0.07068
 H310 H 0.35259 0.91502 0.17229
 H311 H 0.41434 0.97414 0.13357
 H312 H 0.32500 0.83801 0.10922
 C313 C 0.94480 0.52223 0.60240
 C314 C 0.91689 0.53189 0.59084
 C315 C 0.89212 0.53505 0.63004
 C316 C 0.87050 0.55301 0.62140
 H317 H 0.91164 0.53667 0.55222
 H318 H 0.89114 0.52177 0.66638
 H319 H 0.95071 0.51882 0.64123
 H320 H 0.87032 0.56435 0.58416
 C321 C 0.46036 0.41817 0.59958
 C322 C 0.45063 0.37954 0.58986
 C323 C 0.44045 0.34928 0.63042
 C324 C 0.42502 0.30927 0.62064
 H325 H 0.45153 0.37050 0.55180
 H326 H 0.44820 0.36045 0.66835
 H327 H 0.45765 0.42663 0.63730
 H328 H 0.41873 0.29920 0.58216
 C329 C 0.59232 0.04194 0.59170
 C330 C 0.62875 0.07397 0.58023
 C331 C 0.65833 0.09511 0.62047
 C332 C 0.69830 0.11561 0.61270
 H333 H 0.63593 0.08576 0.54232
 H334 H 0.64652 0.09489 0.65716
 H335 H 0.58680 0.02937 0.62933
 H336 H 0.70927 0.11602 0.57542
 C337 C 0.43810 0.04846 0.92763
 C338 C 0.44975 0.08837 0.92974
 C339 C 0.43116 0.10540 0.89696
 C340 C 0.45353 0.14375 0.87916
 H341 H 0.47571 0.10950 0.95212
 H342 H 0.39996 0.08592 0.88533
 H343 H 0.41380 0.02847 0.90241
 H344 H 0.48452 0.16279 0.89192
 C345 C 0.59167 0.54154 0.90112
 C346 C 0.62422 0.53909 0.91152
 C347 C 0.65068 0.54151 0.87069
 C348 C 0.69058 0.55874 0.87676
 H349 H 0.63060 0.53395 0.94947
 H350 H 0.63661 0.52803 0.83525
 H351 H 0.58733 0.54923 0.86341
 H352 H 0.70354 0.57069 0.91321
 C353 C 0.94996 0.40795 0.90276
 C354 C 0.91680 0.37119 0.91092
 C355 C 0.89708 0.34231 0.86933
 C356 C 0.87141 0.30211 0.87746
 H357 H 0.90371 0.36271 0.94798
 H358 H 0.90277 0.35461 0.83162
 H359 H 0.96380 0.41517 0.86605
 H360 H 0.86530 0.29091 0.91569
 C361 C 0.52458 0.94178 0.40888
 C362 C 0.52818 0.90914 0.41813
 C363 C 0.53256 0.88684 0.37626
 C364 C 0.55474 0.86909 0.38015
 H365 H 0.52806 0.89905 0.45616
 H366 H 0.51735 0.88535 0.34154
 H367 H 0.52772 0.95312 0.37085
 H368 H 0.56862 0.87000 0.41581
 C369 C 0.40024 0.45865 0.42610
 C370 C 0.37778 0.47621 0.42638
 C371 C 0.34386 0.46281 0.39114
 C372 C 0.32820 0.48647 0.38159
 H373 H 0.38645 0.50277 0.44972
 H374 H 0.33359 0.43489 0.36981
 H375 H 0.39242 0.43333 0.40092
 H376 H 0.33816 0.51423 0.40304
 C377 C 0.08367 0.60529 0.47456
 C378 C 0.07962 0.62843 0.43970
 C379 C 0.11509 0.66604 0.41962
 C380 C 0.11058 0.68524 0.38035
 H381 H 0.05044 0.61756 0.42213
 H382 H 0.14520 0.67466 0.43223
 H383 H 0.11277 0.61692 0.49265
 H384 H 0.08035 0.67458 0.36626
 C385 C 0.95239 0.55155 0.92147
 C386 C 0.91377 0.54144 0.92560
 C387 C 0.89687 0.56008 0.89283
 C388 C 0.85902 0.53698 0.87619
 H389 H 0.89328 0.51670 0.95047
 H390 H 0.91575 0.59189 0.88114
 H391 H 0.97171 0.57457 0.89411
 H392 H 0.84076 0.50549 0.88960
 C393 C 0.44722 0.41447 0.89927
 C394 C 0.44497 0.37849 0.90772
 C395 C 0.43487 0.34875 0.86724
 C396 C 0.42243 0.30931 0.87729
 H397 H 0.45272 0.37159 0.94404
 H398 H 0.44116 0.36035 0.82926
 H399 H 0.43679 0.41961 0.86377
 H400 H 0.41756 0.29926 0.91599
 C401 C 0.57785 0.04952 0.89106
 C402 C 0.61595 0.07941 0.90012
 C403 C 0.64576 0.09837 0.85952
 C404 C 0.68531 0.12152 0.86971
 H405 H 0.62531 0.09020 0.93799
 H406 H 0.63501 0.09473 0.82136
 H407 H 0.56907 0.03714 0.85371
 H408 H 0.69489 0.12548 0.90844
 C409 C 0.04974 0.46089 0.39782
 C410 C 0.07693 0.44993 0.40756
 C411 C 0.10070 0.44686 0.36680
 C412 C 0.12647 0.43378 0.37520
 H413 H 0.08317 0.44531 0.44581
 H414 H 0.09919 0.45828 0.33009
 H415 H 0.04311 0.46450 0.35935
 H416 H 0.12878 0.42396 0.41257
 C417 C 0.54739 0.59258 0.39363
 C418 C 0.55692 0.63117 0.40276
 C419 C 0.56461 0.66029 0.36165
 C420 C 0.57938 0.70024 0.37071
 H421 H 0.55705 0.64081 0.44083
 H422 H 0.55491 0.64820 0.32436
 H423 H 0.54907 0.58350 0.35585
 H424 H 0.58771 0.71118 0.40869
 C425 C 0.39628 0.95415 0.43133
 C426 C 0.36430 0.91619 0.43858
 C427 C 0.33253 0.89665 0.40030
 C428 C 0.30541 0.85624 0.40225
 H429 H 0.36348 0.89774 0.47026
 H430 H 0.33379 0.91439 0.36762
 H431 H 0.39659 0.97200 0.39926
 H432 H 0.30329 0.83876 0.43555
 C433 C 0.55200 0.95658 0.06773
 C434 C 0.53591 0.91591 0.07186
 C435 C 0.55396 0.89856 0.10503
 C436 C 0.53122 0.86035 0.12308
 H437 H 0.50736 0.89512 0.05365
 H438 H 0.58530 0.91755 0.11646
 H439 H 0.57909 0.97726 0.08863
 H440 H 0.50010 0.84152 0.11073
 C441 C 0.40114 0.46374 0.07305
 C442 C 0.37942 0.48205 0.07385
 C443 C 0.34662 0.46927 0.11026
 C444 C 0.33215 0.49368 0.12064
 H445 H 0.38753 0.50834 0.04975
 H446 H 0.33563 0.44068 0.13089
 H447 H 0.39412 0.43880 0.09900
 H448 H 0.34286 0.52210 0.09981
 C449 C 0.04333 0.59352 0.09022
 C450 C 0.08150 0.62477 0.08547
 C451 C 0.10018 0.65702 0.12350
 C452 C 0.14042 0.68104 0.12614
 H453 H 0.10019 0.62499 0.05521
 H454 H 0.08125 0.65909 0.15170
 H455 H 0.02502 0.59284 0.12121
 H456 H 0.15889 0.67956 0.09677
 C457 C 0.46428 0.05523 0.60352
 C458 C 0.46141 0.08798 0.59184
 C459 C 0.45617 0.11146 0.63140
 C460 C 0.43644 0.13145 0.62326
 H461 H 0.46304 0.09756 0.55324
 H462 H 0.46901 0.11234 0.66776
 H463 H 0.45981 0.04429 0.64185
 H464 H 0.42515 0.13120 0.58602
 C465 C 0.60972 0.55756 0.56642
 C466 C 0.63150 0.53940 0.56979
 C467 C 0.66782 0.55684 0.60167
 C468 C 0.67991 0.53242 0.62121
 H469 H 0.62070 0.50980 0.55226
 H470 H 0.68346 0.58922 0.61118
 H471 H 0.61924 0.58571 0.58689
 H472 H 0.66445 0.50028 0.61047
 C473 C 0.91471 0.37943 0.53746
 C474 C 0.92089 0.35581 0.56923
 C475 C 0.88680 0.32052 0.59477
 C476 C 0.89247 0.29449 0.62266
 H477 H 0.95146 0.36445 0.57968
 H478 H 0.85751 0.31804 0.59440
 H479 H 0.88416 0.37002 0.52592
 H480 H 0.92234 0.29841 0.62430
   
