data_POSCAR
  _audit_creation_date              2014-09-24
  _audit_creation_method            'ToBaCCo'
  _symmetry_space_group_name_H-M    'P1'
  _symmetry_Int_Tables_number       1
  _symmetry_cell_setting            triclinic
  loop_
  _symmetry_equiv_pos_as_xyz
 x,y,z
_cell_length_a 59.4656
_cell_length_b 59.5176
_cell_length_c 59.5520
_cell_angle_alpha 90.002800
_cell_angle_beta 90.000500
_cell_angle_gamma 90.043200
loop_
  _atom_site_label
  _atom_site_type_symbol
  _atom_site_fract_x
  _atom_site_fract_y
  _atom_site_fract_z
N1 N 0.17152 0.22492 0.23028
 N2 N 0.17768 0.20713 0.24187
 C3 C 0.16330 0.20425 0.25914
 C4 C 0.14745 0.22111 0.25816
 C5 C 0.15305 0.23394 0.23974
 H6 H 0.16421 0.19095 0.27148
 H7 H 0.14432 0.24868 0.23367
 Cu8 Cu 0.20378 0.18950 0.23301
 Cu9 Cu 0.18782 0.23506 0.20379
 Cu10 Cu 0.23465 0.20406 0.18804
 N11 N 0.23023 0.17233 0.22421
 N12 N 0.24218 0.17812 0.20653
 C13 C 0.25932 0.16356 0.20404
 C14 C 0.25796 0.14793 0.22105
 C15 C 0.23940 0.15386 0.23358
 H16 H 0.27180 0.16424 0.19084
 H17 H 0.23311 0.14533 0.24833
 N18 N 0.22433 0.23084 0.17152
 N19 N 0.20650 0.24264 0.17752
 C20 C 0.20382 0.25981 0.16303
 C21 C 0.22074 0.25866 0.14731
 C22 C 0.23346 0.24021 0.15304
 H23 H 0.19061 0.27226 0.16381
 H24 H 0.24824 0.23414 0.14438
 H25 H 0.20056 0.20402 0.19483
 H26 H 0.21865 0.22203 0.21306
 N27 N 0.67180 0.72510 0.73018
 N28 N 0.67800 0.70733 0.74177
 C29 C 0.66358 0.70435 0.75899
 C30 C 0.64769 0.72117 0.75801
 C31 C 0.65329 0.73406 0.73963
 H32 H 0.66450 0.69102 0.77130
 H33 H 0.64457 0.74881 0.73360
 Cu34 Cu 0.70427 0.68995 0.73292
 Cu35 Cu 0.68814 0.73535 0.70372
 Cu36 Cu 0.73501 0.70431 0.68791
 N37 N 0.73051 0.67254 0.72407
 N38 N 0.74244 0.67830 0.70636
 C39 C 0.75951 0.66366 0.70381
 C40 C 0.75808 0.64800 0.72078
 C41 C 0.73957 0.65398 0.73336
 H42 H 0.77200 0.66435 0.69063
 H43 H 0.73327 0.64544 0.74810
 N44 N 0.72472 0.73116 0.67148
 N45 N 0.70689 0.74297 0.67750
 C46 C 0.70425 0.76018 0.66305
 C47 C 0.72118 0.75904 0.64735
 C48 C 0.73388 0.74057 0.65304
 H49 H 0.69105 0.77264 0.66383
 H50 H 0.74865 0.73450 0.64437
 H51 H 0.70094 0.70434 0.69473
 H52 H 0.71906 0.72245 0.71279
 N53 N 0.32789 0.77543 0.73030
 N54 N 0.32203 0.79353 0.74158
 C55 C 0.33641 0.79642 0.75886
 C56 C 0.35196 0.77925 0.75818
 C57 C 0.34617 0.76623 0.73996
 H58 H 0.33566 0.80988 0.77103
 H59 H 0.35461 0.75122 0.73417
 Cu60 Cu 0.29594 0.81105 0.73236
 Cu61 Cu 0.31146 0.76504 0.70391
 Cu62 Cu 0.26457 0.79615 0.68812
 N63 N 0.26949 0.82840 0.72390
 N64 N 0.25722 0.82233 0.70651
 C65 C 0.23992 0.83674 0.70418
 C66 C 0.24151 0.85257 0.72100
 C67 C 0.26035 0.84691 0.73327
 H68 H 0.22718 0.83578 0.69125
 H69 H 0.26683 0.85559 0.74786
 N70 N 0.27479 0.76918 0.67172
 N71 N 0.29262 0.75736 0.67774
 C72 C 0.29527 0.74016 0.66327
 C73 C 0.27834 0.74130 0.64755
 C74 C 0.26565 0.75977 0.65325
 H75 H 0.30850 0.72773 0.66402
 H76 H 0.25091 0.76587 0.64455
 H77 H 0.29871 0.79577 0.69447
 H78 H 0.28073 0.77821 0.71316
 N79 N 0.82890 0.27499 0.23073
 N80 N 0.82269 0.29277 0.24232
 C81 C 0.83708 0.29575 0.25956
 C82 C 0.85296 0.27892 0.25856
 C83 C 0.84741 0.26602 0.24018
 H84 H 0.83614 0.30908 0.27188
 H85 H 0.85614 0.25127 0.23413
 Cu86 Cu 0.79644 0.31016 0.23345
 Cu87 Cu 0.81259 0.26476 0.20423
 Cu88 Cu 0.76576 0.29582 0.18839
 N89 N 0.77021 0.32757 0.22458
 N90 N 0.75829 0.32182 0.20686
 C91 C 0.74123 0.33645 0.20429
 C92 C 0.74263 0.35211 0.22127
 C93 C 0.76112 0.34612 0.23387
 H94 H 0.72875 0.33578 0.19108
 H95 H 0.76741 0.35466 0.24862
 N96 N 0.77606 0.26898 0.17194
 N97 N 0.79388 0.25716 0.17797
 C98 C 0.79653 0.23996 0.16349
 C99 C 0.77962 0.24113 0.14776
 C100 C 0.76692 0.25960 0.15347
 H101 H 0.80973 0.22751 0.16427
 H102 H 0.75216 0.26568 0.14479
 H103 H 0.79983 0.29578 0.19526
 H104 H 0.78169 0.27767 0.21329
 N105 N 0.82833 0.72516 0.26974
 N106 N 0.82213 0.70736 0.25817
 C107 C 0.83654 0.70439 0.24095
 C108 C 0.85243 0.72124 0.24192
 C109 C 0.84684 0.73414 0.26029
 H110 H 0.83562 0.69105 0.22867
 H111 H 0.85556 0.74892 0.26629
 Cu112 Cu 0.79590 0.68992 0.26703
 Cu113 Cu 0.81200 0.73539 0.29620
 Cu114 Cu 0.76516 0.70427 0.31204
 N115 N 0.76966 0.67250 0.27591
 N116 N 0.75773 0.67824 0.29361
 C117 C 0.74068 0.66357 0.29618
 C118 C 0.74211 0.64790 0.27922
 C119 C 0.76060 0.65392 0.26663
 H120 H 0.72817 0.66425 0.30936
 H121 H 0.76692 0.64538 0.25190
 N122 N 0.77544 0.73115 0.32845
 N123 N 0.79326 0.74299 0.32242
 C124 C 0.79588 0.76022 0.33686
 C125 C 0.77895 0.75905 0.35257
 C126 C 0.76627 0.74055 0.34689
 H127 H 0.80908 0.77271 0.33606
 H128 H 0.75150 0.73446 0.35556
 H129 H 0.79922 0.70436 0.30521
 H130 H 0.78109 0.72241 0.28714
 N131 N 0.32851 0.22498 -0.23059
 N132 N 0.32233 0.20716 -0.24217
 C133 C 0.33674 0.20424 -0.25942
 C134 C 0.35263 0.22111 -0.25844
 C135 C 0.34702 0.23400 -0.24004
 H136 H 0.33578 0.19093 -0.27175
 H137 H 0.35571 0.24879 -0.23401
 Cu138 Cu 0.29600 0.18974 -0.23333
 Cu139 Cu 0.31206 0.23518 -0.20411
 Cu140 Cu 0.26514 0.20413 -0.18837
 N141 N 0.26967 0.17232 -0.22449
 N142 N 0.25770 0.17812 -0.20683
 C143 C 0.24054 0.16355 -0.20433
 C144 C 0.24192 0.14789 -0.22129
 C145 C 0.26050 0.15382 -0.23382
 H146 H 0.22800 0.16429 -0.19119
 H147 H 0.26677 0.14529 -0.24858
 N148 N 0.27542 0.23098 -0.17188
 N149 N 0.29327 0.24281 -0.17786
 C150 C 0.29588 0.26000 -0.16335
 C151 C 0.27891 0.25882 -0.14767
 C152 C 0.26623 0.24034 -0.15344
 H153 H 0.30909 0.27247 -0.16409
 H154 H 0.25143 0.23424 -0.14482
 H155 H 0.29912 0.20418 -0.19512
 H156 H 0.28107 0.22222 -0.21328
 N157 N 0.67164 0.27485 -0.23043
 N158 N 0.67784 0.29263 -0.24205
 C159 C 0.66341 0.29555 -0.25929
 C160 C 0.64754 0.27865 -0.25831
 C161 C 0.65315 0.26579 -0.23989
 H162 H 0.66436 0.30885 -0.27161
 H163 H 0.64448 0.25098 -0.23385
 Cu164 Cu 0.70412 0.31010 -0.23317
 Cu165 Cu 0.68808 0.26468 -0.20393
 Cu166 Cu 0.73494 0.29581 -0.18815
 N167 N 0.73041 0.32755 -0.22434
 N168 N 0.74234 0.32181 -0.20663
 C169 C 0.75946 0.33642 -0.20409
 C170 C 0.75806 0.35208 -0.22105
 C171 C 0.73952 0.34610 -0.23362
 H172 H 0.77199 0.33571 -0.19093
 H173 H 0.73325 0.35462 -0.24838
 N174 N 0.72469 0.26896 -0.17168
 N175 N 0.70687 0.25710 -0.17767
 C176 C 0.70428 0.23991 -0.16315
 C177 C 0.72123 0.24113 -0.14745
 C178 C 0.73389 0.25962 -0.15322
 H179 H 0.69109 0.22741 -0.16389
 H180 H 0.74867 0.26576 -0.14459
 H181 H 0.70097 0.29573 -0.19497
 H182 H 0.71910 0.27768 -0.21310
 N183 N 0.17182 0.77526 0.26971
 N184 N 0.17799 0.79309 0.25817
 C185 C 0.16364 0.79596 0.24087
 C186 C 0.14779 0.77906 0.24180
 C187 C 0.15337 0.76621 0.26020
 H188 H 0.16459 0.80926 0.22853
 H189 H 0.14467 0.75142 0.26621
 Cu190 Cu 0.20426 0.81054 0.26705
 Cu191 Cu 0.18812 0.76503 0.29620
 Cu192 Cu 0.23498 0.79613 0.31204
 N193 N 0.23055 0.82798 0.27592
 N194 N 0.24251 0.82218 0.29360
 C195 C 0.25967 0.83677 0.29612
 C196 C 0.25828 0.85242 0.27911
 C197 C 0.23972 0.84648 0.26656
 H198 H 0.27217 0.83605 0.30930
 H199 H 0.23345 0.85497 0.25177
 N200 N 0.22464 0.76926 0.32852
 N201 N 0.20681 0.75744 0.32247
 C202 C 0.20411 0.74025 0.33694
 C203 C 0.22100 0.74139 0.35270
 C204 C 0.23374 0.75987 0.34700
 H205 H 0.19088 0.72780 0.33614
 H206 H 0.24849 0.76595 0.35571
 H207 H 0.20089 0.79596 0.30520
 H208 H 0.21900 0.77796 0.28705
 N209 N 0.47486 0.42135 0.48045
 N210 N 0.45704 0.42749 0.49202
 C211 C 0.45415 0.41311 0.50929
 C212 C 0.47104 0.39729 0.50835
 C213 C 0.48391 0.40291 0.48994
 H214 H 0.44084 0.41404 0.52164
 H215 H 0.49871 0.39425 0.48392
 Cu216 Cu 0.43956 0.45369 0.48318
 Cu217 Cu 0.48506 0.43772 0.45396
 Cu218 Cu 0.45391 0.48448 0.43816
 N219 N 0.42212 0.47990 0.47431
 N220 N 0.42788 0.49186 0.45663
 C221 C 0.41326 0.50894 0.45413
 C222 C 0.39761 0.50750 0.47111
 C223 C 0.40359 0.48899 0.48366
 H224 H 0.41395 0.52145 0.44097
 H225 H 0.39509 0.48272 0.49843
 N226 N 0.48078 0.47424 0.42168
 N227 N 0.49264 0.45645 0.42769
 C228 C 0.50984 0.45384 0.41318
 C229 C 0.50863 0.47074 0.39746
 C230 C 0.49014 0.48340 0.40320
 H231 H 0.52233 0.44067 0.41395
 H232 H 0.48402 0.49814 0.39454
 H233 H 0.47208 0.46863 0.46311
 H234 H 0.45404 0.45050 0.44499
 N235 N -0.02531 -0.07835 0.98025
 N236 N -0.04309 -0.07218 0.99187
 C237 C -0.04602 -0.08656 1.00911
 C238 C -0.02919 -0.10242 1.00810
 C239 C -0.01632 -0.09683 0.98969
 H240 H -0.05931 -0.08561 1.02147
 H241 H -0.00154 -0.10553 0.98367
 Cu242 Cu -0.06043 -0.04583 0.98335
 Cu243 Cu -0.01512 -0.06196 0.95381
 Cu244 Cu -0.04616 -0.01519 0.93811
 N245 N -0.07788 -0.01976 0.97427
 N246 N -0.07212 -0.00782 0.95657
 C247 C -0.08673 0.00925 0.95406
 C248 C -0.10235 0.00782 0.97105
 C249 C -0.09640 -0.01067 0.98361
 H250 H -0.08603 0.02178 0.94092
 H251 H -0.10490 -0.01692 0.99840
 N252 N -0.01935 -0.02541 0.92162
 N253 N -0.00751 -0.04322 0.92758
 C254 C 0.00965 -0.04584 0.91303
 C255 C 0.00842 -0.02891 0.89733
 C256 C -0.01004 -0.01624 0.90313
 H257 H 0.02211 -0.05905 0.91374
 H258 H -0.01618 -0.00149 0.89450
 H259 H -0.02803 -0.03098 0.96306
 H260 H -0.04627 -0.04911 0.94509
 N261 N 1.02528 0.57826 0.98037
 N262 N 1.04307 0.57210 0.99196
 C263 C 1.04595 0.58644 1.00925
 C264 C 1.02908 0.60226 1.00828
 C265 C 1.01625 0.59671 0.98985
 H266 H 1.05927 0.58551 1.02159
 H267 H 1.00151 0.60544 0.98378
 Cu268 Cu 1.06072 0.54608 0.98310
 Cu269 Cu 1.01516 0.56197 0.95385
 Cu270 Cu 1.04620 0.51521 0.93809
 N271 N 1.07786 0.51970 0.97430
 N272 N 1.07209 0.50776 0.95662
 C273 C 1.08667 0.49065 0.95412
 C274 C 1.10227 0.49204 0.97113
 C275 C 1.09634 0.51055 0.98368
 H276 H 1.08601 0.47819 0.94092
 H277 H 1.10487 0.51682 0.99845
 N278 N 1.01944 0.52551 0.92157
 N279 N 1.00761 0.54332 0.92755
 C280 C 0.99044 0.54596 0.91302
 C281 C 0.99165 0.52904 0.89731
 C282 C 1.01011 0.51636 0.90308
 H283 H 0.97796 0.55914 0.91377
 H284 H 1.01622 0.50160 0.89444
 H285 H 1.02827 0.53110 0.96309
 H286 H 1.04630 0.54920 0.94488
 N287 N 0.52536 0.07826 0.48044
 N288 N 0.54319 0.07213 0.49200
 C289 C 0.54609 0.08649 0.50927
 C290 C 0.52921 0.10232 0.50833
 C291 C 0.51633 0.09671 0.48992
 H292 H 0.55942 0.08557 0.52159
 H293 H 0.50154 0.10539 0.48391
 Cu294 Cu 0.56076 0.04598 0.48330
 Cu295 Cu 0.51521 0.06189 0.45396
 Cu296 Cu 0.54628 0.01520 0.43814
 N297 N 0.57803 0.01977 0.47425
 N298 N 0.57224 0.00782 0.45658
 C299 C 0.58686 -0.00924 0.45402
 C300 C 0.60250 -0.00780 0.47099
 C301 C 0.59655 0.01067 0.48357
 H302 H 0.58618 -0.02174 0.44085
 H303 H 0.60510 0.01695 0.49832
 N304 N 0.51945 0.02542 0.42167
 N305 N 0.50761 0.04320 0.42768
 C306 C 0.49041 0.04582 0.41317
 C307 C 0.49163 0.02891 0.39744
 C308 C 0.51012 0.01626 0.40319
 H309 H 0.47793 0.05900 0.41393
 H310 H 0.51626 0.00152 0.39453
 H311 H 0.52834 0.03096 0.46319
 H312 H 0.54641 0.04912 0.44506
 N313 N -0.02556 0.07853 0.51950
 N314 N -0.04337 0.07234 0.50794
 C315 C -0.04630 0.08669 0.49069
 C316 C -0.02946 0.10257 0.49164
 C317 C -0.01656 0.09701 0.51003
 H318 H -0.05963 0.08571 0.47840
 H319 H -0.00177 0.10576 0.51603
 Cu320 Cu -0.06092 0.04618 0.51662
 Cu321 Cu -0.01540 0.06218 0.54596
 Cu322 Cu -0.04650 0.01541 0.56175
 N323 N -0.07820 0.01997 0.52562
 N324 N -0.07246 0.00802 0.54329
 C325 C -0.08711 -0.00904 0.54582
 C326 C -0.10273 -0.00758 0.52885
 C327 C -0.09672 0.01089 0.51628
 H328 H -0.08648 -0.02156 0.55900
 H329 H -0.10522 0.01719 0.50153
 N330 N -0.01966 0.02566 0.57821
 N331 N -0.00781 0.04347 0.57222
 C332 C 0.00940 0.04609 0.58673
 C333 C 0.00817 0.02916 0.60244
 C334 C -0.01032 0.01650 0.59668
 H335 H 0.02190 0.05927 0.58598
 H336 H -0.01645 0.00173 0.60531
 H337 H -0.02845 0.03123 0.53677
 H338 H -0.04655 0.04937 0.55488
 N339 N 0.47492 0.57839 0.01972
 N340 N 0.45707 0.57225 0.00818
 C341 C 0.45418 0.58659 -0.00911
 C342 C 0.47109 0.60241 -0.00818
 C343 C 0.48397 0.59683 0.01022
 H344 H 0.44087 0.58565 -0.02144
 H345 H 0.49879 0.60551 0.01621
 Cu346 Cu 0.43961 0.54605 0.01701
 Cu347 Cu 0.48513 0.56205 0.04620
 Cu348 Cu 0.45395 0.51527 0.06198
 N349 N 0.42215 0.51985 0.02586
 N350 N 0.42792 0.50788 0.04352
 C351 C 0.41329 0.49078 0.04601
 C352 C 0.39765 0.49221 0.02902
 C353 C 0.40363 0.51074 0.01649
 H354 H 0.41397 0.47826 0.05916
 H355 H 0.39512 0.51702 0.00172
 N356 N 0.48083 0.52552 0.07846
 N357 N 0.49270 0.54333 0.07246
 C358 C 0.50990 0.54595 0.08697
 C359 C 0.50868 0.52903 0.10268
 C360 C 0.49018 0.51637 0.09694
 H361 H 0.52239 0.55914 0.08621
 H362 H 0.48404 0.50162 0.10559
 H363 H 0.47212 0.53116 0.03703
 H364 H 0.45411 0.54927 0.05518
 N365 N 0.52528 -0.07844 0.01980
 N366 N 0.54310 -0.07228 0.00823
 C367 C 0.54601 -0.08667 -0.00902
 C368 C 0.52912 -0.10250 -0.00806
 C369 C 0.51624 -0.09690 0.01033
 H370 H 0.55932 -0.08572 -0.02136
 H371 H 0.50142 -0.10558 0.01633
 Cu372 Cu 0.56053 -0.04597 0.01684
 Cu373 Cu 0.51507 -0.06206 0.04625
 Cu374 Cu 0.54624 -0.01534 0.06205
 N375 N 0.57805 -0.01989 0.02595
 N376 N 0.57230 -0.00796 0.04364
 C377 C 0.58697 0.00910 0.04620
 C378 C 0.60263 0.00766 0.02923
 C379 C 0.59662 -0.01082 0.01665
 H380 H 0.58629 0.02161 0.05936
 H381 H 0.60513 -0.01709 0.00188
 N382 N 0.51934 -0.02554 0.07851
 N383 N 0.50747 -0.04333 0.07250
 C384 C 0.49026 -0.04595 0.08700
 C385 C 0.49148 -0.02904 0.10273
 C386 C 0.50999 -0.01638 0.09698
 H387 H 0.47776 -0.05913 0.08623
 H388 H 0.51614 -0.00165 0.10565
 H389 H 0.52805 -0.03115 0.03706
 H390 H 0.54619 -0.04932 0.05506
 N391 N 1.02510 0.42164 0.51947
 N392 N 1.04292 0.42779 0.50789
 C393 C 1.04582 0.41344 0.49063
 C394 C 1.02892 0.39762 0.49157
 C395 C 1.01605 0.40320 0.50998
 H396 H 1.05911 0.41441 0.47826
 H397 H 1.00125 0.39450 0.51599
 Cu398 Cu 1.06033 0.45409 0.51650
 Cu399 Cu 1.01492 0.43802 0.54591
 Cu400 Cu 1.04607 0.48475 0.56169
 N401 N 1.07782 0.48015 0.52558
 N402 N 1.07206 0.49210 0.54326
 C403 C 1.08668 0.50918 0.54578
 C404 C 1.10231 0.50775 0.52880
 C405 C 1.09636 0.48925 0.51625
 H406 H 1.08602 0.52169 0.55895
 H407 H 1.10484 0.48301 0.50145
 N408 N 1.01922 0.47453 0.57814
 N409 N 1.00735 0.45674 0.57215
 C410 C 0.99018 0.45411 0.58669
 C411 C 0.99144 0.47103 0.60241
 C412 C 1.00993 0.48369 0.59663
 H413 H 0.97769 0.44092 0.58596
 H414 H 1.01610 0.49842 0.60529
 H415 H 1.02794 0.46899 0.53672
 H416 H 1.04607 0.45085 0.55474
 Si417 Si 0.37421 -0.00031 0.25020
 Si418 Si 0.12541 -0.00037 0.74967
 Si419 Si 0.62574 0.49979 0.25006
 Si420 Si 0.87462 0.50014 0.74990
 Si421 Si 0.24985 0.37551 -0.00008
 Si422 Si 0.75030 0.12454 0.00020
 Si423 Si 0.24998 0.62434 0.50001
 Si424 Si 0.74991 0.87568 0.49991
 Si425 Si -0.00046 0.25010 0.37475
 Si426 Si 0.00003 0.75002 0.12488
 Si427 Si 0.50017 0.24978 0.62570
 Si428 Si 0.49991 0.75003 0.87485
 C429 C 0.12886 0.22459 0.27315
 C430 C 0.11325 0.22757 0.28570
 C431 C 0.09461 0.23120 0.30067
 C432 C 0.09699 0.24558 0.31914
 C433 C 0.07888 0.24913 0.33370
 C434 C 0.05831 0.23831 0.32983
 C435 C 0.05591 0.22396 0.31133
 C436 C 0.07402 0.22041 0.29678
 C437 C 0.03960 0.24208 0.34469
 C438 C 0.02378 0.24525 0.35692
 H439 H 0.11282 0.25404 0.32227
 H440 H 0.08089 0.26032 0.34791
 H441 H 0.04005 0.21557 0.30814
 H442 H 0.07198 0.20929 0.28251
 C443 C 0.62914 0.72465 0.77305
 C444 C 0.61357 0.72764 0.78565
 C445 C 0.59496 0.73127 0.80067
 C446 C 0.59736 0.74566 0.81914
 C447 C 0.57926 0.74921 0.83371
 C448 C 0.55869 0.73837 0.82989
 C449 C 0.55628 0.72401 0.81139
 C450 C 0.57438 0.72046 0.79682
 C451 C 0.54000 0.74211 0.84477
 C452 C 0.52417 0.74524 0.85702
 H453 H 0.61319 0.75414 0.82224
 H454 H 0.58128 0.76042 0.84791
 H455 H 0.54043 0.71560 0.80822
 H456 H 0.57233 0.70934 0.78256
 C457 C 0.37050 0.77567 0.77325
 C458 C 0.38610 0.77257 0.78579
 C459 C 0.40477 0.76884 0.80073
 C460 C 0.41524 0.74777 0.80152
 C461 C 0.43336 0.74415 0.81606
 C462 C 0.44107 0.76157 0.82989
 C463 C 0.43064 0.78266 0.82905
 C464 C 0.41253 0.78628 0.81451
 C465 C 0.45981 0.75789 0.84474
 C466 C 0.47564 0.75478 0.85699
 H467 H 0.40943 0.73418 0.79089
 H468 H 0.44136 0.72780 0.81649
 H469 H 0.43653 0.79628 0.83960
 H470 H 0.40459 0.80265 0.81400
 C471 C -0.12951 0.27564 0.27283
 C472 C -0.11395 0.27264 0.28545
 C473 C -0.09536 0.26896 0.30047
 C474 C -0.09512 0.27916 0.32167
 C475 C -0.07705 0.27553 0.33627
 C476 C -0.05917 0.26169 0.32972
 C477 C -0.05942 0.25149 0.30851
 C478 C -0.07748 0.25512 0.29392
 C479 C -0.04050 0.25803 0.34464
 C480 C -0.02469 0.25491 0.35691
 H481 H -0.10886 0.28989 0.32690
 H482 H -0.07701 0.28351 0.35262
 H483 H -0.04567 0.24078 0.30326
 H484 H -0.07751 0.24715 0.27755
 C485 C -0.12904 0.72471 0.22686
 C486 C -0.11348 0.72770 0.21423
 C487 C -0.09491 0.73130 0.19918
 C488 C -0.07430 0.72060 0.20308
 C489 C -0.05623 0.72412 0.18846
 C490 C -0.05870 0.73834 0.16987
 C491 C -0.07930 0.74907 0.16600
 C492 C -0.09737 0.74555 0.18062
 C493 C -0.04004 0.74206 0.15495
 C494 C -0.02422 0.74520 0.14270
 H495 H -0.07220 0.70958 0.21741
 H496 H -0.04035 0.71580 0.19166
 H497 H -0.08137 0.76017 0.15173
 H498 H -0.11322 0.75395 0.17749
 C499 C 0.37024 0.22440 0.72730
 C500 C 0.38588 0.22736 0.71469
 C501 C 0.40457 0.23093 0.69967
 C502 C 0.42518 0.22022 0.70364
 C503 C 0.44335 0.22376 0.68911
 C504 C 0.44103 0.23801 0.67051
 C505 C 0.42042 0.24872 0.66654
 C506 C 0.40225 0.24518 0.68107
 C507 C 0.45985 0.24178 0.65570
 C508 C 0.47577 0.24495 0.64352
 H509 H 0.42721 0.20919 0.71796
 H510 H 0.45920 0.21543 0.69240
 H511 H 0.41842 0.25982 0.65226
 H512 H 0.38641 0.25358 0.67784
 C513 C 0.62996 0.27533 0.72742
 C514 C 0.61435 0.27234 0.71480
 C515 C 0.59565 0.26868 0.69980
 C516 C 0.59833 0.27162 0.67659
 C517 C 0.58016 0.26802 0.66206
 C518 C 0.55921 0.26146 0.67065
 C519 C 0.55655 0.25852 0.69385
 C520 C 0.57470 0.26212 0.70838
 C521 C 0.54044 0.25776 0.65576
 C522 C 0.52455 0.25462 0.64354
 H523 H 0.61443 0.27669 0.66976
 H524 H 0.58244 0.27035 0.64416
 H525 H 0.54045 0.25345 0.70071
 H526 H 0.57241 0.25979 0.72628
 C527 C 0.12924 0.77555 0.22675
 C528 C 0.11363 0.77253 0.21418
 C529 C 0.09499 0.76885 0.19920
 C530 C 0.09399 0.78023 0.17863
 C531 C 0.07590 0.77661 0.16404
 C532 C 0.05875 0.76159 0.16996
 C533 C 0.05974 0.75023 0.19055
 C534 C 0.07782 0.75385 0.20514
 C535 C 0.04007 0.75793 0.15504
 C536 C 0.02426 0.75482 0.14275
 H537 H 0.10716 0.79188 0.17388
 H538 H 0.07528 0.78552 0.14819
 H539 H 0.04653 0.73862 0.19533
 H540 H 0.07841 0.74498 0.22101
 C541 C 0.27278 0.12925 0.22483
 C542 C 0.28527 0.11361 0.22794
 C543 C 0.30024 0.09496 0.23160
 C544 C 0.30884 0.08295 0.21328
 C545 C 0.32343 0.06487 0.21682
 C546 C 0.32949 0.05871 0.23871
 C547 C 0.32087 0.07071 0.25704
 C548 C 0.30628 0.08879 0.25349
 C549 C 0.34426 0.03991 0.24238
 C550 C 0.35642 0.02401 0.24548
 H551 H 0.30425 0.08756 0.19628
 H552 H 0.32993 0.05567 0.20253
 H553 H 0.32538 0.06606 0.27404
 H554 H 0.29971 0.09794 0.26778
 C555 C 0.77290 0.62934 0.72458
 C556 C 0.78541 0.61373 0.72771
 C557 C 0.80040 0.59512 0.73137
 C558 C 0.80902 0.58315 0.71304
 C559 C 0.82365 0.56511 0.71657
 C560 C 0.82974 0.55897 0.73846
 C561 C 0.82111 0.57093 0.75680
 C562 C 0.80647 0.58898 0.75326
 C563 C 0.84458 0.54024 0.74211
 C564 C 0.85680 0.52440 0.74519
 H565 H 0.80441 0.58775 0.69605
 H566 H 0.83017 0.55593 0.70228
 H567 H 0.82565 0.56629 0.77379
 H568 H 0.79989 0.59811 0.76756
 C569 C 0.77290 0.37075 0.77518
 C570 C 0.78543 0.38638 0.77209
 C571 C 0.80044 0.40501 0.76845
 C572 C 0.79874 0.41785 0.74880
 C573 C 0.81334 0.43594 0.74525
 C574 C 0.82972 0.44126 0.76131
 C575 C 0.83140 0.42844 0.78097
 C576 C 0.81680 0.41035 0.78453
 C577 C 0.84458 0.46000 0.75771
 C578 C 0.85681 0.47586 0.75463
 H579 H 0.78612 0.41390 0.73628
 H580 H 0.81184 0.44579 0.73002
 H581 H 0.84395 0.43245 0.79354
 H582 H 0.81823 0.40056 0.79980
 C583 C 0.27235 -0.12988 0.27552
 C584 C 0.28485 -0.11421 0.27241
 C585 C 0.29984 -0.09551 0.26876
 C586 C 0.30457 -0.08055 0.28631
 C587 C 0.31920 -0.06246 0.28280
 C588 C 0.32919 -0.05924 0.26173
 C589 C 0.32441 -0.07417 0.24416
 C590 C 0.30978 -0.09226 0.24767
 C591 C 0.34407 -0.04048 0.25806
 C592 C 0.35632 -0.02462 0.25495
 H593 H 0.29697 -0.08287 0.30268
 H594 H 0.32270 -0.05098 0.29649
 H595 H 0.33197 -0.07181 0.22778
 H596 H 0.30623 -0.10370 0.23397
 C597 C 0.22740 -0.12979 0.72463
 C598 C 0.21484 -0.11417 0.72772
 C599 C 0.19980 -0.09552 0.73133
 C600 C 0.18469 -0.08908 0.71444
 C601 C 0.17006 -0.07100 0.71794
 C602 C 0.17045 -0.05927 0.73834
 C603 C 0.18558 -0.06569 0.75521
 C604 C 0.20021 -0.08377 0.75171
 C605 C 0.15554 -0.04053 0.74190
 C606 C 0.14328 -0.02468 0.74494
 H607 H 0.18425 -0.09802 0.69860
 H608 H 0.15850 -0.06616 0.70474
 H609 H 0.18609 -0.05670 0.77102
 H610 H 0.21183 -0.08856 0.76488
 C611 C 0.72780 0.37077 0.22505
 C612 C 0.71527 0.38638 0.22814
 C613 C 0.70023 0.40496 0.23176
 C614 C 0.68514 0.41137 0.21487
 C615 C 0.67048 0.42939 0.21837
 C616 C 0.67084 0.44108 0.23879
 C617 C 0.68595 0.43469 0.25568
 C618 C 0.70061 0.41666 0.25217
 C619 C 0.65591 0.45976 0.24234
 C620 C 0.64362 0.47557 0.24537
 H621 H 0.68473 0.40244 0.19902
 H622 H 0.65891 0.43423 0.20518
 H623 H 0.68642 0.44365 0.27150
 H624 H 0.71223 0.41186 0.26534
 C625 C 0.72731 0.62922 0.27543
 C626 C 0.71483 0.61357 0.27231
 C627 C 0.69987 0.59493 0.26865
 C628 C 0.69342 0.58908 0.24679
 C629 C 0.67881 0.57099 0.24325
 C630 C 0.67059 0.55870 0.26156
 C631 C 0.67705 0.56453 0.28341
 C632 C 0.69166 0.58262 0.28695
 C633 C 0.65576 0.53994 0.25790
 C634 C 0.64355 0.52407 0.25480
 H635 H 0.69968 0.59848 0.23251
 H636 H 0.67397 0.56658 0.22627
 H637 H 0.67085 0.55509 0.29769
 H638 H 0.69656 0.58699 0.30392
 C639 C 0.22702 0.12924 0.77492
 C640 C 0.21447 0.11361 0.77184
 C641 C 0.19947 0.09495 0.76823
 C642 C 0.17625 0.09859 0.76639
 C643 C 0.16168 0.08044 0.76289
 C644 C 0.17027 0.05859 0.76122
 C645 C 0.19348 0.05496 0.76309
 C646 C 0.20804 0.07310 0.76658
 C647 C 0.15538 0.03986 0.75754
 C648 C 0.14319 0.02398 0.75443
 H649 H 0.16944 0.11542 0.76766
 H650 H 0.14377 0.08345 0.76149
 H651 H 0.20030 0.03814 0.76184
 H652 H 0.22595 0.07008 0.76800
 C653 C 0.22438 0.27365 0.12878
 C654 C 0.22741 0.28625 0.11324
 C655 C 0.23103 0.30128 0.09468
 C656 C 0.22522 0.32402 0.09658
 C657 C 0.22878 0.33863 0.07853
 C658 C 0.23816 0.33054 0.05852
 C659 C 0.24392 0.30780 0.05661
 C660 C 0.24037 0.29320 0.07465
 C661 C 0.24185 0.34548 0.03992
 C662 C 0.24502 0.35773 0.02414
 H663 H 0.21797 0.33043 0.11199
 H664 H 0.22423 0.35617 0.08016
 H665 H 0.25115 0.30138 0.04119
 H666 H 0.24489 0.27565 0.07300
 C667 C 0.72482 0.77402 0.62883
 C668 C 0.72785 0.78660 0.61329
 C669 C 0.73148 0.80162 0.59474
 C670 C 0.74081 0.79352 0.57473
 C671 C 0.74434 0.80812 0.55668
 C672 C 0.73854 0.83084 0.55859
 C673 C 0.72920 0.83894 0.57860
 C674 C 0.72567 0.82435 0.59666
 C675 C 0.74211 0.84574 0.53995
 C676 C 0.74517 0.85795 0.52414
 H677 H 0.74535 0.77597 0.57307
 H678 H 0.75156 0.80170 0.54125
 H679 H 0.72465 0.85649 0.58023
 H680 H 0.71843 0.83076 0.61207
 C681 C 0.77529 0.77403 0.37107
 C682 C 0.77224 0.78662 0.38660
 C683 C 0.76860 0.80161 0.40516
 C684 C 0.77195 0.82476 0.40245
 C685 C 0.76838 0.83935 0.42050
 C686 C 0.76146 0.83082 0.44130
 C687 C 0.75813 0.80767 0.44402
 C688 C 0.76169 0.79309 0.42597
 C689 C 0.75779 0.84572 0.45991
 C690 C 0.75467 0.85793 0.47571
 H691 H 0.77730 0.83150 0.38642
 H692 H 0.77101 0.85722 0.41825
 H693 H 0.75279 0.80093 0.46005
 H694 H 0.75907 0.77522 0.42824
 C695 C 0.27516 0.27378 -0.12913
 C696 C 0.27200 0.28633 -0.11356
 C697 C 0.26825 0.30133 -0.09498
 C698 C 0.26132 0.29280 -0.07417
 C699 C 0.25775 0.30736 -0.05610
 C700 C 0.26109 0.33052 -0.05877
 C701 C 0.26799 0.33906 -0.07958
 C702 C 0.27156 0.32448 -0.09765
 C703 C 0.25753 0.34543 -0.04011
 C704 C 0.25452 0.35769 -0.02430
 H705 H 0.25871 0.27492 -0.07192
 H706 H 0.25241 0.30059 -0.04007
 H707 H 0.27061 0.35693 -0.08181
 H708 H 0.27691 0.33125 -0.11367
 C709 C 0.72499 0.22619 -0.12890
 C710 C 0.72815 0.21366 -0.11332
 C711 C 0.73190 0.19870 -0.09472
 C712 C 0.73193 0.20704 -0.07272
 C713 C 0.73547 0.19248 -0.05464
 C714 C 0.73900 0.16952 -0.05848
 C715 C 0.73903 0.16119 -0.08048
 C716 C 0.73548 0.17575 -0.09857
 C717 C 0.74259 0.15460 -0.03983
 C718 C 0.74561 0.14235 -0.02402
 H719 H 0.72920 0.22475 -0.06955
 H720 H 0.73545 0.19909 -0.03768
 H721 H 0.74177 0.14347 -0.08363
 H722 H 0.73552 0.16913 -0.11551
 C723 C 0.22459 0.72637 0.37122
 C724 C 0.22756 0.71373 0.38675
 C725 C 0.23109 0.69865 0.40530
 C726 C 0.23104 0.70690 0.42733
 C727 C 0.23456 0.69228 0.44536
 C728 C 0.23814 0.66935 0.44144
 C729 C 0.23813 0.66108 0.41942
 C730 C 0.23461 0.67571 0.40137
 C731 C 0.24194 0.65440 0.46003
 C732 C 0.24516 0.64214 0.47580
 H733 H 0.22832 0.72461 0.43055
 H734 H 0.23453 0.69884 0.46233
 H735 H 0.24087 0.64337 0.41621
 H736 H 0.23466 0.66915 0.38440
 C737 C 0.27472 0.72630 0.62901
 C738 C 0.27169 0.71368 0.61347
 C739 C 0.26810 0.69863 0.59490
 C740 C 0.26539 0.67556 0.59874
 C741 C 0.26192 0.66093 0.58068
 C742 C 0.26116 0.66934 0.55872
 C743 C 0.26385 0.69241 0.55489
 C744 C 0.26732 0.70703 0.57294
 C745 C 0.25762 0.65438 0.54009
 C746 C 0.25463 0.64212 0.52427
 H747 H 0.26597 0.66890 0.61566
 H748 H 0.25983 0.64313 0.58382
 H749 H 0.26327 0.69908 0.53797
 H750 H 0.26940 0.72484 0.56979
 C751 C 0.77599 0.22618 0.12920
 C752 C 0.77297 0.21361 0.11363
 C753 C 0.76935 0.19862 0.09504
 C754 C 0.76855 0.20707 0.07309
 C755 C 0.76498 0.19250 0.05502
 C756 C 0.76219 0.16944 0.05883
 C757 C 0.76303 0.16098 0.08076
 C758 C 0.76660 0.17555 0.09883
 C759 C 0.75839 0.15454 0.04021
 C760 C 0.75516 0.14231 0.02442
 H761 H 0.77066 0.22488 0.06997
 H762 H 0.76436 0.19921 0.03812
 H763 H 0.76089 0.14317 0.08387
 H764 H 0.76719 0.16885 0.11574
 C765 C 0.47455 0.37874 0.52341
 C766 C 0.47756 0.36316 0.53600
 C767 C 0.48124 0.34454 0.55102
 C768 C 0.47820 0.34729 0.57419
 C769 C 0.48183 0.32922 0.58879
 C770 C 0.48853 0.30832 0.58029
 C771 C 0.49156 0.30557 0.55711
 C772 C 0.48792 0.32364 0.54251
 C773 C 0.49226 0.28970 0.59531
 C774 C 0.49539 0.27396 0.60769
 H775 H 0.47303 0.36337 0.58096
 H776 H 0.47943 0.33155 0.60667
 H777 H 0.49673 0.28949 0.55032
 H778 H 0.49032 0.32132 0.52462
 C779 C -0.02568 0.87910 0.02319
 C780 C -0.02268 0.86356 0.03581
 C781 C -0.01903 0.84496 0.05079
 C782 C -0.01798 0.84854 0.07403
 C783 C -0.01435 0.83043 0.08856
 C784 C -0.01177 0.80870 0.07991
 C785 C -0.01284 0.80513 0.05668
 C786 C -0.01646 0.82322 0.04215
 C787 C -0.00799 0.79005 0.09481
 C788 C -0.00480 0.77425 0.10705
 H789 H -0.01994 0.86528 0.08088
 H790 H -0.01354 0.83338 0.10650
 H791 H -0.01085 0.78839 0.04981
 H792 H -0.01725 0.82028 0.02421
 C793 C 0.02563 0.62081 0.02331
 C794 C 0.02268 0.63640 0.03588
 C795 C 0.01908 0.65502 0.05085
 C796 C 0.02409 0.67693 0.04384
 C797 C 0.02047 0.69504 0.05835
 C798 C 0.01185 0.69132 0.07993
 C799 C 0.00684 0.66941 0.08694
 C800 C 0.01046 0.65129 0.07242
 C801 C 0.00805 0.71000 0.09479
 C802 C 0.00487 0.72580 0.10703
 H803 H 0.03074 0.68000 0.02718
 H804 H 0.02436 0.71192 0.05274
 H805 H 0.00013 0.66634 0.10357
 H806 H 0.00651 0.63441 0.07799
 C807 C 0.52572 0.12084 0.52341
 C808 C 0.52275 0.13639 0.53605
 C809 C 0.51915 0.15497 0.55112
 C810 C 0.52416 0.17692 0.54422
 C811 C 0.52058 0.19498 0.55883
 C812 C 0.51197 0.19118 0.58041
 C813 C 0.50696 0.16923 0.58730
 C814 C 0.51054 0.15117 0.57269
 C815 C 0.50820 0.20981 0.59541
 C816 C 0.50502 0.22556 0.60775
 H817 H 0.53080 0.18005 0.52756
 H818 H 0.52447 0.21188 0.55328
 H819 H 0.50026 0.16609 0.60392
 H820 H 0.50659 0.13427 0.57819
 C821 C -0.02604 0.12107 0.47657
 C822 C -0.02311 0.13661 0.46393
 C823 C -0.01952 0.15519 0.44889
 C824 C -0.00786 0.15195 0.42870
 C825 C -0.00426 0.17004 0.41415
 C826 C -0.01232 0.19144 0.41972
 C827 C -0.02398 0.19468 0.43992
 C828 C -0.02757 0.17659 0.45447
 C829 C -0.00852 0.21011 0.40485
 C830 C -0.00533 0.22590 0.39260
 H831 H -0.00153 0.13548 0.42425
 H832 H 0.00482 0.16737 0.39860
 H833 H -0.03023 0.21117 0.44442
 H834 H -0.03657 0.17928 0.47005
 C835 C 0.47459 0.62093 0.97676
 C836 C 0.47757 0.63650 0.96415
 C837 C 0.48117 0.65510 0.94914
 C838 C 0.49280 0.65187 0.92894
 C839 C 0.49635 0.66996 0.91436
 C840 C 0.48826 0.69135 0.91992
 C841 C 0.47665 0.69458 0.94014
 C842 C 0.47310 0.67650 0.95471
 C843 C 0.49198 0.71001 0.90500
 C844 C 0.49512 0.72580 0.89273
 H845 H 0.49914 0.63540 0.92449
 H846 H 0.50541 0.66728 0.89881
 H847 H 0.47038 0.71107 0.94464
 H848 H 0.46412 0.67919 0.97031
 C849 C 0.52558 0.87901 0.97684
 C850 C 0.52256 0.86348 0.96420
 C851 C 0.51889 0.84490 0.94917
 C852 C 0.51622 0.82315 0.95776
 C853 C 0.51261 0.80507 0.94318
 C854 C 0.51164 0.80867 0.91995
 C855 C 0.51431 0.83043 0.91135
 C856 C 0.51793 0.84850 0.92594
 C857 C 0.50789 0.79004 0.90500
 C858 C 0.50472 0.77426 0.89271
 H859 H 0.51693 0.82017 0.97570
 H860 H 0.51055 0.78833 0.95002
 H861 H 0.51358 0.83340 0.89342
 H862 H 0.51996 0.86526 0.91912
 C863 C 0.02539 0.37916 0.47647
 C864 C 0.02238 0.36362 0.46385
 C865 C 0.01871 0.34502 0.44887
 C866 C 0.01602 0.32329 0.45751
 C867 C 0.01236 0.30520 0.44297
 C868 C 0.01138 0.30877 0.41973
 C869 C 0.01407 0.33050 0.41109
 C870 C 0.01773 0.34859 0.42564
 C871 C 0.00760 0.29012 0.40482
 C872 C 0.00441 0.27433 0.39257
 H873 H 0.01673 0.32035 0.47545
 H874 H 0.01031 0.28847 0.44983
 H875 H 0.01334 0.33344 0.39315
 H876 H 0.01977 0.36534 0.41879
 C877 C 0.37891 0.52227 0.47491
 C878 C 0.36326 0.53474 0.47800
 C879 C 0.34464 0.54972 0.48163
 C880 C 0.32546 0.54223 0.49306
 C881 C 0.30739 0.55684 0.49658
 C882 C 0.30844 0.57899 0.48868
 C883 C 0.32760 0.58647 0.47721
 C884 C 0.34567 0.57186 0.47370
 C885 C 0.28984 0.59400 0.49227
 C886 C 0.27412 0.60638 0.49532
 H887 H 0.32448 0.52513 0.49923
 H888 H 0.29262 0.55087 0.50542
 H889 H 0.32855 0.60355 0.47099
 H890 H 0.36041 0.57781 0.46480
 C891 C 0.87908 0.02266 -0.02509
 C892 C 0.86352 0.03519 -0.02192
 C893 C 0.84498 0.05019 -0.01822
 C894 C 0.82296 0.04292 -0.02233
 C895 C 0.80491 0.05754 -0.01885
 C896 C 0.80884 0.07948 -0.01127
 C897 C 0.83087 0.08675 -0.00714
 C898 C 0.84891 0.07212 -0.01062
 C899 C 0.79025 0.09444 -0.00763
 C900 C 0.77448 0.10672 -0.00454
 H901 H 0.81976 0.02599 -0.02821
 H902 H 0.78794 0.05176 -0.02206
 H903 H 0.83407 0.10367 -0.00124
 H904 H 0.86590 0.07788 -0.00740
 C905 C 0.62131 0.02246 0.02542
 C906 C 0.63695 0.03495 0.02227
 C907 C 0.65558 0.04992 0.01859
 C908 C 0.65314 0.06847 0.00431
 C909 C 0.67121 0.08312 0.00086
 C910 C 0.69176 0.07928 0.01168
 C911 C 0.69421 0.06070 0.02591
 C912 C 0.67615 0.04604 0.02936
 C913 C 0.71038 0.09427 0.00805
 C914 C 0.72612 0.10663 0.00497
 H915 H 0.63731 0.07160 -0.00412
 H916 H 0.66916 0.09741 -0.01023
 H917 H 0.71006 0.05753 0.03431
 H918 H 0.67821 0.03173 0.04041
 C919 C 0.12092 0.52257 0.52499
 C920 C 0.13652 0.53509 0.52188
 C921 C 0.15510 0.55007 0.51826
 C922 C 0.15116 0.57285 0.51388
 C923 C 0.16925 0.58746 0.51043
 C924 C 0.19132 0.57931 0.51136
 C925 C 0.19525 0.55652 0.51574
 C926 C 0.17717 0.54192 0.51918
 C927 C 0.20996 0.59426 0.50777
 C928 C 0.22575 0.60654 0.50471
 H929 H 0.13414 0.57929 0.51314
 H930 H 0.16605 0.60505 0.50705
 H931 H 0.21227 0.55006 0.51649
 H932 H 0.18037 0.52433 0.52257
 C933 C 0.12092 0.47728 -0.02509
 C934 C 0.13655 0.46482 -0.02201
 C935 C 0.15515 0.44987 -0.01839
 C936 C 0.17308 0.44946 -0.03363
 C937 C 0.19111 0.43480 -0.03019
 C938 C 0.19124 0.42050 -0.01151
 C939 C 0.17332 0.42095 0.00376
 C940 C 0.15530 0.43561 0.00031
 C941 C 0.20987 0.40559 -0.00788
 C942 C 0.22566 0.39333 -0.00480
 H943 H 0.17312 0.46045 -0.04814
 H944 H 0.20493 0.43463 -0.04205
 H945 H 0.17331 0.41001 0.01830
 H946 H 0.14151 0.43583 0.01220
 C947 C 0.62115 0.97745 0.47477
 C948 C 0.63677 0.96501 0.47790
 C949 C 0.65537 0.95009 0.48158
 C950 C 0.67635 0.95480 0.47197
 C951 C 0.69440 0.94019 0.47543
 C952 C 0.69151 0.92083 0.48849
 C953 C 0.67055 0.91616 0.49815
 C954 C 0.65250 0.93077 0.49469
 C955 C 0.71008 0.90587 0.49210
 C956 C 0.72580 0.89354 0.49518
 H957 H 0.67872 0.96973 0.46182
 H958 H 0.71058 0.94398 0.46795
 H959 H 0.66819 0.90126 0.50833
 H960 H 0.63634 0.92701 0.50221
 C961 C 0.87861 0.97769 0.52503
 C962 C 0.86297 0.96524 0.52190
 C963 C 0.84439 0.95026 0.51828
 C964 C 0.83650 0.94631 0.49647
 C965 C 0.81851 0.93161 0.49296
 C966 C 0.80839 0.92080 0.51126
 C967 C 0.81624 0.92479 0.53307
 C968 C 0.83423 0.93950 0.53657
 C969 C 0.78981 0.90583 0.50766
 C970 C 0.77406 0.89351 0.50461
 H971 H 0.84424 0.95459 0.48223
 H972 H 0.81248 0.92869 0.47604
 H973 H 0.80845 0.91657 0.54732
 H974 H 0.84021 0.94248 0.55350
 C975 C 0.37894 0.47745 0.02521
 C976 C 0.36326 0.46500 0.02209
 C977 C 0.34459 0.45007 0.01845
 C978 C 0.33324 0.44069 0.03681
 C979 C 0.31520 0.42603 0.03329
 C980 C 0.30846 0.42069 0.01139
 C981 C 0.31974 0.43015 -0.00697
 C982 C 0.33779 0.44481 -0.00345
 C983 C 0.28982 0.40573 0.00775
 C984 C 0.27405 0.39340 0.00467
 H985 H 0.33835 0.44469 0.05381
 H986 H 0.30651 0.41889 0.04760
 H987 H 0.31459 0.42621 -0.02397
 H988 H 0.34643 0.45201 -0.01776
 C989 C 0.52360 0.47444 0.37891
 C990 C 0.53619 0.47753 0.36335
 C991 C 0.55124 0.48120 0.34479
 C992 C 0.54698 0.49851 0.32942
 C993 C 0.56163 0.50209 0.31139
 C994 C 0.58059 0.48840 0.30867
 C995 C 0.58482 0.47107 0.32402
 C996 C 0.57018 0.46749 0.34205
 C997 C 0.59554 0.49201 0.29003
 C998 C 0.60785 0.49507 0.27425
 H999 H 0.53237 0.50919 0.33136
 H1000 H 0.55816 0.51550 0.29958
 H1001 H 0.59940 0.46035 0.32203
 H1002 H 0.57360 0.45404 0.35382
 C1003 C 0.02330 -0.02522 0.87871
 C1004 C 0.03582 -0.02213 0.86309
 C1005 C 0.05081 -0.01849 0.84448
 C1006 C 0.06973 -0.03223 0.84175
 C1007 C 0.08436 -0.02870 0.82370
 C1008 C 0.08014 -0.01141 0.80831
 C1009 C 0.06119 0.00232 0.81103
 C1010 C 0.04656 -0.00121 0.82908
 C1011 C 0.09510 -0.00790 0.78964
 C1012 C 0.10745 -0.00496 0.77387
 H1013 H 0.07316 -0.04565 0.85355
 H1014 H 0.09892 -0.03945 0.82172
 H1015 H 0.05773 0.01571 0.79920
 H1016 H 0.03196 0.00950 0.83103
 C1017 C 0.02310 0.02546 0.62102
 C1018 C 0.03564 0.02233 0.63660
 C1019 C 0.05065 0.01859 0.65518
 C1020 C 0.04640 0.02870 0.67600
 C1021 C 0.06106 0.02512 0.69401
 C1022 C 0.08002 0.01141 0.69128
 C1023 C 0.08422 0.00126 0.67047
 C1024 C 0.06957 0.00484 0.65246
 C1025 C 0.09504 0.00764 0.70984
 C1026 C 0.10743 0.00445 0.72554
 H1027 H 0.03180 0.03933 0.67829
 H1028 H 0.05761 0.03300 0.71005
 H1029 H 0.09879 -0.00942 0.66820
 H1030 H 0.07297 -0.00309 0.63645
 C1031 C 0.52365 0.52534 0.12123
 C1032 C 0.53624 0.52223 0.13679
 C1033 C 0.55128 0.51854 0.15535
 C1034 C 0.56751 0.50154 0.15419
 C1035 C 0.58217 0.49798 0.17221
 C1036 C 0.58064 0.51143 0.19146
 C1037 C 0.56437 0.52841 0.19264
 C1038 C 0.54972 0.53196 0.17461
 C1039 C 0.59558 0.50768 0.21008
 C1040 C 0.60787 0.50454 0.22585
 H1041 H 0.56883 0.49104 0.13938
 H1042 H 0.59463 0.48476 0.17116
 H1043 H 0.56299 0.53885 0.20747
 H1044 H 0.53720 0.54513 0.17569
 C1045 C 0.47653 -0.02536 0.12132
 C1046 C 0.46397 -0.02229 0.13691
 C1047 C 0.44893 -0.01864 0.15549
 C1048 C 0.43031 -0.03276 0.15857
 C1049 C 0.41565 -0.02920 0.17659
 C1050 C 0.41953 -0.01150 0.19161
 C1051 C 0.43817 0.00260 0.18855
 C1052 C 0.45283 -0.00096 0.17053
 C1053 C 0.40453 -0.00794 0.21024
 C1054 C 0.39217 -0.00495 0.22600
 H1055 H 0.42715 -0.04650 0.14705
 H1056 H 0.40134 -0.04025 0.17882
 H1057 H 0.44137 0.01630 0.20010
 H1058 H 0.46719 0.01005 0.16833
 C1059 C 0.97655 0.47472 0.62101
 C1060 C 0.96404 0.47784 0.63660
 C1061 C 0.94906 0.48153 0.65519
 C1062 C 0.93043 0.46744 0.65830
 C1063 C 0.91582 0.47105 0.67633
 C1064 C 0.91977 0.48876 0.69132
 C1065 C 0.93843 0.50282 0.68823
 C1066 C 0.95304 0.49922 0.67020
 C1067 C 0.90483 0.49239 0.70995
 C1068 C 0.89252 0.49546 0.72572
 H1069 H 0.92723 0.45370 0.64680
 H1070 H 0.90148 0.46004 0.67861
 H1071 H 0.94167 0.51653 0.69977
 H1072 H 0.96742 0.51019 0.66796
 C1073 C 0.97671 0.52532 0.87875
 C1074 C 0.96416 0.52222 0.86317
 C1075 C 0.94917 0.51856 0.84458
 C1076 C 0.94971 0.53301 0.82602
 C1077 C 0.93506 0.52952 0.80799
 C1078 C 0.91980 0.51158 0.80846
 C1079 C 0.91931 0.49708 0.82699
 C1080 C 0.93396 0.50057 0.84502
 C1081 C 0.90484 0.50793 0.78984
 C1082 C 0.89252 0.50486 0.77408
 H1083 H 0.96145 0.54693 0.82550
 H1084 H 0.93565 0.54077 0.79370
 H1085 H 0.90763 0.48311 0.82747
 H1086 H 0.93344 0.48927 0.85928
 C1087 C 0.47669 0.02522 0.37885
 C1088 C 0.46413 0.02212 0.36326
 C1089 C 0.44909 0.01844 0.34469
 C1090 C 0.44395 -0.00348 0.33781
 C1091 C 0.42923 -0.00705 0.31984
 C1092 C 0.41956 0.01129 0.30869
 C1093 C 0.42477 0.03322 0.31553
 C1094 C 0.43949 0.03678 0.33350
 C1095 C 0.40453 0.00761 0.29010
 C1096 C 0.39216 0.00447 0.27438
 H1097 H 0.45132 -0.01778 0.34631
 H1098 H 0.42541 -0.02407 0.31462
 H1099 H 0.41748 0.04753 0.30696
 H1100 H 0.44339 0.05380 0.33866
   
