data_POSCAR
  _audit_creation_date              2014-09-24
  _audit_creation_method            'ToBaCCo'
  _symmetry_space_group_name_H-M    'P1'
  _symmetry_Int_Tables_number       1
  _symmetry_cell_setting            triclinic
  loop_
  _symmetry_equiv_pos_as_xyz
 x,y,z
_cell_length_a 22.8052
_cell_length_b 22.7613
_cell_length_c 22.7657
_cell_angle_alpha 90.125900
_cell_angle_beta 90.000600
_cell_angle_gamma 90.248100
loop_
  _atom_site_label
  _atom_site_type_symbol
  _atom_site_fract_x
  _atom_site_fract_y
  _atom_site_fract_z
C1 C 0.31552 1.00008 -0.47135
 C2 C 0.31531 1.00361 -0.53142
 C3 C 0.37354 1.00321 -0.54929
 N4 N 0.40903 0.99978 -0.50190
 C5 C 0.37383 0.99793 -0.45418
 C6 C 0.39241 1.00372 -0.60856
 C7 C 0.45181 1.00060 -0.62695
 C8 C 0.46937 0.99104 -0.68460
 C9 C 0.52951 0.99010 -0.68470
 C10 C 0.54766 0.99921 -0.62713
 N11 N 0.49991 1.00646 -0.59239
 C12 C 0.60724 1.00093 -0.60904
 C13 C 0.62639 1.00174 -0.54987
 C14 C 0.68471 1.00250 -0.53226
 C15 C 0.68471 1.00077 -0.47209
 C16 C 0.62645 0.99908 -0.45465
 N17 N 0.59109 0.99965 -0.50227
 C18 C 0.60745 0.99849 -0.39553
 C19 C 0.54811 0.99861 -0.37707
 C20 C 0.53039 1.00518 -0.31910
 C21 C 0.47021 1.00433 -0.31897
 C22 C 0.45239 0.99736 -0.37687
 N23 N 0.50021 0.99286 -0.41184
 C24 C 0.39302 0.99603 -0.39515
 H25 H 0.27704 0.99959 -0.44351
 H26 H 0.27660 1.00568 -0.55885
 H27 H 0.50015 0.98253 -0.45610
 H28 H 0.44166 0.98466 -0.72271
 H29 H 0.55681 0.98295 -0.72294
 H30 H 0.72332 1.00380 -0.55989
 H31 H 0.72330 1.00097 -0.44440
 H32 H 0.44274 1.00928 -0.28052
 H33 H 0.50017 1.01939 -0.54876
 H34 H 0.55792 1.01082 -0.28075
 C35 C -0.47012 1.31535 -0.00170
 C36 C -0.53011 1.31505 0.00180
 C37 C -0.54769 1.37340 0.00264
 N38 N -0.50021 1.40903 -0.00002
 C39 C -0.45273 1.37382 -0.00261
 C40 C -0.60677 1.39228 0.00383
 C41 C -0.62491 1.45181 0.00159
 C42 C -0.68252 1.46954 -0.00683
 C43 C -0.68229 1.52981 -0.00762
 C44 C -0.62460 1.54776 0.00042
 N45 N -0.59007 1.49991 0.00695
 C46 C -0.60624 1.60731 0.00149
 C47 C -0.54725 1.62665 0.00173
 C48 C -0.52984 1.68512 0.00131
 C49 C -0.46977 1.68542 -0.00037
 C50 C -0.45218 1.62708 -0.00086
 N51 N -0.49971 1.59146 0.00043
 C52 C -0.39311 1.60815 -0.00078
 C53 C -0.37502 1.54855 0.00009
 C54 C -0.31739 1.53058 0.00795
 C55 C -0.31760 1.47031 0.00694
 C56 C -0.37530 1.45259 -0.00141
 N57 N -0.40985 1.50059 -0.00654
 C58 C -0.39373 1.39311 -0.00374
 H59 H -0.44249 1.27682 -0.00294
 H60 H -0.55767 1.27623 0.00310
 H61 H -0.45369 1.50056 -0.01825
 H62 H -0.72083 1.44188 -0.01265
 H63 H -0.72039 1.55725 -0.01408
 H64 H -0.55749 1.72365 0.00185
 H65 H -0.44218 1.72424 -0.00090
 H66 H -0.27950 1.44270 0.01260
 H67 H -0.54626 1.50013 0.01877
 H68 H -0.27907 1.55807 0.01444
 C69 C 0.00250 0.31404 0.53091
 C70 C 0.00089 0.31400 0.47076
 C71 C -0.00052 0.37240 0.45330
 N72 N 0.00010 0.40782 0.50104
 C73 C 0.00193 0.37246 0.54862
 C74 C -0.00087 0.39152 0.39411
 C75 C -0.00062 0.45117 0.37597
 C76 C 0.00633 0.46934 0.31813
 C77 C 0.00521 0.52960 0.31837
 C78 C -0.00228 0.54711 0.37629
 N79 N -0.00680 0.49899 0.41095
 C80 C -0.00417 0.60654 0.39482
 C81 C -0.00264 0.62567 0.45393
 C82 C -0.00107 0.68409 0.47136
 C83 C 0.00238 0.68424 0.53144
 C84 C 0.00252 0.62586 0.54905
 N85 N -0.00052 0.59033 0.50151
 C86 C 0.00322 0.60686 0.60824
 C87 C 0.00048 0.54728 0.62639
 C88 C -0.00873 0.52948 0.68399
 C89 C -0.00948 0.46922 0.68385
 C90 C -0.00060 0.45125 0.62618
 N91 N 0.00632 0.49922 0.59162
 C92 C 0.00115 0.39160 0.60786
 H93 H 0.00360 0.27537 0.55848
 H94 H 0.00100 0.27531 0.44302
 H95 H 0.01891 0.49916 0.54793
 H96 H 0.01232 0.44201 0.27964
 H97 H 0.01029 0.55734 0.28013
 H98 H -0.00186 0.72269 0.44369
 H99 H 0.00408 0.72300 0.55904
 H100 H -0.01636 0.44173 0.72200
 H101 H -0.01755 0.49879 0.45509
 H102 H -0.01502 0.55709 0.72223
 O103 O -0.15057 1.00177 -0.07960
 O104 O 0.15090 0.99827 -0.07915
 O105 O -0.00148 1.07944 -0.15086
 O106 O 0.00212 0.92036 -0.15088
 O107 O 0.00183 0.84895 -0.07926
 O108 O -0.00139 1.15118 -0.07925
 O109 O 0.07952 0.99801 -0.15080
 O110 O -0.07900 1.00174 -0.15105
 Zr111 Zr 0.00020 1.00001 -0.10313
 O112 O 0.05317 0.94687 -0.05310
 O113 O -0.05293 1.05336 -0.05324
 C114 C -0.13332 1.00259 -0.13396
 C115 C 0.13378 0.99716 -0.13356
 C116 C -0.00226 1.13389 -0.13365
 C117 C 0.00292 0.86599 -0.13365
 H118 H 0.07836 1.07835 -0.07783
 O119 O 0.05320 1.05329 -0.05281
 H120 H -0.07800 0.92176 -0.07814
 O121 O -0.05295 0.94694 -0.05301
 O122 O 0.15071 1.00265 0.07969
 O123 O -0.15089 0.99815 0.07923
 O124 O 0.07978 1.15144 0.00240
 O125 O 0.07899 0.84927 -0.00168
 O126 O -0.07970 0.84901 0.00197
 O127 O -0.07890 1.15117 -0.00196
 O128 O 0.00194 1.07991 0.15128
 O129 O -0.00242 0.92100 0.15121
 O130 O 0.00222 1.15144 0.07979
 O131 O -0.00250 0.84928 0.07960
 O132 O 0.15100 1.07992 0.00240
 O133 O -0.15049 1.07939 -0.00218
 O134 O -0.15092 0.92051 0.00183
 O135 O 0.15059 0.92103 -0.00162
 O136 O 0.07927 1.00266 0.15130
 O137 O -0.07966 0.99840 0.15104
 Zr138 Zr 0.10308 1.00040 0.00026
 Zr139 Zr -0.10300 1.00004 -0.00006
 Zr140 Zr 0.00031 1.10354 0.00022
 Zr141 Zr -0.00023 0.89692 0.00016
 Zr142 Zr -0.00012 1.00039 0.10346
 O143 O -0.05340 0.94691 0.05337
 O144 O 0.05329 1.05371 0.05357
 C145 C 0.13359 1.00366 0.13408
 C146 C -0.13392 0.99740 0.13367
 C147 C 0.13401 1.13430 0.00340
 C148 C 0.13332 0.86659 -0.00251
 C149 C -0.13394 0.86614 0.00277
 C150 C -0.13323 1.13383 -0.00306
 C151 C 0.00296 1.13429 0.13417
 C152 C -0.00348 0.86657 0.13399
 H153 H -0.07788 1.07835 0.07814
 O154 O -0.05285 1.05327 0.05313
 H155 H 0.07770 0.92238 0.07839
 O156 O 0.05277 0.94735 0.05328
 C157 C 0.26757 1.00563 0.26699
 C158 C 0.28304 1.00570 0.20755
 C159 C 0.23952 1.00544 0.16432
 C160 C 0.34995 1.00449 0.34872
 C161 C 0.16471 1.00534 0.24001
 C162 C 0.20837 1.00560 0.28314
 C163 C 0.31244 1.00512 0.31139
 C164 C 0.17975 1.00505 0.18000
 H165 H 0.32876 1.00573 0.19460
 H166 H 0.25280 1.00529 0.11866
 H167 H 0.11925 1.00510 0.25374
 H168 H 0.19595 1.00556 0.32908
 C169 C -0.26814 0.99704 0.26634
 C170 C -0.20897 0.99738 0.28258
 C171 C -0.16524 0.99705 0.23952
 C172 C -0.35047 0.99948 0.34808
 C173 C -0.23992 0.99567 0.16371
 C174 C -0.28352 0.99600 0.20688
 C175 C -0.31303 0.99827 0.31069
 C176 C -0.18018 0.99643 0.17949
 H177 H -0.19662 0.99817 0.32853
 H178 H -0.11981 0.99761 0.25334
 H179 H -0.25312 0.99512 0.11803
 H180 H -0.32922 0.99570 0.19385
 C181 C -0.26621 1.00275 -0.26787
 C182 C -0.28221 1.00315 -0.20855
 C183 C -0.23906 1.00353 -0.16494
 C184 C -0.34782 1.00015 -0.35028
 C185 C -0.16365 1.00349 -0.24003
 C186 C -0.20691 1.00310 -0.28352
 C187 C -0.31063 1.00145 -0.31268
 C188 C -0.17918 1.00347 -0.18014
 H189 H -0.32804 1.00291 -0.19600
 H190 H -0.25268 1.00357 -0.11937
 H191 H -0.11808 1.00349 -0.25342
 H192 H -0.19409 1.00282 -0.32935
 C193 C 0.26686 0.99489 -0.26726
 C194 C 0.20758 0.99451 -0.28297
 C195 C 0.16427 0.99492 -0.23955
 C196 C 0.34842 0.99552 -0.34974
 C197 C 0.23959 0.99583 -0.16436
 C198 C 0.28279 0.99542 -0.20792
 C199 C 0.31129 0.99515 -0.31207
 C200 C 0.17973 0.99577 -0.17964
 H201 H 0.19481 0.99408 -0.32882
 H202 H 0.11873 0.99479 -0.25300
 H203 H 0.25315 0.99643 -0.11878
 H204 H 0.32861 0.99571 -0.19532
 C205 C 0.26789 1.26784 0.00547
 C206 C 0.28341 1.20846 0.00592
 C207 C 0.23993 1.16500 0.00560
 C208 C 0.35035 1.34981 0.00451
 C209 C 0.16510 1.24034 0.00468
 C210 C 0.20870 1.28370 0.00499
 C211 C 0.31271 1.31246 0.00505
 C212 C 0.18018 1.18039 0.00478
 H213 H 0.32915 1.19575 0.00631
 H214 H 0.25323 1.11938 0.00576
 H215 H 0.11964 1.25387 0.00409
 H216 H 0.19625 1.32959 0.00465
 C217 C 0.26653 0.73353 -0.00274
 C218 C 0.28236 0.79297 -0.00298
 C219 C 0.23910 0.83627 -0.00336
 C220 C 0.34859 0.65193 -0.00015
 C221 C 0.16387 0.76066 -0.00362
 C222 C 0.20726 0.71746 -0.00325
 C223 C 0.31112 0.68909 -0.00144
 C224 C 0.17926 0.82066 -0.00344
 H225 H 0.32815 0.80585 -0.00262
 H226 H 0.25263 0.88194 -0.00326
 H227 H 0.11834 0.74697 -0.00374
 H228 H 0.19457 0.67153 -0.00310
 C229 C -0.26780 0.73258 0.00313
 C230 C -0.28334 0.79195 0.00338
 C231 C -0.23987 0.83543 0.00370
 C232 C -0.35023 0.65060 0.00069
 C233 C -0.16501 0.76010 0.00389
 C234 C -0.20860 0.71673 0.00357
 C235 C -0.31260 0.68795 0.00191
 C236 C -0.18010 0.82005 0.00373
 H237 H -0.32908 0.80465 0.00307
 H238 H -0.25318 0.88104 0.00363
 H239 H -0.11954 0.74658 0.00395
 H240 H -0.19614 0.67085 0.00341
 C241 C -0.26645 1.26685 -0.00521
 C242 C -0.20719 1.28294 -0.00476
 C243 C -0.16379 1.23975 -0.00441
 C244 C -0.34855 1.34846 -0.00438
 C245 C -0.23899 1.16412 -0.00524
 C246 C -0.28226 1.20741 -0.00559
 C247 C -0.31107 1.31129 -0.00486
 C248 C -0.17916 1.17974 -0.00445
 H249 H -0.19451 1.32888 -0.00448
 H250 H -0.11826 1.25346 -0.00386
 H251 H -0.25251 1.11845 -0.00535
 H252 H -0.32806 1.19452 -0.00596
 C253 C 0.00329 1.26755 0.26835
 C254 C 0.00362 1.28356 0.20905
 C255 C 0.00397 1.24031 0.16534
 C256 C 0.00070 1.34921 0.35109
 C257 C 0.00404 1.16479 0.24028
 C258 C 0.00369 1.20813 0.28386
 C259 C 0.00199 1.31202 0.31331
 C260 C 0.00395 1.18032 0.18041
 H261 H 0.00334 1.32948 0.19660
 H262 H 0.00393 1.25394 0.11980
 H263 H 0.00407 1.11914 0.25360
 H264 H 0.00346 1.19529 0.32967
 C265 C -0.00250 1.26730 -0.26714
 C266 C -0.00263 1.20789 -0.28300
 C267 C -0.00297 1.16446 -0.23967
 C268 C -0.00021 1.34923 -0.34932
 C269 C -0.00338 1.23989 -0.16430
 C270 C -0.00305 1.28321 -0.20776
 C271 C -0.00134 1.31191 -0.31180
 C272 C -0.00313 1.17991 -0.17971
 H273 H -0.00224 1.19512 -0.32888
 H274 H -0.00281 1.11883 -0.25322
 H275 H -0.00356 1.25348 -0.11869
 H276 H -0.00299 1.32911 -0.19502
 C277 C 0.00480 0.73174 -0.26682
 C278 C 0.00516 0.79105 -0.28282
 C279 C 0.00488 0.83477 -0.23960
 C280 C 0.00387 0.64932 -0.34886
 C281 C 0.00419 0.75983 -0.16407
 C282 C 0.00445 0.71622 -0.20741
 C283 C 0.00439 0.68683 -0.31136
 C284 C 0.00421 0.81971 -0.17962
 H285 H 0.00545 0.80350 -0.32874
 H286 H 0.00497 0.88032 -0.25324
 H287 H 0.00372 0.74652 -0.11844
 H288 H 0.00419 0.67041 -0.19457
 C289 C -0.00570 0.73323 0.26746
 C290 C -0.00557 0.71730 0.20809
 C291 C -0.00521 0.76059 0.16463
 C292 C -0.00484 0.65135 0.34962
 C293 C -0.00540 0.83605 0.23998
 C294 C -0.00576 0.79264 0.28331
 C295 C -0.00534 0.68865 0.31212
 C296 C -0.00493 0.82057 0.18003
 H297 H -0.00554 0.67139 0.19537
 H298 H -0.00490 0.74699 0.11902
 H299 H -0.00525 0.88169 0.25352
 H300 H -0.00588 0.80542 0.32919
   
