data_POSCAR
  _audit_creation_date              2014-09-24
  _audit_creation_method            'ToBaCCo'
  _symmetry_space_group_name_H-M    'P1'
  _symmetry_Int_Tables_number       1
  _symmetry_cell_setting            triclinic
  loop_
  _symmetry_equiv_pos_as_xyz
 x,y,z
_cell_length_a 45.2679
_cell_length_b 46.2536
_cell_length_c 43.2374
_cell_angle_alpha 90.655100
_cell_angle_beta 89.658600
_cell_angle_gamma 89.658900
loop_
  _atom_site_label
  _atom_site_type_symbol
  _atom_site_fract_x
  _atom_site_fract_y
  _atom_site_fract_z
C1 C 0.20017 0.21919 0.25222
 C2 C 0.20240 0.24258 0.23189
 C3 C 0.22377 0.24218 0.20890
 C4 C 0.24294 0.21850 0.20563
 C5 C 0.24073 0.19535 0.22544
 C6 C 0.21923 0.19575 0.24903
 C7 C 0.18064 0.21293 0.27574
 N8 N 0.18736 0.18632 0.28692
 C9 C 0.21094 0.17569 0.27068
 C10 C 0.26066 0.17464 0.21514
 N11 N 0.27468 0.18476 0.18954
 C12 C 0.26401 0.21164 0.18373
 C13 C 0.21964 0.26630 0.19119
 N14 N 0.19617 0.28138 0.20267
 C15 C 0.18546 0.26712 0.22764
 H16 H 0.16251 0.22653 0.28369
 H17 H 0.22100 0.15464 0.27390
 H18 H 0.26396 0.15344 0.22496
 H19 H 0.27037 0.22492 0.16434
 H20 H 0.23204 0.27183 0.17062
 H21 H 0.16611 0.27351 0.24094
 C22 C -0.20275 0.78898 0.22705
 C23 C -0.20236 0.76681 0.20462
 C24 C -0.22479 0.76501 0.18312
 C25 C -0.24790 0.78529 0.18374
 C26 C -0.24832 0.80723 0.20579
 C27 C -0.22553 0.80909 0.22766
 C28 C -0.18312 0.79671 0.24984
 N29 N -0.19333 0.82109 0.26430
 C30 C -0.21930 0.82879 0.25089
 C31 C -0.27249 0.82450 0.19965
 N32 N -0.28658 0.81355 0.17441
 C33 C -0.27167 0.78951 0.16464
 C34 C -0.21793 0.74248 0.16322
 N35 N -0.19188 0.73061 0.17211
 C36 C -0.18220 0.74531 0.19744
 H37 H -0.16261 0.78569 0.25506
 H38 H -0.23245 0.84763 0.25714
 H39 H -0.27888 0.84398 0.21218
 H40 H -0.27725 0.77640 0.14462
 H41 H -0.23060 0.73568 0.14329
 H42 H -0.16165 0.74113 0.20931
 C43 C -0.19626 0.21965 -0.20816
 C44 C -0.19715 0.24187 -0.18577
 C45 C -0.22052 0.24371 -0.16501
 C46 C -0.24338 0.22338 -0.16640
 C47 C -0.24254 0.20159 -0.18857
 C48 C -0.21884 0.19968 -0.20953
 C49 C -0.17549 0.21152 -0.23008
 N50 N -0.18495 0.18706 -0.24462
 C51 C -0.21151 0.17976 -0.23221
 C52 C -0.26656 0.18417 -0.18352
 N53 N -0.28191 0.19474 -0.15871
 C54 C -0.26792 0.21881 -0.14813
 C55 C -0.21475 0.26632 -0.14499
 N56 N -0.18852 0.27821 -0.15313
 C57 C -0.17761 0.26341 -0.17804
 H58 H -0.15474 0.22226 -0.23458
 H59 H -0.22428 0.16093 -0.23867
 H60 H -0.27195 0.16474 -0.19646
 H61 H -0.27464 0.23164 -0.12816
 H62 H -0.22832 0.27321 -0.12553
 H63 H -0.15664 0.26759 -0.18928
 C64 C 0.19861 0.76520 -0.25443
 C65 C 0.20199 0.74222 -0.23369
 C66 C 0.22660 0.74103 -0.21484
 C67 C 0.24803 0.76271 -0.21628
 C68 C 0.24475 0.78527 -0.23669
 C69 C 0.21995 0.78647 -0.25591
 C70 C 0.17599 0.77339 -0.27380
 N71 N 0.18318 0.79907 -0.28688
 C72 C 0.21008 0.80711 -0.27606
 C73 C 0.26717 0.80454 -0.23095
 N74 N 0.28383 0.79431 -0.20736
 C75 C 0.27239 0.76859 -0.19842
 C76 C 0.22305 0.71801 -0.19538
 N77 N 0.19692 0.70513 -0.20184
 C78 C 0.18385 0.71974 -0.22524
 H79 H 0.15547 0.76194 -0.27735
 H80 H 0.22128 0.82703 -0.28164
 H81 H 0.27021 0.82516 -0.24210
 H82 H 0.28028 0.75577 -0.17933
 H83 H 0.23790 0.71173 -0.17707
 H84 H 0.16227 0.71503 -0.23464
 C85 C 0.21377 1.20255 0.74779
 C86 C 0.23249 1.20033 0.77332
 C87 C 0.23249 1.22173 0.79594
 C88 C 0.21368 1.24583 0.79312
 C89 C 0.19516 1.24797 0.76783
 C90 C 0.19514 1.22614 0.74507
 C91 C 0.20723 1.18355 0.72418
 N92 N 0.18481 1.19487 0.70733
 C93 C 0.17740 1.22106 0.71982
 C94 C 0.17785 1.27222 0.77225
 N95 N 0.18531 1.28489 0.79959
 C96 C 0.20728 1.26892 0.81248
 C97 C 0.25110 1.21253 0.81906
 N98 N 0.26221 1.18615 0.81086
 C99 C 0.25094 1.17859 0.78293
 H100 H 0.21706 1.16236 0.72055
 H101 H 0.15951 1.23478 0.71207
 H102 H 0.16044 1.27955 0.75709
 H103 H 0.21723 1.27321 0.83477
 H104 H 0.25555 1.22378 0.84062
 H105 H 0.25520 1.15833 0.77086
 C106 C 0.77641 0.79075 0.74783
 C107 C 0.75653 0.79273 0.77272
 C108 C 0.75989 0.77500 0.79807
 C109 C 0.78321 0.75484 0.79866
 C110 C 0.80273 0.75286 0.77394
 C111 C 0.79939 0.77098 0.74845
 C112 C 0.78078 0.80799 0.72252
 N113 N 0.80609 0.79936 0.70798
 C114 C 0.81744 0.77649 0.72350
 C115 C 0.82467 0.73374 0.78187
 N116 N 0.81907 0.72402 0.81084
 C117 C 0.79370 0.73677 0.82130
 C118 C 0.73948 0.78401 0.82001
 N119 N 0.72401 0.80669 0.80847
 C120 C 0.73428 0.81211 0.77959
 H121 H 0.76760 0.82667 0.71644
 H122 H 0.83831 0.76589 0.71831
 H123 H 0.84389 0.72814 0.76796
 H124 H 0.78413 0.73395 0.84407
 H125 H 0.73695 0.77553 0.84310
 H126 H 0.72698 0.82970 0.76514
 C127 C 0.23730 0.79593 1.26204
 C128 C 0.26102 0.79524 1.24105
 C129 C 0.26222 0.77431 1.21786
 C130 C 0.23968 0.75363 1.21553
 C131 C 0.21655 0.75420 1.23661
 C132 C 0.21530 0.77546 1.25986
 C133 C 0.22817 0.81625 1.28366
 N134 N 0.20103 0.80863 1.29435
 C135 C 0.19318 0.78351 1.28015
 C136 C 0.19629 0.73409 1.22710
 N137 N 0.20634 0.72129 1.20068
 C138 C 0.23291 0.73303 1.19335
 C139 C 0.28570 0.78108 1.19888
 N140 N 0.29862 0.80547 1.21005
 C141 C 0.28366 0.81425 1.23580
 H142 H 0.23957 0.83604 1.28960
 H143 H 0.17207 0.77289 1.28277
 H144 H 0.17504 0.73010 1.23780
 H145 H 0.24564 0.72795 1.17270
 H146 H 0.29203 0.76988 1.17771
 H147 H 0.28805 0.83383 1.24891
 C148 C 0.77575 1.20695 1.23416
 C149 C 0.75488 1.20555 1.21046
 C150 C 0.75618 1.22463 1.18602
 C151 C 0.77839 1.24575 1.18533
 C152 C 0.79876 1.24722 1.20908
 C153 C 0.79757 1.22764 1.23346
 C154 C 0.78232 1.18841 1.25781
 N155 N 0.80786 1.19719 1.27122
 C156 C 0.81715 1.22142 1.25670
 C157 C 0.81932 1.26755 1.20130
 N158 N 0.81211 1.27860 1.17342
 C159 C 0.78712 1.26543 1.16335
 C160 C 0.73532 1.21577 1.16481
 N161 N 0.72161 1.19195 1.17598
 C162 C 0.73344 1.18564 1.20385
 H163 H 0.77048 1.16884 1.26338
 H164 H 0.83769 1.23254 1.26123
 H165 H 0.83878 1.27314 1.21447
 H166 H 0.77670 1.26915 1.14126
 H167 H 0.73133 1.22516 1.14239
 H168 H 0.72782 1.16707 1.21767
 O169 O 0.51675 0.96611 0.93620
 O170 O 0.46314 0.98519 1.05780
 O171 O 0.53664 0.96046 1.00811
 O172 O 0.44495 0.95010 0.97046
 O173 O 0.51626 0.97341 1.05087
 O174 O 0.46267 0.96944 0.92950
 O175 O 0.45379 0.95463 1.02327
 O176 O 0.55194 0.98648 0.96110
 C177 C 0.54355 0.96777 0.94211
 C178 C 0.45467 0.96061 1.05087
 C179 C 0.53146 0.95543 1.03570
 C180 C 0.44837 0.94988 0.94209
 O181 O 0.46261 1.02457 0.93504
 O182 O 0.52549 1.02974 1.03712
 O183 O 0.53181 1.03532 0.98319
 O184 O 0.43315 1.01172 1.02215
 O185 O 0.47163 1.03698 1.03542
 O186 O 0.51863 1.02434 0.93685
 O187 O 0.42824 1.00612 0.96571
 O188 O 0.56449 1.00746 1.01765
 Co189 Co 0.49049 0.99604 0.93973
 Co190 Co 0.49381 1.00488 1.03998
 Co191 Co 0.53204 0.99759 0.99611
 Co192 Co 0.44395 0.98184 0.99550
 O193 O 0.48834 0.99395 0.99035
 C194 C 0.43632 1.02373 0.94488
 C195 C 0.55328 1.02520 1.03854
 C196 C 0.53072 1.04153 0.95537
 C197 C 0.44425 1.03477 1.03284
 O198 O 0.03678 0.47572 0.06899
 O199 O 0.03382 0.52604 -0.05497
 O200 O 0.05270 0.46822 -0.02535
 O201 O 0.02713 0.56424 0.03474
 O202 O 0.02015 0.47448 -0.05860
 O203 O 0.04258 0.52905 0.06345
 O204 O 0.05029 0.54673 -0.01422
 O205 O 0.05881 0.46120 0.02766
 C206 C 0.05781 0.46277 0.05621
 C207 C 0.05370 0.54026 -0.04188
 C208 C 0.04539 0.46597 -0.05246
 C209 C 0.04385 0.55492 0.05546
 O210 O -0.01576 0.53437 0.06242
 O211 O -0.03171 0.48603 -0.03338
 O212 O 0.00148 0.44471 0.03464
 O213 O 0.00348 0.57655 -0.02192
 O214 O -0.02216 0.53867 -0.03729
 O215 O -0.01943 0.47910 0.06337
 O216 O -0.02514 0.54953 0.01643
 O217 O -0.00569 0.44829 -0.02045
 Co218 Co 0.01119 0.50472 0.05916
 Co219 Co 0.00151 0.50613 -0.04099
 Co220 Co 0.02585 0.45922 0.00392
 Co221 Co 0.01269 0.54538 0.00074
 O222 O 0.01392 0.50246 0.00827
 C223 C -0.03146 0.54881 0.04447
 C224 C -0.02988 0.45939 -0.02899
 C225 C -0.01830 0.45333 0.05370
 C226 C -0.01593 0.56535 -0.04109
 O227 O 1.04842 0.01732 0.47432
 O228 O 0.94270 0.04099 0.53226
 O229 O 0.96399 0.02187 0.43519
 O230 O 1.00991 0.03557 0.55065
 O231 O 0.94295 0.04283 0.47494
 O232 O 1.04778 0.01607 0.53013
 O233 O 0.96284 0.01705 0.56949
 O234 O 1.01109 0.03813 0.45532
 C235 C 1.03781 0.03835 0.46028
 C236 C 0.94660 0.03731 0.56062
 C237 C 0.94745 0.04126 0.44634
 C238 C 1.03654 0.03669 0.54495
 O239 O 1.02586 -0.03771 0.53036
 O240 O 0.93089 -0.01371 0.47055
 O241 O 1.01765 -0.01138 0.42665
 O242 O 0.97197 -0.03362 0.55009
 O243 O 0.93078 -0.01594 0.53050
 O244 O 1.02575 -0.03591 0.47001
 O245 O 1.01628 -0.01522 0.57537
 O246 O 0.97208 -0.03033 0.44905
 Co247 Co 1.03265 -0.00906 0.50125
 Co248 Co 0.94085 0.01281 0.50208
 Co249 Co 0.99327 0.00329 0.45580
 Co250 Co 0.99266 0.00063 0.54701
 O251 O 0.98685 0.00503 0.50162
 C252 C 1.03043 -0.03556 0.55975
 C253 C 0.94431 -0.03134 0.45233
 C254 C 1.03154 -0.03216 0.44112
 C255 C 0.94434 -0.03500 0.54619
 N256 N 1.13346 0.17069 0.34547
 C257 C 1.14182 0.14374 0.35396
 N258 N 1.16571 0.13128 0.34010
 N259 N 1.18077 0.14531 0.31841
 C260 C 1.17243 0.17230 0.30968
 N261 N 1.14852 0.18474 0.32378
 C262 C 1.12462 0.12789 0.37606
 C263 C 1.10978 0.11401 0.39376
 C264 C 1.09157 0.09671 0.41358
 N265 N 1.10376 0.07597 0.43150
 N266 N 1.08663 0.05809 0.44753
 C267 C 1.05673 0.06036 0.44618
 N268 N 1.04463 0.08137 0.42850
 N269 N 1.06174 0.09924 0.41250
 N270 N 0.82297 -0.12506 0.32200
 C271 C 0.84930 -0.13471 0.33275
 N272 N 0.86107 -0.15940 0.32064
 N273 N 0.84700 -0.17395 0.29846
 C274 C 0.82065 -0.16434 0.28748
 N275 N 0.80888 -0.13962 0.29981
 C276 C 0.86513 -0.11841 0.35577
 C277 C 0.87884 -0.10446 0.37453
 C278 C 0.89559 -0.08733 0.39609
 N279 N 0.92553 -0.08737 0.39467
 N280 N 0.94110 -0.07015 0.41328
 C281 C 0.92727 -0.05232 0.43400
 N282 N 0.89728 -0.05249 0.43554
 N283 N 0.88171 -0.06971 0.41692
 N284 N 0.87169 0.16543 0.70140
 C285 C 0.86008 0.14083 0.68935
 N286 N 0.83321 0.13200 0.69935
 N287 N 0.81843 0.14722 0.72078
 C288 C 0.82997 0.17186 0.73305
 N289 N 0.85691 0.18068 0.72285
 C290 C 0.87615 0.12401 0.66666
 C291 C 0.88935 0.10943 0.64777
 C292 C 0.90472 0.09158 0.62543
 N293 N 0.90074 0.09564 0.59472
 N294 N 0.91431 0.07850 0.57404
 C295 C 0.93230 0.05671 0.58337
 N296 N 0.93630 0.05276 0.61415
 N297 N 0.92272 0.06989 0.63482
 N298 N 1.15860 -0.14315 0.66497
 C299 C 1.13135 -0.15233 0.65678
 N300 N 1.12166 -0.17817 0.66722
 N301 N 1.13870 -0.19429 0.68536
 C302 C 1.16602 -0.18507 0.69380
 N303 N 1.17562 -0.15922 0.68309
 C304 C 1.11264 -0.13412 0.63849
 C305 C 1.09733 -0.11788 0.62380
 C306 C 1.07948 -0.09751 0.60724
 N307 N 1.07690 -0.09930 0.57602
 N308 N 1.06108 -0.07969 0.56079
 C309 C 1.04739 -0.05763 0.57628
 N310 N 1.05001 -0.05595 0.60751
 N311 N 1.06579 -0.07553 0.62272
 N312 N 0.32220 1.12826 1.16057
 C313 C 0.33353 1.14066 1.13484
 N314 N 0.32536 1.16802 1.12784
 N315 N 0.30635 1.18250 1.14593
 C316 C 0.29477 1.17016 1.17167
 N317 N 0.30317 1.14274 1.17868
 C318 C 0.35330 1.12472 1.11484
 C319 C 0.36959 1.11085 1.09814
 C320 C 0.38860 1.09337 1.07880
 N321 N 0.41827 1.09732 1.07895
 N322 N 0.43605 1.07941 1.06308
 C323 C 0.42473 1.05699 1.04648
 N324 N 0.39499 1.05337 1.04606
 N325 N 0.37723 1.07128 1.06191
 N326 N 0.34109 0.81177 0.84646
 C327 C 0.34905 0.83842 0.83685
 N328 N 0.33563 0.84984 0.81181
 N329 N 0.31474 0.83515 0.79694
 C330 C 0.30641 0.80854 0.80666
 N331 N 0.32019 0.79706 0.83159
 C332 C 0.36967 0.85530 0.85436
 C333 C 0.38598 0.87021 0.86953
 C334 C 0.40413 0.88884 0.88803
 N335 N 0.42128 0.90912 0.87454
 N336 N 0.43612 0.92807 0.89181
 C337 C 0.43425 0.92741 0.92317
 N338 N 0.41725 0.90692 0.93661
 N339 N 0.40242 0.88797 0.91933
 N340 N 0.65399 0.86208 1.15674
 C341 C 0.64287 0.84959 1.13081
 N342 N 0.65522 0.82471 1.11989
 N343 N 0.67802 0.81272 1.13442
 C344 C 0.68941 0.82525 1.16032
 N345 N 0.67680 0.85010 1.17128
 C346 C 0.61969 0.86363 1.11398
 C347 C 0.60106 0.87643 1.09962
 C348 C 0.58009 0.89322 1.08252
 N349 N 0.58314 0.89600 1.05147
 N350 N 0.56630 0.91464 1.03611
 C351 C 0.54583 0.93114 1.05129
 N352 N 0.54247 0.92791 1.08230
 N353 N 0.55930 0.90927 1.09765
 N354 N 0.65768 1.18108 0.89307
 C355 C 0.64659 1.15639 0.88067
 N356 N 0.65926 1.14499 0.85479
 N357 N 0.68239 1.15776 0.84172
 C358 C 0.69377 1.18239 0.85410
 N359 N 0.68084 1.19390 0.87997
 C360 C 0.62286 1.14136 0.89550
 C361 C 0.60369 1.12715 0.90728
 C362 C 0.58198 1.10830 0.92032
 N363 N 0.58154 1.10309 0.95113
 N364 N 0.56405 1.08270 0.96263
 C365 C 0.54650 1.06680 0.94366
 N366 N 0.54671 1.07236 0.91290
 N367 N 0.56415 1.09275 0.90144
 N368 N 0.18343 0.34016 0.14870
 C369 C 0.15789 0.35183 0.15970
 N370 N 0.14535 0.34064 0.18547
 N371 N 0.15793 0.31837 0.19975
 C372 C 0.18344 0.30648 0.18864
 N373 N 0.19600 0.31792 0.16294
 C374 C 0.14323 0.37426 0.14288
 C375 C 0.13039 0.39226 0.12806
 C376 C 0.11414 0.41262 0.10990
 N377 N 0.09368 0.43019 0.12348
 N378 N 0.07653 0.44706 0.10634
 C379 C 0.07925 0.44696 0.07503
 N380 N 0.10001 0.42960 0.06150
 N381 N 0.11716 0.41271 0.07867
 N382 N -0.13345 0.33219 -0.13225
 C383 C -0.14551 0.34427 -0.10637
 N384 N -0.17205 0.33472 -0.09613
 N385 N -0.18607 0.31370 -0.11134
 C386 C -0.17397 0.30147 -0.13724
 N387 N -0.14743 0.31119 -0.14744
 C388 C -0.12952 0.36593 -0.08945
 C389 C -0.11469 0.38348 -0.07587
 C390 C -0.09522 0.40340 -0.06069
 N391 N -0.09815 0.43233 -0.06470
 N392 N -0.07799 0.45047 -0.05341
 C393 C -0.05421 0.44023 -0.03784
 N394 N -0.05160 0.41130 -0.03354
 N395 N -0.07175 0.39321 -0.04476
 N396 N 0.18703 0.64891 -0.14411
 C397 C 0.15975 0.63892 -0.15105
 N398 N 0.14499 0.65047 -0.17522
 N399 N 0.15710 0.67142 -0.19190
 C400 C 0.18437 0.68160 -0.18491
 N401 N 0.19914 0.66984 -0.16078
 C402 C 0.14577 0.61781 -0.13183
 C403 C 0.13303 0.60096 -0.11544
 C404 C 0.11626 0.58214 -0.09593
 N405 N 0.09837 0.56190 -0.10865
 N406 N 0.07965 0.54719 -0.09100
 C407 C 0.07817 0.55218 -0.06000
 N408 N 0.09652 0.57209 -0.04724
 N409 N 0.11525 0.58681 -0.06491
 N410 N -0.13533 0.67687 0.15219
 C411 C -0.14655 0.66470 0.12615
 N412 N -0.17296 0.67413 0.11548
 N413 N -0.18767 0.69516 0.13040
 C414 C -0.17644 0.70748 0.15646
 N415 N -0.15001 0.69789 0.16709
 C416 C -0.13016 0.64258 0.10987
 C417 C -0.11536 0.62431 0.09691
 C418 C -0.09635 0.60304 0.08263
 N419 N -0.09042 0.60370 0.05184
 N420 N -0.07054 0.58561 0.03929
 C421 C -0.05591 0.56632 0.05715
 N422 N -0.06215 0.56555 0.08788
 N423 N -0.08202 0.58358 0.10039
 N424 N 1.13150 0.17878 0.64877
 C425 C 1.13993 0.15171 0.64004
 N426 N 1.16401 0.13961 0.65326
 N427 N 1.17909 0.15403 0.67474
 C428 C 1.17056 0.18104 0.68390
 N429 N 1.14661 0.19325 0.67026
 C430 C 1.12216 0.13490 0.61933
 C431 C 1.10703 0.11965 0.60324
 C432 C 1.08883 0.10030 0.58574
 N433 N 1.10127 0.07948 0.56747
 N434 N 1.08449 0.05963 0.55371
 C435 C 1.05474 0.05988 0.55788
 N436 N 1.04233 0.08090 0.57596
 N437 N 1.05910 0.10075 0.58970
 N438 N 0.86081 -0.18012 0.65241
 C439 C 0.84863 -0.15566 0.64100
 N440 N 0.82159 -0.14705 0.65121
 N441 N 0.80727 -0.16226 0.67247
 C442 C 0.81956 -0.18656 0.68439
 N443 N 0.84649 -0.19536 0.67367
 C444 C 0.86529 -0.13750 0.62083
 C445 C 0.87944 -0.12120 0.60517
 C446 C 0.89630 -0.10070 0.58799
 N447 N 0.88247 -0.08080 0.57032
 N448 N 0.89790 -0.06017 0.55646
 C449 C 0.92765 -0.05869 0.55993
 N450 N 0.94146 -0.07876 0.57749
 N451 N 0.92602 -0.09939 0.59135
 N452 N 1.17423 -0.13236 0.34116
 C453 C 1.14651 -0.14134 0.34790
 N454 N 1.13751 -0.16754 0.33745
 N455 N 1.15560 -0.18416 0.32047
 C456 C 1.18332 -0.17516 0.31331
 N457 N 1.19235 -0.14898 0.32418
 C458 C 1.12644 -0.12284 0.36465
 C459 C 1.10933 -0.10718 0.37825
 C460 C 1.08890 -0.08840 0.39414
 N461 N 1.08315 -0.09202 0.42464
 N462 N 1.06449 -0.07427 0.43951
 C463 C 1.05095 -0.05238 0.42435
 N464 N 1.05668 -0.04885 0.39378
 N465 N 1.07534 -0.06661 0.37891
 N466 N 0.82869 0.14150 0.32366
 C467 C 0.85552 0.15086 0.33301
 N468 N 0.86589 0.17633 0.32239
 N469 N 0.85000 0.19184 0.30267
 C470 C 0.82320 0.18238 0.29288
 N471 N 0.81280 0.15698 0.30395
 C472 C 0.87311 0.13340 0.35296
 C473 C 0.88756 0.11813 0.36945
 C474 C 0.90411 0.09940 0.38905
 N475 N 0.92226 0.07884 0.37670
 N476 N 0.93653 0.06048 0.39496
 C477 C 0.93302 0.06213 0.42614
 N478 N 0.91493 0.08284 0.43840
 N479 N 0.90069 0.10117 0.42016
 N480 N 0.13524 0.34439 -0.18878
 C481 C 0.14366 0.35430 -0.16058
 N482 N 0.16646 0.34116 -0.14606
 N483 N 0.18038 0.31871 -0.15926
 C484 C 0.17191 0.30853 -0.18745
 N485 N 0.14916 0.32195 -0.20200
 C486 C 0.12745 0.37713 -0.14527
 C487 C 0.11369 0.39546 -0.13122
 C488 C 0.09736 0.41609 -0.11279
 N489 N 0.10761 0.42405 -0.08461
 N490 N 0.09136 0.44086 -0.06592
 C491 C 0.06427 0.45032 -0.07474
 N492 N 0.05414 0.44262 -0.10315
 N493 N 0.07042 0.42573 -0.12187
 N494 N -0.16125 0.32689 0.11311
 C495 C -0.13639 0.33754 0.12631
 N496 N -0.12890 0.32892 0.15504
 N497 N -0.14563 0.31014 0.17013
 C498 C -0.17048 0.29931 0.15707
 N499 N -0.17804 0.30805 0.12825
 C500 C -0.11792 0.35765 0.11043
 C501 C -0.10143 0.37462 0.09851
 C502 C -0.08101 0.39493 0.08584
 N503 N -0.05993 0.38617 0.06533
 N504 N -0.03991 0.40479 0.05499
 C505 C -0.04023 0.43274 0.06500
 N506 N -0.06142 0.44144 0.08548
 N507 N -0.08142 0.42282 0.09580
 N508 N -0.12010 0.67788 -0.17003
 C509 C -0.12709 0.67045 -0.14069
 N510 N -0.15243 0.68080 -0.12773
 N511 N -0.17020 0.69818 -0.14362
 C512 C -0.16322 0.70580 -0.17305
 N513 N -0.13783 0.69523 -0.18592
 C514 C -0.10768 0.65210 -0.12353
 C515 C -0.09115 0.63675 -0.10931
 C516 C -0.07146 0.61846 -0.09243
 N517 N -0.07548 0.58945 -0.09231
 N518 N -0.05747 0.57247 -0.07625
 C519 C -0.03483 0.58395 -0.05984
 N520 N -0.03076 0.61301 -0.06010
 N521 N -0.04877 0.62998 -0.07617
 N522 N 0.18416 0.67300 0.13752
 C523 C 0.15736 0.66401 0.14769
 N524 N 0.14716 0.67356 0.17550
 N525 N 0.16313 0.69168 0.19259
 C526 C 0.18991 0.70089 0.18252
 N527 N 0.20019 0.69117 0.15466
 C528 C 0.13958 0.64491 0.12936
 C529 C 0.12369 0.62894 0.11494
 C530 C 0.10399 0.60989 0.09887
 N531 N 0.08595 0.62006 0.07650
 N532 N 0.06676 0.60255 0.06256
 C533 C 0.06489 0.57434 0.07068
 N534 N 0.08302 0.56424 0.09307
 N535 N 0.10220 0.58174 0.10698
 N536 N 0.30788 1.12517 0.83459
 C537 C 0.31764 1.13419 0.86262
 N538 N 0.30913 1.16058 0.87358
 N539 N 0.29130 1.17737 0.85701
 C540 C 0.28148 1.16834 0.82888
 N541 N 0.29010 1.14191 0.81805
 C542 C 0.33741 1.11618 0.87981
 C543 C 0.35444 1.10052 0.89304
 C544 C 0.37536 1.08153 0.90736
 N545 N 0.40396 1.08151 0.89795
 N546 N 0.42333 1.06315 0.91010
 C547 C 0.41476 1.04409 0.93201
 N548 N 0.38609 1.04418 0.94149
 N549 N 0.36668 1.06257 0.92930
 N550 N 0.35198 0.86215 1.19340
 C551 C 0.36362 0.85283 1.16609
 N552 N 0.35430 0.82742 1.15373
 N553 N 0.33387 0.81184 1.16817
 C554 C 0.32198 0.82121 1.19544
 N555 N 0.33157 0.84658 1.20785
 C556 C 0.38351 0.87080 1.14909
 C557 C 0.39907 0.88610 1.13366
 C558 C 0.41606 0.90422 1.11367
 N559 N 0.42049 0.89611 1.08381
 N560 N 0.43366 0.91388 1.06414
 C561 C 0.44285 0.94040 1.07362
 N562 N 0.43870 0.94842 1.10366
 N563 N 0.42545 0.93061 1.12337
 N564 N 0.67009 1.13363 1.15942
 C565 C 0.66187 1.13955 1.13010
 N566 N 0.67296 1.16325 1.11605
 N567 N 0.69185 1.18045 1.13089
 C568 C 0.70027 1.17445 1.16026
 N569 N 0.68894 1.15077 1.17423
 C570 C 0.64247 1.12028 1.11398
 C571 C 0.62649 1.10346 1.10089
 C572 C 0.60775 1.08305 1.08553
 N573 N 0.57798 1.08507 1.08846
 N574 N 0.56059 1.06624 1.07392
 C575 C 0.57243 1.04471 1.05611
 N576 N 0.60225 1.04263 1.05336
 N577 N 0.61963 1.06147 1.06790
 N578 N 0.66962 0.86317 0.82576
 C579 C 0.66243 0.85750 0.85553
 N580 N 0.67530 0.83467 0.86967
 N581 N 0.69489 0.81809 0.85450
 C582 C 0.70223 0.82380 0.82467
 N583 N 0.68917 0.84663 0.81061
 C584 C 0.64178 0.87582 0.87181
 C585 C 0.62445 0.89169 0.88489
 C586 C 0.60377 0.91095 0.89985
 N587 N 0.61321 0.93127 0.92031
 N588 N 0.59402 0.94950 0.93374
 C589 C 0.56479 0.94805 0.92705
 N590 N 0.55543 0.92768 0.90655
 N591 N 0.57461 0.90946 0.89313
   
