data_POSCAR
  _audit_creation_date              2014-09-24
  _audit_creation_method            'ToBaCCo'
  _symmetry_space_group_name_H-M    'P1'
  _symmetry_Int_Tables_number       1
  _symmetry_cell_setting            triclinic
  loop_
  _symmetry_equiv_pos_as_xyz
 x,y,z
_cell_length_a 27.3489
_cell_length_b 30.3176
_cell_length_c 42.1851
_cell_angle_alpha 89.740500
_cell_angle_beta 90.648500
_cell_angle_gamma 114.282900
loop_
  _atom_site_label
  _atom_site_type_symbol
  _atom_site_fract_x
  _atom_site_fract_y
  _atom_site_fract_z
C1 C -0.02027 0.46714 1.24569
 C2 C 0.03378 0.49297 1.24850
 C3 C 0.06005 0.50406 1.28026
 C4 C 0.06907 0.51213 1.22063
 C5 C -0.04989 0.46089 1.21516
 C6 C -0.05338 0.44369 1.27364
 C7 C 0.07807 0.55121 1.29213
 C8 C 0.09720 0.56172 1.32329
 C9 C 0.09948 0.52508 1.34342
 C10 C 0.08336 0.47814 1.33064
 C11 C 0.06354 0.46769 1.29954
 C12 C 0.06100 0.54350 1.19867
 C13 C 0.09448 0.56023 1.17234
 C14 C 0.13730 0.54641 1.16778
 C15 C 0.14536 0.51546 1.19007
 C16 C 0.11190 0.49877 1.21626
 C17 C -0.04050 0.43646 1.18935
 C18 C -0.07163 0.42880 1.16158
 C19 C -0.11297 0.44518 1.15936
 C20 C -0.12126 0.47038 1.18509
 C21 C -0.09041 0.47780 1.21273
 C22 C -0.07972 0.39309 1.27479
 C23 C -0.10940 0.37009 1.30139
 C24 C -0.11296 0.39726 1.32740
 C25 C -0.08796 0.44817 1.32573
 C26 C -0.05862 0.47114 1.29900
 H27 H 0.07575 0.57973 1.27747
 H28 H 0.11036 0.59882 1.33084
 H29 H 0.08485 0.44892 1.34495
 H30 H 0.04984 0.43103 1.29070
 H31 H 0.02864 0.55485 1.20181
 H32 H 0.08594 0.58324 1.15559
 H33 H 0.11899 0.47474 1.23297
 H34 H -0.00961 0.42286 1.19087
 H35 H -0.06296 0.41028 1.14205
 H36 H -0.15249 0.48362 1.18405
 H37 H -0.09834 0.49666 1.23241
 H38 H -0.07658 0.37138 1.25525
 H39 H -0.12899 0.33094 1.30186
 H40 H -0.09167 0.47043 1.34471
 H41 H -0.03984 0.51029 1.29812
 H42 H 0.17779 0.50408 1.18723
 C43 C 0.52835 0.50086 1.25034
 C44 C 0.50257 0.53075 1.24846
 C45 C 0.49255 0.55372 1.27717
 C46 C 0.48289 0.54132 1.21769
 C47 C 0.54914 0.48656 1.22163
 C48 C 0.53594 0.48075 1.28118
 C49 C 0.44063 0.54936 1.28368
 C50 C 0.43085 0.57016 1.31099
 C51 C 0.47305 0.59587 1.33220
 C52 C 0.52527 0.60165 1.32501
 C53 C 0.53497 0.58063 1.29778
 C54 C 0.45007 0.50349 1.19777
 C55 C 0.43162 0.51361 1.16884
 C56 C 0.44572 0.56162 1.15929
 C57 C 0.47746 0.59946 1.17971
 C58 C 0.49581 0.58931 1.20865
 C59 C 0.58203 0.52180 1.20040
 C60 C 0.59975 0.50816 1.17277
 C61 C 0.58495 0.45911 1.16583
 C62 C 0.55385 0.42390 1.18782
 C63 C 0.53615 0.43760 1.21546
 C64 C 0.58713 0.48572 1.29083
 C65 C 0.59442 0.46732 1.32004
 C66 C 0.55041 0.44344 1.34004
 C67 C 0.49902 0.43725 1.32983
 C68 C 0.49182 0.45583 1.30069
 H69 H 0.40757 0.52935 1.26780
 H70 H 0.39041 0.56653 1.31516
 H71 H 0.55849 0.62189 1.34074
 H72 H 0.57555 0.58528 1.29274
 H73 H 0.43860 0.46615 1.20471
 H74 H 0.40648 0.48387 1.15379
 H75 H 0.52036 0.61892 1.22396
 H76 H 0.59359 0.55988 1.20514
 H77 H 0.62438 0.53597 1.15650
 H78 H 0.54341 0.38584 1.18397
 H79 H 0.51154 0.40994 1.23182
 H80 H 0.62147 0.50419 1.27584
 H81 H 0.63432 0.47113 1.32656
 H82 H 0.46445 0.41830 1.34456
 H83 H 0.45179 0.45072 1.29329
 H84 H 0.48739 0.63689 1.17379
 C85 C 0.47474 1.04439 1.25339
 C86 C 0.45138 0.99528 1.25452
 C87 C 0.44732 0.96800 1.28436
 C88 C 0.43017 0.96639 1.22532
 C89 C 0.48866 1.07003 1.22253
 C90 C 0.48696 1.07440 1.28252
 C91 C 0.49339 0.97427 1.30209
 C92 C 0.48997 0.94466 1.32826
 C93 C 0.44032 0.90850 1.33759
 C94 C 0.39406 0.90289 1.31968
 C95 C 0.39778 0.93212 1.29335
 C96 C 0.45134 0.93399 1.21510
 C97 C 0.43251 0.90777 1.18710
 C98 C 0.39167 0.91318 1.16910
 C99 C 0.36936 0.94444 1.17996
 C100 C 0.38876 0.97119 1.20773
 C101 C 0.46608 1.10209 1.21345
 C102 C 0.47718 1.12437 1.18372
 C103 C 0.51187 1.11579 1.16258
 C104 C 0.53523 1.08404 1.17224
 C105 C 0.52368 1.06156 1.20187
 C106 C 0.44643 1.06943 1.30414
 C107 C 0.45771 1.09942 1.33080
 C108 C 0.51000 1.13448 1.33681
 C109 C 0.55039 1.13957 1.31461
 C110 C 0.53874 1.11005 1.28777
 H111 H 0.53226 1.00115 1.29510
 H112 H 0.52646 0.95002 1.34119
 H113 H 0.35492 0.87506 1.32474
 H114 H 0.36192 0.92623 1.27961
 H115 H 0.48295 0.92955 1.22860
 H116 H 0.44937 0.88281 1.17984
 H117 H 0.37153 0.99562 1.21557
 H118 H 0.43896 1.10906 1.22912
 H119 H 0.45848 1.14853 1.17729
 H120 H 0.56172 1.07541 1.15718
 H121 H 0.54178 1.03710 1.20867
 H122 H 0.40586 1.04274 1.30012
 H123 H 0.42546 1.09463 1.34702
 H124 H 0.59081 1.16696 1.31698
 H125 H 0.57031 1.11499 1.27102
 H126 H 0.33743 0.94868 1.16668
 C127 C 1.05354 0.48038 0.76185
 C128 C 1.00023 0.45153 0.76127
 C129 C 0.96779 0.44454 0.73199
 C130 C 0.97005 0.42914 0.79020
 C131 C 1.08332 0.49698 0.79199
 C132 C 1.08354 0.50055 0.73245
 C133 C 0.92840 0.46289 0.73076
 C134 C 0.89865 0.45896 0.70310
 C135 C 0.90716 0.43598 0.67631
 C136 C 0.94663 0.41734 0.67758
 C137 C 0.97656 0.42141 0.70535
 C138 C 0.96374 0.45749 0.81463
 C139 C 0.93146 0.43548 0.84055
 C140 C 0.90422 0.38468 0.84211
 C141 C 0.91184 0.35655 0.81797
 C142 C 0.94410 0.37860 0.79210
 C143 C 1.09026 0.46470 0.81356
 C144 C 1.11555 0.48149 0.84281
 C145 C 1.13362 0.53068 0.85119
 C146 C 1.12778 0.56295 0.82874
 C147 C 1.10310 0.54616 0.79955
 C148 C 1.12304 0.48550 0.72287
 C149 C 1.15044 0.50257 0.69461
 C150 C 1.13942 0.53556 0.67540
 C151 C 1.10028 0.55145 0.68567
 C152 C 1.07282 0.53412 0.71396
 H153 H 0.92141 0.48110 0.75111
 H154 H 0.86875 0.47380 0.70265
 H155 H 0.95535 0.40056 0.65712
 H156 H 1.00695 0.40715 0.70597
 H157 H 0.98303 0.49660 0.81334
 H158 H 0.92803 0.45838 0.85918
 H159 H 0.94836 0.35626 0.77329
 H160 H 1.07552 0.42657 0.80788
 H161 H 1.11995 0.45569 0.85920
 H162 H 1.14270 0.60138 0.83289
 H163 H 1.09836 0.57158 0.78298
 H164 H 1.13196 0.45978 0.73705
 H165 H 1.18027 0.48961 0.68771
 H166 H 1.08973 0.57663 0.67218
 H167 H 1.04278 0.54650 0.72133
 H168 H 0.89166 0.31743 0.81873
 C169 C 0.45415 0.50029 0.74832
 C170 C 0.48497 0.47452 0.74974
 C171 C 0.49813 0.45396 0.72072
 C172 C 0.50743 0.46539 0.78014
 C173 C 0.43908 0.51968 0.77722
 C174 C 0.43316 0.50980 0.71754
 C175 C 0.48276 0.40387 0.71850
 C176 C 0.49403 0.38369 0.69130
 C177 C 0.52165 0.41318 0.66590
 C178 C 0.53715 0.46357 0.66821
 C179 C 0.52585 0.48372 0.69547
 C180 C 0.47433 0.44180 0.80566
 C181 C 0.49662 0.43356 0.83396
 C182 C 0.55255 0.44815 0.83707
 C183 C 0.58526 0.47160 0.81137
 C184 C 0.56299 0.47986 0.78322
 C185 C 0.47796 0.55064 0.79839
 C186 C 0.46257 0.56684 0.82605
 C187 C 0.40781 0.55290 0.83284
 C188 C 0.36927 0.52267 0.81121
 C189 C 0.38468 0.50649 0.78369
 C190 C 0.44933 0.55756 0.70688
 C191 C 0.43180 0.56718 0.67742
 C192 C 0.39730 0.52905 0.65811
 C193 C 0.37983 0.48135 0.66935
 C194 C 0.39776 0.47175 0.69873
 H195 H 0.46140 0.38028 0.73774
 H196 H 0.48141 0.34485 0.69018
 H197 H 0.55724 0.48761 0.64895
 H198 H 0.53850 0.52252 0.69681
 H199 H 0.43126 0.42978 0.80366
 H200 H 0.46974 0.41613 0.85317
 H201 H 0.58927 0.49798 0.76380
 H202 H 0.52022 0.56183 0.79366
 H203 H 0.49381 0.58948 0.84207
 H204 H 0.32689 0.51128 0.81569
 H205 H 0.35399 0.48278 0.76767
 H206 H 0.47616 0.58741 0.72124
 H207 H 0.44464 0.60450 0.67015
 H208 H 0.35263 0.45139 0.65521
 H209 H 0.38422 0.43466 0.70676
 H210 H 0.62835 0.48331 0.81297
 C211 C 0.50469 -0.02068 0.74098
 C212 C 0.54151 0.02610 0.74073
 C213 C 0.56054 0.05397 0.71102
 C214 C 0.56428 0.05235 0.77066
 C215 C 0.49163 -0.04932 0.77062
 C216 C 0.47705 -0.04685 0.71193
 C217 C 0.61564 0.07465 0.70480
 C218 C 0.63514 0.10164 0.67733
 C219 C 0.60011 0.10904 0.65551
 C220 C 0.54458 0.08814 0.66175
 C221 C 0.52510 0.06114 0.68940
 C222 C 0.59640 0.03832 0.79094
 C223 C 0.61479 0.06218 0.81987
 C224 C 0.60104 0.10010 0.82898
 C225 C 0.57071 0.11525 0.80792
 C226 C 0.55257 0.09156 0.77906
 C227 C 0.46502 -0.03833 0.79550
 C228 C 0.45458 -0.06517 0.82361
 C229 C 0.47067 -0.10373 0.82726
 C230 C 0.49698 -0.11445 0.80190
 C231 C 0.50695 -0.08782 0.77388
 C232 C 0.42086 -0.06803 0.71083
 C233 C 0.39353 -0.09517 0.68457
 C234 C 0.42163 -0.10216 0.65872
 C235 C 0.47845 -0.08035 0.65993
 C236 C 0.50566 -0.05331 0.68636
 H237 H 0.64366 0.06965 0.72124
 H238 H 0.67797 0.11715 0.67324
 H239 H 0.51583 0.09217 0.64557
 H240 H 0.48245 0.04599 0.69399
 H241 H 0.60660 0.00862 0.78453
 H242 H 0.63885 0.05041 0.83544
 H243 H 0.52849 0.10327 0.76345
 H244 H 0.45274 -0.00874 0.79320
 H245 H 0.43470 -0.05471 0.84219
 H246 H 0.50994 -0.14370 0.80367
 H247 H 0.52754 -0.09673 0.75481
 H248 H 0.39805 -0.06372 0.73048
 H249 H 0.35006 -0.11122 0.68470
 H250 H 0.50280 -0.08431 0.64117
 H251 H 0.54909 -0.03806 0.68708
 H252 H 0.56118 0.14559 0.81353
 O253 O 0.43627 0.70523 0.97144
 O254 O 0.41708 0.78142 0.96191
 C255 C 0.38610 0.80261 0.95794
 O256 O 0.34757 0.79667 0.97638
 O257 O 0.26718 0.71262 0.96826
 C258 C 0.24964 0.66773 0.96235
 O259 O 0.26255 0.63852 0.97856
 O260 O 0.35708 0.64258 0.96570
 C261 C 0.40501 0.66709 0.95717
 O262 O 0.44031 0.72179 1.03434
 O263 O 0.42604 0.80052 1.02498
 C264 C 0.39154 0.80452 1.04338
 O265 O 0.34134 0.78109 1.03947
 O266 O 0.25669 0.70019 1.03144
 C267 C 0.25709 0.66505 1.04770
 O268 O 0.28706 0.64369 1.04133
 O269 O 0.38071 0.64510 1.02858
 C270 C 0.42101 0.67766 1.04233
 Cr271 Cr 0.42710 0.75090 0.99829
 Cr272 Cr 0.30491 0.74642 1.00382
 Cr273 Cr 0.32295 0.64504 1.00350
 O274 O 0.35169 0.71398 1.00196
 O275 O 0.55745 0.31319 0.97832
 O276 O 0.57053 0.23643 0.96150
 C277 C 0.60046 0.21754 0.95074
 O278 O 0.64492 0.22306 0.96360
 O279 O 0.72539 0.30698 0.95642
 C280 C 0.74366 0.35255 0.95343
 O281 O 0.73205 0.37946 0.97205
 O282 O 0.63519 0.37548 0.96819
 C283 C 0.58539 0.35137 0.96311
 O284 O 0.56994 0.29293 1.03951
 O285 O 0.57860 0.21452 1.02302
 C286 C 0.61732 0.20803 1.03592
 O287 O 0.66540 0.22945 1.02693
 O288 O 0.74777 0.31127 1.01907
 C289 C 0.75219 0.34566 1.03763
 O290 O 0.72276 0.36886 1.03544
 O291 O 0.62760 0.36955 1.03232
 C292 C 0.59134 0.33669 1.04811
 Cr293 Cr 0.57213 0.26564 1.00045
 Cr294 Cr 0.69398 0.26886 0.99172
 Cr295 Cr 0.67816 0.37068 1.00185
 O296 O 0.64815 0.30172 0.99799
 O297 O 0.68584 0.41574 0.53192
 O298 O 0.76363 0.38963 0.54509
 C299 C 0.78324 0.35865 0.54893
 O300 O 0.77506 0.32430 0.52960
 O301 O 0.67802 0.25578 0.53271
 C302 C 0.62800 0.24280 0.53674
 O303 O 0.59994 0.25981 0.52074
 O304 O 0.61209 0.34732 0.53548
 C305 C 0.64150 0.38989 0.54472
 O306 O 0.71080 0.42023 0.47033
 O307 O 0.79253 0.39985 0.48386
 C308 C 0.79473 0.36936 0.46409
 O309 O 0.76462 0.32457 0.46561
 O310 O 0.67120 0.25285 0.46904
 C311 C 0.63567 0.25773 0.45171
 O312 O 0.61325 0.28557 0.45868
 O313 O 0.62306 0.37243 0.47307
 C314 C 0.66286 0.40691 0.46058
 Cr315 Cr 0.73643 0.40387 0.50759
 Cr316 Cr 0.72113 0.29105 0.49938
 Cr317 Cr 0.61484 0.31703 0.49717
 O318 O 0.69053 0.33719 0.50147
 O319 O 0.33485 0.60829 0.52391
 O320 O 0.24702 0.61525 0.53847
 C321 C 0.22513 0.64209 0.54807
 O322 O 0.22860 0.67980 0.53352
 O323 O 0.31997 0.75586 0.53481
 C324 C 0.37089 0.77538 0.53498
 O325 O 0.39896 0.76493 0.51514
 O326 O 0.40361 0.68147 0.52379
 C327 C 0.37965 0.63888 0.53471
 O328 O 0.30601 0.60367 0.46166
 O329 O 0.21817 0.61019 0.47588
 C330 C 0.20608 0.64186 0.46199
 O331 O 0.22595 0.68623 0.46981
 O332 O 0.31344 0.76494 0.47130
 C333 C 0.34819 0.76756 0.45087
 O334 O 0.37757 0.74439 0.45317
 O335 O 0.38781 0.66314 0.46104
 C336 C 0.35201 0.62450 0.44985
 Cr337 Cr 0.27791 0.61215 0.49990
 Cr338 Cr 0.27354 0.72011 0.50220
 Cr339 Cr 0.38896 0.71215 0.48863
 O340 O 0.31339 0.68128 0.49691
 C341 C 0.46403 0.61777 0.36157
 C342 C 0.41773 0.59912 0.37719
 C343 C 0.40983 0.62188 0.40622
 C344 C 0.36348 0.60217 0.42170
 H345 H 0.38524 0.56633 0.36878
 H346 H 0.44158 0.65524 0.41461
 H347 H 0.49718 0.64900 0.37130
 H348 H 0.33203 0.56890 0.41293
 C349 C 0.43920 0.87888 0.36377
 C350 C 0.39423 0.84806 0.37774
 C351 C 0.39543 0.81785 0.40498
 C352 C 0.35229 0.79866 0.42334
 H353 H 0.35537 0.84587 0.37033
 H354 H 0.43121 0.81204 0.41028
 H355 H 0.47720 0.88216 0.37390
 H356 H 0.31815 0.80729 0.41853
 C357 C 0.11698 0.53304 0.37401
 C358 C 0.13033 0.57652 0.39074
 C359 C 0.15427 0.58354 0.42084
 C360 C 0.17082 0.62841 0.43602
 H361 H 0.12343 0.60616 0.38044
 H362 H 0.16367 0.55521 0.43135
 H363 H 0.12087 0.50355 0.38691
 H364 H 0.16103 0.65623 0.42501
 C365 C 0.55637 0.42290 0.37094
 C366 C 0.60174 0.44064 0.38805
 C367 C 0.60690 0.41715 0.41767
 C368 C 0.65375 0.43286 0.43324
 H369 H 0.63583 0.47230 0.38005
 H370 H 0.57304 0.38534 0.42584
 H371 H 0.52190 0.39261 0.38016
 H372 H 0.68768 0.46402 0.42440
 C373 C 0.51961 0.16303 0.36449
 C374 C 0.56859 0.19068 0.37600
 C375 C 0.57645 0.21812 0.40581
 C376 C 0.62236 0.23005 0.42198
 H377 H 0.60419 0.19120 0.36485
 H378 H 0.54486 0.22733 0.41479
 H379 H 0.48534 0.16064 0.37827
 H380 H 0.65185 0.21771 0.41339
 C381 C 0.85529 0.37154 0.35521
 C382 C 0.86443 0.39026 0.38444
 C383 C 0.82926 0.36539 0.41101
 C384 C 0.83426 0.38819 0.43866
 H385 H 0.89728 0.42505 0.38883
 H386 H 0.79680 0.33008 0.40724
 H387 H 0.82371 0.33573 0.35153
 H388 H 0.86535 0.42446 0.44153
 C389 C 0.60320 0.44623 1.13576
 C390 C 0.57765 0.40348 1.12141
 C391 C 0.59687 0.39292 1.09121
 C392 C 0.57241 0.34945 1.07769
 H393 H 0.54172 0.37614 1.13154
 H394 H 0.63175 0.42060 1.08025
 H395 H 0.63762 0.47374 1.12429
 H396 H 0.53825 0.32169 1.08920
 C397 C 0.85133 0.43690 1.13112
 C398 C 0.84317 0.40242 1.10943
 C399 C 0.80317 0.39368 1.08369
 C400 C 0.79379 0.35815 1.06269
 H401 H 0.86401 0.37893 1.11124
 H402 H 0.78041 0.41568 1.08239
 H403 H 0.82809 0.45844 1.12913
 H404 H 0.81691 0.33647 1.06425
 C405 C 0.52122 0.13918 1.13286
 C406 C 0.55633 0.13800 1.11121
 C407 C 0.56363 0.16556 1.08148
 C408 C 0.60625 0.17478 1.06308
 H409 H 0.58162 0.11899 1.11541
 H410 H 0.53540 0.18118 1.07559
 H411 H 0.49907 0.16090 1.12730
 H412 H 0.63617 0.16159 1.06991
 C413 C 0.42483 0.57093 1.12867
 C414 C 0.44921 0.61193 1.11235
 C415 C 0.42502 0.62121 1.08323
 C416 C 0.44697 0.66435 1.06910
 H417 H 0.48690 0.63953 1.12072
 H418 H 0.38764 0.59364 1.07434
 H419 H 0.38844 0.54284 1.11908
 H420 H 0.48359 0.69205 1.07877
 C421 C 0.17374 0.56212 1.14006
 C422 C 0.17831 0.59875 1.12072
 C423 C 0.21601 0.61240 1.09390
 C424 C 0.22017 0.64907 1.07478
 H425 H 0.15506 0.61965 1.12470
 H426 H 0.24042 0.59248 1.08982
 H427 H 0.19913 0.54316 1.13581
 H428 H 0.19541 0.66859 1.07918
 C429 C 0.37063 0.88555 1.13955
 C430 C 0.40185 0.87468 1.11974
 C431 C 0.37951 0.84529 1.09119
 C432 C 0.41184 0.83772 1.07046
 H433 H 0.44446 0.88744 1.12464
 H434 H 0.33637 0.82858 1.08765
 H435 H 0.32875 0.87526 1.13343
 H436 H 0.45493 0.85506 1.07416
 C437 C 0.53271 0.38990 0.63751
 C438 C 0.57167 0.41332 0.61684
 C439 C 0.58294 0.38820 0.58980
 C440 C 0.62495 0.41204 0.57124
 H441 H 0.59729 0.45123 0.62035
 H442 H 0.55789 0.35027 0.58556
 H443 H 0.50942 0.35137 0.63432
 H444 H 0.64997 0.44975 0.57633
 C445 C 0.62388 0.13900 0.62707
 C446 C 0.59732 0.15554 0.60681
 C447 C 0.62580 0.18819 0.58072
 C448 C 0.60017 0.20661 0.56122
 H449 H 0.55521 0.14696 0.60985
 H450 H 0.66851 0.19853 0.57815
 H451 H 0.66639 0.14962 0.62327
 H452 H 0.55751 0.19629 0.56411
 C453 C 0.87484 0.43325 0.64751
 C454 C 0.86449 0.39927 0.62534
 C455 C 0.83011 0.39741 0.59796
 C456 C 0.81794 0.36229 0.57647
 H457 H 0.87985 0.37170 0.62771
 H458 H 0.81436 0.42477 0.59549
 H459 H 0.85662 0.45887 0.64525
 H460 H 0.83388 0.33509 0.57917
 C461 C 0.37684 0.53787 0.62701
 C462 C 0.40321 0.57682 0.60897
 C463 C 0.37937 0.58535 0.57922
 C464 C 0.40508 0.62523 0.56187
 H465 H 0.44239 0.60318 0.61627
 H466 H 0.33928 0.56009 0.57241
 H467 H 0.33887 0.51079 0.61844
 H468 H 0.44469 0.65074 0.56932
 C469 C 0.39150 0.86829 0.63350
 C470 C 0.41236 0.85819 0.60736
 C471 C 0.37806 0.82386 0.58333
 C472 C 0.40073 0.81216 0.55879
 H473 H 0.45507 0.87387 0.60343
 H474 H 0.33494 0.80692 0.58630
 H475 H 0.34814 0.85173 0.63560
 H476 H 0.44405 0.82903 0.55660
 C477 C 0.16764 0.55044 0.64677
 C478 C 0.16314 0.58262 0.62632
 C479 C 0.19420 0.59441 0.59683
 C480 C 0.19384 0.62930 0.57746
 H481 H 0.13734 0.60088 0.63082
 H482 H 0.21812 0.57459 0.59106
 H483 H 0.19545 0.53459 0.64075
 H484 H 0.17092 0.64983 0.58368
 C485 C 0.38856 0.56765 0.86217
 C486 C 0.41948 0.60243 0.88218
 C487 C 0.39633 0.61508 0.91042
 C488 C 0.42658 0.65144 0.92953
 H489 H 0.46172 0.62268 0.87767
 H490 H 0.35401 0.59507 0.91525
 H491 H 0.34608 0.54941 0.86722
 H492 H 0.46866 0.67167 0.92418
 C493 C 0.15767 0.54577 0.88122
 C494 C 0.16969 0.58973 0.89364
 C495 C 0.19911 0.60432 0.92386
 C496 C 0.21322 0.64914 0.93503
 H497 H 0.15881 0.61605 0.88173
 H498 H 0.21204 0.57929 0.93600
 H499 H 0.16660 0.51998 0.89540
 H500 H 0.20095 0.67416 0.92234
 C501 C 0.46222 0.86803 0.85495
 C502 C 0.43476 0.87112 0.88034
 C503 C 0.42839 0.83889 0.90766
 C504 C 0.39490 0.83614 0.93114
 H505 H 0.41563 0.89595 0.88122
 H506 H 0.45036 0.81616 0.90815
 H507 H 0.47857 0.84090 0.85559
 H508 H 0.37177 0.85784 0.93011
 C509 C 0.57889 0.43983 0.86621
 C510 C 0.55308 0.40991 0.88984
 C511 C 0.58301 0.40052 0.91653
 C512 C 0.55740 0.36701 0.93834
 H513 H 0.50998 0.39012 0.88905
 H514 H 0.62637 0.41928 0.91743
 H515 H 0.62232 0.45767 0.86758
 H516 H 0.51415 0.34768 0.93667
 C517 C 0.86729 0.35978 0.86820
 C518 C 0.84151 0.38071 0.88498
 C519 C 0.80350 0.35405 0.90986
 C520 C 0.78069 0.37657 0.92759
 H521 H 0.84731 0.41759 0.88004
 H522 H 0.79483 0.31624 0.91400
 H523 H 0.85886 0.32208 0.87262
 H524 H 0.79083 0.41472 0.92368
 C525 C 0.61944 0.12382 0.86016
 C526 C 0.59145 0.14336 0.87633
 C527 C 0.61103 0.16875 0.90664
 C528 C 0.58190 0.18810 0.92183
 H529 H 0.55326 0.14082 0.86710
 H530 H 0.64981 0.17295 0.91595
 H531 H 0.65603 0.12399 0.87044
 H532 H 0.54339 0.18378 0.91197
   
