data_POSCAR
  _audit_creation_date              2014-09-24
  _audit_creation_method            'ToBaCCo'
  _symmetry_space_group_name_H-M    'P1'
  _symmetry_Int_Tables_number       1
  _symmetry_cell_setting            triclinic
  loop_
  _symmetry_equiv_pos_as_xyz
 x,y,z
_cell_length_a 19.6535
_cell_length_b 19.7420
_cell_length_c 47.2372
_cell_angle_alpha 82.422500
_cell_angle_beta 92.786400
_cell_angle_gamma 119.893200
loop_
  _atom_site_label
  _atom_site_type_symbol
  _atom_site_fract_x
  _atom_site_fract_y
  _atom_site_fract_z
C1 C 0.00475 0.13841 0.53258
 H2 H 0.05976 0.14054 0.52898
 C3 C 0.00211 0.18819 0.55018
 H4 H 0.05525 0.22877 0.56018
 C5 C -0.13146 0.08282 0.52374
 H6 H -0.18297 0.04175 0.51320
 C7 C -0.13690 0.13140 0.54161
 H8 H -0.19293 0.12750 0.54484
 N9 N -0.06126 0.08702 0.51984
 C10 C -0.01282 -0.09927 0.50778
 H11 H -0.00649 -0.09269 0.48480
 C12 C -0.01209 -0.16281 0.52455
 H13 H -0.00366 -0.20419 0.51441
 C14 C -0.03649 -0.05611 0.54884
 H15 H -0.04872 -0.01619 0.55820
 C16 C -0.03687 -0.11901 0.56629
 H17 H -0.04780 -0.12615 0.58904
 Zn18 Zn -0.04363 0.02658 0.49654
 N19 N -0.02522 -0.04771 0.52011
 C20 C 0.11044 0.09473 0.47173
 N21 N 0.04395 0.09947 0.47291
 C22 C 0.03861 0.16074 0.45828
 C23 C 0.10116 0.21983 0.44121
 C24 C 0.17455 0.15271 0.45480
 C25 C -0.19150 -0.09961 0.48693
 C26 C -0.24610 -0.15711 0.47078
 C27 C -0.17675 -0.07302 0.42795
 C28 C -0.12292 -0.01787 0.44488
 N29 N -0.13002 -0.03282 0.47384
 H30 H 0.11412 0.04655 0.48405
 H31 H -0.01450 0.16371 0.46005
 H32 H 0.09607 0.26815 0.42959
 H33 H 0.22695 0.14808 0.45398
 H34 H -0.19498 -0.11072 0.51001
 H35 H -0.29238 -0.21112 0.48180
 H36 H -0.16842 -0.06128 0.40494
 H37 H -0.07298 0.03453 0.43479
 C38 C -0.02543 -0.17354 0.55411
 C39 C -0.06926 0.18463 0.55501
 C40 C -0.23730 -0.14527 0.44087
 C41 C 0.16994 0.21603 0.43933
 C42 C 1.19994 0.10211 0.12813
 H43 H 1.20199 0.15743 0.12937
 C44 C 1.25420 0.09999 0.11090
 H45 H 1.29762 0.15392 0.09883
 C46 C 1.14033 -0.03532 0.14265
 H47 H 1.09626 -0.08757 0.15529
 C48 C 1.19367 -0.04010 0.12558
 H49 H 1.19012 -0.09638 0.12487
 N50 N 1.14395 0.03508 0.14328
 C51 C 0.94663 0.07008 0.15440
 H52 H 0.94290 0.06508 0.17742
 C53 C 0.88386 0.06575 0.13790
 H54 H 0.83274 0.05918 0.14832
 C55 C 1.01486 0.07774 0.11299
 H56 H 1.06394 0.07844 0.10338
 C57 C 0.95407 0.07483 0.09572
 H58 H 0.95772 0.07509 0.07289
 Zn59 Zn 1.07627 0.04930 0.16575
 N60 N 1.00934 0.07354 0.14184
 C61 C 1.13882 0.19658 0.18886
 N62 N 1.14209 0.12972 0.18791
 C63 C 1.19608 0.11654 0.20288
 C64 C 1.24912 0.17110 0.22007
 C65 C 1.19101 0.25297 0.20596
 C66 C 0.95358 -0.10693 0.17877
 C67 C 0.89150 -0.16809 0.19570
 C68 C 0.94453 -0.09533 0.23612
 C69 C 1.00577 -0.03605 0.21858
 N70 N 1.00849 -0.04208 0.19034
 H71 H 1.09572 0.20591 0.17653
 H72 H 1.19747 0.06297 0.20151
 H73 H 1.29099 0.15884 0.23195
 H74 H 1.18786 0.30583 0.20695
 H75 H 0.95551 -0.10907 0.15607
 H76 H 0.84664 -0.21796 0.18601
 H77 H 0.94124 -0.08827 0.25828
 H78 H 1.04813 0.01688 0.22725
 C79 C 0.88649 0.06567 0.10831
 C80 C 1.25106 0.02818 0.10941
 C81 C 0.88583 -0.16140 0.22456
 C82 C 1.24669 0.24006 0.22183
 C83 C 0.05437 0.87719 0.87539
 H84 H 0.00282 0.82051 0.87371
 C85 C 0.11624 0.88207 0.89239
 H86 H 0.11220 0.82907 0.90403
 C87 C 0.12284 1.01539 0.86191
 H88 H 0.12515 1.06689 0.84973
 C89 C 0.18627 1.02292 0.87870
 H90 H 0.23700 1.08062 0.87952
 N91 N 0.05846 0.94329 0.86075
 C92 C -0.17774 0.90305 0.84744
 H93 H -0.17969 0.91070 0.82436
 C94 C -0.23388 0.90560 0.86367
 H95 H -0.27976 0.91302 0.85273
 C96 C -0.11120 0.89092 0.88929
 H97 H -0.06142 0.88914 0.89923
 C98 C -0.16657 0.89197 0.90633
 H99 H -0.15951 0.88912 0.92927
 Zn100 Zn -0.02740 0.92807 0.83737
 N101 N -0.11640 0.89874 0.86036
 C102 C -0.11289 0.78710 0.81033
 N103 N -0.04217 0.85131 0.81411
 C104 C 0.02452 0.86375 0.80151
 C105 C 0.02185 0.81111 0.78399
 C106 C -0.11830 0.73296 0.79268
 C107 C -0.01216 1.07787 0.82667
 C108 C -0.01545 1.14011 0.80999
 C109 C -0.00585 1.08832 0.76772
 C110 C -0.00412 1.02639 0.78514
 N111 N -0.00840 1.02166 0.81406
 H112 H -0.16493 0.77819 0.82082
 H113 H 0.08001 0.91510 0.80507
 H114 H 0.07538 0.82198 0.77397
 H115 H -0.17486 0.68243 0.78957
 H116 H -0.01691 1.07195 0.84969
 H117 H -0.02100 1.18295 0.82030
 H118 H -0.00416 1.09057 0.74472
 H119 H -0.00276 0.98052 0.77545
 C120 C -0.22677 0.90322 0.89350
 C121 C 0.18302 0.95551 0.89415
 C122 C -0.01401 1.14453 0.78016
 C123 C -0.05014 0.74525 0.77927
 O124 O 0.42047 -0.08958 -0.01837
 O125 O 0.57517 -0.06139 0.03435
 O126 O 0.43907 -0.06923 0.03487
 O127 O 0.54932 -0.09915 -0.01767
 O128 O 0.61128 0.02813 -0.03321
 O129 O 0.50181 0.05877 0.02050
 O130 O 0.63835 0.06582 0.01871
 O131 O 0.48435 0.03845 -0.03271
 Cu132 Cu 0.49010 -0.09266 0.00967
 Cu133 Cu 0.56561 0.06053 -0.00809
 C134 C 0.42576 -0.02940 -0.03398
 C135 C 0.63314 0.00755 0.03531
 C136 C 0.45055 -0.00077 0.03636
 C137 C 0.59873 -0.04117 -0.03435
 O138 O 0.01599 0.56096 0.69304
 O139 O 0.00886 0.43836 0.63903
 O140 O 0.02148 0.57675 0.63769
 O141 O 0.02241 0.43141 0.69390
 O142 O -0.10733 0.36696 0.69622
 O143 O -0.10807 0.51692 0.64026
 O144 O -0.12079 0.37786 0.64077
 O145 O -0.11373 0.49604 0.69560
 Cu146 Cu 0.03003 0.50808 0.66570
 Cu147 Cu -0.12542 0.43306 0.66837
 C148 C -0.04820 0.54930 0.70328
 C149 C -0.05763 0.38687 0.63094
 C150 C -0.04268 0.57277 0.62972
 C151 C -0.04160 0.37413 0.70435
 O152 O 0.41144 0.50815 0.35239
 O153 O 0.57094 0.64207 0.29998
 O154 O 0.43343 0.51569 0.29829
 O155 O 0.54055 0.64481 0.35269
 O156 O 0.60238 0.57798 0.36513
 O157 O 0.49252 0.44613 0.31072
 O158 O 0.63005 0.57247 0.31214
 O159 O 0.47454 0.44247 0.36471
 Cu160 Cu 0.48325 0.58469 0.32467
 Cu161 Cu 0.55629 0.50337 0.33934
 C162 C 0.41588 0.45165 0.36708
 C163 C 0.62755 0.62934 0.29725
 C164 C 0.44327 0.45816 0.29563
 C165 C 0.58975 0.63398 0.36800
 C166 C -0.09487 0.33157 0.57990
 C167 C -0.02395 0.32803 0.56875
 C168 C -0.07088 0.23757 0.57471
 C169 C -0.14188 0.24038 0.58560
 C170 C -0.03823 0.24039 0.60510
 C171 C 0.00878 0.33128 0.59930
 C172 C -0.06201 0.33418 0.61018
 C173 C -0.10901 0.24382 0.61619
 H174 H -0.11785 0.36994 0.56973
 H175 H 0.01092 0.36222 0.54898
 H176 H -0.20415 0.20291 0.58005
 H177 H -0.01517 0.20223 0.61542
 H178 H 0.07086 0.36900 0.60505
 H179 H -0.14375 0.20975 0.63600
 C180 C 0.75361 0.66268 0.26643
 C181 C 0.74861 0.69920 0.23582
 C182 C 0.81545 0.77962 0.24277
 C183 C 0.82104 0.74362 0.27313
 C184 C 0.75562 0.79999 0.25330
 C185 C 0.68797 0.71889 0.24660
 C186 C 0.69393 0.68323 0.27691
 C187 C 0.76063 0.76350 0.28382
 H188 H 0.75221 0.60558 0.27198
 H189 H 0.74347 0.67207 0.21612
 H190 H 0.87627 0.75396 0.28391
 H191 H 0.75711 0.85713 0.24770
 H192 H 0.63255 0.70833 0.23592
 H193 H 0.76484 0.78950 0.30374
 C194 C 0.28368 -0.11154 -0.05801
 C195 C 0.23886 -0.06682 -0.05493
 C196 C 0.24916 -0.03950 -0.08727
 C197 C 0.29321 -0.08435 -0.09061
 C198 C 0.32690 0.03536 -0.08262
 C199 C 0.31712 0.00807 -0.05012
 C200 C 0.36119 -0.03662 -0.05347
 C201 C 0.37168 -0.00936 -0.08575
 H202 H 0.26653 -0.17191 -0.04776
 H203 H 0.18371 -0.09017 -0.04236
 H204 H 0.28286 -0.12229 -0.10754
 H205 H 0.34585 0.09642 -0.09250
 H206 H 0.32740 0.04597 -0.03318
 H207 H 0.42694 0.01398 -0.09824
 C208 C -0.05782 0.69970 0.61664
 C209 C 0.01756 0.76462 0.60028
 C210 C -0.03009 0.75662 0.57288
 C211 C -0.10551 0.69224 0.58905
 C212 C -0.01227 0.69397 0.56472
 C213 C 0.03540 0.70149 0.59236
 C214 C -0.03999 0.63719 0.60853
 C215 C -0.08771 0.62872 0.58118
 H216 H -0.07669 0.70134 0.63819
 H217 H 0.06111 0.82102 0.60801
 H218 H -0.16352 0.68913 0.58748
 H219 H 0.00690 0.69127 0.54339
 H220 H 0.09356 0.70491 0.59383
 H221 H -0.13118 0.57211 0.57358
 C222 C 0.33008 0.40823 0.25663
 C223 C 0.35875 0.38602 0.23124
 C224 C 0.30149 0.29849 0.24106
 C225 C 0.27238 0.32014 0.26621
 C226 C 0.36517 0.29234 0.25980
 C227 C 0.42296 0.38057 0.25021
 C228 C 0.39353 0.40186 0.27530
 C229 C 0.33636 0.31452 0.28510
 H230 H 0.31606 0.45647 0.25545
 H231 H 0.36746 0.41494 0.20888
 H232 H 0.20998 0.29479 0.27269
 H233 H 0.38096 0.24530 0.26156
 H234 H 0.48545 0.40611 0.24383
 H235 H 0.32759 0.28564 0.30748
 C236 C 0.70651 -0.07860 -0.04551
 C237 C 0.67282 -0.14156 -0.06631
 C238 C 0.72492 -0.08244 -0.08918
 C239 C 0.76091 -0.02006 -0.07030
 C240 C 0.66580 -0.06010 -0.09928
 C241 C 0.60870 -0.11962 -0.07516
 C242 C 0.64409 -0.05509 -0.05502
 C243 C 0.69930 0.00505 -0.07928
 H244 H 0.72520 -0.08650 -0.02334
 H245 H 0.66392 -0.20214 -0.06190
 H246 H 0.82516 0.02028 -0.06911
 H247 H 0.64943 -0.05254 -0.12181
 H248 H 0.54556 -0.16203 -0.07773
 H249 H 0.71194 0.06656 -0.08528
 C250 C 0.34501 0.04063 0.04617
 C251 C 0.27904 -0.02768 0.06566
 C252 C 0.30701 0.02355 0.09023
 C253 C 0.37264 0.09214 0.07089
 C254 C 0.36254 -0.00823 0.10039
 C255 C 0.33497 -0.05962 0.07562
 C256 C 0.40042 0.00889 0.05633
 C257 C 0.42875 0.06013 0.08082
 H258 H 0.33828 0.06063 0.02365
 H259 H 0.21700 -0.06376 0.05953
 H260 H 0.38923 0.15519 0.06858
 H261 H 0.36924 -0.02834 0.12289
 H262 H 0.31979 -0.12226 0.07747
 H263 H 0.49090 0.09610 0.08685
 C264 C 0.69004 0.68284 0.41205
 C265 C 0.75150 0.77010 0.40323
 C266 C 0.71508 0.79405 0.42346
 C267 C 0.65610 0.71191 0.43348
 C268 C 0.66305 0.80316 0.40176
 C269 C 0.69722 0.77660 0.37961
 C270 C 0.63493 0.69008 0.38900
 C271 C 0.59911 0.71663 0.41055
 H272 H 0.70284 0.63380 0.41693
 H273 H 0.81581 0.79426 0.40103
 H274 H 0.63968 0.68577 0.45606
 H275 H 0.65392 0.85481 0.39844
 H276 H 0.71607 0.80546 0.35740
 H277 H 0.53589 0.69548 0.41417
 C278 C -0.10495 0.24645 0.74490
 C279 C -0.08091 0.18812 0.73632
 C280 C -0.02354 0.20668 0.76133
 C281 C -0.04762 0.26428 0.77023
 C282 C 0.04297 0.27356 0.74202
 C283 C -0.01426 0.25559 0.71685
 C284 C -0.03818 0.31317 0.72568
 C285 C 0.01902 0.33189 0.75067
 H286 H -0.16586 0.23585 0.74588
 H287 H -0.12201 0.12839 0.73052
 H288 H -0.06152 0.26823 0.79223
 H289 H 0.10393 0.28433 0.74098
 H290 H -0.00089 0.25241 0.69466
 H291 H 0.05999 0.39173 0.75640
 C292 C 0.73119 0.08590 0.07560
 C293 C 0.73306 0.02634 0.10008
 C294 C 0.81645 0.05017 0.09016
 C295 C 0.81525 0.10974 0.06594
 C296 C 0.78248 -0.01483 0.07030
 C297 C 0.69852 -0.03870 0.07995
 C298 C 0.69763 0.02106 0.05578
 C299 C 0.78079 0.04476 0.04590
 H300 H 0.70923 0.12714 0.07760
 H301 H 0.71274 0.01868 0.12239
 H302 H 0.86375 0.17100 0.06035
 H303 H 0.80416 -0.05626 0.06823
 H304 H 0.64999 -0.09996 0.08552
 H305 H 0.79969 0.05186 0.02342
 C306 C 0.35873 0.37285 0.41881
 C307 C 0.27900 0.36744 0.42442
 C308 C 0.23683 0.27939 0.42063
 C309 C 0.31581 0.28418 0.41523
 C310 C 0.22856 0.29905 0.38846
 C311 C 0.27153 0.38779 0.39199
 C312 C 0.35027 0.39227 0.38670
 C313 C 0.30804 0.30434 0.38291
 H314 H 0.41289 0.40415 0.43112
 H315 H 0.26651 0.39276 0.44178
 H316 H 0.33522 0.24212 0.42452
 H317 H 0.17452 0.26788 0.37607
 H318 H 0.25394 0.43098 0.38230
 H319 H 0.32044 0.27896 0.36555
 C320 C -0.09171 0.64677 0.71863
 C321 C -0.12497 0.61829 0.74962
 C322 C -0.05239 0.69038 0.75957
 C323 C -0.01922 0.71929 0.72876
 C324 C -0.00830 0.64383 0.76495
 C325 C -0.08092 0.57109 0.75476
 C326 C -0.04767 0.60028 0.72403
 C327 C 0.02486 0.67223 0.73392
 H328 H -0.12577 0.64770 0.69927
 H329 H -0.18703 0.59555 0.75589
 H330 H 0.00590 0.78070 0.71813
 H331 H 0.02587 0.64295 0.78427
 H332 H -0.10599 0.50958 0.76527
 H333 H 0.08651 0.69402 0.72732
   
