data_POSCAR
  _audit_creation_date              2014-09-24
  _audit_creation_method            'ToBaCCo'
  _symmetry_space_group_name_H-M    'P1'
  _symmetry_Int_Tables_number       1
  _symmetry_cell_setting            triclinic
  loop_
  _symmetry_equiv_pos_as_xyz
 x,y,z
_cell_length_a 41.8895
_cell_length_b 41.8217
_cell_length_c 8.8401
_cell_angle_alpha 89.984600
_cell_angle_beta 89.942800
_cell_angle_gamma 90.002500
loop_
  _atom_site_label
  _atom_site_type_symbol
  _atom_site_fract_x
  _atom_site_fract_y
  _atom_site_fract_z
O1 O 0.22205 0.28209 0.11382
 O2 O 0.28272 0.21976 0.18163
 O3 O 0.22204 0.21964 0.11595
 O4 O 0.28302 0.28213 0.17674
 O5 O 0.27145 0.28256 0.42016
 O6 O 0.21055 0.22080 0.35917
 O7 O 0.27094 0.22041 0.42483
 O8 O 0.21095 0.28289 0.35773
 Cu9 Cu 0.25361 0.25087 0.12263
 Cu10 Cu 0.23981 0.25173 0.41457
 C11 C 0.20613 0.29317 0.22458
 C12 C 0.28714 0.20937 0.31510
 C13 C 0.20580 0.20947 0.22772
 C14 C 0.28768 0.29297 0.30918
 O15 O 0.78604 0.27651 0.34918
 O16 O 0.72473 0.21473 0.40433
 O17 O 0.78554 0.21424 0.33907
 O18 O 0.72522 0.27688 0.41057
 O19 O 0.71453 0.27831 0.16640
 O20 O 0.77435 0.21599 0.09550
 O21 O 0.71375 0.21615 0.16071
 O22 O 0.77520 0.27821 0.10522
 Cu23 Cu 0.75655 0.24539 0.40004
 Cu24 Cu 0.74334 0.24728 0.10774
 C25 C 0.79110 0.28804 0.21843
 C26 C 0.70855 0.20488 0.29209
 C27 C 0.79026 0.20444 0.20478
 C28 C 0.70955 0.28830 0.29994
 O29 O 0.77426 0.78202 0.89008
 O30 O 0.71391 0.72009 0.82798
 O31 O 0.77481 0.71980 0.88459
 O32 O 0.71368 0.78214 0.82815
 O33 O 0.72396 0.78253 0.58344
 O34 O 0.78515 0.72072 0.64022
 O35 O 0.72409 0.72017 0.58319
 O36 O 0.78494 0.78304 0.64580
 Cu37 Cu 0.74311 0.75096 0.88184
 Cu38 Cu 0.75563 0.75169 0.58883
 C39 C 0.78996 0.79321 0.77923
 C40 C 0.70853 0.70947 0.69602
 C41 C 0.79053 0.70953 0.77139
 C42 C 0.70828 0.79291 0.69620
 O43 O 0.22440 0.71594 0.88080
 O44 O 0.28488 0.77865 0.81597
 O45 O 0.22440 0.77817 0.88605
 O46 O 0.28520 0.71625 0.81476
 O47 O 0.27305 0.71676 0.57207
 O48 O 0.21252 0.77864 0.64327
 O49 O 0.27264 0.77894 0.57336
 O50 O 0.21256 0.71647 0.63775
 Cu51 Cu 0.25597 0.74717 0.87369
 Cu52 Cu 0.24148 0.74773 0.58249
 C53 C 0.20807 0.70555 0.77005
 C54 C 0.28901 0.78959 0.68321
 C55 C 0.20802 0.78910 0.77662
 C56 C 0.28953 0.70591 0.68120
 O57 O 0.97167 -0.02664 -0.15534
 O58 O 1.03405 0.03421 -0.08505
 O59 O 1.03385 -0.02673 -0.15013
 O60 O 0.97193 0.03428 -0.09461
 O61 O 0.97026 0.02330 0.14930
 O62 O 1.03296 -0.03764 0.09396
 O63 O 1.03238 0.02300 0.15863
 O64 O 0.97094 -0.03757 0.08872
 Cu65 Cu 1.00305 0.00492 -0.14560
 Cu66 Cu 1.00151 -0.00835 0.14686
 C67 C 0.96069 -0.04256 -0.04426
 C68 C 1.04378 0.03903 0.04925
 C69 C 1.04400 -0.04270 -0.03786
 C70 C 0.96040 0.03924 0.03615
 O71 O 0.47024 0.47246 0.34818
 O72 O 0.53297 0.53348 0.40770
 O73 O 0.53250 0.47222 0.35221
 O74 O 0.47081 0.53378 0.39983
 O75 O 0.46940 0.52453 0.64533
 O76 O 0.53172 0.46290 0.59773
 O77 O 0.53158 0.52389 0.65292
 O78 O 0.46966 0.46328 0.59379
 Cu79 Cu 0.50176 0.50396 0.35269
 Cu80 Cu 0.50047 0.49269 0.64663
 C81 C 0.45926 0.45740 0.46193
 C82 C 0.54297 0.53907 0.54082
 C83 C 0.54272 0.45701 0.46666
 C84 C 0.45946 0.53972 0.53000
 O85 O 0.02721 0.52447 -0.15880
 O86 O -0.03475 0.46346 -0.08752
 O87 O -0.03496 0.52375 -0.16263
 O88 O 0.02737 0.46393 -0.09259
 O89 O 0.02712 0.47602 0.15028
 O90 O -0.03491 0.53696 0.07888
 O91 O -0.03497 0.47665 0.15404
 O92 O 0.02730 0.53657 0.08406
 Cu93 Cu -0.00383 0.49264 -0.14959
 Cu94 Cu -0.00393 0.50784 0.14099
 C95 C 0.03800 0.54080 -0.04881
 C96 C -0.04540 0.45962 0.04599
 C97 C -0.04555 0.54071 -0.05461
 C98 C 0.03795 0.45965 0.04037
 O99 O 0.52822 0.97418 0.64734
 O100 O 0.46653 1.03553 0.59648
 O101 O 0.46611 0.97402 0.64478
 O102 O 0.52871 1.03520 0.59072
 O103 O 0.52791 1.02654 0.34468
 O104 O 0.46646 0.96509 0.39898
 O105 O 0.46575 1.02657 0.35073
 O106 O 0.52857 0.96549 0.40130
 Cu107 Cu 0.49738 1.00571 0.64401
 Cu108 Cu 0.49712 0.99497 0.34972
 C109 C 0.53907 0.95935 0.53304
 C110 C 0.45550 1.04161 0.46595
 C111 C 0.45572 0.95893 0.53007
 C112 C 0.53899 1.04133 0.45847
 C113 C 1.13723 0.13701 0.16656
 C114 C 1.14173 0.15051 0.31039
 C115 C 1.16439 0.17450 0.33028
 C116 C 1.18261 0.18557 0.20721
 C117 C 1.17687 0.17188 0.06430
 N118 N 1.15469 0.14835 0.04806
 C119 C 1.11363 0.11120 0.13982
 N120 N 1.10199 0.10664 -0.00245
 C121 C 1.08001 0.08367 -0.03481
 C122 C 1.06839 0.06358 0.08006
 C123 C 1.08053 0.06747 0.22675
 C124 C 1.10317 0.09101 0.25689
 H125 H 1.16748 0.18441 0.44253
 H126 H 1.19005 0.17967 -0.03447
 H127 H 1.07146 0.08136 -0.14978
 H128 H 1.07261 0.05226 0.31857
 H129 H 1.12765 0.14317 0.40688
 H130 H 1.11255 0.09287 0.37043
 C131 C 0.63805 0.63632 0.64085
 C132 C 0.64257 0.65064 0.78289
 C133 C 0.66551 0.67443 0.79993
 C134 C 0.68391 0.68443 0.67595
 C135 C 0.67823 0.67009 0.53488
 N136 N 0.65576 0.64672 0.52109
 C137 C 0.61413 0.61063 0.61796
 N138 N 0.60193 0.60561 0.47713
 C139 C 0.57951 0.58281 0.44901
 C140 C 0.56799 0.56345 0.56696
 C141 C 0.58073 0.56783 0.71214
 C142 C 0.60383 0.59113 0.73790
 H143 H 0.66870 0.68509 0.91053
 H144 H 0.69171 0.67724 0.43603
 H145 H 0.57051 0.58007 0.33501
 H146 H 0.57293 0.55315 0.80616
 H147 H 0.62829 0.64410 0.88002
 H148 H 0.61366 0.59337 0.85043
 C149 C -0.13894 0.36164 0.16160
 C150 C -0.14368 0.34785 0.30485
 C151 C -0.16643 0.32383 0.32296
 C152 C -0.18440 0.31320 0.19892
 C153 C -0.17856 0.32715 0.05704
 N154 N -0.15629 0.35063 0.04221
 C155 C -0.11520 0.38735 0.13601
 N156 N -0.10344 0.39198 -0.00605
 C157 C -0.08143 0.41494 -0.03799
 C158 C -0.06995 0.43502 0.07705
 C159 C -0.08217 0.43103 0.22369
 C160 C -0.10480 0.40742 0.25350
 H161 H -0.16986 0.31354 0.43422
 H162 H -0.19172 0.31954 -0.04191
 H163 H -0.07282 0.41731 -0.15291
 H164 H -0.07429 0.44619 0.31568
 H165 H -0.12973 0.35498 0.40197
 H166 H -0.11424 0.40543 0.36697
 C167 C 0.35902 0.86215 0.60275
 C168 C 0.33926 0.85184 0.48399
 C169 C 0.31651 0.82819 0.51056
 C170 C 0.31300 0.81489 0.65531
 C171 C 0.33271 0.82630 0.77185
 N172 N 0.35489 0.84930 0.74302
 C173 C 0.38393 0.88688 0.58008
 N174 N 0.39463 0.90382 0.70155
 C175 C 0.41745 0.92684 0.68906
 C176 C 0.43099 0.93392 0.54756
 C177 C 0.42061 0.91642 0.42143
 C178 C 0.39732 0.89289 0.43713
 H179 H 0.30155 0.82045 0.41765
 H180 H 0.33066 0.81688 0.88549
 H181 H 0.42491 0.93960 0.78952
 H182 H 0.43064 0.92075 0.31032
 H183 H 0.34082 0.86211 0.37200
 H184 H 0.39049 0.87931 0.33829
 C185 C -0.14019 0.63760 -0.17124
 C186 C -0.14554 0.65064 -0.31540
 C187 C -0.16848 0.67444 -0.33415
 C188 C -0.18612 0.68572 -0.20969
 C189 C -0.17959 0.67242 -0.06672
 N190 N -0.15715 0.64912 -0.05156
 C191 C -0.11617 0.61214 -0.14516
 N192 N -0.10395 0.60813 -0.00364
 C193 C -0.08166 0.58547 0.02851
 C194 C -0.07033 0.56508 -0.08575
 C195 C -0.08301 0.56844 -0.23174
 C196 C -0.10594 0.59172 -0.26172
 H197 H -0.17221 0.68404 -0.44658
 H198 H -0.19232 0.68036 0.03308
 H199 H -0.07270 0.58359 0.14295
 H200 H -0.07528 0.55300 -0.32306
 H201 H -0.13191 0.64313 -0.41300
 H202 H -0.11573 0.59317 -0.37461
 C203 C 0.35784 1.13753 0.39655
 C204 C 0.33843 1.14823 0.51608
 C205 C 0.31542 1.17163 0.48929
 C206 C 0.31133 1.18429 0.34364
 C207 C 0.33073 1.17253 0.22654
 N208 N 0.35314 1.14980 0.25555
 C209 C 0.38298 1.11302 0.41880
 N210 N 0.39360 1.09606 0.29712
 C211 C 0.41665 1.07326 0.30874
 C212 C 0.43054 1.06643 0.44958
 C213 C 0.42025 1.08392 0.57599
 C214 C 0.39670 1.10723 0.56115
 H215 H 0.30074 1.17969 0.58271
 H216 H 0.32825 1.18146 0.11223
 H217 H 0.42401 1.06050 0.20809
 H218 H 0.43053 1.07976 0.68661
 H219 H 0.34045 1.13846 0.62886
 H220 H 0.38993 1.12080 0.66014
 C221 C 1.13896 -0.13979 -0.14341
 C222 C 1.14446 -0.15052 -0.29149
 C223 C 1.16724 -0.17417 -0.31798
 C224 C 1.18489 -0.18719 -0.19746
 C225 C 1.17865 -0.17566 -0.05074
 N226 N 1.15617 -0.15270 -0.02794
 C227 C 1.11480 -0.11472 -0.11220
 N228 N 1.10077 -0.09898 -0.22946
 C229 C 1.07842 -0.07589 -0.20827
 C230 C 1.06872 -0.06747 -0.06154
 C231 C 1.08285 -0.08334 0.06127
 C232 C 1.10595 -0.10686 0.03647
 H233 H 1.17103 -0.18211 -0.43324
 H234 H 1.19150 -0.18487 0.04614
 H235 H 1.06812 -0.06434 -0.30634
 H236 H 1.07610 -0.07758 0.17637
 H237 H 1.13121 -0.14090 -0.38621
 H238 H 1.11655 -0.11888 0.13259
 C239 C 0.63898 0.36055 0.37443
 C240 C 0.64667 0.35126 0.22627
 C241 C 0.66968 0.32774 0.20237
 C242 C 0.68525 0.31342 0.32545
 C243 C 0.67701 0.32344 0.47199
 N244 N 0.65437 0.34637 0.49249
 C245 C 0.61441 0.38539 0.40255
 N246 N 0.60105 0.40110 0.28342
 C247 C 0.57835 0.42396 0.30135
 C248 C 0.56760 0.43224 0.44656
 C249 C 0.58101 0.41640 0.57134
 C250 C 0.60444 0.39305 0.54985
 H251 H 0.67527 0.32082 0.08732
 H252 H 0.68840 0.31300 0.57014
 H253 H 0.56869 0.43551 0.20184
 H254 H 0.57345 0.42207 0.68541
 H255 H 0.63497 0.36192 0.12945
 H256 H 0.61447 0.38106 0.64740
 C257 C 0.86170 -0.13621 -0.13586
 C258 C 0.84149 -0.14629 -0.01823
 C259 C 0.81810 -0.16914 -0.04670
 C260 C 0.81433 -0.18187 -0.19238
 C261 C 0.83437 -0.17054 -0.30813
 N262 N 0.85724 -0.14834 -0.27734
 C263 C 0.88750 -0.11258 -0.10966
 N264 N 0.89849 -0.09466 -0.22750
 C265 C 0.92192 -0.07237 -0.21042
 C266 C 0.93571 -0.06710 -0.06780
 C267 C 0.92513 -0.08576 0.05423
 C268 C 0.90128 -0.10852 0.03382
 H269 H 0.80291 -0.17678 0.04571
 H270 H 0.83211 -0.17953 -0.42241
 H271 H 0.92954 -0.05867 -0.30788
 H272 H 0.93535 -0.08289 0.16590
 H273 H 0.84329 -0.13647 0.09458
 H274 H 0.89424 -0.12301 0.12953
 C275 C 0.35980 0.36357 0.38674
 C276 C 0.33976 0.35395 0.50595
 C277 C 0.31625 0.33104 0.48015
 C278 C 0.31225 0.31779 0.33567
 C279 C 0.33220 0.32859 0.21847
 N280 N 0.35514 0.35086 0.24659
 C281 C 0.38562 0.38734 0.40929
 N282 N 0.39668 0.40430 0.28842
 C283 C 0.42023 0.42659 0.30146
 C284 C 0.43410 0.43286 0.44293
 C285 C 0.42343 0.41524 0.56822
 C286 C 0.39944 0.39246 0.55193
 H287 H 0.30115 0.32378 0.57356
 H288 H 0.32979 0.31919 0.10500
 H289 H 0.42789 0.43947 0.20164
 H290 H 0.43369 0.41892 0.67925
 H291 H 0.34172 0.36419 0.61783
 H292 H 0.39235 0.37878 0.65014
 C293 C 0.13632 0.63447 -0.15537
 C294 C 0.14376 0.64389 -0.30365
 C295 C 0.16723 0.66700 -0.32801
 C296 C 0.18350 0.68067 -0.20521
 C297 C 0.17555 0.67040 -0.05877
 N298 N 0.15246 0.64799 -0.03791
 C299 C 0.11115 0.61034 -0.12534
 N300 N 0.09710 0.59455 -0.24256
 C301 C 0.07385 0.57231 -0.22125
 C302 C 0.06329 0.56490 -0.07464
 C303 C 0.07743 0.58090 0.04778
 C304 C 0.10134 0.60350 0.02300
 H305 H 0.17260 0.67416 -0.44299
 H306 H 0.18745 0.68032 0.03920
 H307 H 0.06360 0.56058 -0.31892
 H308 H 0.07009 0.57591 0.16289
 H309 H 0.13144 0.63373 -0.39994
 H310 H 0.11188 0.61557 0.11909
 C311 C 0.63697 1.13577 0.36100
 C312 C 0.64315 1.14696 0.21419
 C313 C 0.66690 1.16985 0.19095
 C314 C 0.68477 1.18162 0.31354
 C315 C 0.67790 1.16955 0.45867
 N316 N 0.65453 1.14740 0.47823
 C317 C 0.61176 1.11161 0.38958
 N318 N 0.59677 1.09729 0.27095
 C319 C 0.57360 1.07493 0.29031
 C320 C 0.56409 1.06579 0.43642
 C321 C 0.57912 1.08030 0.56049
 C322 C 0.60298 1.10311 0.53759
 H323 H 0.67117 1.17827 0.07681
 H324 H 0.69089 1.17777 0.55707
 H325 H 0.56262 1.06442 0.19133
 H326 H 0.57256 1.07394 0.67515
 H327 H 0.62967 1.13831 0.11812
 H328 H 0.61431 1.11401 0.63478
 C329 C 0.13516 0.36493 0.14823
 C330 C 0.14264 0.35578 0.29677
 C331 C 0.16582 0.33241 0.32164
 C332 C 0.18173 0.31818 0.19909
 C333 C 0.17372 0.32814 0.05233
 N334 N 0.15094 0.35084 0.03098
 C335 C 0.11035 0.38939 0.11779
 N336 N 0.09648 0.40546 0.23475
 C337 C 0.07352 0.42799 0.21314
 C338 C 0.06308 0.43540 0.06645
 C339 C 0.07706 0.41914 -0.05574
 C340 C 0.10068 0.39625 -0.03064
 H341 H 0.17125 0.32552 0.43686
 H342 H 0.18536 0.31779 -0.04547
 H343 H 0.06339 0.43991 0.31065
 H344 H 0.06980 0.42411 -0.17090
 H345 H 0.13061 0.36639 0.39291
 H346 H 0.11108 0.38397 -0.12656
 C347 C 0.63632 0.86401 0.62706
 C348 C 0.64386 0.85423 0.77475
 C349 C 0.66733 0.83106 0.79749
 C350 C 0.68347 0.81765 0.67365
 C351 C 0.67534 0.82817 0.52781
 N352 N 0.65230 0.85068 0.50852
 C353 C 0.61138 0.88847 0.59917
 N354 N 0.59731 0.90361 0.71820
 C355 C 0.57434 0.92620 0.69970
 C356 C 0.56410 0.93478 0.55405
 C357 C 0.57822 0.91949 0.42952
 C358 C 0.60186 0.89641 0.45155
 H359 H 0.67284 0.82368 0.91197
 H360 H 0.68713 0.81845 0.42902
 H361 H 0.56410 0.93733 0.79903
 H362 H 0.57107 0.92538 0.31517
 H363 H 0.63168 0.86424 0.87191
 H364 H 0.61246 0.88488 0.35404
 C365 C 0.86165 0.13363 0.11673
 C366 C 0.84223 0.14472 -0.00179
 C367 C 0.81894 0.16770 0.02734
 C368 C 0.81457 0.17957 0.17432
 C369 C 0.83394 0.16738 0.29039
 N370 N 0.85664 0.14507 0.25908
 C371 C 0.88713 0.10960 0.09173
 N372 N 0.89767 0.09190 0.21106
 C373 C 0.92098 0.06944 0.19671
 C374 C 0.93525 0.06378 0.05541
 C375 C 0.92507 0.08208 -0.06852
 C376 C 0.90123 0.10502 -0.05090
 H377 H 0.80430 0.17610 -0.06543
 H378 H 0.83125 0.17570 0.40561
 H379 H 0.92824 0.05601 0.29554
 H380 H 0.93563 0.07882 -0.17933
 H381 H 0.84450 0.13556 -0.11564
 H382 H 0.89452 0.11924 -0.14791
 C383 C 0.36109 0.63496 0.59841
 C384 C 0.34168 0.64561 0.47890
 C385 C 0.31837 0.66871 0.50604
 C386 C 0.31401 0.68113 0.65199
 C387 C 0.33346 0.66946 0.76895
 N388 N 0.35613 0.64701 0.73962
 C389 C 0.38646 0.61068 0.57619
 N390 N 0.39710 0.59379 0.69795
 C391 C 0.42033 0.57118 0.68660
 C392 C 0.43441 0.56448 0.54595
 C393 C 0.42412 0.58191 0.41941
 C394 C 0.40036 0.60503 0.43397
 H395 H 0.30368 0.67673 0.41270
 H396 H 0.33079 0.67821 0.88346
 H397 H 0.42766 0.55844 0.78733
 H398 H 0.43453 0.57782 0.30890
 H399 H 0.34393 0.63600 0.36590
 H400 H 0.39356 0.61856 0.33491
   
