data_POSCAR
  _audit_creation_date              2014-09-24
  _audit_creation_method            'ToBaCCo'
  _symmetry_space_group_name_H-M    'P1'
  _symmetry_Int_Tables_number       1
  _symmetry_cell_setting            triclinic
  loop_
  _symmetry_equiv_pos_as_xyz
 x,y,z
_cell_length_a 34.9151
_cell_length_b 33.1927
_cell_length_c 34.8757
_cell_angle_alpha 89.158000
_cell_angle_beta 90.968900
_cell_angle_gamma 91.449200
loop_
  _atom_site_label
  _atom_site_type_symbol
  _atom_site_fract_x
  _atom_site_fract_y
  _atom_site_fract_z
N1 N 0.60443 0.68598 0.59991
 N2 N 0.58411 0.67402 0.62979
 C3 C 0.55210 0.69585 0.63081
 C4 C 0.55207 0.72193 0.59954
 C5 C 0.58546 0.71479 0.58053
 H6 H 0.53005 0.69238 0.65210
 H7 H 0.59519 0.72942 0.55442
 Cu8 Cu 0.60011 0.63016 0.66502
 Cu9 Cu 0.65363 0.66281 0.58645
 Cu10 Cu 0.68323 0.58852 0.64400
 N11 N 0.62927 0.59935 0.70316
 N12 N 0.66344 0.58600 0.69564
 C13 C 0.67769 0.56718 0.72693
 C14 C 0.65042 0.56746 0.75521
 C15 C 0.61988 0.58799 0.73913
 H16 H 0.70479 0.55212 0.72815
 H17 H 0.59296 0.59423 0.75247
 N18 N 0.70063 0.59345 0.59153
 N19 N 0.69067 0.62419 0.56970
 C20 C 0.70917 0.62271 0.53622
 C21 C 0.73097 0.58854 0.53685
 C22 C 0.72486 0.57055 0.57224
 H23 H 0.70640 0.64442 0.51296
 H24 H 0.73795 0.54354 0.58346
 H25 H 0.62617 0.61602 0.61323
 H26 H 0.65074 0.65262 0.64611
 N27 N 0.89552 0.29739 0.08923
 N28 N 0.91559 0.30411 0.12081
 C29 C 0.94812 0.28325 0.11999
 C30 C 0.94877 0.26306 0.08557
 C31 C 0.91504 0.27287 0.06666
 H32 H 0.97010 0.28372 0.14223
 H33 H 0.90482 0.26195 0.03918
 Cu34 Cu 0.89882 0.34220 0.15823
 Cu35 Cu 0.84406 0.31771 0.08182
 Cu36 Cu 0.81453 0.38804 0.14701
 N37 N 0.88872 0.39252 0.18339
 N38 N 0.85541 0.40995 0.17994
 C39 C 0.85588 0.44315 0.20173
 C40 C 0.89171 0.44698 0.21902
 C41 C 0.91184 0.41447 0.20670
 H42 H 0.83220 0.46327 0.20433
 H43 H 0.94093 0.40695 0.21456
 N44 N 0.78203 0.36934 0.10362
 N45 N 0.79290 0.34142 0.07977
 C46 C 0.76371 0.33252 0.05543
 C47 C 0.73351 0.35665 0.06371
 C48 C 0.74599 0.37994 0.09416
 H49 H 0.76430 0.31027 0.03312
 H50 H 0.72964 0.40193 0.10902
 H51 H 0.85589 0.37116 0.11043
 H52 H 0.83200 0.32933 0.13806
 N53 N 0.39389 0.21686 -0.11786
 N54 N 0.41133 0.20765 -0.14957
 C55 C 0.43000 0.24054 -0.16332
 C56 C 0.42478 0.27175 -0.13841
 C57 C 0.40202 0.25574 -0.10960
 H58 H 0.44790 0.24118 -0.18835
 H59 H 0.39235 0.27104 -0.08449
 Cu60 Cu 0.41295 0.15240 -0.16679
 Cu61 Cu 0.36265 0.17685 -0.09007
 Cu62 Cu 0.33746 0.09326 -0.14517
 N63 N 0.40710 0.09857 -0.18737
 N64 N 0.37633 0.07621 -0.18040
 C65 C 0.37753 0.04218 -0.20083
 C66 C 0.41135 0.04301 -0.22088
 C67 C 0.42952 0.07910 -0.21164
 H68 H 0.35566 0.01850 -0.20079
 H69 H 0.45633 0.09084 -0.22283
 N70 N 0.31108 0.10711 -0.09783
 N71 N 0.32019 0.13898 -0.07701
 C72 C 0.29727 0.13930 -0.04628
 C73 C 0.27340 0.10547 -0.04755
 C74 C 0.28298 0.08571 -0.08040
 H75 H 0.29879 0.16159 -0.02397
 H76 H 0.27076 0.05749 -0.09058
 H77 H 0.37899 0.12147 -0.11276
 H78 H 0.34819 0.15566 -0.14209
 N79 N 0.10103 0.80556 0.40691
 N80 N 0.08394 0.80959 0.37326
 C81 C 0.05324 0.78427 0.37150
 C82 C 0.05070 0.76380 0.40628
 C83 C 0.08144 0.77812 0.42810
 H84 H 0.03364 0.78190 0.34724
 H85 H 0.08946 0.76885 0.45693
 Cu86 Cu 0.10176 0.84987 0.33635
 Cu87 Cu 0.14878 0.83421 0.41950
 Cu88 Cu 0.17315 0.91514 0.35995
 N89 N 0.10900 0.90087 0.30911
 N90 N 0.13765 0.92581 0.31759
 C91 C 0.13644 0.95804 0.29374
 C92 C 0.10484 0.95329 0.26969
 C93 C 0.08795 0.91682 0.28028
 H94 H 0.15634 0.98354 0.29457
 H95 H 0.06240 0.90287 0.26785
 N96 N 0.19947 0.90428 0.40941
 N97 N 0.19112 0.87257 0.43133
 C98 C 0.21457 0.87283 0.46237
 C99 C 0.23823 0.90666 0.46016
 C100 C 0.22786 0.92609 0.42643
 H101 H 0.21387 0.85071 0.48544
 H102 H 0.24031 0.95383 0.41505
 H103 H 0.13090 0.88505 0.39031
 H104 H 0.16633 0.85356 0.36607
 C105 C 0.07761 0.11468 0.12454
 C106 C 0.05165 0.14503 0.11546
 C107 C 0.05641 0.16913 0.08240
 C108 C 0.08815 0.16381 0.05901
 C109 C 0.11508 0.13439 0.06837
 C110 C 0.10960 0.10942 0.10107
 C111 C 0.07118 0.08840 0.15573
 C112 C 0.09655 0.05723 0.16410
 C113 C 0.12902 0.05282 0.14145
 C114 C 0.13537 0.07832 0.10960
 C115 C 0.16613 0.07215 0.08521
 C116 C 0.17170 0.09687 0.05267
 C117 C 0.14650 0.12835 0.04472
 H118 H 0.02670 0.14864 0.13306
 H119 H 0.09157 0.18230 0.03335
 H120 H 0.04616 0.09183 0.17327
 H121 H 0.14833 0.02839 0.14757
 H122 H 0.18553 0.04777 0.09125
 H123 H 0.15038 0.14696 0.01920
 C124 C 0.43290 0.88156 0.63790
 C125 C 0.45647 0.84912 0.63016
 C126 C 0.45001 0.82595 0.59717
 C127 C 0.41886 0.83440 0.57263
 C128 C 0.39466 0.86625 0.58032
 C129 C 0.40187 0.89020 0.61288
 C130 C 0.44067 0.90641 0.66945
 C131 C 0.41752 0.93939 0.67655
 C132 C 0.38629 0.94743 0.65196
 C133 C 0.37866 0.92344 0.61984
 C134 C 0.34899 0.93294 0.59388
 C135 C 0.34175 0.90914 0.56151
 C136 C 0.36422 0.87547 0.55521
 H137 H 0.48083 0.84303 0.64885
 H138 H 0.41375 0.81646 0.54724
 H139 H 0.46482 0.90026 0.68838
 H140 H 0.36882 0.97331 0.65700
 H141 H 0.33156 0.95889 0.59876
 H142 H 0.35898 0.85743 0.52990
 C143 C 0.92212 0.60870 0.36132
 C144 C 0.94855 0.63969 0.37078
 C145 C 0.94448 0.66167 0.40451
 C146 C 0.91283 0.65382 0.42795
 C147 C 0.88562 0.62371 0.41833
 C148 C 0.89052 0.60061 0.38519
 C149 C 0.92764 0.58460 0.32929
 C150 C 0.90208 0.55244 0.32082
 C151 C 0.87020 0.54507 0.34422
 C152 C 0.86446 0.56866 0.37658
 C153 C 0.83392 0.55993 0.40127
 C154 C 0.82877 0.58318 0.43400
 C155 C 0.85440 0.61530 0.44212
 H156 H 0.97330 0.64540 0.35296
 H157 H 0.90968 0.67088 0.45393
 H158 H 0.95216 0.59056 0.31123
 H159 H 0.85069 0.51995 0.33818
 H160 H 0.81421 0.53499 0.39515
 H161 H 0.85090 0.63271 0.46784
 C162 C 0.56258 0.44146 -0.11659
 C163 C 0.52865 0.42206 -0.12934
 C164 C 0.51401 0.38764 -0.11004
 C165 C 0.53237 0.37443 -0.07605
 C166 C 0.56625 0.39361 -0.06284
 C167 C 0.58158 0.42709 -0.08329
 C168 C 0.57951 0.47272 -0.13851
 C169 C 0.61579 0.48888 -0.12824
 C170 C 0.63373 0.47566 -0.09412
 C171 C 0.61707 0.44467 -0.07175
 C172 C 0.63695 0.42871 -0.03994
 C173 C 0.62250 0.39446 -0.02032
 C174 C 0.58668 0.37773 -0.03134
 H175 H 0.51463 0.43282 -0.15533
 H176 H 0.52187 0.34762 -0.06117
 H177 H 0.56578 0.48217 -0.16513
 H178 H 0.66163 0.48812 -0.08596
 H179 H 0.66495 0.44123 -0.03226
 H180 H 0.57540 0.35130 -0.01634
 N181 N 0.01018 0.19857 0.03548
 N182 N -0.02124 0.22362 0.03686
 C183 C -0.02291 0.23779 0.07280
 C184 C 0.00674 0.22213 0.09497
 C185 C 0.02642 0.19746 0.07075
 H186 H 0.01218 0.22640 0.12530
 H187 H 0.01745 0.18149 0.01190
 H188 H -0.03984 0.22951 0.01382
 N189 N 0.48838 0.78862 0.55037
 N190 N 0.51579 0.76193 0.55106
 C191 C 0.52243 0.75035 0.58767
 C192 C 0.49843 0.77072 0.61148
 C193 C 0.47739 0.79495 0.58661
 H194 H 0.49735 0.76912 0.64245
 H195 H 0.47852 0.80326 0.52554
 H196 H 0.52982 0.75214 0.52681
 N197 N 0.98856 0.69274 0.45311
 N198 N 1.01925 0.72043 0.45330
 C199 C 1.02296 0.73511 0.41728
 C200 C 0.99542 0.71707 0.39347
 C201 C 0.97472 0.69065 0.41690
 H202 H 0.99144 0.72178 0.36290
 H203 H 0.97968 0.67545 0.47674
 H204 H 1.03573 0.72802 0.47751
 N205 N 0.47641 0.36115 -0.16628
 N206 N 0.45312 0.33023 -0.17381
 C207 C 0.44374 0.31167 -0.14063
 C208 C 0.46171 0.33169 -0.11052
 C209 C 0.48286 0.36272 -0.12803
 H210 H 0.46224 0.32235 -0.08067
 H211 H 0.48982 0.37869 -0.18747
 H212 H 0.44553 0.32079 -0.20142
 N213 N 0.05209 0.01230 0.20136
 N214 N 0.05437 -0.01580 0.22846
 C215 C 0.09122 -0.01851 0.23997
 C216 C 0.11352 0.00874 0.21913
 C217 C 0.08755 0.02759 0.19478
 H218 H 0.14427 0.01354 0.22086
 H219 H 0.02679 0.01988 0.18690
 H220 H 0.03102 -0.03272 0.23878
 N221 N 0.67557 0.51168 -0.16063
 N222 N 0.68503 0.53239 -0.19430
 C223 C 0.65271 0.54813 -0.20904
 C224 C 0.62223 0.53828 -0.18525
 C225 C 0.63752 0.51464 -0.15572
 H226 H 0.59231 0.54448 -0.19057
 H227 H 0.69434 0.49343 -0.14504
 H228 H 0.71231 0.53352 -0.20615
 N229 N 0.46326 0.97894 0.71796
 N230 N 0.46163 1.00697 0.74437
 C231 C 0.42462 1.01282 0.75238
 C232 C 0.40160 0.98774 0.72999
 C233 C 0.42726 0.96690 0.70831
 H234 H 0.37061 0.98604 0.72860
 H235 H 0.48858 0.96955 0.70575
 H236 H 0.48550 1.02205 0.75628
 N237 N 0.94578 0.51542 0.27848
 N238 N 0.94307 0.48718 0.25222
 C239 C 0.90575 0.47845 0.24530
 C240 C 0.88365 0.50203 0.26822
 C241 C 0.91021 0.52496 0.28910
 H242 H 0.85275 0.50150 0.27031
 H243 H 0.97170 0.52663 0.28987
 H244 H 0.96649 0.47386 0.23971
 N245 N 0.21046 0.05006 0.01493
 N246 N 0.23648 0.05235 -0.01209
 C247 C 0.24557 0.09143 -0.01890
 C248 C 0.22417 0.11521 0.00454
 C249 C 0.20208 0.08768 0.02546
 H250 H 0.22403 0.14777 0.00556
 H251 H 0.19786 0.02315 0.02502
 H252 H 0.24772 0.02747 -0.02558
 N253 N 0.78919 0.53453 0.47269
 N254 N 0.76415 0.53596 0.50061
 C255 C 0.75625 0.57479 0.50681
 C256 C 0.77728 0.59922 0.48209
 C257 C 0.79807 0.57249 0.46110
 H258 H 0.77854 0.63183 0.48075
 H259 H 0.80114 0.50808 0.46302
 H260 H 0.75311 0.51076 0.51537
 N261 N 0.64759 0.33246 0.01129
 N262 N 0.67740 0.32241 0.03283
 C263 C 0.69595 0.35624 0.04427
 C264 C 0.67735 0.38941 0.02929
 C265 C 0.64691 0.37299 0.00802
 H266 H 0.68662 0.42069 0.03097
 H267 H 0.62979 0.31166 -0.00305
 H268 H 0.68570 0.29282 0.03823
 N269 N 0.30594 0.95872 0.52111
 N270 N 0.27939 0.95801 0.49364
 C271 C 0.26772 0.91952 0.48820
 C272 C 0.28788 0.89455 0.51293
 C273 C 0.31197 0.92062 0.53321
 H274 H 0.28578 0.86202 0.51536
 H275 H 0.32034 0.98480 0.53054
 H276 H 0.26947 0.98351 0.47907
   
