data_POSCAR
  _audit_creation_date              2014-09-24
  _audit_creation_method            'ToBaCCo'
  _symmetry_space_group_name_H-M    'P1'
  _symmetry_Int_Tables_number       1
  _symmetry_cell_setting            triclinic
  loop_
  _symmetry_equiv_pos_as_xyz
 x,y,z
_cell_length_a 54.8147
_cell_length_b 54.8441
_cell_length_c 20.0642
_cell_angle_alpha 89.999900
_cell_angle_beta 89.835200
_cell_angle_gamma 120.018300
loop_
  _atom_site_label
  _atom_site_type_symbol
  _atom_site_fract_x
  _atom_site_fract_y
  _atom_site_fract_z
C1 C 0.20237 0.51280 0.44236
 C2 C 0.19130 0.51391 0.50475
 C3 C 0.20131 0.50869 0.56418
 C4 C 0.22494 0.50466 0.56209
 C5 C 0.23863 0.50694 0.50034
 C6 C 0.22728 0.51088 0.44034
 C7 C 0.24235 0.51506 0.38056
 C8 C 0.26713 0.51397 0.37890
 C9 C 0.27791 0.50857 0.43690
 C10 C 0.26397 0.50567 0.49865
 C11 C 0.23625 0.50006 0.62044
 C12 C 0.26039 0.49782 0.61847
 C13 C 0.27543 0.50181 0.55876
 C14 C 0.30073 0.50052 0.55662
 C15 C 0.31321 0.50216 0.49437
 C16 C 0.30272 0.50675 0.43521
 H17 H 0.23561 0.52016 0.33460
 H18 H 0.27793 0.51785 0.33156
 H19 H 0.22679 0.49845 0.66876
 H20 H 0.26697 0.49280 0.66467
 H21 H 0.17231 0.51543 0.50691
 H22 H 0.33258 0.50137 0.49188
 C23 C 0.49653 -0.30217 0.43621
 C24 C 0.50105 -0.31300 0.49476
 C25 C 0.50223 -0.30105 0.55742
 C26 C 0.50068 -0.27589 0.56031
 C27 C 0.49579 -0.26477 0.50101
 C28 C 0.49306 -0.27839 0.43901
 C29 C 0.48771 -0.26746 0.38119
 C30 C 0.48603 -0.24302 0.38354
 C31 C 0.49067 -0.22798 0.44333
 C32 C 0.49484 -0.23930 0.50315
 C33 C 0.50651 -0.26013 0.61936
 C34 C 0.50573 -0.23519 0.62144
 C35 C 0.49906 -0.22472 0.56458
 C36 C 0.49911 -0.19875 0.56583
 C37 C 0.49584 -0.18774 0.50555
 C38 C 0.49140 -0.20186 0.44494
 H39 H 0.48497 -0.27762 0.33335
 H40 H 0.48144 -0.23586 0.33757
 H41 H 0.51305 -0.26617 0.66421
 H42 H 0.51162 -0.22366 0.66782
 H43 H 0.50231 -0.33209 0.49114
 H44 H 0.49599 -0.16788 0.50578
 C45 C 1.20220 0.69519 0.44044
 C46 C 1.19081 0.68160 0.50085
 C47 C 1.20359 0.69343 0.56210
 C48 C 1.22991 0.71909 0.56183
 C49 C 1.24184 0.73306 0.50047
 C50 C 1.22772 0.72112 0.43972
 C51 C 1.24008 0.73464 0.37939
 C52 C 1.26598 0.75929 0.37830
 C53 C 1.28051 0.77183 0.43759
 C54 C 1.26851 0.75837 0.49946
 C55 C 1.24594 0.72963 0.62018
 C56 C 1.27229 0.75386 0.61904
 C57 C 1.28366 0.76930 0.55989
 C58 C 1.31088 0.79383 0.55832
 C59 C 1.32257 0.80585 0.49614
 C60 C 1.30780 0.79601 0.43625
 H61 H 1.23024 0.72580 0.33199
 H62 H 1.27494 0.76769 0.32989
 H63 H 1.23896 0.71845 0.66704
 H64 H 1.28412 0.75959 0.66495
 H65 H 1.17067 0.66217 0.49998
 H66 H 1.34273 0.82524 0.49458
 C67 C 0.69063 0.48704 0.56662
 C68 C 0.67706 0.48434 0.50553
 C69 C 0.69000 0.48547 0.44467
 C70 C 0.71675 0.48762 0.44370
 C71 C 0.73085 0.49000 0.50463
 C72 C 0.71785 0.48972 0.56632
 C73 C 0.73182 0.49065 0.62583
 C74 C 0.75879 0.49429 0.62509
 C75 C 0.77247 0.49559 0.56477
 C76 C 0.75819 0.49300 0.50379
 C77 C 0.72974 0.48751 0.38336
 C78 C 0.75625 0.48993 0.38256
 C79 C 0.77123 0.49356 0.44193
 C80 C 0.79881 0.49751 0.44151
 C81 C 0.81327 0.50225 0.50170
 C82 C 0.80055 0.50081 0.56331
 H83 H 0.72209 0.48847 0.67402
 H84 H 0.76882 0.49624 0.67265
 H85 H 0.71939 0.48531 0.33607
 H86 H 0.76492 0.48918 0.33467
 H87 H 0.65678 0.48334 0.50480
 H88 H 0.83467 0.50596 0.50064
 C89 C 0.50186 0.30145 0.56335
 C90 C 0.49958 0.31320 0.50352
 C91 C 0.49957 0.30125 0.44207
 C92 C 0.50164 0.27661 0.43973
 C93 C 0.50423 0.26454 0.49998
 C94 C 0.50454 0.27711 0.56203
 C95 C 0.50737 0.26497 0.62096
 C96 C 0.50983 0.24092 0.61914
 C97 C 0.50868 0.22748 0.55844
 C98 C 0.50647 0.23983 0.49811
 C99 C 0.50133 0.26386 0.37879
 C100 C 0.50350 0.23966 0.37691
 C101 C 0.50637 0.22749 0.43586
 C102 C 0.50892 0.20315 0.43423
 C103 C 0.51217 0.19181 0.49360
 C104 C 0.51129 0.20296 0.55596
 H105 H 0.50796 0.27410 0.66917
 H106 H 0.51310 0.23329 0.66603
 H107 H 0.49943 0.27250 0.33187
 H108 H 0.50308 0.23068 0.32861
 H109 H 0.49765 0.33195 0.50483
 H110 H 0.51348 0.17272 0.49109
 C111 C 0.69688 0.20023 0.56566
 C112 C 0.68310 0.18819 0.50586
 C113 C 0.69371 0.20150 0.44466
 C114 C 0.71891 0.22781 0.44263
 C115 C 0.73320 0.24040 0.50295
 C116 C 0.72214 0.22654 0.56470
 C117 C 0.73731 0.23862 0.62334
 C118 C 0.76281 0.26388 0.62167
 C119 C 0.77400 0.27855 0.56143
 C120 C 0.75924 0.26624 0.50118
 C121 C 0.73077 0.24124 0.38176
 C122 C 0.75639 0.26631 0.37988
 C123 C 0.77106 0.27899 0.43880
 C124 C 0.79780 0.30351 0.43679
 C125 C 0.81214 0.31528 0.49599
 C126 C 0.80066 0.30382 0.55871
 H127 H 0.72995 0.22825 0.67106
 H128 H 0.77409 0.27110 0.66813
 H129 H 0.72064 0.23217 0.33479
 H130 H 0.76487 0.27541 0.33152
 H131 H 0.66396 0.16780 0.50687
 H132 H 0.83232 0.33461 0.49276
 O133 O 0.96426 0.52651 -0.12392
 O134 O 0.93124 0.48911 -0.06293
 C135 C 0.93842 0.50796 -0.10963
 O136 O 1.03963 0.47612 -0.11487
 O137 O 1.07120 0.51451 -0.05452
 C138 C 1.06510 0.49475 -0.09813
 O139 O 0.96147 0.44117 -0.12438
 O140 O 0.93010 0.44783 -0.06236
 C141 C 0.93606 0.43521 -0.10898
 O142 O 1.04259 0.56676 -0.11365
 O143 O 1.07254 0.55729 -0.05389
 C144 C 1.06760 0.57187 -0.09717
 Zr145 Zr 1.00254 0.53383 -0.08284
 O146 O 1.00676 0.53729 -0.18783
 O147 O 1.00019 0.57119 -0.07859
 Zr148 Zr 1.00063 0.47118 -0.08373
 O149 O 1.00467 0.47253 -0.18882
 O150 O 0.99613 0.43051 -0.08173
 O151 O 0.97668 0.49062 -0.09786
 O152 O 1.02605 0.51420 -0.09490
 O153 O 1.04017 0.56492 0.11840
 O154 O 1.07151 0.55682 0.06032
 C155 C 1.06558 0.57087 0.10318
 O156 O 0.95939 0.43965 0.11990
 O157 O 0.92910 0.44725 0.05623
 C158 C 0.93427 0.43405 0.10289
 O159 O 1.03838 0.47558 0.11803
 O160 O 1.07052 0.51451 0.05937
 C161 C 1.06405 0.49479 0.10320
 O162 O 0.96167 0.52265 0.12679
 O163 O 0.93016 0.48826 0.05676
 C164 C 0.93624 0.50491 0.10759
 Zr165 Zr 1.00082 0.53265 0.08378
 O166 O 1.00322 0.53705 0.18856
 O167 O 0.99763 0.56952 0.07713
 Zr168 Zr 0.99937 0.47019 0.08321
 O169 O 1.00133 0.46993 0.18858
 O170 O 0.99529 0.42972 0.07904
 Zr171 Zr 0.95845 0.48170 -0.00183
 Zr172 Zr 1.04303 0.52216 0.00182
 O173 O 1.02432 0.51308 0.09713
 O174 O 0.97504 0.48931 0.09573
 O175 O 1.02726 0.55024 0.00173
 O176 O 0.97504 0.45438 -0.00131
 O177 O 0.97683 0.52579 -0.00048
 O178 O 1.02528 0.47803 0.00065
 H179 H 1.03885 0.52038 -0.13401
 H180 H 0.96180 0.43379 -0.00209
 H181 H 1.03636 0.51888 0.13737
 H182 H 0.96401 0.53366 -0.00039
 H183 H 1.01225 0.43181 -0.05663
 H184 H 1.01259 0.43177 0.05814
 H185 H 0.98614 0.47292 0.20612
 H186 H 0.99633 0.51803 0.20713
 H187 H 1.01599 0.58502 0.06128
 H188 H 1.01703 0.58552 -0.05454
 H189 H 0.99268 0.51894 -0.20675
 H190 H 0.99043 0.47671 -0.20714
 O191 O 0.52333 0.56031 -0.12298
 O192 O 0.48549 0.55512 -0.06213
 C193 C 0.50453 0.56730 -0.10815
 O194 O 0.47374 0.43432 -0.11521
 O195 O 0.51150 0.44102 -0.05245
 C196 C 0.49240 0.42762 -0.09738
 O197 O 0.43823 0.47751 -0.12504
 O198 O 0.44469 0.51552 -0.06331
 C199 C 0.43218 0.49694 -0.10994
 O200 O 0.56375 0.52179 -0.11161
 O201 O 0.55410 0.48235 -0.05130
 C202 C 0.56884 0.50194 -0.09448
 Zr203 Zr 0.53064 0.52886 -0.08263
 O204 O 0.53394 0.52772 -0.18759
 O205 O 0.56808 0.56855 -0.08017
 Zr206 Zr 0.46800 0.46797 -0.08409
 O207 O 0.46925 0.46513 -0.18910
 O208 O 0.42744 0.43161 -0.08198
 O209 O 0.48750 0.51139 -0.09859
 O210 O 0.51111 0.48574 -0.09430
 O211 O 0.56077 0.52145 0.12150
 O212 O 0.55284 0.48250 0.06189
 C213 C 0.56637 0.50169 0.10650
 O214 O 0.43841 0.48020 0.12497
 O215 O 0.44365 0.51537 0.05418
 C216 C 0.43209 0.49884 0.10484
 O217 O 0.47154 0.43493 0.11874
 O218 O 0.51044 0.44129 0.06088
 C219 C 0.49038 0.42805 0.10408
 O220 O 0.52120 0.56083 0.12147
 O221 O 0.48473 0.55525 0.05537
 C222 C 0.50260 0.56754 0.10327
 Zr223 Zr 0.52902 0.52922 0.08471
 O224 O 0.53044 0.52916 0.19013
 O225 O 0.56670 0.56872 0.08126
 Zr226 Zr 0.46624 0.46828 0.08292
 O227 O 0.46245 0.46304 0.18746
 O228 O 0.42546 0.43257 0.07352
 Zr229 Zr 0.47833 0.52048 -0.00278
 Zr230 Zr 0.51862 0.47668 0.00293
 O231 O 0.50909 0.48609 0.09793
 O232 O 0.48566 0.51179 0.09531
 O233 O 0.54680 0.52052 0.00280
 O234 O 0.45071 0.47668 -0.00214
 O235 O 0.52245 0.54624 -0.00047
 O236 O 0.47447 0.45021 0.00097
 H237 H 0.51755 0.47924 -0.13309
 H238 H 0.43019 0.46975 -0.00276
 H239 H 0.51455 0.47970 0.13848
 H240 H 0.53065 0.56696 -0.00093
 H241 H 0.42896 0.41678 -0.05740
 H242 H 0.42773 0.41652 0.05946
 H243 H 0.47703 0.48099 0.20690
 H244 H 0.51211 0.52610 0.20682
 H245 H 0.58164 0.56569 0.06217
 H246 H 0.58197 0.56646 -0.05305
 H247 H 0.51607 0.52483 -0.20663
 H248 H 0.47422 0.48378 -0.20755
 O249 O 0.51622 -0.03844 0.13479
 O250 O 0.48276 -0.07003 0.06314
 C251 C 0.49854 -0.06388 0.11550
 O252 O 0.47180 0.04005 0.10658
 O253 O 0.51191 0.07093 0.04983
 C254 C 0.49162 0.06538 0.09143
 O255 O 0.43394 -0.03880 0.11366
 O256 O 0.44250 -0.07000 0.05651
 C257 C 0.42866 -0.06413 0.10000
 O258 O 0.55928 0.04023 0.12453
 O259 O 0.55369 0.07118 0.05840
 C260 C 0.56603 0.06556 0.10615
 Zr261 Zr 0.52756 0.00059 0.08906
 O262 O 0.52933 0.00404 0.19407
 O263 O 0.56422 -0.00311 0.09054
 Zr264 Zr 0.46582 0.00043 0.07580
 O265 O 0.46262 0.00355 0.18026
 O266 O 0.42607 -0.00261 0.06240
 O267 O 0.48388 -0.02433 0.09627
 O268 O 0.50847 0.02480 0.09440
 O269 O 0.56657 0.03934 -0.10730
 O270 O 0.55697 0.07074 -0.05460
 C271 C 0.57216 0.06475 -0.09372
 O272 O 0.44317 -0.03947 -0.13513
 O273 O 0.44517 -0.07054 -0.06179
 C274 C 0.43547 -0.06478 -0.11465
 O275 O 0.47788 0.03918 -0.12753
 O276 O 0.51477 0.07058 -0.06304
 C277 C 0.49642 0.06462 -0.11003
 O278 O 0.52523 -0.03917 -0.11275
 O279 O 0.48581 -0.07036 -0.05448
 C280 C 0.50559 -0.06454 -0.09787
 Zr281 Zr 0.53228 0.00012 -0.07746
 O282 O 0.53734 0.00288 -0.18236
 O283 O 0.56906 -0.00301 -0.06702
 Zr284 Zr 0.47053 -0.00012 -0.09055
 O285 O 0.47100 0.00231 -0.19567
 O286 O 0.42998 -0.00422 -0.09068
 Zr287 Zr 0.47806 -0.04197 0.00010
 Zr288 Zr 0.52012 0.04239 -0.00180
 O289 O 0.51392 0.02432 -0.09721
 O290 O 0.48943 -0.02494 -0.09687
 O291 O 0.54735 0.02577 0.00634
 O292 O 0.45138 -0.02480 -0.00786
 O293 O 0.52197 -0.02446 0.00738
 O294 O 0.47616 0.02561 -0.00894
 H295 H 0.51356 0.03719 0.13397
 H296 H 0.43081 -0.03804 -0.01075
 H297 H 0.52129 0.03669 -0.13690
 H298 H 0.52954 -0.03747 0.01100
 H299 H 0.42932 0.01500 0.04085
 H300 H 0.43207 0.01395 -0.07597
 H301 H 0.48590 -0.00149 -0.21109
 H302 H 0.52003 -0.01274 -0.20205
 H303 H 0.58263 0.01316 -0.03988
 H304 H 0.58026 0.01508 0.07563
 H305 H 0.50966 -0.00475 0.21008
 H306 H 0.46634 -0.01058 0.20121
 C307 C 1.14979 0.50371 0.28028
 C308 C 1.16135 0.48606 0.28484
 C309 C 1.18000 0.49000 0.33659
 C310 C 1.18669 0.51112 0.38476
 C311 C 1.17458 0.52835 0.37767
 N312 N 1.15701 0.52447 0.32607
 C313 C 1.12919 0.49983 0.22843
 N314 N 1.13184 0.52286 0.19626
 C315 C 1.11215 0.52120 0.15272
 C316 C 1.08732 0.49547 0.14192
 C317 C 1.08432 0.47133 0.17383
 C318 C 1.10544 0.47337 0.21641
 H319 H 1.18795 0.47553 0.34093
 H320 H 1.17922 0.54505 0.41296
 H321 H 1.11528 0.54025 0.12914
 H322 H 1.06547 0.45108 0.16688
 H323 H 1.15586 0.46932 0.24907
 H324 H 1.10261 0.45479 0.24224
 C325 C 0.49690 0.65013 0.26915
 C326 C 0.47144 0.64860 0.28840
 C327 C 0.47140 0.66544 0.34074
 C328 C 0.49659 0.68380 0.37327
 C329 C 0.52162 0.68550 0.35108
 N330 N 0.52111 0.66868 0.30085
 C331 C 0.49812 0.63023 0.22107
 N332 N 0.52071 0.62627 0.22391
 C333 C 0.52297 0.60714 0.18543
 C334 C 0.50147 0.59024 0.14066
 C335 C 0.47835 0.59454 0.13504
 C336 C 0.47660 0.61451 0.17503
 H337 H 0.45165 0.66326 0.35784
 H338 H 0.54137 0.69928 0.37574
 H339 H 0.54136 0.60485 0.19091
 H340 H 0.46132 0.58204 0.10093
 H341 H 0.45155 0.63362 0.26621
 H342 H 0.45855 0.61734 0.16987
 C343 C 0.35037 -0.15136 0.27318
 C344 C 0.32195 -0.15967 0.28411
 C345 C 0.30725 -0.17823 0.33627
 C346 C 0.32087 -0.18836 0.37786
 C347 C 0.34925 -0.17974 0.36413
 N348 N 0.36295 -0.16194 0.31278
 C349 C 0.36769 -0.13031 0.22225
 N350 N 0.38906 -0.13220 0.19269
 C351 C 0.40775 -0.11206 0.15062
 C352 C 0.40620 -0.08768 0.13831
 C353 C 0.38417 -0.08540 0.16768
 C354 C 0.36470 -0.10680 0.20915
 H355 H 0.28571 -0.18351 0.34614
 H356 H 0.36058 -0.18711 0.39446
 H357 H 0.42460 -0.11450 0.12949
 H358 H 0.38235 -0.06684 0.15960
 H359 H 0.31133 -0.15167 0.25327
 H360 H 0.34841 -0.10427 0.23327
 C361 C 0.84858 0.49656 0.27869
 C362 C 0.83783 0.51500 0.27577
 C363 C 0.82060 0.51489 0.32763
 C364 C 0.81343 0.49578 0.38070
 C365 C 0.82371 0.47693 0.37983
 N366 N 0.84121 0.47816 0.33037
 C367 C 0.87039 0.49889 0.23203
 N368 N 0.89383 0.49996 0.25768
 C369 C 0.91505 0.50220 0.21849
 C370 C 0.91305 0.50275 0.14899
 C371 C 0.88882 0.50107 0.12104
 C372 C 0.86755 0.49962 0.16265
 H373 H 0.81375 0.53029 0.32764
 H374 H 0.81884 0.46208 0.42022
 H375 H 0.93331 0.50310 0.24164
 H376 H 0.88664 0.50136 0.06746
 H377 H 0.84400 0.53035 0.23601
 H378 H 0.84896 0.49857 0.14112
 C379 C 0.49213 0.34572 0.27670
 C380 C 0.46871 0.32001 0.29641
 C381 C 0.47134 0.30489 0.34916
 C382 C 0.49721 0.31526 0.38162
 C383 C 0.52034 0.34035 0.35902
 N384 N 0.51727 0.35483 0.30787
 C385 C 0.48998 0.36414 0.22605
 N386 N 0.51356 0.38285 0.19211
 C387 C 0.51380 0.40237 0.14986
 C388 C 0.48948 0.40446 0.14173
 C389 C 0.46482 0.38504 0.17526
 C390 C 0.46493 0.36482 0.21713
 H391 H 0.45313 0.28551 0.36570
 H392 H 0.54061 0.34878 0.38318
 H393 H 0.53331 0.41704 0.12523
 H394 H 0.44562 0.38596 0.17052
 H395 H 0.44853 0.31178 0.27201
 H396 H 0.44597 0.35093 0.24463
 C397 C 0.64597 0.15240 0.27857
 C398 C 0.64614 0.17757 0.29362
 C399 C 0.66255 0.19430 0.34651
 C400 C 0.67870 0.18604 0.38398
 C401 C 0.67855 0.16128 0.36654
 N402 N 0.66232 0.14526 0.31538
 C403 C 0.62693 0.13184 0.22842
 N404 N 0.62310 0.10535 0.23058
 C405 C 0.60473 0.08434 0.19030
 C406 C 0.58837 0.08923 0.14445
 C407 C 0.59263 0.11663 0.13928
 C408 C 0.61189 0.13801 0.18103
 H409 H 0.66202 0.21320 0.35953
 H410 H 0.69074 0.15430 0.39477
 H411 H 0.60248 0.06367 0.19550
 H412 H 0.58055 0.12138 0.10432
 H413 H 0.63306 0.18390 0.26718
 H414 H 0.61458 0.15883 0.17618
 C415 C 0.50650 0.15208 -0.28262
 C416 C 0.52924 0.16183 -0.32691
 C417 C 0.53114 0.17915 -0.37984
 C418 C 0.51118 0.18793 -0.38686
 C419 C 0.48923 0.17840 -0.33965
 N420 N 0.48714 0.16048 -0.29018
 C421 C 0.50221 0.13088 -0.23219
 N422 N 0.52391 0.13496 -0.19209
 C423 C 0.52182 0.11472 -0.14950
 C424 C 0.49734 0.08812 -0.14826
 C425 C 0.47450 0.08380 -0.18817
 C426 C 0.47675 0.10530 -0.22949
 H427 H 0.54827 0.18578 -0.41530
 H428 H 0.47282 0.18379 -0.34445
 H429 H 0.53969 0.11908 -0.11873
 H430 H 0.45516 0.06364 -0.18853
 H431 H 0.54462 0.15501 -0.32240
 H432 H 0.45935 0.10150 -0.26161
 C433 C 0.64753 0.49426 -0.26737
 C434 C 0.67621 0.51394 -0.27595
 C435 C 0.69088 0.51112 -0.32966
 C436 C 0.67705 0.48874 -0.37500
 C437 C 0.64830 0.46949 -0.36404
 N438 N 0.63459 0.47256 -0.31110
 C439 C 0.63039 0.49729 -0.21478
 N440 N 0.60838 0.47372 -0.18788
 C441 C 0.58970 0.47488 -0.14515
 C442 C 0.59189 0.50085 -0.12981
 C443 C 0.61475 0.52546 -0.15578
 C444 C 0.63422 0.52380 -0.19769
 H445 H 0.71269 0.52716 -0.33740
 H446 H 0.63674 0.45189 -0.39744
 H447 H 0.57223 0.45543 -0.12656
 H448 H 0.61706 0.54587 -0.14528
 H449 H 0.68710 0.53148 -0.24204
 H450 H 0.65107 0.54291 -0.21949
 C451 C 0.85075 0.35287 -0.28079
 C452 C 0.82149 0.34224 -0.27851
 C453 C 0.80453 0.32511 -0.33042
 C454 C 0.81654 0.31835 -0.38440
 C455 C 0.84581 0.32900 -0.38347
 N456 N 0.86173 0.34555 -0.33273
 C457 C 0.87075 0.37249 -0.23060
 N458 N 0.89760 0.37728 -0.23238
 C459 C 0.91830 0.39642 -0.19273
 C460 C 0.91275 0.41273 -0.14800
 C461 C 0.88507 0.40787 -0.14395
 C462 C 0.86400 0.38781 -0.18520
 H463 H 0.78226 0.31829 -0.32980
 H464 H 0.85612 0.32411 -0.42312
 H465 H 0.93922 0.39920 -0.19740
 H466 H 0.87988 0.42007 -0.11033
 H467 H 0.81168 0.34718 -0.23798
 H468 H 0.84315 0.38523 -0.18274
 C469 C 0.50389 -0.14942 -0.26825
 C470 C 0.48627 -0.17879 -0.26478
 C471 C 0.48548 -0.19553 -0.31843
 C472 C 0.50218 -0.18310 -0.37551
 C473 C 0.52007 -0.15370 -0.37553
 N474 N 0.52047 -0.13801 -0.32296
 C475 C 0.50457 -0.12981 -0.21656
 N476 N 0.52710 -0.10322 -0.21602
 C477 C 0.52839 -0.08265 -0.17616
 C478 C 0.50567 -0.08800 -0.13435
 C479 C 0.48247 -0.11550 -0.13234
 C480 C 0.48182 -0.13648 -0.17335
 H481 H 0.47074 -0.21797 -0.31665
 H482 H 0.53374 -0.14311 -0.41763
 H483 H 0.54686 -0.06188 -0.17903
 H484 H 0.46439 -0.12053 -0.10113
 H485 H 0.47300 -0.18878 -0.22184
 H486 H 0.46316 -0.15712 -0.17333
 C487 C 0.34963 0.49921 -0.28271
 C488 C 0.33824 0.51715 -0.27949
 C489 C 0.32107 0.51695 -0.33135
 C490 C 0.31496 0.49877 -0.38622
 C491 C 0.32635 0.48079 -0.38618
 N492 N 0.34296 0.48146 -0.33548
 C493 C 0.36935 0.49900 -0.23249
 N494 N 0.37451 0.47720 -0.23431
 C495 C 0.39371 0.47583 -0.19445
 C496 C 0.40970 0.49762 -0.14940
 C497 C 0.40447 0.52018 -0.14536
 C498 C 0.38438 0.52101 -0.18688
 H499 H 0.31379 0.53202 -0.33000
 H500 H 0.32209 0.46614 -0.42665
 H501 H 0.39675 0.45787 -0.19914
 H502 H 0.41638 0.53749 -0.11145
 H503 H 0.34264 0.53142 -0.23824
 H504 H 0.38153 0.53911 -0.18447
 C505 C 1.15422 0.64987 -0.27099
 C506 C 1.16637 0.67923 -0.27410
 C507 C 1.18393 0.69401 -0.32778
 C508 C 1.18897 0.67950 -0.37903
 C509 C 1.17647 0.65007 -0.37316
 N510 N 1.15993 0.63631 -0.31993
 C511 C 1.13410 0.63290 -0.21818
 N512 N 1.13486 0.61020 -0.19337
 C513 C 1.11490 0.59167 -0.15066
 C514 C 1.09174 0.59465 -0.13329
 C515 C 1.09074 0.61816 -0.15739
 C516 C 1.11212 0.63757 -0.19912
 H517 H 1.19233 0.71654 -0.33098
 H518 H 1.17993 0.63799 -0.41088
 H519 H 1.11626 0.57372 -0.13357
 H520 H 1.07311 0.62109 -0.14531
 H521 H 1.16208 0.69053 -0.23587
 H522 H 1.11063 0.65509 -0.21929
 C523 C 0.85499 0.51033 -0.28006
 C524 C 0.86172 0.53297 -0.32354
 C525 C 0.84315 0.53001 -0.37398
 C526 C 0.81699 0.50530 -0.37932
 C527 C 0.80986 0.48406 -0.33132
 N528 N 0.82901 0.48684 -0.28430
 C529 C 0.87640 0.51073 -0.23406
 N530 N 0.86837 0.49255 -0.18133
 C531 C 0.88745 0.49126 -0.13995
 C532 C 0.91650 0.50884 -0.15113
 C533 C 0.92498 0.52746 -0.20544
 C534 C 0.90525 0.52831 -0.24686
 H535 H 0.84929 0.54704 -0.40944
 H536 H 0.78997 0.46450 -0.33416
 H537 H 0.87996 0.47643 -0.09892
 H538 H 0.94704 0.54117 -0.21724
 H539 H 0.88140 0.55264 -0.32028
 H540 H 0.91294 0.54208 -0.28972
 C541 C 0.49827 0.34629 -0.26681
 C542 C 0.52377 0.34719 -0.28256
 C543 C 0.52478 0.33154 -0.33645
 C544 C 0.50053 0.31503 -0.37415
 C545 C 0.47540 0.31402 -0.35585
 N546 N 0.47497 0.32962 -0.30382
 C547 C 0.49634 0.36506 -0.21652
 N548 N 0.47449 0.37009 -0.22129
 C549 C 0.47206 0.38878 -0.18153
 C550 C 0.49272 0.40423 -0.13363
 C551 C 0.51475 0.39842 -0.12538
 C552 C 0.51665 0.37887 -0.16662
 H553 H 0.54462 0.33309 -0.35029
 H554 H 0.45637 0.30159 -0.38436
 H555 H 0.45444 0.39218 -0.18913
 H556 H 0.53095 0.40953 -0.08841
 H557 H 0.54305 0.36076 -0.25615
 H558 H 0.53398 0.37501 -0.15965
 C559 C 0.65617 0.14779 -0.26589
 C560 C 0.67072 0.14025 -0.31183
 C561 C 0.68499 0.15808 -0.36510
 C562 C 0.68498 0.18340 -0.37291
 C563 C 0.67094 0.19069 -0.32548
 N564 N 0.65684 0.17281 -0.27421
 C565 C 0.63765 0.12803 -0.21334
 N566 N 0.61721 0.13214 -0.18591
 C567 C 0.59732 0.11326 -0.14345
 C568 C 0.59662 0.08797 -0.12825
 C569 C 0.61836 0.08401 -0.15280
 C570 C 0.63908 0.10408 -0.19443
 H571 H 0.69533 0.15172 -0.40158
 H572 H 0.67029 0.21000 -0.33067
 H573 H 0.58119 0.11731 -0.12478
 H574 H 0.61897 0.06504 -0.14103
 H575 H 0.67015 0.12030 -0.30930
 H576 H 0.65551 0.10031 -0.21233
 C577 C 1.15048 0.49933 -0.27017
 C578 C 1.15497 0.47714 -0.28792
 C579 C 1.17296 0.48063 -0.34105
 C580 C 1.18609 0.50604 -0.37705
 C581 C 1.18102 0.52769 -0.35738
 N582 N 1.16383 0.52396 -0.30478
 C583 C 1.12981 0.49592 -0.21864
 N584 N 1.13529 0.51793 -0.17791
 C585 C 1.11566 0.51720 -0.13502
 C586 C 1.08825 0.49389 -0.13420
 C587 C 1.08254 0.47063 -0.17433
 C588 C 1.10329 0.47149 -0.21612
 H589 H 1.17552 0.46306 -0.35607
 H590 H 1.19074 0.54758 -0.38388
 H591 H 1.12114 0.53531 -0.10396
 H592 H 1.06173 0.45213 -0.17528
 H593 H 1.14434 0.45719 -0.26173
 H594 H 1.09810 0.45389 -0.24898
 C595 C 0.50427 0.65069 -0.28121
 C596 C 0.48682 0.66262 -0.27721
 C597 C 0.48676 0.67947 -0.32949
 C598 C 0.50421 0.68475 -0.38563
 C599 C 0.52187 0.67298 -0.38629
 N600 N 0.52144 0.65664 -0.33511
 C601 C 0.50435 0.63104 -0.23067
 N602 N 0.52583 0.62537 -0.23266
 C603 C 0.52675 0.60594 -0.19257
 C604 C 0.50480 0.59030 -0.14734
 C605 C 0.48264 0.59612 -0.14314
 C606 C 0.48227 0.61639 -0.18477
 H607 H 0.47205 0.68719 -0.32733
 H608 H 0.53616 0.67680 -0.42749
 H609 H 0.54440 0.60238 -0.19733
 H610 H 0.46519 0.58446 -0.10917
 H611 H 0.47309 0.65886 -0.23498
 H612 H 0.46436 0.61958 -0.18235
 C613 C 0.35978 -0.15536 -0.28260
 C614 C 0.33039 -0.16854 -0.27791
 C615 C 0.31384 -0.18645 -0.32911
 C616 C 0.32652 -0.19191 -0.38403
 C617 C 0.35613 -0.17928 -0.38400
 N618 N 0.37170 -0.16124 -0.33495
 C619 C 0.37827 -0.13269 -0.23696
 N620 N 0.39945 -0.10850 -0.26361
 C621 C 0.41749 -0.08647 -0.22527
 C622 C 0.41518 -0.08839 -0.15573
 C623 C 0.39379 -0.11330 -0.12688
 C624 C 0.37491 -0.13542 -0.16755
 H625 H 0.29136 -0.19433 -0.32780
 H626 H 0.36704 -0.18320 -0.42397
 H627 H 0.43399 -0.06770 -0.24911
 H628 H 0.39154 -0.11545 -0.07320
 H629 H 0.32046 -0.16357 -0.23754
 H630 H 0.35832 -0.15458 -0.14526
 C631 C 0.48849 -0.15235 0.28480
 C632 C 0.50711 -0.16283 0.28030
 C633 C 0.50741 -0.18008 0.33119
 C634 C 0.48851 -0.18763 0.38491
 C635 C 0.46933 -0.17774 0.38551
 N636 N 0.47019 -0.16011 0.33692
 C637 C 0.49065 -0.13046 0.23902
 N638 N 0.49202 -0.10695 0.26530
 C639 C 0.49481 -0.08542 0.22656
 C640 C 0.49574 -0.08718 0.15707
 C641 C 0.49372 -0.11148 0.12863
 C642 C 0.49164 -0.13306 0.16966
 H643 H 0.52309 -0.18658 0.33007
 H644 H 0.45460 -0.18293 0.42639
 H645 H 0.49594 -0.06710 0.25002
 H646 H 0.49428 -0.11348 0.07501
 H647 H 0.52236 -0.15635 0.24015
 H648 H 0.49044 -0.15166 0.14770
 C649 C 0.35389 0.51091 0.27075
 C650 C 0.32479 0.49211 0.26757
 C651 C 0.30751 0.49145 0.31981
 C652 C 0.31920 0.51012 0.37358
 C653 C 0.34816 0.52970 0.37246
 N654 N 0.36465 0.52916 0.32265
 C655 C 0.37356 0.50844 0.22523
 N656 N 0.39566 0.50724 0.25218
 C657 C 0.41433 0.50398 0.21426
 C658 C 0.41161 0.50233 0.14484
 C659 C 0.38945 0.50426 0.11548
 C660 C 0.36998 0.50684 0.15583
 H661 H 0.28536 0.47563 0.31981
 H662 H 0.35790 0.54437 0.41317
 H663 H 0.43147 0.50299 0.23832
 H664 H 0.38694 0.50319 0.06184
 H665 H 0.31586 0.47687 0.22763
 H666 H 0.35260 0.50789 0.13333
 C667 C 1.15126 0.65264 0.27256
 C668 C 1.15385 0.67835 0.29296
 C669 C 1.17130 0.69282 0.34652
 C670 C 1.18616 0.68177 0.37922
 C671 C 1.18390 0.65666 0.35588
 N672 N 1.16666 0.64283 0.30386
 C673 C 1.13047 0.63475 0.22200
 N674 N 1.13558 0.61722 0.18390
 C675 C 1.11589 0.59792 0.14208
 C676 C 1.08879 0.59457 0.13944
 C677 C 1.08347 0.61308 0.17675
 C678 C 1.10421 0.63322 0.21769
 H679 H 1.17269 0.71221 0.36358
 H680 H 1.19525 0.64772 0.38015
 H681 H 1.12109 0.58454 0.11308
 H682 H 1.06296 0.61148 0.17592
 H683 H 1.14223 0.68696 0.26855
 H684 H 1.09913 0.64632 0.24832
 C685 C 0.50083 0.15320 0.26364
 C686 C 0.52559 0.17947 0.27175
 C687 C 0.52800 0.19641 0.32629
 C688 C 0.50589 0.18730 0.37228
 C689 C 0.48135 0.16148 0.36170
 N690 N 0.47955 0.14527 0.30875
 C691 C 0.49771 0.13244 0.21195
 N692 N 0.47562 0.10568 0.21778
 C693 C 0.47225 0.08440 0.17725
 C694 C 0.49228 0.08925 0.12765
 C695 C 0.51455 0.11693 0.11841
 C696 C 0.51729 0.13857 0.16009
 H697 H 0.54733 0.21619 0.33373
 H698 H 0.46395 0.15386 0.39660
 H699 H 0.45457 0.06350 0.18593
 H700 H 0.53042 0.12175 0.08043
 H701 H 0.54338 0.18665 0.23843
 H702 H 0.53488 0.15951 0.15206
 C703 C 0.64453 0.49145 0.27919
 C704 C 0.64386 0.46581 0.29142
 C705 C 0.65962 0.46397 0.34393
 C706 C 0.67600 0.48753 0.38374
 C707 C 0.67670 0.51282 0.36911
 N708 N 0.66103 0.51407 0.31836
 C709 C 0.62611 0.49430 0.22942
 N710 N 0.62126 0.51624 0.23596
 C711 C 0.60331 0.51967 0.19574
 C712 C 0.58853 0.50007 0.14529
 C713 C 0.59396 0.47783 0.13586
 C714 C 0.61274 0.47491 0.17754
 H715 H 0.65836 0.44404 0.35486
 H716 H 0.68900 0.53132 0.39942
 H717 H 0.60007 0.53731 0.20462
 H718 H 0.58329 0.46233 0.09718
 H719 H 0.63051 0.44703 0.26312
 H720 H 0.61645 0.45757 0.16907
 C721 C 0.84600 0.35119 0.26933
 C722 C 0.82090 0.35103 0.28554
 C723 C 0.80413 0.33418 0.33814
 C724 C 0.81226 0.31753 0.37407
 C725 C 0.83675 0.31743 0.35493
 N726 N 0.85287 0.33418 0.30425
 C727 C 0.86695 0.37118 0.22082
 N728 N 0.89348 0.37510 0.22318
 C729 C 0.91484 0.39428 0.18462
 C730 C 0.91030 0.41140 0.14030
 C731 C 0.88291 0.40720 0.13513
 C732 C 0.86117 0.38710 0.17514
 H733 H 0.78553 0.33502 0.35269
 H734 H 0.84368 0.30494 0.38211
 H735 H 0.93548 0.39643 0.18982
 H736 H 0.87842 0.41984 0.10131
 H737 H 0.81481 0.36463 0.26066
 H738 H 0.84034 0.38441 0.17026
   
