data_POSCAR
  _audit_creation_date              2014-09-24
  _audit_creation_method            'ToBaCCo'
  _symmetry_space_group_name_H-M    'P1'
  _symmetry_Int_Tables_number       1
  _symmetry_cell_setting            triclinic
  loop_
  _symmetry_equiv_pos_as_xyz
 x,y,z
_cell_length_a 42.6325
_cell_length_b 42.4953
_cell_length_c 8.6479
_cell_angle_alpha 89.650500
_cell_angle_beta 89.998000
_cell_angle_gamma 90.001000
loop_
  _atom_site_label
  _atom_site_type_symbol
  _atom_site_fract_x
  _atom_site_fract_y
  _atom_site_fract_z
C1 C 0.34736 0.26547 0.32842
 C2 C 0.34769 0.23328 0.32061
 C3 C 0.31687 0.22378 0.29773
 N4 N 0.29789 0.24922 0.29113
 C5 C 0.31639 0.27475 0.30969
 C6 C 0.30685 0.19206 0.28979
 C7 C 0.27523 0.18236 0.27071
 C8 C 0.26493 0.15154 0.28865
 C9 C 0.23322 0.15157 0.26199
 C10 C 0.22470 0.18240 0.22819
 N11 N 0.25058 0.20093 0.23150
 C12 C 0.19359 0.19214 0.19431
 C13 C 0.18358 0.22388 0.18542
 C14 C 0.15297 0.23341 0.15643
 C15 C 0.15274 0.26561 0.16409
 C16 C 0.18320 0.27485 0.19717
 N17 N 0.20190 0.24929 0.21024
 C18 C 0.19306 0.30650 0.21084
 C19 C 0.22437 0.31633 0.23703
 C20 C 0.23426 0.34743 0.23034
 C21 C 0.26598 0.34740 0.25732
 C22 C 0.27485 0.31629 0.27988
 N23 N 0.24921 0.29757 0.27001
 C24 C 0.30614 0.30641 0.30675
 H25 H 0.36768 0.28032 0.34514
 H26 H 0.36827 0.21853 0.33188
 H27 H 0.24839 0.27372 0.29392
 H28 H 0.27879 0.13110 0.31946
 H29 H 0.21808 0.13115 0.26837
 H30 H 0.13280 0.21869 0.13342
 H31 H 0.13244 0.28049 0.14650
 H32 H 0.28089 0.36802 0.25769
 H33 H 0.25180 0.22423 0.19613
 H34 H 0.22018 0.36807 0.20600
 C35 C 0.65219 0.23335 0.32546
 C36 C 0.65250 0.26554 0.33359
 C37 C 0.68335 0.27489 0.31150
 N38 N 0.70180 0.24941 0.29064
 C39 C 0.68291 0.22392 0.29913
 C40 C 0.69350 0.30657 0.30672
 C41 C 0.72470 0.31647 0.27751
 C42 C 0.73339 0.34752 0.25115
 C43 C 0.76511 0.34759 0.22409
 C44 C 0.77517 0.31659 0.23457
 N45 N 0.75044 0.29785 0.26983
 C46 C 0.80658 0.30685 0.21062
 C47 C 0.81654 0.27521 0.19884
 C48 C 0.84714 0.26593 0.16929
 C49 C 0.84690 0.23372 0.16148
 C50 C 0.81617 0.22427 0.18687
 N51 N 0.79775 0.24969 0.20956
 C52 C 0.80612 0.19259 0.19374
 C53 C 0.77500 0.18271 0.22506
 C54 C 0.76649 0.15174 0.25470
 C55 C 0.73477 0.15160 0.28143
 C56 C 0.72449 0.18251 0.26760
 N57 N 0.74915 0.20124 0.23073
 C58 C 0.69292 0.19221 0.28909
 H59 H 0.63168 0.21856 0.33861
 H60 H 0.63223 0.28035 0.35266
 H61 H 0.74802 0.22476 0.19939
 H62 H 0.71837 0.36805 0.24929
 H63 H 0.77908 0.36819 0.19747
 H64 H 0.86754 0.28079 0.15405
 H65 H 0.86714 0.21897 0.14059
 H66 H 0.72090 0.13102 0.30974
 H67 H 0.75143 0.27417 0.29787
 H68 H 0.78163 0.13130 0.25863
 C69 C 0.65296 0.73388 0.67551
 C70 C 0.65319 0.76611 0.66792
 C71 C 0.68405 0.77546 0.68971
 N72 N 0.70255 0.74995 0.70998
 C73 C 0.68369 0.72448 0.70129
 C74 C 0.69418 0.80712 0.69469
 C75 C 0.72539 0.81692 0.72367
 C76 C 0.73410 0.84788 0.75032
 C77 C 0.76584 0.84787 0.77692
 C78 C 0.77589 0.81689 0.76600
 N79 N 0.75113 0.79826 0.73086
 C80 C 0.80729 0.80705 0.78965
 C81 C 0.81728 0.77538 0.80086
 C82 C 0.84788 0.76607 0.83066
 C83 C 0.84770 0.73385 0.83811
 C84 C 0.81699 0.72437 0.81212
 N85 N 0.79854 0.74985 0.78947
 C86 C 0.80694 0.69264 0.80473
 C87 C 0.77574 0.68292 0.77318
 C88 C 0.76706 0.65208 0.74222
 C89 C 0.73532 0.65216 0.71589
 C90 C 0.72521 0.68301 0.73124
 N91 N 0.74993 0.70153 0.76869
 C92 C 0.69371 0.69282 0.71045
 H93 H 0.63248 0.71908 0.66235
 H94 H 0.63288 0.78094 0.64940
 H95 H 0.74883 0.72490 0.80129
 H96 H 0.71908 0.86841 0.75270
 H97 H 0.77984 0.86838 0.80362
 H98 H 0.86824 0.78092 0.84647
 H99 H 0.86796 0.71908 0.85922
 H100 H 0.72137 0.63176 0.68671
 H101 H 0.75213 0.77466 0.70271
 H102 H 0.78212 0.63160 0.73722
 C103 C 0.34644 0.76616 0.66479
 C104 C 0.34663 0.73393 0.67220
 C105 C 0.31596 0.72460 0.70030
 N106 N 0.29719 0.75011 0.71075
 C107 C 0.31569 0.77557 0.68923
 C108 C 0.30591 0.69295 0.71037
 C109 C 0.27443 0.68318 0.73247
 C110 C 0.26432 0.65228 0.71913
 C111 C 0.23259 0.65227 0.74566
 C112 C 0.22391 0.68319 0.77471
 N113 N 0.24971 0.70179 0.76885
 C114 C 0.19270 0.69300 0.80546
 C115 C 0.18267 0.72475 0.81235
 C116 C 0.15190 0.73422 0.83660
 C117 C 0.15173 0.76643 0.82952
 C118 C 0.18243 0.77580 0.80182
 N119 N 0.20119 0.75025 0.79131
 C120 C 0.19252 0.80753 0.79207
 C121 C 0.22407 0.81724 0.76981
 C122 C 0.23438 0.84813 0.78298
 C123 C 0.26609 0.84802 0.75596
 C124 C 0.27457 0.81709 0.72689
 N125 N 0.24871 0.79857 0.73310
 C126 C 0.30568 0.80724 0.69591
 H127 H 0.36673 0.78094 0.64470
 H128 H 0.36702 0.71909 0.65737
 H129 H 0.24756 0.77509 0.70262
 H130 H 0.27827 0.63182 0.69112
 H131 H 0.21754 0.63177 0.74198
 H132 H 0.13159 0.71944 0.85633
 H133 H 0.13132 0.78126 0.84420
 H134 H 0.28124 0.86844 0.75945
 H135 H 0.25079 0.72527 0.79927
 H136 H 0.22054 0.86867 0.81110
 O137 O 1.03142 -0.03584 0.08299
 O138 O 0.97033 0.02350 0.15661
 O139 O 0.97036 -0.03581 0.08277
 O140 O 1.03147 0.02351 0.15689
 O141 O 1.03149 0.03630 -0.09136
 O142 O 0.97039 -0.02301 -0.16549
 O143 O 0.97039 0.03630 -0.09162
 O144 O 1.03147 -0.02305 -0.16529
 Cu145 Cu 1.00090 -0.00748 0.14467
 Cu146 Cu 1.00095 0.00798 -0.15324
 C147 C 1.04173 -0.03951 -0.05332
 C148 C 0.96002 0.03991 0.04459
 C149 C 0.96008 -0.03945 -0.05359
 C150 C 1.04180 0.03994 0.04495
 O151 O 0.53028 0.46382 0.59356
 O152 O 0.46917 0.52314 0.66718
 O153 O 0.46922 0.46380 0.59339
 O154 O 0.53028 0.52316 0.66723
 O155 O 0.53028 0.53595 0.41896
 O156 O 0.46922 0.47658 0.34514
 O157 O 0.46920 0.53592 0.41891
 O158 O 0.53031 0.47660 0.34531
 Cu159 Cu 0.49974 0.49215 0.65520
 Cu160 Cu 0.49975 0.50760 0.35723
 C161 C 0.54060 0.46017 0.45729
 C162 C 0.45887 0.53956 0.55518
 C163 C 0.45893 0.46014 0.45709
 C164 C 0.54059 0.53959 0.55527
 O165 O 0.03054 0.52424 -0.15805
 O166 O -0.03054 0.46475 -0.08284
 O167 O -0.03060 0.52420 -0.15815
 O168 O 0.03052 0.46476 -0.08290
 O169 O 0.03052 0.47716 0.16508
 O170 O -0.03058 0.53659 0.08981
 O171 O -0.03055 0.47716 0.16513
 O172 O 0.03050 0.53662 0.08992
 Cu173 Cu -0.00001 0.49320 -0.14530
 Cu174 Cu -0.00002 0.50819 0.15222
 C175 C 0.04082 0.54049 -0.04642
 C176 C -0.04084 0.46089 0.05357
 C177 C -0.04092 0.54043 -0.04652
 C178 C 0.04080 0.46088 0.05352
 O179 O 0.53052 1.02383 0.33131
 O180 O 0.46942 0.96443 0.40741
 O181 O 0.46940 1.02384 0.33156
 O182 O 0.53050 0.96444 0.40744
 O183 O 0.53054 0.97696 0.65524
 O184 O 0.46943 1.03636 0.57939
 O185 O 0.46942 0.97695 0.65521
 O186 O 0.53053 1.03636 0.57915
 Cu187 Cu 0.49996 0.99283 0.34468
 Cu188 Cu 0.49998 1.00797 0.64205
 C189 C 0.54085 1.04013 0.44271
 C190 C 0.45911 0.96065 0.54382
 C191 C 0.45909 1.04014 0.44300
 C192 C 0.54083 0.96065 0.54379
 C193 C 1.17130 0.16917 0.17497
 C194 C 1.15165 0.14909 0.15750
 C195 C 1.12855 0.12572 0.13633
 C196 C 1.10875 0.10587 0.11743
 C197 C 1.08548 0.08276 0.09401
 C198 C 1.06556 0.06314 0.07256
 C199 C 0.67015 0.66857 0.68933
 C200 C 0.65048 0.64854 0.67120
 C201 C 0.62736 0.62524 0.64909
 C202 C 0.60754 0.60544 0.62935
 C203 C 0.58426 0.58238 0.60500
 C204 C 0.56434 0.56279 0.58300
 C205 C -0.16991 0.33118 0.18936
 C206 C -0.15030 0.35131 0.17116
 C207 C -0.12728 0.37476 0.14890
 C208 C -0.10756 0.39469 0.12892
 C209 C -0.08438 0.41789 0.10421
 C210 C -0.06453 0.43759 0.08185
 C211 C 0.32934 0.83148 0.67579
 C212 C 0.34907 0.85152 0.65846
 C213 C 0.37224 0.87486 0.63720
 C214 C 0.39209 0.89469 0.61798
 C215 C 0.41540 0.91780 0.59407
 C216 C 0.43534 0.93743 0.57215
 C217 C -0.17073 0.66964 -0.17647
 C218 C -0.15103 0.64956 -0.15939
 C219 C -0.12787 0.62619 -0.13849
 C220 C -0.10801 0.60636 -0.11963
 C221 C -0.08468 0.58325 -0.09608
 C222 C -0.06472 0.56364 -0.07445
 C223 C 0.32917 1.16908 0.30909
 C224 C 0.34887 1.14901 0.32669
 C225 C 0.37205 1.12569 0.34835
 C226 C 0.39193 1.10591 0.36789
 C227 C 0.41529 1.08287 0.39232
 C228 C 0.43528 1.06331 0.41464
 C229 C 1.17034 -0.16944 -0.18756
 C230 C 1.15081 -0.14927 -0.16920
 C231 C 1.12790 -0.12576 -0.14694
 C232 C 1.10826 -0.10579 -0.12716
 C233 C 1.08517 -0.08254 -0.10291
 C234 C 1.06538 -0.06281 -0.08104
 C235 C 0.66991 0.33081 0.32695
 C236 C 0.65026 0.35088 0.34426
 C237 C 0.62719 0.37427 0.36540
 C238 C 0.60742 0.39414 0.38445
 C239 C 0.58421 0.41729 0.40811
 C240 C 0.56432 0.43694 0.42969
 C241 C 0.83081 -0.16868 -0.18868
 C242 C 0.85043 -0.14861 -0.17018
 C243 C 0.87348 -0.12525 -0.14780
 C244 C 0.89324 -0.10541 -0.12790
 C245 C 0.91646 -0.08229 -0.10348
 C246 C 0.93635 -0.06266 -0.08143
 C247 C 0.32972 0.33067 0.32682
 C248 C 0.34937 0.35075 0.34410
 C249 C 0.37242 0.37416 0.36526
 C250 C 0.39217 0.39405 0.38426
 C251 C 0.41536 0.41722 0.40788
 C252 C 0.43523 0.43689 0.42946
 C253 C 0.17034 0.67003 -0.17587
 C254 C 0.15064 0.64993 -0.15892
 C255 C 0.12753 0.62652 -0.13819
 C256 C 0.10773 0.60662 -0.11943
 C257 C 0.08447 0.58344 -0.09596
 C258 C 0.06456 0.56376 -0.07437
 C259 C 0.67064 1.16919 0.30858
 C260 C 0.65097 1.14909 0.32631
 C261 C 0.62783 1.12574 0.34804
 C262 C 0.60798 1.10593 0.36763
 C263 C 0.58463 1.08288 0.39202
 C264 C 0.56465 1.06330 0.41429
 C265 C 0.16952 0.33081 0.18951
 C266 C 0.14993 0.35096 0.17126
 C267 C 0.12696 0.37446 0.14901
 C268 C 0.10731 0.39446 0.12903
 C269 C 0.08422 0.41776 0.10428
 C270 C 0.06444 0.43753 0.08185
 C271 C 0.67056 0.83140 0.67479
 C272 C 0.65085 0.85147 0.65755
 C273 C 0.62770 0.87483 0.63643
 C274 C 0.60786 0.89468 0.61745
 C275 C 0.58455 0.91780 0.59377
 C276 C 0.56461 0.93743 0.57197
 C277 C 0.82976 0.16839 0.17374
 C278 C 0.84952 0.14841 0.15654
 C279 C 0.87277 0.12519 0.13560
 C280 C 0.89271 0.10548 0.11680
 C281 C 0.91613 0.08253 0.09344
 C282 C 0.93617 0.06302 0.07203
 C283 C 0.32942 0.66866 0.68894
 C284 C 0.34904 0.64860 0.67067
 C285 C 0.37213 0.62526 0.64849
 C286 C 0.39192 0.60544 0.62879
 C287 C 0.41518 0.58235 0.60461
 C288 C 0.43510 0.56275 0.58279
   
