data_POSCAR
  _audit_creation_date              2014-09-24
  _audit_creation_method            'ToBaCCo'
  _symmetry_space_group_name_H-M    'P1'
  _symmetry_Int_Tables_number       1
  _symmetry_cell_setting            triclinic
  loop_
  _symmetry_equiv_pos_as_xyz
 x,y,z
_cell_length_a 34.2218
_cell_length_b 34.9314
_cell_length_c 25.0931
_cell_angle_alpha 89.978500
_cell_angle_beta 89.480700
_cell_angle_gamma 121.902500
loop_
  _atom_site_label
  _atom_site_type_symbol
  _atom_site_fract_x
  _atom_site_fract_y
  _atom_site_fract_z
O1 O -0.01182 0.53899 -0.05591
 O2 O 0.05741 0.49741 0.00345
 O3 O -0.01025 0.46647 -0.06537
 O4 O 0.05604 0.57014 0.01187
 O5 O 0.00495 0.53986 0.07749
 O6 O -0.05955 0.43415 0.00153
 O7 O 0.00723 0.46683 0.06991
 O8 O -0.06297 0.50623 0.00928
 Cu9 Cu 0.02794 0.52134 -0.03311
 Cu10 Cu -0.03259 0.48377 0.04627
 C11 C -0.04994 0.52846 -0.03409
 C12 C 0.04458 0.47593 0.04746
 C13 C -0.04666 0.43290 -0.04570
 C14 C 0.04223 0.57247 0.05815
 O15 O 0.58112 0.51490 0.01133
 O16 O 0.46518 0.46874 0.06785
 O17 O 0.50181 0.44446 -0.00697
 O18 O 0.54509 0.54162 0.08375
 O19 O 0.53056 0.57787 0.02264
 O20 O 0.48433 0.47981 -0.06604
 O21 O 0.45131 0.50654 0.00824
 O22 O 0.56632 0.55009 -0.05093
 Cu23 Cu 0.52473 0.48886 0.04520
 Cu24 Cu 0.50716 0.53258 -0.02775
 C25 C 0.59279 0.53886 -0.03059
 C26 C 0.43889 0.48048 0.04853
 C27 C 0.48592 0.44572 -0.05216
 C28 C 0.54401 0.57583 0.06896
 O29 O 0.44947 0.94896 0.00785
 O30 O 0.56717 1.01803 -0.04793
 O31 O 0.52777 0.95684 0.02668
 O32 O 0.48921 1.00913 -0.06897
 O33 O 0.50169 1.06123 -0.01001
 O34 O 0.54485 1.01103 0.08445
 O35 O 0.58150 1.07213 0.00889
 O36 O 0.46531 1.00194 0.06697
 Cu37 Cu 0.50672 0.97778 -0.02633
 Cu38 Cu 0.52487 1.04191 0.04346
 C39 C 0.43767 0.96338 0.04758
 C40 C 0.59402 1.05735 -0.02963
 C41 C 0.54283 0.97481 0.07181
 C42 C 0.48930 1.04431 -0.05625
 O43 O 1.07000 0.57010 0.48925
 O44 O 1.00094 0.45779 0.55341
 O45 O 1.06756 0.49527 0.48259
 O46 O 1.00639 0.53511 0.56356
 O47 O 0.95242 0.51115 0.50246
 O48 O 1.01561 0.47380 0.41951
 O49 O 0.94927 0.43622 0.48989
 O50 O 1.01649 0.54868 0.42802
 Cu51 Cu 1.04133 0.51666 0.52865
 Cu52 Cu 0.97826 0.49046 0.45366
 C53 C 1.05508 0.57819 0.44716
 C54 C 0.96323 0.42792 0.53242
 C55 C 1.05274 0.47864 0.43684
 C56 C 0.96864 0.52922 0.54734
 O57 O 0.42337 0.48917 0.49579
 O58 O 0.52779 0.53126 0.57618
 O59 O 0.50334 0.56208 0.49746
 O60 O 0.44703 0.45670 0.57550
 O61 O 0.47387 0.42768 0.51852
 O62 O 0.52986 0.53303 0.44008
 O63 O 0.55351 0.50123 0.51910
 O64 O 0.44901 0.45909 0.43874
 Cu65 Cu 0.47257 0.51249 0.54212
 Cu66 Cu 0.50395 0.47711 0.47330
 C67 C 0.41904 0.46816 0.45276
 C68 C 0.55827 0.52312 0.56149
 C69 C 0.52564 0.56535 0.45518
 C70 C 0.45201 0.42470 0.56108
 O71 O 0.47142 0.03461 0.54879
 O72 O 0.50086 -0.04595 0.49632
 O73 O 0.54033 0.02448 0.56114
 O74 O 0.43172 -0.03600 0.48770
 O75 O 0.46722 0.00665 0.41716
 O76 O 0.57552 0.06886 0.49166
 O77 O 0.53772 -0.00027 0.42829
 O78 O 0.50632 0.07877 0.47908
 Cu79 Cu 0.48286 -0.01014 0.53059
 Cu80 Cu 0.52500 0.04309 0.44712
 C81 C 0.48473 0.07090 0.52309
 C82 C 0.52320 -0.03730 0.45258
 C83 C 0.57592 0.05774 0.53969
 C84 C 0.43143 -0.02615 0.43914
 O85 O 0.23690 0.40107 0.28831
 O86 O 0.16264 0.40302 0.18343
 O87 O 0.23932 0.40271 0.18444
 O88 O 0.16012 0.40102 0.28681
 O89 O 0.20136 0.47549 0.28842
 O90 O 0.27868 0.47716 0.18550
 O91 O 0.20321 0.47748 0.18484
 O92 O 0.27674 0.47553 0.28928
 Cu93 Cu 0.19574 0.39441 0.23554
 Cu94 Cu 0.24406 0.48384 0.23704
 C95 C 0.26936 0.43812 0.30682
 C96 C 0.17019 0.44068 0.16659
 C97 C 0.27246 0.44040 0.16754
 C98 C 0.16753 0.43816 0.30510
 O99 O 0.56581 0.82320 0.31487
 O100 O 0.55450 0.74044 0.21511
 O101 O 0.55975 0.81834 0.21149
 O102 O 0.55575 0.74343 0.31882
 O103 O 0.48028 0.71171 0.32410
 O104 O 0.48379 0.78252 0.21472
 O105 O 0.47880 0.70643 0.22017
 O106 O 0.49017 0.79013 0.31831
 Cu107 Cu 0.56661 0.78475 0.26463
 Cu108 Cu 0.47574 0.74433 0.26982
 C109 C 0.53000 0.82083 0.33350
 C110 C 0.51467 0.70933 0.20069
 C111 C 0.52203 0.81255 0.19467
 C112 C 0.51699 0.71507 0.33989
 O113 O 0.16614 0.76955 0.30051
 O114 O 0.23890 0.84449 0.18961
 O115 O 0.16116 0.76597 0.19727
 O116 O 0.23970 0.85130 0.29317
 O117 O 0.28394 0.82278 0.28962
 O118 O 0.20197 0.73380 0.20012
 O119 O 0.27762 0.81011 0.18884
 O120 O 0.21051 0.74130 0.30369
 Cu121 Cu 0.19726 0.81096 0.24514
 Cu122 Cu 0.24740 0.77360 0.24633
 C123 C 0.17618 0.74250 0.32083
 C124 C 0.27055 0.83965 0.17022
 C125 C 0.16802 0.73525 0.18263
 C126 C 0.27612 0.85258 0.30591
 O127 O 0.81427 0.54436 0.69147
 O128 O 0.74790 0.56162 0.79482
 O129 O 0.82327 0.55858 0.79373
 O130 O 0.73799 0.54477 0.69348
 O131 O 0.69846 0.47128 0.70874
 O132 O 0.78180 0.48525 0.80954
 O133 O 0.70740 0.48822 0.81037
 O134 O 0.77332 0.47096 0.70707
 Cu135 Cu 0.78504 0.55978 0.74194
 Cu136 Cu 0.73625 0.47166 0.76083
 C137 C 0.80486 0.50471 0.68148
 C138 C 0.71585 0.52760 0.81964
 C139 C 0.81695 0.52389 0.81841
 C140 C 0.70386 0.50541 0.68398
 O141 O 0.42746 0.25578 0.71029
 O142 O 0.41834 0.18207 0.82179
 O143 O 0.43740 0.26425 0.81319
 O144 O 0.40786 0.17198 0.71852
 O145 O 0.48188 0.19903 0.70498
 O146 O 0.51056 0.28533 0.80686
 O147 O 0.49067 0.20253 0.80718
 O148 O 0.50167 0.28124 0.70286
 Cu149 Cu 0.41523 0.21605 0.76662
 Cu150 Cu 0.50364 0.24469 0.75452
 C151 C 0.46648 0.28152 0.68817
 C152 C 0.45297 0.17935 0.83272
 C153 C 0.47904 0.28975 0.82710
 C154 C 0.43997 0.17012 0.69530
 O155 O 0.76661 0.17183 0.69474
 O156 O 0.84552 0.24809 0.79786
 O157 O 0.76581 0.17237 0.79881
 O158 O 0.84464 0.25150 0.69441
 O159 O 0.80239 0.28215 0.69131
 O160 O 0.73333 0.21262 0.80468
 O161 O 0.81230 0.28772 0.79320
 O162 O 0.72586 0.20385 0.70266
 Cu163 Cu 0.80937 0.20722 0.74596
 Cu164 Cu 0.76472 0.25014 0.74799
 C165 C 0.73154 0.17353 0.68319
 C166 C 0.84331 0.28187 0.81140
 C167 C 0.73648 0.17979 0.81997
 C168 C 0.83665 0.28045 0.67530
 C169 C 0.07382 0.46293 0.07472
 C170 C 0.11908 0.48375 0.06455
 C171 C 0.15093 0.47907 0.09933
 C172 C 0.13923 0.44151 0.12683
 H173 H 0.13447 0.50979 0.03413
 H174 H 0.18548 0.50833 0.10254
 H175 H 0.05882 0.43982 0.10816
 H176 H 0.10602 0.41099 0.12096
 C177 C 0.55649 0.61255 0.10699
 C178 C 0.53399 0.63432 0.10741
 C179 C 0.54194 0.66766 0.14865
 C180 C 0.50920 0.67646 0.16012
 H181 H 0.50702 0.62536 0.07866
 H182 H 0.57382 0.68390 0.17069
 H183 H 0.58075 0.61857 0.13820
 H184 H 0.47640 0.65785 0.14003
 C185 C 0.39240 0.93476 0.07368
 C186 C 0.36548 0.89069 0.06317
 C187 C 0.32687 0.85903 0.09826
 C188 C 0.30113 0.86993 0.12748
 H189 H 0.37612 0.87588 0.03285
 H190 H 0.32079 0.82536 0.10148
 H191 H 0.38380 0.94922 0.10650
 H192 H 0.30425 0.90218 0.12203
 C193 C 0.94319 0.54266 0.58201
 C194 C 0.89727 0.51931 0.58331
 C195 C 0.87211 0.52938 0.62299
 C196 C 0.83024 0.49705 0.63966
 H197 H 0.87811 0.49032 0.55763
 H198 H 0.88895 0.56256 0.64087
 H199 H 0.96232 0.56922 0.61072
 H200 H 0.81503 0.46317 0.62413
 C201 C 0.43428 0.38482 0.59588
 C202 C 0.45294 0.35952 0.59462
 C203 C 0.44225 0.32518 0.63576
 C204 C 0.47209 0.31231 0.64475
 H205 H 0.47982 0.36705 0.56562
 H206 H 0.41190 0.31279 0.66084
 H207 H 0.40957 0.37933 0.62693
 H208 H 0.50360 0.32709 0.62124
 C209 C 0.61740 0.08571 0.57150
 C210 C 0.61390 0.09010 0.62402
 C211 C 0.65184 0.12480 0.65627
 C212 C 0.69625 0.13917 0.64816
 H213 H 0.58036 0.07148 0.64328
 H214 H 0.64214 0.13761 0.68991
 H215 H 0.64976 0.10741 0.55079
 H216 H 0.70633 0.12364 0.61817
 C217 C 0.47768 0.06515 0.90509
 C218 C 0.47324 0.10027 0.91509
 C219 C 0.47035 0.12603 0.87065
 C220 C 0.44990 0.14946 0.87585
 H221 H 0.47389 0.11146 0.95556
 H222 H 0.48626 0.12651 0.83284
 H223 H 0.47356 0.05293 0.86451
 H224 H 0.43082 0.14662 0.91187
 C225 C 0.63595 0.55003 0.94256
 C226 C 0.64861 0.57030 0.89480
 C227 C 0.68376 0.56938 0.86117
 C228 C 0.68704 0.53281 0.85911
 H229 H 0.63108 0.58577 0.87817
 H230 H 0.70287 0.59667 0.83286
 H231 H 0.65513 0.53657 0.95999
 H232 H 0.66464 0.50373 0.88390
 C233 C 0.92581 0.39495 0.92331
 C234 C 0.93192 0.39520 0.87044
 C235 C 0.89762 0.35932 0.83610
 C236 C 0.87782 0.31549 0.84739
 H237 H 0.95905 0.42525 0.85053
 H238 H 0.88983 0.36961 0.79894
 H239 H 0.89594 0.36624 0.94194
 H240 H 0.88876 0.30444 0.88135
 C241 C 0.53029 0.92887 0.42712
 C242 C 0.50157 0.88462 0.43614
 C243 C 0.49960 0.84942 0.40145
 C244 C 0.53518 0.85492 0.37214
 H245 H 0.47420 0.87357 0.46548
 H246 H 0.46684 0.81772 0.39976
 H247 H 0.55513 0.94036 0.39472
 H248 H 0.56897 0.88505 0.37621
 C249 C 0.38022 0.45611 0.41703
 C250 C 0.35694 0.47713 0.42024
 C251 C 0.32452 0.47382 0.37939
 C252 C 0.29909 0.43767 0.34870
 H253 H 0.36584 0.50226 0.45082
 H254 H 0.32103 0.50276 0.37546
 H255 H 0.37443 0.43371 0.38412
 H256 H 0.29938 0.40714 0.35482
 C257 C 0.08316 0.62136 0.41836
 C258 C 0.12829 0.64890 0.42722
 C259 C 0.15924 0.68666 0.39118
 C260 C 0.14628 0.71062 0.36290
 H261 H 0.14453 0.64006 0.45758
 H262 H 0.19419 0.69422 0.38729
 H263 H 0.06734 0.62794 0.38531
 H264 H 0.11250 0.70558 0.36907
 C265 C 0.91859 0.53900 0.93943
 C266 C 0.92882 0.56118 0.89280
 C267 C 0.89383 0.56244 0.85990
 C268 C 0.85044 0.52712 0.85736
 H269 H 0.96352 0.57754 0.87674
 H270 H 0.90550 0.59046 0.83247
 H271 H 0.88458 0.52488 0.95689
 H272 H 0.83996 0.49736 0.88135
 C273 C 0.47074 0.41011 0.91210
 C274 C 0.47973 0.37745 0.91814
 C275 C 0.46593 0.34246 0.87732
 C276 C 0.49135 0.32443 0.86789
 H277 H 0.50005 0.37803 0.95142
 H278 H 0.43601 0.33291 0.85323
 H279 H 0.45366 0.41078 0.87620
 H280 H 0.52312 0.33666 0.88940
 C281 C 0.63922 0.08771 0.94515
 C282 C 0.65486 0.07526 0.90364
 C283 C 0.69447 0.10786 0.87009
 C284 C 0.70416 0.14989 0.86153
 H285 H 0.63692 0.04020 0.89186
 H286 H 0.71184 0.09510 0.84661
 H287 H 0.65855 0.12222 0.95899
 H288 H 0.68400 0.16139 0.88138
 C289 C 0.07800 0.46690 0.40424
 C290 C 0.12048 0.47717 0.41700
 C291 C 0.15081 0.47278 0.37901
 C292 C 0.13620 0.43819 0.34546
 H293 H 0.13619 0.49501 0.45356
 H294 H 0.18698 0.49908 0.37957
 H295 H 0.06405 0.45224 0.36571
 H296 H 0.10106 0.40969 0.34769
 C297 C 0.54492 0.60612 0.42168
 C298 C 0.53117 0.63521 0.42809
 C299 C 0.54190 0.67044 0.38832
 C300 C 0.51331 0.68527 0.38332
 H301 H 0.50742 0.63005 0.46023
 H302 H 0.57017 0.68103 0.36031
 H303 H 0.56667 0.60973 0.38797
 H304 H 0.48318 0.67158 0.40911
 C305 C 0.39200 0.94626 0.40960
 C306 C 0.39208 0.94768 0.35623
 C307 C 0.35496 0.91142 0.32460
 C308 C 0.31045 0.88976 0.33862
 H309 H 0.42303 0.97197 0.33464
 H310 H 0.36494 0.90278 0.28755
 H311 H 0.36220 0.91936 0.43052
 H312 H 0.29906 0.90084 0.37237
 C313 C 0.55663 0.95258 0.11069
 C314 C 0.54365 0.90940 0.10486
 C315 C 0.55062 0.88422 0.14681
 C316 C 0.52136 0.83973 0.15066
 H317 H 0.52375 0.89087 0.07037
 H318 H 0.57694 0.90204 0.17654
 H319 H 0.57417 0.97055 0.14651
 H320 H 0.49270 0.82313 0.12342
 C321 C 0.39461 0.46539 0.07526
 C322 C 0.37109 0.48542 0.06563
 C323 C 0.33306 0.47927 0.10002
 C324 C 0.30496 0.44161 0.12785
 H325 H 0.38389 0.51206 0.03599
 H326 H 0.32880 0.50781 0.10295
 H327 H 0.38420 0.44122 0.10755
 H328 H 0.30635 0.41160 0.12240
 C329 C 0.07069 0.61258 0.09086
 C330 C 0.11605 0.63917 0.08162
 C331 C 0.14752 0.67546 0.11774
 C332 C 0.13575 0.70057 0.14557
 H333 H 0.13183 0.63121 0.04939
 H334 H 0.18234 0.68253 0.11992
 H335 H 0.05518 0.61759 0.12585
 H336 H 0.10229 0.69632 0.14037
 C337 C 0.47866 0.10621 0.54607
 C338 C 0.45275 0.09942 0.58944
 C339 C 0.45816 0.13812 0.61945
 C340 C 0.42875 0.13312 0.65822
 H341 H 0.43059 0.06570 0.60551
 H342 H 0.48864 0.17111 0.61193
 H343 H 0.49951 0.13994 0.52949
 H344 H 0.39698 0.10093 0.66428
 C345 C 0.59890 0.53831 0.59506
 C346 C 0.62263 0.51786 0.59340
 C347 C 0.65971 0.52907 0.63131
 C348 C 0.66988 0.49814 0.64358
 H349 H 0.61233 0.49000 0.56628
 H350 H 0.67662 0.56128 0.65151
 H351 H 0.60710 0.56406 0.62461
 H352 H 0.65021 0.46489 0.62600
 C353 C 0.93355 0.38358 0.55803
 C354 C 0.94554 0.37046 0.60187
 C355 C 0.91275 0.32944 0.63274
 C356 C 0.86766 0.31412 0.63565
 H357 H 0.98023 0.39092 0.61687
 H358 H 0.92700 0.31533 0.65898
 H359 H 0.89984 0.36180 0.54103
 H360 H 0.85400 0.33109 0.61363
   
