data_POSCAR
  _audit_creation_date              2014-09-24
  _audit_creation_method            'ToBaCCo'
  _symmetry_space_group_name_H-M    'P1'
  _symmetry_Int_Tables_number       1
  _symmetry_cell_setting            triclinic
  loop_
  _symmetry_equiv_pos_as_xyz
 x,y,z
_cell_length_a 63.6601
_cell_length_b 63.7233
_cell_length_c 19.3361
_cell_angle_alpha 90.068100
_cell_angle_beta 89.973600
_cell_angle_gamma 119.887700
loop_
  _atom_site_label
  _atom_site_type_symbol
  _atom_site_fract_x
  _atom_site_fract_y
  _atom_site_fract_z
C1 C 0.22437 0.48778 0.46355
 C2 C 0.22232 0.48363 0.53655
 C3 C 0.24010 0.48034 0.57045
 C4 C 0.26110 0.48352 0.53644
 C5 C 0.26330 0.48853 0.46431
 C6 C 0.24547 0.49127 0.42988
 H7 H 0.24727 0.49413 0.37439
 H8 H 0.23856 0.47728 0.62579
 C9 C 0.51544 -0.26169 0.46330
 C10 C 0.51582 -0.26105 0.53696
 C11 C 0.51572 -0.24184 0.57215
 C12 C 0.51543 -0.22260 0.53711
 C13 C 0.51573 -0.22289 0.46345
 C14 C 0.51564 -0.24219 0.42826
 H15 H 0.51559 -0.24184 0.37219
 H16 H 0.51574 -0.24221 0.62822
 C17 C 1.26117 0.77779 0.46303
 C18 C 1.26095 0.77741 0.53683
 C19 C 1.24167 0.75833 0.57212
 C20 C 1.22255 0.73913 0.53678
 C21 C 1.22290 0.73881 0.46365
 C22 C 1.24199 0.75808 0.42806
 H23 H 1.24170 0.75750 0.37203
 H24 H 1.24158 0.75847 0.62823
 C25 C 0.77736 0.51570 0.46497
 C26 C 0.77798 0.51641 0.53862
 C27 C 0.75832 0.51610 0.57367
 C28 C 0.73855 0.51550 0.53858
 C29 C 0.73896 0.51568 0.46491
 C30 C 0.75812 0.51558 0.42978
 H31 H 0.75803 0.51536 0.37363
 H32 H 0.75841 0.51630 0.62966
 C33 C 0.48179 0.26023 0.46425
 C34 C 0.48487 0.26212 0.53737
 C35 C 0.48692 0.24373 0.57223
 C36 C 0.48473 0.22317 0.53780
 C37 C 0.48166 0.22182 0.46467
 C38 C 0.47979 0.24002 0.42966
 H39 H 0.47804 0.23908 0.37374
 H40 H 0.48896 0.24482 0.62793
 C41 C 0.73895 0.22255 0.46380
 C42 C 0.73929 0.22263 0.53695
 C43 C 0.75842 0.24206 0.57204
 C44 C 0.77761 0.26158 0.53658
 C45 C 0.77737 0.26081 0.46279
 C46 C 0.75810 0.24153 0.42798
 H47 H 0.75798 0.24139 0.37187
 H48 H 0.75811 0.24178 0.62808
 N49 N 0.97485 0.51008 -0.12080
 N50 N 0.95728 0.50485 -0.16559
 N51 N 1.02580 0.54975 -0.07184
 N52 N 1.04329 0.57223 -0.08247
 N53 N 1.02576 0.53537 -0.12064
 N54 N 1.04320 0.54764 -0.16576
 N55 N 0.97483 0.52442 -0.07199
 N56 N 0.95723 0.52935 -0.08223
 C57 C 0.94641 0.51692 -0.14065
 C58 C 1.05403 0.57055 -0.14106
 N59 N 1.02565 0.53386 0.12421
 N60 N 1.04360 0.54544 0.16844
 N61 N 0.97472 0.52345 0.07709
 N62 N 0.95662 0.52761 0.08769
 N63 N 0.97469 0.50853 0.12394
 N64 N 0.95659 0.50213 0.16770
 N65 N 1.02573 0.54879 0.07732
 N66 N 1.04377 0.57097 0.08837
 Mn67 Mn 1.00028 0.53686 0.00270
 C68 C 1.05475 0.56854 0.14530
 C69 C 0.94548 0.51414 0.14432
 N70 N 1.02574 0.49018 -0.12349
 N71 N 1.04404 0.49682 -0.16665
 N72 N 0.97468 0.44992 -0.07693
 N73 N 0.95656 0.42776 -0.08774
 N74 N 0.97475 0.46485 -0.12378
 N75 N 0.95671 0.45330 -0.16774
 N76 N 1.02569 0.47527 -0.07661
 N77 N 1.04397 0.47134 -0.08658
 Mn78 Mn 1.00027 0.50011 -0.12293
 C79 C 1.05523 0.48493 -0.14289
 C80 C 0.94552 0.43021 -0.14450
 N81 N 0.97465 0.46333 0.12095
 N82 N 0.95700 0.45108 0.16550
 N83 N 1.02561 0.47432 0.07234
 N84 N 1.04349 0.46975 0.08190
 N85 N 1.02559 0.48865 0.12115
 N86 N 1.04343 0.49425 0.16524
 N87 N 0.97464 0.44899 0.07211
 N88 N 0.95696 0.42656 0.08209
 Mn89 Mn 1.00014 0.49859 0.12332
 Mn90 Mn 1.00015 0.46187 -0.00232
 Cl91 Cl 1.00021 0.49936 0.00019
 C92 C 0.94609 0.42822 0.14038
 C93 C 1.05445 0.48238 0.13995
 N94 N 0.47569 0.45017 0.07438
 N95 N 0.47124 0.42782 0.08433
 N96 N 0.46497 0.49029 0.12339
 N97 N 0.45320 0.49661 0.16724
 N98 N 0.45025 0.47579 0.07552
 N99 N 0.42804 0.47183 0.08547
 N100 N 0.49042 0.46472 0.12217
 N101 N 0.49639 0.45269 0.16595
 C102 C 0.48435 0.42974 0.14153
 C103 C 0.43023 0.48497 0.14283
 N104 N 0.52464 0.55000 0.07548
 N105 N 0.52875 0.57224 0.08575
 N106 N 0.53562 0.50982 0.12217
 N107 N 0.54776 0.50420 0.16666
 N108 N 0.55015 0.52445 0.07428
 N109 N 0.57259 0.52920 0.08485
 N110 N 0.51013 0.53532 0.12333
 N111 N 0.50395 0.54713 0.16742
 Mn112 Mn 0.50028 0.50003 0.12353
 C113 C 0.51567 0.57009 0.14325
 C114 C 0.57075 0.51635 0.14248
 N115 N 0.44996 0.47589 -0.07351
 N116 N 0.42756 0.47131 -0.08382
 N117 N 0.48995 0.46494 -0.12258
 N118 N 0.49588 0.45302 -0.16700
 N119 N 0.47543 0.45032 -0.07465
 N120 N 0.47107 0.42802 -0.08515
 N121 N 0.46451 0.49053 -0.12136
 N122 N 0.45243 0.49632 -0.16554
 Mn123 Mn 0.46258 0.46279 0.00045
 C124 C 0.42945 0.48427 -0.14126
 C125 C 0.48401 0.43005 -0.14284
 N126 N 0.54989 0.52451 -0.07481
 N127 N 0.57211 0.52851 -0.08503
 N128 N 0.50976 0.53561 -0.12149
 N129 N 0.50416 0.54775 -0.16594
 N130 N 0.52447 0.55014 -0.07363
 N131 N 0.52928 0.57257 -0.08419
 N132 N 0.53515 0.50999 -0.12262
 N133 N 0.54689 0.50370 -0.16664
 Mn134 Mn 0.53754 0.53753 0.00033
 Mn135 Mn 0.49984 0.50027 -0.12278
 Cl136 Cl 0.50006 0.50016 0.00037
 C137 C 0.56989 0.51537 -0.14245
 C138 C 0.51639 0.57074 -0.14178
 N139 N 0.44935 -0.02569 0.07327
 N140 N 0.42690 -0.04330 0.08373
 N141 N 0.48926 0.02506 0.12264
 N142 N 0.49515 0.04289 0.16702
 N143 N 0.47479 0.02524 0.07455
 N144 N 0.47043 0.04320 0.08487
 N145 N 0.46386 -0.02585 0.12127
 N146 N 0.45170 -0.04355 0.16570
 C147 C 0.42872 -0.05432 0.14140
 C148 C 0.48331 0.05405 0.14266
 N149 N 0.54929 0.02526 0.07557
 N150 N 0.57154 0.04323 0.08648
 N151 N 0.50914 -0.02584 0.12185
 N152 N 0.50351 -0.04358 0.16626
 N153 N 0.52392 -0.02567 0.07416
 N154 N 0.52875 -0.04329 0.08479
 N155 N 0.53447 0.02505 0.12323
 N156 N 0.54620 0.04283 0.16783
 Mn157 Mn 0.49917 -0.00041 0.12301
 C158 C 0.56925 0.05403 0.14413
 C159 C 0.51580 -0.05434 0.14225
 N160 N 0.47521 0.02569 -0.07449
 N161 N 0.47075 0.04360 -0.08459
 N162 N 0.46458 -0.02508 -0.12347
 N163 N 0.45288 -0.04308 -0.16748
 N164 N 0.44981 -0.02526 -0.07578
 N165 N 0.42761 -0.04340 -0.08601
 N166 N 0.48999 0.02583 -0.12211
 N167 N 0.49601 0.04381 -0.16590
 Mn168 Mn 0.46204 -0.00000 -0.00063
 C169 C 0.48392 0.05475 -0.14168
 C170 C 0.42987 -0.05433 -0.14335
 N171 N 0.52426 -0.02530 -0.07495
 N172 N 0.52841 -0.04342 -0.08515
 N173 N 0.53521 0.02578 -0.12165
 N174 N 0.54739 0.04338 -0.16638
 N175 N 0.54972 0.02565 -0.07362
 N176 N 0.57219 0.04316 -0.08436
 N177 N 0.50977 -0.02510 -0.12292
 N178 N 0.50365 -0.04303 -0.16704
 Mn179 Mn 0.53705 -0.00001 0.00030
 Mn180 Mn 0.49989 0.00037 -0.12329
 Cl181 Cl 0.49954 -0.00001 -0.00014
 C182 C 0.51538 -0.05430 -0.14274
 C183 C 0.57038 0.05410 -0.14222
 N184 N 1.16385 0.47116 0.40301
 C185 C 1.16872 0.48280 0.34151
 N186 N 1.19200 0.49563 0.31974
 N187 N 1.20991 0.49709 0.35894
 C188 C 1.20528 0.48614 0.42195
 N189 N 1.18176 0.47265 0.44211
 C190 C 1.14950 0.48245 0.30186
 C191 C 1.13312 0.48246 0.27063
 C192 C 1.11337 0.48277 0.23587
 N193 N 1.10387 0.46984 0.17705
 N194 N 1.08516 0.46982 0.14603
 C195 C 1.07534 0.48271 0.17290
 N196 N 1.08493 0.49566 0.23167
 N197 N 1.10362 0.49569 0.26264
 N198 N 0.51654 0.70295 0.31627
 C199 C 0.51302 0.68241 0.34732
 N200 N 0.50996 0.68023 0.41672
 N201 N 0.51061 0.69812 0.45398
 C202 C 0.51447 0.71901 0.42379
 N203 N 0.51717 0.72083 0.35374
 C204 C 0.51296 0.66331 0.30774
 C205 C 0.51304 0.64703 0.27613
 C206 C 0.51320 0.62734 0.24055
 N207 N 0.52665 0.63131 0.18250
 N208 N 0.52733 0.61304 0.15098
 C209 C 0.51461 0.59021 0.17661
 N210 N 0.50113 0.58630 0.23461
 N211 N 0.50045 0.60455 0.26607
 N212 N 0.31321 -0.16394 0.41604
 C213 C 0.31442 -0.16643 0.34688
 N214 N 0.29775 -0.18723 0.31606
 N215 N 0.28056 -0.20506 0.35356
 C216 C 0.27939 -0.20295 0.42341
 N217 N 0.29601 -0.18179 0.45333
 C218 C 0.33356 -0.14748 0.30742
 C219 C 0.35006 -0.13139 0.27589
 C220 C 0.37016 -0.11205 0.24027
 N221 N 0.39290 -0.10270 0.26596
 N222 N 0.41159 -0.08441 0.23403
 C223 C 0.40816 -0.07484 0.17534
 N224 N 0.38538 -0.08426 0.14955
 N225 N 0.36667 -0.10257 0.18153
 N226 N 0.81615 0.49393 0.38858
 C227 C 0.83022 0.51224 0.34483
 N228 N 0.82660 0.53142 0.33950
 N229 N 0.80959 0.53239 0.37728
 C230 C 0.79578 0.51429 0.42204
 N231 N 0.79913 0.49488 0.42638
 C232 C 0.84935 0.51180 0.30679
 C233 C 0.86577 0.51167 0.27604
 C234 C 0.88568 0.51176 0.24091
 N235 N 0.89539 0.52545 0.18351
 N236 N 0.91438 0.52609 0.15228
 C237 C 0.92427 0.51308 0.17754
 N238 N 0.91447 0.49935 0.23490
 N239 N 0.89549 0.49871 0.26610
 N240 N 0.50297 0.32010 0.38493
 C241 C 0.48431 0.31565 0.34223
 N242 N 0.46501 0.29291 0.33855
 N243 N 0.46429 0.27521 0.37696
 C244 C 0.48274 0.27973 0.42077
 N245 N 0.50225 0.30241 0.42334
 C246 C 0.48461 0.33501 0.30360
 C247 C 0.48488 0.35156 0.27270
 C248 C 0.48521 0.37158 0.23776
 N249 N 0.47192 0.36800 0.17963
 N250 N 0.47177 0.38658 0.14849
 C251 C 0.48489 0.40933 0.17456
 N252 N 0.49822 0.41285 0.23264
 N253 N 0.49837 0.39428 0.26374
 N254 N 0.67731 0.17745 0.40574
 C255 C 0.68203 0.16836 0.34815
 N256 N 0.70533 0.17721 0.32801
 N257 N 0.72339 0.19451 0.36469
 C258 C 0.71878 0.20342 0.42306
 N259 N 0.69537 0.19475 0.44240
 C260 C 0.66261 0.14917 0.31000
 C261 C 0.64620 0.13280 0.27891
 C262 C 0.62649 0.11305 0.24320
 N263 N 0.63053 0.10375 0.18486
 N264 N 0.61225 0.08500 0.15283
 C265 C 0.58937 0.07496 0.17820
 N266 N 0.58539 0.08435 0.23650
 N267 N 0.60365 0.10308 0.26849
 N268 N 0.47694 0.16449 -0.41224
 C269 C 0.48395 0.16836 -0.34519
 N270 N 0.49105 0.19033 -0.31673
 N271 N 0.49127 0.20793 -0.35450
 C272 C 0.48462 0.20438 -0.42237
 N273 N 0.47718 0.18210 -0.44981
 C274 C 0.48420 0.14946 -0.30556
 C275 C 0.48445 0.13327 -0.27405
 C276 C 0.48481 0.11367 -0.23865
 N277 N 0.47142 0.10402 -0.18066
 N278 N 0.47128 0.08533 -0.14925
 C279 C 0.48448 0.07569 -0.17490
 N280 N 0.49790 0.08543 -0.23283
 N281 N 0.49805 0.10410 -0.26419
 N282 N 0.70319 0.51686 -0.31468
 C283 C 0.68232 0.51254 -0.34560
 N284 N 0.67992 0.50882 -0.41476
 N285 N 0.69792 0.50963 -0.45193
 C286 C 0.71914 0.51433 -0.42190
 N287 N 0.72117 0.51766 -0.35206
 C288 C 0.66315 0.51241 -0.30621
 C289 C 0.64682 0.51248 -0.27476
 C290 C 0.62711 0.51267 -0.23931
 N291 N 0.60431 0.49997 -0.26497
 N292 N 0.58605 0.50071 -0.23365
 C293 C 0.58999 0.51421 -0.17568
 N294 N 0.61283 0.52688 -0.14991
 N295 N 0.63111 0.52613 -0.18129
 N296 N 0.81399 0.29742 -0.31711
 C297 C 0.83072 0.31802 -0.34850
 N298 N 0.82966 0.32008 -0.41789
 N299 N 0.81252 0.30200 -0.45481
 C300 C 0.79581 0.28105 -0.42427
 N301 N 0.79685 0.27936 -0.35423
 C302 C 0.84970 0.33726 -0.30931
 C303 C 0.86601 0.35360 -0.27786
 C304 C 0.88583 0.37325 -0.24218
 N305 N 0.89543 0.36912 -0.18469
 N306 N 0.91436 0.38732 -0.15308
 C307 C 0.92433 0.41022 -0.17805
 N308 N 0.91465 0.41430 -0.23549
 N309 N 0.89572 0.39611 -0.26706
 N310 N 0.50986 -0.17003 -0.41622
 C311 C 0.51299 -0.16912 -0.34685
 N312 N 0.51660 -0.18611 -0.31584
 N313 N 0.51724 -0.20335 -0.35333
 C314 C 0.51446 -0.20426 -0.42336
 N315 N 0.51051 -0.18727 -0.45350
 C316 C 0.51291 -0.15010 -0.30724
 C317 C 0.51297 -0.13376 -0.27562
 C318 C 0.51308 -0.11392 -0.24004
 N319 N 0.52649 -0.10452 -0.18191
 N320 N 0.52711 -0.08559 -0.15038
 C321 C 0.51439 -0.07545 -0.17610
 N322 N 0.50096 -0.08494 -0.23419
 N323 N 0.50033 -0.10385 -0.26565
 N324 N 0.31999 0.49206 -0.41209
 C325 C 0.31562 0.48360 -0.34646
 N326 N 0.29317 0.47510 -0.31954
 N327 N 0.27561 0.47498 -0.35742
 C328 C 0.27971 0.48317 -0.42389
 N329 N 0.30243 0.49192 -0.44978
 C330 C 0.33463 0.48365 -0.30650
 C331 C 0.35107 0.48390 -0.27480
 C332 C 0.37110 0.48441 -0.23925
 N333 N 0.36753 0.47128 -0.18083
 N334 N 0.38617 0.47137 -0.14912
 C335 C 0.40896 0.48457 -0.17488
 N336 N 0.41247 0.49772 -0.23324
 N337 N 0.39385 0.49764 -0.26490
 N338 N 1.18926 0.69435 -0.32616
 C339 C 1.16592 0.68512 -0.34652
 N340 N 1.16106 0.69381 -0.40465
 N341 N 1.17902 0.71108 -0.44160
 C342 C 1.20247 0.72012 -0.42201
 N343 N 1.20721 0.71162 -0.36311
 C344 C 1.14666 0.66582 -0.30834
 C345 C 1.13046 0.64927 -0.27724
 C346 C 1.11113 0.62919 -0.24155
 N347 N 1.10164 0.60650 -0.26762
 N348 N 1.08352 0.58780 -0.23521
 C349 C 1.07431 0.59116 -0.17561
 N350 N 1.08387 0.61390 -0.14947
 N351 N 1.10200 0.63261 -0.18192
 N352 N 0.83659 0.52308 -0.41484
 C353 C 0.83428 0.51964 -0.34559
 N354 N 0.81351 0.51557 -0.31456
 N355 N 0.79552 0.51474 -0.35192
 C356 C 0.79744 0.51775 -0.42186
 N357 N 0.81858 0.52223 -0.45199
 C358 C 0.85333 0.51953 -0.30630
 C359 C 0.86947 0.51910 -0.27490
 C360 C 0.88883 0.51826 -0.23945
 N361 N 0.89811 0.53087 -0.18004
 N362 N 0.91639 0.53033 -0.14810
 C363 C 0.92596 0.51717 -0.17460
 N364 N 0.91659 0.50454 -0.23397
 N365 N 0.89832 0.50508 -0.26586
 N366 N 0.47736 0.31332 -0.41376
 C367 C 0.48435 0.31656 -0.34670
 N368 N 0.49135 0.30166 -0.31787
 N369 N 0.49150 0.28416 -0.35531
 C370 C 0.48486 0.28094 -0.42319
 N371 N 0.47753 0.29583 -0.45101
 C372 C 0.48461 0.33578 -0.30735
 C373 C 0.48483 0.35225 -0.27595
 C374 C 0.48510 0.37217 -0.24051
 N375 N 0.47194 0.36849 -0.18202
 N376 N 0.47172 0.38698 -0.15045
 C377 C 0.48463 0.40974 -0.17642
 N378 N 0.49782 0.41337 -0.23486
 N379 N 0.49804 0.39489 -0.26640
 N380 N 0.69442 0.16128 -0.40293
 C381 C 0.68517 0.16624 -0.34610
 N382 N 0.69394 0.18961 -0.32695
 N383 N 0.71128 0.20750 -0.36388
 C384 C 0.72033 0.20265 -0.42153
 N385 N 0.71176 0.17917 -0.43985
 C386 C 0.66577 0.14702 -0.30813
 C387 C 0.64915 0.13083 -0.27726
 C388 C 0.62902 0.11147 -0.24182
 N389 N 0.60629 0.10215 -0.26756
 N390 N 0.58757 0.08395 -0.23544
 C391 C 0.59097 0.07448 -0.17649
 N392 N 0.61374 0.08387 -0.15069
 N393 N 0.63247 0.10208 -0.18285
 N394 N 1.18165 0.47528 -0.32037
 C395 C 1.17115 0.48808 -0.34222
 N396 N 1.17804 0.49985 -0.40348
 N397 N 1.19461 0.49852 -0.44230
 C398 C 1.20470 0.48506 -0.42209
 N399 N 1.19825 0.47397 -0.35929
 C400 C 1.15219 0.48833 -0.30281
 C401 C 1.13577 0.48834 -0.27173
 C402 C 1.11576 0.48814 -0.23696
 N403 N 1.10586 0.47428 -0.17996
 N404 N 1.08665 0.47340 -0.14949
 C405 C 1.07670 0.48631 -0.17519
 N406 N 1.08670 0.50021 -0.23213
 N407 N 1.10590 0.50108 -0.26256
 N408 N 0.49842 0.68874 -0.34041
 C409 C 0.51789 0.68548 -0.34297
 N410 N 0.53695 0.70013 -0.38381
 N411 N 0.53645 0.71737 -0.42151
 C412 C 0.51678 0.72038 -0.41994
 N413 N 0.49791 0.70598 -0.37809
 C414 C 0.51786 0.66611 -0.30520
 C415 C 0.51757 0.64948 -0.27469
 C416 C 0.51700 0.62935 -0.23978
 N417 N 0.52998 0.63275 -0.18111
 N418 N 0.52967 0.61402 -0.14949
 C419 C 0.51637 0.59130 -0.17556
 N420 N 0.50336 0.58795 -0.23421
 N421 N 0.50367 0.60667 -0.26579
 N422 N 0.29413 -0.17313 -0.33832
 C423 C 0.31688 -0.16969 -0.34282
 N424 N 0.32121 -0.18394 -0.38581
 N425 N 0.30335 -0.20097 -0.42369
 C426 C 0.28064 -0.20415 -0.42020
 N427 N 0.27626 -0.19015 -0.37618
 C428 C 0.33635 -0.15054 -0.30481
 C429 C 0.35283 -0.13410 -0.27418
 C430 C 0.37260 -0.11418 -0.23930
 N431 N 0.39535 -0.10416 -0.26533
 N432 N 0.41365 -0.08517 -0.23435
 C433 C 0.40978 -0.07554 -0.17637
 N434 N 0.38699 -0.08563 -0.15027
 N435 N 0.36869 -0.10464 -0.18129
 N436 N 0.53666 -0.16309 0.38412
 C437 C 0.51754 -0.16747 0.34346
 N438 N 0.49810 -0.19013 0.34104
 N439 N 0.49767 -0.20784 0.37868
 C440 C 0.51660 -0.20340 0.42035
 N441 N 0.53625 -0.18079 0.42179
 C442 C 0.51743 -0.14815 0.30572
 C443 C 0.51709 -0.13184 0.27521
 C444 C 0.51648 -0.11230 0.24029
 N445 N 0.52951 -0.10273 0.18172
 N446 N 0.52917 -0.08432 0.15010
 C447 C 0.51580 -0.07491 0.17604
 N448 N 0.50274 -0.08457 0.23458
 N449 N 0.50307 -0.10296 0.26617
 N450 N 0.30290 0.46864 0.38316
 C451 C 0.31727 0.48779 0.34240
 N452 N 0.31370 0.50707 0.34066
 N453 N 0.29641 0.50727 0.37908
 C454 C 0.28230 0.48829 0.42097
 N455 N 0.28563 0.46883 0.42157
 C456 C 0.33658 0.48794 0.30373
 C457 C 0.35302 0.48791 0.27289
 C458 C 0.37282 0.48773 0.23810
 N459 N 0.39555 0.50037 0.26434
 N460 N 0.41388 0.49962 0.23356
 C461 C 0.41009 0.48616 0.17559
 N462 N 0.38733 0.47355 0.14926
 N463 N 0.36898 0.47430 0.18008
 N464 N 1.17861 0.67695 0.40542
 C465 C 1.16933 0.68143 0.34789
 N466 N 1.17785 0.70466 0.32773
 N467 N 1.19500 0.72287 0.36434
 C468 C 1.20408 0.71849 0.42267
 N469 N 1.19576 0.69516 0.44202
 C470 C 1.15021 0.66186 0.31005
 C471 C 1.13385 0.64537 0.27919
 C472 C 1.11407 0.62566 0.24364
 N473 N 1.10454 0.62972 0.18589
 N474 N 1.08571 0.61146 0.15410
 C475 C 1.07579 0.58858 0.17913
 N476 N 1.08541 0.58457 0.23685
 N477 N 1.10423 0.60281 0.26861
 N478 N 0.46465 0.17210 0.33973
 C479 C 0.48388 0.16847 0.34365
 N480 N 0.50256 0.18262 0.38629
 N481 N 0.50193 0.19973 0.42441
 C482 C 0.48250 0.20310 0.42160
 N483 N 0.46402 0.18922 0.37785
 C484 C 0.48409 0.14931 0.30525
 C485 C 0.48426 0.13294 0.27446
 C486 C 0.48446 0.11317 0.23950
 N487 N 0.49732 0.10330 0.26579
 N488 N 0.49707 0.08454 0.23455
 C489 C 0.48393 0.07501 0.17602
 N490 N 0.47111 0.08495 0.14966
 N491 N 0.47136 0.10372 0.18093
 N492 N 0.69967 0.53649 0.38694
 C493 C 0.68547 0.51775 0.34453
 N494 N 0.68917 0.49859 0.34056
 N495 N 0.70639 0.49807 0.37839
 C496 C 0.72034 0.51661 0.42183
 N497 N 0.71690 0.53599 0.42479
 C498 C 0.66610 0.51771 0.30653
 C499 C 0.64948 0.51743 0.27584
 C500 C 0.62936 0.51687 0.24078
 N501 N 0.63279 0.52981 0.18206
 N502 N 0.61406 0.52953 0.15034
 C503 C 0.59131 0.51630 0.17633
 N504 N 0.58794 0.50332 0.23501
 N505 N 0.60665 0.50361 0.26670
 N506 N 0.81005 0.31010 0.33743
 C507 C 0.83286 0.31366 0.34143
 N508 N 0.83738 0.29952 0.38421
 N509 N 0.81966 0.28248 0.42236
 C510 C 0.79690 0.27919 0.41936
 N511 N 0.79233 0.29307 0.37556
 C512 C 0.85220 0.33289 0.30333
 C513 C 0.86853 0.34944 0.27268
 C514 C 0.88809 0.36956 0.23788
 N515 N 0.89746 0.36624 0.17858
 N516 N 0.91588 0.38498 0.14709
 C517 C 0.92552 0.40762 0.17394
 N518 N 0.91607 0.41088 0.23321
 N519 N 0.89766 0.39216 0.26465
   
