data_POSCAR
  _audit_creation_date              2014-09-24
  _audit_creation_method            'ToBaCCo'
  _symmetry_space_group_name_H-M    'P1'
  _symmetry_Int_Tables_number       1
  _symmetry_cell_setting            triclinic
  loop_
  _symmetry_equiv_pos_as_xyz
 x,y,z
_cell_length_a 57.7356
_cell_length_b 57.7612
_cell_length_c 23.2369
_cell_angle_alpha 89.979100
_cell_angle_beta 89.920700
_cell_angle_gamma 120.004900
loop_
  _atom_site_label
  _atom_site_type_symbol
  _atom_site_fract_x
  _atom_site_fract_y
  _atom_site_fract_z
C1 C 0.17280 0.47153 0.49301
 C2 C 0.18703 0.47464 0.44226
 C3 C 0.21140 0.47484 0.44403
 C4 C 0.22118 0.47045 0.49638
 C5 C 0.20597 0.46662 0.54694
 C6 C 0.18239 0.46791 0.54536
 C7 C 0.24700 0.46995 0.49828
 C8 C 0.26147 0.47458 0.55028
 C9 C 0.28523 0.47361 0.55184
 C10 C 0.29564 0.46941 0.50129
 C11 C 0.28213 0.46548 0.44934
 C12 C 0.25766 0.46499 0.44795
 H13 H 0.15424 0.47203 0.49178
 H14 H 0.22255 0.47868 0.40438
 H15 H 0.21211 0.46254 0.58783
 H16 H 0.25476 0.47922 0.58978
 H17 H 0.31441 0.46936 0.50232
 H18 H 0.24724 0.46066 0.40732
 C19 C 0.52509 -0.30043 0.50328
 C20 C 0.52897 -0.28679 0.45136
 C21 C 0.53021 -0.26192 0.45068
 C22 C 0.52611 -0.25101 0.50170
 C23 C 0.52147 -0.26562 0.55345
 C24 C 0.52168 -0.28975 0.55434
 C25 C 0.52641 -0.22482 0.50098
 C26 C 0.53137 -0.20948 0.55177
 C27 C 0.53060 -0.18562 0.55125
 C28 C 0.52634 -0.17595 0.49970
 C29 C 0.52213 -0.19033 0.44884
 C30 C 0.52147 -0.21488 0.44956
 H31 H 0.52463 -0.31946 0.50394
 H32 H 0.53448 -0.25131 0.41021
 H33 H 0.51743 -0.25864 0.59332
 H34 H 0.53591 -0.21571 0.59202
 H35 H 0.52621 -0.15724 0.49920
 H36 H 0.51684 -0.22604 0.40984
 C37 C 1.29835 0.82658 0.49985
 C38 C 1.28427 0.81666 0.44853
 C39 C 1.25954 0.79285 0.44879
 C40 C 1.24924 0.77786 0.50011
 C41 C 1.26427 0.78804 0.55119
 C42 C 1.28826 0.81250 0.55115
 C43 C 1.22326 0.75176 0.50030
 C44 C 1.20827 0.74137 0.55160
 C45 C 1.18458 0.71654 0.55185
 C46 C 1.17478 0.70242 0.50052
 C47 C 1.18885 0.71259 0.44923
 C48 C 1.21321 0.73669 0.44921
 H49 H 1.31729 0.84524 0.49993
 H50 H 1.24857 0.78633 0.40882
 H51 H 1.25779 0.77710 0.59126
 H52 H 1.21470 0.75236 0.59158
 H53 H 1.15619 0.68341 0.50041
 H54 H 1.22415 0.74324 0.40914
 C55 C 0.82621 0.52989 0.49910
 C56 C 0.81181 0.52575 0.44832
 C57 C 0.78726 0.52514 0.44931
 C58 C 0.77736 0.53004 0.50093
 C59 C 0.79275 0.53493 0.55156
 C60 C 0.81658 0.53412 0.55077
 C61 C 0.75121 0.52985 0.50205
 C62 C 0.73669 0.52535 0.55399
 C63 C 0.71261 0.52571 0.55509
 C64 C 0.70193 0.52913 0.50409
 C65 C 0.71549 0.53288 0.45214
 C66 C 0.74026 0.53396 0.45119
 H67 H 0.84491 0.52971 0.49846
 H68 H 0.77607 0.52056 0.40965
 H69 H 0.78657 0.53944 0.59194
 H70 H 0.74369 0.52130 0.59379
 H71 H 0.68295 0.52877 0.50468
 H72 H 0.75071 0.53809 0.41054
 C73 C 0.47315 0.29824 0.50388
 C74 C 0.46912 0.28457 0.45210
 C75 C 0.46849 0.26003 0.45112
 C76 C 0.47340 0.24946 0.50166
 C77 C 0.47812 0.26408 0.55343
 C78 C 0.47728 0.28791 0.55465
 C79 C 0.47380 0.22360 0.50023
 C80 C 0.46990 0.20847 0.55096
 C81 C 0.47110 0.18483 0.54960
 C82 C 0.47473 0.17517 0.49732
 C83 C 0.47792 0.18936 0.44656
 C84 C 0.47820 0.21371 0.44806
 H85 H 0.47316 0.31705 0.50450
 H86 H 0.46409 0.24948 0.41064
 H87 H 0.48272 0.25738 0.59299
 H88 H 0.46580 0.21469 0.59175
 H89 H 0.47514 0.15659 0.49603
 H90 H 0.48207 0.22473 0.40825
 C91 C 0.70334 0.17432 0.50230
 C92 C 0.71328 0.18836 0.45091
 C93 C 0.73716 0.21296 0.45076
 C94 C 0.75220 0.22327 0.50185
 C95 C 0.74202 0.20830 0.55317
 C96 C 0.71744 0.18439 0.55348
 C97 C 0.77811 0.24944 0.50166
 C98 C 0.78823 0.26455 0.55274
 C99 C 0.81262 0.28870 0.55255
 C100 C 0.82658 0.29880 0.50105
 C101 C 0.81667 0.28460 0.44992
 C102 C 0.79302 0.25980 0.45031
 H103 H 0.68451 0.15557 0.50251
 H104 H 0.74355 0.22386 0.41065
 H105 H 0.75292 0.21487 0.59318
 H106 H 0.77729 0.25796 0.59282
 H107 H 0.84516 0.31781 0.50060
 H108 H 0.78660 0.24885 0.41032
 N109 N 0.97222 0.52728 0.06392
 N110 N 0.95289 0.53265 0.07459
 N111 N 1.02826 0.53842 0.10286
 N112 N 1.04753 0.55097 0.14081
 N113 N 1.02857 0.55523 0.06437
 N114 N 1.04812 0.57977 0.07514
 N115 N 0.97205 0.51049 0.10228
 N116 N 0.95267 0.50395 0.14004
 C117 C 0.94082 0.51773 0.12187
 C118 C 1.05980 0.57662 0.12264
 N119 N 1.02827 0.47294 0.05883
 N120 N 1.04758 0.46738 0.06792
 N121 N 0.97190 0.46061 0.09911
 N122 N 0.95385 0.44662 0.13871
 N123 N 0.97196 0.44487 0.05840
 N124 N 0.95394 0.41970 0.06928
 N125 N 1.02808 0.48864 0.09948
 N126 N 1.04719 0.49423 0.13724
 Mn127 Mn 1.00005 0.49954 0.10144
 C128 C 1.05925 0.48104 0.11673
 C129 C 0.94260 0.42127 0.11900
 N130 N 1.02891 0.55697 -0.05983
 N131 N 1.04694 0.58214 -0.07081
 N132 N 0.97277 0.51339 -0.10104
 N133 N 0.95492 0.50952 -0.14084
 N134 N 0.97271 0.52910 -0.06025
 N135 N 0.95480 0.53638 -0.07129
 N136 N 1.02896 0.54120 -0.10053
 N137 N 1.04700 0.55518 -0.14017
 Mn138 Mn 1.00061 0.54241 0.00214
 C139 C 1.05826 0.58054 -0.12054
 C140 C 0.94367 0.52364 -0.12120
 N141 N 0.97217 0.44656 -0.06578
 N142 N 0.95275 0.42198 -0.07679
 N143 N 1.02864 0.49111 -0.10395
 N144 N 1.04670 0.49590 -0.14408
 N145 N 1.02842 0.47436 -0.06537
 N146 N 1.04632 0.46730 -0.07825
 N147 N 0.97244 0.46337 -0.10423
 N148 N 0.95325 0.45077 -0.14236
 Mn149 Mn 1.00021 0.45942 -0.00352
 Mn150 Mn 1.00072 0.50226 -0.10294
 Cl151 Cl 1.00040 0.50091 -0.00077
 C152 C 0.94108 0.42510 -0.12435
 C153 C 1.05776 0.48124 -0.12687
 N154 N 0.53797 0.51041 0.10095
 N155 N 0.55150 0.50602 0.14102
 N156 N 0.52563 0.55442 0.06151
 N157 N 0.53250 0.57937 0.07401
 N158 N 0.50933 0.53796 0.10084
 N159 N 0.50466 0.55125 0.14106
 N160 N 0.55424 0.52686 0.06158
 N161 N 0.57931 0.53413 0.07387
 C162 C 0.57713 0.52062 0.12301
 C163 C 0.51890 0.57692 0.12320
 N164 N 0.51006 0.53849 -0.10262
 N165 N 0.50369 0.55153 -0.14009
 N166 N 0.55471 0.52712 -0.06265
 N167 N 0.57958 0.53272 -0.07207
 N168 N 0.53868 0.51096 -0.10250
 N169 N 0.55210 0.50508 -0.14005
 N170 N 0.52597 0.55475 -0.06274
 N171 N 0.53091 0.57939 -0.07206
 Mn172 Mn 0.54041 0.54106 -0.00063
 C173 C 0.51666 0.57686 -0.12018
 C174 C 0.57744 0.51860 -0.12022
 N175 N 0.45965 0.48765 0.09968
 N176 N 0.44576 0.49173 0.13948
 N177 N 0.47232 0.44393 0.05991
 N178 N 0.46538 0.41891 0.07180
 N179 N 0.48828 0.46012 0.09989
 N180 N 0.49263 0.44656 0.13997
 N181 N 0.44373 0.47148 0.05966
 N182 N 0.41855 0.46410 0.07122
 Mn183 Mn 0.49880 0.49903 0.10084
 C184 C 0.42030 0.47725 0.12059
 C185 C 0.47857 0.42103 0.12133
 N186 N 0.48929 0.46094 -0.10356
 N187 N 0.49587 0.44812 -0.14122
 N188 N 0.44428 0.47205 -0.06455
 N189 N 0.41948 0.46647 -0.07474
 N190 N 0.46064 0.48849 -0.10376
 N191 N 0.44753 0.49458 -0.14163
 N192 N 0.47303 0.44442 -0.06433
 N193 N 0.46806 0.41981 -0.07427
 Mn194 Mn 0.49967 0.49973 -0.10363
 Mn195 Mn 0.45808 0.45770 -0.00238
 Cl196 Cl 0.49924 0.49938 -0.00136
 C197 C 0.48267 0.42263 -0.12209
 C198 C 0.42201 0.48089 -0.12267
 N199 N 0.44431 -0.02811 0.06047
 N200 N 0.41905 -0.04594 0.07129
 N201 N 0.48851 0.02772 0.10196
 N202 N 0.49450 0.04698 0.13957
 N203 N 0.47295 0.02818 0.06133
 N204 N 0.46789 0.04783 0.07026
 N205 N 0.45993 -0.02843 0.10111
 N206 N 0.44578 -0.04648 0.14058
 C207 C 0.42045 -0.05745 0.12090
 C208 C 0.48168 0.05940 0.11899
 N209 N 0.55476 0.02742 0.06686
 N210 N 0.57940 0.04671 0.07790
 N211 N 0.50950 -0.02892 0.10412
 N212 N 0.50258 -0.04851 0.14145
 N213 N 0.52621 -0.02891 0.06569
 N214 N 0.53114 -0.04855 0.07589
 N215 N 0.53800 0.02726 0.10534
 N216 N 0.55069 0.04638 0.14355
 Mn217 Mn 0.49899 -0.00061 0.10364
 C218 C 0.57637 0.05840 0.12557
 C219 C 0.51604 -0.06063 0.12295
 N220 N 0.47448 0.02858 -0.06285
 N221 N 0.46770 0.04669 -0.07557
 N222 N 0.46293 -0.02749 -0.10225
 N223 N 0.45025 -0.04670 -0.14029
 N224 N 0.44616 -0.02765 -0.06374
 N225 N 0.42154 -0.04701 -0.07461
 N226 N 0.49121 0.02869 -0.10140
 N227 N 0.49625 0.04687 -0.14135
 Mn228 Mn 0.45921 0.00025 -0.00124
 C229 C 0.48178 0.05814 -0.12409
 C230 C 0.42458 -0.05875 -0.12217
 N231 N 0.52819 -0.02820 -0.05850
 N232 N 0.53519 -0.04629 -0.06984
 N233 N 0.54100 0.02834 -0.09799
 N234 N 0.55517 0.04650 -0.13725
 N235 N 0.55661 0.02798 -0.05732
 N236 N 0.58185 0.04590 -0.06789
 N237 N 0.51262 -0.02782 -0.09923
 N238 N 0.50858 -0.04564 -0.13928
 Mn239 Mn 0.54171 -0.00043 0.00427
 Mn240 Mn 0.50194 0.00045 -0.10073
 Cl241 Cl 0.50046 -0.00009 0.00144
 C242 C 0.52244 -0.05720 -0.11989
 C243 C 0.58047 0.05749 -0.11738
 C244 C 1.17658 0.47689 0.39139
 C245 C 1.16590 0.47821 0.34792
 C246 C 1.15143 0.47912 0.29834
 C247 C 1.13272 0.45528 0.27156
 C248 C 1.11588 0.45565 0.22879
 C249 C 1.11768 0.47987 0.21258
 C250 C 1.13703 0.50381 0.23793
 C251 C 1.15387 0.50344 0.28073
 C252 C 1.09787 0.47989 0.17503
 C253 C 1.08055 0.48018 0.14662
 H254 H 1.13046 0.43633 0.28527
 H255 H 1.10080 0.43699 0.20998
 H256 H 1.13841 0.52262 0.22622
 H257 H 1.16805 0.52195 0.30155
 C258 C 0.53053 0.70151 0.40165
 C259 C 0.53100 0.68971 0.35923
 C260 C 0.53056 0.67395 0.31078
 C261 C 0.50722 0.65998 0.27796
 C262 C 0.50551 0.64197 0.23561
 C263 C 0.52713 0.63784 0.22590
 C264 C 0.55075 0.65239 0.25757
 C265 C 0.55246 0.67039 0.29993
 C266 C 0.52433 0.61714 0.18713
 C267 C 0.52185 0.59911 0.15677
 H268 H 0.49006 0.66235 0.28639
 H269 H 0.48707 0.63068 0.21175
 H270 H 0.56752 0.64920 0.25077
 H271 H 0.57050 0.68085 0.32544
 C272 C 0.29547 -0.17014 0.39842
 C273 C 0.30688 -0.15792 0.35557
 C274 C 0.32228 -0.14266 0.30661
 C275 C 0.32654 -0.11686 0.29718
 C276 C 0.34447 -0.10061 0.25456
 C277 C 0.35823 -0.11007 0.22121
 C278 C 0.35332 -0.13618 0.22941
 C279 C 0.33539 -0.15244 0.27201
 C280 C 0.37920 -0.09218 0.18281
 C281 C 0.39761 -0.07664 0.15313
 H282 H 0.31676 -0.10897 0.32408
 H283 H 0.34829 -0.08037 0.24900
 H284 H 0.36404 -0.14363 0.20429
 H285 H 0.33249 -0.17224 0.27934
 C286 C 0.82288 0.52266 0.39527
 C287 C 0.83367 0.52083 0.35247
 C288 C 0.84824 0.51938 0.30362
 C289 C 0.86580 0.54275 0.27363
 C290 C 0.88277 0.54213 0.23138
 C291 C 0.88223 0.51813 0.21894
 C292 C 0.86403 0.49459 0.24756
 C293 C 0.84707 0.49521 0.28983
 C294 C 0.90209 0.51815 0.18144
 C295 C 0.91946 0.51808 0.15272
 H296 H 0.86708 0.56160 0.28437
 H297 H 0.89694 0.56050 0.20995
 H298 H 0.86362 0.47598 0.23871
 H299 H 0.83379 0.47708 0.31317
 C300 C 0.46692 0.29667 0.39977
 C301 C 0.46615 0.30831 0.35739
 C302 C 0.46634 0.32385 0.30880
 C303 C 0.48917 0.33681 0.27391
 C304 C 0.49084 0.35472 0.23133
 C305 C 0.46969 0.35973 0.22347
 C306 C 0.44653 0.34615 0.25717
 C307 C 0.44486 0.32825 0.29977
 C308 C 0.47266 0.38049 0.18471
 C309 C 0.47534 0.39864 0.15451
 H310 H 0.50601 0.33378 0.28092
 H311 H 0.50893 0.36528 0.20587
 H312 H 0.43015 0.35005 0.25181
 H313 H 0.42724 0.31857 0.32688
 C314 C 0.69889 0.17688 0.39837
 C315 C 0.68615 0.16583 0.35595
 C316 C 0.67008 0.15104 0.30747
 C317 C 0.67607 0.13361 0.27757
 C318 C 0.65855 0.11656 0.23548
 C319 C 0.63498 0.11689 0.22311
 C320 C 0.62942 0.13494 0.25170
 C321 C 0.64694 0.15197 0.29380
 C322 C 0.61526 0.09703 0.18554
 C323 C 0.59795 0.07970 0.15668
 H324 H 0.69377 0.13252 0.28821
 H325 H 0.66291 0.10252 0.21406
 H326 H 0.61112 0.13518 0.24288
 H327 H 0.64196 0.16517 0.31705
 C328 C 0.46976 0.17148 -0.40099
 C329 C 0.46947 0.15918 -0.35880
 C330 C 0.47012 0.14384 -0.31064
 C331 C 0.44809 0.11858 -0.29900
 C332 C 0.44992 0.10224 -0.25693
 C333 C 0.47380 0.11108 -0.22637
 C334 C 0.49557 0.13665 -0.23686
 C335 C 0.49373 0.15299 -0.27892
 C336 C 0.47662 0.09312 -0.18789
 C337 C 0.47903 0.07748 -0.15767
 H338 H 0.42983 0.11118 -0.32367
 H339 H 0.43303 0.08243 -0.24949
 H340 H 0.51420 0.14361 -0.21383
 H341 H 0.51099 0.17237 -0.28798
 C342 C 0.69956 0.52326 -0.39439
 C343 C 0.68734 0.52176 -0.35111
 C344 C 0.67178 0.52066 -0.30168
 C345 C 0.67708 0.54436 -0.27398
 C346 C 0.65975 0.54388 -0.23127
 C347 C 0.63705 0.51968 -0.21606
 C348 C 0.63227 0.49585 -0.24232
 C349 C 0.64960 0.49634 -0.28505
 C350 C 0.61717 0.51962 -0.17859
 C351 C 0.59955 0.51937 -0.15020
 H352 H 0.69402 0.56333 -0.28693
 H353 H 0.66348 0.56246 -0.21173
 H354 H 0.61462 0.47706 -0.23135
 H355 H 0.64514 0.47793 -0.30659
 C356 C 0.82334 0.30238 -0.39771
 C357 C 0.83417 0.31515 -0.35515
 C358 C 0.84875 0.33127 -0.30654
 C359 C 0.84796 0.35456 -0.29368
 C360 C 0.86488 0.37213 -0.25151
 C361 C 0.88266 0.36650 -0.22207
 C362 C 0.88283 0.34278 -0.23362
 C363 C 0.86590 0.32520 -0.27578
 C364 C 0.90246 0.38625 -0.18446
 C365 C 0.91977 0.40356 -0.15555
 H366 H 0.83499 0.35960 -0.31762
 H367 H 0.86476 0.39054 -0.24332
 H368 H 0.89668 0.33835 -0.21153
 H369 H 0.86688 0.30739 -0.28580
 C370 C 0.53296 -0.17131 -0.39629
 C371 C 0.53390 -0.15880 -0.35397
 C372 C 0.53393 -0.14322 -0.30554
 C373 C 0.55558 -0.11740 -0.29686
 C374 C 0.55413 -0.10093 -0.25456
 C375 C 0.53103 -0.11019 -0.22078
 C376 C 0.50971 -0.13630 -0.22828
 C377 C 0.51116 -0.15277 -0.27057
 C378 C 0.52827 -0.09215 -0.18237
 C379 C 0.52569 -0.07650 -0.15253
 H380 H 0.57316 -0.10969 -0.32405
 H381 H 0.57064 -0.08071 -0.24951
 H382 H 0.49166 -0.14360 -0.20279
 H383 H 0.49419 -0.17259 -0.27730
 C384 C 0.29909 0.47641 -0.39484
 C385 C 0.31156 0.47801 -0.35198
 C386 C 0.32747 0.47919 -0.30319
 C387 C 0.32200 0.45559 -0.27468
 C388 C 0.33956 0.45607 -0.23264
 C389 C 0.36268 0.48016 -0.21890
 C390 C 0.36768 0.50390 -0.24604
 C391 C 0.35012 0.50342 -0.28810
 C392 C 0.38258 0.48014 -0.18163
 C393 C 0.40010 0.48030 -0.15315
 H394 H 0.30472 0.43669 -0.28644
 H395 H 0.33563 0.43755 -0.21239
 H396 H 0.38562 0.52260 -0.23620
 H397 H 0.35473 0.52174 -0.31028
 C398 C 1.17136 0.70530 -0.39808
 C399 C 1.15912 0.69386 -0.35528
 C400 C 1.14381 0.67844 -0.30640
 C401 C 1.11807 0.67435 -0.29672
 C402 C 1.10176 0.65643 -0.25416
 C403 C 1.11111 0.64249 -0.22111
 C404 C 1.13715 0.64721 -0.22956
 C405 C 1.15346 0.66514 -0.27210
 C406 C 1.09315 0.62158 -0.18269
 C407 C 1.07755 0.60324 -0.15294
 H408 H 1.11027 0.68428 -0.32339
 H409 H 1.08158 0.65276 -0.24840
 H410 H 1.14451 0.63636 -0.20466
 H411 H 1.17322 0.66790 -0.27962
 C412 C 0.83083 0.53633 -0.39686
 C413 C 0.84324 0.53710 -0.35451
 C414 C 0.85861 0.53688 -0.30604
 C415 C 0.84868 0.51410 -0.27106
 C416 C 0.86495 0.51231 -0.22881
 C417 C 0.89123 0.53330 -0.22138
 C418 C 0.90087 0.55644 -0.25512
 C419 C 0.88460 0.55822 -0.29738
 C420 C 0.90906 0.53013 -0.18320
 C421 C 0.92454 0.52723 -0.15358
 H422 H 0.82872 0.49735 -0.27780
 H423 H 0.85737 0.49423 -0.20334
 H424 H 0.92124 0.57269 -0.25010
 H425 H 0.89259 0.57580 -0.32459
 C426 C 0.47993 0.30107 -0.39495
 C427 C 0.48155 0.31342 -0.35188
 C428 C 0.48270 0.32914 -0.30279
 C429 C 0.45916 0.32299 -0.27306
 C430 C 0.45944 0.34035 -0.23077
 C431 C 0.48326 0.36393 -0.21804
 C432 C 0.50698 0.36961 -0.24634
 C433 C 0.50670 0.35225 -0.28865
 C434 C 0.48286 0.38363 -0.18077
 C435 C 0.48263 0.40097 -0.15238
 H436 H 0.44043 0.30532 -0.28410
 H437 H 0.44093 0.33590 -0.20961
 H438 H 0.52546 0.38793 -0.23727
 H439 H 0.52495 0.35737 -0.31179
 C440 C 0.70573 0.17044 -0.39357
 C441 C 0.69432 0.15822 -0.35079
 C442 C 0.67892 0.14296 -0.30190
 C443 C 0.67468 0.11716 -0.29249
 C444 C 0.65669 0.10088 -0.25002
 C445 C 0.64286 0.11031 -0.21682
 C446 C 0.64777 0.13642 -0.22494
 C447 C 0.66576 0.15271 -0.26739
 C448 C 0.62180 0.09237 -0.17874
 C449 C 0.60332 0.07677 -0.14933
 H450 H 0.68450 0.10930 -0.31934
 H451 H 0.65286 0.08063 -0.24450
 H452 H 0.63699 0.14384 -0.19991
 H453 H 0.66866 0.17251 -0.27472
 C454 C 1.16910 0.46676 -0.40527
 C455 C 1.15696 0.46668 -0.36297
 C456 C 1.14190 0.46763 -0.31459
 C457 C 1.15163 0.49122 -0.28251
 C458 C 1.13561 0.49344 -0.24018
 C459 C 1.10980 0.47207 -0.22978
 C460 C 1.10037 0.44820 -0.26067
 C461 C 1.11639 0.44599 -0.30303
 C462 C 1.09219 0.47534 -0.19107
 C463 C 1.07682 0.47811 -0.16068
 H464 H 1.17123 0.50818 -0.29152
 H465 H 1.14302 0.51205 -0.21686
 H466 H 1.08036 0.43162 -0.25328
 H467 H 1.10856 0.42776 -0.32798
 C468 C 0.51920 0.69722 -0.39517
 C469 C 0.51772 0.68512 -0.35177
 C470 C 0.51672 0.66980 -0.30209
 C471 C 0.54040 0.67589 -0.27325
 C472 C 0.54017 0.65883 -0.23028
 C473 C 0.51625 0.63562 -0.21598
 C474 C 0.49239 0.63005 -0.24335
 C475 C 0.49263 0.64710 -0.28635
 C476 C 0.51664 0.61602 -0.17844
 C477 C 0.51682 0.59866 -0.15007
 H478 H 0.55919 0.69325 -0.28553
 H479 H 0.55878 0.66317 -0.20987
 H480 H 0.47384 0.61199 -0.23309
 H481 H 0.47426 0.64205 -0.30879
 C482 C 0.30258 -0.17621 -0.39621
 C483 C 0.31521 -0.16539 -0.35355
 C484 C 0.33112 -0.15089 -0.30471
 C485 C 0.32507 -0.13359 -0.27448
 C486 C 0.34249 -0.11675 -0.23204
 C487 C 0.36602 -0.11716 -0.21968
 C488 C 0.37161 -0.13511 -0.24855
 C489 C 0.35420 -0.15194 -0.29101
 C490 C 0.38570 -0.09738 -0.18202
 C491 C 0.40301 -0.08007 -0.15317
 H492 H 0.30741 -0.13243 -0.28515
 H493 H 0.33811 -0.10276 -0.21040
 H494 H 0.38989 -0.13539 -0.23974
 H495 H 0.35921 -0.16504 -0.31452
 C496 C 0.51908 -0.17924 0.39588
 C497 C 0.51732 -0.16849 0.35300
 C498 C 0.51601 -0.15399 0.30397
 C499 C 0.53939 -0.13698 0.27335
 C500 C 0.53902 -0.11997 0.23098
 C501 C 0.51527 -0.11992 0.21908
 C502 C 0.49169 -0.13761 0.24828
 C503 C 0.49206 -0.15461 0.29067
 C504 C 0.51566 -0.09986 0.18177
 C505 C 0.51595 -0.08228 0.15333
 H506 H 0.55809 -0.13614 0.28374
 H507 H 0.55743 -0.10618 0.20911
 H508 H 0.47327 -0.13754 0.23983
 H509 H 0.47394 -0.16747 0.31450
 C510 C 0.29438 0.46335 0.39718
 C511 C 0.30613 0.46269 0.35488
 C512 C 0.32183 0.46310 0.30639
 C513 C 0.33434 0.48583 0.27118
 C514 C 0.35250 0.48784 0.22883
 C515 C 0.35819 0.46713 0.22156
 C516 C 0.34503 0.44404 0.25552
 C517 C 0.32689 0.44203 0.29789
 C518 C 0.37925 0.47055 0.18321
 C519 C 0.39766 0.47360 0.15338
 H520 H 0.33079 0.50236 0.27781
 H521 H 0.36273 0.50589 0.20316
 H522 H 0.34947 0.42800 0.25059
 H523 H 0.31755 0.42449 0.32528
 C524 C 1.17764 0.69826 0.39656
 C525 C 1.16686 0.68563 0.35388
 C526 C 1.15238 0.66973 0.30501
 C527 C 1.13552 0.67613 0.27404
 C528 C 1.11863 0.65875 0.23161
 C529 C 1.11856 0.63491 0.21999
 C530 C 1.13607 0.62897 0.24960
 C531 C 1.15296 0.64634 0.29205
 C532 C 1.09868 0.61531 0.18236
 C533 C 1.08126 0.59808 0.15356
 H534 H 1.13473 0.69403 0.28414
 H535 H 1.10497 0.66340 0.20939
 H536 H 1.13598 0.61045 0.24137
 H537 H 1.16571 0.64106 0.31615
 C538 C 0.48021 0.17820 0.39291
 C539 C 0.48135 0.16738 0.34953
 C540 C 0.48198 0.15279 0.29996
 C541 C 0.50607 0.15455 0.28272
 C542 C 0.50607 0.13753 0.23991
 C543 C 0.48199 0.11869 0.21418
 C544 C 0.45803 0.11758 0.22998
 C545 C 0.45803 0.13461 0.27277
 C546 C 0.48153 0.09861 0.17681
 C547 C 0.48137 0.08102 0.14860
 H548 H 0.52466 0.16832 0.30387
 H549 H 0.52467 0.13835 0.22850
 H550 H 0.43926 0.10289 0.21087
 H551 H 0.43925 0.13288 0.28620
 C552 C 0.70305 0.53444 0.39975
 C553 C 0.69110 0.53473 0.35750
 C554 C 0.67517 0.53403 0.30923
 C555 C 0.66154 0.51069 0.27627
 C556 C 0.64333 0.50865 0.23414
 C557 C 0.63866 0.52993 0.22480
 C558 C 0.65288 0.55357 0.25658
 C559 C 0.67108 0.55561 0.29873
 C560 C 0.61774 0.52675 0.18637
 C561 C 0.59951 0.52394 0.15629
 H562 H 0.66432 0.49377 0.28445
 H563 H 0.63229 0.49020 0.21017
 H564 H 0.64927 0.57007 0.25005
 H565 H 0.68128 0.57363 0.32436
 C566 C 0.83050 0.29640 0.39690
 C567 C 0.84260 0.30786 0.35404
 C568 C 0.85770 0.32327 0.30501
 C569 C 0.88336 0.32729 0.29466
 C570 C 0.89950 0.34522 0.25196
 C571 C 0.89004 0.35922 0.21947
 C572 C 0.86405 0.35455 0.22855
 C573 C 0.84791 0.33661 0.27123
 C574 C 0.90786 0.38017 0.18106
 C575 C 0.92338 0.39855 0.15135
 H576 H 0.89125 0.31732 0.32093
 H577 H 0.91965 0.34887 0.24568
 H578 H 0.85662 0.36544 0.20408
 H579 H 0.82821 0.33388 0.27929
   
