data_POSCAR
  _audit_creation_date              2014-09-24
  _audit_creation_method            'ToBaCCo'
  _symmetry_space_group_name_H-M    'P1'
  _symmetry_Int_Tables_number       1
  _symmetry_cell_setting            triclinic
  loop_
  _symmetry_equiv_pos_as_xyz
 x,y,z
_cell_length_a 67.0504
_cell_length_b 67.0211
_cell_length_c 37.5374
_cell_angle_alpha 90.247700
_cell_angle_beta 90.005500
_cell_angle_gamma 91.297500
loop_
  _atom_site_label
  _atom_site_type_symbol
  _atom_site_fract_x
  _atom_site_fract_y
  _atom_site_fract_z
C1 C -0.00280 0.26241 -0.02239
 C2 C -0.00306 0.26387 0.01382
 C3 C -0.02201 0.26566 0.03399
 C4 C 0.01562 0.26337 0.03489
 C5 C 0.01619 0.26203 -0.04270
 C6 C -0.02148 0.26076 -0.04338
 C7 C -0.03545 0.28069 0.02617
 C8 C -0.05365 0.28170 0.04414
 C9 C -0.05903 0.26775 0.07107
 C10 C -0.04477 0.25312 0.07942
 C11 C -0.02665 0.25216 0.06119
 C12 C 0.02144 0.27990 0.05575
 C13 C 0.03949 0.27993 0.07435
 C14 C 0.05182 0.26327 0.07292
 C15 C 0.04569 0.24652 0.05274
 C16 C 0.02776 0.24659 0.03377
 C17 C 0.01991 0.24603 -0.06577
 C18 C 0.03795 0.24517 -0.08426
 C19 C 0.05257 0.26039 -0.08023
 C20 C 0.04861 0.27663 -0.05764
 C21 C 0.03054 0.27748 -0.03919
 C22 C -0.03480 0.24453 -0.03867
 C23 C -0.05251 0.24326 -0.05827
 C24 C -0.05724 0.25830 -0.08264
 C25 C -0.04378 0.27442 -0.08752
 C26 C -0.02594 0.27553 -0.06830
 H27 H -0.03183 0.29174 0.00607
 H28 H -0.06288 0.29414 0.03749
 H29 H -0.04774 0.24138 0.09842
 H30 H -0.01645 0.24040 0.06763
 H31 H 0.01218 0.29292 0.05698
 H32 H 0.04380 0.29294 0.09002
 H33 H 0.02340 0.23365 0.01798
 H34 H 0.00900 0.23398 -0.06888
 H35 H 0.04063 0.23237 -0.10113
 H36 H 0.05941 0.28876 -0.05447
 H37 H 0.02776 0.29018 -0.02210
 H38 H -0.03147 0.23291 -0.01975
 H39 H -0.06271 0.23074 -0.05395
 H40 H -0.04702 0.28609 -0.10639
 H41 H -0.01576 0.28809 -0.07236
 H42 H 0.05498 0.23353 0.05109
 C43 C 0.50223 0.76739 0.46849
 C44 C 0.50223 0.76861 0.50468
 C45 C 0.48338 0.76829 0.52522
 C46 C 0.52105 0.76946 0.52549
 C47 C 0.52101 0.76539 0.44818
 C48 C 0.48340 0.76694 0.44765
 C49 C 0.47827 0.78490 0.54580
 C50 C 0.46018 0.78502 0.56424
 C51 C 0.44712 0.76833 0.56295
 C52 C 0.45251 0.75151 0.54297
 C53 C 0.47048 0.75152 0.52413
 C54 C 0.53559 0.78445 0.51938
 C55 C 0.55354 0.78463 0.53835
 C56 C 0.55720 0.76990 0.56397
 C57 C 0.54240 0.75515 0.57046
 C58 C 0.52448 0.75500 0.55151
 C59 C 0.53281 0.74854 0.45245
 C60 C 0.55053 0.74678 0.43326
 C61 C 0.55681 0.76193 0.40977
 C62 C 0.54492 0.77875 0.40548
 C63 C 0.52704 0.78036 0.42428
 C64 C 0.47920 0.75086 0.42464
 C65 C 0.46111 0.74966 0.40626
 C66 C 0.44690 0.76461 0.41037
 C67 C 0.45137 0.78099 0.43276
 C68 C 0.46951 0.78220 0.45108
 H69 H 0.48814 0.79791 0.54700
 H70 H 0.45643 0.79807 0.57975
 H71 H 0.44264 0.73852 0.54145
 H72 H 0.47431 0.73851 0.50856
 H73 H 0.53305 0.79597 0.49986
 H74 H 0.56448 0.79638 0.53317
 H75 H 0.51344 0.74330 0.55659
 H76 H 0.52824 0.73678 0.47061
 H77 H 0.55950 0.73372 0.43710
 H78 H 0.54937 0.79052 0.38727
 H79 H 0.51802 0.79339 0.42060
 H80 H 0.48972 0.73894 0.42164
 H81 H 0.45802 0.73676 0.38953
 H82 H 0.44086 0.79289 0.43599
 H83 H 0.47266 0.79494 0.46816
 H84 H 0.54485 0.74344 0.58966
 C85 C 1.00238 0.73848 -0.03087
 C86 C 1.00189 0.73659 0.00517
 C87 C 1.02060 0.73619 0.02598
 C88 C 0.98294 0.73519 0.02553
 C89 C 0.98406 0.74127 -0.05244
 C90 C 1.02165 0.73858 -0.05005
 C91 C 1.02819 0.71800 0.03739
 C92 C 1.04577 0.71769 0.05743
 C93 C 1.05583 0.73561 0.06666
 C94 C 1.04814 0.75380 0.05504
 C95 C 1.03069 0.75407 0.03477
 C96 C 0.96813 0.72082 0.01683
 C97 C 0.95005 0.72016 0.03541
 C98 C 0.94654 0.73372 0.06330
 C99 C 0.96159 0.74778 0.07242
 C100 C 0.97961 0.74845 0.05382
 C101 C 0.97049 0.75617 -0.04353
 C102 C 0.95296 0.75826 -0.06316
 C103 C 0.94892 0.74582 -0.09261
 C104 C 0.96280 0.73138 -0.10224
 C105 C 0.98019 0.72911 -0.08232
 C106 C 1.03241 0.75649 -0.05478
 C107 C 1.05095 0.75658 -0.07175
 C108 C 1.05896 0.73874 -0.08531
 C109 C 1.04773 0.72082 -0.08071
 C110 C 1.02947 0.72075 -0.06281
 H111 H 1.02049 0.70409 0.03077
 H112 H 1.05130 0.70348 0.06628
 H113 H 1.05571 0.76780 0.06142
 H114 H 1.02496 0.76823 0.02608
 H115 H 0.97054 0.71021 -0.00449
 H116 H 0.93887 0.70897 0.02813
 H117 H 0.99077 0.75968 0.06098
 H118 H 0.97341 0.76611 -0.02123
 H119 H 0.94264 0.76972 -0.05554
 H120 H 0.95997 0.72153 -0.12471
 H121 H 0.99040 0.71756 -0.08989
 H122 H 1.02648 0.77040 -0.04509
 H123 H 1.05852 0.77084 -0.07544
 H124 H 1.05339 0.70661 -0.08936
 H125 H 1.02144 0.70673 -0.05872
 H126 H 0.95925 0.75860 0.09342
 C127 C 0.49634 0.22997 0.47832
 C128 C 0.49638 0.22798 0.51446
 C129 C 0.51531 0.22923 0.53487
 C130 C 0.47764 0.22525 0.53513
 C131 C 0.47757 0.23259 0.45792
 C132 C 0.51530 0.22985 0.45788
 C133 C 0.52168 0.21281 0.55452
 C134 C 0.54012 0.21359 0.57196
 C135 C 0.55222 0.23097 0.57061
 C136 C 0.54551 0.24758 0.55174
 C137 C 0.52724 0.24669 0.53391
 C138 C 0.46370 0.21010 0.52616
 C139 C 0.44548 0.20855 0.54414
 C140 C 0.44093 0.22202 0.57164
 C141 C 0.45524 0.23674 0.58133
 C142 C 0.47344 0.23826 0.56336
 C143 C 0.46383 0.24706 0.46818
 C144 C 0.44575 0.24870 0.45010
 C145 C 0.44125 0.23623 0.42089
 C146 C 0.45536 0.22234 0.40969
 C147 C 0.47336 0.22053 0.42807
 C148 C 0.52080 0.24615 0.43645
 C149 C 0.53935 0.24673 0.41939
 C150 C 0.55264 0.23094 0.42332
 C151 C 0.54671 0.21429 0.44373
 C152 C 0.52819 0.21373 0.46071
 H153 H 0.51260 0.19925 0.55557
 H154 H 0.54491 0.20067 0.58661
 H155 H 0.55462 0.26110 0.55012
 H156 H 0.52245 0.25953 0.51901
 H157 H 0.46682 0.19967 0.50487
 H158 H 0.43495 0.19682 0.53650
 H159 H 0.48400 0.25004 0.57070
 H160 H 0.46703 0.25694 0.49045
 H161 H 0.43529 0.25979 0.45885
 H162 H 0.45223 0.21252 0.38730
 H163 H 0.48382 0.20940 0.41952
 H164 H 0.51101 0.25870 0.43390
 H165 H 0.54354 0.25981 0.40406
 H166 H 0.55642 0.20172 0.44664
 H167 H 0.52401 0.20083 0.47657
 H168 H 0.45212 0.24749 0.60208
 C169 C 0.73260 0.00611 -0.02872
 C170 C 0.72941 0.00489 0.00710
 C171 C 0.72998 -0.01448 0.02587
 C172 C 0.72633 0.02297 0.02925
 C173 C 0.73509 0.02570 -0.04683
 C174 C 0.73380 -0.01209 -0.05131
 C175 C 0.71303 -0.02190 0.04353
 C176 C 0.71320 -0.04061 0.05980
 C177 C 0.73057 -0.05221 0.05956
 C178 C 0.74774 -0.04419 0.04249
 C179 C 0.74738 -0.02565 0.02573
 C180 C 0.71127 0.03640 0.02088
 C181 C 0.71013 0.05461 0.03897
 C182 C 0.72393 0.05964 0.06596
 C183 C 0.73833 0.04568 0.07547
 C184 C 0.73945 0.02748 0.05738
 C185 C 0.74905 0.04000 -0.03452
 C186 C 0.75016 0.05895 -0.04975
 C187 C 0.73769 0.06398 -0.07856
 C188 C 0.72446 0.04903 -0.09196
 C189 C 0.72316 0.03020 -0.07619
 C190 C 0.75031 -0.01481 -0.07346
 C191 C 0.75187 -0.03212 -0.09406
 C192 C 0.73685 -0.04729 -0.09316
 C193 C 0.72002 -0.04405 -0.07133
 C194 C 0.71849 -0.02667 -0.05095
 H195 H 0.69954 -0.01332 0.04418
 H196 H 0.69982 -0.04554 0.07359
 H197 H 0.76130 -0.05254 0.04034
 H198 H 0.76064 -0.02007 0.01223
 H199 H 0.70081 0.03303 -0.00041
 H200 H 0.69862 0.06486 0.03152
 H201 H 0.75117 0.01731 0.06420
 H202 H 0.75895 0.03657 -0.01269
 H203 H 0.76131 0.06935 -0.03943
 H204 H 0.71416 0.05204 -0.11335
 H205 H 0.71233 0.01932 -0.08621
 H206 H 0.76230 -0.00370 -0.07412
 H207 H 0.76543 -0.03382 -0.10923
 H208 H 0.70751 -0.05451 -0.07068
 H209 H 0.70528 -0.02455 -0.03490
 H210 H 0.74929 0.04915 0.09588
 C211 C 0.23825 0.49569 0.50912
 C212 C 0.24070 0.49565 0.54519
 C213 C 0.24145 0.47667 0.56545
 C214 C 0.24290 0.51448 0.56602
 C215 C 0.23572 0.51443 0.48881
 C216 C 0.23879 0.47694 0.48807
 C217 C 0.22588 0.46237 0.56300
 C218 C 0.22695 0.44438 0.58150
 C219 C 0.24353 0.44042 0.60309
 C220 C 0.25890 0.45497 0.60607
 C221 C 0.25782 0.47295 0.58752
 C222 C 0.23068 0.51768 0.59576
 C223 C 0.23215 0.53560 0.61485
 C224 C 0.24586 0.55064 0.60447
 C225 C 0.25846 0.54719 0.57529
 C226 C 0.25716 0.52918 0.55650
 C227 C 0.24882 0.51912 0.46080
 C228 C 0.24729 0.53714 0.44257
 C229 C 0.23248 0.55078 0.45173
 C230 C 0.21902 0.54579 0.47921
 C231 C 0.22058 0.52775 0.49750
 C232 C 0.25589 0.46526 0.48803
 C233 C 0.25630 0.44760 0.46819
 C234 C 0.23956 0.44128 0.44825
 C235 C 0.22249 0.45307 0.44820
 C236 C 0.22219 0.47087 0.46769
 H237 H 0.21291 0.46516 0.54673
 H238 H 0.21470 0.43365 0.57919
 H239 H 0.27195 0.45230 0.62219
 H240 H 0.26995 0.48383 0.58984
 H241 H 0.21971 0.50647 0.60374
 H242 H 0.22222 0.53792 0.63716
 H243 H 0.26715 0.52679 0.53430
 H244 H 0.26060 0.50906 0.45370
 H245 H 0.25807 0.54061 0.42190
 H246 H 0.20723 0.55579 0.48650
 H247 H 0.21010 0.52424 0.51864
 H248 H 0.26890 0.46986 0.50335
 H249 H 0.26959 0.43872 0.46879
 H250 H 0.20949 0.44861 0.43275
 H251 H 0.20893 0.47980 0.46730
 H252 H 0.26940 0.55841 0.56716
 C253 C 0.27031 0.99626 0.00965
 C254 C 0.26722 0.99547 0.04548
 C255 C 0.26597 1.01385 0.06752
 C256 C 0.26418 0.97611 0.06389
 C257 C 0.27316 0.97789 -0.01181
 C258 C 0.27003 1.01543 -0.00985
 C259 C 0.28108 1.02861 0.06638
 C260 C 0.27928 1.04633 0.08568
 C261 C 0.26238 1.04972 0.10724
 C262 C 0.24764 1.03432 0.10920
 C263 C 0.24944 1.01669 0.08961
 C264 C 0.27783 0.97006 0.08976
 C265 C 0.27544 0.95146 0.10611
 C266 C 0.25912 0.93885 0.09739
 C267 C 0.24520 0.94519 0.07209
 C268 C 0.24777 0.96364 0.05534
 C269 C 0.26058 0.97361 -0.04071
 C270 C 0.26232 0.95578 -0.05975
 C271 C 0.27680 0.94167 -0.05045
 C272 C 0.28985 0.94659 -0.02196
 C273 C 0.28809 0.96447 -0.00309
 C274 C 0.25273 1.02674 -0.01058
 C275 C 0.25255 1.04492 -0.02863
 C276 C 0.26982 1.05243 -0.04610
 C277 C 0.28713 1.04076 -0.04520
 C278 C 0.28711 1.02240 -0.02769
 H279 H 0.29431 1.02643 0.05041
 H280 H 0.29159 1.05701 0.08436
 H281 H 0.23405 1.03610 0.12427
 H282 H 0.23759 1.00546 0.09087
 H283 H 0.29052 0.97957 0.09671
 H284 H 0.28626 0.94695 0.12577
 H285 H 0.23704 0.96818 0.03557
 H286 H 0.24892 0.98379 -0.04781
 H287 H 0.25143 0.95281 -0.08043
 H288 H 0.30191 0.93701 -0.01454
 H289 H 0.29835 0.96780 0.01853
 H290 H 0.23938 1.02151 0.00305
 H291 H 0.23903 1.05339 -0.02731
 H292 H 0.30058 1.04529 -0.05915
 H293 H 0.30053 1.01370 -0.02766
 H294 H 0.23256 0.93568 0.06483
 C295 C 0.76371 0.50632 0.47095
 C296 C 0.76650 0.50581 0.50683
 C297 C 0.76857 0.52425 0.52871
 C298 C 0.76680 0.48655 0.52592
 C299 C 0.76348 0.48768 0.44972
 C300 C 0.76079 0.52526 0.45143
 C301 C 0.78300 0.53903 0.52054
 C302 C 0.78393 0.55688 0.53995
 C303 C 0.77053 0.56021 0.56810
 C304 C 0.75652 0.54509 0.57686
 C305 C 0.75562 0.52726 0.55747
 C306 C 0.78454 0.47995 0.54116
 C307 C 0.78484 0.46162 0.55881
 C308 C 0.76732 0.44984 0.56194
 C309 C 0.74953 0.45666 0.54694
 C310 C 0.74930 0.47484 0.52898
 C311 C 0.74534 0.47941 0.43749
 C312 C 0.74500 0.46132 0.41880
 C313 C 0.76285 0.45156 0.41136
 C314 C 0.78104 0.46010 0.42300
 C315 C 0.78132 0.47796 0.44239
 C316 C 0.74631 0.53879 0.46247
 C317 C 0.74447 0.55707 0.44521
 C318 C 0.75675 0.56196 0.41607
 C319 C 0.77066 0.54806 0.40412
 C320 C 0.77265 0.52987 0.42166
 H321 H 0.79337 0.53684 0.49882
 H322 H 0.79512 0.56808 0.53295
 H323 H 0.74583 0.54725 0.59806
 H324 H 0.74437 0.51605 0.56421
 H325 H 0.79814 0.48890 0.53907
 H326 H 0.79869 0.45676 0.57041
 H327 H 0.73547 0.47985 0.51750
 H328 H 0.73146 0.48677 0.44306
 H329 H 0.73084 0.45499 0.40993
 H330 H 0.79494 0.45273 0.41770
 H331 H 0.79542 0.48421 0.45176
 H332 H 0.73660 0.53530 0.48475
 H333 H 0.73339 0.56738 0.45455
 H334 H 0.78037 0.55151 0.38183
 H335 H 0.78383 0.51961 0.41255
 H336 H 0.73587 0.44778 0.54874
 O337 O 0.22291 0.25710 0.22371
 O338 O 0.27210 0.25283 0.26650
 O339 O 0.25109 0.23087 0.22277
 O340 O 0.24428 0.27913 0.26769
 O341 O 0.22936 0.26375 0.31255
 O342 O 0.23742 0.21533 0.26867
 O343 O 0.25781 0.23801 0.31257
 O344 O 0.20891 0.24093 0.26861
 Cu345 Cu 0.24895 0.25656 0.24056
 Cu346 Cu 0.23193 0.23798 0.29516
 C347 C 0.20753 0.24951 0.23864
 C348 C 0.27335 0.24478 0.29698
 C349 C 0.24561 0.21482 0.23816
 C350 C 0.23574 0.27970 0.29787
 O351 O 0.75693 0.78374 0.22980
 O352 O 0.75813 0.73390 0.27015
 O353 O 0.78126 0.75412 0.22705
 O354 O 0.73372 0.76341 0.27264
 O355 O 0.71734 0.74971 0.22743
 O356 O 0.76479 0.74244 0.18027
 O357 O 0.74263 0.72108 0.22322
 O358 O 0.73945 0.77140 0.18470
 Cu359 Cu 0.75917 0.76007 0.25450
 Cu360 Cu 0.73942 0.74493 0.19921
 C361 C 0.74783 0.78614 0.20052
 C362 C 0.75067 0.71894 0.25358
 C363 C 0.78117 0.74684 0.19574
 C364 C 0.71741 0.75783 0.25807
 O365 O 0.77987 0.24734 0.25706
 O366 O 0.72891 0.24242 0.29330
 O367 O 0.75144 0.22014 0.25441
 O368 O 0.75708 0.26938 0.29713
 O369 O 0.74576 0.28373 0.24857
 O370 O 0.73943 0.23420 0.20616
 O371 O 0.71712 0.25685 0.24523
 O372 O 0.76794 0.26131 0.20869
 Cu373 Cu 0.75560 0.24342 0.28026
 Cu374 Cu 0.74142 0.26045 0.22230
 C375 C 0.78261 0.25508 0.22655
 C376 C 0.71429 0.24886 0.27549
 C377 C 0.74430 0.21868 0.22315
 C378 C 0.75224 0.28495 0.28035
 O379 O 0.25852 0.75638 0.20987
 O380 O 0.25227 0.70717 0.25230
 O381 O 0.23148 0.72785 0.20750
 O382 O 0.27936 0.73567 0.25392
 O383 O 0.26379 0.74980 0.29888
 O384 O 0.21580 0.74171 0.25260
 O385 O 0.23683 0.72114 0.29755
 O386 O 0.24251 0.77025 0.25462
 Cu387 Cu 0.25695 0.73033 0.22641
 Cu388 Cu 0.23815 0.74706 0.28048
 C389 C 0.25155 0.77173 0.22497
 C390 C 0.24357 0.70574 0.28229
 C391 C 0.21546 0.73357 0.22196
 C392 C 0.27982 0.74421 0.28420
 O393 O 0.76457 0.26792 0.79077
 O394 O 0.71470 0.26195 0.75096
 O395 O 0.73739 0.23960 0.79003
 O396 O 0.74219 0.28979 0.75080
 O397 O 0.75619 0.27682 0.70310
 O398 O 0.74998 0.22660 0.74106
 O399 O 0.72797 0.24925 0.70233
 O400 O 0.77790 0.25403 0.74326
 Cu401 Cu 0.73837 0.26610 0.77549
 Cu402 Cu 0.75437 0.25044 0.71754
 C403 C 0.77973 0.26181 0.77407
 C404 C 0.71277 0.25469 0.71981
 C405 C 0.74280 0.22451 0.77214
 C406 C 0.75009 0.29188 0.72024
 O407 O 0.28976 0.74661 0.76039
 O408 O 0.24074 0.74356 0.80418
 O409 O 0.26092 0.72012 0.76228
 O410 O 0.26943 0.77008 0.80163
 O411 O 0.25488 0.78357 0.75517
 O412 O 0.24807 0.73391 0.71448
 O413 O 0.22672 0.75607 0.75623
 O414 O 0.27619 0.76114 0.71396
 Cu415 Cu 0.26658 0.74371 0.78685
 Cu416 Cu 0.25005 0.76005 0.73027
 C417 C 0.29139 0.75446 0.72976
 C418 C 0.22535 0.74923 0.78767
 C419 C 0.25334 0.71851 0.73133
 C420 C 0.26341 0.78537 0.78526
 O421 O 0.25791 0.27302 0.76491
 O422 O 0.26128 0.22413 0.80908
 O423 O 0.28402 0.24481 0.76622
 O424 O 0.23535 0.25252 0.80860
 O425 O 0.22021 0.23842 0.76246
 O426 O 0.26907 0.23018 0.72041
 O427 O 0.24572 0.20987 0.76351
 O428 O 0.24311 0.25846 0.71888
 Cu429 Cu 0.26115 0.25007 0.79179
 Cu430 Cu 0.24305 0.23277 0.73670
 C431 C 0.24995 0.27409 0.73425
 C432 C 0.25392 0.20866 0.79390
 C433 C 0.28492 0.23617 0.73610
 C434 C 0.21944 0.24683 0.79283
 O435 O 0.75049 0.72642 0.73112
 O436 O 0.74213 0.77437 0.77624
 O437 O 0.72257 0.75292 0.72961
 O438 O 0.76998 0.74817 0.77786
 O439 O 0.78587 0.76354 0.73403
 O440 O 0.73830 0.76886 0.68627
 O441 O 0.75819 0.79016 0.73311
 O442 O 0.76594 0.74221 0.68730
 Cu443 Cu 0.74471 0.74884 0.75800
 Cu444 Cu 0.76366 0.76776 0.70580
 C445 C 0.75958 0.72609 0.70143
 C446 C 0.74882 0.79047 0.76254
 C447 C 0.72228 0.76181 0.69979
 C448 C 0.78604 0.75510 0.76427
 C449 C 0.24829 0.06924 0.15694
 C450 C 0.24575 0.08741 0.17458
 C451 C 0.25476 0.10491 0.16170
 C452 C 0.26668 0.10405 0.13106
 C453 C 0.26939 0.08591 0.11344
 C454 C 0.26013 0.06808 0.12582
 N455 N 0.25145 0.12335 0.17997
 N456 N 0.25831 0.13995 0.16837
 C457 C 0.25500 0.15844 0.18643
 C458 C 0.26225 0.17616 0.17115
 C459 C 0.25917 0.19449 0.18787
 C460 C 0.24881 0.19539 0.22039
 C461 C 0.24159 0.17754 0.23576
 C462 C 0.24462 0.15922 0.21891
 H463 H 0.24144 0.05609 0.16872
 H464 H 0.23667 0.08786 0.19843
 H465 H 0.27375 0.11744 0.12045
 H466 H 0.27804 0.08629 0.08914
 H467 H 0.27027 0.17574 0.14612
 H468 H 0.26496 0.20795 0.17536
 H469 H 0.23354 0.17772 0.26077
 H470 H 0.23887 0.14570 0.23126
 C471 C 0.76728 0.58014 0.62461
 C472 C 0.76643 0.59839 0.64265
 C473 C 0.76911 0.61635 0.62427
 C474 C 0.77293 0.61590 0.58746
 C475 C 0.77371 0.59766 0.56933
 C476 C 0.77074 0.57956 0.58765
 N477 N 0.76732 0.63478 0.64339
 N478 N 0.77036 0.65166 0.62874
 C479 C 0.76801 0.67005 0.64774
 C480 C 0.77291 0.68804 0.63074
 C481 C 0.77037 0.70626 0.64825
 C482 C 0.76269 0.70679 0.68311
 C483 C 0.75782 0.68868 0.70016
 C484 C 0.76050 0.67047 0.68269
 H485 H 0.76522 0.56649 0.63960
 H486 H 0.76352 0.59854 0.67103
 H487 H 0.77496 0.62960 0.57262
 H488 H 0.77611 0.59775 0.54081
 H489 H 0.77866 0.68792 0.60379
 H490 H 0.77423 0.71994 0.63435
 H491 H 0.75191 0.68856 0.72701
 H492 H 0.75654 0.65676 0.69638
 C493 C 0.71311 0.91674 0.07831
 C494 C 0.71342 0.89773 0.09343
 C495 C 0.73112 0.89024 0.10699
 C496 C 0.74870 0.90192 0.10498
 C497 C 0.74856 0.92079 0.08931
 C498 C 0.73073 0.92865 0.07568
 N499 N 0.73094 0.87069 0.12229
 N500 N 0.74556 0.86444 0.14039
 C501 C 0.74572 0.84478 0.15514
 C502 C 0.76025 0.84030 0.18042
 C503 C 0.76083 0.82128 0.19541
 C504 C 0.74706 0.80628 0.18478
 C505 C 0.73261 0.81074 0.15905
 C506 C 0.73184 0.82989 0.14452
 H507 H 0.69913 0.92158 0.06729
 H508 H 0.69979 0.88877 0.09456
 H509 H 0.76260 0.89645 0.11539
 H510 H 0.76240 0.92940 0.08929
 H511 H 0.77106 0.85164 0.18869
 H512 H 0.77220 0.81825 0.21503
 H513 H 0.72179 0.79948 0.15043
 H514 H 0.72054 0.83300 0.12482
 C515 C 0.25244 0.42039 0.65706
 C516 C 0.25387 0.40216 0.67476
 C517 C 0.24780 0.38435 0.65800
 C518 C 0.24022 0.38497 0.62312
 C519 C 0.23878 0.40317 0.60538
 C520 C 0.24489 0.42110 0.62213
 N521 N 0.24954 0.36591 0.67681
 N522 N 0.24405 0.34928 0.66308
 C523 C 0.24574 0.33073 0.68153
 C524 C 0.23900 0.31319 0.66471
 C525 C 0.24036 0.29480 0.68181
 C526 C 0.24859 0.29363 0.71620
 C527 C 0.25541 0.31129 0.73305
 C528 C 0.25399 0.32970 0.71589
 H529 H 0.25704 0.43395 0.67086
 H530 H 0.25970 0.40189 0.70166
 H531 H 0.23549 0.37140 0.60950
 H532 H 0.23318 0.40318 0.57832
 H533 H 0.23263 0.31379 0.63823
 H534 H 0.23498 0.28150 0.66805
 H535 H 0.26180 0.31090 0.75952
 H536 H 0.25932 0.34307 0.72944
 C537 C 0.90633 0.27816 0.07269
 C538 C 0.88768 0.27808 0.08929
 C539 C 0.88466 0.26829 0.12158
 C540 C 0.90064 0.25864 0.13753
 C541 C 0.91935 0.25858 0.12106
 C542 C 0.92276 0.26823 0.08791
 N543 N 0.86514 0.26806 0.13715
 N544 N 0.86131 0.25960 0.16675
 C545 C 0.84163 0.25911 0.18169
 C546 C 0.83847 0.24990 0.21466
 C547 C 0.81935 0.24874 0.22952
 C548 C 0.80300 0.25675 0.21146
 C549 C 0.80626 0.26612 0.17844
 C550 C 0.82539 0.26732 0.16370
 H551 H 0.90712 0.28512 0.04682
 H552 H 0.87537 0.28543 0.07653
 H553 H 0.89873 0.25114 0.16283
 H554 H 0.93113 0.25160 0.13572
 H555 H 0.85086 0.24350 0.22878
 H556 H 0.81734 0.24141 0.25496
 H557 H 0.79402 0.27247 0.16386
 H558 H 0.82742 0.27451 0.13815
 C559 C 0.41529 0.78489 0.57926
 C560 C 0.39700 0.78495 0.59713
 C561 C 0.39118 0.76885 0.61865
 C562 C 0.40380 0.75248 0.62185
 C563 C 0.42195 0.75228 0.60359
 C564 C 0.42789 0.76851 0.58223
 N565 N 0.37233 0.76933 0.63653
 N566 N 0.36750 0.75673 0.66045
 C567 C 0.34850 0.75682 0.67783
 C568 C 0.34535 0.74456 0.70745
 C569 C 0.32689 0.74403 0.72471
 C570 C 0.31112 0.75558 0.71220
 C571 C 0.31431 0.76787 0.68239
 C572 C 0.33288 0.76859 0.66545
 H573 H 0.41946 0.79749 0.56268
 H574 H 0.38736 0.79759 0.59433
 H575 H 0.39957 0.73981 0.63820
 H576 H 0.43147 0.73954 0.60643
 H577 H 0.35727 0.73539 0.71716
 H578 H 0.32487 0.73434 0.74749
 H579 H 0.30245 0.77696 0.67218
 H580 H 0.33494 0.77812 0.64247
 C581 C 0.07672 0.74900 0.11702
 C582 C 0.09412 0.74909 0.13748
 C583 C 0.10933 0.73580 0.12980
 C584 C 0.10684 0.72210 0.10160
 C585 C 0.08934 0.72186 0.08129
 C586 C 0.07418 0.73543 0.08865
 N587 N 0.12719 0.73676 0.15071
 N588 N 0.14238 0.72648 0.14329
 C589 C 0.16026 0.72777 0.16416
 C590 C 0.17723 0.71801 0.15218
 C591 C 0.19515 0.71969 0.17113
 C592 C 0.19630 0.73105 0.20268
 C593 C 0.17910 0.74049 0.21508
 C594 C 0.16125 0.73893 0.19593
 H595 H 0.06517 0.75945 0.12352
 H596 H 0.09586 0.75968 0.15919
 H597 H 0.11840 0.71165 0.09519
 H598 H 0.08780 0.71135 0.05942
 H599 H 0.17664 0.70934 0.12778
 H600 H 0.20811 0.71220 0.16095
 H601 H 0.17951 0.74937 0.23925
 H602 H 0.14830 0.74657 0.20581
 C603 C 0.58544 0.21621 0.58351
 C604 C 0.60436 0.21732 0.59917
 C605 C 0.60999 0.23377 0.62027
 C606 C 0.59645 0.24922 0.62550
 C607 C 0.57764 0.24826 0.60947
 C608 C 0.57196 0.23174 0.58833
 N609 N 0.62957 0.23460 0.63558
 N610 N 0.63458 0.24769 0.65878
 C611 C 0.65423 0.24899 0.67369
 C612 C 0.65765 0.26146 0.70312
 C613 C 0.67664 0.26319 0.71829
 C614 C 0.69266 0.25267 0.70383
 C615 C 0.68924 0.24026 0.67404
 C616 C 0.67014 0.23832 0.65921
 H617 H 0.58147 0.20342 0.56703
 H618 H 0.61468 0.20535 0.59484
 H619 H 0.60048 0.26213 0.64161
 H620 H 0.56747 0.26037 0.61372
 H621 H 0.64552 0.26981 0.71441
 H622 H 0.67883 0.27294 0.74111
 H623 H 0.70128 0.23194 0.66239
 H624 H 0.66786 0.22867 0.63631
 C625 C 0.74397 0.10025 0.92779
 C626 C 0.74424 0.11947 0.91351
 C627 C 0.73920 0.12252 0.87790
 C628 C 0.73362 0.10608 0.85659
 C629 C 0.73304 0.08685 0.87085
 C630 C 0.73830 0.08349 0.90677
 N631 N 0.73989 0.14239 0.86404
 N632 N 0.73819 0.14586 0.83089
 C633 C 0.73880 0.16568 0.81686
 C634 C 0.74051 0.16823 0.78003
 C635 C 0.74174 0.18736 0.76548
 C636 C 0.74093 0.20431 0.78759
 C637 C 0.73878 0.20173 0.82454
 C638 C 0.73786 0.18256 0.83912
 H639 H 0.74741 0.09882 0.95580
 H640 H 0.74840 0.13207 0.93031
 H641 H 0.72972 0.10807 0.82886
 H642 H 0.72921 0.07464 0.85303
 H643 H 0.74118 0.15534 0.76262
 H644 H 0.74328 0.18889 0.73689
 H645 H 0.73817 0.21451 0.84222
 H646 H 0.73643 0.18093 0.86769
 C647 C 0.22723 0.58782 0.45225
 C648 C 0.22716 0.60629 0.43504
 C649 C 0.23138 0.60763 0.39862
 C650 C 0.23531 0.59015 0.37929
 C651 C 0.23529 0.57167 0.39640
 C652 C 0.23145 0.57029 0.43317
 N653 N 0.23200 0.62688 0.38212
 N654 N 0.23726 0.62924 0.34980
 C655 C 0.23821 0.64847 0.33324
 C656 C 0.24549 0.64999 0.29842
 C657 C 0.24716 0.66857 0.28176
 C658 C 0.24143 0.68600 0.29968
 C659 C 0.23388 0.68439 0.33455
 C660 C 0.23233 0.66580 0.35124
 H661 H 0.22448 0.58734 0.48066
 H662 H 0.22415 0.61965 0.45026
 H663 H 0.23848 0.59078 0.35104
 H664 H 0.23826 0.55844 0.38080
 H665 H 0.25006 0.63675 0.28427
 H666 H 0.25298 0.66928 0.25488
 H667 H 0.22935 0.69752 0.34910
 H668 H 0.22662 0.66500 0.37819
 C669 C 0.28583 0.90609 0.94823
 C670 C 0.28602 0.88758 0.93096
 C671 C 0.27841 0.88538 0.89654
 C672 C 0.27085 0.90205 0.87910
 C673 C 0.27060 0.92060 0.89623
 C674 C 0.27788 0.92302 0.93141
 N675 N 0.27800 0.86599 0.88031
 N676 N 0.27081 0.86294 0.84934
 C677 C 0.26987 0.84350 0.83336
 C678 C 0.26141 0.84131 0.79948
 C679 C 0.25952 0.82246 0.78364
 C680 C 0.26609 0.80542 0.80152
 C681 C 0.27485 0.80771 0.83539
 C682 C 0.27672 0.82658 0.85120
 H683 H 0.29102 0.90662 0.97549
 H684 H 0.29177 0.87478 0.94479
 H685 H 0.26507 0.90078 0.85224
 H686 H 0.26515 0.93304 0.88113
 H687 H 0.25607 0.85423 0.78549
 H688 H 0.25272 0.82122 0.75752
 H689 H 0.28007 0.79489 0.84986
 H690 H 0.28332 0.82791 0.87745
 C691 C 0.77412 0.42976 0.36134
 C692 C 0.77373 0.41149 0.34315
 C693 C 0.76213 0.39542 0.35587
 C694 C 0.75053 0.39793 0.38670
 C695 C 0.75056 0.41631 0.40443
 C696 C 0.76248 0.43231 0.39204
 N697 N 0.76226 0.37677 0.33709
 N698 N 0.75638 0.36060 0.35174
 C699 C 0.75588 0.34189 0.33317
 C700 C 0.75417 0.32428 0.35289
 C701 C 0.75340 0.30576 0.33569
 C702 C 0.75385 0.30458 0.29831
 C703 C 0.75541 0.32229 0.27848
 C704 C 0.75662 0.34082 0.29579
 H705 H 0.78333 0.44196 0.35128
 H706 H 0.78268 0.40976 0.31937
 H707 H 0.74133 0.38575 0.39687
 H708 H 0.74154 0.41797 0.42815
 H709 H 0.75351 0.32493 0.38169
 H710 H 0.75204 0.29236 0.35163
 H711 H 0.75579 0.32180 0.24965
 H712 H 0.75780 0.35428 0.28002
 C713 C 0.07281 0.25209 0.86559
 C714 C 0.09113 0.25040 0.84821
 C715 C 0.10891 0.25573 0.86567
 C716 C 0.10818 0.26297 0.90083
 C717 C 0.08987 0.26466 0.91826
 C718 C 0.07197 0.25915 0.90089
 N719 N 0.12746 0.25335 0.84735
 N720 N 0.14414 0.25804 0.86162
 C721 C 0.16273 0.25539 0.84359
 C722 C 0.18043 0.26118 0.86083
 C723 C 0.19886 0.25852 0.84429
 C724 C 0.19988 0.24993 0.81009
 C725 C 0.18204 0.24420 0.79275
 C726 C 0.16362 0.24691 0.80933
 H727 H 0.05928 0.24798 0.85133
 H728 H 0.09150 0.24485 0.82109
 H729 H 0.12173 0.26712 0.91496
 H730 H 0.08974 0.26989 0.94560
 H731 H 0.17994 0.26771 0.88724
 H732 H 0.21230 0.26309 0.85839
 H733 H 0.18231 0.23756 0.76641
 H734 H 0.15012 0.24229 0.79545
 C735 C 0.57994 0.74250 0.37131
 C736 C 0.59771 0.74092 0.35216
 C737 C 0.61163 0.75679 0.35163
 C738 C 0.60748 0.77448 0.37016
 C739 C 0.58957 0.77620 0.38886
 C740 C 0.57569 0.76019 0.38973
 N741 N 0.62976 0.75459 0.33198
 N742 N 0.64437 0.76693 0.33493
 C743 C 0.66237 0.76475 0.31489
 C744 C 0.67930 0.77614 0.32441
 C745 C 0.69723 0.77395 0.30594
 C746 C 0.69837 0.76055 0.27713
 C747 C 0.68123 0.74943 0.26715
 C748 C 0.66341 0.75139 0.28602
 H749 H 0.56939 0.73002 0.37136
 H750 H 0.60073 0.72724 0.33789
 H751 H 0.61799 0.78698 0.37001
 H752 H 0.58665 0.78994 0.40305
 H753 H 0.67866 0.78653 0.34654
 H754 H 0.71018 0.78277 0.31413
 H755 H 0.68168 0.73895 0.24514
 H756 H 0.65047 0.74251 0.27802
 C757 C 0.93034 0.74773 0.84962
 C758 C 0.91255 0.74913 0.83048
 C759 C 0.89429 0.75020 0.84835
 C760 C 0.89401 0.75020 0.88580
 C761 C 0.91182 0.74905 0.90497
 C762 C 0.93013 0.74767 0.88705
 N763 N 0.87630 0.75127 0.82794
 N764 N 0.85915 0.74968 0.84230
 C765 C 0.84112 0.75093 0.82209
 C766 C 0.82291 0.74668 0.83889
 C767 C 0.80500 0.74781 0.82002
 C768 C 0.80503 0.75347 0.78399
 C769 C 0.82336 0.75780 0.76718
 C770 C 0.84127 0.75645 0.78602
 H771 H 0.94429 0.74685 0.83521
 H772 H 0.91295 0.74919 0.80164
 H773 H 0.88008 0.75110 0.90022
 H774 H 0.91125 0.74887 0.93381
 H775 H 0.82260 0.74244 0.86670
 H776 H 0.79114 0.74447 0.83377
 H777 H 0.82387 0.76217 0.73945
 H778 H 0.85518 0.75987 0.77248
 C779 C 0.42061 0.23754 0.36522
 C780 C 0.40214 0.23872 0.34813
 C781 C 0.38453 0.23961 0.36803
 C782 C 0.38559 0.23950 0.40543
 C783 C 0.40405 0.23854 0.42254
 C784 C 0.42174 0.23749 0.40260
 N785 N 0.36583 0.24071 0.34975
 N786 N 0.34924 0.23937 0.36615
 C787 C 0.33048 0.24070 0.34817
 C788 C 0.31292 0.23677 0.36726
 C789 C 0.29435 0.23796 0.35060
 C790 C 0.29303 0.24334 0.31452
 C791 C 0.31071 0.24740 0.29545
 C792 C 0.32929 0.24601 0.31207
 H793 H 0.43404 0.23690 0.34925
 H794 H 0.40153 0.23885 0.31931
 H795 H 0.37218 0.24022 0.42142
 H796 H 0.40449 0.23832 0.45138
 H797 H 0.31366 0.23272 0.39511
 H798 H 0.28101 0.23482 0.36606
 H799 H 0.31019 0.25155 0.26762
 H800 H 0.34267 0.24919 0.29679
 C801 C 0.75056 0.93407 0.85566
 C802 C 0.75255 0.91632 0.83641
 C803 C 0.74290 0.89877 0.84760
 C804 C 0.73097 0.89916 0.87828
 C805 C 0.72885 0.91687 0.89754
 C806 C 0.73868 0.93476 0.88679
 N807 N 0.74559 0.88076 0.82764
 N808 N 0.73771 0.86418 0.83722
 C809 C 0.74043 0.84606 0.81766
 C810 C 0.73190 0.82833 0.83078
 C811 C 0.73453 0.81029 0.81280
 C812 C 0.74576 0.80968 0.78118
 C813 C 0.75419 0.82756 0.76786
 C814 C 0.75158 0.84560 0.78597
 H815 H 0.75786 0.94730 0.84506
 H816 H 0.76166 0.91625 0.81259
 H817 H 0.72344 0.88573 0.88766
 H818 H 0.72016 0.91608 0.92177
 H819 H 0.72327 0.82850 0.85517
 H820 H 0.72782 0.79681 0.82376
 H821 H 0.76292 0.82759 0.74359
 H822 H 0.75831 0.85913 0.77527
 C823 C 0.25635 0.41815 0.40582
 C824 C 0.25673 0.40034 0.38635
 C825 C 0.24091 0.38645 0.38867
 C826 C 0.22444 0.39067 0.41038
 C827 C 0.22392 0.40860 0.42949
 C828 C 0.23993 0.42245 0.42754
 N829 N 0.24199 0.36820 0.36886
 N830 N 0.22961 0.35376 0.37338
 C831 C 0.23083 0.33558 0.35339
 C832 C 0.21923 0.31900 0.36382
 C833 C 0.22068 0.30082 0.34567
 C834 C 0.23357 0.29907 0.31633
 C835 C 0.24485 0.31588 0.30540
 C836 C 0.24360 0.33395 0.32388
 H837 H 0.26879 0.42867 0.40362
 H838 H 0.26948 0.39727 0.36964
 H839 H 0.21200 0.38016 0.41250
 H840 H 0.21115 0.41153 0.44625
 H841 H 0.20930 0.32008 0.38647
 H842 H 0.21175 0.28815 0.35463
 H843 H 0.25495 0.31498 0.28297
 H844 H 0.25263 0.34660 0.31518
 C845 C 0.28746 0.08285 0.93257
 C846 C 0.28731 0.10132 0.91542
 C847 C 0.26973 0.10838 0.90061
 C848 C 0.25209 0.09687 0.90360
 C849 C 0.25206 0.07858 0.92134
 C850 C 0.26978 0.07110 0.93608
 N851 N 0.27011 0.12731 0.88298
 N852 N 0.25584 0.13272 0.86315
 C853 C 0.25585 0.15177 0.84601
 C854 C 0.24198 0.15506 0.81896
 C855 C 0.24152 0.17348 0.80171
 C856 C 0.25472 0.18909 0.81179
 C857 C 0.26852 0.18583 0.83924
 C858 C 0.26921 0.16726 0.85604
 H859 H 0.30136 0.07833 0.94435
 H860 H 0.30099 0.11017 0.91359
 H861 H 0.23828 0.10203 0.89232
 H862 H 0.23818 0.07004 0.92203
 H863 H 0.23157 0.14326 0.81111
 H864 H 0.23064 0.17559 0.78081
 H865 H 0.27889 0.19758 0.84751
 H866 H 0.27998 0.16509 0.87706
 C867 C 0.75454 0.59915 0.41952
 C868 C 0.75390 0.61784 0.40328
 C869 C 0.75393 0.61941 0.36614
 C870 C 0.75463 0.60200 0.34521
 C871 C 0.75547 0.58329 0.36142
 C872 C 0.75543 0.58170 0.39875
 N873 N 0.75354 0.63883 0.35045
 N874 N 0.75166 0.64137 0.31705
 C875 C 0.75162 0.66088 0.30163
 C876 C 0.74681 0.66285 0.26556
 C877 C 0.74647 0.68172 0.24984
 C878 C 0.75121 0.69893 0.26995
 C879 C 0.75626 0.69687 0.30609
 C880 C 0.75637 0.67803 0.32184
 H881 H 0.75473 0.59835 0.44834
 H882 H 0.75344 0.63116 0.41967
 H883 H 0.75471 0.60285 0.31642
 H884 H 0.75601 0.57006 0.34483
 H885 H 0.74318 0.64974 0.24969
 H886 H 0.74259 0.68282 0.22192
 H887 H 0.75993 0.70984 0.32231
 H888 H 0.76023 0.67688 0.34975
 C889 C 0.08181 0.72474 0.87009
 C890 C 0.10021 0.72500 0.85258
 C891 C 0.11517 0.73879 0.86228
 C892 C 0.11141 0.75276 0.88925
 C893 C 0.09285 0.75294 0.90615
 C894 C 0.07770 0.73881 0.89713
 N895 N 0.13397 0.73851 0.84423
 N896 N 0.14969 0.74617 0.85810
 C897 C 0.16845 0.74653 0.83989
 C898 C 0.18598 0.74918 0.85971
 C899 C 0.20453 0.74967 0.84275
 C900 C 0.20576 0.74809 0.80548
 C901 C 0.18813 0.74571 0.78553
 C902 C 0.16960 0.74469 0.80264
 H903 H 0.07058 0.71400 0.86117
 H904 H 0.10288 0.71427 0.83155
 H905 H 0.12279 0.76362 0.89711
 H906 H 0.09083 0.76369 0.92736
 H907 H 0.18526 0.75070 0.88841
 H908 H 0.21789 0.75167 0.85869
 H909 H 0.18870 0.74444 0.75678
 H910 H 0.15619 0.74280 0.78680
 C911 C 0.58947 0.22545 0.42620
 C912 C 0.60854 0.22668 0.41129
 C913 C 0.61138 0.23449 0.37714
 C914 C 0.59483 0.24108 0.35784
 C915 C 0.57571 0.23986 0.37273
 C916 C 0.57283 0.23203 0.40710
 N917 N 0.63119 0.23567 0.36294
 N918 N 0.63500 0.24285 0.33229
 C919 C 0.65491 0.24403 0.31848
 C920 C 0.65814 0.25234 0.28479
 C921 C 0.67742 0.25388 0.27071
 C922 C 0.69384 0.24709 0.29019
 C923 C 0.69052 0.23867 0.32400
 C924 C 0.67124 0.23716 0.33803
 H925 H 0.58780 0.21966 0.45295
 H926 H 0.62119 0.22163 0.42647
 H927 H 0.59665 0.24715 0.33133
 H928 H 0.56317 0.24485 0.35723
 H929 H 0.64568 0.25768 0.26946
 H930 H 0.67946 0.26042 0.24460
 H931 H 0.70283 0.23330 0.33969
 H932 H 0.66914 0.23067 0.36416
 C933 C 0.91757 0.23966 0.87990
 C934 C 0.89957 0.23881 0.86106
 C935 C 0.88731 0.25543 0.85995
 C936 C 0.89341 0.27311 0.87747
 C937 C 0.91154 0.27407 0.89583
 C938 C 0.92373 0.25732 0.89739
 N939 N 0.86874 0.25396 0.84113
 N940 N 0.85550 0.26716 0.84428
 C941 C 0.83691 0.26591 0.82555
 C942 C 0.82152 0.27841 0.83596
 C943 C 0.80296 0.27715 0.81912
 C944 C 0.79961 0.26357 0.79099
 C945 C 0.81524 0.25136 0.77993
 C946 C 0.83371 0.25239 0.79727
 H947 H 0.92679 0.22660 0.88051
 H948 H 0.89504 0.22512 0.84761
 H949 H 0.88422 0.28618 0.87689
 H950 H 0.91592 0.28781 0.90930
 H951 H 0.82384 0.28893 0.85763
 H952 H 0.79122 0.28681 0.82808
 H953 H 0.81305 0.24072 0.75841
 H954 H 0.84545 0.24266 0.78862
 C955 C 0.42620 0.75572 0.35665
 C956 C 0.40773 0.75328 0.33976
 C957 C 0.39012 0.75788 0.35767
 C958 C 0.39117 0.76525 0.39274
 C959 C 0.40964 0.76772 0.40968
 C960 C 0.42736 0.76284 0.39189
 N961 N 0.37145 0.75459 0.33984
 N962 N 0.35480 0.75836 0.35441
 C963 C 0.33622 0.75474 0.33640
 C964 C 0.31845 0.75977 0.35340
 C965 C 0.30007 0.75634 0.33655
 C966 C 0.29920 0.74773 0.30233
 C967 C 0.31710 0.74264 0.28538
 C968 C 0.33544 0.74613 0.30221
 H969 H 0.43958 0.75209 0.34209
 H970 H 0.40711 0.74764 0.31269
 H971 H 0.37774 0.76888 0.40717
 H972 H 0.41003 0.77300 0.43699
 H973 H 0.31885 0.76638 0.37977
 H974 H 0.28656 0.76043 0.35033
 H975 H 0.31697 0.73601 0.25902
 H976 H 0.34897 0.74206 0.28852
 C977 C 0.23823 0.91308 0.12906
 C978 C 0.23592 0.89436 0.14502
 C979 C 0.25183 0.88122 0.14598
 C980 C 0.27030 0.88713 0.13124
 C981 C 0.27272 0.90598 0.11580
 C982 C 0.25667 0.91907 0.11440
 N983 N 0.24890 0.86208 0.16225
 N984 N 0.26140 0.84820 0.15870
 C985 C 0.25862 0.82919 0.17551
 C986 C 0.27072 0.81342 0.16534
 C987 C 0.26832 0.79466 0.18114
 C988 C 0.25396 0.79150 0.20793
 C989 C 0.24195 0.80743 0.21837
 C990 C 0.24415 0.82608 0.20213
 H991 H 0.22569 0.92298 0.12850
 H992 H 0.22164 0.89000 0.15640
 H993 H 0.28285 0.87726 0.13184
 H994 H 0.28704 0.91024 0.10446
 H995 H 0.28196 0.81565 0.14493
 H996 H 0.27785 0.78270 0.17268
 H997 H 0.23073 0.80542 0.23887
 H998 H 0.23469 0.83809 0.21058
 C999 C 0.78256 0.41672 0.57388
 C1000 C 0.78235 0.39821 0.59095
 C1001 C 0.76733 0.39328 0.61547
 C1002 C 0.75240 0.40711 0.62278
 C1003 C 0.75246 0.42551 0.60544
 C1004 C 0.76752 0.43048 0.58079
 N1005 N 0.76728 0.37405 0.63195
 N1006 N 0.75537 0.36952 0.65720
 C1007 C 0.75480 0.35013 0.67309
 C1008 C 0.74303 0.34696 0.70340
 C1009 C 0.74172 0.32811 0.71908
 C1010 C 0.75201 0.31199 0.70434
 C1011 C 0.76386 0.31522 0.67390
 C1012 C 0.76533 0.33415 0.65849
 H1013 H 0.79422 0.42013 0.55476
 H1014 H 0.79389 0.38765 0.58500
 H1015 H 0.74059 0.40362 0.64156
 H1016 H 0.74080 0.43593 0.61143
 H1017 H 0.73481 0.35915 0.71482
 H1018 H 0.73241 0.32608 0.74242
 H1019 H 0.77199 0.30312 0.66197
 H1020 H 0.77446 0.33622 0.63496
 C1021 C 0.72071 0.09684 0.06238
 C1022 C 0.72192 0.11584 0.07789
 C1023 C 0.72649 0.11810 0.11406
 C1024 C 0.72945 0.10104 0.13489
 C1025 C 0.72817 0.08203 0.11947
 C1026 C 0.72398 0.07971 0.08295
 N1027 N 0.72848 0.13781 0.12876
 N1028 N 0.73397 0.14086 0.16082
 C1029 C 0.73626 0.16049 0.17572
 C1030 C 0.74309 0.16251 0.21077
 C1031 C 0.74576 0.18140 0.22613
 C1032 C 0.74156 0.19869 0.20662
 C1033 C 0.73463 0.19662 0.17140
 C1034 C 0.73203 0.17767 0.15603
 H1035 H 0.71778 0.09561 0.03408
 H1036 H 0.71966 0.12886 0.06153
 H1037 H 0.73288 0.10239 0.16299
 H1038 H 0.73049 0.06914 0.13612
 H1039 H 0.74642 0.14938 0.22619
 H1040 H 0.75108 0.18245 0.25333
 H1041 H 0.73125 0.20962 0.15568
 H1042 H 0.72673 0.17648 0.12884
 C1043 C 0.24665 0.57079 0.66096
 C1044 C 0.24737 0.58916 0.67878
 C1045 C 0.24791 0.60701 0.65955
 C1046 C 0.24794 0.60631 0.62212
 C1047 C 0.24744 0.58797 0.60429
 C1048 C 0.24674 0.57003 0.62353
 N1049 N 0.24858 0.62561 0.67850
 N1050 N 0.24685 0.64219 0.66253
 C1051 C 0.24791 0.66097 0.68080
 C1052 C 0.24413 0.67833 0.66167
 C1053 C 0.24554 0.69700 0.67826
 C1054 C 0.25096 0.69863 0.71437
 C1055 C 0.25463 0.68113 0.73364
 C1056 C 0.25304 0.66243 0.71703
 H1057 H 0.24626 0.55717 0.67639
 H1058 H 0.24741 0.58951 0.70762
 H1059 H 0.24841 0.61990 0.60664
 H1060 H 0.24731 0.58779 0.57544
 H1061 H 0.24018 0.67739 0.63373
 H1062 H 0.24268 0.71017 0.66263
 H1063 H 0.25882 0.68189 0.76148
 H1064 H 0.25608 0.64919 0.73234
 C1065 C 0.92655 0.73677 0.11951
 C1066 C 0.90830 0.73770 0.13731
 C1067 C 0.89036 0.73539 0.11858
 C1068 C 0.89085 0.73179 0.08167
 C1069 C 0.90911 0.73087 0.06380
 C1070 C 0.92717 0.73355 0.08248
 N1071 N 0.87197 0.73736 0.13750
 N1072 N 0.85505 0.73522 0.12242
 C1073 C 0.83676 0.73776 0.14148
 C1074 C 0.81864 0.73435 0.12376
 C1075 C 0.80054 0.73715 0.14140
 C1076 C 0.80030 0.74353 0.17715
 C1077 C 0.81854 0.74686 0.19491
 C1078 C 0.83661 0.74397 0.17729
 H1079 H 0.94019 0.73860 0.13474
 H1080 H 0.90811 0.74043 0.16576
 H1081 H 0.87716 0.73001 0.06659
 H1082 H 0.90909 0.72861 0.03522
 H1083 H 0.81856 0.72960 0.09615
 H1084 H 0.78675 0.73447 0.12695
 H1085 H 0.81888 0.75174 0.22245
 H1086 H 0.85043 0.74675 0.19157
 C1087 C 0.40365 0.21728 0.56964
 C1088 C 0.38496 0.21741 0.58613
 C1089 C 0.38336 0.22150 0.62258
 C1090 C 0.40078 0.22508 0.64266
 C1091 C 0.41948 0.22487 0.62625
 C1092 C 0.42114 0.22116 0.58947
 N1093 N 0.36393 0.22245 0.63835
 N1094 N 0.36151 0.22751 0.67075
 C1095 C 0.34220 0.22890 0.68672
 C1096 C 0.34084 0.23589 0.72176
 C1097 C 0.32225 0.23812 0.73789
 C1098 C 0.30460 0.23327 0.71919
 C1099 C 0.30600 0.22596 0.68411
 C1100 C 0.32464 0.22384 0.66795
 H1101 H 0.40437 0.21465 0.54119
 H1102 H 0.37165 0.21468 0.57035
 H1103 H 0.39995 0.22817 0.67094
 H1104 H 0.43266 0.22761 0.64238
 H1105 H 0.35426 0.23983 0.73649
 H1106 H 0.32171 0.24372 0.76496
 H1107 H 0.29269 0.22210 0.66901
 H1108 H 0.32532 0.21839 0.64080
 C1109 C 0.08432 0.27996 0.08956
 C1110 C 0.10268 0.28002 0.10725
 C1111 C 0.10800 0.26375 0.12819
 C1112 C 0.09479 0.24724 0.13100
 C1113 C 0.07655 0.24705 0.11292
 C1114 C 0.07112 0.26345 0.09213
 N1115 N 0.12693 0.26425 0.14592
 N1116 N 0.13148 0.25134 0.16914
 C1117 C 0.15052 0.25148 0.18645
 C1118 C 0.15338 0.23870 0.21526
 C1119 C 0.17183 0.23826 0.23254
 C1120 C 0.18786 0.25045 0.22090
 C1121 C 0.18497 0.26325 0.19185
 C1122 C 0.16642 0.26386 0.17488
 H1123 H 0.08057 0.29269 0.07341
 H1124 H 0.11276 0.29278 0.10475
 H1125 H 0.09861 0.23445 0.14692
 H1126 H 0.06658 0.23420 0.11547
 H1127 H 0.14126 0.22906 0.22435
 H1128 H 0.17360 0.22817 0.25471
 H1129 H 0.19703 0.27283 0.18231
 H1130 H 0.16457 0.27381 0.15254
 C1131 C 0.57697 0.76463 0.61984
 C1132 C 0.59514 0.76367 0.63790
 C1133 C 0.61309 0.76779 0.62017
 C1134 C 0.61270 0.77309 0.58400
 C1135 C 0.59453 0.77401 0.56584
 C1136 C 0.57645 0.76967 0.58352
 N1137 N 0.63144 0.76610 0.63932
 N1138 N 0.64831 0.77019 0.62527
 C1139 C 0.66661 0.76812 0.64448
 C1140 C 0.68456 0.77399 0.62824
 C1141 C 0.70268 0.77201 0.64619
 C1142 C 0.70312 0.76397 0.68073
 C1143 C 0.68504 0.75805 0.69694
 C1144 C 0.66694 0.76013 0.67903
 H1145 H 0.56331 0.76149 0.63436
 H1146 H 0.59525 0.75963 0.66580
 H1147 H 0.62641 0.77628 0.56967
 H1148 H 0.59467 0.77767 0.53778
 H1149 H 0.68450 0.78012 0.60160
 H1150 H 0.71634 0.77669 0.63294
 H1151 H 0.68486 0.75184 0.72352
 H1152 H 0.65326 0.75543 0.69214
   
