data_POSCAR
  _audit_creation_date              2014-09-24
  _audit_creation_method            'ToBaCCo'
  _symmetry_space_group_name_H-M    'P1'
  _symmetry_Int_Tables_number       1
  _symmetry_cell_setting            triclinic
  loop_
  _symmetry_equiv_pos_as_xyz
 x,y,z
_cell_length_a 32.2442
_cell_length_b 29.3871
_cell_length_c 21.8473
_cell_angle_alpha 90.510100
_cell_angle_beta 90.401100
_cell_angle_gamma 90.252200
loop_
  _atom_site_label
  _atom_site_type_symbol
  _atom_site_fract_x
  _atom_site_fract_y
  _atom_site_fract_z
Zr1 Zr -0.08449 0.01886 0.00468
 O2 O -0.13433 -0.01174 -0.04440
 O3 O -0.11583 0.06062 0.06733
 O4 O -0.11975 -0.02490 0.06071
 O5 O -0.06568 0.10462 -0.09843
 O6 O -0.07122 -0.07282 0.10054
 O7 O -0.11720 0.06657 -0.04873
 O8 O -0.06344 0.09170 0.12504
 O9 O -0.04834 0.00974 0.08370
 O10 O -0.04524 0.07556 0.01154
 O11 O -0.05265 -0.04260 -0.00971
 O12 O -0.05117 0.02081 -0.07833
 Zr13 Zr 0.06049 0.00775 -0.00505
 Zr14 Zr -0.01413 -0.04952 0.06707
 Zr15 Zr -0.00999 0.07577 -0.06767
 Zr16 Zr -0.00803 0.06542 0.08809
 O17 O -0.00961 0.07683 -0.16447
 O18 O -0.00910 0.04558 0.18114
 O19 O 0.02886 0.06963 0.00926
 O20 O 0.02655 0.00584 0.07706
 O21 O 0.02162 -0.04942 -0.01224
 O22 O 0.02384 0.01658 -0.08341
 C23 C -0.10193 0.08698 0.11016
 C24 C -0.10396 0.09721 -0.08575
 C25 C -0.10886 -0.05947 0.09284
 O26 O -0.00860 -0.05191 0.16352
 O27 O 0.04103 -0.08389 0.08861
 O28 O 0.09290 -0.04266 0.04449
 C29 C 0.07942 -0.07603 0.07688
 O30 O -0.07343 -0.05471 -0.13292
 Zr31 Zr -0.01624 -0.03896 -0.08841
 O32 O 0.09159 -0.03434 -0.06766
 O33 O -0.02168 -0.11991 0.04854
 O34 O -0.02461 -0.11056 -0.08578
 O35 O -0.01152 -0.02334 -0.18269
 O36 O 0.03864 -0.07024 -0.11879
 C37 C 0.07725 -0.06408 -0.10596
 O38 O 0.11035 0.03604 0.04638
 O39 O -0.00823 0.14686 -0.05088
 O40 O 0.09588 0.05478 -0.05671
 O41 O 0.04704 0.10423 -0.09213
 O42 O -0.00356 0.13744 0.08709
 O43 O 0.04890 0.08777 0.12807
 C44 C 0.08465 0.09110 -0.08520
 H45 H -0.06014 0.10482 0.01492
 H46 H 0.04510 0.00205 0.11294
 H47 H 0.04059 0.01885 -0.12109
 H48 H -0.07233 -0.06840 -0.01405
 H49 H -0.01507 0.07313 0.20598
 H50 H -0.01154 -0.08428 0.17505
 H51 H -0.02032 -0.13576 0.08837
 H52 H -0.01896 -0.12276 -0.12732
 H53 H -0.00953 0.14873 0.12899
 H54 H -0.00929 0.16202 -0.09121
 H55 H -0.00717 0.10917 -0.17640
 H56 H -0.00626 -0.05232 -0.20476
 H57 H 0.04320 0.10474 0.16644
 H58 H 0.13638 0.02425 0.02832
 H59 H -0.16040 0.00050 -0.02701
 H60 H -0.06863 -0.07703 -0.16633
 Zr61 Zr 0.56115 0.50829 0.49611
 O62 O 0.61090 0.53745 0.54691
 O63 O 0.59224 0.46532 0.43456
 O64 O 0.59365 0.45895 0.54759
 O65 O 0.54828 0.60319 0.40579
 O66 O 0.54171 0.41865 0.59298
 O67 O 0.59677 0.55419 0.44342
 O68 O 0.53931 0.42911 0.38376
 O69 O 0.52227 0.45107 0.49028
 O70 O 0.52462 0.51610 0.41733
 O71 O 0.52708 0.50785 0.57808
 O72 O 0.52961 0.57052 0.50828
 Zr73 Zr 0.41628 0.51996 0.50456
 Zr74 Zr 0.48642 0.45240 0.56950
 Zr75 Zr 0.49090 0.57568 0.43099
 Zr76 Zr 0.48449 0.46058 0.41365
 O77 O 0.49305 0.64696 0.44593
 O78 O 0.47625 0.38903 0.41828
 O79 O 0.44970 0.52062 0.42165
 O80 O 0.44803 0.45820 0.49232
 O81 O 0.45227 0.51200 0.58402
 O82 O 0.45553 0.57672 0.51010
 C83 C 0.57789 0.43539 0.39653
 C84 C 0.58583 0.58997 0.41361
 C85 C 0.58019 0.42633 0.58133
 O86 O 0.47892 0.38177 0.55281
 O87 O 0.42906 0.43009 0.60341
 O88 O 0.38073 0.47728 0.56149
 C89 C 0.39144 0.44334 0.59488
 O90 O 0.54958 0.59077 0.62613
 Zr91 Zr 0.49261 0.56767 0.58707
 O92 O 0.38486 0.56235 0.56620
 O93 O 0.49156 0.45134 0.66602
 O94 O 0.49162 0.54937 0.68071
 O95 O 0.49687 0.63967 0.58426
 O96 O 0.43715 0.59421 0.62335
 C97 C 0.39869 0.58912 0.60858
 O98 O 0.36665 0.48864 0.45584
 O99 O 0.49129 0.57530 0.33418
 O100 O 0.38358 0.56695 0.44990
 O101 O 0.43514 0.60445 0.39955
 O102 O 0.48914 0.47470 0.31888
 O103 O 0.42727 0.44410 0.36972
 C104 C 0.39677 0.59720 0.41226
 H105 H 0.54141 0.51772 0.37963
 H106 H 0.42832 0.43238 0.48864
 H107 H 0.44061 0.60602 0.51273
 H108 H 0.54554 0.50468 0.61418
 H109 H 0.48191 0.37621 0.37708
 H110 H 0.48007 0.36658 0.59311
 H111 H 0.48852 0.41913 0.67833
 H112 H 0.48572 0.57733 0.70473
 H113 H 0.49409 0.44538 0.29746
 H114 H 0.49384 0.60745 0.32143
 H115 H 0.49216 0.66150 0.40517
 H116 H 0.49091 0.65149 0.62590
 H117 H 0.43203 0.42119 0.33702
 H118 H 0.34049 0.50108 0.47266
 H119 H 0.63701 0.52538 0.52941
 H120 H 0.54394 0.60820 0.66415
 Zr121 Zr 0.58288 -0.02057 0.50311
 O122 O 0.63162 0.01189 0.45551
 O123 O 0.61571 -0.06574 0.55933
 O124 O 0.62023 0.02043 0.56174
 O125 O 0.56031 -0.09993 0.39005
 O126 O 0.57320 0.06602 0.60980
 O127 O 0.61346 -0.06537 0.44255
 O128 O 0.56450 -0.09985 0.61440
 O129 O 0.54916 -0.01561 0.58459
 O130 O 0.54323 -0.07707 0.50444
 O131 O 0.55119 0.04171 0.49789
 O132 O 0.54713 -0.01752 0.42165
 Zr133 Zr 0.43761 -0.00716 0.50143
 Zr134 Zr 0.51505 0.04465 0.57698
 Zr135 Zr 0.50564 -0.07243 0.42710
 Zr136 Zr 0.50834 -0.07092 0.58355
 O137 O 0.50188 -0.06799 0.33065
 O138 O 0.51243 -0.05663 0.67867
 O139 O 0.46912 -0.06997 0.50627
 O140 O 0.47405 -0.01058 0.58178
 O141 O 0.47702 0.04965 0.49961
 O142 O 0.47191 -0.01222 0.42060
 C143 C 0.60269 -0.09439 0.59912
 C144 C 0.59905 -0.09364 0.40222
 C145 C 0.61046 0.05349 0.59791
 O146 O 0.51298 0.04138 0.67358
 O147 O 0.46130 0.07824 0.60624
 O148 O 0.40750 0.04090 0.55900
 C149 C 0.42250 0.07194 0.59521
 O150 O 0.56861 0.06045 0.37585
 Zr151 Zr 0.51256 0.04291 0.42074
 O152 O 0.40533 0.03852 0.44504
 O153 O 0.52235 0.11582 0.56686
 O154 O 0.52201 0.11403 0.43160
 O155 O 0.50475 0.03248 0.32517
 O156 O 0.45745 0.07656 0.39684
 C157 C 0.41910 0.07002 0.40987
 O158 O 0.38876 -0.03725 0.55140
 O159 O 0.50389 -0.14423 0.43464
 O160 O 0.40012 -0.05126 0.44652
 O161 O 0.44738 -0.09915 0.40305
 O162 O 0.50281 -0.14252 0.57314
 O163 O 0.45248 -0.09498 0.62333
 C164 C 0.41010 -0.08632 0.41380
 H165 H 0.55795 -0.10654 0.50347
 H166 H 0.45666 -0.00867 0.61888
 H167 H 0.45399 -0.01227 0.38361
 H168 H 0.57091 0.06754 0.49569
 H169 H 0.51904 -0.08557 0.69942
 H170 H 0.51659 0.07296 0.68903
 H171 H 0.52272 0.12944 0.60855
 H172 H 0.51545 0.12850 0.39190
 H173 H 0.51015 -0.15641 0.61294
 H174 H 0.50338 -0.15695 0.39246
 H175 H 0.49856 -0.09954 0.31497
 H176 H 0.49912 0.06260 0.30693
 H177 H 0.45921 -0.11431 0.65892
 H178 H 0.36245 -0.02398 0.53608
 H179 H 0.65806 -0.00144 0.47022
 H180 H 0.56303 0.08419 0.34501
 Zr181 Zr -0.06339 0.49562 0.00198
 O182 O -0.12310 0.48289 0.03807
 O183 O -0.09452 0.53895 -0.06018
 O184 O -0.08975 0.53888 0.06870
 O185 O -0.06233 0.41584 -0.11237
 O186 O -0.03467 0.57698 0.11054
 O187 O -0.09727 0.43787 -0.02811
 O188 O -0.04296 0.58813 -0.08332
 O189 O -0.02292 0.55148 0.00142
 O190 O -0.03275 0.49297 -0.08241
 O191 O -0.02510 0.48852 0.07996
 O192 O -0.03385 0.43178 0.00128
 Zr193 Zr 0.08076 0.47831 -0.00759
 Zr194 Zr 0.01723 0.54278 0.07557
 Zr195 Zr -0.00089 0.43112 -0.08163
 Zr196 Zr 0.00977 0.54668 -0.08046
 O197 O -0.01039 0.36002 -0.07611
 O198 O 0.02716 0.61627 -0.07364
 O199 O 0.04213 0.48496 -0.08589
 O200 O 0.05062 0.54162 -0.00635
 O201 O 0.05021 0.48139 0.07685
 O202 O 0.03949 0.42288 -0.00701
 C203 C -0.08138 0.57682 -0.08219
 C204 C -0.09556 0.41707 -0.07993
 C205 C -0.07375 0.56994 0.10346
 O206 O 0.02547 0.61408 0.06863
 O207 O 0.07665 0.56238 0.10483
 O208 O 0.12098 0.51803 0.04953
 C209 C 0.11317 0.55015 0.08851
 O210 O -0.04372 0.40154 0.12343
 Zr211 Zr 0.00788 0.42749 0.07515
 O212 O 0.11461 0.43096 0.04408
 O213 O 0.01857 0.53608 0.17184
 O214 O 0.01427 0.43698 0.17094
 O215 O -0.00138 0.35679 0.06078
 O216 O 0.06425 0.39638 0.10010
 C217 C 0.10209 0.40160 0.08326
 O218 O 0.12918 0.51013 -0.05662
 O219 O -0.00114 0.43734 -0.17791
 O220 O 0.10755 0.43551 -0.07470
 O221 O 0.05201 0.39929 -0.11926
 O222 O -0.00788 0.54301 -0.17414
 O223 O 0.06431 0.55919 -0.13189
 C224 C 0.09141 0.40593 -0.11196
 H225 H -0.05152 0.49433 -0.11841
 H226 H 0.07085 0.56695 -0.00868
 H227 H 0.05330 0.39296 -0.00997
 H228 H -0.04104 0.48912 0.11853
 H229 H 0.01838 0.63113 -0.11215
 H230 H 0.02754 0.62650 0.11090
 H231 H 0.02309 0.56707 0.18889
 H232 H 0.01922 0.40660 0.18891
 H233 H -0.01381 0.57456 -0.18705
 H234 H -0.00866 0.40693 -0.19460
 H235 H -0.01239 0.34847 -0.11878
 H236 H 0.00724 0.34130 0.09891
 H237 H 0.05796 0.58006 -0.16601
 H238 H 0.15555 0.49540 -0.04420
 H239 H -0.14360 0.49739 0.01030
 H240 H -0.06871 0.41054 0.09995
 Zr241 Zr 0.08611 0.48467 0.49598
 O242 O 0.13289 0.44670 0.54064
 O243 O 0.12113 0.52541 0.43703
 O244 O 0.11685 0.44015 0.43472
 O245 O 0.07594 0.56571 0.61020
 O246 O 0.06378 0.40200 0.38694
 O247 O 0.12335 0.52594 0.55394
 O248 O 0.07157 0.56716 0.38806
 O249 O 0.04905 0.48506 0.41677
 O250 O 0.05222 0.54528 0.49856
 O251 O 0.04875 0.42611 0.50168
 O252 O 0.05347 0.48446 0.57971
 Zr253 Zr -0.05904 0.48779 0.50706
 Zr254 Zr 0.00957 0.42876 0.42505
 Zr255 Zr 0.01744 0.54374 0.57838
 Zr256 Zr 0.01403 0.54452 0.42184
 O257 O 0.01831 0.53764 0.67478
 O258 O 0.01275 0.53186 0.32618
 O259 O -0.02197 0.54694 0.50170
 O260 O -0.02583 0.48828 0.42434
 O261 O -0.02560 0.42687 0.50477
 O262 O -0.02159 0.48733 0.58568
 C263 C 0.10950 0.55653 0.39985
 C264 C 0.11330 0.55597 0.59437
 C265 C 0.10243 0.40987 0.39702
 O266 O 0.00372 0.43402 0.32888
 O267 O -0.04843 0.40192 0.39961
 O268 O -0.09610 0.44483 0.45077
 C269 C -0.08580 0.41269 0.41340
 O270 O 0.06922 0.40461 0.62209
 Zr271 Zr 0.01328 0.42802 0.58133
 O272 O -0.09344 0.44406 0.56275
 O273 O 0.01030 0.35698 0.43259
 O274 O 0.01537 0.35647 0.56796
 O275 O 0.00979 0.43663 0.67755
 O276 O -0.04393 0.39988 0.60754
 C277 C -0.08179 0.41045 0.59597
 O278 O -0.10619 0.52453 0.46136
 O279 O 0.02148 0.61553 0.57279
 O280 O -0.09022 0.53389 0.56608
 O281 O -0.03715 0.57531 0.60867
 O282 O 0.01666 0.61620 0.43372
 O283 O -0.04073 0.57539 0.38722
 C284 C -0.07588 0.56671 0.59987
 H285 H 0.06973 0.57301 0.49867
 H286 H -0.04475 0.48900 0.38847
 H287 H -0.03799 0.48849 0.62381
 H288 H 0.06584 0.39821 0.50183
 H289 H 0.02123 0.56040 0.30587
 H290 H 0.00313 0.40251 0.31237
 H291 H 0.00732 0.34425 0.39060
 H292 H 0.00910 0.34207 0.60771
 H293 H 0.02350 0.62964 0.39356
 H294 H 0.02397 0.62750 0.61523
 H295 H 0.01874 0.56903 0.69167
 H296 H 0.00298 0.40644 0.69472
 H297 H -0.03370 0.59447 0.35159
 H298 H -0.13319 0.51396 0.47765
 H299 H 0.15996 0.45686 0.52414
 H300 H 0.06292 0.38004 0.65138
 Zr301 Zr 0.44084 -0.01227 0.00738
 O302 O 0.39390 0.02433 -0.03897
 O303 O 0.40603 -0.05540 0.06354
 O304 O 0.40423 -0.05540 -0.04930
 O305 O 0.46201 0.07433 0.11079
 O306 O 0.45232 -0.09708 -0.10136
 O307 O 0.40933 0.03350 0.06612
 O308 O 0.45547 -0.09993 0.10790
 O309 O 0.47447 -0.07305 0.00447
 O310 O 0.47793 -0.01318 0.08636
 O311 O 0.47449 -0.01072 -0.07492
 O312 O 0.47770 0.04714 0.00346
 Zr313 Zr 0.58608 -0.01423 -0.00243
 Zr314 Zr 0.51014 -0.07007 -0.07483
 Zr315 Zr 0.51680 0.04341 0.08047
 Zr316 Zr 0.51295 -0.07228 0.08146
 O317 O 0.52049 0.11529 0.07611
 O318 O 0.51449 -0.14368 0.06657
 O319 O 0.55305 -0.01568 0.08099
 O320 O 0.54890 -0.07304 0.00219
 O321 O 0.54945 -0.01337 -0.08203
 O322 O 0.55184 0.04608 0.00113
 C323 C 0.41759 -0.08887 0.09705
 C324 C 0.42340 0.06583 0.10092
 C325 C 0.41482 -0.08697 -0.08734
 O326 O 0.51122 -0.14192 -0.06846
 O327 O 0.56475 -0.09647 -0.11249
 O328 O 0.61732 -0.05816 -0.06382
 C329 C 0.60332 -0.08852 -0.10171
 O330 O 0.45939 0.07583 -0.11241
 Zr331 Zr 0.51409 0.04589 -0.07608
 O332 O 0.62095 0.02857 -0.05944
 O333 O 0.50472 -0.06410 -0.17092
 O334 O 0.51493 0.03369 -0.17184
 O335 O 0.51457 0.11746 -0.06247
 O336 O 0.57151 0.07136 -0.10698
 C337 C 0.60944 0.06094 -0.09490
 O338 O 0.63312 -0.05238 0.04141
 O339 O 0.51726 0.03659 0.17673
 O340 O 0.62289 0.02602 0.05709
 O341 O 0.57510 0.06515 0.11342
 O342 O 0.50998 -0.06388 0.17785
 O343 O 0.56848 -0.09712 0.12187
 C344 C 0.61255 0.05556 0.09791
 H345 H 0.46144 -0.01230 0.12440
 H346 H 0.56609 -0.10086 0.00214
 H347 H 0.56906 0.07401 0.00248
 H348 H 0.45573 -0.00990 -0.11097
 H349 H 0.50775 -0.15849 0.10587
 H350 H 0.50834 -0.15432 -0.11064
 H351 H 0.50425 -0.09552 -0.18772
 H352 H 0.52333 0.06249 -0.19158
 H353 H 0.50233 -0.09381 0.19511
 H354 H 0.51779 0.06789 0.19393
 H355 H 0.52298 0.12686 0.11875
 H356 H 0.52152 0.13174 -0.10207
 H357 H 0.56172 -0.12161 0.15107
 H358 H 0.66018 -0.04172 0.02539
 H359 H 0.36683 0.01374 -0.02295
 H360 H 0.46667 0.09484 -0.14799
 Zr361 Zr 0.41612 0.51323 -0.00323
 O362 O 0.36996 0.54785 0.04737
 O363 O 0.37988 0.47383 -0.06439
 O364 O 0.38377 0.56151 -0.05665
 O365 O 0.42931 0.42368 0.09616
 O366 O 0.43544 0.60524 -0.09669
 O367 O 0.38063 0.46894 0.05119
 O368 O 0.42799 0.44170 -0.12751
 O369 O 0.45104 0.52013 -0.08324
 O370 O 0.45014 0.45315 -0.01266
 O371 O 0.45361 0.57116 0.01150
 O372 O 0.45104 0.50698 0.07863
 Zr373 Zr 0.56161 0.51063 0.00200
 Zr374 Zr 0.49081 0.57561 -0.06636
 Zr375 Zr 0.48694 0.44839 0.06549
 Zr376 Zr 0.48623 0.46092 -0.09019
 O377 O 0.48864 0.44596 0.16221
 O378 O 0.48587 0.48226 -0.18264
 O379 O 0.52440 0.45210 -0.01258
 O380 O 0.52614 0.51674 -0.07893
 O381 O 0.52818 0.57118 0.01174
 O382 O 0.52610 0.50407 0.08130
 C383 C 0.39051 0.44825 -0.10970
 C384 C 0.39153 0.43565 0.08554
 C385 C 0.39707 0.59547 -0.08809
 O386 O 0.49365 0.57894 -0.16291
 O387 O 0.54830 0.60430 -0.09021
 O388 O 0.59723 0.55773 -0.04843
 C389 C 0.58607 0.59239 -0.08029
 O390 O 0.43671 0.58346 0.13559
 Zr391 Zr 0.49129 0.56311 0.08888
 O392 O 0.59792 0.54928 0.06382
 O393 O 0.49052 0.64610 -0.04560
 O394 O 0.48882 0.63523 0.08845
 O395 O 0.49701 0.54579 0.18260
 O396 O 0.54941 0.58891 0.11779
 C397 C 0.58708 0.57965 0.10332
 O398 O 0.60728 0.47756 -0.05128
 O399 O 0.48300 0.37764 0.04693
 O400 O 0.59417 0.46085 0.05244
 O401 O 0.54236 0.41524 0.08829
 O402 O 0.48343 0.38878 -0.09145
 O403 O 0.54011 0.43315 -0.13151
 C404 C 0.58077 0.42549 0.08088
 H405 H 0.43275 0.42543 -0.01636
 H406 H 0.54408 0.51912 -0.11536
 H407 H 0.54340 0.49991 0.11844
 H408 H 0.43641 0.59867 0.01719
 H409 H 0.47693 0.45589 -0.20810
 H410 H 0.49356 0.61165 -0.17354
 H411 H 0.49241 0.66242 -0.08501
 H412 H 0.49654 0.64618 0.13005
 H413 H 0.47577 0.37898 -0.13358
 H414 H 0.48152 0.36207 0.08693
 H415 H 0.48879 0.41334 0.17328
 H416 H 0.50542 0.57381 0.20508
 H417 H 0.53226 0.41747 -0.17022
 H418 H 0.63475 0.48679 -0.03445
 H419 H 0.34260 0.53835 0.03037
 H420 H 0.44419 0.60440 0.16971
 Zr421 Zr 0.06130 0.01140 0.50303
 O422 O 0.10614 -0.02253 0.44918
 O423 O 0.09848 0.05021 0.56332
 O424 O 0.09665 0.05778 0.45090
 O425 O 0.04231 -0.08287 0.59171
 O426 O 0.04752 0.10426 0.40946
 O427 O 0.09405 -0.03824 0.55349
 O428 O 0.05086 0.09068 0.61792
 O429 O 0.02839 0.07231 0.51247
 O430 O 0.02663 0.00603 0.58335
 O431 O 0.02497 0.01690 0.42290
 O432 O 0.02356 -0.04695 0.49066
 Zr433 Zr -0.08419 0.01542 0.50135
 Zr434 Zr -0.00977 0.07622 0.43517
 Zr435 Zr -0.01309 -0.04942 0.56966
 Zr436 Zr -0.00772 0.06543 0.59065
 O437 O -0.01768 -0.12034 0.55268
 O438 O -0.00941 0.13756 0.58885
 O439 O -0.04847 0.00959 0.58253
 O440 O -0.04614 0.07312 0.51400
 O441 O -0.05005 0.02092 0.42040
 O442 O -0.05072 -0.04510 0.49240
 C443 C 0.08826 0.08092 0.60267
 C444 C 0.08069 -0.07315 0.58295
 C445 C 0.08531 0.09222 0.41872
 O446 O -0.00940 0.14695 0.45440
 O447 O -0.06519 0.10592 0.40534
 O448 O -0.11675 0.06359 0.44822
 C449 C -0.10351 0.09676 0.41530
 O450 O 0.03754 -0.06649 0.37003
 Zr451 Zr -0.01542 -0.03872 0.41389
 O452 O -0.12163 -0.02221 0.44000
 O453 O -0.00789 0.07832 0.33847
 O454 O -0.01853 -0.01857 0.32103
 O455 O -0.01706 -0.11088 0.41489
 O456 O -0.07427 -0.05978 0.38110
 C457 C -0.11159 -0.05070 0.39773
 O458 O -0.12910 0.05074 0.55348
 O459 O -0.01041 -0.05076 0.66636
 O460 O -0.11949 -0.02894 0.55614
 O461 O -0.07053 -0.07347 0.60188
 O462 O -0.00128 0.04901 0.68458
 O463 O -0.06159 0.08697 0.63819
 C464 C -0.10838 -0.06185 0.59107
 H465 H 0.04429 0.00208 0.62016
 H466 H -0.06303 0.10088 0.51955
 H467 H -0.06831 -0.07272 0.48977
 H468 H 0.04248 0.01875 0.38594
 H469 H -0.00116 0.14886 0.63007
 H470 H -0.00792 0.16279 0.41459
 H471 H -0.00788 0.11089 0.32709
 H472 H -0.02808 -0.04527 0.29668
 H473 H 0.00759 0.07715 0.70640
 H474 H -0.01036 -0.08325 0.67806
 H475 H -0.01878 -0.13545 0.59304
 H476 H -0.02579 -0.12155 0.37358
 H477 H -0.05356 0.10825 0.67166
 H478 H -0.15679 0.04160 0.53736
 H479 H 0.13385 -0.01337 0.46521
 H480 H 0.02879 -0.08254 0.33200
 Zr481 Zr 0.73702 0.18311 0.25180
 O482 O 0.70148 0.13422 0.29940
 O483 O 0.77393 0.14179 0.19551
 O484 O 0.69624 0.14712 0.19272
 O485 O 0.81065 0.19844 0.36528
 O486 O 0.66196 0.20327 0.14184
 O487 O 0.77390 0.14436 0.31191
 O488 O 0.81312 0.19350 0.14363
 O489 O 0.73796 0.22013 0.17022
 O490 O 0.79278 0.21976 0.25197
 O491 O 0.68427 0.22482 0.25505
 O492 O 0.73705 0.22251 0.33328
 Zr493 Zr 0.74199 0.34264 0.25335
 Zr494 Zr 0.68730 0.26426 0.17593
 Zr495 Zr 0.79168 0.26125 0.32934
 Zr496 Zr 0.79271 0.25825 0.17286
 O497 O 0.78667 0.26434 0.42565
 O498 O 0.78088 0.25477 0.07734
 O499 O 0.79528 0.30120 0.25035
 O500 O 0.74207 0.30258 0.17289
 O501 O 0.68589 0.30648 0.25324
 O502 O 0.74105 0.30493 0.33416
 C503 C 0.80275 0.15258 0.15794
 C504 C 0.80133 0.15683 0.35178
 C505 C 0.66877 0.16136 0.15439
 O506 O 0.69210 0.26575 0.07946
 O507 O 0.66438 0.32680 0.14540
 O508 O 0.70197 0.38109 0.19674
 C509 C 0.67331 0.36846 0.15872
 O510 O 0.66286 0.20858 0.37653
 Zr511 Zr 0.68638 0.26731 0.33222
 O512 O 0.70492 0.38389 0.30946
 O513 O 0.62189 0.26485 0.18377
 O514 O 0.62113 0.26555 0.31917
 O515 O 0.69479 0.27505 0.42811
 O516 O 0.66243 0.33184 0.35447
 C517 C 0.67367 0.37287 0.34241
 O518 O 0.77560 0.39155 0.20295
 O519 O 0.85704 0.25644 0.32319
 O520 O 0.78527 0.37867 0.30895
 O521 O 0.82067 0.32198 0.35694
 O522 O 0.85800 0.25618 0.18500
 O523 O 0.82152 0.31627 0.13383
 C524 C 0.81432 0.36407 0.34443
 H525 H 0.81780 0.20043 0.25347
 H526 H 0.74295 0.32178 0.13590
 H527 H 0.74255 0.32444 0.37130
 H528 H 0.65854 0.20637 0.25638
 H529 H 0.80665 0.24417 0.05741
 H530 H 0.66338 0.26575 0.06304
 H531 H 0.61032 0.26612 0.14166
 H532 H 0.60820 0.27508 0.35824
 H533 H 0.87030 0.24647 0.14555
 H534 H 0.86809 0.25524 0.36560
 H535 H 0.81544 0.26455 0.44181
 H536 H 0.66792 0.28518 0.44511
 H537 H 0.83855 0.30664 0.09849
 H538 H 0.76676 0.42201 0.21771
 H539 H 0.71029 0.10371 0.28477
 H540 H 0.64148 0.21769 0.40652
 Zr541 Zr 0.76453 0.81682 0.74716
 O542 O 0.79917 0.86831 0.79314
 O543 O 0.72811 0.85501 0.68632
 O544 O 0.80664 0.84989 0.68822
 O545 O 0.68811 0.80712 0.85620
 O546 O 0.84235 0.79133 0.64429
 O547 O 0.72686 0.85842 0.80287
 O548 O 0.69000 0.80057 0.63576
 O549 O 0.76544 0.77565 0.66830
 O550 O 0.70884 0.77994 0.74634
 O551 O 0.81719 0.77546 0.75706
 O552 O 0.76266 0.78152 0.83117
 Zr553 Zr 0.75950 0.65747 0.75974
 Zr554 Zr 0.81603 0.73202 0.68068
 Zr555 Zr 0.70808 0.74250 0.82651
 Zr556 Zr 0.71067 0.73753 0.67001
 O557 O 0.71165 0.74481 0.92317
 O558 O 0.72472 0.73691 0.57536
 O559 O 0.70633 0.69858 0.75011
 O560 O 0.76130 0.69344 0.67670
 O561 O 0.81558 0.69375 0.76078
 O562 O 0.75863 0.69930 0.83777
 C563 C 0.69966 0.84224 0.64833
 C564 C 0.69835 0.84798 0.84131
 C565 C 0.83518 0.83386 0.65313
 O566 O 0.81332 0.72533 0.58426
 O567 O 0.83996 0.66802 0.65653
 O568 O 0.80088 0.61633 0.70837
 C569 C 0.83050 0.62704 0.67166
 O570 O 0.83466 0.79798 0.87954
 Zr571 Zr 0.81333 0.73689 0.83676
 O572 O 0.79436 0.61949 0.82274
 O573 O 0.88119 0.73214 0.69333
 O574 O 0.87884 0.73976 0.82899
 O575 O 0.80344 0.73234 0.93240
 O576 O 0.83804 0.67353 0.86223
 C577 C 0.82621 0.63188 0.85455
 O578 O 0.72749 0.60562 0.71054
 O579 O 0.64287 0.74662 0.81586
 O580 O 0.71438 0.62451 0.81411
 O581 O 0.67829 0.68328 0.85677
 O582 O 0.64514 0.73922 0.67757
 O583 O 0.68322 0.67750 0.63240
 C584 C 0.68479 0.64063 0.84723
 H585 H 0.68374 0.79915 0.74501
 H586 H 0.76128 0.67238 0.64108
 H587 H 0.75630 0.68170 0.87604
 H588 H 0.84282 0.79409 0.75893
 H589 H 0.69937 0.74634 0.55305
 H590 H 0.84238 0.72469 0.56982
 H591 H 0.89376 0.72866 0.65228
 H592 H 0.89079 0.73212 0.86952
 H593 H 0.63358 0.74676 0.63675
 H594 H 0.63102 0.75029 0.85735
 H595 H 0.68271 0.74575 0.93805
 H596 H 0.83017 0.72328 0.95121
 H597 H 0.66709 0.68531 0.59524
 H598 H 0.73591 0.57613 0.72846
 H599 H 0.79053 0.89795 0.77588
 H600 H 0.85519 0.79071 0.91188
 Zr601 Zr 0.26082 0.32146 0.74723
 O602 O 0.23279 0.37222 0.69289
 O603 O 0.29697 0.36133 0.80742
 O604 O 0.21886 0.36083 0.80031
 O605 O 0.34291 0.29763 0.65122
 O606 O 0.17181 0.30874 0.83416
 O607 O 0.30515 0.35564 0.69297
 O608 O 0.32198 0.30910 0.87483
 O609 O 0.25130 0.28628 0.82896
 O610 O 0.31332 0.28097 0.76016
 O611 O 0.20603 0.28353 0.73303
 O612 O 0.26545 0.28005 0.66777
 Zr613 Zr 0.25478 0.16188 0.75081
 Zr614 Zr 0.19866 0.24558 0.81294
 Zr615 Zr 0.31633 0.23749 0.68444
 Zr616 Zr 0.30312 0.24475 0.83964
 O617 O 0.31974 0.23383 0.58783
 O618 O 0.28277 0.24821 0.93166
 O619 O 0.31006 0.19951 0.76477
 O620 O 0.25016 0.20401 0.82919
 O621 O 0.20172 0.20172 0.73762
 O622 O 0.26346 0.19771 0.66960
 C623 C 0.31808 0.35006 0.85503
 C624 C 0.33487 0.34002 0.65963
 C625 C 0.18474 0.34987 0.82733
 O626 O 0.19430 0.24955 0.90938
 O627 O 0.17105 0.18483 0.84334
 O628 O 0.20956 0.12721 0.80252
 C629 C 0.17935 0.14233 0.83509
 O630 O 0.19843 0.29824 0.60685
 Zr631 Zr 0.21206 0.23913 0.65852
 O632 O 0.21784 0.12233 0.69092
 O633 O 0.13475 0.24547 0.79011
 O634 O 0.14672 0.24734 0.65652
 O635 O 0.22798 0.22733 0.56569
 O636 O 0.18424 0.17632 0.63500
 C637 C 0.19026 0.13500 0.65197
 O638 O 0.28220 0.11209 0.80748
 O639 O 0.38047 0.23669 0.70573
 O640 O 0.29809 0.12147 0.70203
 O641 O 0.34215 0.17404 0.66174
 O642 O 0.36889 0.24511 0.84297
 O643 O 0.32537 0.18557 0.88428
 C644 C 0.33049 0.13274 0.67117
 H645 H 0.33942 0.29863 0.76398
 H646 H 0.24675 0.18588 0.86680
 H647 H 0.26633 0.17740 0.63350
 H648 H 0.18223 0.30384 0.72503
 H649 H 0.30684 0.25767 0.95726
 H650 H 0.16434 0.25068 0.91903
 H651 H 0.11925 0.24641 0.82913
 H652 H 0.13675 0.23783 0.61531
 H653 H 0.37738 0.25454 0.88491
 H654 H 0.39547 0.23644 0.66628
 H655 H 0.34950 0.23113 0.57745
 H656 H 0.20210 0.21868 0.54373
 H657 H 0.34002 0.19452 0.92255
 H658 H 0.27250 0.08192 0.79229
 H659 H 0.24262 0.40203 0.70915
 H660 H 0.17922 0.29022 0.57282
 Zr661 Zr 0.23434 0.68056 0.24893
 O662 O 0.26545 0.62595 0.20537
 O663 O 0.19265 0.64619 0.30604
 O664 O 0.27141 0.64308 0.31093
 O665 O 0.16444 0.69841 0.13150
 O666 O 0.31103 0.69762 0.35846
 O667 O 0.19513 0.64307 0.18874
 O668 O 0.15953 0.70385 0.35626
 O669 O 0.23619 0.72102 0.32850
 O670 O 0.18223 0.72268 0.24532
 O671 O 0.29070 0.71677 0.24491
 O672 O 0.23871 0.71659 0.16572
 Zr673 Zr 0.24413 0.83985 0.23951
 Zr674 Zr 0.29077 0.75955 0.32203
 Zr675 Zr 0.18779 0.76072 0.16598
 Zr676 Zr 0.18526 0.76446 0.32241
 O677 O 0.19419 0.76018 0.06976
 O678 O 0.19562 0.76521 0.41838
 O679 O 0.18727 0.80408 0.24290
 O680 O 0.23974 0.80331 0.32175
 O681 O 0.29666 0.79827 0.24286
 O682 O 0.24227 0.79898 0.16054
 C683 C 0.16564 0.66157 0.34397
 C684 C 0.17015 0.65656 0.14634
 C685 C 0.30065 0.65596 0.34783
 O686 O 0.28507 0.76455 0.41823
 O687 O 0.31862 0.82096 0.35074
 O688 O 0.28660 0.87657 0.29585
 C689 C 0.31350 0.86281 0.33546
 O690 O 0.31107 0.69343 0.12469
 Zr691 Zr 0.29323 0.75612 0.16584
 O692 O 0.28565 0.87469 0.18277
 O693 O 0.35606 0.75412 0.31575
 O694 O 0.35785 0.74793 0.18072
 O695 O 0.28682 0.76107 0.06954
 O696 O 0.32361 0.81684 0.14151
 C697 C 0.31620 0.85928 0.15146
 O698 O 0.21484 0.89418 0.28633
 O699 O 0.12222 0.76173 0.17044
 O700 O 0.20437 0.87758 0.18155
 O701 O 0.16396 0.82302 0.13556
 O702 O 0.12013 0.76739 0.30877
 O703 O 0.16131 0.82709 0.35607
 C704 C 0.17407 0.86477 0.14649
 H705 H 0.15566 0.70569 0.24411
 H706 H 0.24021 0.82399 0.35778
 H707 H 0.24290 0.81713 0.12259
 H708 H 0.31464 0.69581 0.24489
 H709 H 0.16871 0.75878 0.43823
 H710 H 0.31354 0.76275 0.43540
 H711 H 0.36732 0.75581 0.35806
 H712 H 0.37200 0.75436 0.14158
 H713 H 0.10679 0.76141 0.34866
 H714 H 0.11162 0.76003 0.12778
 H715 H 0.16571 0.76150 0.05260
 H716 H 0.31486 0.76717 0.05319
 H717 H 0.14291 0.82116 0.39125
 H718 H 0.22652 0.92292 0.27010
 H719 H 0.25357 0.59725 0.22141
 H720 H 0.33384 0.69884 0.09541
 Zr721 Zr 0.24219 0.84293 0.75339
 O722 O 0.27584 0.89208 0.70346
 O723 O 0.20501 0.88396 0.80962
 O724 O 0.20226 0.88164 0.69700
 O725 O 0.32105 0.82177 0.85679
 O726 O 0.16456 0.82760 0.64529
 O727 O 0.28556 0.87864 0.80927
 O728 O 0.16190 0.83179 0.85304
 O729 O 0.18608 0.80676 0.75278
 O730 O 0.24117 0.80490 0.83393
 O731 O 0.24225 0.80325 0.67257
 O732 O 0.29546 0.80149 0.75022
 Zr733 Zr 0.23715 0.68343 0.75053
 Zr734 Zr 0.18748 0.76485 0.67515
 Zr735 Zr 0.29182 0.76118 0.82891
 Zr736 Zr 0.18645 0.76733 0.83147
 O737 O 0.35720 0.75639 0.82320
 O738 O 0.12120 0.76494 0.81856
 O739 O 0.23712 0.72247 0.83235
 O740 O 0.18438 0.72512 0.75399
 O741 O 0.23818 0.72081 0.66925
 O742 O 0.29290 0.72013 0.75110
 C743 C 0.17334 0.87288 0.84165
 C744 C 0.31471 0.86391 0.84452
 C745 C 0.17355 0.86919 0.65895
 O746 O 0.12207 0.76536 0.68283
 O747 O 0.16222 0.70390 0.64053
 O748 O 0.19658 0.64755 0.69090
 C749 C 0.16913 0.66190 0.65262
 O750 O 0.32174 0.81728 0.63408
 Zr751 Zr 0.29289 0.75899 0.67233
 O752 O 0.27411 0.64241 0.69400
 O753 O 0.19240 0.76682 0.57871
 O754 O 0.28122 0.75604 0.57675
 O755 O 0.35818 0.75676 0.68442
 O756 O 0.31322 0.69443 0.64255
 C757 C 0.30293 0.65345 0.65660
 O758 O 0.20150 0.63447 0.79781
 O759 O 0.28637 0.76375 0.92519
 O760 O 0.27411 0.64432 0.81013
 O761 O 0.31104 0.69805 0.86389
 O762 O 0.19451 0.77554 0.92732
 O763 O 0.16337 0.70844 0.87586
 C764 C 0.30169 0.65650 0.84993
 H765 H 0.24263 0.82434 0.87114
 H766 H 0.15868 0.70661 0.75511
 H767 H 0.31795 0.70083 0.75240
 H768 H 0.24317 0.82262 0.63575
 H769 H 0.10823 0.77438 0.85764
 H770 H 0.11056 0.76680 0.64070
 H771 H 0.16370 0.76691 0.56220
 H772 H 0.30703 0.74558 0.55682
 H773 H 0.16755 0.78569 0.94394
 H774 H 0.31507 0.76365 0.94165
 H775 H 0.36813 0.75503 0.86567
 H776 H 0.37047 0.74734 0.64484
 H777 H 0.14206 0.71739 0.90604
 H778 H 0.21028 0.60399 0.78303
 H779 H 0.26701 0.92247 0.71849
 H780 H 0.33876 0.80790 0.59861
 Zr781 Zr 0.25745 0.15653 0.25483
 O782 O 0.22495 0.10480 0.20612
 O783 O 0.29326 0.11863 0.31650
 O784 O 0.29855 0.11499 0.20395
 O785 O 0.17603 0.18270 0.35096
 O786 O 0.33850 0.16652 0.15326
 O787 O 0.21281 0.12373 0.31020
 O788 O 0.33402 0.17325 0.36167
 O789 O 0.31353 0.19282 0.25656
 O790 O 0.25616 0.19873 0.33249
 O791 O 0.25983 0.19203 0.17152
 O792 O 0.20431 0.19751 0.24415
 Zr793 Zr 0.26258 0.31585 0.24066
 Zr794 Zr 0.31450 0.23063 0.17610
 Zr795 Zr 0.20570 0.24183 0.32006
 Zr796 Zr 0.31082 0.23638 0.33211
 O797 O 0.14060 0.24597 0.30809
 O798 O 0.37635 0.23745 0.32413
 O799 O 0.26021 0.28094 0.32499
 O800 O 0.31513 0.27451 0.25202
 O801 O 0.26402 0.27414 0.16237
 O802 O 0.20689 0.27895 0.23951
 C803 C 0.32345 0.13152 0.35129
 C804 C 0.18300 0.13999 0.34275
 C805 C 0.32868 0.12562 0.16820
 O806 O 0.37961 0.23083 0.18948
 O807 O 0.34124 0.28949 0.13939
 O808 O 0.30535 0.34839 0.18212
 C809 C 0.33414 0.33206 0.14768
 O810 O 0.18180 0.17562 0.12710
 Zr811 Zr 0.20924 0.23600 0.16371
 O812 O 0.22651 0.35353 0.17852
 O813 O 0.31242 0.22333 0.07972
 O814 O 0.22380 0.23411 0.06923
 O815 O 0.14367 0.23837 0.17021
 O816 O 0.18933 0.29859 0.12751
 C817 C 0.19868 0.34039 0.13968
 O818 O 0.29675 0.36796 0.28612
 O819 O 0.20832 0.24460 0.41678
 O820 O 0.22480 0.35763 0.29605
 O821 O 0.18601 0.30648 0.34954
 O822 O 0.29970 0.23437 0.42764
 O823 O 0.33301 0.29758 0.37360
 C824 C 0.19638 0.34730 0.33469
 H825 H 0.25371 0.18138 0.37094
 H826 H 0.34079 0.29309 0.25407
 H827 H 0.18187 0.29827 0.23759
 H828 H 0.26003 0.17080 0.13608
 H829 H 0.38820 0.23021 0.36485
 H830 H 0.39241 0.22683 0.14867
 H831 H 0.34156 0.22245 0.06568
 H832 H 0.19856 0.24313 0.04632
 H833 H 0.32604 0.22549 0.44777
 H834 H 0.17925 0.24550 0.43114
 H835 H 0.12842 0.24979 0.34934
 H836 H 0.13245 0.24527 0.12897
 H837 H 0.35390 0.29030 0.40546
 H838 H 0.28811 0.39738 0.26820
 H839 H 0.23332 0.07529 0.22402
 H840 H 0.16578 0.18304 0.08968
 Zr841 Zr 0.75688 0.65801 0.25153
 O842 O 0.78410 0.60649 0.30558
 O843 O 0.71805 0.61990 0.19235
 O844 O 0.71219 0.62377 0.30478
 O845 O 0.84275 0.67035 0.15954
 O846 O 0.67648 0.68174 0.34999
 O847 O 0.79933 0.61777 0.20138
 O848 O 0.68212 0.67526 0.14241
 O849 O 0.70422 0.69913 0.24433
 O850 O 0.76301 0.69464 0.17040
 O851 O 0.75653 0.69889 0.33130
 O852 O 0.81315 0.69451 0.26095
 Zr853 Zr 0.76556 0.81758 0.25095
 Zr854 Zr 0.70546 0.74191 0.32104
 Zr855 Zr 0.81683 0.73364 0.18126
 Zr856 Zr 0.71182 0.73722 0.16521
 O857 O 0.88192 0.73359 0.19507
 O858 O 0.64667 0.74651 0.16930
 O859 O 0.76603 0.77720 0.17024
 O860 O 0.70975 0.78069 0.24142
 O861 O 0.75926 0.78139 0.33268
 O862 O 0.81779 0.77594 0.25806
 C863 C 0.68889 0.63348 0.15654
 C864 C 0.83166 0.62919 0.17060
 C865 C 0.68310 0.63923 0.33920
 O866 O 0.64085 0.74651 0.30456
 O867 O 0.68336 0.80529 0.35055
 O868 O 0.72567 0.85772 0.30587
 C869 C 0.69470 0.84642 0.33965
 O870 O 0.83290 0.67833 0.37949
 Zr871 Zr 0.81052 0.73846 0.33735
 O872 O 0.80408 0.85573 0.31018
 O873 O 0.70531 0.74167 0.41785
 O874 O 0.79436 0.74266 0.43114
 O875 O 0.87617 0.73564 0.33351
 O876 O 0.83364 0.80142 0.37029
 C877 C 0.82858 0.84289 0.35339
 O878 O 0.73652 0.86937 0.19950
 O879 O 0.81581 0.72889 0.08460
 O880 O 0.80808 0.85180 0.19390
 O881 O 0.84216 0.79379 0.14572
 O882 O 0.72392 0.72642 0.07090
 O883 O 0.69659 0.79736 0.11675
 C884 C 0.83551 0.83622 0.15655
 H885 H 0.76452 0.67446 0.13395
 H886 H 0.68589 0.80148 0.23669
 H887 H 0.84429 0.79304 0.25947
 H888 H 0.75415 0.68016 0.36857
 H889 H 0.63491 0.73791 0.12875
 H890 H 0.62714 0.74674 0.34503
 H891 H 0.67595 0.74418 0.43052
 H892 H 0.81980 0.75101 0.45441
 H893 H 0.69710 0.71862 0.05094
 H894 H 0.84503 0.72596 0.07151
 H895 H 0.89491 0.73290 0.15407
 H896 H 0.88713 0.74442 0.37446
 H897 H 0.67649 0.78997 0.08362
 H898 H 0.74756 0.89893 0.21488
 H899 H 0.77344 0.57684 0.28994
 H900 H 0.84917 0.68662 0.41659
 Zr901 Zr 0.74888 0.34062 0.73768
 O902 O 0.72820 0.39764 0.78847
 O903 O 0.78565 0.37284 0.67252
 O904 O 0.80201 0.37207 0.77822
 O905 O 0.66483 0.32571 0.64040
 O906 O 0.82334 0.32174 0.85048
 O907 O 0.70698 0.37961 0.68435
 O908 O 0.82494 0.31349 0.63878
 O909 O 0.79957 0.29678 0.74053
 O910 O 0.74326 0.29849 0.66045
 O911 O 0.74466 0.30668 0.82204
 O912 O 0.69087 0.30762 0.74620
 Zr913 Zr 0.73399 0.18276 0.75384
 Zr914 Zr 0.79407 0.26080 0.82213
 Zr915 Zr 0.68776 0.26301 0.67079
 Zr916 Zr 0.79305 0.25389 0.66504
 O917 O 0.62243 0.26643 0.67885
 O918 O 0.85766 0.24284 0.67566
 O919 O 0.73725 0.21687 0.66916
 O920 O 0.79127 0.21665 0.74621
 O921 O 0.73870 0.22426 0.83227
 O922 O 0.68304 0.22658 0.75155
 C923 C 0.81677 0.35627 0.64387
 C924 C 0.67564 0.36731 0.65081
 C925 C 0.82598 0.36009 0.82284
 O926 O 0.85902 0.25348 0.81309
 O927 O 0.81262 0.19870 0.85976
 O928 O 0.77062 0.14482 0.81554
 C929 C 0.80075 0.15728 0.85096
 O930 O 0.66781 0.33310 0.86125
 Zr931 Zr 0.68908 0.26941 0.82720
 O932 O 0.69263 0.15037 0.81303
 O933 O 0.79036 0.26705 0.91848
 O934 O 0.70191 0.27082 0.92248
 O935 O 0.62391 0.27525 0.81638
 O936 O 0.66186 0.20963 0.86319
 C937 C 0.66657 0.16688 0.85147
 O938 O 0.76292 0.12656 0.71060
 O939 O 0.69144 0.26074 0.57419
 O940 O 0.69253 0.14598 0.69658
 O941 O 0.66180 0.20132 0.63940
 O942 O 0.78499 0.25792 0.56895
 O943 O 0.80745 0.18953 0.62560
 C944 C 0.66693 0.15965 0.65517
 H945 H 0.74303 0.31571 0.62170
 H946 H 0.81454 0.19479 0.74601
 H947 H 0.65598 0.21059 0.75208
 H948 H 0.74686 0.32842 0.85682
 H949 H 0.87072 0.24836 0.63545
 H950 H 0.87105 0.25494 0.85495
 H951 H 0.81897 0.26387 0.93470
 H952 H 0.67544 0.26485 0.94380
 H953 H 0.81294 0.26275 0.55160
 H954 H 0.66267 0.26362 0.55855
 H955 H 0.61068 0.26451 0.63685
 H956 H 0.61116 0.26953 0.85676
 H957 H 0.82903 0.19332 0.59399
 H958 H 0.75034 0.09850 0.72748
 H959 H 0.74117 0.42471 0.76960
 H960 H 0.65012 0.32806 0.89748
 C961 C 0.11665 0.37838 0.85630
 C962 C 0.15974 0.38464 0.85080
 H963 H 0.10260 0.34959 0.83236
 H964 H 0.17333 0.41778 0.86031
 C965 C 0.36714 0.62824 0.38321
 C966 C 0.32622 0.62095 0.37763
 H967 H 0.38033 0.65904 0.36422
 H968 H 0.31244 0.58899 0.39137
 C969 C 0.85886 0.91023 0.61893
 C970 C 0.86400 0.86520 0.62282
 H971 H 0.83036 0.92608 0.63391
 H972 H 0.89161 0.85007 0.60330
 C973 C 0.64538 0.08359 0.12561
 C974 C 0.64074 0.12869 0.12456
 H975 H 0.67311 0.06805 0.14408
 H976 H 0.61383 0.14281 0.10152
 C977 C 0.86702 0.12886 0.38852
 C978 C 0.82639 0.12133 0.38104
 H979 H 0.88017 0.16064 0.37252
 H980 H 0.81274 0.08861 0.39161
 C981 C 0.35851 0.41619 0.62383
 C982 C 0.36415 0.37145 0.63070
 H983 H 0.32950 0.43203 0.63649
 H984 H 0.39237 0.35618 0.61338
 C985 C 0.63223 0.88067 0.86719
 C986 C 0.67352 0.88493 0.86785
 H987 H 0.61847 0.85126 0.84432
 H988 H 0.68855 0.91508 0.88648
 C989 C 0.14751 0.57794 0.11412
 C990 C 0.14306 0.62336 0.11457
 H991 H 0.17503 0.56197 0.13257
 H992 H 0.11627 0.63768 0.09146
 C993 C 0.38593 0.88165 0.12381
 C994 C 0.34568 0.89221 0.12632
 H995 H 0.39640 0.84945 0.14213
 H996 H 0.33483 0.92543 0.11249
 C997 C 0.60668 0.40390 0.36706
 C998 C 0.64782 0.40939 0.36718
 H999 H 0.59321 0.37378 0.34559
 H1000 H 0.66212 0.44049 0.38419
 C1001 C 0.89209 0.60704 0.89501
 C1002 C 0.85044 0.59806 0.88107
 H1003 H 0.90489 0.63985 0.88228
 H1004 H 0.83847 0.56358 0.88354
 C1005 C 0.12072 0.10939 0.63069
 C1006 C 0.16132 0.10075 0.62751
 H1007 H 0.11054 0.14021 0.65375
 H1008 H 0.17277 0.06897 0.60889
 C1009 C 0.13084 0.37900 0.36521
 C1010 C 0.17195 0.38428 0.36201
 H1011 H 0.11679 0.34892 0.34444
 H1012 H 0.18703 0.41519 0.37808
 C1013 C 0.36759 0.62780 0.88535
 C1014 C 0.32683 0.62070 0.87852
 H1015 H 0.38079 0.65957 0.86941
 H1016 H 0.31303 0.58808 0.88923
 C1017 C 0.64369 0.08156 0.62524
 C1018 C 0.63891 0.12679 0.62537
 H1019 H 0.67157 0.06597 0.64315
 H1020 H 0.61202 0.14109 0.60252
 C1021 C 0.85851 0.91284 0.12161
 C1022 C 0.86379 0.86780 0.12575
 H1023 H 0.83025 0.92876 0.13736
 H1024 H 0.89111 0.85261 0.10540
 C1025 C 0.86667 0.12855 0.88573
 C1026 C 0.82567 0.12198 0.88098
 H1027 H 0.88021 0.15899 0.86623
 H1028 H 0.81144 0.09040 0.89530
 C1029 C 0.14631 0.58417 0.62164
 C1030 C 0.14116 0.62926 0.62237
 H1031 H 0.17447 0.56873 0.63881
 H1032 H 0.11383 0.64341 0.60048
 C1033 C 0.62786 0.87624 0.36970
 C1034 C 0.66899 0.88253 0.36679
 H1035 H 0.61425 0.84625 0.34811
 H1036 H 0.68334 0.91359 0.38379
 C1037 C 0.35851 0.40803 0.11322
 C1038 C 0.36335 0.36302 0.11755
 H1039 H 0.33002 0.42412 0.12775
 H1040 H 0.39100 0.34760 0.09853
 C1041 C 0.61913 0.60831 0.13242
 C1042 C 0.65978 0.59944 0.13137
 H1043 H 0.60858 0.63931 0.15464
 H1044 H 0.67129 0.56737 0.11371
 C1045 C 0.10611 0.90448 0.86445
 C1046 C 0.14732 0.90942 0.86609
 H1047 H 0.09269 0.87473 0.84202
 H1048 H 0.16166 0.94013 0.88428
 C1049 C 0.39007 0.10268 0.38341
 C1050 C 0.34911 0.09622 0.37948
 H1051 H 0.40351 0.13355 0.36499
 H1052 H 0.33517 0.06423 0.39283
 C1053 C 0.88666 0.38035 0.62147
 C1054 C 0.84606 0.38847 0.61733
 H1055 H 0.89740 0.34987 0.64423
 H1056 H 0.83462 0.42006 0.59854
 C1057 C 0.89858 0.60102 0.13640
 C1058 C 0.85809 0.59306 0.14513
 H1059 H 0.91218 0.63269 0.15289
 H1060 H 0.84437 0.56049 0.13285
 C1061 C 0.60972 0.39371 0.60794
 C1062 C 0.64945 0.40292 0.62256
 H1063 H 0.59698 0.36059 0.61898
 H1064 H 0.66195 0.43684 0.61647
 C1065 C 0.11682 0.12163 0.39080
 C1066 C 0.15447 0.10779 0.37299
 H1067 H 0.10717 0.15614 0.38112
 H1068 H 0.16349 0.07255 0.37815
 C1069 C 0.38283 0.88416 0.88410
 C1070 C 0.34376 0.89699 0.87266
 H1071 H 0.39280 0.85054 0.86970
 H1072 H 0.33390 0.93158 0.88168
 C1073 C 0.11023 0.89410 0.60825
 C1074 C 0.14811 0.90469 0.62966
 H1075 H 0.09848 0.85975 0.61369
 H1076 H 0.15908 0.93959 0.62924
 C1077 C 0.61739 0.61978 0.38696
 C1078 C 0.65479 0.60624 0.36810
 H1079 H 0.60792 0.65464 0.37924
 H1080 H 0.66367 0.57082 0.37119
 C1081 C 0.39452 0.09760 0.13031
 C1082 C 0.35460 0.08895 0.14241
 H1083 H 0.40751 0.13042 0.14342
 H1084 H 0.34149 0.05540 0.13443
 C1085 C 0.87027 0.39445 0.90166
 C1086 C 0.85834 0.38935 0.84032
 H1087 H 0.84738 0.38561 0.93583
 H1088 H 0.87126 0.41225 0.80672
 C1089 C 0.64175 0.08997 0.87885
 C1090 C 0.63790 0.13532 0.88160
 H1091 H 0.66907 0.07435 0.85935
 H1092 H 0.61160 0.15002 0.90522
 C1093 C 0.36939 0.61907 0.63987
 C1094 C 0.32837 0.61708 0.63109
 H1095 H 0.38240 0.64602 0.66850
 H1096 H 0.31387 0.58942 0.60566
 C1097 C 0.13182 0.36937 0.10936
 C1098 C 0.17298 0.37533 0.11054
 H1099 H 0.11873 0.33922 0.13026
 H1100 H 0.18690 0.40678 0.09512
 C1101 C 0.85554 0.92108 0.37067
 C1102 C 0.85522 0.87677 0.38401
 H1103 H 0.83298 0.93586 0.33983
 H1104 H 0.87783 0.86401 0.41662
 C1105 C 0.89550 0.59903 0.62927
 C1106 C 0.85610 0.59027 0.64479
 H1107 H 0.90850 0.63227 0.64009
 H1108 H 0.84322 0.55638 0.63912
 C1109 C 0.61030 0.39292 0.10663
 C1110 C 0.64789 0.40379 0.12899
 H1111 H 0.59875 0.35844 0.11156
 H1112 H 0.65862 0.43878 0.12892
 C1113 C 0.37786 0.88351 0.38805
 C1114 C 0.34135 0.89688 0.36491
 H1115 H 0.38666 0.84807 0.38355
 H1116 H 0.33337 0.93264 0.36411
 C1117 C 0.11574 0.12179 0.88858
 C1118 C 0.15210 0.10874 0.86523
 H1119 H 0.10624 0.15696 0.88409
 H1120 H 0.16088 0.07320 0.86570
 C1121 C 0.10884 0.89079 0.10194
 C1122 C 0.14828 0.90014 0.11745
 H1123 H 0.09617 0.85744 0.11186
 H1124 H 0.16054 0.93429 0.11260
 C1125 C 0.88206 0.38391 0.38533
 C1126 C 0.84332 0.39717 0.37256
 H1127 H 0.89179 0.34995 0.37208
 H1128 H 0.83378 0.43202 0.38041
 C1129 C 0.39469 0.10487 0.62503
 C1130 C 0.35576 0.09620 0.64290
 H1131 H 0.40819 0.13798 0.63513
 H1132 H 0.34269 0.06238 0.63732
 C1133 C 0.61787 0.62205 0.89295
 C1134 C 0.65581 0.60832 0.87630
 H1135 H 0.60834 0.65660 0.88325
 H1136 H 0.66474 0.57304 0.88133
 C1137 C 0.35822 0.42127 0.85930
 C1138 C 0.34126 0.38585 0.88823
 H1139 H 0.35423 0.42489 0.81029
 H1140 H 0.34951 0.37973 0.93567
 C1141 C 0.86890 0.11701 0.14184
 C1142 C 0.82792 0.11595 0.13231
 H1143 H 0.88207 0.14340 0.17123
 H1144 H 0.81322 0.08895 0.10585
 C1145 C 0.63246 0.87428 0.62713
 C1146 C 0.67362 0.87749 0.62100
 H1147 H 0.61964 0.84625 0.65304
 H1148 H 0.68782 0.90658 0.59925
 C1149 C 0.14164 0.58453 0.37176
 C1150 C 0.13734 0.62968 0.37343
 H1151 H 0.16909 0.56877 0.35289
 H1152 H 0.11087 0.64430 0.39680
   
