data_POSCAR
  _audit_creation_date              2014-09-24
  _audit_creation_method            'ToBaCCo'
  _symmetry_space_group_name_H-M    'P1'
  _symmetry_Int_Tables_number       1
  _symmetry_cell_setting            triclinic
  loop_
  _symmetry_equiv_pos_as_xyz
 x,y,z
_cell_length_a 56.6857
_cell_length_b 57.1633
_cell_length_c 56.4468
_cell_angle_alpha 89.981600
_cell_angle_beta 90.007400
_cell_angle_gamma 90.003600
loop_
  _atom_site_label
  _atom_site_type_symbol
  _atom_site_fract_x
  _atom_site_fract_y
  _atom_site_fract_z
N1 N 0.15144 0.16849 0.21562
 N2 N 0.16734 0.15180 0.21483
 C3 C 0.16378 0.13706 0.23310
 C4 C 0.14471 0.14504 0.24631
 C5 C 0.13744 0.16516 0.23457
 H6 H 0.17454 0.12186 0.23662
 H7 H 0.12270 0.17631 0.23902
 Cu8 Cu 0.19143 0.15130 0.19022
 Cu9 Cu 0.14939 0.19279 0.19149
 Cu10 Cu 0.19143 0.19163 0.14686
 N11 N 0.21530 0.15122 0.16540
 N12 N 0.21471 0.16660 0.14812
 C13 C 0.23263 0.16239 0.13309
 C14 C 0.24550 0.14342 0.14146
 C15 C 0.23388 0.13687 0.16213
 H16 H 0.23624 0.17282 0.11754
 H17 H 0.23831 0.12253 0.17376
 N18 N 0.16647 0.21559 0.14869
 N19 N 0.15025 0.21581 0.16547
 C20 C 0.13552 0.23391 0.16161
 C21 C 0.14295 0.24579 0.14160
 C22 C 0.16265 0.23371 0.13392
 H23 H 0.12064 0.23836 0.17270
 H24 H 0.17319 0.23766 0.11847
 H25 H 0.16512 0.17380 0.16469
 H26 H 0.18482 0.19284 0.18285
 N27 N -0.14902 0.83440 0.21356
 N28 N -0.16233 0.85287 0.20995
 C29 C -0.15835 0.86858 0.22727
 C30 C -0.14174 0.85935 0.24268
 C31 C -0.13625 0.83761 0.23339
 H32 H -0.16720 0.88528 0.22877
 H33 H -0.12365 0.82518 0.24035
 Cu34 Cu -0.18415 0.85444 0.18340
 Cu35 Cu -0.14893 0.80785 0.19201
 Cu36 Cu -0.19431 0.80567 0.15123
 N37 N -0.21189 0.85125 0.16342
 N38 N -0.21636 0.83191 0.15169
 C39 C -0.23686 0.83441 0.13990
 C40 C -0.24575 0.85669 0.14428
 C41 C -0.22925 0.86680 0.15936
 H42 H -0.24428 0.82116 0.12847
 H43 H -0.22980 0.88405 0.16716
 N44 N -0.16979 0.78120 0.15354
 N45 N -0.15208 0.78251 0.16866
 C46 C -0.13722 0.76456 0.16475
 C47 C -0.14603 0.75117 0.14638
 C48 C -0.16678 0.76216 0.13976
 H49 H -0.12104 0.76155 0.17442
 H50 H -0.17827 0.75720 0.12531
 H51 H -0.16434 0.82306 0.16210
 H52 H -0.18480 0.81213 0.18578
 N53 N -0.14802 0.16461 -0.21157
 N54 N -0.16093 0.14592 -0.20763
 C55 C -0.15676 0.13008 -0.22478
 C56 C -0.14042 0.13941 -0.24041
 C57 C -0.13529 0.16137 -0.23142
 H58 H -0.16535 0.11323 -0.22604
 H59 H -0.12306 0.17400 -0.23866
 Cu60 Cu -0.18258 0.14421 -0.18097
 Cu61 Cu -0.14858 0.19159 -0.19052
 Cu62 Cu -0.19365 0.19307 -0.14936
 N63 N -0.21019 0.14692 -0.16074
 N64 N -0.21494 0.16624 -0.14911
 C65 C -0.23518 0.16336 -0.13697
 C66 C -0.24361 0.14085 -0.14103
 C67 C -0.22711 0.13100 -0.15629
 H68 H -0.24275 0.17656 -0.12559
 H69 H -0.22739 0.11368 -0.16393
 N70 N -0.16996 0.21823 -0.15232
 N71 N -0.15238 0.21727 -0.16760
 C72 C -0.13814 0.23581 -0.16419
 C73 C -0.14725 0.24922 -0.14595
 C74 C -0.16750 0.23760 -0.13891
 H75 H -0.12218 0.23920 -0.17407
 H76 H -0.17899 0.24238 -0.12442
 H77 H -0.16323 0.17637 -0.16042
 H78 H -0.18418 0.18647 -0.18403
 N79 N 0.15190 0.83291 -0.21441
 N80 N 0.16405 0.85200 -0.20994
 C81 C 0.16012 0.86772 -0.22726
 C82 C 0.14476 0.85793 -0.24357
 C83 C 0.13996 0.83579 -0.23483
 H84 H 0.16802 0.88492 -0.22803
 H85 H 0.12814 0.82296 -0.24242
 Cu86 Cu 0.18411 0.85469 -0.18214
 Cu87 Cu 0.15125 0.80651 -0.19254
 Cu88 Cu 0.19231 0.80750 -0.14738
 N89 N 0.21053 0.85257 -0.16025
 N90 N 0.21406 0.83387 -0.14722
 C91 C 0.23388 0.83674 -0.13443
 C92 C 0.24337 0.85861 -0.13955
 C93 C 0.22787 0.86812 -0.15607
 H94 H 0.24058 0.82390 -0.12211
 H95 H 0.22921 0.88486 -0.16485
 N96 N 0.16871 0.78245 -0.15072
 N97 N 0.15339 0.78171 -0.16831
 C98 C 0.13943 0.76283 -0.16551
 C99 C 0.14615 0.75125 -0.14504
 C100 C 0.16477 0.76421 -0.13616
 H101 H 0.12483 0.75833 -0.17697
 H102 H 0.17461 0.76071 -0.12013
 H103 H 0.16277 0.82337 -0.16230
 H104 H 0.18597 0.81235 -0.18325
 N105 N 0.16790 1.15151 0.78612
 N106 N 0.15210 1.16832 0.78529
 C107 C 0.13745 1.16438 0.76692
 C108 C 0.14436 1.14391 0.75582
 C109 C 0.16371 1.13621 0.76853
 H110 H 0.12264 1.17533 0.76217
 H111 H 0.17419 1.12079 0.76501
 Cu112 Cu 0.15193 1.19338 0.80861
 Cu113 Cu 0.19299 1.15087 0.80958
 Cu114 Cu 0.19268 1.19466 0.85198
 N115 N 0.15158 1.21736 0.83307
 N116 N 0.16784 1.21801 0.84967
 C117 C 0.16385 1.23650 0.86385
 C118 C 0.14389 1.24796 0.85587
 C119 C 0.13651 1.23528 0.83634
 H120 H 0.17446 1.24105 0.87909
 H121 H 0.12146 1.23904 0.82520
 N122 N 0.21639 1.16951 0.85130
 N123 N 0.21689 1.15321 0.83475
 C124 C 0.23555 1.13914 0.83858
 C125 C 0.24719 1.14680 0.85864
 C126 C 0.23453 1.16602 0.86630
 H127 H 0.24016 1.12418 0.82784
 H128 H 0.23852 1.17686 0.88147
 H129 H 0.17402 1.16820 0.83547
 H130 H 0.19369 1.18642 0.81634
 N131 N 0.83166 0.84681 0.78224
 N132 N 0.84950 0.83224 0.78404
 C133 C 0.86442 0.83590 0.76586
 C134 C 0.85538 0.85365 0.75188
 C135 C 0.83452 0.86010 0.76278
 H136 H 0.88070 0.82646 0.76303
 H137 H 0.82276 0.87404 0.75746
 Cu138 Cu 0.85176 0.81013 0.81009
 Cu139 Cu 0.80714 0.84882 0.80624
 Cu140 Cu 0.81126 0.81056 0.85369
 N141 N 0.85240 0.78736 0.83564
 N142 N 0.83701 0.78811 0.85303
 C143 C 0.84145 0.77054 0.86825
 C144 C 0.86053 0.75795 0.85985
 C145 C 0.86702 0.76911 0.83909
 H146 H 0.83109 0.76675 0.88387
 H147 H 0.88133 0.76428 0.82742
 N148 N 0.78635 0.83437 0.85094
 N149 N 0.78423 0.84830 0.83242
 C150 C 0.76508 0.86193 0.83537
 C151 C 0.75473 0.85640 0.85683
 C152 C 0.76871 0.83888 0.86623
 H153 H 0.75935 0.87527 0.82307
 H154 H 0.76601 0.82988 0.88285
 H155 H 0.82750 0.83643 0.83384
 H156 H 0.80960 0.81436 0.81730
 N157 N 0.16615 0.84863 1.21403
 N158 N 0.15086 0.83139 1.21514
 C159 C 0.13652 0.83482 1.23384
 C160 C 0.14308 0.85542 1.24490
 C161 C 0.16193 0.86374 1.23181
 H162 H 0.12211 0.82345 1.23883
 H163 H 0.17201 0.87945 1.23515
 Cu164 Cu 0.15084 0.80645 1.19173
 Cu165 Cu 0.19070 0.84999 1.19000
 Cu166 Cu 0.19086 0.80603 1.14771
 N167 N 0.15063 0.78245 1.16735
 N168 N 0.16665 0.78206 1.15052
 C169 C 0.16279 0.76344 1.13645
 C170 C 0.14316 0.75165 1.14478
 C171 C 0.13586 0.76424 1.16437
 H172 H 0.17321 0.75905 1.12103
 H173 H 0.12104 0.76024 1.17573
 N174 N 0.21389 0.83183 1.14791
 N175 N 0.21409 0.84830 1.16429
 C176 C 0.23228 0.86288 1.16008
 C177 C 0.24395 0.85534 1.13998
 C178 C 0.23177 0.83566 1.13269
 H179 H 0.23660 0.87802 1.17069
 H180 H 0.23595 0.82471 1.11765
 H181 H 0.17180 0.83211 1.16440
 H182 H 0.19224 0.81449 1.18326
 N183 N 0.83611 1.15141 1.21365
 N184 N 0.84873 1.17053 1.21615
 C185 C 0.86341 1.16788 1.23472
 C186 C 0.85983 1.14584 1.24429
 C187 C 0.84238 1.13590 1.23041
 H188 H 0.87588 1.18094 1.24068
 H189 H 0.83437 1.11889 1.23273
 Cu190 Cu 0.84491 1.19711 1.19500
 Cu191 Cu 0.81136 1.14860 1.19002
 Cu192 Cu 0.80777 1.19269 1.14845
 N193 N 0.84583 1.21905 1.16870
 N194 N 0.83157 1.21704 1.15046
 C195 C 0.83639 1.23405 1.13473
 C196 C 0.85461 1.24756 1.14361
 C197 C 0.86015 1.23754 1.16525
 H198 H 0.82717 1.23652 1.11814
 H199 H 0.87387 1.24298 1.17737
 N200 N 0.78546 1.16639 1.14950
 N201 N 0.78735 1.14912 1.16488
 C202 C 0.76989 1.13363 1.16097
 C203 C 0.75624 1.14166 1.14237
 C204 C 0.76660 1.16249 1.13554
 H205 H 0.76690 1.11798 1.17130
 H206 H 0.76090 1.17387 1.12135
 H207 H 0.82944 1.16958 1.16626
 H208 H 0.80550 1.18391 1.18404
 O209 O 0.46707 1.04199 1.04226
 O210 O 0.44134 1.01989 1.02029
 C211 C 0.44590 1.03596 1.03584
 O212 O 0.53429 1.04032 0.95809
 O213 O 0.55963 1.01828 0.98062
 C214 C 0.55534 1.03370 0.96432
 O215 O 0.46780 1.04292 0.95942
 O216 O 0.44169 1.02069 0.98077
 C217 C 0.44652 1.03694 0.96551
 O218 O 0.53339 1.03996 1.04424
 O219 O 0.55910 1.01868 1.02148
 C220 C 0.55455 1.03377 1.03800
 Zr221 Zr 0.50024 1.02894 1.03081
 O222 O 0.50294 1.06588 1.03102
 O223 O 0.49752 1.02845 1.06822
 Zr224 Zr 0.50079 1.02935 0.97078
 O225 O 0.50364 1.06626 0.97076
 O226 O 0.49859 1.02918 0.93334
 O227 O 0.47955 1.03397 1.00065
 O228 O 0.52097 1.03323 1.00101
 O229 O 0.53273 0.95790 1.04364
 O230 O 0.55882 0.97909 1.02121
 C231 C 0.55402 0.96383 1.03750
 O232 O 0.46685 0.95731 0.95903
 O233 O 0.44125 0.98058 0.97987
 C234 C 0.44570 0.96413 0.96474
 O235 O 0.53344 0.95915 0.95714
 O236 O 0.55911 0.97976 0.98061
 C237 C 0.55459 0.96490 0.96389
 O238 O 0.46623 0.95685 1.04102
 O239 O 0.44088 0.97945 1.01906
 C240 C 0.44519 0.96307 1.03435
 Zr241 Zr 0.49972 0.96973 1.03038
 O242 O 0.50185 0.93276 1.03034
 O243 O 0.49688 0.96985 1.06778
 Zr244 Zr 0.50018 0.97019 0.97039
 O245 O 0.50255 0.93323 0.97017
 O246 O 0.49778 0.97051 0.93297
 Zr247 Zr 0.46529 0.99993 1.00026
 Zr248 Zr 0.53521 0.99923 1.00099
 O249 O 0.52033 0.96550 1.00052
 O250 O 0.47891 0.96560 1.00016
 O251 O 0.52100 0.99911 1.03548
 O252 O 0.48007 1.00001 0.96608
 O253 O 0.47949 0.99946 1.03471
 O254 O 0.52156 0.99960 0.96622
 H255 H 0.53175 1.04688 1.00111
 H256 H 0.46949 1.00025 0.95211
 H257 H 0.53085 0.95166 1.00044
 H258 H 0.46865 0.99933 1.04848
 H259 H 0.51222 1.02018 0.92729
 H260 H 0.51098 0.98013 0.92694
 H261 H 0.48928 0.92713 0.97972
 H262 H 0.48894 0.92685 1.02020
 H263 H 0.51039 0.97888 1.07404
 H264 H 0.51090 1.01916 1.07438
 H265 H 0.48961 1.07211 1.02164
 H266 H 0.49099 1.07239 0.98109
 O267 O -0.04175 0.53280 0.04351
 O268 O -0.01982 0.55841 0.02132
 C269 C -0.03534 0.55384 0.03755
 O270 O 0.04236 0.46609 0.03971
 O271 O 0.01884 0.44116 0.01838
 C272 C 0.03556 0.44526 0.03347
 O273 O 0.04089 0.53194 0.04294
 O274 O 0.01917 0.55801 0.02106
 C275 C 0.03467 0.55309 0.03719
 O276 O -0.04406 0.46700 0.04081
 O277 O -0.02216 0.44156 0.01837
 C278 C -0.03825 0.44605 0.03402
 Zr279 Zr -0.03061 0.49996 0.02996
 O280 O -0.02973 0.49699 0.06735
 O281 O -0.06784 0.50269 0.03066
 Zr282 Zr 0.02909 0.49931 0.02939
 O283 O 0.02897 0.49614 0.06676
 O284 O 0.06637 0.50152 0.02938
 O285 O -0.00049 0.52041 0.03463
 O286 O -0.00095 0.47926 0.03372
 O287 O -0.04505 0.46819 -0.04141
 O288 O -0.02190 0.44219 -0.02100
 C289 C -0.03865 0.44703 -0.03584
 O290 O 0.03974 0.53327 -0.04364
 O291 O 0.01943 0.55864 -0.01969
 C292 C 0.03422 0.55423 -0.03662
 O293 O 0.04145 0.46734 -0.04219
 O294 O 0.01808 0.44178 -0.02144
 C295 C 0.03466 0.44633 -0.03656
 O296 O -0.04196 0.53421 -0.04277
 O297 O -0.02051 0.55905 -0.01922
 C298 C -0.03579 0.55501 -0.03579
 Zr299 Zr -0.03115 0.50089 -0.03005
 O300 O -0.03128 0.49874 -0.06750
 O301 O -0.06837 0.50399 -0.02984
 Zr302 Zr 0.02854 0.50025 -0.03054
 O303 O 0.02823 0.49808 -0.06798
 O304 O 0.06582 0.50261 -0.03072
 Zr305 Zr -0.00066 0.53478 0.00023
 Zr306 Zr -0.00146 0.46542 -0.00080
 O307 O -0.00157 0.48038 -0.03490
 O308 O -0.00111 0.52152 -0.03462
 O309 O -0.03576 0.47967 -0.00032
 O310 O 0.03335 0.52001 -0.00030
 O311 O -0.03497 0.52069 0.00030
 O312 O 0.03318 0.47887 -0.00094
 H313 H -0.00094 0.46837 0.04738
 H314 H 0.04730 0.53045 -0.00025
 H315 H -0.00183 0.47004 -0.04898
 H316 H -0.04874 0.53135 0.00057
 H317 H 0.07234 0.48900 0.01888
 H318 H 0.07198 0.48919 -0.02154
 H319 H 0.01847 0.51117 -0.07393
 H320 H -0.02190 0.51204 -0.07359
 H321 H -0.07465 0.49099 -0.02014
 H322 H -0.07419 0.49022 0.02033
 H323 H -0.02074 0.51050 0.07354
 H324 H 0.01987 0.50949 0.07316
 O325 O 1.04119 -0.04264 0.46644
 O326 O 1.02049 -0.01927 0.44077
 C327 C 1.03526 -0.03601 0.44522
 O328 O 0.95731 -0.03928 0.53301
 O329 O 0.98088 -0.01923 0.55904
 C330 C 0.96403 -0.03381 0.55431
 O331 O 0.95968 -0.04112 0.46626
 O332 O 0.98146 -0.01866 0.44069
 C333 C 0.96594 -0.03475 0.44506
 O334 O 1.04359 -0.04091 0.53321
 O335 O 1.02145 -0.01923 0.55915
 C336 C 1.03754 -0.03468 0.55452
 Zr337 Zr 1.03058 -0.02933 0.49989
 O338 O 1.03018 -0.06628 0.50229
 O339 O 1.06782 -0.02961 0.49720
 Zr340 Zr 0.97086 -0.02830 0.49977
 O341 O 0.97027 -0.06525 0.50221
 O342 O 0.93362 -0.02761 0.49698
 O343 O 1.00067 -0.03319 0.47871
 O344 O 1.00063 -0.03328 0.52031
 O345 O 1.04455 0.04093 0.53377
 O346 O 1.02155 0.01976 0.55941
 C347 C 1.03811 0.03478 0.55497
 O348 O 0.96100 0.04453 0.46701
 O349 O 0.98169 0.02145 0.44109
 C350 C 0.96686 0.03807 0.44572
 O351 O 0.95868 0.04168 0.53386
 O352 O 0.98075 0.01950 0.55949
 C353 C 0.96458 0.03493 0.55507
 O354 O 1.04255 0.04362 0.46718
 O355 O 1.02124 0.02124 0.44112
 C356 C 1.03654 0.03742 0.44586
 Zr357 Zr 1.03157 0.02988 0.50035
 O358 O 1.03288 0.06677 0.50324
 O359 O 1.06880 0.02843 0.49773
 Zr360 Zr 0.97184 0.03090 0.50031
 O361 O 0.97260 0.06781 0.50338
 O362 O 0.93460 0.03157 0.49759
 Zr363 Zr 1.00128 0.00110 0.46496
 Zr364 Zr 1.00119 0.00046 0.53519
 O365 O 1.00172 0.03447 0.52090
 O366 O 1.00179 0.03516 0.47927
 O367 O 1.03568 0.00004 0.52125
 O368 O 0.96709 0.00154 0.47950
 O369 O 1.03542 0.00038 0.47955
 O370 O 0.96672 0.00117 0.52113
 H371 H 1.00044 -0.04708 0.53093
 H372 H 0.95327 0.00179 0.46876
 H373 H 1.00178 0.04809 0.53175
 H374 H 1.04918 0.00026 0.46872
 H375 H 0.92757 -0.01807 0.51026
 H376 H 0.92825 0.02191 0.51065
 H377 H 0.98182 0.07395 0.48987
 H378 H 1.02201 0.07323 0.49121
 H379 H 1.07473 0.01995 0.51181
 H380 H 1.07409 -0.02035 0.51060
 H381 H 1.01989 -0.07216 0.48946
 H382 H 0.97964 -0.07147 0.48884
 C383 C 1.11421 0.11406 0.30749
 C384 C 1.10738 0.13652 0.30020
 C385 C 1.11731 0.14669 0.28000
 C386 C 1.13476 0.13485 0.26681
 C387 C 1.14186 0.11248 0.27456
 C388 C 1.13152 0.10214 0.29446
 C389 C 1.10308 0.10294 0.32836
 N390 N 1.10227 0.07928 0.33033
 N391 N 1.09188 0.06920 0.34887
 C392 C 1.08207 0.08236 0.36631
 N393 N 1.08302 0.10603 0.36443
 N394 N 1.09322 0.11612 0.34576
 C395 C 1.07036 0.07107 0.38674
 C396 C 1.06840 0.08271 0.40858
 C397 C 1.05760 0.07175 0.42793
 C398 C 1.04808 0.04917 0.42561
 C399 C 1.04978 0.03770 0.40367
 C400 C 1.06102 0.04842 0.38452
 H401 H 1.09402 0.14610 0.30989
 H402 H 1.11137 0.16399 0.27506
 H403 H 1.15503 0.10251 0.26510
 H404 H 1.13721 0.08482 0.29974
 H405 H 1.07552 0.10015 0.41080
 H406 H 1.05645 0.08102 0.44462
 H407 H 1.04268 0.02028 0.40137
 H408 H 1.06214 0.03907 0.36787
 C409 C 0.88804 -0.10886 0.30508
 C410 C 0.88731 -0.13333 0.30272
 C411 C 0.87764 -0.14362 0.28247
 C412 C 0.86816 -0.12971 0.26429
 C413 C 0.86848 -0.10527 0.26682
 C414 C 0.87849 -0.09495 0.28691
 C415 C 0.89909 -0.09793 0.32615
 N416 N 0.90576 -0.07512 0.32575
 N417 N 0.91616 -0.06540 0.34448
 C418 C 0.92021 -0.07803 0.36446
 N419 N 0.91339 -0.10081 0.36493
 N420 N 0.90313 -0.11058 0.34614
 C421 C 0.93202 -0.06719 0.38515
 C422 C 0.93061 -0.07750 0.40773
 C423 C 0.94156 -0.06699 0.42725
 C424 C 0.95445 -0.04616 0.42451
 C425 C 0.95612 -0.03608 0.40185
 C426 C 0.94488 -0.04636 0.38245
 H427 H 0.89455 -0.14454 0.31637
 H428 H 0.87742 -0.16252 0.28116
 H429 H 0.86143 -0.09407 0.25306
 H430 H 0.87869 -0.07605 0.28823
 H431 H 0.92080 -0.09354 0.41039
 H432 H 0.94003 -0.07525 0.44445
 H433 H 0.96593 -0.02007 0.39908
 H434 H 0.94646 -0.03806 0.36528
 C435 C 0.88835 0.10749 0.69673
 C436 C 0.88802 0.13195 0.69924
 C437 C 0.87876 0.14229 0.71967
 C438 C 0.86933 0.12842 0.73791
 C439 C 0.86939 0.10398 0.73530
 C440 C 0.87894 0.09362 0.71501
 C441 C 0.89871 0.09652 0.67532
 N442 N 0.90437 0.07343 0.67515
 N443 N 0.91410 0.06366 0.65609
 C444 C 0.91846 0.07651 0.63632
 N445 N 0.91266 0.09957 0.63642
 N446 N 0.90305 0.10938 0.65554
 C447 C 0.92973 0.06569 0.61530
 C448 C 0.92937 0.07701 0.59317
 C449 C 0.94036 0.06689 0.57347
 C450 C 0.95225 0.04543 0.57559
 C451 C 0.95254 0.03409 0.59769
 C452 C 0.94128 0.04403 0.61727
 H453 H 0.89517 0.14315 0.68553
 H454 H 0.87878 0.16117 0.72103
 H455 H 0.86241 0.09281 0.74910
 H456 H 0.87886 0.07473 0.71361
 H457 H 0.92053 0.09367 0.59104
 H458 H 0.93988 0.07606 0.55668
 H459 H 0.96141 0.01744 0.59987
 H460 H 0.94195 0.03487 0.63405
 C461 C 1.11531 -0.10982 0.69409
 C462 C 1.11717 -0.13429 0.69571
 C463 C 1.12672 -0.14477 0.71595
 C464 C 1.13496 -0.13100 0.73484
 C465 C 1.13348 -0.10653 0.73304
 C466 C 1.12360 -0.09606 0.71298
 C467 C 1.10442 -0.09867 0.67306
 N468 N 1.09633 -0.07634 0.67417
 N469 N 1.08613 -0.06639 0.65545
 C470 C 1.08372 -0.07828 0.63476
 N471 N 1.09195 -0.10058 0.63358
 N472 N 1.10201 -0.11059 0.65237
 C473 C 1.07207 -0.06721 0.61411
 C474 C 1.07535 -0.07605 0.59110
 C475 C 1.06434 -0.06541 0.57168
 C476 C 1.04953 -0.04593 0.57491
 C477 C 1.04610 -0.03731 0.59798
 C478 C 1.05739 -0.04768 0.61730
 H479 H 1.11089 -0.14537 0.68149
 H480 H 1.12780 -0.16366 0.71673
 H481 H 1.13952 -0.09544 0.74735
 H482 H 1.12251 -0.07716 0.71225
 H483 H 1.08660 -0.09106 0.58807
 H484 H 1.06729 -0.07257 0.55417
 H485 H 1.03467 -0.02248 0.60118
 H486 H 1.05433 -0.04055 0.63480
 C487 C 0.30652 1.11273 1.11076
 C488 C 0.29339 1.12948 1.09827
 C489 C 0.27347 1.13979 1.10847
 C490 C 0.26581 1.13322 1.13130
 C491 C 0.27900 1.11622 1.14366
 C492 C 0.29924 1.10633 1.13362
 C493 C 0.32753 1.10183 1.09983
 N494 N 0.34517 1.09297 1.11345
 N495 N 0.36403 1.08309 1.10352
 C496 C 0.36589 1.08147 1.07958
 N497 N 0.34822 1.09028 1.06599
 N498 N 0.32949 1.10036 1.07590
 C499 C 0.38650 1.07004 1.06846
 C500 C 0.38437 1.05961 1.04605
 C501 C 0.40363 1.04842 1.03562
 C502 C 0.42563 1.04789 1.04707
 C503 C 0.42788 1.05858 1.06938
 C504 C 0.40841 1.06931 1.08010
 H505 H 0.29864 1.13481 1.08063
 H506 H 0.26396 1.15256 1.09807
 H507 H 0.27409 1.11067 1.16129
 H508 H 0.30899 1.09338 1.14363
 H509 H 0.36766 1.05974 1.03673
 H510 H 0.40133 1.04028 1.01848
 H511 H 0.44457 1.05832 1.07870
 H512 H 0.41056 1.07727 1.09738
 C513 C 0.30523 0.88947 0.88937
 C514 C 0.29009 0.90251 0.87478
 C515 C 0.26990 0.89230 0.86501
 C516 C 0.26402 0.86882 0.86992
 C517 C 0.27932 0.85585 0.88464
 C518 C 0.29972 0.86599 0.89404
 C519 C 0.32645 0.90041 0.89993
 N520 N 0.34468 0.88708 0.90783
 N521 N 0.36365 0.89696 0.91757
 C522 C 0.36507 0.92057 0.91998
 N523 N 0.34683 0.93387 0.91209
 N524 N 0.32796 0.92401 0.90219
 C525 C 0.38586 0.93161 0.93127
 C526 C 0.38407 0.95412 0.94105
 C527 C 0.40349 0.96453 0.95202
 C528 C 0.42528 0.95284 0.95310
 C529 C 0.42719 0.93042 0.94310
 C530 C 0.40759 0.91980 0.93248
 H531 H 0.29392 0.92065 0.87077
 H532 H 0.25881 0.90314 0.85395
 H533 H 0.27586 0.83773 0.88886
 H534 H 0.31101 0.85549 0.90529
 H535 H 0.36754 0.96362 0.94051
 H536 H 0.40148 0.98189 0.95946
 H537 H 0.44373 0.92097 0.94375
 H538 H 0.40951 0.90246 0.92503
 C539 C 0.69240 0.88787 1.11566
 C540 C 0.70852 0.90123 1.12881
 C541 C 0.72864 0.89090 1.13859
 C542 C 0.73349 0.86694 1.13508
 C543 C 0.71714 0.85361 1.12193
 C544 C 0.69678 0.86391 1.11256
 C545 C 0.67143 0.89904 1.10482
 N546 N 0.65216 0.88619 1.09885
 N547 N 0.63348 0.89627 1.08875
 C548 C 0.63341 0.91958 1.08402
 N549 N 0.65269 0.93240 1.08998
 N550 N 0.67126 0.92237 1.10025
 C551 C 0.61297 0.93078 1.07226
 C552 C 0.61598 0.95167 1.05952
 C553 C 0.59688 0.96221 1.04811
 C554 C 0.57418 0.95241 1.04959
 C555 C 0.57111 0.93158 1.06248
 C556 C 0.59036 0.92075 1.07351
 H557 H 0.70555 0.91974 1.13163
 H558 H 0.74053 0.90202 1.14844
 H559 H 0.71979 0.83512 1.11891
 H560 H 0.68468 0.85316 1.10247
 H561 H 0.63322 0.95972 1.05805
 H562 H 0.59991 0.97813 1.03821
 H563 H 0.55388 0.92350 1.06382
 H564 H 0.58751 0.90466 1.08323
 C565 C 0.69531 1.10878 0.88828
 C566 C 0.69955 1.13275 0.89156
 C567 C 0.71967 1.14331 0.88200
 C568 C 0.73596 1.13025 0.86851
 C569 C 0.73136 1.10625 0.86498
 C570 C 0.71144 1.09565 0.87491
 C571 C 0.67430 1.09749 0.89894
 N572 N 0.67366 1.07398 0.90241
 N573 N 0.65491 1.06387 0.91231
 C574 C 0.63595 1.07682 0.91899
 N575 N 0.63654 1.10031 0.91539
 N576 N 0.65536 1.11045 0.90566
 C577 C 0.61519 1.06560 0.93019
 C578 C 0.59320 1.07698 0.93048
 C579 C 0.57366 1.06646 0.94123
 C580 C 0.57579 1.04455 0.95229
 C581 C 0.59778 1.03318 0.95203
 C582 C 0.61721 1.04350 0.94092
 H583 H 0.68747 1.14335 0.90183
 H584 H 0.72214 1.16181 0.88512
 H585 H 0.74324 1.09532 0.85491
 H586 H 0.70861 1.07714 0.87196
 H587 H 0.59106 1.09396 0.92226
 H588 H 0.55696 1.07567 0.94122
 H589 H 0.59994 1.01620 0.96029
 H590 H 0.63392 1.03432 0.94105
 C591 C 0.11133 0.30662 0.10968
 C592 C 0.13552 0.30205 0.10679
 C593 C 0.14576 0.28221 0.11703
 C594 C 0.13212 0.26676 0.13071
 C595 C 0.10800 0.27147 0.13384
 C596 C 0.09768 0.29108 0.12327
 C597 C 0.10033 0.32734 0.09845
 N598 N 0.07664 0.32823 0.09499
 N599 N 0.06670 0.34675 0.08471
 C600 C 0.08001 0.36522 0.07760
 N601 N 0.10370 0.36439 0.08116
 N602 N 0.11366 0.34579 0.09129
 C603 C 0.06886 0.38574 0.06614
 C604 C 0.08050 0.40745 0.06536
 C605 C 0.06968 0.42687 0.05485
 C606 C 0.04721 0.42484 0.04454
 C607 C 0.03572 0.40306 0.04509
 C608 C 0.04634 0.38379 0.05594
 H609 H 0.14650 0.31364 0.09637
 H610 H 0.16443 0.27914 0.11446
 H611 H 0.09700 0.25980 0.14413
 H612 H 0.07901 0.29416 0.12589
 H613 H 0.09783 0.40952 0.07314
 H614 H 0.07898 0.44342 0.05463
 H615 H 0.01832 0.40097 0.03743
 H616 H 0.03696 0.36729 0.05616
 C617 C -0.11614 0.31037 -0.11413
 C618 C -0.10205 0.29383 -0.12591
 C619 C -0.11223 0.27420 -0.13652
 C620 C -0.13668 0.27044 -0.13527
 C621 C -0.15081 0.28694 -0.12348
 C622 C -0.14066 0.30683 -0.11319
 C623 C -0.10513 0.33093 -0.10259
 N624 N -0.11798 0.35032 -0.09733
 N625 N -0.10791 0.36872 -0.08690
 C626 C -0.08464 0.36839 -0.08113
 N627 N -0.07185 0.34897 -0.08635
 N628 N -0.08185 0.33068 -0.09692
 C629 C -0.07331 0.38861 -0.06930
 C630 C -0.05214 0.38553 -0.05678
 C631 C -0.04116 0.40445 -0.04573
 C632 C -0.05084 0.42705 -0.04725
 C633 C -0.07207 0.43017 -0.05976
 C634 C -0.08330 0.41109 -0.07051
 H635 H -0.08311 0.29608 -0.12701
 H636 H -0.10083 0.26171 -0.14529
 H637 H -0.16972 0.28457 -0.12236
 H638 H -0.15197 0.31923 -0.10418
 H639 H -0.04408 0.36841 -0.05534
 H640 H -0.02492 0.40135 -0.03614
 H641 H -0.08006 0.44733 -0.06114
 H642 H -0.09960 0.41400 -0.08007
 C643 C 0.11305 0.69106 -0.11328
 C644 C 0.12564 0.70715 -0.09933
 C645 C 0.13661 0.72650 -0.10969
 C646 C 0.13496 0.73041 -0.13421
 C647 C 0.12232 0.71439 -0.14819
 C648 C 0.11164 0.69481 -0.13786
 C649 C 0.10133 0.67065 -0.10216
 N650 N 0.09461 0.65191 -0.11534
 N651 N 0.08411 0.63358 -0.10524
 C652 C 0.07974 0.63330 -0.08158
 N653 N 0.08641 0.65207 -0.06843
 N654 N 0.09704 0.67032 -0.07849
 C655 C 0.06795 0.61303 -0.07027
 C656 C 0.05757 0.61533 -0.04778
 C657 C 0.04644 0.59629 -0.03702
 C658 C 0.04573 0.57440 -0.04834
 C659 C 0.05619 0.57204 -0.07078
 C660 C 0.06702 0.59121 -0.08172
 H661 H 0.12712 0.70474 -0.08035
 H662 H 0.14602 0.73862 -0.09840
 H663 H 0.12087 0.71686 -0.16714
 H664 H 0.10202 0.68278 -0.14909
 H665 H 0.05789 0.63192 -0.03853
 H666 H 0.03864 0.59866 -0.01967
 H667 H 0.05584 0.55542 -0.07997
 H668 H 0.07492 0.58887 -0.09902
 C669 C -0.11323 0.69108 0.11429
 C670 C -0.09953 0.70834 0.12545
 C671 C -0.11023 0.72770 0.13605
 C672 C -0.13485 0.73045 0.13536
 C673 C -0.14857 0.71334 0.12400
 C674 C -0.13788 0.69372 0.11377
 C675 C -0.10176 0.67056 0.10318
 N676 N -0.11397 0.65047 0.09930
 N677 N -0.10352 0.63201 0.08942
 C678 C -0.08048 0.63295 0.08284
 N679 N -0.06831 0.65306 0.08664
 N680 N -0.07870 0.67145 0.09669
 C681 C -0.06887 0.61260 0.07155
 C682 C -0.04865 0.61577 0.05754
 C683 C -0.03786 0.59671 0.04651
 C684 C -0.04671 0.57393 0.04961
 C685 C -0.06682 0.57073 0.06384
 C686 C -0.07790 0.58989 0.07453
 H687 H -0.08050 0.70679 0.12619
 H688 H -0.09916 0.74070 0.14446
 H689 H -0.16759 0.71497 0.12330
 H690 H -0.14889 0.68075 0.10520
 H691 H -0.04138 0.63307 0.05476
 H692 H -0.02259 0.59988 0.03546
 H693 H -0.07420 0.55345 0.06648
 H694 H -0.09342 0.58690 0.08530
 C695 C 1.11314 0.11108 0.69489
 C696 C 1.12517 0.09768 0.71190
 C697 C 1.13542 0.10838 0.73161
 C698 C 1.13350 0.13265 0.73494
 C699 C 1.12125 0.14604 0.71809
 C700 C 1.11135 0.13539 0.69814
 C701 C 1.10248 0.09972 0.67394
 N702 N 1.09749 0.11225 0.65411
 N703 N 1.08792 0.10195 0.63525
 C704 C 1.08280 0.07874 0.63551
 N705 N 1.08774 0.06623 0.65536
 N706 N 1.09747 0.07649 0.67415
 C707 C 1.07178 0.06735 0.61477
 C708 C 1.05932 0.04629 0.61748
 C709 C 1.04838 0.03577 0.59805
 C710 C 1.05004 0.04583 0.57540
 C711 C 1.06281 0.06673 0.57261
 C712 C 1.07340 0.07749 0.59215
 H713 H 1.12688 0.07892 0.70987
 H714 H 1.14459 0.09760 0.74442
 H715 H 1.11963 0.16480 0.72013
 H716 H 1.10209 0.14615 0.68538
 H717 H 1.05767 0.03811 0.63471
 H718 H 1.03864 0.01973 0.60080
 H719 H 1.06430 0.07497 0.55540
 H720 H 1.08298 0.09368 0.58951
 C721 C 0.88733 -0.11392 0.69109
 C722 C 0.90125 -0.12570 0.70789
 C723 C 0.89083 -0.13658 0.72741
 C724 C 0.86630 -0.13561 0.73073
 C725 C 0.85235 -0.12391 0.71392
 C726 C 0.86274 -0.11332 0.69419
 C727 C 0.89846 -0.10206 0.67067
 N728 N 0.88552 -0.09587 0.65141
 N729 N 0.89558 -0.08505 0.63310
 C730 C 0.91895 -0.07984 0.63341
 N731 N 0.93186 -0.08599 0.65269
 N732 N 0.92184 -0.09693 0.67091
 C733 C 0.93018 -0.06773 0.61319
 C734 C 0.95215 -0.05671 0.61603
 C735 C 0.96293 -0.04544 0.59696
 C736 C 0.95214 -0.04522 0.57454
 C737 C 0.93017 -0.05621 0.57168
 C738 C 0.91920 -0.06721 0.59087
 H739 H 0.92024 -0.12656 0.70594
 H740 H 0.90206 -0.14530 0.74016
 H741 H 0.83338 -0.12304 0.71592
 H742 H 0.85155 -0.10434 0.68158
 H743 H 0.96099 -0.05668 0.63303
 H744 H 0.97992 -0.03719 0.59973
 H745 H 0.92139 -0.05623 0.55463
 H746 H 0.90229 -0.07560 0.58813
 C747 C 1.11118 -0.11283 0.30605
 C748 C 1.12299 -0.09906 0.28917
 C749 C 1.13356 -0.10942 0.26944
 C750 C 1.13220 -0.13371 0.26598
 C751 C 1.12030 -0.14748 0.28278
 C752 C 1.11007 -0.13716 0.30274
 C753 C 1.09993 -0.10177 0.32685
 N754 N 1.09479 -0.11447 0.34654
 N755 N 1.08463 -0.10442 0.36524
 C756 C 1.07903 -0.08132 0.36491
 N757 N 1.08411 -0.06867 0.34520
 N758 N 1.09442 -0.07866 0.32659
 C759 C 1.06757 -0.07009 0.38549
 C760 C 1.05518 -0.04902 0.38261
 C761 C 1.04443 -0.03821 0.40195
 C762 C 1.04618 -0.04799 0.42474
 C763 C 1.05855 -0.06911 0.42765
 C764 C 1.06899 -0.08015 0.40817
 H765 H 1.12420 -0.08027 0.29127
 H766 H 1.14245 -0.09835 0.25669
 H767 H 1.11913 -0.16626 0.28066
 H768 H 1.10102 -0.14820 0.31541
 H769 H 1.05360 -0.04094 0.36532
 H770 H 1.03492 -0.02205 0.39904
 H771 H 1.06010 -0.07715 0.44495
 H772 H 1.07846 -0.09637 0.41093
 C773 C 0.89269 0.11478 0.30540
 C774 C 0.89233 0.13921 0.30265
 C775 C 0.88199 0.14935 0.28261
 C776 C 0.87151 0.13526 0.26514
 C777 C 0.87191 0.11085 0.26791
 C778 C 0.88249 0.10073 0.28774
 C779 C 0.90362 0.10385 0.32648
 N780 N 0.90930 0.08078 0.32634
 N781 N 0.91911 0.07079 0.34521
 C782 C 0.92354 0.08339 0.36510
 N783 N 0.91778 0.10646 0.36533
 N784 N 0.90808 0.11651 0.34636
 C785 C 0.93461 0.07210 0.38590
 C786 C 0.93353 0.08245 0.40848
 C787 C 0.94386 0.07139 0.42804
 C788 C 0.95575 0.04999 0.42530
 C789 C 0.95697 0.03983 0.40266
 C790 C 0.94639 0.05066 0.38326
 H791 H 0.90016 0.15049 0.31590
 H792 H 0.88184 0.16822 0.28105
 H793 H 0.86420 0.09949 0.25467
 H794 H 0.88243 0.08185 0.28934
 H795 H 0.92450 0.09894 0.41107
 H796 H 0.94267 0.07968 0.44525
 H797 H 0.96595 0.02335 0.39991
 H798 H 0.94764 0.04228 0.36610
 C799 C 0.11146 0.30898 -0.11368
 C800 C 0.09796 0.29287 -0.12671
 C801 C 0.10855 0.27321 -0.13687
 C802 C 0.13278 0.26905 -0.13386
 C803 C 0.14628 0.28511 -0.12079
 C804 C 0.13577 0.30498 -0.11097
 C805 C 0.10018 0.32966 -0.10274
 N806 N 0.11323 0.34851 -0.09616
 N807 N 0.10304 0.36702 -0.08612
 C808 C 0.07942 0.36735 -0.08209
 N809 N 0.06640 0.34849 -0.08864
 N810 N 0.07655 0.33006 -0.09883
 C811 C 0.06808 0.38767 -0.07054
 C812 C 0.04600 0.38518 -0.05954
 C813 C 0.03532 0.40420 -0.04836
 C814 C 0.04625 0.42626 -0.04829
 C815 C 0.06826 0.42884 -0.05946
 C816 C 0.07916 0.40967 -0.07030
 H817 H 0.07920 0.29551 -0.12918
 H818 H 0.09768 0.26105 -0.14671
 H819 H 0.16503 0.28245 -0.11835
 H820 H 0.14663 0.31703 -0.10096
 H821 H 0.03708 0.36843 -0.05930
 H822 H 0.01837 0.40163 -0.03994
 H823 H 0.07716 0.44560 -0.05960
 H824 H 0.09616 0.41213 -0.07870
 C825 C -0.11360 0.30762 0.11053
 C826 C -0.11237 0.30461 0.13522
 C827 C -0.12244 0.28497 0.14596
 C828 C -0.13425 0.26811 0.13227
 C829 C -0.13550 0.27114 0.10761
 C830 C -0.12516 0.29060 0.09684
 C831 C -0.10292 0.32836 0.09909
 N832 N -0.09866 0.32857 0.07541
 N833 N -0.08898 0.34718 0.06508
 C834 C -0.08331 0.36644 0.07796
 N835 N -0.08766 0.36628 0.10163
 N836 N -0.09721 0.34760 0.11199
 C837 C -0.07235 0.38702 0.06649
 C838 C -0.07210 0.40886 0.07792
 C839 C -0.06142 0.42819 0.06718
 C840 C -0.05045 0.42595 0.04498
 C841 C -0.05079 0.40414 0.03352
 C842 C -0.06177 0.38492 0.04408
 H843 H -0.10349 0.31737 0.14624
 H844 H -0.12130 0.28319 0.16502
 H845 H -0.14427 0.25836 0.09654
 H846 H -0.12645 0.29243 0.07779
 H847 H -0.08020 0.41105 0.09515
 H848 H -0.06136 0.44477 0.07645
 H849 H -0.04261 0.40193 0.01631
 H850 H -0.06164 0.36833 0.03484
 C851 C -0.10900 0.69610 -0.10937
 C852 C -0.12097 0.71242 -0.09516
 C853 C -0.13094 0.73245 -0.10519
 C854 C -0.12886 0.73675 -0.12959
 C855 C -0.11673 0.72055 -0.14379
 C856 C -0.10705 0.70034 -0.13381
 C857 C -0.09850 0.67489 -0.09867
 N858 N -0.09237 0.65626 -0.11229
 N859 N -0.08290 0.63721 -0.10256
 C860 C -0.07904 0.63608 -0.07884
 N861 N -0.08514 0.65472 -0.06525
 N862 N -0.09474 0.67369 -0.07494
 C863 C -0.06815 0.61516 -0.06796
 C864 C -0.05809 0.61659 -0.04526
 C865 C -0.04753 0.59704 -0.03496
 C866 C -0.04708 0.57551 -0.04696
 C867 C -0.05736 0.57394 -0.06954
 C868 C -0.06763 0.59365 -0.08004
 H869 H -0.12281 0.70965 -0.07627
 H870 H -0.14003 0.74470 -0.09377
 H871 H -0.11502 0.72331 -0.16269
 H872 H -0.09787 0.68813 -0.14522
 H873 H -0.05814 0.63290 -0.03552
 H874 H -0.03990 0.59876 -0.01745
 H875 H -0.05719 0.55758 -0.07920
 H876 H -0.07533 0.59200 -0.09752
 C877 C 0.11100 0.69013 0.11519
 C878 C 0.09744 0.70637 0.12798
 C879 C 0.10797 0.72620 0.13785
 C880 C 0.13217 0.73041 0.13475
 C881 C 0.14574 0.71424 0.12191
 C882 C 0.13529 0.69417 0.11240
 C883 C 0.09973 0.66935 0.10447
 N884 N 0.11267 0.65019 0.09863
 N885 N 0.10246 0.63162 0.08870
 C886 C 0.07895 0.63155 0.08405
 N887 N 0.06605 0.65071 0.08988
 N888 N 0.07620 0.66919 0.09997
 C889 C 0.06764 0.61129 0.07240
 C890 C 0.04633 0.61420 0.06007
 C891 C 0.03577 0.59531 0.04859
 C892 C 0.04600 0.57294 0.04956
 C893 C 0.06719 0.56992 0.06214
 C894 C 0.07803 0.58898 0.07327
 H895 H 0.07870 0.70370 0.13048
 H896 H 0.09705 0.73845 0.14752
 H897 H 0.16447 0.71696 0.11941
 H898 H 0.14617 0.68200 0.10255
 H899 H 0.03798 0.63121 0.05895
 H900 H 0.01953 0.59824 0.03898
 H901 H 0.07556 0.55292 0.06310
 H902 H 0.09442 0.58621 0.08271
 C903 C 0.30874 1.11638 0.89064
 C904 C 0.30528 1.11501 0.86603
 C905 C 0.28519 1.12479 0.85565
 C906 C 0.26845 1.13653 0.86960
 C907 C 0.27210 1.13824 0.89414
 C908 C 0.29193 1.12804 0.90460
 C909 C 0.32954 1.10534 0.90175
 N910 N 0.32890 1.09859 0.92480
 N911 N 0.34743 1.08818 0.93474
 C912 C 0.36742 1.08428 0.92210
 N913 N 0.36815 1.09119 0.89909
 N914 N 0.34953 1.10143 0.88908
 C915 C 0.38776 1.07234 0.93310
 C916 C 0.41073 1.07572 0.92440
 C917 C 0.42990 1.06443 0.93503
 C918 C 0.42640 1.04921 0.95428
 C919 C 0.40333 1.04558 0.96266
 C920 C 0.38428 1.05723 0.95239
 H921 H 0.31789 1.10604 0.85486
 H922 H 0.28287 1.12337 0.83666
 H923 H 0.25938 1.14705 0.90532
 H924 H 0.29418 1.12941 0.92360
 H925 H 0.41390 1.08730 0.90955
 H926 H 0.44742 1.06749 0.92803
 H927 H 0.39992 1.03369 0.97716
 H928 H 0.36674 1.05408 0.95930
 C929 C 0.30523 0.88618 1.10773
 C930 C 0.30101 0.88884 1.13210
 C931 C 0.28100 0.87897 1.14253
 C932 C 0.26502 0.86591 1.12888
 C933 C 0.26935 0.86303 1.10456
 C934 C 0.28915 0.87324 1.09404
 C935 C 0.32623 0.89694 1.09665
 N936 N 0.32705 0.90072 1.07291
 N937 N 0.34585 0.91070 1.06299
 C938 C 0.36466 0.91714 1.07638
 N939 N 0.36390 0.91325 1.10010
 N940 N 0.34504 0.90342 1.11004
 C941 C 0.38543 0.92845 1.06542
 C942 C 0.40723 0.92887 1.07728
 C943 C 0.42678 0.93980 1.06702
 C944 C 0.42479 0.95087 1.04490
 C945 C 0.40301 0.95045 1.03303
 C946 C 0.38358 0.93919 1.04310
 H947 H 0.31303 0.89878 1.14310
 H948 H 0.27822 0.88132 1.16136
 H949 H 0.25724 0.85319 1.09357
 H950 H 0.29197 0.87083 1.07522
 H951 H 0.40922 0.92066 1.09445
 H952 H 0.44334 0.93993 1.07659
 H953 H 0.40101 0.95872 1.01587
 H954 H 0.36700 0.93921 1.03356
 C955 C 0.69429 1.10921 1.11329
 C956 C 0.71191 1.09562 1.12412
 C957 C 0.73194 1.10621 1.13372
 C958 C 0.73496 1.13054 1.13232
 C959 C 0.71746 1.14414 1.12134
 C960 C 0.69720 1.13359 1.11211
 C961 C 0.67317 1.09794 1.10305
 N962 N 0.65309 1.11035 1.09921
 N963 N 0.63417 1.10015 1.08975
 C964 C 0.63464 1.07719 1.08360
 N965 N 0.65471 1.06480 1.08745
 N966 N 0.67356 1.07494 1.09707
 C967 C 0.61397 1.06598 1.07241
 C968 C 0.61690 1.04575 1.05862
 C969 C 0.59761 1.03541 1.04744
 C970 C 0.57484 1.04476 1.05015
 C971 C 0.57184 1.06484 1.06420
 C972 C 0.59126 1.07547 1.07506
 H973 H 0.71013 1.07680 1.12535
 H974 H 0.74524 1.09529 1.14193
 H975 H 0.71925 1.16296 1.12018
 H976 H 0.68397 1.14450 1.10376
 H977 H 0.63421 1.03813 1.05609
 H978 H 0.60058 1.02008 1.03661
 H979 H 0.55454 1.07254 1.06655
 H980 H 0.58848 1.09102 1.08565
 C981 C 0.69345 0.88809 0.88823
 C982 C 0.69652 0.88824 0.86353
 C983 C 0.71647 0.87801 0.85332
 C984 C 0.73357 0.86714 0.86758
 C985 C 0.73036 0.86674 0.89224
 C986 C 0.71059 0.87724 0.90247
 C987 C 0.67265 0.89937 0.89916
 N988 N 0.67261 0.90475 0.92258
 N989 N 0.65403 0.91508 0.93247
 C990 C 0.63464 0.92035 0.91939
 N991 N 0.63461 0.91490 0.89597
 N992 N 0.65328 0.90468 0.88604
 C993 C 0.61408 0.93188 0.93050
 C994 C 0.59188 0.93173 0.91939
 C995 C 0.57244 0.94235 0.93024
 C996 C 0.57495 0.95362 0.95221
 C997 C 0.59721 0.95396 0.96316
 C998 C 0.61651 0.94309 0.95250
 H999 H 0.68365 0.89651 0.85209
 H1000 H 0.71836 0.87842 0.83424
 H1001 H 0.74331 0.85865 0.90371
 H1002 H 0.70870 0.87676 0.92155
 H1003 H 0.58945 0.92316 0.90246
 H1004 H 0.55551 0.94187 0.92136
 H1005 H 0.59971 0.96239 0.98016
 H1006 H 0.63339 0.94361 0.96147
   
