data_POSCAR
  _audit_creation_date              2014-09-24
  _audit_creation_method            'ToBaCCo'
  _symmetry_space_group_name_H-M    'P1'
  _symmetry_Int_Tables_number       1
  _symmetry_cell_setting            triclinic
  loop_
  _symmetry_equiv_pos_as_xyz
 x,y,z
_cell_length_a 43.0739
_cell_length_b 38.4406
_cell_length_c 39.0044
_cell_angle_alpha 89.864700
_cell_angle_beta 90.022800
_cell_angle_gamma 90.088900
loop_
  _atom_site_label
  _atom_site_type_symbol
  _atom_site_fract_x
  _atom_site_fract_y
  _atom_site_fract_z
C1 C 0.29659 0.29927 0.23745
 H2 H 0.29743 0.30025 0.26516
 C3 C 0.31675 0.31990 0.21805
 H4 H 0.33322 0.33659 0.23106
 C5 C 0.27473 0.27536 0.18696
 H6 H 0.25866 0.25765 0.17489
 C7 C 0.29448 0.29548 0.16659
 H8 H 0.29285 0.29350 0.13896
 N9 N 0.27588 0.27786 0.22172
 C10 C 0.20105 0.26171 0.29545
 H11 H 0.20036 0.23358 0.29604
 C12 C 0.17961 0.28083 0.31446
 H13 H 0.16236 0.26717 0.32955
 C14 C 0.22370 0.31353 0.27386
 H15 H 0.24058 0.32619 0.25760
 C16 C 0.20266 0.33367 0.29243
 H17 H 0.20408 0.36175 0.29082
 Zn18 Zn 0.24971 0.25008 0.24963
 N19 N 0.22270 0.27821 0.27591
 C20 C 0.27302 0.22440 0.31317
 N21 N 0.27551 0.22290 0.27844
 C22 C 0.29731 0.20265 0.26315
 C23 C 0.31725 0.18218 0.28291
 C24 C 0.29248 0.20433 0.33393
 C25 C 0.20310 0.23724 0.20170
 C26 C 0.18326 0.21768 0.18103
 C27 C 0.20705 0.16536 0.20317
 C28 C 0.22644 0.18595 0.22345
 N29 N 0.22437 0.22123 0.22207
 H30 H 0.25611 0.24132 0.32491
 H31 H 0.29906 0.20228 0.23548
 H32 H 0.33404 0.16574 0.27018
 H33 H 0.29031 0.20609 0.36152
 H34 H 0.20169 0.26534 0.20146
 H35 H 0.16688 0.23097 0.16454
 H36 H 0.20883 0.13731 0.20483
 H37 H 0.24290 0.17366 0.24047
 C38 C 0.18022 0.31734 0.31309
 C39 C 0.31582 0.31819 0.18209
 C40 C 0.18513 0.18121 0.18154
 C41 C 0.31492 0.18276 0.31882
 C42 C 0.79665 0.80071 0.23704
 H43 H 0.79843 0.80103 0.26471
 C44 C 0.81637 0.82151 0.21733
 H45 H 0.83226 0.83842 0.23081
 C46 C 0.77239 0.77888 0.18713
 H47 H 0.75578 0.76154 0.17538
 C48 C 0.79157 0.79927 0.16636
 H49 H 0.78933 0.79628 0.13892
 N50 N 0.77503 0.78020 0.22180
 C51 C 0.70434 0.76315 0.30023
 H52 H 0.70352 0.73502 0.30075
 C53 C 0.68447 0.78236 0.32118
 H54 H 0.66823 0.76877 0.33765
 C55 C 0.72580 0.81491 0.27711
 H56 H 0.74160 0.82756 0.25957
 C57 C 0.70633 0.83512 0.29757
 H58 H 0.70789 0.86319 0.29601
 Zn59 Zn 0.75024 0.75183 0.25056
 N60 N 0.72469 0.77959 0.27901
 C61 C 0.77743 0.72549 0.31198
 N62 N 0.77779 0.72449 0.27713
 C63 C 0.79904 0.70511 0.25992
 C64 C 0.82069 0.68509 0.27782
 C65 C 0.79870 0.70589 0.33091
 C66 C 0.70176 0.73903 0.20458
 C67 C 0.68179 0.71939 0.18410
 C68 C 0.70698 0.66723 0.20465
 C69 C 0.72650 0.68790 0.22471
 N70 N 0.72386 0.72315 0.22394
 H71 H 0.76082 0.74163 0.32521
 H72 H 0.79921 0.70536 0.23219
 H73 H 0.83759 0.67009 0.26362
 H74 H 0.79776 0.70662 0.35864
 H75 H 0.69982 0.76709 0.20492
 H76 H 0.66431 0.73253 0.16892
 H77 H 0.70986 0.63926 0.20507
 H78 H 0.74375 0.67568 0.24079
 C79 C 0.68530 0.81888 0.32001
 C80 C 0.81424 0.82122 0.18117
 C81 C 0.68438 0.68297 0.18380
 C82 C 0.82070 0.68529 0.31382
 C83 C 0.79895 0.29724 0.73922
 H84 H 0.79949 0.29721 0.76696
 C85 C 0.82005 0.31761 0.72084
 H86 H 0.83650 0.33364 0.73467
 C87 C 0.77664 0.27638 0.68766
 H88 H 0.76010 0.25979 0.67480
 C89 C 0.79730 0.29638 0.66826
 H90 H 0.79638 0.29493 0.64056
 N91 N 0.77759 0.27747 0.72250
 C92 C 0.70255 0.26226 0.79615
 H93 H 0.70082 0.23418 0.79596
 C94 C 0.68261 0.28175 0.81672
 H95 H 0.66536 0.26845 0.83213
 C96 C 0.72669 0.31361 0.77549
 H97 H 0.74369 0.32598 0.75916
 C98 C 0.70718 0.33412 0.79563
 H99 H 0.70983 0.36213 0.79502
 Zn100 Zn 0.75060 0.24987 0.74958
 N101 N 0.72434 0.27833 0.77646
 C102 C 0.77360 0.22320 0.81275
 N103 N 0.77591 0.22187 0.77810
 C104 C 0.79745 0.20154 0.76269
 C105 C 0.81738 0.18084 0.78219
 C106 C 0.79299 0.20294 0.83336
 C107 C 0.70412 0.23788 0.70068
 C108 C 0.68414 0.21840 0.68002
 C109 C 0.70671 0.16594 0.70332
 C110 C 0.72628 0.18641 0.72350
 N111 N 0.72488 0.22172 0.72160
 H112 H 0.75709 0.24049 0.82464
 H113 H 0.79894 0.20116 0.73500
 H114 H 0.83276 0.16396 0.76811
 H115 H 0.79085 0.20654 0.86070
 H116 H 0.70308 0.26600 0.70017
 H117 H 0.66760 0.23177 0.66378
 H118 H 0.70851 0.13789 0.70486
 H119 H 0.74240 0.17399 0.74080
 C120 C 0.68488 0.31821 0.81677
 C121 C 0.81935 0.31742 0.68485
 C122 C 0.68529 0.18190 0.68117
 C123 C 0.81570 0.18090 0.81853
 C124 C 0.29651 0.79574 0.73751
 H125 H 0.29842 0.79596 0.76517
 C126 C 0.31635 0.81636 0.71774
 H127 H 0.33366 0.83223 0.73041
 C128 C 0.27215 0.77389 0.68751
 H129 H 0.25512 0.75704 0.67580
 C130 C 0.29154 0.79406 0.66674
 H131 H 0.28878 0.79298 0.63917
 N132 N 0.27470 0.77540 0.72224
 C133 C 0.20229 0.76120 0.79902
 H134 H 0.20086 0.73310 0.79947
 C135 C 0.18247 0.78088 0.81952
 H136 H 0.16607 0.76768 0.83609
 C137 C 0.22567 0.81238 0.77689
 H138 H 0.24212 0.82459 0.75979
 C139 C 0.20629 0.83308 0.79700
 H140 H 0.20808 0.86112 0.79511
 Zn141 Zn 0.24890 0.74820 0.75111
 N142 N 0.22357 0.77711 0.77854
 C143 C 0.27392 0.72310 0.81387
 N144 N 0.27507 0.72059 0.77911
 C145 C 0.29581 0.69928 0.76341
 C146 C 0.31600 0.67876 0.78284
 C147 C 0.29368 0.70308 0.83427
 C148 C 0.20022 0.73622 0.70530
 C149 C 0.17888 0.71695 0.68621
 C150 C 0.20203 0.66427 0.70834
 C151 C 0.22297 0.68458 0.72699
 N152 N 0.22189 0.71988 0.72490
 H153 H 0.25781 0.74073 0.82592
 H154 H 0.29666 0.69830 0.73571
 H155 H 0.33249 0.66216 0.76985
 H156 H 0.29205 0.70506 0.86190
 H157 H 0.19947 0.76435 0.70468
 H158 H 0.16164 0.73048 0.67103
 H159 H 0.20355 0.63621 0.70994
 H160 H 0.23986 0.67204 0.74329
 C161 C 0.18436 0.81735 0.81872
 C162 C 0.31393 0.81581 0.68183
 C163 C 0.17962 0.68044 0.68756
 C164 C 0.31505 0.68048 0.81879
 C165 C -0.00006 0.00045 -0.00089
 C166 C 0.00011 0.50008 0.49833
 C167 C 0.49905 -0.00045 0.50097
 C168 C 0.50166 0.49989 0.00028
 C169 C 0.12369 -0.12062 -0.11895
 C170 C 0.11232 -0.15035 -0.13537
 C171 C 0.13203 -0.17052 -0.15565
 C172 C 0.16341 -0.16119 -0.15978
 C173 C 0.17461 -0.13122 -0.14318
 C174 C 0.15485 -0.11109 -0.12289
 C175 C 0.10329 -0.09988 -0.09820
 C176 C 0.08597 -0.08263 -0.08096
 C177 C 0.06503 -0.06218 -0.06061
 C178 C 0.04858 -0.07761 -0.03370
 C179 C 0.02770 -0.05798 -0.01435
 C180 C 0.02208 -0.02261 -0.02226
 C181 C 0.04030 -0.00712 -0.04832
 C182 C 0.06114 -0.02681 -0.06761
 H183 H 0.08820 -0.15788 -0.13260
 H184 H 0.12261 -0.19316 -0.16847
 H185 H 0.19873 -0.12360 -0.14552
 H186 H 0.16388 -0.08815 -0.11023
 H187 H 0.05204 -0.10482 -0.02749
 H188 H 0.01652 -0.07066 0.00710
 H189 H 0.03804 0.02034 -0.05401
 H190 H 0.07423 -0.01441 -0.08798
 C191 C 0.11466 0.37788 0.37075
 C192 C 0.12274 0.38793 0.33742
 C193 C 0.14401 0.36824 0.31861
 C194 C 0.15749 0.33820 0.33294
 C195 C 0.14911 0.32827 0.36644
 C196 C 0.12786 0.34801 0.38519
 C197 C 0.09337 0.39858 0.39047
 C198 C 0.07595 0.41598 0.40746
 C199 C 0.05578 0.43685 0.42839
 C200 C 0.06135 0.47247 0.43182
 C201 C 0.04300 0.49241 0.45374
 C202 C 0.01929 0.47695 0.47373
 C203 C 0.01258 0.44140 0.46794
 C204 C 0.03100 0.42151 0.44596
 H205 H 0.11265 0.41101 0.32599
 H206 H 0.14965 0.37630 0.29273
 H207 H 0.15937 0.30557 0.37835
 H208 H 0.12190 0.34011 0.41105
 H209 H 0.08012 0.48481 0.41782
 H210 H 0.04785 0.51996 0.45592
 H211 H -0.00695 0.42869 0.48003
 H212 H 0.02596 0.39408 0.44277
 C213 C 0.62406 -0.12022 0.38289
 C214 C 0.63012 -0.11012 0.34906
 C215 C 0.65003 -0.12989 0.32862
 C216 C 0.66417 -0.16009 0.34177
 C217 C 0.65792 -0.17003 0.37583
 C218 C 0.63800 -0.15019 0.39624
 C219 C 0.60334 -0.09993 0.40376
 C220 C 0.58583 -0.08290 0.42101
 C221 C 0.56470 -0.06260 0.44134
 C222 C 0.56062 -0.02723 0.43437
 C223 C 0.53963 -0.00769 0.45364
 C224 C 0.52142 -0.02331 0.47963
 C225 C 0.52724 -0.05867 0.48751
 C226 C 0.54827 -0.07814 0.46820
 H227 H 0.61934 -0.08704 0.33842
 H228 H 0.65401 -0.12182 0.30237
 H229 H 0.66873 -0.19289 0.38683
 H230 H 0.63350 -0.15822 0.42242
 H231 H 0.57369 -0.01472 0.41405
 H232 H 0.53724 0.01976 0.44797
 H233 H 0.51609 -0.07145 0.50892
 H234 H 0.55187 -0.10533 0.47440
 C235 C 0.62490 0.37976 -0.11954
 C236 C 0.63202 0.39083 -0.15282
 C237 C 0.65152 0.37085 -0.17356
 C238 C 0.66415 0.33947 -0.16125
 C239 C 0.65684 0.32858 -0.12773
 C240 C 0.63735 0.34861 -0.10703
 C241 C 0.60461 0.40021 -0.09834
 C242 C 0.58746 0.41730 -0.08074
 C243 C 0.56672 0.43766 -0.06000
 C244 C 0.56279 0.47309 -0.06674
 C245 C 0.54206 0.49266 -0.04719
 C246 C 0.52396 0.47702 -0.02112
 C247 C 0.52969 0.44162 -0.01339
 C248 C 0.55047 0.42210 -0.03301
 H249 H 0.62240 0.41483 -0.16280
 H250 H 0.65637 0.37972 -0.19938
 H251 H 0.66651 0.30480 -0.11735
 H252 H 0.63203 0.33983 -0.08128
 H253 H 0.57573 0.48560 -0.08716
 H254 H 0.53972 0.52014 -0.05275
 H255 H 0.51864 0.42881 0.00806
 H256 H 0.55397 0.39486 -0.02697
 C257 C -0.12447 0.11965 -0.12067
 C258 C -0.11697 0.12681 -0.15472
 C259 C -0.13674 0.14701 -0.17498
 C260 C -0.16485 0.16084 -0.16168
 C261 C -0.17182 0.15297 -0.12688
 C262 C -0.15190 0.13271 -0.10682
 C263 C -0.10388 0.09901 -0.09993
 C264 C -0.08642 0.08177 -0.08276
 C265 C -0.06530 0.06127 -0.06257
 C266 C -0.04914 0.03379 -0.07764
 C267 C -0.02819 0.01416 -0.05831
 C268 C -0.02217 0.02234 -0.02358
 C269 C -0.04007 0.04900 -0.00842
 C270 C -0.06100 0.06858 -0.02783
 H271 H -0.09554 0.11708 -0.16561
 H272 H -0.12858 0.15288 -0.20051
 H273 H -0.19330 0.16072 -0.11490
 H274 H -0.15809 0.12698 -0.08048
 H275 H -0.05292 0.02733 -0.10435
 H276 H -0.01729 -0.00776 -0.07070
 H277 H -0.03753 0.05489 0.01857
 H278 H -0.07386 0.08938 -0.01569
 C279 C -0.11343 0.62419 0.37079
 C280 C -0.12722 0.61060 0.34121
 C281 C -0.14854 0.63050 0.32259
 C282 C -0.15641 0.66427 0.33339
 C283 C -0.14229 0.67774 0.36308
 C284 C -0.12095 0.65780 0.38164
 C285 C -0.09221 0.60331 0.39053
 C286 C -0.07487 0.58569 0.40750
 C287 C -0.05485 0.56448 0.42839
 C288 C -0.06042 0.52879 0.43129
 C289 C -0.04226 0.50849 0.45319
 C290 C -0.01878 0.52361 0.47369
 C291 C -0.01203 0.55926 0.46842
 C292 C -0.03026 0.57953 0.44646
 H293 H -0.12170 0.58453 0.33270
 H294 H -0.15929 0.61923 0.30010
 H295 H -0.14753 0.70380 0.37179
 H296 H -0.11042 0.66857 0.40451
 H297 H -0.07903 0.51669 0.41690
 H298 H -0.04712 0.48089 0.45497
 H299 H 0.00736 0.57178 0.48093
 H300 H -0.02522 0.60702 0.44368
 C301 C 0.37545 0.11991 0.38102
 C302 C 0.38700 0.13685 0.35190
 C303 C 0.36736 0.15732 0.33169
 C304 C 0.33584 0.16113 0.34037
 C305 C 0.32446 0.14403 0.36976
 C306 C 0.34416 0.12356 0.38992
 C307 C 0.39576 0.09883 0.40172
 C308 C 0.41299 0.08127 0.41889
 C309 C 0.43386 0.06045 0.43916
 C310 C 0.45026 0.03319 0.42401
 C311 C 0.47111 0.01343 0.44339
 C312 C 0.47678 0.02128 0.47827
 C313 C 0.45858 0.04764 0.49349
 C314 C 0.43776 0.06735 0.47404
 H315 H 0.41122 0.13431 0.34484
 H316 H 0.37693 0.17051 0.30952
 H317 H 0.30024 0.14609 0.37688
 H318 H 0.33495 0.11049 0.41237
 H319 H 0.44680 0.02702 0.39718
 H320 H 0.48225 -0.00827 0.43089
 H321 H 0.46087 0.05328 0.52056
 H322 H 0.42472 0.08797 0.48624
 C323 C 0.37657 0.61834 -0.11956
 C324 C 0.36289 0.60421 -0.14895
 C325 C 0.34291 0.62439 -0.16905
 C326 C 0.33634 0.65902 -0.15996
 C327 C 0.35024 0.67297 -0.13035
 C328 C 0.37022 0.65275 -0.11031
 C329 C 0.39732 0.59766 -0.09902
 C330 C 0.41485 0.58046 -0.08189
 C331 C 0.43602 0.56006 -0.06161
 C332 C 0.45243 0.53274 -0.07663
 C333 C 0.47346 0.51328 -0.05722
 C334 C 0.47931 0.52148 -0.02246
 C335 C 0.46111 0.54790 -0.00734
 C336 C 0.44011 0.56732 -0.02682
 H337 H 0.36762 0.57758 -0.15631
 H338 H 0.33228 0.61277 -0.19143
 H339 H 0.34600 0.69966 -0.12293
 H340 H 0.38079 0.66399 -0.08769
 H341 H 0.44880 0.52628 -0.10336
 H342 H 0.48457 0.49149 -0.06960
 H343 H 0.46351 0.55378 0.01967
 H344 H 0.42705 0.58798 -0.01471
 C345 C -0.12553 -0.11729 0.11921
 C346 C -0.15433 -0.12786 0.10652
 C347 C -0.17420 -0.14800 0.12681
 C348 C -0.16568 -0.15807 0.16048
 C349 C -0.13638 -0.14691 0.17277
 C350 C -0.11662 -0.12682 0.15233
 C351 C -0.10495 -0.09681 0.09825
 C352 C -0.08743 -0.07972 0.08098
 C353 C -0.06616 -0.05941 0.06073
 C354 C -0.06198 -0.06679 0.02599
 C355 C -0.04080 -0.04748 0.00658
 C356 C -0.02253 -0.02108 0.02176
 C357 C -0.02846 -0.01278 0.05647
 C358 C -0.04966 -0.03213 0.07579
 H359 H -0.16156 -0.12036 0.08094
 H360 H -0.19668 -0.15437 0.11619
 H361 H -0.12775 -0.15470 0.19764
 H362 H -0.09420 -0.11900 0.16230
 H363 H -0.07511 -0.08744 0.01386
 H364 H -0.03834 -0.05342 -0.02040
 H365 H -0.01727 0.00899 0.06886
 H366 H -0.05334 -0.02562 0.10250
 C367 C -0.11671 0.37992 0.62648
 C368 C -0.14768 0.37687 0.61605
 C369 C -0.16846 0.35656 0.63501
 C370 C -0.15853 0.33899 0.66472
 C371 C -0.12733 0.34224 0.67503
 C372 C -0.10656 0.36257 0.65599
 C373 C -0.09548 0.40079 0.60669
 C374 C -0.07826 0.41841 0.58953
 C375 C -0.05853 0.43959 0.56821
 C376 C -0.07114 0.46779 0.55042
 C377 C -0.05263 0.48755 0.52836
 C378 C -0.02116 0.47876 0.52261
 C379 C -0.00836 0.45172 0.54278
 C380 C -0.02698 0.43195 0.56483
 H381 H -0.15580 0.39027 0.59328
 H382 H -0.19239 0.35497 0.62666
 H383 H -0.11887 0.32869 0.69753
 H384 H -0.08261 0.36466 0.66423
 H385 H -0.09538 0.47455 0.55360
 H386 H -0.06321 0.50988 0.51624
 H387 H 0.01606 0.44543 0.54081
 H388 H -0.01678 0.41059 0.57906
 C389 C 0.37437 -0.12093 0.61977
 C390 C 0.36194 -0.10765 0.65017
 C391 C 0.34224 -0.12817 0.67032
 C392 C 0.33469 -0.16231 0.66029
 C393 C 0.34724 -0.17537 0.62960
 C394 C 0.36695 -0.15480 0.60951
 C395 C 0.39500 -0.09993 0.59932
 C396 C 0.41246 -0.08241 0.58235
 C397 C 0.43355 -0.06161 0.56229
 C398 C 0.44987 -0.03430 0.57757
 C399 C 0.47085 -0.01449 0.55836
 C400 C 0.47672 -0.02231 0.52352
 C401 C 0.45861 -0.04875 0.50816
 C402 C 0.43768 -0.06852 0.52744
 H403 H 0.36748 -0.08144 0.65833
 H404 H 0.33263 -0.11719 0.69354
 H405 H 0.34221 -0.20167 0.62140
 H406 H 0.37655 -0.16539 0.58608
 H407 H 0.44623 -0.02812 0.60436
 H408 H 0.48191 0.00726 0.57093
 H409 H 0.46106 -0.05439 0.48111
 H410 H 0.42469 -0.08917 0.51513
 C411 C 0.37717 0.38065 0.12042
 C412 C 0.36349 0.39472 0.14982
 C413 C 0.34358 0.37442 0.16993
 C414 C 0.33708 0.33975 0.16086
 C415 C 0.35098 0.32587 0.13126
 C416 C 0.37089 0.34620 0.11121
 C417 C 0.39782 0.40146 0.09984
 C418 C 0.41527 0.41877 0.08266
 C419 C 0.43634 0.43930 0.06233
 C420 C 0.45270 0.46674 0.07730
 C421 C 0.47363 0.48634 0.05784
 C422 C 0.47943 0.47816 0.02307
 C423 C 0.46127 0.45160 0.00800
 C424 C 0.44037 0.43204 0.02754
 H425 H 0.36817 0.42138 0.15716
 H426 H 0.33295 0.38599 0.19231
 H427 H 0.34680 0.29914 0.12386
 H428 H 0.38147 0.33501 0.08858
 H429 H 0.44912 0.47319 0.10404
 H430 H 0.48470 0.50821 0.07019
 H431 H 0.46362 0.44572 -0.01901
 H432 H 0.42733 0.41128 0.01547
 C433 C 0.12449 0.11972 0.11841
 C434 C 0.11313 0.14923 0.13514
 C435 C 0.13282 0.16920 0.15570
 C436 C 0.16419 0.15989 0.15982
 C437 C 0.17537 0.13012 0.14294
 C438 C 0.15563 0.11019 0.12236
 C439 C 0.10410 0.09923 0.09734
 C440 C 0.08676 0.08221 0.07984
 C441 C 0.06573 0.06204 0.05922
 C442 C 0.04960 0.07774 0.03224
 C443 C 0.02854 0.05844 0.01273
 C444 C 0.02241 0.02313 0.02055
 C445 C 0.04034 0.00734 0.04666
 C446 C 0.06136 0.02671 0.06611
 H447 H 0.08903 0.15675 0.13236
 H448 H 0.12341 0.19168 0.16873
 H449 H 0.19948 0.12253 0.14527
 H450 H 0.16466 0.08741 0.10947
 H451 H 0.05344 0.10492 0.02613
 H452 H 0.01760 0.07131 -0.00875
 H453 H 0.03768 -0.02009 0.05229
 H454 H 0.07419 0.01410 0.08654
 C455 C 0.11501 0.61922 0.62900
 C456 C 0.12282 0.60921 0.66242
 C457 C 0.14374 0.62915 0.68155
 C458 C 0.15714 0.65940 0.66745
 C459 C 0.14898 0.66931 0.63389
 C460 C 0.12808 0.64933 0.61482
 C461 C 0.09424 0.59821 0.60885
 C462 C 0.07733 0.58060 0.59136
 C463 C 0.05788 0.55959 0.56966
 C464 C 0.02635 0.56721 0.56591
 C465 C 0.00801 0.54772 0.54342
 C466 C 0.02108 0.52102 0.52316
 C467 C 0.05249 0.51220 0.52927
 C468 C 0.07074 0.53168 0.55178
 H469 H 0.11284 0.58594 0.67364
 H470 H 0.14922 0.62109 0.70746
 H471 H 0.15918 0.69218 0.62215
 H472 H 0.12233 0.65721 0.58889
 H473 H 0.01596 0.58834 0.58019
 H474 H -0.01640 0.55400 0.54117
 H475 H 0.06324 0.49008 0.51707
 H476 H 0.09496 0.52493 0.55522
 C477 C 0.62389 0.12021 0.61895
 C478 C 0.63039 0.11015 0.65270
 C479 C 0.65036 0.13017 0.67292
 C480 C 0.66410 0.16059 0.65965
 C481 C 0.65741 0.17048 0.62568
 C482 C 0.63744 0.15039 0.60549
 C483 C 0.60313 0.09968 0.59829
 C484 C 0.58559 0.08250 0.58113
 C485 C 0.56445 0.06208 0.56085
 C486 C 0.56034 0.02672 0.56788
 C487 C 0.53941 0.00706 0.54856
 C488 C 0.52128 0.02255 0.52244
 C489 C 0.52711 0.05791 0.51453
 C490 C 0.54808 0.07750 0.53389
 H491 H 0.61992 0.08691 0.66343
 H492 H 0.65468 0.12212 0.69911
 H493 H 0.66791 0.19350 0.61457
 H494 H 0.63260 0.15839 0.57937
 H495 H 0.57337 0.01429 0.58827
 H496 H 0.53701 -0.02040 0.55426
 H497 H 0.51603 0.07062 0.49304
 H498 H 0.55170 0.10469 0.52764
 C499 C 0.62458 0.62095 0.12010
 C500 C 0.63200 0.60976 0.15327
 C501 C 0.65143 0.62989 0.17401
 C502 C 0.66368 0.66156 0.16184
 C503 C 0.65608 0.67256 0.12843
 C504 C 0.63666 0.65237 0.10773
 C505 C 0.60437 0.60033 0.09888
 C506 C 0.58728 0.58310 0.08126
 C507 C 0.56661 0.56258 0.06050
 C508 C 0.56283 0.52713 0.06722
 C509 C 0.54215 0.50740 0.04767
 C510 C 0.52395 0.52292 0.02163
 C511 C 0.52955 0.55836 0.01392
 C512 C 0.55028 0.57803 0.03353
 H513 H 0.62267 0.58554 0.16314
 H514 H 0.65652 0.62093 0.19974
 H515 H 0.66547 0.69655 0.11815
 H516 H 0.63110 0.66125 0.08207
 H517 H 0.57583 0.51470 0.08763
 H518 H 0.53990 0.47990 0.05323
 H519 H 0.51842 0.57110 -0.00752
 H520 H 0.55367 0.60530 0.02751
   
