data_POSCAR
  _audit_creation_date              2014-09-24
  _audit_creation_method            'ToBaCCo'
  _symmetry_space_group_name_H-M    'P1'
  _symmetry_Int_Tables_number       1
  _symmetry_cell_setting            triclinic
  loop_
  _symmetry_equiv_pos_as_xyz
 x,y,z
_cell_length_a 31.2471
_cell_length_b 30.5013
_cell_length_c 31.5852
_cell_angle_alpha 89.460600
_cell_angle_beta 87.664600
_cell_angle_gamma 92.985800
loop_
  _atom_site_label
  _atom_site_type_symbol
  _atom_site_fract_x
  _atom_site_fract_y
  _atom_site_fract_z
C1 C 0.26662 0.45477 1.00607
 C2 C 0.22806 0.46122 1.03665
 C3 C 0.20872 0.49953 1.03032
 C4 C 0.23049 0.52846 0.99481
 C5 C 0.24923 0.46030 0.96169
 C6 C 0.23080 0.49909 0.95575
 C7 C 0.29668 0.49567 1.01218
 C8 C 0.27756 0.53428 1.00656
 H9 H 0.21588 0.43656 1.05957
 H10 H 0.21492 0.55971 0.98966
 H11 H 0.25169 0.43585 0.93717
 H12 H 0.32928 0.49433 1.02218
 C13 C 0.73511 0.55527 -0.01414
 C14 C 0.75134 0.55386 0.03104
 C15 C 0.76802 0.51518 0.04131
 C16 C 0.76802 0.48169 0.00556
 C17 C 0.77406 0.54409 -0.04288
 C18 C 0.79128 0.50538 -0.03261
 C19 C 0.70379 0.51476 -0.01685
 C20 C 0.72132 0.47631 -0.00685
 H21 H 0.74775 0.58016 0.05352
 H22 H 0.78155 0.45054 0.01533
 H23 H 0.78539 0.56340 -0.07028
 H24 H 0.67162 0.51623 -0.02813
 C25 C 0.04183 0.23114 0.47431
 C26 C 0.03130 0.26759 0.44694
 C27 C -0.00878 0.28608 0.45819
 C28 C -0.03089 0.26411 0.49470
 C29 C 0.03943 0.24942 0.51953
 C30 C 0.00113 0.26627 0.53030
 C31 C 0.00300 0.19797 0.47251
 C32 C -0.03517 0.21550 0.48277
 H33 H 0.05102 0.27922 0.41992
 H34 H -0.06194 0.27715 0.50472
 H35 H 0.06536 0.24822 0.54120
 H36 H 0.00537 0.16468 0.46134
 C37 C 0.95479 0.75672 0.51026
 C38 C 0.96295 0.73872 0.46571
 C39 C 1.00255 0.72323 0.45918
 C40 C 1.03044 0.72655 0.49791
 C41 C 0.96390 0.71871 0.54029
 C42 C 1.00362 0.70280 0.53391
 C43 C 0.99190 0.79120 0.51621
 C44 C 1.03138 0.77498 0.51009
 H45 H 0.93946 0.73869 0.44140
 H46 H 1.06274 0.71422 0.49174
 H47 H 0.94121 0.70658 0.56501
 H48 H 0.98773 0.82410 0.52756
 C49 C 0.51019 0.04019 0.23392
 C50 C 0.47626 0.03234 0.26996
 C51 C 0.48000 -0.00564 0.29212
 C52 C 0.51823 -0.03193 0.27651
 C53 C 0.55325 0.03803 0.25497
 C54 C 0.55754 0.00052 0.27741
 C55 C 0.50702 0.00091 0.20807
 C56 C 0.51166 -0.03917 0.23140
 H57 H 0.44994 0.05362 0.27527
 H58 H 0.52254 -0.06157 0.29594
 H59 H 0.57864 0.06354 0.25132
 H60 H 0.50208 0.00179 0.17445
 C61 C 0.48268 -0.03510 0.77130
 C62 C 0.44752 -0.02550 0.74029
 C63 C 0.45433 0.01346 0.71913
 C64 C 0.49576 0.03902 0.73043
 C65 C 0.52459 -0.03185 0.74428
 C66 C 0.53157 0.00705 0.72317
 C67 C 0.48482 0.00539 0.80004
 C68 C 0.49165 0.04429 0.77859
 H69 H 0.41838 -0.04589 0.73765
 H70 H 0.50160 0.06991 0.71205
 H71 H 0.54726 -0.05753 0.74316
 H72 H 0.47957 0.00331 0.83409
 C73 C 0.31981 0.03157 0.44657
 H74 H 0.31918 0.06269 0.46268
 C75 C 0.35336 0.02375 0.41755
 H76 H 0.37823 0.04928 0.41123
 C77 C 0.28930 -0.04031 0.43735
 H78 H 0.26483 -0.06551 0.44599
 C79 C 0.32267 -0.04975 0.40856
 H80 H 0.32291 -0.08194 0.39447
 N81 N 0.28867 -0.00026 0.45590
 C82 C 0.18649 0.07079 0.51936
 H83 H 0.18239 0.05209 0.54865
 C84 C 0.16032 0.10561 0.51194
 H85 H 0.13654 0.11375 0.53605
 C86 C 0.22232 0.08224 0.45235
 H87 H 0.24575 0.07237 0.42873
 C88 C 0.19693 0.11735 0.44366
 H89 H 0.20144 0.13401 0.41331
 Zn90 Zn 0.24914 0.01044 0.50114
 N91 N 0.21692 0.05996 0.48984
 C92 C 0.28325 0.05760 0.57096
 N93 N 0.28286 0.01949 0.54896
 C94 C 0.30988 -0.01257 0.55796
 C95 C 0.33856 -0.00719 0.59041
 C96 C 0.31178 0.06454 0.60349
 C97 C 0.18060 -0.04690 0.48002
 C98 C 0.15105 -0.08279 0.48470
 C99 C 0.18219 -0.10059 0.55107
 C100 C 0.21049 -0.06389 0.54560
 N101 N 0.20986 -0.03846 0.51004
 H102 H 0.26226 0.08310 0.56268
 H103 H 0.30966 -0.04209 0.53923
 H104 H 0.36030 -0.03282 0.59641
 H105 H 0.31177 0.09516 0.62050
 H106 H 0.18051 -0.02585 0.45227
 H107 H 0.12847 -0.08958 0.46018
 H108 H 0.18358 -0.12089 0.57924
 H109 H 0.23308 -0.05608 0.56969
 C110 C 0.16534 0.12945 0.47362
 C111 C 0.35546 -0.01760 0.39869
 C112 C 0.15222 -0.11049 0.52027
 C113 C 0.34014 0.03201 0.61329
 C114 C 0.68291 -0.04371 0.56513
 H115 H 0.67804 -0.07315 0.54673
 C116 C 0.65418 -0.03495 0.59872
 H117 H 0.62713 -0.05782 0.60573
 C118 C 0.72329 0.02256 0.57709
 H119 H 0.75053 0.04471 0.56903
 C120 C 0.69546 0.03258 0.61082
 H121 H 0.70180 0.06249 0.62814
 N122 N 0.71565 -0.01419 0.55396
 C123 C 0.83238 0.02253 0.49206
 H124 H 0.84637 -0.00884 0.49555
 C125 C 0.85926 0.06043 0.48602
 H126 H 0.89361 0.05742 0.48537
 C127 C 0.77092 0.06416 0.48721
 H128 H 0.73635 0.06532 0.48781
 C129 C 0.79645 0.10274 0.48125
 H130 H 0.78063 0.13309 0.47763
 Zn131 Zn 0.74983 -0.02377 0.50427
 N132 N 0.78901 0.02525 0.49366
 C133 C 0.73617 -0.03385 0.41839
 N134 N 0.71527 -0.02822 0.45637
 C135 C 0.67231 -0.02260 0.45895
 C136 C 0.64881 -0.02200 0.42223
 C137 C 0.71399 -0.03337 0.38097
 C138 C 0.80975 -0.07667 0.54090
 C139 C 0.83446 -0.11327 0.54459
 C140 C 0.79250 -0.14927 0.49114
 C141 C 0.76935 -0.11158 0.48769
 N142 N 0.77902 -0.07587 0.51165
 H143 H 0.77041 -0.03779 0.41719
 H144 H 0.65637 -0.01695 0.48922
 H145 H 0.61498 -0.01603 0.42487
 H146 H 0.73149 -0.03757 0.35115
 H147 H 0.81603 -0.04824 0.56035
 H148 H 0.85988 -0.11291 0.56690
 H149 H 0.78524 -0.17693 0.47095
 H150 H 0.74400 -0.11075 0.46549
 C151 C 0.84139 0.10147 0.48117
 C152 C 0.65959 0.00436 0.62118
 C153 C 0.82615 -0.14988 0.51912
 C154 C 0.66986 -0.02659 0.38250
 C155 C 0.47077 0.17863 1.05992
 H156 H 0.44980 0.16866 1.03495
 C157 C 0.47307 0.15193 1.09583
 H158 H 0.45357 0.12155 1.09855
 C159 C 0.52184 0.23026 1.08679
 H160 H 0.54110 0.26056 1.08304
 C161 C 0.52439 0.20508 1.12358
 H162 H 0.54586 0.21623 1.14776
 N163 N 0.49518 0.21687 1.05594
 C164 C 0.44363 0.32444 0.99043
 H165 H 0.47274 0.33734 0.97411
 C166 C 0.40742 0.34929 0.99181
 H167 H 0.40914 0.38126 0.97652
 C168 C 0.40576 0.26640 1.02864
 H169 H 0.40531 0.23408 1.04294
 C170 C 0.36865 0.29001 1.03048
 H171 H 0.34002 0.27566 1.04667
 Zn172 Zn 0.49239 0.25181 1.00635
 N173 N 0.44233 0.28399 1.00905
 C174 C 0.47519 0.23278 0.92240
 N175 N 0.49106 0.21590 0.95813
 C176 C 0.50732 0.17539 0.95863
 C177 C 0.50737 0.14984 0.92219
 C178 C 0.47488 0.20851 0.88525
 C179 C 0.54377 0.32804 1.02473
 C180 C 0.57958 0.35736 1.02028
 C181 C 0.60966 0.30990 0.96728
 C182 C 0.57309 0.28188 0.97227
 N183 N 0.54117 0.29120 1.00078
 H184 H 0.46297 0.26528 0.92268
 H185 H 0.52097 0.16319 0.98705
 H186 H 0.52085 0.11788 0.92301
 H187 H 0.46166 0.22246 0.85732
 H188 H 0.51797 0.33460 1.04729
 H189 H 0.58138 0.38632 1.03982
 H190 H 0.63473 0.30185 0.94444
 H191 H 0.57042 0.25244 0.95359
 C192 C 0.36930 0.33210 1.01205
 C193 C 0.49993 0.16535 1.12827
 C194 C 0.61321 0.34812 0.99150
 C195 C 0.49122 0.16652 0.88484
 C196 C 0.46470 0.78311 -0.07004
 H197 H 0.44252 0.75611 -0.06064
 C198 C 0.45737 0.80738 -0.10644
 H199 H 0.42916 0.79899 -0.12403
 C200 C 0.52791 0.82680 -0.05837
 H201 H 0.55564 0.83385 -0.03968
 C202 C 0.52159 0.85221 -0.09448
 H203 H 0.54469 0.87874 -0.10327
 N204 N 0.49949 0.79306 -0.04672
 C205 C 0.46180 0.67542 -0.00519
 H206 H 0.49102 0.66463 -0.02032
 C207 C 0.42523 0.64693 -0.00217
 H208 H 0.42684 0.61430 -0.01506
 C209 C 0.42384 0.73187 0.02797
 H210 H 0.42349 0.76526 0.03919
 C211 C 0.38667 0.70453 0.03175
 H212 H 0.35822 0.71724 0.04668
 Zn213 Zn 0.50791 0.75769 0.00211
 N214 N 0.46030 0.71710 0.00953
 C215 C 0.50877 0.83716 0.05010
 N216 N 0.51040 0.79269 0.05187
 C217 C 0.51119 0.77136 0.08975
 C218 C 0.51158 0.79461 0.12757
 C219 C 0.50907 0.86185 0.08723
 C220 C 0.58455 0.73311 -0.04136
 C221 C 0.62110 0.70915 -0.04806
 C222 C 0.60409 0.67079 0.01811
 C223 C 0.56794 0.69555 0.02359
 N224 N 0.55886 0.72623 -0.00582
 H225 H 0.50663 0.85374 0.02001
 H226 H 0.51041 0.73598 0.09088
 H227 H 0.51198 0.77576 0.15661
 H228 H 0.50787 0.89707 0.08421
 H229 H 0.57650 0.75666 -0.06505
 H230 H 0.64044 0.71485 -0.07695
 H231 H 0.61046 0.64667 0.04205
 H232 H 0.54659 0.68931 0.05090
 C233 C 0.38678 0.66160 0.01599
 C234 C 0.48598 0.84246 -0.11913
 C235 C 0.63128 0.67739 -0.01813
 C236 C 0.51065 0.84079 0.12705
 C237 C 1.00775 0.50795 0.15989
 H238 H 0.97455 0.51286 0.15436
 C239 C 1.03703 0.50979 0.12549
 H240 H 1.02565 0.51563 0.09412
 C241 C 1.06285 0.49468 0.20692
 H242 H 1.07290 0.48916 0.23878
 C243 C 1.09335 0.49588 0.17310
 H244 H 1.12672 0.49171 0.17931
 N245 N 1.02105 0.50206 0.19996
 C246 C 0.94709 0.46945 0.31779
 H247 H 0.92664 0.49691 0.31648
 C248 C 0.94221 0.43994 0.35168
 H249 H 0.91810 0.44635 0.37594
 C250 C 1.00356 0.43009 0.28717
 H251 H 1.02715 0.42622 0.26170
 C252 C 1.00019 0.39982 0.32102
 H253 H 1.02149 0.37300 0.32063
 Zn254 Zn 0.97938 0.50963 0.24490
 N255 N 0.97737 0.46431 0.28648
 C256 C 0.90207 0.47127 0.21849
 N257 N 0.92472 0.51034 0.22086
 C258 C 0.91177 0.54695 0.20115
 C259 C 0.87552 0.54458 0.17653
 C260 C 0.86569 0.46746 0.19440
 C261 C 1.03346 0.57426 0.28144
 C262 C 1.04363 0.60879 0.30846
 C263 C 0.96809 0.62025 0.31858
 C264 C 0.95936 0.58538 0.29132
 N265 N 0.99190 0.56280 0.27374
 H266 H 0.91354 0.44237 0.23350
 H267 H 0.93090 0.57744 0.20264
 H268 H 0.86655 0.57377 0.16009
 H269 H 0.84975 0.43539 0.19169
 H270 H 1.05891 0.55560 0.26810
 H271 H 1.07693 0.61572 0.31509
 H272 H 0.94156 0.63704 0.33282
 H273 H 0.92645 0.57517 0.28570
 C274 C 0.96902 0.40435 0.35414
 C275 C 1.08057 0.50500 0.13199
 C276 C 1.01071 0.63173 0.32827
 C277 C 0.85256 0.50413 0.17203
 C278 C -0.02727 0.44802 0.82286
 H279 H -0.00143 0.42573 0.82179
 C280 C -0.05729 0.44574 0.85666
 H281 H -0.05373 0.42159 0.88134
 C282 C -0.06096 0.50784 0.79247
 H283 H -0.06164 0.53258 0.76785
 C284 C -0.09201 0.50660 0.82587
 H285 H -0.11687 0.53000 0.82601
 N286 N -0.02970 0.47837 0.79144
 C287 C 0.04282 0.41959 0.68724
 H288 H 0.06919 0.44372 0.68209
 C289 C 0.03719 0.38508 0.65874
 H290 H 0.05960 0.38300 0.63191
 C291 C -0.02022 0.39538 0.72665
 H292 H -0.04345 0.40021 0.75219
 C293 C -0.02686 0.36031 0.69922
 H294 H -0.05457 0.33806 0.70515
 Zn295 Zn 0.01635 0.47777 0.75058
 N296 N 0.01371 0.42468 0.71980
 C297 C 0.09652 0.45481 0.78581
 N298 N 0.06616 0.48488 0.78218
 C299 C 0.06834 0.52325 0.80366
 C300 C 0.10252 0.53340 0.82922
 C301 C 0.13113 0.46332 0.81201
 C302 C -0.01830 0.53146 0.68719
 C303 C -0.01568 0.56315 0.65463
 C304 C 0.05867 0.57863 0.66983
 C305 C 0.05454 0.54727 0.70217
 N306 N 0.01654 0.52437 0.71037
 H307 H 0.09361 0.42417 0.76894
 H308 H 0.04325 0.54611 0.80074
 H309 H 0.10325 0.56406 0.84621
 H310 H 0.15509 0.43922 0.81510
 H311 H -0.04776 0.51180 0.69327
 H312 H -0.04336 0.56802 0.63593
 H313 H 0.08937 0.59615 0.66387
 H314 H 0.08241 0.54014 0.71957
 C315 C 0.00115 0.35564 0.66380
 C316 C -0.09047 0.47506 0.85851
 C317 C 0.02351 0.58654 0.64528
 C318 C 0.13441 0.50330 0.83372
 N319 N 0.14628 0.19766 0.43494
 N320 N 0.11431 0.22438 0.43472
 C321 C 0.08402 0.21033 0.46417
 C322 C 0.09781 0.17323 0.48415
 C323 C 0.13735 0.16602 0.46458
 H324 H 0.08075 0.15387 0.50894
 H325 H 0.17391 0.20176 0.41530
 H326 H 0.11408 0.25176 0.41474
 N327 N 0.70234 0.66056 -0.05289
 N328 N 0.72959 0.62886 -0.05215
 C329 C 0.71439 0.59769 -0.02406
 C330 C 0.67601 0.61058 -0.00586
 C331 C 0.66917 0.65049 -0.02521
 H332 H 0.65551 0.59250 0.01738
 H333 H 0.70696 0.68869 -0.07194
 H334 H 0.75808 0.62926 -0.07058
 N335 N 0.84062 -0.22941 0.51256
 N336 N 0.87446 -0.25363 0.51060
 C337 C 0.90998 -0.22767 0.51622
 C338 C 0.89800 -0.18502 0.52281
 C339 C 0.85384 -0.18755 0.51993
 H340 H 0.91837 -0.15560 0.52606
 H341 H 0.80925 -0.24137 0.50795
 H342 H 0.87335 -0.28712 0.50385
 N343 N 0.28993 0.34043 1.01714
 N344 N 0.26328 0.37257 1.01560
 C345 C 0.28622 0.41115 1.01169
 C346 C 0.32946 0.40307 1.00997
 C347 C 0.33048 0.35783 1.01363
 H348 H 0.35641 0.42661 1.00572
 H349 H 0.28018 0.30718 1.01917
 H350 H 0.22990 0.36795 1.01637
 N351 N 0.85447 0.18278 0.46921
 N352 N 0.88671 0.21240 0.47019
 C353 C 0.92271 0.19214 0.47848
 C354 C 0.91303 0.14741 0.48279
 C355 C 0.86904 0.14270 0.47708
 H356 H 0.93480 0.12236 0.49047
 H357 H 0.82319 0.19061 0.46316
 H358 H 0.88383 0.24592 0.46474
 N359 N 0.30691 0.64819 0.02206
 N360 N 0.27842 0.61494 0.01936
 C361 C 0.29920 0.57788 0.01260
 C362 C 0.34302 0.58807 0.01110
 C363 C 0.34665 0.63320 0.01709
 H364 H 0.36848 0.56583 0.00562
 H365 H 0.29869 0.68064 0.02620
 H366 H 0.24533 0.61804 0.02227
 N367 N 0.13599 -0.18867 0.54133
 N368 N 0.10453 -0.21884 0.53798
 C369 C 0.07161 -0.20058 0.51948
 C370 C 0.08260 -0.15684 0.51029
 C371 C 0.12393 -0.15069 0.52453
 H372 H 0.06363 -0.13324 0.49477
 H373 H 0.16559 -0.19454 0.55389
 H374 H 0.10571 -0.25133 0.54840
 N375 N 0.69180 0.36278 0.97785
 N376 N 0.72011 0.39634 0.97872
 C377 C 0.69951 0.43276 0.98875
 C378 C 0.65605 0.42195 0.99472
 C379 C 0.65257 0.37706 0.98764
 H380 H 0.63080 0.44352 1.00346
 H381 H 0.69966 0.33056 0.97157
 H382 H 0.75293 0.39409 0.97220
 N383 N 0.50950 0.15513 1.20557
 N384 N 0.51163 0.12236 1.23282
 C385 C 0.50641 0.08404 1.21225
 C386 C 0.49996 0.09296 1.16984
 C387 C 0.50246 0.13846 1.16702
 H388 H 0.49561 0.07005 1.14428
 H389 H 0.51281 0.18826 1.21352
 H390 H 0.51736 0.12626 1.26496
 N391 N 0.06642 0.62522 0.58672
 N392 N 0.06127 0.65536 0.55743
 C393 C 0.02046 0.66778 0.56035
 C394 C -0.00143 0.64390 0.59294
 C395 C 0.02908 0.61752 0.60899
 H396 H -0.03437 0.64617 0.60424
 H397 H 0.09521 0.61013 0.59096
 H398 H 0.08590 0.66714 0.53643
 N399 N 0.45433 0.85445 -0.18980
 N400 N 0.45321 0.88630 -0.21831
 C401 C 0.47608 0.92178 -0.20481
 C402 C 0.49333 0.91155 -0.16636
 C403 C 0.47832 0.86869 -0.15762
 H404 H 0.51329 0.93273 -0.14716
 H405 H 0.43932 0.82334 -0.19299
 H406 H 0.43738 0.88323 -0.24669
 N407 N 0.93197 0.37392 0.41841
 N408 N 0.93807 0.34058 0.44757
 C409 C 0.97443 0.32113 0.43587
 C410 C 0.99194 0.34156 0.39892
 C411 C 0.96452 0.37457 0.38889
 H412 H 1.02115 0.33367 0.38184
 H413 H 0.90537 0.39319 0.41989
 H414 H 0.91744 0.33383 0.47383
 N415 N 0.51388 0.84712 0.20425
 N416 N 0.51415 0.88090 0.23363
 C417 C 0.51139 0.91915 0.21242
 C418 C 0.50920 0.91041 0.16930
 C419 C 0.51103 0.86495 0.16519
 H420 H 0.50712 0.93436 0.14417
 H421 H 0.51623 0.81424 0.21269
 H422 H 0.51592 0.87570 0.26616
 N423 N -0.04948 0.30523 0.62540
 N424 N -0.04951 0.28226 0.59020
 C425 C -0.00966 0.28439 0.57228
 C426 C 0.01713 0.30980 0.59730
 C427 C -0.00955 0.32289 0.63072
 H428 H 0.05057 0.31933 0.59064
 H429 H -0.07712 0.31019 0.64403
 H430 H -0.07676 0.26616 0.57839
 N431 N 0.49227 0.15836 0.80615
 N432 N 0.49272 0.12639 0.77831
 C433 C 0.49258 0.08762 0.79923
 C434 C 0.49228 0.09547 0.84241
 C435 C 0.49196 0.14078 0.84545
 H436 H 0.49173 0.07165 0.86804
 H437 H 0.49268 0.19163 0.79795
 H438 H 0.49275 0.13169 0.74566
 N439 N 1.06035 0.68096 0.36966
 N440 N 1.05817 0.70444 0.40453
 C441 C 1.01705 0.70400 0.41891
 C442 C 0.99184 0.67940 0.39199
 C443 C 1.02058 0.66471 0.36127
 H444 H 0.95789 0.67085 0.39622
 H445 H 1.08898 0.67584 0.35271
 H446 H 1.08463 0.72001 0.41832
 N447 N 1.10665 0.53891 0.06294
 N448 N 1.14050 0.53807 0.03666
 C449 C 1.16828 0.51047 0.05245
 C450 C 1.15139 0.49311 0.09073
 C451 C 1.11214 0.51198 0.09614
 H452 H 1.16534 0.46970 0.11134
 H453 H 1.08051 0.55807 0.05810
 H454 H 1.14366 0.55545 0.00798
 N455 N 0.62055 0.05937 0.66401
 N456 N 0.58664 0.06009 0.69025
 C457 C 0.57071 0.01867 0.69705
 C458 C 0.59565 -0.00981 0.67418
 C459 C 0.62692 0.01740 0.65332
 H460 H 0.59073 -0.04508 0.67199
 H461 H 0.63783 0.08755 0.65262
 H462 H 0.57473 0.08871 0.70299
 N463 N -0.12920 0.43736 0.92081
 N464 N -0.15961 0.44545 0.94942
 C465 C -0.17361 0.48579 0.94216
 C466 C -0.15078 0.50416 0.90705
 C467 C -0.12274 0.47235 0.89447
 H468 H -0.15393 0.53617 0.89287
 H469 H -0.11398 0.40774 0.91936
 H470 H -0.17045 0.42296 0.97302
 N471 N 0.40715 -0.06761 0.36368
 N472 N 0.44051 -0.06428 0.33649
 C473 C 0.44749 -0.02187 0.32464
 C474 C 0.41735 0.00286 0.34546
 C475 C 0.39227 -0.02735 0.36988
 H476 H 0.41367 0.03783 0.34267
 H477 H 0.39521 -0.09706 0.37785
 H478 H 0.45735 -0.09093 0.32567
 N479 N 0.18430 0.55500 0.87067
 N480 N 0.20950 0.55388 0.90312
 C481 C 0.21156 0.51192 0.91608
 C482 C 0.18703 0.48491 0.89035
 C483 C 0.16963 0.51375 0.86235
 H484 H 0.17931 0.45008 0.89436
 H485 H 0.17623 0.58387 0.85560
 H486 H 0.22383 0.58167 0.91688
 N487 N 0.66649 -0.00535 0.30624
 N488 N 0.63692 0.00213 0.27880
 C489 C 0.59806 -0.00867 0.29696
 C490 C 0.60294 -0.02374 0.33787
 C491 C 0.64707 -0.02066 0.34276
 H492 H 0.57782 -0.03283 0.36139
 H493 H 0.69916 0.00237 0.30046
 H494 H 0.64335 0.01565 0.24856
 N495 N 0.79112 0.46300 0.13873
 N496 N 0.76940 0.46587 0.10393
 C497 C 0.78112 0.50402 0.08403
 C498 C 0.81166 0.52663 0.10706
 C499 C 0.81776 0.49910 0.14146
 H500 H 0.82963 0.55670 0.09779
 H501 H 0.78828 0.43591 0.15926
 H502 H 0.74781 0.44143 0.09344
 N503 N 0.38897 0.07970 0.65628
 N504 N 0.41944 0.07476 0.68344
 C505 C 0.42305 0.03157 0.69085
 C506 C 0.39352 0.00794 0.66737
 C507 C 0.37263 0.03973 0.64560
 H508 H 0.38864 -0.02738 0.66576
 H509 H 0.38062 0.11006 0.64453
 H510 H 0.43719 0.10077 0.69660
   
