data_POSCAR
  _audit_creation_date              2014-09-24
  _audit_creation_method            'ToBaCCo'
  _symmetry_space_group_name_H-M    'P1'
  _symmetry_Int_Tables_number       1
  _symmetry_cell_setting            triclinic
  loop_
  _symmetry_equiv_pos_as_xyz
 x,y,z
_cell_length_a 28.5906
_cell_length_b 27.8837
_cell_length_c 22.8472
_cell_angle_alpha 91.052700
_cell_angle_beta 89.702600
_cell_angle_gamma 93.341700
loop_
  _atom_site_label
  _atom_site_type_symbol
  _atom_site_fract_x
  _atom_site_fract_y
  _atom_site_fract_z
C1 C 0.31714 -0.05283 0.25762
 C2 C 0.32817 -0.00749 0.23269
 C3 C 0.34753 -0.00639 0.17679
 C4 C 0.36908 -0.04620 0.15478
 C5 C 0.36128 -0.09082 0.18059
 C6 C 0.33029 -0.09520 0.22801
 C7 C 0.34163 0.03620 0.26793
 C8 C 0.38711 0.03738 0.29182
 C9 C 0.41345 0.08092 0.29814
 C10 C 0.39402 0.12367 0.28359
 C11 C 0.34744 0.12423 0.26622
 C12 C 0.32107 0.08026 0.25710
 H13 H 0.30158 -0.05494 0.30089
 H14 H 0.35650 0.02811 0.15704
 H15 H 0.40386 0.00411 0.29919
 H16 H 0.28629 0.08012 0.23858
 H17 H 0.38017 -0.12098 0.16517
 H18 H 0.41444 0.15741 0.28960
 C19 C 0.16755 -0.08870 0.77022
 C20 C 0.15715 -0.04033 0.77860
 C21 C 0.12410 -0.02868 0.82069
 C22 C 0.09516 -0.06372 0.84617
 C23 C 0.10297 -0.11208 0.83613
 C24 C 0.14158 -0.12453 0.80189
 C25 C 0.16845 -0.00159 0.73708
 C26 C 0.12914 0.01150 0.70509
 C27 C 0.12064 0.05985 0.69919
 C28 C 0.15422 0.09474 0.71655
 C29 C 0.19648 0.08254 0.74121
 C30 C 0.20391 0.03405 0.75169
 H31 H 0.19405 -0.09839 0.73885
 H32 H 0.11683 0.00870 0.82869
 H33 H 0.10073 -0.01512 0.69625
 H34 H 0.23415 0.02491 0.77662
 H35 H 0.08121 -0.13966 0.85742
 H36 H 0.14711 0.13216 0.71095
 C37 C 0.70091 0.41581 0.26654
 C38 C 0.69089 0.46446 0.28032
 C39 C 0.65904 0.47257 0.32515
 C40 C 0.62538 0.43720 0.33941
 C41 C 0.63111 0.38956 0.32113
 C42 C 0.67270 0.37768 0.29175
 C43 C 0.69036 0.50361 0.23689
 C44 C 0.65529 0.49631 0.19419
 C45 C 0.62838 0.53390 0.17707
 C46 C 0.63910 0.58045 0.19865
 C47 C 0.67809 0.59039 0.23444
 C48 C 0.70368 0.55180 0.25424
 H49 H 0.72780 0.40802 0.23485
 H50 H 0.65256 0.50914 0.33873
 H51 H 0.64395 0.46000 0.18070
 H52 H 0.73138 0.55870 0.28596
 H53 H 0.60574 0.36144 0.33434
 H54 H 0.61906 0.60984 0.18439
 C55 C 0.81649 0.43580 0.75860
 C56 C 0.81997 0.48485 0.74247
 C57 C 0.83692 0.49640 0.68661
 C58 C 0.86316 0.46420 0.65578
 C59 C 0.86330 0.41652 0.67346
 C60 C 0.83610 0.40098 0.72138
 C61 C 0.83052 0.52429 0.78536
 C62 C 0.87648 0.52474 0.80700
 C63 C 0.90361 0.56780 0.81087
 C64 C 0.88391 0.61117 0.80123
 C65 C 0.83668 0.61241 0.78810
 C66 C 0.80951 0.56883 0.77937
 H67 H 0.80117 0.42546 0.80025
 H68 H 0.83981 0.53367 0.67341
 H69 H 0.89391 0.49132 0.81005
 H70 H 0.77440 0.56950 0.76198
 H71 H 0.88232 0.39087 0.64811
 H72 H 0.90537 0.64448 0.80479
 C73 C 0.23463 0.38923 1.05991
 C74 C 0.26290 0.41591 1.02074
 C75 C 0.30507 0.43776 1.03883
 C76 C 0.32179 0.43250 1.09552
 C77 C 0.29424 0.40405 1.13516
 C78 C 0.24979 0.38256 1.11723
 C79 C 0.24953 0.42175 0.95988
 C80 C 0.21271 0.45023 0.94740
 C81 C 0.19899 0.45697 0.88939
 C82 C 0.22505 0.43699 0.84394
 C83 C 0.26188 0.40724 0.85635
 C84 C 0.27456 0.40043 0.91449
 H85 H 0.20144 0.37253 1.04523
 H86 H 0.32617 0.45761 1.00693
 H87 H 0.19404 0.46613 0.98347
 H88 H 0.30184 0.37654 0.92459
 H89 H 0.30751 0.39896 1.17859
 H90 H 0.21307 0.43961 0.79926
 C91 C 0.75091 0.11421 1.10143
 C92 C 0.72821 0.10196 1.04802
 C93 C 0.68267 0.08208 1.04923
 C94 C 0.65955 0.07154 1.10198
 C95 C 0.68149 0.08501 1.15535
 C96 C 0.72740 0.10671 1.15527
 C97 C 0.75314 0.10005 0.99108
 C98 C 0.79356 0.07411 0.98777
 C99 C 0.81437 0.06397 0.93365
 C100 C 0.79408 0.07940 0.88261
 C101 C 0.75415 0.10630 0.88442
 C102 C 0.73341 0.11676 0.93885
 H103 H 0.78697 0.12853 1.10115
 H104 H 0.66582 0.07226 1.00804
 H105 H 0.80872 0.06152 1.02764
 H106 H 0.70296 0.13809 0.94080
 H107 H 0.66357 0.07770 1.19639
 H108 H 0.81166 0.07361 0.84114
 C109 C 0.25445 0.61190 0.58048
 C110 C 0.22996 0.60242 0.52705
 C111 C 0.18192 0.59132 0.52872
 C112 C 0.15805 0.58493 0.58208
 C113 C 0.18234 0.59306 0.63437
 C114 C 0.23013 0.60783 0.63433
 C115 C 0.25402 0.59201 0.47086
 C116 C 0.28678 0.55693 0.47112
 C117 C 0.30945 0.54287 0.42020
 C118 C 0.29761 0.56287 0.36665
 C119 C 0.26269 0.59677 0.36411
 C120 C 0.24078 0.61117 0.41668
 H121 H 0.29193 0.62010 0.58021
 H122 H 0.16398 0.58310 0.48779
 H123 H 0.29648 0.54155 0.51229
 H124 H 0.21553 0.63862 0.41592
 H125 H 0.16389 0.58802 0.67554
 H126 H 0.31764 0.55480 0.32770
 C127 C 0.74691 0.88058 0.56164
 C128 C 0.76764 0.91293 0.52088
 C129 C 0.80413 0.94567 0.53783
 C130 C 0.82203 0.94576 0.59403
 C131 C 0.80149 0.91449 0.63442
 C132 C 0.76402 0.88225 0.61906
 C133 C 0.75122 0.91531 0.46068
 C134 C 0.71476 0.94466 0.44786
 C135 C 0.69931 0.94849 0.39000
 C136 C 0.72194 0.92396 0.34536
 C137 C 0.75894 0.89496 0.35791
 C138 C 0.77411 0.89118 0.41562
 H139 H 0.71865 0.85503 0.54892
 H140 H 0.81711 0.97200 0.50767
 H141 H 0.69711 0.96257 0.48344
 H142 H 0.80170 0.86768 0.42585
 H143 H 0.81452 0.91541 0.67897
 H144 H 0.70808 0.92403 0.30131
 C145 C -0.07363 0.22395 0.38340
 C146 C -0.02627 0.23059 0.39981
 C147 C -0.00938 0.20536 0.44652
 C148 C -0.03899 0.17589 0.47997
 C149 C -0.08653 0.16771 0.46309
 C150 C -0.10398 0.19146 0.41371
 C151 C 0.00286 0.27320 0.38382
 C152 C -0.00693 0.31485 0.41570
 C153 C 0.02890 0.34919 0.42758
 C154 C 0.07327 0.34475 0.40374
 C155 C 0.08321 0.30559 0.36856
 C156 C 0.04803 0.26881 0.35887
 H157 H -0.08668 0.24392 0.34727
 H158 H 0.02663 0.21236 0.46067
 H159 H -0.04096 0.31826 0.43607
 H160 H 0.05682 0.23549 0.33755
 H161 H -0.10934 0.14260 0.48711
 H162 H 0.10063 0.37246 0.41272
 C163 C -0.01992 0.74963 0.17558
 C164 C 0.01088 0.76043 0.12939
 C165 C 0.00861 0.80348 0.09921
 C166 C -0.02218 0.83737 0.11849
 C167 C -0.04939 0.82862 0.16840
 C168 C -0.05093 0.78357 0.19416
 C169 C 0.04131 0.72458 0.10704
 C170 C 0.02746 0.69913 0.05685
 C171 C 0.05808 0.67035 0.02767
 C172 C 0.10411 0.66658 0.04980
 C173 C 0.11803 0.69178 0.10233
 C174 C 0.08577 0.72045 0.13061
 H175 H -0.02059 0.71468 0.19572
 H176 H 0.03069 0.81045 0.06124
 H177 H -0.00719 0.70322 0.03900
 H178 H 0.09608 0.74199 0.16886
 H179 H -0.07051 0.85642 0.18555
 H180 H 0.12878 0.64519 0.02637
 C181 C 0.45683 0.27149 0.67084
 C182 C 0.49060 0.26935 0.62631
 C183 C 0.49837 0.30747 0.58784
 C184 C 0.47467 0.34904 0.59760
 C185 C 0.44424 0.35275 0.64491
 C186 C 0.43192 0.31300 0.67830
 C187 C 0.51784 0.22734 0.62037
 C188 C 0.50750 0.19280 0.57599
 C189 C 0.53463 0.15300 0.57214
 C190 C 0.57132 0.14827 0.61097
 C191 C 0.58388 0.18394 0.65176
 C192 C 0.55621 0.22336 0.65779
 H193 H 0.44815 0.24006 0.69682
 H194 H 0.52291 0.30509 0.55172
 H195 H 0.47883 0.19660 0.54593
 H196 H 0.56593 0.25214 0.68868
 H197 H 0.42513 0.38484 0.65030
 H198 H 0.59313 0.11824 0.60537
 C199 C 0.41480 0.71117 0.85922
 C200 C 0.46362 0.71802 0.86684
 C201 C 0.48589 0.69139 0.90811
 C202 C 0.46033 0.66161 0.94599
 C203 C 0.41081 0.65497 0.93950
 C204 C 0.38757 0.67901 0.89458
 C205 C 0.48931 0.76255 0.84861
 C206 C 0.47830 0.80442 0.87969
 C207 C 0.50892 0.84482 0.87804
 C208 C 0.54867 0.84522 0.84270
 C209 C 0.56244 0.80363 0.81487
 C210 C 0.53235 0.76168 0.81726
 H211 H 0.39761 0.73380 0.82894
 H212 H 0.52326 0.69790 0.91528
 H213 H 0.44806 0.80434 0.90854
 H214 H 0.54408 0.72793 0.80015
 H215 H 0.39058 0.63214 0.96929
 H216 H 0.57270 0.87678 0.84361
 C217 C -0.30184 0.54344 0.99109
 C218 C -0.25589 0.55988 1.00775
 C219 C -0.25053 0.58775 1.05910
 C220 C -0.28905 0.60976 1.08387
 C221 C -0.33440 0.59563 1.06473
 C222 C -0.34145 0.56006 1.02098
 C223 C -0.22071 0.57408 0.96215
 C224 C -0.23346 0.61380 0.93077
 C225 C -0.20041 0.65048 0.91821
 C226 C -0.15271 0.64398 0.92533
 C227 C -0.13794 0.60030 0.94564
 C228 C -0.17227 0.56597 0.96734
 H229 H -0.30685 0.52330 0.95036
 H230 H -0.21548 0.60067 1.07179
 H231 H -0.27020 0.62147 0.92783
 H232 H -0.16153 0.53524 0.99107
 H233 H -0.36399 0.61401 1.08186
 H234 H -0.12704 0.67254 0.91418
 C235 C -0.32469 0.44305 0.49198
 C236 C -0.28678 0.41880 0.47053
 C237 C -0.29530 0.37661 0.43805
 C238 C -0.33981 0.35270 0.43724
 C239 C -0.37818 0.37646 0.45991
 C240 C -0.37036 0.42299 0.48488
 C241 C -0.24377 0.41922 0.50455
 C242 C -0.24742 0.38974 0.55314
 C243 C -0.21064 0.36266 0.56878
 C244 C -0.16671 0.37108 0.54232
 C245 C -0.16048 0.40789 0.50101
 C246 C -0.19973 0.42989 0.47931
 H247 H -0.31847 0.47553 0.51831
 H248 H -0.26548 0.35858 0.42060
 H249 H -0.28158 0.38117 0.57255
 H250 H -0.19621 0.45425 0.44297
 H251 H -0.41321 0.35959 0.45726
 H252 H -0.13700 0.35220 0.55694
 C253 C 0.16669 -0.08484 0.01321
 C254 C 0.20627 -0.10971 -0.00335
 C255 C 0.20143 -0.15166 -0.03819
 C256 C 0.15747 -0.17204 -0.05119
 C257 C 0.11789 -0.14948 -0.03156
 C258 C 0.12210 -0.10495 -0.00192
 C259 C 0.25208 -0.10034 0.02351
 C260 C 0.26695 -0.13656 0.05986
 C261 C 0.31425 -0.14376 0.06502
 C262 C 0.34681 -0.11364 0.03522
 C263 C 0.33270 -0.07246 0.00668
 C264 C 0.28478 -0.06608 0.00031
 H265 H 0.17042 -0.05190 0.03902
 H266 H 0.23207 -0.17071 -0.05085
 H267 H 0.24150 -0.16192 0.07938
 H268 H 0.27326 -0.03668 -0.02525
 H269 H 0.08334 -0.16566 -0.04134
 H270 H 0.38358 -0.12006 0.03864
 C271 C 0.19481 1.05802 0.48159
 C272 C 0.24311 1.07137 0.49156
 C273 C 0.25579 1.09423 0.54444
 C274 C 0.22227 1.11336 0.58038
 C275 C 0.17463 1.10193 0.57020
 C276 C 0.16027 1.07078 0.52342
 C277 C 0.27849 1.08085 0.44437
 C278 C 0.27383 1.12486 0.41598
 C279 C 0.31351 1.15370 0.40094
 C280 C 0.35794 1.13701 0.40943
 C281 C 0.36409 1.09092 0.42977
 C282 C 0.32409 1.06260 0.44833
 H283 H 0.18419 1.03957 0.44131
 H284 H 0.29222 1.10557 0.55235
 H285 H 0.23991 1.14035 0.41481
 H286 H 0.32870 1.02950 0.47107
 H287 H 0.14902 1.11676 0.59923
 H288 H 0.38858 1.16030 0.39960
 C289 C 0.12942 0.49464 0.14842
 C290 C 0.14944 0.51930 0.19709
 C291 C 0.18320 0.55661 0.18910
 C292 C 0.19747 0.57036 0.13292
 C293 C 0.17836 0.54548 0.08466
 C294 C 0.14404 0.50796 0.09210
 C295 C 0.14304 0.50135 0.25629
 C296 C 0.16563 0.45995 0.26894
 C297 C 0.16948 0.44447 0.32638
 C298 C 0.14979 0.47166 0.37155
 C299 C 0.12570 0.51336 0.35930
 C300 C 0.12249 0.52828 0.30127
 H301 H 0.10271 0.46594 0.15431
 H302 H 0.19786 0.57561 0.22717
 H303 H 0.18100 0.44001 0.23322
 H304 H 0.10448 0.56021 0.29122
 H305 H 0.18701 0.55805 0.04109
 H306 H 0.15070 0.45890 0.41602
 C307 C -0.12610 1.01678 0.21986
 C308 C -0.14173 0.98523 0.26381
 C309 C -0.15060 0.93650 0.25158
 C310 C -0.14950 0.91951 0.19420
 C311 C -0.13527 0.95130 0.14938
 C312 C -0.12100 0.99974 0.16260
 C313 C -0.15570 1.00408 0.32036
 C314 C -0.19585 1.03022 0.32277
 C315 C -0.20961 1.05057 0.37541
 C316 C -0.18351 1.04487 0.42571
 C317 C -0.14401 1.01756 0.42383
 C318 C -0.13017 0.99633 0.37115
 H319 H -0.11790 1.05440 0.23040
 H320 H -0.15900 0.91243 0.28682
 H321 H -0.21608 1.03502 0.28350
 H322 H -0.09853 0.97681 0.36892
 H323 H -0.13425 0.93733 0.10515
 H324 H -0.19311 1.06268 0.46625
 C325 C 0.37556 0.51770 -0.33482
 C326 C 0.36315 0.48975 -0.28619
 C327 C 0.34768 0.44201 -0.29447
 C328 C 0.34117 0.42173 -0.35085
 C329 C 0.35471 0.44954 -0.39970
 C330 C 0.37231 0.49778 -0.39143
 C331 C 0.35347 0.51235 -0.22920
 C332 C 0.31746 0.54391 -0.22759
 C333 C 0.29990 0.55992 -0.17458
 C334 C 0.31915 0.54593 -0.12217
 C335 C 0.35582 0.51493 -0.12255
 C336 C 0.37256 0.49705 -0.17637
 H337 H 0.38688 0.55523 -0.32859
 H338 H 0.33790 0.42134 -0.25623
 H339 H 0.30050 0.55283 -0.26786
 H340 H 0.40097 0.47299 -0.17731
 H341 H 0.35134 0.43395 -0.44331
 H342 H 0.30598 0.55954 -0.08088
 C343 C 0.60568 -0.01904 -0.34505
 C344 C 0.62323 0.00739 -0.29621
 C345 C 0.65090 0.04916 -0.30427
 C346 C 0.66345 0.06561 -0.35986
 C347 C 0.64479 0.03974 -0.40961
 C348 C 0.61519 -0.00284 -0.40208
 C349 C 0.62289 -0.01177 -0.23667
 C350 C 0.64684 -0.05319 -0.22834
 C351 C 0.66226 -0.06504 -0.17264
 C352 C 0.65263 -0.03512 -0.12467
 C353 C 0.62681 0.00583 -0.13174
 C354 C 0.61158 0.01720 -0.18789
 H355 H 0.58495 -0.05235 -0.33865
 H356 H 0.66433 0.06837 -0.26567
 H357 H 0.65584 -0.07480 -0.26622
 H358 H 0.59279 0.04935 -0.19402
 H359 H 0.65271 0.05279 -0.45309
 H360 H 0.66307 -0.04506 -0.08123
 C361 C -0.01399 0.18589 0.88407
 C362 C -0.01417 0.22723 0.84930
 C363 C -0.04995 0.23241 0.80852
 C364 C -0.08402 0.19544 0.80007
 C365 C -0.08309 0.15382 0.83330
 C366 C -0.04936 0.14913 0.87650
 C367 C 0.02595 0.26203 0.84695
 C368 C 0.06252 0.25214 0.80792
 C369 C 0.09399 0.28940 0.79103
 C370 C 0.09003 0.33544 0.81425
 C371 C 0.05596 0.34521 0.85551
 C372 C 0.02296 0.30854 0.87167
 H373 H 0.01454 0.18132 0.91410
 H374 H -0.05055 0.26455 0.78262
 H375 H 0.06526 0.21637 0.78931
 H376 H -0.00625 0.31669 0.89980
 H377 H -0.11003 0.12528 0.82676
 H378 H 0.11524 0.36401 0.80156
 C379 C 0.51365 0.18958 0.12191
 C380 C 0.51716 0.23043 0.15875
 C381 C 0.54937 0.23442 0.20481
 C382 C 0.57632 0.19579 0.21571
 C383 C 0.57090 0.15391 0.18126
 C384 C 0.54095 0.15109 0.13333
 C385 C 0.48513 0.26779 0.15107
 C386 C 0.44376 0.26704 0.18394
 C387 C 0.41247 0.30273 0.17599
 C388 C 0.42251 0.33837 0.13450
 C389 C 0.46492 0.33976 0.10300
 C390 C 0.49616 0.30429 0.11160
 H391 H 0.48829 0.18693 0.08673
 H392 H 0.55309 0.26684 0.23167
 H393 H 0.43582 0.23853 0.21469
 H394 H 0.52956 0.30585 0.08882
 H395 H 0.59156 0.12368 0.19073
 H396 H 0.39842 0.36638 0.12930
 C397 C -0.00288 0.71516 0.59481
 C398 C -0.00134 0.74884 0.64212
 C399 C 0.03699 0.75134 0.68080
 C400 C 0.07462 0.72288 0.66987
 C401 C 0.07471 0.69324 0.62037
 C402 C 0.03561 0.68659 0.58468
 C403 C -0.04106 0.77827 0.65665
 C404 C -0.07242 0.76255 0.70049
 C405 C -0.10306 0.79403 0.72627
 C406 C -0.10284 0.84191 0.70725
 C407 C -0.07197 0.85818 0.66237
 C408 C -0.04128 0.82577 0.63714
 H409 H -0.03441 0.70936 0.56896
 H410 H 0.03725 0.77488 0.71911
 H411 H -0.07105 0.72642 0.71699
 H412 H -0.01524 0.83829 0.60546
 H413 H 0.10364 0.67021 0.61380
 H414 H -0.12541 0.86684 0.72853
 C415 C 0.52892 0.69558 0.35431
 C416 C 0.52100 0.73668 0.32189
 C417 C 0.47653 0.74418 0.30045
 C418 C 0.43969 0.71139 0.31219
 C419 C 0.44649 0.67165 0.34641
 C420 C 0.49122 0.66289 0.36702
 C421 C 0.55813 0.77238 0.30754
 C422 C 0.59126 0.76184 0.26481
 C423 C 0.62035 0.79876 0.24162
 C424 C 0.61562 0.84670 0.26193
 C425 C 0.58314 0.85723 0.30647
 C426 C 0.55453 0.81944 0.32871
 H427 H 0.56386 0.68904 0.36918
 H428 H 0.47088 0.77511 0.27383
 H429 H 0.59427 0.72508 0.24969
 H430 H 0.52778 0.82671 0.36093
 H431 H 0.41707 0.64625 0.35412
 H432 H 0.63916 0.87527 0.24558
 B433 B -0.05141 0.02429 1.04304
 B434 B -0.07752 0.00519 0.98138
 B435 B -0.03257 0.04612 0.97869
 B436 B 0.00697 0.03437 1.03058
 B437 B -0.01486 -0.01619 1.06535
 B438 B -0.06810 -0.03412 1.03395
 B439 B -0.00206 -0.03982 0.94998
 B440 B 0.02494 -0.02035 1.01142
 B441 B -0.02024 -0.06063 1.01441
 B442 B -0.05977 -0.04939 0.96219
 B443 B -0.03770 0.00137 0.92724
 B444 B 0.01549 0.01913 0.95835
 B445 B 0.44121 0.51878 0.48954
 B446 B 0.43017 0.49727 0.42203
 B447 B 0.47172 0.54071 0.43280
 B448 B 0.49887 0.53318 0.49653
 B449 B 0.47344 0.48210 0.52512
 B450 B 0.43002 0.45926 0.47849
 B451 B 0.51330 0.45783 0.42066
 B452 B 0.52377 0.48049 0.48828
 B453 B 0.48288 0.43658 0.47750
 B454 B 0.45515 0.44415 0.41287
 B455 B 0.48099 0.49602 0.38402
 B456 B 0.52459 0.51795 0.43121
 B457 B 0.55292 0.98112 0.46773
 B458 B 0.58568 1.00641 0.41541
 B459 B 0.54412 0.96465 0.39733
 B460 B 0.49742 0.96992 0.44212
 B461 B 0.51126 1.01722 0.48881
 B462 B 0.56718 1.03969 0.47127
 B463 B 0.51229 1.05127 0.37703
 B464 B 0.47821 1.02497 0.42914
 B465 B 0.52044 1.06649 0.44746
 B466 B 0.56739 1.06115 0.40227
 B467 B 0.55335 1.01363 0.35510
 B468 B 0.49723 0.99157 0.37167
 B469 B 0.05020 0.49681 0.98486
 B470 B 0.07905 0.50183 0.92149
 B471 B 0.03214 0.46392 0.92657
 B472 B -0.00755 0.48764 0.97153
 B473 B 0.01600 0.54306 0.99413
 B474 B 0.07083 0.55123 0.96266
 B475 B 0.00772 0.54379 0.87516
 B476 B -0.02229 0.53788 0.93852
 B477 B 0.02552 0.57607 0.93354
 B478 B 0.06543 0.55197 0.88862
 B479 B 0.04130 0.49716 0.86556
 B480 B -0.01357 0.48880 0.89631
 B481 B 0.02445 0.53970 0.45265
 B482 B 0.04170 0.53750 0.52226
 B483 B -0.00157 0.57212 0.50523
 B484 B -0.03479 0.54457 0.45182
 B485 B -0.01034 0.49103 0.43704
 B486 B 0.03775 0.48762 0.48165
 B487 B -0.03767 0.49018 0.55116
 B488 B -0.05622 0.49290 0.48241
 B489 B -0.01227 0.45902 0.49875
 B490 B 0.02056 0.48627 0.55255
 B491 B -0.00432 0.53977 0.56795
 B492 B -0.05260 0.54347 0.52410
 B493 B 0.53582 0.02482 -0.03189
 B494 B 0.55262 0.00851 0.03455
 B495 B 0.51230 0.04893 0.02788
 B496 B 0.47758 0.03433 -0.03055
 B497 B 0.49816 -0.01703 -0.05970
 B498 B 0.54545 -0.03290 -0.01912
 B499 B 0.46988 -0.03635 0.05189
 B500 B 0.45217 -0.02017 -0.01390
 B501 B 0.49298 -0.05975 -0.00853
 B502 B 0.52733 -0.04555 0.05041
 B503 B 0.50669 0.00640 0.08014
 B504 B 0.45955 0.02217 0.03956
 B505 B 0.44623 0.49547 -0.01045
 B506 B 0.43498 0.50152 0.06115
 B507 B 0.47040 0.46034 0.03722
 B508 B 0.50212 0.48134 -0.02041
 B509 B 0.48508 0.53842 -0.03088
 B510 B 0.44258 0.55031 0.02028
 B511 B 0.52347 0.53585 0.07774
 B512 B 0.53419 0.52954 0.00614
 B513 B 0.49764 0.57082 0.03026
 B514 B 0.46682 0.54936 0.08852
 B515 B 0.48399 0.49226 0.09918
 B516 B 0.52663 0.48001 0.04778
 B517 B -0.05403 1.00903 0.53977
 B518 B -0.07279 1.02006 0.60841
 B519 B -0.03338 0.97894 0.59624
 B520 B 0.00377 0.99780 0.54137
 B521 B -0.01434 1.05261 0.52016
 B522 B -0.06272 1.06569 0.56248
 B523 B 0.01100 1.06048 0.63458
 B524 B 0.03045 1.04963 0.56721
 B525 B -0.01034 1.08962 0.57873
 B526 B -0.04583 1.07097 0.63355
 B527 B -0.02766 1.01655 0.65514
 B528 B 0.02038 1.00325 0.61362
 B529 B 0.74969 0.16471 0.28995
 B530 B 0.72644 0.15036 0.35556
 B531 B 0.77688 0.18397 0.35145
 B532 B 0.77437 0.22165 0.29350
 B533 B 0.72059 0.20923 0.26165
 B534 B 0.69221 0.16339 0.30074
 B535 B 0.70615 0.24088 0.37383
 B536 B 0.72841 0.25634 0.30871
 B537 B 0.67931 0.22062 0.31225
 B538 B 0.68197 0.18476 0.37050
 B539 B 0.73602 0.19686 0.40250
 B540 B 0.76520 0.24202 0.36382
 B541 B 0.72574 0.79018 0.72850
 B542 B 0.72012 0.81972 0.79210
 B543 B 0.68531 0.77089 0.77787
 B544 B 0.71571 0.73054 0.74008
 B545 B 0.77173 0.75573 0.73208
 B546 B 0.77413 0.81205 0.76533
 B547 B 0.75414 0.74783 0.84917
 B548 B 0.75851 0.71679 0.78594
 B549 B 0.79366 0.76604 0.79986
 B550 B 0.76301 0.80673 0.83764
 B551 B 0.70745 0.78105 0.84609
 B552 B 0.70527 0.72468 0.81454
 B553 B 0.28074 0.29520 0.77334
 B554 B 0.27863 0.30700 0.70195
 B555 B 0.31418 0.26629 0.72635
 B556 B 0.28862 0.23582 0.78214
 B557 B 0.23491 0.25891 0.79157
 B558 B 0.22948 0.30350 0.74137
 B559 B 0.23739 0.22059 0.68150
 B560 B 0.24051 0.20831 0.75231
 B561 B 0.20483 0.24904 0.72920
 B562 B 0.23026 0.27945 0.67259
 B563 B 0.28444 0.25627 0.66245
 B564 B 0.28996 0.21123 0.71217
 B565 B 0.25330 0.69250 0.25081
 B566 B 0.26875 0.67761 0.18256
 B567 B 0.22904 0.71838 0.19272
 B568 B 0.24334 0.75176 0.25343
 B569 B 0.29396 0.73039 0.27903
 B570 B 0.30939 0.68396 0.23408
 B571 B 0.31236 0.76439 0.16979
 B572 B 0.29596 0.77956 0.23832
 B573 B 0.33470 0.73812 0.22688
 B574 B 0.32084 0.70492 0.16612
 B575 B 0.27030 0.72667 0.13948
 B576 B 0.25514 0.77427 0.18450
 B577 B 0.24470 0.68223 0.76017
 B578 B 0.22183 0.65125 0.81683
 B579 B 0.26536 0.69382 0.82826
 B580 B 0.25761 0.74002 0.78292
 B581 B 0.20921 0.72473 0.74236
 B582 B 0.18693 0.66901 0.76353
 B583 B 0.18192 0.72917 0.85704
 B584 B 0.20526 0.76087 0.80150
 B585 B 0.16364 0.71820 0.78861
 B586 B 0.17026 0.67258 0.83475
 B587 B 0.21947 0.68761 0.87638
 B588 B 0.24078 0.74376 0.85562
 B589 B 0.22314 0.30290 0.22984
 B590 B 0.23395 0.33211 0.29278
 B591 B 0.19732 0.28332 0.29162
 B592 B 0.21603 0.24296 0.24273
 B593 B 0.26665 0.26791 0.21287
 B594 B 0.27741 0.32417 0.24474
 B595 B 0.28067 0.25888 0.33047
 B596 B 0.26852 0.22857 0.26777
 B597 B 0.30519 0.27766 0.26779
 B598 B 0.28652 0.31833 0.31751
 B599 B 0.23576 0.29305 0.34780
 B600 B 0.22523 0.23660 0.31699
 B601 B 0.79756 0.79071 0.27018
 B602 B 0.81388 0.79344 0.19919
 B603 B 0.83731 0.75475 0.24447
 B604 B 0.79654 0.73258 0.29166
 B605 B 0.74635 0.75923 0.27577
 B606 B 0.75798 0.79822 0.21794
 B607 B 0.77052 0.70741 0.17989
 B608 B 0.75538 0.70372 0.24983
 B609 B 0.73088 0.74417 0.20722
 B610 B 0.77185 0.76462 0.15817
 B611 B 0.82293 0.73749 0.17451
 B612 B 0.81203 0.69960 0.23135
 B613 B 0.73139 0.19463 0.76861
 B614 B 0.73492 0.17571 0.69808
 B615 B 0.70041 0.21973 0.71698
 B616 B 0.72561 0.25478 0.77025
 B617 B 0.77800 0.23130 0.78441
 B618 B 0.78298 0.18120 0.73911
 B619 B 0.78013 0.25875 0.67079
 B620 B 0.77551 0.27822 0.74013
 B621 B 0.81057 0.23370 0.72302
 B622 B 0.78528 0.19885 0.66828
 B623 B 0.73245 0.22293 0.65380
 B624 B 0.72697 0.27234 0.69869
 N625 N 0.45654 1.08257 0.31720
 N626 N 0.49696 1.08757 0.33396
 N627 N -0.05131 0.56747 0.81731
 N628 N -0.00898 0.56826 0.82184
 N629 N 0.06058 -0.04663 0.88460
 N630 N 0.02525 -0.06955 0.90654
 N631 N 0.58584 0.45364 0.37066
 N632 N 0.54952 0.42936 0.38783
 N633 N 0.58990 0.52302 0.13828
 N634 N 0.56223 0.55357 0.11968
 N635 N 0.07879 1.07326 0.68761
 N636 N 0.04024 1.08827 0.67950
 N637 N -0.10680 0.48307 0.61092
 N638 N -0.06820 0.46541 0.59720
 N639 N 0.40411 -0.03605 0.11229
 N640 N 0.43617 -0.06225 0.09388
 N641 N 0.36946 0.45037 0.10655
 N642 N 0.38452 0.48746 0.07856
 N643 N -0.14707 0.97917 0.61183
 N644 N -0.12159 1.01132 0.63311
 N645 N -0.14091 0.04344 0.93103
 N646 N -0.12715 0.01985 0.97404
 N647 N 0.35028 0.51668 0.42925
 N648 N 0.38448 0.51173 0.39416
 N649 N 0.11024 0.56631 0.58259
 N650 N 0.09019 0.55920 0.53355
 N651 N 0.61331 0.04861 0.09926
 N652 N 0.60183 0.02488 0.05277
 N653 N 0.65524 0.96815 0.37841
 N654 N 0.63679 0.99524 0.41619
 N655 N 0.15523 0.47788 0.87783
 N656 N 0.12721 0.48225 0.92073
 N657 N 0.02148 0.39261 0.45774
 N658 N -0.01421 0.40506 0.48660
 N659 N 0.50445 -0.11416 -0.08532
 N660 N 0.48609 -0.11064 -0.03445
 N661 N -0.02682 -0.11882 1.08889
 N662 N -0.01399 -0.11089 1.03629
 N663 N 0.47707 0.38809 0.55922
 N664 N 0.48808 0.38814 0.50524
 N665 N 0.52891 1.11555 0.52979
 N666 N 0.51193 1.11442 0.47832
 N667 N 0.04246 0.64879 0.97946
 N668 N 0.02432 0.63009 0.93560
 N669 N 0.48373 0.64223 -0.01187
 N670 N 0.50772 0.62440 0.02546
 N671 N -0.02111 1.15805 0.52730
 N672 N -0.00149 1.14297 0.57031
 N673 N 0.78472 0.69317 0.91100
 N674 N 0.76914 0.73271 0.90869
 N675 N 0.31023 0.19898 0.38803
 N676 N 0.31071 0.24208 0.37949
 N677 N 0.65596 0.30627 0.40887
 N678 N 0.69070 0.28025 0.41466
 N679 N 0.15311 0.78583 0.92292
 N680 N 0.14642 0.74587 0.90117
 N681 N 0.32877 0.82377 0.10035
 N682 N 0.34579 0.79577 0.13352
 N683 N 0.77844 0.32677 0.61096
 N684 N 0.80240 0.29169 0.62454
 N685 N 0.23855 0.14842 0.62278
 N686 N 0.21529 0.18383 0.63879
 N687 N 0.71811 0.65004 0.12352
 N688 N 0.75933 0.66628 0.13678
 N689 N 0.22389 0.61494 0.12660
 N690 N 0.25394 0.62663 0.16564
 N691 N 0.69123 0.11074 0.63711
 N692 N 0.71296 0.12573 0.68349
 N693 N 0.75413 0.07658 0.37705
 N694 N 0.71975 0.10014 0.37897
 N695 N 0.26092 0.58150 0.82570
 N696 N 0.22266 0.59807 0.82518
 N697 N 0.32162 0.37293 0.64380
 N698 N 0.29713 0.35743 0.68699
 N699 N 0.84463 0.87334 0.18277
 N700 N 0.84400 0.83118 0.16744
 N701 N 0.68591 0.89157 0.83519
 N702 N 0.69977 0.86847 0.79042
 N703 N 0.18985 0.39930 0.33685
 N704 N 0.21595 0.38225 0.29710
 N705 N 0.13597 0.28229 0.75980
 N706 N 0.15201 0.24363 0.73969
 N707 N 0.66220 0.78806 0.21052
 N708 N 0.67752 0.74611 0.20202
 N709 N 0.61406 0.19788 0.25562
 N710 N 0.63223 0.23279 0.28628
 N711 N 0.11346 0.72013 0.70794
 N712 N 0.11620 0.72902 0.76281
 N713 N 0.87026 0.77897 0.77007
 N714 N 0.84576 0.76385 0.81064
 N715 N 0.36869 0.30226 0.20600
 N716 N 0.35628 0.27583 0.24911
 N717 N 0.39510 0.71520 0.28714
 N718 N 0.38482 0.74434 0.24758
 N719 N 0.87512 0.20080 0.76628
 N720 N 0.86306 0.23660 0.73684
 N721 N 0.59551 0.97296 0.55306
 N722 N 0.57600 0.95008 0.51247
 N723 N 0.11795 0.49459 1.04128
 N724 N 0.07473 0.48091 1.03961
 N725 N -0.09975 0.02772 1.12351
 N726 N -0.07845 0.05308 1.08763
 N727 N 0.38838 0.52347 0.56437
 N728 N 0.40560 0.54656 0.52366
 N729 N 0.38186 0.51251 -0.06987
 N730 N 0.41058 0.48096 -0.05775
 N731 N -0.11438 1.02078 0.47342
 N732 N -0.08622 0.99023 0.49059
 N733 N 0.09817 0.53205 0.40609
 N734 N 0.05939 0.55275 0.40273
 N735 N 0.60994 0.02882 -0.07976
 N736 N 0.57006 0.04705 -0.07666
 N737 N 0.61635 0.55085 -0.00091
 N738 N 0.57918 0.54393 -0.02698
 N739 N 0.11180 1.05167 0.52033
 N740 N 0.08133 1.06830 0.55532
 N741 N 0.07975 -0.08106 1.00635
 N742 N 0.07458 -0.03717 1.02018
 N743 N 0.59527 0.44757 0.50465
 N744 N 0.56592 0.47281 0.52566
 N745 N -0.11415 0.42810 0.49205
 N746 N -0.10465 0.46932 0.47031
 N747 N 0.36733 -0.03429 -0.00414
 N748 N 0.40464 -0.04308 -0.03190
 N749 N 0.41195 1.07685 0.43220
 N750 N 0.42553 1.03416 0.43454
 N751 N -0.08849 0.59235 0.94306
 N752 N -0.07343 0.55048 0.94643
 N753 N 0.03227 0.64150 0.55376
 N754 N 0.00226 0.62657 0.51576
 N755 N 0.53511 0.10641 0.10233
 N756 N 0.52122 0.10060 0.04965
 N757 N -0.04826 0.10372 0.90480
 N758 N -0.03719 0.09762 0.95807
 N759 N 0.49907 0.61877 0.39536
 N760 N 0.46475 0.59025 0.40990
 N761 N 0.57803 0.90588 0.32763
 N762 N 0.55479 0.91441 0.37435
 N763 N 0.05298 0.39429 0.87294
 N764 N 0.03532 0.40972 0.92037
 N765 N 0.48123 0.38230 0.07405
 N766 N 0.45407 0.40860 0.04699
 N767 N -0.06756 0.90869 0.64902
 N768 N -0.04376 0.92503 0.60546
 N769 N 0.22324 0.35448 0.15155
 N770 N 0.19767 0.32767 0.18165
 N771 N 0.75000 0.85014 0.66418
 N772 N 0.71878 0.81597 0.67018
 N773 N 0.25125 0.61746 0.69061
 N774 N 0.26774 0.65907 0.70680
 N775 N 0.74927 0.11745 0.20489
 N776 N 0.77060 0.12685 0.25053
 N777 N 0.74548 0.13125 0.83181
 N778 N 0.71620 0.16275 0.82063
 N779 N 0.26158 0.62456 0.31173
 N780 N 0.23358 0.65659 0.29702
 N781 N 0.77068 0.86096 0.31399
 N782 N 0.80292 0.83121 0.31566
 N783 N 0.27373 0.37396 0.81144
 N784 N 0.29396 0.33479 0.81848
 N785 N 0.82482 0.35023 0.72415
 N786 N 0.79325 0.32982 0.75613
 N787 N 0.31950 0.86239 0.24973
 N788 N 0.31009 0.82454 0.27429
 N789 N 0.15395 0.82663 0.80267
 N790 N 0.19541 0.81354 0.79450
 N791 N 0.68402 0.32754 0.29263
 N792 N 0.72451 0.30989 0.29132
 N793 N 0.69512 0.63986 0.23863
 N794 N 0.73039 0.65613 0.26809
 N795 N 0.23116 0.12066 0.75189
 N796 N 0.21723 0.16081 0.77040
 N797 N 0.32826 0.17053 0.26415
 N798 N 0.28504 0.17779 0.25880
 N799 N 0.81857 0.65893 0.78408
 N800 N 0.77519 0.66603 0.78441
 N801 N 0.91665 0.77202 0.23253
 N802 N 0.88658 0.76077 0.26841
 N803 N 0.38602 0.31100 0.70274
 N804 N 0.36678 0.27230 0.72177
 N805 N 0.33664 0.67637 0.88949
 N806 N 0.31741 0.68569 0.84078
 N807 N 0.85522 0.17720 0.39043
 N808 N 0.82052 0.15760 0.36694
 N809 N 0.13112 0.30179 0.35183
 N810 N 0.14484 0.28573 0.30265
 N811 N 0.61160 0.80283 0.80259
 N812 N 0.63205 0.77163 0.77212
 N813 N 0.63035 0.18455 0.67393
 N814 N 0.64757 0.21519 0.71075
 N815 N 0.16589 0.69343 0.12272
 N816 N 0.17769 0.70935 0.17390
   
