data_POSCAR
  _audit_creation_date              2014-09-24
  _audit_creation_method            'ToBaCCo'
  _symmetry_space_group_name_H-M    'P1'
  _symmetry_Int_Tables_number       1
  _symmetry_cell_setting            triclinic
  loop_
  _symmetry_equiv_pos_as_xyz
 x,y,z
_cell_length_a 27.1034
_cell_length_b 29.1163
_cell_length_c 52.3877
_cell_angle_alpha 89.114800
_cell_angle_beta 90.888400
_cell_angle_gamma 141.987700
loop_
  _atom_site_label
  _atom_site_type_symbol
  _atom_site_fract_x
  _atom_site_fract_y
  _atom_site_fract_z
C1 C 1.13227 0.21124 0.32954
 H2 H 1.17125 0.23498 0.31485
 C3 C 1.12120 0.22693 0.35227
 H4 H 1.06925 0.18035 0.36371
 C5 C 1.25471 0.34802 0.32296
 H6 H 1.30930 0.39466 0.31254
 C7 C 1.24090 0.36063 0.34570
 H8 H 1.28368 0.41727 0.35226
 N9 N 1.20204 0.27336 0.31541
 C10 C 1.13927 0.12323 0.25842
 H11 H 1.15942 0.10975 0.27027
 C12 C 1.10873 0.09232 0.23400
 H13 H 1.10523 0.05461 0.22760
 C14 C 1.11023 0.18246 0.25249
 H15 H 1.16317 0.21333 0.26311
 C16 C 1.08825 0.15933 0.22652
 H17 H 1.06401 0.15526 0.24393
 Zn18 Zn 1.24343 0.26022 0.28954
 N19 N 1.15476 0.18011 0.26519
 C20 C 1.29472 0.20295 0.30140
 N21 N 1.28789 0.24253 0.30843
 C22 C 1.31299 0.27418 0.33180
 C23 C 1.33661 0.25957 0.35012
 C24 C 1.31733 0.18567 0.31944
 C25 C 1.30549 0.37591 0.25971
 C26 C 1.33223 0.41049 0.23593
 C27 C 1.39559 0.38343 0.23004
 C28 C 1.36869 0.35026 0.25433
 N29 N 1.32135 0.34410 0.26802
 H30 H 1.28226 0.18411 0.28201
 H31 H 1.31486 0.31139 0.33652
 H32 H 1.35785 0.28900 0.36789
 H33 H 1.31664 0.15009 0.31316
 H34 H 1.26324 0.36591 0.26986
 H35 H 1.31241 0.42916 0.22880
 H36 H 1.42830 0.38302 0.21880
 H37 H 1.37784 0.32195 0.26088
 C38 C 1.09542 0.11987 0.21693
 C39 C 1.17596 0.30003 0.36095
 C40 C 1.37229 0.40931 0.21995
 C41 C 1.33459 0.21052 0.34506
 C42 C 0.65799 -0.28149 0.31513
 H43 H 0.63035 -0.33512 0.31311
 C44 C 0.62966 -0.27208 0.33331
 H45 H 0.57941 -0.31903 0.34511
 C46 C 0.76046 -0.15397 0.30316
 H47 H 0.81327 -0.10770 0.29199
 C48 C 0.73348 -0.14216 0.32112
 H49 H 0.76556 -0.08668 0.32365
 N50 N 0.72323 -0.22264 0.30094
 C51 C 0.66120 -0.38423 0.25671
 H52 H 0.67829 -0.39699 0.27094
 C53 C 0.63105 -0.42090 0.23320
 H54 H 0.62464 -0.46206 0.23012
 C55 C 0.64559 -0.31828 0.24390
 H56 H 0.65132 -0.27807 0.24810
 C57 C 0.61806 -0.35132 0.21986
 H58 H 0.60522 -0.33377 0.20605
 Zn59 Zn 0.76249 -0.24270 0.28137
 N60 N 0.67623 -0.32787 0.26037
 C61 C 0.81526 -0.29440 0.29793
 N62 N 0.80363 -0.25848 0.30471
 C63 C 0.81668 -0.23577 0.32922
 C64 C 0.83280 -0.25657 0.34840
 C65 C 0.82882 -0.31851 0.31666
 C66 C 0.82117 -0.14587 0.24109
 C67 C 0.85171 -0.12235 0.21635
 C68 C 0.93960 -0.12040 0.22812
 C69 C 0.90433 -0.14764 0.25232
 N70 N 0.84217 -0.16485 0.25762
 H71 H 0.81029 -0.30760 0.27813
 H72 H 0.81238 -0.20311 0.33416
 H73 H 0.84167 -0.23862 0.36778
 H74 H 0.83104 -0.35242 0.31097
 H75 H 0.77348 -0.15754 0.24592
 H76 H 0.82480 -0.11803 0.20298
 H77 H 0.98661 -0.11027 0.22417
 H78 H 0.92136 -0.16189 0.26582
 C79 C 0.61840 -0.39774 0.21328
 C80 C 0.66872 -0.20140 0.33695
 C81 C 0.90741 -0.11503 0.20879
 C82 C 0.83377 -0.30279 0.34254
 C83 C 0.68658 0.23765 -0.16864
 H84 H 0.68021 0.19605 -0.16743
 C85 C 0.66512 0.24824 -0.14789
 H86 H 0.64238 0.21440 -0.13094
 C87 C 0.71776 0.32737 -0.19282
 H88 H 0.73333 0.35461 -0.21083
 C89 C 0.69921 0.34160 -0.17214
 H90 H 0.70604 0.38349 -0.17405
 N91 N 0.71711 0.28030 -0.19002
 C92 C 0.69463 0.17707 -0.25631
 H93 H 0.73965 0.18442 -0.25214
 C94 C 0.65998 0.15322 -0.28050
 H95 H 0.67895 0.14203 -0.29421
 C96 C 0.62378 0.19182 -0.24445
 H97 H 0.61296 0.21061 -0.23080
 C98 C 0.58673 0.16719 -0.26845
 H99 H 0.54490 0.16411 -0.27259
 Zn100 Zn 0.75828 0.26834 -0.21405
 N101 N 0.67950 0.19963 -0.23933
 C102 C 0.74931 0.16697 -0.19810
 N103 N 0.78802 0.23619 -0.19556
 C104 C 0.84740 0.28504 -0.17795
 C105 C 0.86926 0.26465 -0.16171
 C106 C 0.77041 0.14485 -0.18256
 C107 C 0.86245 0.41120 -0.23811
 C108 C 0.88093 0.44076 -0.26260
 C109 C 0.89568 0.36458 -0.27402
 C110 C 0.87595 0.34160 -0.24858
 N111 N 0.84885 0.35571 -0.23323
 H112 H 0.70059 0.12807 -0.21158
 H113 H 0.87612 0.33920 -0.17608
 H114 H 0.91521 0.30323 -0.14733
 H115 H 0.73872 0.08937 -0.18445
 H116 H 0.85294 0.42908 -0.22346
 H117 H 0.88380 0.42692 -0.27481
 H118 H 0.90924 0.34541 -0.28565
 H119 H 0.87020 0.30206 -0.24222
 C120 C 0.60910 0.15254 -0.28741
 C121 C 0.67551 0.30370 -0.14894
 C122 C 0.88763 0.40712 -0.28400
 C123 C 0.83038 0.19383 -0.16400
 C124 C 1.17038 -0.25053 -0.18114
 H125 H 1.13957 -0.30574 -0.17962
 C126 C 1.14718 -0.23105 -0.16578
 H127 H 1.09802 -0.27174 -0.15258
 C128 C 1.27030 -0.13136 -0.20086
 H129 H 1.31820 -0.09268 -0.21450
 C130 C 1.24758 -0.11027 -0.18636
 H131 H 1.27783 -0.05555 -0.18914
 N132 N 1.23014 -0.20127 -0.19851
 C133 C 1.12948 -0.37345 -0.25032
 H134 H 1.13641 -0.39920 -0.23891
 C135 C 1.09943 -0.39863 -0.27526
 H136 H 1.08238 -0.44454 -0.28220
 C137 C 1.14024 -0.28508 -0.25481
 H138 H 1.15903 -0.23878 -0.24713
 C139 C 1.11356 -0.30624 -0.27999
 H140 H 1.11309 -0.27470 -0.29077
 Zn141 Zn 1.24880 -0.23811 -0.22035
 N142 N 1.15637 -0.31269 -0.24163
 C143 C 1.27391 -0.31557 -0.21055
 N144 N 1.27349 -0.27322 -0.20025
 C145 C 1.29922 -0.24774 -0.17591
 C146 C 1.32460 -0.26621 -0.16076
 C147 C 1.29724 -0.33664 -0.19591
 C148 C 1.32747 -0.13552 -0.26163
 C149 C 1.35758 -0.11809 -0.28629
 C150 C 1.40989 -0.15380 -0.27403
 C151 C 1.38080 -0.16839 -0.24943
 N152 N 1.33338 -0.16649 -0.24445
 H153 H 1.25926 -0.33074 -0.23044
 H154 H 1.30241 -0.21108 -0.16841
 H155 H 1.34689 -0.24337 -0.14171
 H156 H 1.29526 -0.37168 -0.20445
 H157 H 1.29196 -0.13171 -0.25734
 H158 H 1.34732 -0.09741 -0.29946
 H159 H 1.43950 -0.16427 -0.27741
 H160 H 1.38886 -0.18937 -0.23530
 C161 C 1.09821 -0.36019 -0.29132
 C162 C 1.18439 -0.16087 -0.16888
 C163 C 1.39222 -0.13470 -0.29375
 C164 C 1.32270 -0.31227 -0.17057
 C165 C 0.25579 0.17527 0.67900
 H166 H 0.20198 0.15615 0.67662
 C167 C 0.27236 0.15220 0.66209
 H168 H 0.23103 0.11522 0.64663
 C169 C 0.37523 0.24688 0.70213
 H170 H 0.41549 0.28424 0.71761
 C171 C 0.39259 0.22294 0.68621
 H172 H 0.44601 0.24178 0.68964
 N173 N 0.30710 0.22187 0.69851
 C174 C 0.12405 0.13585 0.74622
 H175 H 0.10452 0.14712 0.73243
 C176 C 0.08505 0.10373 0.76967
 H177 H 0.03451 0.08902 0.77297
 C178 C 0.20893 0.13657 0.75771
 H179 H 0.25735 0.14932 0.75290
 C180 C 0.17291 0.10590 0.78165
 H181 H 0.19715 0.09824 0.79477
 Zn182 Zn 0.27742 0.24626 0.72149
 N183 N 0.19141 0.16027 0.74221
 C184 C 0.21146 0.28731 0.71695
 N185 N 0.24769 0.27985 0.70367
 C186 C 0.26652 0.29989 0.67860
 C187 C 0.24376 0.32347 0.66557
 C188 C 0.18726 0.31016 0.70467
 C189 C 0.38646 0.30951 0.76252
 C190 C 0.41505 0.34474 0.78614
 C191 C 0.41339 0.42139 0.77020
 C192 C 0.38234 0.38290 0.74714
 N193 N 0.36206 0.32312 0.74471
 H194 H 0.20109 0.27533 0.73720
 H195 H 0.29996 0.29841 0.66870
 H196 H 0.25800 0.33803 0.64552
 H197 H 0.15513 0.31222 0.71534
 H198 H 0.37608 0.26583 0.75974
 H199 H 0.42415 0.32516 0.80060
 H200 H 0.42408 0.46562 0.77175
 H201 H 0.36732 0.39646 0.73223
 C202 C 0.11698 0.09830 0.78918
 C203 C 0.34055 0.17476 0.66597
 C204 C 0.42052 0.39606 0.79128
 C205 C 0.20279 0.32802 0.67860
 C206 C 0.71901 0.65027 0.67326
 H207 H 0.65955 0.61977 0.67687
 C208 C 0.73134 0.62940 0.65311
 H209 H 0.68100 0.58232 0.64133
 C210 C 0.85798 0.75254 0.68287
 H211 H 0.90767 0.80284 0.69358
 C212 C 0.87283 0.73281 0.66308
 H213 H 0.93379 0.76752 0.65890
 N214 N 0.78204 0.71177 0.68731
 C215 C 0.66719 0.69310 0.75239
 H216 H 0.67990 0.73807 0.74800
 C217 C 0.64442 0.66408 0.77719
 H218 H 0.63936 0.68763 0.79088
 C219 C 0.67225 0.61889 0.74051
 H220 H 0.68727 0.60425 0.72663
 C221 C 0.65004 0.58868 0.76515
 H222 H 0.64346 0.54746 0.76900
 Zn223 Zn 0.75906 0.74460 0.70913
 N224 N 0.68472 0.67320 0.73504
 C225 C 0.65306 0.73870 0.69175
 N226 N 0.72267 0.76669 0.68776
 C227 C 0.77006 0.81166 0.66740
 C228 C 0.74849 0.83075 0.65016
 C229 C 0.63025 0.75799 0.67529
 C230 C 0.87929 0.81805 0.74407
 C231 C 0.90041 0.84142 0.76935
 C232 C 0.87086 0.90593 0.75862
 C233 C 0.85116 0.87672 0.73418
 N234 N 0.84819 0.82897 0.72864
 H235 H 0.61565 0.70215 0.70778
 H236 H 0.82486 0.83276 0.66460
 H237 H 0.78718 0.86738 0.63420
 H238 H 0.57602 0.73738 0.67899
 H239 H 0.87630 0.78057 0.73805
 H240 H 0.89535 0.86212 0.77783
 H241 H 0.86613 0.93853 0.76269
 H242 H 0.82631 0.88327 0.72074
 C243 C 0.64165 0.61528 0.78463
 C244 C 0.80923 0.67194 0.64749
 C245 C 0.88670 0.88165 0.77877
 C246 C 0.67838 0.80444 0.65425
 C247 C 0.73233 0.16162 0.18078
 H248 H 0.67349 0.13335 0.18307
 C249 C 0.74621 0.14139 0.16101
 H250 H 0.69788 0.09730 0.14806
 C251 C 0.86834 0.25698 0.19392
 H252 H 0.91601 0.30326 0.20638
 C253 C 0.88467 0.23778 0.17446
 H254 H 0.94499 0.26926 0.17194
 N255 N 0.79342 0.21991 0.19622
 C256 C 0.61239 0.14130 0.24295
 H257 H 0.59541 0.15458 0.22891
 C258 C 0.57062 0.10771 0.26602
 H259 H 0.52097 0.09445 0.26912
 C260 C 0.69595 0.14114 0.25590
 H261 H 0.74491 0.15411 0.25188
 C262 C 0.65806 0.11027 0.27955
 H263 H 0.68095 0.10262 0.29351
 Zn264 Zn 0.76626 0.24838 0.21836
 N265 N 0.67935 0.16460 0.23963
 C266 C 0.70321 0.29212 0.20887
 N267 N 0.73823 0.28061 0.19811
 C268 C 0.75800 0.29561 0.17294
 C269 C 0.73888 0.31934 0.15734
 C270 C 0.68236 0.31521 0.19390
 C271 C 0.87365 0.31231 0.25918
 C272 C 0.89376 0.34051 0.28384
 C273 C 0.88552 0.41348 0.26977
 C274 C 0.86294 0.38180 0.24555
 N275 N 0.84985 0.32672 0.24154
 H276 H 0.69150 0.28353 0.22915
 H277 H 0.78957 0.29006 0.16490
 H278 H 0.75537 0.33094 0.13739
 H279 H 0.65190 0.32126 0.20276
 H280 H 0.86746 0.27169 0.25523
 H281 H 0.90075 0.31885 0.29817
 H282 H 0.88980 0.45316 0.27291
 H283 H 0.84781 0.39581 0.23095
 C284 C 0.60004 0.10057 0.28586
 C285 C 0.82346 0.18079 0.15738
 C286 C 0.89333 0.38720 0.29006
 C287 C 0.69898 0.32798 0.16763
 C288 C 0.24197 0.67537 0.17688
 H289 H 0.20198 0.67173 0.16891
 C290 C 0.25808 0.64806 0.16305
 H291 H 0.22820 0.62215 0.14485
 C292 C 0.32016 0.70472 0.21146
 H293 H 0.33869 0.72094 0.23110
 C294 C 0.34274 0.68291 0.19755
 H295 H 0.38394 0.68881 0.20624
 N296 N 0.27703 0.70733 0.19999
 C297 C 0.17007 0.72234 0.25327
 H298 H 0.19079 0.77017 0.24584
 C299 C 0.13686 0.69576 0.27748
 H300 H 0.13562 0.72608 0.28834
 C301 C 0.15500 0.63109 0.24845
 H302 H 0.16531 0.60811 0.23745
 C303 C 0.11786 0.60029 0.27220
 H304 H 0.09716 0.55173 0.27865
 Zn305 Zn 0.26109 0.75402 0.21428
 N306 N 0.18420 0.69363 0.24024
 C307 C 0.14847 0.72680 0.18758
 N308 N 0.22547 0.76801 0.18833
 C309 C 0.27950 0.82022 0.17023
 C310 C 0.25779 0.83540 0.15097
 C311 C 0.12410 0.73997 0.16852
 C312 C 0.40471 0.85780 0.24409
 C313 C 0.42950 0.88974 0.26827
 C314 C 0.36936 0.91929 0.25994
 C315 C 0.34618 0.88695 0.23588
 N316 N 0.35457 0.84813 0.23001
 H317 H 0.10647 0.68474 0.20199
 H318 H 0.34002 0.85135 0.17126
 H319 H 0.30209 0.87946 0.13727
 H320 H 0.06383 0.70951 0.16862
 H321 H 0.42016 0.83536 0.23783
 H322 H 0.46533 0.89207 0.27933
 H323 H 0.35114 0.94034 0.26446
 H324 H 0.30941 0.88209 0.22386
 C325 C 0.11460 0.63663 0.28802
 C326 C 0.31464 0.65752 0.17237
 C327 C 0.40129 0.91100 0.27820
 C328 C 0.17977 0.79580 0.15036
 O329 O 1.04746 0.02699 0.02677
 O330 O 0.75190 -0.20937 0.02601
 O331 O 0.83139 -0.07229 0.02547
 O332 O 0.94846 -0.14640 0.02013
 O333 O 0.82553 -0.07821 0.02508
 O334 O 1.07160 -0.04277 0.00536
 O335 O 0.79528 -0.24263 0.01305
 O336 O 0.98552 0.05214 0.02493
 C337 C 1.03824 0.06511 0.03450
 C338 C 0.77876 -0.22878 0.03119
 C339 C 0.78958 -0.06805 0.03136
 C340 C 1.02471 -0.10113 0.01965
 O341 O 0.97337 -0.10545 -0.03007
 O342 O 0.82063 -0.07965 -0.02527
 O343 O 1.00521 0.05504 -0.02503
 O344 O 0.82282 -0.20691 -0.03572
 O345 O 0.73827 -0.21687 -0.02452
 O346 O 1.07435 0.03596 -0.02160
 O347 O 0.97252 -0.10991 -0.03034
 O348 O 0.82893 -0.07151 -0.02611
 Co349 Co 1.00390 -0.04719 -0.00091
 Co350 Co 0.78622 -0.14771 0.00001
 Co351 Co 0.91131 -0.01180 -0.00005
 Co352 Co 0.88189 -0.17413 -0.00745
 O353 O 0.89822 -0.09284 -0.00157
 C354 C 0.97678 -0.08845 -0.05289
 C355 C 0.79006 -0.06357 -0.03185
 C356 C 1.06489 0.06826 -0.03222
 C357 C 0.77015 -0.21703 -0.04146
 O358 O 1.08367 0.53671 0.51329
 O359 O 0.75984 0.32395 0.52234
 O360 O 0.99132 0.57010 0.51053
 O361 O 0.96793 0.39165 0.54366
 O362 O 0.85202 0.46891 0.50968
 O363 O 0.97082 0.39707 0.54425
 O364 O 0.81708 0.29839 0.53645
 O365 O 1.09222 0.55182 0.51101
 C366 C 1.12812 0.56948 0.53297
 C367 C 0.76578 0.29234 0.53980
 C368 C 0.91793 0.53550 0.51647
 C369 C 0.95779 0.34569 0.55317
 O370 O 1.03632 0.41340 0.50207
 O371 O 0.91834 0.47988 0.47137
 O372 O 1.00281 0.46621 0.47240
 O373 O 0.83230 0.33081 0.48713
 O374 O 0.82834 0.33426 0.48557
 O375 O 1.00222 0.46311 0.47316
 O376 O 1.02166 0.40166 0.50405
 O377 O 0.92382 0.48431 0.47083
 Co378 Co 0.98310 0.42902 0.50732
 Co379 Co 0.83956 0.40373 0.49542
 Co380 Co 1.00781 0.52333 0.49159
 Co381 Co 0.90458 0.35585 0.51478
 O382 O 0.93015 0.44166 0.51530
 C383 C 1.02025 0.35791 0.50581
 C384 C 0.93269 0.51356 0.45055
 C385 C 1.05899 0.49132 0.45883
 C386 C 0.79179 0.28637 0.46792
 O387 O 0.52118 0.01447 0.53063
 O388 O 0.26467 -0.21046 0.52238
 O389 O 0.35397 -0.06166 0.52342
 O390 O 0.48914 -0.12560 0.51262
 O391 O 0.34509 -0.07045 0.52218
 O392 O 0.59020 -0.00098 0.51489
 O393 O 0.32284 -0.23322 0.50907
 O394 O 0.50905 0.07062 0.51451
 C395 C 0.52693 0.06007 0.53313
 C396 C 0.28903 -0.23410 0.52673
 C397 C 0.30782 -0.06356 0.53102
 C398 C 0.56079 -0.06199 0.52085
 O399 O 0.51092 -0.06626 0.47227
 O400 O 0.32633 -0.07153 0.47273
 O401 O 0.49124 0.05429 0.46821
 O402 O 0.34682 -0.19307 0.45877
 O403 O 0.25367 -0.20718 0.46812
 O404 O 0.57649 0.05891 0.48019
 O405 O 0.50926 -0.06981 0.47134
 O406 O 0.32961 -0.06727 0.47274
 Co407 Co 0.51092 -0.02497 0.50208
 Co408 Co 0.30171 -0.13854 0.49571
 Co409 Co 0.42251 -0.00257 0.49432
 Co410 Co 0.41343 -0.15205 0.48777
 O411 O 0.41689 -0.07452 0.48827
 C412 C 0.56290 -0.04116 0.45576
 C413 C 0.32215 -0.06571 0.44884
 C414 C 0.55586 0.07824 0.46529
 C415 C 0.28638 -0.21163 0.45264
 O416 O 0.57074 0.50541 0.02485
 O417 O 0.28228 0.35469 0.02635
 O418 O 0.41203 0.49996 0.02484
 O419 O 0.43116 0.35148 0.02894
 O420 O 0.40740 0.49717 0.02336
 O421 O 0.43926 0.35853 0.02999
 O422 O 0.29181 0.28710 0.02993
 O423 O 0.55720 0.57105 0.02294
 C424 C 0.58771 0.55739 0.03278
 C425 C 0.27467 0.31291 0.03898
 C426 C 0.39685 0.53145 0.02773
 C427 C 0.44054 0.31693 0.03628
 O428 O 0.43265 0.34800 -0.02187
 O429 O 0.39949 0.48746 -0.02710
 O430 O 0.55118 0.56212 -0.02738
 O431 O 0.28634 0.27854 -0.02208
 O432 O 0.27264 0.34289 -0.02266
 O433 O 0.56446 0.49606 -0.02480
 O434 O 0.42472 0.34156 -0.02105
 O435 O 0.40483 0.49072 -0.02889
 Co436 Co 0.50052 0.42957 0.00189
 Co437 Co 0.34063 0.41652 -0.00000
 Co438 Co 0.48055 0.52661 -0.00206
 Co439 Co 0.35629 0.31687 0.00377
 O440 O 0.41864 0.42146 0.00077
 C441 C 0.42943 0.30203 -0.02419
 C442 C 0.38630 0.51963 -0.03211
 C443 C 0.58016 0.54602 -0.03536
 C444 C 0.27265 0.30552 -0.03387
 C445 C 1.06360 0.12727 0.14526
 C446 C 1.10989 0.12436 0.13555
 C447 C 1.14999 0.11772 0.15156
 C448 C 1.14192 0.11312 0.17773
 C449 C 1.09780 0.11611 0.18857
 C450 C 1.06174 0.12316 0.17230
 O451 O 1.08898 0.12543 0.12331
 C452 C 1.06143 0.12907 0.10218
 C453 C 1.11093 0.12807 0.11067
 C454 C 1.15465 0.12878 0.09346
 C455 C 1.13928 0.12060 0.06772
 C456 C 1.08042 0.10769 0.05868
 C457 C 1.05000 0.11878 0.07522
 H458 H 1.18451 0.11568 0.14323
 H459 H 1.17244 0.10983 0.18935
 H460 H 1.02895 0.12669 0.18105
 H461 H 1.19357 0.13041 0.10069
 H462 H 1.16710 0.11637 0.05534
 H463 H 1.01043 0.11559 0.06712
 C464 C 1.10997 0.60247 0.64108
 C465 C 1.09266 0.62876 0.62709
 C466 C 1.07215 0.65498 0.63819
 C467 C 1.06932 0.65414 0.66492
 C468 C 1.09017 0.63025 0.68022
 C469 C 1.11053 0.60371 0.66772
 O470 O 1.12655 0.57870 0.62667
 C471 C 1.11926 0.59019 0.60305
 C472 C 1.09968 0.62162 0.60235
 C473 C 1.09495 0.64346 0.57978
 C474 C 1.10750 0.62932 0.55695
 C475 C 1.11805 0.58868 0.55681
 C476 C 1.12923 0.57341 0.58039
 H477 H 1.05821 0.67493 0.62668
 H478 H 1.05124 0.67282 0.67336
 H479 H 1.12919 0.58688 0.67814
 H480 H 1.08611 0.67379 0.57982
 H481 H 1.11516 0.65526 0.53997
 H482 H 1.14481 0.54875 0.58101
 C483 C 0.57557 0.10834 0.64241
 C484 C 0.57203 0.15004 0.63297
 C485 C 0.57608 0.19093 0.64872
 C486 C 0.58506 0.18923 0.67512
 C487 C 0.58899 0.14644 0.68523
 C488 C 0.58289 0.10471 0.66837
 O489 O 0.57189 0.07420 0.62454
 C490 C 0.56545 0.09433 0.60330
 C491 C 0.56482 0.14045 0.60722
 C492 C 0.55528 0.16529 0.58728
 C493 C 0.54599 0.14135 0.56242
 C494 C 0.54716 0.09417 0.55817
 C495 C 0.55746 0.07098 0.57903
 H496 H 0.57418 0.22419 0.64096
 H497 H 0.59208 0.22360 0.68745
 H498 H 0.58538 0.07123 0.67507
 H499 H 0.55415 0.20100 0.59075
 H500 H 0.53630 0.15815 0.54668
 H501 H 0.55630 0.03326 0.57668
 C502 C 0.61350 0.60484 0.14059
 C503 C 0.65459 0.59559 0.13498
 C504 C 0.67825 0.58121 0.15350
 C505 C 0.66224 0.57960 0.17903
 C506 C 0.62123 0.59054 0.18580
 C507 C 0.59446 0.60105 0.16584
 O508 O 0.59386 0.61512 0.11993
 C509 C 0.62292 0.61183 0.10092
 C510 C 0.66057 0.59990 0.10917
 C511 C 0.68877 0.58762 0.09256
 C512 C 0.67276 0.58245 0.06647
 C513 C 0.63063 0.59103 0.05747
 C514 C 0.61013 0.61078 0.07489
 H515 H 0.70977 0.57326 0.14853
 H516 H 0.68549 0.57310 0.19336
 H517 H 0.56076 0.60717 0.16961
 H518 H 0.71689 0.57701 0.09958
 H519 H 0.68804 0.56642 0.05351
 H520 H 0.57767 0.61725 0.06867
 C521 C 0.88304 -0.12656 0.13672
 C522 C 0.90007 -0.15862 0.13040
 C523 C 0.93062 -0.16781 0.14798
 C524 C 0.93935 -0.14741 0.17339
 C525 C 0.91871 -0.11713 0.18094
 C526 C 0.89472 -0.10266 0.16160
 O527 O 0.84840 -0.12834 0.11783
 C528 C 0.84292 -0.16281 0.09931
 C529 C 0.87428 -0.18200 0.10585
 C530 C 0.87258 -0.22031 0.08933
 C531 C 0.83811 -0.23861 0.06497
 C532 C 0.80462 -0.22000 0.05786
 C533 C 0.80707 -0.18175 0.07555
 H534 H 0.94282 -0.19395 0.14268
 H535 H 0.95680 -0.16068 0.18719
 H536 H 0.88029 -0.07799 0.16576
 H537 H 0.89743 -0.23509 0.09490
 H538 H 0.83838 -0.26639 0.05160
 H539 H 0.78392 -0.16493 0.07076
 C540 C 0.83841 0.34738 0.64638
 C541 C 0.81760 0.37570 0.63853
 C542 C 0.83163 0.42431 0.65336
 C543 C 0.86229 0.43943 0.67809
 C544 C 0.87738 0.40536 0.68783
 C545 C 0.86962 0.36211 0.67079
 O546 O 0.82260 0.30416 0.62905
 C547 C 0.78999 0.30437 0.60996
 C548 C 0.78473 0.34660 0.61494
 C549 C 0.75323 0.35509 0.59750
 C550 C 0.73160 0.32319 0.57329
 C551 C 0.74375 0.28535 0.56665
 C552 C 0.76874 0.27201 0.58601
 H553 H 0.81752 0.44825 0.64643
 H554 H 0.86988 0.47454 0.69019
 H555 H 0.88147 0.33560 0.67608
 H556 H 0.74938 0.38840 0.60190
 H557 H 0.71341 0.33509 0.55903
 H558 H 0.78140 0.24580 0.58167
 C559 C 0.35144 -0.16649 0.63470
 C560 C 0.37946 -0.18859 0.62838
 C561 C 0.42082 -0.18593 0.64576
 C562 C 0.43040 -0.16279 0.67081
 C563 C 0.39781 -0.14352 0.67842
 C564 C 0.36047 -0.14308 0.65923
 O565 O 0.31363 -0.17290 0.61571
 C566 C 0.31735 -0.20010 0.59700
 C567 C 0.35679 -0.21105 0.60355
 C568 C 0.36682 -0.23934 0.58633
 C569 C 0.33769 -0.25396 0.56119
 C570 C 0.29896 -0.24067 0.55394
 C571 C 0.28743 -0.21500 0.57257
 H572 H 0.44368 -0.20241 0.64039
 H573 H 0.46167 -0.16227 0.68402
 H574 H 0.33474 -0.12881 0.66290
 H575 H 0.39782 -0.24790 0.59181
 H576 H 0.34895 -0.27181 0.54716
 H577 H 0.25988 -0.20245 0.56793
 C578 C 0.34971 0.37197 0.14677
 C579 C 0.31944 0.39176 0.13860
 C580 C 0.32126 0.43366 0.15244
 C581 C 0.34754 0.45220 0.17771
 C582 C 0.37098 0.42099 0.18958
 C583 C 0.37635 0.38441 0.17188
 O584 O 0.34487 0.33643 0.12889
 C585 C 0.30918 0.33202 0.10942
 C586 C 0.29059 0.36308 0.11483
 C587 C 0.24920 0.36135 0.09802
 C588 C 0.23061 0.33066 0.07395
 C589 C 0.25784 0.30657 0.06643
 C590 C 0.29472 0.30422 0.08495
 H591 H 0.30132 0.45108 0.14385
 H592 H 0.36062 0.43836 0.18652
 H593 H 0.39264 0.36220 0.17830
 H594 H 0.23419 0.38526 0.10292
 H595 H 0.20308 0.33376 0.06017
 H596 H 0.31786 0.28784 0.07986
 C597 C 0.82717 0.11392 -0.10597
 C598 C 0.87203 0.11039 -0.11433
 C599 C 0.90771 0.13624 -0.13832
 C600 C 0.89548 0.16573 -0.15444
 C601 C 0.84897 0.16924 -0.14623
 C602 C 0.81554 0.14419 -0.12152
 O603 O 0.79372 0.08164 -0.08338
 C604 C 0.81771 0.05697 -0.07731
 C605 C 0.86608 0.07342 -0.09554
 C606 C 0.89446 0.04941 -0.09363
 C607 C 0.87190 0.00657 -0.07214
 C608 C 0.82042 -0.01261 -0.05330
 C609 C 0.79394 0.01387 -0.05589
 H610 H 0.94170 0.13187 -0.14467
 H611 H 0.92074 0.18452 -0.17345
 H612 H 0.77872 0.14533 -0.11509
 H613 H 0.93113 0.06177 -0.10845
 H614 H 0.89244 -0.01361 -0.07067
 H615 H 0.75438 -0.00024 -0.04196
 C616 C 0.85908 0.60270 0.37914
 C617 C 0.81630 0.58019 0.40091
 C618 C 0.78216 0.59778 0.40536
 C619 C 0.79013 0.63786 0.38634
 C620 C 0.83233 0.66034 0.36332
 C621 C 0.86808 0.64289 0.35999
 O622 O 0.89144 0.58484 0.37932
 C623 C 0.86845 0.55020 0.40159
 C624 C 0.82175 0.54510 0.41554
 C625 C 0.79549 0.51460 0.44013
 C626 C 0.82241 0.49265 0.45126
 C627 C 0.87557 0.50295 0.43779
 C628 C 0.89507 0.52839 0.41222
 H629 H 0.75043 0.58122 0.42288
 H630 H 0.76155 0.64970 0.38939
 H631 H 0.90246 0.66045 0.34313
 H632 H 0.75932 0.51171 0.45089
 H633 H 0.80693 0.47362 0.47078
 H634 H 0.93627 0.53760 0.40157
 C635 C 0.37198 0.12801 0.38029
 C636 C 0.36621 0.13908 0.40482
 C637 C 0.35112 0.17320 0.41069
 C638 C 0.34133 0.19722 0.39053
 C639 C 0.34752 0.18828 0.36435
 C640 C 0.36271 0.15184 0.35962
 O641 O 0.37573 0.08515 0.37906
 C642 C 0.37038 0.06776 0.40339
 C643 C 0.36391 0.09928 0.41976
 C644 C 0.34188 0.07798 0.44512
 C645 C 0.32734 0.02291 0.45418
 C646 C 0.33936 -0.00688 0.43845
 C647 C 0.35993 0.01497 0.41247
 H648 H 0.34251 0.17740 0.43023
 H649 H 0.32152 0.21630 0.39614
 H650 H 0.36557 0.13992 0.34072
 H651 H 0.33066 0.09912 0.45703
 H652 H 0.30377 0.00160 0.47328
 H653 H 0.36458 -0.01026 0.39964
 C654 C 0.34862 0.62778 -0.11324
 C655 C 0.38324 0.61532 -0.12407
 C656 C 0.40209 0.62771 -0.14988
 C657 C 0.38371 0.65316 -0.16506
 C658 C 0.34592 0.66447 -0.15435
 C659 C 0.32866 0.65162 -0.12795
 O660 O 0.33591 0.61346 -0.08844
 C661 C 0.36269 0.59112 -0.08344
 C662 C 0.39164 0.59035 -0.10454
 C663 C 0.41898 0.56514 -0.10347
 C664 C 0.41656 0.54026 -0.07966
 C665 C 0.38974 0.54367 -0.05760
 C666 C 0.36212 0.56897 -0.05968
 H667 H 0.43031 0.61857 -0.15802
 H668 H 0.39935 0.66432 -0.18508
 H669 H 0.29858 0.65805 -0.11906
 H670 H 0.43985 0.56330 -0.12038
 H671 H 0.43413 0.51744 -0.07849
 H672 H 0.33946 0.57024 -0.04323
 C673 C 1.10508 -0.13894 -0.11833
 C674 C 1.08779 -0.11345 -0.13316
 C675 C 1.10198 -0.10109 -0.15929
 C676 C 1.13513 -0.11576 -0.17062
 C677 C 1.15259 -0.14309 -0.15590
 C678 C 1.13688 -0.15516 -0.12931
 O679 O 1.08774 -0.14613 -0.09382
 C680 C 1.05840 -0.12521 -0.09322
 C681 C 1.05667 -0.10518 -0.11683
 C682 C 1.02642 -0.08331 -0.12070
 C683 C 0.99834 -0.08049 -0.09929
 C684 C 1.00094 -0.09917 -0.07468
 C685 C 1.03089 -0.12260 -0.07162
 H686 H 1.08805 -0.08086 -0.17058
 H687 H 1.14584 -0.10726 -0.19099
 H688 H 1.14945 -0.17606 -0.11758
 H689 H 1.02487 -0.06854 -0.13950
 H690 H 0.97561 -0.06251 -0.10181
 H691 H 1.03374 -0.13724 -0.05304
 C692 C 1.14114 0.35430 0.41612
 C693 C 1.14507 0.32653 0.43639
 C694 C 1.16058 0.29140 0.43323
 C695 C 1.17188 0.28418 0.40824
 C696 C 1.16779 0.31208 0.38706
 C697 C 1.15311 0.34845 0.39111
 O698 O 1.12050 0.38117 0.42300
 C699 C 1.11114 0.37012 0.44809
 C700 C 1.12545 0.33692 0.45732
 C701 C 1.11272 0.31505 0.48279
 C702 C 1.08219 0.32624 0.49920
 C703 C 1.06656 0.35988 0.49004
 C704 C 1.08245 0.38298 0.46414
 H705 H 1.16258 0.26924 0.44937
 H706 H 1.18321 0.25634 0.40527
 H707 H 1.14803 0.36878 0.37521
 H708 H 1.12298 0.28774 0.48955
 H709 H 1.06843 0.30675 0.51877
 H710 H 1.06683 0.40476 0.45613
 C711 C 0.61079 -0.14299 0.37786
 C712 C 0.60199 -0.17160 0.40107
 C713 C 0.61599 -0.20798 0.40464
 C714 C 0.63847 -0.21668 0.38330
 C715 C 0.64659 -0.18914 0.35897
 C716 C 0.63352 -0.15080 0.35628
 O717 O 0.59835 -0.10710 0.37907
 C718 C 0.58147 -0.11327 0.40356
 C719 C 0.58277 -0.15245 0.41776
 C720 C 0.57290 -0.16098 0.44407
 C721 C 0.56174 -0.12729 0.45634
 C722 C 0.55874 -0.08770 0.44217
 C723 C 0.56951 -0.07994 0.41542
 H724 H 0.61042 -0.22846 0.42323
 H725 H 0.65066 -0.24408 0.38575
 H726 H 0.64021 -0.12847 0.33801
 H727 H 0.57751 -0.18943 0.45492
 H728 H 0.55980 -0.12861 0.47699
 H729 H 0.57171 -0.04653 0.40442
 C730 C 0.61353 0.35225 -0.10383
 C731 C 0.63347 0.34633 -0.08085
 C732 C 0.66986 0.33031 -0.07888
 C733 C 0.68578 0.31906 -0.10151
 C734 C 0.66401 0.32262 -0.12559
 C735 C 0.62892 0.34124 -0.12672
 O736 O 0.57031 0.35852 -0.10124
 C737 C 0.56182 0.35524 -0.07611
 C738 C 0.59942 0.34765 -0.06285
 C739 C 0.58768 0.33045 -0.03699
 C740 C 0.53314 0.31840 -0.02437
 C741 C 0.49420 0.32636 -0.03746
 C742 C 0.51026 0.34725 -0.06352
 H743 H 0.68298 0.32406 -0.06051
 H744 H 0.71355 0.30588 -0.10014
 H745 H 0.60941 0.34226 -0.14466
 H746 H 0.61538 0.32174 -0.02728
 H747 H 0.51938 0.30082 -0.00455
 H748 H 0.47832 0.35042 -0.07406
 C749 C 1.12528 0.09626 -0.13938
 C750 C 1.10807 0.12834 -0.13381
 C751 C 1.08516 0.14380 -0.15202
 C752 C 1.08296 0.12856 -0.17742
 C753 C 1.10462 0.09891 -0.18458
 C754 C 1.12390 0.08062 -0.16470
 O755 O 1.13920 0.08071 -0.11860
 C756 C 1.13028 0.10358 -0.09962
 C757 C 1.11229 0.13399 -0.10819
 C758 C 1.09559 0.15767 -0.09215
 C759 C 1.09307 0.14612 -0.06606
 C760 C 1.10505 0.10952 -0.05644
 C761 C 1.12795 0.09121 -0.07344
 H762 H 1.07028 0.16768 -0.14684
 H763 H 1.06956 0.14540 -0.19133
 H764 H 1.13671 0.05436 -0.16847
 H765 H 1.08165 0.18146 -0.09951
 H766 H 1.07491 0.16017 -0.05359
 H767 H 1.13390 0.06024 -0.06696
 C768 C 1.11756 0.58969 0.35517
 C769 C 1.10167 0.61661 0.36898
 C770 C 1.08059 0.64285 0.35765
 C771 C 1.07859 0.64374 0.33090
 C772 C 1.10097 0.62165 0.31603
 C773 C 1.11943 0.59308 0.32871
 O774 O 1.12754 0.55951 0.36950
 C775 C 1.11822 0.56802 0.39295
 C776 C 1.10428 0.60432 0.39368
 C777 C 1.09222 0.61858 0.41629
 C778 C 1.09066 0.59113 0.43886
 C779 C 1.09135 0.54315 0.43788
 C780 C 1.11182 0.53631 0.41502
 H781 H 1.06461 0.66051 0.36898
 H782 H 1.06019 0.66231 0.32202
 H783 H 1.13750 0.57597 0.31863
 H784 H 1.08298 0.64857 0.41652
 H785 H 1.08308 0.60265 0.45684
 H786 H 1.11473 0.50137 0.41393
 C787 C 0.59963 0.09265 0.35837
 C788 C 0.59017 0.13133 0.36391
 C789 C 0.57406 0.15287 0.34545
 C790 C 0.57229 0.13796 0.31995
 C791 C 0.58491 0.10055 0.31321
 C792 C 0.59601 0.07532 0.33307
 O793 O 0.61335 0.07666 0.37902
 C794 C 0.61267 0.10621 0.39792
 C795 C 0.59908 0.14052 0.38956
 C796 C 0.59280 0.17260 0.40601
 C797 C 0.59330 0.16302 0.43225
 C798 C 0.59950 0.12156 0.44153
 C799 C 0.61668 0.09886 0.42408
 H800 H 0.56581 0.18243 0.35042
 H801 H 0.56541 0.15959 0.30553
 H802 H 0.60438 0.04547 0.32903
 H803 H 0.58365 0.20061 0.39892
 H804 H 0.58174 0.18226 0.44531
 H805 H 0.62416 0.06930 0.43036
 C806 C 0.62143 0.60490 -0.14419
 C807 C 0.66096 0.59427 -0.13721
 C808 C 0.68932 0.58421 -0.15489
 C809 C 0.67882 0.58743 -0.18087
 C810 C 0.64117 0.60166 -0.18905
 C811 C 0.61063 0.60886 -0.16995
 O812 O 0.59517 0.60901 -0.12432
 C813 C 0.61889 0.60088 -0.10443
 C814 C 0.66003 0.59233 -0.11126
 C815 C 0.68767 0.58021 -0.09346
 C816 C 0.66745 0.57167 -0.06773
 C817 C 0.62138 0.57638 -0.06033
 C818 C 0.60074 0.59525 -0.07888
 H819 H 0.71947 0.57502 -0.14891
 H820 H 0.70504 0.58333 -0.19431
 H821 H 0.57782 0.61582 -0.17474
 H822 H 0.72076 0.57448 -0.09930
 H823 H 0.68436 0.55792 -0.05380
 H824 H 0.56661 0.60021 -0.07385
 C825 C 0.84352 -0.16129 -0.14884
 C826 C 0.80695 -0.14711 -0.14351
 C827 C 0.80412 -0.11289 -0.16107
 C828 C 0.83634 -0.09645 -0.18548
 C829 C 0.87113 -0.11398 -0.19182
 C830 C 0.87725 -0.14407 -0.17264
 O831 O 0.84085 -0.19334 -0.12966
 C832 C 0.80200 -0.19936 -0.11174
 C833 C 0.77904 -0.17269 -0.11920
 C834 C 0.73876 -0.17278 -0.10293
 C835 C 0.72616 -0.19708 -0.07757
 C836 C 0.75499 -0.21940 -0.06899
 C837 C 0.79018 -0.22354 -0.08683
 H838 H 0.77576 -0.10147 -0.15643
 H839 H 0.82986 -0.07375 -0.19935
 H840 H 0.90309 -0.15830 -0.17671
 H841 H 0.72092 -0.15175 -0.10919
 H842 H 0.69996 -0.19266 -0.06424
 H843 H 0.81424 -0.23899 -0.08100
 C844 C 0.88313 0.37197 0.36206
 C845 C 0.83867 0.37773 0.36750
 C846 C 0.81971 0.39675 0.34897
 C847 C 0.84349 0.40581 0.32370
 C848 C 0.88650 0.39670 0.31735
 C849 C 0.91010 0.38372 0.33745
 O850 O 0.89116 0.34921 0.38174
 C851 C 0.85093 0.34029 0.40001
 C852 C 0.81788 0.35740 0.39256
 C853 C 0.77278 0.35097 0.40917
 C854 C 0.76429 0.32873 0.43461
 C855 C 0.79612 0.30884 0.44203
 C856 C 0.83937 0.31436 0.42445
 H857 H 0.78443 0.40082 0.35352
 H858 H 0.82357 0.41524 0.30909
 H859 H 0.94468 0.37842 0.33408
 H860 H 0.74621 0.36367 0.40293
 H861 H 0.73212 0.32567 0.44824
 H862 H 0.86516 0.30037 0.42987
 C863 C 0.36971 -0.13903 0.34641
 C864 C 0.33300 -0.12616 0.35353
 C865 C 0.33347 -0.08636 0.33842
 C866 C 0.36607 -0.06540 0.31390
 C867 C 0.39360 -0.08807 0.30405
 C868 C 0.40091 -0.12034 0.32192
 O869 O 0.36666 -0.17418 0.36426
 C870 C 0.32538 -0.18512 0.38283
 C871 C 0.30158 -0.15853 0.37686
 C872 C 0.25307 -0.16861 0.39272
 C873 C 0.23378 -0.20200 0.41661
 C874 C 0.26891 -0.21839 0.42500
 C875 C 0.31027 -0.21513 0.40702
 H876 H 0.30922 -0.07212 0.34522
 H877 H 0.36749 -0.03282 0.30285
 H878 H 0.42238 -0.13819 0.31694
 H879 H 0.23279 -0.14943 0.38719
 H880 H 0.19813 -0.20789 0.42949
 H881 H 0.33689 -0.22826 0.41244
 C882 C 0.38341 0.36702 -0.13749
 C883 C 0.34958 0.38477 -0.13493
 C884 C 0.35305 0.42101 -0.15383
 C885 C 0.38603 0.43322 -0.17731
 C886 C 0.41404 0.40823 -0.18177
 C887 C 0.41816 0.38003 -0.16054
 O888 O 0.37389 0.33314 -0.11698
 C889 C 0.33196 0.32854 -0.10135
 C890 C 0.31491 0.35864 -0.11165
 C891 C 0.27038 0.35868 -0.09902
 C892 C 0.24712 0.33126 -0.07398
 C893 C 0.26916 0.30506 -0.06201
 C894 C 0.30894 0.30039 -0.07641
 H895 H 0.32812 0.43658 -0.15099
 H896 H 0.38356 0.45739 -0.19216
 H897 H 0.44245 0.36365 -0.16194
 H898 H 0.25677 0.38173 -0.10776
 H899 H 0.21650 0.33509 -0.06335
 H900 H 0.32750 0.28160 -0.06785
 C901 C 1.10526 -0.18409 0.09587
 C902 C 1.13925 -0.11814 0.10278
 C903 C 1.18266 -0.08068 0.12516
 C904 C 1.19360 -0.11133 0.14088
 C905 C 1.16178 -0.17768 0.13387
 C906 C 1.11598 -0.21549 0.11123
 O907 O 1.06517 -0.21060 0.07388
 C908 C 1.07484 -0.15980 0.06679
 C909 C 1.12083 -0.10176 0.08373
 C910 C 1.14262 -0.04040 0.07972
 C911 C 1.11421 -0.03945 0.05758
 C912 C 1.06124 -0.10118 0.04068
 C913 C 1.04274 -0.16157 0.04501
 H914 H 1.20715 -0.02975 0.13033
 H915 H 1.22729 -0.08342 0.15848
 H916 H 1.09130 -0.26633 0.10562
 H917 H 1.18053 0.00532 0.09309
 H918 H 1.13294 0.00928 0.05406
 H919 H 1.00551 -0.20756 0.03182
 C920 C 1.10071 0.32862 0.62899
 C921 C 1.10684 0.37710 0.63847
 C922 C 1.14638 0.41752 0.66093
 C923 C 1.18399 0.40261 0.67560
 C924 C 1.17336 0.34821 0.66488
 C925 C 1.13237 0.31345 0.64157
 O926 O 1.06173 0.29856 0.60692
 C927 C 1.04267 0.32801 0.60227
 C928 C 1.06816 0.37603 0.62092
 C929 C 1.05397 0.41289 0.61948
 C930 C 1.01399 0.40105 0.59761
 C931 C 0.99097 0.35431 0.57777
 C932 C 1.00342 0.31579 0.58057
 H933 H 1.17181 0.41937 0.67212
 H934 H 1.22459 0.42687 0.69531
 H935 H 1.12363 0.27347 0.63336
 H936 H 1.07357 0.44981 0.63452
 H937 H 1.00154 0.42829 0.59602
 H938 H 0.98602 0.27952 0.56569
 C939 C 0.62461 -0.15895 0.59760
 C940 C 0.64288 -0.10335 0.60751
 C941 C 0.66762 -0.07931 0.63263
 C942 C 0.67607 -0.11252 0.64809
 C943 C 0.66067 -0.16788 0.63815
 C944 C 0.63409 -0.19191 0.61258
 O945 O 0.60079 -0.17396 0.57331
 C946 C 0.60550 -0.12583 0.56773
 C947 C 0.63214 -0.08081 0.58796
 C948 C 0.64577 -0.02388 0.58622
 C949 C 0.62973 -0.01365 0.56281
 C950 C 0.59709 -0.06224 0.54202
 C951 C 0.58560 -0.11880 0.54444
 H952 H 0.68039 -0.03621 0.64000
 H953 H 0.69675 -0.09381 0.66760
 H954 H 0.62244 -0.23392 0.60461
 H955 H 0.66750 0.01113 0.60241
 H956 H 0.63819 0.02937 0.56140
 H957 H 0.56022 -0.15699 0.52896
 C958 C 0.61222 0.33007 0.11118
 C959 C 0.61111 0.37331 0.12027
 C960 C 0.64032 0.40566 0.14436
 C961 C 0.67104 0.39214 0.15973
 C962 C 0.67180 0.34677 0.15084
 C963 C 0.64258 0.31624 0.12601
 O964 O 0.57826 0.30131 0.08839
 C965 C 0.55488 0.32667 0.08290
 C966 C 0.57357 0.37118 0.10171
 C967 C 0.55120 0.40081 0.10018
 C968 C 0.50853 0.38431 0.07833
 C969 C 0.48838 0.33805 0.05880
 C970 C 0.51192 0.30899 0.06123
 H971 H 0.63833 0.43903 0.15125
 H972 H 0.69380 0.41673 0.17854
 H973 H 0.64029 0.27999 0.11873
 H974 H 0.56514 0.43454 0.11538
 H975 H 0.48973 0.40608 0.07692
 H976 H 0.49654 0.27300 0.04676
 C977 C 0.86004 0.11087 0.11168
 C978 C 0.86007 0.13497 0.08882
 C979 C 0.85075 0.17560 0.08734
 C980 C 0.84081 0.19184 0.11027
 C981 C 0.84112 0.16811 0.13402
 C982 C 0.85154 0.12757 0.13479
 O983 O 0.85881 0.06474 0.10872
 C984 C 0.85742 0.05909 0.08353
 C985 C 0.85862 0.10138 0.07046
 C986 C 0.84712 0.09643 0.04416
 C987 C 0.83072 0.04382 0.03096
 C988 C 0.82781 -0.00116 0.04407
 C989 C 0.84330 0.00784 0.07061
 H990 H 0.84787 0.19153 0.06914
 H991 H 0.83050 0.22101 0.10957
 H992 H 0.84821 0.10595 0.15263
 H993 H 0.84605 0.12871 0.03440
 H994 H 0.81609 0.03527 0.01080
 H995 H 0.83733 -0.02861 0.08116
 C996 C 0.87531 0.63137 0.59996
 C997 C 0.85191 0.63565 0.57753
 C998 C 0.81440 0.65074 0.57677
 C999 C 0.80060 0.66219 0.60006
 C1000 C 0.82468 0.65886 0.62348
 C1001 C 0.86307 0.64362 0.62344
 O1002 O 0.90662 0.61294 0.59638
 C1003 C 0.90325 0.60592 0.57117
 C1004 C 0.87050 0.61951 0.55879
 C1005 C 0.85775 0.61204 0.53253
 C1006 C 0.87906 0.58903 0.51843
 C1007 C 0.91258 0.57439 0.53070
 C1008 C 0.92460 0.58265 0.55744
 H1009 H 0.79587 0.65304 0.55889
 H1010 H 0.77159 0.67419 0.59992
 H1011 H 0.88112 0.63993 0.64110
 H1012 H 0.83006 0.62131 0.52334
 H1013 H 0.86663 0.57979 0.49813
 H1014 H 0.94461 0.56654 0.56736
 C1015 C 0.34886 0.10510 0.60845
 C1016 C 0.36543 0.07531 0.61976
 C1017 C 0.37798 0.07915 0.64591
 C1018 C 0.37197 0.11407 0.66098
 C1019 C 0.35467 0.14495 0.64969
 C1020 C 0.34406 0.14111 0.62297
 O1021 O 0.33270 0.09065 0.58373
 C1022 C 0.33895 0.05070 0.57930
 C1023 C 0.35908 0.03977 0.60066
 C1024 C 0.36469 -0.00385 0.60043
 C1025 C 0.35052 -0.03610 0.57711
 C1026 C 0.32776 -0.02679 0.55511
 C1027 C 0.32193 0.01707 0.55626
 H1028 H 0.38927 0.05400 0.65449
 H1029 H 0.37660 0.11363 0.68153
 H1030 H 0.32978 0.16329 0.61385
 H1031 H 0.37906 -0.01298 0.61755
 H1032 H 0.35534 -0.06956 0.57629
 H1033 H 0.30429 0.02454 0.53969
 C1034 C 0.36814 0.63375 0.11257
 C1035 C 0.39708 0.61419 0.12234
 C1036 C 0.40470 0.61117 0.14842
 C1037 C 0.37820 0.62593 0.16504
 C1038 C 0.34609 0.64450 0.15529
 C1039 C 0.34434 0.65100 0.12853
 O1040 O 0.36066 0.62906 0.08742
 C1041 C 0.38478 0.60530 0.08105
 C1042 C 0.40799 0.59543 0.10166
 C1043 C 0.42950 0.56539 0.09937
 C1044 C 0.42615 0.54419 0.07490
 C1045 C 0.40384 0.55552 0.05336
 C1046 C 0.38262 0.58612 0.05659
 H1047 H 0.42828 0.59619 0.15571
 H1048 H 0.38097 0.62077 0.18533
 H1049 H 0.32351 0.66758 0.11996
 H1050 H 0.44591 0.55656 0.11585
 H1051 H 0.43888 0.51733 0.07288
 H1052 H 0.36177 0.59189 0.04066
   
