data_POSCAR
  _audit_creation_date              2014-09-24
  _audit_creation_method            'ToBaCCo'
  _symmetry_space_group_name_H-M    'P1'
  _symmetry_Int_Tables_number       1
  _symmetry_cell_setting            triclinic
  loop_
  _symmetry_equiv_pos_as_xyz
 x,y,z
_cell_length_a 27.9315
_cell_length_b 28.0424
_cell_length_c 27.9182
_cell_angle_alpha 90.109200
_cell_angle_beta 90.180000
_cell_angle_gamma 90.107500
loop_
  _atom_site_label
  _atom_site_type_symbol
  _atom_site_fract_x
  _atom_site_fract_y
  _atom_site_fract_z
C1 C 0.52277 1.00000 -0.50151
 C2 C 0.47422 0.99979 -0.50148
 C3 C 0.44583 0.99977 -0.54639
 C4 C 0.44619 0.99960 -0.45653
 C5 C 0.55114 1.00017 -0.45659
 C6 C 0.55083 0.99999 -0.54644
 C7 C 0.44905 1.03753 -0.57924
 C8 C 0.41833 1.03911 -0.61892
 C9 C 0.38418 1.00297 -0.62588
 C10 C 0.38162 0.96485 -0.59365
 C11 C 0.41216 0.96336 -0.55410
 C12 C 0.41244 1.03578 -0.44875
 C13 C 0.38239 1.03414 -0.40903
 C14 C 0.38552 0.99618 -0.37677
 C15 C 0.41962 0.96028 -0.38378
 C16 C 0.44988 0.96193 -0.42361
 C17 C 0.58491 0.96396 -0.44900
 C18 C 0.61532 0.96561 -0.40935
 C19 C 0.61252 1.00361 -0.37698
 C20 C 0.57839 1.03953 -0.38379
 C21 C 0.54776 1.03787 -0.42355
 C22 C 0.54744 0.96218 -0.57939
 C23 C 0.57798 0.96056 -0.61901
 C24 C 0.61204 0.99665 -0.62579
 C25 C 0.61479 1.03480 -0.59356
 C26 C 0.58447 1.03640 -0.55404
 H27 H 0.47426 1.06635 -0.57335
 H28 H 0.42056 1.06901 -0.64337
 H29 H 0.35531 0.93672 -0.59837
 H30 H 0.40901 0.93418 -0.52893
 H31 H 0.40890 1.06489 -0.47396
 H32 H 0.35597 1.06195 -0.40405
 H33 H 0.47512 0.93327 -0.42953
 H34 H 0.58821 0.93482 -0.47431
 H35 H 0.64176 0.93779 -0.40452
 H36 H 0.57622 1.06928 -0.35908
 H37 H 0.52250 1.06655 -0.42933
 H38 H 0.52228 0.93335 -0.57359
 H39 H 0.57586 0.93070 -0.64361
 H40 H 0.64117 1.06275 -0.59837
 H41 H 0.58778 1.06563 -0.52880
 H42 H 0.42203 0.93056 -0.35915
 C43 C -0.47466 1.50096 -0.00012
 C44 C -0.52328 1.50094 0.00006
 C45 C -0.55163 1.45614 0.00015
 C46 C -0.55152 1.54569 0.00013
 C47 C -0.44631 1.54575 -0.00028
 C48 C -0.44643 1.45620 -0.00015
 C49 C -0.58580 1.44862 -0.03606
 C50 C -0.61624 1.40918 -0.03443
 C51 C -0.61311 1.37688 0.00356
 C52 C -0.57858 1.38363 0.03949
 C53 C -0.54794 1.42318 0.03785
 C54 C -0.54828 1.57860 -0.03763
 C55 C -0.57895 1.61804 -0.03916
 C56 C -0.61305 1.62471 -0.00305
 C57 C -0.61570 1.59248 0.03503
 C58 C -0.58524 1.55315 0.03655
 C59 C -0.44950 1.57889 0.03740
 C60 C -0.41879 1.61842 0.03885
 C61 C -0.38465 1.62498 0.00271
 C62 C -0.38206 1.59247 -0.03530
 C63 C -0.41258 1.55306 -0.03670
 C64 C -0.41225 1.44891 0.03605
 C65 C -0.38196 1.40946 0.03449
 C66 C -0.38524 1.37692 -0.00341
 C67 C -0.41977 1.38344 -0.03934
 C68 C -0.45027 1.42300 -0.03777
 H69 H -0.58940 1.47384 -0.06520
 H70 H -0.64294 1.40444 -0.06229
 H71 H -0.57611 1.35900 0.06923
 H72 H -0.52240 1.42887 0.06657
 H73 H -0.52310 1.57296 -0.06650
 H74 H -0.57685 1.64261 -0.06897
 H75 H -0.58850 1.52797 0.06574
 H76 H -0.47470 1.57336 0.06628
 H77 H -0.42098 1.64313 0.06866
 H78 H -0.35573 1.59694 -0.06340
 H79 H -0.40938 1.52770 -0.06583
 H80 H -0.40853 1.47430 0.06512
 H81 H -0.35525 1.40489 0.06233
 H82 H -0.42237 1.35862 -0.06901
 H83 H -0.47582 1.42850 -0.06648
 H84 H -0.64208 1.59716 0.06302
 C85 C 0.00014 0.49912 0.52538
 C86 C 0.00005 0.49910 0.47667
 C87 C -0.00021 0.45428 0.44819
 C88 C 0.00022 0.54390 0.44834
 C89 C -0.00010 0.54395 0.55383
 C90 C 0.00045 0.45432 0.55372
 C91 C 0.03736 0.42115 0.45149
 C92 C 0.03885 0.38183 0.42045
 C93 C 0.00285 0.37543 0.38584
 C94 C -0.03507 0.40790 0.38318
 C95 C -0.03651 0.44708 0.41402
 C96 C 0.03641 0.55108 0.41429
 C97 C 0.03492 0.59032 0.38366
 C98 C -0.00291 0.62282 0.38642
 C99 C -0.03880 0.61644 0.42084
 C100 C -0.03730 0.57708 0.45168
 C101 C -0.03631 0.55099 0.58787
 C102 C -0.03494 0.59032 0.61857
 C103 C 0.00284 0.62308 0.61588
 C104 C 0.03877 0.61679 0.58143
 C105 C 0.03735 0.57734 0.55055
 C106 C -0.03704 0.42097 0.55026
 C107 C -0.03846 0.38163 0.58114
 C108 C -0.00248 0.37543 0.61575
 C109 C 0.03536 0.40814 0.61858
 C110 C 0.03673 0.44735 0.58790
 H111 H 0.06617 0.42656 0.47699
 H112 H 0.06859 0.35717 0.42276
 H113 H -0.06308 0.40358 0.35654
 H114 H -0.06556 0.47242 0.41068
 H115 H 0.06542 0.52571 0.41090
 H116 H 0.06276 0.59474 0.35709
 H117 H -0.06603 0.57170 0.47707
 H118 H -0.06527 0.52547 0.59120
 H119 H -0.06289 0.59454 0.64509
 H120 H 0.06840 0.64168 0.57911
 H121 H 0.06609 0.57206 0.52515
 H122 H -0.06583 0.42620 0.52475
 H123 H -0.06813 0.35678 0.57870
 H124 H 0.06336 0.40399 0.64523
 H125 H 0.06572 0.47286 0.59137
 H126 H -0.06842 0.64121 0.42309
 O127 O -0.12306 1.00179 -0.06470
 O128 O 0.12316 0.99820 -0.06411
 O129 O -0.00162 1.06436 -0.12328
 O130 O 0.00165 0.93552 -0.12342
 O131 O 0.00168 0.87711 -0.06515
 O132 O -0.00156 1.12287 -0.06489
 O133 O 0.06490 0.99806 -0.12297
 O134 O -0.06490 1.00183 -0.12329
 Zr135 Zr 0.00003 0.99997 -0.08427
 O136 O 0.04330 0.95672 -0.04328
 O137 O -0.04317 1.04329 -0.04339
 C138 C -0.10895 1.00281 -0.10881
 C139 C 0.10897 0.99711 -0.10829
 C140 C -0.00251 1.10838 -0.10907
 C141 C 0.00258 0.89152 -0.10930
 H142 H 0.06382 1.06352 -0.06345
 O143 O 0.04330 1.04324 -0.04307
 H144 H -0.06372 0.93645 -0.06391
 O145 O -0.04317 0.95677 -0.04339
 O146 O 0.12326 1.00202 0.06487
 O147 O -0.12298 0.99814 0.06424
 O148 O 0.06525 1.12294 0.00220
 O149 O 0.06496 0.87723 -0.00174
 O150 O -0.06505 0.87715 0.00162
 O151 O -0.06475 1.12285 -0.00176
 O152 O 0.00196 1.06454 0.12360
 O153 O -0.00162 0.93571 0.12343
 O154 O 0.00204 1.12297 0.06535
 O155 O -0.00176 0.87720 0.06504
 O156 O 0.12332 1.06442 0.00224
 O157 O -0.12297 1.06425 -0.00195
 O158 O -0.12313 0.93567 0.00151
 O159 O 0.12316 0.93585 -0.00150
 O160 O 0.06509 1.00207 0.12345
 O161 O -0.06475 0.99817 0.12313
 Zr162 Zr 0.08408 1.00010 0.00029
 Zr163 Zr -0.08389 0.99998 -0.00013
 Zr164 Zr 0.00020 1.08427 0.00018
 Zr165 Zr -0.00000 0.91581 -0.00001
 Zr166 Zr 0.00015 1.00010 0.08443
 O167 O -0.04322 0.95673 0.04334
 O168 O 0.04347 1.04342 0.04366
 C169 C 0.10914 1.00306 0.10899
 C170 C -0.10882 0.99714 0.10842
 C171 C 0.10930 1.10841 0.00323
 C172 C 0.10905 0.89183 -0.00259
 C173 C -0.10910 0.89167 0.00249
 C174 C -0.10884 1.10826 -0.00285
 C175 C 0.00295 1.10854 0.10949
 C176 C -0.00263 0.89169 0.10922
 H177 H -0.06348 1.06353 0.06375
 O178 O -0.04300 1.04324 0.04333
 H179 H 0.06375 0.93663 0.06391
 O180 O 0.04325 0.95690 0.04345
 C181 C 0.28454 1.00718 0.27249
 C182 C 0.23556 1.02075 0.29324
 C183 C 0.19955 1.02042 0.26024
 C184 C 0.21607 1.00655 0.20976
 C185 C 0.24074 0.95807 0.21570
 C186 C 0.27674 0.95839 0.24869
 C187 C 0.29266 1.04199 0.23095
 C188 C 0.25660 1.04166 0.19791
 C189 C 0.32281 1.00699 0.30844
 C190 C 0.35300 1.00562 0.33931
 C191 C 0.17734 1.00586 0.17431
 C192 C 0.14582 1.00476 0.14483
 H193 H 0.22970 1.02989 0.33057
 H194 H 0.16284 1.02927 0.26927
 H195 H 0.23083 0.92627 0.19572
 H196 H 0.29770 0.92688 0.25697
 H197 H 0.32390 1.06484 0.22776
 H198 H 0.25693 1.06427 0.16638
 C199 C -0.28481 0.99248 0.27014
 C200 C -0.27793 1.04095 0.24566
 C201 C -0.24174 1.04142 0.21311
 C202 C -0.21597 0.99338 0.20825
 C203 C -0.25566 0.95718 0.19646
 C204 C -0.29191 0.95670 0.22906
 C205 C -0.23567 0.98038 0.29169
 C206 C -0.19947 0.98085 0.25913
 C207 C -0.32330 0.99249 0.30562
 C208 C -0.35368 0.99371 0.33609
 C209 C -0.17707 0.99422 0.17324
 C210 C -0.14548 0.99540 0.14404
 H211 H -0.29962 1.07215 0.25319
 H212 H -0.23240 1.07304 0.19275
 H213 H -0.25530 0.93396 0.16530
 H214 H -0.32262 0.93311 0.22586
 H215 H -0.22984 0.97209 0.32923
 H216 H -0.16263 0.97299 0.26874
 C217 C -0.28459 1.00767 -0.27200
 C218 C -0.29128 1.04394 -0.23136
 C219 C -0.25514 1.04341 -0.19841
 C220 C -0.21596 1.00666 -0.20944
 C221 C -0.19912 1.01847 -0.26030
 C222 C -0.23521 1.01900 -0.29320
 C223 C -0.27850 0.95938 -0.24694
 C224 C -0.24242 0.95885 -0.21405
 C225 C -0.32296 1.00771 -0.30784
 C226 C -0.35326 1.00653 -0.33859
 C227 C -0.17717 1.00576 -0.17408
 C228 C -0.14563 1.00456 -0.14464
 H229 H -0.32165 1.06790 -0.22869
 H230 H -0.25453 1.06695 -0.16748
 H231 H -0.16213 1.02583 -0.26964
 H232 H -0.22914 1.02683 -0.33077
 H233 H -0.30064 0.92835 -0.25435
 H234 H -0.23362 0.92736 -0.19326
 C235 C 0.28359 0.99217 -0.27150
 C236 C 0.23460 0.97762 -0.29198
 C237 C 0.19879 0.97816 -0.25900
 C238 C 0.21549 0.99320 -0.20880
 C239 C 0.23973 1.04185 -0.21567
 C240 C 0.27553 1.04131 -0.24865
 C241 C 0.29224 0.95827 -0.22928
 C242 C 0.25638 0.95881 -0.19626
 C243 C 0.32165 0.99212 -0.30744
 C244 C 0.35166 0.99328 -0.33827
 C245 C 0.17697 0.99411 -0.17338
 C246 C 0.14557 0.99533 -0.14398
 H247 H 0.22859 0.96769 -0.32913
 H248 H 0.16210 0.96871 -0.26785
 H249 H 0.22968 1.07391 -0.19631
 H250 H 0.29618 1.07290 -0.25754
 H251 H 0.32368 0.93585 -0.22565
 H252 H 0.25708 0.93682 -0.16430
 C253 C 0.28439 1.27179 0.00761
 C254 C 0.28725 1.23619 0.04921
 C255 C 0.25136 1.20314 0.04878
 C256 C 0.21619 1.20900 0.00680
 C257 C 0.24749 1.20795 -0.03829
 C258 C 0.28333 1.24096 -0.03786
 C259 C 0.23409 1.29354 0.01095
 C260 C 0.19825 1.26053 0.01052
 C261 C 0.32257 1.30778 0.00758
 C262 C 0.35273 1.33855 0.00641
 C263 C 0.17757 1.17350 0.00603
 C264 C 0.14608 1.14408 0.00492
 H265 H 0.31498 1.23686 0.07654
 H266 H 0.24834 1.17548 0.07578
 H267 H 0.24200 1.18340 -0.06793
 H268 H 0.30856 1.24468 -0.06713
 H269 H 0.22723 1.33156 0.01347
 H270 H 0.16071 1.27026 0.01268
 C271 C 0.28421 0.72921 -0.00694
 C272 C 0.28077 0.75716 0.04025
 C273 C 0.24487 0.78997 0.04070
 C274 C 0.21590 0.79164 -0.00607
 C275 C 0.19831 0.74037 -0.01404
 C276 C 0.23421 0.70756 -0.01449
 C277 C 0.28908 0.76735 -0.04599
 C278 C 0.25313 0.80020 -0.04554
 C279 C 0.32246 0.69344 -0.00694
 C280 C 0.35269 0.66285 -0.00582
 C281 C 0.17724 0.82693 -0.00529
 C282 C 0.14576 0.85624 -0.00420
 H283 H 0.30449 0.75170 0.07062
 H284 H 0.23784 0.81260 0.07147
 H285 H 0.16096 0.73068 -0.01895
 H286 H 0.22758 0.66975 -0.01980
 H287 H 0.31814 0.76846 -0.07169
 H288 H 0.25140 0.82947 -0.07088
 C289 C -0.28402 0.72813 0.00652
 C290 C -0.28093 0.75628 -0.04047
 C291 C -0.24513 0.78934 -0.04086
 C292 C -0.21591 0.79102 0.00577
 C293 C -0.19812 0.73985 0.01323
 C294 C -0.23391 0.70679 0.01362
 C295 C -0.28879 0.76608 0.04590
 C296 C -0.25295 0.79918 0.04550
 C297 C -0.32213 0.69208 0.00645
 C298 C -0.35224 0.66124 0.00528
 C299 C -0.17734 0.82656 0.00505
 C300 C -0.14588 0.85601 0.00402
 H301 H -0.30480 0.75078 -0.07075
 H302 H -0.23834 0.81215 -0.07149
 H303 H -0.16072 0.73039 0.01786
 H304 H -0.22714 0.66901 0.01859
 H305 H -0.31771 0.76689 0.07176
 H306 H -0.25117 0.82836 0.07107
 C307 C -0.28325 1.27171 -0.00729
 C308 C -0.28013 1.24347 0.03965
 C309 C -0.24445 1.21042 0.04011
 C310 C -0.21535 1.20883 -0.00641
 C311 C -0.19741 1.26003 -0.01372
 C312 C -0.23308 1.29307 -0.01418
 C313 C -0.28825 1.23383 -0.04676
 C314 C -0.25252 1.20073 -0.04630
 C315 C -0.32124 1.30773 -0.00730
 C316 C -0.35126 1.33854 -0.00619
 C317 C -0.17690 1.17331 -0.00561
 C318 C -0.14552 1.14389 -0.00450
 H319 H -0.30390 1.24890 0.06986
 H320 H -0.23765 1.18756 0.07072
 H321 H -0.15998 1.26950 -0.01819
 H322 H -0.22620 1.33087 -0.01906
 H323 H -0.31725 1.23305 -0.07273
 H324 H -0.25091 1.17160 -0.07191
 C325 C 0.00673 1.27250 0.28463
 C326 C 0.01798 1.29327 0.23505
 C327 C 0.01765 1.26019 0.19922
 C328 C 0.00610 1.20953 0.21641
 C329 C -0.04191 1.21391 0.24265
 C330 C -0.04158 1.24698 0.27848
 C331 C 0.04338 1.23240 0.29181
 C332 C 0.04305 1.19929 0.25594
 C333 C 0.00662 1.30856 0.32287
 C334 C 0.00543 1.33932 0.35316
 C335 C 0.00546 1.17390 0.17777
 C336 C 0.00447 1.14436 0.14629
 H337 H 0.02560 1.33069 0.22865
 H338 H 0.02498 1.26929 0.16218
 H339 H -0.07341 1.19286 0.23389
 H340 H -0.07279 1.25422 0.30038
 H341 H 0.06745 1.23020 0.32233
 H342 H 0.06687 1.16873 0.25576
 C343 C -0.00623 1.27238 -0.28353
 C344 C -0.01911 1.29275 -0.23412
 C345 C -0.01877 1.25965 -0.19846
 C346 C -0.00558 1.20935 -0.21561
 C347 C 0.04289 1.21513 -0.24073
 C348 C 0.04255 1.24823 -0.27639
 C349 C -0.04170 1.23128 -0.29173
 C350 C -0.04136 1.19813 -0.25602
 C351 C -0.00614 1.30849 -0.32160
 C352 C -0.00499 1.33928 -0.35173
 C353 C -0.00494 1.17369 -0.17713
 C354 C -0.00398 1.14416 -0.14577
 H355 H -0.02779 1.32994 -0.22773
 H356 H -0.02716 1.26848 -0.16155
 H357 H 0.07469 1.19496 -0.23134
 H358 H 0.07406 1.25639 -0.29754
 H359 H -0.06501 1.22845 -0.32280
 H360 H -0.06441 1.16691 -0.25652
 C361 C 0.00648 0.72671 -0.28358
 C362 C 0.02559 0.70822 -0.23545
 C363 C 0.02521 0.74154 -0.19985
 C364 C 0.00575 0.79014 -0.21581
 C365 C -0.04399 0.77948 -0.23682
 C366 C -0.04360 0.74617 -0.27241
 C367 C 0.03697 0.77091 -0.29465
 C368 C 0.03658 0.80427 -0.25901
 C369 C 0.00644 0.69037 -0.32157
 C370 C 0.00532 0.65940 -0.35165
 C371 C 0.00505 0.82601 -0.17739
 C372 C 0.00406 0.85567 -0.14604
 H373 H 0.03838 0.67211 -0.22984
 H374 H 0.03765 0.73397 -0.16378
 H375 H -0.07666 0.79662 -0.22483
 H376 H -0.07594 0.73481 -0.29088
 H377 H 0.05708 0.77560 -0.32752
 H378 H 0.05638 0.83753 -0.26139
 C379 C -0.00667 0.72781 0.28376
 C380 C -0.04247 0.76857 0.29141
 C381 C -0.04205 0.80168 0.25566
 C382 C -0.00589 0.79076 0.21578
 C383 C -0.01863 0.74032 0.19850
 C384 C -0.01904 0.70725 0.23420
 C385 C 0.04200 0.75244 0.27729
 C386 C 0.04241 0.78550 0.24159
 C387 C -0.00667 0.69175 0.32188
 C388 C -0.00559 0.66104 0.35209
 C389 C -0.00517 0.82639 0.17727
 C390 C -0.00416 0.85592 0.14590
 H391 H -0.06603 0.77120 0.32214
 H392 H -0.06530 0.83267 0.25580
 H393 H -0.02667 0.73137 0.16148
 H394 H -0.02744 0.66997 0.22773
 H395 H 0.07340 0.74462 0.29889
 H396 H 0.07417 0.80598 0.23263
   
