data_POSCAR
  _audit_creation_date              2014-09-24
  _audit_creation_method            'ToBaCCo'
  _symmetry_space_group_name_H-M    'P1'
  _symmetry_Int_Tables_number       1
  _symmetry_cell_setting            triclinic
  loop_
  _symmetry_equiv_pos_as_xyz
 x,y,z
_cell_length_a 25.4446
_cell_length_b 25.4450
_cell_length_c 25.4451
_cell_angle_alpha 90.237300
_cell_angle_beta 89.999100
_cell_angle_gamma 89.998400
loop_
  _atom_site_label
  _atom_site_type_symbol
  _atom_site_fract_x
  _atom_site_fract_y
  _atom_site_fract_z
C1 C 0.50029 1.00023 -0.64265
 C2 C 0.45337 1.00789 -0.61522
 C3 C 0.45351 1.00922 -0.56015
 C4 C 0.50030 1.00004 -0.53154
 C5 C 0.54709 0.99096 -0.56027
 C6 C 0.54721 0.99247 -0.61532
 C7 C 0.50031 0.99994 -0.47240
 C8 C 0.54707 1.00920 -0.44366
 C9 C 0.54717 1.00772 -0.38865
 C10 C 0.50034 0.99976 -0.36134
 C11 C 0.45350 0.99189 -0.38872
 C12 C 0.45357 0.99059 -0.44375
 H13 H 0.50028 1.00030 -0.68534
 H14 H 0.41694 1.01774 -0.54022
 H15 H 0.58366 0.98237 -0.54045
 H16 H 0.58368 1.01791 -0.46333
 H17 H 0.50035 0.99968 -0.31870
 H18 H 0.41696 0.98195 -0.46350
 C19 C -0.64264 1.49992 0.00029
 C20 C -0.61524 1.45306 0.00809
 C21 C -0.56017 1.45323 0.00951
 C22 C -0.53153 1.49998 0.00029
 C23 C -0.56022 1.54669 -0.00892
 C24 C -0.61529 1.54681 -0.00750
 C25 C -0.47239 1.50000 0.00029
 C26 C -0.44372 1.54682 0.00951
 C27 C -0.38870 1.54693 0.00812
 C28 C -0.36133 1.50006 0.00029
 C29 C -0.38865 1.45317 -0.00754
 C30 C -0.44367 1.45322 -0.00893
 H31 H -0.68533 1.49990 0.00030
 H32 H -0.54029 1.41672 0.01813
 H33 H -0.54037 1.58322 -0.01755
 H34 H -0.46344 1.58347 0.01812
 H35 H -0.31868 1.50008 0.00029
 H36 H -0.46336 1.41654 -0.01754
 C37 C 0.00021 0.35934 0.50000
 C38 C 0.00800 0.38658 0.45314
 C39 C 0.00939 0.44166 0.45336
 C40 C 0.00017 0.47043 0.50020
 C41 C -0.00903 0.44183 0.54690
 C42 C -0.00761 0.38682 0.54689
 C43 C 0.00013 0.52957 0.50034
 C44 C 0.00934 0.55834 0.54718
 C45 C 0.00789 0.61342 0.54741
 C46 C 0.00005 0.64065 0.50055
 C47 C -0.00775 0.61317 0.45366
 C48 C -0.00911 0.55815 0.45365
 H49 H 0.00020 0.31667 0.50008
 H50 H 0.01799 0.46144 0.41684
 H51 H -0.01763 0.46162 0.58357
 H52 H 0.01799 0.53857 0.58370
 H53 H 0.00000 0.68332 0.50047
 H54 H -0.01771 0.53836 0.41699
 O55 O -0.13483 1.00216 -0.07090
 O56 O 0.13553 0.99754 -0.07088
 O57 O -0.00185 1.07085 -0.13476
 O58 O 0.00255 0.92856 -0.13505
 O59 O 0.00247 0.86445 -0.07105
 O60 O -0.00181 1.13523 -0.07050
 O61 O 0.07139 0.99747 -0.13511
 O62 O -0.07068 1.00196 -0.13512
 Zr63 Zr 0.00035 0.99980 -0.09224
 O64 O 0.04789 0.95229 -0.04739
 O65 O -0.04721 1.04749 -0.04721
 C66 C -0.11910 1.00338 -0.11934
 C67 C 0.11981 0.99613 -0.11933
 C68 C -0.00316 1.11934 -0.11895
 C69 C 0.00384 0.88014 -0.11944
 H70 H 0.07038 1.06981 -0.06958
 O71 O 0.04793 1.04743 -0.04718
 H72 H -0.06971 0.92987 -0.06988
 O73 O -0.04726 0.95234 -0.04740
 O74 O 0.13553 1.00229 0.07142
 O75 O -0.13487 0.99798 0.07138
 O76 O 0.07153 1.13515 0.00278
 O77 O 0.07139 0.86475 -0.00220
 O78 O -0.07091 0.86485 0.00225
 O79 O -0.07077 1.13521 -0.00170
 O80 O 0.00258 1.07142 0.13562
 O81 O -0.00195 0.92913 0.13533
 O82 O 0.00259 1.13553 0.07162
 O83 O -0.00197 0.86475 0.07106
 O84 O 0.13576 1.07101 0.00263
 O85 O -0.13502 1.07109 -0.00182
 O86 O -0.13510 0.92903 0.00233
 O87 O 0.13568 0.92883 -0.00206
 O88 O 0.07140 1.00244 0.13568
 O89 O -0.07077 0.99809 0.13565
 Zr90 Zr 0.09287 0.99994 0.00028
 Zr91 Zr -0.09218 1.00004 0.00026
 Zr92 Zr 0.00037 1.09251 0.00047
 Zr93 Zr 0.00028 0.90747 0.00009
 Zr94 Zr 0.00032 1.00019 0.09281
 O95 O -0.04727 0.95255 0.04775
 O96 O 0.04793 1.04764 0.04795
 C97 C 0.11982 1.00371 0.11987
 C98 C -0.11918 0.99674 0.11983
 C99 C 0.11997 1.11943 0.00406
 C100 C 0.11985 0.88042 -0.00348
 C101 C -0.11934 0.88061 0.00360
 C102 C -0.11922 1.11950 -0.00308
 C103 C 0.00392 1.11983 0.12000
 C104 C -0.00331 0.88065 0.11951
 H105 H -0.06965 1.07018 0.07042
 O106 O -0.04722 1.04768 0.04794
 H107 H 0.07029 0.93010 0.07014
 O108 O 0.04787 0.95250 0.04775
 C109 C 0.40753 1.01233 0.35746
 C110 C 0.36778 1.01464 0.33178
 C111 C 0.32147 1.01560 0.29935
 C112 C 0.31424 1.05611 0.26294
 C113 C 0.27157 1.05465 0.22831
 C114 C 0.23600 1.01264 0.22990
 C115 C 0.24270 0.97262 0.26694
 C116 C 0.28536 0.97408 0.30158
 C117 C 0.19412 1.00949 0.19202
 C118 C 0.15981 1.00673 0.15946
 H119 H 0.34214 1.08818 0.26060
 H120 H 0.26688 1.08571 0.19968
 H121 H 0.21555 0.93985 0.26837
 H122 H 0.29080 0.94234 0.32931
 C123 C -0.40696 0.98811 0.35729
 C124 C -0.36721 0.98586 0.33159
 C125 C -0.32089 0.98495 0.29915
 C126 C -0.31349 0.94432 0.26257
 C127 C -0.27082 0.94580 0.22796
 C128 C -0.23541 0.98795 0.22974
 C129 C -0.24227 1.02811 0.26694
 C130 C -0.28495 1.02662 0.30156
 C131 C -0.19350 0.99109 0.19191
 C132 C -0.15918 0.99381 0.15938
 H133 H -0.34127 0.91213 0.26009
 H134 H -0.26598 0.91464 0.19921
 H135 H -0.21525 1.06098 0.26852
 H136 H -0.29052 1.05845 0.32942
 C137 C -0.40452 1.01251 -0.35960
 C138 C -0.36504 1.01474 -0.33352
 C139 C -0.31911 1.01559 -0.30054
 C140 C -0.28310 0.97397 -0.30266
 C141 C -0.24089 0.97237 -0.26749
 C142 C -0.23457 1.01236 -0.23001
 C143 C -0.27005 1.05447 -0.22851
 C144 C -0.31226 1.05606 -0.26367
 C145 C -0.19308 1.00915 -0.19175
 C146 C -0.15900 1.00638 -0.15899
 H147 H -0.28826 0.94226 -0.33074
 H148 H -0.21379 0.93955 -0.26888
 H149 H -0.26562 1.08551 -0.19956
 H150 H -0.34011 1.08820 -0.26140
 C151 C 0.40520 0.98701 -0.35971
 C152 C 0.36572 0.98471 -0.33363
 C153 C 0.31982 0.98379 -0.30063
 C154 C 0.31332 0.94362 -0.26371
 C155 C 0.27112 0.94519 -0.22852
 C156 C 0.23529 0.98698 -0.23006
 C157 C 0.24125 1.02666 -0.26760
 C158 C 0.28345 1.02508 -0.30279
 C159 C 0.19380 0.99022 -0.19177
 C160 C 0.15972 0.99304 -0.15898
 H161 H 0.34144 0.91173 -0.26141
 H162 H 0.26698 0.91440 -0.19953
 H163 H 0.21388 1.05925 -0.26901
 H164 H 0.28833 1.05657 -0.33091
 C165 C 0.35743 1.40724 0.01257
 C166 C 0.33176 1.36749 0.01492
 C167 C 0.29935 1.32117 0.01592
 C168 C 0.26266 1.31421 0.05635
 C169 C 0.22805 1.27151 0.05492
 C170 C 0.22995 1.23565 0.01301
 C171 C 0.26727 1.24208 -0.02693
 C172 C 0.30188 1.28477 -0.02549
 C173 C 0.19210 1.19374 0.00986
 C174 C 0.15956 1.15942 0.00710
 H175 H 0.26008 1.34233 0.08834
 H176 H 0.19921 1.26702 0.08590
 H177 H 0.26895 1.21471 -0.05962
 H178 H 0.32983 1.29000 -0.05716
 C179 C 0.35734 0.59261 -0.01198
 C180 C 0.33164 0.63234 -0.01432
 C181 C 0.29920 0.67864 -0.01531
 C182 C 0.30171 0.71503 0.02611
 C183 C 0.26708 0.75771 0.02755
 C184 C 0.22978 0.76414 -0.01240
 C185 C 0.22790 0.72829 -0.05431
 C186 C 0.26251 0.68560 -0.05575
 C187 C 0.19193 0.80606 -0.00926
 C188 C 0.15940 0.84040 -0.00651
 H189 H 0.32965 0.70980 0.05779
 H190 H 0.26874 0.78508 0.06024
 H191 H 0.19906 0.73278 -0.08530
 H192 H 0.25995 0.65749 -0.08774
 C193 C -0.35969 0.59527 0.01287
 C194 C -0.33362 0.63478 0.01506
 C195 C -0.30064 0.68070 0.01588
 C196 C -0.30251 0.71645 -0.02583
 C197 C -0.26732 0.75864 -0.02745
 C198 C -0.23009 0.76521 0.01260
 C199 C -0.22885 0.73001 0.05479
 C200 C -0.26403 0.68781 0.05641
 C201 C -0.19180 0.80668 0.00937
 C202 C -0.15901 0.84074 0.00660
 H203 H -0.33038 0.71108 -0.05759
 H204 H -0.26850 0.78552 -0.06034
 H205 H -0.20009 0.73463 0.08588
 H206 H -0.26196 0.66017 0.08862
 C207 C -0.35959 1.40485 -0.01230
 C208 C -0.33349 1.36537 -0.01450
 C209 C -0.30048 1.31947 -0.01533
 C210 C -0.30249 1.28358 0.02625
 C211 C -0.26728 1.24140 0.02787
 C212 C -0.22990 1.23498 -0.01206
 C213 C -0.22850 1.27032 -0.05413
 C214 C -0.26369 1.31251 -0.05574
 C215 C -0.19162 1.19349 -0.00884
 C216 C -0.15885 1.15941 -0.00607
 H217 H -0.33049 1.28883 0.05791
 H218 H -0.26859 1.21440 0.06066
 H219 H -0.19963 1.26581 -0.08512
 H220 H -0.26151 1.34025 -0.08785
 C221 C 0.01248 1.35908 0.40729
 C222 C 0.01482 1.33319 0.36757
 C223 C 0.01580 1.30046 0.32133
 C224 C 0.05631 1.26383 0.31421
 C225 C 0.05484 1.22889 0.27166
 C226 C 0.01281 1.23038 0.23611
 C227 C -0.02721 1.26764 0.24269
 C228 C -0.02573 1.30259 0.28524
 C229 C 0.00967 1.19225 0.19431
 C230 C 0.00692 1.15953 0.16004
 H231 H 0.08839 1.26156 0.34211
 H232 H 0.08590 1.20010 0.26704
 H233 H -0.05999 1.26901 0.21555
 H234 H -0.05748 1.33048 0.29061
 C235 C -0.01233 1.35795 -0.40481
 C236 C -0.01451 1.33207 -0.36529
 C237 C -0.01533 1.29938 -0.31929
 C238 C -0.05588 1.26284 -0.31225
 C239 C -0.05430 1.22798 -0.26992
 C240 C -0.01214 1.22947 -0.23452
 C241 C 0.02793 1.26664 -0.24103
 C242 C 0.02635 1.30151 -0.28335
 C243 C -0.00894 1.19147 -0.19293
 C244 C -0.00616 1.15887 -0.15881
 H245 H -0.08808 1.26058 -0.34003
 H246 H -0.08540 1.19927 -0.26535
 H247 H 0.06081 1.26801 -0.21400
 H248 H 0.05812 1.32934 -0.28866
 C249 C 0.01238 0.64093 -0.40675
 C250 C 0.01472 0.66682 -0.36704
 C251 C 0.01572 0.69956 -0.32080
 C252 C -0.02568 0.69725 -0.28456
 C253 C -0.02716 0.73220 -0.24201
 C254 C 0.01273 0.76962 -0.23557
 C255 C 0.05463 0.77129 -0.27127
 C256 C 0.05610 0.73636 -0.31382
 C257 C 0.00958 0.80774 -0.19376
 C258 C 0.00683 0.84045 -0.15947
 H259 H -0.05733 0.66923 -0.28982
 H260 H -0.05983 0.73069 -0.21475
 H261 H 0.08558 0.80020 -0.26675
 H262 H 0.08807 0.73876 -0.34183
 C263 C -0.01251 0.64203 0.40536
 C264 C -0.01473 0.66791 0.36584
 C265 C -0.01557 0.70060 0.31985
 C266 C -0.05598 0.73732 0.31295
 C267 C -0.05441 0.77218 0.27062
 C268 C -0.01237 0.77051 0.23507
 C269 C 0.02756 0.73317 0.24144
 C270 C 0.02598 0.69830 0.28375
 C271 C -0.00915 0.80852 0.19349
 C272 C -0.00635 0.84112 0.15937
 H273 H -0.08807 0.73972 0.34085
 H274 H -0.08540 0.80103 0.26617
 H275 H 0.06034 0.73166 0.21429
 H276 H 0.05764 0.67033 0.28895
   
