data_POSCAR
  _audit_creation_date              2014-09-24
  _audit_creation_method            'ToBaCCo'
  _symmetry_space_group_name_H-M    'P1'
  _symmetry_Int_Tables_number       1
  _symmetry_cell_setting            triclinic
  loop_
  _symmetry_equiv_pos_as_xyz
 x,y,z
_cell_length_a 43.7503
_cell_length_b 43.7475
_cell_length_c 43.7470
_cell_angle_alpha 89.999000
_cell_angle_beta 89.999500
_cell_angle_gamma 89.999300
loop_
  _atom_site_label
  _atom_site_type_symbol
  _atom_site_fract_x
  _atom_site_fract_y
  _atom_site_fract_z
C1 C 0.24993 0.49990 0.99999
 C2 C 0.74997 0.49991 -0.00002
 C3 C -0.00005 0.24988 0.49999
 C4 C 0.99995 0.74993 0.49998
 C5 C 0.49996 -0.00010 0.24997
 C6 C 0.49995 -0.00009 0.75001
 C7 C 0.29667 0.02313 0.46327
 H8 H 0.29741 0.04058 0.48078
 C9 C 0.31742 0.02397 0.43905
 H10 H 0.33418 0.04216 0.43780
 C11 C 0.27457 -0.02247 0.44396
 H12 H 0.25828 -0.04087 0.44629
 C13 C 0.29494 -0.02250 0.41935
 H14 H 0.29411 -0.04078 0.40267
 N15 N 0.27571 0.00024 0.46522
 C16 C 0.20327 0.03661 0.52321
 H17 H 0.20253 0.01910 0.54066
 C18 C 0.18252 0.06083 0.52404
 H19 H 0.16576 0.06208 0.54223
 C20 C 0.22538 0.05593 0.47761
 H21 H 0.24167 0.05360 0.45922
 C22 C 0.20500 0.08053 0.47758
 H23 H 0.20583 0.09722 0.45930
 Zn24 Zn 0.24997 -0.00010 0.49999
 N25 N 0.22424 0.03467 0.50032
 C26 C 0.27456 0.02228 0.55602
 N27 N 0.27570 -0.00043 0.53476
 C28 C 0.29667 -0.02332 0.53671
 C29 C 0.31742 -0.02416 0.56093
 C30 C 0.29493 0.02231 0.58063
 C31 C 0.20328 -0.03681 0.47676
 C32 C 0.18253 -0.06104 0.47592
 C33 C 0.20501 -0.08074 0.52239
 C34 C 0.22538 -0.05613 0.52236
 N35 N 0.22424 -0.03487 0.49965
 H36 H 0.25827 0.04067 0.55368
 H37 H 0.29742 -0.04077 0.51920
 H38 H 0.33418 -0.04234 0.56218
 H39 H 0.29410 0.04059 0.59731
 H40 H 0.20254 -0.01930 0.45931
 H41 H 0.16577 -0.06229 0.45774
 H42 H 0.20584 -0.09742 0.54067
 H43 H 0.24167 -0.05380 0.54076
 C44 C 0.18335 0.08294 0.50098
 C45 C 0.31659 0.00090 0.41694
 C46 C 0.18336 -0.08314 0.49899
 C47 C 0.31658 -0.00109 0.58304
 C48 C 0.70323 0.02314 0.53671
 H49 H 0.70249 0.04058 0.51919
 C50 C 0.68248 0.02397 0.56093
 H51 H 0.66572 0.04216 0.56218
 C52 C 0.72535 -0.02246 0.55603
 H53 H 0.74164 -0.04085 0.55369
 C54 C 0.70498 -0.02249 0.58064
 H55 H 0.70581 -0.04076 0.59732
 N56 N 0.72420 0.00025 0.53476
 C57 C 0.79663 0.03662 0.47676
 H58 H 0.79737 0.01911 0.45932
 C59 C 0.81738 0.06085 0.47593
 H60 H 0.83415 0.06209 0.45774
 C61 C 0.77452 0.05594 0.52236
 H62 H 0.75823 0.05361 0.54076
 C63 C 0.79490 0.08055 0.52239
 H64 H 0.79407 0.09723 0.54067
 Zn65 Zn 0.74993 -0.00009 0.49999
 N66 N 0.77566 0.03468 0.49966
 C67 C 0.72534 0.02228 0.44396
 N68 N 0.72420 -0.00043 0.46523
 C69 C 0.70324 -0.02332 0.46328
 C70 C 0.68249 -0.02416 0.43905
 C71 C 0.70497 0.02230 0.41935
 C72 C 0.79663 -0.03680 0.52322
 C73 C 0.81739 -0.06102 0.52405
 C74 C 0.79490 -0.08072 0.47759
 C75 C 0.77453 -0.05612 0.47762
 N76 N 0.77567 -0.03486 0.50033
 H77 H 0.74163 0.04067 0.44629
 H78 H 0.70249 -0.04076 0.48079
 H79 H 0.66573 -0.04234 0.43781
 H80 H 0.70581 0.04058 0.40266
 H81 H 0.79738 -0.01929 0.54067
 H82 H 0.83415 -0.06227 0.54224
 H83 H 0.79407 -0.09741 0.45931
 H84 H 0.75823 -0.05379 0.45923
 C85 C 0.81655 0.08295 0.49899
 C86 C 0.68332 0.00091 0.58304
 C87 C 0.81655 -0.08313 0.50099
 C88 C 0.68332 -0.00109 0.41695
 C89 C 0.47668 0.20323 1.03668
 H90 H 0.45925 0.20249 1.01914
 C91 C 0.47582 0.18248 1.06090
 H92 H 0.45763 0.16571 1.06212
 C93 C 0.52225 0.22535 1.05605
 H94 H 0.54064 0.24164 1.05374
 C95 C 0.52225 0.20497 1.08066
 H96 H 0.54051 0.20580 1.09736
 N97 N 0.49957 0.22420 1.03476
 C98 C 0.46329 0.29664 0.97670
 H99 H 0.48084 0.29739 0.95929
 C100 C 0.43907 0.31739 0.97582
 H101 H 0.43786 0.33415 0.95763
 C102 C 0.44389 0.27452 1.02226
 H103 H 0.44618 0.25823 1.04065
 C104 C 0.41927 0.29489 1.02223
 H105 H 0.40255 0.29406 1.04048
 Zn106 Zn 0.49996 0.24994 0.99999
 N107 N 0.46519 0.27567 0.99960
 C108 C 0.47766 0.22535 0.94394
 N109 N 0.50034 0.22420 0.96522
 C110 C 0.52323 0.20323 0.96330
 C111 C 0.52409 0.18248 0.93908
 C112 C 0.47766 0.20498 0.91933
 C113 C 0.53662 0.29664 1.02328
 C114 C 0.56085 0.31738 1.02417
 C115 C 0.58065 0.29488 0.97775
 C116 C 0.55603 0.27452 0.97773
 N117 N 0.53472 0.27567 1.00039
 H118 H 0.45927 0.24165 0.94625
 H119 H 0.54066 0.20248 0.98084
 H120 H 0.54227 0.16571 0.93786
 H121 H 0.45940 0.20581 0.90262
 H122 H 0.51908 0.29739 1.04069
 H123 H 0.56206 0.33415 1.04236
 H124 H 0.59737 0.29405 0.95951
 H125 H 0.55374 0.25822 0.95933
 C126 C 0.41691 0.31655 0.99883
 C127 C 0.49886 0.18331 1.08303
 C128 C 0.58300 0.31654 1.00115
 C129 C 0.50105 0.18332 0.91695
 C130 C 0.47667 0.79658 -0.03670
 H131 H 0.45924 0.79733 -0.01916
 C132 C 0.47581 0.81734 -0.06092
 H133 H 0.45763 0.83411 -0.06214
 C134 C 0.52223 0.77446 -0.05607
 H135 H 0.54062 0.75817 -0.05376
 C136 C 0.52224 0.79484 -0.08068
 H137 H 0.54049 0.79400 -0.09738
 N138 N 0.49955 0.77561 -0.03478
 C139 C 0.46327 0.70317 0.02328
 H140 H 0.48082 0.70242 0.04069
 C141 C 0.43905 0.68243 0.02417
 H142 H 0.43783 0.66566 0.04236
 C143 C 0.44387 0.72529 -0.02227
 H144 H 0.44616 0.74159 -0.04067
 C145 C 0.41925 0.70493 -0.02225
 H146 H 0.40253 0.70577 -0.04049
 Zn147 Zn 0.49994 0.74987 -0.00001
 N148 N 0.46518 0.72414 0.00038
 C149 C 0.47765 0.77446 0.05605
 N150 N 0.50033 0.77561 0.03476
 C151 C 0.52322 0.79658 0.03667
 C152 C 0.52408 0.81733 0.06090
 C153 C 0.47765 0.79484 0.08065
 C154 C 0.53660 0.70317 -0.02330
 C155 C 0.56083 0.68242 -0.02419
 C156 C 0.58063 0.70492 0.02222
 C157 C 0.55602 0.72529 0.02225
 N158 N 0.53471 0.72414 -0.00041
 H159 H 0.45926 0.75817 0.05374
 H160 H 0.54065 0.79732 0.01914
 H161 H 0.54227 0.83410 0.06212
 H162 H 0.45939 0.79401 0.09736
 H163 H 0.51905 0.70242 -0.04071
 H164 H 0.56204 0.66566 -0.04238
 H165 H 0.59735 0.70576 0.04046
 H166 H 0.55372 0.74158 0.04065
 C167 C 0.41689 0.68327 0.00115
 C168 C 0.49885 0.81650 -0.08305
 C169 C 0.58298 0.68327 -0.00118
 C170 C 0.50105 0.81649 0.08303
 C171 C 1.03661 0.47661 0.20329
 H172 H 1.01906 0.45921 0.20255
 C173 C 1.06083 0.47573 0.18254
 H174 H 1.06204 0.45754 0.16578
 C175 C 1.05602 0.52217 0.22541
 H176 H 1.05373 0.54057 0.24170
 C177 C 1.08063 0.52214 0.20504
 H178 H 1.09735 0.54039 0.20587
 N179 N 1.03471 0.49951 0.22426
 C180 C 0.97667 0.46322 0.29670
 H181 H 0.95924 0.48075 0.29745
 C182 C 0.97581 0.43899 0.31745
 H183 H 0.95762 0.43776 0.33422
 C184 C 1.02224 0.44385 0.27459
 H185 H 1.04064 0.44616 0.25829
 C186 C 1.02224 0.41924 0.29496
 H187 H 1.04050 0.40254 0.29413
 Zn188 Zn 0.99995 0.49991 0.25000
 N189 N 0.99956 0.46514 0.27573
 C190 C 0.94387 0.47765 0.22541
 N191 N 0.96518 0.50031 0.22426
 C192 C 0.96329 0.52320 0.20329
 C193 C 0.93906 0.52409 0.18254
 C194 C 0.91926 0.47767 0.20504
 C195 C 1.02323 0.53660 0.29670
 C196 C 1.02409 0.56082 0.31745
 C197 C 0.97766 0.58057 0.29496
 C198 C 0.97766 0.55596 0.27458
 N199 N 1.00034 0.53468 0.27573
 H200 H 0.94616 0.45925 0.24171
 H201 H 0.98084 0.54061 0.20255
 H202 H 0.93786 0.54228 0.16578
 H203 H 0.90254 0.45943 0.20587
 H204 H 1.04065 0.51906 0.29745
 H205 H 1.04227 0.56205 0.33422
 H206 H 0.95940 0.59728 0.29412
 H207 H 0.95926 0.55365 0.25829
 C208 C 0.99885 0.41686 0.31661
 C209 C 1.08299 0.49874 0.18338
 C210 C 1.00105 0.58295 0.31661
 C211 C 0.91691 0.50107 0.18338
 C212 C -0.03671 0.47662 0.79668
 H213 H -0.01916 0.45921 0.79742
 C214 C -0.06093 0.47573 0.81743
 H215 H -0.06214 0.45754 0.83419
 C216 C -0.05612 0.52217 0.77456
 H217 H -0.05383 0.54057 0.75826
 C218 C -0.08073 0.52215 0.79493
 H219 H -0.09745 0.54039 0.79410
 N220 N -0.03481 0.49951 0.77571
 C221 C 0.02323 0.46322 0.70327
 H222 H 0.04066 0.48075 0.70252
 C223 C 0.02409 0.43899 0.68252
 H224 H 0.04228 0.43776 0.66575
 C225 C -0.02234 0.44385 0.72539
 H226 H -0.04073 0.44616 0.74168
 C227 C -0.02234 0.41924 0.70502
 H228 H -0.04060 0.40253 0.70585
 Zn229 Zn -0.00005 0.49991 0.74997
 N230 N 0.00034 0.46514 0.72424
 C231 C 0.05602 0.47764 0.77456
 N232 N 0.03472 0.50030 0.77571
 C233 C 0.03662 0.52320 0.79668
 C234 C 0.06084 0.52408 0.81743
 C235 C 0.08063 0.47766 0.79493
 C236 C -0.02333 0.53660 0.70327
 C237 C -0.02419 0.56082 0.68252
 C238 C 0.02225 0.58057 0.70501
 C239 C 0.02224 0.55596 0.72538
 N240 N -0.00043 0.53467 0.72424
 H241 H 0.05373 0.45924 0.75827
 H242 H 0.01907 0.54061 0.79742
 H243 H 0.06205 0.54227 0.83419
 H244 H 0.09736 0.45942 0.79410
 H245 H -0.04075 0.51906 0.70252
 H246 H -0.04237 0.56205 0.66575
 H247 H 0.04051 0.59728 0.70585
 H248 H 0.04064 0.55365 0.74168
 C249 C 0.00105 0.41686 0.68336
 C250 C -0.08309 0.49875 0.81659
 C251 C -0.00115 0.58295 0.68336
 C252 C 0.08299 0.50106 0.81659
 C253 C 0.09438 0.15390 0.47477
 C254 C 0.06902 0.15658 0.49929
 C255 C 0.07405 0.19133 0.50012
 C256 C 0.09905 0.18899 0.47558
 C257 C 0.11817 0.15050 0.50038
 C258 C 0.12327 0.18525 0.50121
 C259 C 0.09314 0.15288 0.52489
 C260 C 0.09782 0.18797 0.52575
 C261 C 0.04874 0.21323 0.50002
 C262 C 0.02713 0.23032 0.49998
 C263 C 0.14212 0.12711 0.50056
 C264 C 0.16122 0.10726 0.50074
 H265 H 0.09322 0.13963 0.45382
 H266 H 0.04644 0.14503 0.49850
 H267 H 0.10119 0.20411 0.45532
 H268 H 0.14587 0.19676 0.50201
 H269 H 0.09096 0.13777 0.54517
 H270 H 0.09894 0.20224 0.54669
 C271 C 0.65329 0.59338 -0.02547
 C272 C 0.68838 0.59808 -0.02579
 C273 C 0.69141 0.57399 -0.00042
 C274 C 0.65666 0.56895 -0.00012
 C275 C 0.65057 0.61811 -0.00068
 C276 C 0.65363 0.59400 0.02467
 C277 C 0.68532 0.62323 -0.00099
 C278 C 0.68873 0.59870 0.02439
 C279 C 0.71331 0.54869 -0.00028
 C280 C 0.73041 0.52709 -0.00016
 C281 C 0.62717 0.64205 -0.00084
 C282 C 0.60731 0.66114 -0.00099
 H283 H 0.63845 0.59144 -0.04597
 H284 H 0.70294 0.59946 -0.04653
 H285 H 0.64512 0.54635 0.00024
 H286 H 0.63909 0.59257 0.04542
 H287 H 0.69682 0.64584 -0.00135
 H288 H 0.70358 0.60060 0.04488
 C289 C 0.90591 -0.15367 0.47509
 C290 C 0.93090 -0.15676 0.49994
 C291 C 0.92586 -0.19152 0.50012
 C292 C 0.90123 -0.18877 0.47525
 C293 C 0.88173 -0.15069 0.50038
 C294 C 0.87663 -0.18544 0.50057
 C295 C 0.90639 -0.15347 0.52523
 C296 C 0.90170 -0.18857 0.52543
 C297 C 0.95117 -0.21341 0.50002
 C298 C 0.97278 -0.23051 0.49997
 C299 C 0.85779 -0.12729 0.50056
 C300 C 0.83869 -0.10745 0.50074
 H301 H 0.90739 -0.13906 0.45439
 H302 H 0.95349 -0.14521 0.49968
 H303 H 0.89940 -0.20355 0.45471
 H304 H 0.85402 -0.19696 0.50083
 H305 H 0.90827 -0.13870 0.54578
 H306 H 0.90026 -0.20319 0.54612
 C307 C 0.34626 0.40580 1.02468
 C308 C 0.34324 0.43086 0.99990
 C309 C 0.30848 0.42582 0.99959
 C310 C 0.31116 0.40111 1.02439
 C311 C 0.34933 0.38170 0.99933
 C312 C 0.31458 0.37658 0.99901
 C313 C 0.34662 0.40644 0.97454
 C314 C 0.31152 0.40174 0.97421
 C315 C 0.28658 0.45112 0.99973
 C316 C 0.26949 0.47273 0.99984
 C317 C 0.37273 0.35776 0.99917
 C318 C 0.39259 0.33867 0.99902
 H319 H 0.36080 0.40723 1.04543
 H320 H 0.35478 0.45346 1.00027
 H321 H 0.29631 0.39921 1.04488
 H322 H 0.30308 0.35397 0.99864
 H323 H 0.36146 0.40838 0.95405
 H324 H 0.29697 0.40036 0.95347
 C325 C 0.87662 0.18526 0.50020
 C326 C 0.90169 0.18808 0.52512
 C327 C 0.92586 0.19134 0.49985
 C328 C 0.90123 0.18890 0.47494
 C329 C 0.88173 0.15051 0.49959
 C330 C 0.90592 0.15380 0.47435
 C331 C 0.90638 0.15298 0.52448
 C332 C 0.93089 0.15659 0.49924
 C333 C 0.95117 0.21323 0.49995
 C334 C 0.97277 0.23033 0.50000
 C335 C 0.85778 0.12712 0.49941
 C336 C 0.83868 0.10727 0.49923
 H337 H 0.85401 0.19677 0.50060
 H338 H 0.90024 0.20245 0.54599
 H339 H 0.89941 0.20393 0.45458
 H340 H 0.90740 0.13945 0.45347
 H341 H 0.90824 0.13796 0.54485
 H342 H 0.95348 0.14503 0.49884
 C343 C 0.34661 0.59338 0.02543
 C344 C 0.31151 0.59808 0.02577
 C345 C 0.30847 0.57400 0.00039
 C346 C 0.34323 0.56895 0.00007
 C347 C 0.34931 0.61812 0.00065
 C348 C 0.34625 0.59402 -0.02471
 C349 C 0.31456 0.62323 0.00097
 C350 C 0.31115 0.59871 -0.02441
 C351 C 0.28658 0.54869 0.00025
 C352 C 0.26948 0.52708 0.00013
 C353 C 0.37271 0.64206 0.00081
 C354 C 0.39257 0.66115 0.00096
 H355 H 0.36144 0.59144 0.04593
 H356 H 0.29696 0.59945 0.04651
 H357 H 0.35477 0.54636 -0.00029
 H358 H 0.36078 0.59260 -0.04545
 H359 H 0.30306 0.64584 0.00134
 H360 H 0.29630 0.60061 -0.04490
 C361 C 0.09353 -0.15348 0.47474
 C362 C 0.09821 -0.18858 0.47453
 C363 C 0.07405 -0.19153 0.49984
 C364 C 0.06902 -0.15677 0.50003
 C365 C 0.11818 -0.15071 0.49959
 C366 C 0.09400 -0.15368 0.52488
 C367 C 0.12329 -0.18546 0.49940
 C368 C 0.09869 -0.18879 0.52472
 C369 C 0.04874 -0.21342 0.49995
 C370 C 0.02713 -0.23051 0.49999
 C371 C 0.14213 -0.12731 0.49941
 C372 C 0.16123 -0.10746 0.49923
 H373 H 0.09166 -0.13871 0.45419
 H374 H 0.09965 -0.20320 0.45384
 H375 H 0.04643 -0.14521 0.50029
 H376 H 0.09252 -0.13907 0.54558
 H377 H 0.14590 -0.19697 0.49914
 H378 H 0.10051 -0.20357 0.54526
 C379 C 0.65365 0.40580 0.97530
 C380 C 0.65667 0.43086 1.00009
 C381 C 0.69143 0.42581 1.00039
 C382 C 0.68875 0.40111 0.97558
 C383 C 0.65059 0.38170 1.00065
 C384 C 0.68534 0.37658 1.00096
 C385 C 0.65330 0.40643 1.02544
 C386 C 0.68840 0.40173 1.02576
 C387 C 0.71332 0.45112 1.00025
 C388 C 0.73042 0.47273 1.00013
 C389 C 0.62719 0.35776 1.00081
 C390 C 0.60733 0.33867 1.00096
 H391 H 0.63910 0.40723 0.95456
 H392 H 0.64512 0.45345 0.99973
 H393 H 0.70359 0.39921 0.95509
 H394 H 0.69684 0.35397 1.00132
 H395 H 0.63847 0.40836 1.04594
 H396 H 0.70295 0.40035 1.04650
 C397 C 0.52480 0.09402 1.15363
 C398 C 0.52454 0.09870 1.18873
 C399 C 0.49974 0.07400 1.19142
 C400 C 0.50002 0.06896 1.15667
 C401 C 0.49945 0.11813 1.15059
 C402 C 0.47466 0.09340 1.15332
 C403 C 0.49917 0.12323 1.18534
 C404 C 0.47437 0.09808 1.18842
 C405 C 0.49987 0.04869 1.21332
 C406 C 0.49993 0.02708 1.23042
 C407 C 0.49926 0.14207 1.12720
 C408 C 0.49908 0.16117 1.10735
 H409 H 0.54553 0.09259 1.13907
 H410 H 0.54505 0.10059 1.20356
 H411 H 0.50037 0.04637 1.14511
 H412 H 0.45416 0.09146 1.13850
 H413 H 0.49881 0.14584 1.19686
 H414 H 0.45364 0.09947 1.20299
 C415 C -0.02538 0.65330 0.59350
 C416 C -0.02562 0.68840 0.59820
 C417 C -0.00027 0.69138 0.57407
 C418 C -0.00006 0.65662 0.56903
 C419 C -0.00057 0.65053 0.61819
 C420 C 0.02476 0.65353 0.59404
 C421 C -0.00078 0.68528 0.62331
 C422 C 0.02456 0.68864 0.59874
 C423 C -0.00014 0.71328 0.54877
 C424 C -0.00008 0.73038 0.52716
 C425 C -0.00075 0.62713 0.64213
 C426 C -0.00093 0.60728 0.66122
 H427 H -0.04591 0.63852 0.59159
 H428 H -0.04632 0.70301 0.59961
 H429 H 0.00024 0.64507 0.54643
 H430 H 0.04546 0.63894 0.59259
 H431 H -0.00108 0.69679 0.64592
 H432 H 0.04509 0.70344 0.60061
 C433 C 0.47461 0.90637 -0.15339
 C434 C 0.49993 0.93085 -0.15669
 C435 C 0.49973 0.92581 -0.19144
 C436 C 0.47440 0.90168 -0.18849
 C437 C 0.49944 0.88169 -0.15061
 C438 C 0.49924 0.87658 -0.18536
 C439 C 0.52475 0.90584 -0.15360
 C440 C 0.52458 0.90115 -0.18870
 C441 C 0.49986 0.95112 -0.21334
 C442 C 0.49992 0.97273 -0.23044
 C443 C 0.49925 0.85774 -0.12722
 C444 C 0.49907 0.83864 -0.10737
 H445 H 0.45407 0.90827 -0.13861
 H446 H 0.50021 0.95345 -0.14513
 H447 H 0.45370 0.90026 -0.20310
 H448 H 0.49895 0.85397 -0.19688
 H449 H 0.54545 0.90730 -0.13899
 H450 H 0.54511 0.89930 -0.20349
 C451 C 0.99932 0.31453 0.37666
 C452 C 1.02462 0.31124 0.40129
 C453 C 0.99973 0.30844 0.42590
 C454 C 0.97444 0.31135 0.40172
 C455 C 0.99944 0.34928 0.38178
 C456 C 0.97457 0.34645 0.40642
 C457 C 1.02471 0.34635 0.40599
 C458 C 0.99984 0.34320 0.43095
 C459 C 0.99986 0.28654 0.45120
 C460 C 0.99993 0.26944 0.47281
 C461 C 0.99925 0.37269 0.35784
 C462 C 0.99907 0.39254 0.33875
 H463 H 0.99911 0.30303 0.35405
 H464 H 1.04519 0.29650 0.39947
 H465 H 0.95378 0.29669 0.40025
 H466 H 0.95399 0.36118 0.40828
 H467 H 1.04537 0.36099 0.40750
 H468 H 1.00006 0.35474 0.45355
 C469 C 0.50069 0.87657 0.18534
 C470 C 0.52552 0.90169 0.18845
 C471 C 0.50017 0.92580 0.19142
 C472 C 0.47534 0.90113 0.18870
 C473 C 0.50046 0.88168 0.15059
 C474 C 0.47513 0.90582 0.15360
 C475 C 0.52527 0.90638 0.15335
 C476 C 0.49995 0.93084 0.15667
 C477 C 0.50005 0.95111 0.21332
 C478 C 0.49998 0.97272 0.23042
 C479 C 0.50065 0.85773 0.12719
 C480 C 0.50082 0.83863 0.10735
 H481 H 0.50100 0.85396 0.19686
 H482 H 0.54623 0.90028 0.20305
 H483 H 0.45482 0.89926 0.20351
 H484 H 0.45442 0.90727 0.13901
 H485 H 0.54580 0.90829 0.13855
 H486 H 0.49964 0.95344 0.14511
 C487 C -0.02480 0.34634 0.59399
 C488 C 0.00007 0.34319 0.56903
 C489 C 0.00018 0.30843 0.57408
 C490 C -0.02471 0.31124 0.59869
 C491 C 0.00047 0.34928 0.61819
 C492 C 0.00059 0.31453 0.62332
 C493 C 0.02534 0.34644 0.59356
 C494 C 0.02547 0.31134 0.59826
 C495 C 0.00005 0.28653 0.54878
 C496 C -0.00002 0.26943 0.52717
 C497 C 0.00066 0.37268 0.64213
 C498 C 0.00083 0.39254 0.66123
 H499 H -0.04547 0.36099 0.59248
 H500 H -0.00015 0.35474 0.54643
 H501 H -0.04528 0.29649 0.60051
 H502 H 0.00080 0.30302 0.64593
 H503 H 0.04592 0.36117 0.59170
 H504 H 0.04613 0.29668 0.59973
 C505 C 0.52528 0.09345 0.84661
 C506 C 0.49997 0.06897 0.84332
 C507 C 0.50017 0.07401 0.80856
 C508 C 0.52550 0.09814 0.81151
 C509 C 0.50046 0.11813 0.84939
 C510 C 0.50065 0.12324 0.81464
 C511 C 0.47514 0.09398 0.84641
 C512 C 0.47532 0.09867 0.81130
 C513 C 0.50004 0.04870 0.78666
 C514 C 0.49997 0.02709 0.76956
 C515 C 0.50064 0.14208 0.87279
 C516 C 0.50082 0.16118 0.89263
 H517 H 0.54582 0.09156 0.86139
 H518 H 0.49969 0.04637 0.85487
 H519 H 0.54619 0.09957 0.79690
 H520 H 0.50094 0.14585 0.80312
 H521 H 0.45444 0.09251 0.86101
 H522 H 0.45478 0.10052 0.79651
 C523 C 1.02530 0.65333 0.40645
 C524 C 1.02550 0.68843 0.40175
 C525 C 1.00018 0.69138 0.42589
 C526 C 1.00000 0.65662 0.43094
 C527 C 1.00047 0.65053 0.38178
 C528 C 0.97516 0.65351 0.40595
 C529 C 1.00064 0.68528 0.37666
 C530 C 0.97532 0.68861 0.40125
 C531 C 1.00005 0.71328 0.45120
 C532 C 0.99998 0.73038 0.47280
 C533 C 1.00065 0.62713 0.35784
 C534 C 1.00083 0.60727 0.33874
 H535 H 1.04585 0.63856 0.40834
 H536 H 1.04618 0.70305 0.40031
 H537 H 0.99973 0.64507 0.45354
 H538 H 0.95447 0.63890 0.40743
 H539 H 1.00091 0.69679 0.35404
 H540 H 0.95477 0.70339 0.39940
 C541 C 1.15362 0.52460 0.09411
 C542 C 1.18872 0.52430 0.09880
 C543 C 1.19139 0.49950 0.07408
 C544 C 1.15663 0.49981 0.06905
 C545 C 1.15056 0.49924 0.11821
 C546 C 1.15326 0.47446 0.09348
 C547 C 1.18531 0.49892 0.12332
 C548 C 1.18836 0.47412 0.09816
 C549 C 1.21328 0.49964 0.04877
 C550 C 1.23038 0.49976 0.02716
 C551 C 1.12716 0.49908 0.14216
 C552 C 1.10731 0.49893 0.16125
 H553 H 1.13908 0.54534 0.09269
 H554 H 1.20357 0.54479 0.10069
 H555 H 1.14508 0.50018 0.04645
 H556 H 1.13842 0.45396 0.09154
 H557 H 1.19682 0.49856 0.14593
 H558 H 1.20291 0.45338 0.09954
 C559 C 0.62327 0.00053 0.68537
 C560 C 0.59818 0.02538 0.68849
 C561 C 0.57404 0.00006 0.69146
 C562 C 0.59869 -0.02480 0.68872
 C563 C 0.61816 0.00031 0.65062
 C564 C 0.59400 -0.02499 0.65362
 C565 C 0.59349 0.02515 0.65339
 C566 C 0.56900 -0.00016 0.65670
 C567 C 0.54873 -0.00005 0.71336
 C568 C 0.52713 -0.00009 0.73045
 C569 C 0.64210 0.00049 0.62722
 C570 C 0.66119 0.00067 0.60737
 H571 H 0.64588 0.00081 0.69688
 H572 H 0.59961 0.04608 0.70309
 H573 H 0.60054 -0.04533 0.70352
 H574 H 0.59252 -0.04570 0.63903
 H575 H 0.59159 0.04569 0.63860
 H576 H 0.54640 -0.00044 0.64515
 C577 C -0.15385 0.52470 0.90574
 C578 C -0.18895 0.52420 0.90105
 C579 C -0.19149 0.49951 0.92589
 C580 C -0.15673 0.50003 0.93092
 C581 C -0.15066 0.49924 0.88176
 C582 C -0.15323 0.47457 0.90662
 C583 C -0.18540 0.49872 0.87665
 C584 C -0.18832 0.47403 0.90193
 C585 C -0.21338 0.49965 0.95120
 C586 C -0.23048 0.49977 0.97281
 C587 C -0.12726 0.49909 0.85782
 C588 C -0.10741 0.49894 0.83872
 H589 H -0.13942 0.54553 0.90706
 H590 H -0.20391 0.54460 0.89906
 H591 H -0.14518 0.50057 0.95351
 H592 H -0.13828 0.45416 0.90866
 H593 H -0.19691 0.49818 0.85405
 H594 H -0.20276 0.45320 0.90066
 C595 C 0.37664 0.00049 0.31461
 C596 C 0.40171 0.02536 0.31148
 C597 C 0.42587 0.00004 0.30852
 C598 C 0.40124 -0.02483 0.31128
 C599 C 0.38175 0.00030 0.34936
 C600 C 0.40593 -0.02499 0.34638
 C601 C 0.40641 0.02515 0.34658
 C602 C 0.43091 -0.00014 0.34328
 C603 C 0.45118 -0.00006 0.28663
 C604 C 0.47278 -0.00010 0.26953
 C605 C 0.35781 0.00048 0.37277
 C606 C 0.33872 0.00066 0.39262
 H607 H 0.35403 0.00075 0.30310
 H608 H 0.40027 0.04604 0.29686
 H609 H 0.39940 -0.04537 0.29650
 H610 H 0.40742 -0.04568 0.36099
 H611 H 0.40829 0.04570 0.36135
 H612 H 0.45351 -0.00040 0.35483
 C613 C 0.18531 0.50088 0.87665
 C614 C 0.18836 0.52568 0.90181
 C615 C 0.19139 0.50030 0.92589
 C616 C 0.18872 0.47550 0.90117
 C617 C 0.15056 0.50056 0.88176
 C618 C 0.15362 0.47521 0.90586
 C619 C 0.15326 0.52535 0.90649
 C620 C 0.15663 0.49999 0.93092
 C621 C 0.21328 0.50016 0.95120
 C622 C 0.23038 0.50005 0.97281
 C623 C 0.12716 0.50072 0.85781
 C624 C 0.10731 0.50087 0.83872
 H625 H 0.19682 0.50124 0.85404
 H626 H 0.20291 0.54642 0.90043
 H627 H 0.20357 0.45501 0.89928
 H628 H 0.13908 0.45446 0.90728
 H629 H 0.13842 0.54584 0.90843
 H630 H 0.14508 0.49962 0.95352
 C631 C 0.59399 0.02479 0.34638
 C632 C 0.59868 0.02463 0.31128
 C633 C 0.57405 -0.00024 0.30852
 C634 C 0.56900 -0.00006 0.34328
 C635 C 0.61816 -0.00050 0.34936
 C636 C 0.59351 -0.02535 0.34658
 C637 C 0.62328 -0.00069 0.31461
 C638 C 0.59820 -0.02556 0.31148
 C639 C 0.54874 -0.00014 0.28662
 C640 C 0.52714 -0.00010 0.26953
 C641 C 0.64210 -0.00068 0.37277
 C642 C 0.66119 -0.00086 0.39262
 H643 H 0.59250 0.04549 0.36099
 H644 H 0.60052 0.04517 0.29649
 H645 H 0.54641 0.00020 0.35483
 H646 H 0.59163 -0.04590 0.36135
 H647 H 0.64589 -0.00095 0.30310
 H648 H 0.59965 -0.04625 0.29686
 C649 C 0.81459 0.50102 0.12332
 C650 C 0.81163 0.52576 0.09809
 C651 C 0.80851 0.50032 0.07408
 C652 C 0.81110 0.47558 0.09887
 C653 C 0.84934 0.50058 0.11821
 C654 C 0.84620 0.47516 0.09418
 C655 C 0.84672 0.52529 0.09340
 C656 C 0.84327 0.49987 0.06905
 C657 C 0.78662 0.50017 0.04877
 C658 C 0.76952 0.50005 0.02716
 C659 C 0.87274 0.50074 0.14216
 C660 C 0.89259 0.50088 0.16125
 H661 H 0.80308 0.50150 0.14592
 H662 H 0.79714 0.54655 0.09940
 H663 H 0.79618 0.45515 0.10083
 H664 H 0.86067 0.45436 0.09283
 H665 H 0.86163 0.54573 0.09140
 H666 H 0.85482 0.49940 0.04646
 C667 C 0.40588 0.02484 0.65365
 C668 C 0.40118 0.02460 0.68875
 C669 C 0.42586 -0.00023 0.69146
 C670 C 0.43090 0.00003 0.65670
 C671 C 0.38174 -0.00049 0.65062
 C672 C 0.40644 -0.02530 0.65336
 C673 C 0.37663 -0.00075 0.68537
 C674 C 0.40175 -0.02558 0.68846
 C675 C 0.45116 -0.00012 0.71336
 C676 C 0.47277 -0.00008 0.73045
 C677 C 0.35780 -0.00067 0.62722
 C678 C 0.33871 -0.00085 0.60736
 H679 H 0.40732 0.04557 0.63908
 H680 H 0.39931 0.04511 0.70357
 H681 H 0.45350 0.00035 0.64515
 H682 H 0.40836 -0.04582 0.63855
 H683 H 0.35402 -0.00107 0.69688
 H684 H 0.40034 -0.04630 0.70304
   
