data_POSCAR
  _audit_creation_date              2014-09-24
  _audit_creation_method            'ToBaCCo'
  _symmetry_space_group_name_H-M    'P1'
  _symmetry_Int_Tables_number       1
  _symmetry_cell_setting            triclinic
  loop_
  _symmetry_equiv_pos_as_xyz
 x,y,z
_cell_length_a 21.4858
_cell_length_b 20.9678
_cell_length_c 21.8993
_cell_angle_alpha 91.232100
_cell_angle_beta 90.604100
_cell_angle_gamma 89.537900
loop_
  _atom_site_label
  _atom_site_type_symbol
  _atom_site_fract_x
  _atom_site_fract_y
  _atom_site_fract_z
C1 C 1.26282 0.26169 0.25918
 C2 C 0.74964 -0.25050 0.25323
 C3 C 0.76186 0.25718 -0.25361
 C4 C 1.24322 -0.25234 -0.24684
 C5 C 0.24091 0.24243 0.75751
 C6 C 0.75795 0.74298 0.74938
 C7 C 0.72808 0.24838 0.26043
 C8 C 0.24729 0.74581 0.24241
 O9 O 1.09571 0.04628 0.09706
 O10 O 0.88611 -0.01994 0.08552
 O11 O 0.94664 0.11337 0.08590
 O12 O 1.02623 -0.10627 0.08212
 O13 O 0.86637 0.08314 0.03970
 O14 O 1.11120 -0.06358 0.05650
 O15 O 0.92130 -0.11052 0.05628
 O16 O 1.05314 0.13105 0.06382
 C17 C 1.08353 0.10393 0.10550
 C18 C 0.89116 -0.07782 0.09460
 C19 C 0.88946 0.11003 0.08478
 C20 C 1.08294 -0.10099 0.08946
 O21 O 1.11114 -0.02630 -0.05715
 O22 O 0.88968 0.03214 -0.07076
 O23 O 1.02558 0.11680 -0.05976
 O24 O 0.95343 -0.09708 -0.06794
 O25 O 0.87012 -0.07020 -0.02704
 O26 O 1.11047 0.08690 -0.01924
 O27 O 1.05945 -0.11018 -0.03684
 O28 O 0.91961 0.12377 -0.04036
 Co29 Co 1.09537 0.01105 0.01864
 Co30 Co 0.89121 0.00671 0.00767
 Co31 Co 0.98646 0.11051 0.01275
 Co32 Co 0.98961 -0.09513 0.00799
 O33 O 0.99196 0.00795 0.01169
 C34 C 1.10249 -0.08502 -0.06569
 C35 C 0.89222 0.08979 -0.08000
 C36 C 1.08270 0.11259 -0.06277
 C37 C 0.89620 -0.09570 -0.07131
 O38 O 1.12210 0.52225 0.56555
 O39 O 0.90791 0.46886 0.57665
 O40 O 0.97708 0.60988 0.56776
 O41 O 1.04590 0.38747 0.55885
 O42 O 0.89082 0.57694 0.53471
 O43 O 1.12869 0.41323 0.51839
 O44 O 0.93993 0.37932 0.53984
 O45 O 1.08210 0.61183 0.53896
 C46 C 1.11292 0.58031 0.57658
 C47 C 0.91465 0.41019 0.58275
 C48 C 0.92022 0.60775 0.57336
 C49 C 1.10280 0.38916 0.56268
 O50 O 1.10702 0.46529 0.40802
 O51 O 0.89481 0.53160 0.42318
 O52 O 1.04710 0.60367 0.41796
 O53 O 0.95966 0.39265 0.41442
 O54 O 0.88220 0.42521 0.46364
 O55 O 1.13189 0.56821 0.45314
 O56 O 1.06861 0.37639 0.43236
 O57 O 0.94241 0.61761 0.44803
 Co58 Co 1.11032 0.49228 0.48695
 Co59 Co 0.90639 0.50015 0.49948
 Co60 Co 1.01187 0.59979 0.49289
 Co61 Co 1.00426 0.39439 0.48661
 O62 O 1.00818 0.49675 0.49152
 C63 C 1.09701 0.40872 0.39399
 C64 C 0.90692 0.58812 0.41210
 C65 C 1.10409 0.59935 0.41369
 C66 C 0.90235 0.40010 0.41611
 O67 O 0.61823 0.05443 0.55026
 O68 O 0.37492 -0.07948 0.54430
 O69 O 0.42799 0.11359 0.55430
 O70 O 0.56342 -0.13618 0.54135
 O71 O 0.38310 0.02664 0.57418
 O72 O 0.59989 -0.05132 0.57848
 O73 O 0.46017 -0.11494 0.57980
 O74 O 0.53844 0.09676 0.59011
 C75 C 0.59629 0.09030 0.59048
 C76 C 0.40340 -0.10610 0.58688
 C77 C 0.38905 0.08417 0.58451
 C78 C 0.59846 -0.10994 0.57900
 O79 O 0.60943 -0.08655 0.45851
 O80 O 0.37921 0.06379 0.45775
 O81 O 0.57104 0.11060 0.47212
 O82 O 0.41922 -0.13183 0.46333
 O83 O 0.39266 -0.04596 0.42301
 O84 O 0.60016 0.02332 0.43098
 O85 O 0.52228 -0.11901 0.42608
 O86 O 0.46525 0.11004 0.43909
 Co87 Co 0.59536 -0.01491 0.50461
 Co88 Co 0.39379 -0.00921 0.49962
 Co89 Co 0.50024 0.09565 0.51374
 Co90 Co 0.49184 -0.11299 0.50332
 O91 O 0.49508 -0.00960 0.50553
 C92 C 0.57880 -0.11482 0.41826
 C93 C 0.40943 0.10128 0.42655
 C94 C 0.59436 0.08197 0.42773
 C95 C 0.39523 -0.10479 0.41911
 O96 O 0.60690 0.53270 0.07430
 O97 O 0.39608 0.46619 0.07127
 O98 O 0.47043 0.61918 0.06488
 O99 O 0.53544 0.39764 0.07424
 O100 O 0.38521 0.57487 0.03543
 O101 O 0.62132 0.42621 0.04159
 O102 O 0.43224 0.37936 0.03596
 O103 O 0.57770 0.62132 0.03857
 C104 C 0.60519 0.59113 0.07942
 C105 C 0.40416 0.40814 0.07778
 C106 C 0.41359 0.61123 0.07156
 C107 C 0.59157 0.40397 0.08393
 O108 O 0.60781 0.46269 -0.07713
 O109 O 0.39378 0.53387 -0.08031
 O110 O 0.54511 0.60254 -0.08386
 O111 O 0.47303 0.38922 -0.07986
 O112 O 0.38604 0.42576 -0.04871
 O113 O 0.62622 0.56904 -0.04127
 O114 O 0.57730 0.37566 -0.04246
 O115 O 0.43797 0.62090 -0.05235
 Co116 Co 0.60378 0.49763 -0.00133
 Co117 Co 0.40159 0.49985 -0.00519
 Co118 Co 0.50809 0.60440 -0.00838
 Co119 Co 0.50488 0.39718 -0.00305
 O120 O 0.50376 0.50022 -0.00433
 C121 C 0.60601 0.40438 -0.08215
 C122 C 0.40280 0.59141 -0.08836
 C123 C 0.60196 0.59299 -0.08690
 C124 C 0.41596 0.39358 -0.08731
 C125 C 1.14026 0.21628 0.25619
 C126 C 1.20102 0.23246 0.22672
 C127 C 1.20426 0.22046 0.16262
 C128 C 1.16449 0.18230 0.12781
 C129 C 1.11920 0.14414 0.15204
 C130 C 1.10662 0.15171 0.21534
 C131 C 1.09125 0.22090 0.36834
 C132 C 1.04064 0.16040 0.37704
 C133 C 1.02623 0.10645 0.32060
 C134 C 1.05510 0.10242 0.24846
 H135 H 1.10316 0.24919 0.40928
 H136 H 1.01919 0.15448 0.42098
 H137 H 0.99754 0.06750 0.33390
 H138 H 1.03800 0.06331 0.22017
 H139 H 1.24049 0.23982 0.13532
 H140 H 1.17304 0.17898 0.07907
 C141 C 1.13718 0.70864 0.69857
 C142 C 1.20358 0.71283 0.70155
 C143 C 1.23659 0.67704 0.65625
 C144 C 1.20737 0.63119 0.61882
 C145 C 1.14456 0.61692 0.62635
 C146 C 1.10954 0.65479 0.66823
 C147 C 1.09667 0.75564 0.72314
 C148 C 1.03373 0.74278 0.73118
 C149 C 1.00992 0.68374 0.71321
 C150 C 1.04714 0.64043 0.68066
 H151 H 1.11230 0.80309 0.73471
 H152 H 1.00367 0.77837 0.75225
 H153 H 0.96203 0.67248 0.72270
 H154 H 1.02753 0.59519 0.66615
 H155 H 1.28654 0.68093 0.65255
 H156 H 1.23437 0.60595 0.58433
 C157 C 0.72613 0.21023 0.63402
 C158 C 0.71606 0.22192 0.69848
 C159 C 0.66526 0.18834 0.72356
 C160 C 0.62534 0.14946 0.68812
 C161 C 0.64022 0.13183 0.62811
 C162 C 0.69652 0.15695 0.60395
 C163 C 0.76709 0.24587 0.59806
 C164 C 0.79141 0.22180 0.54371
 C165 C 0.77364 0.16232 0.52239
 C166 C 0.72543 0.13108 0.55082
 H167 H 0.77915 0.29340 0.60817
 H168 H 0.82455 0.24928 0.51845
 H169 H 0.79427 0.14208 0.48134
 H170 H 0.71347 0.08636 0.53012
 H171 H 0.65533 0.19328 0.77180
 H172 H 0.58465 0.12957 0.70916
 C173 C 0.74356 0.66401 0.16322
 C174 C 0.71290 0.71023 0.20288
 C175 C 0.64690 0.71321 0.19887
 C176 C 0.61321 0.67459 0.15873
 C177 C 0.64220 0.62539 0.12627
 C178 C 0.70721 0.61673 0.13217
 C179 C 0.80916 0.65711 0.16009
 C180 C 0.83738 0.60432 0.13207
 C181 C 0.80118 0.55481 0.10947
 C182 C 0.73682 0.56030 0.11105
 H183 H 0.84027 0.68898 0.18225
 H184 H 0.88763 0.59994 0.13175
 H185 H 0.82290 0.51127 0.09246
 H186 H 0.71095 0.51791 0.10115
 H187 H 0.61899 0.74469 0.22685
 H188 H 0.56327 0.68156 0.15486
 C189 C 0.75515 -0.14831 0.18161
 C190 C 0.78618 -0.19985 0.21385
 C191 C 0.85216 -0.20019 0.21160
 C192 C 0.88515 -0.15917 0.17472
 C193 C 0.85549 -0.11036 0.14299
 C194 C 0.79076 -0.10114 0.15106
 C195 C 0.68978 -0.13870 0.18275
 C196 C 0.66101 -0.08507 0.15860
 C197 C 0.69638 -0.03791 0.13342
 C198 C 0.76044 -0.04541 0.13013
 H199 H 0.65947 -0.16896 0.20604
 H200 H 0.61107 -0.07882 0.16203
 H201 H 0.67425 0.00524 0.11731
 H202 H 0.78534 -0.00509 0.11411
 H203 H 0.87990 -0.23426 0.23628
 H204 H 0.93501 -0.16568 0.17100
 C205 C 0.87734 0.28949 0.70891
 C206 C 0.81194 0.30189 0.71617
 C207 C 0.79105 0.36196 0.69386
 C208 C 0.82707 0.39846 0.65514
 C209 C 0.88431 0.37563 0.63370
 C210 C 0.90994 0.32017 0.66115
 C211 C 0.91362 0.25306 0.74997
 C212 C 0.97489 0.23634 0.73724
 C213 C 1.00143 0.25538 0.68337
 C214 C 0.96930 0.29663 0.64568
 H215 H 0.89728 0.23967 0.79401
 H216 H 1.00149 0.20848 0.76932
 H217 H 1.04821 0.24131 0.67168
 H218 H 0.99256 0.31006 0.60555
 H219 H 0.74384 0.37846 0.70076
 H220 H 0.80688 0.44166 0.63689
 C221 C 0.35899 -0.21956 0.71269
 C222 C 0.29176 -0.21198 0.71536
 C223 C 0.26584 -0.16777 0.67423
 C224 C 0.30235 -0.13294 0.63473
 C225 C 0.36758 -0.13476 0.63793
 C226 C 0.39563 -0.17297 0.68295
 C227 C 0.39221 -0.27440 0.73112
 C228 C 0.45672 -0.27418 0.73864
 C229 C 0.49020 -0.22028 0.72440
 C230 C 0.46023 -0.17041 0.69517
 H231 H 0.37047 -0.31960 0.73462
 H232 H 0.48057 -0.31636 0.75456
 H233 H 0.53988 -0.21864 0.73202
 H234 H 0.48812 -0.13045 0.68191
 H235 H 0.21576 -0.16241 0.67052
 H236 H 0.27879 -0.10520 0.60027
 C237 C 0.35067 0.27035 0.17641
 C238 C 0.30010 0.29914 0.20960
 C239 C 0.28076 0.36001 0.19013
 C240 C 0.31685 0.39589 0.15081
 C241 C 0.37289 0.37182 0.12692
 C242 C 0.39113 0.30858 0.14206
 C243 C 0.35914 0.20346 0.17146
 C244 C 0.41361 0.17651 0.14843
 C245 C 0.45945 0.21576 0.12676
 C246 C 0.44776 0.28082 0.12246
 H247 H 0.32233 0.17137 0.18167
 H248 H 0.42003 0.12523 0.14722
 H249 H 0.50296 0.19565 0.11060
 H250 H 0.48429 0.30876 0.10529
 H251 H 0.23652 0.37993 0.20419
 H252 H 0.29946 0.44218 0.13726
 C253 C 0.82754 0.14788 -0.23450
 C254 C 0.78919 0.20063 -0.21290
 C255 C 0.77209 0.19680 -0.15059
 C256 C 0.80678 0.16208 -0.10881
 C257 C 0.85280 0.11955 -0.12812
 C258 C 0.85741 0.10607 -0.19148
 C259 C 0.84028 0.13700 -0.29684
 C260 C 0.87270 0.08290 -0.31712
 C261 C 0.89639 0.03980 -0.27543
 C262 C 0.89150 0.05263 -0.21303
 H263 H 0.82791 0.17087 -0.33041
 H264 H 0.88020 0.07488 -0.36549
 H265 H 0.92084 -0.00255 -0.29153
 H266 H 0.91338 0.01961 -0.18206
 H267 H 0.73291 0.22259 -0.13185
 H268 H 0.79657 0.16765 -0.06060
 C269 C 0.78333 0.63325 0.29572
 C270 C 0.78971 0.70209 0.29360
 C271 C 0.83391 0.72859 0.33455
 C272 C 0.87319 0.69128 0.36988
 C273 C 0.87295 0.62461 0.36449
 C274 C 0.83240 0.59604 0.32127
 C275 C 0.73006 0.59863 0.27623
 C276 C 0.73391 0.53333 0.26278
 C277 C 0.78969 0.50086 0.27201
 C278 C 0.83794 0.53114 0.30388
 H279 H 0.68549 0.62083 0.26919
 H280 H 0.69408 0.50837 0.24361
 H281 H 0.79386 0.45105 0.25859
 H282 H 0.87908 0.50356 0.31516
 H283 H 0.83812 0.77903 0.34098
 H284 H 0.90350 0.71546 0.40258
 C285 C 0.35562 0.24483 0.33615
 C286 C 0.31147 0.21732 0.29336
 C287 C 0.30821 0.14980 0.29118
 C288 C 0.34202 0.11237 0.33280
 C289 C 0.37692 0.14092 0.38048
 C290 C 0.37997 0.20786 0.38429
 C291 C 0.37232 0.30975 0.33573
 C292 C 0.40073 0.33965 0.38606
 C293 C 0.41426 0.30488 0.43771
 C294 C 0.40396 0.23947 0.43685
 H295 H 0.36481 0.33782 0.29623
 H296 H 0.41143 0.38997 0.38510
 H297 H 0.43356 0.32829 0.47808
 H298 H 0.41171 0.21425 0.47842
 H299 H 0.27589 0.12601 0.26021
 H300 H 0.33806 0.06093 0.32984
 C301 C 0.28304 0.62988 -0.21113
 C302 C 0.27820 0.69898 -0.20429
 C303 C 0.31420 0.72753 -0.15680
 C304 C 0.35432 0.69238 -0.12054
 C305 C 0.36512 0.62757 -0.13286
 C306 C 0.33394 0.59791 -0.18247
 C307 C 0.24181 0.59014 -0.24514
 C308 C 0.25968 0.52932 -0.26546
 C309 C 0.31770 0.50533 -0.24941
 C310 C 0.35357 0.53790 -0.20583
 H311 H 0.19550 0.60414 -0.25708
 H312 H 0.22879 0.50132 -0.29459
 H313 H 0.33314 0.45959 -0.26768
 H314 H 0.39691 0.51618 -0.19117
 H315 H 0.31248 0.77857 -0.14832
 H316 H 0.37807 0.71683 -0.08308
 C317 C 1.16534 -0.23493 -0.15295
 C318 C 1.20365 -0.20833 -0.19975
 C319 C 1.21171 -0.14091 -0.19503
 C320 C 1.18003 -0.10203 -0.15180
 C321 C 1.14225 -0.12780 -0.10714
 C322 C 1.14125 -0.19569 -0.10389
 C323 C 1.15131 -0.30056 -0.15240
 C324 C 1.12337 -0.32849 -0.10281
 C325 C 1.10950 -0.29182 -0.05146
 C326 C 1.11895 -0.22634 -0.05147
 H327 H 1.16107 -0.33121 -0.19029
 H328 H 1.11426 -0.37921 -0.10360
 H329 H 1.09095 -0.31420 -0.01168
 H330 H 1.11094 -0.20091 -0.00894
 H331 H 1.24304 -0.11637 -0.22429
 H332 H 1.18646 -0.05101 -0.15196
 C333 C 1.18803 0.27009 0.34199
 C334 C 1.23698 0.30054 0.31294
 C335 C 1.24239 0.36754 0.31814
 C336 C 1.19257 0.40507 0.33649
 C337 C 1.13328 0.37900 0.34229
 C338 C 1.12658 0.31476 0.32118
 C339 C 1.19252 0.18804 0.34761
 C340 C 1.13302 0.14034 0.32072
 C341 C 1.04292 0.21185 0.28154
 C342 C 1.05996 0.28980 0.28949
 H343 H 1.23083 0.16653 0.37187
 H344 H 1.13807 0.08866 0.32420
 H345 H 0.99710 0.20011 0.26238
 H346 H 1.02533 0.32486 0.27687
 H347 H 1.28300 0.39292 0.30426
 H348 H 1.20111 0.45499 0.34699
 C349 C 0.71397 -0.14833 0.31810
 C350 C 0.70829 -0.21463 0.30226
 C351 C 0.66076 -0.24763 0.33268
 C352 C 0.61478 -0.21506 0.36632
 C353 C 0.61310 -0.14830 0.36855
 C354 C 0.66085 -0.11528 0.33953
 C355 C 0.76911 -0.11240 0.31280
 C356 C 0.76728 -0.04628 0.31417
 C357 C 0.71108 -0.01444 0.32072
 C358 C 0.65791 -0.04907 0.33331
 H359 H 0.81406 -0.13323 0.30556
 H360 H 0.80931 -0.02027 0.30758
 H361 H 0.70967 0.03678 0.31762
 H362 H 0.61382 -0.02547 0.33715
 H363 H 0.65801 -0.29883 0.32944
 H364 H 0.58139 -0.24212 0.39164
 C365 C 0.75056 0.33512 -0.15708
 C366 C 0.72414 0.30561 -0.21130
 C367 C 0.66157 0.32211 -0.22533
 C368 C 0.62394 0.35427 -0.18324
 C369 C 0.64683 0.37032 -0.12527
 C370 C 0.71018 0.35931 -0.11114
 C371 C 0.81523 0.33670 -0.14452
 C372 C 0.83851 0.35309 -0.08676
 C373 C 0.79786 0.36781 -0.03976
 C374 C 0.73428 0.37072 -0.05178
 H375 H 0.84887 0.32648 -0.17847
 H376 H 0.88823 0.35285 -0.07818
 H377 H 0.81556 0.37783 0.00589
 H378 H 0.70424 0.38016 -0.01393
 H379 H 0.64077 0.31021 -0.26920
 H380 H 0.57612 0.36535 -0.19553
 C381 C 1.13998 0.17294 -0.21834
 C382 C 1.19221 0.21113 -0.19827
 C383 C 1.20014 0.21874 -0.13387
 C384 C 1.16425 0.18702 -0.09214
 C385 C 1.11718 0.14601 -0.11109
 C386 C 1.10456 0.13834 -0.17451
 C387 C 1.12726 0.16097 -0.28102
 C388 C 1.08409 0.11538 -0.30016
 C389 C 1.05196 0.08077 -0.25765
 C390 C 1.06099 0.09265 -0.19549
 H391 H 1.15325 0.18260 -0.31647
 H392 H 1.07692 0.10556 -0.34844
 H393 H 1.02095 0.04348 -0.27306
 H394 H 1.03538 0.06378 -0.16422
 H395 H 1.23464 0.24971 -0.11341
 H396 H 1.17375 0.19469 -0.04382
 C397 C 1.16056 0.73861 0.32253
 C398 C 1.19907 0.70806 0.27666
 C399 C 1.18831 0.64121 0.27018
 C400 C 1.15866 0.60661 0.31521
 C401 C 1.13819 0.63669 0.36872
 C402 C 1.14112 0.70356 0.37346
 C403 C 1.13888 0.80220 0.31918
 C404 C 1.11440 0.83387 0.37038
 C405 C 1.10978 0.80210 0.42524
 C406 C 1.12277 0.73696 0.42676
 H407 H 1.13960 0.82782 0.27722
 H408 H 1.10030 0.88342 0.36773
 H409 H 1.09383 0.82725 0.46590
 H410 H 1.11893 0.71275 0.46949
 H411 H 1.20044 0.61345 0.23040
 H412 H 1.15184 0.55583 0.30815
 C413 C 0.64777 0.15365 0.27636
 C414 C 0.69129 0.20041 0.30049
 C415 C 0.69984 0.20252 0.36461
 C416 C 0.66700 0.16465 0.40298
 C417 C 0.62558 0.11939 0.38090
 C418 C 0.61303 0.11533 0.31750
 C419 C 0.63237 0.14880 0.21356
 C420 C 0.58619 0.10757 0.19186
 C421 C 0.55192 0.07211 0.23224
 C422 C 0.56425 0.07682 0.29463
 H423 H 0.65274 0.17884 0.18058
 H424 H 0.57549 0.10476 0.14347
 H425 H 0.51488 0.04166 0.21522
 H426 H 0.53509 0.05031 0.32493
 H427 H 0.73283 0.23350 0.38736
 H428 H 0.67347 0.17176 0.45143
 C429 C 0.74607 0.65050 -0.16933
 C430 C 0.71900 0.69454 -0.21185
 C431 C 0.65282 0.69398 -0.21691
 C432 C 0.61549 0.65978 -0.17812
 C433 C 0.64155 0.61785 -0.13674
 C434 C 0.70683 0.60717 -0.13867
 C435 C 0.81111 0.64425 -0.15933
 C436 C 0.83647 0.59351 -0.12715
 C437 C 0.79801 0.54624 -0.10613
 C438 C 0.73394 0.55246 -0.11308
 H439 H 0.84401 0.67442 -0.17991
 H440 H 0.88646 0.58880 -0.12200
 H441 H 0.81783 0.50421 -0.08538
 H442 H 0.70585 0.51241 -0.10227
 H443 H 0.62790 0.72478 -0.24734
 H444 H 0.56570 0.66775 -0.17938
 C445 C 0.76015 -0.16828 -0.16140
 C446 C 0.79203 -0.21185 -0.20228
 C447 C 0.85831 -0.21183 -0.19851
 C448 C 0.89107 -0.17344 -0.15745
 C449 C 0.86042 -0.12857 -0.12100
 C450 C 0.79514 -0.12150 -0.12804
 C451 C 0.69442 -0.16474 -0.15699
 C452 C 0.66474 -0.11369 -0.12740
 C453 C 0.69951 -0.06330 -0.10403
 C454 C 0.76406 -0.06662 -0.10581
 H455 H 0.66436 -0.19747 -0.17992
 H456 H 0.61440 -0.11122 -0.12641
 H457 H 0.67652 -0.02105 -0.08570
 H458 H 0.78957 -0.02437 -0.09412
 H459 H 0.88691 -0.24358 -0.22579
 H460 H 0.94113 -0.17943 -0.15404
 C461 C 0.75084 0.34207 0.34190
 C462 C 0.77321 0.29367 0.29971
 C463 C 0.83861 0.29349 0.28950
 C464 C 0.87983 0.32831 0.32638
 C465 C 0.85821 0.37265 0.36938
 C466 C 0.79318 0.38495 0.37119
 C467 C 0.68737 0.34967 0.35643
 C468 C 0.66486 0.40237 0.38910
 C469 C 0.70557 0.44944 0.40842
 C470 C 0.76894 0.44059 0.39951
 H471 H 0.65475 0.31410 0.34536
 H472 H 0.61559 0.40718 0.39820
 H473 H 0.68827 0.49265 0.43048
 H474 H 0.79825 0.48010 0.40967
 H475 H 0.86020 0.26539 0.25382
 H476 H 0.92918 0.32010 0.32130
 C477 C 0.32834 -0.24647 0.32955
 C478 C 0.28064 -0.21713 0.29273
 C479 C 0.26870 -0.15173 0.30807
 C480 C 0.30804 -0.11571 0.34568
 C481 C 0.36169 -0.14231 0.37092
 C482 C 0.37389 -0.20809 0.35976
 C483 C 0.33163 -0.31284 0.33912
 C484 C 0.38484 -0.34127 0.36360
 C485 C 0.43522 -0.30376 0.38060
 C486 C 0.42956 -0.23765 0.37926
 H487 H 0.29261 -0.34316 0.33036
 H488 H 0.38714 -0.39249 0.36865
 H489 H 0.47782 -0.32565 0.39709
 H490 H 0.46925 -0.21020 0.39262
 H491 H 0.22872 -0.12577 0.29233
 H492 H 0.29535 -0.06656 0.35612
 C493 C 0.34217 0.25173 -0.17053
 C494 C 0.29069 0.28174 -0.20277
 C495 C 0.28772 0.34885 -0.19820
 C496 C 0.32821 0.38338 -0.16024
 C497 C 0.38128 0.35552 -0.13450
 C498 C 0.39117 0.28941 -0.14426
 C499 C 0.34611 0.18518 -0.16220
 C500 C 0.39981 0.15603 -0.13970
 C501 C 0.45096 0.19268 -0.12350
 C502 C 0.44667 0.25881 -0.12507
 H503 H 0.30750 0.15495 -0.17138
 H504 H 0.40183 0.10471 -0.13542
 H505 H 0.49352 0.16996 -0.10796
 H506 H 0.48783 0.28492 -0.11241
 H507 H 0.25254 0.37614 -0.22127
 H508 H 0.31764 0.43293 -0.15042
 C509 C 1.16131 -0.24613 0.15971
 C510 C 1.21067 -0.21731 0.19546
 C511 C 1.21954 -0.15176 0.18388
 C512 C 1.17548 -0.11525 0.15353
 C513 C 1.11997 -0.14149 0.13139
 C514 C 1.11131 -0.20803 0.13676
 C515 C 1.16169 -0.31134 0.14296
 C516 C 1.10850 -0.34087 0.11940
 C517 C 1.05482 -0.30505 0.10937
 C518 C 1.05653 -0.23890 0.11639
 H519 H 1.20368 -0.33931 0.14573
 H520 H 1.10895 -0.39157 0.10902
 H521 H 1.01280 -0.32812 0.09290
 H522 H 1.01445 -0.21304 0.10646
 H523 H 1.25951 -0.12543 0.19880
 H524 H 1.18537 -0.06521 0.14709
 C525 C 1.15484 0.33216 0.72443
 C526 C 1.20401 0.28697 0.70912
 C527 C 1.21566 0.28005 0.64510
 C528 C 1.18506 0.31522 0.60028
 C529 C 1.13760 0.35810 0.61456
 C530 C 1.12207 0.36692 0.67720
 C531 C 1.13729 0.34490 0.78562
 C532 C 1.08950 0.38762 0.80025
 C533 C 1.05842 0.42045 0.75472
 C534 C 1.07495 0.41108 0.69401
 H535 H 1.16180 0.32486 0.82358
 H536 H 1.07736 0.39632 0.84757
 H537 H 1.02193 0.45425 0.76660
 H538 H 1.05057 0.43936 0.66059
 H539 H 1.24660 0.24461 0.62627
 H540 H 1.19679 0.30613 0.55283
 C541 C 0.68439 -0.25100 0.65149
 C542 C 0.71402 -0.21968 0.70336
 C543 C 0.70744 -0.15232 0.70713
 C544 C 0.66959 -0.11845 0.66760
 C545 C 0.64133 -0.14830 0.61743
 C546 C 0.65410 -0.21409 0.60568
 C547 C 0.68470 -0.31821 0.64293
 C548 C 0.66529 -0.34700 0.58824
 C549 C 0.64485 -0.30982 0.54045
 C550 C 0.63928 -0.24414 0.54879
 H551 H 0.69885 -0.34997 0.67818
 H552 H 0.66744 -0.39839 0.58255
 H553 H 0.63255 -0.33196 0.49690
 H554 H 0.62576 -0.21774 0.50908
 H555 H 0.73260 -0.12312 0.73960
 H556 H 0.66378 -0.06757 0.67568
 C557 C 0.61800 0.30938 0.22814
 C558 C 0.68487 0.29706 0.22407
 C559 C 0.71788 0.33834 0.18544
 C560 C 0.68804 0.37398 0.14093
 C561 C 0.62338 0.37880 0.13922
 C562 C 0.59022 0.35583 0.18890
 C563 C 0.57712 0.28216 0.27088
 C564 C 0.51688 0.30460 0.27941
 C565 C 0.49484 0.35617 0.24713
 C566 C 0.53081 0.38132 0.20187
 H567 H 0.58990 0.24819 0.30393
 H568 H 0.48899 0.28345 0.31407
 H569 H 0.44980 0.37696 0.25633
 H570 H 0.51219 0.42211 0.17818
 H571 H 0.76825 0.33673 0.18422
 H572 H 0.71596 0.39615 0.10651
 C573 C 0.81367 0.15784 0.23626
 C574 C 0.76842 0.20445 0.21560
 C575 C 0.76151 0.20947 0.15133
 C576 C 0.80194 0.18002 0.11069
 C577 C 0.84899 0.13980 0.13104
 C578 C 0.85174 0.12400 0.19299
 C579 C 0.82463 0.14522 0.29866
 C580 C 0.86287 0.09502 0.31675
 C581 C 0.89329 0.05751 0.27326
 C582 C 0.89046 0.07364 0.21236
 H583 H 0.80593 0.17431 0.33459
 H584 H 0.86845 0.08479 0.36475
 H585 H 0.92020 0.01623 0.28678
 H586 H 0.91781 0.04528 0.18065
 H587 H 0.72443 0.23621 0.13023
 H588 H 0.79598 0.18853 0.06230
 C589 C 0.84293 0.74494 0.66257
 C590 C 0.80718 0.70953 0.70578
 C591 C 0.81353 0.64216 0.70284
 C592 C 0.85344 0.61123 0.66257
 C593 C 0.88584 0.64502 0.61957
 C594 C 0.87766 0.71171 0.61664
 C595 C 0.84419 0.81257 0.66232
 C596 C 0.87187 0.84545 0.61530
 C597 C 0.89856 0.81208 0.56682
 C598 C 0.90114 0.74585 0.56732
 H599 H 0.82504 0.84159 0.69837
 H600 H 0.87136 0.89710 0.61592
 H601 H 0.91759 0.83751 0.52887
 H602 H 0.91923 0.72147 0.52774
 H603 H 0.78550 0.61105 0.72932
 H604 H 0.85648 0.55960 0.66293
 C605 C 0.27182 0.12394 0.71203
 C606 C 0.28217 0.19146 0.72078
 C607 C 0.33446 0.21617 0.69030
 C608 C 0.36846 0.18029 0.64836
 C609 C 0.35024 0.11871 0.63080
 C610 C 0.29826 0.09173 0.66025
 C611 C 0.23879 0.08533 0.75263
 C612 C 0.21426 0.02710 0.73319
 C613 C 0.22739 0.00323 0.67547
 C614 C 0.27101 0.03370 0.64017
 H615 H 0.22982 0.09898 0.79921
 H616 H 0.18285 0.00187 0.76190
 H617 H 0.20531 -0.04008 0.65901
 H618 H 0.28064 0.01221 0.59658
 H619 H 0.34733 0.26575 0.69623
 H620 H 0.40798 0.20256 0.62738
 C621 C 0.34142 0.74678 0.16807
 C622 C 0.29870 0.71218 0.20622
 C623 C 0.31068 0.64521 0.20651
 C624 C 0.34788 0.61407 0.16324
 C625 C 0.37749 0.64762 0.11802
 C626 C 0.37333 0.71458 0.11934
 C627 C 0.35754 0.81145 0.17845
 C628 C 0.38978 0.84586 0.13529
 C629 C 0.40916 0.81605 0.08158
 C630 C 0.40181 0.75058 0.07393
 H631 H 0.34878 0.83611 0.22072
 H632 H 0.39972 0.89584 0.14369
 H633 H 0.43248 0.84305 0.04713
 H634 H 0.41867 0.72831 0.03256
 H635 H 0.29515 0.61437 0.24127
 H636 H 0.35370 0.56274 0.16529
   
