data_POSCAR
  _audit_creation_date              2014-09-24
  _audit_creation_method            'ToBaCCo'
  _symmetry_space_group_name_H-M    'P1'
  _symmetry_Int_Tables_number       1
  _symmetry_cell_setting            triclinic
  loop_
  _symmetry_equiv_pos_as_xyz
 x,y,z
_cell_length_a 21.8391
_cell_length_b 15.4755
_cell_length_c 20.4391
_cell_angle_alpha 90.099500
_cell_angle_beta 90.152700
_cell_angle_gamma 91.536800
loop_
  _atom_site_label
  _atom_site_type_symbol
  _atom_site_fract_x
  _atom_site_fract_y
  _atom_site_fract_z
C1 C 0.21609 0.15835 0.23681
 C2 C 0.19997 0.23681 0.20529
 C3 C 0.22952 0.31467 0.22375
 C4 C 0.27021 0.31926 0.27686
 C5 C 0.28086 0.24325 0.31376
 C6 C 0.25681 0.16366 0.29048
 H7 H 0.26846 0.10535 0.31622
 H8 H 0.21937 0.37312 0.19718
 C9 C 0.78265 0.24734 0.19323
 C10 C 0.78029 0.17212 0.23327
 C11 C 0.74916 0.17535 0.29320
 C12 C 0.72189 0.25109 0.31515
 C13 C 0.72559 0.32666 0.27614
 C14 C 0.75758 0.32409 0.21684
 H15 H 0.75828 0.38090 0.18586
 H16 H 0.74804 0.11911 0.32475
 C17 C 0.72214 0.75121 0.68593
 C18 C 0.72570 0.82707 0.72481
 C19 C 0.75730 0.82489 0.78456
 C20 C 0.78190 0.74814 0.80878
 C21 C 0.77913 0.67240 0.76908
 C22 C 0.74862 0.67539 0.70864
 H23 H 0.74743 0.61880 0.67728
 H24 H 0.75810 0.88205 0.81531
 C25 C 0.27162 0.81569 0.72536
 C26 C 0.27863 0.74039 0.68681
 C27 C 0.25091 0.66214 0.70694
 C28 C 0.21176 0.65721 0.76160
 C29 C 0.19914 0.73548 0.79543
 C30 C 0.23148 0.81195 0.77885
 H31 H 0.22346 0.87009 0.80675
 H32 H 0.26033 0.60467 0.67891
 O33 O 1.06495 -0.01678 0.08053
 O34 O 0.93032 -0.10014 -0.01179
 O35 O 0.94668 0.00165 0.09020
 O36 O 1.04705 -0.10055 -0.02877
 O37 O 1.04216 -0.22182 0.02832
 O38 O 0.94103 -0.11844 0.14837
 O39 O 0.92818 -0.21807 0.04924
 O40 O 1.06191 -0.13521 0.14058
 Cu41 Cu 0.99755 -0.04168 0.02722
 Cu42 Cu 0.99465 -0.18437 0.09869
 C43 C 1.08594 -0.06210 0.12684
 C44 C 0.90738 -0.17442 0.00219
 C45 C 0.92542 -0.04097 0.13831
 C46 C 1.05924 -0.17952 -0.02207
 O47 O 0.55700 0.50018 0.41417
 O48 O 0.43995 0.59887 0.51610
 O49 O 0.43958 0.50176 0.41116
 O50 O 0.55913 0.60268 0.51481
 O51 O 0.56122 0.71739 0.45053
 O52 O 0.43961 0.61743 0.34785
 O53 O 0.44129 0.71398 0.45228
 O54 O 0.56016 0.61526 0.35020
 Cu55 Cu 0.49852 0.53946 0.47062
 Cu56 Cu 0.50060 0.67760 0.39368
 C57 C 0.57882 0.54079 0.36535
 C58 C 0.42059 0.67304 0.50171
 C59 C 0.41933 0.54221 0.36200
 C60 C 0.58100 0.67691 0.49986
 O61 O -0.05509 0.50007 -0.08763
 O62 O 0.04725 0.39766 0.02942
 O63 O 0.06303 0.48169 -0.08008
 O64 O -0.06989 0.39771 0.01371
 O65 O -0.07296 0.27990 -0.04778
 O66 O 0.05912 0.36322 -0.14041
 O67 O 0.04107 0.27634 -0.02785
 O68 O -0.06179 0.38008 -0.14623
 Cu69 Cu -0.00322 0.45645 -0.02569
 Cu70 Cu -0.00731 0.31393 -0.09771
 C71 C -0.07708 0.45761 -0.13568
 C72 C 0.05904 0.31859 0.02245
 C73 C 0.08305 0.43661 -0.12703
 C74 C -0.09308 0.32348 -0.00037
 O75 O 0.44054 1.21305 0.54836
 O76 O 0.55989 1.11421 0.64958
 O77 O 0.56027 1.21589 0.54938
 O78 O 0.43937 1.11388 0.65114
 O79 O 0.43945 0.99880 0.58694
 O80 O 0.55776 1.10211 0.48387
 O81 O 0.55700 0.99983 0.58458
 O82 O 0.43827 1.09840 0.48378
 Cu83 Cu 0.50000 1.17575 0.60626
 Cu84 Cu 0.49777 1.03842 0.52810
 C85 C 0.41922 1.17259 0.49881
 C86 C 0.57884 1.04017 0.63381
 C87 C 0.57972 1.17614 0.49953
 C88 C 0.41930 1.03859 0.63642
 N89 N 1.14834 -0.05518 0.22841
 N90 N 1.18386 0.00864 0.25992
 C91 C 1.19155 0.07591 0.21823
 C92 C 1.16486 0.05288 0.15842
 C93 C 1.13585 -0.02657 0.16791
 H94 H 1.16264 0.09084 0.11420
 H95 H 1.12846 -0.10910 0.25150
 H96 H 1.19377 0.00748 0.30989
 N97 N 0.66159 0.78940 0.52523
 N98 N 0.69965 0.80845 0.57387
 C99 C 0.69208 0.74841 0.62107
 C100 C 0.64843 0.68745 0.60105
 C101 C 0.62972 0.71645 0.54044
 H102 H 0.63069 0.63228 0.62818
 H103 H 0.65714 0.82647 0.48292
 H104 H 0.72923 0.86260 0.57509
 N105 N -0.16490 0.20408 0.03126
 N106 N -0.19819 0.18113 0.08693
 C107 C -0.19351 0.24775 0.12942
 C108 C -0.15966 0.31520 0.10103
 C109 C -0.14119 0.28436 0.04079
 H110 H -0.14499 0.37539 0.12399
 H111 H -0.15628 0.16266 -0.00785
 H112 H -0.22228 0.12251 0.09308
 N113 N 0.32351 1.03705 0.70225
 N114 N 0.28363 0.97798 0.72386
 C115 C 0.30535 0.89864 0.71161
 C116 C 0.36231 0.90844 0.68231
 C117 C 0.37127 0.99656 0.67587
 H118 H 0.39264 0.85887 0.66575
 H119 H 0.31634 1.10351 0.70236
 H120 H 0.24113 0.99235 0.74381
 N121 N -0.16845 0.45498 -0.20885
 N122 N -0.20754 0.51147 -0.23162
 C123 C -0.18767 0.59200 -0.21513
 C124 C -0.13244 0.58598 -0.18184
 C125 C -0.12278 0.49821 -0.17759
 H126 H -0.10414 0.63771 -0.16124
 H127 H -0.17483 0.38795 -0.21182
 H128 H -0.24832 0.49446 -0.25576
 N129 N 0.34881 1.29054 0.47022
 N130 N 0.31042 1.31046 0.41809
 C131 C 0.31222 1.24504 0.37434
 C132 C 0.34963 1.18109 0.39888
 C133 C 0.37256 1.21293 0.45783
 H134 H 0.36189 1.12147 0.37509
 H135 H 0.35815 1.33075 0.51031
 H136 H 0.28387 1.36550 0.41578
 N137 N 1.05532 -0.27370 -0.11919
 N138 N 1.09082 -0.29250 -0.16908
 C139 C 1.14703 -0.25681 -0.15861
 C140 C 1.14641 -0.21008 -0.10052
 C141 C 1.08770 -0.22418 -0.07665
 H142 H 1.18295 -0.17053 -0.07928
 H143 H 1.00891 -0.29135 -0.11590
 H144 H 1.07629 -0.32810 -0.21000
 N145 N 0.67353 0.54425 0.29765
 N146 N 0.71333 0.48774 0.27646
 C147 C 0.69315 0.40726 0.29246
 C148 C 0.63735 0.41332 0.32406
 C149 C 0.62728 0.50086 0.32737
 H150 H 0.60790 0.36181 0.34272
 H151 H 0.67941 0.61128 0.29408
 H152 H 0.75439 0.50468 0.25310
 N153 N 0.83474 -0.29350 -0.02889
 N154 N 0.80108 -0.31684 -0.08448
 C155 C 0.80585 -0.25079 -0.12728
 C156 C 0.84011 -0.18327 -0.09912
 C157 C 0.85875 -0.21353 -0.03872
 H158 H 0.85499 -0.12352 -0.12236
 H159 H 0.84339 -0.33455 0.01038
 H160 H 0.77669 -0.37532 -0.09037
 N161 N 0.32067 0.54104 0.30086
 N162 N 0.28024 0.48167 0.28049
 C163 C 0.30395 0.40275 0.28888
 C164 C 0.36283 0.41309 0.31370
 C165 C 0.37080 0.50104 0.32239
 H166 H 0.39435 0.36350 0.32756
 H167 H 0.31226 0.60704 0.30399
 H168 H 0.23605 0.49525 0.26460
 N169 N 0.14236 0.44449 -0.23028
 N170 N 0.17710 0.50840 -0.26228
 C171 C 0.18604 0.57540 -0.22036
 C172 C 0.16065 0.55228 -0.16012
 C173 C 0.13152 0.47279 -0.16931
 H174 H 0.15969 0.58996 -0.11560
 H175 H 0.12205 0.39049 -0.25313
 H176 H 0.18616 0.50711 -0.31237
 N177 N 0.65970 1.28955 0.47491
 N178 N 0.69799 1.30880 0.42677
 C179 C 0.69100 1.24854 0.37943
 C180 C 0.64745 1.18730 0.39885
 C181 C 0.62822 1.21630 0.45927
 H182 H 0.63026 1.13173 0.37155
 H183 H 0.65492 1.32663 0.51725
 H184 H 0.72744 1.36309 0.42603
 N185 N 0.05665 0.22240 0.11830
 N186 N 0.09229 0.20454 0.16846
 C187 C 0.14780 0.24273 0.15899
 C188 C 0.14645 0.29016 0.10139
 C189 C 0.08819 0.27384 0.07663
 H190 H 0.18223 0.33165 0.08107
 H191 H 0.01061 0.20291 0.11431
 H192 H 0.07833 0.16783 0.20886
 N193 N 0.67355 1.04430 0.70206
 N194 N 0.71331 0.98811 0.72390
 C195 C 0.69337 0.90746 0.70777
 C196 C 0.63778 0.91310 0.67533
 C197 C 0.62760 1.00055 0.67174
 H198 H 0.60843 0.86136 0.65653
 H199 H 0.67918 1.11137 0.70579
 H200 H 0.75412 1.00535 0.74790
 N201 N 0.83486 -0.04448 0.21215
 N202 N 0.79539 0.01150 0.23486
 C203 C 0.81446 0.09221 0.21822
 C204 C 0.86962 0.08684 0.18494
 C205 C 0.88001 -0.00077 0.18076
 H206 H 0.89729 0.13882 0.16407
 H207 H 0.82896 -0.11157 0.21506
 H208 H 0.75481 -0.00605 0.25889
 N209 N 0.34357 0.78402 0.52815
 N210 N 0.30579 0.80131 0.57658
 C211 C 0.31197 0.74123 0.62371
 C212 C 0.35442 0.68186 0.60361
 C213 C 0.37378 0.71190 0.54311
 H214 H 0.37024 0.62617 0.63009
 H215 H 0.34841 0.82116 0.48577
 H216 H 0.27662 0.85370 0.57731
   
