data_POSCAR
  _audit_creation_date              2014-09-24
  _audit_creation_method            'ToBaCCo'
  _symmetry_space_group_name_H-M    'P1'
  _symmetry_Int_Tables_number       1
  _symmetry_cell_setting            triclinic
  loop_
  _symmetry_equiv_pos_as_xyz
 x,y,z
_cell_length_a 26.2730
_cell_length_b 26.3610
_cell_length_c 21.9229
_cell_angle_alpha 89.754400
_cell_angle_beta 89.971200
_cell_angle_gamma 97.063500
loop_
  _atom_site_label
  _atom_site_type_symbol
  _atom_site_fract_x
  _atom_site_fract_y
  _atom_site_fract_z
O1 O -0.04651 0.33105 0.04891
 O2 O 0.05671 0.33156 -0.06492
 O3 O -0.04434 0.31591 -0.06806
 O4 O 0.05493 0.33899 0.05220
 O5 O 0.05215 0.25547 0.06446
 O6 O -0.04344 0.23269 -0.05660
 O7 O 0.05553 0.24815 -0.05374
 O8 O -0.04733 0.24771 0.06069
 Cu9 Cu 0.00510 0.33775 -0.00906
 Cu10 Cu 0.00406 0.23777 0.00506
 C11 C -0.06471 0.28928 0.07393
 C12 C 0.07408 0.29020 -0.07842
 C13 C -0.06053 0.27005 -0.08266
 C14 C 0.07077 0.30065 0.07818
 O15 O 0.45193 0.80586 0.56269
 O16 O 0.55886 0.81315 0.45300
 O17 O 0.45802 0.80357 0.44380
 O18 O 0.55160 0.80155 0.57023
 O19 O 0.54118 0.71709 0.56651
 O20 O 0.45245 0.71931 0.43968
 O21 O 0.55112 0.72882 0.44874
 O22 O 0.44412 0.72154 0.55861
 Cu23 Cu 0.50575 0.81449 0.50786
 Cu24 Cu 0.49632 0.71347 0.50288
 C25 C 0.43004 0.76252 0.57964
 C26 C 0.57335 0.77243 0.43243
 C27 C 0.43970 0.76111 0.42019
 C28 C 0.56203 0.75835 0.58953
 O29 O 0.94436 0.71360 -0.05713
 O30 O 1.04686 0.71652 0.05930
 O31 O 0.94650 0.71221 0.06107
 O32 O 1.04478 0.71758 -0.06002
 O33 O 1.05093 0.80187 -0.05895
 O34 O 0.95418 0.79664 0.06225
 O35 O 1.05262 0.80084 0.06031
 O36 O 0.95287 0.79800 -0.05661
 Cu37 Cu 0.99509 0.70640 0.00072
 Cu38 Cu 1.00345 0.80773 0.00189
 C39 C 0.93138 0.75566 -0.07673
 C40 C 1.06670 0.75947 0.07994
 C41 C 0.93359 0.75367 0.08200
 C42 C 1.06426 0.76089 -0.08046
 O43 O 0.54563 0.18670 0.55641
 O44 O 0.44398 0.17239 0.43875
 O45 O 0.54509 0.18599 0.43710
 O46 O 0.44477 0.17640 0.55592
 O47 O 0.44572 0.26030 0.55248
 O48 O 0.54527 0.26980 0.43457
 O49 O 0.44594 0.25638 0.43459
 O50 O 0.54483 0.27037 0.55403
 Cu51 Cu 0.49518 0.17190 0.49724
 Cu52 Cu 0.49578 0.27259 0.49354
 C53 C 0.56203 0.23111 0.57570
 C54 C 0.42726 0.21200 0.41736
 C55 C 0.56218 0.22971 0.41570
 C56 C 0.42775 0.21690 0.57370
 O57 O 0.68998 0.03924 -0.05646
 O58 O 0.66948 -0.06545 0.05657
 O59 O 0.69083 0.03465 0.06300
 O60 O 0.67638 -0.06152 -0.06039
 O61 O 0.76005 -0.06440 -0.05766
 O62 O 0.77427 0.03023 0.06417
 O63 O 0.75315 -0.06755 0.06041
 O64 O 0.77329 0.03438 -0.05508
 Cu65 Cu 0.67327 -0.01244 0.00035
 Cu66 Cu 0.77348 -0.01704 0.00311
 C67 C 0.73501 0.05421 -0.07547
 C68 C 0.70793 -0.08454 0.07757
 C69 C 0.73531 0.04830 0.08479
 C70 C 0.71611 -0.07981 -0.07919
 O71 O 0.19617 0.54917 0.44566
 O72 O 0.19701 0.45307 0.57091
 O73 O 0.19949 0.55286 0.56467
 O74 O 0.18435 0.44826 0.45373
 O75 O 0.26860 0.45203 0.44622
 O76 O 0.28378 0.55781 0.55679
 O77 O 0.28152 0.46010 0.56387
 O78 O 0.28017 0.55077 0.43774
 Cu79 Cu 0.18579 0.50055 0.50939
 Cu80 Cu 0.28681 0.50568 0.50019
 C81 C 0.23866 0.56596 0.42035
 C82 C 0.24005 0.44078 0.58864
 C83 C 0.24398 0.57300 0.57991
 C84 C 0.22377 0.43192 0.43164
 O85 O 0.32713 0.96397 -0.05524
 O86 O 0.32491 1.06783 0.05381
 O87 O 0.31361 0.96641 0.06468
 O88 O 0.31043 1.06151 -0.06147
 O89 O 0.22599 1.04409 -0.06271
 O90 O 0.22889 0.95602 0.06352
 O91 O 0.24017 1.05633 0.05512
 O92 O 0.24258 0.95091 -0.05552
 Cu93 Cu 0.32687 1.01524 0.00067
 Cu94 Cu 0.22694 1.00059 0.00090
 C95 C 0.28579 0.94003 -0.07495
 C96 C 0.28276 1.08068 0.07226
 C97 C 0.27067 0.94572 0.08590
 C98 C 0.26664 1.06908 -0.08286
 O99 O 0.82529 0.54539 0.55421
 O100 O 0.81170 0.44025 0.44236
 O101 O 0.82304 0.54071 0.43652
 O102 O 0.80833 0.44487 0.56081
 O103 O 0.72462 0.44776 0.56006
 O104 O 0.73892 0.54067 0.43530
 O105 O 0.72788 0.44235 0.44120
 O106 O 0.74134 0.54645 0.55341
 Cu107 Cu 0.82558 0.49249 0.49866
 Cu108 Cu 0.72482 0.49427 0.49750
 C109 C 0.78570 0.56410 0.57237
 C110 C 0.76737 0.42368 0.42256
 C111 C 0.78314 0.55705 0.41508
 C112 C 0.76365 0.43015 0.58141
 O113 O 0.22661 0.17550 0.24083
 O114 O 0.22493 0.29382 0.32920
 O115 O 0.16593 0.24456 0.24700
 O116 O 0.28728 0.22427 0.32218
 O117 O 0.33079 0.27028 0.25058
 O118 O 0.20949 0.29032 0.17524
 O119 O 0.26966 0.33822 0.25725
 O120 O 0.27158 0.21998 0.16917
 Cu121 Cu 0.22190 0.23020 0.29229
 Cu122 Cu 0.27456 0.28394 0.20537
 C123 C 0.24906 0.17781 0.18952
 C124 C 0.24766 0.33586 0.30884
 C125 C 0.16715 0.27021 0.19781
 C126 C 0.32960 0.24484 0.29991
 O127 O 0.65672 0.71793 0.25447
 O128 O 0.76790 0.69966 0.15918
 O129 O 0.71916 0.65035 0.24911
 O130 O 0.70875 0.77179 0.16805
 O131 O 0.76133 0.81269 0.23521
 O132 O 0.77233 0.69229 0.31481
 O133 O 0.81963 0.74294 0.22536
 O134 O 0.70787 0.76027 0.32185
 Cu135 Cu 0.70780 0.70601 0.20085
 Cu136 Cu 0.77008 0.75627 0.28154
 C137 C 0.66334 0.74089 0.30501
 C138 C 0.81246 0.71884 0.17537
 C139 C 0.74765 0.65096 0.29594
 C140 C 0.73492 0.81253 0.18693
 O141 O 0.75687 0.31392 0.27786
 O142 O 0.71402 0.20686 0.17669
 O143 O 0.68062 0.24244 0.27837
 O144 O 0.79839 0.27002 0.18565
 O145 O 0.83537 0.21551 0.24240
 O146 O 0.71813 0.18661 0.33245
 O147 O 0.75419 0.15510 0.23378
 O148 O 0.79565 0.26274 0.33711
 Cu149 Cu 0.73372 0.26361 0.22377
 Cu150 Cu 0.78010 0.20168 0.29338
 C151 C 0.78201 0.30644 0.32565
 C152 C 0.72727 0.16306 0.18720
 C153 C 0.67964 0.20978 0.32148
 C154 C 0.83662 0.24620 0.19769
 O155 O 0.17403 0.76447 0.22801
 O156 O 0.28340 0.79853 0.33070
 O157 O 0.25163 0.83439 0.22879
 O158 O 0.20699 0.72501 0.32928
 O159 O 0.25340 0.67681 0.27571
 O160 O 0.29731 0.78571 0.17483
 O161 O 0.32883 0.74950 0.27688
 O162 O 0.21888 0.71458 0.17469
 Cu163 Cu 0.22424 0.78527 0.28465
 Cu164 Cu 0.27901 0.72661 0.22016
 C165 C 0.17813 0.73500 0.18308
 C166 C 0.32472 0.77947 0.32143
 C167 C 0.28148 0.82857 0.18432
 C168 C 0.22387 0.68247 0.32046
 O169 O 0.79191 0.27224 0.67446
 O170 O 0.75327 0.16438 0.77828
 O171 O 0.71686 0.19758 0.67524
 O172 O 0.82550 0.24007 0.77711
 O173 O 0.77683 0.28795 0.82801
 O174 O 0.66877 0.24628 0.72572
 O175 O 0.70319 0.21106 0.82873
 O176 O 0.74261 0.31940 0.72555
 Cu177 Cu 0.77651 0.21354 0.72110
 Cu178 Cu 0.71776 0.27056 0.78251
 C179 C 0.77353 0.31407 0.68211
 C180 C 0.72260 0.16963 0.82193
 C181 C 0.67482 0.21618 0.68195
 C182 C 0.81960 0.27125 0.81987
 O183 O 0.32128 0.76235 0.72705
 O184 O 0.20831 0.72019 0.82130
 O185 O 0.25045 0.68659 0.72328
 O186 O 0.27317 0.80284 0.81822
 O187 O 0.22091 0.84020 0.75854
 O188 O 0.19662 0.72451 0.66651
 O189 O 0.15989 0.76187 0.76119
 O190 O 0.27320 0.80207 0.66477
 Cu191 Cu 0.26844 0.73926 0.77864
 Cu192 Cu 0.21007 0.78668 0.70499
 C193 C 0.31606 0.78725 0.67839
 C194 C 0.16548 0.73519 0.80866
 C195 C 0.21971 0.68618 0.67841
 C196 C 0.24854 0.84036 0.80586
 O197 O 0.25306 0.33243 0.73274
 O198 O 0.29656 0.23185 0.83025
 O199 O 0.33124 0.28267 0.73412
 O200 O 0.21590 0.28245 0.82962
 O201 O 0.17468 0.22210 0.77220
 O202 O 0.28979 0.22253 0.67656
 O203 O 0.25344 0.17307 0.77233
 O204 O 0.21020 0.27360 0.67478
 Cu205 Cu 0.27807 0.28828 0.78794
 Cu206 Cu 0.22770 0.21712 0.71784
 C207 C 0.22529 0.32020 0.68639
 C208 C 0.28215 0.18527 0.81789
 C209 C 0.33005 0.25247 0.68915
 C210 C 0.17592 0.25192 0.81753
 O211 O 0.73249 0.78264 0.66574
 O212 O 0.83381 0.74855 0.76807
 O213 O 0.78538 0.70432 0.67323
 O214 O 0.78082 0.82327 0.75992
 O215 O 0.72176 0.78271 0.82043
 O216 O 0.72536 0.66457 0.73296
 O217 O 0.77560 0.70594 0.82794
 O218 O 0.67401 0.74184 0.72664
 Cu219 Cu 0.78911 0.76826 0.71015
 Cu220 Cu 0.71849 0.71942 0.78319
 C221 C 0.68592 0.76837 0.67907
 C222 C 0.82192 0.72291 0.81622
 C223 C 0.75543 0.66446 0.68774
 C224 C 0.75056 0.82302 0.80509
 C225 C 0.28413 0.12563 0.11177
 C226 C 0.24765 0.13116 0.15269
 H227 H 0.31711 0.15455 0.10800
 H228 H 0.21668 0.10061 0.16010
 C229 C 0.79155 0.60787 0.61434
 C230 C 0.75312 0.61796 0.65053
 H231 H 0.82783 0.63237 0.61506
 H232 H 0.71821 0.59140 0.65262
 C233 C 0.70028 0.87455 0.11859
 C234 C 0.73928 0.85934 0.15010
 H235 H 0.66188 0.85496 0.12503
 H236 H 0.77677 0.88173 0.14874
 C237 C 0.24367 0.40423 0.63868
 C238 C 0.21257 0.36028 0.64382
 H239 H 0.27761 0.41050 0.66709
 H240 H 0.18147 0.35137 0.61166
 C241 C 0.89249 0.28897 0.11738
 C242 C 0.88219 0.25128 0.15813
 H243 H 0.86894 0.31993 0.11542
 H244 H 0.90771 0.22209 0.16205
 C245 C 0.38847 0.75863 0.62502
 C246 C 0.35934 0.79604 0.63543
 H247 H 0.37983 0.72235 0.64864
 H248 H 0.36420 0.83072 0.60825
 C249 C 0.10601 0.76278 0.12785
 C250 C 0.13602 0.72626 0.13860
 H251 H 0.11270 0.79850 0.15263
 H252 H 0.13270 0.69214 0.11077
 C253 C 0.60106 0.23838 0.62410
 C254 C 0.63337 0.20426 0.63698
 H255 H 0.60536 0.27483 0.64746
 H256 H 0.63223 0.16948 0.61059
 C257 C 0.74392 0.09461 0.87790
 C258 C 0.71040 0.12778 0.86625
 H259 H 0.78056 0.09868 0.85449
 H260 H 0.67537 0.12646 0.89264
 C261 C 0.24184 0.60332 0.36997
 C262 C 0.21124 0.64012 0.36453
 H263 H 0.27496 0.60412 0.34030
 H264 H 0.18050 0.64230 0.39702
 C265 C 0.28835 0.90147 0.88201
 C266 C 0.24766 0.88273 0.84900
 H267 H 0.32505 0.88795 0.87347
 H268 H 0.21210 0.89950 0.85252
 C269 C 0.76061 0.38293 0.37673
 C270 C 0.79349 0.34840 0.36951
 H271 H 0.72548 0.37950 0.35030
 H272 H 0.82643 0.34858 0.39925
 C273 C 0.11475 0.29179 0.88033
 C274 C 0.13087 0.24953 0.85749
 H275 H 0.13354 0.32887 0.86598
 H276 H 0.10992 0.21224 0.86672
 C277 C 0.61702 0.77586 0.38998
 C278 C 0.61872 0.74186 0.34530
 H279 H 0.64756 0.80716 0.39485
 H280 H 0.58609 0.71312 0.33803
 C281 C 0.89354 0.75686 0.87902
 C282 C 0.86216 0.71587 0.86076
 H283 H 0.88798 0.79402 0.86039
 H284 H 0.86283 0.67890 0.88234
 C285 C 0.38383 0.20651 0.37457
 C286 C 0.37771 0.24290 0.33355
 H287 H 0.35526 0.17336 0.37896
 H288 H 0.40810 0.27413 0.32662
 C289 C 0.71112 0.87893 0.87564
 C290 C 0.75117 0.86947 0.84170
 H291 H 0.67483 0.85465 0.87222
 H292 H 0.78628 0.89579 0.84223
 C293 C 0.21707 0.38805 0.39020
 C294 C 0.25102 0.38215 0.34632
 H295 H 0.18339 0.36025 0.39576
 H296 H 0.28256 0.41193 0.33790
 C297 C 0.26107 0.10551 0.87232
 C298 C 0.29642 0.14482 0.85866
 H299 H 0.22325 0.10463 0.85206
 H300 H 0.33261 0.15050 0.88288
 C301 C 0.78810 0.59752 0.36862
 C302 C 0.74928 0.60376 0.33102
 H303 H 0.82272 0.62451 0.36810
 H304 H 0.71614 0.57494 0.32887
 C305 C 0.10077 0.76481 0.87315
 C306 C 0.12311 0.72530 0.85229
 H307 H 0.11345 0.80277 0.85532
 H308 H 0.11509 0.68768 0.87277
 C309 C 0.60268 0.23511 0.36917
 C310 C 0.63430 0.19973 0.36091
 H311 H 0.60954 0.27126 0.34495
 H312 H 0.62996 0.16516 0.38835
 C313 C 0.90020 0.25878 0.87012
 C314 C 0.86232 0.28754 0.86159
 H315 H 0.89950 0.22284 0.84610
 H316 H 0.86041 0.32120 0.88932
 C317 C 0.40291 0.75860 0.36984
 C318 C 0.36743 0.79050 0.36464
 H319 H 0.40091 0.72527 0.34073
 H320 H 0.36653 0.82146 0.39685
 C321 C 0.26734 0.90963 0.13723
 C322 C 0.29582 0.87113 0.14126
 H323 H 0.23468 0.91015 0.16737
 H324 H 0.32564 0.86771 0.10789
 C325 C 0.75575 0.39190 0.63024
 C326 C 0.78700 0.35618 0.63871
 H327 H 0.72040 0.39017 0.65613
 H328 H 0.82023 0.35522 0.60961
 C329 C 0.74320 0.08540 0.13458
 C330 C 0.71292 0.12183 0.14327
 H331 H 0.77801 0.08572 0.16120
 H332 H 0.68057 0.12457 0.11331
 C333 C 0.25000 0.61452 0.62482
 C334 C 0.21164 0.64158 0.63826
 H335 H 0.28760 0.62494 0.64468
 H336 H 0.17523 0.63407 0.61476
 C337 C 0.89406 0.75284 0.12937
 C338 C 0.85576 0.71470 0.13416
 H339 H 0.89367 0.78678 0.15706
 H340 H 0.85327 0.68295 0.10261
 C341 C 0.38536 0.21327 0.61774
 C342 C 0.37558 0.25371 0.65030
 H343 H 0.36128 0.17703 0.62266
 H344 H 0.40169 0.28889 0.64851
 C345 C 0.11335 0.30805 0.12206
 C346 C 0.11898 0.27263 0.16457
 H347 H 0.14226 0.34076 0.11634
 H348 H 0.08830 0.24184 0.17238
 C349 C 0.59894 0.75464 0.63866
 C350 C 0.64549 0.78135 0.63756
 H351 H 0.59057 0.72344 0.67092
 H352 H 0.65550 0.80928 0.60174
   
