data_POSCAR
  _audit_creation_date              2014-09-24
  _audit_creation_method            'ToBaCCo'
  _symmetry_space_group_name_H-M    'P1'
  _symmetry_Int_Tables_number       1
  _symmetry_cell_setting            triclinic
  loop_
  _symmetry_equiv_pos_as_xyz
 x,y,z
_cell_length_a 29.9788
_cell_length_b 29.3518
_cell_length_c 30.3965
_cell_angle_alpha 89.961900
_cell_angle_beta 90.098100
_cell_angle_gamma 90.269900
loop_
  _atom_site_label
  _atom_site_type_symbol
  _atom_site_fract_x
  _atom_site_fract_y
  _atom_site_fract_z
Zr1 Zr 0.24234 0.24236 0.32716
 O2 O 0.27435 0.27252 0.38218
 O3 O 0.19439 0.20078 0.35720
 O4 O 0.19960 0.28524 0.36350
 O5 O 0.32660 0.16467 0.31087
 O6 O 0.16612 0.32826 0.31045
 O7 O 0.28148 0.19559 0.36327
 O8 O 0.16053 0.16421 0.29975
 O9 O 0.18653 0.24735 0.28584
 O10 O 0.24418 0.18569 0.28543
 O11 O 0.24933 0.30508 0.29439
 O12 O 0.30454 0.24550 0.29494
 Zr13 Zr 0.25698 0.25760 0.17400
 Zr14 Zr 0.19535 0.30814 0.25071
 Zr15 Zr 0.30370 0.19083 0.25052
 Zr16 Zr 0.19039 0.19205 0.24283
 O17 O 0.37422 0.19376 0.25326
 O18 O 0.12105 0.20537 0.23855
 O19 O 0.24990 0.19398 0.20637
 O20 O 0.19545 0.25288 0.20722
 O21 O 0.25532 0.31441 0.21571
 O22 O 0.31198 0.25160 0.21616
 C23 C 0.16605 0.17250 0.34098
 C24 C 0.31374 0.16967 0.35103
 C25 C 0.17248 0.31653 0.35084
 O26 O 0.12515 0.30444 0.24401
 O27 O 0.17530 0.33889 0.19139
 O28 O 0.21662 0.30412 0.13834
 C29 C 0.18622 0.33220 0.15095
 O30 O 0.33317 0.32735 0.32189
 Zr31 Zr 0.30892 0.30645 0.25927
 O32 O 0.30402 0.30247 0.14477
 O33 O 0.20293 0.37947 0.25759
 O34 O 0.30004 0.37801 0.26267
 O35 O 0.37853 0.29466 0.26406
 O36 O 0.33938 0.33446 0.20383
 C37 C 0.33359 0.32889 0.16246
 O38 O 0.22581 0.22964 0.11742
 O39 O 0.29598 0.11920 0.24739
 O40 O 0.29750 0.21237 0.13773
 O41 O 0.32854 0.16671 0.19024
 O42 O 0.19808 0.12035 0.23931
 O43 O 0.16831 0.16744 0.18070
 C44 C 0.32253 0.17912 0.14999
 H45 H 0.24270 0.15635 0.30145
 H46 H 0.17002 0.25414 0.18647
 H47 H 0.34082 0.25099 0.20037
 H48 H 0.24942 0.33105 0.31515
 H49 H 0.10510 0.17613 0.24324
 H50 H 0.11372 0.33593 0.24690
 H51 H 0.17262 0.39270 0.25588
 H52 H 0.32971 0.39252 0.25894
 H53 H 0.16831 0.10635 0.24401
 H54 H 0.32624 0.10604 0.25011
 H55 H 0.38503 0.16198 0.25117
 H56 H 0.39399 0.32441 0.26093
 H57 H 0.14230 0.14699 0.18493
 H58 H 0.24033 0.24328 0.09115
 H59 H 0.26065 0.25937 0.40908
 H60 H 0.35406 0.35329 0.31819
 Zr61 Zr 0.75275 0.75521 0.32756
 O62 O 0.71967 0.72228 0.38036
 O63 O 0.79911 0.79670 0.36048
 O64 O 0.79561 0.71204 0.36373
 O65 O 0.66744 0.83188 0.31154
 O66 O 0.83205 0.67238 0.31030
 O67 O 0.71226 0.80031 0.36404
 O68 O 0.83334 0.83635 0.30527
 O69 O 0.80980 0.75350 0.28787
 O70 O 0.75033 0.81327 0.28765
 O71 O 0.74836 0.69365 0.29234
 O72 O 0.69144 0.75125 0.29335
 Zr73 Zr 0.74293 0.74609 0.17385
 Zr74 Zr 0.80373 0.69391 0.25047
 Zr75 Zr 0.69174 0.80769 0.25100
 Zr76 Zr 0.80549 0.81030 0.24666
 O77 O 0.62137 0.80182 0.25230
 O78 O 0.87529 0.79934 0.24365
 O79 O 0.74691 0.80840 0.20859
 O80 O 0.80343 0.75081 0.20892
 O81 O 0.74510 0.68768 0.21342
 O82 O 0.68630 0.74816 0.21398
 C83 C 0.82719 0.82631 0.34603
 C84 C 0.68003 0.82635 0.35178
 C85 C 0.82411 0.68218 0.35086
 O86 O 0.87391 0.69977 0.24539
 O87 O 0.82474 0.66543 0.19047
 O88 O 0.78487 0.70239 0.13749
 C89 C 0.81459 0.67362 0.15001
 O90 O 0.66299 0.66910 0.31600
 Zr91 Zr 0.68986 0.69173 0.25507
 O92 O 0.70057 0.69963 0.14090
 O93 O 0.79821 0.62219 0.25524
 O94 O 0.70046 0.62043 0.25879
 O95 O 0.61968 0.70068 0.25512
 O96 O 0.66519 0.66253 0.19691
 C97 C 0.67301 0.66962 0.15592
 O98 O 0.77525 0.77885 0.12044
 O99 O 0.69684 0.87962 0.24993
 O100 O 0.70103 0.79018 0.13777
 O101 O 0.66742 0.83296 0.19083
 O102 O 0.79631 0.88191 0.24593
 O103 O 0.82781 0.83803 0.18590
 C104 C 0.67459 0.82204 0.15039
 H105 H 0.75076 0.84207 0.30457
 H106 H 0.82943 0.75096 0.18889
 H107 H 0.65812 0.74786 0.19695
 H108 H 0.74841 0.66697 0.31226
 H109 H 0.89022 0.82890 0.24959
 H110 H 0.88602 0.66846 0.24721
 H111 H 0.82891 0.60994 0.25349
 H112 H 0.67144 0.60513 0.25328
 H113 H 0.82575 0.89632 0.25146
 H114 H 0.66605 0.89156 0.25203
 H115 H 0.60940 0.83319 0.25077
 H116 H 0.60579 0.67046 0.24985
 H117 H 0.85334 0.85882 0.19133
 H118 H 0.76262 0.76613 0.09281
 H119 H 0.73235 0.73461 0.40812
 H120 H 0.64203 0.64349 0.31071
 Zr121 Zr 0.75640 0.24623 -0.32373
 O122 O 0.72153 0.28000 -0.37484
 O123 O 0.79961 0.20330 -0.35852
 O124 O 0.79814 0.28959 -0.36091
 O125 O 0.67294 0.16746 -0.30646
 O126 O 0.83455 0.33096 -0.30833
 O127 O 0.71478 0.20165 -0.35978
 O128 O 0.84149 0.17018 -0.30456
 O129 O 0.81483 0.24921 -0.28586
 O130 O 0.75652 0.18776 -0.28443
 O131 O 0.75225 0.30728 -0.28769
 O132 O 0.69631 0.24850 -0.28768
 Zr133 Zr 0.75181 0.25315 -0.16924
 Zr134 Zr 0.80901 0.30809 -0.24763
 Zr135 Zr 0.69908 0.19147 -0.24635
 Zr136 Zr 0.81301 0.19204 -0.24496
 O137 O 0.62860 0.19564 -0.24602
 O138 O 0.88266 0.20473 -0.24172
 O139 O 0.75559 0.19158 -0.20528
 O140 O 0.81108 0.25083 -0.20646
 O141 O 0.75178 0.31217 -0.20828
 O142 O 0.69409 0.25021 -0.20812
 C143 C 0.83109 0.17713 -0.34508
 C144 C 0.68359 0.17448 -0.34699
 C145 C 0.82603 0.32055 -0.34872
 O146 O 0.87941 0.30388 -0.24508
 O147 O 0.83241 0.33673 -0.18864
 O148 O 0.79547 0.29818 -0.13444
 C149 C 0.82444 0.32793 -0.14792
 O150 O 0.66581 0.33113 -0.30766
 Zr151 Zr 0.69525 0.30736 -0.24830
 O152 O 0.70959 0.29734 -0.13416
 O153 O 0.80202 0.37969 -0.25136
 O154 O 0.70519 0.37892 -0.25067
 O155 O 0.62524 0.29664 -0.24684
 O156 O 0.67185 0.33429 -0.18865
 C157 C 0.68077 0.32646 -0.14793
 O158 O 0.78578 0.22085 -0.11676
 O159 O 0.70582 0.11973 -0.24602
 O160 O 0.71059 0.20668 -0.13339
 O161 O 0.67581 0.16481 -0.18678
 O162 O 0.80599 0.12013 -0.24697
 O163 O 0.83635 0.16332 -0.18502
 C164 C 0.68338 0.17497 -0.14632
 H165 H 0.75676 0.15918 -0.30169
 H166 H 0.83778 0.25112 -0.18728
 H167 H 0.66635 0.24950 -0.19050
 H168 H 0.75122 0.33413 -0.30738
 H169 H 0.89806 0.17571 -0.24824
 H170 H 0.89106 0.33543 -0.24758
 H171 H 0.83256 0.39278 -0.25117
 H172 H 0.67638 0.39353 -0.24344
 H173 H 0.83580 0.10726 -0.25332
 H174 H 0.67530 0.10679 -0.24824
 H175 H 0.61701 0.16397 -0.24523
 H176 H 0.61106 0.32628 -0.24021
 H177 H 0.86178 0.14288 -0.19113
 H178 H 0.77344 0.23332 -0.08900
 H179 H 0.73297 0.26823 -0.40325
 H180 H 0.64507 0.35636 -0.30102
 Zr181 Zr 0.24808 0.75507 -0.32998
 O182 O 0.28580 0.72492 -0.38103
 O183 O 0.20609 0.79982 -0.36443
 O184 O 0.20814 0.71215 -0.37013
 O185 O 0.32727 0.83641 -0.30652
 O186 O 0.17268 0.66705 -0.31999
 O187 O 0.28856 0.80321 -0.36258
 O188 O 0.15470 0.81926 -0.31274
 O189 O 0.18880 0.74576 -0.29480
 O190 O 0.24217 0.81160 -0.28868
 O191 O 0.25581 0.69299 -0.29607
 O192 O 0.30667 0.75535 -0.29118
 Zr193 Zr 0.24609 0.74182 -0.17537
 Zr194 Zr 0.19801 0.68602 -0.25848
 Zr195 Zr 0.29809 0.81028 -0.24824
 Zr196 Zr 0.18435 0.80114 -0.25221
 O197 O 0.36855 0.81181 -0.24326
 O198 O 0.11548 0.78435 -0.25004
 O199 O 0.23983 0.80435 -0.20983
 O200 O 0.18875 0.74104 -0.21562
 O201 O 0.25318 0.68469 -0.21623
 O202 O 0.30524 0.75073 -0.21145
 C203 C 0.16996 0.81966 -0.35234
 C204 C 0.31860 0.83071 -0.34783
 C205 C 0.18056 0.68016 -0.35959
 O206 O 0.12763 0.68389 -0.25326
 O207 O 0.18197 0.64748 -0.20299
 O208 O 0.20107 0.69323 -0.14546
 C209 C 0.18061 0.65799 -0.16213
 O210 O 0.34451 0.67420 -0.31126
 Zr211 Zr 0.31071 0.69536 -0.25341
 O212 O 0.28963 0.69933 -0.13994
 O213 O 0.20920 0.61599 -0.27093
 O214 O 0.30496 0.62344 -0.25720
 O215 O 0.37950 0.71223 -0.24963
 O216 O 0.33470 0.66956 -0.19306
 C217 C 0.32257 0.67474 -0.15272
 O218 O 0.20929 0.76908 -0.12226
 O219 O 0.28621 0.88128 -0.24704
 O220 O 0.28297 0.78979 -0.13631
 O221 O 0.31658 0.83627 -0.18684
 O222 O 0.18540 0.87336 -0.25445
 O223 O 0.15843 0.82678 -0.19213
 C224 C 0.30877 0.82364 -0.14709
 H225 H 0.24104 0.84086 -0.30485
 H226 H 0.16121 0.73761 -0.19798
 H227 H 0.33209 0.75298 -0.19257
 H228 H 0.25916 0.66737 -0.31696
 H229 H 0.09855 0.81260 -0.25614
 H230 H 0.11847 0.65177 -0.25794
 H231 H 0.17975 0.60048 -0.27051
 H232 H 0.33398 0.61041 -0.24809
 H233 H 0.15480 0.88340 -0.26193
 H234 H 0.31582 0.89639 -0.24784
 H235 H 0.37769 0.84427 -0.24172
 H236 H 0.39596 0.68402 -0.24226
 H237 H 0.13271 0.84685 -0.19836
 H238 H 0.22130 0.75508 -0.09500
 H239 H 0.27457 0.73736 -0.40930
 H240 H 0.36638 0.65027 -0.30361
 Zr241 Zr 1.25482 1.25763 0.82801
 O242 O 1.22348 1.22373 0.88132
 O243 O 1.29801 1.30308 0.86115
 O244 O 1.29865 1.21570 0.86443
 O245 O 1.16991 1.33493 0.81071
 O246 O 1.33442 1.17487 0.81146
 O247 O 1.21088 1.29950 0.86392
 O248 O 1.33677 1.33680 0.80532
 O249 O 1.31219 1.25550 0.78876
 O250 O 1.25285 1.31537 0.78766
 O251 O 1.25046 1.19586 0.79299
 O252 O 1.19386 1.25333 0.79307
 Zr253 Zr 1.24599 1.24783 0.67424
 Zr254 Zr 1.30613 1.19581 0.75159
 Zr255 Zr 1.19454 1.30982 0.75071
 Zr256 Zr 1.30833 1.31177 0.74691
 O257 O 1.12416 1.30405 0.75179
 O258 O 1.37806 1.30042 0.74344
 O259 O 1.24996 1.31024 0.70864
 O260 O 1.30636 1.25216 0.70942
 O261 O 1.24787 1.18954 0.71397
 O262 O 1.18912 1.25016 0.71398
 C263 C 1.32802 1.33059 0.84630
 C264 C 1.18019 1.32706 0.85118
 C265 C 1.32686 1.18545 0.85186
 O266 O 1.37631 1.20160 0.74642
 O267 O 1.32704 1.16652 0.69219
 O268 O 1.28461 1.19998 0.63894
 C269 C 1.31510 1.17216 0.65186
 O270 O 1.16431 1.17165 0.81561
 Zr271 Zr 1.19233 1.19354 0.75493
 O272 O 1.20081 1.20528 0.64098
 O273 O 1.30063 1.12415 0.75729
 O274 O 1.20322 1.12237 0.75993
 O275 O 1.12211 1.20190 0.75335
 O276 O 1.16951 1.16310 0.69611
 C277 C 1.17518 1.17338 0.65531
 O278 O 1.28085 1.27841 0.62125
 O279 O 1.20002 1.38173 0.74926
 O280 O 1.20592 1.29323 0.63752
 O281 O 1.17080 1.33500 0.69033
 O282 O 1.30014 1.38351 0.74674
 O283 O 1.33052 1.33940 0.68605
 C284 C 1.17892 1.32471 0.64992
 H285 H 1.25290 1.34425 0.80447
 H286 H 1.33228 1.25176 0.68929
 H287 H 1.16098 1.25019 0.69689
 H288 H 1.25050 1.16938 0.81317
 H289 H 1.39321 1.32989 0.74925
 H290 H 1.38846 1.17033 0.74861
 H291 H 1.33131 1.11183 0.75558
 H292 H 1.17443 1.10686 0.75385
 H293 H 1.32983 1.39745 0.75210
 H294 H 1.16927 1.39387 0.75084
 H295 H 1.11223 1.33540 0.74959
 H296 H 1.10866 1.17155 0.74770
 H297 H 1.35611 1.36014 0.69135
 H298 H 1.26802 1.26598 0.59360
 H299 H 1.23564 1.23688 0.90897
 H300 H 1.14351 1.14594 0.81022
 Zr301 Zr 0.74216 0.74255 0.82707
 O302 O 0.77259 0.77443 0.88210
 O303 O 0.69561 0.69878 0.85808
 O304 O 0.69869 0.78515 0.86295
 O305 O 0.82756 0.66581 0.81066
 O306 O 0.66460 0.82745 0.80980
 O307 O 0.78545 0.69999 0.86349
 O308 O 0.65497 0.67113 0.80032
 O309 O 0.68604 0.74675 0.78615
 O310 O 0.74361 0.68517 0.78627
 O311 O 0.74869 0.80480 0.79300
 O312 O 0.80372 0.74606 0.79333
 Zr313 Zr 0.75417 0.75439 0.67353
 Zr314 Zr 0.69393 0.80689 0.75033
 Zr315 Zr 0.80275 0.69009 0.75042
 Zr316 Zr 0.68937 0.69098 0.74374
 O317 O 0.87331 0.69342 0.75174
 O318 O 0.62012 0.70197 0.73418
 O319 O 0.74838 0.69152 0.70691
 O320 O 0.69317 0.75116 0.70740
 O321 O 0.75291 0.81226 0.71388
 O322 O 0.81014 0.75014 0.71453
 C323 C 0.66281 0.67590 0.84150
 C324 C 0.81723 0.67359 0.85107
 C325 C 0.67111 0.81597 0.85019
 O326 O 0.62375 0.80241 0.74388
 O327 O 0.67443 0.83716 0.69100
 O328 O 0.71655 0.80317 0.63800
 C329 C 0.68633 0.83134 0.65077
 O330 O 0.83487 0.82695 0.81747
 Zr331 Zr 0.80748 0.80630 0.75605
 O332 O 0.80083 0.79616 0.64177
 O333 O 0.70094 0.87832 0.75698
 O334 O 0.79798 0.87764 0.76137
 O335 O 0.87747 0.79609 0.75622
 O336 O 0.83236 0.83659 0.69804
 C337 C 0.82710 0.82700 0.65704
 O338 O 0.71992 0.72545 0.61922
 O339 O 0.79512 0.61840 0.74937
 O340 O 0.79388 0.70841 0.63722
 O341 O 0.82688 0.66484 0.69022
 O342 O 0.69531 0.61908 0.74731
 O343 O 0.67126 0.66308 0.68168
 C344 C 0.81984 0.67601 0.64977
 H345 H 0.74239 0.65642 0.80330
 H346 H 0.66768 0.75233 0.68670
 H347 H 0.83858 0.74961 0.69806
 H348 H 0.74886 0.83098 0.81353
 H349 H 0.60463 0.67238 0.73840
 H350 H 0.61211 0.83388 0.74592
 H351 H 0.67057 0.89134 0.75485
 H352 H 0.82716 0.89258 0.75592
 H353 H 0.66489 0.60647 0.75148
 H354 H 0.82549 0.60539 0.75138
 H355 H 0.88428 0.66168 0.74994
 H356 H 0.89181 0.82610 0.75103
 H357 H 0.64716 0.64027 0.68564
 H358 H 0.73369 0.73797 0.59209
 H359 H 0.75924 0.76105 0.90910
 H360 H 0.85615 0.85238 0.81273
 Zr361 Zr 1.25121 0.74872 0.17199
 O362 O 1.21765 0.78348 0.12058
 O363 O 1.29422 0.70550 0.13646
 O364 O 1.29300 0.79221 0.13540
 O365 O 1.16855 0.66953 0.18949
 O366 O 1.32840 0.83391 0.18837
 O367 O 1.20711 0.70714 0.13591
 O368 O 1.33542 0.67196 0.19053
 O369 O 1.30950 0.75240 0.21000
 O370 O 1.25201 0.68992 0.21089
 O371 O 1.24586 0.80945 0.20840
 O372 O 1.19116 0.74958 0.20824
 Zr373 Zr 1.24595 0.75473 0.32596
 Zr374 Zr 1.30251 0.81093 0.24869
 Zr375 Zr 1.19479 0.69241 0.24942
 Zr376 Zr 1.30845 0.69494 0.25041
 O377 O 1.12420 0.69419 0.25058
 O378 O 1.37782 0.70941 0.25192
 O379 O 1.25119 0.69328 0.29023
 O380 O 1.30549 0.75354 0.28938
 O381 O 1.24491 0.81391 0.28744
 O382 O 1.18826 0.75088 0.28739
 C383 C 1.32527 0.67862 0.14986
 C384 C 1.17700 0.67903 0.14901
 C385 C 1.32049 0.82325 0.14796
 O386 O 1.37295 0.80835 0.25228
 O387 O 1.32421 0.83934 0.30860
 O388 O 1.28464 0.80216 0.36182
 C389 C 1.31381 0.83161 0.34906
 O390 O 1.15974 0.83255 0.18794
 Zr391 Zr 1.18848 0.80830 0.24745
 O392 O 1.20261 0.79751 0.36088
 O393 O 1.29474 0.88242 0.24476
 O394 O 1.19730 0.88003 0.24688
 O395 O 1.11876 0.79567 0.24690
 O396 O 1.16252 0.83316 0.30707
 C397 C 1.17244 0.82530 0.34753
 O398 O 1.28237 0.72319 0.37731
 O399 O 1.20281 0.62082 0.24863
 O400 O 1.20656 0.70833 0.36257
 O401 O 1.17315 0.66504 0.30946
 O402 O 1.30219 0.62293 0.24973
 O403 O 1.33399 0.66699 0.30982
 C404 C 1.18058 0.67579 0.34986
 H405 H 1.25220 0.66150 0.19337
 H406 H 1.33193 0.75446 0.30891
 H407 H 1.16051 0.74924 0.30493
 H408 H 1.24466 0.83641 0.18885
 H409 H 1.39373 0.68086 0.24472
 H410 H 1.38391 0.84018 0.25024
 H411 H 1.32509 0.89589 0.24596
 H412 H 1.16808 0.89395 0.25378
 H413 H 1.33194 0.61022 0.24287
 H414 H 1.17249 0.60736 0.24683
 H415 H 1.11363 0.66216 0.25160
 H416 H 1.10361 0.82480 0.25358
 H417 H 1.35997 0.64747 0.30315
 H418 H 1.27011 0.73446 0.40557
 H419 H 1.22898 0.77157 0.09216
 H420 H 1.13879 0.85758 0.19462
 Zr421 Zr 0.75170 1.24708 0.16808
 O422 O 0.78573 1.21193 0.11740
 O423 O 0.70776 1.28902 0.13198
 O424 O 0.71004 1.20312 0.13160
 O425 O 0.83497 1.32608 0.18506
 O426 O 0.67398 1.16227 0.18470
 O427 O 0.79591 1.28852 0.13170
 O428 O 0.66491 1.32126 0.18539
 O429 O 0.69329 1.24363 0.20573
 O430 O 0.75046 1.30640 0.20619
 O431 O 0.75681 1.18673 0.20528
 O432 O 0.81147 1.24680 0.20504
 Zr433 Zr 0.75555 1.24261 0.32221
 Zr434 Zr 0.69983 1.18548 0.24499
 Zr435 Zr 0.80755 1.30454 0.24540
 Zr436 Zr 0.69381 1.30154 0.24543
 O437 O 0.87809 1.30308 0.24831
 O438 O 0.62435 1.28785 0.24872
 O439 O 0.75078 1.30371 0.28565
 O440 O 0.69636 1.24332 0.28497
 O441 O 0.75712 1.18304 0.28441
 O442 O 0.81363 1.24641 0.28429
 C443 C 0.67514 1.31410 0.14491
 C444 C 0.82653 1.31634 0.14448
 C445 C 0.68200 1.17261 0.14426
 O446 O 0.62935 1.18810 0.24764
 O447 O 0.67707 1.15769 0.30478
 O448 O 0.71616 1.19552 0.35799
 C449 C 0.68696 1.16598 0.34527
 O450 O 0.84331 1.16403 0.18605
 Zr451 Zr 0.81389 1.18852 0.24501
 O452 O 0.79854 1.20017 0.35813
 O453 O 0.70802 1.11401 0.24185
 O454 O 0.80551 1.11673 0.24468
 O455 O 0.88358 1.20138 0.24559
 O456 O 0.83905 1.16394 0.30521
 C457 C 0.82870 1.17209 0.34547
 O458 O 0.71866 1.27444 0.37292
 O459 O 0.79945 1.37606 0.24281
 O460 O 0.79389 1.28981 0.35888
 O461 O 0.82762 1.33305 0.30591
 O462 O 0.69968 1.37349 0.24171
 O463 O 0.66985 1.33110 0.30461
 C464 C 0.81943 1.32277 0.34640
 H465 H 0.75009 1.33441 0.18803
 H466 H 0.66978 1.24264 0.30423
 H467 H 0.84111 1.24830 0.30231
 H468 H 0.75817 1.15959 0.18601
 H469 H 0.60851 1.31652 0.24168
 H470 H 0.61836 1.15625 0.24582
 H471 H 0.67770 1.10043 0.24265
 H472 H 0.83474 1.10302 0.25203
 H473 H 0.66970 1.38568 0.23484
 H474 H 0.82981 1.38949 0.24157
 H475 H 0.88845 1.33518 0.24901
 H476 H 0.89871 1.17232 0.25268
 H477 H 0.64440 1.35135 0.29789
 H478 H 0.73055 1.26322 0.40142
 H479 H 0.77437 1.22333 0.08875
 H480 H 0.86458 1.13938 0.19320
 N481 N 0.57939 1.04476 0.04483
 N482 N 0.61100 1.07473 0.05480
 N483 N 0.54406 0.95090 0.07580
 N484 N 0.55197 0.92233 0.10824
 N485 N 0.57561 0.94871 0.04598
 N486 N 0.60604 0.91840 0.05764
 N487 N 0.54736 1.04617 0.07416
 N488 N 0.55595 1.07670 0.10460
 C489 C 0.59523 1.09469 0.09196
 C490 C 0.59016 0.90177 0.09629
 N491 N 0.41677 0.95472 0.04723
 N492 N 0.38628 0.92381 0.05783
 N493 N 0.45241 1.04980 0.07512
 N494 N 0.44484 1.07892 0.10713
 N495 N 0.42012 1.05088 0.04590
 N496 N 0.38958 1.08107 0.05754
 N497 N 0.44926 0.95461 0.07623
 N498 N 0.44212 0.92414 0.10706
 Mn499 Mn 0.49827 1.00039 0.07537
 C500 C 0.40324 0.90482 0.09506
 C501 C 0.40614 1.09877 0.09552
 N502 N 0.57465 0.94734 -0.04966
 N503 N 0.60419 0.91573 -0.06017
 N504 N 0.54724 1.04416 -0.08026
 N505 N 0.55646 1.07465 -0.11086
 N506 N 0.57891 1.04354 -0.05034
 N507 N 0.61043 1.07378 -0.05979
 N508 N 0.54244 0.94844 -0.07904
 N509 N 0.54913 0.91800 -0.11007
 Mn510 Mn 0.57777 0.99601 -0.00234
 C511 C 0.58720 0.89733 -0.09766
 C512 C 0.59557 1.09331 -0.09746
 N513 N 0.41946 1.04968 -0.04970
 N514 N 0.39112 1.08275 -0.05934
 N515 N 0.44625 0.95198 -0.07838
 N516 N 0.43614 0.92149 -0.10867
 N517 N 0.41493 0.95337 -0.04820
 N518 N 0.38268 0.92370 -0.05737
 N519 N 0.45114 1.04772 -0.07946
 N520 N 0.44533 1.07898 -0.10992
 Mn521 Mn 0.41714 1.00219 -0.00122
 Mn522 Mn 0.49674 0.99807 -0.07957
 Cl523 Cl 0.49747 0.99914 -0.00206
 C524 C 0.40828 1.10096 -0.09683
 C525 C 0.39685 0.90358 -0.09500
 N526 N 1.08066 0.54814 0.54408
 N527 N 1.11067 0.58036 0.55217
 N528 N 1.04774 0.45358 0.57590
 N529 N 1.05605 0.42485 0.60810
 N530 N 1.07921 0.45195 0.54597
 N531 N 1.11002 0.42188 0.55732
 N532 N 1.04876 0.54918 0.57358
 N533 N 1.05598 0.58179 0.60239
 C534 C 1.09425 0.60132 0.58848
 C535 C 1.09446 0.40482 0.59594
 N536 N 0.92023 0.45301 0.54731
 N537 N 0.89005 0.42201 0.55872
 N538 N 0.95307 0.54968 0.57500
 N539 N 0.94457 0.57862 0.60694
 N540 N 0.92051 0.54929 0.54601
 N541 N 0.88895 0.57837 0.55770
 N542 N 0.95255 0.45433 0.57657
 N543 N 0.94551 0.42467 0.60822
 Mn544 Mn 1.00056 0.50177 0.57538
 C545 C 0.90696 0.40429 0.59659
 C546 C 0.90505 0.59690 0.59550
 N547 N 1.07786 0.45022 0.45027
 N548 N 1.10732 0.41839 0.44009
 N549 N 1.04755 0.54666 0.42011
 N550 N 1.05570 0.57676 0.38901
 N551 N 1.07985 0.54640 0.44930
 N552 N 1.11092 0.57668 0.43884
 N553 N 1.04577 0.45118 0.42083
 N554 N 1.05228 0.42038 0.39014
 Mn555 Mn 1.08006 0.49904 0.49740
 C556 C 1.09024 0.39972 0.40272
 C557 C 1.09486 0.59566 0.40136
 N558 N 0.91999 0.54848 0.45033
 N559 N 0.89023 0.58010 0.44017
 N560 N 0.95066 0.45241 0.42127
 N561 N 0.94163 0.42367 0.38931
 N562 N 0.91885 0.45212 0.45095
 N563 N 0.88700 0.42287 0.43946
 N564 N 0.95194 0.54779 0.42080
 N565 N 0.94490 0.57841 0.39000
 Mn566 Mn 0.91916 0.50062 0.49865
 Mn567 Mn 0.99898 0.49959 0.42064
 Cl568 Cl 0.99960 0.50019 0.49803
 C569 C 0.90683 0.59878 0.40262
 C570 C 0.90240 0.40493 0.40116
 N571 N 1.04162 0.55301 0.08233
 N572 N 1.07330 0.55830 0.11176
 N573 N 0.94722 0.58089 0.04909
 N574 N 0.91544 0.61013 0.05977
 N575 N 0.94863 0.54750 0.07783
 N576 N 0.91805 0.55283 0.10836
 N577 N 1.04123 0.58695 0.05428
 N578 N 1.07329 0.61645 0.06375
 C579 C 1.09289 0.59764 0.09967
 C580 C 0.89708 0.59143 0.09650
 N581 N 0.95821 0.55419 -0.07753
 N582 N 0.92921 0.56016 -0.10948
 N583 N 1.04732 0.59187 -0.03954
 N584 N 1.07817 0.62414 -0.04267
 N585 N 1.05199 0.56152 -0.07092
 N586 N 1.08582 0.57301 -0.09675
 N587 N 0.95311 0.58498 -0.04664
 N588 N 0.92014 0.61301 -0.05709
 Mn589 Mn 0.99695 0.58682 0.00428
 C590 C 0.90537 0.59646 -0.09631
 C591 C 1.10213 0.61211 -0.07852
 N592 N 0.95449 0.45134 0.07493
 N593 N 0.92481 0.44127 0.10508
 N594 N 1.05136 0.42460 0.04924
 N595 N 1.08367 0.39573 0.05968
 N596 N 1.04771 0.45612 0.07964
 N597 N 1.07690 0.44958 0.11140
 N598 N 0.95681 0.41931 0.04495
 N599 N 0.92827 0.38596 0.05449
 Mn600 Mn 0.99821 0.50202 0.07872
 C601 C 0.90817 0.40100 0.09192
 C602 C 1.09962 0.41236 0.09847
 N603 N 1.05659 0.46232 -0.07432
 N604 N 1.08621 0.45511 -0.10544
 N605 N 0.96161 0.42360 -0.05104
 N606 N 0.93006 0.39355 -0.06123
 N607 N 0.96312 0.45646 -0.08049
 N608 N 0.93283 0.44953 -0.11133
 N609 N 1.05572 0.42810 -0.04632
 N610 N 1.08516 0.39683 -0.05790
 Mn611 Mn 1.00770 0.50863 -0.07615
 Mn612 Mn 1.00631 0.42316 -0.00089
 Cl613 Cl 1.00227 0.50508 0.00132
 C614 C 1.10438 0.41475 -0.09446
 C615 C 0.91216 0.41052 -0.09888
 N616 N 0.57942 1.05049 0.54931
 N617 N 0.61100 1.08001 0.56063
 N618 N 0.54882 0.95458 0.57973
 N619 N 0.55837 0.92551 0.61133
 N620 N 0.58028 0.95469 0.54966
 N621 N 0.61220 0.92567 0.56026
 N622 N 0.54749 1.05013 0.57890
 N623 N 0.55631 1.07919 0.61072
 C624 C 0.59547 1.09812 0.59873
 C625 C 0.59754 0.90731 0.59854
 N626 N 0.42083 0.95141 0.55156
 N627 N 0.38879 0.92312 0.56457
 N628 N 0.45169 1.04851 0.57973
 N629 N 0.44264 1.07784 0.61118
 N630 N 0.41945 1.04753 0.55041
 N631 N 0.38749 1.07638 0.56135
 N632 N 0.45270 0.95324 0.58131
 N633 N 0.44296 0.92708 0.61523
 Mn634 Mn 0.50024 1.00162 0.58000
 C635 C 0.40356 0.90788 0.60423
 C636 C 0.40298 1.09546 0.59907
 N637 N 0.57943 0.95372 0.45421
 N638 N 0.61050 0.92379 0.44332
 N639 N 0.54672 1.04907 0.42423
 N640 N 0.55665 1.07581 0.39078
 N641 N 0.57897 1.04966 0.45357
 N642 N 0.61174 1.07691 0.44053
 N643 N 0.54714 0.95347 0.42495
 N644 N 0.55511 0.92360 0.39373
 Mn645 Mn 0.58003 1.00214 0.50172
 C646 C 0.59425 0.90486 0.40574
 C647 C 0.59677 1.09359 0.40162
 N648 N 0.41873 1.04700 0.45490
 N649 N 0.38673 1.07579 0.44368
 N650 N 0.45167 0.95211 0.42559
 N651 N 0.44204 0.92439 0.39288
 N652 N 0.41997 0.95123 0.45541
 N653 N 0.38769 0.92290 0.44330
 N654 N 0.45071 1.04758 0.42537
 N655 N 0.44151 1.07656 0.39363
 Mn656 Mn 0.41923 0.99920 0.50307
 Mn657 Mn 0.49904 1.00062 0.42498
 Cl658 Cl 0.49959 1.00088 0.50245
 C659 C 0.40201 1.09440 0.40563
 C660 C 0.40259 0.90587 0.40455
 N661 N 1.07304 0.93772 0.54668
 N662 N 1.10419 0.92061 0.57251
 N663 N 1.03635 0.91219 0.45574
 N664 N 1.04120 0.87911 0.42666
 N665 N 1.07155 0.93900 0.45571
 N666 N 1.10157 0.92454 0.42752
 N667 N 1.03643 0.91308 0.54892
 N668 N 1.04076 0.88019 0.57823
 C669 C 1.08315 0.88538 0.59256
 C670 C 1.08195 0.88765 0.40927
 N671 N 0.91536 0.96197 0.45632
 N672 N 0.88399 0.95755 0.42604
 N673 N 0.94183 0.92652 0.54848
 N674 N 0.92873 0.89658 0.57808
 N675 N 0.91616 0.96261 0.54913
 N676 N 0.88529 0.95860 0.57983
 N677 N 0.94121 0.92599 0.45687
 N678 N 0.92770 0.89571 0.42773
 Mn679 Mn 0.98892 0.91902 0.50250
 C680 C 0.89240 0.91615 0.40846
 C681 C 0.89391 0.91737 0.59768
 N682 N 1.08499 1.03601 0.45483
 N683 N 1.11509 1.04015 0.42334
 N684 N 1.06040 1.07183 0.54715
 N685 N 1.07446 1.10230 0.57584
 N686 N 1.08613 1.03571 0.54771
 N687 N 1.11799 1.04035 0.57749
 N688 N 1.05885 1.07176 0.45556
 N689 N 1.07070 1.10144 0.42526
 Mn690 Mn 1.07937 0.98719 0.50126
 C691 C 1.10545 1.08108 0.40518
 C692 C 1.10995 1.08194 0.59484
 N693 N 0.92971 1.05946 0.54806
 N694 N 0.89978 1.07419 0.57627
 N695 N 0.96411 1.08566 0.45577
 N696 N 0.95915 1.11809 0.42601
 N697 N 0.92881 1.05904 0.45662
 N698 N 0.89853 1.07305 0.42831
 N699 N 0.96531 1.08570 0.54856
 N700 N 0.96089 1.11859 0.57785
 Mn701 Mn 0.92211 1.01075 0.50252
 Mn702 Mn 1.01225 1.07916 0.50179
 Cl703 Cl 1.00067 0.99902 0.50204
 C704 C 0.91999 1.11060 0.59496
 C705 C 0.91816 1.10948 0.40914
 N706 N 0.57890 0.53442 0.05935
 N707 N 0.60852 0.56546 0.07130
 N708 N 0.53847 0.43819 0.07545
 N709 N 0.54483 0.40602 0.10514
 N710 N 0.57205 0.43956 0.04775
 N711 N 0.60194 0.40830 0.05786
 N712 N 0.54559 0.53292 0.08727
 N713 N 0.55174 0.56264 0.11924
 C714 C 0.59095 0.58282 0.10865
 C715 C 0.58403 0.38706 0.09322
 N716 N 0.41417 0.45380 0.03555
 N717 N 0.38010 0.42521 0.03810
 N718 N 0.45029 0.54132 0.08010
 N719 N 0.44263 0.56911 0.11321
 N720 N 0.42180 0.54852 0.04797
 N721 N 0.39383 0.58150 0.05857
 N722 N 0.44262 0.44675 0.06767
 N723 N 0.42857 0.41329 0.09304
 Mn724 Mn 0.49416 0.48966 0.07804
 C725 C 0.38981 0.39982 0.07389
 C726 C 0.40775 0.59427 0.09926
 N727 N 0.57996 0.45178 -0.04591
 N728 N 0.60904 0.42003 -0.05683
 N729 N 0.55863 0.55314 -0.06569
 N730 N 0.57188 0.58730 -0.09059
 N731 N 0.58719 0.54630 -0.03362
 N732 N 0.62072 0.57556 -0.03589
 N733 N 0.55138 0.45856 -0.07799
 N734 N 0.56010 0.43165 -0.11151
 Mn735 Mn 0.57995 0.49293 0.00694
 C736 C 0.59569 0.40748 -0.09769
 C737 C 0.61038 0.60130 -0.07132
 N738 N 0.42934 0.56010 -0.04643
 N739 N 0.39802 0.58882 -0.05910
 N740 N 0.45610 0.46656 -0.08517
 N741 N 0.45022 0.43645 -0.11686
 N742 N 0.42264 0.46528 -0.05740
 N743 N 0.39320 0.43397 -0.06917
 N744 N 0.46310 0.56122 -0.07399
 N745 N 0.45549 0.59077 -0.10580
 Mn746 Mn 0.42157 0.50708 -0.00507
 Mn747 Mn 0.50739 0.50995 -0.07606
 Cl748 Cl 0.50074 0.49995 0.00097
 C749 C 0.41530 0.60838 -0.09563
 C750 C 0.41105 0.41625 -0.10626
 C751 C 0.34605 1.15303 0.11562
 C752 C 0.38263 1.12933 0.12578
 H753 H 0.33335 1.15316 0.08223
 H754 H 0.39630 1.13167 0.15875
 C755 C 0.84342 0.64958 0.61559
 C756 C 0.88072 0.62698 0.62568
 H757 H 0.83039 0.64889 0.58233
 H758 H 0.89465 0.63018 0.65848
 C759 C 0.65072 0.84815 0.11623
 C760 C 0.61380 0.87117 0.12644
 H761 H 0.66354 0.84870 0.08293
 H762 H 0.60013 0.86843 0.15934
 C763 C 1.15542 0.35120 0.61568
 C764 C 1.11828 0.37399 0.62580
 H765 H 1.16860 0.35219 0.58253
 H766 H 1.10435 0.37077 0.65854
 C767 C 0.65834 1.14784 -0.11319
 C768 C 0.62066 1.12588 -0.12502
 H769 H 0.67099 1.14521 -0.07989
 H770 H 0.60734 1.13096 -0.15782
 C771 C 1.15687 0.64881 0.38348
 C772 C 1.11883 0.62752 0.37276
 H773 H 1.17047 0.64623 0.41642
 H774 H 1.10448 0.63261 0.34037
 C775 C 0.33271 0.85010 -0.11243
 C776 C 0.37112 0.87163 -0.12288
 H777 H 0.31916 0.85224 -0.07951
 H778 H 0.38509 0.86647 -0.15535
 C779 C 0.84146 0.35067 0.38075
 C780 C 0.87819 0.37456 0.37096
 H781 H 0.82820 0.35091 0.41388
 H782 H 0.89232 0.37175 0.33827
 C783 C 1.16004 0.35663 0.11676
 C784 C 1.13222 0.39032 0.12796
 H785 H 1.16184 0.34535 0.08289
 H786 H 1.13221 0.40248 0.16162
 C787 C 0.66261 0.85870 0.61740
 C788 C 0.62266 0.87637 0.62706
 H789 H 0.67753 0.86411 0.58538
 H790 H 0.60739 0.86894 0.65857
 C791 C 1.15452 0.63000 -0.13780
 C792 C 1.13706 0.63903 -0.09605
 H793 H 1.14128 0.60014 -0.15451
 H794 H 1.14702 0.66975 -0.07882
 C795 C 0.66249 1.14019 0.37944
 C796 C 0.62266 1.12150 0.37050
 H797 H 0.67661 1.13754 0.41217
 H798 H 0.60796 1.12629 0.33824
 C799 C 0.84050 0.64982 0.11571
 C800 C 0.86459 0.61308 0.12587
 H801 H 0.84134 0.66366 0.08266
 H802 H 0.86180 0.59840 0.15849
 C803 C 0.33859 1.14473 0.61844
 C804 C 0.37830 1.12641 0.62795
 H805 H 0.32354 1.13969 0.58638
 H806 H 0.39377 1.13346 0.65949
 C807 C 0.85244 0.35239 -0.11489
 C808 C 0.87828 0.38790 -0.12692
 H809 H 0.85348 0.33992 -0.08136
 H810 H 0.87548 0.40120 -0.16007
 C811 C 0.33761 0.85806 0.38311
 C812 C 0.37730 0.87678 0.37416
 H813 H 0.32310 0.86139 0.41556
 H814 H 0.39231 0.87134 0.34218
 C815 C 1.13765 1.14856 0.37230
 C816 C 1.13241 1.10342 0.37133
 H817 H 1.12353 1.16825 0.39899
 H818 H 1.15018 1.08289 0.34755
 C819 C 0.63077 0.65265 -0.13010
 C820 C 0.64089 0.63485 -0.09107
 H821 H 0.59883 0.64460 -0.14509
 H822 H 0.67329 0.64078 -0.07625
 C823 C 0.85562 1.15170 0.62152
 C824 C 0.89825 1.14007 0.62703
 H825 H 0.83810 1.14212 0.59166
 H826 H 0.91739 1.15280 0.65472
 C827 C 0.34988 0.65189 0.11663
 C828 C 0.38542 0.62707 0.12823
 H829 H 0.33756 0.65090 0.08312
 H830 H 0.39815 0.62907 0.16156
 C831 C 1.14779 0.84331 0.61715
 C832 C 1.10328 0.85605 0.62222
 H833 H 1.16416 0.85057 0.58607
 H834 H 1.08247 0.83792 0.64561
 C835 C 0.64828 0.33793 0.11141
 C836 C 0.60804 0.35475 0.12144
 H837 H 0.66258 0.34375 0.07917
 H838 H 0.59322 0.34728 0.15315
 C839 C 0.85469 0.84980 0.37869
 C840 C 0.86429 0.89410 0.37533
 H841 H 0.86574 0.83064 0.40718
 H842 H 0.84969 0.91460 0.34942
 C843 C 0.35301 0.35870 -0.12191
 C844 C 0.38922 0.38227 -0.13436
 H845 H 0.34045 0.36166 -0.08863
 H846 H 0.40283 0.37785 -0.16707
 C847 C 1.15472 0.35144 -0.11477
 C848 C 1.13462 0.39077 -0.12434
 H849 H 1.15227 0.33702 -0.08204
 H850 H 1.13938 0.40600 -0.15651
 C851 C 0.65661 0.85306 0.38586
 C852 C 0.61768 0.87305 0.37662
 H853 H 0.67181 0.85726 0.41797
 H854 H 0.60209 0.86713 0.34492
 C855 C 0.84482 0.65137 -0.11470
 C856 C 0.87219 0.61733 -0.12557
 H857 H 0.84382 0.66391 -0.08121
 H858 H 0.87134 0.60392 -0.15878
 C859 C 0.33748 1.14309 0.38506
 C860 C 0.37736 1.12501 0.37623
 H861 H 0.32218 1.13810 0.41697
 H862 H 0.39296 1.13179 0.34474
 C863 C 1.14929 0.65641 0.11577
 C864 C 1.12750 0.61842 0.12657
 H865 H 1.14519 0.67179 0.08361
 H866 H 1.13368 0.60224 0.15807
 C867 C 0.65900 1.14857 0.61900
 C868 C 0.62000 1.12867 0.62850
 H869 H 0.67323 1.14530 0.58643
 H870 H 0.60528 1.13377 0.66066
 C871 C 0.85422 0.33875 0.11044
 C872 C 0.87778 0.37584 0.12091
 H873 H 0.85501 0.32525 0.07729
 H874 H 0.87445 0.39010 0.15364
 C875 C 0.34186 0.85499 0.62228
 C876 C 0.38002 0.88010 0.63346
 H877 H 0.33194 0.85339 0.58797
 H878 H 0.39363 0.87699 0.66640
 C879 C 0.35097 1.15925 -0.11416
 C880 C 0.38686 1.13493 -0.12515
 H881 H 0.33788 1.15787 -0.08099
 H882 H 0.40068 1.13827 -0.15794
 C883 C 0.84819 0.65569 0.38474
 C884 C 0.88427 0.63161 0.37382
 H885 H 0.83532 0.65448 0.41800
 H886 H 0.89792 0.63486 0.34096
 C887 C 0.65771 1.14679 0.11029
 C888 C 0.61941 1.12622 0.12060
 H889 H 0.67150 1.14394 0.07749
 H890 H 0.60499 1.13149 0.15289
 C891 C 1.15620 0.65553 0.60545
 C892 C 1.11730 0.63548 0.61540
 H893 H 1.17105 0.65154 0.57323
 H894 H 1.10221 0.64205 0.64716
 C895 C 0.64630 0.84141 -0.11589
 C896 C 0.60995 0.86510 -0.12683
 H897 H 0.65887 0.84216 -0.08246
 H898 H 0.59653 0.86224 -0.15986
 C899 C 1.14824 0.34242 0.38483
 C900 C 1.11255 0.36702 0.37377
 H901 H 1.16074 0.34282 0.41829
 H902 H 1.09917 0.36442 0.34071
 C903 C 0.34379 0.84962 0.11381
 C904 C 0.38069 0.87263 0.12416
 H905 H 0.33012 0.85113 0.08082
 H906 H 0.39519 0.86883 0.15666
 C907 C 0.84882 0.34727 0.61668
 C908 C 0.88462 0.37245 0.62664
 H909 H 0.83560 0.34715 0.58348
 H910 H 0.89869 0.37044 0.65946
 C911 C 1.14897 1.14839 0.62258
 C912 C 1.13861 1.10438 0.62729
 H913 H 1.13848 1.16660 0.59331
 H914 H 1.15231 1.08458 0.65416
 C915 C 0.64889 0.64056 0.12428
 C916 C 0.61294 0.61658 0.13683
 H917 H 0.66130 0.63795 0.09092
 H918 H 0.59936 0.62091 0.16958
 C919 C 1.14794 0.85052 0.38101
 C920 C 1.10426 0.85853 0.37724
 H921 H 1.16614 0.86238 0.40969
 H922 H 1.08489 0.84326 0.35093
 C923 C 0.65597 0.35309 -0.11502
 C924 C 0.61941 0.37615 -0.12678
 H925 H 0.66810 0.35439 -0.08144
 H926 H 0.60670 0.37349 -0.16008
 C927 C 0.85260 1.14686 0.37957
 C928 C 0.89609 1.13784 0.37617
 H929 H 0.83420 1.13606 0.40846
 H930 H 0.91571 1.15214 0.34958
 C931 C 0.34842 0.65081 -0.11866
 C932 C 0.39023 0.63718 -0.12632
 H933 H 0.33292 0.64423 -0.08710
 H934 H 0.40615 0.64538 -0.15733
 C935 C 0.85438 0.85154 0.62510
 C936 C 0.86560 0.89519 0.63036
 H937 H 0.86442 0.83349 0.59563
 H938 H 0.85226 0.91500 0.65733
 C939 C 0.36535 0.35432 0.13544
 C940 C 0.35849 0.36723 0.09401
 H941 H 0.39483 0.36653 0.15260
 H942 H 0.32825 0.35758 0.07674
   
