data_POSCAR
  _audit_creation_date              2014-09-24
  _audit_creation_method            'ToBaCCo'
  _symmetry_space_group_name_H-M    'P1'
  _symmetry_Int_Tables_number       1
  _symmetry_cell_setting            triclinic
  loop_
  _symmetry_equiv_pos_as_xyz
 x,y,z
_cell_length_a 57.2283
_cell_length_b 56.7037
_cell_length_c 20.9207
_cell_angle_alpha 90.197100
_cell_angle_beta 89.923400
_cell_angle_gamma 120.264900
loop_
  _atom_site_label
  _atom_site_type_symbol
  _atom_site_fract_x
  _atom_site_fract_y
  _atom_site_fract_z
C1 C 0.20066 0.49489 0.44588
 C2 C 0.19284 0.50014 0.50529
 C3 C 0.20270 0.49624 0.56327
 C4 C 0.22335 0.48932 0.56171
 C5 C 0.23297 0.48570 0.50182
 C6 C 0.22115 0.48780 0.44382
 C7 C 0.23184 0.48523 0.38528
 C8 C 0.25352 0.48074 0.38332
 C9 C 0.26605 0.47949 0.43971
 C10 C 0.25547 0.48146 0.49972
 C11 C 0.23642 0.48858 0.61794
 C12 C 0.25845 0.48454 0.61582
 C13 C 0.26844 0.48098 0.55735
 C14 C 0.29246 0.47945 0.55409
 C15 C 0.30229 0.47742 0.49414
 C16 C 0.28947 0.47724 0.43748
 H17 H 0.22436 0.48781 0.33999
 H18 H 0.26096 0.47912 0.33686
 H19 H 0.23065 0.49252 0.66424
 H20 H 0.26818 0.48532 0.66065
 H21 H 0.17658 0.50475 0.50658
 H22 H 0.32074 0.47644 0.49134
 C23 C 0.54512 -0.27205 0.56048
 C24 C 0.54626 -0.28381 0.50279
 C25 C 0.54471 -0.27310 0.44362
 C26 C 0.54350 -0.24864 0.44255
 C27 C 0.54350 -0.23582 0.50119
 C28 C 0.54405 -0.24775 0.56025
 C29 C 0.54458 -0.23458 0.61757
 C30 C 0.54487 -0.20991 0.61718
 C31 C 0.54393 -0.19770 0.55946
 C32 C 0.54365 -0.21065 0.50081
 C33 C 0.54438 -0.23553 0.38481
 C34 C 0.54444 -0.21097 0.38443
 C35 C 0.54420 -0.19816 0.44175
 C36 C 0.54554 -0.17262 0.44151
 C37 C 0.54694 -0.15961 0.49928
 C38 C 0.54530 -0.17194 0.55846
 H39 H 0.54560 -0.24285 0.66336
 H40 H 0.54675 -0.20013 0.66284
 H41 H 0.54596 -0.24359 0.33915
 H42 H 0.54551 -0.20166 0.33861
 H43 H 0.54650 -0.30282 0.50436
 H44 H 0.54724 -0.14032 0.49777
 C45 C 1.17577 0.71691 0.43438
 C46 C 1.16220 0.70423 0.49052
 C47 C 1.17417 0.71294 0.55092
 C48 C 1.20077 0.73588 0.55529
 C49 C 1.21504 0.74887 0.49828
 C50 C 1.20237 0.73938 0.43780
 C51 C 1.21688 0.75193 0.38205
 C52 C 1.24385 0.77231 0.38493
 C53 C 1.25726 0.78180 0.44388
 C54 C 1.24265 0.77009 0.50134
 C55 C 1.21442 0.74461 0.61410
 C56 C 1.24133 0.76541 0.61716
 C57 C 1.25594 0.77842 0.56155
 C58 C 1.28412 0.79758 0.56391
 C59 C 1.29837 0.80729 0.50635
 C60 C 1.28544 0.80087 0.44673
 H61 H 1.20773 0.74550 0.33527
 H62 H 1.25429 0.77964 0.33992
 H63 H 1.20484 0.73477 0.65847
 H64 H 1.25093 0.77017 0.66361
 H65 H 1.14206 0.68642 0.48689
 H66 H 1.31975 0.82250 0.50838
 C67 C 0.79805 0.50083 0.44100
 C68 C 0.80667 0.49527 0.49847
 C69 C 0.79912 0.50084 0.55801
 C70 C 0.78059 0.51060 0.55981
 C71 C 0.77046 0.51488 0.50166
 C72 C 0.77953 0.51035 0.44211
 C73 C 0.76943 0.51490 0.38520
 C74 C 0.75067 0.52360 0.38651
 C75 C 0.74100 0.52775 0.44478
 C76 C 0.75101 0.52350 0.50297
 C77 C 0.77077 0.51476 0.61791
 C78 C 0.75216 0.52368 0.61911
 C79 C 0.74125 0.52734 0.56235
 C80 C 0.72169 0.53583 0.56319
 C81 C 0.71325 0.54124 0.50480
 C82 C 0.72163 0.53617 0.44619
 H83 H 0.77572 0.51145 0.33899
 H84 H 0.74382 0.52711 0.34123
 H85 H 0.77700 0.51080 0.66343
 H86 H 0.74653 0.52776 0.66542
 H87 H 0.82144 0.48863 0.49648
 H88 H 0.69752 0.54661 0.50451
 C89 C 0.44537 0.17565 0.55836
 C90 C 0.44129 0.16207 0.49989
 C91 C 0.44417 0.17534 0.44168
 C92 C 0.44988 0.20269 0.44162
 C93 C 0.45366 0.21668 0.50050
 C94 C 0.45141 0.20313 0.55906
 C95 C 0.45563 0.21749 0.61671
 C96 C 0.46290 0.24490 0.61696
 C97 C 0.46554 0.25895 0.55959
 C98 C 0.46088 0.24463 0.50066
 C99 C 0.45217 0.21646 0.38414
 C100 C 0.45939 0.24384 0.38418
 C101 C 0.46427 0.25841 0.44176
 C102 C 0.47330 0.28661 0.44197
 C103 C 0.47905 0.30067 0.49999
 C104 C 0.47465 0.28735 0.55899
 H105 H 0.45370 0.20774 0.66234
 H106 H 0.46719 0.25509 0.66280
 H107 H 0.44861 0.20621 0.33842
 H108 H 0.46162 0.25364 0.33848
 H109 H 0.43792 0.14145 0.49956
 H110 H 0.48559 0.32227 0.49903
 C111 C 0.70885 0.19144 0.55820
 C112 C 0.69546 0.18314 0.49953
 C113 C 0.70929 0.19242 0.44169
 C114 C 0.73738 0.21137 0.44211
 C115 C 0.75123 0.22057 0.50139
 C116 C 0.73699 0.21022 0.55964
 C117 C 0.75121 0.21898 0.61758
 C118 C 0.77879 0.23792 0.61850
 C119 C 0.79313 0.24979 0.56169
 C120 C 0.77934 0.24022 0.50239
 C121 C 0.75189 0.22157 0.38500
 C122 C 0.77943 0.24057 0.38594
 C123 C 0.79344 0.25049 0.44402
 C124 C 0.82126 0.27032 0.44507
 C125 C 0.83483 0.27886 0.50362
 C126 C 0.82116 0.26995 0.56232
 H127 H 0.74115 0.21126 0.66294
 H128 H 0.78879 0.24293 0.66447
 H129 H 0.74203 0.21505 0.33896
 H130 H 0.78969 0.24735 0.34047
 H131 H 0.67395 0.16837 0.49882
 H132 H 0.85586 0.29505 0.50312
 N133 N 0.96365 0.51473 0.06863
 N134 N 0.94205 0.51687 0.07984
 N135 N 1.02265 0.53459 0.11112
 N136 N 1.04242 0.54989 0.15090
 N137 N 1.02020 0.54964 0.06711
 N138 N 1.03815 0.57575 0.07627
 N139 N 0.96617 0.49969 0.11255
 N140 N 0.94643 0.49117 0.15465
 C141 C 0.93141 0.50188 0.13361
 C142 C 1.05196 0.57551 0.12869
 N143 N 1.03260 0.47274 0.07064
 N144 N 1.05394 0.47039 0.08399
 N145 N 0.97363 0.45324 0.11439
 N146 N 0.95465 0.43857 0.15631
 N147 N 0.97612 0.43744 0.07221
 N148 N 0.95888 0.41144 0.08473
 N149 N 1.02986 0.48818 0.11341
 N150 N 1.04912 0.49674 0.15666
 Mn151 Mn 0.99804 0.49391 0.11338
 C152 C 1.06415 0.48573 0.13774
 C153 C 0.94552 0.41256 0.13726
 N154 N 1.01961 0.54827 -0.07124
 N155 N 1.03583 0.57424 -0.08631
 N156 N 0.96509 0.49741 -0.11169
 N157 N 0.94560 0.48893 -0.15438
 N158 N 0.96297 0.51334 -0.06925
 N159 N 0.94180 0.51603 -0.08202
 N160 N 1.02119 0.53226 -0.11440
 N161 N 1.03820 0.54673 -0.16002
 Mn162 Mn 0.99160 0.53182 -0.00117
 C163 C 1.04741 0.57283 -0.14176
 C164 C 0.93106 0.50045 -0.13516
 N165 N 0.97543 0.43599 -0.06617
 N166 N 0.95798 0.40977 -0.07612
 N167 N 1.02878 0.48592 -0.11221
 N168 N 1.04814 0.49434 -0.15519
 N169 N 1.03197 0.47141 -0.06796
 N170 N 1.05374 0.46960 -0.07989
 N171 N 0.97240 0.45096 -0.10941
 N172 N 0.95276 0.43554 -0.14934
 Mn173 Mn 1.00413 0.45409 0.00218
 Mn174 Mn 0.99684 0.49159 -0.11236
 Cl175 Cl 0.99767 0.49286 0.00050
 C176 C 0.94385 0.40992 -0.12806
 C177 C 1.06369 0.48418 -0.13454
 N178 N 0.47790 0.45009 0.07076
 N179 N 0.47251 0.42494 0.08272
 N180 N 0.46546 0.49555 0.11098
 N181 N 0.45180 0.50197 0.15126
 N182 N 0.44932 0.47846 0.06724
 N183 N 0.42413 0.47261 0.07698
 N184 N 0.49383 0.46700 0.11507
 N185 N 0.49981 0.45391 0.15802
 C186 C 0.48650 0.42771 0.13726
 C187 C 0.42607 0.48765 0.12937
 N188 N 0.53310 0.56302 0.06976
 N189 N 0.53925 0.58845 0.08061
 N190 N 0.54424 0.51791 0.11667
 N191 N 0.55712 0.51193 0.16009
 N192 N 0.56120 0.53439 0.07343
 N193 N 0.58614 0.54030 0.08661
 N194 N 0.51586 0.54656 0.11260
 N195 N 0.50961 0.56031 0.15342
 Mn196 Mn 0.50482 0.50676 0.11449
 C197 C 0.52422 0.58640 0.13259
 C198 C 0.58322 0.52593 0.14060
 N199 N 0.45073 0.47835 -0.07089
 N200 N 0.42570 0.47189 -0.08565
 N201 N 0.49615 0.46671 -0.11062
 N202 N 0.50212 0.45350 -0.15335
 N203 N 0.47931 0.44982 -0.06775
 N204 N 0.47338 0.42450 -0.08044
 N205 N 0.46783 0.49497 -0.11379
 N206 N 0.45501 0.50006 -0.15892
 Mn207 Mn 0.46399 0.46383 -0.00014
 C208 C 0.42880 0.48579 -0.14066
 C209 C 0.48801 0.42724 -0.13393
 N210 N 0.56268 0.53416 -0.06458
 N211 N 0.58787 0.54017 -0.07496
 N212 N 0.51819 0.54611 -0.11175
 N213 N 0.51263 0.55962 -0.15454
 N214 N 0.53450 0.56278 -0.06767
 N215 N 0.54062 0.58812 -0.07946
 N216 N 0.54649 0.51733 -0.10860
 N217 N 0.56009 0.51111 -0.14954
 Mn218 Mn 0.54814 0.54883 0.00277
 Mn219 Mn 0.50716 0.50630 -0.11170
 Cl220 Cl 0.50600 0.50640 0.00137
 C221 C 0.58585 0.52536 -0.12784
 C222 C 0.52665 0.58580 -0.13360
 N223 N 0.43783 -0.03387 0.07074
 N224 N 0.41378 -0.05501 0.08437
 N225 N 0.47865 0.02594 0.11132
 N226 N 0.48291 0.04528 0.15267
 N227 N 0.46072 0.02317 0.06834
 N228 N 0.45213 0.04049 0.07977
 N229 N 0.45561 -0.03098 0.11424
 N230 N 0.44427 -0.04996 0.15831
 C231 C 0.41824 -0.06495 0.13907
 C232 C 0.46639 0.05431 0.13231
 N233 N 0.54902 0.03397 0.06768
 N234 N 0.57341 0.05491 0.07924
 N235 N 0.50857 -0.02478 0.11384
 N236 N 0.50430 -0.04375 0.15607
 N237 N 0.52581 -0.02307 0.07009
 N238 N 0.53395 -0.04068 0.08173
 N239 N 0.53183 0.03238 0.11141
 N240 N 0.54401 0.05218 0.15379
 Mn241 Mn 0.49367 0.00067 0.11327
 C242 C 0.56991 0.06625 0.13287
 C243 C 0.52018 -0.05359 0.13536
 N244 N 0.46018 0.02200 -0.07011
 N245 N 0.45192 0.03952 -0.08228
 N246 N 0.45459 -0.03304 -0.11153
 N247 N 0.44287 -0.05293 -0.15372
 N248 N 0.43721 -0.03515 -0.06768
 N249 N 0.41308 -0.05666 -0.07908
 N250 N 0.47774 0.02397 -0.11331
 N251 N 0.48206 0.04291 -0.15561
 Mn252 Mn 0.44862 -0.00603 0.00032
 C253 C 0.46594 0.05255 -0.13566
 C254 C 0.41703 -0.06766 -0.13287
 N255 N 0.52525 -0.02424 -0.06787
 N256 N 0.53344 -0.04192 -0.07835
 N257 N 0.53095 0.03038 -0.11359
 N258 N 0.54282 0.04976 -0.15684
 N259 N 0.54839 0.03272 -0.06976
 N260 N 0.57261 0.05372 -0.08203
 N261 N 0.50756 -0.02682 -0.11127
 N262 N 0.50294 -0.04653 -0.15191
 Mn263 Mn 0.53739 0.00486 0.00001
 Mn264 Mn 0.49272 -0.00135 -0.11304
 Cl265 Cl 0.49308 -0.00046 0.00014
 C266 C 0.51913 -0.05585 -0.13064
 C267 C 0.56877 0.06430 -0.13628
 C268 C 1.15180 0.49552 0.29497
 C269 C 1.15637 0.47348 0.30147
 C270 C 1.17380 0.47385 0.34892
 C271 C 1.18685 0.49618 0.39123
 C272 C 1.18308 0.51862 0.38268
 C273 C 1.16624 0.51851 0.33453
 C274 C 1.13024 0.49368 0.25195
 C275 C 1.11422 0.50463 0.27219
 C276 C 1.09328 0.50237 0.23418
 C277 C 1.08738 0.48875 0.17514
 C278 C 1.10327 0.47776 0.15426
 C279 C 1.12459 0.48026 0.19234
 H280 H 1.17557 0.45586 0.35533
 H281 H 1.19307 0.53629 0.41386
 H282 H 1.08131 0.51091 0.25191
 H283 H 1.09915 0.46719 0.10883
 H284 H 1.16388 0.53620 0.32965
 H285 H 1.11736 0.51440 0.31844
 H286 H 1.14533 0.45531 0.27240
 H287 H 1.13663 0.47174 0.17515
 C288 C 0.53653 0.67532 0.28868
 C289 C 0.55848 0.68463 0.33069
 C290 C 0.56160 0.70233 0.38059
 C291 C 0.54334 0.71190 0.38835
 C292 C 0.52188 0.70330 0.34443
 C293 C 0.51833 0.68489 0.29547
 C294 C 0.53161 0.65378 0.24195
 C295 C 0.55168 0.65774 0.19764
 C296 C 0.54861 0.63607 0.15956
 C297 C 0.52577 0.60996 0.16655
 C298 C 0.50531 0.60623 0.20950
 C299 C 0.50809 0.62807 0.24648
 H300 H 0.57830 0.70849 0.41357
 H301 H 0.50689 0.70945 0.35034
 H302 H 0.56469 0.63943 0.12687
 H303 H 0.48747 0.58629 0.21551
 H304 H 0.50108 0.67762 0.26380
 H305 H 0.57001 0.67743 0.19382
 H306 H 0.57256 0.67721 0.32658
 H307 H 0.49253 0.62459 0.28094
 C308 C 0.33731 -0.15087 0.29723
 C309 C 0.31157 -0.15370 0.30417
 C310 C 0.29373 -0.17078 0.35133
 C311 C 0.30131 -0.18532 0.39276
 C312 C 0.32670 -0.18315 0.38398
 C313 C 0.34422 -0.16655 0.33626
 C314 C 0.35787 -0.12989 0.25399
 C315 C 0.38499 -0.11480 0.27393
 C316 C 0.40444 -0.09422 0.23569
 C317 C 0.39734 -0.08790 0.17671
 C318 C 0.37034 -0.10299 0.15604
 C319 C 0.35075 -0.12386 0.19438
 H320 H 0.27476 -0.17119 0.35808
 H321 H 0.33308 -0.19427 0.41450
 H322 H 0.42505 -0.08288 0.25315
 H323 H 0.36436 -0.09853 0.11065
 H324 H 0.36358 -0.16543 0.33113
 H325 H 0.39115 -0.11832 0.32012
 H326 H 0.30575 -0.14161 0.27559
 H327 H 0.33007 -0.13525 0.17743
 C328 C 0.84407 0.49625 0.28459
 C329 C 0.84522 0.52104 0.29943
 C330 C 0.82886 0.52218 0.34765
 C331 C 0.81098 0.49856 0.38162
 C332 C 0.80872 0.47355 0.36463
 C333 C 0.82498 0.47237 0.31630
 C334 C 0.86459 0.49587 0.24158
 C335 C 0.87671 0.48050 0.25839
 C336 C 0.89788 0.48199 0.22214
 C337 C 0.90751 0.49889 0.16816
 C338 C 0.89492 0.51362 0.14986
 C339 C 0.87369 0.51219 0.18638
 H340 H 0.83122 0.54175 0.36091
 H341 H 0.79515 0.45516 0.39064
 H342 H 0.90714 0.47034 0.23737
 H343 H 0.90189 0.52673 0.10831
 H344 H 0.82331 0.45290 0.30532
 H345 H 0.87056 0.46810 0.30113
 H346 H 0.85991 0.53985 0.27656
 H347 H 0.86461 0.52409 0.17190
 C348 C 0.48181 0.33999 0.28794
 C349 C 0.45627 0.31748 0.30263
 C350 C 0.45364 0.29892 0.35004
 C351 C 0.47650 0.30250 0.38324
 C352 C 0.50213 0.32404 0.36629
 C353 C 0.50479 0.34250 0.31882
 C354 C 0.48422 0.36218 0.24574
 C355 C 0.50160 0.38960 0.26306
 C356 C 0.50264 0.41073 0.22689
 C357 C 0.48633 0.40503 0.17242
 C358 C 0.46938 0.37770 0.15392
 C359 C 0.46826 0.35645 0.19039
 H360 H 0.43366 0.28263 0.36325
 H361 H 0.51996 0.32720 0.39174
 H362 H 0.51592 0.43158 0.24238
 H363 H 0.45663 0.37273 0.11203
 H364 H 0.52478 0.35934 0.30786
 H365 H 0.51379 0.39478 0.30597
 H366 H 0.43815 0.31510 0.28027
 H367 H 0.45481 0.33554 0.17557
 C368 C 0.65612 0.14973 0.28569
 C369 C 0.67859 0.14662 0.29799
 C370 C 0.69705 0.16192 0.34614
 C371 C 0.69341 0.18064 0.38251
 C372 C 0.67188 0.18486 0.36810
 C373 C 0.65349 0.16967 0.31987
 C374 C 0.63414 0.13038 0.24247
 C375 C 0.60695 0.11955 0.26054
 C376 C 0.58613 0.09931 0.22376
 C377 C 0.59196 0.08939 0.16808
 C378 C 0.61903 0.10079 0.14860
 C379 C 0.63994 0.12106 0.18556
 H380 H 0.71332 0.15809 0.35741
 H381 H 0.66869 0.19911 0.39606
 H382 H 0.56546 0.09093 0.23994
 H383 H 0.62409 0.09358 0.10570
 H384 H 0.63665 0.17284 0.31086
 H385 H 0.60177 0.12591 0.30459
 H386 H 0.68102 0.13122 0.27311
 H387 H 0.66066 0.12920 0.17008
 C388 C 0.45270 0.12985 -0.28801
 C389 C 0.42744 0.12084 -0.31712
 C390 C 0.42463 0.13642 -0.36500
 C391 C 0.44689 0.16144 -0.38375
 C392 C 0.47179 0.17102 -0.35269
 C393 C 0.47467 0.15541 -0.30520
 C394 C 0.45682 0.11152 -0.24488
 C395 C 0.47921 0.10803 -0.25410
 C396 C 0.48231 0.08924 -0.21759
 C397 C 0.46325 0.07369 -0.17053
 C398 C 0.44125 0.07769 -0.15974
 C399 C 0.43793 0.09630 -0.19702
 H400 H 0.40536 0.12852 -0.38912
 H401 H 0.48932 0.19006 -0.36723
 H402 H 0.49949 0.08663 -0.22687
 H403 H 0.42625 0.06591 -0.12378
 H404 H 0.49431 0.16291 -0.28328
 H405 H 0.49389 0.11917 -0.29117
 H406 H 0.41027 0.10109 -0.30536
 H407 H 0.42055 0.09869 -0.18882
 C408 C 0.67285 0.53308 -0.28163
 C409 C 0.67821 0.51176 -0.29136
 C410 C 0.69564 0.51335 -0.34019
 C411 C 0.70789 0.53621 -0.38094
 C412 C 0.70282 0.55776 -0.36988
 C413 C 0.68584 0.55638 -0.32023
 C414 C 0.65159 0.52990 -0.23635
 C415 C 0.65629 0.55073 -0.19272
 C416 C 0.63515 0.54873 -0.15491
 C417 C 0.60892 0.52618 -0.16142
 C418 C 0.60442 0.50507 -0.20385
 C419 C 0.62562 0.50679 -0.24052
 H420 H 0.69803 0.49582 -0.34874
 H421 H 0.71180 0.57563 -0.40029
 H422 H 0.63908 0.56530 -0.12264
 H423 H 0.58438 0.48744 -0.20956
 H424 H 0.68174 0.57294 -0.31408
 H425 H 0.67618 0.56874 -0.18881
 H426 H 0.66818 0.49348 -0.26246
 H427 H 0.62145 0.49061 -0.27430
 C428 C 0.86684 0.31930 -0.28106
 C429 C 0.87778 0.30764 -0.32181
 C430 C 0.86237 0.29047 -0.37193
 C431 C 0.83536 0.28393 -0.38160
 C432 C 0.82418 0.29481 -0.33869
 C433 C 0.83975 0.31230 -0.28919
 C434 C 0.88455 0.34114 -0.23556
 C435 C 0.90261 0.33826 -0.19529
 C436 C 0.92116 0.36022 -0.15745
 C437 C 0.92228 0.38550 -0.16061
 C438 C 0.90374 0.38808 -0.19953
 C439 C 0.88493 0.36608 -0.23619
 H440 H 0.87173 0.28252 -0.40377
 H441 H 0.80396 0.29139 -0.34591
 H442 H 0.93535 0.35780 -0.12796
 H443 H 0.90414 0.40735 -0.20269
 H444 H 0.83092 0.32120 -0.25862
 H445 H 0.90266 0.31919 -0.19401
 H446 H 0.89873 0.31297 -0.31702
 H447 H 0.87147 0.36896 -0.26732
 C448 C 0.53620 -0.12945 -0.28596
 C449 C 0.51843 -0.15761 -0.29305
 C450 C 0.52226 -0.17208 -0.34231
 C451 C 0.54366 -0.15850 -0.38618
 C452 C 0.56156 -0.13027 -0.37809
 C453 C 0.55812 -0.11604 -0.32795
 C454 C 0.53057 -0.11332 -0.23943
 C455 C 0.50589 -0.11372 -0.24216
 C456 C 0.50190 -0.09548 -0.20527
 C457 C 0.52232 -0.07696 -0.16409
 C458 C 0.54647 -0.07756 -0.15877
 C459 C 0.55071 -0.09538 -0.19685
 H460 H 0.50750 -0.19354 -0.34844
 H461 H 0.57820 -0.11916 -0.41098
 H462 H 0.48307 -0.09544 -0.20997
 H463 H 0.56254 -0.06339 -0.12746
 H464 H 0.57185 -0.09423 -0.32375
 H465 H 0.49022 -0.12722 -0.27518
 H466 H 0.50121 -0.16823 -0.26148
 H467 H 0.56992 -0.09475 -0.19429
 C468 C 0.34545 0.48461 -0.29930
 C469 C 0.35395 0.50479 -0.34668
 C470 C 0.33607 0.50348 -0.39334
 C471 C 0.30881 0.48265 -0.39257
 C472 C 0.29960 0.46361 -0.34234
 C473 C 0.31785 0.46447 -0.29628
 C474 C 0.36601 0.48377 -0.25731
 C475 C 0.36072 0.47573 -0.19281
 C476 C 0.38089 0.47583 -0.15437
 C477 C 0.40665 0.48426 -0.17981
 C478 C 0.41165 0.49173 -0.24431
 C479 C 0.39157 0.49118 -0.28264
 H480 H 0.34366 0.51866 -0.43094
 H481 H 0.27879 0.44705 -0.34121
 H482 H 0.37657 0.46993 -0.10467
 H483 H 0.43115 0.49784 -0.26558
 H484 H 0.31065 0.44856 -0.26053
 H485 H 0.34125 0.46989 -0.17180
 H486 H 0.37477 0.52124 -0.34912
 H487 H 0.39615 0.49649 -0.33256
 C488 C 1.12502 0.65882 -0.30422
 C489 C 1.13496 0.64992 -0.35462
 C490 C 1.15180 0.66808 -0.40082
 C491 C 1.16019 0.69598 -0.39691
 C492 C 1.15188 0.70542 -0.34415
 C493 C 1.13428 0.68692 -0.29826
 C494 C 1.10388 0.63818 -0.26135
 C495 C 1.10341 0.64267 -0.19520
 C496 C 1.08436 0.62182 -0.15564
 C497 C 1.06587 0.59623 -0.18180
 C498 C 1.06570 0.59225 -0.24793
 C499 C 1.08417 0.61302 -0.28722
 H500 H 1.15821 0.66026 -0.44035
 H501 H 1.15764 0.72674 -0.34050
 H502 H 1.08476 0.62529 -0.10462
 H503 H 1.05129 0.57288 -0.26947
 H504 H 1.12696 0.69440 -0.26002
 H505 H 1.11827 0.66186 -0.17385
 H506 H 1.12912 0.62863 -0.35944
 H507 H 1.08317 0.60915 -0.33815
 C508 C 0.84520 0.49528 -0.29104
 C509 C 0.84262 0.51857 -0.29698
 C510 C 0.82608 0.51986 -0.34440
 C511 C 0.81187 0.49795 -0.38723
 C512 C 0.81368 0.47429 -0.37938
 C513 C 0.82969 0.47279 -0.33127
 C514 C 0.86587 0.49532 -0.24791
 C515 C 0.88055 0.48288 -0.26816
 C516 C 0.90112 0.48405 -0.23046
 C517 C 0.90790 0.49800 -0.17181
 C518 C 0.89314 0.51019 -0.15067
 C519 C 0.87224 0.50881 -0.18836
 H520 H 0.82599 0.53878 -0.35044
 H521 H 0.80282 0.45695 -0.41112
 H522 H 0.91220 0.47454 -0.24824
 H523 H 0.89793 0.52101 -0.10547
 H524 H 0.83056 0.45423 -0.32694
 H525 H 0.87678 0.47292 -0.31431
 H526 H 0.85459 0.53643 -0.26755
 H527 H 0.86118 0.51839 -0.17106
 C528 C 0.48454 0.34063 -0.28855
 C529 C 0.46096 0.31480 -0.29251
 C530 C 0.45830 0.29616 -0.34018
 C531 C 0.47905 0.30319 -0.38534
 C532 C 0.50313 0.32841 -0.37889
 C533 C 0.50605 0.34658 -0.33041
 C534 C 0.48590 0.36247 -0.24624
 C535 C 0.49886 0.38952 -0.26838
 C536 C 0.49979 0.41030 -0.23104
 C537 C 0.48738 0.40466 -0.17080
 C538 C 0.47425 0.37769 -0.14813
 C539 C 0.47357 0.35674 -0.18552
 H540 H 0.43922 0.27720 -0.34476
 H541 H 0.51964 0.33428 -0.41231
 H542 H 0.50985 0.43081 -0.25023
 H543 H 0.46454 0.37283 -0.10174
 H544 H 0.52489 0.36584 -0.32739
 H545 H 0.50782 0.39471 -0.31555
 H546 H 0.44390 0.30961 -0.26146
 H547 H 0.46351 0.33614 -0.16690
 C548 C 0.65465 0.14747 -0.28890
 C549 C 0.67708 0.14430 -0.30132
 C550 C 0.69577 0.15986 -0.34863
 C551 C 0.69245 0.17896 -0.38382
 C552 C 0.67085 0.18312 -0.36943
 C553 C 0.65217 0.16760 -0.32220
 C554 C 0.63266 0.12814 -0.24609
 C555 C 0.60549 0.11699 -0.26463
 C556 C 0.58470 0.09678 -0.22793
 C557 C 0.59062 0.08730 -0.17186
 C558 C 0.61768 0.09905 -0.15200
 C559 C 0.63852 0.11924 -0.18889
 H560 H 0.71206 0.15606 -0.36000
 H561 H 0.66789 0.19764 -0.39659
 H562 H 0.56402 0.08810 -0.24433
 H563 H 0.62280 0.09219 -0.10879
 H564 H 0.63529 0.17072 -0.31310
 H565 H 0.60032 0.12311 -0.30891
 H566 H 0.67934 0.12873 -0.27707
 H567 H 0.65925 0.12765 -0.17315
 C568 C 1.15481 0.49703 -0.28386
 C569 C 1.16071 0.47580 -0.28889
 C570 C 1.17847 0.47651 -0.33618
 C571 C 1.19035 0.49829 -0.37997
 C572 C 1.18583 0.52030 -0.37169
 C573 C 1.16874 0.51990 -0.32368
 C574 C 1.13223 0.49427 -0.24292
 C575 C 1.11540 0.50382 -0.26577
 C576 C 1.09357 0.50076 -0.22984
 C577 C 1.08759 0.48774 -0.17023
 C578 C 1.10422 0.47805 -0.14687
 C579 C 1.12639 0.48131 -0.18292
 H580 H 1.18096 0.45892 -0.34196
 H581 H 1.19503 0.53763 -0.40376
 H582 H 1.08106 0.50828 -0.24952
 H583 H 1.10006 0.46795 -0.10098
 H584 H 1.16550 0.53708 -0.31969
 H585 H 1.11864 0.51314 -0.31245
 H586 H 1.15025 0.45780 -0.25926
 H587 H 1.13897 0.47379 -0.16381
 C588 C 0.53706 0.67552 -0.28446
 C589 C 0.56259 0.69266 -0.31175
 C590 C 0.56562 0.71101 -0.35992
 C591 C 0.54330 0.71285 -0.38055
 C592 C 0.51813 0.69688 -0.35096
 C593 C 0.51499 0.67825 -0.30339
 C594 C 0.53300 0.65308 -0.24142
 C595 C 0.55118 0.65774 -0.19136
 C596 C 0.54857 0.63595 -0.15470
 C597 C 0.52804 0.60910 -0.16830
 C598 C 0.50954 0.60453 -0.21743
 C599 C 0.51189 0.62633 -0.25336
 H600 H 0.58508 0.72294 -0.38306
 H601 H 0.50064 0.69784 -0.36705
 H602 H 0.56310 0.64001 -0.11704
 H603 H 0.49349 0.58404 -0.22877
 H604 H 0.49515 0.66534 -0.28284
 H605 H 0.56757 0.67820 -0.18117
 H606 H 0.57983 0.69072 -0.29850
 H607 H 0.49780 0.62215 -0.29218
 C608 C 0.33459 -0.15739 -0.28183
 C609 C 0.30838 -0.16116 -0.28674
 C610 C 0.29055 -0.17808 -0.33445
 C611 C 0.29876 -0.19121 -0.37885
 C612 C 0.32422 -0.18891 -0.37070
 C613 C 0.34164 -0.17269 -0.32221
 C614 C 0.35559 -0.13550 -0.24052
 C615 C 0.38234 -0.12019 -0.26291
 C616 C 0.40214 -0.09869 -0.22703
 C617 C 0.39578 -0.09153 -0.16801
 C618 C 0.36916 -0.10677 -0.14489
 C619 C 0.34922 -0.12861 -0.18082
 H620 H 0.27135 -0.17887 -0.34009
 H621 H 0.33100 -0.19914 -0.40330
 H622 H 0.42241 -0.08727 -0.24643
 H623 H 0.36373 -0.10169 -0.09940
 H624 H 0.36122 -0.17115 -0.31834
 H625 H 0.38797 -0.12424 -0.30933
 H626 H 0.30230 -0.14960 -0.25673
 H627 H 0.32887 -0.14004 -0.16195
 C628 C 0.53586 -0.12956 0.28582
 C629 C 0.51475 -0.15567 0.30273
 C630 C 0.51854 -0.17056 0.35059
 C631 C 0.54342 -0.15949 0.38252
 C632 C 0.56488 -0.13396 0.36388
 C633 C 0.56121 -0.11920 0.31546
 C634 C 0.53072 -0.11200 0.24264
 C635 C 0.50803 -0.10910 0.25273
 C636 C 0.50439 -0.09047 0.21690
 C637 C 0.52318 -0.07463 0.16964
 C638 C 0.54536 -0.07821 0.15778
 C639 C 0.54924 -0.09658 0.19443
 H640 H 0.50168 -0.19009 0.36504
 H641 H 0.58409 -0.12500 0.38872
 H642 H 0.48707 -0.08817 0.22687
 H643 H 0.56014 -0.06622 0.12161
 H644 H 0.57770 -0.09901 0.30383
 H645 H 0.49363 -0.12049 0.29011
 H646 H 0.49507 -0.16413 0.28037
 H647 H 0.56686 -0.09852 0.18568
 C648 C 0.33815 0.48106 0.27818
 C649 C 0.33582 0.50383 0.29485
 C650 C 0.31843 0.50203 0.34399
 C651 C 0.30317 0.47747 0.37726
 C652 C 0.30445 0.45437 0.35876
 C653 C 0.32165 0.45607 0.30920
 C654 C 0.35988 0.48409 0.23440
 C655 C 0.35498 0.46425 0.18763
 C656 C 0.37635 0.46593 0.15128
 C657 C 0.40297 0.48720 0.16204
 C658 C 0.40770 0.50739 0.20749
 C659 C 0.38637 0.50595 0.24301
 H660 H 0.31792 0.52014 0.35833
 H661 H 0.29308 0.43538 0.38469
 H662 H 0.37219 0.45010 0.11651
 H663 H 0.42803 0.52406 0.21658
 H664 H 0.32330 0.43832 0.29786
 H665 H 0.33471 0.44724 0.18000
 H666 H 0.34823 0.52328 0.27148
 H667 H 0.39080 0.52132 0.27927
 C668 C 1.13156 0.66763 0.27401
 C669 C 1.15726 0.67162 0.28891
 C670 C 1.17256 0.68927 0.33834
 C671 C 1.16249 0.70332 0.37356
 C672 C 1.13752 0.70056 0.35650
 C673 C 1.12224 0.68299 0.30676
 C674 C 1.11315 0.64504 0.23090
 C675 C 1.09682 0.64837 0.18587
 C676 C 1.07755 0.62599 0.15030
 C677 C 1.07401 0.59990 0.16024
 C678 C 1.09082 0.59678 0.20399
 C679 C 1.11026 0.61911 0.23865
 H680 H 1.19159 0.69083 0.35150
 H681 H 1.12928 0.71094 0.38383
 H682 H 1.06479 0.62888 0.11686
 H683 H 1.08859 0.57691 0.21242
 H684 H 1.10239 0.68006 0.29680
 H685 H 1.09871 0.66818 0.17897
 H686 H 1.16496 0.66013 0.26416
 H687 H 1.12226 0.61582 0.27363
 C688 C 0.45123 0.13041 0.28505
 C689 C 0.47261 0.15662 0.30042
 C690 C 0.46969 0.17186 0.34901
 C691 C 0.44530 0.16124 0.38297
 C692 C 0.42350 0.13556 0.36594
 C693 C 0.42637 0.12033 0.31697
 C694 C 0.45584 0.11255 0.24127
 C695 C 0.43658 0.09633 0.19490
 C696 C 0.44039 0.07801 0.15739
 C697 C 0.46326 0.07534 0.16660
 C698 C 0.48270 0.09197 0.21200
 C699 C 0.47911 0.11046 0.24868
 H700 H 0.48688 0.19143 0.36216
 H701 H 0.40466 0.12691 0.39222
 H702 H 0.42508 0.06536 0.12273
 H703 H 0.50055 0.09036 0.21999
 H704 H 0.40969 0.10006 0.30657
 H705 H 0.41851 0.09764 0.18820
 H706 H 0.49192 0.16490 0.27632
 H707 H 0.49410 0.12243 0.28462
 C708 C 0.66994 0.53242 0.29394
 C709 C 0.67117 0.50916 0.31122
 C710 C 0.68924 0.51085 0.35819
 C711 C 0.70638 0.53580 0.38870
 C712 C 0.70594 0.55929 0.36988
 C713 C 0.68800 0.55767 0.32239
 C714 C 0.64820 0.52984 0.25109
 C715 C 0.65371 0.54874 0.20191
 C716 C 0.63265 0.54702 0.16445
 C717 C 0.60576 0.52668 0.17641
 C718 C 0.60035 0.50757 0.22494
 C719 C 0.62137 0.50905 0.26166
 H720 H 0.68901 0.49243 0.37286
 H721 H 0.71877 0.57862 0.39362
 H722 H 0.63733 0.56202 0.12732
 H723 H 0.57979 0.49165 0.23505
 H724 H 0.68722 0.57583 0.31038
 H725 H 0.67425 0.56489 0.19277
 H726 H 0.65755 0.48951 0.28973
 H727 H 0.61654 0.49442 0.29979
 C728 C 0.86798 0.32242 0.29052
 C729 C 0.84283 0.31949 0.30686
 C730 C 0.82708 0.30150 0.35499
 C731 C 0.83600 0.28583 0.38731
 C732 C 0.86058 0.28784 0.36933
 C733 C 0.87639 0.30588 0.32098
 C734 C 0.88653 0.34469 0.24716
 C735 C 0.90181 0.34059 0.20038
 C736 C 0.92049 0.36243 0.16275
 C737 C 0.92441 0.38873 0.17215
 C738 C 0.90879 0.39264 0.21812
 C739 C 0.89002 0.37088 0.25501
 H740 H 0.80841 0.30060 0.36887
 H741 H 0.86794 0.27616 0.39432
 H742 H 0.93234 0.35893 0.12764
 H743 H 0.91134 0.41268 0.22633
 H744 H 0.89583 0.30796 0.30986
 H745 H 0.89942 0.32056 0.19327
 H746 H 0.83578 0.33184 0.28384
 H747 H 0.87886 0.37478 0.29129
   
