data_POSCAR
  _audit_creation_date              2014-09-24
  _audit_creation_method            'ToBaCCo'
  _symmetry_space_group_name_H-M    'P1'
  _symmetry_Int_Tables_number       1
  _symmetry_cell_setting            triclinic
  loop_
  _symmetry_equiv_pos_as_xyz
 x,y,z
_cell_length_a 21.1603
_cell_length_b 20.8497
_cell_length_c 52.7155
_cell_angle_alpha 88.403800
_cell_angle_beta 94.712100
_cell_angle_gamma 118.650300
loop_
  _atom_site_label
  _atom_site_type_symbol
  _atom_site_fract_x
  _atom_site_fract_y
  _atom_site_fract_z
C1 C 0.07250 0.16111 0.53192
 H2 H 0.12448 0.16263 0.53303
 C3 C 0.06173 0.20730 0.54739
 H4 H 0.10558 0.24412 0.56057
 C5 C -0.04805 0.10997 0.51355
 H6 H -0.09029 0.07186 0.50024
 C7 C -0.06059 0.15714 0.52826
 H8 H -0.11259 0.15572 0.52611
 N9 N 0.01752 0.11231 0.51599
 C10 C 0.08263 -0.05505 0.51131
 H11 H 0.08966 -0.05554 0.49123
 C12 C 0.08391 -0.10966 0.52705
 H13 H 0.09271 -0.15184 0.51913
 C14 C 0.05484 -0.00440 0.54568
 H15 H 0.03931 0.03364 0.55274
 C16 C 0.05640 -0.05724 0.56205
 H17 H 0.04404 -0.05793 0.58163
 Zn18 Zn 0.04250 0.05277 0.49758
 N19 N 0.06679 -0.00472 0.52072
 C20 C 0.18913 0.12837 0.48385
 N21 N 0.12076 0.11834 0.47921
 C22 C 0.10584 0.16073 0.46239
 C23 C 0.15966 0.21315 0.44845
 C24 C 0.24573 0.18311 0.47112
 C25 C -0.08619 -0.07556 0.48634
 C26 C -0.13649 -0.13515 0.47130
 C27 C -0.08602 -0.06578 0.43392
 C28 C -0.03488 -0.00891 0.44968
 N29 N -0.03527 -0.01483 0.47543
 H30 H 0.20007 0.09531 0.49784
 H31 H 0.05156 0.15349 0.45975
 H32 H 0.14540 0.24340 0.43420
 H33 H 0.30016 0.19156 0.47530
 H34 H -0.08553 -0.07914 0.50687
 H35 H -0.17631 -0.18283 0.48057
 H36 H -0.08207 -0.05995 0.41354
 H37 H 0.00685 0.03818 0.44108
 C38 C 0.06939 -0.11158 0.55264
 C39 C -0.00568 0.20506 0.54596
 C40 C -0.13553 -0.13217 0.44457
 C41 C 0.23129 0.22688 0.45329
 C42 C 1.15051 0.01836 0.15133
 H43 H 1.17128 0.06743 0.16275
 C44 C 1.19749 0.00894 0.13673
 H45 H 1.25386 0.05011 0.13745
 C46 C 1.05199 -0.09232 0.13507
 H47 H 0.99504 -0.13075 0.13394
 C48 C 1.09730 -0.10363 0.11995
 H49 H 1.07484 -0.15077 0.10731
 N50 N 1.07909 -0.03194 0.15043
 C51 C 0.90090 0.01360 0.15822
 H52 H 0.89895 0.01119 0.17869
 C53 C 0.84523 0.01613 0.14283
 H54 H 0.80064 0.01640 0.15146
 C55 C 0.95909 0.01147 0.12191
 H56 H 1.00261 0.00774 0.11387
 C57 C 0.90475 0.01457 0.10580
 H58 H 0.90664 0.01334 0.08536
 Zn59 Zn 1.01853 -0.01038 0.16968
 N60 N 0.95551 0.00986 0.14758
 C61 C 1.08223 0.13772 0.18765
 N62 N 1.07954 0.07153 0.19107
 C63 C 1.12455 0.06233 0.20896
 C64 C 1.17365 0.12038 0.22464
 C65 C 1.13191 0.19799 0.20265
 C66 C 0.90403 -0.15187 0.17796
 C67 C 0.84996 -0.20577 0.19176
 C68 C 0.90734 -0.13292 0.22990
 C69 C 0.96000 -0.08052 0.21546
 N70 N 0.95746 -0.09028 0.18988
 H71 H 1.04719 0.14423 0.17289
 H72 H 1.12265 0.00963 0.21083
 H73 H 1.20883 0.11191 0.23884
 H74 H 1.13509 0.25093 0.19938
 H75 H 0.90054 -0.15724 0.15752
 H76 H 0.80622 -0.25318 0.18196
 H77 H 0.90882 -0.12329 0.25009
 H78 H 1.00013 -0.03036 0.22466
 C79 C 0.84651 0.01575 0.11631
 C80 C 1.17106 -0.05251 0.12078
 C81 C 0.85059 -0.19530 0.21791
 C82 C 1.17774 0.18921 0.22162
 C83 C 0.02073 0.97734 0.88126
 H84 H -0.02629 0.97204 0.88961
 C85 C 0.07369 0.97104 0.89695
 H86 H 0.06776 0.96304 0.91718
 C87 C 0.08349 0.98742 0.84486
 H88 H 0.08519 0.99001 0.82442
 C89 C 0.13765 0.98090 0.85991
 H90 H 0.18208 0.98080 0.85110
 N91 N 0.02632 0.98552 0.85568
 C92 C -0.19653 0.90361 0.85139
 H93 H -0.20786 0.86068 0.83786
 C94 C -0.25136 0.89942 0.86568
 H95 H -0.30486 0.85300 0.86267
 C96 C -0.11398 1.01797 0.87053
 H97 H -0.06022 1.06438 0.87217
 C98 C -0.16624 1.01534 0.88546
 H99 H -0.15045 1.05850 0.89943
 Zn100 Zn -0.05332 0.97815 0.83398
 N101 N -0.12958 0.96268 0.85397
 C102 C -0.08433 0.83598 0.82188
 N103 N -0.07786 0.89922 0.81160
 C104 C -0.07475 0.91081 0.78610
 C105 C -0.07272 0.85976 0.77008
 C106 C -0.08265 0.78337 0.80651
 C107 C 0.03092 1.10038 0.80261
 C108 C 0.04168 1.15947 0.78688
 C109 C -0.07407 1.14417 0.79680
 C110 C -0.08295 1.08528 0.81205
 N111 N -0.03087 1.06440 0.81479
 H112 H -0.08556 0.82879 0.84228
 H113 H -0.06912 0.96166 0.77837
 H114 H -0.06615 0.87128 0.75002
 H115 H -0.08393 0.73491 0.81502
 H116 H 0.07103 1.08229 0.80446
 H117 H 0.09001 1.18641 0.77669
 H118 H -0.11658 1.15925 0.79459
 H119 H -0.13289 1.05484 0.82100
 C120 C -0.23725 0.95697 0.88262
 C121 C 0.13205 0.97140 0.88619
 C122 C -0.01139 1.18179 0.78393
 C123 C -0.07358 0.79682 0.78050
 C124 C 0.25412 -0.10222 0.01601
 C125 C 0.24777 -0.10222 -0.01009
 C126 C 0.31592 -0.08099 -0.01788
 N127 N 0.36376 -0.06736 0.00253
 C128 C 0.32613 -0.08030 0.02328
 C129 C 0.33375 -0.06916 -0.04341
 C130 C 0.40005 -0.05854 -0.05157
 C131 C 0.42131 -0.03908 -0.07604
 C132 C 0.48681 -0.03735 -0.07669
 C133 C 0.50460 -0.05447 -0.05245
 N134 N 0.45063 -0.06891 -0.03742
 C135 C 0.56898 -0.05737 -0.04504
 C136 C 0.59386 -0.05892 -0.01943
 C137 C 0.65547 -0.06419 -0.01183
 C138 C 0.66464 -0.05680 0.01417
 C139 C 0.60847 -0.04704 0.02163
 N140 N 0.56547 -0.04805 0.00104
 C141 C 0.60137 -0.03148 0.04686
 C142 C 0.53951 -0.03037 0.05475
 C143 C 0.53537 -0.00536 0.07835
 C144 C 0.46619 -0.01570 0.07896
 C145 C 0.43005 -0.04629 0.05566
 N146 N 0.47478 -0.05602 0.04117
 C147 C 0.35693 -0.06600 0.04866
 H148 H 0.21097 -0.11525 0.02823
 H149 H 0.19877 -0.11561 -0.02198
 H150 H 0.45982 -0.08494 0.02407
 H151 H 0.39236 -0.02790 -0.09192
 H152 H 0.51792 -0.02427 -0.09316
 H153 H 0.69108 -0.07106 -0.02377
 H154 H 0.70847 -0.05724 0.02617
 H155 H 0.44507 -0.00183 0.09471
 H156 H 0.44578 -0.09086 -0.01933
 H157 H 0.57776 0.01785 0.09359
 C158 C 0.02819 0.33650 0.67714
 C159 C 0.02532 0.33846 0.65104
 C160 C 0.00366 0.38982 0.64378
 N161 N -0.00748 0.41864 0.66449
 C162 C 0.00763 0.38631 0.68490
 C163 C -0.01038 0.40564 0.61835
 C164 C -0.01475 0.46954 0.61147
 C165 C -0.03418 0.48460 0.58714
 C166 C -0.02431 0.55480 0.58785
 C167 C -0.00067 0.57993 0.61269
 N168 N 0.00563 0.52808 0.62688
 C169 C 0.01783 0.65051 0.62145
 C170 C 0.01893 0.66718 0.64732
 C171 C 0.03618 0.73552 0.65675
 C172 C 0.02438 0.72696 0.68214
 C173 C 0.00131 0.65390 0.68741
 N174 N -0.00266 0.61740 0.66607
 C175 C -0.01913 0.62144 0.71131
 C176 C -0.02837 0.55121 0.71760
 C177 C -0.05568 0.51466 0.73982
 C178 C -0.05006 0.45153 0.73974
 C179 C -0.02017 0.45100 0.71737
 N180 N -0.00644 0.51219 0.70414
 C181 C -0.00288 0.39676 0.71025
 H182 H 0.04257 0.30153 0.68900
 H183 H 0.03744 0.30562 0.63880
 H184 H 0.02382 0.52995 0.68840
 H185 H -0.05210 0.44934 0.57046
 H186 H -0.03368 0.58392 0.57194
 H187 H 0.05399 0.78596 0.64632
 H188 H 0.03198 0.76959 0.69525
 H189 H -0.06595 0.41080 0.75449
 H190 H 0.03077 0.53596 0.64516
 H191 H -0.07620 0.53232 0.75477
 C192 C 0.74552 0.67602 0.31868
 C193 C 0.75180 0.68208 0.34470
 C194 C 0.68315 0.63918 0.35271
 N195 N 0.63526 0.60712 0.33246
 C196 C 0.67327 0.62938 0.31165
 C197 C 0.66486 0.63544 0.37810
 C198 C 0.59721 0.58341 0.38641
 C199 C 0.57458 0.58369 0.41034
 C200 C 0.50934 0.52150 0.41174
 C201 C 0.49260 0.48586 0.38834
 N202 N 0.54714 0.52328 0.37321
 C203 C 0.42951 0.41909 0.38186
 C204 C 0.40604 0.39215 0.35658
 C205 C 0.34731 0.32484 0.34981
 C206 C 0.33964 0.32159 0.32375
 C207 C 0.39333 0.38734 0.31536
 N208 N 0.43363 0.43053 0.33546
 C209 C 0.40102 0.40813 0.28954
 C210 C 0.46143 0.47087 0.28113
 C211 C 0.46546 0.49915 0.25683
 C212 C 0.53403 0.55701 0.25581
 C213 C 0.56984 0.56264 0.27956
 N214 N 0.52546 0.50953 0.29478
 C215 C 0.64260 0.61417 0.28628
 H216 H 0.78894 0.70397 0.30633
 H217 H 0.80110 0.71526 0.35638
 H218 H 0.54053 0.49560 0.31244
 H219 H 0.60280 0.62367 0.42549
 H220 H 0.47802 0.50484 0.42819
 H221 H 0.31270 0.28263 0.36226
 H222 H 0.29845 0.27630 0.31232
 H223 H 0.55512 0.59097 0.23944
 H224 H 0.55312 0.50471 0.35598
 H225 H 0.42350 0.47978 0.24136
 C226 C 0.03420 0.37761 0.58033
 C227 C 0.03461 0.32918 0.56284
 C228 C -0.01618 0.25459 0.56279
 C229 C -0.07087 0.22921 0.58017
 C230 C -0.07310 0.27947 0.59723
 C231 C -0.01828 0.35359 0.59794
 C232 C -0.12947 0.25350 0.61354
 N233 N -0.17813 0.18139 0.61358
 N234 N -0.17413 0.13361 0.59844
 C235 C -0.12203 0.15485 0.58191
 H236 H 0.07648 0.43404 0.58061
 H237 H 0.07676 0.34972 0.54973
 H238 H -0.13522 0.28983 0.62628
 H239 H -0.12105 0.11312 0.57057
 C240 C 0.73054 0.63759 0.25413
 C241 C 0.78098 0.68375 0.23759
 C242 C 0.78989 0.75385 0.23262
 C243 C 0.74422 0.77626 0.24337
 C244 C 0.69345 0.72961 0.26031
 C245 C 0.68788 0.66049 0.26607
 C246 C 0.65025 0.75412 0.27121
 N247 N 0.65694 0.82058 0.26509
 N248 N 0.70390 0.86405 0.24887
 C249 C 0.74765 0.84421 0.23778
 H250 H 0.72669 0.58479 0.25846
 H251 H 0.81535 0.66587 0.22942
 H252 H 0.61092 0.72091 0.28439
 H253 H 0.78418 0.88144 0.22455
 C254 C 0.27679 0.00272 -0.06195
 C255 C 0.22897 0.01297 -0.07910
 C256 C 0.18523 -0.04072 -0.09739
 C257 C 0.18960 -0.10640 -0.09834
 C258 C 0.23825 -0.11687 -0.08078
 C259 C 0.28188 -0.06175 -0.06247
 C260 C 0.24067 -0.18292 -0.08185
 N261 N 0.19703 -0.23489 -0.09941
 N262 N 0.15100 -0.22534 -0.11581
 C263 C 0.14555 -0.16312 -0.11582
 H264 H 0.30995 0.04526 -0.04800
 H265 H 0.22561 0.06306 -0.07800
 H266 H 0.27654 -0.19384 -0.06883
 H267 H 0.10658 -0.15890 -0.12939
 C268 C -0.02188 0.72616 0.59476
 C269 C -0.00902 0.78360 0.57826
 C270 C 0.05916 0.82577 0.56899
 C271 C 0.11531 0.80873 0.57628
 C272 C 0.10198 0.74981 0.59300
 C273 C 0.03302 0.70903 0.60245
 C274 C 0.15885 0.73463 0.60019
 N275 N 0.22467 0.77618 0.59127
 N276 N 0.23743 0.83199 0.57580
 C277 C 0.18519 0.84989 0.56809
 H278 H -0.07478 0.69538 0.60191
 H279 H -0.05258 0.79583 0.57284
 H280 H 0.15168 0.69034 0.61287
 H281 H 0.19902 0.89638 0.55582
 C282 C 0.35912 0.31950 0.25364
 C283 C 0.30514 0.26659 0.23745
 C284 C 0.23305 0.25168 0.23750
 C285 C 0.21582 0.29359 0.25362
 C286 C 0.27145 0.34911 0.26956
 C287 C 0.34306 0.36007 0.27017
 C288 C 0.25328 0.39099 0.28490
 N289 N 0.18354 0.37627 0.28490
 N290 N 0.13092 0.32250 0.27067
 C291 C 0.14452 0.28043 0.25517
 H292 H 0.41362 0.32732 0.25386
 H293 H 0.31947 0.23544 0.22521
 H294 H 0.29385 0.43514 0.29690
 H295 H 0.09930 0.23689 0.24446
 C296 C 0.61493 -0.11512 -0.07375
 C297 C 0.66038 -0.11217 -0.09195
 C298 C 0.70884 -0.04515 -0.10247
 C299 C 0.70530 0.01902 -0.09580
 C300 C 0.66204 0.01629 -0.07621
 C301 C 0.61672 -0.05141 -0.06518
 C302 C 0.66408 0.08153 -0.06868
 N303 N 0.70221 0.14407 -0.08143
 N304 N 0.73817 0.14560 -0.10120
 C305 C 0.74022 0.08527 -0.10902
 H306 H 0.57972 -0.16735 -0.06560
 H307 H 0.66055 -0.16244 -0.09644
 H308 H 0.63459 0.08309 -0.05310
 H309 H 0.76786 0.08942 -0.12583
 C310 C 0.29852 -0.00481 0.06913
 C311 C 0.25327 -0.00209 0.08628
 C312 C 0.21965 -0.05891 0.10345
 C313 C 0.23352 -0.11910 0.10361
 C314 C 0.27929 -0.12205 0.08595
 C315 C 0.31156 -0.06449 0.06854
 C316 C 0.29104 -0.18293 0.08623
 N317 N 0.26015 -0.23638 0.10349
 N318 N 0.21840 -0.23296 0.12041
 C319 C 0.20420 -0.17615 0.12112
 H320 H 0.32284 0.03956 0.05589
 H321 H 0.24354 0.04445 0.08591
 H322 H 0.32468 -0.18836 0.07299
 H323 H 0.17065 -0.17595 0.13547
 C324 C 0.73499 0.76550 0.39127
 C325 C 0.78532 0.82247 0.40694
 C326 C 0.81881 0.80956 0.42928
 C327 C 0.80362 0.73579 0.43446
 C328 C 0.75295 0.67786 0.41793
 C329 C 0.71787 0.69313 0.39643
 C330 C 0.74117 0.60640 0.42278
 N331 N 0.77877 0.59379 0.44250
 N332 N 0.82835 0.64794 0.45737
 C333 C 0.84288 0.71819 0.45382
 H334 H 0.70892 0.77806 0.37479
 H335 H 0.79453 0.87704 0.40219
 H336 H 0.70343 0.56055 0.41082
 H337 H 0.88704 0.75944 0.46561
 C338 C -0.05791 0.27234 0.72824
 C339 C -0.05954 0.22084 0.74588
 C340 C -0.00529 0.23980 0.76580
 C341 C 0.05167 0.31284 0.76801
 C342 C 0.05381 0.36515 0.74978
 C343 C -0.00169 0.34444 0.72983
 C344 C 0.11176 0.43672 0.75213
 N345 N 0.16286 0.45486 0.77186
 N346 N 0.15990 0.40630 0.78933
 C347 C 0.10603 0.33608 0.78814
 H348 H -0.10078 0.25582 0.71312
 H349 H -0.10357 0.16536 0.74391
 H350 H 0.11687 0.47841 0.73852
 H351 H 0.10605 0.29944 0.80304
 C352 C 0.65850 -0.06535 0.08411
 C353 C 0.71770 -0.05381 0.10079
 C354 C 0.78413 0.01003 0.09962
 C355 C 0.78996 0.06480 0.08201
 C356 C 0.72952 0.05330 0.06517
 C357 C 0.66386 -0.01312 0.06592
 C358 C 0.73685 0.10892 0.04804
 N359 N 0.80060 0.17163 0.04788
 N360 N 0.85729 0.18249 0.06373
 C361 C 0.85415 0.13137 0.08081
 H362 H 0.60861 -0.11628 0.08492
 H363 H 0.71233 -0.09614 0.11420
 H364 H 0.69240 0.10336 0.03491
 H365 H 0.90157 0.14354 0.09342
 C366 C 0.38387 0.31145 0.41011
 C367 C 0.33656 0.26527 0.42743
 C368 C 0.28925 0.28374 0.43853
 C369 C 0.29341 0.35279 0.43295
 C370 C 0.33756 0.39702 0.41389
 C371 C 0.38329 0.37606 0.40247
 C372 C 0.33449 0.46113 0.40687
 N373 N 0.29419 0.48218 0.41958
 N374 N 0.25653 0.44324 0.43866
 C375 C 0.25515 0.37968 0.44589
 H376 H 0.41877 0.29492 0.40158
 H377 H 0.33493 0.21325 0.43135
 H378 H 0.36451 0.49522 0.39168
 H379 H 0.22487 0.35130 0.46188
 C380 C -0.09598 0.66859 0.72747
 C381 C -0.10918 0.71076 0.74413
 C382 C -0.05906 0.74885 0.76449
 C383 C 0.00593 0.74429 0.76812
 C384 C 0.01912 0.70107 0.75120
 C385 C -0.03219 0.66346 0.73067
 C386 C 0.08442 0.69848 0.75499
 N387 N 0.13318 0.73695 0.77444
 N388 N 0.12127 0.77816 0.79019
 C389 C 0.05966 0.78349 0.78764
 H390 H -0.13537 0.64045 0.71171
 H391 H -0.15859 0.71442 0.74095
 H392 H 0.09732 0.66658 0.74262
 H393 H 0.05383 0.81885 0.80077
   
