data_POSCAR
  _audit_creation_date              2014-09-24
  _audit_creation_method            'ToBaCCo'
  _symmetry_space_group_name_H-M    'P1'
  _symmetry_Int_Tables_number       1
  _symmetry_cell_setting            triclinic
  loop_
  _symmetry_equiv_pos_as_xyz
 x,y,z
_cell_length_a 51.7528
_cell_length_b 51.7063
_cell_length_c 18.4063
_cell_angle_alpha 89.952700
_cell_angle_beta 90.023700
_cell_angle_gamma 119.969500
loop_
  _atom_site_label
  _atom_site_type_symbol
  _atom_site_fract_x
  _atom_site_fract_y
  _atom_site_fract_z
O1 O 0.21040 0.47074 0.43012
 O2 O 0.26126 0.47095 0.57068
 O3 O 0.21070 0.47073 0.57134
 O4 O 0.26091 0.47094 0.42945
 O5 O 0.28541 0.52032 0.42936
 O6 O 0.23519 0.52011 0.57128
 O7 O 0.28575 0.52032 0.57062
 O8 O 0.23489 0.52011 0.43003
 Cu9 Cu 0.23335 0.46587 0.50043
 Cu10 Cu 0.26278 0.52519 0.50034
 C11 C 0.21396 0.49539 0.40662
 C12 C 0.28221 0.49566 0.59406
 C13 C 0.21434 0.49538 0.59490
 C14 C 0.28174 0.49566 0.40575
 O15 O 0.52912 -0.26167 0.42855
 O16 O 0.52900 -0.21105 0.56926
 O17 O 0.52898 -0.26154 0.56983
 O18 O 0.52913 -0.21120 0.42809
 O19 O 0.47980 -0.23585 0.42780
 O20 O 0.47966 -0.28620 0.56959
 O21 O 0.47967 -0.23570 0.56902
 O22 O 0.47980 -0.28633 0.42826
 Cu23 Cu 0.53403 -0.23389 0.49897
 Cu24 Cu 0.47476 -0.26352 0.49864
 C25 C 0.50448 -0.28264 0.40489
 C26 C 0.50432 -0.21471 0.59256
 C27 C 0.50430 -0.28247 0.59336
 C28 C 0.50449 -0.21491 0.40437
 O29 O 1.26045 0.78960 0.43060
 O30 O 1.20970 0.73884 0.57113
 O31 O 1.26017 0.78926 0.57180
 O32 O 1.21000 0.73923 0.42992
 O33 O 1.23459 0.71444 0.42983
 O34 O 1.28478 0.76449 0.57176
 O35 O 1.23428 0.71406 0.57110
 O36 O 1.28505 0.76483 0.43052
 Cu37 Cu 1.23260 0.76673 0.50089
 Cu38 Cu 1.26216 0.73695 0.50082
 C39 C 1.28142 0.78588 0.40711
 C40 C 1.21330 0.71776 0.59452
 C41 C 1.28107 0.78545 0.59537
 C42 C 1.21372 0.71829 0.40622
 O43 O 0.78801 0.52632 0.43020
 O44 O 0.73716 0.52641 0.57023
 O45 O 0.78769 0.52638 0.57108
 O46 O 0.73757 0.52641 0.42929
 O47 O 0.71287 0.47703 0.42943
 O48 O 0.76301 0.47700 0.57125
 O49 O 0.71248 0.47705 0.57040
 O50 O 0.76332 0.47694 0.43034
 Cu51 Cu 0.76509 0.53136 0.50022
 Cu52 Cu 0.73542 0.47203 0.50041
 C53 C 0.78443 0.50161 0.40716
 C54 C 0.71604 0.50175 0.59340
 C55 C 0.78403 0.50169 0.59445
 C56 C 0.71658 0.50173 0.40594
 O57 O 0.47377 0.21101 0.57072
 O58 O 0.47378 0.26194 0.43043
 O59 O 0.47377 0.21139 0.42976
 O60 O 0.47372 0.26157 0.57132
 O61 O 0.52305 0.28625 0.57139
 O62 O 0.52310 0.23605 0.42982
 O63 O 0.52311 0.28661 0.43050
 O64 O 0.52309 0.23568 0.57080
 Cu65 Cu 0.46878 0.23398 0.50058
 Cu66 Cu 0.52806 0.26363 0.50066
 C67 C 0.49843 0.21455 0.59389
 C68 C 0.49845 0.28305 0.40732
 C69 C 0.49844 0.21507 0.40642
 C70 C 0.49837 0.28259 0.59461
 O71 O 0.78914 0.26273 0.57092
 O72 O 0.73824 0.21182 0.43091
 O73 O 0.78873 0.26232 0.42997
 O74 O 0.73863 0.21217 0.57179
 O75 O 0.71396 0.23687 0.57175
 O76 O 0.76408 0.28704 0.42991
 O77 O 0.71358 0.23653 0.43085
 O78 O 0.76448 0.28744 0.57088
 Cu79 Cu 0.76618 0.23477 0.50093
 Cu80 Cu 0.73654 0.26447 0.50087
 C81 C 0.78560 0.28387 0.59399
 C82 C 0.71713 0.21540 0.40778
 C83 C 0.78504 0.28332 0.40652
 C84 C 0.71762 0.21584 0.59507
 O85 O 0.95886 0.43501 0.13329
 O86 O 0.92573 0.44125 0.06280
 C87 C 0.93208 0.42820 0.11415
 O88 O 1.04198 0.56781 0.12748
 O89 O 1.07502 0.56001 0.06087
 C90 C 1.06874 0.57439 0.10878
 O91 O 0.95866 0.52386 0.13377
 O92 O 0.92564 0.48440 0.06351
 C93 C 0.93190 0.50376 0.11487
 O94 O 1.04210 0.47409 0.12619
 O95 O 1.07514 0.51513 0.05999
 C96 C 1.06888 0.49437 0.10774
 Zr97 Zr 1.00038 0.46724 0.08911
 O98 O 1.00103 0.46324 0.20337
 O99 O 0.99937 0.42617 0.07545
 Zr100 Zr 1.00030 0.53267 0.09116
 O101 O 1.00309 0.53402 0.20598
 O102 O 0.99705 0.57190 0.08972
 O103 O 0.97387 0.48666 0.10453
 O104 O 1.02621 0.51287 0.10374
 O105 O 1.04202 0.47432 -0.12894
 O106 O 1.07503 0.51534 -0.06279
 C107 C 1.06877 0.49458 -0.11040
 O108 O 0.95889 0.52382 -0.13626
 O109 O 0.92574 0.48472 -0.06510
 C110 C 0.93210 0.50399 -0.11678
 O111 O 1.04225 0.56798 -0.12911
 O112 O 1.07523 0.56023 -0.06208
 C113 C 1.06901 0.57458 -0.11028
 O114 O 0.95869 0.43484 -0.13537
 O115 O 0.92566 0.44147 -0.06569
 C116 C 0.93193 0.42825 -0.11674
 Zr117 Zr 1.00033 0.46789 -0.09316
 O118 O 1.00333 0.46936 -0.20799
 O119 O 0.99747 0.42559 -0.09166
 Zr120 Zr 1.00039 0.53346 -0.09127
 O121 O 1.00216 0.53867 -0.20533
 O122 O 0.99713 0.57255 -0.08088
 Zr123 Zr 0.95560 0.47793 -0.00114
 Zr124 Zr 1.04499 0.52267 -0.00100
 O125 O 1.02617 0.51358 -0.10582
 O126 O 0.97391 0.48748 -0.10684
 O127 O 1.02723 0.47603 -0.00202
 O128 O 0.97408 0.52459 -0.00010
 O129 O 0.97405 0.44974 -0.00197
 O130 O 1.02722 0.55156 0.00005
 H131 H 1.03955 0.51951 0.14662
 H132 H 0.96033 0.53272 0.00004
 H133 H 1.03940 0.52018 -0.14892
 H134 H 0.96041 0.42784 -0.00206
 H135 H 1.01432 0.58726 0.06210
 H136 H 1.01675 0.58895 -0.06472
 H137 H 1.00204 0.52101 -0.22600
 H138 H 0.98672 0.47173 -0.22691
 H139 H 1.01357 0.42718 -0.05961
 H140 H 0.99878 0.41844 0.12504
 H141 H 1.00623 0.48286 0.22406
 H142 H 0.98734 0.51443 0.22435
 O143 O 0.56506 0.52422 0.13267
 O144 O 0.55884 0.48486 0.06224
 C145 C 0.57187 0.50424 0.11356
 O146 O 0.43239 0.47490 0.12678
 O147 O 0.44031 0.51587 0.06021
 C148 C 0.42590 0.49519 0.10811
 O149 O 0.47627 0.43523 0.13340
 O150 O 0.51574 0.44166 0.06317
 C151 C 0.49638 0.42856 0.11455
 O152 O 0.52603 0.56846 0.12553
 O153 O 0.48505 0.56050 0.05929
 C154 C 0.50576 0.57498 0.10706
 Zr155 Zr 0.53287 0.53358 0.08841
 O156 O 0.53686 0.53829 0.20263
 O157 O 0.57388 0.57359 0.07446
 Zr158 Zr 0.46742 0.46808 0.09071
 O159 O 0.46593 0.46940 0.20552
 O160 O 0.42822 0.42563 0.08923
 O161 O 0.51342 0.48763 0.10400
 O162 O 0.48726 0.51379 0.10317
 O163 O 0.52546 0.56810 -0.12958
 O164 O 0.48435 0.55997 -0.06357
 C165 C 0.50509 0.57450 -0.11121
 O166 O 0.47635 0.43551 -0.13662
 O167 O 0.51540 0.44141 -0.06546
 C168 C 0.49616 0.42852 -0.11710
 O169 O 0.43217 0.47472 -0.12954
 O170 O 0.43993 0.51547 -0.06266
 C171 C 0.42557 0.49491 -0.11077
 O172 O 0.56520 0.52426 -0.13609
 O173 O 0.55860 0.48456 -0.06631
 C174 C 0.57179 0.50406 -0.11743
 Zr175 Zr 0.53220 0.53294 -0.09385
 O176 O 0.53088 0.53464 -0.20867
 O177 O 0.57443 0.57238 -0.09223
 Zr178 Zr 0.46670 0.46739 -0.09172
 O179 O 0.46150 0.46402 -0.20577
 O180 O 0.42768 0.42505 -0.08126
 Zr181 Zr 0.52218 0.47809 -0.00165
 Zr182 Zr 0.47749 0.52278 -0.00162
 O183 O 0.48655 0.51305 -0.10644
 O184 O 0.51265 0.48690 -0.10737
 O185 O 0.52406 0.55168 -0.00275
 O186 O 0.47557 0.44994 -0.00048
 O187 O 0.55034 0.52473 -0.00266
 O188 O 0.44858 0.47614 -0.00044
 H189 H 0.48066 0.52052 0.14607
 H190 H 0.46745 0.42805 -0.00028
 H191 H 0.47993 0.51965 -0.14960
 H192 H 0.57223 0.53295 -0.00279
 H193 H 0.41282 0.42766 0.06212
 H194 H 0.41131 0.42827 -0.06479
 H195 H 0.47937 0.48133 -0.22648
 H196 H 0.52841 0.51563 -0.22763
 H197 H 0.57271 0.58698 -0.06083
 H198 H 0.58165 0.58073 0.12400
 H199 H 0.51744 0.52343 0.22338
 H200 H 0.48548 0.47318 0.22399
 O201 O 0.47624 0.04105 0.13375
 O202 O 0.51560 0.07419 0.06330
 C203 C 0.49622 0.06784 0.11462
 O204 O 0.52574 -0.04232 0.12801
 O205 O 0.48491 -0.07526 0.06133
 C206 C 0.50554 -0.06907 0.10923
 O207 O 0.56516 0.04108 0.13439
 O208 O 0.55875 0.07419 0.06416
 C209 C 0.57183 0.06788 0.11552
 O210 O 0.43205 -0.04221 0.12678
 O211 O 0.44005 -0.07526 0.06076
 C212 C 0.42556 -0.06900 0.10842
 Zr213 Zr 0.46691 -0.00051 0.08956
 O214 O 0.46227 -0.00119 0.20381
 O215 O 0.42693 0.00057 0.07571
 Zr216 Zr 0.53233 -0.00057 0.09171
 O217 O 0.53092 -0.00343 0.20652
 O218 O 0.57475 0.00263 0.09017
 O219 O 0.51282 0.02594 0.10506
 O220 O 0.48666 -0.02641 0.10420
 O221 O 0.43238 -0.04231 -0.12823
 O222 O 0.44047 -0.07542 -0.06232
 C223 C 0.42595 -0.06912 -0.10985
 O224 O 0.56487 0.04098 -0.13564
 O225 O 0.55900 0.07416 -0.06448
 C226 C 0.57187 0.06779 -0.11615
 O227 O 0.52564 -0.04244 -0.12851
 O228 O 0.48490 -0.07542 -0.06162
 C229 C 0.50546 -0.06922 -0.10975
 O230 O 0.47623 0.04129 -0.13495
 O231 O 0.51589 0.07430 -0.06523
 C232 C 0.49642 0.06806 -0.11631
 Zr233 Zr 0.46757 -0.00042 -0.09270
 O234 O 0.46589 -0.00341 -0.20752
 O235 O 0.42818 0.00247 -0.09120
 Zr236 Zr 0.53302 -0.00055 -0.09067
 O237 O 0.53641 -0.00234 -0.20472
 O238 O 0.57531 0.00268 -0.08022
 Zr239 Zr 0.52235 0.04428 -0.00060
 Zr240 Zr 0.47763 -0.04515 -0.00057
 O241 O 0.48740 -0.02626 -0.10538
 O242 O 0.51356 0.02599 -0.10630
 O243 O 0.44880 -0.02735 -0.00159
 O244 O 0.55047 0.02574 0.00051
 O245 O 0.47576 0.02588 -0.00151
 O246 O 0.52424 -0.02747 0.00057
 H247 H 0.47996 -0.03977 0.14709
 H248 H 0.57234 0.03948 0.00068
 H249 H 0.48079 -0.03947 -0.14853
 H250 H 0.46754 0.03956 -0.00163
 H251 H 0.57279 -0.01470 0.06268
 H252 H 0.57207 -0.01699 -0.06411
 H253 H 0.51922 -0.00156 -0.22543
 H254 H 0.48487 0.01314 -0.22651
 H255 H 0.41362 -0.01378 -0.05958
 H256 H 0.41980 0.00119 0.12527
 H257 H 0.47673 -0.00634 0.22452
 H258 H 0.52708 0.01233 0.22492
 C259 C 1.19347 0.49529 0.35385
 C260 C 1.17575 0.49516 0.31106
 C261 C 1.15440 0.49499 0.26289
 C262 C 1.13565 0.49482 0.22366
 C263 C 1.11305 0.49463 0.18022
 C264 C 1.09319 0.49448 0.14558
 C265 C 0.50456 0.69810 0.35482
 C266 C 0.50468 0.68059 0.31173
 C267 C 0.50488 0.65954 0.26318
 C268 C 0.50509 0.64106 0.22365
 C269 C 0.50535 0.61876 0.17986
 C270 C 0.50556 0.59912 0.14502
 C271 C 0.30186 -0.19365 0.35438
 C272 C 0.31949 -0.17594 0.31163
 C273 C 0.34068 -0.15459 0.26350
 C274 C 0.35928 -0.13583 0.22432
 C275 C 0.38169 -0.11321 0.18091
 C276 C 0.40139 -0.09333 0.14628
 C277 C 0.80528 0.50159 0.35577
 C278 C 0.82342 0.50162 0.31457
 C279 C 0.84530 0.50176 0.26845
 C280 C 0.86447 0.50199 0.23079
 C281 C 0.88747 0.50241 0.18858
 C282 C 0.90754 0.50293 0.15410
 C283 C 0.49846 0.30394 0.35585
 C284 C 0.49842 0.32205 0.31459
 C285 C 0.49830 0.34383 0.26839
 C286 C 0.49810 0.36280 0.23067
 C287 C 0.49771 0.38542 0.18839
 C288 C 0.49721 0.40499 0.15385
 C289 C 0.69627 0.19452 0.35643
 C290 C 0.67817 0.17637 0.31525
 C291 C 0.65643 0.15447 0.26916
 C292 C 0.63748 0.13529 0.23151
 C293 C 0.61490 0.11229 0.18931
 C294 C 0.59536 0.09223 0.15480
 C295 C 0.49842 0.19477 -0.35748
 C296 C 0.49838 0.17663 -0.31615
 C297 C 0.49826 0.15474 -0.26992
 C298 C 0.49806 0.13556 -0.23220
 C299 C 0.49769 0.11254 -0.18996
 C300 C 0.49721 0.09246 -0.15549
 C301 C 0.69628 0.50180 -0.35811
 C302 C 0.67820 0.50188 -0.31689
 C303 C 0.65647 0.50207 -0.27080
 C304 C 0.63752 0.50232 -0.23319
 C305 C 0.61492 0.50275 -0.19104
 C306 C 0.59536 0.50326 -0.15661
 C307 C 0.80537 0.30364 -0.35749
 C308 C 0.82350 0.32173 -0.31624
 C309 C 0.84537 0.34348 -0.27011
 C310 C 0.86454 0.36245 -0.23246
 C311 C 0.88753 0.38507 -0.19030
 C312 C 0.90758 0.40465 -0.15588
 C313 C 0.50432 -0.19422 -0.35483
 C314 C 0.50439 -0.17646 -0.31225
 C315 C 0.50455 -0.15504 -0.26436
 C316 C 0.50473 -0.13621 -0.22538
 C317 C 0.50499 -0.11352 -0.18216
 C318 C 0.50522 -0.09359 -0.14763
 C319 C 0.30165 0.49572 -0.35622
 C320 C 0.31934 0.49571 -0.31353
 C321 C 0.34062 0.49563 -0.26554
 C322 C 0.35927 0.49551 -0.22648
 C323 C 0.38173 0.49532 -0.18319
 C324 C 0.40143 0.49513 -0.14863
 C325 C 1.19387 0.69836 -0.35577
 C326 C 1.17613 0.68070 -0.31310
 C327 C 1.15473 0.65946 -0.26513
 C328 C 1.13592 0.64084 -0.22608
 C329 C 1.11325 0.61841 -0.18279
 C330 C 1.09335 0.59871 -0.14821
 C331 C 0.80481 0.50171 -0.35406
 C332 C 0.82302 0.50180 -0.31312
 C333 C 0.84506 0.50202 -0.26770
 C334 C 0.86443 0.50230 -0.23081
 C335 C 0.88762 0.50276 -0.18959
 C336 C 0.90778 0.50327 -0.15575
 C337 C 0.49834 0.30336 -0.35397
 C338 C 0.49824 0.32148 -0.31307
 C339 C 0.49805 0.34334 -0.26770
 C340 C 0.49780 0.36244 -0.23087
 C341 C 0.49737 0.38521 -0.18972
 C342 C 0.49689 0.40490 -0.15595
 C343 C 0.69688 0.19507 -0.35341
 C344 C 0.67879 0.17687 -0.31243
 C345 C 0.65696 0.15484 -0.26698
 C346 C 0.63788 0.13548 -0.23008
 C347 C 0.61513 0.11230 -0.18887
 C348 C 0.59547 0.09213 -0.15505
 C349 C 1.19394 0.49527 -0.35228
 C350 C 1.17620 0.49515 -0.30972
 C351 C 1.15474 0.49497 -0.26218
 C352 C 1.13585 0.49482 -0.22370
 C353 C 1.11308 0.49466 -0.18130
 C354 C 1.09311 0.49458 -0.14750
 C355 C 0.50428 0.69830 -0.35644
 C356 C 0.50432 0.68075 -0.31340
 C357 C 0.50444 0.65959 -0.26519
 C358 C 0.50459 0.64096 -0.22611
 C359 C 0.50478 0.61849 -0.18303
 C360 C 0.50495 0.59872 -0.14874
 C361 C 0.30143 -0.19420 -0.35183
 C362 C 0.31909 -0.17649 -0.30930
 C363 C 0.34040 -0.15506 -0.26178
 C364 C 0.35916 -0.13617 -0.22331
 C365 C 0.38178 -0.11341 -0.18089
 C366 C 0.40165 -0.09344 -0.14706
 C367 C 0.50457 -0.19448 0.35155
 C368 C 0.50470 -0.17671 0.30896
 C369 C 0.50490 -0.15522 0.26136
 C370 C 0.50509 -0.13629 0.22281
 C371 C 0.50531 -0.11348 0.18031
 C372 C 0.50546 -0.09346 0.14643
 C373 C 0.30201 0.49572 0.35264
 C374 C 0.31958 0.49572 0.30971
 C375 C 0.34077 0.49566 0.26165
 C376 C 0.35942 0.49557 0.22269
 C377 C 0.38191 0.49543 0.17974
 C378 C 0.40169 0.49531 0.14555
 C379 C 1.19343 0.69808 0.35313
 C380 C 1.17578 0.68058 0.31023
 C381 C 1.15445 0.65946 0.26221
 C382 C 1.13564 0.64085 0.22329
 C383 C 1.11296 0.61839 0.18038
 C384 C 1.09304 0.59862 0.14622
 C385 C 0.49844 0.19443 0.35456
 C386 C 0.49836 0.17638 0.31314
 C387 C 0.49818 0.15453 0.26704
 C388 C 0.49792 0.13532 0.22957
 C389 C 0.49748 0.11227 0.18778
 C390 C 0.49698 0.09217 0.15363
 C391 C 0.69599 0.50177 0.35397
 C392 C 0.67806 0.50188 0.31245
 C393 C 0.65645 0.50212 0.26624
 C394 C 0.63754 0.50243 0.22869
 C395 C 0.61498 0.50292 0.18682
 C396 C 0.59542 0.50346 0.15261
 C397 C 0.80566 0.30393 0.35456
 C398 C 0.82368 0.32188 0.31304
 C399 C 0.84550 0.34352 0.26684
 C400 C 0.86469 0.36245 0.22930
 C401 C 0.88771 0.38505 0.18742
 C402 C 0.90779 0.40463 0.15321
   
