data_POSCAR
  _audit_creation_date              2014-09-24
  _audit_creation_method            'ToBaCCo'
  _symmetry_space_group_name_H-M    'P1'
  _symmetry_Int_Tables_number       1
  _symmetry_cell_setting            triclinic
  loop_
  _symmetry_equiv_pos_as_xyz
 x,y,z
_cell_length_a 43.7288
_cell_length_b 43.0943
_cell_length_c 43.7388
_cell_angle_alpha 89.943600
_cell_angle_beta 89.984800
_cell_angle_gamma 89.994100
loop_
  _atom_site_label
  _atom_site_type_symbol
  _atom_site_fract_x
  _atom_site_fract_y
  _atom_site_fract_z
N1 N 0.58957 0.67350 0.61111
 N2 N 0.57726 0.66047 0.63539
 C3 C 0.55239 0.67687 0.64378
 C4 C 0.54915 0.70126 0.62365
 C5 C 0.57298 0.69858 0.60321
 H6 H 0.53775 0.67156 0.66301
 H7 H 0.57786 0.71373 0.58409
 Cu8 Cu 0.59497 0.62341 0.65366
 Cu9 Cu 0.62614 0.65704 0.59160
 Cu10 Cu 0.65888 0.59171 0.62438
 N11 N 0.61399 0.58717 0.67218
 N12 N 0.63900 0.57488 0.66061
 C13 C 0.64733 0.55024 0.67764
 C14 C 0.62640 0.54712 0.70099
 C15 C 0.60555 0.57076 0.69704
 H16 H 0.66706 0.53573 0.67338
 H17 H 0.58582 0.57558 0.71118
 N18 N 0.67563 0.61209 0.58767
 N19 N 0.66315 0.63699 0.57518
 C20 C 0.67973 0.64532 0.55052
 C21 C 0.70358 0.62470 0.54754
 C22 C 0.70046 0.60394 0.57128
 H23 H 0.67486 0.66487 0.53579
 H24 H 0.71519 0.58440 0.57616
 H25 H 0.62027 0.61152 0.60534
 H26 H 0.64399 0.63681 0.63060
 N27 N 0.91109 0.32566 0.11104
 N28 N 0.92304 0.33830 0.13568
 C29 C 0.94785 0.32184 0.14415
 C30 C 0.95140 0.29782 0.12368
 C31 C 0.92785 0.30075 0.10296
 H32 H 0.96224 0.32688 0.16363
 H33 H 0.92325 0.28595 0.08354
 Cu34 Cu 0.90491 0.37499 0.15418
 Cu35 Cu 0.87474 0.34239 0.09127
 Cu36 Cu 0.84209 0.40782 0.12393
 N37 N 0.88642 0.41168 0.17230
 N38 N 0.86182 0.42441 0.16033
 C39 C 0.85375 0.44928 0.17712
 C40 C 0.87441 0.45214 0.20073
 C41 C 0.89484 0.42806 0.19715
 H42 H 0.83436 0.46415 0.17253
 H43 H 0.91428 0.42294 0.21158
 N44 N 0.82551 0.38763 0.08708
 N45 N 0.83794 0.36271 0.07464
 C46 C 0.82146 0.35450 0.04990
 C47 C 0.79771 0.37524 0.04681
 C48 C 0.80079 0.39593 0.07058
 H49 H 0.82629 0.33494 0.03521
 H50 H 0.78610 0.41550 0.07542
 H51 H 0.88082 0.38770 0.10548
 H52 H 0.85623 0.36247 0.12998
 N53 N 0.41022 0.17479 -0.11125
 N54 N 0.42221 0.16209 -0.13583
 C55 C 0.44709 0.17848 -0.14424
 C56 C 0.45065 0.20254 -0.12382
 C57 C 0.42702 0.19966 -0.10318
 H58 H 0.46152 0.17340 -0.16368
 H59 H 0.42241 0.21451 -0.08380
 Cu60 Cu 0.40408 0.12541 -0.15433
 Cu61 Cu 0.37378 0.15817 -0.09154
 Cu62 Cu 0.34110 0.09277 -0.12420
 N63 N 0.38557 0.08874 -0.17246
 N64 N 0.36090 0.07609 -0.16053
 C65 C 0.35285 0.05121 -0.17730
 C66 C 0.37357 0.04826 -0.20084
 C67 C 0.39404 0.07230 -0.19725
 H68 H 0.33341 0.03638 -0.17273
 H69 H 0.41355 0.07734 -0.21162
 N70 N 0.32444 0.11304 -0.08742
 N71 N 0.33689 0.13796 -0.07498
 C72 C 0.32037 0.14621 -0.05027
 C73 C 0.29658 0.12551 -0.04720
 C74 C 0.29968 0.10481 -0.07095
 H75 H 0.32522 0.16576 -0.03557
 H76 H 0.28499 0.08524 -0.07578
 H77 H 0.37981 0.11283 -0.10567
 H78 H 0.35535 0.13809 -0.13027
 N79 N 0.08910 0.82515 0.38896
 N80 N 0.07714 0.83784 0.36432
 C81 C 0.05234 0.82138 0.35585
 C82 C 0.04883 0.79730 0.37631
 C83 C 0.07237 0.80021 0.39703
 H84 H 0.03795 0.82645 0.33637
 H85 H 0.07699 0.78536 0.41644
 Cu86 Cu 0.09521 0.87460 0.34584
 Cu87 Cu 0.12544 0.84187 0.40872
 Cu88 Cu 0.15799 0.90743 0.37609
 N89 N 0.11365 0.91136 0.32772
 N90 N 0.13823 0.92408 0.33970
 C91 C 0.14624 0.94902 0.32293
 C92 C 0.12557 0.95191 0.29934
 C93 C 0.10519 0.92780 0.30290
 H94 H 0.16561 0.96391 0.32754
 H95 H 0.08574 0.92270 0.28849
 N96 N 0.17462 0.88716 0.41292
 N97 N 0.16222 0.86219 0.42535
 C98 C 0.17872 0.85394 0.45008
 C99 C 0.20244 0.87470 0.45318
 C100 C 0.19933 0.89544 0.42942
 H101 H 0.17392 0.83434 0.46476
 H102 H 0.21400 0.91504 0.42458
 H103 H 0.11930 0.88721 0.39454
 H104 H 0.14391 0.86207 0.37002
 C105 C 0.10196 0.14758 0.12507
 N106 N 0.12391 0.14755 0.10314
 C107 C 0.14601 0.12544 0.10334
 N108 N 0.14616 0.10337 0.12549
 C109 C 0.12421 0.10339 0.14742
 N110 N 0.10210 0.12550 0.14721
 C111 C 0.39734 0.85275 0.62515
 N112 N 0.39716 0.87483 0.64724
 C113 C 0.37500 0.89688 0.64745
 N114 N 0.35302 0.89684 0.62555
 C115 C 0.35319 0.87476 0.60345
 N116 N 0.37536 0.85271 0.60325
 C117 C 0.89819 0.64718 0.37516
 N118 N 0.87629 0.64714 0.39716
 C119 C 0.85416 0.62507 0.39701
 N120 N 0.85392 0.60304 0.37486
 C121 C 0.87581 0.60308 0.35286
 N122 N 0.89794 0.62515 0.35301
 C123 C 0.60290 0.35355 -0.12521
 N124 N 0.62487 0.35352 -0.10330
 C125 C 0.64706 0.37553 -0.10357
 N126 N 0.64728 0.39757 -0.12575
 C127 C 0.62531 0.39760 -0.14766
 N128 N 0.60312 0.37559 -0.14739
 C129 C -0.02640 0.27573 0.12388
 C130 C -0.00673 0.25614 0.12406
 C131 C 0.01629 0.23318 0.12425
 C132 C 0.03594 0.21357 0.12443
 C133 C 0.05894 0.19058 0.12464
 C134 C 0.07858 0.17096 0.12484
 C135 C 0.52575 0.72466 0.62391
 C136 C 0.50611 0.74429 0.62411
 C137 C 0.48312 0.76727 0.62433
 C138 C 0.46347 0.78688 0.62452
 C139 C 0.44045 0.80984 0.62474
 C140 C 0.42077 0.82943 0.62493
 C141 C 1.02665 0.77520 0.37610
 C142 C 1.00698 0.75560 0.37592
 C143 C 0.98395 0.73266 0.37573
 C144 C 0.96428 0.71308 0.37558
 C145 C 0.94124 0.69013 0.37543
 C146 C 0.92158 0.67053 0.37531
 C147 C 0.47415 0.22583 -0.12403
 C148 C 0.49387 0.24537 -0.12419
 C149 C 0.51695 0.26826 -0.12436
 C150 C 0.53666 0.28781 -0.12452
 C151 C 0.55973 0.31071 -0.12474
 C152 C 0.57944 0.33026 -0.12494
 C153 C 0.12531 -0.02473 0.27589
 C154 C 0.12510 -0.00513 0.25622
 C155 C 0.12487 0.01784 0.23319
 C156 C 0.12470 0.03745 0.21353
 C157 C 0.12451 0.06042 0.19050
 C158 C 0.12436 0.08004 0.17084
 C159 C 0.62630 0.52515 -0.27668
 C160 C 0.62619 0.50566 -0.25689
 C161 C 0.62605 0.48283 -0.23374
 C162 C 0.62591 0.46331 -0.21398
 C163 C 0.62572 0.44044 -0.19086
 C164 C 0.62554 0.42090 -0.17113
 C165 C 0.37381 1.02494 0.77572
 C166 C 0.37400 1.00536 0.75606
 C167 C 0.37421 0.98242 0.73305
 C168 C 0.37440 0.96282 0.71342
 C169 C 0.37462 0.93985 0.69044
 C170 C 0.37479 0.92023 0.67082
 C171 C 0.87459 0.47539 0.22422
 C172 C 0.87474 0.49492 0.24393
 C173 C 0.87494 0.51780 0.26700
 C174 C 0.87512 0.53734 0.28669
 C175 C 0.87534 0.56024 0.30975
 C176 C 0.87555 0.57979 0.32943
 C177 C 0.27335 0.12549 -0.02397
 C178 C 0.25387 0.12546 -0.00448
 C179 C 0.23104 0.12542 0.01835
 C180 C 0.21155 0.12540 0.03783
 C181 C 0.18872 0.12540 0.06065
 C182 C 0.16923 0.12541 0.08014
 C183 C 0.72686 0.62476 0.52436
 C184 C 0.74638 0.62482 0.50490
 C185 C 0.76922 0.62488 0.48209
 C186 C 0.78871 0.62493 0.46261
 C187 C 0.81153 0.62498 0.43977
 C188 C 0.83099 0.62503 0.42026
 C189 C 0.77449 0.37527 0.02359
 C190 C 0.75500 0.37531 0.00410
 C191 C 0.73217 0.37534 -0.01870
 C192 C 0.71266 0.37538 -0.03816
 C193 C 0.68981 0.37544 -0.06095
 C194 C 0.67029 0.37549 -0.08040
 C195 C 0.22568 0.87469 0.47638
 C196 C 0.24518 0.87467 0.49585
 C197 C 0.26803 0.87467 0.51864
 C198 C 0.28755 0.87466 0.53809
 C199 C 0.31041 0.87468 0.56086
 C200 C 0.32994 0.87470 0.58030
   
