data_POSCAR
  _audit_creation_date              2014-09-24
  _audit_creation_method            'ToBaCCo'
  _symmetry_space_group_name_H-M    'P1'
  _symmetry_Int_Tables_number       1
  _symmetry_cell_setting            triclinic
  loop_
  _symmetry_equiv_pos_as_xyz
 x,y,z
_cell_length_a 22.4083
_cell_length_b 22.5132
_cell_length_c 31.1112
_cell_angle_alpha 90.004600
_cell_angle_beta 90.477100
_cell_angle_gamma 120.810900
loop_
  _atom_site_label
  _atom_site_type_symbol
  _atom_site_fract_x
  _atom_site_fract_y
  _atom_site_fract_z
C1 C 0.03239 0.53520 1.29283
 C2 C -0.04145 0.49726 1.29158
 C3 C -0.07517 0.48738 1.25160
 C4 C -0.03901 0.50852 1.21255
 C5 C 0.03506 0.54306 1.21396
 C6 C 0.06927 0.55906 1.25416
 H7 H 0.12559 0.58568 1.25515
 H8 H -0.13129 0.46346 1.25093
 C9 C 0.49922 0.46748 1.21209
 C10 C 0.46230 0.50244 1.21157
 C11 C 0.44052 0.51635 1.25035
 C12 C 0.45782 0.49903 1.29018
 C13 C 0.50038 0.46932 1.29043
 C14 C 0.51862 0.45198 1.25143
 H15 H 0.54879 0.42666 1.25169
 H16 H 0.41205 0.54343 1.24948
 C17 C 0.48953 0.96662 1.28857
 C18 C 0.53212 1.04012 1.28947
 C19 C 0.55348 1.07684 1.25061
 C20 C 0.53494 1.04227 1.21098
 C21 C 0.50012 0.96940 1.21015
 C22 C 0.47791 0.93280 1.24865
 H23 H 0.45095 0.87675 1.24734
 H24 H 0.58264 1.13297 1.25121
 C25 C 0.96548 0.50144 0.71315
 C26 C 1.03884 0.53987 0.71519
 C27 C 1.07207 0.56111 0.75532
 C28 C 1.03431 0.53915 0.79359
 C29 C 0.96065 0.50330 0.79145
 C30 C 0.92731 0.48520 0.75120
 H31 H 0.87100 0.45710 0.74948
 H32 H 1.12844 0.59016 0.75667
 C33 C 0.46851 0.51044 0.78771
 C34 C 0.50248 0.47211 0.78891
 C35 C 0.52124 0.45402 0.75033
 C36 C 0.50694 0.47345 0.71047
 C37 C 0.47613 0.51453 0.70930
 C38 C 0.45714 0.53247 0.74787
 H39 H 0.43251 0.56322 0.74684
 H40 H 0.54628 0.42364 0.75128
 C41 C 0.49803 -0.03790 0.78834
 C42 C 0.52838 0.03555 0.78869
 C43 C 0.54285 0.07100 0.74949
 C44 C 0.52707 0.03603 0.71009
 C45 C 0.49724 -0.03640 0.70945
 C46 C 0.48190 -0.07244 0.74833
 H47 H 0.45886 -0.12815 0.74726
 H48 H 0.56513 0.12662 0.74960
 O49 O 0.42653 0.66349 0.94861
 O50 O 0.44188 0.78440 0.96113
 C51 C 0.40114 0.79861 0.94135
 O52 O 0.33772 0.77210 0.95110
 O53 O 0.21677 0.66314 0.96533
 C54 C 0.19999 0.60677 0.94625
 O55 O 0.22575 0.56979 0.95575
 O56 O 0.33623 0.55958 0.96408
 C57 C 0.38715 0.59966 0.94034
 O58 O 0.43608 0.64859 1.03431
 O59 O 0.44345 0.76721 1.04644
 C60 C 0.41432 0.80099 1.05613
 O61 O 0.36081 0.79360 1.03666
 O62 O 0.24067 0.68207 1.05070
 C63 C 0.20712 0.61858 1.06085
 O64 O 0.21531 0.57362 1.04161
 O65 O 0.32769 0.56971 1.05094
 C66 C 0.39238 0.60102 1.05846
 Cr67 Cr 0.43302 0.71413 0.99778
 Cr68 Cr 0.29084 0.72555 1.00095
 Cr69 Cr 0.27853 0.57200 1.00295
 O70 O 0.33393 0.67057 1.00053
 O71 O 0.55777 0.32507 0.95002
 O72 O 0.56403 0.21474 0.96258
 C73 C 0.60892 0.20771 0.94241
 O74 O 0.67330 0.24371 0.95112
 O75 O 0.78436 0.36502 0.96327
 C76 C 0.78929 0.41671 0.94322
 O77 O 0.75461 0.44505 0.95278
 O78 O 0.63471 0.43474 0.96649
 C79 C 0.58486 0.38924 0.94359
 O80 O 0.55138 0.34118 1.03541
 O81 O 0.56551 0.23420 1.04791
 C82 C 0.60255 0.20824 1.05701
 O83 O 0.65790 0.22355 1.03696
 O84 O 0.76710 0.34583 1.04932
 C85 C 0.79386 0.40940 1.05836
 O86 O 0.77830 0.44852 1.03801
 O87 O 0.65589 0.42971 1.05225
 C88 C 0.59178 0.39084 1.06006
 Cr89 Cr 0.56349 0.28093 0.99908
 Cr90 Cr 0.71860 0.29625 1.00015
 Cr91 Cr 0.70419 0.43577 1.00226
 O92 O 0.66227 0.33752 1.00025
 O93 O 0.66207 0.42690 0.55288
 O94 O 0.78431 0.44341 0.53778
 C95 C 0.79711 0.40288 0.55878
 O96 O 0.76650 0.33885 0.55105
 O97 O 0.65582 0.21905 0.53825
 C98 C 0.59977 0.20469 0.55716
 O99 O 0.56403 0.23176 0.54699
 O100 O 0.55629 0.34265 0.53329
 C101 C 0.59708 0.39054 0.55920
 O102 O 0.64105 0.43362 0.46777
 O103 O 0.75917 0.43957 0.45312
 C104 C 0.78995 0.40770 0.44265
 O105 O 0.78636 0.35783 0.46434
 O106 O 0.67479 0.23954 0.45298
 C107 C 0.61138 0.20328 0.44312
 O108 O 0.56539 0.21054 0.46204
 O109 O 0.56625 0.32563 0.44748
 C110 C 0.59611 0.39035 0.44149
 Cr111 Cr 0.70997 0.43230 0.50282
 Cr112 Cr 0.71905 0.29057 0.50172
 Cr113 Cr 0.56654 0.27978 0.49757
 O114 O 0.66533 0.33386 0.50073
 O115 O 0.33218 0.56923 0.54840
 O116 O 0.21732 0.57058 0.54409
 C117 C 0.21298 0.61712 0.56449
 O118 O 0.24180 0.67942 0.55219
 O119 O 0.35764 0.79180 0.53395
 C120 C 0.41210 0.80044 0.55277
 O121 O 0.44238 0.76831 0.54201
 O122 O 0.43850 0.65183 0.53076
 C123 C 0.39709 0.60339 0.55523
 O124 O 0.33255 0.55734 0.46169
 O125 O 0.22005 0.56356 0.45743
 C126 C 0.19249 0.59900 0.44831
 O127 O 0.20903 0.65526 0.46752
 O128 O 0.32749 0.76452 0.44913
 C129 C 0.38944 0.79001 0.43639
 O130 O 0.43399 0.78112 0.45617
 O131 O 0.42258 0.66138 0.44532
 C132 C 0.38312 0.59733 0.43777
 Cr133 Cr 0.27764 0.56902 0.50274
 Cr134 Cr 0.28588 0.72064 0.50062
 Cr135 Cr 0.43035 0.71386 0.49377
 O136 O 0.33114 0.66770 0.49899
 C137 C 0.46716 0.58471 0.39385
 C138 C 0.48550 0.55948 0.35868
 C139 C 0.43553 0.51577 0.32823
 C140 C 0.36486 0.49593 0.33451
 C141 C 0.34658 0.52342 0.36965
 C142 C 0.39833 0.56764 0.39987
 C143 C 0.27711 0.50689 0.37255
 N144 N 0.22861 0.46192 0.34429
 N145 N 0.24488 0.43249 0.31306
 C146 C 0.31107 0.44757 0.30734
 H147 H 0.50747 0.61880 0.41635
 H148 H 0.54001 0.57766 0.35416
 H149 H 0.26091 0.52979 0.39648
 H150 H 0.32085 0.42111 0.28184
 C151 C 0.47999 0.89111 0.39673
 C152 C 0.50440 0.93463 0.36131
 C153 C 0.46096 0.92539 0.32589
 C154 C 0.39101 0.86879 0.32675
 C155 C 0.36860 0.82060 0.36096
 C156 C 0.41224 0.83398 0.39739
 C157 C 0.30387 0.75930 0.35664
 N158 N 0.26091 0.75127 0.32335
 N159 N 0.27858 0.80023 0.29393
 C160 C 0.34175 0.85897 0.29472
 H161 H 0.51518 0.90145 0.42358
 H162 H 0.55892 0.97334 0.36107
 H163 H 0.28776 0.71699 0.37873
 H164 H 0.35288 0.89724 0.27023
 C165 C 0.14384 0.62923 0.38622
 C166 C 0.11048 0.61471 0.34643
 C167 C 0.07047 0.54660 0.33140
 C168 C 0.06533 0.49199 0.35716
 C169 C 0.10037 0.50704 0.39760
 C170 C 0.14264 0.57695 0.41140
 C171 C 0.09036 0.45110 0.42316
 N172 N 0.05195 0.38546 0.40798
 N173 N 0.02252 0.37176 0.36910
 C174 C 0.02812 0.42267 0.34315
 H175 H 0.17288 0.68263 0.39676
 H176 H 0.11360 0.65699 0.32790
 H177 H 0.11100 0.45839 0.45544
 H178 H 0.00364 0.40851 0.31175
 C179 C 0.50433 0.37898 0.39137
 C180 C 0.48049 0.39810 0.35552
 C181 C 0.52644 0.45443 0.33048
 C182 C 0.59757 0.49337 0.34218
 C183 C 0.62223 0.47442 0.37879
 C184 C 0.57481 0.41595 0.40365
 C185 C 0.69396 0.51401 0.38810
 N186 N 0.73673 0.56883 0.36330
 N187 N 0.71308 0.58709 0.32954
 C188 C 0.64505 0.55135 0.31816
 H189 H 0.46717 0.33457 0.40972
 H190 H 0.42597 0.36786 0.34667
 H191 H 0.71725 0.50271 0.41449
 H192 H 0.62874 0.56890 0.29056
 C193 C 0.52346 0.12490 0.38907
 C194 C 0.50420 0.08630 0.35114
 C195 C 0.55285 0.07836 0.32788
 C196 C 0.62090 0.10541 0.34476
 C197 C 0.63819 0.13788 0.38576
 C198 C 0.59080 0.15317 0.40651
 C199 C 0.70163 0.15175 0.40462
 N200 N 0.74673 0.14077 0.38219
 N201 N 0.73232 0.11499 0.34250
 C202 C 0.67087 0.09645 0.32314
 H203 H 0.48543 0.13373 0.40438
 H204 H 0.45164 0.06487 0.33890
 H205 H 0.71505 0.16790 0.43751
 H206 H 0.66104 0.07328 0.29149
 C207 C 0.89029 0.49534 0.40097
 C208 C 0.93168 0.51689 0.36444
 C209 C 0.91732 0.47201 0.32916
 C210 C 0.85828 0.40382 0.33133
 C211 C 0.81329 0.38442 0.36700
 C212 C 0.83147 0.42917 0.40295
 C213 C 0.75031 0.32101 0.36500
 N214 N 0.73714 0.27656 0.33200
 N215 N 0.78295 0.29140 0.30086
 C216 C 0.84335 0.35304 0.29965
 H217 H 0.90381 0.53095 0.42772
 H218 H 0.97387 0.57006 0.36337
 H219 H 0.71084 0.30751 0.38872
 H220 H 0.87905 0.36152 0.27401
 C221 C 0.59380 0.47614 1.11097
 C222 C 0.57166 0.49527 1.14723
 C223 C 0.51747 0.44546 1.17203
 C224 C 0.48405 0.37500 1.15990
 C225 C 0.50735 0.35479 1.12349
 C226 C 0.56292 0.40645 1.09844
 C227 C 0.47515 0.28333 1.11472
 N228 N 0.42203 0.23676 1.13931
 N229 N 0.39883 0.25629 1.17243
 C230 C 0.42796 0.32372 1.18356
 H231 H 0.63596 0.51647 1.09259
 H232 H 0.59770 0.54935 1.15642
 H233 H 0.49137 0.26306 1.08922
 H234 H 0.40697 0.33655 1.21082
 C235 C 0.82826 0.39527 1.13144
 C236 C 0.86650 0.41991 1.16935
 C237 C 0.92120 0.48906 1.17366
 C238 C 0.93478 0.53443 1.13837
 C239 C 0.89800 0.50823 1.09876
 C240 C 0.84253 0.43827 1.09579
 C241 C 0.91853 0.55344 1.06348
 N242 N 0.96691 0.62132 1.06877
 N243 N 0.99621 0.64707 1.10690
 C244 C 0.98110 0.60617 1.14192
 H245 H 0.78614 0.34186 1.13030
 H246 H 0.85440 0.38334 1.19522
 H247 H 0.89749 0.53565 1.03163
 H248 H 1.00532 0.63012 1.17226
 C249 C 0.63444 0.16452 1.12088
 C250 C 0.61846 0.12649 1.15873
 C251 C 0.54934 0.08302 1.17091
 C252 C 0.49517 0.07819 1.14453
 C253 C 0.51115 0.11415 1.10494
 C254 C 0.58175 0.15994 1.09383
 C255 C 0.45546 0.10197 1.07765
 N256 N 0.38901 0.06145 1.09090
 N257 N 0.37432 0.03174 1.12939
 C258 C 0.42506 0.03894 1.15670
 H259 H 0.68863 0.19922 1.11326
 H260 H 0.66042 0.13116 1.17881
 H261 H 0.46365 0.12280 1.04561
 H262 H 0.41006 0.01376 1.18760
 C263 C 0.37996 0.50847 1.10706
 C264 C 0.39618 0.48408 1.14380
 C265 C 0.45002 0.52948 1.17122
 C266 C 0.48981 0.60055 1.16097
 C267 C 0.47321 0.62598 1.12375
 C268 C 0.41708 0.57907 1.09645
 C269 C 0.51239 0.69785 1.11641
 N270 N 0.56517 0.73995 1.14341
 N271 N 0.58159 0.71553 1.17758
 C272 C 0.54578 0.64738 1.18729
 H273 H 0.33724 0.47167 1.08688
 H274 H 0.36568 0.42951 1.15136
 H275 H 0.50217 0.72183 1.08996
 H276 H 0.56150 0.63050 1.21548
 C277 C 0.17061 0.64536 1.12992
 C278 C 0.13113 0.62704 1.16722
 C279 C 0.07855 0.55848 1.17459
 C280 C 0.06730 0.50710 1.14388
 C281 C 0.10329 0.52647 1.10418
 C282 C 0.15821 0.59617 1.09791
 C283 C 0.08166 0.47496 1.07214
 N284 N 0.03396 0.40824 1.08120
 N285 N 0.00572 0.38937 1.11992
 C286 C 0.02117 0.43641 1.15163
 H287 H 0.21183 0.69871 1.12637
 H288 H 0.14129 0.66706 1.19048
 H289 H 0.10025 0.48664 1.03965
 H290 H -0.00312 0.41817 1.18252
 C291 C 0.39181 0.84783 1.12128
 C292 C 0.41215 0.88709 1.15874
 C293 C 0.48251 0.92941 1.16941
 C294 C 0.53354 0.93149 1.14184
 C295 C 0.51293 0.89235 1.10308
 C296 C 0.44109 0.84893 1.09331
 C297 C 0.56528 0.89914 1.07528
 N298 N 0.63310 0.93926 1.08683
 N299 N 0.65219 0.97330 1.12412
 C300 C 0.60478 0.97058 1.15207
 H301 H 0.33672 0.81483 1.11466
 H302 H 0.37248 0.88433 1.17975
 H303 H 0.55340 0.87401 1.04426
 H304 H 0.62324 0.99897 1.18199
 C305 C 0.60141 0.47756 0.60986
 C306 C 0.58002 0.49811 0.64593
 C307 C 0.52444 0.44970 0.67056
 C308 C 0.48859 0.37921 0.65806
 C309 C 0.51086 0.35762 0.62168
 C310 C 0.56820 0.40776 0.59709
 C311 C 0.47575 0.28619 0.61240
 N312 N 0.42113 0.24092 0.63653
 N313 N 0.39908 0.26175 0.66961
 C314 C 0.43085 0.32924 0.68118
 H315 H 0.64493 0.51690 0.59185
 H316 H 0.60785 0.55222 0.65515
 H317 H 0.49078 0.26503 0.58673
 H318 H 0.41053 0.34314 0.70831
 C319 C 0.62869 0.16018 0.62166
 C320 C 0.61140 0.12110 0.65901
 C321 C 0.54190 0.07673 0.67001
 C322 C 0.48859 0.07209 0.64290
 C323 C 0.50598 0.10991 0.60393
 C324 C 0.57702 0.15622 0.59395
 C325 C 0.45127 0.09884 0.57611
 N326 N 0.38435 0.05697 0.58815
 N327 N 0.36828 0.02493 0.62591
 C328 C 0.41807 0.03124 0.65374
 H329 H 0.68318 0.19520 0.61491
 H330 H 0.65271 0.12564 0.67969
 H331 H 0.46057 0.12159 0.54457
 H332 H 0.40207 0.00414 0.68400
 C333 C 0.84859 0.48325 0.62038
 C334 C 0.88792 0.50591 0.65808
 C335 C 0.92688 0.47679 0.67189
 C336 C 0.92750 0.42479 0.64665
 C337 C 0.89037 0.40420 0.60708
 C338 C 0.84770 0.43133 0.59496
 C339 C 0.89819 0.35770 0.58088
 N340 N 0.93587 0.32983 0.59510
 N341 N 0.96660 0.34557 0.63361
 C342 C 0.96338 0.39178 0.65994
 H343 H 0.81675 0.50498 0.61178
 H344 H 0.88696 0.54569 0.67715
 H345 H 0.87629 0.34441 0.54888
 H346 H 0.98874 0.40219 0.69099
 C347 C 0.38978 0.51403 0.60491
 C348 C 0.40836 0.49207 0.64180
 C349 C 0.46276 0.53935 0.66826
 C350 C 0.50067 0.60998 0.65673
 C351 C 0.48148 0.63305 0.61941
 C352 C 0.42482 0.58413 0.59311
 C353 C 0.51870 0.70469 0.61107
 N354 N 0.57216 0.74867 0.63706
 N355 N 0.59111 0.72641 0.67117
 C356 C 0.55727 0.65866 0.68188
 H357 H 0.34659 0.47570 0.58567
 H358 H 0.37895 0.43784 0.65036
 H359 H 0.50646 0.72711 0.58463
 H360 H 0.57503 0.64353 0.70993
 C361 C 0.38907 0.84350 0.61966
 C362 C 0.40925 0.88075 0.65800
 C363 C 0.47955 0.92383 0.66852
 C364 C 0.53069 0.92841 0.63997
 C365 C 0.51026 0.89129 0.60042
 C366 C 0.43850 0.84734 0.59062
 C367 C 0.56273 0.90065 0.57186
 N368 N 0.63054 0.94132 0.58328
 N369 N 0.64950 0.97355 0.62118
 C370 C 0.60195 0.96834 0.64993
 H371 H 0.33403 0.80982 0.61317
 H372 H 0.36951 0.87613 0.67969
 H373 H 0.55088 0.87718 0.54031
 H374 H 0.62027 0.99542 0.68028
 C375 C 0.12191 0.61774 0.60875
 C376 C 0.07879 0.59789 0.64446
 C377 C 0.08268 0.55604 0.67637
 C378 C 0.13152 0.53406 0.67222
 C379 C 0.17721 0.55655 0.63679
 C380 C 0.17089 0.59713 0.60411
 C381 C 0.22927 0.53929 0.63608
 N382 N 0.23207 0.49830 0.66695
 N383 N 0.18655 0.47377 0.69883
 C384 C 0.13641 0.49008 0.70251
 H385 H 0.11665 0.64912 0.58433
 H386 H 0.04242 0.61580 0.64742
 H387 H 0.26877 0.55930 0.61203
 H388 H 0.10088 0.46824 0.72904
 C389 C 0.47361 0.59470 0.89373
 C390 C 0.49358 0.57355 0.85725
 C391 C 0.44410 0.52807 0.82743
 C392 C 0.37268 0.50266 0.83495
 C393 C 0.35211 0.52445 0.87202
 C394 C 0.40340 0.57112 0.90188
 C395 C 0.28083 0.50022 0.87685
 N396 N 0.23387 0.45589 0.84764
 N397 N 0.25310 0.43415 0.81364
 C398 C 0.32072 0.45591 0.80630
 H399 H 0.51371 0.63043 0.91579
 H400 H 0.54838 0.59391 0.85180
 H401 H 0.26153 0.51606 0.90310
 H402 H 0.33301 0.43617 0.77818
 C403 C 0.16040 0.63730 0.88055
 C404 C 0.12192 0.62090 0.84266
 C405 C 0.07147 0.55225 0.83263
 C406 C 0.06192 0.49874 0.86119
 C407 C 0.09984 0.51580 0.90052
 C408 C 0.15085 0.58567 0.90958
 C409 C 0.08547 0.46193 0.92931
 N410 N 0.04073 0.39532 0.91775
 N411 N 0.00948 0.37895 0.87941
 C412 C 0.01917 0.42821 0.85061
 H413 H 0.19958 0.69090 0.88661
 H414 H 0.13100 0.66257 0.82117
 H415 H 0.10882 0.47187 0.96094
 H416 H -0.00614 0.41168 0.81957
 C417 C 0.38582 0.82877 0.86746
 C418 C 0.41049 0.86576 0.82949
 C419 C 0.47918 0.92173 0.82633
 C420 C 0.52460 0.93719 0.86225
 C421 C 0.49837 0.90194 0.90175
 C422 C 0.42864 0.84575 0.90392
 C423 C 0.54332 0.92463 0.93775
 N424 N 0.61125 0.97365 0.93319
 N425 N 0.63725 1.00164 0.89517
 C426 C 0.59647 0.98440 0.85950
 H427 H 0.33276 0.78566 0.86809
 H428 H 0.37429 0.85208 0.80281
 H429 H 0.52527 0.90467 0.96956
 H430 H 0.62047 1.00786 0.82929
 C431 C 0.60857 0.46591 0.88128
 C432 C 0.58899 0.48470 0.84345
 C433 C 0.51942 0.45041 0.82998
 C434 C 0.46827 0.39679 0.85557
 C435 C 0.48778 0.37899 0.89483
 C436 C 0.55912 0.41229 0.90694
 C437 C 0.43472 0.32904 0.92088
 N438 N 0.36766 0.29661 0.90713
 N439 N 0.34996 0.31088 0.86925
 C440 C 0.39798 0.35964 0.84295
 H441 H 0.66325 0.49211 0.88984
 H442 H 0.62862 0.52588 0.82415
 H443 H 0.44546 0.31637 0.95235
 H444 H 0.38083 0.36884 0.81245
 C445 C 0.83128 0.39429 0.87592
 C446 C 0.87063 0.41500 0.83872
 C447 C 0.91706 0.48511 0.83055
 C448 C 0.92155 0.53559 0.85982
 C449 C 0.88207 0.51449 0.89812
 C450 C 0.83598 0.44302 0.90587
 C451 C 0.89119 0.56595 0.92763
 N452 N 0.93411 0.63367 0.91819
 N453 N 0.96860 0.65346 0.88135
 C454 C 0.96354 0.60683 0.85178
 H455 H 0.79591 0.33954 0.88105
 H456 H 0.86579 0.37578 0.81640
 H457 H 0.86535 0.55331 0.95824
 H458 H 0.99216 0.62594 0.82225
 C459 C 0.63315 0.17078 0.87297
 C460 C 0.61330 0.13126 0.83553
 C461 C 0.54447 0.07780 0.82881
 C462 C 0.49441 0.06505 0.86060
 C463 C 0.51558 0.10156 0.90037
 C464 C 0.58532 0.15767 0.90577
 C465 C 0.46586 0.07935 0.93329
 N466 N 0.39881 0.03002 0.92514
 N467 N 0.37800 0.00080 0.88652
 C468 C 0.42341 0.01702 0.85391
 H469 H 0.68651 0.21284 0.87589
 H470 H 0.65236 0.14227 0.81152
 H471 H 0.47932 0.09883 0.96573
 H472 H 0.40370 -0.00808 0.82313
   
