data_POSCAR
  _audit_creation_date              2014-09-24
  _audit_creation_method            'ToBaCCo'
  _symmetry_space_group_name_H-M    'P1'
  _symmetry_Int_Tables_number       1
  _symmetry_cell_setting            triclinic
  loop_
  _symmetry_equiv_pos_as_xyz
 x,y,z
_cell_length_a 44.1631
_cell_length_b 43.8613
_cell_length_c 16.0473
_cell_angle_alpha 90.162000
_cell_angle_beta 88.790300
_cell_angle_gamma 120.904500
loop_
  _atom_site_label
  _atom_site_type_symbol
  _atom_site_fract_x
  _atom_site_fract_y
  _atom_site_fract_z
C1 C 0.13867 0.43595 0.48964
 C2 C 0.16403 0.45448 0.42645
 C3 C 0.19946 0.46703 0.44249
 C4 C 0.20961 0.45767 0.51649
 C5 C 0.18375 0.44032 0.58071
 C6 C 0.14824 0.43017 0.56872
 C7 C 0.24687 0.46564 0.52392
 C8 C 0.26252 0.46879 0.60207
 C9 C 0.29723 0.47559 0.60642
 C10 C 0.31752 0.48287 0.53248
 C11 C 0.30273 0.48009 0.45464
 C12 C 0.26715 0.46960 0.45083
 H13 H 0.11226 0.43047 0.47990
 H14 H 0.21897 0.48337 0.39532
 H15 H 0.19076 0.43412 0.63978
 H16 H 0.24798 0.46558 0.65963
 H17 H 0.34491 0.49019 0.53527
 H18 H 0.25575 0.46508 0.38981
 C19 C 0.56536 -0.28078 0.49689
 C20 C 0.55277 -0.26924 0.43173
 C21 C 0.54519 -0.24255 0.44758
 C22 C 0.55376 -0.22429 0.52370
 C23 C 0.56462 -0.23741 0.58977
 C24 C 0.56812 -0.26744 0.57861
 C25 C 0.55037 -0.19221 0.53179
 C26 C 0.53906 -0.18390 0.60704
 C27 C 0.53199 -0.15603 0.60881
 C28 C 0.53548 -0.13725 0.53536
 C29 C 0.54688 -0.14493 0.46059
 C30 C 0.55603 -0.17099 0.46030
 H31 H 0.57095 -0.30155 0.48423
 H32 H 0.53367 -0.23507 0.39857
 H33 H 0.56934 -0.22500 0.65032
 H34 H 0.53409 -0.19991 0.66253
 H35 H 0.52953 -0.11615 0.53667
 H36 H 0.56598 -0.17579 0.40256
 C37 C 1.29714 0.85719 0.48707
 C38 C 1.28133 0.84686 0.40887
 C39 C 1.25675 0.81051 0.39513
 C40 C 1.24972 0.78495 0.45763
 C41 C 1.26944 0.79601 0.53113
 C42 C 1.29235 0.83196 0.54697
 C43 C 1.22170 0.74681 0.44888
 C44 C 1.20252 0.72747 0.52058
 C45 C 1.17825 0.69090 0.51790
 C46 C 1.17132 0.67401 0.44010
 C47 C 1.18897 0.69284 0.36688
 C48 C 1.21413 0.72931 0.37144
 H49 H 1.31616 0.88495 0.49868
 H50 H 1.24251 0.80221 0.33758
 H51 H 1.26673 0.77667 0.57710
 H52 H 1.20690 0.74093 0.57974
 H53 H 1.15059 0.64657 0.43438
 H54 H 1.22817 0.74362 0.31521
 C55 C 0.84774 0.51771 0.46649
 C56 C 0.83139 0.51705 0.39225
 C57 C 0.79916 0.51625 0.39532
 C58 C 0.78402 0.51801 0.47261
 C59 C 0.80078 0.51782 0.54639
 C60 C 0.83194 0.51694 0.54343
 C61 C 0.75177 0.52124 0.47719
 C62 C 0.72975 0.51049 0.54957
 C63 C 0.70319 0.51886 0.56021
 C64 C 0.69591 0.53448 0.49305
 C65 C 0.71532 0.54252 0.41735
 C66 C 0.74375 0.53684 0.41106
 H67 H 0.87160 0.51640 0.46436
 H68 H 0.78619 0.51421 0.33739
 H69 H 0.79034 0.51902 0.60704
 H70 H 0.73385 0.49659 0.59957
 H71 H 0.67312 0.53745 0.49762
 H72 H 0.75962 0.54500 0.35420
 C73 C 0.44774 0.31233 0.54419
 C74 C 0.44211 0.29836 0.46331
 C75 C 0.44507 0.26851 0.44799
 C76 C 0.45806 0.25538 0.50931
 C77 C 0.46753 0.27265 0.58680
 C78 C 0.46105 0.30001 0.60631
 C79 C 0.46338 0.22488 0.49176
 C80 C 0.46108 0.20196 0.55682
 C81 C 0.46752 0.17402 0.54122
 C82 C 0.47529 0.16893 0.45900
 C83 C 0.47718 0.19100 0.39373
 C84 C 0.47129 0.21880 0.41008
 H85 H 0.44432 0.33466 0.55640
 H86 H 0.43841 0.25655 0.38701
 H87 H 0.47968 0.26461 0.63293
 H88 H 0.45362 0.20572 0.61866
 H89 H 0.47953 0.14717 0.44491
 H90 H 0.47396 0.23611 0.35898
 C91 C 0.68596 0.12966 0.51135
 C92 C 0.69828 0.15240 0.44207
 C93 C 0.73032 0.18458 0.44639
 C94 C 0.75048 0.19447 0.51965
 C95 C 0.73690 0.17145 0.58973
 C96 C 0.70438 0.13930 0.58579
 C97 C 0.78486 0.22912 0.52227
 C98 C 0.79783 0.24818 0.59746
 C99 C 0.82905 0.28199 0.59687
 C100 C 0.84597 0.29691 0.52008
 C101 C 0.83326 0.27876 0.44539
 C102 C 0.80413 0.24433 0.44737
 H103 H 0.66106 0.10468 0.50820
 H104 H 0.73850 0.20234 0.39311
 H105 H 0.75153 0.17802 0.64672
 H106 H 0.78306 0.23738 0.65510
 H107 H 0.86968 0.32304 0.51810
 H108 H 0.79598 0.23008 0.38923
 N109 N 0.96451 0.45018 0.14698
 N110 N 0.94449 0.44162 0.21505
 N111 N 1.02444 0.44037 0.07611
 N112 N 1.04076 0.42328 0.09523
 N113 N 1.03531 0.46859 0.12280
 N114 N 1.05975 0.47180 0.17393
 N115 N 0.95422 0.42223 0.09952
 N116 N 0.92719 0.39382 0.13469
 C117 C 0.92114 0.40659 0.20606
 C118 C 1.06324 0.44366 0.15495
 N119 N 1.01592 0.44767 -0.16457
 N120 N 1.03619 0.44593 -0.22356
 N121 N 0.94270 0.40960 -0.07744
 N122 N 0.91331 0.37824 -0.08352
 N123 N 0.94558 0.43053 -0.13928
 N124 N 0.91815 0.41439 -0.18787
 N125 N 1.01384 0.42856 -0.09955
 N126 N 1.03318 0.41378 -0.11178
 Mn127 Mn 0.98367 0.42482 -0.00025
 C128 C 1.04678 0.42477 -0.18971
 C129 C 0.89798 0.38206 -0.15203
 N130 N 1.05591 0.54165 0.09915
 N131 N 1.08271 0.55850 0.14950
 N132 N 0.98869 0.54396 0.05899
 N133 N 0.96907 0.55846 0.07108
 N134 N 0.98472 0.52303 0.12189
 N135 N 0.96186 0.52210 0.17753
 N136 N 1.05933 0.56212 0.03572
 N137 N 1.08830 0.59372 0.04241
 Mn138 Mn 1.01017 0.49595 0.12339
 C139 C 1.10306 0.59073 0.11276
 C140 C 0.95236 0.54433 0.14513
 N141 N 0.96676 0.50379 -0.16422
 N142 N 0.94390 0.50198 -0.21851
 N143 N 1.04790 0.54927 -0.14220
 N144 N 1.07517 0.57722 -0.17850
 N145 N 1.03705 0.52098 -0.18891
 N146 N 1.05681 0.52876 -0.25711
 N147 N 0.97808 0.53223 -0.11797
 N148 N 0.96371 0.55082 -0.14077
 Mn149 Mn 0.99123 0.47567 -0.16480
 Mn150 Mn 1.01870 0.54729 -0.04143
 Cl151 Cl 1.00095 0.48596 -0.02080
 C152 C 0.94185 0.53114 -0.20210
 C153 C 1.08065 0.56368 -0.24949
 N154 N 0.45780 0.51935 0.14479
 N155 N 0.44019 0.52773 0.19811
 N156 N 0.46741 0.45374 0.14136
 N157 N 0.45705 0.42267 0.17768
 N158 N 0.48895 0.47992 0.18953
 N159 N 0.49393 0.46761 0.25935
 N160 N 0.43594 0.49302 0.09736
 N161 N 0.40288 0.48272 0.11842
 C162 C 0.40601 0.50523 0.18011
 C163 C 0.47410 0.43201 0.25127
 N164 N 0.49501 0.45268 -0.09128
 N165 N 0.49527 0.42866 -0.14042
 N166 N 0.44005 0.47761 -0.07712
 N167 N 0.40856 0.46884 -0.10486
 N168 N 0.46411 0.49226 -0.13710
 N169 N 0.44972 0.49358 -0.20693
 N170 N 0.47014 0.43719 -0.03314
 N171 N 0.45258 0.40236 -0.04310
 Mn172 Mn 0.45310 0.46514 0.03215
 C173 C 0.46927 0.39737 -0.10854
 C174 C 0.41533 0.47957 -0.18583
 N175 N 0.55760 0.54284 0.17291
 N176 N 0.57209 0.54292 0.24374
 N177 N 0.55142 0.59775 0.06949
 N178 N 0.56897 0.63253 0.08071
 N179 N 0.52636 0.58194 0.12703
 N180 N 0.52578 0.60561 0.17668
 N181 N 0.58172 0.55762 0.11307
 N182 N 0.61341 0.56789 0.14206
 Mn183 Mn 0.50765 0.53102 0.15858
 C184 C 0.60664 0.55796 0.22358
 C185 C 0.55189 0.63706 0.14611
 N186 N 0.53298 0.55505 -0.15408
 N187 N 0.52854 0.56748 -0.22441
 N188 N 0.58584 0.54225 -0.06241
 N189 N 0.61891 0.55418 -0.08666
 N190 N 0.56418 0.51552 -0.10944
 N191 N 0.58220 0.50846 -0.16504
 N192 N 0.55395 0.58121 -0.10511
 N193 N 0.56427 0.61232 -0.14112
 Mn194 Mn 0.51409 0.50381 -0.12307
 Mn195 Mn 0.56848 0.56991 0.00367
 Cl196 Cl 0.51089 0.51745 0.01782
 C197 C 0.54786 0.60309 -0.21544
 C198 C 0.61632 0.53217 -0.14892
 N199 N 0.41430 -0.01814 0.09332
 N200 N 0.38089 -0.04281 0.10902
 N201 N 0.48038 0.05615 0.12890
 N202 N 0.49346 0.08559 0.17208
 N203 N 0.46011 0.05582 0.06998
 N204 N 0.45835 0.08505 0.07247
 N205 N 0.43443 -0.01717 0.15350
 N206 N 0.41555 -0.04079 0.21173
 C207 C 0.38234 -0.05653 0.18354
 C208 C 0.47981 0.10354 0.13596
 N209 N 0.55957 0.04115 0.09311
 N210 N 0.59309 0.06076 0.11395
 N211 N 0.49390 -0.02617 0.16734
 N212 N 0.48465 -0.04661 0.23419
 N213 N 0.51408 -0.03218 0.11706
 N214 N 0.51956 -0.05663 0.14935
 N215 N 0.53956 0.04730 0.14362
 N216 N 0.55880 0.07131 0.19910
 Mn217 Mn 0.48698 0.01505 0.14876
 C218 C 0.59219 0.07999 0.17929
 C219 C 0.50049 -0.06564 0.22192
 N220 N 0.45977 0.04543 -0.10781
 N221 N 0.45605 0.07160 -0.13580
 N222 N 0.43335 -0.03459 -0.13567
 N223 N 0.41320 -0.05918 -0.18954
 N224 N 0.41400 -0.02780 -0.08442
 N225 N 0.38029 -0.04725 -0.10285
 N226 N 0.47920 0.03913 -0.16004
 N227 N 0.48932 0.06096 -0.22480
 Mn228 Mn 0.43670 0.01390 -0.00718
 C229 C 0.47494 0.08122 -0.20853
 C230 C 0.38013 -0.06726 -0.16725
 N231 N 0.51373 -0.04281 -0.06174
 N232 N 0.51822 -0.07035 -0.06778
 N233 N 0.53921 0.02985 -0.14617
 N234 N 0.55897 0.05046 -0.20846
 N235 N 0.55904 0.03074 -0.08515
 N236 N 0.59285 0.05217 -0.10423
 N237 N 0.49321 -0.04362 -0.12094
 N238 N 0.48265 -0.07195 -0.16752
 Mn239 Mn 0.53694 -0.00083 0.01570
 Mn240 Mn 0.48628 -0.00237 -0.14149
 Cl241 Cl 0.48675 0.00641 0.00377
 C242 C 0.49811 -0.08855 -0.13337
 C243 C 0.59224 0.06441 -0.18120
 C244 C 1.15473 0.46282 0.35021
 C245 C 1.12255 0.44300 0.31858
 C246 C 1.11063 0.45551 0.24918
 C247 C 1.08290 0.43233 0.20560
 H248 H 1.10379 0.41732 0.34588
 H249 H 1.12225 0.48386 0.23930
 H250 H 1.17457 0.48558 0.31445
 H251 H 1.07250 0.40405 0.21262
 C252 C 0.54485 0.71443 0.35327
 C253 C 0.56079 0.69811 0.32031
 C254 C 0.54615 0.67497 0.24785
 C255 C 0.56675 0.66961 0.19539
 H256 H 0.58395 0.70038 0.34837
 H257 H 0.51767 0.65899 0.24328
 H258 H 0.52528 0.71582 0.31631
 H259 H 0.59520 0.68662 0.19689
 C260 C 0.29391 -0.12653 0.34693
 C261 C 0.29223 -0.13188 0.26419
 C262 C 0.31903 -0.10363 0.20794
 C263 C 0.35269 -0.08474 0.23182
 H264 H 0.27490 -0.15769 0.23774
 H265 H 0.31186 -0.10036 0.14594
 H266 H 0.31110 -0.09940 0.36736
 H267 H 0.35974 -0.09066 0.29138
 C268 C 0.84658 0.51325 0.31295
 C269 C 0.87965 0.53723 0.28886
 C270 C 0.89916 0.52823 0.22784
 C271 C 0.92836 0.55334 0.18843
 H272 H 0.89373 0.56245 0.32077
 H273 H 0.89099 0.50049 0.21997
 H274 H 0.83182 0.48857 0.27936
 H275 H 0.93566 0.58097 0.19146
 C276 C 0.43650 0.31668 0.39263
 C277 C 0.45335 0.35224 0.38875
 C278 C 0.45213 0.37240 0.31652
 C279 C 0.47190 0.40787 0.31769
 H280 H 0.47032 0.36747 0.43931
 H281 H 0.43587 0.35874 0.26370
 H282 H 0.42153 0.30123 0.33983
 H283 H 0.48789 0.42065 0.37157
 C284 C 0.67695 0.14286 0.36614
 C285 C 0.64213 0.12981 0.37253
 C286 C 0.61738 0.11584 0.30319
 C287 C 0.62231 0.10194 0.23328
 H288 H 0.63046 0.12893 0.43323
 H289 H 0.59179 0.11279 0.31625
 H290 H 0.68997 0.14728 0.30571
 H291 H 0.64713 0.10334 0.22018
 C292 C 0.46662 0.15059 -0.39708
 C293 C 0.46112 0.15194 -0.31467
 C294 C 0.46064 0.12612 -0.25407
 C295 C 0.47766 0.10841 -0.26695
 H296 H 0.45528 0.17119 -0.28924
 H297 H 0.44605 0.12215 -0.19604
 H298 H 0.47063 0.12951 -0.41883
 H299 H 0.49395 0.11336 -0.32236
 C300 C 0.68363 0.51019 -0.36392
 C301 C 0.66815 0.52786 -0.33558
 C302 C 0.64518 0.51659 -0.26020
 C303 C 0.64532 0.54080 -0.20910
 H304 H 0.67277 0.55171 -0.36725
 H305 H 0.62621 0.48858 -0.25042
 H306 H 0.68290 0.48992 -0.32393
 H307 H 0.66573 0.56851 -0.21658
 C308 C 0.84428 0.30282 -0.33198
 C309 C 0.83472 0.29345 -0.25164
 C310 C 0.85541 0.31896 -0.18512
 C311 C 0.86719 0.35369 -0.19454
 H312 H 0.81459 0.26670 -0.23387
 H313 H 0.86379 0.30957 -0.13319
 H314 H 0.86718 0.32905 -0.34343
 H315 H 0.85763 0.36226 -0.24578
 C316 C 0.51873 -0.14639 -0.31653
 C317 C 0.53019 -0.14490 -0.23902
 C318 C 0.52429 -0.12462 -0.17278
 C319 C 0.49705 -0.11918 -0.17354
 H320 H 0.54897 -0.15323 -0.22764
 H321 H 0.54522 -0.11040 -0.12886
 H322 H 0.50300 -0.13455 -0.32925
 H323 H 0.47560 -0.13395 -0.21574
 C324 C 0.31279 0.47554 -0.31232
 C325 C 0.33594 0.46451 -0.30774
 C326 C 0.35808 0.47013 -0.23514
 C327 C 0.38894 0.47201 -0.24904
 H328 H 0.34094 0.45308 -0.36252
 H329 H 0.35063 0.47476 -0.17375
 H330 H 0.30612 0.48550 -0.25740
 H331 H 0.39670 0.47001 -0.31249
 C332 C 1.16113 0.67280 -0.40733
 C333 C 1.14320 0.63735 -0.39872
 C334 C 1.12350 0.61956 -0.32141
 C335 C 1.10572 0.58416 -0.31715
 H336 H 1.14269 0.62057 -0.44880
 H337 H 1.12171 0.63502 -0.27078
 H338 H 1.16340 0.68843 -0.35271
 H339 H 1.10730 0.56913 -0.36911
 C340 C 0.84571 0.51095 -0.37970
 C341 C 0.87948 0.53122 -0.35978
 C342 C 0.89419 0.51991 -0.29392
 C343 C 0.92331 0.54321 -0.25485
 H344 H 0.89683 0.55514 -0.39556
 H345 H 0.88192 0.49174 -0.28011
 H346 H 0.82790 0.48830 -0.34078
 H347 H 0.93450 0.57150 -0.26428
 C348 C 0.47107 0.31663 -0.31576
 C349 C 0.45674 0.33415 -0.28071
 C350 C 0.47313 0.35796 -0.21000
 C351 C 0.45364 0.36444 -0.15653
 H352 H 0.43336 0.33239 -0.30617
 H353 H 0.50171 0.37350 -0.20799
 H354 H 0.49096 0.31467 -0.28157
 H355 H 0.42511 0.34774 -0.15591
 C356 C 0.68691 0.11557 -0.34179
 C357 C 0.68590 0.12743 -0.26542
 C358 C 0.65652 0.10485 -0.20678
 C359 C 0.62330 0.08748 -0.23374
 H360 H 0.70392 0.15480 -0.24884
 H361 H 0.66184 0.10461 -0.14130
 H362 H 0.66836 0.08785 -0.35519
 H363 H 0.61830 0.09053 -0.29815
 C364 C 1.12398 0.41870 -0.36290
 C365 C 1.08888 0.40313 -0.37269
 C366 C 1.06453 0.40655 -0.31457
 C367 C 1.06984 0.41474 -0.23393
 H368 H 1.07747 0.39210 -0.43223
 H369 H 1.04126 0.40410 -0.34264
 H370 H 1.13455 0.42565 -0.30088
 H371 H 1.09104 0.41482 -0.20114
 C372 C 0.57225 0.71568 -0.35079
 C373 C 0.56648 0.68240 -0.35215
 C374 C 0.56580 0.66253 -0.27708
 C375 C 0.55162 0.62733 -0.28327
 H376 H 0.55883 0.66729 -0.40894
 H377 H 0.57554 0.67590 -0.21830
 H378 H 0.57700 0.72876 -0.29098
 H379 H 0.54090 0.61467 -0.34234
 C380 C 0.31418 -0.15701 -0.37799
 C381 C 0.31989 -0.12874 -0.33386
 C382 C 0.34753 -0.11316 -0.27111
 C383 C 0.34888 -0.08924 -0.21736
 H384 H 0.30548 -0.11553 -0.34788
 H385 H 0.36828 -0.11947 -0.27270
 H386 H 0.32684 -0.17162 -0.36082
 H387 H 0.32734 -0.08415 -0.21327
 C388 C 0.54776 -0.12694 0.38184
 C389 C 0.52244 -0.11979 0.36574
 C390 C 0.52320 -0.09988 0.29126
 C391 C 0.49915 -0.09023 0.28551
 H392 H 0.50071 -0.12812 0.41023
 H393 H 0.54434 -0.09116 0.24499
 H394 H 0.56851 -0.12069 0.33585
 H395 H 0.47912 -0.09804 0.33441
 C396 C 0.32405 0.48713 0.37678
 C397 C 0.35779 0.51373 0.37199
 C398 C 0.38272 0.52086 0.30159
 C399 C 0.37648 0.50006 0.23493
 H400 H 0.36881 0.53127 0.42471
 H401 H 0.40907 0.54343 0.30983
 H402 H 0.31144 0.47072 0.32333
 H403 H 0.35062 0.47721 0.22449
 C404 C 1.17878 0.67422 0.28575
 C405 C 1.17137 0.64051 0.27996
 C406 C 1.14898 0.61447 0.21676
 C407 C 1.13337 0.62071 0.15381
 H408 H 1.17822 0.62936 0.33135
 H409 H 1.14181 0.58728 0.22955
 H410 H 1.17417 0.68715 0.23445
 H411 H 1.14042 0.64745 0.13691
 C412 C 0.48365 0.18338 0.30786
 C413 C 0.50977 0.17707 0.29195
 C414 C 0.51063 0.15547 0.22257
 C415 C 0.48373 0.13619 0.17171
 H416 H 0.52924 0.18344 0.33937
 H417 H 0.53204 0.15017 0.22429
 H418 H 0.46467 0.17939 0.26118
 H419 H 0.46212 0.14089 0.16585
 C420 C 0.70403 0.55305 0.34142
 C421 C 0.68371 0.56743 0.34472
 C422 C 0.66340 0.56697 0.27254
 C423 C 0.63285 0.56550 0.28721
 H424 H 0.67852 0.57601 0.40385
 H425 H 0.67090 0.56358 0.20998
 H426 H 0.70995 0.54568 0.28136
 H427 H 0.62461 0.56601 0.35112
 C428 C 0.84989 0.29613 0.36476
 C429 C 0.86136 0.33053 0.35207
 C430 C 0.88102 0.34963 0.27614
 C431 C 0.89602 0.38490 0.27243
 H432 H 0.85733 0.34547 0.40052
 H433 H 0.88547 0.33544 0.22654
 H434 H 0.85197 0.28044 0.31513
 H435 H 0.89239 0.39886 0.32394
   
