data_POSCAR
  _audit_creation_date              2014-09-24
  _audit_creation_method            'ToBaCCo'
  _symmetry_space_group_name_H-M    'P1'
  _symmetry_Int_Tables_number       1
  _symmetry_cell_setting            triclinic
  loop_
  _symmetry_equiv_pos_as_xyz
 x,y,z
_cell_length_a 24.5176
_cell_length_b 23.5631
_cell_length_c 13.4443
_cell_angle_alpha 90.585800
_cell_angle_beta 92.596000
_cell_angle_gamma 122.641200
loop_
  _atom_site_label
  _atom_site_type_symbol
  _atom_site_fract_x
  _atom_site_fract_y
  _atom_site_fract_z
C1 C 0.40083 0.81032 0.52369
 C2 C 0.39467 0.81769 0.42315
 C3 C 0.44144 0.88411 0.40420
 N4 N 0.47618 0.91699 0.48976
 C5 C 0.45133 0.87217 0.56273
 C6 C 0.45757 0.91079 0.30828
 C7 C 0.50733 0.97830 0.29257
 C8 C 0.53592 1.00058 0.20253
 C9 C 0.58238 1.06828 0.21655
 C10 C 0.58064 1.08567 0.31458
 N11 N 0.53375 1.03084 0.35996
 C12 C 0.62169 1.15120 0.35853
 C13 C 0.62672 1.16592 0.46116
 C14 C 0.66154 1.23052 0.50463
 C15 C 0.66473 1.22327 0.60545
 C16 C 0.63207 1.15451 0.61958
 N17 N 0.60876 1.11968 0.53142
 C18 C 0.63264 1.12583 0.71039
 C19 C 0.59701 1.05587 0.72419
 C20 C 0.60526 1.02600 0.80683
 C21 C 0.56146 0.95770 0.79268
 C22 C 0.52801 0.94795 0.70167
 N23 N 0.54909 1.00805 0.66112
 C24 C 0.47714 0.88454 0.66230
 H25 H 0.37278 0.76417 0.56295
 H26 H 0.36090 0.77773 0.37038
 H27 H 0.52770 1.01628 0.59928
 H28 H 0.52507 0.97089 0.13403
 H29 H 0.61410 1.10095 0.16107
 H30 H 0.68441 1.27778 0.46713
 H31 H 0.69056 1.26383 0.66155
 H32 H 0.55495 0.91951 0.84363
 H33 H 0.51751 1.03017 0.43028
 H34 H 0.63924 1.05088 0.87064
 C35 C 0.16384 0.55649 0.39985
 C36 C 0.16800 0.55082 0.50074
 C37 C 0.11774 0.55317 0.53864
 N38 N 0.08319 0.56038 0.46460
 C39 C 0.11025 0.56100 0.37890
 C40 C 0.10599 0.55003 0.64049
 C41 C 0.05370 0.55040 0.67894
 C42 C 0.04756 0.55768 0.77944
 C43 C -0.01314 0.54650 0.78802
 C44 C -0.04238 0.53259 0.69250
 N45 N -0.00118 0.53534 0.62641
 C46 C -0.10816 0.50988 0.67150
 C47 C -0.13424 0.50700 0.57366
 C48 C -0.19936 0.47781 0.54429
 C49 C -0.20217 0.48787 0.44403
 C50 C -0.13903 0.52162 0.41498
 N51 N -0.09771 0.53395 0.49418
 C52 C -0.12042 0.54235 0.31753
 C53 C -0.05842 0.56440 0.28447
 C54 C -0.03670 0.59342 0.19369
 C55 C 0.02236 0.60070 0.18381
 C56 C 0.03515 0.57608 0.26887
 N57 N -0.01457 0.55357 0.32954
 C58 C 0.08949 0.57058 0.28395
 H59 H 0.19801 0.55832 0.35016
 H60 H 0.20463 0.54666 0.54182
 H61 H -0.02249 0.52425 0.39082
 H62 H 0.08245 0.56784 0.84040
 H63 H -0.03424 0.54632 0.85714
 H64 H -0.24119 0.45088 0.58828
 H65 H -0.24579 0.47112 0.39735
 H66 H 0.05198 0.62074 0.12038
 H67 H -0.01361 0.51735 0.55297
 H68 H -0.06168 0.60636 0.13910
 C69 C 0.54716 0.33194 0.52398
 C70 C 0.55282 0.34669 0.42479
 C71 C 0.51644 0.37468 0.40474
 N72 N 0.48923 0.37786 0.48809
 C73 C 0.50861 0.35271 0.56141
 C74 C 0.50748 0.39553 0.31067
 C75 C 0.47268 0.42660 0.29477
 C76 C 0.44882 0.43099 0.20188
 C77 C 0.42015 0.46667 0.21602
 C78 C 0.42824 0.48389 0.31706
 N79 N 0.46082 0.45966 0.36455
 C80 C 0.40934 0.52517 0.35961
 C81 C 0.40922 0.53566 0.46267
 C82 C 0.40006 0.58315 0.50612
 C83 C 0.40496 0.57768 0.60760
 C84 C 0.41542 0.52595 0.62192
 N85 N 0.41714 0.49991 0.53319
 C86 C 0.42326 0.50395 0.71564
 C87 C 0.43255 0.45013 0.72830
 C88 C 0.42639 0.41840 0.81715
 C89 C 0.44474 0.37318 0.80130
 C90 C 0.46292 0.37956 0.70374
 N91 N 0.45525 0.42654 0.66014
 C92 C 0.49099 0.34657 0.66115
 H93 H 0.56978 0.30964 0.56445
 H94 H 0.58064 0.33783 0.37389
 H95 H 0.47244 0.44772 0.59267
 H96 H 0.45171 0.41046 0.13134
 H97 H 0.39704 0.47957 0.15802
 H98 H 0.39210 0.61875 0.46869
 H99 H 0.40089 0.60791 0.66437
 H100 H 0.44683 0.34112 0.85641
 H101 H 0.48118 0.47230 0.43689
 H102 H 0.41105 0.42761 0.88645
 O103 O 0.43806 0.65651 -0.04216
 O104 O 0.41661 0.74700 -0.11361
 C105 C 0.38054 0.76679 -0.14740
 O106 O 0.32702 0.74991 -0.11118
 O107 O 0.23099 0.62338 -0.14771
 C108 C 0.21297 0.56181 -0.15951
 O109 O 0.22894 0.53175 -0.09870
 O110 O 0.34773 0.55921 -0.09012
 C111 C 0.40886 0.59968 -0.08811
 O112 O 0.41908 0.68390 0.14101
 O113 O 0.40541 0.77993 0.07236
 C114 C 0.35886 0.77736 0.11400
 O115 O 0.30009 0.73605 0.08473
 O116 O 0.20241 0.61387 0.04432
 C117 C 0.20007 0.57199 0.10507
 O118 O 0.23587 0.54859 0.10143
 O119 O 0.35214 0.57278 0.11057
 C120 C 0.39480 0.62320 0.16519
 Cr121 Cr 0.41621 0.71443 0.01331
 Cr122 Cr 0.26744 0.67988 -0.03190
 Cr123 Cr 0.29214 0.55645 0.00514
 O124 O 0.32507 0.64985 -0.00546
 O125 O 0.56515 0.25033 -0.10856
 O126 O 0.64921 0.22012 -0.05623
 C127 C 0.70496 0.24608 -0.09124
 O128 O 0.75174 0.30624 -0.07192
 O129 O 0.79054 0.43314 -0.08109
 C130 C 0.76274 0.44754 -0.14927
 O131 O 0.70646 0.43660 -0.14307
 O132 O 0.58348 0.35321 -0.11820
 C133 C 0.55524 0.29226 -0.14910
 O134 O 0.55666 0.27790 0.08516
 O135 O 0.63995 0.24665 0.13705
 C136 C 0.69753 0.26892 0.16910
 O137 O 0.74659 0.31245 0.12516
 O138 O 0.77951 0.43640 0.11804
 C139 C 0.76566 0.48087 0.11597
 O140 O 0.72605 0.47987 0.05090
 O141 O 0.60487 0.38998 0.07717
 C142 C 0.56542 0.33389 0.11477
 Cr143 Cr 0.60553 0.25258 0.01364
 Cr144 Cr 0.76348 0.37121 0.02152
 Cr145 Cr 0.65591 0.41212 -0.03201
 O146 O 0.67476 0.34482 0.00058
 N147 N 0.45228 0.82998 -0.27131
 N148 N 0.40243 0.81418 -0.22444
 N149 N 0.14171 0.53848 -0.29843
 N150 N 0.17273 0.52251 -0.24446
 N151 N 0.43271 0.54192 -0.20541
 N152 N 0.44904 0.58121 -0.13294
 N153 N 0.67475 0.16615 -0.21867
 N154 N 0.71644 0.20582 -0.15563
 N155 N 0.85208 0.48494 -0.24437
 N156 N 0.79664 0.47648 -0.23716
 N157 N 0.50094 0.30728 -0.28298
 N158 N 0.50960 0.26888 -0.23315
 N159 N 0.83637 0.53896 0.25240
 N160 N 0.79628 0.53504 0.18939
 N161 N 0.66512 0.19899 0.30473
 N162 N 0.70905 0.24428 0.25871
 N163 N 0.53782 0.38936 0.22637
 N164 N 0.53031 0.33409 0.19648
 N165 N 0.12821 0.58299 0.19997
 N166 N 0.15713 0.55265 0.18383
 N167 N 0.43403 0.86532 0.22247
 N168 N 0.37440 0.82285 0.19741
 N169 N 0.38374 0.55219 0.29121
 N170 N 0.41951 0.60915 0.25309
   
