data_POSCAR
  _audit_creation_date              2014-09-24
  _audit_creation_method            'ToBaCCo'
  _symmetry_space_group_name_H-M    'P1'
  _symmetry_Int_Tables_number       1
  _symmetry_cell_setting            triclinic
  loop_
  _symmetry_equiv_pos_as_xyz
 x,y,z
_cell_length_a 29.0555
_cell_length_b 29.0091
_cell_length_c 85.4320
_cell_angle_alpha 90.250600
_cell_angle_beta 89.944400
_cell_angle_gamma 119.844700
loop_
  _atom_site_label
  _atom_site_type_symbol
  _atom_site_fract_x
  _atom_site_fract_y
  _atom_site_fract_z
C1 C -0.04459 -0.05926 0.48655
 C2 C -0.01401 -0.03079 0.49958
 C3 C -0.01093 -0.05869 0.51257
 C4 C -0.03778 -0.11438 0.51249
 C5 C -0.06849 -0.14247 0.49950
 C6 C -0.07208 -0.11496 0.48655
 C7 C 0.01472 0.02802 0.49963
 C8 C 0.01070 0.05609 0.51252
 C9 C 0.03775 0.11174 0.51254
 C10 C 0.06957 0.13967 0.49979
 C11 C 0.07409 0.11203 0.48695
 C12 C 0.04644 0.05637 0.48682
 H13 H -0.04761 -0.03802 0.47654
 H14 H 0.01305 -0.03700 0.52261
 H15 H -0.01405 0.03466 0.52240
 H16 H 0.05032 0.03515 0.47689
 H17 H -0.08954 -0.18563 0.49947
 H18 H 0.09081 0.18278 0.49985
 C19 C 1.05580 0.00735 0.15368
 C20 C 1.02746 0.01061 0.16657
 C21 C 1.05542 0.04180 0.17958
 C22 C 1.11097 0.06970 0.17964
 C23 C 1.13895 0.06597 0.16681
 C24 C 1.11141 0.03464 0.15384
 C25 C 0.96876 -0.01851 0.16646
 C26 C 0.94032 -0.05017 0.17926
 C27 C 0.88475 -0.07802 0.17910
 C28 C 0.85729 -0.07376 0.16625
 C29 C 0.88533 -0.04200 0.15349
 C30 C 0.94089 -0.01478 0.15354
 H31 H 1.03450 -0.01708 0.14366
 H32 H 1.03396 0.04504 0.18952
 H33 H 0.96140 -0.05379 0.18922
 H34 H 0.96242 0.00996 0.14367
 H35 H 1.18201 0.08741 0.16693
 H36 H 0.81425 -0.09508 0.16617
 C37 C 0.04664 0.99321 0.84707
 C38 C 0.01547 0.98966 0.83405
 C39 C 0.01256 0.95786 0.82121
 C40 C 0.04012 0.92970 0.82142
 C41 C 0.07137 0.93372 0.83438
 C42 C 0.07483 0.96562 0.84719
 C43 C -0.01396 1.01913 0.83386
 C44 C -0.01086 1.04986 0.82081
 C45 C -0.03840 1.07805 0.82066
 C46 C -0.06981 1.07511 0.83347
 C47 C -0.07345 1.04428 0.84649
 C48 C -0.04529 1.01666 0.84673
 H49 H 0.04957 1.01811 0.85696
 H50 H -0.01180 0.95438 0.81117
 H51 H 0.01362 1.05251 0.81088
 H52 H -0.04835 0.99259 0.85678
 H53 H 0.09290 0.91205 0.83447
 H54 H -0.09133 1.09679 0.83329
 O55 O 0.56680 0.04839 -0.01519
 O56 O 0.47712 0.04580 0.01564
 O57 O 0.56668 0.04580 0.01531
 O58 O 0.47662 0.04714 -0.01486
 O59 O 0.43351 -0.04074 -0.01542
 O60 O 0.52336 -0.04208 0.01465
 O61 O 0.43381 -0.04208 0.01508
 O62 O 0.52369 -0.03948 -0.01585
 Cu63 Cu 0.52617 0.05565 0.00029
 Cu64 Cu 0.47424 -0.04996 -0.00045
 C65 C 0.56035 0.00498 -0.02076
 C66 C 0.44042 0.00151 0.02060
 C67 C 0.56008 0.00155 0.02009
 C68 C 0.43991 0.00334 -0.02024
 O69 O 0.04208 0.47875 0.65115
 O70 O 0.04298 0.56851 0.68185
 O71 O 0.04212 0.47840 0.68165
 O72 O 0.04176 0.56832 0.65133
 O73 O -0.04599 0.52469 0.65150
 O74 O -0.04563 0.43495 0.68173
 O75 O -0.04477 0.52505 0.68203
 O76 O -0.04568 0.43511 0.65123
 Cu77 Cu 0.05109 0.52791 0.66648
 Cu78 Cu -0.05437 0.47558 0.66663
 C79 C -0.00187 0.44183 0.64599
 C80 C -0.00067 0.56186 0.68717
 C81 C -0.00177 0.44155 0.68682
 C82 C -0.00225 0.56154 0.64627
 O83 O 0.56941 0.51849 0.34835
 O84 O 0.47825 0.42938 0.31808
 O85 O 0.56785 0.51862 0.31783
 O86 O 0.47917 0.42994 0.34858
 O87 O 0.43617 0.47496 0.34886
 O88 O 0.52465 0.56345 0.31822
 O89 O 0.43504 0.47420 0.31836
 O90 O 0.52642 0.56351 0.34874
 Cu91 Cu 0.52804 0.46960 0.33317
 Cu92 Cu 0.47624 0.52358 0.33358
 C93 C 0.56325 0.55590 0.35370
 C94 C 0.44134 0.43674 0.31308
 C95 C 0.56105 0.55592 0.31281
 C96 C 0.44274 0.43761 0.35392
 C97 C 0.03247 0.14025 0.52561
 C98 C 0.02794 0.16434 0.53647
 C99 C 0.02252 0.19341 0.54936
 C100 C -0.02435 0.19535 0.55120
 C101 C -0.02931 0.22440 0.56354
 C102 C 0.01262 0.25191 0.57421
 C103 C 0.05946 0.24943 0.57230
 C104 C 0.06434 0.22039 0.55995
 C105 C 0.00786 0.28368 0.58714
 C106 C 0.02789 0.28373 0.60214
 C107 C 0.02446 0.31462 0.61419
 C108 C 0.00098 0.34584 0.61144
 C109 C -0.01943 0.34577 0.59660
 C110 C -0.01608 0.31488 0.58453
 C111 C -0.00096 0.37897 0.62371
 C112 C -0.00183 0.40733 0.63392
 H113 H -0.05702 0.17451 0.54308
 H114 H -0.06610 0.22499 0.56481
 H115 H 0.09270 0.27075 0.58019
 H116 H 0.10088 0.21932 0.55859
 H117 H 0.04592 0.25962 0.60456
 H118 H 0.04036 0.31436 0.62564
 H119 H -0.03744 0.37001 0.59432
 H120 H -0.03123 0.31626 0.57307
 C121 C 0.85585 0.88837 0.19205
 C122 C 0.83144 0.85980 0.20279
 C123 C 0.80197 0.82525 0.21551
 C124 C 0.74777 0.78915 0.21373
 C125 C 0.71906 0.75521 0.22600
 C126 C 0.74424 0.75692 0.24023
 C127 C 0.79875 0.79345 0.24191
 C128 C 0.82741 0.82734 0.22961
 C129 C 0.71364 0.72085 0.25326
 C130 C 0.72217 0.73946 0.26882
 C131 C 0.69248 0.70572 0.28102
 C132 C 0.65401 0.65298 0.27785
 C133 C 0.64558 0.63396 0.26244
 C134 C 0.67517 0.66761 0.25022
 C135 C 0.62217 0.61872 0.29032
 C136 C 0.59471 0.59002 0.30066
 H137 H 0.72766 0.78729 0.20288
 H138 H 0.67702 0.72809 0.22442
 H139 H 0.81938 0.79529 0.25265
 H140 H 0.86941 0.85502 0.23109
 H141 H 0.75103 0.78037 0.27151
 H142 H 0.69914 0.72092 0.29290
 H143 H 0.61592 0.59319 0.25985
 H144 H 0.66820 0.65190 0.23840
 C145 C 0.10610 -0.02970 -0.14034
 C146 C 0.13413 -0.02540 -0.12939
 C147 C 0.16800 -0.02022 -0.11642
 C148 C 0.21324 0.02874 -0.11324
 C149 C 0.24682 0.03357 -0.10086
 C150 C 0.23553 -0.01060 -0.09149
 C151 C 0.18972 -0.05957 -0.09472
 C152 C 0.15624 -0.06431 -0.10712
 C153 C 0.27178 -0.00589 -0.07856
 C154 C 0.25138 -0.03177 -0.06421
 C155 C 0.28560 -0.02840 -0.05220
 C156 C 0.34059 0.00084 -0.05436
 C157 C 0.36129 0.02708 -0.06853
 C158 C 0.32716 0.02381 -0.08055
 C159 C 0.37574 0.00268 -0.04220
 C160 C 0.40511 0.00345 -0.03212
 H161 H 0.22267 0.06315 -0.12036
 H162 H 0.28139 0.07192 -0.09854
 H163 H 0.18034 -0.09446 -0.08786
 H164 H 0.12143 -0.10245 -0.10952
 H165 H 0.20898 -0.05437 -0.06225
 H166 H 0.26916 -0.04887 -0.04127
 H167 H 0.40380 0.04959 -0.07035
 H168 H 0.34408 0.04358 -0.09152
 C169 C -0.03350 0.85881 0.52495
 C170 C -0.02953 0.83489 0.53589
 C171 C -0.02466 0.80602 0.54883
 C172 C -0.04248 0.81010 0.56372
 C173 C -0.03820 0.78158 0.57625
 C174 C -0.01596 0.74861 0.57403
 C175 C 0.00204 0.74499 0.55903
 C176 C -0.00232 0.77350 0.54652
 C177 C -0.01217 0.71756 0.58725
 C178 C 0.03304 0.71214 0.58910
 C179 C 0.03597 0.68180 0.60132
 C180 C -0.00618 0.65650 0.61186
 C181 C -0.05113 0.66199 0.61020
 C182 C -0.05413 0.69233 0.59800
 C183 C -0.00396 0.62384 0.62413
 C184 C -0.00276 0.59579 0.63431
 H185 H -0.05971 0.83528 0.56564
 H186 H -0.05182 0.78570 0.58769
 H187 H 0.01864 0.71940 0.55689
 H188 H 0.01146 0.76994 0.53503
 H189 H 0.06627 0.73163 0.58114
 H190 H 0.07097 0.67785 0.60250
 H191 H -0.08410 0.64236 0.61825
 H192 H -0.08974 0.69514 0.59678
 C193 C 0.13936 0.10283 0.19280
 C194 C 0.16332 0.13099 0.20374
 C195 C 0.19223 0.16502 0.21669
 C196 C 0.19006 0.21143 0.21956
 C197 C 0.21898 0.24511 0.23194
 C198 C 0.25049 0.23277 0.24162
 C199 C 0.25212 0.18582 0.23869
 C200 C 0.22319 0.15222 0.22629
 C201 C 0.28217 0.26907 0.25456
 C202 C 0.28631 0.24862 0.26907
 C203 C 0.31724 0.28282 0.28111
 C204 C 0.34440 0.33786 0.27882
 C205 C 0.34019 0.35862 0.26448
 C206 C 0.30925 0.32450 0.25243
 C207 C 0.37777 0.37292 0.29101
 C208 C 0.40640 0.40217 0.30114
 H209 H 0.16613 0.22166 0.21221
 H210 H 0.21639 0.28060 0.23401
 H211 H 0.27655 0.17558 0.24579
 H212 H 0.22532 0.11649 0.22413
 H213 H 0.26540 0.20620 0.27114
 H214 H 0.32022 0.26633 0.29217
 H215 H 0.36129 0.40115 0.26255
 H216 H 0.30744 0.34144 0.24134
 C217 C 0.89516 0.04067 -0.14118
 C218 C 0.86700 0.03736 -0.13036
 C219 C 0.83297 0.03335 -0.11757
 C220 C 0.80837 -0.01283 -0.10852
 C221 C 0.77449 -0.01709 -0.09628
 C222 C 0.76471 0.02484 -0.09296
 C223 C 0.78989 0.07121 -0.10208
 C224 C 0.82377 0.07538 -0.11430
 C225 C 0.72811 0.02013 -0.08012
 C226 C 0.69245 0.03919 -0.08212
 C227 C 0.65818 0.03506 -0.07003
 C228 C 0.65902 0.01183 -0.05579
 C229 C 0.69419 -0.00743 -0.05369
 C230 C 0.72851 -0.00338 -0.06578
 C231 C 0.62417 0.00846 -0.04331
 C232 C 0.59499 0.00641 -0.03296
 H233 H 0.81507 -0.04568 -0.11099
 H234 H 0.75522 -0.05352 -0.08959
 H235 H 0.78377 0.10444 -0.09968
 H236 H 0.84269 0.11135 -0.12122
 H237 H 0.69064 0.05678 -0.09309
 H238 H 0.63103 0.05001 -0.07179
 H239 H 0.69531 -0.02531 -0.04269
 H240 H 0.75591 -0.01786 -0.06383
 C241 C 0.13867 0.03017 0.14149
 C242 C 0.16296 0.02601 0.13065
 C243 C 0.19226 0.02092 0.11781
 C244 C 0.20781 -0.01761 0.11828
 C245 C 0.23704 -0.02208 0.10595
 C246 C 0.25111 0.01199 0.09297
 C247 C 0.23498 0.05038 0.09257
 C248 C 0.20577 0.05480 0.10492
 C249 C 0.28312 0.00801 0.08002
 C250 C 0.27184 0.01347 0.06434
 C251 C 0.30269 0.01071 0.05219
 C252 C 0.34518 0.00246 0.05555
 C253 C 0.35653 -0.00333 0.07109
 C254 C 0.32572 -0.00062 0.08325
 C255 C 0.37796 0.00121 0.04310
 C256 C 0.40609 0.00089 0.03277
 H257 H 0.19743 -0.04413 0.12819
 H258 H 0.24826 -0.05247 0.10651
 H259 H 0.24578 0.07764 0.08284
 H260 H 0.19407 0.08488 0.10446
 H261 H 0.23893 0.01949 0.06146
 H262 H 0.29355 0.01522 0.04020
 H263 H 0.38950 -0.00944 0.07382
 H264 H 0.33588 -0.00424 0.09520
 C265 C 0.89719 0.85760 0.47406
 C266 C 0.86958 0.83301 0.46311
 C267 C 0.83615 0.80317 0.45018
 C268 C 0.80323 0.81939 0.44305
 C269 C 0.76976 0.78963 0.43073
 C270 C 0.76872 0.74314 0.42542
 C271 C 0.80229 0.72742 0.43260
 C272 C 0.83574 0.75726 0.44489
 C273 C 0.73232 0.71076 0.41259
 C274 C 0.70499 0.65492 0.41338
 C275 C 0.67064 0.62435 0.40134
 C276 C 0.66310 0.64909 0.38836
 C277 C 0.69003 0.70461 0.38745
 C278 C 0.72441 0.73529 0.39949
 C279 C 0.62788 0.61726 0.37598
 C280 C 0.59835 0.58974 0.36573
 H281 H 0.80310 0.85478 0.44709
 H282 H 0.74395 0.80241 0.42558
 H283 H 0.80295 0.69226 0.42863
 H284 H 0.86113 0.74440 0.45031
 H285 H 0.70962 0.63486 0.42340
 H286 H 0.64989 0.58140 0.40218
 H287 H 0.68461 0.72416 0.37743
 H288 H 0.74533 0.77817 0.39846
 C289 C -0.03390 0.11061 0.80744
 C290 C -0.02995 0.13828 0.79645
 C291 C -0.02516 0.17171 0.78344
 C292 C 0.02436 0.21488 0.77955
 C293 C 0.02891 0.24807 0.76712
 C294 C -0.01611 0.23848 0.75840
 C295 C -0.06567 0.19475 0.76235
 C296 C -0.07012 0.16164 0.77480
 C297 C -0.01159 0.27435 0.74541
 C298 C -0.04050 0.25361 0.73146
 C299 C -0.03719 0.28754 0.71940
 C300 C -0.00496 0.34259 0.72110
 C301 C 0.02427 0.36360 0.73487
 C302 C 0.02105 0.32975 0.74695
 C303 C -0.00298 0.37756 0.70889
 C304 C -0.00200 0.40683 0.69876
 H305 H 0.05944 0.22298 0.78616
 H306 H 0.06768 0.28100 0.76425
 H307 H -0.10116 0.18673 0.75601
 H308 H -0.10869 0.12846 0.77775
 H309 H -0.06544 0.21113 0.72984
 H310 H -0.05997 0.27085 0.70878
 H311 H 0.04913 0.40618 0.73635
 H312 H 0.04324 0.34698 0.75762
 C313 C 0.85702 -0.03672 0.14044
 C314 C 0.83313 -0.03207 0.12960
 C315 C 0.80430 -0.02636 0.11678
 C316 C 0.80965 -0.04174 0.10164
 C317 C 0.78121 -0.03661 0.08922
 C318 C 0.74705 -0.01598 0.09179
 C319 C 0.74217 -0.00043 0.10705
 C320 C 0.77060 -0.00563 0.11944
 C321 C 0.71608 -0.01134 0.07868
 C322 C 0.70931 0.03331 0.07750
 C323 C 0.67901 0.03696 0.06537
 C324 C 0.65512 -0.00389 0.05427
 C325 C 0.66198 -0.04824 0.05527
 C326 C 0.69228 -0.05196 0.06737
 C327 C 0.62246 -0.00104 0.04209
 C328 C 0.59438 0.00061 0.03199
 H329 H 0.83575 -0.05770 0.09944
 H330 H 0.78631 -0.04832 0.07759
 H331 H 0.71565 0.01488 0.10945
 H332 H 0.76605 0.00625 0.13112
 H333 H 0.72768 0.06554 0.08590
 H334 H 0.67398 0.07149 0.06470
 H335 H 0.64344 -0.08022 0.04678
 H336 H 0.69615 -0.08714 0.06808
 C337 C 0.10787 0.14087 0.47403
 C338 C 0.13665 0.16534 0.46332
 C339 C 0.17149 0.19497 0.45068
 C340 C 0.20841 0.24892 0.45269
 C341 C 0.24263 0.27781 0.44049
 C342 C 0.24038 0.25305 0.42609
 C343 C 0.20304 0.19878 0.42416
 C344 C 0.16886 0.16995 0.43639
 C345 C 0.27671 0.28386 0.41313
 C346 C 0.25817 0.27647 0.39760
 C347 C 0.29216 0.30641 0.38547
 C348 C 0.34509 0.34399 0.38868
 C349 C 0.36403 0.35128 0.40407
 C350 C 0.33013 0.32143 0.41621
 C351 C 0.37962 0.37612 0.37630
 C352 C 0.40850 0.40378 0.36602
 H353 H 0.21070 0.26871 0.46369
 H354 H 0.27039 0.31968 0.44227
 H355 H 0.20075 0.17846 0.41328
 H356 H 0.14054 0.12813 0.43473
 H357 H 0.21713 0.24833 0.39487
 H358 H 0.27701 0.30064 0.37361
 H359 H 0.40495 0.38024 0.40669
 H360 H 0.34578 0.32751 0.42800
 C361 C 0.03578 0.89605 0.80842
 C362 C 0.03198 0.86748 0.79762
 C363 C 0.02735 0.83293 0.78484
 C364 C 0.05117 0.80137 0.78590
 C365 C 0.04630 0.76732 0.77360
 C366 C 0.01747 0.76438 0.76004
 C367 C -0.00620 0.79642 0.75906
 C368 C -0.00130 0.83043 0.77140
 C369 C 0.01220 0.72804 0.74699
 C370 C 0.01602 0.74438 0.73132
 C371 C 0.01203 0.71043 0.71908
 C372 C 0.00406 0.65972 0.72232
 C373 C -0.00022 0.64295 0.73785
 C374 C 0.00380 0.67682 0.75011
 C375 C 0.00150 0.62527 0.70976
 C376 C 0.00008 0.59633 0.69937
 H377 H 0.07355 0.80309 0.79625
 H378 H 0.06562 0.74375 0.77461
 H379 H -0.02914 0.79460 0.74886
 H380 H -0.02005 0.85457 0.77048
 H381 H 0.02311 0.78378 0.72855
 H382 H 0.01565 0.72390 0.70710
 H383 H -0.00644 0.60375 0.74049
 H384 H -0.00006 0.66280 0.76202
   
