data_POSCAR
  _audit_creation_date              2014-09-24
  _audit_creation_method            'ToBaCCo'
  _symmetry_space_group_name_H-M    'P1'
  _symmetry_Int_Tables_number       1
  _symmetry_cell_setting            triclinic
  loop_
  _symmetry_equiv_pos_as_xyz
 x,y,z
_cell_length_a 25.3444
_cell_length_b 25.3273
_cell_length_c 25.3772
_cell_angle_alpha 88.212800
_cell_angle_beta 91.066500
_cell_angle_gamma 92.214700
loop_
  _atom_site_label
  _atom_site_type_symbol
  _atom_site_fract_x
  _atom_site_fract_y
  _atom_site_fract_z
C1 C -0.00409 0.49556 0.24899
 C2 C 0.00568 0.50996 0.74965
 C3 C 0.24725 -0.01178 0.50413
 C4 C 0.75131 0.00608 0.49509
 C5 C 0.50918 0.25119 1.00764
 C6 C 0.49046 0.74920 0.99361
 B7 B 0.99983 1.05761 0.03020
 B8 B 0.99692 1.05595 -0.03628
 B9 B 1.05300 1.03940 -0.00340
 B10 B 1.03553 1.00609 0.05290
 B11 B 0.96886 1.00177 0.05483
 B12 B 0.94475 1.03248 -0.00045
 B13 B 0.99972 0.94768 -0.03045
 B14 B 1.00266 0.94939 0.03601
 B15 B 0.94651 0.96587 0.00308
 B16 B 0.96411 0.99925 -0.05321
 B17 B 1.03072 1.00347 -0.05511
 B18 B 1.05492 0.97277 0.00015
 B19 B 0.55382 0.49800 0.46768
 B20 B 0.55506 0.49718 0.53431
 B21 B 0.53556 0.55173 0.49987
 B22 B 0.50042 0.53138 0.44619
 B23 B 0.49791 0.46444 0.44777
 B24 B 0.53172 0.44322 0.50216
 B25 B 0.44680 0.49699 0.53441
 B26 B 0.44534 0.49735 0.46786
 B27 B 0.46509 0.44296 0.50238
 B28 B 0.50023 0.46357 0.55594
 B29 B 0.50243 0.53030 0.55451
 B30 B 0.46884 0.55163 0.49980
 N31 N 1.02579 1.39460 0.15066
 C32 C 0.98791 1.35645 0.16040
 N33 N 0.95018 1.36518 0.19581
 N34 N 0.95105 1.41010 0.22172
 C35 C 0.98970 1.44808 0.21335
 N36 N 1.02663 1.43961 0.17658
 C37 C 0.99020 1.30568 0.13716
 C38 C 0.99254 1.26234 0.11919
 C39 C 0.99566 1.21059 0.09831
 N40 N 0.96927 1.16851 0.12116
 N41 N 0.97144 1.12069 0.10097
 C42 C 1.00010 1.11327 0.05734
 N43 N 1.02700 1.15549 0.03515
 N44 N 1.02489 1.20326 0.05523
 N45 N 0.96718 0.60677 0.15374
 C46 C 1.00667 0.64255 0.16497
 N47 N 1.04500 0.62899 0.20007
 N48 N 1.04311 0.58171 0.22443
 C49 C 1.00280 0.54607 0.21480
 N50 N 0.96534 0.55932 0.17810
 C51 C 1.00587 0.69561 0.14370
 C52 C 1.00559 0.74085 0.12762
 C53 C 1.00574 0.79484 0.10891
 N54 N 1.05058 0.81862 0.09004
 N55 N 1.05020 0.86785 0.07012
 C56 C 1.00518 0.89526 0.06878
 N57 N 0.96051 0.87148 0.08849
 N58 N 0.96080 0.82220 0.10844
 N59 N 0.95873 1.39470 -0.16585
 C60 C 1.00081 1.36317 -0.16581
 N61 N 1.04573 1.38112 -0.18942
 N62 N 1.04812 1.42847 -0.21365
 C63 C 1.00568 1.45985 -0.21531
 N64 N 0.96114 1.44224 -0.19007
 C65 C 0.99706 1.30990 -0.14478
 C66 C 0.99523 1.26458 -0.12865
 C67 C 0.99431 1.21053 -0.10977
 N68 N 1.03861 1.18226 -0.11060
 N69 N 1.03867 1.13309 -0.09035
 C70 C 0.99435 1.11026 -0.06896
 N71 N 0.94992 1.13859 -0.06889
 N72 N 0.94978 1.18775 -0.08910
 N73 N 1.00559 0.60393 -0.13852
 C74 C 1.00754 0.65130 -0.16520
 N75 N 1.00945 0.65239 -0.21838
 N76 N 1.00924 0.60765 -0.24431
 C77 C 1.00711 0.55993 -0.21817
 N78 N 1.00542 0.55889 -0.16457
 C79 C 1.00647 0.70024 -0.13854
 C80 C 1.00516 0.74292 -0.11909
 C81 C 1.00316 0.79448 -0.09775
 N82 N 1.02941 0.83639 -0.12105
 N83 N 1.02756 0.88432 -0.10109
 C84 C 0.99923 0.89199 -0.05731
 N85 N 0.97248 0.84992 -0.03467
 N86 N 0.97429 0.80204 -0.05451
 N87 N 1.16164 1.03968 0.39352
 C88 C 1.16663 1.00242 0.35679
 N89 N 1.19495 0.95948 0.36898
 N90 N 1.21835 0.95422 0.41602
 C91 C 1.21423 0.99142 0.45314
 N92 N 1.18508 1.03431 0.44086
 C93 C 1.14478 1.00861 0.30452
 C94 C 1.12819 1.01100 0.25973
 C95 C 1.10904 1.01131 0.20618
 N96 N 1.11041 0.96698 0.17770
 N97 N 1.09002 0.96611 0.12895
 C98 C 1.06791 1.00963 0.10681
 N99 N 1.06728 1.05410 0.13536
 N100 N 1.08762 1.05505 0.18409
 N101 N 1.14944 1.02431 -0.39562
 C102 C 1.16142 0.99110 -0.35450
 N103 N 1.19854 0.95495 -0.36052
 N104 N 1.22351 0.95248 -0.40593
 C105 C 1.21211 0.98567 -0.44746
 N106 N 1.17446 1.02177 -0.44124
 C107 C 1.13804 0.99592 -0.30392
 C108 C 1.12021 0.99906 -0.26048
 C109 C 1.09961 1.00202 -0.20844
 N110 N 1.12211 0.97539 -0.16715
 N111 N 1.10175 0.97672 -0.11916
 C112 C 1.05823 1.00472 -0.11084
 N113 N 1.03639 1.03182 -0.15227
 N114 N 1.05664 1.03054 -0.20019
 N115 N 0.80460 1.04799 0.36357
 C116 C 0.84058 1.01113 0.35561
 N117 N 0.85098 0.97510 0.39475
 N118 N 0.82528 0.97536 0.44015
 C119 C 0.78835 1.01181 0.44810
 N120 N 0.77891 1.04819 0.40877
 C121 C 0.86356 1.00787 0.30464
 C122 C 0.88096 1.00548 0.26094
 C123 C 0.90113 1.00285 0.20869
 N124 N 0.94394 0.97426 0.19996
 N125 N 0.96372 0.97304 0.15185
 C126 C 0.94155 1.00024 0.11067
 N127 N 0.89814 1.02824 0.11945
 N128 N 0.87823 1.02951 0.16765
 N129 N 0.77530 0.99540 -0.36002
 C130 C 0.82854 0.99648 -0.35568
 N131 N 0.85768 0.99975 -0.40013
 N132 N 0.83402 1.00192 -0.44758
 C133 C 0.78038 1.00068 -0.45209
 N134 N 0.75176 0.99758 -0.40721
 C135 C 0.85290 0.99560 -0.30421
 C136 C 0.87093 0.99529 -0.25993
 C137 C 0.89114 0.99531 -0.20677
 N138 N 0.91165 0.95114 -0.18455
 N139 N 0.93189 0.95172 -0.13577
 C140 C 0.93188 0.99620 -0.10723
 N141 N 0.91072 1.04018 -0.12951
 N142 N 0.89045 1.03968 -0.17832
 N143 N 1.40166 1.14560 -0.00194
 C144 C 1.35803 1.17513 -0.00477
 N145 N 1.36381 1.22837 -0.00465
 N146 N 1.41164 1.25153 -0.00170
 C147 C 1.45572 1.22254 0.00098
 N148 N 1.44975 1.16890 0.00098
 C149 C 1.30591 1.15121 -0.00617
 C150 C 1.26110 1.13358 -0.00679
 C151 C 1.20742 1.11372 -0.00705
 N152 N 1.17835 1.11451 0.03719
 N153 N 1.12914 1.09404 0.03755
 C154 C 1.10714 1.07257 -0.00641
 N155 N 1.13626 1.07264 -0.05080
 N156 N 1.18543 1.09307 -0.05125
 N157 N 0.60715 1.15126 -0.02593
 C158 C 0.64602 1.16048 0.01048
 N159 N 0.63864 1.19593 0.04816
 N160 N 0.59425 1.22217 0.04888
 C161 C 0.55518 1.21384 0.01221
 N162 N 0.56255 1.17752 -0.02515
 C163 C 0.69628 1.13689 0.00688
 C164 C 0.73955 1.11912 0.00437
 C165 C 0.79144 1.09889 0.00178
 N166 N 0.83252 1.12191 0.02865
 N167 N 0.88049 1.10225 0.02719
 C168 C 0.88901 1.05897 -0.00124
 N169 N 0.84779 1.03658 -0.02856
 N170 N 0.79988 1.05613 -0.02714
 N171 N 1.39229 0.84998 0.02573
 C172 C 1.35256 0.83925 -0.00940
 N173 N 1.35924 0.80217 -0.04569
 N174 N 1.40374 0.77599 -0.04634
 C175 C 1.44372 0.78597 -0.01101
 N176 N 1.43697 0.82377 0.02504
 C177 C 1.30242 0.86376 -0.00622
 C178 C 1.25942 0.88254 -0.00406
 C179 C 1.20777 0.90406 -0.00187
 N180 N 1.16603 0.88096 -0.02771
 N181 N 1.11840 0.90149 -0.02644
 C182 C 1.11075 0.94582 0.00074
 N183 N 1.15264 0.96841 0.02695
 N184 N 1.20023 0.94798 0.02572
 N185 N 0.63612 0.77406 0.00155
 C186 C 0.64136 0.82735 0.00203
 N187 N 0.59726 0.85627 0.00019
 N188 N 0.54935 0.83239 -0.00197
 C189 C 0.54395 0.77870 -0.00219
 N190 N 0.58848 0.75031 -0.00062
 C191 C 0.69341 0.85200 0.00361
 C192 C 0.73812 0.87027 0.00461
 C193 C 0.79179 0.89088 0.00538
 N194 N 0.81303 0.91236 0.04956
 N195 N 0.86216 0.93310 0.04960
 C196 C 0.89206 0.93267 0.00574
 N197 N 0.87075 0.91048 -0.03822
 N198 N 0.82163 0.88971 -0.03834
 N199 N 0.86722 0.53911 0.29930
 C200 C 0.85304 0.49883 0.33300
 N201 N 0.88693 0.45933 0.34257
 N202 N 0.93303 0.45948 0.31799
 C203 C 0.94682 0.49906 0.28277
 N204 N 0.91314 0.53921 0.27474
 C205 C 0.80157 0.49717 0.35584
 C206 C 0.75783 0.49707 0.37378
 C207 C 0.70592 0.49840 0.39532
 N208 N 0.66523 0.46816 0.37569
 N209 N 0.61747 0.46893 0.39683
 C210 C 0.60873 0.50003 0.43817
 N211 N 0.64951 0.53082 0.45691
 N212 N 0.69716 0.53012 0.43592
 N213 N 0.10411 0.52586 0.34675
 C214 C 0.14001 0.48963 0.33560
 N215 N 0.12710 0.45233 0.30008
 N216 N 0.08047 0.45228 0.27512
 C217 C 0.04477 0.48945 0.28465
 N218 N 0.05733 0.52576 0.32178
 C219 C 0.19238 0.49252 0.35813
 C220 C 0.23693 0.49409 0.37572
 C221 C 0.28982 0.49441 0.39697
 N222 N 0.30188 0.46101 0.43762
 N223 N 0.35051 0.46145 0.45820
 C224 C 0.38906 0.49509 0.43901
 N225 N 0.37698 0.52809 0.39772
 N226 N 0.32819 0.52773 0.37697
 N227 N 0.87234 0.54275 0.69573
 C228 C 0.85990 0.50107 0.66531
 N229 N 0.89576 0.46326 0.65990
 N230 N 0.94257 0.46692 0.68479
 C231 C 0.95515 0.50859 0.71588
 N232 N 0.91887 0.54633 0.72057
 C233 C 0.80815 0.49645 0.64184
 C234 C 0.76374 0.49487 0.62409
 C235 C 0.71053 0.49495 0.60406
 N236 N 0.68539 0.44941 0.58956
 N237 N 0.63634 0.44998 0.56990
 C238 C 0.61045 0.49586 0.56448
 N239 N 0.63581 0.54129 0.57938
 N240 N 0.68488 0.54085 0.59906
 N241 N 0.14194 0.54138 0.70177
 C242 C 0.14722 0.50525 0.66433
 N243 N 0.10548 0.47249 0.65204
 N244 N 0.05992 0.47550 0.67708
 C245 C 0.05443 0.51161 0.71505
 N246 N 0.09660 0.54431 0.72677
 C247 C 0.19756 0.50041 0.64066
 C248 C 0.24110 0.49816 0.62294
 C249 C 0.29355 0.49761 0.60306
 N250 N 0.31840 0.45155 0.59891
 N251 N 0.36695 0.45148 0.57966
 C252 C 0.39253 0.49740 0.56448
 N253 N 0.36746 0.54336 0.56918
 N254 N 0.31899 0.54355 0.58837
 N255 N 0.44669 0.69849 0.12652
 C256 C 0.48451 0.66401 0.14004
 N257 N 0.52139 0.65347 0.10418
 N258 N 0.52136 0.67789 0.05684
 C259 C 0.48450 0.71390 0.04350
 N260 N 0.44671 0.72289 0.07927
 C261 C 0.48789 0.64246 0.19308
 C262 C 0.49129 0.62553 0.23798
 C263 C 0.49581 0.60512 0.29135
 N264 N 0.53198 0.56867 0.30413
 N265 N 0.53455 0.54762 0.35280
 C266 C 0.50117 0.56213 0.39057
 N267 N 0.46586 0.59970 0.37794
 N268 N 0.46321 0.62083 0.32919
 N269 N 0.48508 0.63917 0.89728
 C270 C 0.49480 0.66627 0.85120
 N271 N 0.50296 0.71934 0.85179
 N272 N 0.50155 0.74463 0.89685
 C273 C 0.49197 0.71796 0.94325
 N274 N 0.48366 0.66456 0.94259
 C275 C 0.49624 0.63997 0.80183
 C276 C 0.49779 0.62045 0.75910
 C277 C 0.49969 0.59899 0.70736
 N278 N 0.54094 0.57020 0.69353
 N279 N 0.54257 0.55049 0.64553
 C280 C 0.50342 0.55927 0.60936
 N281 N 0.46225 0.58820 0.62349
 N282 N 0.46053 0.60797 0.67146
 N283 N 0.49302 0.27535 0.14990
 C284 C 0.50250 0.32807 0.15277
 N285 N 0.51411 0.35684 0.10814
 N286 N 0.51613 0.33335 0.06190
 C287 C 0.50653 0.28030 0.05892
 N288 N 0.49504 0.25194 0.10391
 C289 C 0.50058 0.35228 0.20289
 C290 C 0.49865 0.37059 0.24597
 C291 C 0.49635 0.39158 0.29756
 N292 N 0.46220 0.42971 0.30737
 N293 N 0.46155 0.45076 0.35473
 C294 C 0.49494 0.43450 0.39392
 N295 N 0.52814 0.39531 0.38427
 N296 N 0.52885 0.37417 0.33688
 N297 N 0.48243 0.35113 0.90006
 C298 C 0.52022 0.34146 0.86491
 N299 N 0.55743 0.30630 0.87822
 N300 N 0.55593 0.28034 0.92460
 C301 C 0.51709 0.28831 0.95951
 N302 N 0.48097 0.32516 0.94654
 C303 C 0.51736 0.36314 0.81213
 C304 C 0.51404 0.37926 0.76708
 C305 C 0.50929 0.39754 0.71324
 N306 N 0.54734 0.38822 0.67823
 N307 N 0.54339 0.40652 0.62857
 C308 C 0.50106 0.43424 0.61203
 N309 N 0.46291 0.44299 0.64725
 N310 N 0.46676 0.42476 0.69688
 N311 N 0.65488 0.89425 0.52548
 C312 C 0.66432 0.86030 0.48678
 N313 N 0.69826 0.87561 0.44820
 N314 N 0.72327 0.92275 0.44916
 C315 C 0.71553 0.95651 0.48876
 N316 N 0.67991 0.94151 0.52638
 C317 C 0.64286 0.80704 0.48912
 C318 C 0.62666 0.76166 0.49119
 C319 C 0.60790 0.70748 0.49361
 N320 N 0.59820 0.68270 0.54073
 N321 N 0.57834 0.63323 0.54281
 C322 C 0.56790 0.60661 0.49792
 N323 N 0.57851 0.63140 0.45086
 N324 N 0.59834 0.68087 0.44872
 N325 N 0.72301 0.14785 0.50821
 C326 C 0.67052 0.14900 0.49804
 N327 N 0.64316 0.10323 0.48759
 N328 N 0.66782 0.05761 0.48716
 C329 C 0.72067 0.05638 0.49734
 N330 N 0.74759 0.10247 0.50778
 C331 C 0.64505 0.19854 0.49813
 C332 C 0.62563 0.24117 0.49884
 C333 C 0.60328 0.29220 0.50044
 N334 N 0.55966 0.29884 0.52904
 N335 N 0.53849 0.34602 0.53026
 C336 C 0.56006 0.38833 0.50314
 N337 N 0.60426 0.38162 0.47507
 N338 N 0.62557 0.33437 0.47378
 N339 N 0.35686 0.89263 0.49929
 C340 C 0.32908 0.84564 0.49966
 N341 N 0.27590 0.84528 0.50260
 N342 N 0.25106 0.89037 0.50465
 C343 C 0.27832 0.93773 0.50400
 N344 N 0.33191 0.93801 0.50135
 C345 C 0.35484 0.79638 0.49741
 C346 C 0.37447 0.75387 0.49628
 C347 C 0.39748 0.70305 0.49644
 N348 N 0.37307 0.66180 0.47173
 N349 N 0.39456 0.61449 0.47291
 C350 C 0.44104 0.60685 0.49900
 N351 N 0.46487 0.64832 0.52380
 N352 N 0.44358 0.69549 0.52267
 N353 N 0.33489 0.10361 0.46232
 C354 C 0.33478 0.13413 0.50533
 N355 N 0.31005 0.11533 0.54924
 N356 N 0.28493 0.06821 0.54973
 C357 C 0.28344 0.03786 0.50634
 N358 N 0.30978 0.05631 0.46282
 C359 C 0.35669 0.18737 0.50349
 C360 C 0.37342 0.23267 0.50291
 C361 C 0.39280 0.28677 0.50290
 N362 N 0.40472 0.31060 0.54896
 N363 N 0.42475 0.36003 0.54891
 C364 C 0.43315 0.38764 0.50288
 N365 N 0.42048 0.36374 0.45689
 N366 N 0.40048 0.31431 0.45687
   
