data_POSCAR
  _audit_creation_date              2014-09-24
  _audit_creation_method            'ToBaCCo'
  _symmetry_space_group_name_H-M    'P1'
  _symmetry_Int_Tables_number       1
  _symmetry_cell_setting            triclinic
  loop_
  _symmetry_equiv_pos_as_xyz
 x,y,z
_cell_length_a 35.8812
_cell_length_b 36.7385
_cell_length_c 38.0836
_cell_angle_alpha 91.495900
_cell_angle_beta 90.416900
_cell_angle_gamma 90.546300
loop_
  _atom_site_label
  _atom_site_type_symbol
  _atom_site_fract_x
  _atom_site_fract_y
  _atom_site_fract_z
N1 N 0.29461 0.23439 0.19207
 N2 N 0.27641 0.26394 0.18411
 C3 C 0.29142 0.27813 0.15512
 C4 C 0.32086 0.25641 0.14438
 C5 C 0.32199 0.22893 0.16861
 H6 H 0.28235 0.30309 0.14350
 H7 H 0.34190 0.20713 0.16977
 Cu8 Cu 0.23676 0.28278 0.21383
 Cu9 Cu 0.28285 0.20645 0.23338
 Cu10 Cu 0.20584 0.23321 0.28131
 N11 N 0.19043 0.29410 0.23775
 N12 N 0.17821 0.27450 0.26371
 C13 C 0.14545 0.28795 0.27480
 C14 C 0.13666 0.31782 0.25489
 C15 C 0.16594 0.32078 0.23155
 H16 H 0.12914 0.27655 0.29562
 H17 H 0.16909 0.34054 0.21124
 N18 N 0.23762 0.19215 0.29469
 N19 N 0.26661 0.18169 0.27601
 C20 C 0.28297 0.15359 0.29181
 C21 C 0.26353 0.14591 0.32208
 C22 C 0.23494 0.17105 0.32303
 H23 H 0.30778 0.14028 0.28231
 H24 H 0.21415 0.17422 0.34321
 H25 H 0.22701 0.22058 0.23229
 H26 H 0.25803 0.24728 0.26337
 N27 N 0.69664 -0.23425 0.19069
 N28 N 0.71663 -0.26231 0.18051
 C29 C 0.70594 -0.27295 0.14783
 C30 C 0.67722 -0.25061 0.13695
 C31 C 0.67219 -0.22634 0.16511
 H32 H 0.71831 -0.29525 0.13318
 H33 H 0.65250 -0.20433 0.16706
 Cu34 Cu 0.75379 -0.28313 0.21147
 Cu35 Cu 0.70386 -0.21013 0.23642
 Cu36 Cu 0.78618 -0.23121 0.27932
 N37 N 0.79904 -0.29558 0.23678
 N38 N 0.81229 -0.27435 0.26228
 C39 C 0.84342 -0.28912 0.27538
 C40 C 0.85010 -0.32175 0.25737
 C41 C 0.82116 -0.32483 0.23295
 H42 H 0.85909 -0.27741 0.29727
 H43 H 0.81607 -0.34696 0.21425
 N44 N 0.75537 -0.18904 0.29289
 N45 N 0.72392 -0.18122 0.27674
 C46 C 0.70956 -0.15095 0.29185
 C47 C 0.73281 -0.13934 0.31923
 C48 C 0.76158 -0.16424 0.31900
 H49 H 0.68425 -0.13817 0.28319
 H50 H 0.78557 -0.16411 0.33630
 H51 H 0.75964 -0.22015 0.23209
 H52 H 0.73411 -0.24840 0.26419
 N53 N 0.70836 0.22083 0.81747
 N54 N 0.73130 0.24591 0.83042
 C55 C 0.71899 0.25725 0.86214
 C56 C 0.68639 0.23842 0.86948
 C57 C 0.68059 0.21551 0.84040
 H58 H 0.73303 0.27743 0.87874
 H59 H 0.65827 0.19586 0.83639
 Cu60 Cu 0.77542 0.26130 0.80505
 Cu61 Cu 0.71740 0.19547 0.77284
 Cu62 Cu 0.78870 0.22924 0.72234
 N63 N 0.81078 0.28412 0.77368
 N64 N 0.81554 0.27166 0.74140
 C65 C 0.84123 0.29231 0.72557
 C66 C 0.85361 0.31929 0.74918
 C67 C 0.83339 0.31320 0.77952
 H68 H 0.84985 0.28809 0.69869
 H69 H 0.83490 0.32859 0.80407
 N70 N 0.75841 0.18642 0.70774
 N71 N 0.73114 0.17353 0.72700
 C72 C 0.71654 0.14366 0.71068
 C73 C 0.73551 0.13736 0.67959
 C74 C 0.76185 0.16512 0.67864
 H75 H 0.69417 0.12739 0.72104
 H76 H 0.78247 0.16921 0.65857
 H77 H 0.77406 0.20535 0.76907
 H78 H 0.74217 0.24114 0.75219
 N79 N 0.30608 -0.23099 0.79562
 N80 N 0.28539 -0.25857 0.80535
 C81 C 0.29663 -0.26885 0.83736
 C82 C 0.32642 -0.24685 0.84819
 C83 C 0.33153 -0.22306 0.82089
 H84 H 0.28405 -0.29082 0.85154
 H85 H 0.35204 -0.20144 0.81941
 Cu86 Cu 0.24692 -0.27959 0.77459
 Cu87 Cu 0.29856 -0.20793 0.75069
 Cu88 Cu 0.21552 -0.23023 0.70752
 N89 N 0.20085 -0.29229 0.74991
 N90 N 0.18823 -0.27251 0.72424
 C91 C 0.15660 -0.28781 0.71130
 C92 C 0.14891 -0.31912 0.72977
 C93 C 0.17775 -0.32089 0.75417
 H94 H 0.14108 -0.27730 0.68943
 H95 H 0.18224 -0.34189 0.77303
 N96 N 0.24753 -0.18876 0.69445
 N97 N 0.27913 -0.18047 0.71083
 C98 C 0.29500 -0.15171 0.69542
 C99 C 0.27256 -0.14145 0.66768
 C100 C 0.24275 -0.16572 0.66785
 H101 H 0.32140 -0.13968 0.70345
 H102 H 0.21965 -0.16702 0.64952
 H103 H 0.24235 -0.21740 0.75490
 H104 H 0.26716 -0.24697 0.72235
 N105 N 0.66153 -0.27694 0.76167
 N106 N 0.68090 -0.30601 0.76882
 C107 C 0.67059 -0.31818 0.80039
 C108 C 0.64301 -0.29561 0.81363
 C109 C 0.63784 -0.26993 0.78810
 H110 H 0.68226 -0.34174 0.81268
 H111 H 0.61906 -0.24718 0.78887
 Cu112 Cu 0.71776 -0.32505 0.73635
 Cu113 Cu 0.67059 -0.24842 0.72024
 Cu114 Cu 0.74629 -0.27342 0.66971
 N115 N 0.76347 -0.33517 0.71125
 N116 N 0.77520 -0.31427 0.68608
 C117 C 0.80857 -0.32606 0.67492
 C118 C 0.81835 -0.35624 0.69406
 C119 C 0.78867 -0.36131 0.71668
 H120 H 0.82438 -0.31337 0.65446
 H121 H 0.78565 -0.38196 0.73613
 N122 N 0.71329 -0.23299 0.65776
 N123 N 0.68479 -0.22314 0.67737
 C124 C 0.66949 -0.19316 0.66402
 C125 C 0.68924 -0.18359 0.63449
 C126 C 0.71656 -0.20983 0.63114
 H127 H 0.64608 -0.17899 0.67542
 H128 H 0.73800 -0.21145 0.61147
 H129 H 0.69459 -0.28836 0.68857
 H130 H 0.72632 -0.26229 0.71958
 N131 N 0.33691 0.27046 0.78155
 N132 N 0.31229 0.29345 0.79417
 C133 C 0.32442 0.30698 0.82540
 C134 C 0.35861 0.29163 0.83287
 C135 C 0.36571 0.26874 0.80423
 H136 H 0.30919 0.32627 0.84150
 H137 H 0.38971 0.25165 0.80027
 Cu138 Cu 0.26632 0.30329 0.76931
 Cu139 Cu 0.32844 0.24278 0.73797
 Cu140 Cu 0.25344 0.26871 0.68721
 N141 N 0.22873 0.32201 0.73798
 N142 N 0.22358 0.30850 0.70602
 C143 C 0.19454 0.32530 0.69108
 C144 C 0.18092 0.35080 0.71498
 C145 C 0.20341 0.34803 0.74442
 H146 H 0.18378 0.31908 0.66500
 H147 H 0.20085 0.36299 0.76909
 N148 N 0.28695 0.22886 0.67323
 N149 N 0.31490 0.21829 0.69306
 C150 C 0.33004 0.18829 0.67826
 C151 C 0.31074 0.17948 0.64752
 C152 C 0.28388 0.20615 0.64504
 H153 H 0.35288 0.17352 0.68954
 H154 H 0.26270 0.20825 0.62498
 H155 H 0.29955 0.28547 0.71649
 H156 H 0.27095 0.24720 0.73415
 N157 N 0.33163 -0.26811 0.21605
 N158 N 0.30710 -0.29202 0.20374
 C159 C 0.31889 -0.30548 0.17261
 C160 C 0.35275 -0.28912 0.16493
 C161 C 0.36004 -0.26578 0.19338
 H162 H 0.30375 -0.32554 0.15675
 H163 H 0.38375 -0.24778 0.19717
 Cu164 Cu 0.26179 -0.30313 0.22900
 Cu165 Cu 0.32328 -0.23958 0.25885
 Cu166 Cu 0.25014 -0.26706 0.31061
 N167 N 0.22542 -0.32255 0.26117
 N168 N 0.22111 -0.30877 0.29305
 C169 C 0.19300 -0.32647 0.30871
 C170 C 0.17892 -0.35275 0.28534
 C171 C 0.20034 -0.34952 0.25548
 H172 H 0.18307 -0.32019 0.33487
 H173 H 0.19721 -0.36484 0.23100
 N174 N 0.28272 -0.22522 0.32324
 N175 N 0.31004 -0.21423 0.30300
 C176 C 0.32463 -0.18306 0.31666
 C177 C 0.30563 -0.17386 0.34708
 C178 C 0.27950 -0.20154 0.35059
 H179 H 0.34689 -0.16779 0.30480
 H180 H 0.25869 -0.20369 0.37075
 H181 H 0.29567 -0.28294 0.28135
 H182 H 0.26584 -0.24618 0.26300
 N183 N 0.65015 0.28084 0.24890
 N184 N 0.67004 0.30988 0.24179
 C185 C 0.66273 0.31963 0.20863
 C186 C 0.63659 0.29544 0.19434
 C187 C 0.62918 0.27127 0.22074
 H188 H 0.67531 0.34269 0.19601
 H189 H 0.61043 0.24805 0.21954
 Cu190 Cu 0.70339 0.33180 0.27672
 Cu191 Cu 0.65307 0.25757 0.29402
 Cu192 Cu 0.73133 0.28117 0.34418
 N193 N 0.74753 0.34438 0.30401
 N194 N 0.75866 0.32448 0.33018
 C195 C 0.79191 0.33717 0.34196
 C196 C 0.80230 0.36639 0.32181
 C197 C 0.77326 0.37027 0.29811
 H198 H 0.80800 0.32503 0.36262
 H199 H 0.77192 0.38894 0.27667
 N200 N 0.69942 0.23855 0.35362
 N201 N 0.67006 0.22946 0.33416
 C202 C 0.65623 0.19750 0.34488
 C203 C 0.67781 0.18580 0.37257
 C204 C 0.70467 0.21283 0.37766
 H205 H 0.63270 0.18343 0.33273
 H206 H 0.72729 0.21322 0.39646
 H207 H 0.68031 0.29657 0.32633
 H208 H 0.70898 0.26935 0.29484
 C209 C 0.29827 -0.00581 0.40259
 C210 C 0.28996 0.02823 0.41801
 C211 C 0.28688 0.03152 0.45474
 C212 C 0.29449 0.00179 0.47634
 C213 C 0.30317 -0.03189 0.46011
 C214 C 0.30426 -0.03610 0.42347
 C215 C 0.29557 0.00612 0.51556
 C216 C 0.28894 -0.02379 0.53726
 C217 C 0.29423 -0.02075 0.57383
 C218 C 0.30376 0.01324 0.58913
 C219 C 0.30866 0.04377 0.56824
 C220 C 0.30536 0.03982 0.53163
 H221 H 0.29918 -0.00890 0.37424
 H222 H 0.27943 0.05764 0.46629
 H223 H 0.31025 -0.05501 0.47577
 H224 H 0.28049 -0.04988 0.52587
 H225 H 0.30629 0.01613 0.61742
 H226 H 0.31150 0.06316 0.51585
 C227 C 0.69984 -0.01762 0.58981
 C228 C 0.70914 0.01715 0.57808
 C229 C 0.71044 0.02295 0.54179
 C230 C 0.70145 -0.00525 0.51725
 C231 C 0.69244 -0.03989 0.52970
 C232 C 0.69178 -0.04625 0.56581
 C233 C 0.70000 0.00187 0.47889
 C234 C 0.70962 -0.02517 0.45371
 C235 C 0.70676 -0.01862 0.41755
 C236 C 0.69491 0.01565 0.40667
 C237 C 0.68623 0.04317 0.43137
 C238 C 0.68819 0.03587 0.46723
 H239 H 0.70015 -0.02282 0.61765
 H240 H 0.71801 0.04968 0.53273
 H241 H 0.68489 -0.06190 0.51147
 H242 H 0.71917 -0.05142 0.46214
 H243 H 0.69391 0.02135 0.37891
 H244 H 0.67989 0.05685 0.48600
 C245 C 0.40944 0.28601 -0.00482
 C246 C 0.42321 0.27673 0.02830
 C247 C 0.46167 0.27151 0.03264
 C248 C 0.48675 0.27746 0.00502
 C249 C 0.47229 0.28677 -0.02789
 C250 C 0.43375 0.29041 -0.03317
 C251 C 0.52783 0.27500 0.01108
 C252 C 0.55224 0.26383 -0.01587
 C253 C 0.59091 0.26195 -0.00966
 C254 C 0.60492 0.27000 0.02426
 C255 C 0.58100 0.28065 0.05145
 C256 C 0.54290 0.28415 0.04431
 H257 H 0.37967 0.28857 -0.00880
 H258 H 0.47201 0.26334 0.05797
 H259 H 0.49090 0.29197 -0.04946
 H260 H 0.54133 0.25674 -0.04172
 H261 H 0.63427 0.26664 0.02954
 H262 H 0.52504 0.29432 0.06507
 C263 C 0.60085 0.72025 -0.02046
 C264 C 0.58709 0.73095 0.01264
 C265 C 0.54835 0.73353 0.01736
 C266 C 0.52334 0.72465 -0.01031
 C267 C 0.53782 0.71401 -0.04311
 C268 C 0.57637 0.71243 -0.04863
 C269 C 0.48221 0.72553 -0.00498
 C270 C 0.45787 0.73521 -0.03237
 C271 C 0.41900 0.73388 -0.02802
 C272 C 0.40453 0.72364 0.00445
 C273 C 0.42830 0.71489 0.03230
 C274 C 0.46696 0.71553 0.02729
 H275 H 0.63068 0.71941 -0.02458
 H276 H 0.53776 0.74217 0.04274
 H277 H 0.51910 0.70634 -0.06453
 H278 H 0.46909 0.74337 -0.05729
 H279 H 0.37465 0.72365 0.00840
 H280 H 0.48504 0.70738 0.04851
 C281 C -0.02309 0.40260 0.28843
 C282 C 0.01173 0.41522 0.27700
 C283 C 0.01801 0.45297 0.27485
 C284 C -0.00959 0.47798 0.28533
 C285 C -0.04349 0.46443 0.29819
 C286 C -0.05092 0.42693 0.29897
 C287 C -0.00345 0.51814 0.28315
 C288 C -0.03360 0.54148 0.27676
 C289 C -0.02864 0.57943 0.27704
 C290 C 0.00730 0.59413 0.28173
 C291 C 0.03782 0.57140 0.28727
 C292 C 0.03225 0.53360 0.28830
 H293 H -0.02864 0.37375 0.28777
 H294 H 0.04441 0.46275 0.26514
 H295 H -0.06441 0.48308 0.30793
 H296 H -0.06127 0.53032 0.27209
 H297 H 0.01150 0.62317 0.27988
 H298 H 0.05588 0.51649 0.29379
 C299 C -0.01025 0.59532 0.70375
 C300 C 0.02472 0.58150 0.71299
 C301 C 0.02794 0.54413 0.71946
 C302 C -0.00266 0.52005 0.71470
 C303 C -0.03719 0.53466 0.70493
 C304 C -0.04141 0.57214 0.70037
 C305 C 0.00157 0.47982 0.71884
 C306 C -0.02912 0.45743 0.72739
 C307 C -0.02545 0.41951 0.72891
 C308 C 0.00967 0.40388 0.72445
 C309 C 0.04058 0.42555 0.71643
 C310 C 0.03625 0.46314 0.71301
 H311 H -0.01352 0.62430 0.70034
 H312 H 0.05467 0.53397 0.72777
 H313 H -0.06111 0.51706 0.70014
 H314 H -0.05620 0.46904 0.73248
 H315 H 0.01304 0.37510 0.72825
 H316 H 0.06019 0.47899 0.70516
 C317 C 0.37989 0.24221 0.11184
 C318 C 0.34764 0.26314 0.11567
 C319 C 0.34290 0.29203 0.09231
 C320 C 0.36763 0.29692 0.06416
 C321 C 0.39789 0.27322 0.05875
 C322 C 0.40438 0.24730 0.08430
 C323 C 0.41156 0.20756 0.07987
 C324 C 0.38465 0.20183 0.10988
 H325 H 0.31944 0.31014 0.09482
 H326 H 0.36259 0.31880 0.04628
 H327 H 0.44080 0.20067 0.08660
 H328 H 0.40124 0.19617 0.05422
 H329 H 0.39850 0.19139 0.13375
 H330 H 0.35866 0.18712 0.10167
 C331 C 0.66625 0.72202 0.07812
 C332 C 0.65788 0.74804 0.10454
 C333 C 0.62925 0.77297 0.09682
 C334 C 0.60717 0.76858 0.06618
 C335 C 0.61329 0.73945 0.04216
 C336 C 0.64474 0.71810 0.04774
 C337 C 0.64837 0.67772 0.04653
 C338 C 0.67175 0.68178 0.07985
 H339 H 0.62235 0.79490 0.11503
 H340 H 0.58437 0.78713 0.06207
 H341 H 0.66456 0.66801 0.02341
 H342 H 0.62134 0.66339 0.05046
 H343 H 0.70132 0.67405 0.07581
 H344 H 0.65827 0.66980 0.10314
 C345 C 0.67488 0.26315 -0.06933
 C346 C 0.66378 0.24087 -0.09804
 C347 C 0.63057 0.22032 -0.09435
 C348 C 0.60741 0.22577 -0.06494
 C349 C 0.61698 0.25172 -0.03834
 C350 C 0.65220 0.26822 -0.04029
 C351 C 0.66313 0.30731 -0.03571
 C352 C 0.68785 0.30195 -0.06762
 H353 H 0.62134 0.20132 -0.11483
 H354 H 0.58142 0.21067 -0.06376
 H355 H 0.67910 0.31264 -0.01095
 H356 H 0.63949 0.32603 -0.04021
 H357 H 0.71804 0.30449 -0.06115
 H358 H 0.67854 0.31755 -0.09068
 C359 C 0.33782 0.72744 -0.09209
 C360 C 0.34775 0.75174 -0.11829
 C361 C 0.37872 0.77495 -0.11122
 C362 C 0.40127 0.77038 -0.08115
 C363 C 0.39322 0.74271 -0.05725
 C364 C 0.35981 0.72327 -0.06237
 C365 C 0.35261 0.68327 -0.06166
 C366 C 0.32866 0.68765 -0.09431
 H367 H 0.38684 0.79543 -0.12962
 H368 H 0.42570 0.78759 -0.07740
 H369 H 0.33631 0.67550 -0.03826
 H370 H 0.37815 0.66703 -0.06650
 H371 H 0.29862 0.68211 -0.08963
 H372 H 0.34033 0.67395 -0.11812
 C373 C 0.07437 0.33297 0.28107
 C374 C 0.10279 0.34068 0.25728
 C375 C 0.09743 0.37074 0.23540
 C376 C 0.06708 0.39443 0.24058
 C377 C 0.04120 0.38852 0.26764
 C378 C 0.04445 0.35612 0.28593
 C379 C 0.04314 0.34998 0.32445
 C380 C 0.07606 0.32474 0.31929
 H381 H 0.11744 0.37715 0.21534
 H382 H 0.06471 0.41795 0.22421
 H383 H 0.01721 0.33553 0.33213
 H384 H 0.05003 0.37496 0.34040
 H385 H 0.06901 0.29582 0.32430
 H386 H 0.10210 0.33509 0.33224
 C387 C 0.11625 0.62430 0.74425
 C388 C 0.11982 0.65536 0.72375
 C389 C 0.09366 0.65897 0.69608
 C390 C 0.06330 0.63455 0.69194
 C391 C 0.05811 0.60578 0.71528
 C392 C 0.08639 0.60020 0.73998
 C393 C 0.08354 0.59416 0.77841
 C394 C 0.11608 0.62061 0.78328
 H395 H 0.09562 0.68117 0.67809
 H396 H 0.04343 0.63881 0.67095
 H397 H 0.09058 0.56578 0.78520
 H398 H 0.05704 0.60449 0.78969
 H399 H 0.14169 0.60734 0.79312
 H400 H 0.10850 0.64633 0.79741
 C401 C -0.11962 0.61952 0.24535
 C402 C -0.12153 0.65296 0.26400
 C403 C -0.09437 0.65941 0.29068
 C404 C -0.06465 0.63521 0.29539
 C405 C -0.06127 0.60367 0.27386
 C406 C -0.09052 0.59545 0.25042
 C407 C -0.08908 0.58472 0.21246
 C408 C -0.12077 0.61111 0.20672
 H409 H -0.09485 0.68372 0.30726
 H410 H -0.04377 0.64172 0.31531
 H411 H -0.09736 0.55577 0.20769
 H412 H -0.06257 0.59311 0.19991
 H413 H -0.14716 0.59722 0.19838
 H414 H -0.11266 0.63487 0.19084
 C415 C -0.10039 0.34823 0.71130
 C416 C -0.11959 0.34671 0.74325
 C417 C -0.11075 0.37426 0.76884
 C418 C -0.08088 0.39893 0.76381
 C419 C -0.05874 0.39619 0.73349
 C420 C -0.07075 0.37199 0.70675
 C421 C -0.05026 0.34554 0.68383
 C422 C -0.08271 0.31933 0.68880
 H423 H -0.12572 0.37615 0.79334
 H424 H -0.07385 0.41873 0.78442
 H425 H -0.02405 0.33568 0.69575
 H426 H -0.04778 0.35495 0.65644
 H427 H -0.07508 0.29489 0.70381
 H428 H -0.09867 0.31363 0.66410
 C429 C 0.25207 0.11476 0.37937
 C430 C 0.27281 0.11830 0.34853
 C431 C 0.30353 0.09489 0.34403
 C432 C 0.30991 0.06639 0.36728
 C433 C 0.28594 0.06061 0.39582
 C434 C 0.25867 0.08682 0.40251
 C435 C 0.21826 0.08191 0.41006
 C436 C 0.21091 0.11234 0.38469
 H437 H 0.32179 0.09726 0.32175
 H438 H 0.33284 0.04810 0.36215
 H439 H 0.21154 0.08944 0.43774
 H440 H 0.20721 0.05497 0.40066
 H441 H 0.19975 0.13726 0.39784
 H442 H 0.19562 0.10306 0.36052
 C443 C 0.70294 0.07983 0.65816
 C444 C 0.72991 0.10685 0.65374
 C445 C 0.75172 0.10309 0.62291
 C446 C 0.74540 0.07389 0.59827
 C447 C 0.71724 0.04733 0.60376
 C448 C 0.69720 0.05166 0.63477
 C449 C 0.66452 0.03715 0.65401
 C450 C 0.67107 0.06886 0.68058
 H451 H 0.77347 0.12266 0.61744
 H452 H 0.76269 0.07212 0.57513
 H453 H 0.66980 0.01002 0.66518
 H454 H 0.63816 0.03941 0.63875
 H455 H 0.68034 0.05994 0.70688
 H456 H 0.64833 0.08920 0.68067
 C457 C 0.25791 -0.10852 0.61202
 C458 C 0.28019 -0.11250 0.64209
 C459 C 0.31101 -0.08853 0.64636
 C460 C 0.31626 -0.05930 0.62363
 C461 C 0.29102 -0.05338 0.59584
 C462 C 0.26341 -0.07991 0.58939
 C463 C 0.22269 -0.07547 0.58310
 C464 C 0.21652 -0.10661 0.60797
 H465 H 0.33024 -0.09110 0.66811
 H466 H 0.33942 -0.04070 0.62851
 H467 H 0.21463 -0.08248 0.55549
 H468 H 0.21218 -0.04892 0.59339
 H469 H 0.20464 -0.13141 0.59461
 H470 H 0.20244 -0.09812 0.63274
 C471 C 0.70142 -0.08056 0.33649
 C472 C 0.72879 -0.10666 0.34266
 C473 C 0.75300 -0.09997 0.37164
 C474 C 0.74679 -0.07071 0.39554
 C475 C 0.71644 -0.04715 0.39090
 C476 C 0.69566 -0.05152 0.35982
 C477 C 0.65446 -0.05286 0.35459
 C478 C 0.66059 -0.08480 0.32921
 H479 H 0.77568 -0.11821 0.37703
 H480 H 0.76501 -0.06730 0.41819
 H481 H 0.64397 -0.02821 0.34157
 H482 H 0.63931 -0.06043 0.37875
 H483 H 0.65331 -0.07851 0.30162
 H484 H 0.64901 -0.11093 0.33867
 C485 C 0.58916 0.71832 -0.14650
 C486 C 0.62368 0.70179 -0.15228
 C487 C 0.63915 0.68229 -0.12427
 C488 C 0.62299 0.68398 -0.09058
 C489 C 0.59056 0.70453 -0.08445
 C490 C 0.57283 0.71911 -0.11366
 C491 C 0.55717 0.75611 -0.11834
 C492 C 0.57545 0.75564 -0.15418
 H493 H 0.66506 0.66782 -0.12757
 H494 H 0.63680 0.67067 -0.06912
 H495 H 0.56938 0.77679 -0.09966
 H496 H 0.52621 0.75557 -0.11977
 H497 H 0.59837 0.77609 -0.15591
 H498 H 0.55500 0.75540 -0.17624
 C499 C 0.41548 0.27917 -0.13046
 C500 C 0.38162 0.29727 -0.13493
 C501 C 0.36974 0.32019 -0.10688
 C502 C 0.38810 0.32009 -0.07405
 C503 C 0.41901 0.29744 -0.06873
 C504 C 0.43380 0.27953 -0.09826
 C505 C 0.44612 0.24106 -0.10283
 C506 C 0.42590 0.24043 -0.13801
 H507 H 0.34486 0.33633 -0.10924
 H508 H 0.37678 0.33602 -0.05239
 H509 H 0.43335 0.22270 -0.08341
 H510 H 0.47689 0.23905 -0.10529
 H511 H 0.40136 0.22169 -0.13895
 H512 H 0.44512 0.23773 -0.16067
 C513 C 0.41078 0.72162 0.12963
 C514 C 0.37529 0.70572 0.13273
 C515 C 0.36140 0.68540 0.10335
 C516 C 0.37988 0.68610 0.07085
 C517 C 0.41294 0.70664 0.06719
 C518 C 0.42927 0.72165 0.09777
 C519 C 0.44542 0.75872 0.10451
 C520 C 0.42498 0.75902 0.13928
 H521 H 0.33496 0.67115 0.10447
 H522 H 0.36711 0.67247 0.04819
 H523 H 0.43481 0.77908 0.08589
 H524 H 0.47624 0.75813 0.10758
 H525 H 0.40244 0.77957 0.14066
 H526 H 0.44412 0.75903 0.16236
 C527 C 0.63597 0.31501 0.13160
 C528 C 0.61996 0.29533 0.15876
 C529 C 0.58760 0.27465 0.15069
 C530 C 0.57490 0.27045 0.11583
 C531 C 0.59442 0.28645 0.08804
 C532 C 0.62388 0.31034 0.09703
 C533 C 0.66267 0.31377 0.08332
 C534 C 0.67570 0.31932 0.12117
 H535 H 0.57282 0.26048 0.17097
 H536 H 0.55080 0.25318 0.11044
 H537 H 0.66643 0.33839 0.06731
 H538 H 0.67349 0.28814 0.07135
 H539 H 0.68655 0.34728 0.12703
 H540 H 0.69355 0.29696 0.13062
 C541 C -0.14344 0.59226 0.71180
 C542 C -0.14888 0.62313 0.69143
 C543 C -0.11973 0.63247 0.66829
 C544 C -0.08505 0.61480 0.66968
 C545 C -0.07893 0.58687 0.69362
 C546 C -0.10957 0.57447 0.71249
 C547 C -0.11251 0.56643 0.75052
 C548 C -0.14950 0.58613 0.75007
 H549 H -0.12248 0.65481 0.65058
 H550 H -0.06257 0.62416 0.65327
 H551 H -0.09075 0.58071 0.76679
 H552 H -0.11546 0.53677 0.75497
 H553 H -0.14915 0.61189 0.76608
 H554 H -0.17364 0.56773 0.75469
 C555 C -0.13023 0.37310 0.33973
 C556 C -0.16158 0.38615 0.32208
 C557 C -0.15653 0.41755 0.30206
 C558 C -0.12058 0.43141 0.29575
 C559 C -0.08864 0.41409 0.30902
 C560 C -0.09469 0.38618 0.33288
 C561 C -0.07784 0.34947 0.33749
 C562 C -0.11680 0.33541 0.34536
 H563 H -0.17999 0.43021 0.28940
 H564 H -0.11775 0.45418 0.27843
 H565 H -0.05868 0.34892 0.36052
 H566 H -0.06702 0.33671 0.31295
 H567 H -0.12010 0.32718 0.37306
 H568 H -0.12770 0.31547 0.32525
 C569 C 0.12047 0.36634 0.68567
 C570 C 0.14802 0.37422 0.71104
 C571 C 0.14211 0.40433 0.73402
 C572 C 0.10751 0.42209 0.73459
 C573 C 0.07796 0.40963 0.71273
 C574 C 0.08611 0.38324 0.68678
 C575 C 0.06604 0.34946 0.67428
 C576 C 0.10380 0.33099 0.67297
 H577 H 0.16334 0.41299 0.75285
 H578 H 0.10307 0.44390 0.75375
 H579 H 0.05315 0.35255 0.64791
 H580 H 0.04755 0.33754 0.69426
 H581 H 0.11262 0.32360 0.64581
 H582 H 0.10685 0.30907 0.69235
 C583 C 0.12090 0.62889 0.31729
 C584 C 0.14634 0.62295 0.29005
 C585 C 0.13841 0.59388 0.26606
 C586 C 0.10365 0.57571 0.26648
 C587 C 0.07594 0.58662 0.29048
 C588 C 0.08644 0.61158 0.31725
 C589 C 0.06777 0.64400 0.33349
 C590 C 0.10564 0.66301 0.33346
 H591 H 0.15799 0.58651 0.24568
 H592 H 0.09748 0.55503 0.24642
 H593 H 0.05750 0.63863 0.36035
 H594 H 0.04746 0.65720 0.31595
 H595 H 0.11699 0.66859 0.36032
 H596 H 0.10697 0.68638 0.31550
 C597 C 0.70261 -0.14636 0.58114
 C598 C 0.68382 -0.15098 0.61294
 C599 C 0.66033 -0.12241 0.62439
 C600 C 0.66070 -0.08874 0.60757
 C601 C 0.68392 -0.08316 0.57851
 C602 C 0.70214 -0.11343 0.56409
 C603 C 0.74145 -0.11702 0.55223
 C604 C 0.74230 -0.15287 0.57116
 H605 H 0.64393 -0.12473 0.64793
 H606 H 0.64477 -0.06640 0.61868
 H607 H 0.76023 -0.09580 0.56420
 H608 H 0.74336 -0.12039 0.52321
 H609 H 0.76158 -0.15217 0.59418
 H610 H 0.74521 -0.17685 0.55302
 C611 C 0.29306 -0.13645 0.40209
 C612 C 0.31068 -0.14051 0.36949
 C613 C 0.33298 -0.11103 0.35850
 C614 C 0.33281 -0.07732 0.37702
 C615 C 0.31086 -0.07253 0.40729
 C616 C 0.29360 -0.10347 0.42066
 C617 C 0.25487 -0.10844 0.43367
 C618 C 0.25393 -0.14440 0.41308
 H619 H 0.34854 -0.11289 0.33433
 H620 H 0.34823 -0.05458 0.36663
 H621 H 0.23528 -0.08796 0.42332
 H622 H 0.25413 -0.11176 0.46259
 H623 H 0.23380 -0.14456 0.39073
 H624 H 0.25218 -0.16840 0.43020
 C625 C 0.69214 0.14498 0.42301
 C626 C 0.67433 0.15078 0.39077
 C627 C 0.65333 0.12141 0.37587
 C628 C 0.65510 0.08646 0.39015
 C629 C 0.67724 0.08032 0.42007
 C630 C 0.69299 0.11078 0.43752
 C631 C 0.73139 0.11639 0.45196
 C632 C 0.73085 0.15369 0.43570
 H633 H 0.63783 0.12449 0.35169
 H634 H 0.64093 0.06395 0.37665
 H635 H 0.75196 0.09760 0.43972
 H636 H 0.73177 0.11761 0.48115
 H637 H 0.75114 0.15615 0.41393
 H638 H 0.73150 0.17640 0.45556
 C639 C 0.29710 0.14327 0.59166
 C640 C 0.31601 0.14718 0.62393
 C641 C 0.33957 0.11839 0.63355
 C642 C 0.33929 0.08514 0.61423
 C643 C 0.31598 0.08019 0.58451
 C644 C 0.29754 0.11079 0.57228
 C645 C 0.25818 0.11458 0.56028
 C646 C 0.25736 0.14996 0.58175
 H647 H 0.35615 0.12026 0.65735
 H648 H 0.35559 0.06273 0.62372
 H649 H 0.23947 0.09308 0.57054
 H650 H 0.25614 0.11861 0.53150
 H651 H 0.23818 0.14875 0.60451
 H652 H 0.25436 0.17432 0.56529
   
