data_POSCAR
  _audit_creation_date              2014-09-24
  _audit_creation_method            'ToBaCCo'
  _symmetry_space_group_name_H-M    'P1'
  _symmetry_Int_Tables_number       1
  _symmetry_cell_setting            triclinic
  loop_
  _symmetry_equiv_pos_as_xyz
 x,y,z
_cell_length_a 23.2434
_cell_length_b 21.3901
_cell_length_c 22.7018
_cell_angle_alpha 90.020700
_cell_angle_beta 89.082300
_cell_angle_gamma 89.552300
loop_
  _atom_site_label
  _atom_site_type_symbol
  _atom_site_fract_x
  _atom_site_fract_y
  _atom_site_fract_z
N1 N 0.12423 1.21669 0.09059
 N2 N 0.10805 1.23743 0.14282
 C3 C 0.06717 1.28200 0.13611
 C4 C 0.05670 1.28788 0.07639
 C5 C 0.09325 1.24516 0.04912
 H6 H 0.04727 1.30844 0.17171
 H7 H 0.10025 1.23871 0.00232
 Cu8 Cu 0.14284 1.20364 0.21391
 Cu9 Cu 0.19118 1.16395 0.07898
 Cu10 Cu 0.24759 1.08833 0.19278
 N11 N 0.16778 1.14593 0.27697
 N12 N 0.20805 1.10263 0.26906
 C13 C 0.21058 1.06654 0.31751
 C14 C 0.16876 1.08707 0.35722
 C15 C 0.14279 1.13772 0.33035
 H16 H 0.23755 1.02539 0.32149
 H17 H 0.10590 1.16395 0.34675
 N18 N 0.29108 1.10011 0.11918
 N19 N 0.26925 1.13200 0.07527
 C20 C 0.30694 1.13226 0.02968
 C21 C 0.35465 1.09780 0.04558
 C22 C 0.34318 1.07774 0.10253
 H23 H 0.29903 1.15339 -0.01273
 H24 H 0.37020 1.04821 0.12936
 H25 H 0.16348 1.11994 0.17358
 H26 H 0.22346 1.17730 0.17969
 N27 N 0.84862 0.73516 0.16209
 N28 N 0.87628 0.73145 0.21212
 C29 C 0.89965 0.67383 0.21710
 C30 C 0.88622 0.64014 0.16717
 C31 C 0.85422 0.68057 0.13312
 H32 H 0.92692 0.65873 0.25261
 H33 H 0.83745 0.67149 0.08979
 Cu34 Cu 0.88461 0.80494 0.26197
 Cu35 Cu 0.80925 0.81143 0.13713
 Cu36 Cu 0.78014 0.91237 0.25282
 N37 N 0.88746 0.88231 0.30727
 N38 N 0.84626 0.92442 0.30272
 C39 C 0.85745 0.97311 0.33794
 C40 C 0.90862 0.96106 0.36619
 C41 C 0.92657 0.90289 0.34588
 H42 H 0.82991 1.01383 0.34284
 H43 H 0.96496 0.87756 0.35834
 N44 N 0.73462 0.91097 0.18104
 N45 N 0.74826 0.87626 0.13473
 C46 C 0.70894 0.88627 0.09259
 C47 C 0.66850 0.92853 0.11422
 C48 C 0.68601 0.94303 0.17032
 H49 H 0.70706 0.86073 0.05154
 H50 H 0.66395 0.97322 0.20170
 H51 H 0.83964 0.87962 0.19469
 H52 H 0.78822 0.81972 0.22298
 N53 N 0.79279 1.32959 -0.13551
 N54 N 0.82787 1.34841 -0.17782
 C55 C 0.84463 1.40714 -0.16611
 C56 C 0.81990 1.42579 -0.11309
 C57 C 0.78750 1.37514 -0.09486
 H58 H 0.87975 1.43045 -0.18864
 H59 H 0.76780 1.36891 -0.05179
 Cu60 Cu 0.86441 1.28805 -0.23098
 Cu61 Cu 0.76737 1.24291 -0.12950
 Cu62 Cu 0.79393 1.15553 -0.25588
 N63 N 0.89707 1.22356 -0.28235
 N64 N 0.86875 1.17167 -0.29189
 C65 C 0.89975 1.13482 -0.32851
 C66 C 0.95062 1.16483 -0.34222
 C67 C 0.94770 1.22123 -0.31224
 H68 H 0.88629 1.08938 -0.34382
 H69 H 0.97973 1.25764 -0.31224
 N70 N 0.73606 1.13243 -0.19615
 N71 N 0.72691 1.16408 -0.14692
 C72 C 0.68643 1.13434 -0.11438
 C73 C 0.66989 1.08148 -0.14473
 C74 C 0.70218 1.08184 -0.19631
 H75 H 0.67006 1.15001 -0.07197
 H76 H 0.70169 1.04742 -0.23118
 H77 H 0.82702 1.19439 -0.18242
 H78 H 0.76944 1.24180 -0.21781
 N79 N 0.16899 0.67085 -0.11660
 N80 N 0.11884 0.68445 -0.13942
 C81 C 0.07798 0.64946 -0.11293
 C82 C 0.10433 0.61252 -0.07113
 C83 C 0.16206 0.62688 -0.07496
 H84 H 0.03242 0.65242 -0.12164
 H85 H 0.19629 0.60851 -0.04810
 Cu86 Cu 0.11266 0.74885 -0.19935
 Cu87 Cu 0.23860 0.71466 -0.13946
 Cu88 Cu 0.21363 0.86042 -0.20113
 N89 N 0.11241 0.81490 -0.25780
 N90 N 0.15136 0.85926 -0.25871
 C91 C 0.13913 0.89967 -0.30255
 C92 C 0.09018 0.87890 -0.33049
 C93 C 0.07458 0.82501 -0.30090
 H94 H 0.16381 0.94098 -0.31311
 H95 H 0.03814 0.79552 -0.30967
 N96 N 0.28531 0.83859 -0.15905
 N97 N 0.29567 0.78140 -0.13987
 C98 C 0.34644 0.78000 -0.11253
 C99 C 0.36916 0.83930 -0.11364
 C100 C 0.32951 0.87552 -0.14369
 H101 H 0.36359 0.73965 -0.08990
 H102 H 0.33196 0.92518 -0.15223
 H103 H 0.18818 0.79317 -0.13949
 H104 H 0.21552 0.76811 -0.21359
 C105 C 0.51780 0.97469 -0.03041
 C106 C -0.04059 0.48334 1.03175
 C107 C 1.04117 0.02781 0.51654
 C108 C 0.02211 0.33141 1.04763
 C109 C 0.01398 0.33041 0.98767
 C110 C -0.01433 0.38406 0.97558
 C111 C -0.02334 0.41418 1.02911
 O112 O -0.00040 0.38206 1.07309
 H113 H 0.02947 0.29644 0.95574
 H114 H -0.02382 0.40142 0.93199
 C115 C -0.09175 0.57855 1.14855
 C116 C -0.06385 0.53593 1.18367
 C117 C -0.04466 0.48998 1.14612
 C118 C -0.06263 0.50795 1.09066
 O119 O -0.09092 0.56186 1.09272
 H120 H -0.05586 0.53949 1.23037
 H121 H -0.01729 0.45105 1.15783
 C122 C -0.15185 0.46902 0.92693
 C123 C -0.13962 0.53060 0.91473
 C124 C -0.09962 0.54744 0.95524
 C125 C -0.08872 0.49380 0.98752
 O126 O -0.12191 0.44719 0.97119
 H127 H -0.15542 0.55859 0.87865
 H128 H -0.07876 0.59231 0.95839
 C129 C 0.07666 0.57145 0.97237
 C130 C 0.10368 0.54901 1.02166
 C131 C 0.06327 0.51485 1.05065
 C132 C 0.01431 0.51860 1.01684
 O133 O 0.02263 0.55300 0.96903
 H134 H 0.14746 0.55691 1.03513
 H135 H 0.06899 0.48923 1.09123
 C136 C 1.15046 0.05756 0.40895
 C137 C 1.17565 0.00478 0.43247
 C138 C 1.14037 -0.01246 0.47803
 C139 C 1.09608 0.03127 0.47934
 O140 O 1.10269 0.07399 0.43753
 H141 H 1.21381 -0.01982 0.41691
 H142 H 1.14530 -0.05378 0.50496
 C143 C 1.06161 -0.09366 0.62229
 C144 C 1.01236 -0.11728 0.59785
 C145 C 0.99800 -0.07645 0.55458
 C146 C 1.03991 -0.03075 0.55495
 O147 O 1.07828 -0.04113 0.59664
 H148 H 0.98888 -0.15876 0.61051
 H149 H 0.96040 -0.07945 0.52735
 C150 C 0.93515 -0.00111 0.40761
 C151 C 0.91450 0.05665 0.42523
 C152 C 0.95105 0.07617 0.46738
 C153 C 0.99137 0.02853 0.47331
 O154 O 0.98219 -0.01786 0.43586
 H155 H 0.87713 0.08168 0.40958
 H156 H 0.94818 0.12012 0.49086
 C157 C 0.99379 0.14188 0.62021
 C158 C 1.04411 0.17193 0.60459
 C159 C 1.07095 0.13324 0.56450
 C160 C 1.03477 0.08258 0.55874
 O161 O 0.98854 0.08781 0.59308
 H162 H 1.05889 0.21700 0.61950
 H163 H 1.11118 0.14182 0.54139
 C164 C 0.40426 1.08042 0.00802
 C165 C 0.41974 1.10926 -0.04404
 C166 C 0.46604 1.07596 -0.06511
 C167 C 0.47538 1.02908 -0.02415
 O168 O 0.43733 1.03189 0.01975
 H169 H 0.39918 1.14899 -0.06465
 H170 H 0.48874 1.08372 -0.10640
 C171 C 0.62706 1.03452 -0.12681
 C172 C 0.61335 0.98325 -0.16038
 C173 C 0.57147 0.95316 -0.12935
 C174 C 0.56244 0.98820 -0.07866
 O175 O 0.59650 1.03768 -0.07719
 H176 H 0.63126 0.96965 -0.20280
 H177 H 0.54978 0.91106 -0.14278
 C178 C 0.42148 0.85948 -0.08352
 C179 C 0.46054 0.81898 -0.05848
 C180 C 0.50125 0.85601 -0.03440
 C181 C 0.48370 0.91669 -0.04571
 O182 O 0.43552 0.91872 -0.07626
 H183 H 0.45977 0.76842 -0.05822
 H184 H 0.53955 0.84071 -0.01188
 C185 C 0.61261 0.94445 0.08886
 C186 C 0.56231 0.94621 0.12150
 C187 C 0.52026 0.95746 0.08198
 C188 C 0.54812 0.96418 0.02793
 O189 O 0.60445 0.95477 0.03212
 H190 H 0.55676 0.93732 0.16817
 H191 H 0.47459 0.95850 0.09163
   
