data_POSCAR
  _audit_creation_date              2014-09-24
  _audit_creation_method            'ToBaCCo'
  _symmetry_space_group_name_H-M    'P1'
  _symmetry_Int_Tables_number       1
  _symmetry_cell_setting            triclinic
  loop_
  _symmetry_equiv_pos_as_xyz
 x,y,z
_cell_length_a 18.1354
_cell_length_b 18.1672
_cell_length_c 45.3567
_cell_angle_alpha 89.720300
_cell_angle_beta 90.386600
_cell_angle_gamma 119.775100
loop_
  _atom_site_label
  _atom_site_type_symbol
  _atom_site_fract_x
  _atom_site_fract_y
  _atom_site_fract_z
C1 C -0.07982 -0.08962 0.47713
 C2 C -0.02237 -0.04538 0.49999
 C3 C -0.01058 -0.09036 0.52303
 C4 C -0.05522 -0.17919 0.52307
 C5 C -0.11334 -0.22319 0.50036
 C6 C -0.12606 -0.17843 0.47747
 C7 C 0.02519 0.04794 0.49985
 C8 C 0.01255 0.09326 0.52232
 C9 C 0.05701 0.18203 0.52204
 C10 C 0.11576 0.22571 0.49965
 C11 C 0.12932 0.18068 0.47736
 C12 C 0.08334 0.09191 0.47727
 H13 H -0.08919 -0.05475 0.45940
 H14 H 0.03415 -0.05607 0.54063
 H15 H -0.03264 0.05942 0.53972
 H16 H 0.09351 0.05703 0.45995
 H17 H -0.14854 -0.29204 0.50050
 H18 H 0.15077 0.29448 0.49958
 C19 C 1.09630 0.01254 0.14386
 C20 C 1.05122 0.02468 0.16654
 C21 C 1.09555 0.08229 0.18926
 C22 C 1.18444 0.12830 0.18914
 C23 C 1.22933 0.11531 0.16664
 C24 C 1.18530 0.05702 0.14407
 C25 C 0.95775 -0.02283 0.16647
 C26 C 0.91377 -0.08018 0.18929
 C27 C 0.82486 -0.12619 0.18902
 C28 C 0.77968 -0.11344 0.16628
 C29 C 0.82337 -0.05547 0.14364
 C30 C 0.91229 -0.01100 0.14356
 H31 H 1.06196 -0.03232 0.12637
 H32 H 1.06082 0.09207 0.20674
 H33 H 0.94876 -0.08974 0.20695
 H34 H 0.94613 0.03361 0.12597
 H35 H 1.29826 0.15049 0.16674
 H36 H 0.71078 -0.14846 0.16622
 C37 C 0.07550 0.98523 0.85662
 C38 C 0.01766 0.97321 0.83391
 C39 C 0.00520 0.91688 0.81087
 C40 C 0.04952 0.87207 0.81069
 C41 C 0.10799 0.88497 0.83321
 C42 C 0.12143 0.94196 0.85611
 C43 C -0.02932 1.01996 0.83416
 C44 C -0.01743 1.07748 0.81146
 C45 C -0.06111 1.12291 0.81184
 C46 C -0.11841 1.10945 0.83459
 C47 C -0.13130 1.05126 0.85715
 C48 C -0.08598 1.00734 0.85711
 H49 H 0.08550 1.02919 0.87435
 H50 H -0.03970 0.90724 0.79335
 H51 H 0.02667 1.08768 0.79379
 H52 H -0.09544 0.96256 0.87459
 H53 H 0.14286 0.85075 0.83287
 H54 H -0.15276 1.14420 0.83467
 O55 O 0.60916 0.07647 -0.02789
 O56 O 0.46943 0.07922 0.02907
 O57 O 0.60062 0.06025 0.02846
 O58 O 0.45428 0.05855 -0.02929
 O59 O 0.38774 -0.08159 -0.02939
 O60 O 0.53195 -0.08001 0.02742
 O61 O 0.39576 -0.06090 0.02899
 O62 O 0.53749 -0.06377 -0.02892
 Cu63 Cu 0.53833 0.08143 -0.00047
 Cu64 Cu 0.45540 -0.08434 0.00007
 C65 C 0.59787 0.00687 -0.03806
 C66 C 0.40945 0.01028 0.03891
 C67 C 0.59056 -0.01057 0.03759
 C68 C 0.39637 -0.01246 -0.03917
 O69 O -0.08391 0.39000 0.69547
 O70 O -0.08173 0.53348 0.63844
 O71 O -0.06287 0.39723 0.63715
 O72 O -0.06581 0.53945 0.69484
 O73 O 0.07469 0.61090 0.69404
 O74 O 0.07750 0.47063 0.63729
 O75 O 0.05877 0.60183 0.63766
 O76 O 0.05648 0.45629 0.69562
 Cu77 Cu -0.08639 0.45725 0.66589
 Cu78 Cu 0.07966 0.53984 0.66672
 C79 C -0.01474 0.39870 0.70542
 C80 C -0.01208 0.59182 0.62837
 C81 C 0.00846 0.41063 0.62740
 C82 C 0.00494 0.59972 0.70409
 O83 O 0.47083 0.39407 0.30542
 O84 O 0.61260 0.53661 0.36262
 O85 O 0.46657 0.39669 0.36283
 O86 O 0.61035 0.54021 0.30514
 O87 O 0.53882 0.60952 0.30504
 O88 O 0.39645 0.46741 0.36199
 O89 O 0.54246 0.60731 0.36251
 O90 O 0.39930 0.46337 0.30457
 Cu91 Cu 0.54720 0.45990 0.33406
 Cu92 Cu 0.46216 0.54392 0.33349
 C93 C 0.41140 0.40435 0.29524
 C94 C 0.60181 0.59580 0.37231
 C95 C 0.40710 0.40826 0.37210
 C96 C 0.59833 0.59915 0.29536
 C97 C 0.04221 0.22834 0.54470
 C98 C 0.03056 0.26774 0.56363
 C99 C 0.01894 0.31524 0.58580
 C100 C 0.01196 0.35757 0.60478
 C101 C 0.77990 0.81341 0.21206
 C102 C 0.74134 0.76289 0.23127
 C103 C 0.69440 0.70432 0.25369
 C104 C 0.65207 0.65538 0.27277
 C105 C 0.17928 -0.04454 -0.12225
 C106 C 0.23046 -0.03326 -0.10318
 C107 C 0.28982 -0.02209 -0.08089
 C108 C 0.33941 -0.01550 -0.06185
 C109 C -0.04202 0.77717 0.54505
 C110 C -0.03110 0.73770 0.56437
 C111 C -0.02046 0.68968 0.58683
 C112 C -0.01439 0.64649 0.60589
 C113 C 0.22970 0.18903 0.21206
 C114 C 0.26841 0.23981 0.23119
 C115 C 0.31545 0.29868 0.25355
 C116 C 0.35777 0.34786 0.27262
 C117 C 0.81204 0.03741 -0.12098
 C118 C 0.76182 0.02608 -0.10177
 C119 C 0.70340 0.01516 -0.07942
 C120 C 0.65440 0.00903 -0.06046
 C121 C 0.22891 0.04351 0.12241
 C122 C 0.26795 0.03210 0.10327
 C123 C 0.31494 0.02064 0.08086
 C124 C 0.35683 0.01373 0.06171
 C125 C 0.81664 0.77868 0.45564
 C126 C 0.76595 0.73982 0.43642
 C127 C 0.70719 0.69247 0.41401
 C128 C 0.65812 0.64981 0.39492
 C129 C -0.04695 0.18358 0.78893
 C130 C -0.03576 0.23431 0.76979
 C131 C -0.02461 0.29309 0.74738
 C132 C -0.01795 0.34222 0.72823
 C133 C 0.77687 -0.04136 0.12056
 C134 C 0.73710 -0.03029 0.10135
 C135 C 0.68884 -0.01941 0.07898
 C136 C 0.64546 -0.01313 0.06000
 C137 C 0.19053 0.22572 0.45460
 C138 C 0.24171 0.26448 0.43562
 C139 C 0.30099 0.31173 0.41347
 C140 C 0.35045 0.35432 0.39456
 C141 C 0.03502 0.81266 0.78743
 C142 C 0.02385 0.76283 0.76809
 C143 C 0.01309 0.70483 0.74560
 C144 C 0.00705 0.65611 0.72653
   
