data_POSCAR
  _audit_creation_date              2014-09-24
  _audit_creation_method            'ToBaCCo'
  _symmetry_space_group_name_H-M    'P1'
  _symmetry_Int_Tables_number       1
  _symmetry_cell_setting            triclinic
  loop_
  _symmetry_equiv_pos_as_xyz
 x,y,z
_cell_length_a 65.5756
_cell_length_b 65.0182
_cell_length_c 20.3456
_cell_angle_alpha 89.467200
_cell_angle_beta 90.409300
_cell_angle_gamma 119.588000
loop_
  _atom_site_label
  _atom_site_type_symbol
  _atom_site_fract_x
  _atom_site_fract_y
  _atom_site_fract_z
C1 C 0.25713 0.50362 0.52931
 C2 C 0.26049 0.50655 0.46340
 C3 C 0.24228 0.50660 0.42047
 C4 C 0.28213 0.50947 0.43237
 C5 C 0.27328 0.49999 0.57245
 C6 C 0.23660 0.50313 0.56059
 C7 C 0.22264 0.48524 0.40311
 C8 C 0.20389 0.48509 0.36975
 C9 C 0.20397 0.50646 0.35418
 C10 C 0.22450 0.52792 0.37049
 C11 C 0.24340 0.52791 0.40259
 C12 C 0.28105 0.49262 0.38795
 C13 C 0.30161 0.49471 0.36146
 C14 C 0.32367 0.51395 0.37808
 C15 C 0.32454 0.53112 0.42143
 C16 C 0.30399 0.52883 0.44850
 C17 C 0.28624 0.51662 0.62087
 C18 C 0.30206 0.51357 0.66038
 C19 C 0.30474 0.49358 0.65283
 C20 C 0.29126 0.47662 0.60544
 C21 C 0.27572 0.47987 0.56528
 C22 C 0.23521 0.52388 0.56508
 C23 C 0.21549 0.52330 0.59267
 C24 C 0.19679 0.50190 0.61626
 C25 C 0.19848 0.48118 0.61241
 C26 C 0.21828 0.48183 0.58506
 H27 H 0.22146 0.46861 0.41764
 H28 H 0.18870 0.46794 0.36165
 H29 H 0.22661 0.54498 0.35701
 H30 H 0.25863 0.54458 0.41549
 H31 H 0.26432 0.47748 0.37525
 H32 H 0.30023 0.48093 0.32923
 H33 H 0.30510 0.54214 0.48226
 H34 H 0.28444 0.53218 0.62708
 H35 H 0.31222 0.52679 0.69686
 H36 H 0.29320 0.46118 0.59846
 H37 H 0.26565 0.46679 0.52837
 H38 H 0.24939 0.54052 0.54706
 H39 H 0.21496 0.53964 0.59598
 H40 H 0.18428 0.46437 0.62930
 H41 H 0.21914 0.46566 0.58174
 H42 H 0.34110 0.54641 0.43435
 C43 C 0.44829 -0.26891 0.52792
 C44 C 0.44815 -0.27000 0.46118
 C45 C 0.45215 -0.28772 0.42727
 C46 C 0.44757 -0.25128 0.42046
 C47 C 0.44914 -0.24838 0.56105
 C48 C 0.45071 -0.28644 0.56948
 C49 C 0.47394 -0.28673 0.43264
 C50 C 0.47749 -0.30406 0.40350
 C51 C 0.45925 -0.32274 0.36877
 C52 C 0.43747 -0.32358 0.36302
 C53 C 0.43402 -0.30604 0.39161
 C54 C 0.46772 -0.23508 0.38637
 C55 C 0.46875 -0.21518 0.35638
 C56 C 0.44953 -0.21121 0.35941
 C57 C 0.42893 -0.22815 0.39102
 C58 C 0.42798 -0.24800 0.42133
 C59 C 0.42882 -0.25005 0.58845
 C60 C 0.42942 -0.23007 0.61559
 C61 C 0.45047 -0.20838 0.61680
 C62 C 0.47084 -0.20691 0.59014
 C63 C 0.47013 -0.22673 0.56201
 C64 C 0.43428 -0.31055 0.56556
 C65 C 0.43812 -0.32725 0.59866
 C66 C 0.45867 -0.32031 0.63660
 C67 C 0.47442 -0.29578 0.64287
 C68 C 0.47044 -0.27916 0.60984
 H69 H 0.48811 -0.27266 0.46004
 H70 H 0.49437 -0.30311 0.40912
 H71 H 0.42321 -0.33771 0.33605
 H72 H 0.41710 -0.30700 0.38716
 H73 H 0.48310 -0.23720 0.38586
 H74 H 0.48501 -0.20236 0.33343
 H75 H 0.41224 -0.26042 0.44728
 H76 H 0.41247 -0.26666 0.58748
 H77 H 0.41355 -0.23156 0.63614
 H78 H 0.48720 -0.19030 0.59009
 H79 H 0.48589 -0.22518 0.54040
 H80 H 0.41864 -0.31647 0.53571
 H81 H 0.42464 -0.34557 0.59471
 H82 H 0.49078 -0.28910 0.66941
 H83 H 0.48345 -0.26060 0.61323
 H84 H 0.41368 -0.22586 0.39329
 C85 C 1.26651 0.72667 0.54065
 C86 C 1.26668 0.72945 0.47429
 C87 C 1.28615 0.75014 0.44081
 C88 C 1.24591 0.71387 0.43395
 C89 C 1.24733 0.70572 0.57413
 C90 C 1.28384 0.74604 0.58237
 C91 C 1.28152 0.76564 0.40396
 C92 C 1.29980 0.78594 0.37555
 C93 C 1.32342 0.79135 0.38275
 C94 C 1.32776 0.77521 0.41896
 C95 C 1.30936 0.75488 0.44727
 C96 C 1.22512 0.71483 0.44073
 C97 C 1.20566 0.70074 0.40154
 C98 C 1.20658 0.68521 0.35579
 C99 C 1.22734 0.68411 0.34940
 C100 C 1.24702 0.69863 0.38763
 C101 C 1.24178 0.68278 0.55625
 C102 C 1.22274 0.66310 0.58487
 C103 C 1.20866 0.66579 0.63263
 C104 C 1.21496 0.68912 0.65135
 C105 C 1.23403 0.70870 0.62267
 C106 C 1.30186 0.74414 0.61391
 C107 C 1.31908 0.76322 0.64948
 C108 C 1.31825 0.78445 0.65579
 C109 C 1.29944 0.78569 0.62527
 C110 C 1.28264 0.76683 0.58864
 H111 H 1.26374 0.76247 0.39899
 H112 H 1.29515 0.79788 0.35106
 H113 H 1.34524 0.77767 0.42416
 H114 H 1.31324 0.74282 0.47446
 H115 H 1.22411 0.72667 0.47599
 H116 H 1.18976 0.70173 0.40744
 H117 H 1.26302 0.69783 0.38170
 H118 H 1.25219 0.68010 0.51981
 H119 H 1.21967 0.64585 0.57034
 H120 H 1.20456 0.69268 0.68550
 H121 H 1.23785 0.72627 0.63680
 H122 H 1.30288 0.72808 0.60974
 H123 H 1.33259 0.76091 0.67350
 H124 H 1.29823 0.80169 0.62616
 H125 H 1.26882 0.76854 0.56416
 H126 H 1.22837 0.67226 0.31422
 C127 C 0.74236 0.47112 0.54481
 C128 C 0.74047 0.46902 0.47842
 C129 C 0.75883 0.46810 0.43908
 C130 C 0.72178 0.47093 0.44253
 C131 C 0.72483 0.47387 0.58318
 C132 C 0.76178 0.47052 0.58101
 C133 C 0.78113 0.48815 0.43465
 C134 C 0.79917 0.48699 0.40206
 C135 C 0.79522 0.46573 0.37344
 C136 C 0.77272 0.44575 0.37709
 C137 C 0.75459 0.44698 0.40936
 C138 C 0.72428 0.49327 0.42999
 C139 C 0.70626 0.49534 0.39925
 C140 C 0.68540 0.47506 0.38023
 C141 C 0.68307 0.45265 0.39251
 C142 C 0.70115 0.45062 0.42341
 C143 C 0.70307 0.45411 0.59695
 C144 C 0.68564 0.45677 0.62826
 C145 C 0.68966 0.47936 0.64717
 C146 C 0.71196 0.49906 0.63412
 C147 C 0.72918 0.49633 0.60186
 C148 C 0.76415 0.45027 0.57976
 C149 C 0.78342 0.45028 0.60954
 C150 C 0.80094 0.47060 0.64184
 C151 C 0.79788 0.49065 0.64417
 C152 C 0.77862 0.49057 0.61416
 H153 H 0.78465 0.50454 0.45768
 H154 H 0.81640 0.50256 0.40076
 H155 H 0.76920 0.42921 0.35507
 H156 H 0.73746 0.43133 0.41275
 H157 H 0.74006 0.50910 0.44508
 H158 H 0.70847 0.51283 0.39165
 H159 H 0.69894 0.43323 0.43319
 H160 H 0.69947 0.43664 0.58249
 H161 H 0.66927 0.44091 0.63896
 H162 H 0.71585 0.51689 0.64486
 H163 H 0.74561 0.51189 0.58946
 H164 H 0.75111 0.43448 0.55513
 H165 H 0.78404 0.43397 0.60834
 H166 H 0.81094 0.50711 0.66567
 H167 H 0.77744 0.50658 0.61479
 H168 H 0.66733 0.43671 0.37798
 C169 C 0.54100 0.27659 0.52574
 C170 C 0.54347 0.27847 0.45906
 C171 C 0.54734 0.29994 0.42261
 C172 C 0.54049 0.25810 0.41943
 C173 C 0.53861 0.25537 0.56069
 C174 C 0.53913 0.29452 0.56657
 C175 C 0.53113 0.29809 0.37454
 C176 C 0.53300 0.31835 0.34470
 C177 C 0.55149 0.34094 0.36112
 C178 C 0.56838 0.34260 0.40716
 C179 C 0.56626 0.32228 0.43781
 C180 C 0.51896 0.23693 0.41943
 C181 C 0.51652 0.21719 0.38593
 C182 C 0.53559 0.21825 0.35187
 C183 C 0.55698 0.23968 0.35058
 C184 C 0.55934 0.25952 0.38367
 C185 C 0.55610 0.24906 0.55615
 C186 C 0.55304 0.22823 0.58553
 C187 C 0.53234 0.21312 0.62070
 C188 C 0.51524 0.22025 0.62666
 C189 C 0.51841 0.24110 0.59720
 C190 C 0.55107 0.30149 0.62685
 C191 C 0.54837 0.31712 0.66780
 C192 C 0.53396 0.32665 0.64898
 C193 C 0.52202 0.31952 0.58822
 C194 C 0.52416 0.30330 0.54849
 H195 H 0.51633 0.28100 0.36241
 H196 H 0.51937 0.31628 0.31067
 H197 H 0.58309 0.35961 0.42011
 H198 H 0.57911 0.32400 0.47430
 H199 H 0.50418 0.23561 0.44647
 H200 H 0.49991 0.20088 0.38826
 H201 H 0.57604 0.27577 0.38303
 H202 H 0.57210 0.26022 0.52935
 H203 H 0.56734 0.22453 0.58174
 H204 H 0.49865 0.20926 0.65075
 H205 H 0.50467 0.24569 0.60094
 H206 H 0.56255 0.29480 0.64236
 H207 H 0.55841 0.32238 0.71299
 H208 H 0.50988 0.32536 0.57258
 H209 H 0.51368 0.29725 0.50419
 H210 H 0.57188 0.24103 0.32418
 C211 C 0.73096 0.26576 0.52852
 C212 C 0.72532 0.26642 0.46395
 C213 C 0.70540 0.24593 0.43203
 C214 C 0.74084 0.28643 0.42030
 C215 C 0.75365 0.28454 0.55585
 C216 C 0.71570 0.24567 0.57319
 C217 C 0.70513 0.22428 0.42754
 C218 C 0.68606 0.20482 0.39874
 C219 C 0.66691 0.20668 0.37468
 C220 C 0.66732 0.22843 0.37863
 C221 C 0.68662 0.24804 0.40630
 C222 C 0.75291 0.28254 0.36976
 C223 C 0.77170 0.30160 0.33857
 C224 C 0.77843 0.32504 0.35598
 C225 C 0.76477 0.32880 0.40240
 C226 C 0.74623 0.30965 0.43457
 C227 C 0.75402 0.29693 0.61221
 C228 C 0.77522 0.31533 0.63606
 C229 C 0.79652 0.32214 0.60300
 C230 C 0.79595 0.30911 0.54732
 C231 C 0.77493 0.29014 0.52544
 C232 C 0.69125 0.23614 0.57431
 C233 C 0.67707 0.21585 0.61136
 C234 C 0.68703 0.20520 0.65109
 C235 C 0.71166 0.21591 0.65355
 C236 C 0.72576 0.23567 0.61458
 H237 H 0.71963 0.22248 0.44666
 H238 H 0.68605 0.18818 0.39628
 H239 H 0.65279 0.23024 0.35984
 H240 H 0.68669 0.26470 0.40912
 H241 H 0.74909 0.26474 0.35832
 H242 H 0.78185 0.29780 0.30401
 H243 H 0.73691 0.31295 0.47308
 H244 H 0.73782 0.29267 0.63694
 H245 H 0.77461 0.32495 0.67844
 H246 H 0.81188 0.31278 0.52204
 H247 H 0.77524 0.27999 0.48400
 H248 H 0.68300 0.24404 0.54524
 H249 H 0.65828 0.20828 0.60715
 H250 H 0.72021 0.20897 0.68515
 H251 H 0.74458 0.24287 0.61585
 H252 H 0.76894 0.34652 0.41580
 N253 N 0.98124 0.50520 -0.10058
 N254 N 0.96300 0.49997 -0.13866
 N255 N 1.03129 0.53768 -0.04544
 N256 N 1.05107 0.55801 -0.04773
 N257 N 1.03016 0.52400 -0.09402
 N258 N 1.04917 0.53472 -0.13081
 N259 N 0.98229 0.51892 -0.05217
 N260 N 0.96472 0.52339 -0.05631
 C261 C 0.95294 0.51157 -0.11091
 C262 C 1.06206 0.55596 -0.10127
 N263 N 1.02578 0.51660 0.13750
 N264 N 1.04367 0.52411 0.17845
 N265 N 0.97986 0.51470 0.08910
 N266 N 0.96291 0.51994 0.09456
 N267 N 0.97684 0.49800 0.13114
 N268 N 0.95766 0.49132 0.16603
 N269 N 1.02879 0.53338 0.09575
 N270 N 1.04884 0.55288 0.10761
 Mn271 Mn 1.00561 0.52648 0.02183
 C272 C 1.05788 0.54679 0.15957
 C273 C 0.94924 0.50528 0.14294
 N274 N 1.02356 0.47692 -0.10353
 N275 N 1.04205 0.48284 -0.14071
 N276 N 0.97164 0.44183 -0.06707
 N277 N 0.95076 0.42302 -0.07421
 N278 N 0.97473 0.45822 -0.11036
 N279 N 0.95610 0.45080 -0.14878
 N280 N 1.02066 0.46031 -0.06125
 N281 N 1.03723 0.45456 -0.06850
 Mn282 Mn 1.00247 0.49113 -0.10295
 C283 C 1.05039 0.46872 -0.11851
 C284 C 0.94139 0.42876 -0.12575
 N285 N 0.97039 0.45115 0.12202
 N286 N 0.95051 0.44182 0.15498
 N287 N 1.01790 0.45576 0.07987
 N288 N 1.03491 0.45049 0.08441
 N289 N 1.01937 0.46978 0.12787
 N290 N 1.03755 0.47465 0.16593
 N291 N 0.96895 0.43735 0.07344
 N292 N 0.94798 0.41830 0.07201
 Mn293 Mn 0.99809 0.48385 0.13043
 Mn294 Mn 0.99477 0.44852 0.00616
 Cl295 Cl 1.00026 0.48751 0.01386
 C296 C 0.93673 0.42123 0.12358
 C297 C 1.04692 0.46230 0.13862
 N298 N 0.49892 0.47172 0.04812
 N299 N 0.49906 0.45149 0.04791
 N300 N 0.48345 0.50702 0.09907
 N301 N 0.47011 0.51175 0.13728
 N302 N 0.47133 0.49405 0.04899
 N303 N 0.44945 0.48974 0.05157
 N304 N 0.51082 0.48460 0.09863
 N305 N 0.51926 0.47341 0.13418
 C306 C 0.51167 0.45271 0.10225
 C307 C 0.44891 0.50081 0.10708
 N308 N 0.54065 0.56849 0.07371
 N309 N 0.54207 0.58913 0.08444
 N310 N 0.55263 0.52957 0.11330
 N311 N 0.56321 0.52085 0.15030
 N312 N 0.56760 0.54567 0.07262
 N313 N 0.58877 0.54839 0.08119
 N314 N 0.52538 0.55228 0.11357
 N315 N 0.51587 0.56147 0.15220
 Mn316 Mn 0.51802 0.51837 0.10704
 C317 C 0.52658 0.58453 0.13363
 C318 C 0.58578 0.53285 0.13010
 N319 N 0.47536 0.49929 -0.09173
 N320 N 0.45396 0.49585 -0.10187
 N321 N 0.51724 0.49326 -0.13374
 N322 N 0.52401 0.48399 -0.18019
 N323 N 0.50287 0.47685 -0.09280
 N324 N 0.49976 0.45591 -0.10984
 N325 N 0.49035 0.51588 -0.13120
 N326 N 0.47968 0.52426 -0.16888
 Mn327 Mn 0.48685 0.48516 -0.02182
 C328 C 0.45700 0.51156 -0.15034
 C329 C 0.51322 0.46077 -0.16431
 N330 N 0.57165 0.55089 -0.06861
 N331 N 0.59283 0.55314 -0.06961
 N332 N 0.53216 0.56062 -0.11674
 N333 N 0.52332 0.57143 -0.15193
 N334 N 0.54437 0.57376 -0.06703
 N335 N 0.54400 0.59394 -0.06714
 N336 N 0.55905 0.53794 -0.11814
 N337 N 0.57115 0.53094 -0.15372
 Mn338 Mn 0.55638 0.56002 0.00276
 Mn339 Mn 0.52476 0.52700 -0.12549
 Cl340 Cl 0.52149 0.52262 -0.00932
 C341 C 0.59225 0.54072 -0.12346
 C342 C 0.53093 0.59226 -0.12101
 N343 N 0.43957 -0.02285 0.07227
 N344 N 0.41898 -0.04205 0.07962
 N345 N 0.47894 0.02746 0.11131
 N346 N 0.48741 0.04680 0.14712
 N347 N 0.46364 0.02689 0.06830
 N348 N 0.46112 0.04572 0.07424
 N349 N 0.45466 -0.02252 0.11562
 N350 N 0.44467 -0.04154 0.15362
 C351 C 0.42234 -0.05348 0.13082
 C352 C 0.47600 0.05794 0.12377
 N353 N 0.53606 0.02742 0.05747
 N354 N 0.55747 0.04560 0.06239
 N355 N 0.49869 -0.02220 0.10899
 N356 N 0.49084 -0.04153 0.14542
 N357 N 0.51205 -0.02239 0.06145
 N358 N 0.51356 -0.04188 0.06433
 N359 N 0.52276 0.02765 0.10504
 N360 N 0.53473 0.04609 0.14339
 Mn361 Mn 0.48877 0.00260 0.11115
 C362 C 0.55638 0.05712 0.11621
 C363 C 0.50043 -0.05356 0.11735
 N364 N 0.46071 0.02556 -0.07316
 N365 N 0.45905 0.04497 -0.07766
 N366 N 0.44993 -0.02496 -0.11532
 N367 N 0.43855 -0.04444 -0.15015
 N368 N 0.43648 -0.02428 -0.06888
 N369 N 0.41543 -0.04321 -0.07145
 N370 N 0.47367 0.02481 -0.12089
 N371 N 0.48115 0.04362 -0.15906
 Mn372 Mn 0.44984 0.00136 -0.00030
 C373 C 0.47177 0.05597 -0.13193
 C374 C 0.41701 -0.05557 -0.12252
 N375 N 0.50935 -0.02348 -0.07953
 N376 N 0.51254 -0.04187 -0.08617
 N377 N 0.51763 0.02552 -0.12709
 N378 N 0.52676 0.04480 -0.16388
 N379 N 0.53312 0.02634 -0.08431
 N380 N 0.55334 0.04612 -0.09168
 N381 N 0.49390 -0.02435 -0.12233
 N382 N 0.48609 -0.04339 -0.15917
 Mn383 Mn 0.52294 0.00201 -0.01125
 Mn384 Mn 0.48375 0.00020 -0.12218
 Cl385 Cl 0.48633 0.00156 -0.00561
 C386 C 0.49795 -0.05411 -0.13616
 C387 C 0.54907 0.05732 -0.14195
 C388 C 1.16777 0.48657 0.29074
 C389 C 1.14739 0.48582 0.26599
 C390 C 1.14335 0.50488 0.27740
 C391 C 1.16015 0.52473 0.31113
 C392 C 1.18059 0.52558 0.33483
 C393 C 1.18473 0.50630 0.32672
 C394 C 1.12255 0.50377 0.25510
 C395 C 1.10593 0.48398 0.22031
 C396 C 1.11036 0.46527 0.20655
 C397 C 1.13098 0.46623 0.22991
 C398 C 1.09405 0.44591 0.16964
 C399 C 1.07347 0.44503 0.14692
 C400 C 1.06867 0.46323 0.16198
 C401 C 1.08497 0.48266 0.19871
 H402 H 1.17061 0.47199 0.27897
 H403 H 1.15733 0.53954 0.32020
 H404 H 1.19214 0.54092 0.36353
 H405 H 1.11932 0.51830 0.26475
 H406 H 1.13421 0.45170 0.22018
 H407 H 1.09724 0.43150 0.15821
 H408 H 1.06113 0.42996 0.11837
 H409 H 1.08151 0.49692 0.20958
 C410 C 0.48355 0.66521 0.30261
 C411 C 0.48781 0.64787 0.27600
 C412 C 0.47149 0.62366 0.28618
 C413 C 0.45094 0.61725 0.32180
 C414 C 0.44673 0.63467 0.34767
 C415 C 0.46310 0.65876 0.33887
 C416 C 0.47603 0.60631 0.26074
 C417 C 0.49656 0.61291 0.22465
 C418 C 0.51259 0.63716 0.21345
 C419 C 0.50818 0.65445 0.23948
 C420 C 0.53280 0.64377 0.17620
 C421 C 0.53719 0.62656 0.15024
 C422 C 0.52163 0.60244 0.16178
 C423 C 0.50132 0.59569 0.19921
 H424 H 0.49611 0.68377 0.29490
 H425 H 0.43819 0.59879 0.32996
 H426 H 0.43092 0.62934 0.37583
 H427 H 0.46361 0.58773 0.26893
 H428 H 0.52059 0.67303 0.23126
 H429 H 0.54519 0.66226 0.16694
 H430 H 0.55292 0.63215 0.12146
 H431 H 0.48910 0.57709 0.20775
 C432 C 0.33818 -0.17613 0.30117
 C433 C 0.35606 -0.15455 0.27660
 C434 C 0.37859 -0.14396 0.30542
 C435 C 0.38287 -0.15535 0.35803
 C436 C 0.36493 -0.17679 0.38272
 C437 C 0.34207 -0.18750 0.35551
 C438 C 0.39634 -0.12207 0.28167
 C439 C 0.39169 -0.11055 0.22983
 C440 C 0.36912 -0.12133 0.20077
 C441 C 0.35154 -0.14329 0.22399
 C442 C 0.36438 -0.10987 0.14923
 C443 C 0.38175 -0.08781 0.12688
 C444 C 0.40419 -0.07681 0.15550
 C445 C 0.40912 -0.08835 0.20684
 H446 H 0.32140 -0.18419 0.27623
 H447 H 0.39998 -0.14739 0.38120
 H448 H 0.36898 -0.18413 0.42546
 H449 H 0.41364 -0.11389 0.30399
 H450 H 0.33423 -0.15145 0.20176
 H451 H 0.34719 -0.11792 0.12640
 H452 H 0.37756 -0.07934 0.08706
 H453 H 0.42644 -0.08005 0.22899
 C454 C 0.83036 0.48298 0.30024
 C455 C 0.85006 0.48297 0.27405
 C456 C 0.85432 0.46414 0.28905
 C457 C 0.83840 0.44532 0.32861
 C458 C 0.81879 0.44548 0.35459
 C459 C 0.81482 0.46448 0.34150
 C460 C 0.87459 0.46465 0.26516
 C461 C 0.89064 0.48378 0.22658
 C462 C 0.88600 0.50228 0.21026
 C463 C 0.86575 0.50175 0.23407
 C464 C 0.90183 0.52117 0.17086
 C465 C 0.92227 0.52197 0.14852
 C466 C 0.92734 0.50400 0.16569
 C467 C 0.91136 0.48484 0.20443
 H468 H 0.82722 0.49752 0.28909
 H469 H 0.84132 0.43070 0.34040
 H470 H 0.80712 0.43111 0.38661
 H471 H 0.87802 0.45034 0.27724
 H472 H 0.86237 0.51610 0.22221
 H473 H 0.89847 0.53542 0.15763
 H474 H 0.93429 0.53683 0.11845
 H475 H 0.91502 0.47075 0.21723
 C476 C 0.54380 0.36235 0.26899
 C477 C 0.54145 0.38142 0.24547
 C478 C 0.54849 0.40152 0.28535
 C479 C 0.55802 0.40228 0.34775
 C480 C 0.55963 0.38290 0.37161
 C481 C 0.55219 0.36254 0.33302
 C482 C 0.54516 0.42015 0.26313
 C483 C 0.53418 0.41857 0.20244
 C484 C 0.52729 0.39851 0.16238
 C485 C 0.53132 0.38026 0.18369
 C486 C 0.51594 0.39678 0.10234
 C487 C 0.51094 0.41446 0.08275
 C488 C 0.51743 0.43430 0.12251
 C489 C 0.52939 0.43642 0.18191
 H490 H 0.53850 0.34709 0.23789
 H491 H 0.56345 0.41751 0.37906
 H492 H 0.56587 0.38357 0.42136
 H493 H 0.55041 0.43550 0.29394
 H494 H 0.52585 0.36480 0.15317
 H495 H 0.51059 0.38156 0.07100
 H496 H 0.50191 0.41256 0.03651
 H497 H 0.53455 0.45172 0.21283
 C498 C 0.64986 0.17303 0.29598
 C499 C 0.63066 0.15296 0.26920
 C500 C 0.60784 0.14539 0.29332
 C501 C 0.60462 0.15829 0.34308
 C502 C 0.62381 0.17852 0.36864
 C503 C 0.64654 0.18587 0.34574
 C504 C 0.58867 0.12503 0.26754
 C505 C 0.59202 0.11224 0.21764
 C506 C 0.61481 0.12007 0.19282
 C507 C 0.63398 0.14032 0.21890
 C508 C 0.61807 0.10745 0.14239
 C509 C 0.59899 0.08712 0.11710
 C510 C 0.57636 0.07895 0.14212
 C511 C 0.57296 0.09168 0.19226
 H512 H 0.66740 0.17879 0.27790
 H513 H 0.58731 0.15265 0.36256
 H514 H 0.62099 0.18816 0.40737
 H515 H 0.57119 0.11911 0.28640
 H516 H 0.65147 0.14621 0.20016
 H517 H 0.63540 0.11326 0.12264
 H518 H 0.60201 0.07762 0.07838
 H519 H 0.55551 0.08561 0.21148
 C520 C 0.51312 0.18037 -0.29885
 C521 C 0.50838 0.15817 -0.27467
 C522 C 0.51937 0.14649 -0.30340
 C523 C 0.53512 0.15731 -0.35513
 C524 C 0.53965 0.17931 -0.37935
 C525 C 0.52856 0.19124 -0.35235
 C526 C 0.51427 0.12407 -0.28047
 C527 C 0.49821 0.11313 -0.22922
 C528 C 0.48744 0.12492 -0.19962
 C529 C 0.49265 0.14741 -0.22243
 C530 C 0.47155 0.11393 -0.14791
 C531 C 0.46633 0.09142 -0.12587
 C532 C 0.47680 0.07953 -0.15548
 C533 C 0.49271 0.09051 -0.20723
 H534 H 0.50509 0.18926 -0.27430
 H535 H 0.54364 0.14853 -0.37788
 H536 H 0.55101 0.18618 -0.42164
 H537 H 0.52265 0.11507 -0.30280
 H538 H 0.48427 0.15641 -0.20005
 H539 H 0.46319 0.12273 -0.12452
 H540 H 0.45410 0.08332 -0.08570
 H541 H 0.50093 0.08150 -0.23035
 C542 C 0.67705 0.50143 -0.28117
 C543 C 0.65929 0.50500 -0.25514
 C544 C 0.63567 0.48944 -0.27212
 C545 C 0.63012 0.47020 -0.31300
 C546 C 0.64782 0.46658 -0.33818
 C547 C 0.67167 0.48232 -0.32379
 C548 C 0.61794 0.49346 -0.24851
 C549 C 0.62352 0.51274 -0.20755
 C550 C 0.64703 0.52791 -0.18852
 C551 C 0.66482 0.52399 -0.21265
 C552 C 0.65230 0.54684 -0.14610
 C553 C 0.63446 0.55089 -0.12368
 C554 C 0.61121 0.53629 -0.14416
 C555 C 0.60587 0.51713 -0.18566
 H556 H 0.69500 0.51328 -0.26644
 H557 H 0.61207 0.45811 -0.32645
 H558 H 0.64262 0.45207 -0.37195
 H559 H 0.59984 0.48167 -0.26238
 H560 H 0.68292 0.53581 -0.19890
 H561 H 0.67021 0.55856 -0.13061
 H562 H 0.63889 0.56568 -0.09141
 H563 H 0.58788 0.50554 -0.20091
 C564 C 0.82225 0.34594 -0.30672
 C565 C 0.84428 0.36340 -0.28404
 C566 C 0.86209 0.37735 -0.32953
 C567 C 0.85763 0.37341 -0.39693
 C568 C 0.83605 0.35529 -0.41911
 C569 C 0.81801 0.34115 -0.37447
 C570 C 0.88429 0.39447 -0.30693
 C571 C 0.88927 0.39692 -0.23938
 C572 C 0.87156 0.38257 -0.19390
 C573 C 0.84905 0.36636 -0.21644
 C574 C 0.87688 0.38413 -0.12667
 C575 C 0.89967 0.39926 -0.10484
 C576 C 0.91732 0.41358 -0.14952
 C577 C 0.91194 0.41279 -0.21662
 H578 H 0.80908 0.33497 -0.27098
 H579 H 0.87104 0.38399 -0.43256
 H580 H 0.83335 0.35288 -0.47167
 H581 H 0.89792 0.40519 -0.34191
 H582 H 0.83550 0.35541 -0.18146
 H583 H 0.86356 0.37325 -0.09117
 H584 H 0.90353 0.39989 -0.05283
 H585 H 0.92563 0.42373 -0.25121
 C586 C 0.46876 -0.17404 -0.30731
 C587 C 0.47056 -0.15333 -0.28127
 C588 C 0.45497 -0.14549 -0.30280
 C589 C 0.43755 -0.15882 -0.34922
 C590 C 0.43567 -0.17965 -0.37424
 C591 C 0.45143 -0.18721 -0.35405
 C592 C 0.45720 -0.12441 -0.27798
 C593 C 0.47475 -0.11116 -0.23174
 C594 C 0.49005 -0.11929 -0.20953
 C595 C 0.48787 -0.14028 -0.23450
 C596 C 0.50740 -0.10621 -0.16289
 C597 C 0.50979 -0.08511 -0.13883
 C598 C 0.49498 -0.07665 -0.16124
 C599 C 0.47737 -0.08984 -0.20752
 H600 H 0.48083 -0.17996 -0.29129
 H601 H 0.42553 -0.15304 -0.36656
 H602 H 0.42230 -0.18955 -0.41063
 H603 H 0.44541 -0.11825 -0.29492
 H604 H 0.49974 -0.14639 -0.21782
 H605 H 0.51919 -0.11225 -0.14519
 H606 H 0.52341 -0.07529 -0.10298
 H607 H 0.46572 -0.08354 -0.22466
 C608 C 0.34545 0.50963 -0.30436
 C609 C 0.36261 0.50689 -0.27029
 C610 C 0.35642 0.48529 -0.23768
 C611 C 0.33314 0.46676 -0.24007
 C612 C 0.31626 0.46949 -0.27536
 C613 C 0.32229 0.49091 -0.30771
 C614 C 0.37368 0.48240 -0.20444
 C615 C 0.39714 0.50060 -0.20506
 C616 C 0.40328 0.52211 -0.23830
 C617 C 0.38595 0.52523 -0.26984
 C618 C 0.42679 0.54000 -0.24067
 C619 C 0.44414 0.53647 -0.21164
 C620 C 0.43827 0.51521 -0.17858
 C621 C 0.41468 0.49745 -0.17446
 H622 H 0.35024 0.52608 -0.33010
 H623 H 0.32808 0.45007 -0.21551
 H624 H 0.29843 0.45489 -0.27733
 H625 H 0.36895 0.46584 -0.17947
 H626 H 0.39070 0.54172 -0.29533
 H627 H 0.43181 0.55657 -0.26593
 H628 H 0.46222 0.55042 -0.21503
 H629 H 0.41008 0.48095 -0.14934
 C630 C 1.17949 0.64718 -0.27844
 C631 C 1.15881 0.62815 -0.25353
 C632 C 1.14688 0.60702 -0.28973
 C633 C 1.15606 0.60519 -0.34986
 C634 C 1.17653 0.62429 -0.37484
 C635 C 1.18854 0.64587 -0.34023
 C636 C 1.12581 0.58822 -0.26572
 C637 C 1.11640 0.59046 -0.20621
 C638 C 1.12854 0.61155 -0.16962
 C639 C 1.14973 0.63015 -0.19321
 C640 C 1.11909 0.61386 -0.11044
 C641 C 1.09758 0.59564 -0.08817
 C642 C 1.08519 0.57472 -0.12444
 C643 C 1.09484 0.57211 -0.18315
 H644 H 1.18864 0.66277 -0.24827
 H645 H 1.14711 0.58913 -0.37844
 H646 H 1.18202 0.62223 -0.42313
 H647 H 1.11658 0.57204 -0.29381
 H648 H 1.15891 0.64637 -0.16525
 H649 H 1.12819 0.62988 -0.08174
 H650 H 1.09058 0.59802 -0.04262
 H651 H 1.08543 0.55601 -0.21141
 C652 C 0.83404 0.48687 -0.27913
 C653 C 0.85470 0.48825 -0.25422
 C654 C 0.86287 0.47361 -0.28030
 C655 C 0.85008 0.45760 -0.33004
 C656 C 0.82959 0.45635 -0.35480
 C657 C 0.82122 0.47113 -0.33056
 C658 C 0.88380 0.47531 -0.25667
 C659 C 0.89668 0.49153 -0.20718
 C660 C 0.88834 0.50594 -0.18017
 C661 C 0.86739 0.50419 -0.20380
 C662 C 0.90120 0.52195 -0.13016
 C663 C 0.92221 0.52378 -0.10741
 C664 C 0.93077 0.50977 -0.13461
 C665 C 0.91784 0.49361 -0.18440
 H666 H 0.82779 0.49773 -0.25663
 H667 H 0.85616 0.44628 -0.35074
 H668 H 0.82114 0.44449 -0.39544
 H669 H 0.89012 0.46414 -0.27707
 H670 H 0.86107 0.51536 -0.18339
 H671 H 0.89503 0.53307 -0.10872
 H672 H 0.93183 0.53626 -0.06879
 H673 H 0.92417 0.48253 -0.20530
 C674 C 0.52717 0.36035 -0.33738
 C675 C 0.52452 0.37628 -0.29719
 C676 C 0.52521 0.37431 -0.22812
 C677 C 0.52932 0.35688 -0.20053
 C678 C 0.53267 0.34150 -0.24086
 C679 C 0.53131 0.34270 -0.31001
 C680 C 0.52201 0.38993 -0.18788
 C681 C 0.51897 0.40804 -0.21603
 C682 C 0.51922 0.41051 -0.28528
 C683 C 0.52160 0.39441 -0.32531
 C684 C 0.51741 0.42927 -0.31351
 C685 C 0.51555 0.44557 -0.27362
 C686 C 0.51473 0.44300 -0.20500
 C687 C 0.51619 0.42406 -0.17624
 H688 H 0.52706 0.36253 -0.39021
 H689 H 0.52998 0.35512 -0.14765
 H690 H 0.53521 0.32795 -0.21722
 H691 H 0.52226 0.38823 -0.13483
 H692 H 0.52150 0.39620 -0.37837
 H693 H 0.51776 0.43152 -0.36641
 H694 H 0.51448 0.46013 -0.29646
 H695 H 0.51594 0.42229 -0.12316
 C696 C 0.64920 0.17697 -0.29113
 C697 C 0.63438 0.15510 -0.26090
 C698 C 0.64260 0.13903 -0.24828
 C699 C 0.66531 0.14491 -0.26742
 C700 C 0.67962 0.16629 -0.29984
 C701 C 0.67187 0.18271 -0.31210
 C702 C 0.62782 0.11714 -0.21816
 C703 C 0.60456 0.11067 -0.20305
 C704 C 0.59614 0.12652 -0.21741
 C705 C 0.61124 0.14881 -0.24480
 C706 C 0.57258 0.11958 -0.20559
 C707 C 0.55739 0.09701 -0.18088
 C708 C 0.56564 0.08129 -0.16571
 C709 C 0.58933 0.08832 -0.17575
 H710 H 0.64288 0.18937 -0.29857
 H711 H 0.67182 0.13269 -0.25888
 H712 H 0.69659 0.16957 -0.31662
 H713 H 0.63421 0.10488 -0.20820
 H714 H 0.60478 0.16097 -0.25540
 H715 H 0.56578 0.13140 -0.21665
 H716 H 0.53917 0.09186 -0.17303
 H717 H 0.59563 0.07606 -0.16482
 C718 C 1.16416 0.48690 -0.30094
 C719 C 1.14400 0.48611 -0.27503
 C720 C 1.13516 0.49996 -0.30422
 C721 C 1.14653 0.51423 -0.35888
 C722 C 1.16647 0.51477 -0.38460
 C723 C 1.17555 0.50120 -0.35595
 C724 C 1.11506 0.49928 -0.27851
 C725 C 1.10355 0.48479 -0.22424
 C726 C 1.11230 0.47086 -0.19511
 C727 C 1.13253 0.47167 -0.22054
 C728 C 1.10060 0.45630 -0.14107
 C729 C 1.08039 0.45551 -0.11620
 C730 C 1.07162 0.46932 -0.14480
 C731 C 1.08335 0.48397 -0.19879
 H732 H 1.17112 0.47657 -0.27781
 H733 H 1.13992 0.52486 -0.38201
 H734 H 1.17461 0.52562 -0.42764
 H735 H 1.10832 0.50994 -0.30089
 H736 H 1.13926 0.46101 -0.19816
 H737 H 1.10705 0.44550 -0.11810
 H738 H 1.07168 0.44414 -0.07443
 H739 H 1.07673 0.49472 -0.22124
 C740 C 0.47941 0.66818 -0.28113
 C741 C 0.48594 0.65191 -0.25711
 C742 C 0.47663 0.62949 -0.28669
 C743 C 0.46069 0.62352 -0.33865
 C744 C 0.45443 0.63979 -0.36270
 C745 C 0.46387 0.66263 -0.33529
 C746 C 0.48362 0.61346 -0.26462
 C747 C 0.49995 0.61959 -0.21338
 C748 C 0.50902 0.64180 -0.18255
 C749 C 0.50189 0.65784 -0.20451
 C750 C 0.52519 0.64756 -0.13073
 C751 C 0.53243 0.63153 -0.11013
 C752 C 0.52371 0.60960 -0.14139
 C753 C 0.50744 0.60381 -0.19291
 H754 H 0.48625 0.68496 -0.25627
 H755 H 0.45345 0.60639 -0.36193
 H756 H 0.44315 0.63458 -0.40545
 H757 H 0.47657 0.59631 -0.28784
 H758 H 0.50899 0.67499 -0.18138
 H759 H 0.53228 0.66447 -0.10630
 H760 H 0.54490 0.63631 -0.07010
 H761 H 0.50054 0.58693 -0.21738
 C762 C 0.33105 -0.17929 -0.27957
 C763 C 0.34885 -0.15882 -0.24995
 C764 C 0.37221 -0.15435 -0.25103
 C765 C 0.37715 -0.17103 -0.27866
 C766 C 0.35931 -0.19154 -0.30741
 C767 C 0.33601 -0.19577 -0.31010
 C768 C 0.39026 -0.13318 -0.22511
 C769 C 0.38512 -0.11661 -0.19716
 C770 C 0.36157 -0.12169 -0.19286
 C771 C 0.34360 -0.14268 -0.21970
 C772 C 0.35641 -0.10553 -0.16238
 C773 C 0.37447 -0.08427 -0.13773
 C774 C 0.39793 -0.07863 -0.14455
 C775 C 0.40318 -0.09495 -0.17379
 H776 H 0.31321 -0.18251 -0.27725
 H777 H 0.39492 -0.16805 -0.27891
 H778 H 0.36428 -0.20328 -0.33084
 H779 H 0.40827 -0.12952 -0.22716
 H780 H 0.32559 -0.14632 -0.21772
 H781 H 0.33844 -0.10925 -0.15806
 H782 H 0.37014 -0.07191 -0.11504
 H783 H 0.42129 -0.09080 -0.17816
 C784 C 0.46437 -0.17839 0.27535
 C785 C 0.46802 -0.15628 0.25354
 C786 C 0.45833 -0.14458 0.28906
 C787 C 0.44506 -0.15527 0.34557
 C788 C 0.44179 -0.17712 0.36748
 C789 C 0.45155 -0.18885 0.33303
 C790 C 0.46242 -0.12222 0.26827
 C791 C 0.47643 -0.11122 0.21302
 C792 C 0.48608 -0.12296 0.17743
 C793 C 0.48165 -0.14548 0.19758
 C794 C 0.50022 -0.11186 0.12259
 C795 C 0.50495 -0.08925 0.10337
 C796 C 0.49555 -0.07737 0.13848
 C797 C 0.48116 -0.08854 0.19314
 H798 H 0.47174 -0.18733 0.24774
 H799 H 0.43771 -0.14646 0.37375
 H800 H 0.43220 -0.18448 0.41267
 H801 H 0.45502 -0.11323 0.29565
 H802 H 0.48914 -0.15442 0.17039
 H803 H 0.50773 -0.12061 0.09472
 H804 H 0.51595 -0.08108 0.06085
 H805 H 0.47373 -0.07957 0.22039
 C806 C 0.34635 0.50828 0.28726
 C807 C 0.36681 0.50922 0.26306
 C808 C 0.38711 0.51828 0.30302
 C809 C 0.38656 0.52614 0.36652
 C810 C 0.36602 0.52478 0.39063
 C811 C 0.34566 0.51583 0.35146
 C812 C 0.40751 0.51905 0.27923
 C813 C 0.40775 0.51044 0.21640
 C814 C 0.38740 0.50128 0.17654
 C815 C 0.36715 0.50094 0.19986
 C816 C 0.38757 0.49235 0.11421
 C817 C 0.40759 0.49223 0.09178
 C818 C 0.42789 0.50125 0.13096
 C819 C 0.42791 0.51053 0.19310
 H820 H 0.33099 0.50169 0.25593
 H821 H 0.40191 0.53303 0.39796
 H822 H 0.36600 0.53032 0.44062
 H823 H 0.42307 0.52601 0.30995
 H824 H 0.35156 0.49390 0.16923
 H825 H 0.37214 0.48527 0.08302
 H826 H 0.40719 0.48509 0.04360
 H827 H 0.44348 0.51751 0.22373
 C828 C 1.17607 0.64537 0.31715
 C829 C 1.15541 0.63077 0.28221
 C830 C 1.14471 0.64103 0.24345
 C831 C 1.15477 0.66571 0.24090
 C832 C 1.17498 0.68007 0.27726
 C833 C 1.18575 0.67002 0.31550
 C834 C 1.12392 0.62646 0.20899
 C835 C 1.11328 0.60176 0.21446
 C836 C 1.12383 0.59156 0.25411
 C837 C 1.14499 0.60610 0.28685
 C838 C 1.11280 0.56695 0.26148
 C839 C 1.09134 0.55255 0.23073
 C840 C 1.08077 0.56241 0.19079
 C841 C 1.09197 0.58706 0.18216
 H842 H 1.18422 0.63758 0.34735
 H843 H 1.14679 0.67389 0.21168
 H844 H 1.18229 0.69908 0.27550
 H845 H 1.11576 0.63433 0.17918
 H846 H 1.15305 0.59823 0.31711
 H847 H 1.12057 0.55885 0.29189
 H848 H 1.08300 0.53361 0.23818
 H849 H 1.08382 0.59481 0.15184
 C850 C 0.51315 0.18199 0.28296
 C851 C 0.51021 0.16085 0.25628
 C852 C 0.52758 0.15430 0.26699
 C853 C 0.54788 0.16934 0.30254
 C854 C 0.55071 0.19040 0.32870
 C855 C 0.53327 0.19677 0.31996
 C856 C 0.52426 0.13273 0.24263
 C857 C 0.50387 0.11770 0.20723
 C858 C 0.48685 0.12462 0.19480
 C859 C 0.49008 0.14608 0.21964
 C860 C 0.46679 0.10986 0.15795
 C861 C 0.46346 0.08831 0.13422
 C862 C 0.47993 0.08099 0.14775
 C863 C 0.50018 0.09582 0.18413
 H864 H 0.49976 0.18693 0.27520
 H865 H 0.56143 0.16470 0.31074
 H866 H 0.56628 0.20141 0.35740
 H867 H 0.53746 0.12757 0.25156
 H868 H 0.47686 0.15121 0.21082
 H869 H 0.45365 0.11495 0.14761
 H870 H 0.44778 0.07719 0.10607
 H871 H 0.51314 0.09043 0.19406
 C872 C 0.67114 0.49557 0.30270
 C873 C 0.65314 0.49875 0.27556
 C874 C 0.62962 0.48344 0.29424
 C875 C 0.62452 0.46502 0.33909
 C876 C 0.64258 0.46207 0.36619
 C877 C 0.66609 0.47743 0.34883
 C878 C 0.61166 0.48698 0.26843
 C879 C 0.61696 0.50572 0.22445
 C880 C 0.64046 0.52081 0.20511
 C881 C 0.65837 0.51719 0.23065
 C882 C 0.64570 0.53941 0.16082
 C883 C 0.62788 0.54322 0.13631
 C884 C 0.60452 0.52859 0.15585
 C885 C 0.59916 0.50975 0.19976
 H886 H 0.68913 0.50729 0.28798
 H887 H 0.60660 0.45310 0.35393
 H888 H 0.63818 0.44810 0.40205
 H889 H 0.59363 0.47531 0.28306
 H890 H 0.67641 0.52888 0.21612
 H891 H 0.66360 0.55107 0.14532
 H892 H 0.63242 0.55776 0.10233
 H893 H 0.58115 0.49822 0.21472
 C894 C 0.80934 0.34395 0.26819
 C895 C 0.83207 0.36082 0.24864
 C896 C 0.84618 0.37990 0.29054
 C897 C 0.83727 0.38180 0.35116
 C898 C 0.81497 0.36443 0.37138
 C899 C 0.80082 0.34508 0.33065
 C900 C 0.86924 0.39627 0.27227
 C901 C 0.87867 0.39325 0.21383
 C902 C 0.86458 0.37406 0.17210
 C903 C 0.84124 0.35826 0.18911
 C904 C 0.87427 0.37065 0.11480
 C905 C 0.89780 0.38587 0.09944
 C906 C 0.91193 0.40502 0.14040
 C907 C 0.90216 0.40875 0.19727
 H908 H 0.79861 0.32951 0.23542
 H909 H 0.84790 0.39621 0.38414
 H910 H 0.80931 0.36571 0.42025
 H911 H 0.88008 0.41088 0.30455
 H912 H 0.83049 0.34349 0.15720
 H913 H 0.86375 0.35601 0.08236
 H914 H 0.90494 0.38265 0.05542
 H915 H 0.91293 0.42347 0.22924
   
