data_POSCAR
  _audit_creation_date              2014-09-24
  _audit_creation_method            'ToBaCCo'
  _symmetry_space_group_name_H-M    'P1'
  _symmetry_Int_Tables_number       1
  _symmetry_cell_setting            triclinic
  loop_
  _symmetry_equiv_pos_as_xyz
 x,y,z
_cell_length_a 28.4191
_cell_length_b 28.6556
_cell_length_c 13.1896
_cell_angle_alpha 89.865300
_cell_angle_beta 89.453900
_cell_angle_gamma 113.769000
loop_
  _atom_site_label
  _atom_site_type_symbol
  _atom_site_fract_x
  _atom_site_fract_y
  _atom_site_fract_z
C1 C 0.57793 1.10737 0.43496
 C2 C 0.58510 1.12826 0.53245
 C3 C 0.56377 1.09784 0.61887
 C4 C 0.53388 1.04453 0.60629
 C5 C 0.52338 1.02364 0.50744
 C6 C 0.54570 1.05493 0.42177
 C7 C 0.53330 1.03335 0.32451
 C8 C 0.50178 0.98209 0.31192
 C9 C 0.47985 0.95015 0.39578
 C10 C 0.49094 0.97098 0.49428
 C11 C 0.51682 1.01059 0.68946
 C12 C 0.48456 0.95967 0.67663
 C13 C 0.46908 0.93946 0.57974
 C14 C 0.43533 0.88753 0.56684
 C15 C 0.42769 0.86666 0.46916
 C16 C 0.44740 0.89788 0.38342
 H17 H 0.54693 1.05599 0.25632
 H18 H 0.49516 0.96777 0.23525
 H19 H 0.52939 1.02196 0.76577
 H20 H 0.47338 0.93577 0.74379
 H21 H 0.60868 1.16861 0.54096
 H22 H 0.40088 0.82739 0.45873
 C23 C -0.09790 0.45086 0.36818
 C24 C -0.13021 0.42562 0.44975
 C25 C -0.11138 0.42929 0.54794
 C26 C -0.05967 0.46212 0.56760
 C27 C -0.02684 0.48963 0.48703
 C28 C -0.04563 0.48349 0.38644
 C29 C -0.01142 0.50992 0.30756
 C30 C 0.03861 0.54435 0.32782
 C31 C 0.05719 0.55242 0.42740
 C32 C 0.02475 0.52373 0.50748
 C33 C -0.04117 0.47098 0.66729
 C34 C 0.00892 0.50423 0.68720
 C35 C 0.04338 0.52990 0.60839
 C36 C 0.09468 0.56450 0.62856
 C37 C 0.12419 0.59579 0.54946
 C38 C 0.10680 0.58935 0.44973
 H39 H -0.02271 0.50472 0.22911
 H40 H 0.06253 0.56485 0.26444
 H41 H -0.06590 0.45387 0.73194
 H42 H 0.01914 0.51126 0.76601
 H43 H -0.17003 0.40070 0.43587
 H44 H 0.16309 0.62312 0.56328
 C45 C 0.56825 0.44862 0.41157
 C46 C 0.57086 0.42138 0.49817
 C47 C 0.54224 0.42015 0.58626
 C48 C 0.51328 0.45064 0.59015
 C49 C 0.50983 0.47807 0.50277
 C50 C 0.53652 0.47613 0.41255
 C51 C 0.53040 0.50142 0.32550
 C52 C 0.50106 0.53031 0.32841
 C53 C 0.47744 0.53604 0.41901
 C54 C 0.48085 0.50876 0.50655
 C55 C 0.49209 0.45871 0.68173
 C56 C 0.46518 0.48963 0.68610
 C57 C 0.45672 0.51330 0.59867
 C58 C 0.42900 0.54510 0.60268
 C59 C 0.42738 0.57267 0.51577
 C60 C 0.45031 0.56803 0.42436
 H61 H 0.54805 0.49897 0.25383
 H62 H 0.49748 0.54834 0.25856
 H63 H 0.49849 0.44379 0.75307
 H64 H 0.45350 0.49630 0.76071
 H65 H 0.59432 0.39947 0.49543
 H66 H 0.40657 0.59716 0.51795
 O67 O 0.38229 0.66033 -0.12788
 O68 O 0.38472 0.75363 -0.12659
 C69 C 0.34821 0.75994 -0.17009
 O70 O 0.30214 0.73719 -0.14119
 O71 O 0.22338 0.66184 -0.06605
 C72 C 0.21422 0.61566 -0.08714
 O73 O 0.24012 0.59205 -0.05315
 O74 O 0.33126 0.59075 -0.04100
 C75 C 0.36064 0.61214 -0.11623
 O76 O 0.40745 0.66933 0.06860
 O77 O 0.40025 0.75777 0.07404
 C78 C 0.37434 0.78455 0.08878
 O79 O 0.33137 0.77559 0.04638
 O80 O 0.25210 0.69986 0.12200
 C81 C 0.23384 0.65740 0.16791
 O82 O 0.24317 0.61949 0.14071
 O83 O 0.33653 0.62196 0.15399
 C84 C 0.38504 0.64172 0.14418
 Cr85 Cr 0.39096 0.70903 -0.02711
 Cr86 Cr 0.27875 0.71706 -0.00909
 Cr87 Cr 0.28903 0.60877 0.04859
 O88 O 0.31914 0.67823 0.00405
 O89 O 0.58465 0.30900 -0.07659
 O90 O 0.60073 0.22784 -0.03065
 C91 C 0.62794 0.21509 -0.09312
 O92 O 0.67700 0.23715 -0.09875
 O93 O 0.76282 0.31985 -0.11289
 C94 C 0.76273 0.35072 -0.18030
 O95 O 0.73394 0.37460 -0.17429
 O96 O 0.64828 0.38160 -0.12760
 C97 C 0.60299 0.34769 -0.13475
 O98 O 0.61149 0.34464 0.11259
 O99 O 0.62624 0.26320 0.16062
 C100 C 0.65286 0.23704 0.16597
 O101 O 0.68694 0.24126 0.10096
 O102 O 0.76623 0.33116 0.08596
 C103 C 0.78509 0.37987 0.07798
 O104 O 0.76844 0.40388 0.01624
 O105 O 0.68182 0.41164 0.06191
 C106 C 0.64257 0.39101 0.11935
 Cr107 Cr 0.60869 0.28766 0.03953
 Cr108 Cr 0.72155 0.28382 -0.00594
 Cr109 Cr 0.70689 0.39012 -0.05374
 O110 O 0.67880 0.32088 -0.00624
 N111 N 0.35422 0.84230 -0.22172
 N112 N 0.37986 0.87883 -0.28738
 C113 C 0.40355 0.85919 -0.35313
 C114 C 0.39096 0.80874 -0.32606
 N115 N 0.36030 0.80000 -0.24323
 H116 H 0.40568 0.78249 -0.35822
 N117 N 0.14133 0.54010 -0.14062
 N118 N 0.10788 0.52544 -0.21545
 C119 C 0.11834 0.56622 -0.27718
 C120 C 0.15982 0.60652 -0.23729
 N121 N 0.17243 0.58866 -0.15228
 H122 H 0.17948 0.64482 -0.26725
 N123 N 0.35963 0.53096 -0.16956
 N124 N 0.37802 0.51160 -0.24311
 C125 C 0.40251 0.54973 -0.30975
 C126 C 0.39734 0.59312 -0.27546
 N127 N 0.37127 0.57986 -0.18703
 H128 H 0.41339 0.63108 -0.30826
 N129 N 0.55526 0.13741 -0.13249
 N130 N 0.53650 0.10555 -0.20844
 C131 C 0.57117 0.12140 -0.28523
 C132 C 0.61205 0.16513 -0.25348
 N133 N 0.60078 0.17295 -0.15735
 H134 H 0.64625 0.18894 -0.29556
 N135 N 0.83750 0.34425 -0.25230
 N136 N 0.87311 0.36537 -0.32270
 C137 C 0.85759 0.39599 -0.37787
 C138 C 0.81081 0.39292 -0.33932
 N139 N 0.80016 0.36053 -0.25979
 H140 H 0.78948 0.41527 -0.36067
 N141 N 0.52076 0.34201 -0.19760
 N142 N 0.50322 0.36237 -0.27059
 C143 C 0.54360 0.38905 -0.33187
 C144 C 0.58635 0.38350 -0.29489
 N145 N 0.57063 0.35468 -0.21037
 H146 H 0.62576 0.40219 -0.32156
 N147 N 0.85370 0.45991 0.12372
 N148 N 0.88549 0.48057 0.19930
 C149 C 0.87903 0.44279 0.26611
 C150 C 0.84171 0.39808 0.22907
 N151 N 0.82720 0.41050 0.13996
 H152 H 0.82483 0.36106 0.26574
 N153 N 0.65461 0.15808 0.22095
 N154 N 0.63394 0.12154 0.28911
 C155 C 0.60689 0.13757 0.35409
 C156 C 0.61227 0.18610 0.32407
 N157 N 0.64186 0.19691 0.23934
 H158 H 0.59389 0.20932 0.35613
 N159 N 0.65446 0.47190 0.19918
 N160 N 0.63505 0.48878 0.27559
 C161 C 0.59924 0.44738 0.32153
 C162 C 0.59751 0.40460 0.27140
 N163 N 0.63230 0.42149 0.19533
 H164 H 0.57294 0.36515 0.28789
 N165 N 0.19384 0.69052 0.29667
 N166 N 0.15913 0.67372 0.37068
 C167 C 0.14223 0.62249 0.37197
 C168 C 0.16854 0.60835 0.29820
 N169 N 0.20027 0.65196 0.25284
 H170 H 0.16524 0.57034 0.27995
 N171 N 0.38339 0.86802 0.14596
 N172 N 0.40264 0.89924 0.22292
 C173 C 0.42630 0.87742 0.28311
 C174 C 0.42073 0.83144 0.24072
 N175 N 0.39414 0.82739 0.15487
 H176 H 0.43265 0.80289 0.27137
 N177 N 0.46734 0.65029 0.21089
 N178 N 0.48644 0.63112 0.28313
 C179 C 0.44604 0.59831 0.33682
 C180 C 0.40143 0.59855 0.29631
 N181 N 0.41650 0.63126 0.21737
 H182 H 0.36211 0.57604 0.31976
   
