data_POSCAR
  _audit_creation_date              2014-09-24
  _audit_creation_method            'ToBaCCo'
  _symmetry_space_group_name_H-M    'P1'
  _symmetry_Int_Tables_number       1
  _symmetry_cell_setting            triclinic
  loop_
  _symmetry_equiv_pos_as_xyz
 x,y,z
_cell_length_a 27.8637
_cell_length_b 31.7099
_cell_length_c 24.0112
_cell_angle_alpha 90.617200
_cell_angle_beta 89.990300
_cell_angle_gamma 90.918100
loop_
  _atom_site_label
  _atom_site_type_symbol
  _atom_site_fract_x
  _atom_site_fract_y
  _atom_site_fract_z
C1 C 1.24052 0.25195 0.25422
 C2 C 0.75462 -0.25613 0.24474
 C3 C 0.74836 0.25043 -0.24061
 C4 C 1.26172 -0.24837 -0.23850
 C5 C 0.25732 0.25742 0.74520
 C6 C 0.73940 0.74994 0.75331
 C7 C 0.75895 0.25295 0.23855
 C8 C 0.23833 0.74451 0.24761
 O9 O 1.08459 -0.05070 0.10506
 O10 O 1.04146 -0.10227 0.05831
 C11 C 1.07157 -0.08959 0.09671
 O12 O 0.92181 0.06738 0.08258
 O13 O 0.96774 0.10912 0.02506
 C14 C 0.93511 0.10371 0.06330
 O15 O 0.91902 -0.04896 0.10377
 O16 O 0.96052 -0.10118 0.05851
 C17 C 0.92988 -0.08819 0.09505
 O18 O 1.09531 0.06445 0.07892
 O19 O 1.05259 0.10735 0.02127
 C20 C 1.08491 0.10096 0.05858
 Zr21 Zr 1.06602 0.00374 0.06189
 O22 O 1.07044 0.01671 0.14837
 O23 O 1.14145 -0.00323 0.05856
 Zr24 Zr 0.94605 0.00652 0.06515
 O25 O 0.95488 0.01501 0.15196
 O26 O 0.87055 0.01118 0.07311
 O27 O 1.00429 -0.03141 0.08009
 O28 O 1.00802 0.04295 0.06798
 O29 O 1.09743 0.04319 -0.10837
 O30 O 1.05562 0.09726 -0.06825
 C31 C 1.08992 0.08288 -0.10001
 O32 O 0.91356 -0.06539 -0.09451
 O33 O 0.95557 -0.10948 -0.03781
 C34 C 0.92260 -0.10231 -0.07487
 O35 O 0.91429 0.05113 -0.10399
 O36 O 0.96695 0.10029 -0.06710
 C37 C 0.92984 0.08958 -0.09680
 O38 O 1.08238 -0.07185 -0.09800
 O39 O 1.03869 -0.11286 -0.03787
 C40 C 1.06954 -0.10799 -0.07778
 Zr41 Zr 1.06210 -0.01021 -0.07769
 O42 O 1.05378 -0.01279 -0.16540
 O43 O 1.13679 -0.01768 -0.08815
 Zr44 Zr 0.94285 -0.00578 -0.07464
 O45 O 0.94548 -0.00885 -0.16275
 O46 O 0.86698 -0.00730 -0.07667
 Zr47 Zr 1.00099 -0.06441 0.00342
 Zr48 Zr 1.00799 0.06153 -0.01596
 O49 O 1.00457 0.02842 -0.09213
 O50 O 1.00000 -0.04710 -0.08123
 O51 O 1.07597 0.03338 -0.01377
 O52 O 0.93347 -0.03573 0.00091
 O53 O 1.07136 -0.03987 -0.00226
 O54 O 0.93707 0.03776 -0.00985
 H55 H 1.00954 0.06481 0.09777
 H56 H 0.90412 -0.05348 0.00447
 H57 H 1.00526 0.04531 -0.12662
 H58 H 1.09876 -0.05928 0.00064
 H59 H 0.85529 -0.01140 0.05026
 H60 H 0.85606 0.00883 -0.04365
 H61 H 0.95686 -0.03720 -0.17349
 H62 H 1.04164 -0.04134 -0.17560
 H63 H 1.15181 -0.00984 -0.05216
 H64 H 1.15474 0.01999 0.03574
 H65 H 1.04313 0.00181 0.16621
 H66 H 0.92215 0.01790 0.16751
 O67 O 1.08943 0.44386 0.60250
 O68 O 1.04399 0.39706 0.55045
 C69 C 1.07771 0.40593 0.58590
 O70 O 0.90477 0.55171 0.60936
 O71 O 0.94832 0.60378 0.56587
 C72 C 0.91263 0.59071 0.59643
 O73 O 0.92051 0.43649 0.61193
 O74 O 0.96218 0.39333 0.55239
 C75 C 0.93190 0.39969 0.59258
 O76 O 1.09171 0.56128 0.60265
 O77 O 1.03911 0.60801 0.56472
 C78 C 1.07718 0.59920 0.59356
 Zr79 Zr 1.05992 0.50279 0.58088
 O80 O 1.05387 0.50431 0.66883
 O81 O 1.13530 0.50318 0.59042
 Zr82 Zr 0.94065 0.49695 0.58487
 O83 O 0.95072 0.49837 0.67208
 O84 O 0.86574 0.48832 0.59489
 O85 O 1.00223 0.46125 0.59061
 O86 O 0.99871 0.53748 0.59614
 O87 O 1.08196 0.56888 0.42049
 O88 O 1.03379 0.61203 0.47290
 C89 C 1.06799 0.60568 0.43733
 O90 O 0.91286 0.44280 0.41183
 O91 O 0.96142 0.39666 0.45748
 C92 C 0.92738 0.40512 0.42284
 O93 O 0.90552 0.55972 0.42302
 O94 O 0.94923 0.60752 0.47578
 C95 C 0.91598 0.59774 0.43979
 O96 O 1.07975 0.45178 0.40256
 O97 O 1.04236 0.40076 0.45494
 C98 C 1.07050 0.41285 0.41507
 Zr99 Zr 1.05618 0.50805 0.44026
 O100 O 1.05241 0.51640 0.35299
 O101 O 1.13202 0.50715 0.43565
 Zr102 Zr 0.93641 0.50186 0.44392
 O103 O 0.94192 0.50544 0.35632
 O104 O 0.86049 0.50040 0.43930
 Zr105 Zr 1.00092 0.43947 0.50730
 Zr106 Zr 0.99511 0.56576 0.51753
 O107 O 0.99434 0.54253 0.43505
 O108 O 0.99763 0.46743 0.42818
 O109 O 1.06580 0.54296 0.51307
 O110 O 0.93088 0.46270 0.51198
 O111 O 1.06884 0.46947 0.50710
 O112 O 0.92715 0.53568 0.51736
 H113 H 0.99832 0.55680 0.62890
 H114 H 0.90323 0.44270 0.51205
 H115 H 0.99289 0.56282 0.40399
 H116 H 1.09814 0.45236 0.50378
 H117 H 0.85072 0.49815 0.56013
 H118 H 0.84836 0.47997 0.46692
 H119 H 0.90854 0.50501 0.34208
 H120 H 1.03141 0.49363 0.33768
 H121 H 1.14450 0.52705 0.46439
 H122 H 1.14900 0.50129 0.55251
 H123 H 1.04539 0.47538 0.68092
 H124 H 0.91815 0.49666 0.68853
 O125 O 0.41556 -0.06008 0.38762
 O126 O 0.46096 -0.10627 0.43768
 C127 C 0.42765 -0.09790 0.40145
 O128 O 0.58624 0.06204 0.38922
 O129 O 0.54269 0.10746 0.44383
 C130 C 0.57502 0.09965 0.40604
 O131 O 0.58604 -0.05603 0.38327
 O132 O 0.54342 -0.10446 0.43479
 C133 C 0.57440 -0.09457 0.39661
 O134 O 0.41020 0.05777 0.39824
 O135 O 0.45686 0.10588 0.44655
 C136 C 0.42212 0.09629 0.41262
 Zr137 Zr 0.44028 -0.00110 0.41940
 O138 O 0.44296 0.00347 0.33148
 O139 O 0.36431 -0.00235 0.41591
 Zr140 Zr 0.56030 0.00228 0.41534
 O141 O 0.55410 -0.00048 0.32733
 O142 O 0.63615 0.00245 0.41031
 O143 O 0.50083 -0.03756 0.40587
 O144 O 0.49919 0.03814 0.40854
 O145 O 0.41068 0.05385 0.58491
 O146 O 0.45469 0.10387 0.53779
 C147 C 0.42000 0.09258 0.57127
 O148 O 0.59317 -0.05499 0.58206
 O149 O 0.54858 -0.10441 0.53302
 C150 C 0.58292 -0.09357 0.56754
 O151 O 0.59220 0.06189 0.58051
 O152 O 0.54145 0.10757 0.53738
 C153 C 0.57717 0.09957 0.57012
 O154 O 0.42376 -0.06247 0.59121
 O155 O 0.46555 -0.10804 0.53518
 C156 C 0.43575 -0.10020 0.57545
 Zr157 Zr 0.44394 -0.00264 0.56021
 O158 O 0.45248 0.00038 0.64762
 O159 O 0.36860 -0.00992 0.56732
 Zr160 Zr 0.56364 0.00225 0.55628
 O161 O 0.55885 0.00489 0.64433
 O162 O 0.63933 0.00457 0.56261
 Zr163 Zr 0.50365 -0.06359 0.48631
 Zr164 Zr 0.50031 0.06371 0.48986
 O165 O 0.50271 0.03724 0.56960
 O166 O 0.50529 -0.03855 0.56804
 O167 O 0.43155 0.03496 0.49118
 O168 O 0.57189 -0.03403 0.48456
 O169 O 0.43405 -0.03894 0.48922
 O170 O 0.57063 0.04004 0.48640
 H171 H 0.49768 0.05804 0.37712
 H172 H 0.60103 -0.05143 0.48236
 H173 H 0.50226 0.05671 0.60216
 H174 H 0.40634 -0.05884 0.49052
 H175 H 0.64845 0.02322 0.43809
 H176 H 0.65222 -0.00321 0.52565
 H177 H 0.54579 -0.02256 0.65711
 H178 H 0.41965 -0.00102 0.66342
 H179 H 0.35451 0.00372 0.53439
 H180 H 0.35228 -0.02255 0.44387
 H181 H 0.46171 -0.02055 0.31708
 H182 H 0.54473 0.02751 0.31359
 O183 O 0.57337 0.56069 0.11539
 O184 O 0.62387 0.52621 0.05509
 C185 C 0.61550 0.55138 0.09744
 O186 O 0.43049 0.41315 0.08824
 O187 O 0.37766 0.46249 0.05713
 C188 C 0.38773 0.42764 0.08266
 O189 O 0.56130 0.41137 0.08821
 O190 O 0.61807 0.44911 0.03929
 C191 C 0.60463 0.41760 0.07047
 O192 O 0.44516 0.57473 0.11235
 O193 O 0.38439 0.54315 0.06178
 C194 C 0.40092 0.57174 0.09663
 Zr195 Zr 0.50604 0.54388 0.08411
 O196 O 0.50470 0.52906 0.16970
 O197 O 0.51626 0.60862 0.10334
 Zr198 Zr 0.49687 0.44097 0.06921
 O199 O 0.49565 0.44223 0.15742
 O200 O 0.49362 0.37444 0.07286
 O201 O 0.54618 0.48930 0.08484
 O202 O 0.45824 0.49402 0.08943
 O203 O 0.43508 0.58501 -0.07232
 O204 O 0.37869 0.54383 -0.02769
 C205 C 0.39116 0.57583 -0.05824
 O206 O 0.55425 0.42916 -0.10897
 O207 O 0.61416 0.45897 -0.05478
 C208 C 0.59885 0.43488 -0.09559
 O209 O 0.42340 0.42807 -0.09147
 O210 O 0.37339 0.46708 -0.03574
 C211 C 0.38140 0.43775 -0.07277
 O212 O 0.56675 0.57717 -0.08553
 O213 O 0.62070 0.53327 -0.04395
 C214 C 0.61003 0.56531 -0.07506
 Zr215 Zr 0.50062 0.55514 -0.05551
 O216 O 0.49518 0.55564 -0.14325
 O217 O 0.50908 0.62158 -0.05143
 Zr218 Zr 0.49181 0.45166 -0.07071
 O219 O 0.48263 0.46343 -0.15673
 O220 O 0.49103 0.38598 -0.08723
 Zr221 Zr 0.57208 0.49439 0.00246
 Zr222 Zr 0.42604 0.50148 0.01103
 O223 O 0.45279 0.50608 -0.07069
 O224 O 0.53977 0.50222 -0.07629
 O225 O 0.46222 0.56021 0.01779
 O226 O 0.53478 0.43613 -0.00466
 O227 O 0.54560 0.55567 0.01310
 O228 O 0.45163 0.43966 0.00053
 H229 H 0.43664 0.49333 0.12225
 H230 H 0.55205 0.40945 -0.01100
 H231 H 0.42927 0.50902 -0.10132
 H232 H 0.56813 0.58007 0.01598
 H233 H 0.49509 0.36391 0.03403
 H234 H 0.47522 0.37225 -0.05516
 H235 H 0.51237 0.47736 -0.17037
 H236 H 0.49547 0.58574 -0.15392
 H237 H 0.48937 0.63176 -0.01991
 H238 H 0.51589 0.62377 0.06762
 H239 H 0.50546 0.55640 0.19006
 H240 H 0.52911 0.44643 0.17049
 C241 C 1.16706 0.20385 0.25123
 C242 C 1.20020 0.22892 0.22080
 C243 C 1.19619 0.22930 0.16213
 C244 C 1.16467 0.20096 0.13490
 C245 C 1.13496 0.17386 0.16672
 C246 C 1.13479 0.17691 0.22455
 C247 C 1.10751 0.14253 0.14051
 C248 C 1.10946 0.13747 0.08288
 C249 C 1.13643 0.16568 0.05046
 C250 C 1.16408 0.19745 0.07648
 H251 H 1.21864 0.24970 0.13714
 H252 H 1.11152 0.15680 0.24931
 H253 H 1.08580 0.12093 0.16510
 H254 H 1.18637 0.21802 0.05123
 H255 H 1.16830 0.20321 0.29629
 H256 H 1.13770 0.16196 0.00558
 C257 C 1.25806 0.68495 0.69785
 C258 C 1.23567 0.72180 0.71806
 C259 C 1.18722 0.72782 0.70143
 C260 C 1.16158 0.69767 0.67032
 C261 C 1.18367 0.65988 0.65448
 C262 C 1.23235 0.65427 0.66702
 C263 C 1.15613 0.62806 0.62795
 C264 C 1.10691 0.63401 0.61687
 C265 C 1.08617 0.67276 0.63016
 C266 C 1.11320 0.70427 0.65695
 H267 H 1.16707 0.75482 0.71413
 H268 H 1.25021 0.62561 0.65442
 H269 H 1.17275 0.59846 0.61684
 H270 H 1.09590 0.73346 0.66851
 H271 H 1.29502 0.67879 0.70857
 H272 H 1.04857 0.67814 0.62174
 C273 C 0.74703 0.19105 0.68631
 C274 C 0.72139 0.22310 0.71449
 C275 C 0.67149 0.22563 0.70357
 C276 C 0.64846 0.19682 0.66669
 C277 C 0.67500 0.16424 0.64137
 C278 C 0.72430 0.16212 0.65075
 C279 C 0.65167 0.13348 0.60827
 C280 C 0.60202 0.13509 0.59900
 C281 C 0.57608 0.16880 0.62168
 C282 C 0.59901 0.19922 0.65568
 H283 H 0.64984 0.24893 0.72436
 H284 H 0.74532 0.13756 0.63127
 H285 H 0.67201 0.10775 0.59046
 H286 H 0.57792 0.22411 0.67422
 H287 H 0.78522 0.18776 0.69302
 H288 H 0.53770 0.17053 0.61518
 C289 C 0.72468 0.71565 0.14756
 C290 C 0.72451 0.71300 0.20656
 C291 C 0.70448 0.67575 0.22980
 C292 C 0.68938 0.64148 0.19579
 C293 C 0.69006 0.64520 0.13727
 C294 C 0.70681 0.68278 0.11380
 C295 C 0.67251 0.61183 0.10325
 C296 C 0.65402 0.57470 0.12716
 C297 C 0.65640 0.57036 0.18534
 C298 C 0.67391 0.60332 0.21931
 H299 H 0.70409 0.67229 0.27466
 H300 H 0.70768 0.68629 0.06896
 H301 H 0.66917 0.61624 0.05869
 H302 H 0.67350 0.59956 0.26410
 H303 H 0.74039 0.74206 0.12599
 H304 H 0.64068 0.54276 0.20486
 C305 C 0.75718 -0.19154 0.18158
 C306 C 0.78296 -0.22306 0.20963
 C307 C 0.83367 -0.21938 0.21016
 C308 C 0.85747 -0.18657 0.18247
 C309 C 0.83077 -0.15544 0.15523
 C310 C 0.78068 -0.15830 0.15486
 C311 C 0.85473 -0.12208 0.12866
 C312 C 0.90499 -0.12053 0.12743
 C313 C 0.93138 -0.15186 0.15370
 C314 C 0.90779 -0.18434 0.18185
 H315 H 0.85554 -0.24087 0.23318
 H316 H 0.75961 -0.13470 0.13415
 H317 H 0.83447 -0.09818 0.10736
 H318 H 0.92885 -0.20805 0.20235
 H319 H 0.71831 -0.19246 0.18123
 H320 H 0.97026 -0.15106 0.15250
 C321 C 0.80574 0.31386 0.76712
 C322 C 0.78432 0.28227 0.73257
 C323 C 0.79922 0.28007 0.67626
 C324 C 0.83581 0.30684 0.65639
 C325 C 0.85621 0.33791 0.69205
 C326 C 0.84075 0.34136 0.74708
 C327 C 0.89084 0.36601 0.67175
 C328 C 0.90539 0.36380 0.61600
 C329 C 0.88702 0.33161 0.58116
 C330 C 0.85222 0.30334 0.60121
 H331 H 0.78329 0.25773 0.64732
 H332 H 0.85617 0.36503 0.77494
 H333 H 0.90502 0.39092 0.69870
 H334 H 0.83727 0.27952 0.57326
 H335 H 0.79632 0.31645 0.81076
 H336 H 0.89734 0.32996 0.53771
 C337 C 0.31314 -0.18020 0.75991
 C338 C 0.30035 -0.21901 0.73323
 C339 C 0.32269 -0.22798 0.68143
 C340 C 0.35462 -0.19845 0.65683
 C341 C 0.36370 -0.15926 0.68352
 C342 C 0.34359 -0.15086 0.73537
 C343 C 0.39196 -0.12836 0.65761
 C344 C 0.41227 -0.13580 0.60507
 C345 C 0.40646 -0.17599 0.58041
 C346 C 0.37725 -0.20688 0.60563
 H347 H 0.31521 -0.25717 0.65943
 H348 H 0.35094 -0.12123 0.75689
 H349 H 0.39723 -0.09796 0.67804
 H350 H 0.37182 -0.23703 0.58475
 H351 H 0.29858 -0.17198 0.80035
 H352 H 0.42325 -0.18315 0.54094
 C353 C 0.30304 0.26303 0.17676
 C354 C 0.27246 0.28110 0.21711
 C355 C 0.27208 0.32585 0.22104
 C356 C 0.29625 0.35113 0.18226
 C357 C 0.32579 0.33219 0.14189
 C358 C 0.32954 0.28818 0.13999
 C359 C 0.35255 0.35775 0.10566
 C360 C 0.34979 0.40202 0.10899
 C361 C 0.31802 0.42053 0.14685
 C362 C 0.29170 0.39525 0.18364
 H363 H 0.25318 0.34203 0.25385
 H364 H 0.35253 0.27312 0.10956
 H365 H 0.37740 0.34335 0.07663
 H366 H 0.26867 0.41026 0.21407
 H367 H 0.30555 0.22911 0.17274
 H368 H 0.31612 0.45454 0.15061
 C369 C 0.75212 0.18351 -0.18157
 C370 C 0.77658 0.21871 -0.20444
 C371 C 0.82719 0.22065 -0.19867
 C372 C 0.85217 0.18887 -0.17204
 C373 C 0.82712 0.15342 -0.15130
 C374 C 0.77702 0.15129 -0.15552
 C375 C 0.85279 0.12056 -0.12737
 C376 C 0.90303 0.12345 -0.12295
 C377 C 0.92744 0.15944 -0.14211
 C378 C 0.90226 0.19175 -0.16702
 H379 H 0.84856 0.24574 -0.21638
 H380 H 0.75713 0.12440 -0.13949
 H381 H 0.83377 0.09307 -0.11161
 H382 H 0.92197 0.21894 -0.18251
 H383 H 0.71348 0.18049 -0.18544
 H384 H 0.96614 0.16222 -0.13867
 C385 C 0.81804 0.68664 0.24590
 C386 C 0.78969 0.71512 0.27696
 C387 C 0.79343 0.71426 0.33585
 C388 C 0.82611 0.68765 0.36212
 C389 C 0.85356 0.65954 0.32973
 C390 C 0.84923 0.65923 0.27182
 C391 C 0.88417 0.63138 0.35583
 C392 C 0.88860 0.63139 0.41393
 C393 C 0.86299 0.66048 0.44615
 C394 C 0.83150 0.68823 0.42040
 H395 H 0.77099 0.73355 0.36203
 H396 H 0.87006 0.63779 0.24643
 H397 H 0.90410 0.60884 0.33101
 H398 H 0.81098 0.70975 0.44601
 H399 H 0.81605 0.68584 0.20085
 H400 H 0.86580 0.66047 0.49115
 C401 C 0.27081 0.17511 0.26071
 C402 C 0.27363 0.21774 0.27967
 C403 C 0.31053 0.22821 0.31821
 C404 C 0.33919 0.19644 0.34151
 C405 C 0.33234 0.15403 0.32436
 C406 C 0.29875 0.14395 0.28344
 C407 C 0.35949 0.12199 0.34764
 C408 C 0.39424 0.13118 0.38834
 C409 C 0.40165 0.17355 0.40507
 C410 C 0.37437 0.20588 0.38186
 H411 H 0.31611 0.26083 0.33084
 H412 H 0.29415 0.11174 0.26853
 H413 H 0.35340 0.08968 0.33378
 H414 H 0.38058 0.23814 0.39569
 H415 H 0.24731 0.16476 0.22739
 H416 H 0.42830 0.18172 0.43634
 C417 C 0.32896 0.73979 -0.16531
 C418 C 0.28659 0.72508 -0.19233
 C419 C 0.26827 0.68487 -0.17607
 C420 C 0.29474 0.65867 -0.14059
 C421 C 0.33858 0.67368 -0.11818
 C422 C 0.35430 0.71464 -0.12902
 C423 C 0.36752 0.64701 -0.08733
 C424 C 0.35438 0.60461 -0.07962
 C425 C 0.30940 0.59009 -0.09890
 C426 C 0.27959 0.61708 -0.12902
 H427 H 0.23445 0.67316 -0.19279
 H428 H 0.38748 0.72683 -0.11105
 H429 H 0.40183 0.65872 -0.07177
 H430 H 0.24587 0.60486 -0.14544
 H431 H 0.34457 0.77039 -0.17236
 H432 H 0.29853 0.55745 -0.09337
 C433 C 1.20740 -0.18452 -0.24363
 C434 C 1.22324 -0.21932 -0.21227
 C435 C 1.20008 -0.22769 -0.16093
 C436 C 1.16310 -0.20151 -0.14163
 C437 C 1.14865 -0.16729 -0.17440
 C438 C 1.17067 -0.15923 -0.22519
 C439 C 1.11363 -0.14015 -0.15512
 C440 C 1.09445 -0.14451 -0.10162
 C441 C 1.10672 -0.17957 -0.06966
 C442 C 1.14069 -0.20822 -0.08983
 H443 H 1.21028 -0.25425 -0.13595
 H444 H 1.15965 -0.13313 -0.25075
 H445 H 1.10364 -0.11359 -0.18056
 H446 H 1.15089 -0.23442 -0.06405
 H447 H 1.22225 -0.17797 -0.28439
 H448 H 1.09214 -0.18351 -0.02827
 C449 C 1.21450 0.27354 0.35579
 C450 C 1.21199 0.27832 0.29742
 C451 C 1.17673 0.30545 0.27627
 C452 C 1.14795 0.32939 0.31113
 C453 C 1.15220 0.32571 0.36938
 C454 C 1.18515 0.29729 0.39132
 C455 C 1.12414 0.35126 0.40420
 C456 C 1.09362 0.38102 0.38063
 C457 C 1.08920 0.38380 0.32275
 C458 C 1.11573 0.35775 0.28813
 H459 H 1.17264 0.30858 0.23156
 H460 H 1.18827 0.29342 0.43595
 H461 H 1.12783 0.34967 0.44909
 H462 H 1.11221 0.36074 0.24340
 H463 H 1.23788 0.25106 0.37470
 H464 H 1.06582 0.40685 0.30438
 C465 C 0.74833 -0.19715 0.31708
 C466 C 0.72399 -0.22861 0.28500
 C467 C 0.67314 -0.22818 0.28485
 C468 C 0.64807 -0.19627 0.31402
 C469 C 0.67392 -0.16421 0.34312
 C470 C 0.72387 -0.16559 0.34537
 C471 C 0.64957 -0.13083 0.36903
 C472 C 0.59934 -0.12949 0.36800
 C473 C 0.57349 -0.16225 0.34115
 C474 C 0.59763 -0.19504 0.31369
 H475 H 0.65298 -0.25125 0.26050
 H476 H 0.74427 -0.14156 0.36794
 H477 H 0.66964 -0.10606 0.39067
 H478 H 0.57688 -0.21934 0.29212
 H479 H 0.78720 -0.19593 0.31804
 H480 H 0.53462 -0.16197 0.34050
 C481 C 0.71060 0.27357 -0.14566
 C482 C 0.71395 0.27767 -0.20428
 C483 C 0.69297 0.31362 -0.22824
 C484 C 0.67306 0.34558 -0.19496
 C485 C 0.67164 0.34122 -0.13654
 C486 C 0.68938 0.30464 -0.11257
 C487 C 0.65176 0.37320 -0.10316
 C488 C 0.63252 0.40915 -0.12773
 C489 C 0.63455 0.41348 -0.18579
 C490 C 0.65516 0.38221 -0.21913
 H491 H 0.69533 0.31803 -0.27288
 H492 H 0.68827 0.30061 -0.06781
 H493 H 0.64851 0.36898 -0.05853
 H494 H 0.65591 0.38616 -0.26389
 H495 H 0.72635 0.24767 -0.12390
 H496 H 0.61826 0.44031 -0.20546
 C497 C 1.18095 0.24794 -0.19584
 C498 C 1.22134 0.22930 -0.22164
 C499 C 1.22892 0.18622 -0.21175
 C500 C 1.19491 0.16182 -0.18267
 C501 C 1.15324 0.18048 -0.16028
 C502 C 1.14716 0.22388 -0.16635
 C503 C 1.11865 0.15536 -0.13228
 C504 C 1.12533 0.11168 -0.12731
 C505 C 1.16777 0.09409 -0.14907
 C506 C 1.20201 0.11875 -0.17612
 H507 H 1.26129 0.17125 -0.22611
 H508 H 1.11611 0.23922 -0.14869
 H509 H 1.08659 0.16956 -0.11536
 H510 H 1.23386 0.10390 -0.19258
 H511 H 1.17493 0.28142 -0.19974
 H512 H 1.17493 0.06079 -0.14531
 C513 C 1.23885 0.69221 0.32555
 C514 C 1.21369 0.72333 0.29523
 C515 C 1.16405 0.72774 0.30810
 C516 C 1.14100 0.70154 0.34687
 C517 C 1.16701 0.66978 0.37346
 C518 C 1.21606 0.66622 0.36387
 C519 C 1.14301 0.64031 0.40660
 C520 C 1.09316 0.64201 0.41330
 C521 C 1.06769 0.67535 0.39035
 C522 C 1.09150 0.70499 0.35711
 H523 H 1.14152 0.74939 0.28641
 H524 H 1.23658 0.64210 0.38430
 H525 H 1.16269 0.61464 0.42487
 H526 H 1.07090 0.72944 0.33751
 H527 H 1.27658 0.68688 0.31763
 H528 H 1.02910 0.67692 0.39521
 C529 C 0.69889 0.19043 0.22788
 C530 C 0.71665 0.22440 0.26120
 C531 C 0.69836 0.22743 0.31643
 C532 C 0.66454 0.19800 0.33707
 C533 C 0.64920 0.16378 0.30330
 C534 C 0.66603 0.16068 0.24852
 C535 C 0.61850 0.13249 0.32545
 C536 C 0.60213 0.13534 0.38089
 C537 C 0.61565 0.17067 0.41331
 C538 C 0.64687 0.20153 0.39179
 H539 H 0.71098 0.25142 0.34513
 H540 H 0.65453 0.13469 0.22180
 H541 H 0.60806 0.10547 0.29990
 H542 H 0.65797 0.22774 0.41836
 H543 H 0.71192 0.18602 0.18575
 H544 H 0.60383 0.17345 0.45616
 C545 C 0.67817 0.73322 -0.17126
 C546 C 0.71537 0.71829 -0.20580
 C547 C 0.73097 0.67633 -0.19735
 C548 C 0.70551 0.64886 -0.16174
 C549 C 0.66614 0.66422 -0.13129
 C550 C 0.65375 0.70662 -0.13492
 C551 C 0.63839 0.63670 -0.09916
 C552 C 0.64776 0.59329 -0.09832
 C553 C 0.68848 0.57818 -0.12595
 C554 C 0.71748 0.60596 -0.15722
 H555 H 0.76243 0.66450 -0.21817
 H556 H 0.62415 0.71900 -0.11081
 H557 H 0.60749 0.64880 -0.07700
 H558 H 0.74783 0.59354 -0.17994
 H559 H 0.66694 0.76569 -0.17379
 H560 H 0.69631 0.54485 -0.12584
 C561 C 0.74770 -0.17574 -0.20065
 C562 C 0.76408 -0.21735 -0.20724
 C563 C 0.80412 -0.22960 -0.17506
 C564 C 0.83175 -0.19958 -0.14540
 C565 C 0.81709 -0.15730 -0.14411
 C566 C 0.77412 -0.14603 -0.16979
 C567 C 0.84626 -0.12656 -0.11864
 C568 C 0.89090 -0.13694 -0.09543
 C569 C 0.90441 -0.17937 -0.09443
 C570 C 0.87489 -0.21058 -0.11918
 H571 H 0.81576 -0.26205 -0.17676
 H572 H 0.76166 -0.11386 -0.16743
 H573 H 0.83460 -0.09410 -0.11843
 H574 H 0.88656 -0.24301 -0.11950
 H575 H 0.71482 -0.16555 -0.21974
 H576 H 0.93834 -0.18817 -0.07626
 C577 C 0.75728 0.31336 0.31004
 C578 C 0.78272 0.27914 0.28668
 C579 C 0.83151 0.27497 0.30208
 C580 C 0.85444 0.30507 0.33624
 C581 C 0.82878 0.34018 0.35591
 C582 C 0.77992 0.34336 0.34412
 C583 C 0.85287 0.37241 0.38514
 C584 C 0.90226 0.36979 0.39535
 C585 C 0.92718 0.33380 0.37849
 C586 C 0.90345 0.30169 0.34874
 H587 H 0.85342 0.25018 0.28535
 H588 H 0.75963 0.36999 0.35929
 H589 H 0.83339 0.39988 0.39927
 H590 H 0.92365 0.27474 0.33435
 H591 H 0.72007 0.31815 0.29896
 H592 H 0.96526 0.33122 0.38660
 C593 C 0.29480 -0.19294 0.23188
 C594 C 0.27562 -0.22422 0.26829
 C595 C 0.29360 -0.22287 0.32396
 C596 C 0.32957 -0.19394 0.34107
 C597 C 0.34658 -0.16288 0.30420
 C598 C 0.32889 -0.16271 0.24966
 C599 C 0.38024 -0.13214 0.32303
 C600 C 0.39829 -0.13323 0.37787
 C601 C 0.38280 -0.16570 0.41305
 C602 C 0.34843 -0.19541 0.39522
 H603 H 0.28009 -0.24350 0.35573
 H604 H 0.34171 -0.13934 0.22038
 H605 H 0.39184 -0.10710 0.29547
 H606 H 0.33612 -0.21924 0.42416
 H607 H 0.28341 -0.19198 0.18879
 H608 H 0.39537 -0.16669 0.45549
 C609 C 0.31126 0.27039 -0.16985
 C610 C 0.27906 0.28693 -0.20900
 C611 C 0.26420 0.32922 -0.20087
 C612 C 0.28704 0.35581 -0.16169
 C613 C 0.32298 0.33941 -0.12723
 C614 C 0.33348 0.29640 -0.13001
 C615 C 0.34968 0.36667 -0.09272
 C616 C 0.34231 0.41040 -0.09368
 C617 C 0.30434 0.42637 -0.12481
 C618 C 0.27639 0.39904 -0.15830
 H619 H 0.23558 0.34211 -0.22550
 H620 H 0.36009 0.28315 -0.10265
 H621 H 0.37904 0.35435 -0.06841
 H622 H 0.24859 0.41208 -0.18421
 H623 H 0.32066 0.23740 -0.17169
 H624 H 0.29859 0.46004 -0.12636
 C625 C 1.19195 -0.24374 0.15651
 C626 C 1.20360 -0.23221 0.21257
 C627 C 1.18276 -0.19468 0.23358
 C628 C 1.15140 -0.17088 0.20136
 C629 C 1.14024 -0.18370 0.14633
 C630 C 1.16053 -0.22023 0.12457
 C631 C 1.11077 -0.15871 0.11305
 C632 C 1.09370 -0.12034 0.13385
 C633 C 1.10376 -0.10849 0.18930
 C634 C 1.13201 -0.13368 0.22291
 H635 H 1.19117 -0.18407 0.27562
 H636 H 1.15301 -0.23018 0.08208
 H637 H 1.10370 -0.16770 0.07015
 H638 H 1.13997 -0.12336 0.26513
 H639 H 1.20737 -0.27045 0.13538
 H640 H 1.09080 -0.07897 0.20616
 C641 C 1.25651 0.31709 0.67460
 C642 C 1.23182 0.28306 0.69981
 C643 C 1.18379 0.27501 0.68354
 C644 C 1.15834 0.30528 0.65410
 C645 C 1.18200 0.34264 0.63692
 C646 C 1.23163 0.34712 0.64449
 C647 C 1.15543 0.37532 0.61399
 C648 C 1.10560 0.37077 0.60732
 C649 C 1.08279 0.33247 0.62086
 C650 C 1.10897 0.29994 0.64437
 H651 H 1.16506 0.24663 0.69648
 H652 H 1.25075 0.37481 0.62962
 H653 H 1.17332 0.40446 0.60201
 H654 H 1.09033 0.27126 0.65667
 H655 H 1.29431 0.32261 0.68287
 H656 H 1.04443 0.32829 0.61506
 C657 C 0.65404 -0.24426 0.70796
 C658 C 0.70226 -0.22985 0.71331
 C659 C 0.71714 -0.19640 0.67866
 C660 C 0.68412 -0.17449 0.64605
 C661 C 0.63512 -0.18680 0.64544
 C662 C 0.62087 -0.22262 0.67531
 C663 C 0.60137 -0.16231 0.61639
 C664 C 0.61655 -0.12531 0.58918
 C665 C 0.66582 -0.11494 0.58804
 C666 C 0.69921 -0.13928 0.61580
 H667 H 0.75435 -0.18590 0.67953
 H668 H 0.58386 -0.23358 0.67415
 H669 H 0.56348 -0.17055 0.61768
 H670 H 0.73668 -0.12958 0.61533
 H671 H 0.64124 -0.27209 0.72924
 H672 H 0.67843 -0.08685 0.56688
 C673 C 0.76893 0.32307 0.18519
 C674 C 0.74147 0.28568 0.19512
 C675 C 0.69822 0.28058 0.16538
 C676 C 0.68055 0.31318 0.13259
 C677 C 0.70503 0.35257 0.13028
 C678 C 0.75026 0.35653 0.15501
 C679 C 0.68274 0.38743 0.10548
 C680 C 0.63672 0.38227 0.08246
 C681 C 0.61611 0.34148 0.07861
 C682 C 0.63732 0.30746 0.10411
 H683 H 0.67682 0.25214 0.16853
 H684 H 0.77078 0.38573 0.15206
 H685 H 0.69938 0.41853 0.10766
 H686 H 0.61878 0.27715 0.10366
 H687 H 0.80413 0.32748 0.20362
 H688 H 0.58145 0.33642 0.05901
 C689 C 0.81081 0.18752 0.24154
 C690 C 0.79620 0.22314 0.21143
 C691 C 0.81624 0.22946 0.15770
 C692 C 0.84929 0.20090 0.13512
 C693 C 0.86269 0.16562 0.16640
 C694 C 0.84369 0.15940 0.21954
 C695 C 0.89366 0.13605 0.14342
 C696 C 0.91068 0.14010 0.08863
 C697 C 0.89902 0.17600 0.05812
 C698 C 0.86853 0.20634 0.08136
 H699 H 0.80624 0.25603 0.13268
 H700 H 0.85378 0.13239 0.24395
 H701 H 0.90304 0.10870 0.16766
 H702 H 0.85884 0.23332 0.05670
 H703 H 0.79690 0.18174 0.28293
 H704 H 0.91157 0.17957 0.01572
 C705 C 0.82307 0.74808 0.70511
 C706 C 0.77704 0.72966 0.71424
 C707 C 0.76514 0.69284 0.68382
 C708 C 0.80088 0.67005 0.65635
 C709 C 0.84848 0.68625 0.65402
 C710 C 0.85850 0.72634 0.67608
 C711 C 0.88534 0.66146 0.63157
 C712 C 0.87500 0.62011 0.61372
 C713 C 0.82712 0.60525 0.61365
 C714 C 0.79034 0.63010 0.63422
 H715 H 0.72889 0.67998 0.68593
 H716 H 0.89413 0.74026 0.67266
 H717 H 0.92207 0.67326 0.63102
 H718 H 0.75404 0.61732 0.63508
 H719 H 0.83257 0.77900 0.72141
 H720 H 0.81815 0.57382 0.59841
 C721 C 0.34572 0.24377 0.71348
 C722 C 0.29635 0.23220 0.71267
 C723 C 0.28240 0.19911 0.67587
 C724 C 0.31665 0.17522 0.64665
 C725 C 0.36606 0.18556 0.65115
 C726 C 0.37995 0.22052 0.68386
 C727 C 0.40052 0.16033 0.62366
 C728 C 0.38578 0.12419 0.59320
 C729 C 0.33640 0.11503 0.58823
 C730 C 0.30225 0.14041 0.61403
 H731 H 0.24462 0.19108 0.67144
 H732 H 0.41745 0.22986 0.68681
 H733 H 0.43848 0.16752 0.62820
 H734 H 0.26456 0.13200 0.60986
 H735 H 0.35842 0.27122 0.73643
 H736 H 0.32419 0.08742 0.56494
 C737 C 0.23330 0.67233 0.20161
 C738 C 0.26028 0.71003 0.21392
 C739 C 0.30777 0.71191 0.19339
 C740 C 0.32764 0.67790 0.16442
 C741 C 0.30128 0.63982 0.15641
 C742 C 0.25370 0.63775 0.17443
 C743 C 0.32355 0.60449 0.13172
 C744 C 0.37177 0.60771 0.11521
 C745 C 0.39581 0.64707 0.11943
 C746 C 0.37434 0.68150 0.14425
 H747 H 0.33061 0.73921 0.20013
 H748 H 0.23225 0.60933 0.16788
 H749 H 0.30440 0.57460 0.12766
 H750 H 0.39474 0.71074 0.14861
 H751 H 0.19610 0.66935 0.21432
 H752 H 0.43235 0.65106 0.10482
   
