data_POSCAR
  _audit_creation_date              2014-09-24
  _audit_creation_method            'ToBaCCo'
  _symmetry_space_group_name_H-M    'P1'
  _symmetry_Int_Tables_number       1
  _symmetry_cell_setting            triclinic
  loop_
  _symmetry_equiv_pos_as_xyz
 x,y,z
_cell_length_a 19.1591
_cell_length_b 19.1377
_cell_length_c 19.1822
_cell_angle_alpha 93.265800
_cell_angle_beta 91.026300
_cell_angle_gamma 85.579400
loop_
  _atom_site_label
  _atom_site_type_symbol
  _atom_site_fract_x
  _atom_site_fract_y
  _atom_site_fract_z
C1 C 0.63233 0.34447 0.04518
 C2 C 0.67759 0.39597 0.05697
 C3 C 0.64306 0.45807 0.03638
 N4 N 0.57718 0.44647 0.01519
 C5 C 0.57094 0.37699 0.01950
 C6 C 0.67103 0.52470 0.04137
 C7 C 0.62728 0.58750 0.05376
 C8 C 0.64861 0.64814 0.08849
 C9 C 0.59324 0.69756 0.08700
 C10 C 0.53942 0.66685 0.05056
 N11 N 0.55969 0.59896 0.03220
 C12 C 0.47230 0.70151 0.03933
 C13 C 0.41129 0.66480 0.04265
 C14 C 0.34649 0.69332 0.06594
 C15 C 0.30250 0.64002 0.06135
 C16 C 0.34107 0.58126 0.03318
 N17 N 0.40786 0.59622 0.02331
 C18 C 0.31436 0.51644 0.01207
 C19 C 0.35827 0.45732 -0.01054
 C20 C 0.33626 0.40055 -0.05095
 C21 C 0.39246 0.35160 -0.05620
 C22 C 0.44683 0.37930 -0.01773
 N23 N 0.42602 0.44446 0.00883
 C24 C 0.51148 0.34229 -0.00239
 H25 H 0.64295 0.28976 0.05598
 H26 H 0.72905 0.38872 0.08083
 H27 H 0.45333 0.47449 0.04553
 H28 H 0.69779 0.65596 0.11522
 H29 H 0.59202 0.74969 0.11223
 H30 H 0.33256 0.74599 0.08722
 H31 H 0.24848 0.64455 0.07743
 H32 H 0.39268 0.30079 -0.08403
 H33 H 0.53148 0.56523 0.00022
 H34 H 0.28481 0.39482 -0.07382
 C35 C 0.01106 0.61496 0.67956
 C36 C 0.01120 0.66429 0.63071
 C37 C 0.02141 0.62814 0.56642
 N38 N 0.02610 0.55806 0.57489
 C39 C 0.01855 0.54976 0.64393
 C40 C 0.02959 0.65902 0.50171
 C41 C 0.04274 0.61598 0.43995
 C42 C 0.08459 0.63183 0.38558
 C43 C 0.07962 0.57941 0.33411
 C44 C 0.03530 0.53271 0.35864
 N45 N 0.01444 0.55437 0.42397
 C46 C 0.01047 0.47472 0.31935
 C47 C -0.01277 0.41707 0.35234
 C48 C -0.04946 0.36426 0.32022
 C49 C -0.05652 0.31602 0.36951
 C50 C -0.02277 0.34049 0.42959
 N51 N 0.00333 0.40257 0.41905
 C52 C -0.01133 0.30397 0.49135
 C53 C 0.01019 0.33790 0.55474
 C54 C 0.03516 0.30361 0.61295
 C55 C 0.04501 0.35449 0.66484
 C56 C 0.02640 0.41879 0.63696
 N57 N 0.00517 0.40817 0.56976
 C58 C 0.02293 0.48421 0.67553
 H59 H 0.00701 0.62696 0.73510
 H60 H 0.00554 0.72024 0.64278
 H61 H -0.01921 0.44598 0.53878
 H62 H 0.11548 0.67665 0.38327
 H63 H 0.10551 0.57625 0.28423
 H64 H -0.06916 0.36087 0.26700
 H65 H -0.08313 0.26828 0.36169
 H66 H 0.06284 0.34470 0.71746
 H67 H -0.02358 0.53283 0.45259
 H68 H 0.04460 0.24764 0.61804
 C69 C 0.33967 -0.05597 0.62388
 C70 C 0.39349 -0.05904 0.67218
 C71 C 0.44698 -0.02357 0.64588
 N72 N 0.42839 -0.00105 0.58224
 C73 C 0.36281 -0.02046 0.56895
 C74 C 0.51088 -0.00944 0.68044
 C75 C 0.57114 0.00269 0.64182
 C76 C 0.63009 0.03278 0.66948
 C77 C 0.67833 0.02997 0.61714
 C78 C 0.64789 -0.00138 0.55836
 N79 N 0.58215 -0.01708 0.57361
 C80 C 0.68179 -0.01773 0.49352
 C81 C 0.64135 -0.02864 0.43179
 C82 C 0.66275 -0.06707 0.37135
 C83 C 0.60872 -0.05945 0.32364
 C84 C 0.55569 -0.01788 0.35703
 N85 N 0.57533 0.00019 0.42323
 C86 C 0.49099 0.00546 0.32680
 C87 C 0.43203 0.02480 0.36836
 C88 C 0.37107 0.06136 0.34620
 C89 C 0.32290 0.05895 0.39822
 C90 C 0.35576 0.02038 0.45015
 N91 N 0.42267 0.00123 0.43225
 C92 C 0.32310 -0.00304 0.50899
 H93 H 0.28983 -0.07832 0.62818
 H94 H 0.39340 -0.08536 0.72062
 H95 H 0.45666 -0.03459 0.45752
 H96 H 0.63784 0.05509 0.72188
 H97 H 0.72972 0.04972 0.62193
 H98 H 0.71148 -0.09863 0.36277
 H99 H 0.60794 -0.08326 0.27112
 H100 H 0.26931 0.08138 0.39700
 H101 H 0.54945 -0.04608 0.54124
 H102 H 0.36165 0.08547 0.29688
 O103 O 0.42427 0.01400 -0.08430
 O104 O 0.45447 0.01944 0.10609
 O105 O 0.42637 0.11329 0.01532
 O106 O 0.44564 -0.07910 0.01045
 O107 O 0.55966 -0.07702 -0.00334
 O108 O 0.53939 0.11590 -0.00420
 O109 O 0.56775 0.02534 0.09027
 O110 O 0.53825 0.01300 -0.09973
 Cu111 Cu 0.42611 0.01685 0.01301
 Cu112 Cu 0.56262 0.01966 -0.00626
 C113 C 0.47647 0.01172 -0.12452
 C114 C 0.51630 0.02306 0.13054
 C115 C 0.47940 0.14741 0.00679
 C116 C 0.50611 -0.11077 0.00480
 O117 O -0.11712 0.55866 1.00712
 O118 O 0.06826 0.59157 0.99261
 O119 O -0.03498 0.57239 0.90443
 O120 O -0.01762 0.57981 1.09581
 O121 O 0.00559 0.46483 1.09280
 O122 O 0.00149 0.45981 0.90010
 O123 O 0.09662 0.47774 0.99619
 O124 O -0.08956 0.44436 0.99654
 Cu125 Cu -0.02780 0.58725 1.00029
 Cu126 Cu 0.00650 0.45012 0.99602
 C127 C -0.13498 0.49600 1.00361
 C128 C 0.11416 0.54011 0.99314
 C129 C -0.01884 0.51523 0.86973
 C130 C -0.00514 0.52343 1.12708
 O131 O 0.00488 -0.12379 0.38700
 O132 O 0.00554 0.06810 0.38518
 O133 O 0.10085 -0.03444 0.39324
 O134 O -0.09236 -0.02000 0.38545
 O135 O -0.09503 -0.01812 0.50051
 O136 O 0.09779 -0.02034 0.50826
 O137 O -0.00371 0.07713 0.50001
 O138 O 0.00823 -0.11657 0.50227
 Cu139 Cu 0.00469 -0.02846 0.37623
 Cu140 Cu 0.00114 -0.01882 0.51432
 C141 C 0.00830 -0.15311 0.44472
 C142 C 0.00101 0.10535 0.44197
 C143 C 0.13216 -0.02815 0.45197
 C144 C -0.12666 -0.01750 0.44174
 C145 C -0.25573 0.53097 1.03782
 C146 C -0.20919 0.48276 1.00792
 H147 H -0.23547 0.58051 1.05404
 H148 H -0.22461 0.43365 0.98422
 C149 C 0.23818 0.50707 1.01387
 C150 C 0.18852 0.55319 0.99029
 H151 H 0.22309 0.45806 1.03259
 H152 H 0.20225 0.60162 0.96944
 C153 C 0.02810 -0.26659 0.50045
 C154 C 0.01196 -0.23041 0.44352
 H155 H 0.03618 -0.23590 0.54848
 H156 H -0.00102 -0.25725 0.39437
 C157 C -0.01989 0.22706 0.49106
 C158 C 0.00367 0.18179 0.43943
 H159 H -0.04159 0.20679 0.53694
 H160 H 0.02710 0.20091 0.39394
 C161 C 0.51743 -0.00731 -0.24562
 C162 C 0.46459 0.00817 -0.20072
 H163 H 0.56955 -0.01500 -0.22321
 H164 H 0.41183 0.02148 -0.21908
 C165 C 0.48094 0.00504 0.24983
 C166 C 0.52909 0.02390 0.20637
 H167 H 0.43062 -0.00873 0.22876
 H168 H 0.57923 0.03909 0.22644
 C169 C 0.46451 -0.22488 0.03178
 C170 C 0.51545 -0.18733 0.00937
 H171 H 0.41348 -0.19739 0.03873
 H172 H 0.56595 -0.21237 -0.00553
 C173 C 0.51894 0.26431 -0.01088
 C174 C 0.47036 0.22438 0.01116
 H175 H 0.56743 0.23939 -0.03179
 H176 H 0.42249 0.24872 0.03391
 C177 C -0.24368 -0.02223 0.49333
 C178 C -0.20398 -0.01331 0.43777
 H179 H -0.21638 -0.03002 0.54254
 H180 H -0.22764 0.00008 0.38826
 C181 C 0.24566 -0.00712 0.50972
 C182 C 0.20912 -0.02901 0.45337
 H183 H 0.21858 0.00726 0.55815
 H184 H 0.23617 -0.04553 0.40542
 C185 C 0.01224 0.47123 1.24154
 C186 C -0.00440 0.52721 1.20399
 H187 H 0.02419 0.42047 1.21469
 H188 H -0.01933 0.57758 1.23035
 C189 C 0.02642 0.48275 0.75297
 C190 C -0.02418 0.51407 0.79342
 H191 H 0.07057 0.45384 0.77685
 H192 H -0.06831 0.54360 0.77021
   
