data_POSCAR
  _audit_creation_date              2014-09-24
  _audit_creation_method            'ToBaCCo'
  _symmetry_space_group_name_H-M    'P1'
  _symmetry_Int_Tables_number       1
  _symmetry_cell_setting            triclinic
  loop_
  _symmetry_equiv_pos_as_xyz
 x,y,z
_cell_length_a 38.9030
_cell_length_b 38.8272
_cell_length_c 34.9316
_cell_angle_alpha 90.212600
_cell_angle_beta 90.142500
_cell_angle_gamma 90.879600
loop_
  _atom_site_label
  _atom_site_type_symbol
  _atom_site_fract_x
  _atom_site_fract_y
  _atom_site_fract_z
O1 O 0.04340 0.28895 -0.02929
 O2 O -0.01564 0.29865 0.05144
 O3 O 0.04955 0.28570 0.04508
 O4 O -0.02218 0.29890 -0.02302
 O5 O -0.03115 0.24265 -0.02529
 O6 O 0.03716 0.23000 0.04560
 O7 O -0.02830 0.24308 0.04845
 O8 O 0.03453 0.23266 -0.02941
 Cu9 Cu 0.01493 0.29866 0.01117
 Cu10 Cu 0.00220 0.23143 0.00983
 C11 C 0.04906 0.25935 -0.04322
 C12 C -0.03259 0.27268 0.06328
 C13 C 0.05506 0.25548 0.05739
 C14 C -0.03870 0.27282 -0.03596
 O15 O 0.46353 0.77475 0.53555
 O16 O 0.52674 0.78024 0.45693
 O17 O 0.45996 0.77924 0.46154
 O18 O 0.53056 0.77885 0.53137
 O19 O 0.53286 0.72217 0.52750
 O20 O 0.46005 0.72242 0.45917
 O21 O 0.52694 0.72344 0.45329
 O22 O 0.46633 0.71798 0.53357
 Cu23 Cu 0.49510 0.78395 0.49669
 Cu24 Cu 0.49660 0.71582 0.49304
 C25 C 0.45437 0.74528 0.54803
 C26 C 0.53750 0.75263 0.44167
 C27 C 0.44775 0.75102 0.44859
 C28 C 0.54399 0.75061 0.54117
 O29 O 1.02703 0.72097 0.03461
 O30 O 0.95847 0.72367 -0.03789
 O31 O 1.02545 0.71919 -0.04020
 O32 O 0.96036 0.72617 0.03625
 O33 O 0.96651 0.78279 0.03521
 O34 O 1.02987 0.77587 -0.04246
 O35 O 0.96321 0.78039 -0.03972
 O36 O 1.03313 0.77750 0.03142
 Cu37 Cu 0.99237 0.71681 -0.00167
 Cu38 Cu 0.99855 0.78483 -0.00408
 C39 C 1.04200 0.74870 0.04519
 C40 C 0.94897 0.75249 -0.05095
 C41 C 1.03884 0.74637 -0.05435
 C42 C 0.95252 0.75577 0.04885
 O43 O 0.54548 0.19152 0.54719
 O44 O 0.47570 0.18892 0.47503
 O45 O 0.54243 0.19043 0.47279
 O46 O 0.47894 0.18596 0.55002
 O47 O 0.47559 0.24271 0.55040
 O48 O 0.54111 0.24729 0.47409
 O49 O 0.47448 0.24574 0.47597
 O50 O 0.54290 0.24831 0.54814
 Cu51 Cu 0.51072 0.18351 0.51120
 Cu52 Cu 0.50821 0.25171 0.51242
 C53 C 0.55626 0.22056 0.55958
 C54 C 0.46359 0.21709 0.46283
 C55 C 0.55281 0.21942 0.46044
 C56 C 0.46633 0.21340 0.56327
 O57 O 0.72092 -0.03711 0.02520
 O58 O 0.73118 0.03813 -0.03802
 O59 O 0.72328 -0.02835 -0.04873
 O60 O 0.72651 0.02891 0.03539
 O61 O 0.78303 0.02500 0.03721
 O62 O 0.77952 -0.03468 -0.04560
 O63 O 0.78744 0.03159 -0.03725
 O64 O 0.77739 -0.04160 0.02824
 Cu65 Cu 0.71983 0.00092 -0.00691
 Cu66 Cu 0.78751 -0.00535 -0.00409
 C67 C 0.74756 -0.05199 0.03771
 C68 C 0.76114 0.04755 -0.04862
 C69 C 0.75067 -0.04164 -0.06125
 C70 C 0.75523 0.03682 0.05065
 O71 O 0.20346 0.53904 0.46222
 O72 O 0.19734 0.46888 0.53336
 O73 O 0.20060 0.53580 0.53654
 O74 O 0.19647 0.47242 0.45856
 O75 O 0.25285 0.46676 0.46122
 O76 O 0.25731 0.53401 0.53611
 O77 O 0.25400 0.46692 0.53536
 O78 O 0.25987 0.53338 0.46132
 Cu79 Cu 0.19378 0.50436 0.49762
 Cu80 Cu 0.26170 0.49999 0.49864
 C81 C 0.23287 0.54768 0.44927
 C82 C 0.22480 0.45615 0.54667
 C83 C 0.22950 0.54605 0.54933
 C84 C 0.22379 0.45854 0.44684
 O85 O 0.29867 0.95838 -0.03411
 O86 O 0.30469 1.03320 0.03097
 O87 O 0.29849 0.96698 0.03964
 O88 O 0.30777 1.02440 -0.04329
 O89 O 0.25165 1.03192 -0.04427
 O90 O 0.24201 0.97105 0.03629
 O91 O 0.24816 1.03761 0.02935
 O92 O 0.24257 0.96532 -0.03825
 Cu93 Cu 0.30807 0.99524 -0.00149
 Cu94 Cu 0.24043 1.00192 -0.00454
 C95 C 0.26947 0.94926 -0.04749
 C96 C 0.27727 1.04793 0.04147
 C97 C 0.26880 0.95894 0.05191
 C98 C 0.28147 1.03842 -0.05761
 O99 O 0.79587 0.53382 0.52964
 O100 O 0.79505 0.45686 0.46693
 O101 O 0.80020 0.52296 0.45607
 O102 O 0.79292 0.46738 0.54063
 O103 O 0.73633 0.46753 0.53582
 O104 O 0.74368 0.52750 0.45438
 O105 O 0.73867 0.46060 0.46144
 O106 O 0.73911 0.53405 0.52823
 Cu107 Cu 0.80169 0.49503 0.49872
 Cu108 Cu 0.73377 0.49757 0.49453
 C109 C 0.76748 0.54677 0.53990
 C110 C 0.76662 0.44593 0.45313
 C111 C 0.77326 0.53518 0.44122
 C112 C 0.76351 0.45766 0.55245
 C113 C 0.25999 0.26067 0.24989
 C114 C 0.28404 0.23558 0.24770
 C115 C 0.28305 0.20940 0.21677
 C116 C 0.31186 0.23221 0.27661
 C117 C 0.25839 0.28496 0.28283
 C118 C 0.23458 0.26557 0.21869
 C119 C 0.25424 0.18769 0.21203
 C120 C 0.25418 0.16193 0.18409
 C121 C 0.28299 0.15714 0.16060
 C122 C 0.31171 0.17935 0.16511
 C123 C 0.31178 0.20503 0.19322
 C124 C 0.31626 0.20073 0.29548
 C125 C 0.34134 0.19755 0.32388
 C126 C 0.36237 0.22580 0.33408
 C127 C 0.35891 0.25696 0.31398
 C128 C 0.33394 0.26006 0.28542
 C129 C 0.25691 0.32052 0.27607
 C130 C 0.25688 0.34381 0.30660
 C131 C 0.25843 0.33192 0.34450
 C132 C 0.25943 0.29640 0.35134
 C133 C 0.25866 0.27306 0.32080
 C134 C 0.24535 0.27533 0.18193
 C135 C 0.22115 0.28114 0.15306
 C136 C 0.18590 0.27659 0.16028
 C137 C 0.17519 0.26693 0.19722
 C138 C 0.19936 0.26176 0.22623
 H139 H 0.23204 0.19035 0.23039
 H140 H 0.23165 0.14536 0.18116
 H141 H 0.33408 0.17737 0.14701
 H142 H 0.33422 0.22165 0.19655
 H143 H 0.29975 0.17880 0.28879
 H144 H 0.34384 0.17315 0.33849
 H145 H 0.33163 0.28426 0.27038
 H146 H 0.25660 0.33031 0.24708
 H147 H 0.25668 0.37112 0.30050
 H148 H 0.26052 0.28674 0.38037
 H149 H 0.25882 0.24572 0.32679
 H150 H 0.27245 0.27888 0.17581
 H151 H 0.22996 0.28892 0.12495
 H152 H 0.14815 0.26413 0.20394
 H153 H 0.19063 0.25465 0.25458
 H154 H 0.37563 0.27886 0.31987
 C155 C 0.74830 0.73110 0.23975
 C156 C 0.72390 0.75573 0.23625
 C157 C 0.72705 0.78307 0.20692
 C158 C 0.69361 0.75740 0.26208
 C159 C 0.74855 0.70644 0.27226
 C160 C 0.77535 0.72730 0.21020
 C161 C 0.75574 0.80536 0.20673
 C162 C 0.75819 0.83176 0.17985
 C163 C 0.73188 0.83667 0.15290
 C164 C 0.70319 0.81405 0.15300
 C165 C 0.70073 0.78769 0.18005
 C166 C 0.68621 0.78828 0.28112
 C167 C 0.65869 0.78995 0.30666
 C168 C 0.63792 0.76060 0.31372
 C169 C 0.64466 0.73011 0.29342
 C170 C 0.67210 0.72854 0.26775
 C171 C 0.75160 0.67100 0.26517
 C172 C 0.74984 0.64743 0.29527
 C173 C 0.74493 0.65894 0.33304
 C174 C 0.74260 0.69437 0.34023
 C175 C 0.74512 0.71797 0.31025
 C176 C 0.76651 0.71690 0.17291
 C177 C 0.79192 0.71343 0.14500
 C178 C 0.82645 0.72110 0.15366
 C179 C 0.83530 0.73131 0.19115
 C180 C 0.80994 0.73402 0.21930
 H181 H 0.77604 0.80252 0.22769
 H182 H 0.78061 0.84866 0.18040
 H183 H 0.68277 0.81617 0.13218
 H184 H 0.67842 0.77065 0.17985
 H185 H 0.70218 0.81101 0.27672
 H186 H 0.65405 0.81433 0.32050
 H187 H 0.67684 0.70466 0.25267
 H188 H 0.75437 0.66147 0.23618
 H189 H 0.75116 0.62019 0.28880
 H190 H 0.73896 0.70379 0.36915
 H191 H 0.74370 0.74522 0.31661
 H192 H 0.73993 0.71132 0.16555
 H193 H 0.78457 0.70521 0.11642
 H194 H 0.86183 0.73660 0.19886
 H195 H 0.81716 0.74184 0.24804
 H196 H 0.62891 0.70723 0.29783
 C197 C 0.74587 0.22159 0.26218
 C198 C 0.76855 0.24846 0.25815
 C199 C 0.79382 0.24957 0.22640
 C200 C 0.76956 0.27767 0.28575
 C201 C 0.71832 0.22239 0.29135
 C202 C 0.74659 0.19096 0.23647
 C203 C 0.82892 0.25413 0.23463
 C204 C 0.85325 0.25209 0.20543
 C205 C 0.84280 0.24535 0.16756
 C206 C 0.80768 0.24185 0.15917
 C207 C 0.78331 0.24472 0.18822
 C208 C 0.77625 0.27215 0.32475
 C209 C 0.77742 0.29989 0.35042
 C210 C 0.77190 0.33365 0.33745
 C211 C 0.76496 0.33897 0.29848
 C212 C 0.76424 0.31130 0.27278
 C213 C 0.69441 0.24907 0.29179
 C214 C 0.66867 0.24983 0.31958
 C215 C 0.66649 0.22384 0.34756
 C216 C 0.69006 0.19680 0.34635
 C217 C 0.71567 0.19602 0.31846
 C218 C 0.71764 0.18253 0.21419
 C219 C 0.71900 0.15626 0.18680
 C220 C 0.74932 0.13735 0.18159
 C221 C 0.77791 0.14518 0.20489
 C222 C 0.77651 0.17152 0.23227
 H223 H 0.83754 0.25804 0.26385
 H224 H 0.88026 0.25443 0.21273
 H225 H 0.79913 0.23682 0.13012
 H226 H 0.75630 0.24209 0.18109
 H227 H 0.78059 0.24636 0.33523
 H228 H 0.78202 0.29478 0.38042
 H229 H 0.75907 0.31602 0.24278
 H230 H 0.69557 0.26919 0.27042
 H231 H 0.65039 0.27047 0.31845
 H232 H 0.68876 0.17623 0.36720
 H233 H 0.73373 0.17505 0.31829
 H234 H 0.69440 0.19737 0.21681
 H235 H 0.69664 0.15199 0.16890
 H236 H 0.80160 0.13120 0.20150
 H237 H 0.79907 0.17745 0.24944
 H238 H 0.76040 0.36468 0.28786
 C239 C 0.24518 0.77383 0.26022
 C240 C 0.21772 0.75159 0.25989
 C241 C 0.19114 0.75178 0.22918
 C242 C 0.21296 0.72576 0.29066
 C243 C 0.27378 0.76978 0.28805
 C244 C 0.24851 0.80250 0.23229
 C245 C 0.15614 0.75035 0.23894
 C246 C 0.13088 0.75042 0.21048
 C247 C 0.14012 0.75252 0.17181
 C248 C 0.17509 0.75312 0.16186
 C249 C 0.20037 0.75222 0.19029
 C250 C 0.20694 0.73623 0.32852
 C251 C 0.20180 0.71169 0.35723
 C252 C 0.20338 0.67642 0.34862
 C253 C 0.20910 0.66603 0.31058
 C254 C 0.21353 0.69055 0.28178
 C255 C 0.29192 0.73885 0.29007
 C256 C 0.31894 0.73532 0.31611
 C257 C 0.32881 0.76281 0.34015
 C258 C 0.31046 0.79379 0.33814
 C259 C 0.28341 0.79726 0.31209
 C260 C 0.27827 0.80562 0.20995
 C261 C 0.28105 0.83127 0.18216
 C262 C 0.25421 0.85445 0.17610
 C263 C 0.22488 0.85215 0.19964
 C264 C 0.22213 0.82642 0.22748
 H265 H 0.14834 0.74950 0.26867
 H266 H 0.10405 0.74949 0.21869
 H267 H 0.18288 0.75362 0.13212
 H268 H 0.22714 0.75184 0.18191
 H269 H 0.20598 0.76336 0.33569
 H270 H 0.19712 0.72021 0.38629
 H271 H 0.21776 0.68211 0.25261
 H272 H 0.28526 0.71751 0.27129
 H273 H 0.33249 0.71118 0.31715
 H274 H 0.31638 0.81522 0.35699
 H275 H 0.26963 0.82128 0.31102
 H276 H 0.29905 0.78763 0.21339
 H277 H 0.30410 0.83263 0.16487
 H278 H 0.20411 0.87016 0.19704
 H279 H 0.19929 0.82496 0.24510
 H280 H 0.20962 0.63898 0.30300
 C281 C 0.76065 0.28140 0.77122
 C282 C 0.73630 0.25583 0.77084
 C283 C 0.70976 0.25233 0.74027
 C284 C 0.73533 0.22920 0.80104
 C285 C 0.78945 0.28117 0.79921
 C286 C 0.76091 0.30955 0.74257
 C287 C 0.67524 0.24647 0.75036
 C288 C 0.65016 0.24143 0.72217
 C289 C 0.65897 0.24262 0.68332
 C290 C 0.69358 0.24803 0.67307
 C291 C 0.71879 0.25246 0.70133
 C292 C 0.72563 0.23760 0.83853
 C293 C 0.72236 0.21177 0.86614
 C294 C 0.72962 0.17746 0.85683
 C295 C 0.73968 0.16924 0.81931
 C296 C 0.74216 0.19490 0.79155
 C297 C 0.81216 0.25349 0.80016
 C298 C 0.83933 0.25327 0.82633
 C299 C 0.84430 0.28082 0.85225
 C300 C 0.82217 0.30902 0.85030
 C301 C 0.79499 0.30922 0.82399
 C302 C 0.79027 0.31523 0.72015
 C303 C 0.79046 0.34027 0.69159
 C304 C 0.76137 0.36069 0.68532
 C305 C 0.73216 0.35525 0.70822
 C306 C 0.73198 0.33008 0.73677
 H307 H 0.66769 0.24577 0.78017
 H308 H 0.62372 0.23698 0.73071
 H309 H 0.70130 0.24799 0.64332
 H310 H 0.74540 0.25552 0.69280
 H311 H 0.71984 0.26396 0.84607
 H312 H 0.71426 0.21854 0.89481
 H313 H 0.74927 0.18804 0.76258
 H314 H 0.80901 0.23216 0.78032
 H315 H 0.85666 0.23177 0.82560
 H316 H 0.82571 0.33078 0.86949
 H317 H 0.77802 0.33107 0.82321
 H318 H 0.81275 0.29946 0.72397
 H319 H 0.81310 0.34264 0.67387
 H320 H 0.70935 0.37043 0.70389
 H321 H 0.70915 0.32629 0.75402
 H322 H 0.74463 0.14285 0.81115
 C323 C 0.23169 0.74201 0.74647
 C324 C 0.25605 0.76745 0.74523
 C325 C 0.28132 0.76979 0.71364
 C326 C 0.25854 0.79445 0.77509
 C327 C 0.20331 0.74240 0.77490
 C328 C 0.23202 0.71313 0.71865
 C329 C 0.31648 0.76659 0.72142
 C330 C 0.34055 0.76960 0.69195
 C331 C 0.32978 0.77649 0.65431
 C332 C 0.29461 0.78037 0.64677
 C333 C 0.27049 0.77669 0.67615
 C334 C 0.26523 0.78578 0.81330
 C335 C 0.26862 0.81159 0.84110
 C336 C 0.26520 0.84641 0.83097
 C337 C 0.25795 0.85487 0.79283
 C338 C 0.25512 0.82913 0.76499
 C339 C 0.18152 0.77077 0.77760
 C340 C 0.15477 0.77100 0.80424
 C341 C 0.14932 0.74280 0.82894
 C342 C 0.17064 0.71408 0.82534
 C343 C 0.19732 0.71384 0.79855
 C344 C 0.20368 0.70717 0.69463
 C345 C 0.20435 0.68083 0.66734
 C346 C 0.23326 0.65980 0.66368
 C347 C 0.26129 0.66522 0.68874
 C348 C 0.26063 0.69171 0.71589
 H349 H 0.32524 0.76166 0.75032
 H350 H 0.36758 0.76732 0.69878
 H351 H 0.28580 0.78598 0.61806
 H352 H 0.24343 0.77970 0.66983
 H353 H 0.26806 0.75909 0.82147
 H354 H 0.27341 0.80426 0.87047
 H355 H 0.24994 0.83619 0.73558
 H356 H 0.18502 0.79262 0.75876
 H357 H 0.13819 0.79308 0.80474
 H358 H 0.16683 0.69184 0.84356
 H359 H 0.21357 0.69151 0.79657
 H360 H 0.18130 0.72334 0.69653
 H361 H 0.18225 0.67707 0.64877
 H362 H 0.28364 0.64907 0.68799
 H363 H 0.28245 0.69554 0.73484
 H364 H 0.25497 0.88151 0.78450
 C365 C 0.25355 0.23406 0.74232
 C366 C 0.22774 0.25752 0.74105
 C367 C 0.22749 0.28613 0.71296
 C368 C 0.19936 0.25727 0.76931
 C369 C 0.25579 0.20841 0.77390
 C370 C 0.28097 0.23363 0.71266
 C371 C 0.25507 0.30974 0.71084
 C372 C 0.25429 0.33691 0.68475
 C373 C 0.22581 0.34094 0.66020
 C374 C 0.19791 0.31776 0.66323
 C375 C 0.19870 0.29065 0.68938
 C376 C 0.19443 0.28641 0.79228
 C377 C 0.16945 0.28613 0.82079
 C378 C 0.14832 0.25681 0.82639
 C379 C 0.15300 0.22779 0.80294
 C380 C 0.17816 0.22808 0.77441
 C381 C 0.25889 0.17321 0.76541
 C382 C 0.25789 0.14871 0.79472
 C383 C 0.25346 0.15911 0.83296
 C384 C 0.25167 0.19431 0.84156
 C385 C 0.25374 0.21878 0.81243
 C386 C 0.27276 0.23420 0.67345
 C387 C 0.29869 0.23749 0.64606
 C388 C 0.33332 0.23882 0.65722
 C389 C 0.34166 0.23662 0.69632
 C390 C 0.31567 0.23409 0.72378
 H391 H 0.27705 0.30727 0.72966
 H392 H 0.27573 0.35495 0.68456
 H393 H 0.17550 0.32048 0.64508
 H394 H 0.17696 0.27296 0.69102
 H395 H 0.21080 0.30903 0.78899
 H396 H 0.16770 0.30857 0.83905
 H397 H 0.18151 0.20540 0.75674
 H398 H 0.26088 0.16462 0.73597
 H399 H 0.25906 0.12164 0.78736
 H400 H 0.24853 0.20285 0.87088
 H401 H 0.25261 0.24583 0.81989
 H402 H 0.24621 0.23297 0.66409
 H403 H 0.29171 0.23895 0.61607
 H404 H 0.36816 0.23810 0.70579
 H405 H 0.32262 0.23362 0.75381
 H406 H 0.13726 0.20483 0.80683
 C407 C 0.74375 0.76664 0.73469
 C408 C 0.76855 0.74232 0.73613
 C409 C 0.76973 0.71343 0.70833
 C410 C 0.79532 0.74288 0.76633
 C411 C 0.74408 0.79652 0.76148
 C412 C 0.71467 0.76384 0.70721
 C413 C 0.76590 0.67947 0.72131
 C414 C 0.76696 0.65194 0.69551
 C415 C 0.77289 0.65781 0.65646
 C416 C 0.77696 0.69190 0.64345
 C417 C 0.77524 0.71952 0.66923
 C418 C 0.78631 0.73947 0.80500
 C419 C 0.81172 0.74014 0.83333
 C420 C 0.84656 0.74424 0.82334
 C421 C 0.85540 0.74795 0.78464
 C422 C 0.83001 0.74682 0.75629
 C423 C 0.77269 0.81892 0.76388
 C424 C 0.77362 0.84563 0.79088
 C425 C 0.74584 0.85046 0.81606
 C426 C 0.71668 0.82887 0.81235
 C427 C 0.71579 0.80219 0.78536
 C428 C 0.70846 0.79073 0.68158
 C429 C 0.68118 0.78838 0.65554
 C430 C 0.65914 0.75921 0.65514
 C431 C 0.66553 0.73233 0.68087
 C432 C 0.69285 0.73471 0.70685
 H433 H 0.76161 0.67434 0.75139
 H434 H 0.76350 0.62594 0.70612
 H435 H 0.78081 0.69726 0.61337
 H436 H 0.77834 0.74561 0.65879
 H437 H 0.75960 0.73634 0.81316
 H438 H 0.80402 0.73803 0.86300
 H439 H 0.83734 0.74952 0.72654
 H440 H 0.79443 0.81553 0.74501
 H441 H 0.79602 0.86245 0.79160
 H442 H 0.69474 0.83222 0.83096
 H443 H 0.69335 0.78538 0.78376
 H444 H 0.72513 0.81334 0.68136
 H445 H 0.67797 0.80919 0.63544
 H446 H 0.64912 0.70955 0.68113
 H447 H 0.69689 0.71389 0.72683
 H448 H 0.88204 0.75133 0.77632
 C449 C 0.27846 0.07727 0.06808
 C450 C 0.30744 0.08791 0.08557
 C451 C 0.30912 0.11662 0.11354
 C452 C 0.28154 0.12908 0.13172
 H453 H 0.33143 0.07544 0.07891
 H454 H 0.33459 0.12624 0.12047
 H455 H 0.25443 0.09008 0.07316
 H456 H 0.25655 0.11729 0.12689
 C457 C 0.76674 0.57665 0.56593
 C458 C 0.79447 0.59651 0.57318
 C459 C 0.79344 0.62683 0.59887
 C460 C 0.77338 0.62799 0.63000
 H461 H 0.81831 0.59170 0.55827
 H462 H 0.81140 0.64775 0.59318
 H463 H 0.74218 0.58311 0.57838
 H464 H 0.75824 0.60544 0.63782
 C465 C 0.74448 0.91839 0.06361
 C466 C 0.71417 0.90714 0.07727
 C467 C 0.71012 0.87796 0.10411
 C468 C 0.73592 0.86525 0.12513
 H469 H 0.69077 0.91941 0.06799
 H470 H 0.68422 0.86812 0.10771
 H471 H 0.76810 0.90581 0.07126
 H472 H 0.76117 0.87717 0.12361
 C473 C 0.22261 0.42856 0.57548
 C474 C 0.25097 0.41355 0.58915
 C475 C 0.25162 0.38571 0.61795
 C476 C 0.22379 0.36928 0.63191
 H477 H 0.27592 0.42219 0.57897
 H478 H 0.27696 0.37792 0.62681
 H479 H 0.19730 0.42091 0.58522
 H480 H 0.19851 0.37545 0.62132
 C481 C 0.94390 0.27724 0.09280
 C482 C 0.92174 0.25252 0.10359
 C483 C 0.89709 0.25875 0.13448
 C484 C 0.86807 0.24012 0.13682
 H485 H 0.92083 0.22790 0.08879
 H486 H 0.90220 0.27944 0.15473
 H487 H 0.94289 0.30233 0.10652
 H488 H 0.86192 0.22142 0.11460
 C489 C 0.42991 0.74214 0.57987
 C490 C 0.40750 0.76671 0.58840
 C491 C 0.38319 0.76207 0.62027
 C492 C 0.35480 0.78090 0.62283
 H493 H 0.40645 0.78987 0.57122
 H494 H 0.38805 0.74217 0.64120
 H495 H 0.42936 0.71820 0.59577
 H496 H 0.34880 0.79884 0.60015
 C497 C 0.06829 0.74701 0.07228
 C498 C 0.08767 0.77448 0.08230
 C499 C 0.11547 0.77254 0.11091
 C500 C 0.11286 0.75313 0.14240
 H501 H 0.08460 0.79886 0.06777
 H502 H 0.13753 0.78955 0.10721
 H503 H 0.07359 0.72215 0.08483
 H504 H 0.08911 0.73915 0.14817
 C505 C 0.58457 0.22197 0.58756
 C506 C 0.60350 0.25074 0.59278
 C507 C 0.63201 0.25356 0.62055
 C508 C 0.63167 0.23734 0.65430
 H509 H 0.59910 0.27293 0.57481
 H510 H 0.65233 0.27204 0.61425
 H511 H 0.59065 0.19870 0.60301
 H512 H 0.60943 0.22183 0.66222
 C513 C 0.76575 0.07536 0.92671
 C514 C 0.74020 0.09608 0.91644
 C515 C 0.74632 0.12388 0.88872
 C516 C 0.72491 0.15032 0.88590
 H517 H 0.71469 0.09274 0.92848
 H518 H 0.76885 0.12282 0.87056
 H519 H 0.79143 0.08052 0.91588
 H520 H 0.70395 0.15268 0.90609
 C521 C 0.23631 0.57396 0.41932
 C522 C 0.21205 0.59703 0.41213
 C523 C 0.21683 0.62217 0.38111
 C524 C 0.19843 0.65090 0.37947
 H525 H 0.18896 0.59770 0.42942
 H526 H 0.23652 0.61755 0.35986
 H527 H 0.26007 0.57480 0.40316
 H528 H 0.18072 0.65679 0.40241
 C529 C 0.26634 0.92161 0.92717
 C530 C 0.29286 0.90176 0.91740
 C531 C 0.28930 0.87311 0.88976
 C532 C 0.26805 0.87437 0.85958
 H533 H 0.31770 0.90544 0.93102
 H534 H 0.30647 0.85163 0.89303
 H535 H 0.24104 0.91594 0.91546
 H536 H 0.25380 0.89761 0.85414
 C537 C 0.76546 0.41610 0.42692
 C538 C 0.79253 0.39576 0.42131
 C539 C 0.79159 0.36545 0.39551
 C540 C 0.77204 0.36363 0.36385
 H541 H 0.81589 0.40024 0.43764
 H542 H 0.80938 0.34504 0.40174
 H543 H 0.74124 0.41028 0.41280
 H544 H 0.75703 0.38568 0.35559
 C545 C 0.07257 0.25587 0.92410
 C546 C 0.08449 0.28371 0.90545
 C547 C 0.10857 0.28338 0.87286
 C548 C 0.12250 0.25513 0.85750
 H549 H 0.07642 0.30902 0.91458
 H550 H 0.11492 0.30845 0.86126
 H551 H 0.07945 0.23015 0.91545
 H552 H 0.11490 0.22982 0.86741
 C553 C 0.56278 0.75376 0.41038
 C554 C 0.57700 0.78325 0.39779
 C555 C 0.60427 0.78492 0.36833
 C556 C 0.60927 0.76027 0.34187
 H557 H 0.57016 0.80734 0.41129
 H558 H 0.62046 0.80772 0.36915
 H559 H 0.57078 0.72929 0.39879
 H560 H 0.59210 0.73809 0.34108
 C561 C 0.92127 0.75385 0.92040
 C562 C 0.90049 0.72670 0.91339
 C563 C 0.87241 0.72714 0.88497
 C564 C 0.87409 0.74545 0.85257
 H565 H 0.90290 0.70355 0.93035
 H566 H 0.85090 0.70968 0.88975
 H567 H 0.91733 0.77798 0.90570
 H568 H 0.89731 0.75995 0.84593
 C569 C 0.43700 0.21644 0.43267
 C570 C 0.42423 0.24573 0.41852
 C571 C 0.39864 0.24807 0.38730
 C572 C 0.38791 0.22167 0.36522
 H573 H 0.43284 0.27016 0.43049
 H574 H 0.38849 0.27347 0.38246
 H575 H 0.42848 0.19157 0.42204
 H576 H 0.39695 0.19594 0.37052
 C577 C 0.74832 0.93437 0.90595
 C578 C 0.77573 0.91773 0.89236
 C579 C 0.77478 0.89233 0.86051
 C580 C 0.74596 0.87758 0.84624
 H581 H 0.80075 0.92293 0.90499
 H582 H 0.79956 0.88423 0.85024
 H583 H 0.72320 0.93044 0.89325
 H584 H 0.72135 0.88379 0.85855
 C585 C 0.22134 0.43311 0.41573
 C586 C 0.24540 0.40954 0.40995
 C587 C 0.24240 0.38523 0.37774
 C588 C 0.26031 0.35618 0.37709
 H589 H 0.26718 0.40791 0.42926
 H590 H 0.22481 0.39093 0.35456
 H591 H 0.19865 0.43326 0.39765
 H592 H 0.27578 0.34933 0.40170
 C593 C 0.28593 0.06116 0.91184
 C594 C 0.26070 0.08096 0.89861
 C595 C 0.26686 0.10524 0.86696
 C596 C 0.24832 0.13379 0.86395
 H597 H 0.23565 0.08054 0.91220
 H598 H 0.28747 0.10041 0.84691
 H599 H 0.31138 0.06378 0.89946
 H600 H 0.22980 0.13975 0.88607
 C601 C 0.77684 0.55839 0.40831
 C602 C 0.75317 0.58170 0.39981
 C603 C 0.75806 0.60520 0.36728
 C604 C 0.74068 0.63454 0.36510
 H605 H 0.73059 0.58423 0.41769
 H606 H 0.77689 0.59897 0.34561
 H607 H 0.80038 0.55744 0.39181
 H608 H 0.72393 0.64174 0.38849
 C609 C 0.06377 0.74344 0.91701
 C610 C 0.07948 0.77119 0.90155
 C611 C 0.10658 0.77047 0.87180
 C612 C 0.12147 0.74198 0.85807
 H613 H 0.07231 0.79670 0.91100
 H614 H 0.11525 0.79549 0.86203
 H615 H 0.07029 0.71778 0.90774
 H616 H 0.11434 0.71705 0.86945
 C617 C 0.57884 0.21995 0.43002
 C618 C 0.59368 0.24913 0.41740
 C619 C 0.62041 0.25023 0.38732
 C620 C 0.63959 0.22309 0.37758
 H621 H 0.58547 0.27364 0.42880
 H622 H 0.62516 0.27506 0.37436
 H623 H 0.58564 0.19531 0.41796
 H624 H 0.63664 0.19923 0.39318
 C625 C 0.93314 0.27765 0.93625
 C626 C 0.91459 0.25069 0.92295
 C627 C 0.88652 0.25229 0.89441
 C628 C 0.87261 0.28125 0.88087
 H629 H 0.92058 0.22506 0.93285
 H630 H 0.87631 0.22756 0.88516
 H631 H 0.92820 0.30354 0.92666
 H632 H 0.88088 0.30604 0.89201
 C633 C 0.41891 0.75131 0.42109
 C634 C 0.40577 0.78100 0.40852
 C635 C 0.37679 0.78424 0.38128
 C636 C 0.35772 0.75795 0.36733
 H637 H 0.41695 0.80514 0.41850
 H638 H 0.37143 0.81025 0.37238
 H639 H 0.40883 0.72672 0.41134
 H640 H 0.36373 0.73176 0.37487
 C641 C 0.26620 0.93513 0.08457
 C642 C 0.23605 0.92307 0.09793
 C643 C 0.23231 0.89824 0.12996
 C644 C 0.25836 0.88057 0.14538
 H645 H 0.21242 0.93180 0.08497
 H646 H 0.20631 0.89347 0.13959
 H647 H 0.29018 0.92755 0.09743
 H648 H 0.28397 0.88371 0.13394
 C649 C 0.76060 0.43444 0.58562
 C650 C 0.78833 0.42518 0.60582
 C651 C 0.78819 0.40078 0.63829
 C652 C 0.75997 0.38653 0.65412
 H653 H 0.81337 0.43529 0.59769
 H654 H 0.81328 0.39480 0.64960
 H655 H 0.73523 0.42483 0.59278
 H656 H 0.73474 0.39413 0.64467
 C657 C 0.75649 0.06014 0.08417
 C658 C 0.72761 0.07086 0.10120
 C659 C 0.72577 0.09530 0.13381
 C660 C 0.75279 0.11100 0.15082
 H661 H 0.70301 0.06162 0.09038
 H662 H 0.70007 0.10046 0.14375
 H663 H 0.78152 0.06835 0.09445
 H664 H 0.77861 0.10468 0.14223
 C665 C 0.22993 0.57224 0.57981
 C666 C 0.25892 0.58752 0.59250
 C667 C 0.26001 0.61454 0.62258
 C668 C 0.23246 0.63235 0.63396
 H669 H 0.28339 0.57966 0.58090
 H670 H 0.28514 0.62056 0.63419
 H671 H 0.20528 0.57877 0.59174
 H672 H 0.20798 0.62787 0.62001
 C673 C 0.92716 0.75927 0.07984
 C674 C 0.90511 0.73391 0.08912
 C675 C 0.87995 0.73838 0.12019
 C676 C 0.85272 0.71713 0.12345
 H677 H 0.90506 0.70991 0.07315
 H678 H 0.88317 0.75990 0.13979
 H679 H 0.92595 0.78379 0.09468
 H680 H 0.84846 0.69729 0.10195
 C681 C 0.44095 0.21056 0.59419
 C682 C 0.41644 0.23376 0.59942
 C683 C 0.39071 0.22888 0.62980
 C684 C 0.36009 0.24388 0.62774
 H685 H 0.41448 0.25557 0.58028
 H686 H 0.39633 0.21158 0.65320
 H687 H 0.44121 0.18759 0.61175
 H688 H 0.35372 0.25884 0.60262
 C689 C 0.08176 0.24930 0.08638
 C690 C 0.10664 0.27219 0.09492
 C691 C 0.13163 0.26486 0.12551
 C692 C 0.16077 0.28326 0.12938
 H693 H 0.10864 0.29623 0.07935
 H694 H 0.12631 0.24359 0.14473
 H695 H 0.08100 0.22474 0.10107
 H696 H 0.16712 0.30282 0.10837
 C697 C 0.57294 0.75057 0.56852
 C698 C 0.58536 0.77985 0.58420
 C699 C 0.61476 0.78235 0.61113
 C700 C 0.62989 0.75546 0.62794
 H701 H 0.57391 0.80410 0.57638
 H702 H 0.62325 0.80825 0.61812
 H703 H 0.58419 0.72600 0.57504
 H704 H 0.61987 0.72968 0.62318
   
