data_POSCAR
  _audit_creation_date              2014-09-24
  _audit_creation_method            'ToBaCCo'
  _symmetry_space_group_name_H-M    'P1'
  _symmetry_Int_Tables_number       1
  _symmetry_cell_setting            triclinic
  loop_
  _symmetry_equiv_pos_as_xyz
 x,y,z
_cell_length_a 33.1450
_cell_length_b 33.0989
_cell_length_c 33.3214
_cell_angle_alpha 98.994900
_cell_angle_beta 82.574800
_cell_angle_gamma 90.097600
loop_
  _atom_site_label
  _atom_site_type_symbol
  _atom_site_fract_x
  _atom_site_fract_y
  _atom_site_fract_z
C1 C 0.51963 0.48308 -0.01367
 C2 C 0.49166 0.51120 -0.01914
 C3 C 0.44909 0.49990 -0.02479
 C4 C 0.50224 0.55484 -0.01889
 C5 C 0.56346 0.49283 -0.01440
 C6 C 0.50783 0.44122 -0.00680
 C7 C 0.44063 0.46595 -0.05303
 C8 C 0.40053 0.45458 -0.05667
 C9 C 0.36730 0.47778 -0.03313
 C10 C 0.37661 0.51296 -0.00593
 C11 C 0.41674 0.52357 -0.00178
 C12 C 0.49343 0.57494 -0.05089
 C13 C 0.50408 0.61571 -0.05130
 C14 C 0.52383 0.63692 -0.01975
 C15 C 0.53199 0.61701 0.01262
 C16 C 0.52084 0.57646 0.01331
 C17 C 0.58447 0.48445 0.01741
 C18 C 0.62540 0.49439 0.01751
 C19 C 0.64593 0.51298 -0.01416
 C20 C 0.62513 0.52065 -0.04639
 C21 C 0.58437 0.51019 -0.04678
 C22 C 0.47629 0.43500 0.02396
 C23 C 0.46467 0.39538 0.02916
 C24 C 0.48500 0.36145 0.00425
 C25 C 0.51715 0.36780 -0.02583
 C26 C 0.52849 0.40733 -0.03126
 H27 H 0.46518 0.44810 -0.07235
 H28 H 0.39619 0.42873 -0.07978
 H29 H 0.35332 0.53136 0.01454
 H30 H 0.42255 0.54989 0.02032
 H31 H 0.47885 0.55885 -0.07585
 H32 H 0.49751 0.63050 -0.07657
 H33 H 0.52691 0.56183 0.03885
 H34 H 0.56897 0.47084 0.04253
 H35 H 0.64085 0.48827 0.04271
 H36 H 0.64057 0.53428 -0.07152
 H37 H 0.56903 0.51589 -0.07219
 H38 H 0.46055 0.46082 0.04372
 H39 H 0.44016 0.39122 0.05291
 H40 H 0.53304 0.34212 -0.04569
 H41 H 0.55295 0.41154 -0.05506
 H42 H 0.54648 0.63304 0.03768
 C43 C 0.00706 0.50607 0.49769
 C44 C -0.00087 0.47829 0.46501
 C45 C -0.01291 0.43599 0.47062
 C46 C 0.00218 0.48863 0.42294
 C47 C 0.01439 0.55005 0.49527
 C48 C 0.00765 0.49406 0.53880
 C49 C 0.01307 0.40260 0.45342
 C50 C 0.00503 0.36379 0.46408
 C51 C -0.02947 0.35763 0.49172
 C52 C -0.05686 0.39071 0.50647
 C53 C -0.04859 0.42946 0.49615
 C54 C 0.03668 0.50794 0.40613
 C55 C 0.03885 0.51820 0.36682
 C56 C 0.00692 0.50865 0.34325
 C57 C -0.02709 0.48833 0.35964
 C58 C -0.02941 0.47842 0.39912
 C59 C -0.01522 0.57496 0.48407
 C60 C -0.01101 0.61760 0.48929
 C61 C 0.02274 0.63588 0.50599
 C62 C 0.05342 0.61051 0.51464
 C63 C 0.04916 0.56816 0.50958
 C64 C -0.01729 0.51520 0.57280
 C65 C -0.01680 0.50455 0.61165
 C66 C 0.00862 0.47251 0.61720
 C67 C 0.03376 0.45149 0.58320
 C68 C 0.03362 0.46249 0.54441
 H69 H 0.04076 0.40711 0.43363
 H70 H 0.02688 0.33917 0.45229
 H71 H -0.08429 0.38690 0.52689
 H72 H -0.06926 0.45479 0.50928
 H73 H 0.06203 0.51496 0.42338
 H74 H 0.06577 0.53312 0.35460
 H75 H -0.05620 0.46331 0.41134
 H76 H -0.04255 0.56164 0.47346
 H77 H -0.03526 0.63636 0.48258
 H78 H 0.08013 0.62361 0.52683
 H79 H 0.07237 0.54950 0.51833
 H80 H -0.03738 0.53977 0.56916
 H81 H -0.03668 0.52104 0.63731
 H82 H 0.05409 0.42711 0.58680
 H83 H 0.05391 0.44654 0.51878
 H84 H -0.05220 0.48078 0.34219
 C85 C 0.50864 -0.00119 0.47927
 C86 C 0.48102 0.00730 0.51372
 C87 C 0.49307 0.00834 0.55539
 C88 C 0.43722 0.01560 0.51244
 C89 C 0.49784 0.00083 0.43761
 C90 C 0.55149 -0.01273 0.48214
 C91 C 0.47293 -0.01616 0.58200
 C92 C 0.48396 -0.01583 0.62110
 C93 C 0.51562 0.00918 0.63491
 C94 C 0.53536 0.03413 0.60782
 C95 C 0.52394 0.03396 0.56886
 C96 C 0.41208 -0.01473 0.49520
 C97 C 0.36973 -0.00847 0.50029
 C98 C 0.35200 0.02825 0.52264
 C99 C 0.37773 0.05936 0.53753
 C100 C 0.41975 0.05290 0.53291
 C101 C 0.47632 0.03462 0.42954
 C102 C 0.46659 0.03598 0.39018
 C103 C 0.47935 0.00424 0.35791
 C104 C 0.50182 -0.02895 0.36563
 C105 C 0.51082 -0.03072 0.40514
 C106 C 0.58363 0.01109 0.46800
 C107 C 0.62346 0.00332 0.47495
 C108 C 0.63218 -0.02856 0.49649
 C109 C 0.59973 -0.05402 0.50795
 C110 C 0.56011 -0.04626 0.50075
 H111 H 0.44903 -0.03624 0.57217
 H112 H 0.46852 -0.03674 0.63953
 H113 H 0.55856 0.05533 0.61697
 H114 H 0.53910 0.05404 0.54921
 H115 H 0.42504 -0.04390 0.47964
 H116 H 0.35081 -0.03313 0.48864
 H117 H 0.43868 0.07669 0.54629
 H118 H 0.46739 0.06019 0.45353
 H119 H 0.44980 0.06219 0.38472
 H120 H 0.51190 -0.05379 0.34117
 H121 H 0.52777 -0.05690 0.41043
 H122 H 0.57758 0.03699 0.45328
 H123 H 0.64655 0.02435 0.46576
 H124 H 0.60460 -0.08053 0.52212
 H125 H 0.53587 -0.06587 0.51070
 H126 H 0.36525 0.08839 0.55396
 O127 O 0.48534 -0.00938 -0.06635
 O128 O 0.45743 -0.00786 0.04448
 O129 O 0.45637 0.04518 -0.00466
 O130 O 0.48691 -0.06329 -0.01683
 O131 O 0.54947 -0.04562 -0.00687
 O132 O 0.51895 0.06246 0.00578
 O133 O 0.52024 0.00869 0.05476
 O134 O 0.54781 0.00830 -0.05605
 Cu135 Cu 0.46529 -0.01085 -0.01200
 Cu136 Cu 0.54042 0.01015 0.00038
 C137 C 0.52117 -0.00019 -0.08013
 C138 C 0.48400 0.00087 0.06858
 C139 C 0.48262 0.07240 0.00270
 C140 C 0.52329 -0.07301 -0.01361
 O141 O -0.03797 0.53939 0.98098
 O142 O 0.06973 0.51009 0.97164
 O143 O 0.01654 0.50994 0.92065
 O144 O 0.01507 0.53815 1.03219
 O145 O -0.00149 0.47506 1.04019
 O146 O -0.00039 0.44694 0.92877
 O147 O 0.05322 0.44671 0.97875
 O148 O -0.05514 0.47652 0.98929
 Cu149 Cu 0.01751 0.53073 0.97561
 Cu150 Cu -0.00278 0.45502 0.98524
 C151 C -0.06504 0.51293 0.98634
 C152 C 0.07998 0.47355 0.97343
 C153 C 0.00833 0.47362 0.90563
 C154 C 0.00693 0.51128 1.05526
 O155 O 0.00076 -0.05693 0.50688
 O156 O -0.01651 0.05396 0.50621
 O157 O 0.04705 0.00774 0.50978
 O158 O -0.06305 -0.01086 0.50415
 O159 O -0.07360 -0.00348 0.57168
 O160 O 0.03343 0.02098 0.57713
 O161 O -0.03127 0.06312 0.57347
 O162 O -0.00830 -0.04499 0.57448
 Cu163 Cu -0.00680 -0.00251 0.49990
 Cu164 Cu -0.02127 0.01003 0.58080
 C165 C -0.00014 -0.06960 0.54112
 C166 C -0.02708 0.07743 0.54000
 C167 C 0.05879 0.01803 0.54479
 C168 C -0.08682 -0.01128 0.53728
 C169 C -0.24194 0.50688 0.99364
 C170 C -0.22996 0.54500 0.98580
 C171 C -0.25694 0.57404 0.97794
 C172 C -0.29793 0.56327 0.97811
 C173 C -0.31098 0.52417 0.98628
 C174 C -0.28251 0.49571 0.99436
 O175 O -0.21137 0.48326 0.99884
 C176 C -0.17937 0.50698 0.99423
 C177 C -0.18908 0.54511 0.98638
 C178 C -0.16002 0.57446 0.97967
 C179 C -0.11923 0.56391 0.98072
 C180 C -0.10833 0.52448 0.98812
 C181 C -0.13908 0.49580 0.99533
 H182 H -0.24674 0.60374 0.97155
 H183 H -0.31955 0.58538 0.97213
 H184 H -0.29151 0.46544 1.00006
 H185 H -0.16838 0.60422 0.97336
 H186 H -0.09615 0.58624 0.97499
 H187 H -0.13189 0.46541 1.00084
 C188 C 0.25564 0.48394 0.97208
 C189 C 0.24702 0.44385 0.95908
 C190 C 0.27711 0.41370 0.94737
 C191 C 0.31769 0.42531 0.94938
 C192 C 0.32788 0.46672 0.96370
 C193 C 0.29540 0.49616 0.97494
 O194 O 0.22296 0.50825 0.98088
 C195 C 0.19292 0.48285 0.97359
 C196 C 0.20584 0.44296 0.96045
 C197 C 0.17902 0.41135 0.95169
 C198 C 0.13728 0.42144 0.95660
 C199 C 0.12352 0.46259 0.96943
 C200 C 0.15191 0.49360 0.97805
 H201 H 0.26963 0.38222 0.93727
 H202 H 0.34043 0.40102 0.94188
 H203 H 0.30030 0.52843 0.98379
 H204 H 0.18980 0.38012 0.94154
 H205 H 0.11582 0.39741 0.94982
 H206 H 0.14236 0.52522 0.98823
 C207 C 0.01427 -0.24913 0.50788
 C208 C 0.02580 -0.23539 0.54575
 C209 C 0.03681 -0.26150 0.57145
 C210 C 0.03600 -0.30364 0.55762
 C211 C 0.02422 -0.31906 0.51868
 C212 C 0.01299 -0.29120 0.49349
 O213 O 0.00451 -0.21882 0.48871
 C214 C 0.00992 -0.18535 0.51522
 C215 C 0.02279 -0.19402 0.55060
 C216 C 0.02926 -0.16399 0.58308
 C217 C 0.02189 -0.12323 0.57916
 C218 C 0.00863 -0.11307 0.54306
 C219 C 0.00292 -0.14471 0.51038
 H220 H 0.04544 -0.24985 0.60128
 H221 H 0.04378 -0.32432 0.57772
 H222 H 0.00375 -0.30192 0.46372
 H223 H 0.03918 -0.17170 0.61069
 H224 H 0.02656 -0.09952 0.60439
 H225 H -0.00760 -0.13800 0.48266
 C226 C -0.02960 0.24398 0.49929
 C227 C -0.04464 0.24547 0.53992
 C228 C -0.05548 0.28186 0.56600
 C229 C -0.05066 0.31835 0.54960
 C230 C -0.03544 0.31805 0.50764
 C231 C -0.02475 0.28002 0.48218
 O232 O -0.02012 0.20614 0.48024
 C233 C -0.02936 0.18334 0.50958
 C234 C -0.04450 0.20605 0.54661
 C235 C -0.05532 0.18879 0.58177
 C236 C -0.05006 0.14637 0.57885
 C237 C -0.03415 0.12193 0.54117
 C238 C -0.02397 0.14086 0.50589
 H239 H -0.06670 0.28223 0.59804
 H240 H -0.05792 0.34692 0.57001
 H241 H -0.01301 0.27849 0.45011
 H242 H -0.06703 0.20738 0.61060
 H243 H -0.05809 0.13269 0.60620
 H244 H -0.01145 0.12329 0.47677
 C245 C 0.51080 -0.00057 -0.25424
 C246 C 0.54960 0.01005 -0.24720
 C247 C 0.57859 0.02063 -0.27755
 C248 C 0.56714 0.02027 -0.31675
 C249 C 0.52704 0.00933 -0.32533
 C250 C 0.49873 -0.00134 -0.29288
 O251 O 0.48745 -0.00860 -0.22107
 C252 C 0.51214 -0.00304 -0.19245
 C253 C 0.55057 0.00832 -0.20680
 C254 C 0.58100 0.01636 -0.18170
 C255 C 0.57129 0.01278 -0.14009
 C256 C 0.53167 0.00144 -0.12442
 C257 C 0.50183 -0.00681 -0.15130
 H258 H 0.60906 0.02878 -0.27133
 H259 H 0.59037 0.02714 -0.34048
 H260 H 0.46741 -0.00832 -0.29653
 H261 H 0.61101 0.02541 -0.19362
 H262 H 0.59452 0.01934 -0.12007
 H263 H 0.47125 -0.01528 -0.14047
 C264 C 0.48973 0.00113 0.24337
 C265 C 0.44991 0.00754 0.23798
 C266 C 0.41850 0.01363 0.27045
 C267 C 0.42856 0.01297 0.31003
 C268 C 0.46932 0.00574 0.31621
 C269 C 0.50028 -0.00029 0.28230
 O270 O 0.51509 -0.00320 0.20868
 C271 C 0.49076 0.00037 0.18072
 C272 C 0.45054 0.00668 0.19698
 C273 C 0.41986 0.01063 0.17298
 C274 C 0.43112 0.00810 0.13054
 C275 C 0.47252 0.00230 0.11312
 C276 C 0.50270 -0.00160 0.13876
 H277 H 0.38741 0.01881 0.26552
 H278 H 0.40464 0.01747 0.33581
 H279 H 0.53169 -0.00548 0.28623
 H280 H 0.38839 0.01542 0.18642
 H281 H 0.40769 0.01127 0.11135
 H282 H 0.53449 -0.00633 0.12640
 C283 C 0.51800 -0.25081 -0.02646
 C284 C 0.55625 -0.23880 -0.01831
 C285 C 0.58544 -0.26589 -0.01093
 C286 C 0.57463 -0.30702 -0.01182
 C287 C 0.53533 -0.32006 -0.02019
 C288 C 0.50679 -0.29149 -0.02791
 O289 O 0.49420 -0.22008 -0.03084
 C290 C 0.51792 -0.18793 -0.02536
 C291 C 0.55623 -0.19770 -0.01775
 C292 C 0.58553 -0.16844 -0.00997
 C293 C 0.57473 -0.12740 -0.00965
 C294 C 0.53512 -0.11649 -0.01678
 C295 C 0.50652 -0.14743 -0.02514
 H296 H 0.61522 -0.25567 -0.00422
 H297 H 0.59677 -0.32872 -0.00606
 H298 H 0.47636 -0.30047 -0.03365
 H299 H 0.61542 -0.17683 -0.00382
 H300 H 0.59700 -0.10416 -0.00307
 H301 H 0.47598 -0.14023 -0.03043
 C302 C 0.49115 0.24929 0.01078
 C303 C 0.45068 0.23927 0.01367
 C304 C 0.41978 0.26808 0.01512
 C305 C 0.43120 0.30870 0.01307
 C306 C 0.47286 0.31941 0.00930
 C307 C 0.50310 0.28921 0.00863
 O308 O 0.51590 0.21747 0.00872
 C309 C 0.49060 0.18658 0.01014
 C310 C 0.45034 0.19811 0.01309
 C311 C 0.41901 0.17008 0.01334
 C312 C 0.42974 0.12854 0.01026
 C313 C 0.47116 0.11606 0.00719
 C314 C 0.50187 0.14575 0.00744
 H315 H 0.38815 0.25951 0.01711
 H316 H 0.40778 0.33151 0.01321
 H317 H 0.53511 0.29648 0.00596
 H318 H 0.38755 0.17976 0.01529
 H319 H 0.40585 0.10618 0.01009
 H320 H 0.53378 0.13732 0.00465
 C321 C -0.25505 -0.02357 0.49972
 C322 C -0.25230 -0.04077 0.53417
 C323 C -0.28576 -0.05537 0.55664
 C324 C -0.32384 -0.05196 0.54332
 C325 C -0.32840 -0.03377 0.50794
 C326 C -0.29273 -0.01958 0.48589
 O327 O -0.21942 -0.01094 0.48329
 C328 C -0.19375 -0.02016 0.50822
 C329 C -0.21253 -0.03831 0.53992
 C330 C -0.19207 -0.04888 0.57072
 C331 C -0.15057 -0.04010 0.56904
 C332 C -0.13021 -0.02150 0.53667
 C333 C -0.15210 -0.01182 0.50547
 H334 H -0.28281 -0.06829 0.58405
 H335 H -0.34980 -0.06163 0.56239
 H336 H -0.29363 -0.00646 0.45827
 H337 H -0.20765 -0.06278 0.59557
 H338 H -0.13426 -0.04778 0.59305
 H339 H -0.13752 0.00294 0.48076
 C340 C 0.23762 0.02278 0.51911
 C341 C 0.22371 0.04200 0.55805
 C342 C 0.24944 0.05717 0.58631
 C343 C 0.29140 0.05252 0.57403
 C344 C 0.30708 0.03311 0.53392
 C345 C 0.27953 0.01784 0.50609
 O346 O 0.20762 0.00985 0.49756
 C347 C 0.17417 0.02116 0.52362
 C348 C 0.18257 0.04092 0.56099
 C349 C 0.15255 0.05461 0.59326
 C350 C 0.11204 0.04735 0.58704
 C351 C 0.10208 0.02678 0.54895
 C352 C 0.13378 0.01384 0.51655
 H353 H 0.23762 0.07170 0.61697
 H354 H 0.31165 0.06337 0.59623
 H355 H 0.29032 0.00278 0.47536
 H356 H 0.16005 0.06995 0.62242
 H357 H 0.08839 0.05765 0.61215
 H358 H 0.12730 -0.00226 0.48730
 C359 C 0.00074 0.50278 1.23005
 C360 C 0.01385 0.54104 1.22385
 C361 C 0.02509 0.57002 1.25517
 C362 C 0.02270 0.55909 1.29447
 C363 C 0.00911 0.51982 1.30167
 C364 C -0.00213 0.49139 1.26885
 O365 O -0.00759 0.47944 1.19609
 C366 C 0.00039 0.50348 1.16782
 C367 C 0.01349 0.54154 1.18318
 C368 C 0.02394 0.57131 1.15870
 C369 C 0.02102 0.56133 1.11664
 C370 C 0.00801 0.52206 1.09992
 C371 C -0.00265 0.49288 1.12617
 H372 H 0.03546 0.59990 1.24955
 H373 H 0.03107 0.58129 1.31935
 H374 H -0.01209 0.46102 1.27323
 H375 H 0.03427 0.60103 1.17145
 H376 H 0.02943 0.58404 1.09709
 H377 H -0.01256 0.46261 1.11453
 C378 C 0.01034 0.48117 0.73122
 C379 C 0.00903 0.44064 0.73601
 C380 C 0.00796 0.40906 0.70328
 C381 C 0.00818 0.41977 0.66407
 C382 C 0.00915 0.46143 0.65848
 C383 C 0.01031 0.49247 0.69269
 O384 O 0.01129 0.50648 0.76610
 C385 C 0.01044 0.48144 0.79359
 C386 C 0.00892 0.44083 0.77686
 C387 C 0.00721 0.40954 0.80041
 C388 C 0.00701 0.42060 0.84290
 C389 C 0.00877 0.46233 0.86086
 C390 C 0.01062 0.49308 0.83560
 H391 H 0.00688 0.37737 0.70777
 H392 H 0.00693 0.39573 0.63819
 H393 H 0.01147 0.52449 0.68935
 H394 H 0.00589 0.37779 0.78662
 H395 H 0.00563 0.39664 0.86172
 H396 H 0.01172 0.52519 0.84825
   
