data_POSCAR
  _audit_creation_date              2014-09-24
  _audit_creation_method            'ToBaCCo'
  _symmetry_space_group_name_H-M    'P1'
  _symmetry_Int_Tables_number       1
  _symmetry_cell_setting            triclinic
  loop_
  _symmetry_equiv_pos_as_xyz
 x,y,z
_cell_length_a 34.5838
_cell_length_b 34.5500
_cell_length_c 34.4943
_cell_angle_alpha 87.273000
_cell_angle_beta 89.980100
_cell_angle_gamma 86.837500
loop_
  _atom_site_label
  _atom_site_type_symbol
  _atom_site_fract_x
  _atom_site_fract_y
  _atom_site_fract_z
Si1 Si 0.76117 0.62357 0.99375
 Si2 Si 0.75190 0.38156 0.51312
 Si3 Si 0.23794 -0.12252 0.02288
 Si4 Si 0.27186 0.12497 0.50340
 Si5 Si 0.11918 0.48297 0.25848
 Si6 Si -0.13465 0.00584 0.25225
 Si7 Si 0.36012 0.51162 0.75484
 Si8 Si 0.60479 0.99047 0.75785
 Si9 Si 0.00750 0.24873 -0.13316
 Si10 Si 0.50571 0.25313 0.11253
 Si11 Si 1.00688 0.76925 0.60607
 Si12 Si 0.51083 0.73779 0.36872
 C13 C 0.44732 -0.04277 0.28521
 H14 H 0.45378 -0.01575 0.29777
 C15 C 0.46674 -0.07748 0.29839
 H16 H 0.48832 -0.07675 0.32102
 C17 C 0.40971 -0.07664 0.24205
 H18 H 0.38680 -0.07643 0.22076
 C19 C 0.42817 -0.11196 0.25452
 H20 H 0.41940 -0.13842 0.24231
 N21 N 0.41901 -0.04305 0.25794
 C22 C 0.39380 0.07506 0.21179
 H23 H 0.36269 0.07464 0.21488
 C24 C 0.41028 0.10852 0.19736
 H25 H 0.39156 0.13364 0.18884
 C26 C 0.45569 0.04247 0.21950
 H27 H 0.47308 0.01664 0.22849
 C28 C 0.47349 0.07534 0.20419
 H29 H 0.50470 0.07470 0.20134
 Zn30 Zn 0.38798 0.00273 0.24575
 N31 N 0.41650 0.04330 0.22350
 C32 C 0.37531 0.05557 0.30393
 N33 N 0.36497 0.02045 0.29242
 C34 C 0.34121 -0.00151 0.31477
 C35 C 0.32569 0.01261 0.34933
 C36 C 0.36015 0.07087 0.33755
 C37 C 0.36658 -0.00922 0.17119
 C38 C 0.34456 -0.02029 0.14032
 C39 C 0.29115 -0.02920 0.18444
 C40 C 0.31417 -0.01718 0.21459
 N41 N 0.35144 -0.00829 0.20751
 H42 H 0.39590 0.07189 0.28752
 H43 H 0.33449 -0.03000 0.30594
 H44 H 0.30649 -0.00487 0.36665
 H45 H 0.36878 0.09905 0.34566
 H46 H 0.39641 -0.00245 0.16639
 H47 H 0.35787 -0.02178 0.11198
 H48 H 0.26199 -0.03754 0.19067
 H49 H 0.30267 -0.01626 0.24366
 C50 C 0.45058 0.10909 0.19369
 C51 C 0.45652 -0.11283 0.28367
 C52 C 0.30662 -0.03141 0.14682
 C53 C 0.33478 0.04960 0.36063
 C54 C 0.07973 1.03812 0.78532
 H55 H 0.07301 1.00973 0.79719
 C56 C 0.06019 1.07133 0.79876
 H57 H 0.03819 1.06808 0.82083
 C58 C 0.11818 1.07669 0.74371
 H59 H 0.14150 1.07872 0.72299
 C60 C 0.09971 1.11065 0.75667
 H61 H 0.10874 1.13847 0.74529
 N62 N 0.10835 1.04137 0.75855
 C63 C 0.13137 0.92498 0.71732
 H64 H 0.16229 0.92335 0.72244
 C65 C 0.11400 0.89408 0.70127
 H66 H 0.13192 0.86877 0.69400
 C67 C 0.07099 0.96074 0.72000
 H68 H 0.05458 0.98702 0.72699
 C69 C 0.05240 0.93055 0.70331
 H70 H 0.02155 0.93374 0.69781
 Zn71 Zn 0.13915 0.99655 0.74666
 N72 N 0.10982 0.95729 0.72666
 C73 C 0.14915 0.94366 0.80961
 N74 N 0.16324 0.97669 0.79351
 C75 C 0.18975 0.99644 0.81268
 C76 C 0.20365 0.98242 0.84920
 C77 C 0.16173 0.92905 0.84592
 C78 C 0.15585 1.01442 0.67146
 C79 C 0.17608 1.02574 0.63845
 C80 C 0.23355 1.02846 0.67783
 C81 C 0.21226 1.01590 0.71025
 N82 N 0.17388 1.00992 0.70649
 H83 H 0.12684 0.92917 0.79510
 H84 H 0.19932 1.02356 0.80020
 H85 H 0.22444 0.99855 0.86433
 H86 H 0.14965 0.90288 0.85804
 H87 H 0.12526 1.00984 0.66930
 H88 H 0.16064 1.02988 0.61113
 H89 H 0.26376 1.03438 0.68119
 H90 H 0.22617 1.01191 0.73828
 C91 C 0.07406 0.89665 0.69379
 C92 C 0.07074 1.10826 0.78505
 C93 C 0.21524 1.03364 0.64141
 C94 C 0.18911 0.94852 0.86639
 C95 C 0.58371 0.52749 0.28677
 H96 H 0.58242 0.49925 0.30153
 C97 C 0.56625 0.56012 0.30325
 H98 H 0.55098 0.55660 0.33049
 C99 C 0.60726 0.56651 0.23451
 H100 H 0.62454 0.56909 0.20853
 C101 C 0.58973 0.59991 0.24971
 H102 H 0.59336 0.62784 0.23497
 N103 N 0.60449 0.53133 0.25354
 C104 C 0.62716 0.41501 0.21321
 H105 H 0.65839 0.41433 0.21551
 C106 C 0.60920 0.38302 0.20023
 H107 H 0.62695 0.35783 0.19230
 C108 C 0.56649 0.44944 0.22011
 H109 H 0.55022 0.47560 0.22775
 C110 C 0.54725 0.41819 0.20628
 H111 H 0.51602 0.42037 0.20340
 Zn112 Zn 0.63554 0.48767 0.23932
 N113 N 0.60578 0.44714 0.22325
 C114 C 0.65245 0.43677 0.30280
 N115 N 0.66425 0.46975 0.28441
 C116 C 0.69100 0.49139 0.30096
 C117 C 0.70720 0.47964 0.33724
 C118 C 0.66728 0.42444 0.33902
 C119 C 0.64533 0.50715 0.16245
 C120 C 0.66298 0.51974 0.12823
 C121 C 0.72352 0.52019 0.16314
 C122 C 0.70470 0.50688 0.19677
 N123 N 0.66602 0.50166 0.19595
 H124 H 0.62995 0.42076 0.29046
 H125 H 0.69874 0.51843 0.28675
 H126 H 0.72797 0.49736 0.35040
 H127 H 0.65678 0.39840 0.35316
 H128 H 0.61463 0.50263 0.16261
 H129 H 0.64549 0.52500 0.10229
 H130 H 0.75404 0.52550 0.16446
 H131 H 0.72077 0.50172 0.22352
 C132 C 0.56879 0.38440 0.19635
 C133 C 0.56995 0.59704 0.28516
 C134 C 0.70238 0.52734 0.12843
 C135 C 0.69465 0.44611 0.35697
 C136 C 0.95235 0.47000 0.78051
 H137 H 0.95752 0.49701 0.79375
 C138 C 0.97062 0.43522 0.79531
 H139 H 0.99011 0.43590 0.81978
 C140 C 0.91863 0.43606 0.73426
 H141 H 0.89745 0.43610 0.71129
 C142 C 0.93607 0.40077 0.74817
 H143 H 0.92836 0.37433 0.73518
 N144 N 0.92634 0.46970 0.75099
 C145 C 0.89961 0.58803 0.70485
 H146 H 0.86850 0.58663 0.70690
 C147 C 0.91543 0.62206 0.69095
 H148 H 0.89621 0.64665 0.68190
 C149 C 0.96212 0.55725 0.71424
 H150 H 0.98000 0.53186 0.72357
 C151 C 0.97930 0.59072 0.69939
 H152 H 1.01053 0.59099 0.69727
 Zn153 Zn 0.89477 0.51493 0.73722
 N154 N 0.92288 0.55685 0.71705
 C155 C 0.87586 0.56637 0.79569
 N156 N 0.86812 0.53104 0.78271
 C157 C 0.84425 0.50744 0.80305
 C158 C 0.82612 0.51988 0.83707
 C159 C 0.85817 0.58002 0.82893
 C160 C 0.87844 0.50015 0.66159
 C161 C 0.85824 0.48770 0.63000
 C162 C 0.80185 0.48245 0.67088
 C163 C 0.82311 0.49554 0.70173
 N164 N 0.86103 0.50306 0.69676
 H165 H 0.89639 0.58409 0.78079
 H166 H 0.83950 0.47888 0.79305
 H167 H 0.80699 0.50097 0.85278
 H168 H 0.86493 0.60836 0.83827
 H169 H 0.90866 0.50624 0.65846
 H170 H 0.87328 0.48437 0.60273
 H171 H 0.77211 0.47516 0.67566
 H172 H 0.80971 0.49833 0.72982
 C173 C 0.95571 0.62382 0.68820
 C174 C 0.96168 0.39983 0.77977
 C175 C 0.81973 0.47760 0.63463
 C176 C 0.83276 0.55690 0.85008
 C177 C 0.25906 0.44332 -0.04143
 H178 H 0.26401 0.45375 -0.01288
 C179 C 0.27044 0.46493 -0.07437
 H180 H 0.28376 0.49216 -0.07074
 C181 C 0.23844 0.39381 -0.08054
 H182 H 0.22704 0.36559 -0.08291
 C183 C 0.24920 0.41447 -0.11416
 H184 H 0.24564 0.40176 -0.14194
 N185 N 0.24439 0.40794 -0.04503
 C186 C 0.24059 0.38855 0.07852
 H187 H 0.26127 0.36395 0.07977
 C188 C 0.22806 0.40467 0.11293
 H189 H 0.23960 0.39231 0.14024
 C190 C 0.19931 0.43319 0.04157
 H191 H 0.18761 0.44350 0.01364
 C192 C 0.18594 0.45026 0.07536
 H193 H 0.16404 0.47389 0.07304
 Zn194 Zn 0.23853 0.37427 -0.00065
 N195 N 0.22556 0.40237 0.04382
 C196 C 0.28795 0.31031 0.02658
 N197 N 0.28650 0.34640 0.00893
 C198 C 0.31933 0.36530 0.00137
 C199 C 0.35539 0.34844 0.01256
 C200 C 0.32349 0.29236 0.03840
 C201 C 0.16212 0.35008 0.00172
 C202 C 0.13091 0.32983 -0.01053
 C203 C 0.17563 0.28807 -0.04534
 C204 C 0.20603 0.30921 -0.03244
 N205 N 0.19868 0.34031 -0.01030
 H206 H 0.26140 0.29616 0.03297
 H207 H 0.31754 0.39417 -0.01215
 H208 H 0.38096 0.36459 0.00717
 H209 H 0.32390 0.26414 0.05349
 H210 H 0.15675 0.37479 0.01932
 H211 H 0.10192 0.33930 -0.00196
 H212 H 0.18197 0.26462 -0.06449
 H213 H 0.23532 0.30206 -0.04177
 C214 C 0.19966 0.43532 0.11175
 C215 C 0.26671 0.44990 -0.11129
 C216 C 0.13730 0.29920 -0.03548
 C217 C 0.35777 0.31186 0.03215
 C218 C 0.80544 0.07648 1.02795
 H219 H 0.82382 0.07772 1.00259
 C220 C 0.82009 0.05996 1.06310
 H221 H 0.84970 0.04802 1.06424
 C222 C 0.74518 0.09239 1.05755
 H223 H 0.71626 0.10587 1.05547
 C224 C 0.75855 0.07593 1.09318
 H225 H 0.73954 0.07677 1.11811
 N226 N 0.76885 0.09297 1.02602
 C227 C 0.72218 0.11353 0.90871
 H228 H 0.72331 0.14480 0.90731
 C229 C 0.70619 0.09515 0.87806
 H230 H 0.69521 0.11261 0.85314
 C231 C 0.73362 0.05347 0.94407
 H232 H 0.74393 0.03762 0.97018
 C233 C 0.71684 0.03383 0.91420
 H234 H 0.71451 0.00272 0.91736
 Zn235 Zn 0.75315 0.12325 0.98096
 N236 N 0.73578 0.09269 0.94077
 C237 C 0.80846 0.14644 0.92559
 N238 N 0.79619 0.15132 0.96261
 C239 C 0.81592 0.17334 0.98679
 C240 C 0.84870 0.19216 0.97355
 C241 C 0.84031 0.16520 0.91106
 C242 C 0.67447 0.14440 0.98571
 C243 C 0.64109 0.16390 0.99882
 C244 C 0.68116 0.20870 1.02950
 C245 C 0.71398 0.18832 1.01557
 N246 N 0.71011 0.15653 0.99439
 H247 H 0.79434 0.12725 0.90718
 H248 H 0.80692 0.17550 1.01665
 H249 H 0.86423 0.20936 0.99315
 H250 H 0.84931 0.16057 0.88149
 H251 H 0.67170 0.11833 0.97015
 H252 H 0.61326 0.15282 0.99234
 H253 H 0.68486 0.23320 1.04732
 H254 H 0.74242 0.19713 1.02289
 C255 C 0.70285 0.05489 0.88070
 C256 C 0.79681 0.06029 1.09656
 C257 C 0.64411 0.19598 1.02180
 C258 C 0.86097 0.18838 0.93503
 C259 C 0.29049 0.57348 0.53219
 H260 H 0.30427 0.56520 0.50544
 C261 C 0.30344 0.55621 0.56762
 H262 H 0.32716 0.53440 0.56774
 C263 C 0.24402 0.61334 0.56443
 H264 H 0.22145 0.63626 0.56317
 C265 C 0.25629 0.59712 0.60048
 H266 H 0.24260 0.60747 0.62655
 N267 N 0.26144 0.60163 0.53127
 C268 C 0.22308 0.61353 0.41106
 H269 H 0.22556 0.64458 0.40742
 C270 C 0.21030 0.59292 0.38037
 H271 H 0.20270 0.60850 0.35322
 C272 C 0.22921 0.55613 0.45159
 H273 H 0.23631 0.54217 0.47959
 C274 C 0.21561 0.53434 0.42169
 H275 H 0.21244 0.50352 0.42681
 Zn276 Zn 0.24865 0.62846 0.48361
 N277 N 0.23270 0.59500 0.44560
 C278 C 0.31141 0.63729 0.43405
 N279 N 0.29356 0.65288 0.46527
 C280 C 0.30943 0.68202 0.48402
 C281 C 0.34389 0.69746 0.47043
 C282 C 0.34573 0.65143 0.41987
 C283 C 0.17188 0.64476 0.49607
 C284 C 0.13782 0.66528 0.50572
 C285 C 0.17302 0.72381 0.50522
 C286 C 0.20648 0.70214 0.49464
 N287 N 0.20545 0.66311 0.49146
 H288 H 0.29978 0.61291 0.42055
 H289 H 0.29581 0.69283 0.50987
 H290 H 0.35624 0.72057 0.48562
 H291 H 0.35911 0.63825 0.39498
 H292 H 0.17190 0.61368 0.49350
 H293 H 0.11188 0.64958 0.51059
 H294 H 0.17451 0.75456 0.50936
 H295 H 0.23330 0.71631 0.49039
 C296 C 0.20615 0.55285 0.38548
 C297 C 0.28674 0.56851 0.60245
 C298 C 0.13830 0.70511 0.51160
 C299 C 0.36253 0.68188 0.43801
 C300 C 0.77086 0.94530 0.46027
 H301 H 0.78385 0.94840 0.48840
 C302 C 0.78448 0.96603 0.42769
 H303 H 0.80772 0.98531 0.43127
 C304 C 0.72711 0.91396 0.42109
 H305 H 0.70565 0.89272 0.41826
 C306 C 0.74004 0.93380 0.38780
 H307 H 0.72792 0.92783 0.35991
 N308 N 0.74320 0.91929 0.45631
 C309 C 0.69308 0.88378 0.56732
 H310 H 0.69275 0.85337 0.56126
 C311 C 0.67755 0.89657 0.60188
 H312 H 0.66493 0.87573 0.62188
 C313 C 0.71108 0.94718 0.54861
 H314 H 0.72443 0.96660 0.52778
 C315 C 0.69598 0.96131 0.58327
 H316 H 0.69753 0.99179 0.58869
 Zn317 Zn 0.73217 0.88435 0.49845
 N318 N 0.70968 0.90886 0.54163
 C319 C 0.78927 0.86022 0.55299
 N320 N 0.77936 0.85813 0.51505
 C321 C 0.80405 0.84095 0.48945
 C322 C 0.84052 0.82532 0.50189
 C323 C 0.82491 0.84483 0.56660
 C324 C 0.65883 0.86622 0.47911
 C325 C 0.62862 0.84443 0.46765
 C326 C 0.67423 0.78940 0.46207
 C327 C 0.70369 0.81222 0.47449
 N328 N 0.69547 0.85004 0.48216
 H329 H 0.77003 0.87470 0.57291
 H330 H 0.79583 0.84027 0.45924
 H331 H 0.86007 0.81218 0.48115
 H332 H 0.83190 0.84744 0.59692
 H333 H 0.65319 0.89637 0.48544
 H334 H 0.59985 0.85832 0.46487
 H335 H 0.68119 0.75958 0.45514
 H336 H 0.73304 0.79995 0.47742
 C337 C 0.67912 0.93571 0.61050
 C338 C 0.76989 0.95942 0.39065
 C339 C 0.63613 0.80564 0.45844
 C340 C 0.85136 0.82744 0.54099
 C341 C -0.03979 0.27597 0.45085
 H342 H -0.01089 0.28320 0.45857
 C343 C -0.07173 0.29303 0.46988
 H344 H -0.06688 0.31308 0.49234
 C345 C -0.08133 0.24295 0.41082
 H346 H -0.08527 0.22468 0.38676
 C347 C -0.11391 0.25921 0.42905
 H348 H -0.14234 0.25245 0.41908
 N349 N -0.04509 0.25168 0.42162
 C350 C 0.05399 0.17728 0.41780
 H351 H 0.03748 0.15749 0.40232
 C352 C 0.08933 0.16367 0.43385
 H353 H 0.09838 0.13343 0.43101
 C354 C 0.06368 0.24063 0.43765
 H355 H 0.05421 0.27097 0.43769
 C356 C 0.09978 0.22823 0.45383
 H357 H 0.11732 0.24905 0.46702
 Zn358 Zn -0.00302 0.23366 0.39023
 N359 N 0.04165 0.21519 0.41978
 C360 C 0.04714 0.27141 0.33946
 N361 N 0.01240 0.27546 0.35764
 C362 C -0.00868 0.30993 0.35614
 C363 C 0.00582 0.34255 0.33693
 C364 C 0.06291 0.30334 0.32029
 C365 C -0.03370 0.16178 0.38106
 C366 C -0.04680 0.13037 0.36202
 C367 C -0.03423 0.16404 0.30070
 C368 C -0.02043 0.19465 0.32106
 N369 N -0.02031 0.19286 0.36057
 H370 H 0.06339 0.24371 0.34138
 H371 H -0.03621 0.31250 0.37091
 H372 H -0.01086 0.37000 0.33707
 H373 H 0.09120 0.29976 0.30707
 H374 H -0.03400 0.16142 0.41244
 H375 H -0.05735 0.10602 0.37907
 H376 H -0.03451 0.16591 0.26928
 H377 H -0.01017 0.21988 0.30534
 C378 C 0.11321 0.18926 0.45156
 C379 C -0.10949 0.28524 0.45852
 C380 C -0.04736 0.13126 0.32133
 C381 C 0.04256 0.33972 0.31958
 C382 C 1.02709 0.80106 0.09404
 H383 H 0.99931 0.81709 0.09365
 C384 C 1.05935 0.81797 0.07744
 H385 H 1.05585 0.84677 0.06364
 C386 C 1.06577 0.74513 0.11460
 H387 H 1.06860 0.71729 0.13021
 C388 C 1.09865 0.76072 0.09793
 H389 H 1.12622 0.74437 0.10062
 N390 N 1.03097 0.76560 0.11293
 C391 C 0.92285 0.70946 0.12901
 H392 H 0.92846 0.69890 0.15859
 C393 C 0.89271 0.69493 0.10855
 H394 H 0.87532 0.67315 0.12247
 C395 C 0.93971 0.74934 0.07444
 H396 H 0.95873 0.76985 0.06108
 C397 C 0.90895 0.73611 0.05302
 H398 H 0.90444 0.74634 0.02312
 Zn399 Zn 0.98885 0.74742 0.14285
 N400 N 0.94617 0.73557 0.11169
 C401 C 0.93488 0.78753 0.18954
 N402 N 0.97226 0.78626 0.17725
 C403 C 0.99590 0.81528 0.18467
 C404 C 0.98135 0.84838 0.20280
 C405 C 0.91916 0.82002 0.20765
 C406 C 1.00938 0.66908 0.14760
 C407 C 1.02119 0.63287 0.16419
 C408 C 1.02494 0.66187 0.22640
 C409 C 1.01229 0.69762 0.20862
 N410 N 1.00531 0.70052 0.16978
 H411 H 0.91654 0.76425 0.18354
 H412 H 1.02562 0.81362 0.17492
 H413 H 1.00015 0.87193 0.20676
 H414 H 0.88885 0.82099 0.21563
 H415 H 1.00360 0.67230 0.11676
 H416 H 1.02481 0.60845 0.14572
 H417 H 1.03126 0.66005 0.25720
 H418 H 1.00864 0.72308 0.22561
 C419 C 0.88576 0.70794 0.07008
 C420 C 1.09590 0.79804 0.07993
 C421 C 1.02966 0.62896 0.20398
 C422 C 0.94208 0.85163 0.21323
 C423 C 0.54871 0.27937 0.57226
 H424 H 0.52669 0.26913 0.55368
 C425 C 0.58321 0.29221 0.55608
 H426 H 0.58736 0.29185 0.52498
 C427 C 0.56995 0.29311 0.63519
 H428 H 0.56456 0.29319 0.66609
 C429 C 0.60447 0.30641 0.62033
 H430 H 0.62540 0.31684 0.64013
 N431 N 0.54295 0.27984 0.61127
 C432 C 0.42211 0.26470 0.60787
 H433 H 0.41630 0.28705 0.62829
 C434 C 0.39130 0.24999 0.58809
 H435 H 0.36212 0.26167 0.59307
 C436 C 0.46670 0.22037 0.57877
 H437 H 0.49596 0.20788 0.57659
 C438 C 0.43685 0.20523 0.55796
 H439 H 0.44362 0.18135 0.53944
 Zn440 Zn 0.49832 0.26266 0.63751
 N441 N 0.45885 0.24932 0.60341
 C442 C 0.47600 0.33878 0.64567
 N443 N 0.47970 0.30458 0.66679
 C444 C 0.47057 0.30228 0.70518
 C445 C 0.45565 0.33533 0.72334
 C446 C 0.46213 0.37245 0.66274
 C447 C 0.54787 0.19968 0.66003
 C448 C 0.55847 0.16297 0.67594
 C449 C 0.49738 0.16257 0.70987
 C450 C 0.48744 0.19931 0.69244
 N451 N 0.51273 0.21704 0.66803
 H452 H 0.48358 0.33974 0.61522
 H453 H 0.47427 0.27493 0.72160
 H454 H 0.44762 0.33306 0.75367
 H455 H 0.45887 0.39917 0.64503
 H456 H 0.56715 0.21331 0.63965
 H457 H 0.58622 0.14932 0.66831
 H458 H 0.47688 0.14826 0.72861
 H459 H 0.45905 0.21296 0.69724
 C460 C 0.39840 0.21935 0.56330
 C461 C 0.61158 0.30610 0.58029
 C462 C 0.53295 0.14376 0.70070
 C463 C 0.45120 0.37094 0.70190
 C464 C 0.44875 0.78549 0.95619
 H465 H 0.47623 0.79870 0.95840
 C466 C 0.41681 0.80007 0.97701
 H467 H 0.42039 0.82403 0.99558
 C468 C 0.40988 0.74075 0.92677
 H469 H 0.40668 0.71848 0.90631
 C470 C 0.37729 0.75453 0.94680
 H471 H 0.34975 0.74217 0.94172
 N472 N 0.44458 0.75691 0.93094
 C473 C 0.55500 0.70140 0.89645
 H474 H 0.54475 0.69412 0.86826
 C475 C 0.59201 0.68823 0.90830
 H476 H 0.60949 0.67077 0.88894
 C477 C 0.54434 0.73278 0.95533
 H478 H 0.52582 0.75048 0.97341
 C479 C 0.58145 0.71979 0.96862
 H480 H 0.59099 0.72749 0.99699
 Zn481 Zn 0.48472 0.74301 0.89533
 N482 N 0.53204 0.72372 0.91952
 C483 C 0.52673 0.78277 0.83860
 N484 N 0.49616 0.78702 0.86308
 C485 C 0.47724 0.82229 0.86680
 C486 C 0.49069 0.85543 0.84737
 C487 C 0.54136 0.81499 0.81913
 C488 C 0.46647 0.66743 0.88346
 C489 C 0.45314 0.63628 0.86414
 C490 C 0.44183 0.67889 0.80717
 C491 C 0.45587 0.70929 0.82756
 N492 N 0.46745 0.70304 0.86513
 H493 H 0.54087 0.75452 0.83528
 H494 H 0.45254 0.82511 0.88583
 H495 H 0.47636 0.88352 0.85187
 H496 H 0.56670 0.81102 0.80099
 H497 H 0.47575 0.66339 0.91339
 H498 H 0.45221 0.60835 0.87963
 H499 H 0.43211 0.68442 0.77749
 H500 H 0.45684 0.73795 0.81369
 C501 C 0.60601 0.69762 0.94463
 C502 C 0.38019 0.78534 0.97148
 C503 C 0.44016 0.64182 0.82560
 C504 C 0.52402 0.85205 0.82430
 N505 N 0.46923 -0.21760 0.31130
 C506 C 0.49788 -0.21812 0.33815
 N507 N 0.51427 -0.18447 0.34551
 N508 N 0.50206 -0.15126 0.32722
 C509 C 0.47292 -0.15038 0.30080
 N510 N 0.45706 -0.18434 0.29289
 N511 N 0.97110 0.29493 0.80740
 C512 C 0.99711 0.29380 0.83684
 N513 N 1.01287 0.32718 0.84635
 N514 N 1.00256 0.36070 0.82748
 C515 C 0.97611 0.36212 0.79828
 N516 N 0.96088 0.32844 0.78842
 N517 N 0.00779 1.17312 0.84292
 C518 C 0.02490 1.20740 0.83824
 N519 N 0.05633 1.20960 0.81489
 N520 N 0.07026 1.17837 0.79706
 C521 C 0.05344 1.14379 0.80212
 N522 N 0.02178 1.14193 0.82527
 N523 N 0.53771 0.66180 0.36196
 C524 C 0.53074 0.69623 0.34208
 N525 N 0.53652 0.69836 0.30315
 N526 N 0.54904 0.66689 0.28483
 C527 C 0.55562 0.63218 0.30475
 N528 N 0.54986 0.63040 0.34368
 N529 N 0.50192 0.32721 0.14195
 C530 C 0.52106 0.29181 0.14300
 N531 N 0.55441 0.28634 0.16356
 N532 N 0.56874 0.31554 0.18168
 C533 C 0.55018 0.35127 0.18008
 N534 N 0.51615 0.35642 0.16033
 N535 N 0.06016 0.80110 0.65389
 C536 C 0.02549 0.80713 0.63573
 N537 N 0.00599 0.84213 0.63778
 N538 N 0.02088 0.87036 0.65707
 C539 C 0.05594 0.86464 0.67480
 N540 N 0.07512 0.82936 0.67300
 N541 N 0.96400 0.72693 0.65923
 C542 C 0.99595 0.72591 0.63655
 N543 N 1.01630 0.69154 0.63281
 N544 N 1.00467 0.65914 0.65071
 C545 C 0.97197 0.65998 0.67257
 N546 N 0.95219 0.69458 0.67682
 N547 N 0.51303 0.17533 0.13883
 C548 C 0.49340 0.21008 0.14253
 N549 N 0.46132 0.21184 0.16500
 N550 N 0.44863 0.17978 0.18236
 C551 C 0.46763 0.14478 0.17807
 N552 N 0.50049 0.14322 0.15648
 N553 N 0.30453 0.46578 -0.21065
 C554 C 0.32641 0.49668 -0.20660
 N555 N 0.32645 0.51390 -0.17210
 N556 N 0.30602 0.50013 -0.14229
 C557 C 0.28479 0.46857 -0.14584
 N558 N 0.28410 0.45199 -0.18081
 N559 N 0.80318 0.97108 0.28911
 C560 C 0.83039 0.99757 0.29198
 N561 N 0.83566 1.01357 0.32660
 N562 N 0.81517 1.00280 0.35758
 C563 C 0.78853 0.97558 0.35514
 N564 N 0.78254 0.96041 0.32009
 N565 N 0.80486 0.03142 1.20135
 C566 C 0.84347 0.02307 1.20533
 N567 N 0.86650 0.02632 1.17368
 N568 N 0.85157 0.03771 1.13917
 C569 C 0.81297 0.04627 1.13490
 N570 N 0.78992 0.04298 1.16677
 N571 N 0.34449 0.50984 0.67609
 C572 C 0.33496 0.52761 0.70923
 N573 N 0.30852 0.55811 0.70765
 N574 N 0.29248 0.57059 0.67385
 C575 C 0.30240 0.55312 0.64044
 N576 N 0.32859 0.52236 0.64235
 N577 N 0.17159 0.53120 0.28840
 C578 C 0.15171 0.49904 0.29594
 N579 N 0.15191 0.48278 0.33254
 N580 N 0.17081 0.49876 0.36088
 C581 C 0.18982 0.53173 0.35360
 N582 N 0.19028 0.54723 0.31668
 N583 N 0.65775 0.03947 0.78627
 C584 C 0.63873 0.00677 0.79395
 N585 N 0.64246 -0.01148 0.82958
 N586 N 0.66417 0.00286 0.85684
 C587 C 0.68263 0.03612 0.84947
 N588 N 0.67921 0.05391 0.81354
 N589 N 0.65248 0.99711 0.69258
 C590 C 0.63105 0.97300 0.71491
 N591 N 0.62599 0.93678 0.70325
 N592 N 0.64172 0.92499 0.67035
 C593 C 0.66283 0.94906 0.64759
 N594 N 0.66814 0.98534 0.65951
 N595 N 0.17441 0.44184 0.21549
 C596 C 0.14652 0.47099 0.21437
 N597 N 0.13729 0.48960 0.17984
 N598 N 0.15491 0.47902 0.14737
 C599 C 0.18252 0.44946 0.14821
 N600 N 0.19209 0.43131 0.18302
 N601 N -0.21077 0.32173 0.47352
 C602 C -0.20658 0.34879 0.50015
 N603 N -0.17075 0.35383 0.51441
 N604 N -0.14004 0.33288 0.50209
 C605 C -0.14398 0.30610 0.47497
 N606 N -0.18007 0.30076 0.46123
 N607 N 0.27749 0.81687 0.98612
 C608 C 0.28030 0.84486 1.01202
 N609 N 0.31569 0.85183 1.02624
 N610 N 0.34732 0.83197 1.01449
 C611 C 0.34477 0.80429 0.98807
 N612 N 0.30912 0.79687 0.97450
 N613 N 1.19678 0.81335 0.04890
 C614 C 1.19559 0.85233 0.04171
 N615 N 1.16179 0.87324 0.04672
 N616 N 1.13015 0.85589 0.05851
 C617 C 1.13106 0.81689 0.06578
 N618 N 1.16510 0.79598 0.06095
 N619 N 0.69025 0.33209 0.51254
 C620 C 0.71181 0.35422 0.53471
 N621 N 0.70112 0.35925 0.57197
 N622 N 0.66983 0.34320 0.58652
 C623 C 0.64767 0.32171 0.56428
 N624 N 0.65872 0.31617 0.52703
 N625 N 0.34443 0.15525 0.50301
 C626 C 0.30835 0.15842 0.51829
 N627 N 0.30125 0.18309 0.54719
 N628 N 0.32953 0.20365 0.56053
 C629 C 0.36595 0.20000 0.54569
 N630 N 0.37269 0.17559 0.51644
 N631 N 0.79807 0.69065 0.01375
 C632 C 0.79977 0.65126 0.01414
 N633 N 0.83058 0.63118 0.03093
 N634 N 0.85831 0.64959 0.04776
 C635 C 0.85667 0.68887 0.04781
 N636 N 0.82619 0.70921 0.03027
 N637 N 0.69285 0.66935 1.00484
 C638 C 0.71670 0.65235 0.97854
 N639 N 0.70476 0.65166 0.94124
 N640 N 0.67008 0.66703 0.93055
 C641 C 0.64572 0.68350 0.95674
 N642 N 0.65803 0.68485 0.99409
 N643 N 0.21402 0.18532 0.48979
 C644 C 0.22407 0.14686 0.48821
 N645 N 0.19776 0.12284 0.47544
 N646 N 0.16267 0.13651 0.46436
 C647 C 0.15222 0.17485 0.46565
 N648 N 0.17865 0.19909 0.47862
 N649 N 0.55505 0.05686 0.76504
 C650 C 0.57437 0.03323 0.74030
 N651 N 0.57709 0.04494 0.70246
 N652 N 0.56212 0.07944 0.68978
 C653 C 0.54369 0.10362 0.71445
 N654 N 0.53970 0.09146 0.75225
 N655 N 1.08637 0.55744 0.26663
 C656 C 1.08520 0.52484 0.24634
 N657 N 1.06333 0.52572 0.21370
 N658 N 1.04422 0.55846 0.20119
 C659 C 1.04619 0.59149 0.22086
 N660 N 1.06710 0.59012 0.25424
 N661 N 0.86818 0.92813 0.23621
 C662 C 0.88990 0.95834 0.24374
 N663 N 0.92906 0.95325 0.24284
 N664 N 0.94585 0.91904 0.23417
 C665 C 0.92408 0.88870 0.22635
 N666 N 0.88492 0.89399 0.22777
 N667 N 0.38841 0.43428 0.76144
 C668 C 0.39276 0.46966 0.74367
 N669 N 0.41829 0.47289 0.71407
 N670 N 0.43803 0.44163 0.70189
 C671 C 0.43311 0.40597 0.71894
 N672 N 0.40835 0.40299 0.74939
 N673 N 0.38581 0.58689 0.75619
 C674 C 0.38809 0.55068 0.77334
 N675 N 0.40875 0.54412 0.80657
 N676 N 0.42608 0.57293 0.82251
 C677 C 0.42345 0.60941 0.80586
 N678 N 0.40326 0.61574 0.77212
 N679 N -0.09924 0.07671 0.24999
 C680 C -0.10146 0.04162 0.26904
 N681 N -0.08366 0.03529 0.30391
 N682 N -0.06513 0.06340 0.31973
 C683 C -0.06360 0.09890 0.30126
 N684 N -0.08043 0.10480 0.26571
 N685 N 0.05636 0.44064 0.28342
 C686 C 0.09495 0.43946 0.27623
 N687 N 0.11604 0.40552 0.28242
 N688 N 0.09919 0.37375 0.29552
 C689 C 0.06061 0.37472 0.30303
 N690 N 0.03952 0.40886 0.29674
 N691 N 0.54021 0.95209 0.78651
 C692 C 0.57877 0.94945 0.77899
 N693 N 0.59890 0.91516 0.78626
 N694 N 0.58121 0.88435 0.80030
 C695 C 0.54267 0.88663 0.80787
 N696 N 0.52249 0.92121 0.80099
 N697 N 0.76636 0.58563 0.06657
 C698 C 0.74717 0.58816 0.03219
 N699 N 0.71454 0.56863 0.02868
 N700 N 0.70121 0.54786 0.05885
 C701 C 0.71999 0.54584 0.09361
 N702 N 0.75316 0.56472 0.09667
 N703 N 0.27653 1.09540 0.58007
 C704 C 0.26160 1.09092 0.54428
 N705 N 0.23410 1.06502 0.54015
 N706 N 0.22101 1.04515 0.57094
 C707 C 0.23495 1.05035 0.60703
 N708 N 0.26353 1.07535 0.61093
 N709 N 0.18846 0.89405 0.96073
 C710 C 0.22249 0.90258 0.97672
 N711 N 0.24560 0.92708 0.95686
 N712 N 0.23486 0.94251 0.92202
 C713 C 0.20086 0.93354 0.90576
 N714 N 0.17787 0.90921 0.92597
 N715 N 0.69794 0.39845 0.45471
 C716 C 0.73355 0.40613 0.46755
 N717 N 0.75625 0.42844 0.44459
 N718 N 0.74370 0.44228 0.40975
 C719 C 0.70823 0.43381 0.39655
 N720 N 0.68555 0.41197 0.41993
 N721 N 0.75194 0.41902 0.58317
 C722 C 0.76890 0.41617 0.54790
 N723 N 0.80110 0.43579 0.54020
 N724 N 0.81635 0.45667 0.56726
 C725 C 0.79994 0.45883 0.60299
 N726 N 0.76707 0.43999 0.61018
 N727 N 0.28368 -0.06650 0.05067
 C728 C 0.25344 -0.08877 0.05878
 N729 N 0.23867 -0.08990 0.09524
 N730 N 0.25428 -0.07006 0.12294
 C731 C 0.28534 -0.04855 0.11518
 N732 N 0.29930 -0.04676 0.07833
 N733 N 0.29238 0.06125 0.45838
 C734 C 0.29093 0.10044 0.46060
 N735 N 0.30289 0.12251 0.42993
 N736 N 0.31650 0.10609 0.39827
 C737 C 0.31831 0.06694 0.39581
 N738 N 0.30580 0.04474 0.42644
 N739 N 0.78246 0.56288 0.94488
 C740 C 0.78200 0.60160 0.95022
 N741 N 0.79741 0.62523 0.92264
 N742 N 0.81314 0.61080 0.89090
 C743 C 0.81394 0.57214 0.88527
 N744 N 0.79811 0.54839 0.91286
 N745 N 0.03966 0.72359 0.54928
 C746 C 0.04401 0.75508 0.57044
 N747 N 0.07834 0.77227 0.56938
 N748 N 0.10778 0.75777 0.54868
 C749 C 0.10398 0.72538 0.52850
 N750 N 0.06912 0.70899 0.52873
 N751 N 0.54338 0.21069 1.05585
 C752 C 0.54640 0.23958 1.08067
 N753 N 0.58097 0.25574 1.08449
 N754 N 0.61177 0.24290 1.06471
 C755 C 0.60912 0.21341 1.04036
 N756 N 0.57417 0.19789 1.03604
 N757 N 0.95717 0.23038 0.92830
 C758 C 0.96172 0.23456 0.88925
 N759 N 0.93265 0.22535 0.86573
 N760 N 0.90035 0.21173 0.88054
 C761 C 0.89572 0.20686 0.91951
 N762 N 0.92462 0.21686 0.94320
 N763 N 0.45367 0.68645 0.38326
 C764 C 0.46669 0.72101 0.39263
 N765 N 0.44581 0.74297 0.41768
 N766 N 0.41288 0.73052 0.43279
 C767 C 0.39966 0.69587 0.42307
 N768 N 0.42088 0.67414 0.39815
 N769 N 0.53915 0.78160 0.42638
 C770 C 0.54749 0.75166 0.40330
 N771 N 0.58466 0.73726 0.40087
 N772 N 0.61277 0.75299 0.42018
 C773 C 0.60468 0.78391 0.44230
 N774 N 0.56721 0.79738 0.44555
 N775 N 0.03872 0.28690 -0.07226
 C776 C 0.04513 0.25863 -0.09777
 N777 N 0.08123 0.24167 -0.10071
 N778 N 0.11023 0.25324 -0.07948
 C779 C 0.10420 0.28223 -0.05453
 N780 N 0.06771 0.29840 -0.05097
 N781 N 0.46078 0.30256 0.06186
 C782 C 0.46197 0.26936 0.08449
 N783 N 0.42954 0.24922 0.08835
 N784 N 0.39677 0.26210 0.07075
 C785 C 0.39515 0.29568 0.04858
 N786 N 0.42794 0.31549 0.04426
 N787 N 0.93180 0.79968 0.60843
 C788 C 0.96036 0.78742 0.58441
 N789 N 0.95330 0.78773 0.54567
 N790 N 0.91861 0.80019 0.53155
 C791 C 0.88990 0.81264 0.55573
 N792 N 0.89735 0.81212 0.59438
   
