data_POSCAR
  _audit_creation_date              2014-09-24
  _audit_creation_method            'ToBaCCo'
  _symmetry_space_group_name_H-M    'P1'
  _symmetry_Int_Tables_number       1
  _symmetry_cell_setting            triclinic
  loop_
  _symmetry_equiv_pos_as_xyz
 x,y,z
_cell_length_a 36.1660
_cell_length_b 35.1450
_cell_length_c 35.2240
_cell_angle_alpha 89.938100
_cell_angle_beta 90.018300
_cell_angle_gamma 90.089500
loop_
  _atom_site_label
  _atom_site_type_symbol
  _atom_site_fract_x
  _atom_site_fract_y
  _atom_site_fract_z
Si1 Si 1.25194 0.25232 0.25011
 Si2 Si 0.74997 -0.24963 0.25075
 Si3 Si 0.74908 0.24833 -0.24871
 Si4 Si 1.24846 -0.25059 -0.25039
 Si5 Si 0.25078 0.25058 0.74897
 Si6 Si 0.75146 0.75136 0.74948
 Si7 Si 0.74804 0.24973 0.24832
 Si8 Si 0.24993 0.74804 0.25044
 N9 N 0.96324 0.04148 -0.06571
 N10 N 0.93867 0.04973 -0.09223
 N11 N 1.04179 0.06706 -0.03948
 N12 N 1.06632 0.09362 -0.04799
 N13 N 1.04096 0.04082 -0.06599
 N14 N 1.06479 0.04890 -0.09319
 N15 N 0.96407 0.06827 -0.03975
 N16 N 0.94019 0.09543 -0.04799
 C17 C 0.92417 0.08330 -0.08058
 C18 C 1.08081 0.08166 -0.08139
 N19 N 1.04033 0.04105 0.06947
 N20 N 1.06433 0.04907 0.09656
 N21 N 0.96371 0.06837 0.04217
 N22 N 0.93972 0.09554 0.04993
 N23 N 0.96263 0.04172 0.06833
 N24 N 0.93777 0.05007 0.09448
 N25 N 1.04138 0.06709 0.04271
 N26 N 1.06620 0.09342 0.05088
 Mn27 Mn 1.00283 0.06801 0.00143
 C28 C 1.08063 0.08158 0.08436
 C29 C 0.92337 0.08355 0.08241
 N30 N 1.04057 -0.04113 -0.06553
 N31 N 1.06478 -0.04943 -0.09232
 N32 N 0.96312 -0.06757 -0.03925
 N33 N 0.93916 -0.09469 -0.04758
 N34 N 0.96273 -0.04091 -0.06541
 N35 N 0.93838 -0.04918 -0.09212
 N36 N 1.04064 -0.06743 -0.03901
 N37 N 1.06462 -0.09444 -0.04726
 Mn38 Mn 1.00179 0.00006 -0.06597
 C39 C 1.07989 -0.08258 -0.08033
 C40 C 0.92354 -0.08261 -0.08039
 N41 N 0.96205 -0.04067 0.06859
 N42 N 0.93721 -0.04878 0.09487
 N43 N 1.04045 -0.06728 0.04327
 N44 N 1.06455 -0.09416 0.05188
 N45 N 1.03978 -0.04113 0.06989
 N46 N 1.06335 -0.04965 0.09727
 N47 N 0.96275 -0.06736 0.04253
 N48 N 0.93850 -0.09430 0.05044
 Mn49 Mn 1.00112 0.00025 0.06940
 Mn50 Mn 1.00182 -0.06769 0.00190
 Cl51 Cl 1.00190 0.00016 0.00169
 C52 C 0.92242 -0.08213 0.08291
 C53 C 1.07901 -0.08258 0.08545
 N54 N 0.96242 0.54030 0.43084
 N55 N 0.93939 0.54880 0.40307
 N56 N 1.03823 0.56705 0.45899
 N57 N 1.06118 0.59504 0.45045
 N58 N 1.04002 0.54000 0.43334
 N59 N 1.06449 0.54881 0.40688
 N60 N 0.96065 0.56588 0.45792
 N61 N 0.93614 0.59235 0.44939
 C62 C 0.92282 0.58101 0.41530
 C63 C 1.07783 0.58300 0.41823
 N64 N 1.03814 0.53938 0.56650
 N65 N 1.06152 0.54816 0.59391
 N66 N 0.95963 0.56563 0.54017
 N67 N 0.93560 0.59253 0.54881
 N68 N 0.96069 0.53971 0.56705
 N69 N 0.93766 0.54844 0.59473
 N70 N 1.03727 0.56647 0.54078
 N71 N 1.06003 0.59432 0.55008
 Mn72 Mn 0.99878 0.56656 0.49947
 C73 C 1.07538 0.58227 0.58301
 C74 C 0.92177 0.58111 0.58270
 N75 N 1.03905 0.45756 0.43330
 N76 N 1.06417 0.44920 0.40747
 N77 N 0.95914 0.43269 0.45748
 N78 N 0.93435 0.40655 0.44859
 N79 N 0.96150 0.45844 0.43052
 N80 N 0.93857 0.45032 0.40251
 N81 N 1.03670 0.43031 0.45875
 N82 N 1.05999 0.40260 0.45075
 Mn83 Mn 1.00093 0.49906 0.43170
 C84 C 1.07729 0.41504 0.41901
 C85 C 0.92142 0.41820 0.41443
 N86 N 0.95986 0.45788 0.56686
 N87 N 0.93699 0.44916 0.59472
 N88 N 1.03572 0.42993 0.54040
 N89 N 1.05881 0.40215 0.54881
 N90 N 1.03745 0.45696 0.56607
 N91 N 1.06199 0.44838 0.59247
 N92 N 0.95815 0.43222 0.53982
 N93 N 0.93384 0.40550 0.54857
 Mn94 Mn 0.99920 0.49847 0.56688
 Mn95 Mn 0.99724 0.43098 0.49910
 Cl96 Cl 0.99904 0.49878 0.49929
 C97 C 0.92050 0.41678 0.58267
 C98 C 1.07538 0.41430 0.58104
 N99 N 0.56379 0.03948 0.54016
 N100 N 0.59063 0.06335 0.54886
 N101 N 0.53910 -0.04071 0.56673
 N102 N 0.54810 -0.06508 0.59378
 N103 N 0.56463 -0.04005 0.54026
 N104 N 0.59173 -0.06361 0.54869
 N105 N 0.53825 0.03944 0.56666
 N106 N 0.54700 0.06364 0.59394
 C107 C 0.57955 0.07871 0.58213
 C108 C 0.58082 -0.07948 0.58181
 N109 N 0.43380 -0.04214 0.54038
 N110 N 0.40790 -0.06728 0.54875
 N111 N 0.45837 0.03797 0.56689
 N112 N 0.44935 0.06157 0.59445
 N113 N 0.43294 0.03800 0.54024
 N114 N 0.40622 0.06207 0.54879
 N115 N 0.45930 -0.04148 0.56695
 N116 N 0.45116 -0.06577 0.59427
 Mn117 Mn 0.49876 -0.00119 0.56712
 C118 C 0.41937 -0.08212 0.58222
 C119 C 0.41710 0.07688 0.58246
 N120 N 0.56439 -0.04018 0.45876
 N121 N 0.59122 -0.06415 0.45074
 N122 N 0.53810 0.03913 0.43193
 N123 N 0.54669 0.06353 0.40473
 N124 N 0.56360 0.03929 0.45848
 N125 N 0.59024 0.06343 0.44993
 N126 N 0.53880 -0.04098 0.43231
 N127 N 0.54751 -0.06583 0.40568
 Mn128 Mn 0.56427 -0.00035 0.49940
 C129 C 0.58010 -0.08036 0.41790
 C130 C 0.57910 0.07881 0.41668
 N131 N 0.43286 0.03790 0.45832
 N132 N 0.40633 0.06224 0.44985
 N133 N 0.45877 -0.04167 0.43171
 N134 N 0.44956 -0.06488 0.40378
 N135 N 0.43348 -0.04230 0.45849
 N136 N 0.40679 -0.06644 0.44970
 N137 N 0.45826 0.03778 0.43168
 N138 N 0.44944 0.06158 0.40418
 Mn139 Mn 0.43295 -0.00213 0.49937
 Mn140 Mn 0.49852 -0.00145 0.43159
 Cl141 Cl 0.49856 -0.00127 0.49936
 C142 C 0.41733 0.07710 0.41621
 C143 C 0.41746 -0.08070 0.41574
 N144 N 0.46159 0.57174 -0.04001
 N145 N 0.45393 0.59986 -0.06357
 N146 N 0.43345 0.54324 0.03738
 N147 N 0.40613 0.55123 0.06085
 N148 N 0.45950 0.56922 0.03956
 N149 N 0.45058 0.59548 0.06477
 N150 N 0.43639 0.54490 -0.04236
 N151 N 0.41125 0.55376 -0.06805
 C152 C 0.42295 0.58780 -0.08140
 C153 C 0.41738 0.58358 0.07817
 N154 N 0.45845 0.43489 0.03632
 N155 N 0.44981 0.40824 0.06125
 N156 N 0.43528 0.46304 -0.04375
 N157 N 0.40884 0.45498 -0.06822
 N158 N 0.46051 0.43620 -0.04358
 N159 N 0.45198 0.40935 -0.06833
 N160 N 0.43290 0.46139 0.03553
 N161 N 0.40611 0.45336 0.05961
 Mn162 Mn 0.43426 0.50316 -0.00336
 C163 C 0.41724 0.42040 0.07581
 C164 C 0.41990 0.42178 -0.08383
 N165 N 0.53944 0.56868 0.04126
 N166 N 0.54841 0.59600 0.06519
 N167 N 0.56632 0.54383 -0.03863
 N168 N 0.59307 0.55239 -0.06266
 N169 N 0.54139 0.57098 -0.03792
 N170 N 0.55080 0.59891 -0.06106
 N171 N 0.56473 0.54189 0.04126
 N172 N 0.59126 0.55007 0.06569
 Mn173 Mn 0.50047 0.57044 0.00079
 C174 C 0.58039 0.58363 0.08076
 C175 C 0.58278 0.58661 -0.07674
 N176 N 0.54023 0.43505 -0.04111
 N177 N 0.54971 0.40726 -0.06428
 N178 N 0.56402 0.46011 0.03943
 N179 N 0.59007 0.45092 0.06400
 N180 N 0.53845 0.43356 0.03814
 N181 N 0.54684 0.40529 0.06130
 N182 N 0.56583 0.46160 -0.04053
 N183 N 0.59318 0.45270 -0.06374
 Mn184 Mn 0.49935 0.43461 -0.00252
 Mn185 Mn 0.56552 0.50187 0.00033
 Cl186 Cl 0.49995 0.50250 -0.00119
 C187 C 0.58245 0.41898 -0.07874
 C188 C 0.57875 0.41690 0.07777
 C189 C 1.17891 0.17332 0.17445
 C190 C 1.19638 0.20492 0.15788
 C191 C 1.21880 0.22834 0.18045
 C192 C 1.22310 0.22080 0.21943
 C193 C 1.20581 0.18874 0.23548
 C194 C 1.18365 0.16483 0.21310
 C195 C 1.15495 0.14884 0.15093
 C196 C 1.13751 0.11720 0.16750
 C197 C 1.11408 0.09452 0.14521
 C198 C 1.10761 0.10372 0.10684
 C199 C 1.12571 0.13527 0.09058
 C200 C 1.14953 0.15788 0.11248
 C201 C 1.16599 0.13275 0.22859
 C202 C 1.14335 0.10929 0.20616
 C203 C 1.19081 0.21267 0.11915
 C204 C 1.16766 0.18963 0.09687
 H205 H 1.16952 0.12582 0.25835
 H206 H 1.13006 0.08496 0.21927
 H207 H 1.20416 0.23697 0.10604
 H208 H 1.16380 0.19684 0.06722
 H209 H 1.23249 0.25236 0.16749
 H210 H 1.20982 0.18219 0.26525
 H211 H 1.10016 0.07035 0.15798
 H212 H 1.12097 0.14244 0.06103
 C213 C 1.16818 0.67494 0.67787
 C214 C 1.17148 0.71401 0.67014
 C215 C 1.19433 0.73643 0.69320
 C216 C 1.21504 0.71967 0.72250
 C217 C 1.21007 0.68094 0.73111
 C218 C 1.18687 0.65828 0.70861
 C219 C 1.14478 0.65103 0.65329
 C220 C 1.14105 0.61207 0.66135
 C221 C 1.11857 0.58951 0.63797
 C222 C 1.10030 0.60566 0.60657
 C223 C 1.10467 0.64469 0.59867
 C224 C 1.12663 0.66761 0.62217
 C225 C 1.18236 0.61923 0.71589
 C226 C 1.15976 0.59652 0.69269
 C227 C 1.15248 0.72967 0.63907
 C228 C 1.13056 0.70681 0.61536
 H229 H 1.19657 0.60608 0.73958
 H230 H 1.15707 0.56651 0.69924
 H231 H 1.15488 0.75975 0.63278
 H232 H 1.11655 0.71994 0.59153
 H233 H 1.19701 0.76664 0.68755
 H234 H 1.22413 0.66833 0.75511
 H235 H 1.11528 0.55947 0.64419
 H236 H 1.09041 0.65737 0.57474
 C237 C 0.67230 0.17382 0.67467
 C238 C 0.65636 0.19696 0.70266
 C239 C 0.67936 0.21969 0.72536
 C240 C 0.71802 0.21846 0.72094
 C241 C 0.73349 0.19489 0.69291
 C242 C 0.71076 0.17281 0.66940
 C243 C 0.64827 0.15018 0.65044
 C244 C 0.66422 0.12772 0.62190
 C245 C 0.64131 0.10525 0.59897
 C246 C 0.60284 0.10436 0.60509
 C247 C 0.58723 0.12692 0.63389
 C248 C 0.60985 0.15029 0.65642
 C249 C 0.72570 0.14984 0.64066
 C250 C 0.70280 0.12782 0.61716
 C251 C 0.61777 0.19681 0.70744
 C252 C 0.59493 0.17366 0.68489
 H253 H 0.75534 0.14893 0.63624
 H254 H 0.71541 0.11051 0.59528
 H255 H 0.60514 0.21450 0.72900
 H256 H 0.56535 0.17413 0.68974
 H257 H 0.66695 0.23813 0.74629
 H258 H 0.76323 0.19419 0.68910
 H259 H 0.65352 0.08767 0.57705
 H260 H 0.55761 0.12639 0.63858
 C261 C 0.67544 0.67503 0.17388
 C262 C 0.67513 0.71476 0.16947
 C263 C 0.69885 0.73698 0.19174
 C264 C 0.72150 0.71980 0.21921
 C265 C 0.72163 0.68002 0.22329
 C266 C 0.69891 0.65739 0.20031
 C267 C 0.65052 0.65149 0.15061
 C268 C 0.65159 0.61168 0.15420
 C269 C 0.62837 0.58940 0.13132
 C270 C 0.60359 0.60686 0.10598
 C271 C 0.60226 0.64677 0.10334
 C272 C 0.62612 0.66925 0.12517
 C273 C 0.69893 0.61752 0.20343
 C274 C 0.67588 0.59502 0.18051
 C275 C 0.65070 0.73145 0.14334
 C276 C 0.62640 0.70908 0.12174
 H277 H 0.71701 0.60360 0.22364
 H278 H 0.67689 0.56436 0.18361
 H279 H 0.65013 0.76208 0.13982
 H280 H 0.60781 0.72306 0.10206
 H281 H 0.69888 0.76768 0.18864
 H282 H 0.73887 0.66660 0.24451
 H283 H 0.62934 0.55863 0.13335
 H284 H 0.58349 0.66023 0.08344
 C285 C 0.82349 -0.17304 0.17314
 C286 C 0.81879 -0.21172 0.16439
 C287 C 0.79647 -0.23437 0.18788
 C288 C 0.77891 -0.21854 0.21975
 C289 C 0.78314 -0.17953 0.22755
 C290 C 0.80577 -0.15670 0.20458
 C291 C 0.84765 -0.14927 0.14912
 C292 C 0.85308 -0.11081 0.15844
 C293 C 0.87711 -0.08867 0.13625
 C294 C 0.89534 -0.10473 0.10482
 C295 C 0.88886 -0.14310 0.09534
 C296 C 0.86529 -0.16561 0.11762
 C297 C 0.81134 -0.11795 0.21262
 C298 C 0.83472 -0.09543 0.19003
 C299 C 0.83668 -0.22698 0.13246
 C300 C 0.85947 -0.20429 0.10942
 H301 H 0.79780 -0.10502 0.23680
 H302 H 0.83858 -0.06578 0.19746
 H303 H 0.83318 -0.25675 0.12534
 H304 H 0.87293 -0.21722 0.08518
 H305 H 0.79257 -0.26418 0.18118
 H306 H 0.76926 -0.16676 0.25145
 H307 H 0.88188 -0.05912 0.14361
 H308 H 0.90288 -0.15571 0.07126
 C309 C 0.82499 0.32455 0.67533
 C310 C 0.79830 0.30130 0.65805
 C311 C 0.77517 0.27888 0.68089
 C312 C 0.77955 0.27849 0.72061
 C313 C 0.80660 0.30178 0.73745
 C314 C 0.82911 0.32527 0.71497
 C315 C 0.84895 0.34872 0.65148
 C316 C 0.87485 0.37287 0.66886
 C317 C 0.89746 0.39590 0.64607
 C318 C 0.89506 0.39398 0.60622
 C319 C 0.86918 0.36944 0.58919
 C320 C 0.84561 0.34711 0.61176
 C321 C 0.85554 0.34961 0.73130
 C322 C 0.87786 0.37319 0.70865
 C323 C 0.79531 0.30093 0.61826
 C324 C 0.81879 0.32319 0.59549
 H325 H 0.85890 0.35054 0.76185
 H326 H 0.89782 0.39162 0.72238
 H327 H 0.77486 0.28303 0.60458
 H328 H 0.81580 0.32179 0.56492
 H329 H 0.75374 0.26216 0.66754
 H330 H 0.80965 0.30222 0.76800
 H331 H 0.91763 0.41452 0.65929
 H332 H 0.86718 0.36805 0.55851
 C333 C 0.32706 -0.17839 0.67368
 C334 C 0.30171 -0.20304 0.65612
 C335 C 0.27837 -0.22544 0.67877
 C336 C 0.27936 -0.22204 0.71852
 C337 C 0.30497 -0.19739 0.73568
 C338 C 0.32915 -0.17567 0.71340
 C339 C 0.35174 -0.15486 0.65007
 C340 C 0.37755 -0.13077 0.66769
 C341 C 0.40064 -0.10809 0.64513
 C342 C 0.39722 -0.10857 0.60535
 C343 C 0.37130 -0.13290 0.58805
 C344 C 0.34874 -0.15651 0.61033
 C345 C 0.35529 -0.15122 0.73000
 C346 C 0.37925 -0.12930 0.70751
 C347 C 0.30009 -0.20459 0.61629
 C348 C 0.32299 -0.18147 0.59377
 H349 H 0.35725 -0.14901 0.76061
 H350 H 0.39900 -0.11074 0.72141
 H351 H 0.28063 -0.22347 0.60240
 H352 H 0.32052 -0.18314 0.56316
 H353 H 0.25978 -0.24537 0.66531
 H354 H 0.30608 -0.19517 0.76635
 H355 H 0.42035 -0.08911 0.65855
 H356 H 0.36874 -0.13338 0.55739
 C357 C 0.32685 0.33002 0.17502
 C358 C 0.28836 0.33513 0.17467
 C359 C 0.26616 0.31156 0.19726
 C360 C 0.28223 0.28357 0.22052
 C361 C 0.32091 0.27948 0.22128
 C362 C 0.34335 0.30225 0.19810
 C363 C 0.35029 0.35401 0.15054
 C364 C 0.38868 0.34803 0.14989
 C365 C 0.41069 0.37008 0.12554
 C366 C 0.39451 0.39834 0.10265
 C367 C 0.35612 0.40460 0.10434
 C368 C 0.33378 0.38214 0.12788
 C369 C 0.38193 0.29759 0.19727
 C370 C 0.40420 0.31993 0.17337
 C371 C 0.27285 0.36357 0.15163
 C372 C 0.29521 0.38684 0.12876
 H373 H 0.39498 0.27622 0.21494
 H374 H 0.43379 0.31514 0.17324
 H375 H 0.24319 0.36785 0.15124
 H376 H 0.28218 0.40842 0.11134
 H377 H 0.23639 0.31506 0.19694
 H378 H 0.33373 0.25859 0.23953
 H379 H 0.44028 0.36534 0.12439
 H380 H 0.34351 0.42615 0.08653
 C381 C 0.82409 0.17304 -0.17099
 C382 C 0.81932 0.21178 -0.16260
 C383 C 0.79649 0.23401 -0.18602
 C384 C 0.77849 0.21772 -0.21747
 C385 C 0.78284 0.17864 -0.22488
 C386 C 0.80597 0.15624 -0.20199
 C387 C 0.84875 0.14969 -0.14705
 C388 C 0.85418 0.11116 -0.15600
 C389 C 0.87853 0.08937 -0.13382
 C390 C 0.89708 0.10579 -0.10270
 C391 C 0.89066 0.14429 -0.09366
 C392 C 0.86676 0.16646 -0.11595
 C393 C 0.81162 0.11744 -0.20967
 C394 C 0.83543 0.09533 -0.18718
 C395 C 0.83765 0.22749 -0.13111
 C396 C 0.86089 0.20520 -0.10813
 H397 H 0.79779 0.10413 -0.23351
 H398 H 0.83927 0.06563 -0.19433
 H399 H 0.83413 0.25731 -0.12424
 H400 H 0.87462 0.21850 -0.08423
 H401 H 0.79258 0.26387 -0.17961
 H402 H 0.76870 0.16550 -0.24845
 H403 H 0.88319 0.05975 -0.14089
 H404 H 0.90491 0.15722 -0.06985
 C405 C 0.82615 0.67328 0.32477
 C406 C 0.79978 0.69638 0.34264
 C407 C 0.77655 0.71911 0.32034
 C408 C 0.78054 0.71993 0.28063
 C409 C 0.80722 0.69678 0.26316
 C410 C 0.82984 0.67300 0.28508
 C411 C 0.85026 0.64887 0.34804
 C412 C 0.87592 0.62495 0.33009
 C413 C 0.89882 0.60182 0.35237
 C414 C 0.89691 0.60348 0.39223
 C415 C 0.87120 0.62768 0.40983
 C416 C 0.84738 0.65010 0.38780
 C417 C 0.85597 0.64883 0.26816
 C418 C 0.87847 0.62502 0.29028
 C419 C 0.79720 0.69632 0.38245
 C420 C 0.82084 0.67382 0.40468
 H421 H 0.85897 0.64824 0.23756
 H422 H 0.89824 0.60676 0.27613
 H423 H 0.77698 0.71410 0.39655
 H424 H 0.81824 0.67490 0.43530
 H425 H 0.75538 0.73574 0.33412
 H426 H 0.80991 0.69668 0.23258
 H427 H 0.91887 0.58344 0.33877
 H428 H 0.86963 0.62882 0.44055
 C429 C 0.32569 0.17408 0.32503
 C430 C 0.30231 0.20053 0.34271
 C431 C 0.28025 0.22428 0.32017
 C432 C 0.28086 0.22089 0.28042
 C433 C 0.30363 0.19360 0.26316
 C434 C 0.32670 0.17055 0.28532
 C435 C 0.34964 0.14971 0.34852
 C436 C 0.37387 0.12412 0.33077
 C437 C 0.39679 0.10122 0.35323
 C438 C 0.39469 0.10298 0.39307
 C439 C 0.37006 0.12846 0.41050
 C440 C 0.34779 0.15237 0.38828
 C441 C 0.35098 0.14430 0.26861
 C442 C 0.37438 0.12166 0.29096
 C443 C 0.30155 0.20275 0.38253
 C444 C 0.32369 0.17884 0.40495
 H445 H 0.35208 0.14142 0.23801
 H446 H 0.39285 0.10190 0.27698
 H447 H 0.28353 0.22297 0.39648
 H448 H 0.32208 0.18125 0.43557
 H449 H 0.26292 0.24534 0.33369
 H450 H 0.30394 0.19097 0.23249
 H451 H 0.41548 0.08128 0.33976
 H452 H 0.36853 0.12987 0.44120
 C453 C 0.32976 0.67844 -0.17664
 C454 C 0.31664 0.71345 -0.16299
 C455 C 0.29167 0.73433 -0.18511
 C456 C 0.28052 0.72072 -0.22081
 C457 C 0.29545 0.68671 -0.23501
 C458 C 0.31919 0.66475 -0.21248
 C459 C 0.35491 0.65566 -0.15290
 C460 C 0.36652 0.61974 -0.16568
 C461 C 0.38906 0.59743 -0.14213
 C462 C 0.40097 0.61165 -0.10694
 C463 C 0.39018 0.64810 -0.09504
 C464 C 0.36645 0.67000 -0.11761
 C465 C 0.33224 0.62921 -0.22481
 C466 C 0.35515 0.60686 -0.20159
 C467 C 0.32870 0.72679 -0.12751
 C468 C 0.35345 0.70556 -0.10532
 H469 H 0.32418 0.61830 -0.25236
 H470 H 0.36410 0.57933 -0.21187
 H471 H 0.31893 0.75386 -0.11680
 H472 H 0.36208 0.71683 -0.07810
 H473 H 0.28137 0.76132 -0.17475
 H474 H 0.28811 0.67704 -0.26322
 H475 H 0.39754 0.56927 -0.15112
 H476 H 0.39911 0.65869 -0.06761
 C477 C 1.17617 -0.17394 -0.17269
 C478 C 1.18012 -0.21282 -0.16436
 C479 C 1.20183 -0.23554 -0.18820
 C480 C 1.22008 -0.21943 -0.21952
 C481 C 1.21604 -0.18048 -0.22756
 C482 C 1.19386 -0.15755 -0.20425
 C483 C 1.15264 -0.15008 -0.14820
 C484 C 1.14772 -0.11147 -0.15717
 C485 C 1.12434 -0.08922 -0.13445
 C486 C 1.10631 -0.10532 -0.10282
 C487 C 1.11223 -0.14387 -0.09379
 C488 C 1.13507 -0.16650 -0.11662
 C489 C 1.18870 -0.11869 -0.21199
 C490 C 1.16592 -0.09607 -0.18893
 C491 C 1.16218 -0.22818 -0.13247
 C492 C 1.14016 -0.20538 -0.10890
 H493 H 1.20216 -0.10570 -0.23625
 H494 H 1.16243 -0.06631 -0.19611
 H495 H 1.16514 -0.25810 -0.12570
 H496 H 1.12670 -0.21837 -0.08465
 H497 H 1.20480 -0.26566 -0.18227
 H498 H 1.22962 -0.16818 -0.25208
 H499 H 1.11996 -0.05953 -0.14151
 H500 H 1.09829 -0.15653 -0.06963
 C501 C 1.17537 0.32546 0.32754
 C502 C 1.17195 0.28566 0.32774
 C503 C 1.19471 0.26400 0.30391
 C504 C 1.22123 0.28184 0.28076
 C505 C 1.22496 0.32168 0.28167
 C506 C 1.20161 0.34371 0.30449
 C507 C 1.15104 0.34846 0.35195
 C508 C 1.15363 0.38834 0.35077
 C509 C 1.12952 0.41011 0.37306
 C510 C 1.10376 0.39216 0.39705
 C511 C 1.10221 0.35218 0.39872
 C512 C 1.12543 0.33015 0.37574
 C513 C 1.20391 0.38363 0.30464
 C514 C 1.18009 0.40559 0.32715
 C515 C 1.14591 0.26836 0.35182
 C516 C 1.12319 0.29023 0.37560
 H517 H 1.22403 0.39803 0.28691
 H518 H 1.18246 0.43631 0.32611
 H519 H 1.14312 0.23766 0.35235
 H520 H 1.10347 0.27578 0.39376
 H521 H 1.19221 0.23333 0.30395
 H522 H 1.24601 0.33575 0.26502
 H523 H 1.13084 0.44091 0.37189
 H524 H 1.08213 0.33830 0.41693
 C525 C 0.67302 -0.17636 0.32750
 C526 C 0.65720 -0.19969 0.29955
 C527 C 0.68030 -0.22222 0.27697
 C528 C 0.71892 -0.22056 0.28143
 C529 C 0.73430 -0.19701 0.30954
 C530 C 0.71147 -0.17509 0.33293
 C531 C 0.64890 -0.15269 0.35140
 C532 C 0.66474 -0.12990 0.37978
 C533 C 0.64176 -0.10719 0.40221
 C534 C 0.60337 -0.10643 0.39572
 C535 C 0.58783 -0.12940 0.36720
 C536 C 0.61052 -0.15298 0.34515
 C537 C 0.72630 -0.15190 0.36159
 C538 C 0.70328 -0.12981 0.38478
 C539 C 0.61865 -0.19981 0.29457
 C540 C 0.59570 -0.17662 0.31682
 H541 H 0.75592 -0.15081 0.36612
 H542 H 0.71578 -0.11225 0.40657
 H543 H 0.60614 -0.21767 0.27304
 H544 H 0.56615 -0.17722 0.31181
 H545 H 0.66797 -0.24075 0.25604
 H546 H 0.76404 -0.19608 0.31338
 H547 H 0.65387 -0.08928 0.42397
 H548 H 0.55824 -0.12894 0.36227
 C549 C 0.67597 0.32536 -0.17163
 C550 C 0.67468 0.28563 -0.16733
 C551 C 0.69775 0.26286 -0.18979
 C552 C 0.72075 0.27950 -0.21736
 C553 C 0.72172 0.31931 -0.22137
 C554 C 0.69969 0.34246 -0.19820
 C555 C 0.65181 0.34949 -0.14809
 C556 C 0.65383 0.38928 -0.15161
 C557 C 0.63117 0.41209 -0.12865
 C558 C 0.60591 0.39522 -0.10334
 C559 C 0.60377 0.35531 -0.10067
 C560 C 0.62709 0.33228 -0.12256
 C561 C 0.70070 0.38233 -0.20120
 C562 C 0.67838 0.40536 -0.17807
 C563 C 0.65000 0.26951 -0.14105
 C564 C 0.62640 0.29243 -0.11924
 H565 H 0.71898 0.39587 -0.22150
 H566 H 0.68015 0.43598 -0.18115
 H567 H 0.64866 0.23891 -0.13756
 H568 H 0.60756 0.27885 -0.09950
 H569 H 0.69712 0.23217 -0.18663
 H570 H 0.73922 0.33240 -0.24260
 H571 H 0.63276 0.44283 -0.13080
 H572 H 0.58464 0.34224 -0.08086
 C573 C 1.17806 0.17275 -0.17361
 C574 C 1.19573 0.20451 -0.15764
 C575 C 1.21806 0.22758 -0.18072
 C576 C 1.22206 0.21955 -0.21963
 C577 C 1.20449 0.18738 -0.23510
 C578 C 1.18247 0.16379 -0.21219
 C579 C 1.15428 0.14857 -0.14954
 C580 C 1.13673 0.11672 -0.16550
 C581 C 1.11357 0.09425 -0.14268
 C582 C 1.10742 0.10386 -0.10437
 C583 C 1.12554 0.13568 -0.08872
 C584 C 1.14916 0.15807 -0.11117
 C585 C 1.16465 0.13154 -0.22707
 C586 C 1.14223 0.10835 -0.20410
 C587 C 1.19045 0.21274 -0.11898
 C588 C 1.16743 0.19001 -0.09618
 H589 H 1.16792 0.12424 -0.25675
 H590 H 1.12884 0.08386 -0.21675
 H591 H 1.20394 0.23717 -0.10632
 H592 H 1.16382 0.19759 -0.06661
 H593 H 1.23193 0.25171 -0.16822
 H594 H 1.20818 0.18051 -0.26482
 H595 H 1.09964 0.06989 -0.15500
 H596 H 1.12105 0.14317 -0.05924
 C597 C 1.17484 0.67459 0.32620
 C598 C 1.20250 0.65699 0.30460
 C599 C 1.22592 0.67950 0.28207
 C600 C 1.22075 0.71923 0.27954
 C601 C 1.19280 0.73631 0.30159
 C602 C 1.17006 0.71420 0.32525
 C603 C 1.15054 0.65109 0.35045
 C604 C 1.12367 0.66884 0.37306
 C605 C 1.10070 0.64637 0.39613
 C606 C 1.10369 0.60642 0.39567
 C607 C 1.13059 0.58904 0.37265
 C608 C 1.15454 0.61133 0.35042
 C609 C 1.14269 0.73090 0.34811
 C610 C 1.12006 0.70864 0.37179
 C611 C 1.20618 0.61719 0.30591
 C612 C 1.18237 0.59472 0.32811
 H613 H 1.13880 0.76146 0.34779
 H614 H 1.09937 0.72268 0.38901
 H615 H 1.22740 0.60323 0.28930
 H616 H 1.18590 0.56411 0.32795
 H617 H 1.24820 0.66570 0.26705
 H618 H 1.18903 0.76681 0.30103
 H619 H 1.07978 0.65985 0.41355
 H620 H 1.13307 0.55830 0.37239
 C621 C 0.67150 0.17514 0.32508
 C622 C 0.70995 0.17441 0.33058
 C623 C 0.73264 0.19665 0.30717
 C624 C 0.71712 0.22005 0.27898
 C625 C 0.67847 0.22109 0.27441
 C626 C 0.65553 0.19821 0.29700
 C627 C 0.64753 0.15121 0.34909
 C628 C 0.60915 0.15100 0.34283
 C629 C 0.58660 0.12731 0.36511
 C630 C 0.60225 0.10475 0.39392
 C631 C 0.64067 0.10596 0.40033
 C632 C 0.66351 0.12875 0.37766
 C633 C 0.61698 0.19777 0.29197
 C634 C 0.59420 0.17435 0.31431
 C635 C 0.72492 0.15146 0.35938
 C636 C 0.70206 0.12916 0.38268
 H637 H 0.60433 0.21542 0.27034
 H638 H 0.56464 0.17458 0.30927
 H639 H 0.75454 0.15077 0.36398
 H640 H 0.71468 0.11186 0.40460
 H641 H 0.76237 0.19609 0.31107
 H642 H 0.66601 0.23942 0.25339
 H643 H 0.55701 0.12653 0.36021
 H644 H 0.65291 0.08838 0.42229
 C645 C 0.67710 0.67700 -0.17209
 C646 C 0.70006 0.65902 -0.19872
 C647 C 0.72261 0.68134 -0.22226
 C648 C 0.72284 0.72116 -0.21856
 C649 C 0.70061 0.73867 -0.19096
 C650 C 0.67708 0.71676 -0.16810
 C651 C 0.65244 0.65377 -0.14812
 C652 C 0.62856 0.67185 -0.12242
 C653 C 0.60491 0.64965 -0.09994
 C654 C 0.60595 0.60970 -0.10226
 C655 C 0.63024 0.59197 -0.12788
 C656 C 0.65322 0.61394 -0.15134
 C657 C 0.65317 0.73378 -0.14171
 C658 C 0.62911 0.71172 -0.11944
 C659 C 0.69979 0.61913 -0.20143
 C660 C 0.67698 0.59695 -0.17791
 H661 H 0.65281 0.76444 -0.13848
 H662 H 0.61094 0.72597 -0.09959
 H663 H 0.71747 0.60494 -0.22179
 H664 H 0.67777 0.56626 -0.18073
 H665 H 0.73951 0.66765 -0.24357
 H666 H 0.70090 0.76939 -0.18812
 H667 H 0.58651 0.66335 -0.07990
 H668 H 0.63097 0.56118 -0.12972
 C669 C 0.82566 -0.17305 -0.17246
 C670 C 0.82112 -0.21187 -0.16422
 C671 C 0.79878 -0.23425 -0.18796
 C672 C 0.78099 -0.21800 -0.21955
 C673 C 0.78516 -0.17887 -0.22689
 C674 C 0.80783 -0.15632 -0.20368
 C675 C 0.84969 -0.14950 -0.14805
 C676 C 0.85488 -0.11086 -0.15682
 C677 C 0.87866 -0.08888 -0.13420
 C678 C 0.89685 -0.10524 -0.10283
 C679 C 0.89065 -0.14383 -0.09395
 C680 C 0.86733 -0.16619 -0.11669
 C681 C 0.81323 -0.11742 -0.21119
 C682 C 0.83649 -0.09512 -0.18826
 C683 C 0.83909 -0.22751 -0.13247
 C684 C 0.86173 -0.20504 -0.10905
 H685 H 0.79962 -0.10416 -0.23519
 H686 H 0.84016 -0.06533 -0.19527
 H687 H 0.83572 -0.25740 -0.12572
 H688 H 0.87520 -0.21827 -0.08495
 H689 H 0.79494 -0.26415 -0.18159
 H690 H 0.77112 -0.16578 -0.25055
 H691 H 0.88320 -0.05917 -0.14112
 H692 H 0.90465 -0.15669 -0.06995
 C693 C 0.82408 0.32696 0.32297
 C694 C 0.79776 0.30355 0.34066
 C695 C 0.77452 0.28090 0.31820
 C696 C 0.77843 0.28046 0.27845
 C697 C 0.80502 0.30403 0.26117
 C698 C 0.82767 0.32771 0.28328
 C699 C 0.84831 0.35118 0.34645
 C700 C 0.87398 0.37536 0.32871
 C701 C 0.89704 0.39823 0.35119
 C702 C 0.89528 0.39609 0.39106
 C703 C 0.86948 0.37165 0.40842
 C704 C 0.84553 0.34947 0.38621
 C705 C 0.85379 0.35216 0.26656
 C706 C 0.87640 0.37575 0.28888
 C707 C 0.79528 0.30316 0.38048
 C708 C 0.81899 0.32548 0.40288
 H709 H 0.85674 0.35312 0.23597
 H710 H 0.89616 0.39421 0.27485
 H711 H 0.77511 0.28514 0.39447
 H712 H 0.81645 0.32401 0.43350
 H713 H 0.75343 0.26397 0.33188
 H714 H 0.80768 0.30446 0.23058
 H715 H 0.91712 0.41678 0.33772
 H716 H 0.86797 0.37009 0.43913
 C717 C 0.32302 -0.17542 0.32433
 C718 C 0.30080 -0.20310 0.34186
 C719 C 0.27830 -0.22653 0.31932
 C720 C 0.27723 -0.22173 0.27959
 C721 C 0.29877 -0.19290 0.26266
 C722 C 0.32232 -0.17022 0.28481
 C723 C 0.34770 -0.15160 0.34779
 C724 C 0.37094 -0.12489 0.33010
 C725 C 0.39465 -0.10261 0.35251
 C726 C 0.39426 -0.10606 0.39233
 C727 C 0.37052 -0.13266 0.40966
 C728 C 0.34757 -0.15598 0.38744
 C729 C 0.34558 -0.14280 0.26821
 C730 C 0.36969 -0.12074 0.29043
 C731 C 0.30174 -0.20695 0.38157
 C732 C 0.32447 -0.18357 0.40400
 H733 H 0.34541 -0.13861 0.23773
 H734 H 0.38734 -0.10010 0.27646
 H735 H 0.28463 -0.22812 0.39547
 H736 H 0.32416 -0.18732 0.43453
 H737 H 0.26212 -0.24859 0.33293
 H738 H 0.29808 -0.18895 0.23212
 H739 H 0.41258 -0.08182 0.33909
 H740 H 0.37023 -0.13540 0.44032
 C741 C 0.32744 0.32908 -0.17869
 C742 C 0.28896 0.33420 -0.17754
 C743 C 0.26625 0.31020 -0.19907
 C744 C 0.28177 0.28184 -0.22221
 C745 C 0.32042 0.27765 -0.22369
 C746 C 0.34341 0.30081 -0.20149
 C747 C 0.35145 0.35366 -0.15542
 C748 C 0.38986 0.34769 -0.15551
 C749 C 0.41243 0.37034 -0.13226
 C750 C 0.39676 0.39919 -0.10982
 C751 C 0.35833 0.40542 -0.11084
 C752 C 0.33546 0.38237 -0.13318
 C753 C 0.38200 0.29615 -0.20143
 C754 C 0.40482 0.31901 -0.17861
 C755 C 0.27399 0.36320 -0.15489
 C756 C 0.29689 0.38704 -0.13323
 H757 H 0.39463 0.27438 -0.21888
 H758 H 0.43440 0.31420 -0.17906
 H759 H 0.24435 0.36750 -0.15391
 H760 H 0.28426 0.40906 -0.11610
 H761 H 0.23650 0.31381 -0.19820
 H762 H 0.33284 0.25647 -0.24184
 H763 H 0.44203 0.36558 -0.13159
 H764 H 0.34610 0.42740 -0.09333
 C765 C 1.17709 -0.17481 0.17600
 C766 C 1.19375 -0.20691 0.15976
 C767 C 1.21646 -0.23016 0.18225
 C768 C 1.22201 -0.22210 0.22108
 C769 C 1.20545 -0.18930 0.23666
 C770 C 1.18297 -0.16562 0.21429
 C771 C 1.15293 -0.15044 0.15247
 C772 C 1.13637 -0.11821 0.16868
 C773 C 1.11292 -0.09550 0.14634
 C774 C 1.10561 -0.10517 0.10822
 C775 C 1.12278 -0.13742 0.09237
 C776 C 1.14657 -0.16008 0.11434
 C777 C 1.16610 -0.13297 0.22943
 C778 C 1.14326 -0.10966 0.20703
 C779 C 1.18715 -0.21531 0.12132
 C780 C 1.16387 -0.19239 0.09906
 H781 H 1.17047 -0.12545 0.25892
 H782 H 1.13068 -0.08488 0.21991
 H783 H 1.19986 -0.24001 0.10840
 H784 H 1.15929 -0.20011 0.06966
 H785 H 1.22943 -0.25433 0.16905
 H786 H 1.21025 -0.18186 0.26610
 H787 H 1.09978 -0.07081 0.15884
 H788 H 1.11745 -0.14504 0.06306
 C789 C 1.17353 0.32413 0.67228
 C790 C 1.16991 0.28434 0.67221
 C791 C 1.19291 0.26255 0.69578
 C792 C 1.21988 0.28024 0.71849
 C793 C 1.22381 0.32006 0.71736
 C794 C 1.20021 0.34223 0.69489
 C795 C 1.14898 0.34729 0.64816
 C796 C 1.15179 0.38716 0.64922
 C797 C 1.12759 0.40908 0.62710
 C798 C 1.10157 0.39128 0.60331
 C799 C 1.09973 0.35130 0.60183
 C800 C 1.12302 0.32913 0.62470
 C801 C 1.20270 0.38214 0.69464
 C802 C 1.17866 0.40425 0.67245
 C803 C 1.14346 0.26721 0.64852
 C804 C 1.12056 0.28921 0.62497
 H805 H 1.22315 0.39642 0.71204
 H806 H 1.18122 0.43495 0.67339
 H807 H 1.14049 0.23653 0.64809
 H808 H 1.10056 0.27488 0.60707
 H809 H 1.19023 0.23188 0.69590
 H810 H 1.24520 0.33403 0.73360
 H811 H 1.12913 0.43987 0.62811
 H812 H 1.07946 0.33754 0.58377
 C813 C 0.67431 -0.17462 0.67313
 C814 C 0.71275 -0.17328 0.66769
 C815 C 0.73566 -0.19529 0.69104
 C816 C 0.72036 -0.21906 0.71908
 C817 C 0.68172 -0.22069 0.72359
 C818 C 0.65857 -0.19806 0.70107
 C819 C 0.65009 -0.15100 0.64915
 C820 C 0.61170 -0.15146 0.65532
 C821 C 0.58890 -0.12808 0.63308
 C822 C 0.60431 -0.10514 0.60441
 C823 C 0.64274 -0.10567 0.59806
 C824 C 0.66583 -0.12818 0.62069
 C825 C 0.62001 -0.19828 0.70602
 C826 C 0.59698 -0.17516 0.68371
 C827 C 0.72748 -0.14998 0.63901
 C828 C 0.70439 -0.12795 0.61575
 H829 H 0.60754 -0.21622 0.72755
 H830 H 0.56742 -0.17589 0.68868
 H831 H 0.75709 -0.14881 0.63447
 H832 H 0.71683 -0.11037 0.59392
 H833 H 0.76538 -0.19434 0.68714
 H834 H 0.66944 -0.23934 0.74446
 H835 H 0.55930 -0.12782 0.63792
 H836 H 0.65477 -0.08780 0.57620
 C837 C 0.67287 0.32491 0.17159
 C838 C 0.69622 0.34253 0.19817
 C839 C 0.71908 0.31993 0.22103
 C840 C 0.71924 0.28017 0.21677
 C841 C 0.69663 0.26301 0.18919
 C842 C 0.67278 0.28522 0.16697
 C843 C 0.64790 0.34846 0.14831
 C844 C 0.62372 0.33076 0.12257
 C845 C 0.59998 0.35332 0.10055
 C846 C 0.60128 0.39324 0.10336
 C847 C 0.62576 0.41055 0.12915
 C848 C 0.64882 0.38823 0.15212
 C849 C 0.64849 0.26857 0.14064
 C850 C 0.62419 0.29094 0.11899
 C851 C 0.69601 0.38237 0.20152
 C852 C 0.67293 0.40486 0.17866
 H853 H 0.64806 0.23797 0.13693
 H854 H 0.60578 0.27697 0.09911
 H855 H 0.71397 0.39629 0.22186
 H856 H 0.67382 0.43550 0.18192
 H857 H 0.73625 0.33337 0.24232
 H858 H 0.69684 0.23234 0.18592
 H859 H 0.58146 0.33995 0.08035
 H860 H 0.62673 0.44130 0.13136
 C861 C 0.82300 0.17390 0.17143
 C862 C 0.80474 0.15730 0.20248
 C863 C 0.78164 0.17988 0.22511
 C864 C 0.77744 0.21893 0.21742
 C865 C 0.79553 0.23501 0.18589
 C866 C 0.81835 0.21260 0.16273
 C867 C 0.84767 0.15036 0.14777
 C868 C 0.86583 0.16693 0.11665
 C869 C 0.88981 0.14460 0.09467
 C870 C 0.89612 0.10616 0.10408
 C871 C 0.87739 0.08992 0.13519
 C872 C 0.85298 0.11187 0.15705
 C873 C 0.83681 0.22810 0.13119
 C874 C 0.86008 0.20564 0.10849
 C875 C 0.81026 0.11853 0.21048
 C876 C 0.83408 0.09625 0.18826
 H877 H 0.83338 0.25789 0.12409
 H878 H 0.87393 0.21877 0.08455
 H879 H 0.79632 0.10538 0.23436
 H880 H 0.83784 0.06657 0.19566
 H881 H 0.76738 0.16689 0.24871
 H882 H 0.79168 0.26484 0.17923
 H883 H 0.90420 0.15737 0.07086
 H884 H 0.88199 0.06034 0.14252
 C885 C 0.82655 0.67398 0.67440
 C886 C 0.83015 0.67298 0.71409
 C887 C 0.80785 0.69677 0.73633
 C888 C 0.78152 0.72064 0.71918
 C889 C 0.77762 0.72054 0.67943
 C890 C 0.80056 0.69780 0.65683
 C891 C 0.85036 0.64956 0.65080
 C892 C 0.84758 0.65148 0.61104
 C893 C 0.87106 0.62897 0.58872
 C894 C 0.89631 0.60396 0.60601
 C895 C 0.89813 0.60170 0.64587
 C896 C 0.87559 0.62490 0.66844
 C897 C 0.79808 0.69845 0.61701
 C898 C 0.82143 0.67594 0.59449
 C899 C 0.85589 0.64811 0.73069
 C900 C 0.87807 0.62429 0.70826
 H901 H 0.77817 0.71679 0.60312
 H902 H 0.81889 0.67758 0.56388
 H903 H 0.85884 0.64695 0.76128
 H904 H 0.89751 0.60546 0.72219
 H905 H 0.81052 0.69614 0.76691
 H906 H 0.75676 0.73778 0.66583
 H907 H 0.86953 0.63061 0.55802
 H908 H 0.91781 0.58272 0.65928
 C909 C 0.32422 0.17232 0.67385
 C910 C 0.32535 0.16873 0.71356
 C911 C 0.30218 0.19158 0.73576
 C912 C 0.27921 0.21879 0.71856
 C913 C 0.27836 0.22211 0.67879
 C914 C 0.30053 0.19856 0.65621
 C915 C 0.34845 0.14831 0.65031
 C916 C 0.34655 0.15109 0.61056
 C917 C 0.36915 0.12759 0.58831
 C918 C 0.39416 0.10239 0.60569
 C919 C 0.39627 0.10052 0.64553
 C920 C 0.37303 0.12301 0.66803
 C921 C 0.29969 0.20085 0.61639
 C922 C 0.32209 0.17729 0.59393
 C923 C 0.34996 0.14272 0.73022
 C924 C 0.37360 0.12043 0.70783
 H925 H 0.28144 0.22092 0.60245
 H926 H 0.32043 0.17978 0.56332
 H927 H 0.35117 0.13980 0.76082
 H928 H 0.39234 0.10088 0.72180
 H929 H 0.30270 0.18900 0.76644
 H930 H 0.26085 0.24308 0.66531
 H931 H 0.36758 0.12910 0.55761
 H932 H 0.41523 0.08079 0.65897
 C933 C 0.32511 0.67285 0.17683
 C934 C 0.34108 0.70106 0.19972
 C935 C 0.31824 0.72346 0.22283
 C936 C 0.27948 0.71873 0.22226
 C937 C 0.26410 0.68995 0.19923
 C938 C 0.28675 0.66683 0.17666
 C939 C 0.34901 0.64924 0.15243
 C940 C 0.33303 0.62065 0.12995
 C941 C 0.35580 0.59855 0.10652
 C942 C 0.39414 0.60549 0.10482
 C943 C 0.40976 0.63422 0.12760
 C944 C 0.38731 0.65599 0.15176
 C945 C 0.27178 0.63791 0.15381
 C946 C 0.29455 0.61510 0.13097
 C947 C 0.37959 0.70651 0.19883
 C948 C 0.40228 0.68453 0.17509
 H949 H 0.24222 0.63289 0.15353
 H950 H 0.28189 0.59316 0.11371
 H951 H 0.39228 0.72823 0.21636
 H952 H 0.43178 0.68995 0.17497
 H953 H 0.33108 0.74446 0.24090
 H954 H 0.23444 0.68538 0.19902
 H955 H 0.34354 0.57664 0.08888
 H956 H 0.43926 0.63957 0.12652
   
