data_POSCAR
  _audit_creation_date              2014-09-24
  _audit_creation_method            'ToBaCCo'
  _symmetry_space_group_name_H-M    'P1'
  _symmetry_Int_Tables_number       1
  _symmetry_cell_setting            triclinic
  loop_
  _symmetry_equiv_pos_as_xyz
 x,y,z
_cell_length_a 50.7708
_cell_length_b 50.9273
_cell_length_c 29.2367
_cell_angle_alpha 89.871000
_cell_angle_beta 90.062500
_cell_angle_gamma 119.680400
loop_
  _atom_site_label
  _atom_site_type_symbol
  _atom_site_fract_x
  _atom_site_fract_y
  _atom_site_fract_z
O1 O 0.53631 1.02974 0.54342
 O2 O 0.50637 0.97089 0.45452
 O3 O 0.53621 1.02973 0.45427
 O4 O 0.50640 0.97092 0.54363
 O5 O 0.46317 0.97156 0.54361
 O6 O 0.49297 1.03036 0.45428
 O7 O 0.46313 0.97152 0.45450
 O8 O 0.49307 1.03039 0.54342
 Cu9 Cu 0.52569 1.00026 0.49896
 Cu10 Cu 0.47373 1.00103 0.49895
 C11 C 0.51972 1.03996 0.55849
 C12 C 0.47971 0.96129 0.43948
 C13 C 0.51961 1.03994 0.43914
 C14 C 0.47976 0.96134 0.55873
 O15 O 0.02985 0.49259 0.54642
 O16 O -0.02911 0.46246 0.45725
 O17 O 0.02989 0.49246 0.45728
 O18 O -0.02917 0.46262 0.54636
 O19 O -0.03000 0.50562 0.54593
 O20 O 0.02904 0.53546 0.45687
 O21 O -0.02995 0.50546 0.45682
 O22 O 0.02902 0.53559 0.54601
 Cu23 Cu 0.00046 0.47320 0.50188
 Cu24 Cu -0.00055 0.52488 0.50138
 C25 C 0.03936 0.51916 0.56132
 C26 C -0.03945 0.47889 0.44194
 C27 C 0.03939 0.51898 0.44197
 C28 C -0.03954 0.47909 0.56121
 O29 O 0.50830 0.53721 0.54512
 O30 O 0.53770 0.50740 0.45619
 O31 O 0.50816 0.53707 0.45600
 O32 O 0.53780 0.50750 0.54532
 O33 O 0.49439 0.46436 0.54558
 O34 O 0.46475 0.49391 0.45628
 O35 O 0.49429 0.46425 0.45645
 O36 O 0.46488 0.49406 0.54540
 Cu37 Cu 0.52737 0.52665 0.50064
 Cu38 Cu 0.47520 0.47479 0.50096
 C39 C 0.48165 0.52066 0.56031
 C40 C 0.52094 0.48082 0.44124
 C41 C 0.48147 0.52046 0.44102
 C42 C 0.52108 0.48095 0.56058
 O43 O 0.37754 0.66908 -0.05245
 O44 O 0.37832 0.72003 -0.03875
 C45 C 0.35922 0.72419 -0.06107
 O46 O 0.33111 0.71053 -0.05255
 O47 O 0.28011 0.66067 -0.03886
 C48 C 0.27609 0.63760 -0.06115
 O49 O 0.28994 0.62324 -0.05263
 O50 O 0.34011 0.62208 -0.03886
 C51 C 0.36327 0.64108 -0.06106
 O52 O 0.37881 0.66081 0.03862
 O53 O 0.37707 0.71049 0.05234
 C54 C 0.36242 0.72403 0.06085
 O55 O 0.33918 0.71982 0.03853
 O56 O 0.28948 0.66868 0.05221
 C57 C 0.27603 0.64064 0.06074
 O58 O 0.28044 0.62179 0.03845
 O59 O 0.33184 0.62315 0.05220
 C60 C 0.35993 0.63760 0.06082
 Cr61 Cr 0.37623 0.68925 -0.00006
 Cr62 Cr 0.31083 0.68908 -0.00017
 Cr63 Cr 0.31142 0.62426 -0.00021
 O64 O 0.33283 0.66753 -0.00014
 O65 O 0.62262 0.33158 -0.05247
 O66 O 0.62136 0.28035 -0.03890
 C67 C 0.64035 0.27606 -0.06122
 O68 O 0.66845 0.28952 -0.05269
 O69 O 0.71966 0.33910 -0.03888
 C70 C 0.72386 0.36232 -0.06108
 O71 O 0.71022 0.37686 -0.05244
 O72 O 0.66028 0.37840 -0.03866
 C73 C 0.63708 0.35962 -0.06095
 O74 O 0.62134 0.33953 0.03862
 O75 O 0.62263 0.28956 0.05219
 C76 C 0.63709 0.27580 0.06066
 O77 O 0.66028 0.27992 0.03836
 O78 O 0.71021 0.33078 0.05219
 C79 C 0.72382 0.35877 0.06086
 O80 O 0.71963 0.37785 0.03864
 O81 O 0.66842 0.37687 0.05240
 C82 C 0.64031 0.36256 0.06093
 Cr83 Cr 0.62369 0.31110 -0.00014
 Cr84 Cr 0.68880 0.31069 -0.00025
 Cr85 Cr 0.68879 0.37580 -0.00002
 O86 O 0.66709 0.33253 -0.00014
 C87 C 0.46821 0.93860 -0.40625
 C88 C 0.45850 0.91959 -0.37666
 C89 C 0.44691 0.89702 -0.34115
 C90 C 0.44650 0.86957 -0.34723
 C91 C 0.43534 0.84770 -0.31265
 C92 C 0.42439 0.85301 -0.27150
 C93 C 0.42488 0.88068 -0.26577
 C94 C 0.43608 0.90252 -0.30037
 C95 C 0.41262 0.82986 -0.23464
 C96 C 0.38664 0.82417 -0.20962
 C97 C 0.37572 0.80255 -0.17468
 C98 C 0.39058 0.78635 -0.16427
 C99 C 0.41637 0.79177 -0.18902
 C100 C 0.42733 0.81336 -0.22400
 C101 C 0.37947 0.76432 -0.12799
 C102 C 0.37020 0.74595 -0.09749
 H103 H 0.45477 0.86506 -0.37872
 H104 H 0.43491 0.82649 -0.31832
 H105 H 0.41701 0.88561 -0.23427
 H106 H 0.43638 0.92373 -0.29526
 H107 H 0.37458 0.83620 -0.21739
 H108 H 0.35568 0.79848 -0.15581
 H109 H 0.42811 0.77941 -0.18114
 H110 H 0.44759 0.81749 -0.24223
 C111 C 0.06091 0.53016 -0.40556
 C112 C 0.07994 0.53984 -0.37597
 C113 C 0.10250 0.55128 -0.34042
 C114 C 0.13322 0.56899 -0.35154
 C115 C 0.15513 0.58006 -0.31697
 C116 C 0.14656 0.57356 -0.27076
 C117 C 0.11560 0.55573 -0.25996
 C118 C 0.09375 0.54468 -0.29458
 C119 C 0.16977 0.58526 -0.23396
 C120 C 0.16445 0.59626 -0.19290
 C121 C 0.18620 0.60705 -0.15813
 C122 C 0.21353 0.60701 -0.16387
 C123 C 0.21909 0.59621 -0.20460
 C124 C 0.19738 0.58542 -0.23945
 C125 C 0.23576 0.61788 -0.12783
 C126 C 0.25424 0.62692 -0.09747
 H127 H 0.14024 0.57430 -0.38692
 H128 H 0.17873 0.59402 -0.32634
 H129 H 0.10831 0.54999 -0.22479
 H130 H 0.07003 0.53091 -0.28561
 H131 H 0.14361 0.59682 -0.18788
 H132 H 0.18169 0.61544 -0.12678
 H133 H 0.24015 0.59599 -0.20934
 H134 H 0.20199 0.57675 -0.27040
 C135 C 0.47030 0.53220 -0.40481
 C136 C 0.46086 0.54189 -0.37532
 C137 C 0.44970 0.55343 -0.33992
 C138 C 0.46198 0.55807 -0.29586
 C139 C 0.45118 0.56926 -0.26138
 C140 C 0.42791 0.57594 -0.27053
 C141 C 0.41571 0.57118 -0.31496
 C142 C 0.42656 0.56001 -0.34941
 C143 C 0.41640 0.58776 -0.23386
 C144 C 0.38517 0.57750 -0.22973
 C145 C 0.37436 0.58845 -0.19492
 C146 C 0.39458 0.60981 -0.16385
 C147 C 0.42568 0.62024 -0.16777
 C148 C 0.43654 0.60930 -0.20251
 C149 C 0.38343 0.62087 -0.12777
 C150 C 0.37418 0.63012 -0.09738
 H151 H 0.47984 0.55296 -0.28811
 H152 H 0.46075 0.57228 -0.22739
 H153 H 0.39805 0.57646 -0.32323
 H154 H 0.41695 0.55657 -0.38344
 H155 H 0.36907 0.56065 -0.25295
 H156 H 0.35023 0.58016 -0.19211
 H157 H 0.44153 0.63682 -0.14396
 H158 H 0.46073 0.61794 -0.20515
 C159 C 0.53127 0.06263 -0.40653
 C160 C 0.54093 0.08154 -0.37690
 C161 C 0.55239 0.10392 -0.34125
 C162 C 0.56106 0.13402 -0.35117
 C163 C 0.57211 0.15572 -0.31646
 C164 C 0.57459 0.14755 -0.27131
 C165 C 0.56584 0.11722 -0.26172
 C166 C 0.55483 0.09558 -0.29648
 C167 C 0.58621 0.17052 -0.23433
 C168 C 0.57279 0.16348 -0.19066
 C169 C 0.58381 0.18505 -0.15579
 C170 C 0.60837 0.21391 -0.16404
 C171 C 0.62185 0.22118 -0.20736
 C172 C 0.61085 0.19965 -0.24231
 C173 C 0.61976 0.23600 -0.12798
 C174 C 0.62921 0.25436 -0.09758
 H175 H 0.55919 0.14070 -0.38570
 H176 H 0.57830 0.17879 -0.32481
 H177 H 0.56787 0.11030 -0.22746
 H178 H 0.54826 0.07235 -0.28845
 H179 H 0.55354 0.14141 -0.18362
 H180 H 0.57315 0.17922 -0.12242
 H181 H 0.64094 0.24343 -0.21407
 H182 H 0.62191 0.20563 -0.27537
 C183 C 0.93881 0.46817 -0.40582
 C184 C 0.91965 0.45854 -0.37641
 C185 C 0.89688 0.44714 -0.34116
 C186 C 0.87443 0.45548 -0.34045
 C187 C 0.85247 0.44465 -0.30596
 C188 C 0.85268 0.42530 -0.27169
 C189 C 0.87530 0.41698 -0.27280
 C190 C 0.89724 0.42786 -0.30731
 C191 C 0.82953 0.41398 -0.23480
 C192 C 0.81649 0.38391 -0.21939
 C193 C 0.79488 0.37336 -0.18440
 C194 C 0.78603 0.39271 -0.16434
 C195 C 0.79880 0.42264 -0.17948
 C196 C 0.82040 0.43322 -0.21448
 C197 C 0.76400 0.38193 -0.12803
 C198 C 0.74563 0.37295 -0.09751
 H199 H 0.87390 0.47034 -0.36656
 H200 H 0.83514 0.45115 -0.30638
 H201 H 0.87631 0.40246 -0.24659
 H202 H 0.91458 0.42135 -0.30745
 H203 H 0.82275 0.36844 -0.23473
 H204 H 0.78508 0.35013 -0.17301
 H205 H 0.79219 0.43783 -0.16407
 H206 H 0.83030 0.45659 -0.22515
 C207 C 0.53189 0.47014 -0.40623
 C208 C 0.54139 0.46055 -0.37656
 C209 C 0.55259 0.44914 -0.34092
 C210 C 0.56052 0.42706 -0.35076
 C211 C 0.57121 0.41584 -0.31603
 C212 C 0.57407 0.42655 -0.27094
 C213 C 0.56609 0.44879 -0.26145
 C214 C 0.55543 0.45999 -0.29623
 C215 C 0.58523 0.41452 -0.23393
 C216 C 0.57188 0.40858 -0.19022
 C217 C 0.58242 0.39734 -0.15535
 C218 C 0.60643 0.39188 -0.16364
 C219 C 0.61984 0.39767 -0.20699
 C220 C 0.60932 0.40890 -0.24194
 C221 C 0.61732 0.38043 -0.12760
 C222 C 0.62637 0.37089 -0.09725
 H223 H 0.55832 0.41844 -0.38523
 H224 H 0.57680 0.39846 -0.32431
 H225 H 0.56842 0.45778 -0.22724
 H226 H 0.54943 0.47714 -0.28826
 H227 H 0.55303 0.41228 -0.18316
 H228 H 0.57182 0.39285 -0.12195
 H229 H 0.63850 0.39360 -0.21373
 H230 H 0.62031 0.41359 -0.27503
 C231 C 0.93778 0.46724 0.40693
 C232 C 0.91877 0.45748 0.37732
 C233 C 0.89621 0.44586 0.34177
 C234 C 0.86865 0.44543 0.34766
 C235 C 0.84682 0.43430 0.31300
 C236 C 0.85228 0.42341 0.27194
 C237 C 0.88005 0.42389 0.26641
 C238 C 0.90185 0.43506 0.30110
 C239 C 0.82919 0.41171 0.23497
 C240 C 0.82356 0.38584 0.21001
 C241 C 0.80201 0.37500 0.17495
 C242 C 0.78582 0.38984 0.16434
 C243 C 0.79117 0.41553 0.18903
 C244 C 0.81270 0.42640 0.22414
 C245 C 0.76386 0.37883 0.12795
 C246 C 0.74554 0.36964 0.09736
 H247 H 0.86403 0.45368 0.37906
 H248 H 0.82553 0.43387 0.31852
 H249 H 0.88510 0.41606 0.23499
 H250 H 0.92315 0.43538 0.29613
 H251 H 0.83559 0.37380 0.21793
 H252 H 0.79799 0.35504 0.15613
 H253 H 0.77882 0.42725 0.18101
 H254 H 0.81678 0.44658 0.24231
 C255 C 0.53046 0.06140 0.40592
 C256 C 0.54000 0.08034 0.37623
 C257 C 0.55125 0.10279 0.34054
 C258 C 0.57332 0.13261 0.35029
 C259 C 0.58425 0.15439 0.31557
 C260 C 0.57323 0.14660 0.27058
 C261 C 0.55102 0.11656 0.26117
 C262 C 0.54013 0.09483 0.29594
 C263 C 0.58482 0.16968 0.23362
 C264 C 0.59053 0.16240 0.18968
 C265 C 0.60127 0.18407 0.15483
 C266 C 0.60646 0.21328 0.16336
 C267 C 0.60092 0.22078 0.20694
 C268 C 0.59019 0.19915 0.24188
 C269 C 0.61733 0.23547 0.12731
 C270 C 0.62638 0.25395 0.09695
 H271 H 0.58215 0.13900 0.38468
 H272 H 0.60160 0.17723 0.32378
 H273 H 0.54179 0.10995 0.22706
 H274 H 0.52297 0.07183 0.28805
 H275 H 0.58702 0.14005 0.18241
 H276 H 0.60557 0.17805 0.12124
 H277 H 0.60477 0.24330 0.21388
 H278 H 0.58566 0.20534 0.27515
 C279 C 0.53228 0.46934 0.40625
 C280 C 0.54177 0.45981 0.37661
 C281 C 0.55304 0.44856 0.34096
 C282 C 0.55493 0.45882 0.29600
 C283 C 0.56579 0.44790 0.26125
 C284 C 0.57494 0.42653 0.27103
 C285 C 0.57299 0.41638 0.31637
 C286 C 0.56209 0.42733 0.35108
 C287 C 0.58643 0.41489 0.23407
 C288 C 0.61136 0.41052 0.24179
 C289 C 0.62228 0.39976 0.20684
 C290 C 0.60842 0.39320 0.16378
 C291 C 0.58356 0.39739 0.15580
 C292 C 0.57263 0.40816 0.19067
 C293 C 0.61975 0.38232 0.12770
 C294 C 0.62917 0.37326 0.09730
 H295 H 0.54806 0.47532 0.28782
 H296 H 0.56740 0.45646 0.22683
 H297 H 0.57950 0.39967 0.32489
 H298 H 0.56065 0.41917 0.38576
 H299 H 0.62271 0.41585 0.27463
 H300 H 0.64159 0.39668 0.21334
 H301 H 0.57261 0.39230 0.12263
 H302 H 0.55316 0.41089 0.18385
 C303 C 0.06212 0.53048 0.40691
 C304 C 0.08107 0.54010 0.37719
 C305 C 0.10350 0.55154 0.34145
 C306 C 0.13363 0.57279 0.35149
 C307 C 0.15536 0.58401 0.31667
 C308 C 0.14719 0.57413 0.27129
 C309 C 0.11684 0.55271 0.26159
 C310 C 0.09517 0.54151 0.29646
 C311 C 0.17019 0.58613 0.23419
 C312 C 0.16295 0.59311 0.19103
 C313 C 0.18455 0.60429 0.15606
 C314 C 0.21366 0.60864 0.16370
 C315 C 0.22112 0.60182 0.20652
 C316 C 0.19955 0.59065 0.24157
 C317 C 0.23579 0.62000 0.12754
 C318 C 0.25422 0.62946 0.09711
 H319 H 0.14030 0.58077 0.38619
 H320 H 0.17844 0.60074 0.32513
 H321 H 0.10993 0.54435 0.22714
 H322 H 0.07192 0.52501 0.28833
 H323 H 0.14069 0.59027 0.18447
 H324 H 0.17857 0.60958 0.12308
 H325 H 0.24356 0.60502 0.21276
 H326 H 0.20570 0.58514 0.27421
 C327 C 0.46813 0.93851 0.40466
 C328 C 0.45848 0.91945 0.37525
 C329 C 0.44706 0.89682 0.33997
 C330 C 0.43890 0.90321 0.29738
 C331 C 0.42798 0.88133 0.26295
 C332 C 0.42509 0.85273 0.27067
 C333 C 0.43333 0.84652 0.31364
 C334 C 0.44422 0.86843 0.34804
 C335 C 0.41369 0.82956 0.23398
 C336 C 0.42699 0.81136 0.22671
 C337 C 0.41643 0.78977 0.19185
 C338 C 0.39245 0.78605 0.16386
 C339 C 0.37899 0.80395 0.17090
 C340 C 0.38952 0.82557 0.20571
 C341 C 0.38181 0.76405 0.12768
 C342 C 0.37293 0.74572 0.09723
 H343 H 0.44110 0.92514 0.29072
 H344 H 0.42222 0.88694 0.23007
 H345 H 0.43101 0.82461 0.32082
 H346 H 0.45041 0.86323 0.38092
 H347 H 0.44587 0.81416 0.24749
 H348 H 0.42708 0.77610 0.18659
 H349 H 0.36037 0.80120 0.14949
 H350 H 0.37855 0.83894 0.21083
 C351 C 0.47000 0.53185 0.40595
 C352 C 0.46038 0.54130 0.37628
 C353 C 0.44890 0.55244 0.34063
 C354 C 0.45030 0.54505 0.29497
 C355 C 0.43908 0.55574 0.26026
 C356 C 0.42629 0.57400 0.27079
 C357 C 0.42503 0.58134 0.31682
 C358 C 0.43625 0.57060 0.35148
 C359 C 0.41432 0.58530 0.23390
 C360 C 0.41928 0.61504 0.23502
 C361 C 0.40814 0.62568 0.20010
 C362 C 0.39190 0.60677 0.16367
 C363 C 0.38677 0.57714 0.16231
 C364 C 0.39790 0.56645 0.19716
 C365 C 0.38060 0.61777 0.12757
 C366 C 0.37116 0.62688 0.09716
 H367 H 0.46013 0.53108 0.28618
 H368 H 0.44076 0.55004 0.22513
 H369 H 0.41499 0.59503 0.32607
 H370 H 0.43497 0.57638 0.38674
 H371 H 0.43215 0.63021 0.26253
 H372 H 0.41232 0.64870 0.20142
 H373 H 0.37415 0.56228 0.13433
 H374 H 0.39335 0.54333 0.19563
   
