data_POSCAR
  _audit_creation_date              2014-09-24
  _audit_creation_method            'ToBaCCo'
  _symmetry_space_group_name_H-M    'P1'
  _symmetry_Int_Tables_number       1
  _symmetry_cell_setting            triclinic
  loop_
  _symmetry_equiv_pos_as_xyz
 x,y,z
_cell_length_a 35.6463
_cell_length_b 36.5374
_cell_length_c 19.7661
_cell_angle_alpha 89.999900
_cell_angle_beta 89.804900
_cell_angle_gamma 89.897000
loop_
  _atom_site_label
  _atom_site_type_symbol
  _atom_site_fract_x
  _atom_site_fract_y
  _atom_site_fract_z
C1 C 0.68542 0.32504 0.50416
 C2 C 0.70121 0.31340 0.56490
 C3 C 0.72737 0.28473 0.56499
 C4 C 0.73652 0.26585 0.50437
 C5 C 0.71920 0.27770 0.44369
 C6 C 0.69469 0.30766 0.44364
 C7 C 0.76370 0.23418 0.50449
 C8 C 0.78140 0.22222 0.44396
 C9 C 0.80587 0.19215 0.44424
 C10 C 0.81464 0.17487 0.50507
 C11 C 0.79843 0.18667 0.56547
 C12 C 0.77239 0.21536 0.56521
 H13 H 0.66573 0.34776 0.50386
 H14 H 0.74038 0.27774 0.61255
 H15 H 0.72413 0.26393 0.39615
 H16 H 0.77676 0.23602 0.39638
 H17 H 0.83425 0.15208 0.50555
 H18 H 0.75916 0.22238 0.61268
 C19 C 0.18514 0.82495 0.50753
 C20 C 0.20125 0.81344 0.56808
 C21 C 0.22738 0.78476 0.56800
 C22 C 0.23620 0.76574 0.50744
 C23 C 0.21857 0.77744 0.44691
 C24 C 0.19406 0.80743 0.44698
 C25 C 0.26346 0.73414 0.50744
 C26 C 0.28096 0.72224 0.44676
 C27 C 0.30553 0.69232 0.44676
 C28 C 0.31466 0.67506 0.50734
 C29 C 0.29870 0.68676 0.56808
 C30 C 0.27248 0.71539 0.56813
 H31 H 0.16546 0.84768 0.50740
 H32 H 0.24064 0.77787 0.61539
 H33 H 0.22327 0.76354 0.39941
 H34 H 0.27612 0.73593 0.39917
 H35 H 0.33439 0.65236 0.50708
 H36 H 0.25933 0.72244 0.61569
 C37 C 0.31365 0.32473 -0.50399
 C38 C 0.29781 0.31295 -0.56447
 C39 C 0.27181 0.28428 -0.56427
 C40 C 0.26283 0.26551 -0.50350
 C41 C 0.28017 0.27750 -0.44297
 C42 C 0.30457 0.30749 -0.44327
 C43 C 0.23585 0.23378 -0.50336
 C44 C 0.21832 0.22181 -0.44272
 C45 C 0.19398 0.19172 -0.44285
 C46 C 0.18520 0.17440 -0.50361
 C47 C 0.20127 0.18618 -0.56410
 C48 C 0.22716 0.21491 -0.56400
 H49 H 0.33324 0.34744 -0.50418
 H50 H 0.25886 0.27725 -0.61181
 H51 H 0.27537 0.26383 -0.39530
 H52 H 0.22297 0.23564 -0.39519
 H53 H 0.16568 0.15161 -0.50397
 H54 H 0.24028 0.22192 -0.61156
 C55 C -0.18497 0.82541 -0.50606
 C56 C -0.20094 0.81391 -0.56670
 C57 C -0.22693 0.78521 -0.56679
 C58 C -0.23575 0.76614 -0.50632
 C59 C -0.21828 0.77784 -0.44567
 C60 C -0.19390 0.80785 -0.44558
 C61 C -0.26281 0.73449 -0.50658
 C62 C -0.28033 0.72243 -0.44605
 C63 C -0.30478 0.69250 -0.44642
 C64 C -0.31373 0.67536 -0.50718
 C65 C -0.29771 0.68721 -0.56767
 C66 C -0.27167 0.71584 -0.56742
 H67 H -0.16539 0.84815 -0.50581
 H68 H -0.24007 0.77833 -0.61427
 H69 H -0.22300 0.76392 -0.39822
 H70 H -0.27561 0.73602 -0.39833
 H71 H -0.33336 0.65268 -0.50741
 H72 H -0.25857 0.72293 -0.61496
 N73 N -0.03897 0.93456 -0.07292
 N74 N -0.06279 0.90841 -0.08967
 N75 N 0.03994 0.96083 -0.11806
 N76 N 0.06638 0.95494 -0.16351
 N77 N 0.03979 0.93475 -0.07233
 N78 N 0.06603 0.91018 -0.08599
 N79 N -0.03898 0.96060 -0.11871
 N80 N -0.06298 0.95302 -0.16729
 C81 C -0.07803 0.92065 -0.14822
 C82 C 0.08268 0.92346 -0.14270
 N83 N 0.03935 1.06550 -0.07276
 N84 N 0.06321 1.09169 -0.08947
 N85 N -0.03931 1.03922 -0.11825
 N86 N -0.06559 1.04503 -0.16369
 N87 N -0.03941 1.06529 -0.07251
 N88 N -0.06567 1.08979 -0.08615
 N89 N 0.03962 1.03946 -0.11852
 N90 N 0.06383 1.04705 -0.16703
 Mn91 Mn 0.00032 1.00003 -0.11887
 C92 C 0.07874 1.07945 -0.14795
 C93 C -0.08207 1.07647 -0.14288
 N94 N 0.03904 0.93446 0.07411
 N95 N 0.06287 0.90824 0.09090
 N96 N -0.03989 0.96093 0.11924
 N97 N -0.06631 0.95512 0.16471
 N98 N -0.03972 0.93486 0.07352
 N99 N -0.06592 0.91034 0.08721
 N100 N 0.03903 0.96050 0.11988
 N101 N 0.06301 0.95287 0.16849
 Mn102 Mn 0.00004 0.93424 0.00059
 C103 C 0.07808 0.92045 0.14945
 C104 C -0.08258 0.92367 0.14393
 N105 N -0.03941 1.06560 0.07394
 N106 N -0.06327 1.09186 0.09070
 N107 N 0.03927 1.03912 0.11942
 N108 N 0.06553 1.04486 0.16488
 N109 N 0.03935 1.06519 0.07369
 N110 N 0.06558 1.08963 0.08736
 N111 N -0.03965 1.03955 0.11969
 N112 N -0.06385 1.04721 0.16823
 Mn113 Mn -0.00003 1.06581 0.00059
 Mn114 Mn -0.00031 1.00003 0.12004
 Cl115 Cl 0.00000 1.00003 0.00058
 C116 C -0.07879 1.07966 0.14919
 C117 C 0.08198 1.07626 0.14409
 N118 N 0.53973 0.53918 0.11744
 N119 N 0.56602 0.54512 0.16280
 N120 N 0.46080 0.56548 0.07291
 N121 N 0.43677 0.59158 0.08968
 N122 N 0.46081 0.53946 0.11872
 N123 N 0.43662 0.54697 0.16735
 N124 N 0.53956 0.56525 0.07171
 N125 N 0.56563 0.58987 0.08526
 C126 C 0.58222 0.57663 0.14192
 C127 C 0.42144 0.57930 0.14827
 N128 N 0.46012 0.53919 -0.11925
 N129 N 0.43388 0.54519 -0.16471
 N130 N 0.53896 0.56548 -0.07468
 N131 N 0.56298 0.59153 -0.09128
 N132 N 0.53904 0.53948 -0.12052
 N133 N 0.56328 0.54697 -0.16904
 N134 N 0.46019 0.56526 -0.07351
 N135 N 0.43411 0.58993 -0.08718
 Mn136 Mn 0.49987 0.56578 -0.00089
 C137 C 0.41760 0.57673 -0.14390
 C138 C 0.57839 0.57926 -0.14983
 N139 N 0.46070 0.46084 0.11838
 N140 N 0.43452 0.45494 0.16429
 N141 N 0.53946 0.43454 0.07199
 N142 N 0.56351 0.40841 0.08824
 N143 N 0.53962 0.46057 0.11778
 N144 N 0.56395 0.45303 0.16586
 N145 N 0.46070 0.43478 0.07264
 N146 N 0.43462 0.41020 0.08672
 Mn147 Mn 0.50022 0.50001 0.11857
 C148 C 0.41821 0.42346 0.14375
 C149 C 0.57904 0.42068 0.14647
 N150 N 0.53946 0.46083 -0.12019
 N151 N 0.56558 0.45487 -0.16621
 N152 N 0.46079 0.43454 -0.07375
 N153 N 0.43675 0.40847 -0.08983
 N154 N 0.46053 0.46055 -0.11958
 N155 N 0.43614 0.45304 -0.16755
 N156 N 0.53955 0.43477 -0.07444
 N157 N 0.56565 0.41014 -0.08864
 Mn158 Mn 0.49978 0.50001 -0.12039
 Mn159 Mn 0.50013 0.43424 -0.00089
 Cl160 Cl 0.50000 0.50001 -0.00090
 C161 C 0.58197 0.42336 -0.14573
 C162 C 0.42113 0.42073 -0.14802
 C163 C 0.34157 0.36607 0.27261
 C164 C 0.35743 0.34809 0.21675
 C165 C 0.38099 0.36718 0.17218
 C166 C 0.30992 0.33012 0.37364
 C167 C 0.37179 0.42241 0.23816
 C168 C 0.34814 0.40343 0.28219
 C169 C 0.32295 0.34581 0.32534
 C170 C 0.38923 0.40428 0.18378
 H171 H 0.35287 0.31907 0.20927
 H172 H 0.39413 0.35256 0.13073
 H173 H 0.37747 0.45102 0.24812
 H174 H 0.33632 0.41755 0.32553
 C175 C -0.15902 0.86629 0.27287
 C176 C -0.14289 0.84818 0.21742
 C177 C -0.11947 0.86728 0.17265
 C178 C -0.18973 0.83038 0.37480
 C179 C -0.12946 0.92278 0.23752
 C180 C -0.15297 0.90378 0.28175
 C181 C -0.17716 0.84606 0.32612
 C182 C -0.11166 0.90451 0.18368
 H183 H -0.14704 0.81906 0.21053
 H184 H -0.10604 0.85257 0.13162
 H185 H -0.12410 0.95149 0.24700
 H186 H -0.16500 0.91800 0.32479
 C187 C 0.65886 0.63419 0.26957
 C188 C 0.64277 0.65218 0.21414
 C189 C 0.61923 0.63304 0.16990
 C190 C 0.69033 0.67012 0.37042
 C191 C 0.62892 0.57773 0.23531
 C192 C 0.65255 0.59676 0.27901
 C193 C 0.67739 0.65446 0.32216
 C194 C 0.61124 0.59588 0.18141
 H195 H 0.64712 0.68125 0.20679
 H196 H 0.60589 0.64767 0.12882
 H197 H 0.62343 0.54907 0.24519
 H198 H 0.66454 0.58262 0.32203
 C199 C 0.15850 1.13325 0.27257
 C200 C 0.14261 1.15142 0.21716
 C201 C 0.11914 1.13245 0.17257
 C202 C 0.18951 1.16900 0.37401
 C203 C 0.12858 1.07695 0.23757
 C204 C 0.15213 1.09582 0.28162
 C205 C 0.17679 1.15338 0.32555
 C206 C 0.11104 1.09529 0.18375
 H207 H 0.14701 1.18051 0.21012
 H208 H 0.10592 1.14721 0.13155
 H209 H 0.12299 1.04828 0.24717
 H210 H 0.16399 1.08155 0.32462
 C211 C 0.65835 0.36574 -0.27515
 C212 C 0.64256 0.34779 -0.21926
 C213 C 0.61910 0.36695 -0.17449
 C214 C 0.68967 0.32975 -0.37662
 C215 C 0.62826 0.42220 -0.24034
 C216 C 0.65181 0.40314 -0.28457
 C217 C 0.67680 0.34544 -0.32811
 C218 C 0.61089 0.40409 -0.18593
 H219 H 0.64708 0.31873 -0.21191
 H220 H 0.60601 0.35235 -0.13303
 H221 H 0.62260 0.45084 -0.25019
 H222 H 0.66357 0.41725 -0.32794
 C223 C 0.15929 0.86589 -0.27147
 C224 C 0.14316 0.84783 -0.21602
 C225 C 0.11969 0.86700 -0.17130
 C226 C 0.19005 0.82989 -0.37337
 C227 C 0.12961 0.92245 -0.23624
 C228 C 0.15317 0.90339 -0.28041
 C229 C 0.17747 0.84560 -0.32468
 C230 C 0.11181 0.90423 -0.18240
 H231 H 0.14736 0.81870 -0.20907
 H232 H 0.10626 0.85232 -0.13028
 H233 H 0.12420 0.95116 -0.24577
 H234 H 0.16520 0.91757 -0.32345
 C235 C 0.34122 0.63451 -0.27212
 C236 C 0.35724 0.65248 -0.21666
 C237 C 0.38068 0.63327 -0.17221
 C238 C 0.31009 0.67048 -0.37341
 C239 C 0.37102 0.57794 -0.23748
 C240 C 0.34749 0.59704 -0.28138
 C241 C 0.32286 0.65482 -0.32494
 C242 C 0.38864 0.59606 -0.18356
 H243 H 0.35293 0.68158 -0.20945
 H244 H 0.39397 0.64788 -0.13113
 H245 H 0.37650 0.54925 -0.24724
 H246 H 0.33556 0.58292 -0.32443
 C247 C -0.15875 1.13366 -0.27117
 C248 C -0.14286 1.15177 -0.21576
 C249 C -0.11934 1.13274 -0.17123
 C250 C -0.18982 1.16949 -0.37258
 C251 C -0.12871 1.07728 -0.23631
 C252 C -0.15232 1.09621 -0.28029
 C253 C -0.17709 1.15384 -0.32412
 C254 C -0.11118 1.09557 -0.18248
 H255 H -0.14732 1.18086 -0.20867
 H256 H -0.10612 1.14746 -0.13021
 H257 H -0.12307 1.04861 -0.24596
 H258 H -0.16416 1.08199 -0.32330
 C259 C 0.64700 0.64183 -0.28504
 C260 C 0.64165 0.60437 -0.29576
 C261 C 0.62049 0.58381 -0.25014
 C262 C 0.67941 0.67800 -0.38493
 C263 C 0.61108 0.63780 -0.18079
 C264 C 0.63218 0.65848 -0.22694
 C265 C 0.66519 0.66291 -0.33709
 C266 C 0.60438 0.60044 -0.19293
 H267 H 0.65289 0.59123 -0.34064
 H268 H 0.61592 0.55507 -0.26065
 H269 H 0.59888 0.65128 -0.13715
 H270 H 0.63601 0.68751 -0.21832
 C271 C 0.14689 1.14217 -0.28389
 C272 C 0.13178 1.15893 -0.22613
 C273 C 0.11084 1.13824 -0.17971
 C274 C 0.17905 1.17806 -0.38450
 C275 C 0.12098 1.08403 -0.24811
 C276 C 0.14198 1.10460 -0.29398
 C277 C 0.16494 1.16317 -0.33629
 C278 C 0.10458 1.10074 -0.19124
 H279 H 0.13525 1.18804 -0.21798
 H280 H 0.09841 1.15180 -0.13636
 H281 H 0.11676 1.05519 -0.25816
 H282 H 0.15344 1.09135 -0.33856
 C283 C 0.35244 0.35806 -0.28208
 C284 C 0.36754 0.34138 -0.22443
 C285 C 0.38864 0.36208 -0.17859
 C286 C 0.32022 0.32192 -0.38179
 C287 C 0.37866 0.41617 -0.24730
 C288 C 0.35750 0.39559 -0.29261
 C289 C 0.33434 0.33698 -0.33400
 C290 C 0.39508 0.39951 -0.19060
 H291 H 0.36394 0.31230 -0.21598
 H292 H 0.40108 0.34858 -0.13535
 H293 H 0.38302 0.44496 -0.25769
 H294 H 0.34604 0.40876 -0.33713
 C295 C -0.14593 0.85800 -0.28387
 C296 C -0.13122 0.84131 -0.22590
 C297 C -0.11033 0.86198 -0.17963
 C298 C -0.17818 0.82205 -0.38392
 C299 C -0.11972 0.91606 -0.24861
 C300 C -0.14066 0.89551 -0.29434
 C301 C -0.16402 0.83699 -0.33599
 C302 C -0.10374 0.89940 -0.19150
 H303 H -0.13498 0.81225 -0.21745
 H304 H -0.09823 0.84846 -0.13609
 H305 H -0.11524 0.94484 -0.25893
 H306 H -0.15182 0.90871 -0.33909
 C307 C 0.35325 0.64191 0.28446
 C308 C 0.36807 0.65865 0.22651
 C309 C 0.38900 0.63798 0.17999
 C310 C 0.32119 0.67793 0.38503
 C311 C 0.37940 0.58380 0.24867
 C312 C 0.35841 0.60436 0.29465
 C313 C 0.33526 0.66293 0.33690
 C314 C 0.39554 0.60052 0.19163
 H315 H 0.36438 0.68775 0.21830
 H316 H 0.40124 0.65153 0.13650
 H317 H 0.38384 0.55498 0.25878
 H318 H 0.34715 0.59113 0.33939
 C319 C -0.14689 1.14253 0.28533
 C320 C -0.13181 1.15927 0.22758
 C321 C -0.11088 1.13854 0.18110
 C322 C -0.17912 1.17846 0.38596
 C323 C -0.12099 1.08432 0.24940
 C324 C -0.14197 1.10493 0.29533
 C325 C -0.16496 1.16355 0.33776
 C326 C -0.10461 1.10101 0.19254
 H327 H -0.13530 1.18840 0.21949
 H328 H -0.09846 1.15208 0.13776
 H329 H -0.11676 1.05546 0.25939
 H330 H -0.15342 1.09169 0.33990
 C331 C 0.64731 0.35799 0.28151
 C332 C 0.63221 0.34121 0.22402
 C333 C 0.61127 0.36191 0.17780
 C334 C 0.67918 0.32198 0.38191
 C335 C 0.62145 0.41618 0.24583
 C336 C 0.64245 0.39560 0.29150
 C337 C 0.66521 0.33696 0.33383
 C338 C 0.60501 0.39943 0.18930
 H339 H 0.63566 0.31206 0.21599
 H340 H 0.59880 0.34833 0.13471
 H341 H 0.61722 0.44504 0.25582
 H342 H 0.65392 0.40885 0.33589
 C343 C 0.14594 0.85766 0.28531
 C344 C 0.13125 0.84097 0.22735
 C345 C 0.11038 0.86168 0.18102
 C346 C 0.17825 0.82167 0.38538
 C347 C 0.11975 0.91578 0.24989
 C348 C 0.14067 0.89518 0.29569
 C349 C 0.16405 0.83662 0.33746
 C350 C 0.10379 0.89913 0.19279
 H351 H 0.13503 0.81190 0.21897
 H352 H 0.09830 0.84818 0.13749
 H353 H 0.11526 0.94458 0.26015
 H354 H 0.15182 0.90838 0.34041
   
