data_POSCAR
  _audit_creation_date              2014-09-24
  _audit_creation_method            'ToBaCCo'
  _symmetry_space_group_name_H-M    'P1'
  _symmetry_Int_Tables_number       1
  _symmetry_cell_setting            triclinic
  loop_
  _symmetry_equiv_pos_as_xyz
 x,y,z
_cell_length_a 32.5090
_cell_length_b 32.2497
_cell_length_c 32.5669
_cell_angle_alpha 85.378200
_cell_angle_beta 82.851500
_cell_angle_gamma 86.925700
loop_
  _atom_site_label
  _atom_site_type_symbol
  _atom_site_fract_x
  _atom_site_fract_y
  _atom_site_fract_z
C1 C 0.52477 0.40264 0.01351
 C2 C 0.55449 0.43028 0.01704
 C3 C 0.54265 0.46727 -0.00356
 N4 N 0.50703 0.46351 -0.01995
 C5 C 0.49608 0.42382 -0.00953
 C6 C 0.56958 0.50449 -0.01154
 C7 C 0.54845 0.54356 -0.03132
 C8 C 0.56969 0.57495 -0.05489
 C9 C 0.54118 0.60707 -0.06122
 C10 C 0.50341 0.59449 -0.04068
 N11 N 0.50781 0.55504 -0.02360
 C12 C 0.46637 0.61975 -0.03595
 C13 C 0.42740 0.60150 -0.03314
 C14 C 0.38892 0.62163 -0.02368
 C15 C 0.35969 0.59332 -0.02665
 C16 C 0.38116 0.55674 -0.03737
 N17 N 0.42249 0.56173 -0.04139
 C18 C 0.36253 0.52015 -0.04504
 C19 C 0.38471 0.48158 -0.04884
 C20 C 0.37087 0.44753 -0.06574
 C21 C 0.39898 0.41499 -0.05923
 C22 C 0.42921 0.43020 -0.03866
 N23 N 0.42044 0.47090 -0.03273
 C24 C 0.46202 0.40589 -0.02318
 H25 H 0.52460 0.37054 0.02608
 H26 H 0.58216 0.42379 0.03221
 H27 H 0.43499 0.48896 -0.01421
 H28 H 0.60238 0.57473 -0.06632
 H29 H 0.54761 0.63648 -0.07867
 H30 H 0.38216 0.65319 -0.01507
 H31 H 0.32641 0.59897 -0.02115
 H32 H 0.39699 0.38357 -0.06803
 H33 H 0.48563 0.53909 -0.00329
 H34 H 0.34300 0.44605 -0.08050
 C35 C -0.05301 0.56195 0.60424
 C36 C -0.04609 0.59344 0.57367
 C37 C -0.02171 0.57624 0.54067
 N38 N -0.01446 0.53502 0.54976
 C39 C -0.03339 0.52636 0.58868
 C40 C -0.00577 0.59827 0.50306
 C41 C 0.00497 0.57755 0.46605
 C42 C 0.02755 0.59438 0.43006
 C43 C 0.02790 0.56623 0.40058
 C44 C 0.00636 0.53243 0.41936
 N45 N -0.00754 0.53954 0.45925
 C46 C -0.00259 0.49772 0.39868
 C47 C -0.01270 0.45883 0.41964
 C48 C -0.02029 0.42348 0.40067
 C49 C -0.02447 0.39171 0.43132
 C50 C -0.01927 0.40861 0.46806
 N51 N -0.01166 0.44949 0.46070
 C52 C -0.01809 0.38559 0.50673
 C53 C -0.01655 0.40410 0.54454
 C54 C -0.01095 0.38241 0.58219
 C55 C -0.01441 0.41113 0.61155
 C56 C -0.02249 0.44959 0.59126
 N57 N -0.02388 0.44504 0.55056
 C58 C -0.03166 0.48702 0.61095
 H59 H -0.07114 0.56475 0.63417
 H60 H -0.05843 0.62516 0.57538
 H61 H -0.03412 0.46790 0.52943
 H62 H 0.04227 0.62397 0.42514
 H63 H 0.04247 0.57037 0.36889
 H64 H -0.02125 0.42027 0.36801
 H65 H -0.02970 0.35962 0.42678
 H66 H -0.01212 0.40423 0.64429
 H67 H -0.02855 0.52178 0.47902
 H68 H -0.00593 0.34923 0.58848
 C69 C 0.42013 0.02284 0.55757
 C70 C 0.44627 0.02342 0.58748
 C71 C 0.48349 0.00373 0.57228
 N72 N 0.48090 -0.00851 0.53398
 C73 C 0.44214 0.00295 0.52507
 C74 C 0.51826 -0.00529 0.59423
 C75 C 0.55688 -0.01903 0.57328
 C76 C 0.58618 -0.04558 0.59057
 C77 C 0.62024 -0.04805 0.56115
 C78 C 0.61086 -0.02303 0.52660
 N79 N 0.57163 -0.00652 0.53375
 C80 C 0.63828 -0.01509 0.48970
 C81 C 0.62232 -0.00817 0.45101
 C82 C 0.64476 0.00464 0.41341
 C83 C 0.61848 0.00412 0.38366
 C84 C 0.58071 -0.00849 0.40395
 N85 N 0.58304 -0.01597 0.44509
 C86 C 0.54574 -0.01532 0.38409
 C87 C 0.50596 -0.02156 0.40605
 C88 C 0.47320 -0.03799 0.39013
 C89 C 0.43923 -0.03512 0.41965
 C90 C 0.45226 -0.01739 0.45293
 N91 N 0.49303 -0.00941 0.44450
 C92 C 0.42608 -0.00630 0.48866
 H93 H 0.38866 0.03593 0.55947
 H94 H 0.43859 0.03720 0.61682
 H95 H 0.50984 0.00776 0.46186
 H96 H 0.58324 -0.06182 0.62112
 H97 H 0.64845 -0.06668 0.56465
 H98 H 0.67662 0.01369 0.40759
 H99 H 0.62628 0.01228 0.35082
 H100 H 0.40839 -0.04474 0.41679
 H101 H 0.55730 0.01554 0.51430
 H102 H 0.47354 -0.05035 0.36017
 O103 O 0.51072 0.00920 -0.07191
 O104 O 0.49231 0.00687 0.04207
 O105 O 0.50126 0.06534 -0.01817
 O106 O 0.50200 -0.04912 -0.01245
 O107 O 0.56957 -0.05213 -0.00924
 O108 O 0.56890 0.06249 -0.01542
 O109 O 0.55995 0.00421 0.04478
 O110 O 0.57839 0.00635 -0.06929
 Cu111 Cu 0.49475 0.00837 -0.01525
 Cu112 Cu 0.57599 0.00491 -0.01193
 C113 C 0.54766 0.00805 -0.09000
 C114 C 0.52298 0.00526 0.06284
 C115 C 0.53501 0.08341 -0.01802
 C116 C 0.53596 -0.07011 -0.01026
 O117 O -0.08697 0.55573 1.01496
 O118 O 0.02531 0.53237 1.00323
 O119 O -0.02920 0.55200 0.95230
 O120 O -0.03225 0.53528 1.06591
 O121 O -0.04355 0.46878 1.06248
 O122 O -0.03900 0.48518 0.94888
 O123 O 0.01509 0.46556 1.00039
 O124 O -0.09738 0.48915 1.01080
 Cu125 Cu -0.02972 0.55057 1.00950
 Cu126 Cu -0.04232 0.47044 1.00534
 C127 C -0.11131 0.52638 1.01460
 C128 C 0.03937 0.49516 0.99980
 C129 C -0.03339 0.52136 0.93123
 C130 C -0.03846 0.49916 1.08351
 O131 O 0.02645 -0.06922 0.52626
 O132 O 0.02546 0.04541 0.52242
 O133 O 0.08338 -0.01419 0.52296
 O134 O -0.03083 -0.00985 0.52467
 O135 O -0.03792 -0.01189 0.59311
 O136 O 0.07594 -0.01768 0.59145
 O137 O 0.01926 0.04232 0.59090
 O138 O 0.01896 -0.07198 0.59475
 Cu139 Cu 0.02692 -0.01164 0.51720
 Cu140 Cu 0.01832 -0.01508 0.59937
 C141 C 0.02256 -0.09007 0.56123
 C142 C 0.02229 0.06334 0.55610
 C143 C 0.09907 -0.01677 0.55700
 C144 C -0.05380 -0.01020 0.55926
 C145 C -0.38372 0.49980 0.99883
 C146 C -0.35858 0.53285 1.00065
 C147 C -0.31457 0.52581 1.00703
 C148 C -0.28921 0.55998 1.00377
 C149 C -0.24688 0.55412 1.00722
 C150 C -0.22921 0.51376 1.01445
 C151 C -0.25484 0.47968 1.01845
 C152 C -0.29708 0.48555 1.01483
 C153 C -0.18420 0.50544 1.01579
 C154 C -0.15610 0.53614 1.01794
 H155 H -0.37100 0.56457 0.99697
 H156 H -0.30198 0.59126 0.99756
 H157 H -0.22833 0.58127 1.00304
 H158 H -0.24204 0.44829 1.02389
 H159 H -0.31582 0.45847 1.01765
 H160 H -0.17248 0.47342 1.01432
 H161 H -0.40710 0.50494 0.99269
 H162 H -0.16652 0.56818 1.02139
 C163 C 0.31761 0.52282 0.95114
 C164 C 0.29051 0.49610 0.97540
 C165 C 0.24493 0.50171 0.97803
 C166 C 0.22059 0.46767 0.99224
 C167 C 0.17733 0.47218 0.99672
 C168 C 0.15766 0.51105 0.98711
 C169 C 0.18205 0.54518 0.97348
 C170 C 0.22522 0.54068 0.96898
 C171 C 0.11210 0.51787 0.99235
 C172 C 0.08431 0.48604 0.99497
 H173 H 0.30331 0.47022 0.99384
 H174 H 0.23511 0.43754 1.00013
 H175 H 0.15970 0.44539 1.00858
 H176 H 0.16763 0.57559 0.96653
 H177 H 0.24278 0.56808 0.95953
 H178 H 0.09987 0.54979 0.99277
 H179 H 0.30583 0.54870 0.93210
 H180 H 0.09527 0.45400 0.99235
 C181 C -0.00124 -0.35810 0.50097
 C182 C 0.00650 -0.33617 0.53444
 C183 C 0.01019 -0.29037 0.53191
 C184 C 0.02947 -0.27287 0.56226
 C185 C 0.03296 -0.22979 0.56148
 C186 C 0.01688 -0.20322 0.53038
 C187 C -0.00219 -0.22066 0.49990
 C188 C -0.00596 -0.26370 0.50083
 C189 C 0.01979 -0.15746 0.52852
 C190 C 0.02193 -0.13574 0.56350
 H191 H 0.01303 -0.35342 0.56300
 H192 H 0.04211 -0.29264 0.58657
 H193 H 0.04880 -0.21757 0.58490
 H194 H -0.01492 -0.20082 0.47569
 H195 H -0.02221 -0.27562 0.47759
 H196 H 0.01742 -0.14000 0.49898
 H197 H -0.00009 -0.34096 0.47101
 H198 H 0.02100 -0.15228 0.59384
 C199 C -0.01861 0.33963 0.50716
 C200 C 0.01550 0.31416 0.51650
 C201 C 0.01619 0.26830 0.51660
 C202 C 0.03975 0.24422 0.54375
 C203 C 0.04068 0.20076 0.54506
 C204 C 0.01841 0.18058 0.51873
 C205 C -0.00397 0.20469 0.49053
 C206 C -0.00536 0.24817 0.48963
 C207 C 0.01879 0.13466 0.51938
 C208 C 0.02240 0.10895 0.55540
 H209 H 0.04176 0.32831 0.52639
 H210 H 0.05712 0.25909 0.56435
 H211 H 0.05933 0.18310 0.56623
 H212 H -0.02080 0.18982 0.46948
 H213 H -0.02273 0.26586 0.46736
 H214 H 0.01350 0.12083 0.49135
 H215 H -0.04549 0.32629 0.49775
 H216 H 0.02384 0.12257 0.58448
 C217 C 0.51278 -0.00289 -0.36215
 C218 C 0.54491 0.00271 -0.33844
 C219 C 0.53866 0.00350 -0.29263
 C220 C 0.56845 0.02168 -0.27291
 C221 C 0.56392 0.02266 -0.22973
 C222 C 0.52953 0.00506 -0.20533
 C223 C 0.49978 -0.01315 -0.22501
 C224 C 0.50443 -0.01437 -0.26812
 C225 C 0.52313 0.00582 -0.15961
 C226 C 0.55535 0.00858 -0.13550
 H227 H 0.57543 0.00957 -0.35408
 H228 H 0.59517 0.03554 -0.29103
 H229 H 0.58700 0.03785 -0.21579
 H230 H 0.47309 -0.02704 -0.20687
 H231 H 0.48146 -0.02995 -0.28181
 H232 H 0.49195 0.00184 -0.14413
 H233 H 0.48159 -0.00236 -0.34626
 H234 H 0.58716 0.00952 -0.14987
 C235 C 0.55214 -0.01784 0.33839
 C236 C 0.52663 0.00461 0.31222
 C237 C 0.53252 0.00381 0.26641
 C238 C 0.49913 0.01668 0.24426
 C239 C 0.50330 0.01666 0.20101
 C240 C 0.54118 0.00374 0.17890
 C241 C 0.57481 -0.00828 0.20101
 C242 C 0.57064 -0.00828 0.24424
 C243 C 0.54742 0.00363 0.13302
 C244 C 0.51512 0.00484 0.10835
 H245 H 0.50034 0.02285 0.32614
 H246 H 0.46963 0.02676 0.26051
 H247 H 0.47695 0.02748 0.18524
 H248 H 0.60454 -0.01770 0.18474
 H249 H 0.59763 -0.01703 0.25981
 H250 H 0.57907 0.00138 0.11805
 H251 H 0.57877 -0.03618 0.32559
 H252 H 0.48316 0.00501 0.12230
 C253 C 0.46754 -0.33637 -0.03595
 C254 C 0.50029 -0.31567 -0.02363
 C255 C 0.50065 -0.26976 -0.02283
 C256 C 0.52752 -0.25292 0.00139
 C257 C 0.52872 -0.20983 0.00322
 C258 C 0.50315 -0.18264 -0.01948
 C259 C 0.47642 -0.19940 -0.04381
 C260 C 0.47545 -0.24243 -0.04591
 C261 C 0.50287 -0.13690 -0.01791
 C262 C 0.53681 -0.11582 -0.00926
 H263 H 0.52522 -0.33380 -0.01065
 H264 H 0.54734 -0.27320 0.01939
 H265 H 0.54907 -0.19809 0.02304
 H266 H 0.45656 -0.17906 -0.06173
 H267 H 0.45531 -0.25385 -0.06609
 H268 H 0.47570 -0.11889 -0.02647
 H269 H 0.44022 -0.31769 -0.04228
 H270 H 0.56552 -0.13279 -0.00398
 C271 C 0.45983 0.35988 -0.02088
 C272 C 0.49316 0.33451 -0.03698
 C273 C 0.49372 0.28837 -0.03422
 C274 C 0.53192 0.26651 -0.04287
 C275 C 0.53437 0.22300 -0.04010
 C276 C 0.49847 0.20029 -0.02846
 C277 C 0.46012 0.22213 -0.02081
 C278 C 0.45765 0.26566 -0.02358
 C279 C 0.49946 0.15414 -0.02503
 C280 C 0.53538 0.12913 -0.02101
 H281 H 0.52113 0.34942 -0.05104
 H282 H 0.56012 0.28317 -0.05168
 H283 H 0.56437 0.20758 -0.04769
 H284 H 0.43189 0.20542 -0.01243
 H285 H 0.42738 0.28099 -0.01776
 H286 H 0.47029 0.13918 -0.02435
 H287 H 0.43080 0.34673 -0.00776
 H288 H 0.56465 0.14297 -0.01948
 C289 C -0.31798 -0.01665 0.49018
 C290 C -0.29809 -0.00976 0.52476
 C291 C -0.25217 -0.01101 0.52445
 C292 C -0.23542 0.00762 0.55583
 C293 C -0.19244 0.00727 0.55678
 C294 C -0.16512 -0.01207 0.52638
 C295 C -0.18181 -0.03081 0.49508
 C296 C -0.22478 -0.03072 0.49429
 C297 C -0.11929 -0.01249 0.52565
 C298 C -0.09942 -0.00866 0.56076
 H299 H -0.31664 0.00024 0.55246
 H300 H -0.25567 0.02295 0.57953
 H301 H -0.18086 0.02290 0.58087
 H302 H -0.16150 -0.04604 0.47136
 H303 H -0.23611 -0.04664 0.47028
 H304 H -0.10040 -0.01810 0.49663
 H305 H -0.29836 -0.02023 0.46135
 H306 H -0.11754 -0.00621 0.59073
 C307 C 0.38044 -0.00336 0.48661
 C308 C 0.35199 -0.02118 0.51805
 C309 C 0.30613 -0.01952 0.51772
 C310 C 0.28129 -0.03568 0.55319
 C311 C 0.23802 -0.03481 0.55481
 C312 C 0.21837 -0.01753 0.52085
 C313 C 0.24316 -0.00200 0.48510
 C314 C 0.28646 -0.00279 0.48349
 C315 C 0.17250 -0.01604 0.52111
 C316 C 0.14448 -0.01878 0.55736
 H317 H 0.36417 -0.03718 0.54482
 H318 H 0.29543 -0.04915 0.57990
 H319 H 0.22037 -0.04835 0.58250
 H320 H 0.22893 0.01109 0.45831
 H321 H 0.30395 0.00959 0.45523
 H322 H 0.16028 -0.01092 0.49155
 H323 H 0.37004 0.01098 0.45839
 H324 H 0.15576 -0.02133 0.58736
 C325 C 0.00147 0.50206 1.35271
 C326 C -0.03261 0.49806 1.33146
 C327 C -0.03073 0.50410 1.28581
 C328 C -0.05856 0.48345 1.26583
 C329 C -0.05797 0.48869 1.22274
 C330 C -0.02970 0.51516 1.19885
 C331 C -0.00263 0.53670 1.21895
 C332 C -0.00292 0.53110 1.26200
 C333 C -0.02863 0.52196 1.15327
 C334 C -0.04004 0.49195 1.12880
 H335 H -0.06155 0.48858 1.34906
 H336 H -0.08073 0.46303 1.28362
 H337 H -0.08021 0.47266 1.20843
 H338 H 0.01895 0.55777 1.20125
 H339 H 0.01801 0.54862 1.27652
 H340 H -0.01633 0.55068 1.13827
 H341 H 0.03102 0.51050 1.33592
 H342 H -0.04894 0.46168 1.14284
 C343 C -0.04055 0.48414 0.65692
 C344 C -0.02109 0.50909 0.68117
 C345 C -0.02621 0.50553 0.72720
 C346 C -0.01265 0.53779 0.74795
 C347 C -0.01572 0.53542 0.79128
 C348 C -0.03254 0.50050 0.81492
 C349 C -0.04572 0.46807 0.79415
 C350 C -0.04262 0.47043 0.75084
 C351 C -0.03546 0.49579 0.86088
 C352 C -0.03140 0.52825 0.88581
 H353 H -0.00094 0.53263 0.66544
 H354 H 0.00063 0.56493 0.73052
 H355 H -0.00407 0.56064 0.80575
 H356 H -0.05827 0.44056 0.81152
 H357 H -0.05233 0.44423 0.73635
 H358 H -0.04180 0.46518 0.87589
 H359 H -0.06059 0.46006 0.67131
 H360 H -0.02698 0.55964 0.87226
   
