data_POSCAR
  _audit_creation_date              2014-09-24
  _audit_creation_method            'ToBaCCo'
  _symmetry_space_group_name_H-M    'P1'
  _symmetry_Int_Tables_number       1
  _symmetry_cell_setting            triclinic
  loop_
  _symmetry_equiv_pos_as_xyz
 x,y,z
_cell_length_a 27.5763
_cell_length_b 27.5258
_cell_length_c 27.6088
_cell_angle_alpha 117.482300
_cell_angle_beta 63.124700
_cell_angle_gamma 61.253000
loop_
  _atom_site_label
  _atom_site_type_symbol
  _atom_site_fract_x
  _atom_site_fract_y
  _atom_site_fract_z
C1 C 0.53833 0.50961 0.01259
 C2 C 0.49075 0.55677 0.00856
 C3 C 0.44257 0.55238 0.00670
 C4 C 0.43974 0.50316 0.00812
 C5 C 0.48582 0.45851 0.01400
 C6 C 0.53352 0.46251 0.01605
 H7 H 0.56542 0.43000 0.02321
 H8 H 0.40718 0.58734 0.00293
 C9 C -0.00686 0.46135 0.51150
 C10 C 0.00504 0.50214 0.54893
 C11 C 0.01927 0.53759 0.53113
 C12 C 0.02029 0.53683 0.47903
 C13 C 0.00599 0.49765 0.44404
 C14 C -0.00500 0.45934 0.45895
 H15 H -0.00904 0.42401 0.42555
 H16 H 0.01967 0.57570 0.56798
 C17 C 0.49693 0.00812 0.45408
 C18 C 0.44916 0.00522 0.50006
 C19 C 0.44293 0.01461 0.55809
 C20 C 0.48736 0.02007 0.56691
 C21 C 0.53701 0.02046 0.51845
 C22 C 0.53873 0.01619 0.46484
 H23 H 0.57328 0.01977 0.43046
 H24 H 0.40578 0.01380 0.59440
 O25 O 0.42229 0.04682 -0.00929
 O26 O 0.42242 0.07933 0.13568
 O27 O 0.42854 0.13091 0.07580
 O28 O 0.42922 -0.01665 0.03896
 O29 O 0.61203 -0.17717 -0.11809
 O30 O 0.61167 -0.03132 -0.08162
 O31 O 0.60550 -0.08376 -0.02199
 O32 O 0.60514 -0.11348 -0.16579
 Cu33 Cu 0.40719 0.07625 0.07615
 Cu34 Cu 0.62602 -0.11655 -0.11158
 C35 C 0.51356 -0.03648 -0.11150
 C36 C 0.51402 0.00103 0.08066
 C37 C 0.52114 0.07294 -0.00016
 C38 C 0.52098 -0.12177 -0.04435
 O39 O -0.16871 0.60648 1.11127
 O40 O -0.01524 0.59567 1.07152
 O41 O -0.08190 0.60911 1.02464
 O42 O -0.09998 0.58998 1.15381
 O43 O 0.06176 0.40597 0.99067
 O44 O 0.07695 0.42515 0.86307
 O45 O 0.14423 0.41173 0.90756
 O46 O -0.01095 0.42280 0.95147
 Cu47 Cu -0.10683 0.61851 1.10577
 Cu48 Cu 0.08261 0.39900 0.91253
 C49 C -0.11568 0.51616 1.03728
 C50 C 0.08940 0.50211 0.98581
 C51 C -0.00124 0.52026 0.92250
 C52 C -0.01902 0.49416 1.09286
 O53 O 0.10527 -0.15619 0.38555
 O54 O 0.01441 0.04891 0.45729
 O55 O 0.16013 -0.09916 0.38906
 O56 O -0.02850 -0.01815 0.44011
 O57 O -0.16174 0.10863 0.61238
 O58 O 0.02909 0.02832 0.56178
 O59 O -0.11797 0.17742 0.63051
 O60 O -0.02527 -0.02837 0.55819
 Cu61 Cu 0.07560 -0.06866 0.40139
 Cu62 Cu -0.08227 0.08438 0.60795
 C63 C 0.05260 -0.12544 0.46086
 C64 C -0.06479 0.14677 0.55531
 C65 C 0.12583 -0.04669 0.46729
 C66 C -0.12470 0.05458 0.53203
 C67 C -0.32496 0.51897 1.03745
 C68 C -0.27309 0.42222 0.96928
 C69 C -0.31957 0.42057 0.96238
 C70 C -0.41645 0.51388 1.02116
 C71 C -0.46823 0.61116 1.09067
 C72 C -0.42220 0.61354 1.09822
 C73 C -0.27579 0.52086 1.04433
 C74 C -0.32904 0.61860 1.11440
 C75 C -0.27959 0.61840 1.11737
 C76 C -0.17546 0.52021 1.04749
 C77 C -0.12455 0.42366 0.97974
 C78 C -0.17519 0.42405 0.97888
 C79 C -0.47194 0.70902 1.16599
 C80 C -0.42795 0.71271 1.17629
 C81 C -0.17480 0.32830 0.90806
 C82 C -0.12619 0.32892 0.91215
 H83 H -0.54518 0.78119 1.21089
 H84 H -0.47101 0.78934 1.23191
 H85 H -0.13432 0.25318 0.85538
 H86 H -0.04970 0.25444 0.86273
 H87 H -0.27775 0.34473 0.90805
 H88 H -0.54570 0.68582 1.14098
 H89 H -0.31917 0.69276 1.16956
 H90 H -0.04479 0.34794 0.92624
 C91 C 0.29924 0.49282 0.99017
 C92 C 0.35906 0.48028 0.93214
 C93 C 0.40641 0.48231 0.93743
 C94 C 0.39264 0.49932 1.00230
 C95 C 0.32943 0.51442 1.06199
 C96 C 0.28508 0.50859 1.05416
 C97 C 0.24851 0.49164 0.98560
 C98 C 0.18726 0.50587 1.04515
 C99 C 0.13617 0.50844 1.04349
 C100 C 0.14559 0.49754 0.98356
 C101 C 0.20911 0.48070 0.92212
 C102 C 0.26061 0.47825 0.92334
 C103 C 0.22519 0.52011 1.11070
 C104 C 0.17716 0.51862 1.10616
 C105 C 0.37076 0.46556 0.86957
 C106 C 0.32234 0.46459 0.86526
 H107 H 0.21463 0.53125 1.15954
 H108 H 0.13053 0.52905 1.15196
 H109 H 0.41611 0.45667 0.82506
 H110 H 0.33212 0.45449 0.81723
 H111 H 0.45705 0.46692 0.88777
 H112 H 0.31056 0.53507 1.11812
 H113 H 0.08812 0.51993 1.08957
 H114 H 0.21611 0.47211 0.87593
 C115 C 0.05576 -0.34025 0.44784
 C116 C 0.09796 -0.38434 0.45527
 C117 C 0.09164 -0.43052 0.45882
 C118 C 0.03307 -0.42311 0.46663
 C119 C -0.01484 -0.37099 0.46609
 C120 C 0.00118 -0.33519 0.45102
 C121 C 0.06546 -0.29491 0.44044
 C122 C 0.02518 -0.25297 0.43057
 C123 C 0.03131 -0.20675 0.42712
 C124 C 0.07211 -0.19734 0.43897
 C125 C 0.11336 -0.24056 0.44765
 C126 C 0.11078 -0.29027 0.44777
 C127 C -0.03795 -0.29263 0.44081
 C128 C -0.02516 -0.25330 0.42963
 C129 C 0.14451 -0.38010 0.46048
 C130 C 0.14903 -0.33213 0.45874
 H131 H -0.07769 -0.29078 0.44017
 H132 H -0.05713 -0.22062 0.42264
 H133 H 0.17602 -0.41243 0.46788
 H134 H 0.18390 -0.32891 0.46479
 H135 H 0.13396 -0.47319 0.45430
 H136 H -0.07003 -0.35161 0.48328
 H137 H -0.00278 -0.17089 0.42302
 H138 H 0.14397 -0.23232 0.45760
 C139 C -0.05444 0.34876 0.55473
 C140 C -0.10806 0.40535 0.56081
 C141 C -0.09548 0.44546 0.55094
 C142 C -0.02196 0.42078 0.52536
 C143 C 0.03642 0.35726 0.51275
 C144 C 0.01430 0.32835 0.53513
 C145 C -0.06975 0.30920 0.56827
 C146 C -0.02389 0.26143 0.57174
 C147 C -0.03460 0.21983 0.58018
 C148 C -0.08372 0.21870 0.57739
 C149 C -0.13381 0.27120 0.57872
 C150 C -0.12945 0.31950 0.57709
 C151 C 0.05745 0.28168 0.54077
 C152 C 0.03436 0.25349 0.56365
 C153 C -0.17250 0.41993 0.57596
 C154 C -0.18122 0.37583 0.58178
 H155 H 0.10755 0.26891 0.52960
 H156 H 0.06414 0.22316 0.57295
 H157 H -0.21366 0.46270 0.57987
 H158 H -0.22886 0.38596 0.59006
 H159 H -0.14233 0.49507 0.56229
 H160 H 0.09659 0.33309 0.48877
 H161 H 0.00172 0.18155 0.58158
 H162 H -0.17345 0.27211 0.57851
 C163 C 0.50042 -0.01007 -0.30061
 C164 C 0.40268 0.06250 -0.24786
 C165 C 0.39862 0.07288 -0.29156
 C166 C 0.49090 0.01246 -0.38695
 C167 C 0.58866 -0.06079 -0.43889
 C168 C 0.59348 -0.07160 -0.39568
 C169 C 0.50560 -0.02215 -0.25561
 C170 C 0.60361 -0.09509 -0.30870
 C171 C 0.60772 -0.10469 -0.26462
 C172 C 0.51347 -0.03939 -0.16618
 C173 C 0.41626 0.03198 -0.11486
 C174 C 0.41212 0.04043 -0.15970
 C175 C 0.69012 -0.14384 -0.44648
 C176 C 0.69491 -0.15523 -0.40354
 C177 C 0.31100 0.12307 -0.15257
 C178 C 0.31570 0.11213 -0.10929
 H179 H 0.76262 -0.19203 -0.52001
 H180 H 0.77078 -0.21218 -0.44509
 H181 H 0.23478 0.17992 -0.11073
 H182 H 0.24273 0.16141 -0.03491
 H183 H 0.32225 0.13029 -0.24931
 H184 H 0.66271 -0.11293 -0.51541
 H185 H 0.68269 -0.15916 -0.30431
 H186 H 0.34353 0.08230 -0.03921
 C187 C 0.51337 0.00062 0.28819
 C188 C 0.46984 0.08346 0.37160
 C189 C 0.46559 0.08477 0.42484
 C190 C 0.50693 0.00237 0.39326
 C191 C 0.55751 -0.08450 0.30420
 C192 C 0.55707 -0.08343 0.25412
 C193 C 0.51257 0.00225 0.23592
 C194 C 0.55244 -0.07833 0.15534
 C195 C 0.55505 -0.07917 0.10318
 C196 C 0.51443 0.00234 0.13402
 C197 C 0.47091 0.08534 0.21751
 C198 C 0.47130 0.08462 0.26793
 C199 C 0.59517 -0.16176 0.17391
 C200 C 0.58891 -0.15649 0.12848
 C201 C 0.43022 0.16395 0.40089
 C202 C 0.43172 0.16399 0.34933
 H203 H 0.62887 -0.22683 0.14687
 H204 H 0.61284 -0.21402 0.07168
 H205 H 0.39780 0.22743 0.46420
 H206 H 0.40169 0.22657 0.37330
 H207 H 0.42874 0.15063 0.49184
 H208 H 0.59132 -0.14879 0.27864
 H209 H 0.58773 -0.14253 0.03919
 H210 H 0.43836 0.14889 0.24189
 C211 C 0.51028 -0.31730 -0.02853
 C212 C 0.60204 -0.41337 -0.08618
 C213 C 0.59597 -0.45558 -0.07445
 C214 C 0.49792 -0.40110 -0.00375
 C215 C 0.40755 -0.30541 0.05182
 C216 C 0.41267 -0.26248 0.04098
 C217 C 0.51589 -0.27203 -0.03978
 C218 C 0.42195 -0.17262 0.02230
 C219 C 0.42529 -0.12590 0.01682
 C220 C 0.52221 -0.17897 -0.05132
 C221 C 0.61741 -0.28163 -0.11718
 C222 C 0.61390 -0.32724 -0.10982
 C223 C 0.32112 -0.16464 0.09994
 C224 C 0.32544 -0.11997 0.09131
 C225 C 0.69803 -0.46530 -0.15422
 C226 C 0.70451 -0.42391 -0.16709
 H227 H 0.24490 -0.12121 0.15450
 H228 H 0.25250 -0.04342 0.13943
 H229 H 0.76855 -0.53819 -0.19742
 H230 H 0.78043 -0.46702 -0.22092
 H231 H 0.66839 -0.53193 -0.12212
 H232 H 0.33117 -0.26122 0.10674
 H233 H 0.35172 -0.04692 0.06773
 H234 H 0.69228 -0.32295 -0.16959
 C235 C 0.51196 0.28629 0.00277
 C236 C 0.56373 0.24501 -0.08504
 C237 C 0.55557 0.30126 -0.08141
 C238 C 0.49487 0.39868 0.00975
 C239 C 0.44611 0.43724 0.09562
 C240 C 0.45405 0.38149 0.09274
 C241 C 0.51872 0.22859 0.00030
 C242 C 0.46405 0.27184 0.08968
 C243 C 0.46512 0.22048 0.08993
 C244 C 0.52450 0.12413 -0.00066
 C245 C 0.58260 0.07911 -0.09146
 C246 C 0.57834 0.13223 -0.09065
 C247 C 0.40491 0.41921 0.17811
 C248 C 0.40906 0.36579 0.17702
 C249 C 0.62255 0.14842 -0.17456
 C250 C 0.63050 0.09235 -0.17776
 H251 H 0.36295 0.49062 0.24615
 H252 H 0.36920 0.39805 0.24491
 H253 H 0.66259 0.11606 -0.24256
 H254 H 0.67621 0.01837 -0.24802
 H255 H 0.59540 0.27038 -0.14843
 H256 H 0.40066 0.51160 0.16516
 H257 H 0.42072 0.25455 0.15951
 H258 H 0.62757 0.00510 -0.16085
 C259 C -0.33121 0.04941 0.53383
 C260 C -0.27443 -0.02722 0.43548
 C261 C -0.31884 -0.03606 0.43179
 C262 C -0.41946 0.03026 0.52516
 C263 C -0.47565 0.10719 0.62379
 C264 C -0.43147 0.11675 0.62830
 C265 C -0.28388 0.05838 0.53731
 C266 C -0.33917 0.13372 0.63492
 C267 C -0.29104 0.13857 0.63604
 C268 C -0.18765 0.06709 0.53980
 C269 C -0.13597 -0.00496 0.44408
 C270 C -0.18288 -0.01045 0.44200
 C271 C -0.48506 0.19188 0.72490
 C272 C -0.43934 0.19971 0.72794
 C273 C -0.17359 -0.09455 0.34192
 C274 C -0.12844 -0.08638 0.34509
 H275 H -0.56247 0.24441 0.79850
 H276 H -0.48229 0.25719 0.80347
 H277 H -0.12898 -0.15435 0.26551
 H278 H -0.04994 -0.14050 0.27088
 H279 H -0.27272 -0.09763 0.35456
 H280 H -0.55467 0.16138 0.69738
 H281 H -0.33181 0.19483 0.71005
 H282 H -0.05628 -0.06089 0.36910
 C283 C 0.32881 -0.03775 0.46710
 C284 C 0.32417 0.01590 0.46841
 C285 C 0.35404 0.03829 0.48875
 C286 C 0.40636 -0.00882 0.48919
 C287 C 0.41581 -0.06846 0.48135
 C288 C 0.37168 -0.07763 0.47642
 C289 C 0.28680 -0.05126 0.45690
 C290 C 0.27874 -0.09265 0.46870
 C291 C 0.22781 -0.09422 0.47004
 C292 C 0.19309 -0.06205 0.45184
 C293 C 0.21346 -0.03295 0.42804
 C294 C 0.25542 -0.02231 0.43555
 C295 C 0.36852 -0.12484 0.48152
 C296 C 0.32056 -0.12992 0.48021
 C297 C 0.29232 0.04361 0.44662
 C298 C 0.26444 0.01898 0.42449
 H299 H 0.40038 -0.15511 0.48983
 H300 H 0.31736 -0.16438 0.48703
 H301 H 0.29234 0.08129 0.44324
 H302 H 0.24716 0.03486 0.40115
 H303 H 0.33829 0.09051 0.50176
 H304 H 0.45640 -0.10710 0.48010
 H305 H 0.21505 -0.11986 0.48518
 H306 H 0.18944 -0.01118 0.41106
 C307 C 0.00018 0.48286 1.28625
 C308 C -0.09539 0.55513 1.38984
 C309 C -0.09175 0.55754 1.43976
 C310 C 0.00588 0.48994 1.38750
 C311 C 0.10111 0.41750 1.28364
 C312 C 0.09891 0.41326 1.23221
 C313 C -0.00406 0.48203 1.23462
 C314 C 0.09144 0.40979 1.13110
 C315 C 0.08691 0.40989 1.08267
 C316 C -0.01335 0.48495 1.13908
 C317 C -0.10878 0.55775 1.24322
 C318 C -0.10414 0.55530 1.29078
 C319 C 0.19269 0.34220 1.12870
 C320 C 0.18894 0.34053 1.07902
 C321 C -0.19305 0.62482 1.44215
 C322 C -0.19772 0.62579 1.39397
 H323 H 0.26941 0.28791 1.08596
 H324 H 0.26288 0.28488 0.99931
 H325 H -0.26721 0.68088 1.52209
 H326 H -0.27545 0.68282 1.43832
 H327 H -0.16526 0.61392 1.52037
 H328 H 0.17586 0.36589 1.24408
 H329 H 0.15984 0.35559 1.00346
 H330 H -0.18623 0.61643 1.28708
 C331 C -0.00441 0.52262 0.71764
 C332 C -0.08546 0.56277 0.74858
 C333 C -0.08728 0.56391 0.69921
 C334 C -0.00215 0.51483 0.61166
 C335 C 0.07796 0.47596 0.58244
 C336 C 0.07564 0.48196 0.63693
 C337 C -0.00357 0.52335 0.77096
 C338 C 0.07534 0.48631 0.74264
 C339 C 0.07538 0.48717 0.79396
 C340 C -0.00439 0.52701 0.87416
 C341 C -0.08184 0.56267 0.90067
 C342 C -0.08070 0.55942 0.84808
 C343 C 0.15191 0.44763 0.61214
 C344 C 0.15204 0.44944 0.66381
 C345 C -0.16004 0.59658 0.82494
 C346 C -0.15449 0.59047 0.87030
 H347 H 0.21083 0.42076 0.55350
 H348 H 0.21152 0.42327 0.64309
 H349 H -0.22125 0.62529 0.84773
 H350 H -0.20753 0.60916 0.92254
 H351 H -0.15104 0.59718 0.72443
 H352 H 0.14248 0.44018 0.51672
 H353 H 0.13668 0.45723 0.77196
 H354 H -0.14104 0.59021 0.96030
   
