data_POSCAR
  _audit_creation_date              2014-09-24
  _audit_creation_method            'ToBaCCo'
  _symmetry_space_group_name_H-M    'P1'
  _symmetry_Int_Tables_number       1
  _symmetry_cell_setting            triclinic
  loop_
  _symmetry_equiv_pos_as_xyz
 x,y,z
_cell_length_a 32.4933
_cell_length_b 31.2932
_cell_length_c 13.6517
_cell_angle_alpha 89.883100
_cell_angle_beta 89.897500
_cell_angle_gamma 118.851700
loop_
  _atom_site_label
  _atom_site_type_symbol
  _atom_site_fract_x
  _atom_site_fract_y
  _atom_site_fract_z
C1 C 0.50255 0.99808 0.45272
 C2 C 0.50323 0.99870 0.55240
 C3 C 0.47635 0.95362 0.61070
 C4 C 0.53003 1.04423 0.60927
 C5 C 0.52168 1.04348 0.39345
 C6 C 0.48229 0.95176 0.39688
 C7 C 0.43719 0.94779 0.66416
 C8 C 0.41068 0.90554 0.71899
 C9 C 0.42318 0.86826 0.72359
 C10 C 0.46290 0.87454 0.66892
 C11 C 0.48908 0.91682 0.61324
 C12 C 0.52075 1.08344 0.60130
 C13 C 0.54693 1.12603 0.65537
 C14 C 0.58216 1.12967 0.72070
 C15 C 0.59109 1.09015 0.72819
 C16 C 0.56523 1.04787 0.67341
 C17 C 0.56910 1.07913 0.39814
 C18 C 0.58576 1.12198 0.34271
 C19 C 0.55532 1.12956 0.27987
 C20 C 0.50799 1.09337 0.27524
 C21 C 0.49141 1.05080 0.33107
 C22 C 0.51144 0.94309 0.33351
 C23 C 0.49343 0.90014 0.27905
 C24 C 0.44578 0.86511 0.28596
 C25 C 0.41664 0.87360 0.35086
 C26 C 0.43468 0.91682 0.40485
 H27 H 0.42687 0.97595 0.66263
 H28 H 0.38058 0.90252 0.75921
 H29 H 0.47438 0.84746 0.66721
 H30 H 0.51931 0.92090 0.57211
 H31 H 0.49337 1.08115 0.55296
 H32 H 0.53919 1.15561 0.64484
 H33 H 0.57284 1.01791 0.68074
 H34 H 0.59313 1.07386 0.44508
 H35 H 0.62239 1.14852 0.35011
 H36 H 0.48370 1.09788 0.22766
 H37 H 0.45468 1.02358 0.32627
 H38 H 0.54829 0.96970 0.32634
 H39 H 0.51672 0.89463 0.23008
 H40 H 0.38002 0.84721 0.36086
 H41 H 0.41149 0.92305 0.45266
 H42 H 0.61787 1.09173 0.77753
 C43 C -0.00322 0.48701 0.44577
 C44 C -0.00282 0.49375 0.54433
 C45 C 0.04139 0.51459 0.60149
 C46 C -0.04657 0.47832 0.60173
 C47 C -0.04752 0.46243 0.38880
 C48 C 0.04096 0.50558 0.38855
 C49 C 0.04664 0.48583 0.67386
 C50 C 0.08810 0.50378 0.72753
 C51 C 0.12514 0.55112 0.71091
 C52 C 0.11983 0.58015 0.63816
 C53 C 0.07811 0.56205 0.58437
 C54 C -0.08148 0.42931 0.60568
 C55 C -0.12154 0.41513 0.66360
 C56 C -0.12750 0.44992 0.71887
 C57 C -0.09224 0.49892 0.71448
 C58 C -0.05214 0.51295 0.65686
 C59 C -0.07996 0.47983 0.38914
 C60 C -0.12075 0.45709 0.33260
 C61 C -0.12976 0.41655 0.27279
 C62 C -0.09683 0.39948 0.27332
 C63 C -0.05623 0.42221 0.33025
 C64 C 0.05052 0.54081 0.31580
 C65 C 0.09236 0.56012 0.26253
 C66 C 0.12567 0.54456 0.28123
 C67 C 0.11535 0.50814 0.35218
 C68 C 0.07333 0.48878 0.40554
 H69 H 0.01871 0.44911 0.68805
 H70 H 0.09106 0.48059 0.78295
 H71 H 0.14757 0.61653 0.62172
 H72 H 0.07452 0.58489 0.52908
 H73 H -0.07725 0.40190 0.56534
 H74 H -0.14667 0.37675 0.66623
 H75 H -0.02528 0.55093 0.65536
 H76 H -0.07341 0.51148 0.43231
 H77 H -0.14405 0.47254 0.33599
 H78 H -0.10217 0.36865 0.22860
 H79 H -0.03141 0.40840 0.32855
 H80 H 0.02560 0.55366 0.30079
 H81 H 0.09788 0.58647 0.20567
 H82 H 0.13998 0.49486 0.36665
 H83 H 0.06610 0.46090 0.46024
 H84 H -0.09544 0.52644 0.75675
 C85 C 0.50684 0.51310 0.45260
 C86 C 0.50232 0.50608 0.55126
 C87 C 0.48013 0.52835 0.61261
 C88 C 0.52066 0.47751 0.60478
 C89 C 0.53274 0.49476 0.39143
 C90 C 0.48468 0.53830 0.40019
 C91 C 0.50741 0.56330 0.68226
 C92 C 0.48753 0.58478 0.74149
 C93 C 0.43965 0.57141 0.73355
 C94 C 0.41227 0.53601 0.66293
 C95 C 0.43243 0.51468 0.60340
 C96 C 0.56844 0.49087 0.60250
 C97 C 0.58552 0.46553 0.65897
 C98 C 0.55503 0.42642 0.72060
 C99 C 0.50698 0.41291 0.72071
 C100 C 0.49009 0.43825 0.66397
 C101 C 0.51864 0.44486 0.38651
 C102 C 0.54337 0.42828 0.32795
 C103 C 0.58296 0.46149 0.27320
 C104 C 0.59637 0.51134 0.27756
 C105 C 0.57147 0.52780 0.33582
 C106 C 0.44915 0.51220 0.33202
 C107 C 0.42674 0.53451 0.28340
 C108 C 0.43956 0.58361 0.30201
 C109 C 0.47590 0.60997 0.36888
 C110 C 0.49822 0.58749 0.41786
 H111 H 0.54433 0.57418 0.69032
 H112 H 0.50982 0.61174 0.79452
 H113 H 0.37546 0.52430 0.65222
 H114 H 0.41082 0.48739 0.55030
 H115 H 0.59275 0.52162 0.55851
 H116 H 0.62271 0.47794 0.65422
 H117 H 0.45304 0.42753 0.66704
 H118 H 0.48816 0.41871 0.42721
 H119 H 0.53035 0.38940 0.32458
 H120 H 0.62617 0.53769 0.23545
 H121 H 0.58262 0.56646 0.33812
 H122 H 0.43860 0.47434 0.31682
 H123 H 0.40034 0.51343 0.22957
 H124 H 0.48706 0.64804 0.38313
 H125 H 0.52605 0.60839 0.46934
 H126 H 0.48232 0.38318 0.76651
 O127 O 0.39008 0.64069 -0.07037
 O128 O 0.39804 0.72594 -0.10841
 C129 C 0.38211 0.75450 -0.12981
 O130 O 0.34576 0.75199 -0.08867
 O131 O 0.26542 0.67457 -0.13054
 C132 C 0.23837 0.62944 -0.14347
 O133 O 0.24014 0.59679 -0.09070
 O134 O 0.31615 0.58866 -0.11262
 C135 C 0.36008 0.60588 -0.12262
 O136 O 0.38374 0.65615 0.12195
 O137 O 0.39504 0.74352 0.08480
 C138 C 0.36619 0.75471 0.12569
 O139 O 0.32327 0.73539 0.10256
 O140 O 0.24180 0.66103 0.06118
 C141 C 0.23025 0.62273 0.11210
 O142 O 0.25053 0.59696 0.10422
 O143 O 0.32400 0.58363 0.08268
 C144 C 0.35998 0.61041 0.13387
 Cr145 Cr 0.38925 0.69060 0.00675
 Cr146 Cr 0.29512 0.70422 -0.01358
 Cr147 Cr 0.28417 0.59406 -0.00398
 O148 O 0.32290 0.66301 -0.00323
 O149 O 0.60122 0.35451 -0.07512
 O150 O 0.60158 0.27271 -0.11054
 C151 C 0.62065 0.24652 -0.12687
 O152 O 0.65651 0.25120 -0.07971
 O153 O 0.73342 0.33214 -0.11844
 C154 C 0.75809 0.37746 -0.13306
 O155 O 0.75408 0.40921 -0.08138
 O156 O 0.67484 0.40938 -0.11421
 C157 C 0.63099 0.38998 -0.12735
 O158 O 0.60543 0.33778 0.11891
 O159 O 0.60123 0.25377 0.08278
 C160 C 0.63125 0.24659 0.13006
 O161 O 0.67489 0.27029 0.11319
 O162 O 0.75427 0.34885 0.07484
 C163 C 0.76022 0.38563 0.12576
 O164 O 0.73652 0.40744 0.11262
 O165 O 0.65995 0.41334 0.07957
 C166 C 0.62533 0.38336 0.13180
 Cr167 Cr 0.60464 0.30585 0.00396
 Cr168 Cr 0.70370 0.30191 -0.00245
 Cr169 Cr 0.70517 0.40747 -0.00077
 O170 O 0.67113 0.33833 0.00030
 C171 C 0.39712 0.82900 -0.21861
 C172 C 0.40715 0.79095 -0.19891
 H173 H 0.36714 0.82774 -0.18073
 H174 H 0.43711 0.79043 -0.23191
 C175 C 0.16768 0.56809 -0.22722
 C176 C 0.20149 0.61466 -0.21874
 H177 H 0.16947 0.54083 -0.18097
 H178 H 0.20037 0.64325 -0.26119
 C179 C 0.42166 0.59372 -0.20242
 C180 C 0.37641 0.58295 -0.19610
 H181 H 0.44630 0.62092 -0.15244
 H182 H 0.34974 0.55547 -0.24181
 C183 C 0.60950 0.17286 -0.21576
 C184 C 0.59771 0.20781 -0.20040
 H185 H 0.63870 0.17417 -0.17500
 H186 H 0.56775 0.20665 -0.23695
 C187 C 0.83207 0.43661 -0.21347
 C188 C 0.79396 0.39245 -0.21055
 H189 H 0.83478 0.46385 -0.16112
 H190 H 0.78989 0.36446 -0.26180
 C191 C 0.57041 0.40155 -0.21512
 C192 C 0.61535 0.41213 -0.20384
 H193 H 0.54429 0.37317 -0.16881
 H194 H 0.64308 0.44006 -0.24721
 C195 C 0.83096 0.39340 0.21009
 C196 C 0.79738 0.40640 0.20045
 H197 H 0.82854 0.36402 0.16420
 H198 H 0.79762 0.43524 0.24394
 C199 C 0.57101 0.17329 0.21572
 C200 C 0.61589 0.20771 0.20445
 H201 H 0.54452 0.17576 0.17159
 H202 H 0.64351 0.20595 0.24501
 C203 C 0.60938 0.44571 0.20654
 C204 C 0.60506 0.40093 0.20789
 H205 H 0.63213 0.47162 0.15198
 H206 H 0.58297 0.37435 0.26172
 C207 C 0.16995 0.56348 0.22425
 C208 C 0.18993 0.60700 0.17901
 H209 H 0.18622 0.54041 0.21857
 H210 H 0.17519 0.63129 0.18709
 C211 C 0.42809 0.82129 0.22243
 C212 C 0.38266 0.79340 0.20016
 H213 H 0.45390 0.81403 0.18669
 H214 H 0.35638 0.80122 0.23107
 C215 C 0.41854 0.60924 0.24701
 C216 C 0.37603 0.58612 0.20492
 H217 H 0.43979 0.64837 0.23791
 H218 H 0.35373 0.54734 0.21604
   
