data_POSCAR
  _audit_creation_date              2014-09-24
  _audit_creation_method            'ToBaCCo'
  _symmetry_space_group_name_H-M    'P1'
  _symmetry_Int_Tables_number       1
  _symmetry_cell_setting            triclinic
  loop_
  _symmetry_equiv_pos_as_xyz
 x,y,z
_cell_length_a 31.7894
_cell_length_b 31.5401
_cell_length_c 38.4446
_cell_angle_alpha 88.594800
_cell_angle_beta 89.529200
_cell_angle_gamma 80.170900
loop_
  _atom_site_label
  _atom_site_type_symbol
  _atom_site_fract_x
  _atom_site_fract_y
  _atom_site_fract_z
C1 C 1.21537 0.21806 0.21212
 C2 C 1.23750 0.24623 0.18757
 C3 C 1.26237 0.27097 0.20364
 C4 C 1.26318 0.26480 0.24358
 C5 C 1.25147 0.19197 0.23369
 C6 C 1.27716 0.21581 0.24992
 C7 C 1.19117 0.24938 0.23827
 C8 C 1.21578 0.27399 0.25455
 H9 H 1.23416 0.24570 0.15958
 H10 H 1.28284 0.28535 0.25676
 H11 H 1.25410 0.15753 0.23763
 H12 H 1.15843 0.24974 0.24615
 C13 C 0.70497 -0.28503 0.19786
 C14 C 0.73329 -0.25937 0.17640
 C15 C 0.75741 -0.23698 0.19576
 C16 C 0.75090 -0.24244 0.23539
 C17 C 0.73668 -0.31345 0.22214
 C18 C 0.75996 -0.29144 0.24252
 C19 C 0.67889 -0.25206 0.22154
 C20 C 0.70248 -0.23018 0.24177
 H21 H 0.73546 -0.26006 0.14834
 H22 H 0.77050 -0.22450 0.25131
 H23 H 0.74023 -0.34820 0.22313
 H24 H 0.64442 -0.24807 0.22304
 C25 C 0.72127 0.21932 -0.28838
 C26 C 0.74174 0.24807 -0.31010
 C27 C 0.76554 0.27492 -0.29147
 C28 C 0.76347 0.26773 -0.25345
 C29 C 0.75512 0.19514 -0.26711
 C30 C 0.77874 0.22124 -0.24742
 C31 C 0.69523 0.24669 -0.26365
 C32 C 0.71745 0.27480 -0.24484
 H33 H 0.74253 0.24579 -0.33818
 H34 H 0.78166 0.28848 -0.23925
 H35 H 0.75687 0.16103 -0.26160
 H36 H 0.66450 0.24003 -0.25501
 C37 C 1.20719 -0.25647 -0.30889
 C38 C 1.23917 -0.23172 -0.32662
 C39 C 1.26329 -0.21358 -0.30410
 C40 C 1.25246 -0.22078 -0.26556
 C41 C 1.23401 -0.28827 -0.28370
 C42 C 1.25746 -0.26986 -0.26085
 C43 C 1.18071 -0.22311 -0.28571
 C44 C 1.20397 -0.20542 -0.26217
 H45 H 1.24189 -0.22715 -0.35443
 H46 H 1.27177 -0.20556 -0.24723
 H47 H 1.23403 -0.32261 -0.28404
 H48 H 1.14617 -0.21621 -0.28650
 C49 C 0.22919 0.21741 0.79916
 C50 C 0.25974 0.23728 0.81763
 C51 C 0.28367 0.26245 0.79627
 C52 C 0.27148 0.26351 0.75933
 C53 C 0.20105 0.25525 0.78049
 C54 C 0.22246 0.27835 0.75816
 C55 C 0.25474 0.19203 0.77028
 C56 C 0.27676 0.21581 0.74905
 H57 H 0.25863 0.24033 0.84559
 H58 H 0.28935 0.28273 0.74199
 H59 H 0.16663 0.26129 0.78311
 H60 H 0.25503 0.15796 0.76712
 C61 C 0.73924 0.71906 0.80246
 C62 C 0.76138 0.74727 0.82160
 C63 C 0.78462 0.77337 0.80058
 C64 C 0.78135 0.76557 0.76314
 C65 C 0.71264 0.74675 0.77744
 C66 C 0.73506 0.77342 0.75576
 C67 C 0.77172 0.69371 0.78101
 C68 C 0.79538 0.71880 0.75884
 H69 H 0.76315 0.74573 0.84977
 H70 H 0.79955 0.78604 0.74760
 H71 H 0.68029 0.74235 0.77215
 H72 H 0.77093 0.66025 0.77605
 C73 C 0.72317 0.23867 0.29362
 C74 C 0.75466 0.25939 0.31416
 C75 C 0.78124 0.27940 0.29434
 C76 C 0.77369 0.27718 0.25498
 C77 C 0.69955 0.27515 0.27014
 C78 C 0.72595 0.29504 0.24947
 C79 C 0.75064 0.20921 0.26812
 C80 C 0.77677 0.22904 0.24761
 H81 H 0.75477 0.25933 0.34235
 H82 H 0.79544 0.29378 0.23901
 H83 H 0.66563 0.27943 0.26535
 H84 H 0.74757 0.17579 0.26535
 C85 C 0.24035 0.71335 0.29761
 C86 C 0.26781 0.73716 0.32001
 C87 C 0.28840 0.76536 0.30217
 C88 C 0.28068 0.76621 0.26252
 C89 C 0.21108 0.74889 0.27722
 C90 C 0.23177 0.77631 0.25846
 C91 C 0.27154 0.69157 0.26999
 C92 C 0.29208 0.71918 0.25127
 H93 H 0.27035 0.73218 0.34794
 H94 H 0.29793 0.78867 0.24776
 H95 H 0.17720 0.74874 0.27452
 H96 H 0.27349 0.65868 0.26215
 O97 O 1.06921 0.00742 0.05006
 O98 O 0.92736 -0.02532 0.04674
 O99 O 0.97151 0.06605 0.04687
 O100 O 1.02930 -0.08447 0.04814
 O101 O 0.91465 0.04905 0.02735
 O102 O 1.08510 -0.06472 0.02874
 O103 O 0.95877 -0.08584 0.02822
 O104 O 1.04161 0.06895 0.02986
 C105 C 1.06122 0.04674 0.05380
 C106 C 0.93586 -0.06495 0.05075
 C107 C 0.93312 0.06590 0.05052
 C108 C 1.06676 -0.08074 0.05309
 O109 O 1.07616 -0.03288 -0.03693
 O110 O 0.92672 0.02286 -0.03980
 O111 O 1.01861 0.06400 -0.03864
 O112 O 0.98548 -0.07864 -0.03910
 O113 O 0.92481 -0.04934 -0.02029
 O114 O 1.07783 0.03650 -0.01654
 O115 O 1.05770 -0.09166 -0.02011
 O116 O 0.94576 0.07883 -0.02049
 Co117 Co 1.06974 -0.01284 0.00635
 Co118 Co 0.93085 -0.00120 0.00361
 Co119 Co 0.99505 0.06197 0.00430
 Co120 Co 1.00728 -0.07779 0.00440
 O121 O 1.00064 -0.00753 0.00471
 C122 C 1.07414 -0.07062 -0.04292
 C123 C 0.92993 0.06101 -0.04450
 C124 C 1.05778 0.05605 -0.04138
 C125 C 0.94664 -0.06877 -0.04398
 O126 O 1.07038 0.54378 0.51972
 O127 O 0.91547 0.45663 0.52527
 O128 O 0.93816 0.58446 0.52269
 O129 O 1.04813 0.41568 0.53142
 O130 O 0.91836 0.52818 0.54361
 O131 O 1.06808 0.47427 0.54516
 O132 O 0.97470 0.42985 0.54781
 O133 O 1.01031 0.57184 0.53963
 C134 C 1.04938 0.56566 0.54237
 C135 C 0.93542 0.43751 0.55043
 C136 C 0.92277 0.56592 0.54759
 C137 C 1.06640 0.43626 0.55244
 O138 O 1.07937 0.44039 0.48146
 O139 O 0.90740 0.55604 0.47624
 O140 O 1.03425 0.57440 0.47064
 O141 O 0.95270 0.42163 0.47923
 O142 O 0.92259 0.48237 0.45823
 O143 O 1.06506 0.51205 0.45583
 O144 O 1.02399 0.42111 0.46231
 O145 O 0.96409 0.57119 0.45441
 Co146 Co 1.06304 0.49324 0.50053
 Co147 Co 0.92354 0.50522 0.50085
 Co148 Co 0.98726 0.56826 0.49726
 Co149 Co 0.99930 0.42924 0.50484
 O150 O 0.99330 0.49896 0.50088
 C151 C 1.06184 0.42377 0.45783
 C152 C 0.92573 0.57093 0.45118
 C153 C 1.05735 0.55121 0.44958
 C154 C 0.93307 0.44308 0.45473
 O155 O 0.57885 0.01220 0.54537
 O156 O 0.43636 -0.01746 0.54500
 O157 O 0.47847 0.07138 0.54169
 O158 O 0.53812 -0.07901 0.54613
 O159 O 0.42215 0.05492 0.52149
 O160 O 0.59434 -0.06083 0.52567
 O161 O 0.46714 -0.07952 0.52910
 O162 O 0.54906 0.07310 0.52490
 C163 C 0.57019 0.05165 0.54853
 C164 C 0.44586 -0.05654 0.55137
 C165 C 0.43994 0.07175 0.54500
 C166 C 0.57608 -0.07681 0.55018
 O167 O 0.58456 -0.03129 0.45906
 O168 O 0.43506 0.02296 0.45636
 O169 O 0.52718 0.06588 0.45653
 O170 O 0.49147 -0.07597 0.46023
 O171 O 0.43148 -0.04730 0.48015
 O172 O 0.58675 0.03960 0.47876
 O173 O 0.56432 -0.08859 0.47795
 O174 O 0.45446 0.08027 0.47285
 Co175 Co 0.57839 -0.00948 0.50217
 Co176 Co 0.43892 0.00268 0.50079
 Co177 Co 0.50284 0.06540 0.49917
 Co178 Co 0.51466 -0.07361 0.50311
 O179 O 0.50871 -0.00380 0.50135
 C180 C 0.58116 -0.06916 0.45427
 C181 C 0.43910 0.06054 0.44970
 C182 C 0.56634 0.06111 0.45496
 C183 C 0.45233 -0.06822 0.45676
 O184 O 0.54232 0.51417 0.04442
 O185 O 0.40723 0.46057 0.01842
 O186 O 0.43776 0.59014 0.01149
 O187 O 0.54062 0.43548 0.03577
 O188 O 0.40353 0.53941 0.03072
 O189 O 0.59584 0.46002 0.01432
 O190 O 0.46657 0.43557 0.04294
 O191 O 0.51397 0.57689 0.02321
 C192 C 0.53229 0.55401 0.04803
 C193 C 0.42712 0.44097 0.04342
 C194 C 0.41298 0.57620 0.03349
 C195 C 0.58102 0.43239 0.03448
 O196 O 0.55902 0.47811 -0.04440
 O197 O 0.39950 0.55664 -0.03484
 O198 O 0.52830 0.55762 -0.04644
 O199 O 0.45708 0.42012 -0.02650
 O200 O 0.41401 0.47702 -0.04745
 O201 O 0.57697 0.53926 -0.01061
 O202 O 0.53389 0.42071 -0.03390
 O203 O 0.45730 0.56835 -0.05729
 Co204 Co 0.54791 0.49483 -0.00004
 Co205 Co 0.41350 0.50790 -0.00819
 Co206 Co 0.48434 0.56807 -0.01630
 Co207 Co 0.49834 0.43447 0.00340
 O208 O 0.48349 0.50319 -0.00628
 C209 C 0.55569 0.44130 -0.05296
 C210 C 0.41855 0.57024 -0.05982
 C211 C 0.56488 0.56049 -0.03727
 C212 C 0.43009 0.43782 -0.04912
 C213 C 1.14384 0.13762 0.15368
 C214 C 1.12208 0.17177 0.17304
 C215 C 1.14449 0.19785 0.19188
 C216 C 1.18949 0.18991 0.19248
 C217 C 1.21113 0.15566 0.17290
 C218 C 1.18864 0.12968 0.15395
 C219 C 1.11996 0.11271 0.13104
 C220 C 1.13274 0.06809 0.12729
 C221 C 1.11232 0.04578 0.10335
 C222 C 1.07908 0.06790 0.08264
 C223 C 1.06518 0.11205 0.08753
 C224 C 1.08538 0.13420 0.11140
 H225 H 1.12596 0.22465 0.20499
 H226 H 1.24570 0.14930 0.17196
 H227 H 1.12358 0.01171 0.10011
 H228 H 1.03946 0.12986 0.07204
 H229 H 1.20636 0.10426 0.13858
 H230 H 1.15895 0.05063 0.14244
 H231 H 1.08752 0.17875 0.17327
 H232 H 1.07506 0.16859 0.11336
 C233 C 1.13520 0.66777 0.62990
 C234 C 1.12326 0.67802 0.66421
 C235 C 1.14593 0.70354 0.68326
 C236 C 1.18049 0.72014 0.66822
 C237 C 1.19217 0.70977 0.63367
 C238 C 1.16953 0.68417 0.61470
 C239 C 1.11282 0.63904 0.61014
 C240 C 1.13634 0.60639 0.59031
 C241 C 1.11548 0.58123 0.56944
 C242 C 1.07073 0.58835 0.56799
 C243 C 1.04711 0.61953 0.58916
 C244 C 1.06805 0.64475 0.61012
 H245 H 1.13716 0.70932 0.71022
 H246 H 1.21957 0.71977 0.62131
 H247 H 1.13444 0.55701 0.55368
 H248 H 1.01258 0.62547 0.58860
 H249 H 1.17921 0.67673 0.58815
 H250 H 1.17091 0.60074 0.59058
 H251 H 1.09733 0.66511 0.67666
 H252 H 1.04930 0.66975 0.62528
 C253 C 0.65331 0.14353 0.64808
 C254 C 0.69700 0.13038 0.65473
 C255 C 0.71909 0.15495 0.67548
 C256 C 0.69792 0.19304 0.69094
 C257 C 0.65431 0.20670 0.68284
 C258 C 0.63229 0.18189 0.66249
 C259 C 0.63027 0.11909 0.62430
 C260 C 0.60052 0.14134 0.60062
 C261 C 0.58001 0.11907 0.57707
 C262 C 0.58901 0.07394 0.57624
 C263 C 0.61797 0.05138 0.60038
 C264 C 0.63845 0.07379 0.62423
 H265 H 0.75305 0.14431 0.67894
 H266 H 0.63684 0.23700 0.69174
 H267 H 0.55788 0.13743 0.55879
 H268 H 0.62542 0.01657 0.60037
 H269 H 0.59866 0.19313 0.65776
 H270 H 0.59398 0.17617 0.59946
 H271 H 0.71448 0.10174 0.64300
 H272 H 0.66081 0.05573 0.64248
 C273 C 0.61975 0.64534 0.14280
 C274 C 0.63407 0.68083 0.12678
 C275 C 0.66163 0.70315 0.14415
 C276 C 0.67614 0.69014 0.17788
 C277 C 0.66001 0.65575 0.19438
 C278 C 0.63282 0.63315 0.17684
 C279 C 0.59197 0.62085 0.12353
 C280 C 0.60108 0.57564 0.12293
 C281 C 0.57909 0.55308 0.10031
 C282 C 0.54759 0.57543 0.07805
 C283 C 0.53618 0.62029 0.08089
 C284 C 0.55820 0.64275 0.10331
 H285 H 0.67087 0.73090 0.13113
 H286 H 0.66820 0.64632 0.22106
 H287 H 0.58873 0.51854 0.09860
 H288 H 0.51191 0.63843 0.06423
 H289 H 0.62149 0.60652 0.19007
 H290 H 0.62699 0.55798 0.13829
 H291 H 0.62433 0.69106 0.10054
 H292 H 0.54993 0.67749 0.10385
 C293 C 0.84305 -0.16234 0.14458
 C294 C 0.82104 -0.14739 0.17505
 C295 C 0.79419 -0.17212 0.19244
 C296 C 0.78842 -0.21200 0.17946
 C297 C 0.81126 -0.22729 0.14955
 C298 C 0.83805 -0.20283 0.13235
 C299 C 0.86987 -0.13570 0.12446
 C300 C 0.90759 -0.15543 0.10797
 C301 C 0.92981 -0.13192 0.08518
 C302 C 0.91518 -0.08791 0.07846
 C303 C 0.87898 -0.06742 0.09650
 C304 C 0.85647 -0.09110 0.11921
 H305 H 0.77694 -0.15945 0.21536
 H306 H 0.80822 -0.25821 0.13917
 H307 H 0.95797 -0.14852 0.07211
 H308 H 0.86695 -0.03352 0.09188
 H309 H 0.85394 -0.21524 0.10878
 H310 H 0.91947 -0.18944 0.11205
 H311 H 0.82444 -0.11652 0.18535
 H312 H 0.82747 -0.07489 0.13132
 C313 C 0.83846 0.35551 0.65186
 C314 C 0.80174 0.34375 0.63770
 C315 C 0.77761 0.31829 0.65672
 C316 C 0.78913 0.30342 0.69084
 C317 C 0.82528 0.31658 0.70557
 C318 C 0.84993 0.34183 0.68611
 C319 C 0.86474 0.38073 0.62992
 C320 C 0.90943 0.36896 0.62798
 C321 C 0.93301 0.38861 0.60315
 C322 C 0.91226 0.42030 0.57980
 C323 C 0.86800 0.43375 0.58324
 C324 C 0.84460 0.41432 0.60799
 H325 H 0.74923 0.31113 0.64444
 H326 H 0.83625 0.30569 0.73134
 H327 H 0.96714 0.37772 0.60123
 H328 H 0.85115 0.45858 0.56607
 H329 H 0.87808 0.35050 0.69777
 H330 H 0.92586 0.34310 0.64442
 H331 H 0.79202 0.35348 0.61135
 H332 H 0.81036 0.42477 0.60929
 C333 C 0.35825 -0.14596 0.65251
 C334 C 0.33353 -0.12904 0.68113
 C335 C 0.30384 -0.15189 0.69665
 C336 C 0.29813 -0.19155 0.68339
 C337 C 0.32426 -0.20928 0.65601
 C338 C 0.35387 -0.18679 0.64074
 C339 C 0.38545 -0.12019 0.63240
 C340 C 0.42379 -0.14052 0.61721
 C341 C 0.44452 -0.11903 0.59199
 C342 C 0.42778 -0.07651 0.58184
 C343 C 0.39163 -0.05481 0.59918
 C344 C 0.37049 -0.07656 0.62414
 H345 H 0.28402 -0.13772 0.71783
 H346 H 0.32091 -0.24018 0.64569
 H347 H 0.47281 -0.13622 0.57947
 H348 H 0.37822 -0.02189 0.59196
 H349 H 0.37182 -0.20058 0.61848
 H350 H 0.43669 -0.17379 0.62366
 H351 H 0.33646 -0.09778 0.69092
 H352 H 0.34093 -0.06005 0.63520
 C353 C 0.33260 0.35315 0.14325
 C354 C 0.29219 0.34616 0.13258
 C355 C 0.26915 0.32056 0.15266
 C356 C 0.28596 0.30067 0.18385
 C357 C 0.32590 0.30832 0.19509
 C358 C 0.34899 0.33426 0.17500
 C359 C 0.35781 0.37856 0.12041
 C360 C 0.40232 0.36634 0.11685
 C361 C 0.42520 0.38762 0.09275
 C362 C 0.40401 0.42125 0.07139
 C363 C 0.35989 0.43455 0.07582
 C364 C 0.33714 0.41371 0.10019
 H365 H 0.23811 0.31617 0.14349
 H366 H 0.33992 0.29330 0.21886
 H367 H 0.45922 0.37665 0.08990
 H368 H 0.34280 0.46081 0.06011
 H369 H 0.37977 0.33933 0.18426
 H370 H 0.41931 0.33920 0.13167
 H371 H 0.27867 0.35951 0.10812
 H372 H 0.30315 0.42482 0.10282
 C373 C 0.85666 0.15839 -0.16586
 C374 C 0.85219 0.13753 -0.19707
 C375 C 0.82845 0.15906 -0.22445
 C376 C 0.80843 0.20240 -0.22175
 C377 C 0.81647 0.22444 -0.19170
 C378 C 0.83982 0.20254 -0.16393
 C379 C 0.87664 0.13333 -0.13508
 C380 C 0.90190 0.15147 -0.11165
 C381 C 0.91939 0.12790 -0.08231
 C382 C 0.91210 0.08567 -0.07582
 C383 C 0.88730 0.06736 -0.09938
 C384 C 0.86960 0.09096 -0.12851
 H385 H 0.82577 0.14125 -0.24781
 H386 H 0.80227 0.25760 -0.18808
 H387 H 0.93871 0.14273 -0.06473
 H388 H 0.88100 0.03496 -0.09504
 H389 H 0.84274 0.21973 -0.14028
 H390 H 0.90843 0.18375 -0.11610
 H391 H 0.86639 0.10410 -0.20016
 H392 H 0.84961 0.07620 -0.14552
 C393 C 0.83344 0.64938 0.33017
 C394 C 0.79814 0.63272 0.31815
 C395 C 0.77482 0.65165 0.28959
 C396 C 0.78641 0.68754 0.27188
 C397 C 0.82206 0.70396 0.28352
 C398 C 0.84534 0.68508 0.31238
 C399 C 0.85725 0.62964 0.36134
 C400 C 0.90193 0.62540 0.36290
 C401 C 0.92416 0.60629 0.39208
 C402 C 0.90219 0.59089 0.42028
 C403 C 0.85759 0.59504 0.41877
 C404 C 0.83536 0.61437 0.38971
 H405 H 0.74703 0.63858 0.28196
 H406 H 0.83209 0.73129 0.27036
 H407 H 0.95860 0.60337 0.39248
 H408 H 0.83981 0.58363 0.44017
 H409 H 0.87219 0.69895 0.32113
 H410 H 0.91983 0.63624 0.34135
 H411 H 0.78845 0.60489 0.33084
 H412 H 0.80089 0.61777 0.38966
 C413 C 0.36564 0.15162 0.32630
 C414 C 0.35046 0.19607 0.32827
 C415 C 0.32443 0.21785 0.30208
 C416 C 0.31194 0.19548 0.27384
 C417 C 0.33061 0.15196 0.27031
 C418 C 0.35703 0.13032 0.29621
 C419 C 0.38744 0.12701 0.35647
 C420 C 0.37882 0.08573 0.36527
 C421 C 0.39636 0.06372 0.39512
 C422 C 0.42249 0.08268 0.41710
 C423 C 0.43201 0.12343 0.40801
 C424 C 0.41479 0.14531 0.37794
 H425 H 0.31277 0.25168 0.30508
 H426 H 0.32398 0.13404 0.24794
 H427 H 0.38852 0.03233 0.40149
 H428 H 0.45258 0.13854 0.42427
 H429 H 0.36973 0.09652 0.29309
 H430 H 0.35732 0.07093 0.34973
 H431 H 0.35678 0.21372 0.35089
 H432 H 0.42269 0.17666 0.37164
 C433 C 0.32788 0.65940 -0.17691
 C434 C 0.34242 0.69489 -0.19278
 C435 C 0.31982 0.71766 -0.22031
 C436 C 0.28225 0.70541 -0.23244
 C437 C 0.26784 0.66983 -0.21663
 C438 C 0.29049 0.64699 -0.18929
 C439 C 0.35121 0.63567 -0.14723
 C440 C 0.39604 0.62749 -0.14686
 C441 C 0.41792 0.60576 -0.11861
 C442 C 0.39539 0.59163 -0.09023
 C443 C 0.35061 0.59923 -0.09078
 C444 C 0.32873 0.62118 -0.11894
 H445 H 0.33196 0.74463 -0.23221
 H446 H 0.23858 0.65999 -0.22492
 H447 H 0.45251 0.60014 -0.11893
 H448 H 0.33245 0.58885 -0.06918
 H449 H 0.27875 0.61949 -0.17791
 H450 H 0.41423 0.63764 -0.16852
 H451 H 0.37091 0.70550 -0.18355
 H452 H 0.29417 0.62753 -0.11824
 C453 C 1.14897 -0.14564 -0.16927
 C454 C 1.12949 -0.17614 -0.18606
 C455 C 1.14686 -0.19468 -0.21657
 C456 C 1.18396 -0.18286 -0.23133
 C457 C 1.20321 -0.15193 -0.21486
 C458 C 1.18585 -0.13342 -0.18410
 C459 C 1.13062 -0.12677 -0.13645
 C460 C 1.12880 -0.08279 -0.13051
 C461 C 1.11055 -0.06477 -0.10003
 C462 C 1.09369 -0.09034 -0.07482
 C463 C 1.09552 -0.13433 -0.08063
 C464 C 1.11396 -0.15242 -0.11113
 H465 H 1.13174 -0.21925 -0.22797
 H466 H 1.23173 -0.14213 -0.22562
 H467 H 1.10929 -0.03065 -0.09637
 H468 H 1.08281 -0.15474 -0.06161
 H469 H 1.20174 -0.11019 -0.17157
 H470 H 1.14073 -0.06210 -0.14974
 H471 H 1.10074 -0.18576 -0.17558
 H472 H 1.11544 -0.18657 -0.11478
 C473 C 1.15573 0.35065 0.33773
 C474 C 1.13693 0.35328 0.30463
 C475 C 1.15764 0.33009 0.27711
 C476 C 1.19764 0.30389 0.28204
 C477 C 1.21739 0.30294 0.31457
 C478 C 1.19670 0.32611 0.34218
 C479 C 1.13152 0.37092 0.36797
 C480 C 1.15191 0.39105 0.39359
 C481 C 1.12926 0.40833 0.42277
 C482 C 1.08583 0.40564 0.42698
 C483 C 1.06534 0.38594 0.40121
 C484 C 1.08794 0.36873 0.37206
 H485 H 1.14182 0.33159 0.25215
 H486 H 1.24749 0.28227 0.31939
 H487 H 1.14578 0.42373 0.44206
 H488 H 1.03187 0.38356 0.40366
 H489 H 1.21180 0.32299 0.36747
 H490 H 1.18534 0.39361 0.39099
 H491 H 1.10575 0.37254 0.30020
 H492 H 1.07146 0.35284 0.35307
 C493 C 0.65036 -0.15750 0.33061
 C494 C 0.63068 -0.19050 0.31775
 C495 C 0.64721 -0.21342 0.28874
 C496 C 0.68361 -0.20364 0.27132
 C497 C 0.70286 -0.17003 0.28369
 C498 C 0.68644 -0.14722 0.31303
 C499 C 0.63349 -0.13470 0.36258
 C500 C 0.63276 -0.09024 0.36565
 C501 C 0.61603 -0.06896 0.39553
 C502 C 0.59956 -0.09166 0.42292
 C503 C 0.60043 -0.13606 0.41993
 C504 C 0.61740 -0.15735 0.39024
 H505 H 0.63190 -0.23965 0.28067
 H506 H 0.73067 -0.16135 0.27082
 H507 H 0.61557 -0.03463 0.39703
 H508 H 0.58812 -0.15444 0.44064
 H509 H 0.70258 -0.12216 0.32237
 H510 H 0.64438 -0.07172 0.34470
 H511 H 0.60244 -0.19883 0.33021
 H512 H 0.61821 -0.19174 0.38909
 C513 C 0.64984 0.35639 -0.16852
 C514 C 0.62823 0.33916 -0.19480
 C515 C 0.65065 0.31395 -0.22034
 C516 C 0.69582 0.30422 -0.22034
 C517 C 0.71744 0.32428 -0.19517
 C518 C 0.69468 0.34981 -0.16948
 C519 C 0.62519 0.37939 -0.13960
 C520 C 0.63486 0.41820 -0.12735
 C521 C 0.61126 0.43926 -0.09995
 C522 C 0.57800 0.42152 -0.08400
 C523 C 0.56821 0.38292 -0.09647
 C524 C 0.59141 0.36221 -0.12402
 H525 H 0.63178 0.30272 -0.24029
 H526 H 0.75177 0.31937 -0.19389
 H527 H 0.61967 0.46888 -0.09070
 H528 H 0.54289 0.36841 -0.08465
 H529 H 0.71221 0.36309 -0.14960
 H530 H 0.66048 0.43231 -0.13907
 H531 H 0.59366 0.34506 -0.19554
 H532 H 0.58348 0.33213 -0.13268
 C533 C 1.15546 0.13724 -0.14065
 C534 C 1.19389 0.14633 -0.12741
 C535 C 1.21813 0.17145 -0.14665
 C536 C 1.20398 0.18907 -0.17937
 C537 C 1.16662 0.17779 -0.19331
 C538 C 1.14230 0.15271 -0.17397
 C539 C 1.12894 0.11264 -0.11906
 C540 C 1.08457 0.12632 -0.11640
 C541 C 1.06059 0.10655 -0.09225
 C542 C 1.08081 0.07309 -0.07037
 C543 C 1.12462 0.05778 -0.07458
 C544 C 1.14842 0.07725 -0.09877
 H545 H 1.24797 0.17662 -0.13566
 H546 H 1.15598 0.18868 -0.21920
 H547 H 1.02677 0.11877 -0.08953
 H548 H 1.14081 0.03146 -0.05843
 H549 H 1.11333 0.14523 -0.18511
 H550 H 1.06881 0.15364 -0.13172
 H551 H 1.20492 0.13463 -0.10179
 H552 H 1.18236 0.06541 -0.10091
 C553 C 1.15971 0.63865 0.35712
 C554 C 1.18486 0.61955 0.32962
 C555 C 1.21172 0.64255 0.31071
 C556 C 1.21423 0.68543 0.31887
 C557 C 1.18886 0.70432 0.34644
 C558 C 1.16235 0.68125 0.36544
 C559 C 1.13104 0.61444 0.37736
 C560 C 1.09146 0.63572 0.38976
 C561 C 1.06648 0.61439 0.41185
 C562 C 1.08020 0.57113 0.42172
 C563 C 1.11838 0.54893 0.40765
 C564 C 1.14368 0.57045 0.38581
 H565 H 1.22933 0.62644 0.28939
 H566 H 1.18931 0.73740 0.35315
 H567 H 1.03693 0.63212 0.42203
 H568 H 1.12980 0.51559 0.41496
 H569 H 1.14406 0.69684 0.38686
 H570 H 1.08012 0.66921 0.38295
 H571 H 1.18312 0.58702 0.32216
 H572 H 1.17403 0.55310 0.37688
 C573 C 0.65229 0.16324 0.36081
 C574 C 0.69616 0.15068 0.35472
 C575 C 0.71833 0.17593 0.33385
 C576 C 0.69713 0.21367 0.31719
 C577 C 0.65317 0.22662 0.32348
 C578 C 0.63099 0.20158 0.34508
 C579 C 0.62962 0.13680 0.38441
 C580 C 0.58738 0.13146 0.37785
 C581 C 0.56665 0.10622 0.40043
 C582 C 0.58810 0.08557 0.42959
 C583 C 0.63032 0.09059 0.43589
 C584 C 0.65065 0.11627 0.41383
 H585 H 0.75232 0.16552 0.33024
 H586 H 0.63577 0.25622 0.31245
 H587 H 0.53398 0.10287 0.39514
 H588 H 0.64738 0.07561 0.45850
 H589 H 0.59738 0.21267 0.34999
 H590 H 0.57050 0.14646 0.35518
 H591 H 0.71354 0.12106 0.36594
 H592 H 0.68272 0.12057 0.42024
 C593 C 0.66924 0.65149 -0.12536
 C594 C 0.70929 0.63158 -0.13755
 C595 C 0.73232 0.65315 -0.16124
 C596 C 0.71542 0.69507 -0.17397
 C597 C 0.67626 0.71553 -0.15971
 C598 C 0.65334 0.69389 -0.13624
 C599 C 0.64322 0.62801 -0.10218
 C600 C 0.59947 0.63085 -0.10875
 C601 C 0.57435 0.60903 -0.08737
 C602 C 0.59230 0.58394 -0.05881
 C603 C 0.63604 0.58103 -0.05199
 C604 C 0.66140 0.60278 -0.07367
 H605 H 0.76355 0.63685 -0.16908
 H606 H 0.66319 0.74862 -0.16667
 H607 H 0.54073 0.61175 -0.09333
 H608 H 0.65060 0.56177 -0.03017
 H609 H 0.62315 0.71052 -0.12634
 H610 H 0.58474 0.64954 -0.13080
 H611 H 0.72253 0.59905 -0.12916
 H612 H 0.69504 0.60030 -0.06795
 C613 C 0.85517 -0.14368 -0.14811
 C614 C 0.86830 -0.15913 -0.18119
 C615 C 0.84413 -0.18485 -0.19935
 C616 C 0.80721 -0.19684 -0.18409
 C617 C 0.79383 -0.17974 -0.15146
 C618 C 0.81729 -0.15373 -0.13392
 C619 C 0.88117 -0.11922 -0.12678
 C620 C 0.86081 -0.08432 -0.10738
 C621 C 0.88274 -0.06693 -0.08150
 C622 C 0.92572 -0.08371 -0.07457
 C623 C 0.94718 -0.11633 -0.09576
 C624 C 0.92501 -0.13405 -0.12163
 H625 H 0.85607 -0.19736 -0.22415
 H626 H 0.76461 -0.18587 -0.13923
 H627 H 0.86557 -0.04123 -0.06609
 H628 H 0.98045 -0.12963 -0.09118
 H629 H 0.80629 -0.14253 -0.10846
 H630 H 0.82724 -0.07171 -0.11120
 H631 H 0.89744 -0.15175 -0.19277
 H632 H 0.94147 -0.16102 -0.13608
 C633 C 0.86411 0.34916 0.34856
 C634 C 0.85992 0.30712 0.35919
 C635 C 0.83494 0.28373 0.34031
 C636 C 0.81319 0.30178 0.31041
 C637 C 0.81913 0.34274 0.29844
 C638 C 0.84429 0.36636 0.31745
 C639 C 0.88601 0.37555 0.37172
 C640 C 0.86891 0.41906 0.37721
 C641 C 0.88535 0.44180 0.40324
 C642 C 0.91880 0.42125 0.42454
 C643 C 0.93738 0.37859 0.41781
 C644 C 0.92146 0.35615 0.39150
 H645 H 0.83140 0.25192 0.34984
 H646 H 0.80262 0.35735 0.27547
 H647 H 0.87059 0.47478 0.40777
 H648 H 0.96370 0.36221 0.43343
 H649 H 0.84733 0.39844 0.30832
 H650 H 0.84140 0.43493 0.36269
 H651 H 0.87414 0.29293 0.38316
 H652 H 0.93613 0.32306 0.38738
 C653 C 0.36012 -0.15415 0.35868
 C654 C 0.32095 -0.16323 0.37133
 C655 C 0.29761 -0.18844 0.35253
 C656 C 0.31271 -0.20560 0.32048
 C657 C 0.35134 -0.19585 0.30718
 C658 C 0.37504 -0.17061 0.32624
 C659 C 0.38526 -0.12875 0.38023
 C660 C 0.42974 -0.14089 0.38406
 C661 C 0.45210 -0.12022 0.40796
 C662 C 0.43037 -0.08714 0.42858
 C663 C 0.38640 -0.07360 0.42340
 C664 C 0.36420 -0.09398 0.39948
 H665 H 0.26761 -0.19468 0.36327
 H666 H 0.36378 -0.20869 0.28258
 H667 H 0.48605 -0.13123 0.41126
 H668 H 0.36887 -0.04773 0.43844
 H669 H 0.40496 -0.16398 0.31565
 H670 H 0.44692 -0.16763 0.36976
 H671 H 0.30868 -0.15170 0.39636
 H672 H 0.33020 -0.08308 0.39661
 C673 C 0.36457 0.33425 -0.15138
 C674 C 0.35752 0.29423 -0.13829
 C675 C 0.33268 0.27008 -0.15651
 C676 C 0.31365 0.28499 -0.18859
 C677 C 0.32348 0.32362 -0.20315
 C678 C 0.34814 0.34830 -0.18444
 C679 C 0.38565 0.36213 -0.12879
 C680 C 0.36862 0.40602 -0.12587
 C681 C 0.38378 0.43072 -0.10056
 C682 C 0.41631 0.41212 -0.07746
 C683 C 0.43478 0.36878 -0.08148
 C684 C 0.41970 0.34411 -0.10688
 H685 H 0.32830 0.23949 -0.14495
 H686 H 0.30983 0.33654 -0.22766
 H687 H 0.36904 0.46415 -0.09843
 H688 H 0.46034 0.35365 -0.06454
 H689 H 0.35346 0.37889 -0.19542
 H690 H 0.34212 0.42082 -0.14201
 H691 H 0.36954 0.28227 -0.11301
 H692 H 0.43401 0.31055 -0.10881
 C693 C 1.16247 -0.15032 0.17510
 C694 C 1.20567 -0.16876 0.17081
 C695 C 1.22891 -0.19054 0.19848
 C696 C 1.20945 -0.19457 0.23103
 C697 C 1.16685 -0.17445 0.23579
 C698 C 1.14362 -0.15259 0.20813
 C699 C 1.13687 -0.13054 0.14484
 C700 C 1.09468 -0.13743 0.14013
 C701 C 1.07153 -0.12092 0.11054
 C702 C 1.09019 -0.09738 0.08502
 C703 C 1.13198 -0.08976 0.09009
 C704 C 1.15501 -0.10608 0.11964
 H705 H 1.26142 -0.20613 0.19374
 H706 H 1.15117 -0.17648 0.26073
 H707 H 1.03933 -0.12717 0.10736
 H708 H 1.14704 -0.07123 0.07109
 H709 H 1.11070 -0.13795 0.21248
 H710 H 1.07995 -0.15657 0.15886
 H711 H 1.22104 -0.16805 0.14562
 H712 H 1.18710 -0.09955 0.12276
 C713 C 1.15753 0.35046 0.67146
 C714 C 1.19547 0.36151 0.68441
 C715 C 1.21644 0.33881 0.71301
 C716 C 1.19968 0.30488 0.72925
 C717 C 1.16159 0.29431 0.71619
 C718 C 1.14070 0.31698 0.68809
 C719 C 1.13540 0.37276 0.64044
 C720 C 1.11643 0.34924 0.61614
 C721 C 1.09360 0.36995 0.58791
 C722 C 1.08959 0.41466 0.58297
 C723 C 1.10903 0.43826 0.60689
 C724 C 1.13167 0.41752 0.63536
 H725 H 1.24570 0.34773 0.72229
 H726 H 1.14811 0.26756 0.72696
 H727 H 1.07941 0.35083 0.56976
 H728 H 1.10655 0.47282 0.60370
 H729 H 1.11124 0.30800 0.67927
 H730 H 1.11941 0.31460 0.61882
 H731 H 1.20942 0.38703 0.67200
 H732 H 1.14552 0.43660 0.65375
 C733 C 0.66889 -0.15219 0.67239
 C734 C 0.71378 -0.16055 0.67292
 C735 C 0.73588 -0.18270 0.70113
 C736 C 0.71382 -0.19885 0.72913
 C737 C 0.66882 -0.18748 0.72940
 C738 C 0.64690 -0.16453 0.70169
 C739 C 0.64490 -0.13197 0.64123
 C740 C 0.60558 -0.14362 0.63225
 C741 C 0.58305 -0.12531 0.60300
 C742 C 0.59965 -0.09558 0.58146
 C743 C 0.63895 -0.08398 0.59008
 C744 C 0.66116 -0.10166 0.61978
 H745 H 0.77012 -0.18830 0.69957
 H746 H 0.64983 -0.19559 0.75122
 H747 H 0.55297 -0.13507 0.59685
 H748 H 0.65230 -0.06081 0.57405
 H749 H 0.61244 -0.15667 0.70328
 H750 H 0.59239 -0.16758 0.64745
 H751 H 0.73209 -0.15134 0.65100
 H752 H 0.69084 -0.09121 0.62604
 C753 C 0.67295 0.35936 0.15609
 C754 C 0.71443 0.33554 0.15587
 C755 C 0.73258 0.31636 0.18661
 C756 C 0.70969 0.32099 0.21819
 C757 C 0.66919 0.34706 0.21863
 C758 C 0.65095 0.36589 0.18787
 C759 C 0.65139 0.37511 0.12315
 C760 C 0.60961 0.36825 0.11727
 C761 C 0.58787 0.38477 0.08729
 C762 C 0.60726 0.40889 0.06262
 C763 C 0.64980 0.41415 0.06766
 C764 C 0.67179 0.39718 0.09768
 H765 H 0.76355 0.29603 0.18509
 H766 H 0.65108 0.35184 0.24261
 H767 H 0.55521 0.37993 0.08408
 H768 H 0.66552 0.43265 0.04911
 H769 H 0.61917 0.38486 0.18875
 H770 H 0.59355 0.35048 0.13615
 H771 H 0.73192 0.32991 0.13166
 H772 H 0.70411 0.40264 0.10162
 C773 C 0.84268 0.16400 0.16091
 C774 C 0.80283 0.15508 0.17180
 C775 C 0.78132 0.17684 0.19942
 C776 C 0.79944 0.20752 0.21743
 C777 C 0.83885 0.21728 0.20623
 C778 C 0.86032 0.19570 0.17817
 C779 C 0.86591 0.13933 0.13226
 C780 C 0.91042 0.12666 0.13372
 C781 C 0.93210 0.10232 0.10730
 C782 C 0.90967 0.08974 0.07907
 C783 C 0.86522 0.10200 0.07763
 C784 C 0.84357 0.12687 0.10383
 H785 H 0.75030 0.16952 0.20656
 H786 H 0.85343 0.24091 0.21952
 H787 H 0.96647 0.09317 0.10902
 H788 H 0.84730 0.09313 0.05591
 H789 H 0.89069 0.20382 0.17000
 H790 H 0.92846 0.13496 0.15555
 H791 H 0.78849 0.13061 0.15942
 H792 H 0.80935 0.13672 0.10160
 C793 C 0.86375 0.65625 0.67336
 C794 C 0.85858 0.63353 0.70451
 C795 C 0.83832 0.65459 0.73319
 C796 C 0.82242 0.69927 0.73185
 C797 C 0.83202 0.72250 0.70183
 C798 C 0.85159 0.70125 0.67283
 C799 C 0.87989 0.63284 0.64131
 C800 C 0.90442 0.65134 0.61641
 C801 C 0.91783 0.62986 0.58578
 C802 C 0.90765 0.58909 0.57957
 C803 C 0.88357 0.57032 0.60450
 C804 C 0.86957 0.59206 0.63482
 H805 H 0.83516 0.63528 0.75640
 H806 H 0.82252 0.75675 0.69924
 H807 H 0.93657 0.64502 0.56709
 H808 H 0.87509 0.53898 0.60039
 H809 H 0.85533 0.72011 0.64946
 H810 H 0.91361 0.68230 0.62062
 H811 H 0.86960 0.59915 0.70665
 H812 H 0.84992 0.57711 0.65287
 C813 C 0.34526 0.15989 0.65923
 C814 C 0.30795 0.14582 0.67107
 C815 C 0.28554 0.16456 0.69969
 C816 C 0.30008 0.19753 0.71770
 C817 C 0.33697 0.21223 0.70565
 C818 C 0.35935 0.19361 0.67670
 C819 C 0.36959 0.13861 0.62928
 C820 C 0.41448 0.13137 0.62898
 C821 C 0.43726 0.10978 0.60155
 C822 C 0.41570 0.09464 0.57390
 C823 C 0.37091 0.10195 0.57404
 C824 C 0.34811 0.12392 0.60129
 H825 H 0.25665 0.15308 0.70762
 H826 H 0.34910 0.23744 0.71898
 H827 H 0.47183 0.10450 0.60218
 H828 H 0.35344 0.09094 0.55295
 H829 H 0.38765 0.20567 0.66800
 H830 H 0.43210 0.14155 0.65033
 H831 H 0.29637 0.11964 0.65865
 H832 H 0.31359 0.12958 0.60029
 C833 C 0.34301 0.67401 0.15264
 C834 C 0.36950 0.68984 0.17660
 C835 C 0.35283 0.70647 0.20838
 C836 C 0.30964 0.70716 0.21654
 C837 C 0.28282 0.69380 0.19178
 C838 C 0.29924 0.67759 0.16018
 C839 C 0.36086 0.65037 0.12136
 C840 C 0.34678 0.61204 0.11294
 C841 C 0.36322 0.58875 0.08412
 C842 C 0.39425 0.60309 0.06273
 C843 C 0.40831 0.64162 0.07087
 C844 C 0.39194 0.66494 0.10009
 H845 H 0.37387 0.71696 0.22715
 H846 H 0.24918 0.69494 0.19737
 H847 H 0.35182 0.55910 0.07885
 H848 H 0.43230 0.65340 0.05495
 H849 H 0.27781 0.66670 0.14194
 H850 H 0.32351 0.59945 0.12913
 H851 H 0.40336 0.68746 0.17149
 H852 H 0.40331 0.69443 0.10592
   
