data_POSCAR
  _audit_creation_date              2014-09-24
  _audit_creation_method            'ToBaCCo'
  _symmetry_space_group_name_H-M    'P1'
  _symmetry_Int_Tables_number       1
  _symmetry_cell_setting            triclinic
  loop_
  _symmetry_equiv_pos_as_xyz
 x,y,z
_cell_length_a 44.5364
_cell_length_b 44.4024
_cell_length_c 44.4015
_cell_angle_alpha 90.000600
_cell_angle_beta 89.942400
_cell_angle_gamma 89.939200
loop_
  _atom_site_label
  _atom_site_type_symbol
  _atom_site_fract_x
  _atom_site_fract_y
  _atom_site_fract_z
C1 C 0.17614 1.21614 0.21607
 C2 C 0.16319 1.24173 0.20282
 C3 C 0.17595 1.25445 0.17690
 C4 C 0.20192 1.24183 0.16421
 C5 C 0.21514 1.21625 0.17719
 C6 C 0.20222 1.20330 0.20322
 C7 C 0.16315 1.20284 0.24161
 C8 C 0.17587 1.17687 0.25428
 C9 C 0.20183 1.16419 0.24165
 C10 C 0.21510 1.17722 0.21612
 C11 C 0.24068 1.16431 0.20291
 C12 C 0.25336 1.17710 0.17702
 C13 C 0.24073 1.20304 0.16428
 H14 H 0.14299 1.25149 0.21243
 H15 H 0.21159 1.25167 0.14405
 H16 H 0.14295 1.21244 0.25137
 H17 H 0.21147 1.14399 0.25145
 H18 H 0.25053 1.14412 0.21249
 H19 H 0.25060 1.21266 0.14412
 C20 C 0.82373 0.78408 0.21614
 C21 C 0.83671 0.75851 0.20287
 C22 C 0.82400 0.74579 0.17696
 C23 C 0.79804 0.75839 0.16430
 C24 C 0.78478 0.78396 0.17729
 C25 C 0.79766 0.79692 0.20331
 C26 C 0.83668 0.79740 0.24167
 C27 C 0.82393 0.82335 0.25436
 C28 C 0.79797 0.83602 0.24175
 C29 C 0.78474 0.82298 0.21623
 C30 C 0.75917 0.83588 0.20303
 C31 C 0.74654 0.82308 0.17715
 C32 C 0.75921 0.79716 0.16439
 H33 H 0.85691 0.74876 0.21247
 H34 H 0.78840 0.74855 0.14413
 H35 H 0.85687 0.78780 0.25142
 H36 H 0.78831 0.85621 0.25156
 H37 H 0.74930 0.85607 0.21262
 H38 H 0.74936 0.78753 0.14424
 C39 C 0.82332 1.21576 -0.21653
 C40 C 0.83625 1.24130 -0.20323
 C41 C 0.82351 1.25396 -0.17729
 C42 C 0.79760 1.24137 -0.16459
 C43 C 0.78437 1.21583 -0.17759
 C44 C 0.79728 1.20291 -0.20366
 C45 C 0.83630 1.20249 -0.24210
 C46 C 0.82359 1.17656 -0.25481
 C47 C 0.79765 1.16388 -0.24217
 C48 C 0.78440 1.17687 -0.21660
 C49 C 0.75885 1.16397 -0.20337
 C50 C 0.74620 1.17673 -0.17743
 C51 C 0.75883 1.20263 -0.16466
 H52 H 0.85642 1.25111 -0.21278
 H53 H 0.78802 1.25123 -0.14440
 H54 H 0.85647 1.21209 -0.25188
 H55 H 0.78802 1.14371 -0.25200
 H56 H 0.74901 1.14380 -0.21297
 H57 H 0.74897 1.21222 -0.14447
 C58 C 0.17683 0.78345 -0.21561
 C59 C 0.16387 0.75793 -0.20229
 C60 C 0.17657 0.74526 -0.17633
 C61 C 0.20249 0.75788 -0.16366
 C62 C 0.21574 0.78340 -0.17671
 C63 C 0.20287 0.79630 -0.20279
 C64 C 0.16391 0.79671 -0.24119
 C65 C 0.17664 0.82259 -0.25391
 C66 C 0.20254 0.83528 -0.24134
 C67 C 0.21577 0.82232 -0.21576
 C68 C 0.24130 0.83524 -0.20258
 C69 C 0.25392 0.82251 -0.17664
 C70 C 0.24128 0.79662 -0.16383
 H71 H 0.14370 0.74816 -0.21188
 H72 H 0.21212 0.74809 -0.14346
 H73 H 0.14374 0.78717 -0.25099
 H74 H 0.21212 0.85543 -0.25124
 H75 H 0.25115 0.85539 -0.21221
 H76 H 0.25111 0.78705 -0.14363
 C77 C 0.54589 1.04146 -0.00963
 H78 H 0.54665 1.04147 0.01472
 C79 C 0.56632 1.05876 -0.02600
 H80 H 0.58290 1.07195 -0.01403
 C81 C 0.52417 1.02300 -0.05469
 H82 H 0.50806 1.00864 -0.06580
 C83 C 0.54422 1.03994 -0.07197
 H84 H 0.54291 1.03887 -0.09629
 N85 N 0.52527 1.02416 -0.02410
 C86 C 0.45404 1.00947 0.04165
 H87 H 0.45330 0.98512 0.04168
 C88 C 0.43357 1.02582 0.05897
 H89 H 0.41698 1.01383 0.07217
 C90 C 0.47575 1.05455 0.02319
 H91 H 0.49186 1.06567 0.00882
 C92 C 0.45565 1.07180 0.04014
 H93 H 0.45694 1.09613 0.03907
 Zn94 Zn 0.50000 0.99985 0.00003
 N95 N 0.47467 1.02396 0.02434
 C96 C 0.52420 0.97671 0.05471
 N97 N 0.52532 0.97556 0.02412
 C98 C 0.54599 0.95827 0.00962
 C99 C 0.56646 0.94097 0.02596
 C100 C 0.54429 0.95978 0.07196
 C101 C 0.45409 0.99021 -0.04154
 C102 C 0.43367 0.97385 -0.05883
 C103 C 0.45585 0.92788 -0.04003
 C104 C 0.47590 0.94514 -0.02310
 N105 N 0.47474 0.97574 -0.02425
 H106 H 0.50805 0.99107 0.06584
 H107 H 0.54676 0.95825 -0.01474
 H108 H 0.58307 0.92779 0.01396
 H109 H 0.54295 0.96085 0.09628
 H110 H 0.45329 1.01457 -0.04156
 H111 H 0.41706 0.98584 -0.07200
 H112 H 0.45721 0.90356 -0.03895
 H113 H 0.49204 0.93403 -0.00876
 C114 C 0.43411 1.05744 0.05826
 C115 C 0.56575 1.05805 -0.05762
 C116 C 0.43429 0.94224 -0.05812
 C117 C 0.56586 0.94168 0.05758
 C118 C -0.00935 0.54628 1.04202
 H119 H 0.01493 0.54702 1.04202
 C120 C -0.02566 0.56679 1.05936
 H121 H -0.01371 0.58342 1.07254
 C122 C -0.05429 0.52451 1.02360
 H123 H -0.06537 0.50836 1.00924
 C124 C -0.07150 0.54465 1.04057
 H125 H -0.09575 0.54335 1.03952
 N126 N -0.02379 0.52560 1.02473
 C127 C 0.04170 0.45407 1.00997
 H128 H 0.04172 0.45330 0.98562
 C129 C 0.05895 0.43353 1.02631
 H130 H 0.07209 0.41687 1.01431
 C131 C 0.02331 0.47591 1.05507
 H132 H 0.00900 0.49210 1.06620
 C133 C 0.04019 0.45575 1.07231
 H134 H 0.03912 0.45708 1.09663
 Zn135 Zn 0.00025 0.50021 1.00039
 N136 N 0.02446 0.47479 1.02447
 C137 C 0.05480 0.52438 0.97720
 N138 N 0.02430 0.52556 0.97609
 C139 C 0.00988 0.54629 0.95882
 C140 C 0.02619 0.56677 0.94148
 C141 C 0.07202 0.54448 0.96024
 C142 C -0.04124 0.45420 0.99076
 C143 C -0.05851 0.43374 0.97440
 C144 C -0.03973 0.45596 0.92843
 C145 C -0.02283 0.47604 0.94569
 N146 N -0.02398 0.47489 0.97629
 H147 H 0.06587 0.50818 0.99154
 H148 H -0.01441 0.54711 0.95883
 H149 H 0.01425 0.58344 0.92832
 H150 H 0.09627 0.54310 0.96127
 H151 H -0.04126 0.45340 1.01511
 H152 H -0.07166 0.41710 0.98638
 H153 H -0.03866 0.45731 0.90410
 H154 H -0.00850 0.49220 0.93458
 C155 C 0.05824 0.43412 1.05793
 C156 C -0.05718 0.56624 1.05868
 C157 C -0.05780 0.43436 0.94278
 C158 C 0.05772 0.56611 0.94214
 C159 C 1.04124 -0.00956 0.54557
 H160 H 1.04120 0.01479 0.54636
 C161 C 1.05853 -0.02591 0.56605
 H162 H 1.07164 -0.01393 0.58270
 C163 C 1.02296 -0.05464 0.52372
 H164 H 1.00868 -0.06576 0.50754
 C165 C 1.03989 -0.07189 0.54382
 H166 H 1.03888 -0.09622 0.54247
 N167 N 1.02404 -0.02405 0.52487
 C168 C 1.00930 0.04168 0.45346
 H169 H 0.98502 0.04167 0.45270
 C170 C 1.02558 0.05903 0.43297
 H171 H 1.01362 0.07221 0.41634
 C172 C 1.05427 0.02328 0.47527
 H173 H 1.06537 0.00893 0.49143
 C174 C 1.07145 0.04026 0.45515
 H175 H 1.09570 0.03923 0.45648
 Zn176 Zn 0.99977 0.00005 0.49952
 N177 N 1.02376 0.02439 0.47415
 C178 C 0.97656 0.05472 0.52381
 N179 N 0.97548 0.02412 0.52493
 C180 C 0.95827 0.00962 0.54564
 C181 C 0.94097 0.02595 0.56616
 C182 C 0.95963 0.07195 0.54396
 C183 C 0.99027 -0.04153 0.45344
 C184 C 0.97400 -0.05887 0.43295
 C185 C 0.92812 -0.04013 0.45521
 C186 C 0.94528 -0.02316 0.47532
 N187 N 0.97579 -0.02426 0.47416
 H188 H 0.99086 0.06585 0.50763
 H189 H 0.95830 -0.01474 0.54641
 H190 H 0.92785 0.01395 0.58282
 H191 H 0.96064 0.09628 0.54263
 H192 H 1.01455 -0.04151 0.45263
 H193 H 0.98598 -0.07203 0.41629
 H194 H 0.90387 -0.03910 0.45657
 H195 H 0.93417 -0.00882 0.49151
 C196 C 1.05711 0.05837 0.43356
 C197 C 1.05791 -0.05753 0.56543
 C198 C 0.94248 -0.05822 0.43358
 C199 C 0.94160 0.05757 0.56558
 C200 C 0.12031 0.38095 1.08274
 C201 C 0.10727 0.36737 1.10799
 C202 C 0.07856 0.37614 1.11737
 C203 C 0.06278 0.39817 1.10137
 C204 C 0.16250 0.27850 1.16341
 C205 C 0.10457 0.40297 1.06669
 C206 C 0.12290 0.34372 1.12368
 C207 C 0.13569 0.32352 1.13651
 C208 C 0.15031 0.29944 1.15118
 C209 C 0.07553 0.41169 1.07570
 H210 H 0.14253 0.37433 1.07529
 H211 H 0.06818 0.36566 1.13680
 H212 H 0.04032 0.40407 1.10864
 H213 H 0.11513 0.41322 1.04725
 C214 C -0.11648 0.62422 1.07916
 C215 C -0.10716 0.63294 1.10796
 C216 C -0.08199 0.61931 1.12100
 C217 C -0.06597 0.59730 1.10518
 C218 C -0.16252 0.72175 1.16346
 C219 C -0.10051 0.60221 1.06331
 C220 C -0.12282 0.65657 1.12367
 C221 C -0.13564 0.67676 1.13652
 C222 C -0.15030 0.70083 1.15121
 C223 C -0.07492 0.58865 1.07605
 H224 H -0.13584 0.63475 1.06879
 H225 H -0.07459 0.62588 1.14329
 H226 H -0.04660 0.58702 1.11575
 H227 H -0.10773 0.59636 1.04078
 C228 C -0.07819 0.37655 0.88325
 C229 C -0.10691 0.36786 0.89261
 C230 C -0.11993 0.38144 0.91789
 C231 C -0.10417 0.40338 0.93398
 C232 C -0.16227 0.27931 0.83699
 C233 C -0.06239 0.39850 0.89928
 C234 C -0.12258 0.34430 0.87687
 C235 C -0.13540 0.32417 0.86400
 C236 C -0.15006 0.30018 0.84927
 C237 C -0.07511 0.41201 0.92498
 H238 H -0.06783 0.36606 0.86380
 H239 H -0.14216 0.37489 0.92533
 H240 H -0.11471 0.41363 0.95343
 H241 H -0.03992 0.40433 0.89202
 C242 C 0.11705 0.62392 0.92162
 C243 C 0.10773 0.63266 0.89283
 C244 C 0.08253 0.61911 0.87980
 C245 C 0.06650 0.59715 0.89564
 C246 C 0.16310 0.72128 0.83723
 C247 C 0.10107 0.60195 0.93749
 C248 C 0.12340 0.65624 0.87710
 C249 C 0.13622 0.67638 0.86423
 C250 C 0.15088 0.70040 0.84950
 C251 C 0.07547 0.58847 0.92476
 H252 H 0.13643 0.63438 0.93198
 H253 H 0.07512 0.62570 0.85752
 H254 H 0.04712 0.58693 0.88509
 H255 H 0.10831 0.59608 0.96001
 C256 C 1.08181 0.12074 0.38055
 C257 C 1.10703 0.10773 0.36694
 C258 C 1.11641 0.07893 0.37565
 C259 C 1.10046 0.06305 0.39763
 C260 C 1.16237 0.16334 0.27827
 C261 C 1.06580 0.10490 0.40253
 C262 C 1.12268 0.12346 0.34335
 C263 C 1.13550 0.13634 0.32320
 C264 C 1.15015 0.15107 0.29917
 C265 C 1.07482 0.07577 0.41117
 H266 H 1.07435 0.14303 0.37399
 H267 H 1.13581 0.06857 0.36515
 H268 H 1.10774 0.04052 0.40348
 H269 H 1.04639 0.11544 0.41279
 C270 C 1.12004 -0.08237 0.61844
 C271 C 1.10706 -0.10765 0.63202
 C272 C 1.07837 -0.11703 0.62329
 C273 C 1.06256 -0.10101 0.60132
 C274 C 1.16243 -0.16316 0.72070
 C275 C 1.10426 -0.06630 0.59647
 C276 C 1.12273 -0.12336 0.65561
 C277 C 1.13556 -0.13622 0.67577
 C278 C 1.15022 -0.15091 0.69980
 C279 C 1.07523 -0.07532 0.58780
 H280 H 1.14224 -0.07492 0.62502
 H281 H 1.06805 -0.13648 0.63378
 H282 H 1.04011 -0.10829 0.59546
 H283 H 1.11477 -0.04685 0.58622
 C284 C 0.91783 -0.12055 0.38056
 C285 C 0.89261 -0.10753 0.36700
 C286 C 0.88322 -0.07874 0.37574
 C287 C 0.89915 -0.06287 0.39771
 C288 C 0.83738 -0.16311 0.27834
 C289 C 0.93382 -0.10472 0.40253
 C290 C 0.87698 -0.12326 0.34341
 C291 C 0.86419 -0.13613 0.32326
 C292 C 0.84957 -0.15084 0.29924
 C293 C 0.92478 -0.07560 0.41121
 H294 H 0.92529 -0.14283 0.37397
 H295 H 0.86382 -0.06838 0.36527
 H296 H 0.89186 -0.04036 0.40358
 H297 H 0.95322 -0.11527 0.41276
 C298 C 0.92113 0.11700 0.62355
 C299 C 0.89243 0.10762 0.63231
 C300 C 0.87946 0.08236 0.61872
 C301 C 0.89524 0.06632 0.59670
 C302 C 0.83706 0.16306 0.72116
 C303 C 0.93695 0.10101 0.60152
 C304 C 0.87676 0.12331 0.65595
 C305 C 0.86394 0.13614 0.67614
 C306 C 0.84928 0.15082 0.70022
 C307 C 0.92427 0.07534 0.58800
 H308 H 0.93145 0.13643 0.63404
 H309 H 0.85725 0.07491 0.62533
 H310 H 0.88473 0.04688 0.58645
 H311 H 0.95939 0.10829 0.59564
 C312 C 0.37622 1.11687 0.07865
 C313 C 0.36749 1.10753 0.10745
 C314 C 0.38108 1.08229 0.12053
 C315 C 0.40307 1.06624 0.10474
 C316 C 0.27876 1.16290 0.16281
 C317 C 0.39821 1.10087 0.06283
 C318 C 0.34388 1.12321 0.12312
 C319 C 0.32372 1.13603 0.13594
 C320 C 0.29967 1.15069 0.15060
 C321 C 0.41173 1.07522 0.07561
 H322 H 0.36573 1.13628 0.06824
 H323 H 0.37450 1.07486 0.14282
 H324 H 0.41332 1.04682 0.11533
 H325 H 0.40407 1.10812 0.04029
 C326 C 0.61865 1.12029 -0.08252
 C327 C 0.63224 1.10721 -0.10777
 C328 C 0.62354 1.07841 -0.11711
 C329 C 0.60160 1.06260 -0.10109
 C330 C 0.72083 1.16253 -0.16322
 C331 C 0.59671 1.10452 -0.06645
 C332 C 0.65581 1.12287 -0.12347
 C333 C 0.67594 1.13568 -0.13631
 C334 C 0.69996 1.15033 -0.15099
 C335 C 0.58808 1.07539 -0.07543
 H336 H 0.62521 1.14258 -0.07510
 H337 H 0.63403 1.06800 -0.13653
 H338 H 0.59576 1.04007 -0.10833
 H339 H 0.58646 1.11511 -0.04702
 C340 C 0.37657 0.88278 -0.07842
 C341 C 0.36783 0.89212 -0.10721
 C342 C 0.38137 0.91736 -0.12031
 C343 C 0.40330 0.93342 -0.10455
 C344 C 0.27928 0.83671 -0.16246
 C345 C 0.39851 0.89879 -0.06263
 C346 C 0.34427 0.87643 -0.12285
 C347 C 0.32415 0.86360 -0.13565
 C348 C 0.30015 0.84893 -0.15028
 C349 C 0.41197 0.92444 -0.07543
 H350 H 0.36612 0.86337 -0.06800
 H351 H 0.37478 0.92479 -0.14259
 H352 H 0.41351 0.95284 -0.11516
 H353 H 0.40437 0.89154 -0.04011
 C354 C 0.62368 0.92135 0.11698
 C355 C 0.63245 0.89255 0.10763
 C356 C 0.61891 0.87946 0.08240
 C357 C 0.59694 0.89523 0.06636
 C358 C 0.72114 0.83727 0.16296
 C359 C 0.60170 0.93715 0.10099
 C360 C 0.65605 0.87690 0.12330
 C361 C 0.67621 0.86410 0.13611
 C362 C 0.70025 0.84946 0.15076
 C363 C 0.58823 0.92436 0.07535
 H364 H 0.63413 0.93176 0.13639
 H365 H 0.62553 0.85718 0.07497
 H366 H 0.58673 0.88463 0.04695
 H367 H 0.59580 0.95967 0.10825
   
