data_POSCAR
  _audit_creation_date              2014-09-24
  _audit_creation_method            'ToBaCCo'
  _symmetry_space_group_name_H-M    'P1'
  _symmetry_Int_Tables_number       1
  _symmetry_cell_setting            triclinic
  loop_
  _symmetry_equiv_pos_as_xyz
 x,y,z
_cell_length_a 28.5009
_cell_length_b 28.4895
_cell_length_c 28.4793
_cell_angle_alpha 89.971500
_cell_angle_beta 90.007400
_cell_angle_gamma 90.008100
loop_
  _atom_site_label
  _atom_site_type_symbol
  _atom_site_fract_x
  _atom_site_fract_y
  _atom_site_fract_z
C1 C 0.36112 0.96671 -0.47575
 C2 C 0.36118 0.96554 -0.52387
 C3 C 0.40187 0.98811 -0.53846
 N4 N 0.42711 1.00197 -0.50074
 C5 C 0.40205 0.98921 -0.46249
 C6 C 0.41454 0.99833 -0.58551
 C7 C 0.46187 1.00909 -0.59689
 C8 C 0.47643 1.03546 -0.63520
 C9 C 0.52459 1.03498 -0.63510
 C10 C 0.53845 1.00840 -0.59669
 N11 N 0.49997 0.99368 -0.57289
 C12 C 0.58552 0.99697 -0.58499
 C13 C 0.59793 0.98769 -0.53766
 C14 C 0.63858 0.96555 -0.52230
 C15 C 0.63838 0.96785 -0.47422
 C16 C 0.59727 0.99043 -0.46172
 N17 N 0.57241 1.00226 -0.50040
 C18 C 0.58422 1.00214 -0.41546
 C19 C 0.53744 1.01301 -0.40356
 C20 C 0.52308 1.03435 -0.36223
 C21 C 0.47480 1.03369 -0.36231
 C22 C 0.46117 1.01204 -0.40372
 N23 N 0.49951 1.00001 -0.42886
 C24 C 0.41472 1.00017 -0.41593
 H25 H 0.33436 0.95201 -0.45316
 H26 H 0.33456 0.94906 -0.54531
 H27 H 0.49980 0.97895 -0.45876
 H28 H 0.45481 1.05419 -0.66017
 H29 H 0.54674 1.05324 -0.65997
 H30 H 0.66537 0.94860 -0.54313
 H31 H 0.66503 0.95375 -0.45112
 H32 H 0.45239 1.04715 -0.33477
 H33 H 0.49973 0.97055 -0.54446
 H34 H 0.54501 1.04841 -0.33459
 C35 C -0.63802 1.52338 -0.03577
 C36 C -0.63784 1.47532 -0.03526
 C37 C -0.59855 1.46171 -0.00997
 N38 N -0.57428 1.49999 0.00437
 C39 C -0.59887 1.53781 -0.01069
 C40 C -0.58594 1.41479 0.00091
 C41 C -0.53847 1.40331 0.01076
 C42 C -0.52288 1.36365 0.03457
 C43 C -0.47472 1.36381 0.03218
 C44 C -0.46208 1.40394 0.00785
 N45 N -0.50099 1.42818 -0.00455
 C46 C -0.41572 1.41614 -0.00456
 C47 C -0.40294 1.46282 -0.01471
 C48 C -0.36050 1.47704 -0.03374
 C49 C -0.36066 1.52522 -0.03312
 C50 C -0.40323 1.53863 -0.01382
 N51 N -0.42910 1.50049 -0.00282
 C52 C -0.41640 1.58497 -0.00274
 C53 C -0.46308 1.59672 0.00891
 C54 C -0.47651 1.63666 0.03310
 C55 C -0.52472 1.63655 0.03436
 C56 C -0.53950 1.59684 0.01019
 N57 N -0.50157 1.57226 -0.00437
 C58 C -0.58668 1.58501 -0.00056
 H59 H -0.66337 1.54496 -0.05400
 H60 H -0.66302 1.45313 -0.05300
 H61 H -0.50210 1.54318 -0.02658
 H62 H -0.54371 1.33736 0.05234
 H63 H -0.45165 1.33759 0.04713
 H64 H -0.33224 1.45512 -0.04647
 H65 H -0.33257 1.54769 -0.04530
 H66 H -0.54615 1.66267 0.05163
 H67 H -0.50211 1.45735 -0.02666
 H68 H -0.45396 1.66301 0.04859
 C69 C 0.03542 0.52568 0.36309
 C70 C 0.03709 0.47757 0.36261
 C71 C 0.01400 0.46227 0.40278
 N72 N -0.00047 0.49955 0.42831
 C73 C 0.01224 0.53819 0.40387
 C74 C 0.00364 0.41508 0.41477
 C75 C -0.00898 0.40366 0.46163
 C76 C -0.03644 0.36579 0.47518
 C77 C -0.03775 0.36590 0.52339
 C78 C -0.01098 0.40380 0.53820
 N79 N 0.00540 0.42737 0.50027
 C80 C 0.00014 0.41488 0.58547
 C81 C 0.01158 0.46166 0.59785
 C82 C 0.03751 0.47532 0.63671
 C83 C 0.03740 0.52341 0.63716
 C84 C 0.01134 0.53772 0.59858
 N85 N -0.00370 0.49986 0.57409
 C86 C 0.00014 0.58476 0.58674
 C87 C -0.01194 0.59622 0.53978
 C88 C -0.03708 0.63543 0.52526
 C89 C -0.03677 0.63530 0.47698
 C90 C -0.01212 0.59572 0.46332
 N91 N 0.00221 0.57167 0.50167
 C92 C -0.00007 0.58428 0.41671
 H93 H 0.05014 0.54877 0.33675
 H94 H 0.05415 0.45668 0.33592
 H95 H 0.02494 0.54297 0.50178
 H96 H -0.05467 0.34111 0.45281
 H97 H -0.05710 0.34127 0.54485
 H98 H 0.05587 0.45318 0.66150
 H99 H 0.05579 0.54509 0.66231
 H100 H -0.05294 0.66135 0.45454
 H101 H 0.02903 0.45536 0.50090
 H102 H -0.05428 0.66143 0.54690
 O103 O -0.12097 1.00200 -0.06304
 O104 O 0.12044 0.99844 -0.06312
 O105 O -0.00181 1.06365 -0.12049
 O106 O 0.00122 0.93663 -0.12036
 O107 O 0.00114 0.87934 -0.06301
 O108 O -0.00171 1.12103 -0.06328
 O109 O 0.06317 0.99848 -0.12043
 O110 O -0.06377 1.00188 -0.12040
 Zr111 Zr -0.00028 1.00017 -0.08220
 O112 O 0.04222 0.95752 -0.04216
 O113 O -0.04275 1.04287 -0.04221
 C114 C -0.10711 1.00274 -0.10643
 C115 C 0.10653 0.99769 -0.10650
 C116 C -0.00250 1.10705 -0.10666
 C117 C 0.00191 0.89324 -0.10642
 H118 H 0.06220 1.06255 -0.06209
 O119 O 0.04214 1.04256 -0.04203
 H120 H -0.06277 0.93784 -0.06197
 O121 O -0.04269 0.95783 -0.04194
 O122 O 0.12053 1.00167 0.06378
 O123 O -0.12096 0.99877 0.06386
 O124 O 0.06342 1.12097 0.00193
 O125 O 0.06306 0.87930 -0.00107
 O126 O -0.06399 0.87949 0.00215
 O127 O -0.06362 1.12113 -0.00126
 O128 O 0.00151 1.06369 0.12128
 O129 O -0.00189 0.93677 0.12137
 O130 O 0.00156 1.12105 0.06399
 O131 O -0.00203 0.87941 0.06414
 O132 O 0.12056 1.06355 0.00194
 O133 O -0.12088 1.06383 -0.00123
 O134 O -0.12108 0.93695 0.00207
 O135 O 0.12037 0.93656 -0.00119
 O136 O 0.06339 1.00176 0.12122
 O137 O -0.06378 0.99870 0.12126
 Zr138 Zr 0.08225 1.00010 0.00038
 Zr139 Zr -0.08274 1.00033 0.00043
 Zr140 Zr -0.00014 1.08288 0.00038
 Zr141 Zr -0.00039 0.91756 0.00052
 Zr142 Zr -0.00021 1.00023 0.08308
 O143 O -0.04286 0.95768 0.04309
 O144 O 0.04238 1.04277 0.04298
 C145 C 0.10673 1.00245 0.10719
 C146 C -0.10713 0.99797 0.10726
 C147 C 0.10675 1.10696 0.00269
 C148 C 0.10643 0.89319 -0.00188
 C149 C -0.10731 0.89354 0.00286
 C150 C -0.10698 1.10720 -0.00204
 C151 C 0.00233 1.10708 0.10739
 C152 C -0.00273 0.89338 0.10752
 H153 H -0.06254 1.06275 0.06286
 O154 O -0.04253 1.04270 0.04283
 H155 H 0.06207 0.93771 0.06291
 O156 O 0.04206 0.95776 0.04286
 N157 N 0.35819 0.99437 0.29958
 C158 C 0.31265 1.00194 0.31090
 N159 N 0.30093 1.00839 0.35650
 N160 N 0.33374 1.00724 0.38976
 C161 C 0.37961 0.99954 0.37892
 N162 N 0.39097 0.99323 0.33292
 C163 C 0.27717 1.00279 0.27518
 C164 C 0.24711 1.00334 0.24541
 C165 C 0.21120 1.00374 0.21012
 N166 N 0.16526 1.00367 0.22251
 N167 N 0.13190 1.00348 0.18972
 C168 C 0.14339 1.00337 0.14343
 N169 N 0.18945 1.00351 0.13117
 N170 N 0.22279 1.00370 0.16396
 N171 N -0.30079 1.00364 0.35666
 C172 C -0.31274 0.99643 0.31123
 N173 N -0.35845 0.98955 0.30014
 N174 N -0.39117 0.98976 0.33356
 C175 C -0.37957 0.99679 0.37940
 N176 N -0.33355 1.00384 0.38999
 C177 C -0.27736 0.99613 0.27542
 C178 C -0.24735 0.99599 0.24560
 C179 C -0.21149 0.99601 0.21027
 N180 N -0.22313 0.99620 0.16412
 N181 N -0.18982 0.99665 0.13130
 C182 C -0.14375 0.99692 0.14353
 N183 N -0.13221 0.99667 0.18980
 N184 N -0.16554 0.99622 0.22262
 N185 N -0.30405 1.02419 -0.35330
 C186 C -0.31221 1.00426 -0.31086
 N187 N -0.35430 0.98368 -0.30258
 N188 N -0.38725 0.98306 -0.33577
 C189 C -0.37924 1.00302 -0.37836
 N190 N -0.33699 1.02360 -0.38648
 C191 C -0.27663 1.00466 -0.27526
 C192 C -0.24667 1.00485 -0.24540
 C193 C -0.21099 1.00485 -0.20989
 N194 N -0.22287 1.00471 -0.16380
 N195 N -0.18973 1.00423 -0.13081
 C196 C -0.14360 1.00387 -0.14281
 N197 N -0.13185 1.00408 -0.18903
 N198 N -0.16500 1.00456 -0.22202
 N199 N 0.30251 1.01834 -0.35339
 C200 C 0.31118 0.99782 -0.31133
 N201 N 0.35377 0.97816 -0.30342
 N202 N 0.38669 0.97895 -0.33662
 C203 C 0.37815 0.99946 -0.37886
 N204 N 0.33542 1.01915 -0.38658
 C205 C 0.27572 0.99700 -0.27562
 C206 C 0.24585 0.99649 -0.24568
 C207 C 0.21025 0.99616 -0.21011
 N208 N 0.22220 0.99622 -0.16404
 N209 N 0.18911 0.99648 -0.13099
 C210 C 0.14297 0.99668 -0.14292
 N211 N 0.13113 0.99654 -0.18912
 N212 N 0.16423 0.99629 -0.22216
 N213 N 0.35732 1.30012 -0.00402
 C214 C 0.31179 1.31155 0.00330
 N215 N 0.30017 1.35716 0.00984
 N216 N 0.33312 1.39032 0.00909
 C217 C 0.37902 1.37931 0.00178
 N218 N 0.39022 1.33334 -0.00476
 C219 C 0.27628 1.27586 0.00388
 C220 C 0.24636 1.24594 0.00421
 C221 C 0.21068 1.21041 0.00438
 N222 N 0.16468 1.22251 0.00424
 N223 N 0.13153 1.18953 0.00390
 C224 C 0.14328 1.14332 0.00369
 N225 N 0.18941 1.13133 0.00390
 N226 N 0.22255 1.16433 0.00424
 N227 N 0.29925 0.64272 0.00481
 C228 C 0.31103 0.68821 -0.00235
 N229 N 0.35672 0.69953 -0.00883
 N230 N 0.38961 0.66631 -0.00822
 C231 C 0.37825 0.62045 -0.00110
 N232 N 0.33220 0.60957 0.00541
 C233 C 0.27556 0.72394 -0.00291
 C234 C 0.24570 0.75389 -0.00326
 C235 C 0.21010 0.78950 -0.00346
 N236 N 0.22208 0.83555 -0.00341
 N237 N 0.18902 0.86862 -0.00311
 C238 C 0.14286 0.85674 -0.00286
 N239 N 0.13100 0.81055 -0.00298
 N240 N 0.16406 0.77750 -0.00328
 N241 N -0.30517 0.64721 0.02171
 C242 C -0.31306 0.68972 0.00185
 N243 N -0.35483 0.69803 -0.01937
 N244 N -0.38768 0.66479 -0.02078
 C245 C -0.37986 0.62205 -0.00107
 N246 N -0.33801 0.61397 0.02032
 C247 C -0.27746 0.72530 0.00290
 C248 C -0.24741 0.75507 0.00358
 C249 C -0.21159 0.79045 0.00409
 N250 N -0.22328 0.83656 0.00405
 N251 N -0.19001 0.86943 0.00391
 C252 C -0.14393 0.85727 0.00380
 N253 N -0.13235 0.81102 0.00392
 N254 N -0.16563 0.77816 0.00406
 N255 N -0.30396 1.35355 0.01636
 C256 C -0.31219 1.31151 -0.00432
 N257 N -0.35435 1.30362 -0.02490
 N258 N -0.38725 1.33685 -0.02493
 C259 C -0.37908 1.37913 -0.00444
 N260 N -0.33685 1.38677 0.01634
 C261 C -0.27665 1.27586 -0.00445
 C262 C -0.24667 1.24602 -0.00446
 C263 C -0.21095 1.21056 -0.00430
 N264 N -0.22277 1.16447 -0.00406
 N265 N -0.18961 1.13152 -0.00351
 C266 C -0.14349 1.14356 -0.00318
 N267 N -0.13177 1.18978 -0.00348
 N268 N -0.16495 1.22272 -0.00403
 N269 N -0.00129 1.35699 0.30076
 C270 C 0.00432 1.31138 0.31288
 N271 N 0.00960 1.30011 0.35879
 N272 N 0.00937 1.33350 0.39154
 C273 C 0.00391 1.37951 0.37979
 N274 N -0.00151 1.39030 0.33355
 C275 C 0.00456 1.27555 0.27747
 C276 C 0.00464 1.24568 0.24749
 C277 C 0.00454 1.21026 0.21165
 N278 N 0.00431 1.16415 0.22340
 N279 N 0.00379 1.13127 0.19014
 C280 C 0.00348 1.14340 0.14399
 N281 N 0.00377 1.18965 0.13236
 N282 N 0.00429 1.22252 0.16564
 N283 N -0.00693 1.35722 -0.30038
 C284 C -0.00273 1.31142 -0.31232
 N285 N 0.00239 1.29987 -0.35816
 N286 N 0.00328 1.33316 -0.39104
 C287 C -0.00087 1.37934 -0.37950
 N288 N -0.00604 1.39044 -0.33330
 C289 C -0.00340 1.27568 -0.27678
 C290 C -0.00380 1.24581 -0.24676
 C291 C -0.00404 1.21035 -0.21094
 N292 N -0.00401 1.16424 -0.22269
 N293 N -0.00372 1.13132 -0.18943
 C294 C -0.00346 1.14339 -0.14329
 N295 N -0.00357 1.18963 -0.13165
 N296 N -0.00385 1.22255 -0.16492
 N297 N -0.00323 0.64241 -0.29900
 C298 C 0.00231 0.68807 -0.31102
 N299 N 0.00709 0.69951 -0.35693
 N300 N 0.00639 0.66625 -0.38979
 C301 C 0.00086 0.62022 -0.37819
 N302 N -0.00394 0.60922 -0.33192
 C303 C 0.00291 0.72386 -0.27557
 C304 C 0.00327 0.75385 -0.24571
 C305 C 0.00347 0.78949 -0.21011
 N306 N 0.00339 0.83555 -0.22214
 N307 N 0.00309 0.86863 -0.18908
 C308 C 0.00287 0.85677 -0.14287
 N309 N 0.00302 0.81060 -0.13097
 N310 N 0.00332 0.77752 -0.16403
 N311 N -0.02071 0.64572 0.30411
 C312 C -0.00328 0.68905 0.31312
 N313 N 0.01509 0.69818 0.35607
 N314 N 0.01604 0.66495 0.38901
 C315 C -0.00133 0.62142 0.38012
 N316 N -0.01978 0.61249 0.33703
 C317 C -0.00393 0.72469 0.27750
 C318 C -0.00430 0.75453 0.24747
 C319 C -0.00449 0.79001 0.21168
 N320 N -0.00439 0.77785 0.16566
 N321 N -0.00404 0.81080 0.13242
 C322 C -0.00377 0.85702 0.14411
 N323 N -0.00394 0.86905 0.19026
 N324 N -0.00429 0.83610 0.22348
   
