data_POSCAR
  _audit_creation_date              2014-09-24
  _audit_creation_method            'ToBaCCo'
  _symmetry_space_group_name_H-M    'P1'
  _symmetry_Int_Tables_number       1
  _symmetry_cell_setting            triclinic
  loop_
  _symmetry_equiv_pos_as_xyz
 x,y,z
_cell_length_a 43.9606
_cell_length_b 45.4781
_cell_length_c 45.5534
_cell_angle_alpha 88.521300
_cell_angle_beta 91.246000
_cell_angle_gamma 89.454900
loop_
  _atom_site_label
  _atom_site_type_symbol
  _atom_site_fract_x
  _atom_site_fract_y
  _atom_site_fract_z
N1 N 0.17302 0.22547 0.21345
 N2 N 0.18000 0.20043 0.22748
 C3 C 0.16268 0.19803 0.25161
 C4 C 0.14413 0.22285 0.25257
 C5 C 0.15135 0.23957 0.22815
 H6 H 0.16361 0.17980 0.26732
 H7 H 0.14134 0.26061 0.22164
 Cu8 Cu 0.21180 0.17312 0.21330
 Cu9 Cu 0.19214 0.23888 0.17687
 Cu10 Cu 0.24040 0.19139 0.14735
 N11 N 0.24393 0.14970 0.19534
 N12 N 0.25570 0.15749 0.17003
 C13 C 0.27831 0.13864 0.16380
 C14 C 0.28066 0.11759 0.18613
 C15 C 0.25848 0.12525 0.20587
 H16 H 0.29208 0.14007 0.14442
 H17 H 0.25385 0.11435 0.22665
 N18 N 0.23283 0.23008 0.12949
 N19 N 0.21343 0.24849 0.14089
 C20 C 0.21230 0.27352 0.12441
 C21 C 0.23224 0.27060 0.10153
 C22 C 0.24492 0.24282 0.10549
 H23 H 0.19848 0.29255 0.12909
 H24 H 0.26180 0.23273 0.09194
 H25 H 0.19398 0.19323 0.17582
 H26 H 0.22674 0.21162 0.19418
 N27 N 0.64487 0.71619 0.72336
 N28 N 0.66225 0.70227 0.74318
 C29 C 0.64582 0.69639 0.76725
 C30 C 0.61648 0.70691 0.76191
 C31 C 0.61664 0.71903 0.73381
 H32 H 0.65433 0.68474 0.78678
 H33 H 0.59772 0.72955 0.72199
 Cu34 Cu 0.70399 0.69163 0.73438
 Cu35 Cu 0.66035 0.72988 0.68562
 Cu36 Cu 0.73907 0.73014 0.68181
 N37 N 0.74237 0.67805 0.71863
 N38 N 0.75678 0.69381 0.69881
 C39 C 0.78271 0.67974 0.69205
 C40 C 0.78429 0.65347 0.70800
 C41 C 0.75835 0.65318 0.72480
 H42 H 0.79865 0.68751 0.67589
 H43 H 0.75147 0.63618 0.74024
 N44 N 0.71250 0.75500 0.65601
 N45 N 0.68252 0.75355 0.65622
 C46 C 0.67086 0.77156 0.63478
 C47 C 0.69463 0.78513 0.62062
 C48 C 0.72075 0.77408 0.63463
 H49 H 0.64684 0.77484 0.63001
 H50 H 0.74404 0.77879 0.62915
 H51 H 0.70091 0.70632 0.68246
 H52 H 0.70017 0.73852 0.70695
 N53 N 0.33550 0.74052 0.74978
 N54 N 0.33079 0.75948 0.77055
 C55 C 0.35320 0.75676 0.79107
 C56 C 0.37307 0.73492 0.78262
 C57 C 0.36116 0.72512 0.75635
 H58 H 0.35548 0.77053 0.80997
 H59 H 0.37101 0.70865 0.74262
 Cu60 Cu 0.29758 0.78787 0.76787
 Cu61 Cu 0.30910 0.73848 0.71493
 Cu62 Cu 0.25755 0.79570 0.70441
 N63 N 0.27293 0.82272 0.75898
 N64 N 0.25771 0.82575 0.73393
 C65 C 0.24291 0.85173 0.73308
 C66 C 0.24910 0.86581 0.75916
 C67 C 0.26825 0.84673 0.77508
 H68 H 0.22849 0.85942 0.71491
 H69 H 0.27800 0.85006 0.79674
 N70 N 0.26073 0.76314 0.67711
 N71 N 0.28011 0.74099 0.68119
 C72 C 0.27716 0.72266 0.65853
 C73 C 0.25490 0.73402 0.63932
 C74 C 0.24507 0.75962 0.65175
 H75 H 0.29081 0.70307 0.65580
 H76 H 0.22804 0.77476 0.64264
 H77 H 0.30202 0.78325 0.71523
 H78 H 0.27122 0.75955 0.73058
 N79 N 0.85131 0.24386 0.23260
 N80 N 0.84424 0.26164 0.25379
 C81 C 0.86702 0.26137 0.27408
 C82 C 0.88965 0.24242 0.26490
 C83 C 0.87887 0.23177 0.23853
 H84 H 0.86710 0.27423 0.29371
 H85 H 0.89030 0.21643 0.22460
 Cu86 Cu 0.80633 0.28421 0.25212
 Cu87 Cu 0.82439 0.23852 0.19851
 Cu88 Cu 0.74935 0.25290 0.21481
 N89 N 0.76522 0.30067 0.25168
 N90 N 0.74273 0.28714 0.23836
 C91 C 0.71679 0.30251 0.24140
 C92 C 0.72347 0.32748 0.25665
 C93 C 0.75444 0.32565 0.26306
 H94 H 0.69503 0.29680 0.23168
 H95 H 0.76815 0.34148 0.27455
 N96 N 0.76142 0.22955 0.18122
 N97 N 0.79001 0.22484 0.17427
 C98 C 0.79064 0.21179 0.14807
 C99 C 0.76091 0.20859 0.13802
 C100 C 0.74308 0.21997 0.15956
 H101 H 0.81116 0.20667 0.13648
 H102 H 0.71861 0.22276 0.15866
 H103 H 0.79004 0.27052 0.20296
 H104 H 0.79262 0.23813 0.22901
 N105 N 0.81718 0.75193 0.27043
 N106 N 0.82070 0.72573 0.25943
 C107 C 0.83900 0.72765 0.23625
 C108 C 0.84756 0.75668 0.23261
 C109 C 0.83343 0.77148 0.25473
 H110 H 0.84595 0.70914 0.22348
 H111 H 0.83517 0.79465 0.25923
 Cu112 Cu 0.80172 0.69131 0.27633
 Cu113 Cu 0.79266 0.75818 0.30479
 Cu114 Cu 0.75411 0.69747 0.33217
 N115 N 0.77228 0.66121 0.28509
 N116 N 0.75297 0.66379 0.30652
 C117 C 0.73569 0.63950 0.30793
 C118 C 0.74487 0.62085 0.28613
 C119 C 0.76809 0.63530 0.27216
 H120 H 0.71852 0.63540 0.32413
 H121 H 0.78123 0.62735 0.25414
 N122 N 0.75239 0.73643 0.35018
 N123 N 0.76685 0.75955 0.33953
 C124 C 0.76287 0.78228 0.35744
 C125 C 0.74510 0.77299 0.38050
 C126 C 0.73878 0.74390 0.37515
 H127 H 0.77328 0.80356 0.35456
 H128 H 0.72614 0.72902 0.38908
 H129 H 0.79587 0.71645 0.32285
 H130 H 0.76356 0.72356 0.29634
 N131 N 0.33683 0.26251 -0.23524
 N132 N 0.33904 0.23596 -0.24575
 C133 C 0.35809 0.23624 -0.26835
 C134 C 0.36886 0.26456 -0.27219
 C135 C 0.35502 0.28067 -0.25066
 H136 H 0.36374 0.21702 -0.28067
 H137 H 0.35771 0.30387 -0.24677
 Cu138 Cu 0.31713 0.20308 -0.22952
 Cu139 Cu 0.30955 0.27103 -0.20303
 Cu140 Cu 0.26513 0.21269 -0.17859
 N141 N 0.28618 0.17408 -0.22253
 N142 N 0.26527 0.17800 -0.20282
 C143 C 0.24684 0.15451 -0.20228
 C144 C 0.25692 0.13497 -0.22292
 C145 C 0.28187 0.14809 -0.23530
 H146 H 0.22792 0.15180 -0.18772
 H147 H 0.29588 0.13934 -0.25231
 N148 N 0.26323 0.25217 -0.16194
 N149 N 0.28030 0.27434 -0.17074
 C150 C 0.27464 0.29765 -0.15384
 C151 C 0.25292 0.28957 -0.13366
 C152 C 0.24618 0.26078 -0.13954
 H153 H 0.28592 0.31861 -0.15569
 H154 H 0.23056 0.24690 -0.12767
 H155 H 0.30859 0.22976 -0.18431
 H156 H 0.27934 0.23808 -0.21361
 N157 N 0.65347 0.26239 -0.24339
 N158 N 0.66183 0.27802 -0.26647
 C159 C 0.64160 0.27439 -0.28862
 C160 C 0.61910 0.25568 -0.27869
 C161 C 0.62744 0.24843 -0.24995
 H162 H 0.64250 0.28568 -0.30974
 H163 H 0.61494 0.23489 -0.23461
 Cu164 Cu 0.69581 0.30469 -0.26355
 Cu165 Cu 0.67554 0.26382 -0.20582
 Cu166 Cu 0.74826 0.29323 -0.21037
 N167 N 0.73098 0.32978 -0.26041
 N168 N 0.75167 0.32533 -0.23945
 C169 C 0.77273 0.34660 -0.24130
 C170 C 0.76437 0.36550 -0.26450
 C171 C 0.73787 0.35417 -0.27607
 H172 H 0.79173 0.34881 -0.22607
 H173 H 0.72405 0.36371 -0.29385
 N174 N 0.73500 0.26855 -0.17687
 N175 N 0.70722 0.25799 -0.17487
 C176 C 0.70529 0.24201 -0.14971
 C177 C 0.73322 0.24267 -0.13512
 C178 C 0.75144 0.25974 -0.15290
 H179 H 0.68525 0.23028 -0.14297
 H180 H 0.77508 0.26498 -0.14882
 H181 H 0.70282 0.30129 -0.21032
 H182 H 0.71419 0.26685 -0.22872
 N183 N 0.14498 0.73472 0.24254
 N184 N 0.15268 0.75470 0.22281
 C185 C 0.12919 0.75952 0.20381
 C186 C 0.10542 0.74173 0.21245
 C187 C 0.11623 0.72631 0.23702
 H188 H 0.12931 0.77529 0.18565
 H189 H 0.10378 0.71063 0.25023
 Cu190 Cu 0.19229 0.77338 0.22421
 Cu191 Cu 0.17269 0.72276 0.27430
 Cu192 Cu 0.22919 0.76813 0.29255
 N193 N 0.22595 0.79904 0.23573
 N194 N 0.23997 0.79749 0.26168
 C195 C 0.26082 0.81907 0.26292
 C196 C 0.25924 0.83516 0.23659
 C197 C 0.23699 0.82178 0.22000
 H198 H 0.27517 0.82331 0.28188
 H199 H 0.22876 0.82869 0.19833
 N200 N 0.22246 0.73106 0.31417
 N201 N 0.20158 0.71242 0.30557
 C202 C 0.20148 0.68911 0.32429
 C203 C 0.22278 0.69368 0.34623
 C204 C 0.23580 0.72054 0.33926
 H205 H 0.18578 0.67098 0.32317
 H206 H 0.25325 0.73174 0.35165
 H207 H 0.18833 0.77389 0.26849
 H208 H 0.21746 0.74750 0.25537
 N209 N 0.49386 0.45445 0.51762
 N210 N 0.47516 0.46828 0.53481
 C211 C 0.46520 0.44941 0.55557
 C212 C 0.47831 0.42225 0.55120
 C213 C 0.49649 0.42618 0.52694
 H214 H 0.44899 0.45483 0.57217
 H215 H 0.51028 0.40977 0.51659
 Cu216 Cu 0.46362 0.50883 0.52712
 Cu217 Cu 0.51301 0.47426 0.48435
 Cu218 Cu 0.49531 0.54848 0.47341
 N219 N 0.44388 0.54392 0.51060
 N220 N 0.45670 0.55990 0.48996
 C221 C 0.43785 0.58223 0.48174
 C222 C 0.41161 0.57969 0.49768
 C223 C 0.41623 0.55519 0.51596
 H224 H 0.44224 0.59819 0.46436
 H225 H 0.40047 0.54567 0.53134
 N226 N 0.52439 0.52740 0.44927
 N227 N 0.53012 0.49893 0.45250
 C228 C 0.54843 0.49059 0.43085
 C229 C 0.55431 0.51500 0.41312
 C230 C 0.53888 0.53793 0.42555
 H231 H 0.55647 0.46835 0.42802
 H232 H 0.53733 0.56040 0.41723
 H233 H 0.51233 0.51479 0.50196
 H234 H 0.47980 0.50623 0.47682
 N235 N 0.01594 -0.04998 1.00719
 N236 N -0.00681 -0.04366 1.02423
 C237 C -0.01273 -0.06717 1.04155
 C238 C 0.00747 -0.08948 1.03497
 C239 C 0.02560 -0.07769 1.01333
 H240 H -0.03091 -0.06806 1.05716
 H241 H 0.04348 -0.08888 1.00192
 Cu242 Cu -0.02833 -0.00633 1.02070
 Cu243 Cu 0.02932 -0.02233 0.97699
 Cu244 Cu -0.02542 0.03002 0.95575
 N245 N -0.05881 0.02276 1.00896
 N246 N -0.05840 0.03600 0.98299
 C247 C -0.08363 0.05278 0.97934
 C248 C -0.10071 0.04975 1.00444
 C249 C -0.08418 0.03073 1.02284
 H250 H -0.08920 0.06589 0.95979
 H251 H -0.09075 0.02235 1.04420
 N252 N 0.01015 0.02077 0.93183
 N253 N 0.03115 0.00123 0.94034
 C254 C 0.05205 -0.00077 0.91937
 C255 C 0.04384 0.01853 0.89651
 C256 C 0.01730 0.03190 0.90519
 H257 H 0.07136 -0.01565 0.92055
 H258 H 0.00395 0.04812 0.89267
 H259 H 0.00703 0.01718 0.98640
 H260 H -0.01567 -0.01276 0.96974
 N261 N 0.97980 0.60002 0.97558
 N262 N 1.00777 0.60729 0.98284
 C263 C 1.00700 0.63127 0.99957
 C264 C 0.97674 0.63917 1.00295
 C265 C 0.96020 0.61874 0.98769
 H266 H 1.02682 0.64153 1.00914
 H267 H 0.93569 0.61753 0.98557
 Cu268 Cu 1.04187 0.58309 0.97121
 Cu269 Cu 0.97106 0.56659 0.95132
 Cu270 Cu 1.03239 0.53812 0.91448
 N271 N 1.07033 0.55113 0.96458
 N272 N 1.06746 0.53399 0.94185
 C273 C 1.08965 0.51328 0.94350
 C274 C 1.10690 0.51758 0.96888
 C275 C 1.09394 0.54169 0.98165
 H276 H 1.09177 0.49535 0.92849
 H277 H 1.10049 0.55102 1.00244
 N278 N 0.98990 0.53451 0.90001
 N279 N 0.96675 0.54375 0.91544
 C280 C 0.94080 0.53988 0.90006
 C281 C 0.94771 0.52793 0.87355
 C282 C 0.97915 0.52457 0.87414
 H283 H 0.91862 0.54740 0.90668
 H284 H 0.99323 0.51690 0.85667
 H285 H 1.01136 0.54259 0.95248
 H286 H 1.00905 0.57622 0.92822
 N287 N 0.48013 0.09235 0.47436
 N288 N 0.50865 0.09602 0.48250
 C289 C 0.51094 0.12073 0.49799
 C290 C 0.48210 0.13305 0.49971
 C291 C 0.46313 0.11440 0.48462
 H292 H 0.53174 0.12833 0.50822
 H293 H 0.43869 0.11637 0.48182
 Cu294 Cu 0.53923 0.06656 0.47442
 Cu295 Cu 0.46732 0.05826 0.45256
 Cu296 Cu 0.52543 0.01814 0.42147
 N297 N 0.56366 0.03114 0.47133
 N298 N 0.55944 0.01267 0.44988
 C299 C 0.58023 -0.00928 0.45289
 C300 C 0.59788 -0.00432 0.47786
 C301 C 0.58665 0.02137 0.48900
 H302 H 0.58157 -0.02795 0.43871
 H303 H 0.59456 0.03214 0.50859
 N304 N 0.48303 0.01833 0.40588
 N305 N 0.46097 0.03256 0.41892
 C306 C 0.43501 0.02988 0.40320
 C307 C 0.44076 0.01329 0.37904
 C308 C 0.47152 0.00612 0.38135
 H309 H 0.41376 0.04071 0.40805
 H310 H 0.48473 -0.00602 0.36590
 H311 H 0.50389 0.02895 0.45771
 H312 H 0.50733 0.06008 0.43060
 N313 N -0.00834 0.08940 0.53652
 N314 N -0.03030 0.08325 0.51760
 C315 C -0.02793 0.10131 0.49372
 C316 C -0.00302 0.11932 0.49808
 C317 C 0.00880 0.11106 0.52530
 H318 H -0.04183 0.10010 0.47392
 H319 H 0.02928 0.11939 0.53557
 Cu320 Cu -0.05676 0.04935 0.52453
 Cu321 Cu -0.00086 0.06739 0.57315
 Cu322 Cu -0.04608 0.00727 0.58575
 N323 N -0.08256 0.01515 0.53275
 N324 N -0.07709 -0.00119 0.55656
 C325 C -0.09569 -0.02433 0.55682
 C326 C -0.11416 -0.02269 0.53216
 C327 C -0.10544 0.00274 0.51709
 H328 H -0.09572 -0.04150 0.57371
 H329 H -0.11436 0.01098 0.49611
 N330 N -0.01381 0.01887 0.61321
 N331 N 0.00317 0.04227 0.60894
 C332 C 0.02439 0.04319 0.63075
 C333 C 0.02052 0.01900 0.64932
 C334 C -0.00375 0.00413 0.63753
 H335 H 0.04257 0.05899 0.63189
 H336 H -0.01240 -0.01672 0.64543
 H337 H -0.01681 0.02860 0.55710
 H338 H -0.04440 0.05226 0.57677
 N339 N 0.50774 0.55754 0.04062
 N340 N 0.48142 0.55581 0.02631
 C341 C 0.48056 0.57612 0.00422
 C342 C 0.50779 0.59117 0.00466
 C343 C 0.52446 0.57877 0.02790
 H344 H 0.46212 0.57880 -0.01175
 H345 H 0.54736 0.58446 0.03462
 Cu346 Cu 0.45146 0.52502 0.03524
 Cu347 Cu 0.51922 0.53121 0.07407
 Cu348 Cu 0.47740 0.46984 0.08054
 N349 N 0.42834 0.48920 0.04187
 N350 N 0.43865 0.46773 0.05937
 C351 C 0.41798 0.44615 0.06032
 C352 C 0.39345 0.45441 0.04247
 C353 C 0.40072 0.48191 0.03100
 H354 H 0.42033 0.42608 0.07347
 H355 H 0.38688 0.49577 0.01631
 N356 N 0.50979 0.47862 0.10861
 N357 N 0.52539 0.50309 0.10673
 C358 C 0.54600 0.50347 0.12905
 C359 C 0.54322 0.47770 0.14561
 C360 C 0.52020 0.46240 0.13191
 H361 H 0.56242 0.52069 0.13236
 H362 H 0.51174 0.44100 0.13841
 H363 H 0.49363 0.50613 0.04475
 H364 H 0.47351 0.52280 0.07658
 N365 N 0.54290 -0.11652 0.02476
 N366 N 0.57066 -0.11154 0.01577
 C367 C 0.57899 -0.13259 -0.00260
 C368 C 0.55526 -0.15185 -0.00569
 C369 C 0.53251 -0.14112 0.01201
 H370 H 0.60050 -0.13340 -0.01367
 H371 H 0.51021 -0.15034 0.01523
 Cu372 Cu 0.59287 -0.07699 0.02658
 Cu373 Cu 0.52318 -0.08992 0.05220
 Cu374 Cu 0.55960 -0.02330 0.06330
 N375 N 0.60946 -0.03784 0.02657
 N376 N 0.59725 -0.01697 0.04203
 C377 C 0.61276 0.00810 0.03743
 C378 C 0.63546 0.00251 0.01764
 C379 C 0.63257 -0.02674 0.01106
 H380 H 0.60673 0.02920 0.04619
 H381 H 0.64570 -0.03883 -0.00450
 N382 N 0.52133 -0.03414 0.08256
 N383 N 0.50765 -0.05962 0.07903
 C384 C 0.48252 -0.06025 0.09560
 C385 C 0.48027 -0.03375 0.10983
 C386 C 0.50507 -0.01780 0.10092
 H387 H 0.46671 -0.07829 0.09674
 H388 H 0.51081 0.00417 0.10751
 H389 H 0.54381 -0.05378 0.03366
 H390 H 0.56100 -0.06895 0.06877
 N391 N 1.01049 0.40769 0.49855
 N392 N 1.03528 0.41153 0.48330
 C393 C 1.03851 0.38884 0.46509
 C394 C 1.01446 0.36975 0.46919
 C395 C 0.99716 0.38247 0.49055
 H396 H 1.05698 0.38643 0.45005
 H397 H 0.97647 0.37384 0.49970
 Cu398 Cu 1.06091 0.44591 0.48885
 Cu399 Cu 0.99744 0.43552 0.52796
 Cu400 Cu 1.04650 0.49288 0.54244
 N401 N 1.08529 0.48122 0.49411
 N402 N 1.07985 0.49882 0.51586
 C403 C 1.10019 0.52068 0.51580
 C404 C 1.11940 0.51684 0.49258
 C405 C 1.10918 0.49172 0.47908
 H406 H 1.10046 0.53846 0.53112
 H407 H 1.11865 0.48180 0.45994
 N408 N 1.00726 0.48824 0.56164
 N409 N 0.98874 0.46610 0.55687
 C410 C 0.96423 0.46907 0.57393
 C411 C 0.96746 0.49457 0.58966
 C412 C 0.99476 0.50622 0.58115
 H413 H 0.94521 0.45418 0.57451
 H414 H 1.00488 0.52625 0.58886
 H415 H 1.01954 0.47220 0.51133
 H416 H 1.04053 0.44738 0.53829
 C417 C 0.34001 -0.00449 0.22627
 C418 C 0.32445 -0.03396 0.23242
 C419 C 0.34403 -0.05683 0.23833
 C420 C 0.37764 -0.04813 0.23758
 C421 C 0.36086 -0.00006 0.25311
 C422 C 0.38058 -0.02288 0.25918
 C423 C 0.36164 -0.01075 0.20104
 C424 C 0.38146 -0.03360 0.20702
 H425 H 0.29997 -0.03618 0.23301
 H426 H 0.39365 -0.06678 0.24245
 H427 H 0.36073 0.02009 0.26522
 H428 H 0.36022 0.00079 0.17998
 C429 C 0.16667 -0.02283 0.75680
 C430 C 0.18550 0.00469 0.76246
 C431 C 0.16870 0.02789 0.77192
 C432 C 0.13468 0.02134 0.77478
 C433 C 0.15039 -0.02921 0.78559
 C434 C 0.13369 -0.00620 0.79517
 C435 C 0.14144 -0.01252 0.73516
 C436 C 0.12465 0.01058 0.74449
 H437 H 0.20994 0.00506 0.76024
 H438 H 0.12127 0.04051 0.78201
 H439 H 0.15244 -0.05001 0.79766
 H440 H 0.13821 -0.02183 0.71369
 C441 C 0.67318 0.45414 0.27889
 C442 C 0.68750 0.48437 0.28313
 C443 C 0.66684 0.50649 0.28668
 C444 C 0.63372 0.49623 0.28583
 C445 C 0.65314 0.44944 0.30560
 C446 C 0.63263 0.47144 0.30950
 C447 C 0.65090 0.45862 0.25280
 C448 C 0.63016 0.48065 0.25638
 H449 H 0.71186 0.48749 0.28450
 H450 H 0.61684 0.51424 0.28835
 H451 H 0.65560 0.43064 0.32060
 H452 H 0.65278 0.44660 0.23271
 C453 C 0.84404 0.52734 0.72216
 C454 C 0.82940 0.49745 0.72850
 C455 C 0.84958 0.47460 0.73119
 C456 C 0.88272 0.48374 0.72746
 C457 C 0.86758 0.53070 0.74705
 C458 C 0.88782 0.50785 0.74994
 C459 C 0.86271 0.52265 0.69451
 C460 C 0.88289 0.49964 0.69730
 H461 H 0.80520 0.49490 0.73151
 H462 H 0.89923 0.46512 0.72979
 H463 H 0.86824 0.54975 0.76082
 H464 H 0.85862 0.53498 0.67414
 C465 C 0.22522 0.38093 0.01562
 C466 C 0.23096 0.36461 -0.01278
 C467 C 0.23994 0.38224 -0.03558
 C468 C 0.24225 0.41480 -0.02781
 C469 C 0.25462 0.39752 0.02197
 C470 C 0.26385 0.41510 -0.00078
 C471 C 0.20188 0.40493 0.00671
 C472 C 0.21068 0.42266 -0.01615
 H473 H 0.22940 0.34094 -0.01396
 H474 H 0.24951 0.42927 -0.04635
 H475 H 0.26628 0.39595 0.04311
 H476 H 0.17958 0.40625 0.01624
 C477 C 0.73377 0.14973 -0.03153
 C478 C 0.74313 0.16497 -0.00307
 C479 C 0.75566 0.14628 0.01785
 C480 C 0.75741 0.11421 0.00860
 C481 C 0.76247 0.13357 -0.04115
 C482 C 0.77518 0.11528 -0.02018
 C483 C 0.71233 0.12521 -0.02171
 C484 C 0.72462 0.10670 -0.00057
 H485 H 0.74095 0.18846 -0.00024
 H486 H 0.76680 0.09904 0.02603
 H487 H 0.77257 0.13730 -0.06240
 H488 H 0.68887 0.12395 -0.02929
 C489 C 0.24135 0.65462 0.47803
 C490 C 0.24086 0.67015 0.50755
 C491 C 0.24470 0.65153 0.53139
 C492 C 0.24828 0.61914 0.52336
 C493 C 0.27148 0.63748 0.47876
 C494 C 0.27529 0.61903 0.50261
 C495 C 0.21665 0.63115 0.48024
 C496 C 0.22031 0.61248 0.50393
 H497 H 0.24019 0.69384 0.50899
 H498 H 0.25127 0.60389 0.54269
 H499 H 0.28804 0.63987 0.46165
 H500 H 0.19723 0.63050 0.46524
 C501 C 0.73678 0.87742 0.52504
 C502 C 0.74112 0.85775 0.49868
 C503 C 0.74308 0.87279 0.47252
 C504 C 0.74108 0.90634 0.47525
 C505 C 0.76343 0.89874 0.52401
 C506 C 0.76598 0.91384 0.49795
 C507 C 0.70872 0.89652 0.51702
 C508 C 0.71089 0.91156 0.49079
 H509 H 0.74321 0.83407 0.50096
 H510 H 0.74296 0.91868 0.45399
 H511 H 0.77809 0.90248 0.54294
 H512 H 0.68845 0.89654 0.53009
 C513 C 0.05155 0.22211 0.35625
 C514 C 0.02260 0.22914 0.33791
 C515 C -0.00083 0.24001 0.35366
 C516 C 0.00698 0.24301 0.38648
 C517 C 0.05911 0.25071 0.37168
 C518 C 0.03600 0.26192 0.38748
 C519 C 0.04108 0.20116 0.38080
 C520 C 0.01756 0.21195 0.39655
 H521 H 0.02134 0.22606 0.31445
 H522 H -0.01230 0.25147 0.39921
 H523 H 0.08099 0.26133 0.36994
 H524 H 0.04992 0.17896 0.38380
 C525 C -0.06225 0.75827 0.12846
 C526 C -0.03220 0.75880 0.14607
 C527 C -0.00776 0.76643 0.12971
 C528 C -0.01574 0.77306 0.09728
 C529 C -0.06535 0.78880 0.11383
 C530 C -0.04095 0.79688 0.09777
 C531 C -0.05615 0.73756 0.10330
 C532 C -0.03170 0.74517 0.08693
 H533 H -0.03085 0.75414 0.16948
 H534 H 0.00434 0.77868 0.08404
 H535 H -0.08475 0.80320 0.11686
 H536 H -0.06852 0.71732 0.10065
 C537 C 0.45985 0.25571 0.62609
 C538 C 0.48969 0.25417 0.64406
 C539 C 0.51497 0.25863 0.62779
 C540 C 0.50797 0.26415 0.59496
 C541 C 0.46010 0.28570 0.61000
 C542 C 0.48548 0.29023 0.59378
 C543 C 0.46394 0.23328 0.60197
 C544 C 0.48915 0.23763 0.58561
 H545 H 0.49021 0.25162 0.66774
 H546 H 0.52856 0.26775 0.58164
 H547 H 0.44144 0.30130 0.61094
 H548 H 0.44913 0.21459 0.59950
 C549 C 0.53677 0.71728 0.87374
 C550 C 0.50705 0.72393 0.85631
 C551 C 0.48218 0.72682 0.87333
 C552 C 0.48931 0.72366 0.90636
 C553 C 0.53927 0.74267 0.89514
 C554 C 0.51452 0.74600 0.91244
 C555 C 0.52998 0.69024 0.89321
 C556 C 0.50515 0.69358 0.91031
 H557 H 0.50610 0.72815 0.83284
 H558 H 0.46906 0.72631 0.92028
 H559 H 0.55865 0.75714 0.89555
 H560 H 0.54329 0.67011 0.89282
 C561 C 0.12123 0.23154 0.27399
 C562 C 0.11255 0.21492 0.29689
 C563 C 0.08855 0.22610 0.31602
 C564 C 0.07731 0.21021 0.33833
 H565 H 0.12253 0.19332 0.30115
 H566 H 0.07918 0.24792 0.31136
 H567 H 0.11054 0.25294 0.27020
 H568 H 0.08619 0.18827 0.34319
 C569 C 0.58988 0.70532 0.78097
 C570 C 0.59219 0.70385 0.81029
 C571 C 0.56449 0.70452 0.82795
 C572 C 0.56509 0.71357 0.85572
 H573 H 0.61435 0.70393 0.82118
 H574 H 0.54317 0.69865 0.81744
 H575 H 0.56757 0.70737 0.77046
 H576 H 0.58682 0.71873 0.86597
 C577 C 0.40235 0.72564 0.79641
 C578 C 0.41171 0.73470 0.82276
 C579 C 0.44217 0.72652 0.83450
 C580 C 0.45127 0.73374 0.86157
 H581 H 0.39721 0.74861 0.83555
 H582 H 0.45733 0.71440 0.82067
 H583 H 0.41685 0.71119 0.78418
 H584 H 0.43542 0.74435 0.87590
 C585 C -0.08216 0.23530 0.27812
 C586 C -0.07231 0.24608 0.30368
 C587 C -0.04182 0.23792 0.31554
 C588 C -0.03126 0.24804 0.34112
 H589 H -0.08640 0.26098 0.31580
 H590 H -0.02810 0.22298 0.30315
 H591 H -0.06754 0.22026 0.26670
 H592 H -0.04577 0.26198 0.35389
 C593 C -0.13122 0.76917 0.21122
 C594 C -0.12179 0.75385 0.18847
 C595 C -0.09835 0.76523 0.16888
 C596 C -0.08886 0.74920 0.14664
 H597 H -0.13077 0.73216 0.18461
 H598 H -0.08777 0.78614 0.17332
 H599 H -0.12279 0.79118 0.21457
 H600 H -0.09919 0.72805 0.14275
 C601 C 0.38968 0.27483 0.70721
 C602 C 0.39994 0.25781 0.68591
 C603 C 0.42378 0.26745 0.66577
 C604 C 0.43234 0.24983 0.64432
 H605 H 0.39122 0.23583 0.68336
 H606 H 0.43543 0.28801 0.66928
 H607 H 0.39772 0.29721 0.70873
 H608 H 0.42072 0.22912 0.64153
 C609 C 0.59207 0.24769 0.70710
 C610 C 0.58456 0.25667 0.67965
 C611 C 0.55422 0.25072 0.66708
 C612 C 0.54615 0.26090 0.64020
 H613 H 0.60013 0.26964 0.66669
 H614 H 0.53816 0.23878 0.68042
 H615 H 0.57613 0.23445 0.71942
 H616 H 0.56291 0.27180 0.62676
 C617 C 0.07439 0.74001 0.20001
 C618 C 0.06493 0.75585 0.17643
 C619 C 0.03331 0.75377 0.16567
 C620 C 0.02373 0.76831 0.14131
 H621 H 0.08035 0.77047 0.16512
 H622 H 0.01791 0.73971 0.17768
 H623 H 0.05868 0.72536 0.21095
 H624 H 0.03977 0.78110 0.12868
 C625 C 0.30320 0.09325 0.18809
 C626 C 0.30010 0.06976 0.20597
 C627 C 0.32304 0.04572 0.20737
 C628 C 0.31711 0.02030 0.22142
 H629 H 0.28013 0.06794 0.21938
 H630 H 0.34482 0.04886 0.19716
 H631 H 0.32247 0.09435 0.17370
 H632 H 0.29540 0.01807 0.23204
 C633 C 0.80818 0.63058 0.70620
 C634 C 0.80367 0.60287 0.71544
 C635 C 0.82738 0.57984 0.71363
 C636 C 0.82067 0.55188 0.72024
 H637 H 0.78185 0.59683 0.72428
 H638 H 0.85031 0.58568 0.70761
 H639 H 0.82949 0.63642 0.69615
 H640 H 0.79759 0.54675 0.72643
 C641 C 0.77761 0.39378 0.72651
 C642 C 0.80381 0.40379 0.73750
 C643 C 0.81368 0.43364 0.72936
 C644 C 0.84074 0.44396 0.73783
 H645 H 0.81744 0.39047 0.75295
 H646 H 0.79821 0.44757 0.71625
 H647 H 0.76468 0.40726 0.71059
 H648 H 0.85703 0.42954 0.74932
 C649 C 0.27430 -0.13917 0.22817
 C650 C 0.29649 -0.12682 0.24405
 C651 C 0.30831 -0.09791 0.23471
 C652 C 0.33391 -0.08689 0.24614
 H653 H 0.30541 -0.13740 0.26406
 H654 H 0.29546 -0.08522 0.21812
 H655 H 0.26704 -0.12855 0.20756
 H656 H 0.34802 -0.10026 0.26115
 C657 C 0.23795 -0.10713 0.76836
 C658 C 0.21935 -0.09011 0.75145
 C659 C 0.20546 -0.06307 0.76233
 C660 C 0.18444 -0.04860 0.74583
 H661 H 0.21303 -0.09662 0.72947
 H662 H 0.21109 -0.05581 0.78424
 H663 H 0.24422 -0.10012 0.79023
 H664 H 0.17902 -0.05630 0.72401
 C665 C 0.70181 0.35148 0.26195
 C666 C 0.71060 0.37850 0.26874
 C667 C 0.68791 0.40212 0.27172
 C668 C 0.69630 0.42994 0.27527
 H669 H 0.73454 0.38348 0.27120
 H670 H 0.66391 0.39685 0.27082
 H671 H 0.67782 0.34714 0.25842
 H672 H 0.72029 0.43527 0.27596
 C673 C 0.73456 0.59102 0.27965
 C674 C 0.70956 0.57922 0.29093
 C675 C 0.70141 0.54880 0.28422
 C676 C 0.67499 0.53727 0.29244
 H677 H 0.69522 0.59184 0.30511
 H678 H 0.71731 0.53577 0.27204
 H679 H 0.74812 0.57834 0.26480
 H680 H 0.65843 0.55093 0.30311
 C681 C 0.24496 0.10598 0.76950
 C682 C 0.21921 0.09534 0.78028
 C683 C 0.20828 0.06626 0.77171
 C684 C 0.18115 0.05664 0.78014
 H685 H 0.20594 0.10815 0.79520
 H686 H 0.22235 0.05305 0.75785
 H687 H 0.25770 0.09315 0.75414
 H688 H 0.16688 0.07080 0.79292
 C689 C 0.23983 0.29215 0.07819
 C690 C 0.22426 0.31726 0.07313
 C691 C 0.23309 0.33761 0.04919
 C692 C 0.21590 0.36091 0.04075
 H693 H 0.20476 0.32260 0.08617
 H694 H 0.25394 0.33318 0.03771
 H695 H 0.25874 0.28682 0.06432
 H696 H 0.19503 0.36557 0.05207
 C697 C 0.69206 0.80582 0.59517
 C698 C 0.71527 0.82257 0.58674
 C699 C 0.71301 0.84194 0.56031
 C700 C 0.73563 0.86027 0.55378
 H701 H 0.73648 0.82184 0.59932
 H702 H 0.69342 0.84050 0.54558
 H703 H 0.67047 0.80743 0.58326
 H704 H 0.75530 0.86096 0.56852
 C705 C 0.73716 0.78894 0.40703
 C706 C 0.74518 0.81683 0.41128
 C707 C 0.73923 0.83085 0.43933
 C708 C 0.74729 0.85866 0.44404
 H709 H 0.75701 0.82916 0.39446
 H710 H 0.72831 0.81802 0.45638
 H711 H 0.72519 0.77695 0.42403
 H712 H 0.75680 0.87175 0.42634
 C713 C 0.24054 0.30598 -0.10912
 C714 C 0.24994 0.33264 -0.10151
 C715 C 0.23861 0.34548 -0.07443
 C716 C 0.24866 0.37113 -0.06451
 H717 H 0.26687 0.34417 -0.11419
 H718 H 0.22223 0.33304 -0.06192
 H719 H 0.22382 0.29479 -0.09583
 H720 H 0.26389 0.38426 -0.07772
 C721 C 0.74296 0.22728 -0.10759
 C722 C 0.72492 0.20883 -0.09292
 C723 C 0.73666 0.19167 -0.06723
 C724 C 0.72035 0.17005 -0.05513
 H725 H 0.70183 0.20518 -0.10064
 H726 H 0.75962 0.19550 -0.05910
 H727 H 0.76618 0.23037 -0.09985
 H728 H 0.69758 0.16591 -0.06357
 C729 C 0.22772 0.67446 0.37231
 C730 C 0.23525 0.68490 0.39854
 C731 C 0.23712 0.66495 0.42445
 C732 C 0.23805 0.67519 0.45167
 H733 H 0.23862 0.70828 0.40113
 H734 H 0.23748 0.64139 0.42131
 H735 H 0.22237 0.65136 0.37035
 H736 H 0.23759 0.69872 0.45489
 C737 C 0.24480 0.72330 0.61050
 C738 C 0.25255 0.69685 0.60085
 C739 C 0.24367 0.68803 0.57100
 C740 C 0.24995 0.66099 0.56188
 H741 H 0.26606 0.68182 0.61473
 H742 H 0.23247 0.70405 0.55637
 H743 H 0.23062 0.73786 0.59671
 H744 H 0.26010 0.64502 0.57731
 C745 C 0.74980 0.19943 0.10903
 C746 C 0.76700 0.18448 0.09071
 C747 C 0.75491 0.17670 0.06161
 C748 C 0.76792 0.15547 0.04646
 H749 H 0.78983 0.17746 0.09734
 H750 H 0.73445 0.18765 0.05302
 H751 H 0.72647 0.20497 0.10271
 H752 H 0.78697 0.14307 0.05611
 C753 C 0.47244 0.39527 0.56859
 C754 C 0.48513 0.36931 0.56289
 C755 C 0.47795 0.34299 0.58078
 C756 C 0.49149 0.31715 0.57612
 H757 H 0.50076 0.36733 0.54498
 H758 H 0.46185 0.34508 0.59827
 H759 H 0.45688 0.39689 0.58664
 H760 H 0.50857 0.31580 0.55939
 C761 C 0.00828 0.87997 0.04647
 C762 C -0.01511 0.86852 0.06091
 C763 C -0.01471 0.83786 0.07196
 C764 C -0.03948 0.82668 0.08432
 H765 H -0.03524 0.88180 0.06435
 H766 H 0.00598 0.82503 0.07037
 H767 H 0.02795 0.86638 0.04202
 H768 H -0.05963 0.84053 0.08561
 C769 C -0.03640 0.66275 0.02025
 C770 C -0.01981 0.68382 0.03242
 C771 C -0.03444 0.70517 0.05141
 C772 C -0.01855 0.72624 0.06447
 H773 H 0.00451 0.68475 0.02925
 H774 H -0.05849 0.70288 0.05543
 H775 H -0.06079 0.66248 0.02330
 H776 H 0.00518 0.72922 0.05928
 C777 C 0.47223 0.15855 0.51641
 C778 C 0.49173 0.17647 0.52974
 C779 C 0.48043 0.19936 0.54906
 C780 C 0.49949 0.21719 0.56313
 H781 H 0.51603 0.17351 0.52749
 H782 H 0.45617 0.20091 0.55252
 H783 H 0.44796 0.16211 0.51851
 H784 H 0.52356 0.21651 0.55848
 C785 C 0.01197 0.13927 0.47710
 C786 C -0.00281 0.15414 0.45547
 C787 C 0.01434 0.17279 0.43482
 C788 C 0.00089 0.19424 0.41851
 H789 H -0.02735 0.15277 0.45317
 H790 H 0.03863 0.16905 0.43330
 H791 H 0.03624 0.14243 0.48021
 H792 H -0.02294 0.19933 0.42159
 C793 C 0.51860 0.61384 0.98381
 C794 C 0.49994 0.62890 0.96528
 C795 C 0.51204 0.65101 0.94455
 C796 C 0.49369 0.67066 0.93064
 H797 H 0.47561 0.62533 0.96568
 H798 H 0.53638 0.65174 0.94136
 H799 H 0.54272 0.61861 0.98415
 H800 H 0.46967 0.67109 0.93553
 C801 C 0.55588 0.82262 0.97508
 C802 C 0.53145 0.80729 0.96702
 C803 C 0.53498 0.78359 0.94576
 C804 C 0.51123 0.76903 0.93468
 H805 H 0.50916 0.81283 0.97508
 H806 H 0.55775 0.77822 0.93895
 H807 H 0.57775 0.81710 0.96598
 H808 H 0.48863 0.77373 0.94245
 C809 C 0.00796 0.34169 0.45460
 C810 C 0.02668 0.32992 0.43520
 C811 C 0.01995 0.30170 0.42106
 C812 C 0.04000 0.29004 0.40284
 H813 H 0.04752 0.34108 0.42970
 H814 H -0.00107 0.29061 0.42592
 H815 H -0.01273 0.33030 0.46026
 H816 H 0.06102 0.30172 0.39906
 C817 C 0.38402 0.59790 0.49333
 C818 C 0.35748 0.59080 0.50520
 C819 C 0.33012 0.60866 0.49837
 C820 C 0.30308 0.60140 0.50914
 H821 H 0.35561 0.57136 0.51925
 H822 H 0.33238 0.62815 0.48447
 H823 H 0.38535 0.61710 0.47881
 H824 H 0.30141 0.58266 0.52417
 C825 C 0.86929 0.06258 0.01052
 C826 C 0.85181 0.07548 -0.01049
 C827 C 0.82194 0.08819 -0.00382
 C828 C 0.80431 0.10006 -0.02531
 H829 H 0.85948 0.07663 -0.03293
 H830 H 0.81508 0.08857 0.01882
 H831 H 0.86110 0.06068 0.03276
 H832 H 0.81234 0.09997 -0.04766
 C833 C 0.65547 0.02367 0.00295
 C834 C 0.66727 0.04656 0.01675
 C835 C 0.68604 0.06796 0.00079
 C836 C 0.70703 0.08377 0.01474
 H837 H 0.66332 0.04938 0.03992
 H838 H 0.68285 0.07055 -0.02281
 H839 H 0.66143 0.01972 -0.01959
 H840 H 0.71195 0.07943 0.03787
 C841 C 0.14445 0.53612 0.48335
 C842 C 0.15791 0.55445 0.50202
 C843 C 0.18126 0.57540 0.49240
 C844 C 0.19824 0.58959 0.51214
 H845 H 0.15147 0.55425 0.52486
 H846 H 0.18433 0.57943 0.46910
 H847 H 0.15199 0.53513 0.46090
 H848 H 0.19630 0.58399 0.53529
 C849 C 0.13068 0.49846 -0.01737
 C850 C 0.14734 0.47957 -0.03239
 C851 C 0.16895 0.45937 -0.01679
 C852 C 0.19052 0.44490 -0.03098
 H853 H 0.14480 0.47874 -0.05608
 H854 H 0.16703 0.45624 0.00676
 H855 H 0.13462 0.50014 0.00610
 H856 H 0.19374 0.44957 -0.05414
 C857 C 0.62222 0.97734 0.49166
 C858 C 0.63919 0.95875 0.47666
 C859 C 0.66374 0.94157 0.49171
 C860 C 0.68590 0.92905 0.47662
 H861 H 0.63559 0.95686 0.45316
 H862 H 0.66410 0.94000 0.51548
 H863 H 0.62723 0.98035 0.51480
 H864 H 0.68635 0.93244 0.45299
 C865 C 0.86342 0.95458 0.52522
 C866 C 0.83955 0.95778 0.50671
 C867 C 0.81682 0.93406 0.50650
 C868 C 0.78967 0.93629 0.49275
 H869 H 0.83575 0.97805 0.49408
 H870 H 0.82203 0.91434 0.51961
 H871 H 0.86563 0.93438 0.53834
 H872 H 0.78445 0.95497 0.47823
 C873 C 0.36552 0.43719 0.03854
 C874 C 0.34248 0.44521 0.02032
 C875 C 0.31504 0.42688 0.01877
 C876 C 0.29172 0.43316 0.00019
 H877 H 0.34365 0.46517 0.00692
 H878 H 0.31423 0.40759 0.03315
 H879 H 0.36391 0.41696 0.05151
 H880 H 0.29332 0.45157 -0.01525
 C881 C 0.57178 0.51674 0.38589
 C882 C 0.58297 0.49285 0.37336
 C883 C 0.60056 0.49504 0.34628
 C884 C 0.61271 0.47087 0.33511
 H885 H 0.57936 0.47127 0.38321
 H886 H 0.60451 0.51650 0.33632
 H887 H 0.57516 0.53825 0.37574
 H888 H 0.60951 0.44983 0.34633
 C889 C 0.05889 0.02323 0.86819
 C890 C 0.08226 0.00648 0.86024
 C891 C 0.09658 0.01059 0.83157
 C892 C 0.11798 -0.00837 0.82340
 H893 H 0.09082 -0.01101 0.87483
 H894 H 0.08906 0.02863 0.81717
 H895 H 0.05001 0.04036 0.85329
 H896 H 0.12399 -0.02687 0.83796
 C897 C 0.04073 0.00751 0.67311
 C898 C 0.06098 0.02395 0.68726
 C899 C 0.08297 0.00973 0.70797
 C900 C 0.10038 0.02506 0.72633
 H901 H 0.06200 0.04745 0.68289
 H902 H 0.08535 -0.01402 0.70777
 H903 H 0.03916 -0.01573 0.67878
 H904 H 0.09676 0.04852 0.72821
 C905 C 0.56196 0.46711 0.17099
 C906 C 0.57767 0.48524 0.18812
 C907 C 0.59741 0.47356 0.21234
 C908 C 0.60838 0.49109 0.23311
 H909 H 0.57608 0.50883 0.18424
 H910 H 0.60306 0.45030 0.21307
 H911 H 0.56242 0.44367 0.17597
 H912 H 0.60100 0.51388 0.23332
 C913 C 0.45647 -0.02306 0.12937
 C914 C 0.43846 -0.04090 0.14480
 C915 C 0.41579 -0.02860 0.16473
 C916 C 0.40351 -0.04519 0.18598
 H917 H 0.44113 -0.06455 0.14356
 H918 H 0.41005 -0.00540 0.16267
 H919 H 0.45475 0.00049 0.13219
 H920 H 0.41099 -0.06784 0.18912
 C921 C 0.94687 0.50744 0.61102
 C922 C 0.92851 0.49099 0.62744
 C923 C 0.91009 0.50427 0.65036
 C924 C 0.90068 0.48785 0.67306
 H925 H 0.92839 0.46731 0.62516
 H926 H 0.90548 0.52773 0.64934
 H927 H 0.94857 0.53080 0.61488
 H928 H 0.90740 0.46487 0.67475
 C929 C 0.92540 0.52471 0.84936
 C930 C 0.93215 0.51587 0.82254
 C931 C 0.90821 0.51699 0.79938
 C932 C 0.91210 0.50582 0.77288
 H933 H 0.95503 0.50886 0.81751
 H934 H 0.88658 0.52716 0.80434
 H935 H 0.90217 0.53126 0.85373
 H936 H 0.93281 0.49385 0.76832
 C937 C 0.41840 0.00853 0.35513
 C938 C 0.42399 -0.00646 0.33096
 C939 C 0.40043 -0.00730 0.30742
 C940 C 0.40367 -0.02324 0.28339
 H941 H 0.44578 -0.01725 0.32823
 H942 H 0.37986 0.00560 0.30996
 H943 H 0.39623 0.01879 0.35736
 H944 H 0.42343 -0.03743 0.28160
   
