data_POSCAR
  _audit_creation_date              2014-09-24
  _audit_creation_method            'ToBaCCo'
  _symmetry_space_group_name_H-M    'P1'
  _symmetry_Int_Tables_number       1
  _symmetry_cell_setting            triclinic
  loop_
  _symmetry_equiv_pos_as_xyz
 x,y,z
_cell_length_a 52.8925
_cell_length_b 52.9216
_cell_length_c 16.1606
_cell_angle_alpha 89.899700
_cell_angle_beta 90.108700
_cell_angle_gamma 120.031500
loop_
  _atom_site_label
  _atom_site_type_symbol
  _atom_site_fract_x
  _atom_site_fract_y
  _atom_site_fract_z
C1 C 0.24729 0.49470 0.53503
 C2 C 0.24681 0.49427 0.45063
 C3 C 0.22322 0.49502 0.40248
 C4 C 0.27002 0.49308 0.40224
 C5 C 0.27217 0.49637 0.58253
 C6 C 0.22290 0.49329 0.58402
 C7 C 0.20745 0.47328 0.34338
 C8 C 0.18481 0.47333 0.29874
 C9 C 0.17783 0.49528 0.31222
 C10 C 0.19389 0.51739 0.36999
 C11 C 0.21656 0.51734 0.41455
 C12 C 0.27631 0.47052 0.41483
 C13 C 0.29923 0.47051 0.37199
 C14 C 0.31583 0.49286 0.31559
 C15 C 0.30912 0.51493 0.30107
 C16 C 0.28623 0.51498 0.34394
 C17 C 0.30090 0.51917 0.56902
 C18 C 0.32422 0.51970 0.61148
 C19 C 0.31905 0.49765 0.66846
 C20 C 0.29041 0.47532 0.68374
 C21 C 0.26708 0.47475 0.64126
 C22 C 0.22862 0.51503 0.64279
 C23 C 0.20577 0.51447 0.68754
 C24 C 0.17701 0.49204 0.67449
 C25 C 0.17122 0.46991 0.61738
 C26 C 0.19407 0.47043 0.57264
 H27 H 0.21238 0.45599 0.33282
 H28 H 0.17269 0.45609 0.25420
 H29 H 0.18890 0.53463 0.38097
 H30 H 0.22884 0.53462 0.45867
 H31 H 0.26371 0.45317 0.45855
 H32 H 0.30416 0.45325 0.38337
 H33 H 0.28159 0.53246 0.33315
 H34 H 0.30523 0.53633 0.52504
 H35 H 0.34628 0.53716 0.59948
 H36 H 0.28614 0.45820 0.72785
 H37 H 0.24509 0.45709 0.65283
 H38 H 0.25072 0.53272 0.65278
 H39 H 0.21049 0.53167 0.73168
 H40 H 0.14906 0.45240 0.60705
 H41 H 0.18928 0.45316 0.52873
 H42 H 0.32179 0.53227 0.25738
 C43 C 0.50534 -0.24802 0.54333
 C44 C 0.50486 -0.24830 0.45892
 C45 C 0.50320 -0.27305 0.41103
 C46 C 0.50623 -0.22383 0.41029
 C47 C 0.50456 -0.22457 0.59178
 C48 C 0.50664 -0.27127 0.59138
 C49 C 0.52475 -0.26778 0.35202
 C50 C 0.52415 -0.29096 0.30900
 C51 C 0.50187 -0.31964 0.32402
 C52 C 0.47989 -0.32499 0.38130
 C53 C 0.48045 -0.30181 0.42430
 C54 C 0.52911 -0.19504 0.42194
 C55 C 0.52960 -0.17211 0.37749
 C56 C 0.50743 -0.17779 0.32039
 C57 C 0.48498 -0.20650 0.30709
 C58 C 0.48445 -0.22943 0.35155
 C59 C 0.48218 -0.21793 0.57985
 C60 C 0.48215 -0.19535 0.62459
 C61 C 0.50428 -0.17939 0.68229
 C62 C 0.52627 -0.18632 0.69571
 C63 C 0.52634 -0.20886 0.65096
 C64 C 0.48484 -0.28758 0.64975
 C65 C 0.48500 -0.31049 0.69241
 C66 C 0.50712 -0.31714 0.67761
 C67 C 0.52938 -0.30041 0.62107
 C68 C 0.52924 -0.27748 0.57847
 H69 H 0.54238 -0.24576 0.34061
 H70 H 0.54122 -0.28656 0.26467
 H71 H 0.46246 -0.34708 0.39312
 H72 H 0.46333 -0.30627 0.46848
 H73 H 0.54641 -0.19034 0.46582
 H74 H 0.54714 -0.14998 0.38801
 H75 H 0.46675 -0.25149 0.34136
 H76 H 0.46486 -0.23015 0.53568
 H77 H 0.46495 -0.19027 0.61396
 H78 H 0.54346 -0.17417 0.74030
 H79 H 0.54368 -0.21376 0.66143
 H80 H 0.46734 -0.28300 0.66079
 H81 H 0.46768 -0.32319 0.73617
 H82 H 0.54672 -0.30520 0.60931
 H83 H 0.54652 -0.26479 0.53471
 H84 H 0.46775 -0.21113 0.26296
 C85 C 1.24709 0.75367 0.54382
 C86 C 1.24729 0.75366 0.45941
 C87 C 1.27066 0.77810 0.41108
 C88 C 1.22415 0.72916 0.41095
 C89 C 1.22253 0.73038 0.59200
 C90 C 1.27149 0.77691 0.59235
 C91 C 1.27700 0.80700 0.42284
 C92 C 1.29938 0.82978 0.37776
 C93 C 1.31543 0.82386 0.31984
 C94 C 1.30880 0.79502 0.30674
 C95 C 1.28647 0.77227 0.35186
 C96 C 1.20829 0.73481 0.35125
 C97 C 1.18599 0.71190 0.30652
 C98 C 1.17950 0.68316 0.32055
 C99 C 1.19565 0.67743 0.37875
 C100 C 1.21799 0.70034 0.42348
 C101 C 1.22822 0.71462 0.65195
 C102 C 1.20532 0.69221 0.69648
 C103 C 1.17648 0.68546 0.68205
 C104 C 1.17071 0.70152 0.62352
 C105 C 1.19363 0.72397 0.57903
 C106 C 1.30036 0.78309 0.58081
 C107 C 1.32319 0.80554 0.62547
 C108 C 1.31734 0.82181 0.68272
 C109 C 1.28851 0.81529 0.69579
 C110 C 1.26570 0.79288 0.65109
 H111 H 1.26469 0.81189 0.46706
 H112 H 1.30417 0.85197 0.38835
 H113 H 1.32098 0.79009 0.26209
 H114 H 1.28179 0.75012 0.34153
 H115 H 1.21286 0.75690 0.34038
 H116 H 1.17367 0.71657 0.26152
 H117 H 1.23036 0.69561 0.46814
 H118 H 1.25036 0.71935 0.66321
 H119 H 1.21014 0.68003 0.74163
 H120 H 1.14852 0.69663 0.61189
 H121 H 1.18885 0.73624 0.53420
 H122 H 1.30519 0.77064 0.53692
 H123 H 1.34537 0.81026 0.61498
 H124 H 1.28365 0.82765 0.74000
 H125 H 1.24356 0.78829 0.66119
 H126 H 1.19088 0.65528 0.38983
 C127 C 0.75309 0.50535 0.54415
 C128 C 0.75304 0.50480 0.45976
 C129 C 0.77622 0.50308 0.41263
 C130 C 0.73001 0.50613 0.41040
 C131 C 0.72875 0.50459 0.59190
 C132 C 0.77754 0.50665 0.59292
 C133 C 0.79275 0.52464 0.35381
 C134 C 0.81550 0.52403 0.31175
 C135 C 0.82179 0.50174 0.32756
 C136 C 0.80491 0.47974 0.38461
 C137 C 0.78212 0.48030 0.42665
 C138 C 0.72403 0.52896 0.42135
 C139 C 0.70173 0.52945 0.37603
 C140 C 0.68544 0.50733 0.31874
 C141 C 0.69177 0.48491 0.30619
 C142 C 0.71403 0.48437 0.35152
 C143 C 0.69976 0.48216 0.57983
 C144 C 0.67702 0.48214 0.62383
 C145 C 0.68305 0.50437 0.68096
 C146 C 0.71197 0.52641 0.69453
 C147 C 0.73470 0.52645 0.65048
 C148 C 0.77186 0.48496 0.65196
 C149 C 0.79481 0.48518 0.69556
 C150 C 0.82365 0.50725 0.68106
 C151 C 0.82938 0.52939 0.62379
 C152 C 0.80642 0.52919 0.58025
 H153 H 0.78844 0.54228 0.34188
 H154 H 0.82837 0.54111 0.26755
 H155 H 0.80949 0.46230 0.39699
 H156 H 0.76927 0.46319 0.47073
 H157 H 0.73649 0.54625 0.46530
 H158 H 0.69709 0.54697 0.38599
 H159 H 0.71844 0.46670 0.34183
 H160 H 0.69478 0.46479 0.53609
 H161 H 0.65476 0.46486 0.61296
 H162 H 0.71698 0.54370 0.73865
 H163 H 0.75692 0.54381 0.66101
 H164 H 0.74972 0.46751 0.66285
 H165 H 0.79005 0.46795 0.73983
 H166 H 0.85157 0.54668 0.61221
 H167 H 0.81116 0.54639 0.53600
 H168 H 0.67933 0.46771 0.26194
 C169 C 0.49516 0.24719 0.54549
 C170 C 0.49473 0.24714 0.46109
 C171 C 0.49544 0.27139 0.41279
 C172 C 0.49362 0.22277 0.41273
 C173 C 0.49684 0.22403 0.59305
 C174 C 0.49373 0.27020 0.59434
 C175 C 0.47368 0.26529 0.35351
 C176 C 0.47378 0.28790 0.30844
 C177 C 0.49578 0.31681 0.32166
 C178 C 0.51787 0.32301 0.37957
 C179 C 0.51781 0.30040 0.42465
 C180 C 0.47108 0.19386 0.42508
 C181 C 0.47098 0.17102 0.38150
 C182 C 0.49319 0.17689 0.32458
 C183 C 0.51528 0.20571 0.31050
 C184 C 0.51543 0.22856 0.35411
 C185 C 0.51970 0.21821 0.57976
 C186 C 0.52012 0.19528 0.62162
 C187 C 0.49788 0.17816 0.67784
 C188 C 0.47553 0.18443 0.69306
 C189 C 0.47508 0.20732 0.65114
 C190 C 0.51545 0.28626 0.65330
 C191 C 0.51492 0.30861 0.69782
 C192 C 0.49252 0.31497 0.68438
 C193 C 0.47039 0.29854 0.62705
 C194 C 0.47090 0.27616 0.58257
 H195 H 0.45636 0.24305 0.34312
 H196 H 0.45663 0.28285 0.26368
 H197 H 0.53508 0.34530 0.39001
 H198 H 0.53511 0.30550 0.46890
 H199 H 0.45379 0.18902 0.46898
 H200 H 0.45371 0.14880 0.39255
 H201 H 0.53288 0.25072 0.34345
 H202 H 0.53695 0.23118 0.53621
 H203 H 0.53765 0.19079 0.60954
 H204 H 0.45824 0.17144 0.73658
 H205 H 0.45738 0.21158 0.66248
 H206 H 0.53313 0.28186 0.66360
 H207 H 0.53216 0.32109 0.74206
 H208 H 0.45284 0.30313 0.61622
 H209 H 0.45363 0.26364 0.53853
 H210 H 0.53252 0.21049 0.26644
 C211 C 0.75142 0.24950 0.54368
 C212 C 0.75136 0.24935 0.45927
 C213 C 0.72672 0.22607 0.41140
 C214 C 0.77604 0.27233 0.41091
 C215 C 0.77462 0.27421 0.59147
 C216 C 0.72841 0.22484 0.59208
 C217 C 0.73212 0.20971 0.35308
 C218 C 0.70898 0.18681 0.31060
 C219 C 0.68024 0.18021 0.32548
 C220 C 0.67476 0.19695 0.38193
 C221 C 0.69790 0.21988 0.42439
 C222 C 0.80476 0.27821 0.42402
 C223 C 0.82797 0.30079 0.38085
 C224 C 0.82266 0.31748 0.32356
 C225 C 0.79400 0.31119 0.30860
 C226 C 0.77078 0.28864 0.35181
 C227 C 0.78076 0.30297 0.57778
 C228 C 0.80371 0.32620 0.61990
 C229 C 0.82054 0.32088 0.67679
 C230 C 0.81395 0.29217 0.69243
 C231 C 0.79103 0.26895 0.65024
 C232 C 0.71196 0.23008 0.65051
 C233 C 0.68934 0.20686 0.69355
 C234 C 0.68313 0.17823 0.67913
 C235 C 0.69998 0.17295 0.62258
 C236 C 0.72262 0.19615 0.57957
 H237 H 0.75420 0.21425 0.34194
 H238 H 0.71346 0.17406 0.26687
 H239 H 0.65262 0.19212 0.39360
 H240 H 0.69334 0.23258 0.46805
 H241 H 0.80920 0.26552 0.46827
 H242 H 0.85004 0.30537 0.39258
 H243 H 0.74877 0.28431 0.34054
 H244 H 0.76802 0.30742 0.53373
 H245 H 0.80845 0.34829 0.60748
 H246 H 0.82672 0.28771 0.73646
 H247 H 0.78653 0.24691 0.66191
 H248 H 0.71621 0.25206 0.66131
 H249 H 0.67649 0.21119 0.73735
 H250 H 0.69546 0.15090 0.61125
 H251 H 0.73542 0.19173 0.53584
 H252 H 0.78965 0.32392 0.26422
 O253 O 0.96036 0.43568 0.14890
 O254 O 0.92779 0.44231 0.07078
 C255 C 0.93409 0.42910 0.12778
 O256 O 1.04202 0.56594 0.14495
 O257 O 1.07395 0.55838 0.06722
 C258 C 1.06811 0.57244 0.12236
 O259 O 0.96040 0.52310 0.15355
 O260 O 0.92787 0.48474 0.07321
 C261 C 0.93414 0.50361 0.13182
 O262 O 1.04191 0.47405 0.13939
 O263 O 1.07391 0.51446 0.06448
 C264 C 1.06803 0.49394 0.11781
 Zr265 Zr 1.00095 0.46761 0.09894
 O266 O 1.00192 0.46347 0.22894
 O267 O 0.99991 0.42752 0.08195
 Zr268 Zr 1.00104 0.53156 0.10433
 O269 O 1.00422 0.53211 0.23501
 O270 O 0.99797 0.56995 0.10603
 O271 O 0.97508 0.48655 0.11868
 O272 O 1.02640 0.51218 0.11638
 O273 O 1.04069 0.47477 -0.15028
 O274 O 1.07330 0.51481 -0.07521
 C275 C 1.06697 0.49440 -0.12916
 O276 O 0.95950 0.52493 -0.14986
 O277 O 0.92739 0.48558 -0.07160
 C278 C 0.93337 0.50522 -0.12797
 O279 O 1.04131 0.56770 -0.14400
 O280 O 1.07379 0.55914 -0.07188
 C281 C 1.06757 0.57391 -0.12386
 O282 O 0.95910 0.43665 -0.15630
 O283 O 0.92725 0.44301 -0.07456
 C284 C 0.93303 0.43011 -0.13340
 Zr285 Zr 1.00013 0.46891 -0.10902
 O286 O 1.00298 0.47153 -0.23975
 O287 O 0.99710 0.42748 -0.11096
 Zr288 Zr 1.00041 0.53284 -0.10432
 O289 O 1.00325 0.53523 -0.23505
 O290 O 0.99730 0.57118 -0.10012
 Zr291 Zr 0.95688 0.47847 -0.00133
 Zr292 Zr 1.04431 0.52209 -0.00342
 O293 O 1.02564 0.51361 -0.12248
 O294 O 0.97411 0.48797 -0.12232
 O295 O 1.02676 0.47649 -0.00592
 O296 O 0.97527 0.52412 0.00094
 O297 O 0.97486 0.45089 -0.00453
 O298 O 1.02687 0.55023 -0.00020
 H299 H 1.03968 0.51856 0.16479
 H300 H 0.96216 0.53245 0.00236
 H301 H 1.03864 0.52039 -0.17144
 H302 H 0.96154 0.42947 -0.00510
 H303 H 1.01455 0.58501 0.07367
 H304 H 1.01412 0.58590 -0.06774
 H305 H 0.98698 0.51683 -0.25716
 H306 H 0.98647 0.47359 -0.26027
 H307 H 1.01202 0.42832 -0.07226
 H308 H 0.99951 0.41984 0.13817
 H309 H 1.00727 0.48266 0.25292
 H310 H 0.98825 0.51319 0.25562
 O311 O 0.43566 0.47573 0.14673
 O312 O 0.44243 0.51468 0.06733
 C313 C 0.42911 0.49532 0.12452
 O314 O 0.56678 0.52507 0.14197
 O315 O 0.55882 0.48488 0.06701
 C316 C 0.57320 0.50532 0.12068
 O317 O 0.52360 0.56368 0.14921
 O318 O 0.48497 0.55718 0.06868
 C319 C 0.50397 0.57019 0.12694
 O320 O 0.47451 0.43287 0.14030
 O321 O 0.51512 0.44124 0.06662
 C322 C 0.49454 0.42672 0.11978
 Zr323 Zr 0.46821 0.46746 0.09982
 O324 O 0.46791 0.46453 0.23049
 O325 O 0.42776 0.42825 0.08962
 Zr326 Zr 0.53218 0.53142 0.10157
 O327 O 0.53371 0.52973 0.23228
 O328 O 0.57046 0.57301 0.10078
 O329 O 0.48712 0.51241 0.11663
 O330 O 0.51281 0.48679 0.11640
 O331 O 0.47486 0.43290 -0.14661
 O332 O 0.51536 0.44126 -0.07184
 C333 C 0.49475 0.42664 -0.12501
 O334 O 0.52458 0.56440 -0.15452
 O335 O 0.48545 0.55757 -0.07618
 C336 C 0.50494 0.57092 -0.13300
 O337 O 0.56739 0.52564 -0.14708
 O338 O 0.55905 0.48530 -0.07209
 C339 C 0.57361 0.50576 -0.12554
 O340 O 0.43631 0.47613 -0.15690
 O341 O 0.44289 0.51497 -0.07770
 C342 C 0.42982 0.49582 -0.13549
 Zr343 Zr 0.46875 0.46781 -0.10857
 O344 O 0.47084 0.46641 -0.23919
 O345 O 0.42741 0.42924 -0.10852
 Zr346 Zr 0.53265 0.53172 -0.10731
 O347 O 0.53438 0.53021 -0.23799
 O348 O 0.57102 0.57323 -0.10524
 Zr349 Zr 0.47859 0.52146 -0.00414
 Zr350 Zr 0.52223 0.47792 -0.00286
 O351 O 0.51340 0.48710 -0.12275
 O352 O 0.48769 0.51282 -0.12454
 O353 O 0.47667 0.44971 -0.00397
 O354 O 0.52427 0.54887 -0.00305
 O355 O 0.45112 0.47584 -0.00477
 O356 O 0.55045 0.52351 -0.00242
 H357 H 0.51923 0.48020 0.16543
 H358 H 0.53255 0.57031 -0.00270
 H359 H 0.52001 0.48051 -0.17123
 H360 H 0.42966 0.46755 -0.00536
 H361 H 0.58553 0.57127 0.06927
 H362 H 0.58581 0.57142 -0.07227
 H363 H 0.51599 0.52817 -0.25996
 H364 H 0.47310 0.48491 -0.26094
 H365 H 0.42812 0.41603 -0.06632
 H366 H 0.42122 0.42161 0.14702
 H367 H 0.47254 0.48380 0.25255
 H368 H 0.51500 0.52701 0.25369
 O369 O 0.47531 0.04036 0.15041
 O370 O 0.51435 0.07260 0.07150
 C371 C 0.49494 0.06652 0.12851
 O372 O 0.52488 -0.04108 0.14715
 O373 O 0.48473 -0.07342 0.07179
 C374 C 0.50517 -0.06727 0.12566
 O375 O 0.56342 0.04072 0.15429
 O376 O 0.55693 0.07271 0.07323
 C377 C 0.56993 0.06681 0.13173
 O378 O 0.43232 -0.04130 0.14303
 O379 O 0.44091 -0.07353 0.07021
 C380 C 0.42617 -0.06748 0.12261
 Zr381 Zr 0.46708 -0.00042 0.10338
 O382 O 0.46386 -0.00313 0.23397
 O383 O 0.42789 0.00081 0.09208
 Zr384 Zr 0.53111 -0.00021 0.10680
 O385 O 0.52890 -0.00340 0.23750
 O386 O 0.57273 0.00319 0.10801
 O387 O 0.51203 0.02576 0.12100
 O388 O 0.48642 -0.02561 0.12075
 O389 O 0.43310 -0.04172 -0.14410
 O390 O 0.44139 -0.07370 -0.06837
 C391 C 0.42692 -0.06783 -0.12238
 O392 O 0.56444 0.04028 -0.14937
 O393 O 0.55745 0.07255 -0.07149
 C394 C 0.57088 0.06645 -0.12807
 O395 O 0.52555 -0.04148 -0.14132
 O396 O 0.48517 -0.07353 -0.06650
 C397 C 0.50566 -0.06761 -0.11979
 O398 O 0.47611 0.04009 -0.15344
 O399 O 0.51481 0.07241 -0.07357
 C400 C 0.49573 0.06628 -0.13169
 Zr401 Zr 0.46780 -0.00065 -0.10507
 O402 O 0.46665 -0.00406 -0.23571
 O403 O 0.42913 0.00192 -0.10576
 Zr404 Zr 0.53180 -0.00049 -0.10211
 O405 O 0.53079 -0.00381 -0.23274
 O406 O 0.57335 0.00276 -0.09842
 Zr407 Zr 0.52127 0.04328 0.00022
 Zr408 Zr 0.47782 -0.04388 0.00143
 O409 O 0.48720 -0.02591 -0.11845
 O410 O 0.51286 0.02549 -0.12018
 O411 O 0.44954 -0.02666 -0.00064
 O412 O 0.54874 0.02511 0.00224
 O413 O 0.47561 0.02502 -0.00129
 O414 O 0.52344 -0.02641 0.00291
 H415 H 0.47971 -0.03867 0.16964
 H416 H 0.57019 0.03831 0.00284
 H417 H 0.48075 -0.03911 -0.16698
 H418 H 0.46732 0.03816 -0.00212
 H419 H 0.57131 -0.01315 0.07480
 H420 H 0.57133 -0.01417 -0.06678
 H421 H 0.52815 0.01213 -0.25509
 H422 H 0.48518 0.01223 -0.25711
 H423 H 0.41580 -0.01219 -0.06418
 H424 H 0.42115 0.00074 0.14930
 H425 H 0.48317 0.01133 0.25641
 H426 H 0.52688 0.01304 0.25860
 C427 C 1.15620 0.49494 0.27178
 C428 C 1.13612 0.49451 0.23501
 C429 C 1.11246 0.49403 0.19287
 C430 C 1.09219 0.49380 0.15791
 C431 C 0.50188 0.65647 0.28155
 C432 C 0.50219 0.63658 0.24619
 C433 C 0.50278 0.61340 0.20484
 C434 C 0.50335 0.59366 0.16942
 C435 C 0.33771 -0.15392 0.27724
 C436 C 0.35764 -0.13429 0.24010
 C437 C 0.38124 -0.11124 0.19763
 C438 C 0.40163 -0.09139 0.16255
 C439 C 0.84583 0.50173 0.28605
 C440 C 0.86612 0.50202 0.25131
 C441 C 0.88994 0.50257 0.21038
 C442 C 0.91022 0.50309 0.17492
 C443 C 0.49546 0.34011 0.27648
 C444 C 0.49506 0.35964 0.23917
 C445 C 0.49460 0.38267 0.19633
 C446 C 0.49439 0.40258 0.16071
 C447 C 0.65638 0.15597 0.28385
 C448 C 0.63647 0.13550 0.24926
 C449 C 0.61324 0.11147 0.20878
 C450 C 0.59345 0.09099 0.17390
 C451 C 0.49771 0.15519 -0.28335
 C452 C 0.49731 0.13473 -0.24916
 C453 C 0.49669 0.11073 -0.20897
 C454 C 0.49617 0.09032 -0.17414
 C455 C 0.66085 0.50476 -0.27758
 C456 C 0.64116 0.50522 -0.24144
 C457 C 0.61795 0.50571 -0.19997
 C458 C 0.59789 0.50593 -0.16543
 C459 C 0.84355 0.34355 -0.28424
 C460 C 0.86408 0.36353 -0.25003
 C461 C 0.88820 0.38682 -0.20996
 C462 C 0.90875 0.40663 -0.17537
 C463 C 0.50468 -0.15565 -0.27315
 C464 C 0.50513 -0.13560 -0.23650
 C465 C 0.50562 -0.11197 -0.19452
 C466 C 0.50583 -0.09173 -0.15972
 C467 C 0.34308 0.49762 -0.28961
 C468 C 0.36309 0.49733 -0.25462
 C469 C 0.38641 0.49679 -0.21356
 C470 C 0.40625 0.49630 -0.17819
 C471 C 1.15412 0.66304 -0.27618
 C472 C 1.13438 0.64295 -0.23977
 C473 C 1.11125 0.61916 -0.19807
 C474 C 1.09140 0.59862 -0.16349
 C475 C 0.84609 0.50687 -0.27858
 C476 C 0.86597 0.50640 -0.24344
 C477 C 0.88931 0.50582 -0.20287
 C478 C 0.90936 0.50543 -0.16856
 C479 C 0.49261 0.33744 -0.27435
 C480 C 0.49293 0.35758 -0.23859
 C481 C 0.49350 0.38142 -0.19778
 C482 C 0.49407 0.40197 -0.16395
 C483 C 0.65917 0.15425 -0.27879
 C484 C 0.63894 0.13413 -0.24409
 C485 C 0.61517 0.11056 -0.20378
 C486 C 0.59490 0.09042 -0.16935
 C487 C 1.15343 0.49211 -0.28154
 C488 C 1.13369 0.49244 -0.24540
 C489 C 1.11056 0.49305 -0.20395
 C490 C 1.09072 0.49366 -0.16934
 C491 C 0.50669 0.65991 -0.28296
 C492 C 0.50618 0.63945 -0.24849
 C493 C 0.50557 0.61546 -0.20842
 C494 C 0.50516 0.59503 -0.17414
 C495 C 0.33963 -0.15579 -0.27540
 C496 C 0.35938 -0.13579 -0.23896
 C497 C 0.38264 -0.11220 -0.19722
 C498 C 0.40271 -0.09196 -0.16247
 C499 C 0.50735 -0.15412 0.27670
 C500 C 0.50703 -0.13431 0.24082
 C501 C 0.50644 -0.11108 0.19970
 C502 C 0.50586 -0.09115 0.16541
 C503 C 0.34010 0.49345 0.27382
 C504 C 0.36057 0.49406 0.23937
 C505 C 0.38458 0.49474 0.19942
 C506 C 0.40502 0.49516 0.16532
 C507 C 1.15596 0.65955 0.27621
 C508 C 1.13602 0.63978 0.23967
 C509 C 1.11247 0.61654 0.19773
 C510 C 1.09225 0.59653 0.16277
 C511 C 0.49359 0.15332 0.28155
 C512 C 0.49405 0.13356 0.24598
 C513 C 0.49458 0.11036 0.20477
 C514 C 0.49488 0.09042 0.16985
 C515 C 0.66185 0.50727 0.27405
 C516 C 0.64184 0.50698 0.23739
 C517 C 0.61815 0.50645 0.19547
 C518 C 0.59772 0.50594 0.16069
 C519 C 0.84663 0.34134 0.28111
 C520 C 0.86671 0.36146 0.24598
 C521 C 0.89020 0.38509 0.20504
 C522 C 0.91026 0.40524 0.16996
   
