data_POSCAR
  _audit_creation_date              2014-09-24
  _audit_creation_method            'ToBaCCo'
  _symmetry_space_group_name_H-M    'P1'
  _symmetry_Int_Tables_number       1
  _symmetry_cell_setting            triclinic
  loop_
  _symmetry_equiv_pos_as_xyz
 x,y,z
_cell_length_a 26.5912
_cell_length_b 27.9277
_cell_length_c 26.5912
_cell_angle_alpha 90.000000
_cell_angle_beta 89.999800
_cell_angle_gamma 90.000000
loop_
  _atom_site_label
  _atom_site_type_symbol
  _atom_site_fract_x
  _atom_site_fract_y
  _atom_site_fract_z
Si1 Si 0.25000 0.24985 0.25000
 Si2 Si 0.75000 0.75000 0.25000
 Si3 Si 0.75000 0.25015 0.75000
 Si4 Si 0.25000 0.75000 0.75000
 C5 C 0.07098 0.07162 0.01743
 H6 H 0.07207 0.07370 -0.02318
 C7 C 0.10051 0.10255 0.04627
 H8 H 0.12463 0.12845 0.02789
 C9 C 0.03779 0.03575 0.09117
 H10 H 0.01276 0.01024 0.10859
 C11 C 0.06668 0.06602 0.12140
 H12 H 0.06420 0.06335 0.16197
 N13 N 0.04090 0.03864 0.04015
 C14 C 0.02015 -0.07437 -0.07140
 H15 H -0.02047 -0.07637 -0.07236
 C16 C 0.04880 -0.10521 -0.10123
 H17 H 0.03027 -0.13095 -0.12542
 C18 C 0.09409 -0.03877 -0.03835
 H19 H 0.11165 -0.01337 -0.01330
 C20 C 0.12414 -0.06895 -0.06755
 H21 H 0.16472 -0.06633 -0.06526
 Zn22 Zn 0.00146 -0.00142 -0.00166
 N23 N 0.04305 -0.04156 -0.04126
 C24 C -0.03551 0.03621 -0.09412
 N25 N -0.03798 0.03900 -0.04306
 C26 C -0.06770 0.07198 -0.01988
 C27 C -0.09760 0.10297 -0.04825
 C28 C -0.06480 0.06655 -0.12390
 C29 C -0.01756 -0.07457 0.06776
 C30 C -0.04637 -0.10515 0.09772
 C31 C -0.12152 -0.06837 0.06423
 C32 C -0.09132 -0.03845 0.03491
 N33 N -0.04030 -0.04159 0.03771
 H34 H -0.01079 0.01065 -0.11190
 H35 H -0.06831 0.07394 0.02075
 H36 H -0.12149 0.12882 -0.02950
 H37 H -0.06291 0.06392 -0.16450
 H38 H 0.02305 -0.07682 0.06864
 H39 H -0.02798 -0.13098 0.12192
 H40 H -0.16209 -0.06542 0.06209
 H41 H -0.10876 -0.01292 0.00992
 C42 C 0.10127 -0.10232 -0.09940
 C43 C 0.09843 0.09959 0.09872
 C44 C -0.09882 -0.10183 0.09609
 C45 C -0.09627 0.10006 -0.10073
 C46 C 0.07140 0.57437 0.52015
 H47 H 0.07235 0.57637 0.47952
 C48 C 0.10123 0.60521 0.54880
 H49 H 0.12542 0.63095 0.53027
 C50 C 0.03835 0.53877 0.59409
 H51 H 0.01330 0.51336 0.61165
 C52 C 0.06754 0.56895 0.62414
 H53 H 0.06525 0.56632 0.66472
 N54 N 0.04126 0.54156 0.54305
 C55 C 0.01988 0.42802 0.43230
 H56 H -0.02075 0.42606 0.43169
 C57 C 0.04825 0.39703 0.40240
 H58 H 0.02950 0.37117 0.37851
 C59 C 0.09412 0.46379 0.46448
 H60 H 0.11190 0.48935 0.48920
 C61 C 0.12390 0.43345 0.43520
 H62 H 0.16450 0.43608 0.43708
 Zn63 Zn 0.00165 0.50141 0.50145
 N64 N 0.04306 0.46100 0.46201
 C65 C -0.03491 0.53845 0.40868
 N66 N -0.03771 0.54159 0.45970
 C67 C -0.06776 0.57457 0.48244
 C68 C -0.09772 0.60515 0.45362
 C69 C -0.06424 0.56837 0.37848
 C70 C -0.01744 0.42838 0.57098
 C71 C -0.04627 0.39745 0.60050
 C72 C -0.12140 0.43398 0.56668
 C73 C -0.09118 0.46425 0.53779
 N74 N -0.04016 0.46136 0.54090
 H75 H -0.00992 0.51292 0.39124
 H76 H -0.06864 0.57682 0.52304
 H77 H -0.12192 0.63099 0.47202
 H78 H -0.06210 0.56542 0.33791
 H79 H 0.02318 0.42630 0.57207
 H80 H -0.02790 0.37154 0.62463
 H81 H -0.16197 0.43665 0.56420
 H82 H -0.10860 0.48976 0.51275
 C83 C 0.10072 0.39993 0.40373
 C84 C 0.09940 0.60232 0.60127
 C85 C -0.09872 0.40041 0.59843
 C86 C -0.09609 0.60183 0.40118
 C87 C 0.56770 0.07198 0.51988
 H88 H 0.56831 0.07394 0.47925
 C89 C 0.59760 0.10297 0.54825
 H90 H 0.62149 0.12882 0.52950
 C91 C 0.53551 0.03621 0.59412
 H92 H 0.51079 0.01065 0.61190
 C93 C 0.56480 0.06655 0.62390
 H94 H 0.56291 0.06392 0.66450
 N95 N 0.53798 0.03900 0.54306
 C96 C 0.51756 -0.07457 0.43223
 H97 H 0.47695 -0.07682 0.43136
 C98 C 0.54637 -0.10515 0.40228
 H99 H 0.52798 -0.13098 0.37808
 C100 C 0.59132 -0.03845 0.46509
 H101 H 0.60876 -0.01292 0.49008
 C102 C 0.62152 -0.06837 0.43576
 H103 H 0.66209 -0.06542 0.43790
 Zn104 Zn 0.49854 -0.00142 0.50165
 N105 N 0.54030 -0.04159 0.46229
 C106 C 0.46221 0.03575 0.40882
 N107 N 0.45910 0.03864 0.45984
 C108 C 0.42902 0.07162 0.48256
 C109 C 0.39949 0.10255 0.45373
 C110 C 0.43332 0.06602 0.37860
 C111 C 0.47985 -0.07437 0.57140
 C112 C 0.45120 -0.10521 0.60123
 C113 C 0.37586 -0.06895 0.56754
 C114 C 0.40591 -0.03877 0.53835
 N115 N 0.45695 -0.04156 0.54126
 H116 H 0.48724 0.01024 0.39140
 H117 H 0.42793 0.07370 0.52318
 H118 H 0.37537 0.12845 0.47210
 H119 H 0.43580 0.06335 0.33803
 H120 H 0.52047 -0.07637 0.57235
 H121 H 0.46973 -0.13095 0.62542
 H122 H 0.33528 -0.06633 0.56525
 H123 H 0.38835 -0.01337 0.51329
 C124 C 0.59882 -0.10183 0.40391
 C125 C 0.59627 0.10006 0.60072
 C126 C 0.39873 -0.10232 0.59939
 C127 C 0.40157 0.09959 0.40127
 C128 C 0.56776 0.57457 0.01756
 H129 H 0.56864 0.57682 -0.02305
 C130 C 0.59772 0.60515 0.04637
 H131 H 0.62192 0.63099 0.02798
 C132 C 0.53491 0.53845 0.09132
 H133 H 0.50992 0.51292 0.10876
 C134 C 0.56424 0.56837 0.12152
 H135 H 0.56210 0.56542 0.16209
 N136 N 0.53771 0.54159 0.04030
 C137 C 0.51744 0.42838 -0.07098
 H138 H 0.47682 0.42630 -0.07207
 C139 C 0.54627 0.39745 -0.10051
 H140 H 0.52790 0.37154 -0.12463
 C141 C 0.59118 0.46425 -0.03779
 H142 H 0.60859 0.48976 -0.01276
 C143 C 0.62140 0.43398 -0.06668
 H144 H 0.66197 0.43665 -0.06421
 Zn145 Zn 0.49835 0.50141 -0.00146
 N146 N 0.54016 0.46136 -0.04091
 C147 C 0.46165 0.53877 -0.09409
 N148 N 0.45874 0.54156 -0.04305
 C149 C 0.42860 0.57437 -0.02015
 C150 C 0.39877 0.60521 -0.04881
 C151 C 0.43246 0.56895 -0.12414
 C152 C 0.48012 0.42802 0.06770
 C153 C 0.45175 0.39703 0.09760
 C154 C 0.37610 0.43345 0.06480
 C155 C 0.40588 0.46379 0.03551
 N156 N 0.45694 0.46100 0.03798
 H157 H 0.48670 0.51336 -0.11165
 H158 H 0.42765 0.57637 0.02047
 H159 H 0.37458 0.63095 -0.03028
 H160 H 0.43475 0.56632 -0.16472
 H161 H 0.52075 0.42606 0.06831
 H162 H 0.47050 0.37117 0.12149
 H163 H 0.33550 0.43608 0.06291
 H164 H 0.38810 0.48935 0.01079
 C165 C 0.59872 0.40041 -0.09843
 C166 C 0.59609 0.60183 0.09882
 C167 C 0.39928 0.39993 0.09627
 C168 C 0.40060 0.60232 -0.10127
 C169 C 0.21300 -0.21439 -0.21258
 C170 C 0.18719 -0.18910 -0.18647
 C171 C 0.15712 -0.15918 -0.15603
 C172 C 0.13159 -0.13339 -0.13016
 C173 C 0.21111 0.28751 0.28971
 C174 C 0.18559 0.31288 0.31600
 C175 C 0.15592 0.34289 0.34669
 C176 C 0.13071 0.36877 0.37277
 C177 C 0.71097 -0.21248 0.28971
 C178 C 0.68512 -0.18742 0.31601
 C179 C 0.65495 -0.15789 0.34672
 C180 C 0.62929 -0.13247 0.37286
 C181 C 0.71096 0.28783 -0.21046
 C182 C 0.68510 0.31322 -0.18451
 C183 C 0.65491 0.34327 -0.15438
 C184 C 0.62923 0.36919 -0.12881
 C185 C -0.21029 0.21249 -0.21111
 C186 C -0.18400 0.18712 -0.18559
 C187 C -0.15331 0.15710 -0.15592
 C188 C -0.12722 0.13123 -0.13071
 C189 C -0.21029 0.71248 0.28903
 C190 C -0.18399 0.68742 0.31488
 C191 C -0.15328 0.65789 0.34505
 C192 C -0.12714 0.63247 0.37071
 C193 C 0.28955 0.21217 0.28904
 C194 C 0.31549 0.18678 0.31490
 C195 C 0.34562 0.15673 0.34509
 C196 C 0.37119 0.13081 0.37077
 C197 C 0.28742 0.71439 -0.21300
 C198 C 0.31353 0.68909 -0.18719
 C199 C 0.34397 0.65918 -0.15713
 C200 C 0.36985 0.63339 -0.13159
 C201 C -0.21097 -0.21248 0.21029
 C202 C -0.18512 -0.18742 0.18399
 C203 C -0.15495 -0.15789 0.15327
 C204 C -0.12929 -0.13247 0.12714
 C205 C -0.21096 0.28783 0.71045
 C206 C -0.18510 0.31322 0.68451
 C207 C -0.15491 0.34327 0.65438
 C208 C -0.12923 0.36919 0.62880
 C209 C 0.28700 -0.21439 0.71258
 C210 C 0.31281 -0.18910 0.68646
 C211 C 0.34288 -0.15918 0.65603
 C212 C 0.36841 -0.13339 0.63015
 C213 C 0.28889 0.28751 0.21029
 C214 C 0.31441 0.31288 0.18400
 C215 C 0.34408 0.34289 0.15331
 C216 C 0.36929 0.36877 0.12722
 C217 C 0.21045 0.21217 0.21095
 C218 C 0.18451 0.18678 0.18510
 C219 C 0.15438 0.15673 0.15491
 C220 C 0.12881 0.13081 0.12922
 C221 C 0.21258 0.71439 0.71299
 C222 C 0.18647 0.68909 0.68718
 C223 C 0.15603 0.65918 0.65712
 C224 C 0.13015 0.63339 0.63159
 C225 C 0.71029 0.21249 0.71111
 C226 C 0.68400 0.18712 0.68559
 C227 C 0.65331 0.15710 0.65591
 C228 C 0.62722 0.13123 0.63071
 C229 C 0.71029 0.71248 0.21097
 C230 C 0.68399 0.68742 0.18512
 C231 C 0.65328 0.65789 0.15495
 C232 C 0.62714 0.63247 0.12929
   
