data_POSCAR
  _audit_creation_date              2014-09-24
  _audit_creation_method            'ToBaCCo'
  _symmetry_space_group_name_H-M    'P1'
  _symmetry_Int_Tables_number       1
  _symmetry_cell_setting            triclinic
  loop_
  _symmetry_equiv_pos_as_xyz
 x,y,z
_cell_length_a 31.9215
_cell_length_b 17.7554
_cell_length_c 13.3946
_cell_angle_alpha 90.672800
_cell_angle_beta 89.691900
_cell_angle_gamma 88.295500
loop_
  _atom_site_label
  _atom_site_type_symbol
  _atom_site_fract_x
  _atom_site_fract_y
  _atom_site_fract_z
O1 O 0.70318 0.29496 0.59838
 O2 O 0.78499 0.29313 0.40499
 O3 O 0.70338 0.29796 0.40335
 O4 O 0.78470 0.28904 0.59628
 O5 O 0.78351 0.16463 0.59232
 O6 O 0.70134 0.17363 0.39983
 O7 O 0.78326 0.16887 0.39724
 O8 O 0.70139 0.17063 0.59227
 Cu9 Cu 0.74390 0.30633 0.50137
 Cu10 Cu 0.74244 0.15680 0.49487
 C11 C 0.68813 0.23356 0.62764
 C12 C 0.79848 0.23055 0.36907
 C13 C 0.68823 0.23750 0.36951
 C14 C 0.79839 0.22540 0.62599
 O15 O 0.21540 0.82500 0.60485
 O16 O 0.29760 0.81587 0.40961
 O17 O 0.21550 0.82716 0.40833
 O18 O 0.29742 0.81402 0.60085
 O19 O 0.29331 0.68996 0.59857
 O20 O 0.21203 0.70306 0.40528
 O21 O 0.29374 0.69180 0.40453
 O22 O 0.21143 0.70108 0.59866
 Cu23 Cu 0.25645 0.83311 0.50632
 Cu24 Cu 0.25224 0.68406 0.50139
 C25 C 0.19925 0.76456 0.63461
 C26 C 0.31023 0.75208 0.37553
 C27 C 0.19979 0.76724 0.37429
 C28 C 0.30985 0.74964 0.63081
 O29 O 0.23227 0.18754 -0.61408
 O30 O 0.29520 0.27848 -0.41427
 O31 O 0.24305 0.17372 -0.41556
 O32 O 0.29655 0.28475 -0.60209
 O33 O 0.24896 0.37719 -0.58503
 O34 O 0.18979 0.25594 -0.41538
 O35 O 0.24515 0.36669 -0.39899
 O36 O 0.19198 0.29052 -0.61434
 Cu37 Cu 0.27043 0.22078 -0.51585
 Cu38 Cu 0.21276 0.32882 -0.49886
 C39 C 0.20268 0.22724 -0.65214
 C40 C 0.28027 0.33861 -0.37294
 C41 C 0.20738 0.19565 -0.38340
 C42 C 0.28302 0.35065 -0.62294
 O43 O -0.24582 0.82952 -0.58968
 O44 O -0.29925 0.71617 -0.40296
 O45 O -0.24598 0.82459 -0.39621
 O46 O -0.29803 0.71983 -0.59563
 O47 O -0.24473 0.63751 -0.60024
 O48 O -0.19215 0.74334 -0.40116
 O49 O -0.24569 0.63448 -0.40430
 O50 O -0.19215 0.74792 -0.59305
 Cu51 Cu -0.27756 0.78085 -0.49564
 Cu52 Cu -0.21347 0.68202 -0.50013
 C53 C -0.20985 0.80870 -0.62228
 C54 C -0.28169 0.65586 -0.37193
 C55 C -0.21007 0.80267 -0.36593
 C56 C -0.28027 0.66060 -0.63159
 O57 O -0.06888 0.89812 0.18929
 O58 O -0.10837 0.97804 0.09172
 C59 C -0.10445 0.92927 0.16246
 O60 O 0.06917 1.13251 0.15925
 O61 O 0.11009 1.04166 0.07999
 C62 C 0.10524 1.10236 0.13450
 O63 O -0.04705 1.15879 0.17524
 O64 O -0.09844 1.09941 0.08800
 C65 C -0.08599 1.14838 0.15295
 O66 O 0.04688 0.85148 0.17764
 O67 O 0.09912 0.90904 0.09143
 C68 C 0.08597 0.86010 0.15472
 Zr69 Zr -0.00716 0.91391 0.13339
 O70 O -0.00167 0.92274 0.29056
 O71 O -0.02159 0.79894 0.14619
 Zr72 Zr 0.00809 1.10013 0.12510
 O73 O 0.01265 1.09402 0.28258
 O74 O 0.01412 1.21807 0.13688
 O75 O -0.03671 1.01961 0.14880
 O76 O 0.03716 0.99630 0.14740
 O77 O 0.04734 0.84305 -0.16445
 O78 O 0.09924 0.90382 -0.08047
 C79 C 0.08641 0.85296 -0.14260
 O80 O -0.04592 1.14718 -0.18332
 O81 O -0.09743 1.09548 -0.08854
 C82 C -0.08480 1.13976 -0.15812
 O83 O 0.07010 1.11277 -0.17819
 O84 O 0.10971 1.03008 -0.08500
 C85 C 0.10566 1.08134 -0.15266
 O86 O -0.06904 0.88740 -0.17360
 O87 O -0.10822 0.97315 -0.08077
 C88 C -0.10448 0.92059 -0.14807
 Zr89 Zr -0.00748 0.90494 -0.11867
 O90 O -0.00310 0.89721 -0.27622
 O91 O -0.02212 0.78956 -0.11167
 Zr92 Zr 0.00847 1.09226 -0.12734
 O93 O 0.01219 1.08410 -0.28503
 O94 O 0.01490 1.21051 -0.13245
 Zr95 Zr -0.06114 1.02289 0.00289
 Zr96 Zr 0.06262 0.98326 0.00278
 O97 O 0.03642 0.98636 -0.14128
 O98 O -0.03643 1.00998 -0.14273
 O99 O 0.02862 0.88308 0.00769
 O100 O -0.02650 1.12163 -0.00176
 O101 O -0.04445 0.90743 0.00803
 O102 O 0.04619 1.09914 -0.00210
 H103 H 0.05674 0.99292 0.20446
 H104 H -0.04146 1.17128 -0.00362
 H105 H 0.05476 0.97841 -0.20060
 H106 H -0.06682 0.86996 0.00976
 H107 H 0.01835 1.23632 0.06829
 H108 H 0.04011 1.22299 -0.09359
 H109 H -0.01434 1.06311 -0.30903
 H110 H -0.02285 0.93549 -0.30374
 H111 H 0.00073 0.76323 -0.07519
 H112 H -0.00570 0.77124 0.09318
 H113 H -0.02504 0.95591 0.31520
 H114 H -0.01592 1.08753 0.30955
 O115 O 0.42516 0.40610 0.18479
 O116 O 0.39128 0.49523 0.08959
 C117 C 0.39204 0.44583 0.15992
 O118 O 0.57890 0.59843 0.16958
 O119 O 0.61221 0.50370 0.07925
 C120 C 0.61212 0.55855 0.14384
 O121 O 0.46430 0.65589 0.17908
 O122 O 0.40937 0.61129 0.08810
 C123 C 0.42482 0.65486 0.15609
 O124 O 0.53757 0.33501 0.17291
 O125 O 0.59284 0.38017 0.08385
 C126 C 0.57699 0.33535 0.14873
 Zr127 Zr 0.48725 0.40685 0.12696
 O128 O 0.49222 0.40718 0.28452
 O129 O 0.46460 0.29602 0.12945
 Zr130 Zr 0.51576 0.58936 0.12304
 O131 O 0.52036 0.59106 0.28064
 O132 O 0.52914 0.70538 0.11840
 O133 O 0.46580 0.51825 0.14535
 O134 O 0.53645 0.47912 0.14292
 O135 O 0.53675 0.32859 -0.17103
 O136 O 0.59231 0.37714 -0.08645
 C137 C 0.57626 0.33001 -0.14902
 O138 O 0.46373 0.65011 -0.18294
 O139 O 0.40908 0.60817 -0.08867
 C140 C 0.42438 0.65003 -0.15776
 O141 O 0.57821 0.59267 -0.17802
 O142 O 0.61179 0.49981 -0.08852
 C143 C 0.61149 0.55315 -0.15384
 O144 O 0.42454 0.39772 -0.17909
 O145 O 0.39088 0.48948 -0.08409
 C146 C 0.39131 0.43708 -0.15241
 Zr147 Zr 0.48673 0.40225 -0.12489
 O148 O 0.49108 0.39784 -0.28265
 O149 O 0.46431 0.29125 -0.12283
 Zr150 Zr 0.51520 0.58459 -0.12879
 O151 O 0.51886 0.57872 -0.28659
 O152 O 0.52872 0.70056 -0.13114
 Zr153 Zr 0.44139 0.52881 0.00012
 Zr154 Zr 0.56137 0.46261 -0.00182
 O155 O 0.53587 0.47375 -0.14577
 O156 O 0.46502 0.51290 -0.14602
 O157 O 0.52101 0.37063 0.00074
 O158 O 0.48230 0.61943 -0.00250
 O159 O 0.44984 0.41090 0.00202
 O160 O 0.55383 0.58099 -0.00378
 H161 H 0.55470 0.47012 0.20145
 H162 H 0.47028 0.67153 -0.00282
 H163 H 0.55386 0.46263 -0.20494
 H164 H 0.42488 0.37905 0.00362
 H165 H 0.55559 0.71022 0.08055
 H166 H 0.55410 0.70759 -0.09044
 H167 H 0.49129 0.56284 -0.31123
 H168 H 0.47265 0.43874 -0.30875
 H169 H 0.48353 0.26078 -0.08075
 H170 H 0.48403 0.26367 0.08884
 H171 H 0.47441 0.44961 0.31049
 H172 H 0.49368 0.57269 0.30763
 N173 N 0.32224 0.48508 0.21713
 N174 N 0.29225 0.46159 0.27690
 C175 C 0.30568 0.39433 0.31217
 C176 C 0.34488 0.37732 0.27275
 N177 N 0.35403 0.43546 0.21410
 H178 H 0.36489 0.32815 0.28593
 N179 N -0.17837 0.94565 0.20317
 N180 N -0.20739 0.91509 0.25942
 C181 C -0.18859 0.85650 0.30613
 C182 C -0.14696 0.85223 0.27742
 N183 N -0.14194 0.90898 0.21320
 H184 H -0.12278 0.81246 0.30129
 N185 N 0.68585 0.53309 0.18039
 N186 N 0.71549 0.55832 0.23998
 C187 C 0.69842 0.61779 0.29065
 C188 C 0.65748 0.62837 0.26051
 N189 N 0.65087 0.57439 0.19178
 H190 H 0.63445 0.66971 0.28794
 N191 N 0.14025 1.21810 0.13846
 N192 N 0.16468 1.25538 0.19940
 C193 C 0.18172 1.20478 0.26241
 C194 C 0.16699 1.13421 0.23752
 N195 N 0.14075 1.14553 0.15979
 H196 H 0.16964 1.08325 0.28094
 N197 N 0.59532 0.21003 -0.23003
 N198 N 0.62532 0.18186 -0.28967
 C199 C 0.65376 0.23604 -0.29959
 C200 C 0.64061 0.29786 -0.24368
 N201 N 0.60423 0.27928 -0.20136
 H202 H 0.65441 0.35282 -0.24007
 N203 N 0.11415 0.73316 -0.20830
 N204 N 0.14448 0.70754 -0.26876
 C205 C 0.16704 0.76747 -0.29468
 C206 C 0.14997 0.83065 -0.24671
 N207 N 0.11718 0.80660 -0.19359
 H208 H 0.15890 0.88871 -0.25405
 N209 N 0.40437 0.76937 -0.23380
 N210 N 0.37368 0.79844 -0.28883
 C211 C 0.34533 0.74420 -0.30045
 C212 C 0.35940 0.68100 -0.25036
 N213 N 0.39620 0.69923 -0.20984
 H214 H 0.34558 0.62606 -0.24829
 N215 N -0.11102 1.25698 -0.22850
 N216 N -0.14215 1.28204 -0.28519
 C217 C -0.16677 1.22302 -0.30323
 C218 C -0.14999 1.16085 -0.25507
 N219 N -0.11534 1.18471 -0.20933
 H220 H -0.16046 1.10341 -0.25755
 N221 N 0.68406 0.52345 -0.20137
 N222 N 0.71363 0.54927 -0.26075
 C223 C 0.69756 0.61250 -0.30251
 C224 C 0.65722 0.62469 -0.26696
 N225 N 0.65002 0.56787 -0.20430
 H226 H 0.63500 0.66935 -0.28640
 N227 N 0.17927 1.06584 -0.19634
 N228 N 0.20704 1.09415 -0.25807
 C229 C 0.18717 1.15049 -0.30720
 C230 C 0.14625 1.15610 -0.27373
 N231 N 0.14268 1.10218 -0.20463
 H232 H 0.12145 1.19433 -0.29834
 N233 N 0.31740 0.46160 -0.18399
 N234 N 0.28703 0.43649 -0.24117
 C235 C 0.30354 0.37833 -0.29544
 C236 C 0.34520 0.36860 -0.27019
 N237 N 0.35252 0.42187 -0.20053
 H238 H 0.36806 0.32837 -0.30103
 N239 N -0.17866 0.93516 -0.18266
 N240 N -0.20781 0.90529 -0.23930
 C241 C -0.18898 0.84787 -0.29049
 C242 C -0.14721 0.84348 -0.26404
 N243 N -0.14215 0.89912 -0.19664
 H244 H -0.12288 0.80507 -0.29245
 N245 N 0.40487 0.77367 0.23869
 N246 N 0.37424 0.80201 0.29630
 C247 C 0.34576 0.74782 0.30546
 C248 C 0.35972 0.68549 0.25109
 N249 N 0.39654 0.70404 0.21055
 H250 H 0.34583 0.63075 0.24641
 N251 N -0.11493 1.26673 0.22005
 N252 N -0.14640 1.29088 0.27811
 C253 C -0.16869 1.22987 0.30073
 C254 C -0.15039 1.16770 0.25358
 N255 N -0.11707 1.19327 0.20430
 H256 H -0.15894 1.10929 0.25881
 N257 N 0.59657 0.21515 0.22373
 N258 N 0.62626 0.18676 0.28237
 C259 C 0.65396 0.24167 0.29723
 C260 C 0.64064 0.30435 0.24522
 N261 N 0.60492 0.28533 0.20024
 H262 H 0.65401 0.35971 0.24524
 N263 N 0.11099 0.74032 0.22036
 N264 N 0.14111 0.71348 0.27878
 C265 C 0.16589 0.77152 0.30086
 C266 C 0.15029 0.83487 0.25318
 N267 N 0.11617 0.81275 0.20363
 H268 H 0.16099 0.89206 0.25902
   
