data_POSCAR
  _audit_creation_date              2014-09-24
  _audit_creation_method            'ToBaCCo'
  _symmetry_space_group_name_H-M    'P1'
  _symmetry_Int_Tables_number       1
  _symmetry_cell_setting            triclinic
  loop_
  _symmetry_equiv_pos_as_xyz
 x,y,z
_cell_length_a 43.5965
_cell_length_b 43.6071
_cell_length_c 43.4871
_cell_angle_alpha 89.989200
_cell_angle_beta 90.015700
_cell_angle_gamma 89.813600
loop_
  _atom_site_label
  _atom_site_type_symbol
  _atom_site_fract_x
  _atom_site_fract_y
  _atom_site_fract_z
C1 C 0.19370 0.15481 0.19285
 C2 C 0.18033 0.14220 0.21931
 C3 C 0.15400 0.15559 0.23215
 C4 C 0.14092 0.18174 0.21866
 C5 C 0.15400 0.19463 0.19219
 C6 C 0.18051 0.18113 0.17919
 C7 C 0.21992 0.14146 0.17969
 C8 C 0.23297 0.15411 0.15312
 C9 C 0.21994 0.18026 0.13956
 C10 C 0.19373 0.19388 0.15243
 C11 C 0.18039 0.21991 0.13891
 C12 C 0.15409 0.23322 0.15182
 C13 C 0.14096 0.22067 0.17837
 H14 H 0.19031 0.12192 0.22982
 H15 H 0.12050 0.19197 0.22867
 H16 H 0.23008 0.12118 0.19004
 H17 H 0.23012 0.18991 0.11897
 H18 H 0.19034 0.22978 0.11832
 H19 H 0.12057 0.23111 0.18814
 C20 C -0.19193 0.84698 0.19606
 C21 C -0.17816 0.86013 0.22205
 C22 C -0.15151 0.84714 0.23464
 C23 C -0.13848 0.82086 0.22136
 C24 C -0.15196 0.80744 0.19537
 C25 C -0.17880 0.82052 0.18262
 C26 C -0.21848 0.85992 0.18316
 C27 C -0.23194 0.84673 0.15706
 C28 C -0.21898 0.82044 0.14373
 C29 C -0.19243 0.80722 0.15634
 C30 C -0.17915 0.78104 0.14306
 C31 C -0.15251 0.76814 0.15572
 C32 C -0.13899 0.78126 0.18178
 H33 H -0.18811 0.88050 0.23241
 H34 H -0.11782 0.81095 0.23118
 H35 H -0.22859 0.88030 0.19334
 H36 H -0.22947 0.81036 0.12350
 H37 H -0.18941 0.77074 0.12284
 H38 H -0.11833 0.77113 0.19137
 C39 C -0.19641 0.15211 -0.19268
 C40 C -0.18279 0.13923 -0.21891
 C41 C -0.15678 0.15275 -0.23199
 C42 C -0.14422 0.17930 -0.21902
 C43 C -0.15755 0.19250 -0.19280
 C44 C -0.18376 0.17887 -0.17952
 C45 C -0.22233 0.13863 -0.17926
 C46 C -0.23564 0.15158 -0.15292
 C47 C -0.22316 0.17815 -0.13987
 C48 C -0.19724 0.19192 -0.15300
 C49 C -0.18443 0.21840 -0.14000
 C50 C -0.15841 0.23183 -0.15318
 C51 C -0.14504 0.21896 -0.17949
 H52 H -0.19229 0.11864 -0.22909
 H53 H -0.12403 0.18956 -0.22929
 H54 H -0.23207 0.11803 -0.18923
 H55 H -0.23353 0.18804 -0.11945
 H56 H -0.19457 0.22851 -0.11959
 H57 H -0.12486 0.22950 -0.18948
 C58 C 0.19473 0.84599 -0.19366
 C59 C 0.18196 0.85988 -0.21982
 C60 C 0.15563 0.84757 -0.23355
 C61 C 0.14194 0.82124 -0.22124
 C62 C 0.15442 0.80707 -0.19509
 C63 C 0.18093 0.81948 -0.18120
 C64 C 0.22095 0.85823 -0.17963
 C65 C 0.23341 0.84431 -0.15339
 C66 C 0.21980 0.81800 -0.14101
 C67 C 0.19357 0.80544 -0.15475
 C68 C 0.17963 0.77922 -0.14244
 C69 C 0.15333 0.76699 -0.15623
 C70 C 0.14079 0.78083 -0.18247
 H71 H 0.19242 0.88030 -0.22942
 H72 H 0.12153 0.81185 -0.23194
 H73 H 0.23163 0.87863 -0.18900
 H74 H 0.22959 0.80743 -0.12065
 H75 H 0.18913 0.76836 -0.12209
 H76 H 0.12038 0.77122 -0.19293
 C77 C 0.15475 1.19375 0.80711
 C78 C 0.14220 1.18039 0.78061
 C79 C 0.15560 1.15404 0.76781
 C80 C 0.18169 1.14093 0.78140
 C81 C 0.19452 1.15400 0.80790
 C82 C 0.18102 1.18052 0.82086
 C83 C 0.14141 1.21999 0.82022
 C84 C 0.15401 1.23304 0.84682
 C85 C 0.18010 1.21997 0.86046
 C86 C 0.19372 1.19374 0.84765
 C87 C 0.21971 1.18037 0.86123
 C88 C 0.23302 1.15406 0.84837
 C89 C 0.22051 1.14094 0.82180
 H90 H 0.12197 1.19040 0.77002
 H91 H 0.19192 1.12050 0.77143
 H92 H 0.12118 1.23019 0.80980
 H93 H 0.18972 1.23014 0.88108
 H94 H 0.22955 1.19031 0.88185
 H95 H 0.23096 1.12053 0.81205
 C96 C 0.84696 0.80809 0.80378
 C97 C 0.86000 0.82195 0.77778
 C98 C 0.84691 0.84860 0.76530
 C99 C 0.82064 0.86153 0.77869
 C100 C 0.80732 0.84797 0.80470
 C101 C 0.82051 0.82113 0.81734
 C102 C 0.86002 0.78156 0.81659
 C103 C 0.84696 0.76803 0.84272
 C104 C 0.82068 0.78090 0.85617
 C105 C 0.80734 0.80743 0.84364
 C106 C 0.78119 0.82064 0.85707
 C107 C 0.76820 0.84727 0.84452
 C108 C 0.78117 0.86086 0.81841
 H109 H 0.88037 0.81207 0.76734
 H110 H 0.81065 0.88219 0.76896
 H111 H 0.88040 0.77153 0.80632
 H112 H 0.81072 0.77036 0.87643
 H113 H 0.77100 0.81033 0.87732
 H114 H 0.77097 0.88151 0.80892
 C115 C 0.15211 0.80350 1.19296
 C116 C 0.13917 0.81714 1.21917
 C117 C 0.15268 0.84316 1.23225
 C118 C 0.17925 0.85571 1.21931
 C119 C 0.19249 0.84237 1.19311
 C120 C 0.17888 0.81614 1.17983
 C121 C 0.13864 0.77758 1.17954
 C122 C 0.15162 0.76427 1.15322
 C123 C 0.17822 0.77674 1.14019
 C124 C 0.19197 0.80266 1.15333
 C125 C 0.21846 0.81548 1.14035
 C126 C 0.23186 0.84150 1.15353
 C127 C 0.21896 0.85487 1.17983
 H128 H 0.11856 0.80765 1.22932
 H129 H 0.18949 0.87591 1.22957
 H130 H 0.11802 0.76784 1.18948
 H131 H 0.18812 0.76637 1.11978
 H132 H 0.22859 0.80534 1.11995
 H133 H 0.22948 0.87506 1.18982
 C134 C 0.84594 1.19487 1.19356
 C135 C 0.85981 1.18211 1.21974
 C136 C 0.84744 1.15583 1.23350
 C137 C 0.82107 1.14218 1.22121
 C138 C 0.80692 1.15466 1.19505
 C139 C 0.81938 1.18112 1.18112
 C140 C 0.85824 1.22104 1.17949
 C141 C 0.84432 1.23348 1.15324
 C142 C 0.81797 1.21993 1.14089
 C143 C 0.80536 1.19375 1.15467
 C144 C 0.77909 1.17987 1.14238
 C145 C 0.76681 1.15361 1.15621
 C146 C 0.78064 1.14107 1.18245
 H147 H 0.88026 1.19254 1.22932
 H148 H 0.81163 1.12182 1.23194
 H149 H 0.87867 1.23167 1.18883
 H150 H 0.80740 1.22971 1.12053
 H151 H 0.76824 1.18936 1.12203
 H152 H 0.77099 1.12070 1.19294
 O153 O 0.45636 1.05353 1.05618
 O154 O 0.42296 1.02380 1.02831
 C155 C 0.42898 1.04517 1.04807
 O156 O 0.54291 1.05111 0.94685
 O157 O 0.57674 1.02344 0.97652
 C158 C 0.57041 1.04318 0.95517
 O159 O 0.45660 1.05359 0.94947
 O160 O 0.42307 1.02396 0.97728
 C161 C 0.42919 1.04529 0.95752
 O162 O 0.54252 1.05133 1.05921
 O163 O 0.57646 1.02401 1.02944
 C164 C 0.57004 1.04362 1.05086
 Zr165 Zr 0.49965 1.03640 1.04180
 O166 O 0.50264 1.08485 1.04179
 O167 O 0.49611 1.03605 1.09035
 Zr168 Zr 0.49982 1.03637 0.96397
 O169 O 0.50288 1.08481 0.96382
 O170 O 0.49648 1.03601 0.91540
 O171 O 0.47237 1.04226 1.00282
 O172 O 0.52628 1.04210 1.00295
 O173 O 0.54331 0.94422 1.05921
 O174 O 0.57684 0.97184 1.02942
 C175 C 0.57072 0.95218 1.05086
 O176 O 0.45756 0.94144 0.94908
 O177 O 0.42363 0.97112 0.97651
 C178 C 0.43004 0.94974 0.95685
 O179 O 0.54375 0.94463 0.94675
 O180 O 0.57714 0.97253 0.97649
 C181 C 0.57112 0.95280 0.95508
 O182 O 0.45717 0.94123 1.05610
 O183 O 0.42335 0.97060 1.02812
 C184 C 0.42967 0.94930 1.04791
 Zr185 Zr 0.50020 0.95879 1.04180
 O186 O 0.50396 0.91038 1.04181
 O187 O 0.49663 0.95911 1.09035
 Zr188 Zr 0.50043 0.95892 0.96392
 O189 O 0.50420 0.91051 0.96392
 O190 O 0.49716 0.95925 0.91534
 Zr191 Zr 0.45444 0.99740 1.00280
 Zr192 Zr 0.54565 0.99782 1.00307
 O193 O 0.52694 0.95337 1.00293
 O194 O 0.47303 0.95270 1.00277
 O195 O 0.52732 0.99771 1.04793
 O196 O 0.47349 0.99755 0.95832
 O197 O 0.47328 0.99747 1.04735
 O198 O 0.52753 0.99778 0.95808
 H199 H 0.53995 1.06021 1.00294
 H200 H 0.45968 0.99759 0.94022
 H201 H 0.54090 0.93540 1.00289
 H202 H 0.45930 0.99739 1.06530
 H203 H 0.51407 1.02404 0.90742
 H204 H 0.51441 0.97162 0.90740
 H205 H 0.48709 0.90240 0.97641
 H206 H 0.48714 0.90231 1.02890
 H207 H 0.51389 0.97139 1.09840
 H208 H 0.51353 1.02387 1.09840
 H209 H 0.48555 1.09278 1.02909
 H210 H 0.48591 1.09279 0.97665
 O211 O 0.05115 0.54271 -0.05933
 O212 O 0.02387 0.57656 -0.02941
 C213 C 0.04343 0.57020 -0.05090
 O214 O -0.05889 0.45726 -0.05590
 O215 O -0.02928 0.42347 -0.02814
 C216 C -0.05071 0.42978 -0.04780
 O217 O -0.05572 0.54347 -0.05903
 O218 O -0.02764 0.57700 -0.02965
 C219 C -0.04751 0.57087 -0.05091
 O220 O 0.05350 0.45655 -0.05641
 O221 O 0.02396 0.42313 -0.02839
 C222 C 0.04523 0.42917 -0.04824
 Zr223 Zr 0.03628 0.49978 -0.04200
 O224 O 0.03543 0.49625 -0.09056
 O225 O 0.08472 0.50284 -0.04248
 Zr226 Zr -0.04130 0.50029 -0.04163
 O227 O -0.04134 0.49672 -0.09018
 O228 O -0.08972 0.50407 -0.04136
 O229 O -0.00245 0.52740 -0.04788
 O230 O -0.00262 0.47338 -0.04735
 O231 O 0.05396 0.45675 0.05037
 O232 O 0.02421 0.42322 0.02269
 C233 C 0.04563 0.42934 0.04238
 O234 O -0.05518 0.54362 0.05356
 O235 O -0.02751 0.57707 0.02372
 C236 C -0.04711 0.57100 0.04522
 O237 O -0.05826 0.45744 0.05094
 O238 O -0.02901 0.42356 0.02295
 C239 C -0.05016 0.42993 0.04286
 O240 O 0.05137 0.54299 0.05303
 O241 O 0.02347 0.57678 0.02354
 C242 C 0.04332 0.57047 0.04480
 Zr243 Zr 0.03668 0.49992 0.03585
 O244 O 0.03670 0.49655 0.08441
 O245 O 0.08513 0.50308 0.03556
 Zr246 Zr -0.04087 0.50040 0.03624
 O247 O -0.04038 0.49703 0.08480
 O248 O -0.08930 0.50413 0.03642
 Zr249 Zr -0.00219 0.54569 -0.00299
 Zr250 Zr -0.00244 0.45454 -0.00280
 O251 O -0.00214 0.47353 0.04169
 O252 O -0.00199 0.52753 0.04197
 O253 O 0.04241 0.47251 -0.00305
 O254 O -0.04663 0.52699 -0.00272
 O255 O 0.04214 0.52639 -0.00314
 O256 O -0.04717 0.47308 -0.00261
 H257 H -0.00275 0.45940 -0.06531
 H258 H -0.06455 0.54101 -0.00268
 H259 H -0.00209 0.45965 0.05972
 H260 H 0.06022 0.54009 -0.00317
 H261 H -0.09774 0.48715 -0.02857
 H262 H -0.09744 0.48704 0.02392
 H263 H -0.02799 0.51425 0.09274
 H264 H 0.02441 0.51388 0.09247
 H265 H 0.09306 0.48586 0.02305
 H266 H 0.09278 0.48607 -0.02943
 H267 H 0.02375 0.51403 -0.09854
 H268 H -0.02878 0.51374 -0.09829
 O269 O 1.05834 -0.05098 0.54328
 O270 O 1.02899 -0.02291 0.57705
 C271 C 1.05020 -0.04281 0.57081
 O272 O 1.05566 0.05836 0.45672
 O273 O 1.02784 0.02891 0.42300
 C274 C 1.04761 0.05013 0.42921
 O275 O 1.05843 0.05579 0.54311
 O276 O 1.02853 0.02855 0.57687
 C277 C 1.05000 0.04803 0.57063
 O278 O 1.05541 -0.05391 0.45678
 O279 O 1.02760 -0.02430 0.42301
 C280 C 1.04730 -0.04571 0.42926
 Zr281 Zr 1.04108 -0.03642 0.50002
 O282 O 1.08952 -0.03629 0.49651
 O283 O 1.04114 -0.08484 0.50350
 Zr284 Zr 1.04112 0.04115 0.49996
 O285 O 1.08956 0.04072 0.49655
 O286 O 1.04105 0.08959 0.50329
 O287 O 1.04711 0.00236 0.52744
 O288 O 1.04669 0.00232 0.47328
 O289 O 0.94869 -0.05329 0.45692
 O290 O 0.97611 -0.02356 0.42316
 C291 C 0.95650 -0.04491 0.42940
 O292 O 0.94615 0.05589 0.54328
 O293 O 0.97563 0.02793 0.57706
 C294 C 0.95431 0.04773 0.57081
 O295 O 0.94901 0.05879 0.45675
 O296 O 0.97687 0.02922 0.42300
 C297 C 0.95708 0.05055 0.42923
 O298 O 0.94624 -0.05072 0.54320
 O299 O 0.97617 -0.02348 0.57693
 C300 C 0.95471 -0.04297 0.57071
 Zr301 Zr 0.96341 -0.03603 0.50004
 O302 O 0.91496 -0.03542 0.49668
 O303 O 0.96336 -0.08447 0.50340
 Zr304 Zr 0.96353 0.04151 0.50002
 O305 O 0.91509 0.04180 0.49656
 O306 O 0.96387 0.08993 0.50349
 Zr307 Zr 1.00231 0.00254 0.54574
 Zr308 Zr 1.00229 0.00249 0.45430
 O309 O 0.95789 0.00276 0.47335
 O310 O 0.95749 0.00275 0.52748
 O311 O 1.00221 -0.04228 0.47263
 O312 O 1.00232 0.04692 0.52668
 O313 O 1.00228 -0.04183 0.52667
 O314 O 1.00232 0.04729 0.47257
 H315 H 1.06464 0.00221 0.45931
 H316 H 1.00226 0.06493 0.54057
 H317 H 0.93985 0.00290 0.45949
 H318 H 1.00234 -0.05986 0.54053
 H319 H 1.02849 0.09761 0.48613
 H320 H 0.97606 0.09789 0.48607
 H321 H 0.90704 0.02900 0.51349
 H322 H 0.90701 -0.02337 0.51424
 H323 H 0.97592 -0.09253 0.48626
 H324 H 1.02828 -0.09283 0.48660
 H325 H 1.09755 -0.02414 0.51393
 H326 H 1.09754 0.02831 0.51385
 C327 C 1.11523 0.11769 0.30639
 N328 N 1.10127 0.13528 0.32800
 N329 N 1.08808 0.12235 0.35241
 C330 C 1.08847 0.09144 0.35593
 N331 N 1.10244 0.07387 0.33431
 N332 N 1.11562 0.08679 0.30992
 C333 C 1.12920 0.13151 0.27994
 C334 C 1.14088 0.14291 0.25758
 C335 C 1.07407 0.07740 0.38202
 C336 C 1.06198 0.06520 0.40371
 C337 C 0.88809 -0.11394 0.30787
 N338 N 0.91393 -0.12615 0.32027
 N339 N 0.92732 -0.11287 0.34436
 C340 C 0.91527 -0.08698 0.35678
 N341 N 0.88942 -0.07477 0.34439
 N342 N 0.87603 -0.08805 0.32029
 C343 C 0.87384 -0.12803 0.28173
 C344 C 0.86191 -0.13975 0.25967
 C345 C 0.92983 -0.07246 0.38250
 C346 C 0.94204 -0.06002 0.40400
 C347 C 0.88354 0.11389 0.69281
 N348 N 0.87591 0.08509 0.68394
 N349 N 0.88949 0.07219 0.65970
 C350 C 0.91109 0.08771 0.64360
 N351 N 0.91871 0.11651 0.65246
 N352 N 0.90514 0.12941 0.67670
 C353 C 0.86921 0.12764 0.71913
 C354 C 0.85730 0.13913 0.74135
 C355 C 0.92604 0.07366 0.61778
 C356 C 0.93882 0.06184 0.59624
 C357 C 1.11846 -0.11170 0.69278
 N358 N 1.10544 -0.12870 0.67019
 N359 N 1.09253 -0.11509 0.64596
 C360 C 1.09226 -0.08408 0.64358
 N361 N 1.10529 -0.06708 0.66617
 N362 N 1.11820 -0.08068 0.69040
 C363 C 1.13196 -0.12633 0.71908
 C364 C 1.14314 -0.13860 0.74127
 C365 C 1.07785 -0.06944 0.61778
 C366 C 1.06542 -0.05723 0.59624
 C367 C 0.30676 1.11481 1.11485
 N368 N 0.32097 1.09087 1.12884
 N369 N 0.34523 1.07749 1.11580
 C370 C 0.35601 1.08765 1.08839
 N371 N 0.34180 1.11160 1.07441
 N372 N 0.31755 1.12498 1.08744
 C373 C 0.28043 1.12898 1.12870
 C374 C 0.25820 1.14081 1.14023
 C375 C 0.38187 1.07298 1.07419
 C376 C 0.40347 1.06042 1.06226
 C377 C 0.30858 0.88198 0.88756
 N378 N 0.32202 0.90705 0.87504
 N379 N 0.34619 0.91991 0.88858
 C380 C 0.35767 0.90808 0.91505
 N381 N 0.34425 0.88300 0.92757
 N382 N 0.32006 0.87014 0.91403
 C383 C 0.28228 0.86845 0.87318
 C384 C 0.26006 0.85732 0.86107
 C385 C 0.38338 0.92229 0.92985
 C386 C 0.40480 0.93461 0.94221
 C387 C 0.69342 0.88504 1.11938
 N388 N 0.68202 0.91181 1.13049
 N389 N 0.65757 0.92486 1.11746
 C390 C 0.64378 0.91152 1.09294
 N391 N 0.65517 0.88474 1.08184
 N392 N 0.67961 0.87169 1.09486
 C393 C 0.72003 0.87122 1.13308
 C394 C 0.74252 0.85968 1.14442
 C395 C 0.61780 0.92582 1.07852
 C396 C 0.59618 0.93785 1.06608
 C397 C 0.69142 1.11182 0.88600
 N398 N 0.67915 1.12358 0.91213
 N399 N 0.65516 1.11013 0.92541
 C400 C 0.64271 1.08451 0.91296
 N401 N 0.65498 1.07275 0.88683
 N402 N 0.67897 1.08620 0.87354
 C403 C 0.71745 1.12614 0.87191
 C404 C 0.73942 1.13812 0.86019
 C405 C 0.61710 1.06988 0.92749
 C406 C 0.59570 1.05764 0.93996
 C407 C 0.11472 0.30785 0.11106
 N408 N 0.12424 0.31736 0.08295
 N409 N 0.11101 0.34144 0.06943
 C410 C 0.08787 0.35674 0.08363
 N411 N 0.07837 0.34723 0.11174
 N412 N 0.09159 0.32316 0.12526
 C413 C 0.12870 0.28172 0.12548
 C414 C 0.14033 0.25967 0.13754
 C415 C 0.07335 0.38244 0.06896
 C416 C 0.06087 0.40393 0.05675
 C417 C -0.12010 0.30766 -0.11414
 N418 N -0.09917 0.32437 -0.12992
 N419 N -0.08604 0.34873 -0.11698
 C420 C -0.09345 0.35711 -0.08788
 N421 N -0.11440 0.34041 -0.07210
 N422 N -0.12753 0.31605 -0.08504
 C423 C -0.13383 0.28114 -0.12790
 C424 C -0.14514 0.25873 -0.13944
 C425 C -0.07882 0.38295 -0.07376
 C426 C -0.06618 0.40446 -0.06191
 C427 C 0.11252 0.69177 -0.11861
 N428 N 0.08453 0.68244 -0.12843
 N429 N 0.07101 0.65824 -0.11560
 C430 C 0.08508 0.64263 -0.09257
 N431 N 0.11307 0.65195 -0.08276
 N432 N 0.12659 0.67614 -0.09559
 C433 C 0.12689 0.71809 -0.13207
 C434 C 0.13896 0.74032 -0.14318
 C435 C 0.07034 0.61691 -0.07835
 C436 C 0.05801 0.59547 -0.06603
 C437 C -0.11343 0.69303 0.11561
 N438 N -0.12920 0.67643 0.09454
 N439 N -0.11624 0.65221 0.08104
 C440 C -0.08711 0.64385 0.08822
 N441 N -0.07134 0.66044 0.10930
 N442 N -0.08430 0.68466 0.12279
 C443 C -0.12726 0.71933 0.12985
 C444 C -0.13882 0.74152 0.14170
 C445 C -0.07302 0.61803 0.07336
 C446 C -0.06118 0.59647 0.06065
 C447 C 1.11830 0.11516 0.69333
 N448 N 1.11931 0.08428 0.68973
 N449 N 1.10639 0.07116 0.66529
 C450 C 1.09209 0.08852 0.64370
 N451 N 1.09109 0.11940 0.64729
 N452 N 1.10401 0.13253 0.67173
 C453 C 1.13181 0.12923 0.71988
 C454 C 1.14303 0.14094 0.74233
 C455 C 1.07764 0.07432 0.61771
 C456 C 1.06520 0.06235 0.59609
 C457 C 0.88562 -0.11145 0.69217
 N458 N 0.90702 -0.12667 0.67539
 N459 N 0.92029 -0.11321 0.65133
 C460 C 0.91255 -0.08414 0.64331
 N461 N 0.89114 -0.06892 0.66008
 N462 N 0.87788 -0.08238 0.68415
 C463 C 0.87160 -0.12582 0.71827
 C464 C 0.85995 -0.13786 0.74030
 C465 C 0.92711 -0.06957 0.61762
 C466 C 0.93958 -0.05739 0.59613
 C467 C 1.11365 -0.11608 0.30712
 N468 N 1.11064 -0.08513 0.30808
 N469 N 1.09768 -0.07156 0.33228
 C470 C 1.08734 -0.08851 0.35626
 N471 N 1.09035 -0.11947 0.35531
 N472 N 1.10331 -0.13305 0.33110
 C473 C 1.12744 -0.13065 0.28095
 C474 C 1.13898 -0.14268 0.25883
 C475 C 1.07327 -0.07382 0.38221
 C476 C 1.06142 -0.06117 0.40381
 C477 C 0.88794 0.11855 0.30725
 N478 N 0.91608 0.12804 0.31646
 N479 N 0.92968 0.11514 0.34070
 C480 C 0.91555 0.09235 0.35644
 N481 N 0.88741 0.08287 0.34723
 N482 N 0.87381 0.09577 0.32300
 C483 C 0.87344 0.13213 0.28092
 C484 C 0.86123 0.14335 0.25870
 C485 C 0.93034 0.07808 0.38225
 C486 C 0.94263 0.06573 0.40379
 C487 C 0.11476 0.30690 -0.11502
 N488 N 0.12569 0.31841 -0.08821
 N489 N 0.11234 0.34269 -0.07519
 C490 C 0.08766 0.35619 -0.08861
 N491 N 0.07674 0.34469 -0.11542
 N492 N 0.09009 0.32041 -0.12843
 C493 C 0.12890 0.28054 -0.12884
 C494 C 0.14072 0.25829 -0.14034
 C495 C 0.07302 0.38208 -0.07441
 C496 C 0.06048 0.40368 -0.06246
 C497 C -0.11791 0.30850 0.11214
 N498 N -0.13013 0.32032 0.08600
 N499 N -0.11727 0.34448 0.07241
 C500 C -0.09181 0.35753 0.08457
 N501 N -0.07960 0.34571 0.11071
 N502 N -0.09245 0.32156 0.12429
 C503 C -0.13146 0.28225 0.12658
 C504 C -0.14262 0.26008 0.13873
 C505 C -0.07763 0.38324 0.06976
 C506 C -0.06532 0.40467 0.05741
 C507 C -0.11420 0.69355 -0.11985
 N508 N -0.13172 0.67122 -0.10720
 N509 N -0.11865 0.64678 -0.09417
 C510 C -0.08767 0.64395 -0.09341
 N511 N -0.07015 0.66627 -0.10608
 N512 N -0.08322 0.69070 -0.11911
 C513 C -0.12823 0.72010 -0.13344
 C514 C -0.13993 0.74254 -0.14471
 C515 C -0.07357 0.61796 -0.07883
 C516 C -0.06169 0.59633 -0.06627
 C517 C 0.11187 0.69137 0.11421
 N518 N 0.08474 0.68066 0.12497
 N519 N 0.07130 0.65669 0.11163
 C520 C 0.08459 0.64271 0.08714
 N521 N 0.11172 0.65342 0.07639
 N522 N 0.12516 0.67739 0.08973
 C523 C 0.12619 0.71738 0.12833
 C524 C 0.13816 0.73934 0.14007
 C525 C 0.06998 0.61713 0.07254
 C526 C 0.05776 0.59575 0.06002
 C527 C 0.30761 1.11451 0.88907
 N528 N 0.32129 1.08975 0.87602
 N529 N 0.34537 1.07647 0.88947
 C530 C 0.35651 1.08755 0.91638
 N531 N 0.34285 1.11232 0.92942
 N532 N 0.31875 1.12560 0.91597
 C533 C 0.28149 1.12859 0.87472
 C534 C 0.25945 1.14027 0.86269
 C535 C 0.38224 1.07301 0.93098
 C536 C 0.40375 1.06052 0.94315
 C537 C 0.30763 0.88003 1.11456
 N538 N 0.31981 0.86838 1.08833
 N539 N 0.34414 0.88154 1.07535
 C540 C 0.35702 0.90673 1.08824
 N541 N 0.34485 0.91836 1.11447
 N542 N 0.32052 0.90520 1.12744
 C543 C 0.28114 0.86619 1.12828
 C544 C 0.25875 0.85482 1.13980
 C545 C 0.38285 0.92128 1.07401
 C546 C 0.40436 0.93387 1.06208
 C547 C 0.69152 1.11283 1.11865
 N548 N 0.67517 1.12738 1.09645
 N549 N 0.65097 1.11385 1.08362
 C550 C 0.64238 1.08537 1.09261
 N551 N 0.65872 1.07081 1.11482
 N552 N 0.68292 1.08434 1.12765
 C553 C 0.71786 1.12721 1.13209
 C554 C 0.74011 1.13927 1.14317
 C555 C 0.61669 1.07061 1.07835
 C556 C 0.59527 1.05826 1.06601
 C557 C 0.69346 0.88644 0.88526
 N558 N 0.69535 0.89668 0.91464
 N559 N 0.67116 0.90969 0.92813
 C560 C 0.64433 0.91287 0.91264
 N561 N 0.64242 0.90263 0.88326
 N562 N 0.66663 0.88962 0.86976
 C563 C 0.71958 0.87254 0.87076
 C564 C 0.74167 0.86096 0.85873
 C565 C 0.61832 0.92690 0.92724
 C566 C 0.59665 0.93871 0.93978
   
