data_POSCAR
  _audit_creation_date              2014-09-24
  _audit_creation_method            'ToBaCCo'
  _symmetry_space_group_name_H-M    'P1'
  _symmetry_Int_Tables_number       1
  _symmetry_cell_setting            triclinic
  loop_
  _symmetry_equiv_pos_as_xyz
 x,y,z
_cell_length_a 32.6782
_cell_length_b 32.6778
_cell_length_c 30.4446
_cell_angle_alpha 89.951700
_cell_angle_beta 89.954100
_cell_angle_gamma 89.916500
loop_
  _atom_site_label
  _atom_site_type_symbol
  _atom_site_fract_x
  _atom_site_fract_y
  _atom_site_fract_z
O1 O -0.04336 0.30126 0.04127
 O2 O 0.03790 0.30281 -0.04251
 O3 O -0.04170 0.30056 -0.04422
 O4 O 0.03632 0.30178 0.04302
 O5 O 0.03749 0.23410 0.04286
 O6 O -0.04039 0.23289 -0.04422
 O7 O 0.03921 0.23515 -0.04266
 O8 O -0.04218 0.23359 0.04126
 Cu9 Cu -0.00283 0.30844 -0.00060
 Cu10 Cu -0.00133 0.22710 -0.00069
 C11 C -0.05650 0.26721 0.05541
 C12 C 0.05225 0.26928 -0.05679
 C13 C -0.05420 0.26648 -0.05892
 C14 C 0.05006 0.26809 0.05764
 O15 O 0.46294 0.79930 0.54487
 O16 O 0.54357 0.80046 0.46033
 O17 O 0.46388 0.80048 0.45912
 O18 O 0.54256 0.79828 0.54579
 O19 O 0.54219 0.73062 0.54436
 O20 O 0.46356 0.73283 0.45775
 O21 O 0.54328 0.73280 0.45888
 O22 O 0.46256 0.73164 0.54354
 Cu23 Cu 0.50321 0.80645 0.50266
 Cu24 Cu 0.50281 0.72515 0.50097
 C25 C 0.44926 0.76532 0.55864
 C26 C 0.55707 0.76684 0.44536
 C27 C 0.45053 0.76700 0.44371
 C28 C 0.55566 0.76407 0.55968
 O29 O 1.04539 0.69842 0.04478
 O30 O 0.96454 0.69631 -0.03949
 O31 O 1.04435 0.69695 -0.04062
 O32 O 0.96568 0.69842 0.04608
 O33 O 0.96529 0.76608 0.04443
 O34 O 1.04389 0.76460 -0.04220
 O35 O 0.96411 0.76397 -0.04111
 O36 O 1.04498 0.76608 0.04316
 Cu37 Cu 1.00499 0.69070 0.00284
 Cu38 Cu 1.00449 0.77200 0.00088
 C39 C 1.05890 0.73259 0.05813
 C40 C 0.95066 0.72978 -0.05452
 C41 C 1.05751 0.73057 -0.05592
 C42 C 0.95223 0.73251 0.05990
 O43 O 0.53715 0.19723 0.54239
 O44 O 0.45624 0.19791 0.45844
 O45 O 0.53586 0.19799 0.45688
 O46 O 0.45744 0.19910 0.54397
 O47 O 0.45817 0.26678 0.54362
 O48 O 0.53643 0.26568 0.45671
 O49 O 0.45681 0.26559 0.45810
 O50 O 0.53787 0.26491 0.54221
 Cu51 Cu 0.49660 0.19123 0.50047
 Cu52 Cu 0.49738 0.27257 0.50016
 C53 C 0.55120 0.23090 0.55645
 C54 C 0.44291 0.23181 0.44404
 C55 C 0.54935 0.23171 0.44210
 C56 C 0.44455 0.23318 0.55844
 O57 O 0.69789 0.03731 -0.04151
 O58 O 0.69896 -0.04389 0.04235
 O59 O 0.69856 0.03573 0.04401
 O60 O 0.70001 -0.04238 -0.04316
 O61 O 0.76768 -0.04135 -0.04296
 O62 O 0.76624 0.03661 0.04405
 O63 O 0.76663 -0.04300 0.04255
 O64 O 0.76556 0.03832 -0.04145
 Cu65 Cu 0.69202 -0.00341 0.00039
 Cu66 Cu 0.77336 -0.00226 0.00054
 C67 C 0.73150 0.05154 -0.05564
 C68 C 0.73293 -0.05713 0.05667
 C69 C 0.73221 0.04932 0.05874
 C70 C 0.73413 -0.05506 -0.05773
 O71 O 0.19533 0.46259 0.53981
 O72 O 0.19752 0.54337 0.45541
 O73 O 0.19745 0.46365 0.45421
 O74 O 0.19626 0.54242 0.54079
 O75 O 0.26392 0.54178 0.54216
 O76 O 0.26510 0.46312 0.45567
 O77 O 0.26519 0.54281 0.45681
 O78 O 0.26298 0.46200 0.54124
 Cu79 Cu 0.18981 0.50302 0.49742
 Cu80 Cu 0.27112 0.50233 0.49913
 C81 C 0.22878 0.44866 0.55478
 C82 C 0.23170 0.55680 0.44195
 C83 C 0.23149 0.45013 0.44030
 C84 C 0.22994 0.55551 0.55594
 O85 O 0.29965 1.04480 0.03964
 O86 O 0.29868 0.96396 -0.04464
 O87 O 0.29765 1.04358 -0.04585
 O88 O 0.29988 0.96511 0.04109
 O89 O 0.23223 0.96470 0.04252
 O90 O 0.22999 1.04314 -0.04437
 O91 O 0.23102 0.96350 -0.04324
 O92 O 0.23200 1.04441 0.04114
 Cu93 Cu 0.30578 1.00436 -0.00258
 Cu94 Cu 0.22449 1.00385 -0.00082
 C95 C 0.26600 1.05828 0.05462
 C96 C 0.26472 0.95019 -0.05832
 C97 C 0.26344 1.05660 -0.05979
 C98 C 0.26641 0.95175 0.05657
 O99 O 0.80364 0.53771 0.54140
 O100 O 0.80165 0.45686 0.45743
 O101 O 0.80233 0.53655 0.45587
 O102 O 0.80097 0.45812 0.54292
 O103 O 0.73330 0.45970 0.54316
 O104 O 0.73466 0.53796 0.45629
 O105 O 0.73398 0.45827 0.45768
 O106 O 0.73598 0.53928 0.54181
 Cu107 Cu 0.80898 0.49717 0.49936
 Cu108 Cu 0.72765 0.49897 0.49975
 C109 C 0.77019 0.55212 0.55582
 C110 C 0.76753 0.44389 0.44340
 C111 C 0.76866 0.55050 0.44142
 C112 C 0.76686 0.44568 0.55771
 C113 C 0.23375 0.26639 0.24875
 C114 C 0.26313 0.23671 0.24852
 C115 C 0.26518 0.20526 0.21332
 C116 C 0.29457 0.23416 0.28360
 C117 C 0.23361 0.29984 0.28179
 C118 C 0.20007 0.26685 0.21607
 C119 C 0.26491 0.16356 0.22452
 C120 C 0.26561 0.13364 0.19174
 C121 C 0.26691 0.14505 0.14743
 C122 C 0.26806 0.18657 0.13603
 C123 C 0.26742 0.21655 0.16880
 C124 C 0.28325 0.23145 0.32806
 C125 C 0.31320 0.23056 0.36081
 C126 C 0.35470 0.23192 0.34941
 C127 C 0.36615 0.23363 0.30513
 C128 C 0.33625 0.23458 0.27237
 C129 C 0.26785 0.32531 0.28732
 C130 C 0.26744 0.35620 0.31910
 C131 C 0.23269 0.36218 0.34530
 C132 C 0.19824 0.33741 0.33934
 C133 C 0.19862 0.30651 0.30764
 C134 C 0.19360 0.30183 0.19017
 C135 C 0.16259 0.30236 0.15862
 C136 C 0.13755 0.26807 0.15292
 C137 C 0.14328 0.23338 0.17926
 C138 C 0.17426 0.23283 0.21087
 H139 H 0.26343 0.15423 0.25863
 H140 H 0.26484 0.10161 0.20095
 H141 H 0.26930 0.19576 0.10186
 H142 H 0.26842 0.24852 0.15950
 H143 H 0.25127 0.23035 0.33733
 H144 H 0.30401 0.22899 0.39497
 H145 H 0.34555 0.23642 0.23827
 H146 H 0.29485 0.32117 0.26715
 H147 H 0.29420 0.37532 0.32330
 H148 H 0.17116 0.34183 0.35935
 H149 H 0.17185 0.28736 0.30369
 H150 H 0.21302 0.32843 0.19391
 H151 H 0.15834 0.32937 0.13846
 H152 H 0.12394 0.20675 0.17523
 H153 H 0.17829 0.20586 0.23112
 H154 H 0.39818 0.23454 0.29595
 C155 C 0.76765 0.73491 0.25057
 C156 C 0.73801 0.76434 0.25048
 C157 C 0.73574 0.79582 0.21532
 C158 C 0.70635 0.76644 0.28547
 C159 C 0.76786 0.70125 0.28337
 C160 C 0.80132 0.73474 0.21779
 C161 C 0.73585 0.83749 0.22653
 C162 C 0.73491 0.86744 0.19375
 C163 C 0.73352 0.85605 0.14946
 C164 C 0.73254 0.81455 0.13807
 C165 C 0.73343 0.78455 0.17083
 C166 C 0.71739 0.76881 0.33002
 C167 C 0.68723 0.76940 0.36263
 C168 C 0.64579 0.76807 0.35101
 C169 C 0.63462 0.76667 0.30666
 C170 C 0.66473 0.76603 0.27404
 C171 C 0.73379 0.67547 0.28850
 C172 C 0.73421 0.64440 0.32008
 C173 C 0.76881 0.63854 0.34648
 C174 C 0.80313 0.66358 0.34089
 C175 C 0.80273 0.69468 0.30938
 C176 C 0.80810 0.69976 0.19201
 C177 C 0.83919 0.69936 0.16050
 C178 C 0.86403 0.73380 0.15467
 C179 C 0.85796 0.76852 0.18081
 C180 C 0.82688 0.76894 0.21240
 H181 H 0.73738 0.84677 0.26063
 H182 H 0.73552 0.89946 0.20293
 H183 H 0.73122 0.80540 0.10390
 H184 H 0.73255 0.75258 0.16156
 H185 H 0.74931 0.76992 0.33947
 H186 H 0.69621 0.77072 0.39684
 H187 H 0.65562 0.76443 0.23989
 H188 H 0.70691 0.67955 0.26817
 H189 H 0.70756 0.62506 0.32401
 H190 H 0.83008 0.65925 0.36109
 H191 H 0.82937 0.71407 0.30570
 H192 H 0.78888 0.67302 0.19586
 H193 H 0.84370 0.67231 0.14051
 H194 H 0.87715 0.79526 0.17670
 H195 H 0.82263 0.79592 0.23254
 H196 H 0.60266 0.76576 0.29730
 C197 C 0.73273 0.23276 0.25010
 C198 C 0.76217 0.26228 0.24984
 C199 C 0.79382 0.26426 0.21483
 C200 C 0.76426 0.29404 0.28461
 C201 C 0.69922 0.23257 0.28307
 C202 C 0.73253 0.19907 0.21744
 C203 C 0.83543 0.26406 0.22630
 C204 C 0.86556 0.26491 0.19372
 C205 C 0.85442 0.26629 0.14935
 C206 C 0.81298 0.26730 0.13769
 C207 C 0.78280 0.26650 0.17026
 C208 C 0.76689 0.28316 0.32920
 C209 C 0.76773 0.31344 0.36160
 C210 C 0.76637 0.35483 0.34971
 C211 C 0.76462 0.36584 0.30531
 C212 C 0.76374 0.33561 0.27290
 C213 C 0.67340 0.26666 0.28831
 C214 C 0.64253 0.26627 0.32012
 C215 C 0.63691 0.23168 0.34664
 C216 C 0.66200 0.19734 0.34094
 C217 C 0.69289 0.19771 0.30920
 C218 C 0.69766 0.19259 0.19145
 C219 C 0.69736 0.16164 0.15985
 C220 C 0.73177 0.13665 0.15417
 C221 C 0.76635 0.14238 0.18060
 C222 C 0.76667 0.17332 0.21227
 H223 H 0.84453 0.26257 0.26047
 H224 H 0.89753 0.26427 0.20311
 H225 H 0.80403 0.26862 0.10346
 H226 H 0.75087 0.26745 0.16078
 H227 H 0.76809 0.25127 0.33884
 H228 H 0.76934 0.30460 0.39586
 H229 H 0.76195 0.34458 0.23870
 H230 H 0.67730 0.29354 0.26791
 H231 H 0.62315 0.29294 0.32414
 H232 H 0.65785 0.17040 0.36122
 H233 H 0.71232 0.17106 0.30545
 H234 H 0.67097 0.21199 0.19517
 H235 H 0.67043 0.15739 0.13963
 H236 H 0.79307 0.12308 0.17658
 H237 H 0.79356 0.17736 0.23257
 H238 H 0.76372 0.39777 0.29576
 C239 C 0.26875 0.76942 0.24988
 C240 C 0.23930 0.73987 0.24963
 C241 C 0.20752 0.73800 0.21481
 C242 C 0.23726 0.70786 0.28422
 C243 C 0.30238 0.76930 0.28272
 C244 C 0.26873 0.80331 0.21732
 C245 C 0.16596 0.73779 0.22657
 C246 C 0.13567 0.73645 0.19424
 C247 C 0.14660 0.73499 0.14980
 C248 C 0.18799 0.73452 0.13782
 C249 C 0.21834 0.73582 0.17017
 C250 C 0.23461 0.71839 0.32889
 C251 C 0.23326 0.68784 0.36105
 C252 C 0.23414 0.64654 0.34884
 C253 C 0.23605 0.63589 0.30436
 C254 C 0.23744 0.66638 0.27221
 C255 C 0.32798 0.73500 0.28781
 C256 C 0.35847 0.73477 0.32002
 C257 C 0.36398 0.76893 0.34712
 C258 C 0.33924 0.80355 0.34146
 C259 C 0.30872 0.80381 0.30932
 C260 C 0.30333 0.80988 0.19088
 C261 C 0.30311 0.84056 0.15886
 C262 C 0.26841 0.86519 0.15319
 C263 C 0.23417 0.85947 0.18018
 C264 C 0.23438 0.82882 0.21226
 H265 H 0.15701 0.73920 0.26081
 H266 H 0.10375 0.73669 0.20388
 H267 H 0.19679 0.73317 0.10354
 H268 H 0.25022 0.73516 0.16045
 H269 H 0.23365 0.75021 0.33877
 H270 H 0.23156 0.69641 0.39537
 H271 H 0.23922 0.65767 0.23794
 H272 H 0.32408 0.70837 0.26710
 H273 H 0.37758 0.70789 0.32394
 H274 H 0.34331 0.83019 0.36215
 H275 H 0.28946 0.83061 0.30573
 H276 H 0.33017 0.79068 0.19445
 H277 H 0.32981 0.84480 0.13824
 H278 H 0.20724 0.87850 0.17624
 H279 H 0.20767 0.82472 0.23286
 H280 H 0.23661 0.60403 0.29456
 C281 C 0.76249 0.26230 0.74963
 C282 C 0.73298 0.23286 0.74990
 C283 C 0.70119 0.23080 0.71516
 C284 C 0.73106 0.20120 0.78489
 C285 C 0.79594 0.26283 0.78257
 C286 C 0.76295 0.29559 0.71641
 C287 C 0.65964 0.23169 0.72690
 C288 C 0.62937 0.23123 0.69452
 C289 C 0.64033 0.22954 0.65010
 C290 C 0.68169 0.22771 0.63818
 C291 C 0.71201 0.22812 0.67055
 C292 C 0.72873 0.21220 0.82946
 C293 C 0.72838 0.18200 0.86204
 C294 C 0.72992 0.14058 0.85037
 C295 C 0.73127 0.12946 0.80600
 C296 C 0.73168 0.15960 0.77342
 C297 C 0.82192 0.22891 0.78810
 C298 C 0.85282 0.22973 0.81981
 C299 C 0.85827 0.26457 0.84589
 C300 C 0.83299 0.29873 0.83991
 C301 C 0.80208 0.29793 0.80828
 C302 C 0.79801 0.30163 0.69052
 C303 C 0.79882 0.33249 0.65878
 C304 C 0.76472 0.35785 0.65282
 C305 C 0.72989 0.35247 0.67903
 C306 C 0.72906 0.32161 0.71086
 H307 H 0.65072 0.23353 0.76112
 H308 H 0.59746 0.23250 0.70410
 H309 H 0.69049 0.22616 0.60390
 H310 H 0.74388 0.22667 0.66088
 H311 H 0.72748 0.24411 0.83895
 H312 H 0.72708 0.19094 0.89627
 H313 H 0.73325 0.15053 0.73924
 H314 H 0.81813 0.20186 0.76800
 H315 H 0.87235 0.20320 0.82407
 H316 H 0.83702 0.32586 0.85987
 H317 H 0.78251 0.32446 0.80428
 H318 H 0.82451 0.28204 0.69452
 H319 H 0.82594 0.33645 0.63874
 H320 H 0.70341 0.37206 0.67481
 H321 H 0.70203 0.31794 0.73109
 H322 H 0.73233 0.09750 0.79660
 C323 C 0.23607 0.73624 0.75058
 C324 C 0.26548 0.76582 0.75053
 C325 C 0.29926 0.76575 0.71783
 C326 C 0.26530 0.79963 0.78319
 C327 C 0.20447 0.73398 0.78558
 C328 C 0.23392 0.70456 0.71567
 C329 C 0.32476 0.73138 0.71272
 C330 C 0.35546 0.73121 0.68071
 C331 C 0.36127 0.76550 0.65381
 C332 C 0.33660 0.80017 0.65946
 C333 C 0.30587 0.80037 0.69142
 C334 C 0.29997 0.80649 0.80938
 C335 C 0.29974 0.83731 0.84121
 C336 C 0.26497 0.86182 0.84696
 C337 C 0.23060 0.85575 0.82030
 C338 C 0.23082 0.82496 0.78842
 C339 C 0.16285 0.73385 0.77414
 C340 C 0.13277 0.73240 0.80673
 C341 C 0.14399 0.73072 0.85105
 C342 C 0.18544 0.73006 0.86268
 C343 C 0.21557 0.73146 0.83010
 C344 C 0.23140 0.71556 0.67111
 C345 C 0.22994 0.68536 0.63864
 C346 C 0.23055 0.64392 0.65043
 C347 C 0.23229 0.63280 0.69480
 C348 C 0.23380 0.66296 0.72726
 H349 H 0.32064 0.70466 0.73331
 H350 H 0.37454 0.70431 0.67681
 H351 H 0.34093 0.82693 0.63895
 H352 H 0.28669 0.82722 0.69502
 H353 H 0.32693 0.78746 0.80570
 H354 H 0.32656 0.84183 0.86152
 H355 H 0.20404 0.82067 0.76800
 H356 H 0.15371 0.73552 0.74000
 H357 H 0.10078 0.73285 0.79739
 H358 H 0.19444 0.72859 0.89689
 H359 H 0.24751 0.73073 0.83954
 H360 H 0.23066 0.74748 0.66154
 H361 H 0.22843 0.69429 0.60441
 H362 H 0.23270 0.60084 0.70428
 H363 H 0.23546 0.65387 0.76144
 H364 H 0.20362 0.87470 0.82427
 C365 C 0.26027 0.23787 0.74947
 C366 C 0.23091 0.26758 0.74954
 C367 C 0.22880 0.29923 0.71455
 C368 C 0.19940 0.26984 0.78466
 C369 C 0.26056 0.20446 0.78257
 C370 C 0.29374 0.23726 0.71645
 C371 C 0.22922 0.34084 0.72599
 C372 C 0.22850 0.37098 0.69340
 C373 C 0.22702 0.35984 0.64904
 C374 C 0.22569 0.31841 0.63740
 C375 C 0.22636 0.28822 0.66999
 C376 C 0.21061 0.27234 0.82915
 C377 C 0.18058 0.27279 0.86190
 C378 C 0.13911 0.27117 0.85049
 C379 C 0.12777 0.26970 0.80618
 C380 C 0.15774 0.26921 0.77342
 C381 C 0.22646 0.17881 0.78821
 C382 C 0.22696 0.14808 0.82019
 C383 C 0.26166 0.14245 0.84649
 C384 C 0.29600 0.16737 0.84040
 C385 C 0.29552 0.19811 0.80849
 C386 C 0.30009 0.20208 0.69086
 C387 C 0.33113 0.20117 0.65930
 C388 C 0.35636 0.23528 0.65324
 C389 C 0.35069 0.27022 0.67917
 C390 C 0.31966 0.27116 0.71080
 H391 H 0.23086 0.34994 0.76015
 H392 H 0.22943 0.40294 0.70278
 H393 H 0.22433 0.30945 0.60318
 H394 H 0.22523 0.25631 0.66052
 H395 H 0.24256 0.27359 0.83845
 H396 H 0.18970 0.27416 0.89608
 H397 H 0.14851 0.26750 0.73931
 H398 H 0.19949 0.18274 0.76798
 H399 H 0.20029 0.12882 0.82450
 H400 H 0.32304 0.16319 0.86049
 H401 H 0.32219 0.21741 0.80445
 H402 H 0.28060 0.17556 0.69494
 H403 H 0.33531 0.17396 0.63948
 H404 H 0.37017 0.29672 0.67487
 H405 H 0.31577 0.29828 0.73080
 H406 H 0.09577 0.26858 0.79698
 C407 C 0.73932 0.76114 0.75130
 C408 C 0.76919 0.73195 0.75125
 C409 C 0.77158 0.70049 0.71618
 C410 C 0.80091 0.72999 0.78618
 C411 C 0.73859 0.79459 0.78422
 C412 C 0.70588 0.76129 0.71825
 C413 C 0.77092 0.65883 0.72744
 C414 C 0.77133 0.62891 0.69468
 C415 C 0.77274 0.64034 0.65038
 C416 C 0.77444 0.68182 0.63895
 C417 C 0.77408 0.71178 0.67169
 C418 C 0.78998 0.72756 0.83078
 C419 C 0.82022 0.72690 0.86327
 C420 C 0.86165 0.72822 0.85150
 C421 C 0.87270 0.72972 0.80709
 C422 C 0.84251 0.73043 0.77460
 C423 C 0.77235 0.82069 0.78966
 C424 C 0.77134 0.85167 0.82128
 C425 C 0.73645 0.85709 0.84739
 C426 C 0.70245 0.83169 0.84152
 C427 C 0.70344 0.80070 0.80998
 C428 C 0.69927 0.79628 0.69239
 C429 C 0.66841 0.79669 0.66066
 C430 C 0.64362 0.76226 0.65466
 C431 C 0.64954 0.72750 0.68086
 C432 C 0.68039 0.72706 0.71268
 H433 H 0.76921 0.64955 0.76156
 H434 H 0.77015 0.59690 0.70388
 H435 H 0.77577 0.69098 0.60477
 H436 H 0.77534 0.74375 0.66240
 H437 H 0.75809 0.72641 0.84038
 H438 H 0.81132 0.72553 0.89752
 H439 H 0.85156 0.73205 0.74041
 H440 H 0.79943 0.81696 0.76953
 H441 H 0.79774 0.87129 0.82544
 H442 H 0.67528 0.83570 0.86149
 H443 H 0.67703 0.78106 0.80605
 H444 H 0.71843 0.82303 0.69638
 H445 H 0.66403 0.82378 0.64065
 H446 H 0.63039 0.70076 0.67664
 H447 H 0.68450 0.70006 0.73286
 H448 H 0.90465 0.73063 0.79759
 C449 C 0.26640 0.08794 0.08584
 C450 C 0.26672 0.11410 0.11377
 C451 C 0.77112 0.58338 0.58881
 C452 C 0.77195 0.60946 0.61675
 C453 C 0.73318 0.91319 0.08787
 C454 C 0.73330 0.88701 0.11581
 C455 C 0.22792 0.41725 0.58773
 C456 C 0.22736 0.39098 0.61556
 C457 C 0.91194 0.26678 0.08818
 C458 C 0.88559 0.26657 0.11592
 C459 C 0.41830 0.76505 0.59208
 C460 C 0.39235 0.76512 0.62027
 C461 C 0.08879 0.73334 0.08905
 C462 C 0.11526 0.73404 0.11662
 C463 C 0.58272 0.23046 0.58919
 C464 C 0.60908 0.22999 0.61684
 C465 C 0.73095 0.08308 0.91157
 C466 C 0.73041 0.10942 0.88381
 C467 C 0.23251 0.58845 0.40932
 C468 C 0.23320 0.61502 0.38184
 C469 C 0.26450 0.91911 0.90838
 C470 C 0.26458 0.89305 0.88034
 C471 C 0.76697 0.41240 0.41065
 C472 C 0.76669 0.38605 0.38298
 C473 C 0.08195 0.26996 0.91203
 C474 C 0.10814 0.27060 0.88412
 C475 C 0.58846 0.76735 0.41239
 C476 C 0.61469 0.76777 0.38452
 C477 C 0.91919 0.72899 0.91262
 C478 C 0.89286 0.72849 0.88488
 C479 C 0.41165 0.23190 0.41103
 C480 C 0.38557 0.23186 0.38306
 C481 C 0.73486 0.91433 0.90861
 C482 C 0.73561 0.88838 0.88054
 C483 C 0.23200 0.41943 0.40666
 C484 C 0.23240 0.39345 0.37855
 C485 C 0.26263 0.08553 0.90825
 C486 C 0.26205 0.11136 0.87997
 C487 C 0.76896 0.58119 0.40776
 C488 C 0.76895 0.60719 0.37967
 C489 C 0.08683 0.73021 0.91253
 C490 C 0.11293 0.73023 0.88454
 C491 C 0.57991 0.23150 0.40830
 C492 C 0.60577 0.23155 0.38006
 C493 C 0.91530 0.26585 0.90733
 C494 C 0.88945 0.26522 0.87916
 C495 C 0.42018 0.76776 0.40966
 C496 C 0.39465 0.76831 0.38107
 C497 C 0.26720 0.92144 0.09067
 C498 C 0.26778 0.89590 0.11928
 C499 C 0.76615 0.41504 0.59140
 C500 C 0.76545 0.38910 0.61954
 C501 C 0.73185 0.07977 0.09256
 C502 C 0.73177 0.10556 0.12080
 C503 C 0.22970 0.58659 0.58918
 C504 C 0.22989 0.61276 0.61705
 C505 C 0.92149 0.73310 0.09351
 C506 C 0.89544 0.73352 0.12154
 C507 C 0.41381 0.23381 0.59206
 C508 C 0.38776 0.23449 0.62010
 C509 C 0.08056 0.26834 0.09142
 C510 C 0.10640 0.26829 0.11961
 C511 C 0.58638 0.76321 0.59329
 C512 C 0.61235 0.76263 0.62139
   
