data_POSCAR
  _audit_creation_date              2014-09-24
  _audit_creation_method            'ToBaCCo'
  _symmetry_space_group_name_H-M    'P1'
  _symmetry_Int_Tables_number       1
  _symmetry_cell_setting            triclinic
  loop_
  _symmetry_equiv_pos_as_xyz
 x,y,z
_cell_length_a 53.0861
_cell_length_b 53.0743
_cell_length_c 30.7683
_cell_angle_alpha 89.984300
_cell_angle_beta 90.012900
_cell_angle_gamma 119.929300
loop_
  _atom_site_label
  _atom_site_type_symbol
  _atom_site_fract_x
  _atom_site_fract_y
  _atom_site_fract_z
C1 C 0.53056 1.08782 0.52314
 C2 C 0.52980 1.08803 0.47863
 C3 C 0.52632 1.06158 0.46481
 N4 N 0.52442 1.04505 0.49950
 C5 C 0.52702 1.06110 0.53512
 C6 C 0.52566 1.05318 0.42088
 C7 C 0.51519 1.02366 0.40948
 C8 C 0.52142 1.01432 0.37090
 C9 C 0.50585 0.98448 0.37126
 C10 C 0.49086 0.97633 0.41030
 N11 N 0.49676 1.00029 0.43359
 C12 C 0.47106 0.94731 0.42221
 C13 C 0.46250 0.93865 0.46557
 C14 C 0.44137 0.91108 0.47838
 C15 C 0.44194 0.91082 0.52294
 C16 C 0.46317 0.93843 0.53602
 N17 N 0.47582 0.95524 0.50072
 C18 C 0.47302 0.94683 0.57932
 C19 C 0.49378 0.97594 0.59069
 C20 C 0.50744 0.98490 0.63087
 C21 C 0.52299 1.01475 0.63032
 C22 C 0.51818 1.02340 0.59019
 N23 N 0.50047 0.99971 0.56624
 C24 C 0.52765 1.05249 0.57831
 H25 H 0.53308 1.10523 0.54429
 H26 H 0.53135 1.10558 0.45880
 H27 H 0.49046 1.00005 0.53741
 H28 H 0.53574 1.02760 0.34509
 H29 H 0.50567 0.97038 0.34570
 H30 H 0.42752 0.89280 0.45780
 H31 H 0.42878 0.89205 0.54304
 H32 H 0.53562 1.02852 0.65706
 H33 H 0.48632 1.00071 0.46200
 H34 H 0.50572 0.97163 0.65860
 C35 C 0.08777 0.53051 0.47657
 C36 C 0.08799 0.52976 0.52108
 C37 C 0.06156 0.52629 0.53493
 N38 N 0.04501 0.52437 0.50026
 C39 C 0.06104 0.52697 0.46462
 C40 C 0.05319 0.52565 0.57887
 C41 C 0.02369 0.51519 0.59031
 C42 C 0.01437 0.52146 0.62890
 C43 C -0.01545 0.50591 0.62857
 C44 C -0.02364 0.49091 0.58955
 N45 N 0.00030 0.49677 0.56623
 C46 C -0.05266 0.47113 0.57767
 C47 C -0.06135 0.46253 0.53433
 C48 C -0.08893 0.44141 0.52157
 C49 C -0.08921 0.44193 0.47701
 C50 C -0.06160 0.46313 0.46387
 N51 N -0.04478 0.47581 0.49915
 C52 C -0.05322 0.47294 0.42055
 C53 C -0.02413 0.49369 0.40913
 C54 C -0.01518 0.50732 0.36893
 C55 C 0.01466 0.52288 0.36944
 C56 C 0.02332 0.51810 0.40958
 N57 N -0.00035 0.50040 0.43356
 C58 C 0.05242 0.52758 0.42144
 H59 H 0.10516 0.53303 0.45540
 H60 H 0.10556 0.53132 0.54089
 H61 H -0.00000 0.49040 0.46241
 H62 H 0.02768 0.53578 0.65469
 H63 H -0.02953 0.50576 0.65414
 H64 H -0.10720 0.42760 0.54218
 H65 H -0.10799 0.42877 0.45694
 H66 H 0.02842 0.53548 0.34268
 H67 H 0.00070 0.48632 0.53782
 H68 H -0.02846 0.50557 0.34121
 C69 C 0.55993 0.47260 0.52181
 C70 C 0.55919 0.47199 0.47726
 C71 C 0.53545 0.47453 0.46514
 N72 N 0.52148 0.47642 0.50065
 C73 C 0.53625 0.47496 0.53542
 C74 C 0.52597 0.47344 0.42202
 C75 C 0.50577 0.48224 0.41061
 C76 C 0.49111 0.47630 0.37130
 C77 C 0.47611 0.49124 0.37138
 C78 C 0.48207 0.50586 0.41073
 N79 N 0.50000 0.50011 0.43456
 C80 C 0.47323 0.52600 0.42228
 C81 C 0.47439 0.53545 0.46543
 C82 C 0.47185 0.55918 0.47766
 C83 C 0.47256 0.55989 0.52221
 C84 C 0.47496 0.53621 0.53572
 N85 N 0.47637 0.52146 0.50088
 C86 C 0.47462 0.52760 0.57941
 C87 C 0.48388 0.50750 0.59028
 C88 C 0.47541 0.49019 0.62722
 C89 C 0.49033 0.47526 0.62714
 C90 C 0.50759 0.48378 0.59016
 N91 N 0.50311 0.50304 0.56734
 C92 C 0.52767 0.47453 0.57914
 H93 H 0.57614 0.47154 0.54181
 H94 H 0.57450 0.47012 0.45618
 H95 H 0.51479 0.51476 0.54013
 H96 H 0.49162 0.46305 0.34497
 H97 H 0.46281 0.49175 0.34511
 H98 H 0.46993 0.57450 0.45665
 H99 H 0.47153 0.57609 0.54228
 H100 H 0.48854 0.45973 0.65150
 H101 H 0.51062 0.51070 0.46300
 H102 H 0.45992 0.48838 0.65164
 O103 O 0.37577 0.66846 -0.05022
 O104 O 0.37689 0.71751 -0.03660
 C105 C 0.35874 0.72118 -0.05879
 O106 O 0.33170 0.70761 -0.05087
 O107 O 0.28271 0.65984 -0.03672
 C108 C 0.27901 0.63789 -0.05857
 O109 O 0.29263 0.62448 -0.05041
 O110 O 0.34046 0.62330 -0.03606
 C111 C 0.36237 0.64141 -0.05806
 O112 O 0.37704 0.66023 0.03621
 O113 O 0.37550 0.70794 0.04984
 C114 C 0.36193 0.72145 0.05762
 O115 O 0.34004 0.71759 0.03545
 O116 O 0.29239 0.66849 0.04962
 C117 C 0.27893 0.64148 0.05775
 O118 O 0.28279 0.62333 0.03590
 O119 O 0.33192 0.62479 0.05023
 C120 C 0.35894 0.63834 0.05828
 Cr121 Cr 0.37474 0.68775 -0.00020
 Cr122 Cr 0.31250 0.68761 -0.00062
 Cr123 Cr 0.31273 0.62554 -0.00010
 O124 O 0.33332 0.66696 -0.00030
 O125 O 0.62489 0.33216 -0.05031
 O126 O 0.62339 0.28297 -0.03625
 C127 C 0.64153 0.27911 -0.05811
 O128 O 0.66853 0.29255 -0.04995
 O129 O 0.71763 0.34018 -0.03567
 C130 C 0.72149 0.36211 -0.05775
 O131 O 0.70800 0.37569 -0.04989
 O132 O 0.66032 0.37725 -0.03609
 C133 C 0.63843 0.35920 -0.05820
 O134 O 0.62339 0.34053 0.03604
 O135 O 0.62451 0.29264 0.05012
 C136 C 0.63792 0.27900 0.05822
 O137 O 0.65987 0.28273 0.03636
 O138 O 0.70763 0.33170 0.05064
 C139 C 0.72122 0.35872 0.05864
 O140 O 0.71758 0.37692 0.03652
 O141 O 0.66855 0.37579 0.05029
 C142 C 0.64151 0.36238 0.05815
 Cr143 Cr 0.62561 0.31285 -0.00009
 Cr144 Cr 0.68764 0.31257 0.00034
 Cr145 Cr 0.68783 0.37485 0.00020
 O146 O 0.66702 0.33342 0.00015
 C147 C 0.47012 0.89603 -0.33464
 C148 C 0.44082 0.88260 -0.32256
 C149 C 0.42219 0.89034 -0.34331
 C150 C 0.43283 0.91154 -0.37586
 C151 C 0.46230 0.92535 -0.38797
 C152 C 0.48081 0.91724 -0.36719
 C153 C 0.42993 0.86103 -0.28867
 C154 C 0.42085 0.84308 -0.26012
 C155 C 0.41028 0.82218 -0.22654
 C156 C 0.40128 0.80443 -0.19771
 C157 C 0.39057 0.78335 -0.16313
 C158 C 0.36083 0.76788 -0.15373
 C159 C 0.35043 0.74760 -0.11987
 C160 C 0.36970 0.74255 -0.09488
 C161 C 0.39958 0.75817 -0.10474
 C162 C 0.40991 0.77843 -0.13862
 H163 H 0.48470 0.89013 -0.31890
 H164 H 0.39948 0.88008 -0.33419
 H165 H 0.41816 0.91746 -0.39129
 H166 H 0.50349 0.92720 -0.37641
 H167 H 0.34567 0.77153 -0.17250
 H168 H 0.32731 0.73596 -0.11324
 H169 H 0.41501 0.75481 -0.08625
 H170 H 0.43298 0.79030 -0.14563
 C171 C 0.09096 0.53124 -0.31583
 C172 C 0.11711 0.55728 -0.32163
 C173 C 0.12219 0.57287 -0.36038
 C174 C 0.10121 0.56248 -0.39324
 C175 C 0.07469 0.53622 -0.38795
 C176 C 0.06992 0.52079 -0.34860
 C177 C 0.13866 0.56806 -0.28772
 C178 C 0.15663 0.57704 -0.25921
 C179 C 0.17758 0.58751 -0.22570
 C180 C 0.19539 0.59640 -0.19697
 C181 C 0.21656 0.60696 -0.16251
 C182 C 0.22153 0.63137 -0.13839
 C183 C 0.24188 0.64149 -0.10465
 C184 C 0.25756 0.62729 -0.09454
 C185 C 0.25245 0.60281 -0.11913
 C186 C 0.23208 0.59274 -0.15286
 H187 H 0.08684 0.51894 -0.28599
 H188 H 0.14230 0.59317 -0.36509
 H189 H 0.10543 0.57544 -0.42239
 H190 H 0.05012 0.50026 -0.34352
 H191 H 0.20963 0.64254 -0.14560
 H192 H 0.24528 0.66040 -0.08646
 H193 H 0.26414 0.59138 -0.11230
 H194 H 0.22840 0.57382 -0.17133
 C195 C 0.42816 0.55067 -0.36030
 C196 C 0.44279 0.55937 -0.32054
 C197 C 0.46787 0.55753 -0.31385
 C198 C 0.47835 0.54708 -0.34679
 C199 C 0.46396 0.53834 -0.38723
 C200 C 0.43858 0.54022 -0.39334
 C201 C 0.43202 0.57011 -0.28654
 C202 C 0.42305 0.57911 -0.25800
 C203 C 0.41261 0.58964 -0.22451
 C204 C 0.40374 0.59864 -0.19584
 C205 C 0.39323 0.60940 -0.16149
 C206 C 0.40743 0.63916 -0.15217
 C207 C 0.39738 0.64961 -0.11861
 C208 C 0.37296 0.63039 -0.09384
 C209 C 0.35879 0.60049 -0.10361
 C210 C 0.36889 0.59010 -0.13719
 H211 H 0.40857 0.55178 -0.36569
 H212 H 0.47941 0.56427 -0.28320
 H213 H 0.49816 0.54646 -0.34095
 H214 H 0.42627 0.53284 -0.42327
 H215 H 0.42630 0.65428 -0.17079
 H216 H 0.40879 0.67274 -0.11204
 H217 H 0.33991 0.58509 -0.08528
 H218 H 0.35773 0.56701 -0.14415
 C219 C 0.53086 0.09476 -0.32053
 C220 C 0.55977 0.11744 -0.32146
 C221 C 0.57814 0.11899 -0.35528
 C222 C 0.56769 0.09788 -0.38798
 C223 C 0.53874 0.07505 -0.38712
 C224 C 0.52038 0.07366 -0.35322
 C225 C 0.57059 0.13901 -0.28757
 C226 C 0.57962 0.15697 -0.25905
 C227 C 0.59014 0.17789 -0.22551
 C228 C 0.59911 0.19567 -0.19673
 C229 C 0.60978 0.21679 -0.16222
 C230 C 0.63950 0.23214 -0.15257
 C231 C 0.64987 0.25246 -0.11879
 C232 C 0.63060 0.25770 -0.09413
 C233 C 0.60075 0.24219 -0.10423
 C234 C 0.59045 0.22188 -0.13803
 H235 H 0.51647 0.09336 -0.29453
 H236 H 0.60054 0.13643 -0.35629
 H237 H 0.58214 0.09923 -0.41386
 H238 H 0.49798 0.05623 -0.35217
 H239 H 0.65465 0.22835 -0.17110
 H240 H 0.67296 0.26401 -0.11196
 H241 H 0.58532 0.24569 -0.08599
 H242 H 0.56740 0.21011 -0.14523
 C243 C 0.90497 0.43280 -0.32098
 C244 C 0.88283 0.43986 -0.32151
 C245 C 0.88169 0.45707 -0.35512
 C246 C 0.90261 0.46719 -0.38807
 C247 C 0.92481 0.46010 -0.38773
 C248 C 0.92589 0.44289 -0.35392
 C249 C 0.86141 0.42959 -0.28743
 C250 C 0.84354 0.42101 -0.25878
 C251 C 0.82271 0.41097 -0.22513
 C252 C 0.80499 0.40241 -0.19628
 C253 C 0.78391 0.39221 -0.16171
 C254 C 0.76858 0.40667 -0.15233
 C255 C 0.74824 0.39688 -0.11857
 C256 C 0.74298 0.37246 -0.09367
 C257 C 0.75848 0.35804 -0.10348
 C258 C 0.77880 0.36788 -0.13725
 H259 H 0.90608 0.41955 -0.29509
 H260 H 0.86470 0.46272 -0.35578
 H261 H 0.90162 0.48063 -0.41374
 H262 H 0.94293 0.43732 -0.35312
 H263 H 0.77237 0.42553 -0.17108
 H264 H 0.73669 0.40848 -0.11198
 H265 H 0.75496 0.33917 -0.08505
 H266 H 0.79055 0.35652 -0.14425
 C267 C 0.55756 0.46744 -0.31425
 C268 C 0.55933 0.44233 -0.32111
 C269 C 0.55064 0.42782 -0.36096
 C270 C 0.54025 0.43838 -0.39391
 C271 C 0.53842 0.46377 -0.38762
 C272 C 0.54717 0.47805 -0.34710
 C273 C 0.56992 0.43137 -0.28715
 C274 C 0.57874 0.42220 -0.25863
 C275 C 0.58902 0.41149 -0.22514
 C276 C 0.59775 0.40237 -0.19644
 C277 C 0.60812 0.39150 -0.16203
 C278 C 0.59377 0.36173 -0.15271
 C279 C 0.60365 0.35118 -0.11903
 C280 C 0.62805 0.37032 -0.09415
 C281 C 0.64238 0.40022 -0.10393
 C282 C 0.63245 0.41070 -0.13763
 H283 H 0.56430 0.47888 -0.28353
 H284 H 0.55170 0.40821 -0.36648
 H285 H 0.53287 0.42616 -0.42391
 H286 H 0.54659 0.49787 -0.34112
 H287 H 0.57491 0.34668 -0.17141
 H288 H 0.59212 0.32805 -0.11245
 H289 H 0.66124 0.41556 -0.08551
 H290 H 0.64372 0.43380 -0.14458
 C291 C 0.89596 0.46995 0.33451
 C292 C 0.88253 0.44063 0.32249
 C293 C 0.89027 0.42202 0.34329
 C294 C 0.91148 0.43269 0.37583
 C295 C 0.92528 0.46219 0.38787
 C296 C 0.91717 0.48068 0.36704
 C297 C 0.86096 0.42971 0.28860
 C298 C 0.84302 0.42062 0.26006
 C299 C 0.82213 0.41005 0.22647
 C300 C 0.80440 0.40106 0.19763
 C301 C 0.78334 0.39040 0.16303
 C302 C 0.76786 0.36066 0.15354
 C303 C 0.74761 0.35031 0.11966
 C304 C 0.74257 0.36963 0.09474
 C305 C 0.75820 0.39950 0.10468
 C306 C 0.77844 0.40978 0.13858
 H307 H 0.89005 0.48452 0.31873
 H308 H 0.88002 0.39929 0.33422
 H309 H 0.91740 0.41803 0.39130
 H310 H 0.92713 0.50337 0.37621
 H311 H 0.77150 0.34547 0.17227
 H312 H 0.73596 0.32720 0.11296
 H313 H 0.75485 0.41496 0.08625
 H314 H 0.79030 0.43285 0.14566
 C315 C 0.57290 0.12215 0.36004
 C316 C 0.55731 0.11706 0.32130
 C317 C 0.53126 0.09091 0.31552
 C318 C 0.52081 0.06989 0.34832
 C319 C 0.53624 0.07467 0.38767
 C320 C 0.56251 0.10119 0.39293
 C321 C 0.56810 0.13860 0.28735
 C322 C 0.57708 0.15656 0.25882
 C323 C 0.58755 0.17750 0.22529
 C324 C 0.59644 0.19530 0.19654
 C325 C 0.60698 0.21647 0.16208
 C326 C 0.59277 0.23201 0.15246
 C327 C 0.60284 0.25240 0.11876
 C328 C 0.62730 0.25751 0.09414
 C329 C 0.64149 0.24181 0.10420
 C330 C 0.63137 0.22144 0.13793
 H331 H 0.59320 0.14226 0.36473
 H332 H 0.51896 0.08678 0.28569
 H333 H 0.50028 0.05009 0.34327
 H334 H 0.57546 0.10542 0.42208
 H335 H 0.57386 0.22833 0.17096
 H336 H 0.59141 0.26410 0.11196
 H337 H 0.66039 0.24522 0.08599
 H338 H 0.64254 0.20953 0.14511
 C339 C 0.56376 0.47019 0.31941
 C340 C 0.55915 0.44183 0.32146
 C341 C 0.54378 0.42383 0.35648
 C342 C 0.53302 0.43412 0.38928
 C343 C 0.53755 0.46253 0.38734
 C344 C 0.55303 0.48051 0.35219
 C345 C 0.57005 0.43119 0.28752
 C346 C 0.57914 0.42233 0.25897
 C347 C 0.58975 0.41202 0.22540
 C348 C 0.59878 0.40327 0.19662
 C349 C 0.60953 0.39288 0.16211
 C350 C 0.59024 0.36861 0.13767
 C351 C 0.60061 0.35864 0.10390
 C352 C 0.63050 0.37285 0.09409
 C353 C 0.64973 0.39720 0.11899
 C354 C 0.63928 0.40712 0.15274
 H355 H 0.57563 0.48430 0.29246
 H356 H 0.54006 0.40185 0.35836
 H357 H 0.52105 0.41994 0.41608
 H358 H 0.55679 0.50250 0.35026
 H359 H 0.56716 0.35742 0.14465
 H360 H 0.58521 0.33982 0.08547
 H361 H 0.67285 0.40864 0.11239
 H362 H 0.65441 0.42594 0.17147
 C363 C 0.11882 0.57810 0.35490
 C364 C 0.11730 0.55970 0.32114
 C365 C 0.09467 0.53077 0.32028
 C366 C 0.07359 0.52028 0.35300
 C367 C 0.07495 0.53867 0.38685
 C368 C 0.09774 0.56764 0.38763
 C369 C 0.13884 0.57053 0.28721
 C370 C 0.15679 0.57956 0.25867
 C371 C 0.17769 0.59009 0.22510
 C372 C 0.19545 0.59906 0.19631
 C373 C 0.21656 0.60973 0.16179
 C374 C 0.22165 0.59039 0.13760
 C375 C 0.24197 0.60069 0.10381
 C376 C 0.25748 0.63055 0.09372
 C377 C 0.25225 0.64982 0.11837
 C378 C 0.23192 0.63945 0.15214
 H379 H 0.13623 0.60052 0.35586
 H380 H 0.09329 0.51635 0.29432
 H381 H 0.05620 0.49786 0.35200
 H382 H 0.09907 0.58211 0.41348
 H383 H 0.20988 0.56733 0.14480
 H384 H 0.24547 0.58526 0.08558
 H385 H 0.26381 0.67292 0.11156
 H386 H 0.22814 0.65461 0.17067
 C387 C 0.45678 0.88157 0.35503
 C388 C 0.43963 0.88278 0.32140
 C389 C 0.43267 0.90499 0.32086
 C390 C 0.44281 0.92592 0.35379
 C391 C 0.45996 0.92478 0.38762
 C392 C 0.46695 0.90250 0.38798
 C393 C 0.42931 0.86136 0.28732
 C394 C 0.42070 0.84349 0.25867
 C395 C 0.41065 0.82266 0.22500
 C396 C 0.40210 0.80494 0.19615
 C397 C 0.39192 0.78386 0.16158
 C398 C 0.36764 0.77878 0.13703
 C399 C 0.35784 0.75846 0.10325
 C400 C 0.37224 0.74293 0.09353
 C401 C 0.39661 0.74817 0.11853
 C402 C 0.40636 0.76850 0.15229
 H403 H 0.46235 0.86452 0.35570
 H404 H 0.41946 0.90616 0.29495
 H405 H 0.43732 0.94302 0.35299
 H406 H 0.48035 0.90145 0.41366
 H407 H 0.35630 0.79056 0.14396
 H408 H 0.33901 0.75496 0.08475
 H409 H 0.40820 0.73659 0.11201
 H410 H 0.42518 0.77227 0.17111
 C411 C 0.46954 0.56370 0.31979
 C412 C 0.44115 0.55895 0.32202
 C413 C 0.42328 0.54357 0.35714
 C414 C 0.43373 0.53290 0.38986
 C415 C 0.46217 0.53754 0.38773
 C416 C 0.48002 0.55306 0.35250
 C417 C 0.43030 0.56968 0.28811
 C418 C 0.42124 0.57859 0.25956
 C419 C 0.41066 0.58894 0.22599
 C420 C 0.40164 0.59770 0.19718
 C421 C 0.39090 0.60807 0.16262
 C422 C 0.36116 0.59373 0.15309
 C423 C 0.35073 0.60359 0.11924
 C424 C 0.36994 0.62797 0.09438
 C425 C 0.39981 0.64230 0.10436
 C426 C 0.41018 0.63239 0.13824
 H427 H 0.48354 0.57557 0.29276
 H428 H 0.40127 0.53975 0.35916
 H429 H 0.41965 0.52090 0.41674
 H430 H 0.50203 0.55690 0.35042
 H431 H 0.34605 0.57487 0.17177
 H432 H 0.32762 0.59206 0.11251
 H433 H 0.41520 0.66115 0.08597
 H434 H 0.43324 0.64365 0.14534
   
