data_POSCAR
  _audit_creation_date              2014-09-24
  _audit_creation_method            'ToBaCCo'
  _symmetry_space_group_name_H-M    'P1'
  _symmetry_Int_Tables_number       1
  _symmetry_cell_setting            triclinic
  loop_
  _symmetry_equiv_pos_as_xyz
 x,y,z
_cell_length_a 35.5661
_cell_length_b 35.3701
_cell_length_c 35.2557
_cell_angle_alpha 90.086300
_cell_angle_beta 86.810800
_cell_angle_gamma 82.497200
loop_
  _atom_site_label
  _atom_site_type_symbol
  _atom_site_fract_x
  _atom_site_fract_y
  _atom_site_fract_z
N1 N 0.29122 0.24095 0.26153
 N2 N 0.71558 -0.25868 0.22834
 N3 N 0.78518 0.23630 0.73247
 N4 N 0.22173 -0.26853 0.75554
 N5 N 0.71623 -0.26418 0.73128
 N6 N 0.28404 0.24455 0.75411
 N7 N 0.22661 -0.26635 0.26387
 N8 N 0.78629 0.22908 0.21934
 O9 O 0.22254 0.02375 0.47479
 O10 O 0.23231 -0.05059 0.54765
 O11 O 0.22159 0.02360 0.54865
 O12 O 0.23319 -0.05030 0.47396
 O13 O 0.29522 -0.04969 0.47127
 O14 O 0.28356 0.02454 0.54596
 O15 O 0.29431 -0.04989 0.54501
 O16 O 0.28454 0.02454 0.47200
 Cu17 Cu 0.22119 -0.01343 0.51156
 Cu18 Cu 0.29563 -0.01249 0.50833
 C19 C 0.25186 0.03682 0.46081
 C20 C 0.26496 -0.06314 0.55868
 C21 C 0.25056 0.03679 0.56009
 C22 C 0.26614 -0.06273 0.45985
 O23 O 0.77847 0.02507 0.51620
 O24 O 0.78807 -0.04927 0.44166
 O25 O 0.77844 0.02485 0.44232
 O26 O 0.78804 -0.04924 0.51583
 O27 O 0.72596 -0.04937 0.51914
 O28 O 0.71632 0.02494 0.44597
 O29 O 0.72597 -0.04927 0.44519
 O30 O 0.71637 0.02502 0.51964
 Cu31 Cu 0.78948 -0.01222 0.47870
 Cu32 Cu 0.71495 -0.01223 0.48288
 C33 C 0.74572 0.03791 0.53057
 C34 C 0.75864 -0.06183 0.43047
 C35 C 0.74570 0.03762 0.43158
 C36 C 0.75863 -0.06197 0.53012
 O37 O 0.49083 0.27592 0.03068
 O38 O 0.56341 0.27482 -0.04809
 O39 O 0.56429 0.27378 0.02568
 O40 O 0.48983 0.27660 -0.04307
 O41 O 0.48320 0.33947 -0.04202
 O42 O 0.55772 0.33665 0.02680
 O43 O 0.55663 0.33769 -0.04706
 O44 O 0.48430 0.33879 0.03188
 Cu45 Cu 0.52773 0.26898 -0.00885
 Cu46 Cu 0.51979 0.34445 -0.00750
 C47 C 0.47525 0.30754 0.04489
 C48 C 0.57243 0.30609 -0.06110
 C49 C 0.57371 0.30474 0.03811
 C50 C 0.47379 0.30847 -0.05438
 O51 O 0.48949 0.83613 0.02866
 O52 O 0.41613 0.83413 -0.04064
 O53 O 0.41637 0.83456 0.03302
 O54 O 0.48947 0.83518 -0.04514
 O55 O 0.49856 0.77230 -0.04529
 O56 O 0.42565 0.77168 0.03298
 O57 O 0.42529 0.77125 -0.04076
 O58 O 0.49869 0.77325 0.02867
 Cu59 Cu 0.45196 0.84129 -0.00606
 Cu60 Cu 0.46302 0.76582 -0.00614
 C61 C 0.50663 0.80503 0.04060
 C62 C 0.40798 0.80240 -0.05244
 C63 C 0.40846 0.80301 0.04636
 C64 C 0.50659 0.80383 -0.05858
 O65 O 0.03726 0.44999 0.20517
 O66 O -0.04532 0.52389 0.22070
 O67 O 0.02716 0.52411 0.20576
 O68 O -0.03515 0.44941 0.21960
 O69 O -0.02663 0.44946 0.28109
 O70 O 0.03596 0.52402 0.26719
 O71 O -0.03664 0.52360 0.28217
 O72 O 0.04593 0.45000 0.26663
 Cu73 Cu -0.00498 0.48688 0.20666
 Cu74 Cu 0.00552 0.48678 0.28043
 C75 C 0.05582 0.43743 0.23331
 C76 C -0.05513 0.53638 0.25410
 C77 C 0.04241 0.53673 0.23409
 C78 C -0.04153 0.43658 0.25265
 O79 O 0.02039 0.52639 0.84376
 O80 O -0.04237 0.45178 0.83972
 O81 O 0.03031 0.45235 0.84355
 O82 O -0.05242 0.52636 0.83963
 O83 O -0.04583 0.52579 0.77706
 O84 O 0.03702 0.45190 0.78097
 O85 O -0.03583 0.45129 0.77714
 O86 O 0.02717 0.52585 0.78118
 Cu87 Cu -0.01184 0.48929 0.84792
 Cu88 Cu -0.00380 0.48868 0.77281
 C89 C 0.03477 0.53871 0.81316
 C90 C -0.04964 0.43853 0.80781
 C91 C 0.04796 0.43958 0.81291
 C92 C -0.06320 0.53890 0.80771
 C93 C 0.32954 0.27496 0.21556
 C94 C 0.35543 0.27487 0.18405
 C95 C 0.36998 0.24000 0.16571
 C96 C 0.35811 0.20591 0.17902
 C97 C 0.33218 0.20630 0.21029
 C98 C 0.31778 0.24073 0.22896
 C99 C 0.39621 0.23975 0.13448
 C100 C 0.40804 0.27393 0.12129
 C101 C 0.39324 0.30883 0.13942
 C102 C 0.36706 0.30908 0.17070
 C103 C 0.40500 0.34292 0.12602
 C104 C 0.43138 0.34249 0.09511
 C105 C 0.44659 0.30795 0.07706
 C106 C 0.43461 0.27373 0.09030
 H107 H 0.31875 0.30159 0.22995
 H108 H 0.36884 0.17895 0.16523
 H109 H 0.32316 0.17968 0.21989
 H110 H 0.40747 0.21297 0.12052
 H111 H 0.35583 0.33584 0.18469
 H112 H 0.39390 0.36993 0.13953
 H113 H 0.44010 0.36926 0.08553
 H114 H 0.44600 0.24688 0.07661
 C115 C 0.66740 0.77500 0.18802
 C116 C 0.63854 0.77445 0.16251
 C117 C 0.62712 0.73925 0.15194
 C118 C 0.64452 0.70529 0.16731
 C119 C 0.67321 0.70611 0.19264
 C120 C 0.68503 0.74086 0.20307
 C121 C 0.59870 0.73851 0.12603
 C122 C 0.58153 0.77252 0.11048
 C123 C 0.59274 0.80774 0.12125
 C124 C 0.62116 0.80849 0.14719
 C125 C 0.57540 0.84165 0.10575
 C126 C 0.54733 0.84073 0.07969
 C127 C 0.53612 0.80587 0.06854
 C128 C 0.55339 0.77182 0.08421
 H129 H 0.67665 0.80183 0.19579
 H130 H 0.63606 0.67808 0.15962
 H131 H 0.68633 0.67957 0.20418
 H132 H 0.59007 0.71148 0.11785
 H133 H 0.62985 0.83551 0.15532
 H134 H 0.58359 0.86890 0.11371
 H135 H 0.53454 0.86738 0.06811
 H136 H 0.54496 0.74474 0.07598
 C137 C 0.73382 0.27060 -0.22550
 C138 C 0.70565 0.27084 -0.19602
 C139 C 0.69842 0.23611 -0.17906
 C140 C 0.71956 0.20178 -0.19189
 C141 C 0.74785 0.20187 -0.22100
 C142 C 0.75531 0.23621 -0.23800
 C143 C 0.67039 0.23628 -0.14943
 C144 C 0.64972 0.27078 -0.13631
 C145 C 0.65708 0.30550 -0.15320
 C146 C 0.68486 0.30530 -0.18305
 C147 C 0.63663 0.33993 -0.13980
 C148 C 0.60919 0.34005 -0.10987
 C149 C 0.60153 0.30573 -0.09286
 C150 C 0.62193 0.27113 -0.10638
 H151 H 0.73927 0.29715 -0.23872
 H152 H 0.71446 0.17491 -0.17918
 H153 H 0.76430 0.17513 -0.23005
 H154 H 0.66484 0.20963 -0.13643
 H155 H 0.69049 0.33195 -0.19598
 H156 H 0.64192 0.36679 -0.15240
 H157 H 0.59388 0.36710 -0.10009
 H158 H 0.61641 0.24445 -0.09348
 C159 C 0.25622 0.76587 -0.19929
 C160 C 0.28417 0.76622 -0.17281
 C161 C 0.30498 0.73152 -0.16189
 C162 C 0.29738 0.69707 -0.17765
 C163 C 0.26982 0.69704 -0.20440
 C164 C 0.24917 0.73140 -0.21567
 C165 C 0.33324 0.73185 -0.13570
 C166 C 0.34118 0.76650 -0.12058
 C167 C 0.32037 0.80118 -0.13161
 C168 C 0.29189 0.80081 -0.15749
 C169 C 0.32852 0.83574 -0.11669
 C170 C 0.35707 0.83605 -0.09111
 C171 C 0.37796 0.80179 -0.07983
 C172 C 0.36975 0.76704 -0.09472
 H173 H 0.24012 0.79246 -0.20749
 H174 H 0.31307 0.67020 -0.16965
 H175 H 0.26503 0.67019 -0.21681
 H176 H 0.34922 0.70522 -0.12733
 H177 H 0.27598 0.82744 -0.16596
 H178 H 0.31287 0.86257 -0.12486
 H179 H 0.36271 0.86321 -0.08007
 H180 H 0.38563 0.74040 -0.08631
 C181 C 0.23792 0.28332 0.23584
 C182 C 0.20667 0.31183 0.24099
 C183 C 0.19728 0.32846 0.27737
 C184 C 0.21946 0.31651 0.30786
 C185 C 0.25045 0.28811 0.30248
 C186 C 0.25985 0.27117 0.26656
 C187 C 0.16579 0.35657 0.28278
 C188 C 0.14348 0.36827 0.25230
 C189 C 0.15295 0.35184 0.21587
 C190 C 0.18450 0.32372 0.21043
 C191 C 0.13060 0.36376 0.18549
 C192 C 0.09908 0.39162 0.19114
 C193 C 0.08928 0.40800 0.22729
 C194 C 0.11175 0.39613 0.25775
 H195 H 0.24493 0.27009 0.20816
 H196 H 0.21273 0.32901 0.33589
 H197 H 0.26721 0.27923 0.32638
 H198 H 0.15856 0.36921 0.31072
 H199 H 0.19169 0.31102 0.18251
 H200 H 0.13745 0.35152 0.15737
 H201 H 0.08230 0.40023 0.16717
 H202 H 0.10462 0.40859 0.28576
 C203 C 0.17918 0.69015 0.78782
 C204 C 0.15464 0.66221 0.78650
 C205 C 0.14863 0.64547 0.75124
 C206 C 0.16744 0.65677 0.71801
 C207 C 0.19170 0.68466 0.71959
 C208 C 0.19765 0.70169 0.75438
 C209 C 0.12378 0.61789 0.74971
 C210 C 0.10478 0.60683 0.78297
 C211 C 0.11089 0.62343 0.81825
 C212 C 0.13578 0.65100 0.81980
 C213 C 0.09194 0.61217 0.85141
 C214 C 0.06717 0.58471 0.84971
 C215 C 0.06077 0.56807 0.81479
 C216 C 0.07974 0.57939 0.78148
 H217 H 0.18349 0.70346 0.81467
 H218 H 0.16324 0.64419 0.69077
 H219 H 0.20590 0.69309 0.69360
 H220 H 0.11915 0.60514 0.72264
 H221 H 0.14038 0.66380 0.84686
 H222 H 0.09629 0.62456 0.87870
 H223 H 0.05296 0.57654 0.87581
 H224 H 0.07521 0.56671 0.75436
 C225 C -0.23356 0.69521 0.25350
 C226 C -0.20128 0.66801 0.24772
 C227 C -0.18596 0.65927 0.21037
 C228 C -0.20288 0.67824 0.17953
 C229 C -0.23486 0.70539 0.18556
 C230 C -0.25062 0.71400 0.22249
 C231 C -0.15411 0.63165 0.20441
 C232 C -0.13724 0.61271 0.23533
 C233 C -0.15225 0.62177 0.27271
 C234 C -0.18423 0.64928 0.27866
 C235 C -0.13504 0.60307 0.30354
 C236 C -0.10335 0.57552 0.29744
 C237 C -0.08841 0.56597 0.26039
 C238 C -0.10556 0.58480 0.22943
 H239 H -0.24577 0.70150 0.28202
 H240 H -0.19144 0.67202 0.15074
 H241 H -0.24742 0.71979 0.16134
 H242 H -0.14252 0.62484 0.17573
 H243 H -0.19586 0.65606 0.30733
 H244 H -0.14611 0.60970 0.33237
 H245 H -0.09073 0.56145 0.32180
 H246 H -0.09420 0.57787 0.20072
 C247 C -0.17691 0.27705 0.76768
 C248 C -0.15380 0.30622 0.76870
 C249 C -0.14233 0.32333 0.73449
 C250 C -0.15435 0.31098 0.69988
 C251 C -0.17784 0.28227 0.69919
 C252 C -0.18944 0.26510 0.73303
 C253 C -0.11933 0.35265 0.73549
 C254 C -0.10799 0.36533 0.77031
 C255 C -0.11972 0.34833 0.80450
 C256 C -0.14236 0.31878 0.80346
 C257 C -0.10871 0.36127 0.83926
 C258 C -0.08621 0.39074 0.84024
 C259 C -0.07411 0.40776 0.80647
 C260 C -0.08517 0.39483 0.77152
 H261 H -0.18547 0.26375 0.79388
 H262 H -0.14594 0.32383 0.67338
 H263 H -0.18745 0.27377 0.67224
 H264 H -0.11047 0.36573 0.70924
 H265 H -0.15131 0.30575 0.82972
 H266 H -0.11750 0.34860 0.86572
 H267 H -0.07807 0.40004 0.86753
 H268 H -0.07613 0.40773 0.74527
 C269 C 0.26387 0.19505 0.30417
 C270 C 0.26780 0.16660 0.33183
 C271 C 0.30417 0.15354 0.34464
 C272 C 0.33596 0.16918 0.32949
 C273 C 0.33173 0.19768 0.30208
 C274 C 0.29571 0.21091 0.28926
 C275 C 0.30812 0.12522 0.37248
 C276 C 0.27615 0.10992 0.38776
 C277 C 0.23981 0.12303 0.37490
 C278 C 0.23588 0.15121 0.34697
 C279 C 0.20793 0.10777 0.39027
 C280 C 0.21192 0.07981 0.41818
 C281 C 0.24787 0.06652 0.43124
 C282 C 0.27992 0.08176 0.41579
 H283 H 0.23606 0.20498 0.29416
 H284 H 0.36403 0.15957 0.33901
 H285 H 0.35653 0.20981 0.29113
 H286 H 0.33601 0.11522 0.38234
 H287 H 0.20798 0.16127 0.33715
 H288 H 0.17988 0.11749 0.38073
 H289 H 0.18675 0.06857 0.42953
 H290 H 0.30782 0.07180 0.42559
 C291 C 0.75744 0.19581 0.68708
 C292 C 0.76143 0.16722 0.65898
 C293 C 0.79812 0.15036 0.64593
 C294 C 0.83015 0.16235 0.66134
 C295 C 0.82589 0.19059 0.68958
 C296 C 0.78956 0.20758 0.70274
 C297 C 0.80219 0.12170 0.61787
 C298 C 0.77001 0.10949 0.60289
 C299 C 0.73333 0.12625 0.61613
 C300 C 0.72928 0.15509 0.64396
 C301 C 0.70125 0.11380 0.60136
 C302 C 0.70537 0.08501 0.57372
 C303 C 0.74165 0.06820 0.56016
 C304 C 0.77391 0.08068 0.57494
 H305 H 0.72933 0.20897 0.69688
 H306 H 0.85849 0.14968 0.65177
 H307 H 0.85099 0.19896 0.70153
 H308 H 0.83034 0.10881 0.60783
 H309 H 0.70113 0.16794 0.65406
 H310 H 0.67294 0.12630 0.61121
 H311 H 0.68004 0.07604 0.56283
 H312 H 0.80206 0.06793 0.56483
 C313 C 0.25068 -0.22536 0.71076
 C314 C 0.24729 -0.19581 0.68419
 C315 C 0.21083 -0.17944 0.67404
 C316 C 0.17845 -0.19278 0.69078
 C317 C 0.18210 -0.22198 0.71744
 C318 C 0.21816 -0.23850 0.72771
 C319 C 0.20731 -0.14999 0.64739
 C320 C 0.23977 -0.13657 0.63086
 C321 C 0.27622 -0.15276 0.64118
 C322 C 0.27975 -0.18234 0.66771
 C323 C 0.30855 -0.13909 0.62471
 C324 C 0.30487 -0.10977 0.59813
 C325 C 0.26879 -0.09363 0.58745
 C326 C 0.23633 -0.10720 0.60410
 H327 H 0.27858 -0.23824 0.71832
 H328 H 0.15030 -0.18051 0.68341
 H329 H 0.15671 -0.23155 0.73039
 H330 H 0.17934 -0.13752 0.63955
 H331 H 0.30772 -0.19482 0.67556
 H332 H 0.33670 -0.15113 0.63232
 H333 H 0.33035 -0.09990 0.58575
 H334 H 0.20832 -0.09499 0.59620
 C335 C 0.74401 -0.21448 0.26951
 C336 C 0.74088 -0.18800 0.29958
 C337 C 0.70536 -0.17771 0.31944
 C338 C 0.67370 -0.19435 0.30910
 C339 C 0.67715 -0.22092 0.27937
 C340 C 0.71223 -0.23122 0.25920
 C341 C 0.70204 -0.15098 0.34928
 C342 C 0.73383 -0.13451 0.35965
 C343 C 0.76944 -0.14510 0.34005
 C344 C 0.77272 -0.17168 0.31008
 C345 C 0.80119 -0.12881 0.35071
 C346 C 0.79771 -0.10209 0.38034
 C347 C 0.76239 -0.09100 0.39980
 C348 C 0.73054 -0.10752 0.38930
 H349 H 0.77110 -0.22197 0.25392
 H350 H 0.64630 -0.18691 0.32410
 H351 H 0.65239 -0.23371 0.27220
 H352 H 0.67473 -0.14298 0.36438
 H353 H 0.80002 -0.17967 0.29495
 H354 H 0.82870 -0.13665 0.33605
 H355 H 0.82269 -0.08982 0.38777
 H356 H 0.70314 -0.09936 0.40411
 C357 C 0.66869 0.77029 -0.22270
 C358 C 0.63958 0.77036 -0.19411
 C359 C 0.62756 0.73548 -0.18218
 C360 C 0.64460 0.70122 -0.19931
 C361 C 0.67343 0.70145 -0.22783
 C362 C 0.68588 0.73587 -0.23965
 C363 C 0.59882 0.73537 -0.15329
 C364 C 0.58186 0.76970 -0.13617
 C365 C 0.59363 0.80460 -0.14832
 C366 C 0.62244 0.80472 -0.17717
 C367 C 0.57644 0.83885 -0.13130
 C368 C 0.54800 0.83856 -0.10235
 C369 C 0.53626 0.80403 -0.08977
 C370 C 0.55335 0.76965 -0.10699
 H371 H 0.67833 0.79690 -0.23158
 H372 H 0.63566 0.67425 -0.19063
 H373 H 0.68609 0.67469 -0.24081
 H374 H 0.58974 0.70858 -0.14407
 H375 H 0.63157 0.83150 -0.18636
 H376 H 0.58506 0.86586 -0.14029
 H377 H 0.53538 0.86546 -0.08962
 H378 H 0.54452 0.74280 -0.09769
 C379 C 0.32280 0.27831 -0.20429
 C380 C 0.34936 0.27790 -0.17625
 C381 C 0.36399 0.24287 -0.15999
 C382 C 0.35148 0.20898 -0.17172
 C383 C 0.32501 0.20967 -0.19957
 C384 C 0.31062 0.24421 -0.21630
 C385 C 0.39105 0.24223 -0.13247
 C386 C 0.40371 0.27616 -0.12097
 C387 C 0.38881 0.31123 -0.13691
 C388 C 0.36173 0.31189 -0.16445
 C389 C 0.40143 0.34507 -0.12517
 C390 C 0.42879 0.34419 -0.09812
 C391 C 0.44413 0.30944 -0.08237
 C392 C 0.43125 0.27550 -0.09390
 H393 H 0.31198 0.30501 -0.21724
 H394 H 0.36227 0.18192 -0.15945
 H395 H 0.31568 0.18317 -0.20814
 H396 H 0.40239 0.21532 -0.12017
 H397 H 0.35046 0.33878 -0.17683
 H398 H 0.39027 0.37222 -0.13702
 H399 H 0.43817 0.37075 -0.08977
 H400 H 0.44271 0.24850 -0.08190
 C401 C 0.26040 0.76785 0.21417
 C402 C 0.28779 0.76803 0.18399
 C403 C 0.30863 0.73328 0.17078
 C404 C 0.30167 0.69898 0.18801
 C405 C 0.27461 0.69911 0.21831
 C406 C 0.25383 0.73349 0.23181
 C407 C 0.33625 0.73341 0.14079
 C408 C 0.34348 0.76788 0.12402
 C409 C 0.32266 0.80262 0.13730
 C410 C 0.29485 0.80247 0.16709
 C411 C 0.33014 0.83702 0.12067
 C412 C 0.35804 0.83709 0.09119
 C413 C 0.37894 0.80275 0.07768
 C414 C 0.37138 0.76818 0.09428
 H415 H 0.24423 0.79445 0.22413
 H416 H 0.31742 0.67209 0.17830
 H417 H 0.27025 0.67235 0.23163
 H418 H 0.35224 0.70674 0.13067
 H419 H 0.27891 0.82914 0.17727
 H420 H 0.31446 0.86390 0.13050
 H421 H 0.36320 0.86411 0.07892
 H422 H 0.38729 0.74148 0.08420
 C423 C 0.73588 0.26478 0.18303
 C424 C 0.70725 0.26583 0.15711
 C425 C 0.69793 0.23137 0.14206
 C426 C 0.71742 0.19649 0.15327
 C427 C 0.74615 0.19575 0.17883
 C428 C 0.75574 0.22982 0.19384
 C429 C 0.66953 0.23236 0.11588
 C430 C 0.65051 0.26738 0.10435
 C431 C 0.65988 0.30181 0.11940
 C432 C 0.68808 0.30082 0.14578
 C433 C 0.64097 0.33673 0.10769
 C434 C 0.61306 0.33762 0.08124
 C435 C 0.60343 0.30361 0.06605
 C436 C 0.62234 0.26851 0.07786
 H437 H 0.74297 0.29115 0.19473
 H438 H 0.71071 0.16981 0.14198
 H439 H 0.76134 0.16856 0.18655
 H440 H 0.66241 0.20592 0.10431
 H441 H 0.69528 0.32725 0.15728
 H442 H 0.64781 0.36338 0.11893
 H443 H 0.59895 0.36503 0.07273
 H444 H 0.61525 0.24205 0.06639
 C445 C -0.23517 0.69637 0.76690
 C446 C -0.20391 0.66784 0.76810
 C447 C -0.18733 0.65044 0.73395
 C448 C -0.20243 0.66185 0.69924
 C449 C -0.23387 0.68997 0.69837
 C450 C -0.25059 0.70746 0.73213
 C451 C -0.15615 0.62179 0.73508
 C452 C -0.14155 0.61006 0.76997
 C453 C -0.15830 0.62734 0.80411
 C454 C -0.18923 0.65623 0.80294
 C455 C -0.14390 0.61535 0.83892
 C456 C -0.11318 0.58650 0.84001
 C457 C -0.09610 0.56917 0.80630
 C458 C -0.11051 0.58120 0.77130
 H459 H -0.24770 0.70991 0.79304
 H460 H -0.19018 0.64877 0.67280
 H461 H -0.24551 0.69777 0.67132
 H462 H -0.14341 0.60849 0.70888
 H463 H -0.20203 0.66948 0.82915
 H464 H -0.15643 0.62825 0.86535
 H465 H -0.10265 0.57789 0.86735
 H466 H -0.09771 0.56806 0.74507
 C467 C -0.17543 0.27512 0.24634
 C468 C -0.15058 0.30274 0.24163
 C469 C -0.13726 0.31191 0.20466
 C470 C -0.14854 0.29295 0.17313
 C471 C -0.17314 0.26546 0.17809
 C472 C -0.18705 0.25649 0.21462
 C473 C -0.11305 0.34000 0.19974
 C474 C -0.10188 0.35903 0.23132
 C475 C -0.11477 0.34954 0.26832
 C476 C -0.13911 0.32151 0.27325
 C477 C -0.10317 0.36836 0.29979
 C478 C -0.07917 0.39646 0.29469
 C479 C -0.06653 0.40645 0.25801
 C480 C -0.07802 0.38747 0.22643
 H481 H -0.18626 0.26849 0.27455
 H482 H -0.13847 0.29949 0.14463
 H483 H -0.18150 0.25115 0.15335
 H484 H -0.10304 0.34715 0.17136
 H485 H -0.14918 0.31441 0.30163
 H486 H -0.11269 0.36141 0.32836
 H487 H -0.07078 0.41063 0.31951
 H488 H -0.06830 0.39471 0.19799
 C489 C 0.23080 0.28652 0.78661
 C490 C 0.19920 0.31470 0.78548
 C491 C 0.18894 0.33103 0.75031
 C492 C 0.21059 0.31910 0.71698
 C493 C 0.24194 0.29103 0.71839
 C494 C 0.25224 0.27438 0.75309
 C495 C 0.15713 0.35886 0.74896
 C496 C 0.13539 0.37059 0.78232
 C497 C 0.14574 0.35444 0.81751
 C498 C 0.17757 0.32659 0.81888
 C499 C 0.12400 0.36640 0.85079
 C500 C 0.09227 0.39406 0.84926
 C501 C 0.08158 0.41022 0.81441
 C502 C 0.10339 0.39826 0.78101
 H503 H 0.23845 0.27354 0.81341
 H504 H 0.20321 0.33137 0.68982
 H505 H 0.25830 0.28222 0.69232
 H506 H 0.14924 0.37128 0.72196
 H507 H 0.18544 0.31413 0.84587
 H508 H 0.13153 0.35436 0.87801
 H509 H 0.07602 0.40272 0.87543
 H510 H 0.09559 0.41055 0.75395
 C511 C 0.18459 0.69083 0.23777
 C512 C 0.16069 0.66241 0.24274
 C513 C 0.15562 0.64613 0.27901
 C514 C 0.17471 0.65835 0.30955
 C515 C 0.19830 0.68672 0.30437
 C516 C 0.20331 0.70331 0.26858
 C517 C 0.13137 0.61811 0.28425
 C518 C 0.11200 0.60620 0.25373
 C519 C 0.11717 0.62232 0.21744
 C520 C 0.14150 0.65030 0.21216
 C521 C 0.09781 0.61023 0.18703
 C522 C 0.07352 0.58245 0.19248
 C523 C 0.06804 0.56630 0.22847
 C524 C 0.08747 0.57839 0.25900
 H525 H 0.18818 0.70381 0.21020
 H526 H 0.17123 0.64613 0.33749
 H527 H 0.21270 0.69589 0.32834
 H528 H 0.12745 0.60573 0.31209
 H529 H 0.14537 0.66275 0.18434
 H530 H 0.10144 0.62225 0.15902
 H531 H 0.05895 0.57368 0.16845
 H532 H 0.08364 0.56612 0.28688
 C533 C 0.74465 -0.21890 0.68829
 C534 C 0.74145 -0.19160 0.65936
 C535 C 0.70599 -0.18124 0.64339
 C536 C 0.67449 -0.19859 0.65638
 C537 C 0.67799 -0.22587 0.68498
 C538 C 0.71298 -0.23623 0.70132
 C539 C 0.70255 -0.15371 0.61475
 C540 C 0.73415 -0.13648 0.60171
 C541 C 0.76969 -0.14707 0.61742
 C542 C 0.77310 -0.17448 0.64620
 C543 C 0.80125 -0.13000 0.60408
 C544 C 0.79767 -0.10257 0.57556
 C545 C 0.76242 -0.09154 0.55992
 C546 C 0.73075 -0.10875 0.57319
 H547 H 0.77165 -0.22650 0.70095
 H548 H 0.64714 -0.19110 0.64437
 H549 H 0.65334 -0.23911 0.69434
 H550 H 0.67530 -0.14570 0.60263
 H551 H 0.80034 -0.18249 0.65834
 H552 H 0.82872 -0.13781 0.61574
 H553 H 0.82253 -0.08979 0.56593
 H554 H 0.70341 -0.10065 0.56132
 C555 C 0.25483 -0.22252 0.30542
 C556 C 0.25095 -0.19320 0.33276
 C557 C 0.21427 -0.17712 0.34671
 C558 C 0.18217 -0.19044 0.33291
 C559 C 0.18631 -0.21954 0.30564
 C560 C 0.22258 -0.23587 0.29170
 C561 C 0.21024 -0.14808 0.37430
 C562 C 0.24241 -0.13488 0.38814
 C563 C 0.27909 -0.15077 0.37406
 C564 C 0.28313 -0.17985 0.34646
 C565 C 0.31112 -0.13735 0.38794
 C566 C 0.30691 -0.10860 0.41565
 C567 C 0.27059 -0.09276 0.43005
 C568 C 0.23844 -0.10606 0.41600
 H569 H 0.28288 -0.23528 0.29499
 H570 H 0.15386 -0.17838 0.34322
 H571 H 0.16116 -0.22932 0.29520
 H572 H 0.18210 -0.13584 0.38505
 H573 H 0.31127 -0.19213 0.33574
 H574 H 0.33944 -0.14917 0.37744
 H575 H 0.33216 -0.09890 0.42596
 H576 H 0.21024 -0.09408 0.42676
 C577 C 0.75816 0.19047 0.26927
 C578 C 0.76198 0.16272 0.29770
 C579 C 0.79857 0.14538 0.30639
 C580 C 0.83066 0.15603 0.28639
 C581 C 0.82658 0.18344 0.25792
 C582 C 0.79037 0.20093 0.24905
 C583 C 0.80249 0.11761 0.33478
 C584 C 0.77026 0.10673 0.35443
 C585 C 0.73367 0.12395 0.34560
 C586 C 0.72976 0.15193 0.31742
 C587 C 0.70153 0.11277 0.36504
 C588 C 0.70552 0.08472 0.39290
 C589 C 0.74172 0.06743 0.40205
 C590 C 0.77403 0.07873 0.38267
 H591 H 0.73016 0.20405 0.26284
 H592 H 0.85892 0.14298 0.29259
 H593 H 0.85174 0.19082 0.24249
 H594 H 0.83057 0.10436 0.34145
 H595 H 0.70168 0.16514 0.31070
 H596 H 0.67328 0.12564 0.35862
 H597 H 0.68015 0.07664 0.40739
 H598 H 0.80213 0.06556 0.38932
 C599 C 0.25782 0.19799 0.71414
 C600 C 0.26253 0.16929 0.68614
 C601 C 0.29911 0.15710 0.66923
 C602 C 0.33031 0.17390 0.68061
 C603 C 0.32532 0.20255 0.70843
 C604 C 0.28911 0.21483 0.72542
 C605 C 0.30390 0.12841 0.64120
 C606 C 0.27255 0.11182 0.62981
 C607 C 0.23598 0.12406 0.64672
 C608 C 0.23121 0.15266 0.67481
 C609 C 0.20472 0.10753 0.63518
 C610 C 0.20954 0.07918 0.60708
 C611 C 0.24573 0.06672 0.59003
 C612 C 0.27718 0.08321 0.60166
 H613 H 0.22988 0.20719 0.72738
 H614 H 0.35853 0.16498 0.66791
 H615 H 0.34970 0.21542 0.71658
 H616 H 0.33196 0.11907 0.62824
 H617 H 0.20315 0.16203 0.68776
 H618 H 0.17650 0.11658 0.64783
 H619 H 0.18483 0.06699 0.59872
 H620 H 0.30524 0.07394 0.58873
   
