data_POSCAR
  _audit_creation_date              2014-09-24
  _audit_creation_method            'ToBaCCo'
  _symmetry_space_group_name_H-M    'P1'
  _symmetry_Int_Tables_number       1
  _symmetry_cell_setting            triclinic
  loop_
  _symmetry_equiv_pos_as_xyz
 x,y,z
_cell_length_a 35.4666
_cell_length_b 43.2853
_cell_length_c 40.8186
_cell_angle_alpha 89.739700
_cell_angle_beta 89.894300
_cell_angle_gamma 89.589200
loop_
  _atom_site_label
  _atom_site_type_symbol
  _atom_site_fract_x
  _atom_site_fract_y
  _atom_site_fract_z
C1 C 0.27154 0.28122 0.22258
 C2 C 0.25248 0.26533 0.24751
 C3 C 0.23625 0.28174 0.27353
 C4 C 0.23876 0.31409 0.27473
 C5 C 0.25854 0.32972 0.24988
 C6 C 0.27512 0.31347 0.22377
 C7 C 0.24989 0.23144 0.24643
 C8 C 0.27047 0.21328 0.26870
 C9 C 0.26939 0.18091 0.26697
 C10 C 0.24646 0.16697 0.24328
 C11 C 0.22517 0.18493 0.22116
 C12 C 0.22749 0.21727 0.22268
 H13 H 0.28446 0.26829 0.20279
 H14 H 0.22163 0.26926 0.29275
 H15 H 0.28832 0.22444 0.28656
 H16 H 0.21128 0.23154 0.20589
 H17 H 0.26010 0.35470 0.25033
 H18 H 0.24537 0.14201 0.24195
 C19 C 0.77029 0.78334 0.22570
 C20 C 0.75188 0.76827 0.25147
 C21 C 0.73575 0.78538 0.27694
 C22 C 0.73768 0.81790 0.27723
 C23 C 0.75731 0.83260 0.25140
 C24 C 0.77404 0.81575 0.22551
 C25 C 0.75155 0.73427 0.25290
 C26 C 0.77304 0.71879 0.27670
 C27 C 0.77344 0.68639 0.27830
 C28 C 0.75120 0.66970 0.25622
 C29 C 0.72904 0.68495 0.23253
 C30 C 0.72987 0.71736 0.23069
 H31 H 0.78375 0.76929 0.20713
 H32 H 0.72289 0.77287 0.29703
 H33 H 0.79019 0.73205 0.29340
 H34 H 0.71283 0.72955 0.21274
 H35 H 0.75691 0.85752 0.24990
 H36 H 0.75103 0.64471 0.25755
 C37 C 0.76081 0.28313 0.72085
 C38 C 0.74079 0.26895 0.74627
 C39 C 0.72420 0.28696 0.77092
 C40 C 0.72735 0.31948 0.77067
 C41 C 0.74829 0.33319 0.74500
 C42 C 0.76517 0.31528 0.72029
 C43 C 0.73933 0.23501 0.74838
 C44 C 0.76002 0.21953 0.77271
 C45 C 0.76005 0.18696 0.77497
 C46 C 0.73751 0.17058 0.75253
 C47 C 0.71604 0.18595 0.72845
 C48 C 0.71769 0.21824 0.72614
 H49 H 0.77429 0.26897 0.70233
 H50 H 0.71023 0.27510 0.79088
 H51 H 0.77760 0.23325 0.78857
 H52 H 0.70129 0.23045 0.70776
 H53 H 0.75027 0.35805 0.74300
 H54 H 0.73542 0.14572 0.75415
 C55 C 0.26402 0.78247 0.72205
 C56 C 0.24553 0.76751 0.74795
 C57 C 0.22838 0.78484 0.77274
 C58 C 0.22946 0.81718 0.77190
 C59 C 0.24883 0.83200 0.74630
 C60 C 0.26674 0.81502 0.72110
 C61 C 0.24592 0.73355 0.75015
 C62 C 0.26745 0.71885 0.77448
 C63 C 0.26840 0.68650 0.77688
 C64 C 0.24666 0.66907 0.75506
 C65 C 0.22448 0.68353 0.73085
 C66 C 0.22475 0.71591 0.72823
 H67 H 0.27831 0.76830 0.70404
 H68 H 0.21443 0.77305 0.79281
 H69 H 0.28419 0.73269 0.79096
 H70 H 0.20766 0.72750 0.70988
 H71 H 0.24813 0.85698 0.74536
 H72 H 0.24691 0.64410 0.75700
 C73 C 0.04523 0.04909 0.01087
 H74 H 0.04787 0.05036 -0.01552
 C75 C 0.06634 0.06879 0.03058
 H76 H 0.08561 0.08486 0.01914
 C77 C 0.01735 0.02613 0.05769
 H78 H -0.00230 0.00995 0.06824
 C79 C 0.03778 0.04541 0.07829
 H80 H 0.03360 0.04369 0.10452
 N81 N 0.02205 0.02776 0.02465
 C82 C 0.01441 -0.04476 -0.04910
 H83 H -0.01588 -0.04732 -0.05043
 C84 C 0.03782 -0.06275 -0.06900
 H85 H 0.02527 -0.07886 -0.08592
 C86 C 0.06734 -0.02009 -0.02582
 H87 H 0.07884 -0.00384 -0.00860
 C88 C 0.09179 -0.03756 -0.04529
 H89 H 0.12192 -0.03445 -0.04286
 Zn90 Zn -0.00458 0.00083 -0.00346
 N91 N 0.02937 -0.02346 -0.02857
 C92 C -0.03139 0.02451 -0.06431
 N93 N -0.03508 0.02571 -0.03116
 C94 C -0.05984 0.04558 -0.01674
 C95 C -0.08277 0.06483 -0.03586
 C96 C -0.05387 0.04323 -0.08435
 C97 C -0.01667 -0.04587 0.04276
 C98 C -0.03729 -0.06564 0.06296
 C99 C -0.09449 -0.04707 0.03725
 C100 C -0.07279 -0.02731 0.01783
 N101 N -0.03466 -0.02663 0.02140
 H102 H -0.01082 0.00926 -0.07534
 H103 H -0.06184 0.04635 0.00969
 H104 H -0.10273 0.08015 -0.02395
 H105 H -0.05036 0.04210 -0.11067
 H106 H 0.01374 -0.04529 0.04461
 H107 H -0.02260 -0.08037 0.08032
 H108 H -0.12488 -0.04683 0.03472
 H109 H -0.08649 -0.01240 0.00015
 C110 C 0.07708 -0.05899 -0.06753
 C111 C 0.06314 0.06679 0.06483
 C112 C -0.07674 -0.06614 0.06055
 C113 C -0.08006 0.06367 -0.07016
 C114 C 0.05562 0.54261 0.51933
 H115 H 0.05971 0.54518 0.49319
 C116 C 0.07616 0.56083 0.54104
 H117 H 0.09643 0.57710 0.53138
 C118 C 0.02463 0.51785 0.56358
 H119 H 0.00404 0.50154 0.57236
 C120 C 0.04446 0.53557 0.58609
 H121 H 0.03887 0.53256 0.61199
 N122 N 0.03110 0.52111 0.53090
 C123 C 0.02447 0.45159 0.45392
 H124 H -0.00581 0.44983 0.45152
 C125 C 0.04809 0.43355 0.43427
 H126 H 0.03571 0.41822 0.41645
 C127 C 0.07720 0.47429 0.47969
 H128 H 0.08849 0.48982 0.49775
 C129 C 0.10186 0.45673 0.46050
 H130 H 0.13197 0.45903 0.46399
 Zn131 Zn 0.00501 0.49615 0.50045
 N132 N 0.03927 0.47191 0.47562
 C133 C -0.01765 0.52255 0.43965
 N134 N -0.02306 0.52282 0.47264
 C135 C -0.04811 0.54266 0.48674
 C136 C -0.06995 0.56252 0.46737
 C137 C -0.03890 0.54200 0.41937
 C138 C -0.01112 0.44740 0.54319
 C139 C -0.03339 0.42757 0.56193
 C140 C -0.08882 0.45034 0.53707
 C141 C -0.06547 0.46990 0.51895
 N142 N -0.02741 0.46860 0.52290
 H143 H 0.00317 0.50735 0.42892
 H144 H -0.05145 0.54272 0.51309
 H145 H -0.09043 0.57757 0.47900
 H146 H -0.03411 0.54147 0.39317
 H147 H 0.01927 0.44646 0.54538
 H148 H -0.01993 0.41122 0.57840
 H149 H -0.11911 0.45239 0.53442
 H150 H -0.07789 0.48634 0.50211
 C151 C 0.08738 0.43624 0.43717
 C152 C 0.07105 0.55711 0.57496
 C153 C -0.07282 0.42922 0.55935
 C154 C -0.06572 0.56214 0.43315
 C155 C 0.54728 0.04594 0.51630
 H156 H 0.55288 0.04731 0.49027
 C157 C 0.56691 0.06490 0.53795
 H158 H 0.58798 0.08053 0.52840
 C159 C 0.51365 0.02331 0.56035
 H160 H 0.49242 0.00754 0.56907
 C161 C 0.53247 0.04183 0.58278
 H162 H 0.52550 0.03991 0.60854
 N163 N 0.52213 0.02493 0.52788
 C164 C 0.52135 -0.04877 0.45505
 H165 H 0.49124 -0.05179 0.45256
 C166 C 0.54613 -0.06666 0.43635
 H167 H 0.53481 -0.08319 0.41921
 C168 C 0.57245 -0.02283 0.47980
 H169 H 0.58268 -0.00606 0.49705
 C170 C 0.59826 -0.04015 0.46149
 H171 H 0.62815 -0.03640 0.46481
 Zn172 Zn 0.49850 -0.00241 0.49812
 N173 N 0.53475 -0.02684 0.47566
 C174 C 0.47783 0.01973 0.43517
 N175 N 0.47029 0.02160 0.46779
 C176 C 0.44291 0.04087 0.47935
 C177 C 0.42085 0.05834 0.45767
 C178 C 0.45643 0.03666 0.41268
 C179 C 0.48340 -0.04883 0.54379
 C180 C 0.46163 -0.06840 0.56325
 C181 C 0.40612 -0.05060 0.53435
 C182 C 0.42894 -0.03102 0.51571
 N183 N 0.46673 -0.02997 0.52127
 H184 H 0.50044 0.00511 0.42643
 H185 H 0.43786 0.04227 0.50545
 H186 H 0.39854 0.07293 0.46724
 H187 H 0.46285 0.03478 0.38681
 H188 H 0.51361 -0.04797 0.54724
 H189 H 0.47524 -0.08271 0.58164
 H190 H 0.37595 -0.05058 0.53031
 H191 H 0.41632 -0.01646 0.49712
 C192 C 0.58516 -0.06211 0.43906
 C193 C 0.56015 0.06248 0.57179
 C194 C 0.42241 -0.06911 0.55892
 C195 C 0.42721 0.05602 0.42379
 C196 C 0.55492 0.54905 0.02015
 H197 H 0.55856 0.55182 -0.00602
 C198 C 0.57606 0.56694 0.04175
 H199 H 0.59633 0.58316 0.03199
 C200 C 0.52451 0.52412 0.06458
 H201 H 0.50393 0.50788 0.07351
 C202 C 0.54493 0.54150 0.08698
 H203 H 0.53979 0.53828 0.11292
 N204 N 0.53046 0.52757 0.03185
 C205 C 0.52169 0.45754 -0.04446
 H206 H 0.49135 0.45536 -0.04554
 C207 C 0.54450 0.43965 -0.06495
 H208 H 0.53144 0.42396 -0.08204
 C209 C 0.57536 0.48128 -0.02134
 H210 H 0.58735 0.49721 -0.00404
 C211 C 0.59923 0.46394 -0.04149
 H212 H 0.62944 0.46679 -0.03950
 Zn213 Zn 0.50371 0.50258 0.00181
 N214 N 0.53730 0.47831 -0.02369
 C215 C 0.48006 0.52848 -0.05873
 N216 N 0.47494 0.52903 -0.02571
 C217 C 0.44971 0.54877 -0.01168
 C218 C 0.42730 0.56813 -0.03117
 C219 C 0.45829 0.54741 -0.07910
 C220 C 0.48902 0.45368 0.04467
 C221 C 0.46746 0.43369 0.06384
 C222 C 0.41113 0.45650 0.04060
 C223 C 0.43380 0.47621 0.02199
 N224 N 0.47199 0.47494 0.02492
 H225 H 0.50104 0.51340 -0.06943
 H226 H 0.44661 0.54909 0.01469
 H227 H 0.40664 0.58305 -0.01960
 H228 H 0.46286 0.54662 -0.10532
 H229 H 0.51947 0.45278 0.04606
 H230 H 0.48153 0.41724 0.07981
 H231 H 0.38076 0.45847 0.03872
 H232 H 0.42076 0.49272 0.00558
 C233 C 0.58382 0.44304 -0.06394
 C234 C 0.57161 0.56289 0.07570
 C235 C 0.42796 0.43525 0.06229
 C236 C 0.43116 0.56733 -0.06541
 C237 C 0.17120 -0.12856 -0.15630
 C238 C 0.20784 -0.12027 -0.16600
 C239 C 0.22695 -0.13810 -0.18917
 C240 C 0.20998 -0.16436 -0.20251
 C241 C 0.17383 -0.17238 -0.19150
 N242 N 0.15561 -0.15449 -0.16913
 C243 C 0.14872 -0.11008 -0.13268
 N244 N 0.11837 -0.12340 -0.11798
 C245 C 0.09550 -0.10781 -0.09690
 C246 C 0.10247 -0.07672 -0.08960
 C247 C 0.13358 -0.06248 -0.10445
 C248 C 0.15663 -0.07895 -0.12602
 H249 H 0.25515 -0.13150 -0.19648
 H250 H 0.15965 -0.19239 -0.20124
 H251 H 0.07200 -0.11979 -0.08580
 H252 H 0.13952 -0.03834 -0.10010
 H253 H 0.22199 -0.10053 -0.15574
 H254 H 0.17956 -0.06696 -0.13788
 C255 C 0.18182 0.36671 0.34862
 C256 C 0.21892 0.37439 0.33970
 C257 C 0.23769 0.35699 0.31594
 C258 C 0.21992 0.33173 0.30129
 C259 C 0.18337 0.32418 0.31166
 N260 N 0.16550 0.34167 0.33457
 C261 C 0.15950 0.38503 0.37252
 N262 N 0.12811 0.37214 0.38596
 C263 C 0.10513 0.38773 0.40694
 C264 C 0.11305 0.41840 0.41543
 C265 C 0.14530 0.43215 0.40198
 C266 C 0.16847 0.41567 0.38050
 H267 H 0.26619 0.36318 0.30914
 H268 H 0.16856 0.30496 0.30089
 H269 H 0.08076 0.37612 0.41697
 H270 H 0.15203 0.45596 0.40730
 H271 H 0.23363 0.39339 0.35089
 H272 H 0.19229 0.42735 0.36968
 C273 C 0.68205 -0.12908 0.35013
 C274 C 0.71444 -0.11741 0.33475
 C275 C 0.73298 -0.13497 0.31101
 C276 C 0.71994 -0.16456 0.30238
 C277 C 0.68810 -0.17571 0.31941
 N278 N 0.67025 -0.15789 0.34205
 C279 C 0.65940 -0.11116 0.37428
 N280 N 0.62969 -0.12535 0.38910
 C281 C 0.60624 -0.11051 0.41029
 C282 C 0.61186 -0.07926 0.41766
 C283 C 0.64255 -0.06420 0.40311
 C284 C 0.66626 -0.07992 0.38144
 H285 H 0.75834 -0.12547 0.30033
 H286 H 0.67584 -0.19781 0.31370
 H287 H 0.58317 -0.12314 0.42125
 H288 H 0.64756 -0.03995 0.40769
 H289 H 0.72591 -0.09511 0.34069
 H290 H 0.68889 -0.06716 0.37016
 C291 C 0.67399 0.37458 -0.15685
 C292 C 0.70667 0.38531 -0.17255
 C293 C 0.72429 0.36716 -0.19629
 C294 C 0.71007 0.33786 -0.20461
 C295 C 0.67777 0.32776 -0.18750
 N296 N 0.66087 0.34613 -0.16481
 C297 C 0.65273 0.39298 -0.13217
 N298 N 0.62315 0.37941 -0.11651
 C299 C 0.60123 0.39463 -0.09441
 C300 C 0.60847 0.42561 -0.08686
 C301 C 0.63894 0.44007 -0.10241
 C302 C 0.66100 0.42400 -0.12507
 H303 H 0.75000 0.37590 -0.20706
 H304 H 0.66454 0.30600 -0.19305
 H305 H 0.57824 0.38248 -0.08275
 H306 H 0.64511 0.46412 -0.09773
 H307 H 0.71915 0.40726 -0.16671
 H308 H 0.68355 0.43629 -0.13705
 C309 C -0.17314 0.13933 -0.15469
 C310 C -0.18564 0.16955 -0.14824
 C311 C -0.20755 0.18529 -0.17138
 C312 C -0.21778 0.17116 -0.20114
 C313 C -0.20484 0.14063 -0.20624
 N314 N -0.18325 0.12601 -0.18344
 C315 C -0.14944 0.12099 -0.13162
 N316 N -0.14220 0.09086 -0.13901
 C317 C -0.12041 0.07225 -0.11986
 C318 C -0.10426 0.08371 -0.09107
 C319 C -0.11130 0.11464 -0.08278
 C320 C -0.13366 0.13337 -0.10295
 H321 H -0.21765 0.20812 -0.16499
 H322 H -0.21019 0.12857 -0.22886
 H323 H -0.11606 0.04845 -0.12701
 H324 H -0.09889 0.12452 -0.06103
 H325 H -0.17935 0.18114 -0.12556
 H326 H -0.13775 0.15719 -0.09603
 C327 C -0.15796 0.63796 0.34826
 C328 C -0.17774 0.66469 0.35791
 C329 C -0.19994 0.68061 0.33509
 C330 C -0.20279 0.66993 0.30278
 C331 C -0.18274 0.64308 0.29421
 N332 N -0.16128 0.62803 0.31680
 C333 C -0.13436 0.61952 0.37117
 N334 N -0.12532 0.58996 0.36284
 C335 C -0.10361 0.57139 0.38210
 C336 C -0.08937 0.58234 0.41190
 C337 C -0.09809 0.61281 0.42097
 C338 C -0.12039 0.63149 0.40069
 H339 H -0.21549 0.70092 0.34289
 H340 H -0.18378 0.63421 0.26949
 H341 H -0.09795 0.54796 0.37427
 H342 H -0.08710 0.62239 0.44344
 H343 H -0.17697 0.67301 0.38281
 H344 H -0.12578 0.65509 0.40795
 C345 C 0.33670 0.12490 0.33130
 C346 C 0.33436 0.11744 0.29788
 C347 C 0.31239 0.13568 0.27704
 C348 C 0.29292 0.16155 0.28914
 C349 C 0.29657 0.16864 0.32251
 N350 N 0.31801 0.15039 0.34244
 C351 C 0.35954 0.10628 0.35464
 N352 N 0.37083 0.11941 0.38324
 C353 C 0.39204 0.10388 0.40574
 C354 C 0.40332 0.07322 0.39999
 C355 C 0.39144 0.05907 0.37098
 C356 C 0.36949 0.07537 0.34840
 H357 H 0.31116 0.12986 0.25129
 H358 H 0.28198 0.18836 0.33285
 H359 H 0.40063 0.11569 0.42778
 H360 H 0.39868 0.03521 0.36596
 H361 H 0.34980 0.09818 0.28757
 H362 H 0.36004 0.06351 0.32670
 C363 C 0.33728 0.64032 -0.15169
 C364 C 0.31706 0.66706 -0.14278
 C365 C 0.29475 0.68226 -0.16608
 C366 C 0.29226 0.67085 -0.19813
 C367 C 0.31278 0.64403 -0.20596
 N368 N 0.33431 0.62969 -0.18292
 C369 C 0.36105 0.62260 -0.12828
 N370 N 0.37065 0.59300 -0.13599
 C371 C 0.39271 0.57508 -0.11637
 C372 C 0.40681 0.58678 -0.08685
 C373 C 0.39740 0.61727 -0.07835
 C374 C 0.37471 0.63528 -0.09899
 H375 H 0.27885 0.70257 -0.15885
 H376 H 0.31205 0.63461 -0.23046
 H377 H 0.39883 0.55159 -0.12374
 H378 H 0.40823 0.62740 -0.05609
 H379 H 0.31758 0.67593 -0.11808
 H380 H 0.36882 0.65893 -0.09221
 C381 C -0.16456 -0.13786 0.15134
 C382 C -0.18223 -0.16585 0.14405
 C383 C -0.20238 -0.18133 0.16847
 C384 C -0.20560 -0.16891 0.20028
 C385 C -0.18720 -0.14066 0.20625
 N386 N -0.16730 -0.12639 0.18219
 C387 C -0.14209 -0.12070 0.12687
 N388 N -0.11301 -0.10304 0.13751
 C389 C -0.09151 -0.08600 0.11674
 C390 C -0.09927 -0.08561 0.08305
 C391 C -0.12933 -0.10339 0.07150
 C392 C -0.15069 -0.12111 0.09329
 H393 H -0.21646 -0.20247 0.16179
 H394 H -0.18700 -0.13039 0.23034
 H395 H -0.06891 -0.07224 0.12665
 H396 H -0.13618 -0.10364 0.04566
 H397 H -0.18011 -0.17598 0.11993
 H398 H -0.17415 -0.13429 0.08402
 C399 C -0.16768 0.35956 0.64680
 C400 C -0.19267 0.33609 0.63760
 C401 C -0.21458 0.32151 0.66151
 C402 C -0.21177 0.33030 0.69446
 C403 C -0.18619 0.35360 0.70262
 N404 N -0.16505 0.36731 0.67899
 C405 C -0.14350 0.37598 0.62291
 N406 N -0.11162 0.38975 0.63401
 C407 C -0.08842 0.40617 0.61409
 C408 C -0.09710 0.40998 0.58078
 C409 C -0.12989 0.39609 0.56874
 C410 C -0.15311 0.37903 0.58965
 H411 H -0.23397 0.30359 0.65423
 H412 H -0.18264 0.36067 0.72782
 H413 H -0.06376 0.41691 0.62451
 H414 H -0.13756 0.39845 0.54318
 H415 H -0.19497 0.32866 0.61243
 H416 H -0.17867 0.36916 0.57996
 C417 C 0.32998 -0.13910 0.64775
 C418 C 0.31331 -0.16753 0.64058
 C419 C 0.29245 -0.18280 0.66471
 C420 C 0.28752 -0.16973 0.69608
 C421 C 0.30480 -0.14098 0.70186
 N422 N 0.32547 -0.12695 0.67814
 C423 C 0.35353 -0.12230 0.62377
 N424 N 0.38172 -0.10412 0.63517
 C425 C 0.40426 -0.08747 0.61490
 C426 C 0.39859 -0.08807 0.58091
 C427 C 0.36942 -0.10636 0.56855
 C428 C 0.34696 -0.12367 0.58988
 H429 H 0.27926 -0.20436 0.65815
 H430 H 0.30366 -0.13012 0.72564
 H431 H 0.42609 -0.07327 0.62541
 H432 H 0.36417 -0.10735 0.54245
 H433 H 0.31683 -0.17820 0.61684
 H434 H 0.32425 -0.13731 0.57997
 C435 C 0.33745 0.36239 0.15036
 C436 C 0.31297 0.33865 0.14092
 C437 C 0.29261 0.32264 0.16481
 C438 C 0.29647 0.33022 0.19802
 C439 C 0.32139 0.35392 0.20641
 N440 N 0.34106 0.36904 0.18276
 C441 C 0.36022 0.38007 0.12643
 N442 N 0.39218 0.39402 0.13707
 C443 C 0.41435 0.41122 0.11699
 C444 C 0.40451 0.41560 0.08400
 C445 C 0.37152 0.40164 0.07248
 C446 C 0.34935 0.38384 0.09354
 H447 H 0.27362 0.30452 0.15731
 H448 H 0.32568 0.36014 0.23178
 H449 H 0.43919 0.42201 0.12703
 H450 H 0.36295 0.40442 0.04718
 H451 H 0.30996 0.33205 0.11554
 H452 H 0.32366 0.37386 0.08424
 C453 C 0.15495 0.13982 0.15098
 C454 C 0.17534 0.16614 0.14151
 C455 C 0.19801 0.18105 0.16441
 C456 C 0.20060 0.16980 0.19665
 C457 C 0.17970 0.14351 0.20508
 N458 N 0.15793 0.12938 0.18237
 C459 C 0.13133 0.12221 0.12784
 N460 N 0.12314 0.09232 0.13530
 C461 C 0.10157 0.07440 0.11571
 C462 C 0.08653 0.08640 0.08648
 C463 C 0.09435 0.11726 0.07833
 C464 C 0.11660 0.13524 0.09892
 H465 H 0.21418 0.20092 0.15669
 H466 H 0.18043 0.13426 0.22974
 H467 H 0.09671 0.05064 0.12281
 H468 H 0.08274 0.12765 0.05635
 H469 H 0.17475 0.17476 0.11662
 H470 H 0.12142 0.15914 0.09244
 C471 C 0.15745 0.62815 0.66702
 C472 C 0.15914 0.62105 0.70060
 C473 C 0.18076 0.63924 0.72133
 C474 C 0.20062 0.66466 0.70890
 C475 C 0.19740 0.67151 0.67535
 N476 N 0.17625 0.65332 0.65555
 C477 C 0.13545 0.60920 0.64386
 N478 N 0.12278 0.62226 0.61549
 C479 C 0.10241 0.60623 0.59313
 C480 C 0.09366 0.57504 0.59876
 C481 C 0.10704 0.56102 0.62757
 C482 C 0.12794 0.57789 0.65005
 H483 H 0.18157 0.63363 0.74720
 H484 H 0.21226 0.69089 0.66474
 H485 H 0.09258 0.61800 0.57129
 H486 H 0.10190 0.53681 0.63250
 H487 H 0.14353 0.60201 0.71103
 H488 H 0.13864 0.56621 0.67162
 C489 C 0.64671 0.13287 0.66434
 C490 C 0.64700 0.12634 0.69808
 C491 C 0.66932 0.14384 0.71890
 C492 C 0.69123 0.16805 0.70640
 C493 C 0.68921 0.17456 0.67271
 N494 N 0.66740 0.15699 0.65280
 C495 C 0.62442 0.11423 0.64107
 N496 N 0.61334 0.12704 0.61207
 C497 C 0.59296 0.11115 0.58958
 C498 C 0.58254 0.08041 0.59574
 C499 C 0.59430 0.06665 0.62523
 C500 C 0.61522 0.08334 0.64781
 H501 H 0.66918 0.13862 0.74487
 H502 H 0.70559 0.19309 0.66211
 H503 H 0.58448 0.12269 0.56718
 H504 H 0.58791 0.04272 0.63060
 H505 H 0.62989 0.10821 0.70854
 H506 H 0.62468 0.07180 0.66989
 C507 C 0.66045 0.63160 0.16801
 C508 C 0.66227 0.62390 0.20143
 C509 C 0.68438 0.64145 0.22238
 C510 C 0.70460 0.66683 0.21034
 C511 C 0.70119 0.67435 0.17696
 N512 N 0.67957 0.65677 0.15692
 C513 C 0.63798 0.61325 0.14463
 N514 N 0.62501 0.62691 0.11667
 C515 C 0.60409 0.61142 0.09425
 C516 C 0.59502 0.58023 0.09941
 C517 C 0.60879 0.56558 0.12774
 C518 C 0.63026 0.58189 0.15027
 H519 H 0.68532 0.63535 0.24813
 H520 H 0.71629 0.69374 0.16666
 H521 H 0.59402 0.62364 0.07277
 H522 H 0.60344 0.54134 0.13227
 H523 H 0.64642 0.60486 0.21158
 H524 H 0.64120 0.56975 0.17147
   
