data_POSCAR
  _audit_creation_date              2014-09-24
  _audit_creation_method            'ToBaCCo'
  _symmetry_space_group_name_H-M    'P1'
  _symmetry_Int_Tables_number       1
  _symmetry_cell_setting            triclinic
  loop_
  _symmetry_equiv_pos_as_xyz
 x,y,z
_cell_length_a 60.7064
_cell_length_b 60.7245
_cell_length_c 18.6110
_cell_angle_alpha 89.967600
_cell_angle_beta 90.034200
_cell_angle_gamma 119.974500
loop_
  _atom_site_label
  _atom_site_type_symbol
  _atom_site_fract_x
  _atom_site_fract_y
  _atom_site_fract_z
C1 C 0.24347 0.48724 0.53339
 C2 C 0.24353 0.48718 0.46006
 C3 C 0.22346 0.48857 0.41786
 C4 C 0.26354 0.48544 0.41881
 C5 C 0.26501 0.48880 0.57552
 C6 C 0.22170 0.48542 0.57474
 C7 C 0.20961 0.47010 0.36605
 C8 C 0.18980 0.47039 0.32865
 C9 C 0.18310 0.48936 0.34169
 C10 C 0.19810 0.50843 0.39270
 C11 C 0.21794 0.50805 0.42967
 C12 C 0.26852 0.46553 0.43133
 C13 C 0.28827 0.46479 0.39509
 C14 C 0.30322 0.48377 0.34496
 C15 C 0.29763 0.50320 0.33079
 C16 C 0.27791 0.50397 0.36726
 C17 C 0.29003 0.50849 0.56348
 C18 C 0.31030 0.50892 0.60029
 C19 C 0.30592 0.48984 0.65051
 C20 C 0.28076 0.47065 0.66423
 C21 C 0.26050 0.47020 0.62723
 C22 C 0.22582 0.50395 0.62622
 C23 C 0.20532 0.50306 0.66294
 C24 C 0.18033 0.48350 0.64913
 C25 C 0.17636 0.46453 0.59904
 C26 C 0.19687 0.46540 0.56252
 H27 H 0.21359 0.45484 0.35620
 H28 H 0.17900 0.45453 0.29310
 H29 H 0.19562 0.52456 0.40294
 H30 H 0.22901 0.52302 0.46788
 H31 H 0.25726 0.45073 0.46977
 H32 H 0.29179 0.44930 0.40608
 H33 H 0.27427 0.51941 0.35666
 H34 H 0.29386 0.52334 0.52489
 H35 H 0.32942 0.52421 0.58957
 H36 H 0.27678 0.45558 0.70212
 H37 H 0.24133 0.45490 0.63744
 H38 H 0.24487 0.51947 0.63659
 H39 H 0.20897 0.51804 0.70080
 H40 H 0.15739 0.44896 0.58832
 H41 H 0.19337 0.45060 0.52414
 H42 H 0.30892 0.51818 0.29288
 C43 C 0.51144 -0.24413 0.53705
 C44 C 0.51140 -0.24445 0.46373
 C45 C 0.51317 -0.26453 0.42283
 C46 C 0.50985 -0.22458 0.42116
 C47 C 0.51326 -0.22226 0.57789
 C48 C 0.50991 -0.26554 0.57966
 C49 C 0.53309 -0.26947 0.43561
 C50 C 0.53398 -0.28912 0.39921
 C51 C 0.51514 -0.30401 0.34866
 C52 C 0.49565 -0.29850 0.33442
 C53 C 0.49473 -0.27888 0.37102
 C54 C 0.52852 -0.21054 0.36962
 C55 C 0.52813 -0.19073 0.33248
 C56 C 0.50895 -0.18472 0.34594
 C57 C 0.48977 -0.19941 0.39586
 C58 C 0.49014 -0.21925 0.43281
 C59 C 0.49486 -0.22628 0.62976
 C60 C 0.49580 -0.20572 0.66626
 C61 C 0.51527 -0.18074 0.65184
 C62 C 0.53408 -0.17685 0.60125
 C63 C 0.53317 -0.19742 0.56497
 C64 C 0.49027 -0.29052 0.56809
 C65 C 0.48987 -0.31073 0.60511
 C66 C 0.50902 -0.30652 0.65562
 C67 C 0.52811 -0.28106 0.66875
 C68 C 0.52848 -0.26093 0.63134
 H69 H 0.54783 -0.25822 0.47422
 H70 H 0.54951 -0.29258 0.41030
 H71 H 0.48075 -0.30975 0.29622
 H72 H 0.47928 -0.27527 0.36020
 H73 H 0.54383 -0.21443 0.35972
 H74 H 0.54328 -0.17963 0.29480
 H75 H 0.47524 -0.23024 0.47128
 H76 H 0.47942 -0.24531 0.64070
 H77 H 0.48093 -0.20931 0.70449
 H78 H 0.54959 -0.15789 0.59002
 H79 H 0.54788 -0.19397 0.52632
 H80 H 0.47531 -0.29440 0.52984
 H81 H 0.47397 -0.32953 0.59507
 H82 H 0.54377 -0.27641 0.70491
 H83 H 0.54381 -0.24174 0.64104
 H84 H 0.47448 -0.19555 0.40634
 C85 C 1.24468 0.75562 0.53829
 C86 C 1.24449 0.75547 0.46496
 C87 C 1.26587 0.77552 0.42260
 C88 C 1.22272 0.73545 0.42383
 C89 C 1.22472 0.73415 0.58062
 C90 C 1.26464 0.77744 0.57943
 C91 C 1.26113 0.78937 0.37087
 C92 C 1.28118 0.80918 0.33341
 C93 C 1.30671 0.81572 0.34647
 C94 C 1.31106 0.80092 0.39717
 C95 C 1.29093 0.78107 0.43428
 C96 C 1.19786 0.73056 0.43629
 C97 C 1.17735 0.71087 0.39995
 C98 C 1.18134 0.69590 0.34982
 C99 C 1.20634 0.70139 0.33578
 C100 C 1.22685 0.72106 0.37233
 C101 C 1.21928 0.70914 0.56876
 C102 C 1.19946 0.68893 0.60568
 C103 C 1.18459 0.69313 0.65641
 C104 C 1.19102 0.71861 0.66972
 C105 C 1.21080 0.73875 0.63242
 C106 C 1.27907 0.77344 0.63094
 C107 C 1.29866 0.79396 0.66763
 C108 C 1.30434 0.81919 0.65396
 C109 C 1.28899 0.82277 0.60337
 C110 C 1.26938 0.80219 0.56708
 H111 H 1.24188 0.78537 0.36110
 H112 H 1.27641 0.82008 0.29716
 H113 H 1.32992 0.80396 0.40726
 H114 H 1.29493 0.77008 0.47257
 H115 H 1.19435 0.74185 0.47469
 H116 H 1.15836 0.70742 0.41084
 H117 H 1.24591 0.72464 0.36178
 H118 H 1.23032 0.70526 0.53041
 H119 H 1.19650 0.67012 0.59542
 H120 H 1.18007 0.72327 0.70602
 H121 H 1.21471 0.75795 0.64234
 H122 H 1.27566 0.75442 0.64124
 H123 H 1.31003 0.78981 0.70387
 H124 H 1.29136 0.84134 0.59290
 H125 H 1.25791 0.80558 0.52898
 H126 H 1.20999 0.69008 0.29787
 C127 C 0.75637 0.51214 0.53625
 C128 C 0.75633 0.51249 0.46294
 C129 C 0.77654 0.51150 0.42044
 C130 C 0.73629 0.51428 0.42192
 C131 C 0.73489 0.51059 0.57864
 C132 C 0.77808 0.51373 0.57741
 C133 C 0.79050 0.53052 0.36965
 C134 C 0.81044 0.53057 0.33209
 C135 C 0.81668 0.51147 0.34423
 C136 C 0.80212 0.49198 0.39352
 C137 C 0.78216 0.49194 0.43101
 C138 C 0.73125 0.53411 0.43485
 C139 C 0.71154 0.53493 0.39853
 C140 C 0.69669 0.51610 0.34794
 C141 C 0.70232 0.49672 0.33346
 C142 C 0.72201 0.49588 0.36999
 C143 C 0.70987 0.49111 0.56647
 C144 C 0.68965 0.49069 0.60350
 C145 C 0.69388 0.50965 0.65462
 C146 C 0.71938 0.52860 0.66822
 C147 C 0.73951 0.52898 0.63082
 C148 C 0.77391 0.49493 0.62781
 C149 C 0.79430 0.49564 0.66471
 C150 C 0.81956 0.51540 0.65268
 C151 C 0.82332 0.53467 0.60315
 C152 C 0.80286 0.53385 0.56639
 H153 H 0.78631 0.54565 0.36026
 H154 H 0.82101 0.54558 0.29355
 H155 H 0.80654 0.47710 0.40439
 H156 H 0.77132 0.47685 0.46914
 H157 H 0.74245 0.54882 0.47359
 H158 H 0.70798 0.55037 0.40978
 H159 H 0.72570 0.48050 0.35907
 H160 H 0.70597 0.47626 0.52782
 H161 H 0.67083 0.47491 0.59300
 H162 H 0.72406 0.54414 0.70483
 H163 H 0.75873 0.54421 0.64097
 H164 H 0.75482 0.47946 0.63793
 H165 H 0.78985 0.48095 0.70422
 H166 H 0.84210 0.54992 0.58951
 H167 H 0.80643 0.54875 0.52826
 H168 H 0.69110 0.48185 0.29521
 C169 C 0.48899 0.24436 0.53787
 C170 C 0.48857 0.24451 0.46457
 C171 C 0.48682 0.26464 0.42387
 C172 C 0.48948 0.22435 0.42174
 C173 C 0.48732 0.22254 0.57873
 C174 C 0.49072 0.26583 0.58055
 C175 C 0.46708 0.26979 0.43726
 C176 C 0.46621 0.28947 0.40087
 C177 C 0.48489 0.30417 0.34973
 C178 C 0.50420 0.29846 0.33493
 C179 C 0.50510 0.27882 0.37152
 C180 C 0.47039 0.21045 0.37109
 C181 C 0.47023 0.19049 0.33338
 C182 C 0.48929 0.18418 0.34525
 C183 C 0.50888 0.19870 0.39432
 C184 C 0.50903 0.21868 0.43197
 C185 C 0.50605 0.22658 0.62927
 C186 C 0.50520 0.20613 0.66613
 C187 C 0.48538 0.18090 0.65395
 C188 C 0.46620 0.17728 0.60418
 C189 C 0.46716 0.19780 0.56746
 C190 C 0.51030 0.29081 0.56845
 C191 C 0.51082 0.31105 0.60550
 C192 C 0.49185 0.30690 0.65654
 C193 C 0.47283 0.28145 0.67020
 C194 C 0.47235 0.26128 0.63278
 H195 H 0.45246 0.25868 0.47631
 H196 H 0.45082 0.29308 0.41242
 H197 H 0.51897 0.30956 0.29627
 H198 H 0.52040 0.27504 0.36022
 H199 H 0.45527 0.21469 0.36199
 H200 H 0.45515 0.17995 0.29500
 H201 H 0.52417 0.22947 0.46999
 H202 H 0.52156 0.24563 0.63960
 H203 H 0.51983 0.21049 0.70578
 H204 H 0.45090 0.15854 0.59039
 H205 H 0.45229 0.19432 0.52925
 H206 H 0.52511 0.29464 0.52974
 H207 H 0.52666 0.32985 0.59501
 H208 H 0.45730 0.27683 0.70680
 H209 H 0.45706 0.24209 0.64288
 H210 H 0.52374 0.19422 0.40497
 C211 C 0.75537 0.24450 0.53837
 C212 C 0.75554 0.24470 0.46504
 C213 C 0.73409 0.22473 0.42270
 C214 C 0.77735 0.26468 0.42392
 C215 C 0.77537 0.26592 0.58075
 C216 C 0.73537 0.22269 0.57945
 C217 C 0.73874 0.21072 0.37109
 C218 C 0.71856 0.19090 0.33399
 C219 C 0.69335 0.18482 0.34752
 C220 C 0.68884 0.19945 0.39759
 C221 C 0.70903 0.21931 0.43451
 C222 C 0.80218 0.26950 0.43644
 C223 C 0.82272 0.28915 0.40011
 C224 C 0.81880 0.30417 0.34992
 C225 C 0.79382 0.29875 0.33582
 C226 C 0.77328 0.27912 0.37236
 C227 C 0.78085 0.29095 0.56893
 C228 C 0.80069 0.31112 0.60592
 C229 C 0.81553 0.30685 0.65667
 C230 C 0.80905 0.28136 0.66994
 C231 C 0.78925 0.26126 0.63257
 C232 C 0.72093 0.22675 0.63096
 C233 C 0.70126 0.20620 0.66737
 C234 C 0.69579 0.18123 0.65318
 C235 C 0.71082 0.17731 0.60306
 C236 C 0.73052 0.19786 0.56687
 H237 H 0.75795 0.21466 0.36106
 H238 H 0.72264 0.17985 0.29621
 H239 H 0.66968 0.19555 0.40816
 H240 H 0.70510 0.23028 0.47302
 H241 H 0.80565 0.25817 0.47487
 H242 H 0.84169 0.29254 0.41104
 H243 H 0.75424 0.27560 0.36176
 H244 H 0.76983 0.29488 0.53057
 H245 H 0.80369 0.32995 0.59569
 H246 H 0.81998 0.27665 0.70626
 H247 H 0.78530 0.24204 0.64247
 H248 H 0.72447 0.24578 0.64161
 H249 H 0.68990 0.20980 0.70528
 H250 H 0.70740 0.15835 0.59205
 H251 H 0.74185 0.19440 0.52847
 H252 H 0.79021 0.31010 0.29787
 N253 N 0.97369 0.52590 0.07672
 N254 N 0.95465 0.53025 0.08628
 N255 N 1.02708 0.53698 0.12670
 N256 N 1.04582 0.54951 0.17275
 N257 N 1.02720 0.55233 0.07675
 N258 N 1.04602 0.57574 0.08737
 N259 N 0.97357 0.51052 0.12661
 N260 N 0.95446 0.50399 0.17152
 C261 C 0.94290 0.51643 0.14547
 C262 C 1.05744 0.57357 0.14718
 N263 N 1.02666 0.47402 0.07687
 N264 N 1.04579 0.46978 0.08633
 N265 N 0.97326 0.46293 0.12682
 N266 N 0.95451 0.45041 0.17283
 N267 N 0.97314 0.44757 0.07697
 N268 N 0.95431 0.42416 0.08762
 N269 N 1.02676 0.48939 0.12670
 N270 N 1.04595 0.49604 0.17145
 Mn271 Mn 1.00017 0.49995 0.12754
 C272 C 1.05756 0.48366 0.14542
 C273 C 0.94289 0.42635 0.14735
 N274 N 1.02725 0.55231 -0.07807
 N275 N 1.04657 0.57555 -0.08760
 N276 N 0.97358 0.51058 -0.12792
 N277 N 0.95474 0.50447 -0.17359
 N278 N 0.97374 0.52596 -0.07805
 N279 N 0.95502 0.53074 -0.08834
 N280 N 1.02709 0.53692 -0.12791
 N281 N 1.04628 0.54924 -0.17275
 Mn282 Mn 1.00047 0.53938 -0.00067
 C283 C 1.05818 0.57323 -0.14675
 C284 C 0.94338 0.51715 -0.14791
 N285 N 0.97301 0.44754 -0.07784
 N286 N 0.95369 0.42430 -0.08727
 N287 N 1.02663 0.48926 -0.12790
 N288 N 1.04535 0.49525 -0.17386
 N289 N 1.02653 0.47391 -0.07797
 N290 N 1.04517 0.46903 -0.08851
 N291 N 0.97314 0.46292 -0.12772
 N292 N 0.95392 0.45059 -0.17249
 Mn293 Mn 0.99984 0.46050 -0.00049
 Mn294 Mn 1.00011 0.49992 -0.12870
 Cl295 Cl 1.00015 0.49994 -0.00058
 C296 C 0.94204 0.42661 -0.14640
 C297 C 1.05671 0.48255 -0.14828
 N298 N 0.47462 0.44771 0.07407
 N299 N 0.46988 0.42425 0.08492
 N300 N 0.46301 0.48967 0.12364
 N301 N 0.45030 0.49573 0.16947
 N302 N 0.44777 0.47435 0.07367
 N303 N 0.42427 0.46956 0.08406
 N304 N 0.48987 0.46303 0.12404
 N305 N 0.49593 0.45041 0.17029
 C306 C 0.48338 0.42635 0.14487
 C307 C 0.42626 0.48311 0.14376
 N308 N 0.52574 0.55252 0.07414
 N309 N 0.53047 0.57598 0.08486
 N310 N 0.53728 0.51055 0.12427
 N311 N 0.54991 0.50447 0.17041
 N312 N 0.55259 0.52588 0.07445
 N313 N 0.57607 0.53066 0.08526
 N314 N 0.51041 0.53719 0.12392
 N315 N 0.50427 0.54979 0.16993
 Mn316 Mn 0.50014 0.50011 0.12479
 C317 C 0.51686 0.57387 0.14454
 C318 C 0.57399 0.51710 0.14505
 N319 N 0.44789 0.47443 -0.08115
 N320 N 0.42455 0.47022 -0.09098
 N321 N 0.49011 0.46312 -0.13054
 N322 N 0.49705 0.45076 -0.17500
 N323 N 0.47480 0.44777 -0.08076
 N324 N 0.47090 0.42453 -0.08992
 N325 N 0.46323 0.48976 -0.13091
 N326 N 0.45078 0.49641 -0.17600
 Mn327 Mn 0.46101 0.46081 -0.00357
 C328 C 0.42676 0.48409 -0.15022
 C329 C 0.48491 0.42680 -0.14883
 N330 N 0.55270 0.52585 -0.08038
 N331 N 0.57603 0.52995 -0.08962
 N332 N 0.51057 0.53720 -0.13061
 N333 N 0.50371 0.54959 -0.17530
 N334 N 0.52581 0.55252 -0.08068
 N335 N 0.52976 0.57578 -0.08996
 N336 N 0.53743 0.51055 -0.13031
 N337 N 0.54991 0.50381 -0.17493
 Mn338 Mn 0.53947 0.53945 -0.00315
 Mn339 Mn 0.50033 0.50016 -0.13142
 Cl340 Cl 0.50024 0.50013 -0.00330
 C341 C 0.57388 0.51606 -0.14871
 C342 C 0.51584 0.57354 -0.14909
 N343 N 0.44727 -0.02698 0.07989
 N344 N 0.42400 -0.04626 0.08939
 N345 N 0.48917 0.02664 0.12960
 N346 N 0.49581 0.04581 0.17432
 N347 N 0.47382 0.02655 0.07968
 N348 N 0.46958 0.04567 0.08899
 N349 N 0.46263 -0.02685 0.12982
 N350 N 0.45027 -0.04602 0.17471
 C351 C 0.42628 -0.05788 0.14863
 C352 C 0.48345 0.05743 0.14810
 N353 N 0.55207 0.02694 0.08007
 N354 N 0.57536 0.04618 0.08968
 N355 N 0.51016 -0.02661 0.13000
 N356 N 0.50342 -0.04580 0.17476
 N357 N 0.52549 -0.02660 0.08021
 N358 N 0.52962 -0.04579 0.08967
 N359 N 0.53670 0.02687 0.12982
 N360 N 0.54907 0.04603 0.17470
 Mn361 Mn 0.49967 0.00001 0.13064
 C362 C 0.57308 0.05783 0.14879
 C363 C 0.51571 -0.05750 0.14876
 N364 N 0.47380 0.02649 -0.07510
 N365 N 0.46909 0.04526 -0.08555
 N366 N 0.46262 -0.02691 -0.12477
 N367 N 0.45006 -0.04570 -0.17066
 N368 N 0.44728 -0.02697 -0.07492
 N369 N 0.42386 -0.04579 -0.08546
 N370 N 0.48916 0.02657 -0.12491
 N371 N 0.49534 0.04539 -0.17068
 Mn372 Mn 0.46028 -0.00023 0.00241
 C373 C 0.48271 0.05683 -0.14514
 C374 C 0.42600 -0.05726 -0.14512
 N375 N 0.52555 -0.02662 -0.07464
 N376 N 0.53039 -0.04529 -0.08521
 N377 N 0.53676 0.02678 -0.12471
 N378 N 0.54932 0.04554 -0.17067
 N379 N 0.55209 0.02685 -0.07476
 N380 N 0.57552 0.04566 -0.08530
 N381 N 0.51021 -0.02670 -0.12460
 N382 N 0.50418 -0.04543 -0.17055
 Mn383 Mn 0.53906 0.00014 0.00274
 Mn384 Mn 0.49969 -0.00007 -0.12558
 Cl385 Cl 0.49968 -0.00004 0.00252
 C386 C 0.51685 -0.05682 -0.14497
 C387 C 0.57338 0.05711 -0.14507
 C388 C 1.12023 0.48743 0.23854
 C389 C 1.13151 0.47432 0.20934
 C390 C 1.15248 0.47508 0.24292
 C391 C 1.16289 0.48908 0.30732
 C392 C 1.15113 0.50248 0.33514
 C393 C 1.13014 0.50157 0.30122
 C394 C 1.09825 0.48612 0.20486
 C395 C 1.07972 0.48498 0.17735
 H396 H 1.12414 0.46352 0.16017
 H397 H 1.16089 0.46543 0.21542
 H398 H 1.15680 0.51264 0.38548
 H399 H 1.12137 0.51163 0.32475
 C400 C 0.51603 0.63355 0.24252
 C401 C 0.52208 0.63808 0.31558
 C402 C 0.52188 0.65843 0.35001
 C403 C 0.51561 0.67454 0.31176
 C404 C 0.50957 0.66984 0.23829
 C405 C 0.50980 0.64947 0.20394
 C406 C 0.51622 0.61253 0.20735
 C407 C 0.51645 0.59489 0.17841
 H408 H 0.52686 0.62582 0.34602
 H409 H 0.52625 0.66133 0.40683
 H410 H 0.50494 0.68207 0.20723
 H411 H 0.50515 0.64618 0.14731
 C412 C 0.36786 -0.12072 0.24216
 C413 C 0.37181 -0.12928 0.30794
 C414 C 0.35184 -0.15032 0.34191
 C415 C 0.32726 -0.16333 0.31084
 C416 C 0.32381 -0.15444 0.24375
 C417 C 0.34388 -0.13341 0.21002
 C418 C 0.38836 -0.09869 0.20830
 C419 C 0.40561 -0.08011 0.18067
 H420 H 0.39029 -0.11945 0.33363
 H421 H 0.35569 -0.15538 0.39421
 H422 H 0.30589 -0.16405 0.21538
 H423 H 0.34067 -0.12707 0.15866
 C424 C 0.88081 0.51375 0.23876
 C425 C 0.88236 0.53618 0.26404
 C426 C 0.86146 0.53545 0.29785
 C427 C 0.83867 0.51223 0.30688
 C428 C 0.83725 0.48979 0.28100
 C429 C 0.85820 0.49056 0.24714
 C430 C 0.90255 0.51455 0.20520
 C431 C 0.92091 0.51536 0.17765
 H432 H 0.89980 0.55421 0.25812
 H433 H 0.86328 0.55300 0.31813
 H434 H 0.81990 0.47167 0.28643
 H435 H 0.85678 0.47309 0.22769
 C436 C 0.48406 0.36663 0.24330
 C437 C 0.47830 0.36229 0.31654
 C438 C 0.47847 0.34193 0.35108
 C439 C 0.48443 0.32562 0.31274
 C440 C 0.49017 0.33012 0.23907
 C441 C 0.48997 0.35050 0.20462
 C442 C 0.48392 0.38766 0.20800
 C443 C 0.48373 0.40531 0.17892
 H444 H 0.47378 0.37471 0.34705
 H445 H 0.47433 0.33918 0.40803
 H446 H 0.49455 0.31774 0.20795
 H447 H 0.49439 0.35364 0.14784
 C448 C 0.63149 0.12049 0.24298
 C449 C 0.62965 0.12534 0.31557
 C450 C 0.64966 0.14639 0.34936
 C451 C 0.67183 0.16290 0.31092
 C452 C 0.67345 0.15795 0.23782
 C453 C 0.65339 0.13688 0.20411
 C454 C 0.61102 0.09853 0.20881
 C455 C 0.59377 0.08000 0.18098
 H456 H 0.61282 0.11272 0.34624
 H457 H 0.64800 0.14946 0.40594
 H458 H 0.69014 0.17046 0.20663
 H459 H 0.65499 0.13333 0.14784
 C460 C 0.48403 0.11796 -0.24079
 C461 C 0.46147 0.11611 -0.26568
 C462 C 0.46181 0.13678 -0.29990
 C463 C 0.48487 0.15994 -0.31009
 C464 C 0.50747 0.16139 -0.28388
 C465 C 0.50699 0.14063 -0.24981
 C466 C 0.48365 0.09649 -0.20663
 C467 C 0.48327 0.07843 -0.17839
 H468 H 0.44352 0.09868 -0.25839
 H469 H 0.44370 0.13459 -0.31576
 H470 H 0.52589 0.17807 -0.29212
 H471 H 0.52464 0.14220 -0.23123
 C472 C 0.63251 0.51181 -0.24155
 C473 C 0.62871 0.49952 -0.30759
 C474 C 0.64874 0.49852 -0.34139
 C475 C 0.67325 0.50994 -0.30988
 C476 C 0.67655 0.52206 -0.24253
 C477 C 0.65641 0.52295 -0.20896
 C478 C 0.61195 0.51330 -0.20789
 C479 C 0.59465 0.51458 -0.18045
 H480 H 0.61029 0.49099 -0.33362
 H481 H 0.64501 0.48978 -0.39389
 H482 H 0.69441 0.53025 -0.21384
 H483 H 0.65951 0.53234 -0.15740
 C484 C 0.87911 0.36816 -0.23955
 C485 C 0.87051 0.37201 -0.30538
 C486 C 0.84947 0.35199 -0.33917
 C487 C 0.83649 0.32746 -0.30786
 C488 C 0.84542 0.32410 -0.24073
 C489 C 0.86646 0.34422 -0.20717
 C490 C 0.90118 0.38869 -0.20588
 C491 C 0.91978 0.40595 -0.17837
 H492 H 0.88032 0.39046 -0.33125
 H493 H 0.84437 0.35577 -0.39153
 H494 H 0.83584 0.30622 -0.21219
 H495 H 0.87284 0.34109 -0.15577
 C496 C 0.51619 -0.11732 -0.24246
 C497 C 0.51002 -0.13943 -0.20371
 C498 C 0.50978 -0.16005 -0.23792
 C499 C 0.51576 -0.15880 -0.31141
 C500 C 0.52198 -0.13646 -0.34983
 C501 C 0.52218 -0.11589 -0.31554
 C502 C 0.51635 -0.09611 -0.20745
 C503 C 0.51654 -0.07824 -0.17865
 H504 H 0.50542 -0.14072 -0.14707
 H505 H 0.50520 -0.17686 -0.20674
 H506 H 0.52629 -0.13506 -0.40666
 H507 H 0.52690 -0.09890 -0.34611
 C508 C 0.36807 0.48783 -0.24484
 C509 C 0.36984 0.49444 -0.31751
 C510 C 0.34973 0.49533 -0.35135
 C511 C 0.32754 0.48958 -0.31288
 C512 C 0.32600 0.48309 -0.23972
 C513 C 0.34615 0.48224 -0.20596
 C514 C 0.38866 0.48653 -0.21059
 C515 C 0.40598 0.48540 -0.18263
 H516 H 0.38668 0.49872 -0.34818
 H517 H 0.35134 0.50001 -0.40796
 H518 H 0.30929 0.47885 -0.20850
 H519 H 0.34461 0.47715 -0.14963
 C520 C 1.12106 0.63172 -0.23996
 C521 C 1.13368 0.65564 -0.20755
 C522 C 1.15470 0.67580 -0.24105
 C523 C 1.16366 0.67249 -0.30817
 C524 C 1.15071 0.64797 -0.33952
 C525 C 1.12968 0.62791 -0.30578
 C526 C 1.09902 0.61115 -0.20633
 C527 C 1.08043 0.59388 -0.17880
 H528 H 1.12729 0.65874 -0.15616
 H529 H 1.16426 0.69367 -0.21248
 H530 H 1.15582 0.64422 -0.39186
 H531 H 1.11990 0.60948 -0.33168
 C532 C 0.88235 0.51620 -0.24281
 C533 C 0.88430 0.53886 -0.26711
 C534 C 0.86368 0.53870 -0.30105
 C535 C 0.84047 0.51573 -0.31151
 C536 C 0.83890 0.49302 -0.28584
 C537 C 0.85962 0.49332 -0.25206
 C538 C 0.90377 0.51641 -0.20898
 C539 C 0.92181 0.51668 -0.18097
 H540 H 0.90179 0.55675 -0.25961
 H541 H 0.86594 0.55688 -0.31648
 H542 H 0.82216 0.47467 -0.29433
 H543 H 0.85797 0.47560 -0.23391
 C544 C 0.48966 0.36835 -0.24061
 C545 C 0.47855 0.34451 -0.20770
 C546 C 0.47948 0.32435 -0.24090
 C547 C 0.49160 0.32758 -0.30820
 C548 C 0.50303 0.35202 -0.33999
 C549 C 0.50199 0.37208 -0.30655
 C550 C 0.48805 0.38889 -0.20743
 C551 C 0.48662 0.40615 -0.18032
 H552 H 0.46914 0.34148 -0.15619
 H553 H 0.47130 0.30654 -0.21201
 H554 H 0.51178 0.35569 -0.39248
 H555 H 0.51050 0.39046 -0.33281
 C556 C 0.63307 0.11781 -0.24210
 C557 C 0.64892 0.13987 -0.20312
 C558 C 0.66937 0.16051 -0.23703
 C559 C 0.67425 0.15930 -0.31041
 C560 C 0.65820 0.13702 -0.34907
 C561 C 0.63776 0.11643 -0.31509
 C562 C 0.61202 0.09655 -0.20735
 C563 C 0.59437 0.07861 -0.17870
 H564 H 0.64550 0.14110 -0.14653
 H565 H 0.68155 0.17729 -0.20569
 H566 H 0.66123 0.13566 -0.40585
 H567 H 0.62556 0.09947 -0.34581
 C568 C 1.11709 0.48296 -0.24547
 C569 C 1.11556 0.47675 -0.31837
 C570 C 1.13608 0.47682 -0.35255
 C571 C 1.15845 0.48312 -0.31418
 C572 C 1.15980 0.48932 -0.24085
 C573 C 1.13923 0.48922 -0.20675
 C574 C 1.09593 0.48292 -0.21059
 C575 C 1.07809 0.48281 -0.18189
 H576 H 1.09853 0.47195 -0.34889
 H577 H 1.13461 0.47233 -0.40928
 H578 H 1.17666 0.49398 -0.20974
 H579 H 1.14058 0.49399 -0.15022
 C580 C 0.51129 0.63207 -0.24133
 C581 C 0.49878 0.62827 -0.30702
 C582 C 0.49774 0.64833 -0.34055
 C583 C 0.50934 0.67283 -0.30911
 C584 C 0.52168 0.67613 -0.24210
 C585 C 0.52261 0.65597 -0.20880
 C586 C 0.51284 0.61151 -0.20800
 C587 C 0.51421 0.59422 -0.18077
 H588 H 0.49011 0.60985 -0.33299
 H589 H 0.48883 0.64461 -0.39284
 H590 H 0.53002 0.69399 -0.21348
 H591 H 0.53217 0.65905 -0.15750
 C592 C 0.36625 -0.11796 -0.24194
 C593 C 0.35752 -0.11469 -0.30826
 C594 C 0.33711 -0.13526 -0.34235
 C595 C 0.32490 -0.15976 -0.31081
 C596 C 0.33407 -0.16259 -0.24344
 C597 C 0.35447 -0.14190 -0.20956
 C598 C 0.38734 -0.09670 -0.20729
 C599 C 0.40501 -0.07877 -0.17871
 H600 H 0.36666 -0.09622 -0.33411
 H601 H 0.33185 -0.13187 -0.39496
 H602 H 0.32507 -0.18047 -0.21483
 H603 H 0.36096 -0.14459 -0.15778
 C604 C 0.51147 -0.12027 0.24212
 C605 C 0.50476 -0.12520 0.31468
 C606 C 0.50370 -0.14629 0.34824
 C607 C 0.50936 -0.16276 0.30957
 C608 C 0.51594 -0.15773 0.23650
 C609 C 0.51697 -0.13661 0.20302
 C610 C 0.51297 -0.09826 0.20824
 C611 C 0.51425 -0.07970 0.18066
 H612 H 0.50055 -0.11261 0.34550
 H613 H 0.49896 -0.14944 0.40480
 H614 H 0.52013 -0.17021 0.20517
 H615 H 0.52213 -0.13299 0.14677
 C616 C 0.36623 0.48355 0.24046
 C617 C 0.36154 0.47744 0.31343
 C618 C 0.34100 0.47742 0.34733
 C619 C 0.32485 0.48353 0.30860
 C620 C 0.32972 0.48966 0.23524
 C621 C 0.35028 0.48964 0.20141
 C622 C 0.38740 0.48354 0.20581
 C623 C 0.40515 0.48342 0.17725
 H624 H 0.37382 0.47277 0.34419
 H625 H 0.33797 0.47300 0.40410
 H626 H 0.31747 0.49418 0.20387
 H627 H 0.35370 0.49434 0.14483
 C628 C 1.11805 0.63321 0.24462
 C629 C 1.11660 0.63784 0.31760
 C630 C 1.13714 0.65828 0.35174
 C631 C 1.15945 0.67436 0.31323
 C632 C 1.16073 0.66954 0.23986
 C633 C 1.14014 0.64909 0.20580
 C634 C 1.09682 0.61217 0.20971
 C635 C 1.07891 0.59453 0.18094
 H636 H 1.09961 0.62562 0.34820
 H637 H 1.13573 0.66127 0.40851
 H638 H 1.17754 0.68175 0.20864
 H639 H 1.14142 0.64571 0.14921
 C640 C 0.48656 0.11982 0.24036
 C641 C 0.50981 0.14240 0.24814
 C642 C 0.51073 0.16344 0.28174
 C643 C 0.48837 0.16213 0.30796
 C644 C 0.46509 0.13938 0.29948
 C645 C 0.46422 0.11838 0.26593
 C646 C 0.48562 0.09797 0.20716
 C647 C 0.48468 0.07952 0.17992
 H648 H 0.52722 0.14372 0.22844
 H649 H 0.52889 0.18077 0.28677
 H650 H 0.44761 0.13765 0.32005
 H651 H 0.44614 0.10095 0.26046
 C652 C 0.63387 0.51656 0.24267
 C653 C 0.63842 0.52251 0.31576
 C654 C 0.65890 0.52246 0.34992
 C655 C 0.67513 0.51644 0.31132
 C656 C 0.67041 0.51050 0.23782
 C657 C 0.64991 0.51058 0.20375
 C658 C 0.61275 0.51662 0.20775
 C659 C 0.59505 0.51677 0.17893
 H660 H 0.62608 0.52709 0.34643
 H661 H 0.66182 0.52674 0.40677
 H662 H 0.68272 0.50606 0.20654
 H663 H 0.64660 0.50602 0.14708
 C664 C 0.88220 0.36676 0.24474
 C665 C 0.88364 0.36210 0.31773
 C666 C 0.86305 0.34170 0.35185
 C667 C 0.84072 0.32567 0.31334
 C668 C 0.83945 0.33053 0.23995
 C669 C 0.86008 0.35094 0.20590
 C670 C 0.90345 0.38778 0.20984
 C671 C 0.92139 0.40539 0.18109
 H672 H 0.90064 0.37427 0.34833
 H673 H 0.86446 0.33868 0.40863
 H674 H 0.82262 0.31837 0.20873
 H675 H 0.85880 0.35435 0.14931
   
