data_POSCAR
  _audit_creation_date              2014-09-24
  _audit_creation_method            'ToBaCCo'
  _symmetry_space_group_name_H-M    'P1'
  _symmetry_Int_Tables_number       1
  _symmetry_cell_setting            triclinic
  loop_
  _symmetry_equiv_pos_as_xyz
 x,y,z
_cell_length_a 44.6674
_cell_length_b 44.6567
_cell_length_c 51.1594
_cell_angle_alpha 90.058800
_cell_angle_beta 89.970100
_cell_angle_gamma 120.028600
loop_
  _atom_site_label
  _atom_site_type_symbol
  _atom_site_fract_x
  _atom_site_fract_y
  _atom_site_fract_z
O1 O 0.03304 0.54092 1.27520
 O2 O -0.03411 0.50726 1.22411
 O3 O -0.03424 0.50712 1.27501
 O4 O 0.03318 0.54124 1.22429
 O5 O 0.03338 0.49196 1.22410
 O6 O -0.03405 0.45783 1.27486
 O7 O -0.03390 0.45802 1.22396
 O8 O 0.03322 0.49163 1.27500
 Cu9 Cu -0.00056 0.52907 1.24967
 Cu10 Cu -0.00032 0.46992 1.24946
 C11 C 0.04460 0.52201 1.28388
 C12 C -0.04554 0.47685 1.21520
 C13 C -0.04566 0.47665 1.28366
 C14 C 0.04480 0.52244 1.21548
 O15 O 0.45877 0.49301 1.27601
 O16 O 0.49245 0.45944 1.22493
 O17 O 0.49249 0.45944 1.27585
 O18 O 0.45848 0.49276 1.22509
 O19 O 0.50776 0.54227 1.22499
 O20 O 0.54178 0.50895 1.27579
 O21 O 0.54173 0.50896 1.22488
 O22 O 0.50801 0.54246 1.27591
 Cu23 Cu 0.47061 0.47121 1.25048
 Cu24 Cu 0.52975 0.53062 1.25038
 C25 C 0.47761 0.52351 1.28479
 C26 C 0.52286 0.47848 1.21613
 C27 C 0.52294 0.47849 1.28455
 C28 C 0.47730 0.52320 1.21630
 O29 O 0.50711 0.96636 1.27640
 O30 O 0.54090 1.03357 1.22536
 O31 O 0.54079 1.03368 1.27628
 O32 O 0.50739 0.96625 1.22547
 O33 O 0.45797 0.96616 1.22531
 O34 O 0.49142 1.03359 1.27615
 O35 O 0.49148 1.03347 1.22523
 O36 O 0.45774 0.96627 1.27623
 Cu37 Cu 0.52899 0.99997 1.25090
 Cu38 Cu 0.46971 0.99986 1.25072
 C39 C 0.47661 0.95476 1.28514
 C40 C 0.52195 1.04500 1.21652
 C41 C 0.52185 1.04523 1.28501
 C42 C 0.47698 0.95469 1.21664
 O43 O 0.96689 0.50870 0.72421
 O44 O 1.03435 0.54210 0.77500
 O45 O 1.03420 0.54231 0.72408
 O46 O 0.96705 0.50867 0.77514
 O47 O 0.96688 0.45921 0.77497
 O48 O 1.03406 0.49290 0.72386
 O49 O 1.03419 0.49264 0.77478
 O50 O 0.96675 0.45924 0.72404
 Cu51 Cu 1.00064 0.53039 0.74963
 Cu52 Cu 1.00045 0.47105 0.74939
 C53 C 0.95529 0.47825 0.71540
 C54 C 1.04579 0.52307 0.78362
 C55 C 1.04568 0.52341 0.71513
 C56 C 0.95548 0.47820 0.78384
 O57 O 0.49151 0.45785 0.72463
 O58 O 0.45833 0.49207 0.77544
 O59 O 0.45808 0.49168 0.72454
 O60 O 0.49158 0.45806 0.77553
 O61 O 0.54112 0.50732 0.77541
 O62 O 0.50761 0.54096 0.72437
 O63 O 0.50787 0.54134 0.77528
 O64 O 0.54104 0.50712 0.72449
 Cu65 Cu 0.46991 0.46998 0.75005
 Cu66 Cu 0.52937 0.52912 0.74987
 C67 C 0.52195 0.47665 0.71582
 C68 C 0.47743 0.52256 0.78409
 C69 C 0.47711 0.52206 0.71568
 C70 C 0.52207 0.47693 0.78424
 O71 O 0.54199 0.03318 0.72423
 O72 O 0.50809 -0.03417 0.77502
 O73 O 0.50828 -0.03412 0.72411
 O74 O 0.54194 0.03312 0.77513
 O75 O 0.49262 0.03323 0.77509
 O76 O 0.45900 -0.03403 0.72403
 O77 O 0.45876 -0.03407 0.77494
 O78 O 0.49266 0.03327 0.72418
 Cu79 Cu 0.53001 -0.00051 0.74963
 Cu80 Cu 0.47082 -0.00039 0.74955
 C81 C 0.52311 0.04473 0.71547
 C82 C 0.47763 -0.04562 0.78372
 C83 C 0.47787 -0.04563 0.71524
 C84 C 0.52303 0.04467 0.78389
 O85 O 0.38394 0.66884 0.96991
 O86 O 0.38552 0.72719 0.97846
 C87 C 0.36399 0.73158 0.96511
 O88 O 0.33182 0.71543 0.96982
 O89 O 0.27344 0.65867 0.97825
 C90 C 0.26905 0.63269 0.96493
 O91 O 0.28518 0.61668 0.96971
 O92 O 0.34190 0.61510 0.97836
 C93 C 0.36793 0.63668 0.96512
 O94 O 0.38536 0.65868 1.02182
 O95 O 0.38374 0.71543 1.03036
 C96 C 0.36772 0.73156 1.03510
 O97 O 0.34179 0.72715 1.02175
 O98 O 0.28501 0.66877 1.03017
 C99 C 0.26884 0.63661 1.03489
 O100 O 0.27329 0.61505 1.02159
 O101 O 0.33160 0.61665 1.03025
 C102 C 0.36374 0.63267 1.03507
 Cr103 Cr 0.38280 0.69161 1.00013
 Cr104 Cr 0.30894 0.69159 1.00000
 Cr105 Cr 0.30891 0.61771 0.99998
 O106 O 0.33355 0.66697 1.00004
 O107 O 0.61651 0.33152 0.97009
 O108 O 0.61496 0.27314 0.97845
 C109 C 0.63648 0.26854 0.96523
 O110 O 0.66863 0.28461 0.97005
 O111 O 0.72705 0.34149 0.97834
 C112 C 0.73164 0.36761 0.96515
 O113 O 0.71560 0.38371 0.97001
 O114 O 0.65877 0.38525 0.97839
 C115 C 0.63260 0.36366 0.96524
 O116 O 0.61502 0.34152 1.02206
 O117 O 0.61659 0.28470 1.03041
 C118 C 0.63268 0.26866 1.03524
 O119 O 0.65880 0.27324 1.02203
 O120 O 0.71565 0.33168 1.03032
 C121 C 0.73171 0.36384 1.03515
 O122 O 0.72710 0.38536 1.02197
 O123 O 0.66872 0.38381 1.03036
 C124 C 0.63658 0.36771 1.03522
 Cr125 Cr 0.61765 0.30866 1.00025
 Cr126 Cr 0.69159 0.30869 1.00018
 Cr127 Cr 0.69161 0.38265 1.00018
 O128 O 0.66695 0.33334 1.00021
 O129 O 0.65816 0.38487 0.52151
 O130 O 0.71490 0.38329 0.53002
 C131 C 0.73109 0.36733 0.53475
 O132 O 0.72666 0.34133 0.52143
 O133 O 0.66829 0.28456 0.52992
 C134 C 0.63613 0.26837 0.53465
 O135 O 0.61456 0.27277 0.52136
 O136 O 0.61614 0.33110 0.52995
 C137 C 0.63214 0.36326 0.53476
 O138 O 0.66834 0.38334 0.46961
 O139 O 0.72666 0.38492 0.47812
 C140 C 0.73106 0.36335 0.46479
 O141 O 0.71490 0.33118 0.46953
 O142 O 0.65816 0.27280 0.47801
 C143 C 0.63217 0.26837 0.46471
 O144 O 0.61620 0.28455 0.46947
 O145 O 0.61460 0.34130 0.47807
 C146 C 0.63619 0.36735 0.46483
 Cr147 Cr 0.69110 0.38226 0.49981
 Cr148 Cr 0.69108 0.30839 0.49972
 Cr149 Cr 0.61722 0.30835 0.49971
 O150 O 0.66646 0.33300 0.49975
 O151 O 0.33154 0.61652 0.53002
 O152 O 0.27313 0.61493 0.52178
 C153 C 0.26855 0.63647 0.53499
 O154 O 0.28462 0.66863 0.53018
 O155 O 0.34146 0.72704 0.52182
 C156 C 0.36764 0.73164 0.53494
 O157 O 0.38372 0.71560 0.53003
 O158 O 0.38522 0.65874 0.52160
 C159 C 0.36369 0.63262 0.53480
 O160 O 0.34133 0.61492 0.47803
 O161 O 0.28450 0.61648 0.46979
 C162 C 0.26846 0.63258 0.46500
 O163 O 0.27308 0.65873 0.47821
 O164 O 0.33147 0.71560 0.46984
 C165 C 0.36360 0.73165 0.46496
 O166 O 0.38516 0.72703 0.47807
 O167 O 0.38354 0.66861 0.46965
 C168 C 0.36744 0.63645 0.46482
 Cr169 Cr 0.30856 0.61759 0.49990
 Cr170 Cr 0.30860 0.69156 0.50001
 Cr171 Cr 0.38253 0.69156 0.49984
 O172 O 0.33323 0.66691 0.49992
 C173 C 0.43956 0.56173 0.34408
 C174 C 0.47288 0.58257 0.33410
 C175 C 0.48547 0.57002 0.31443
 C176 C 0.46486 0.53628 0.30441
 C177 C 0.43126 0.51560 0.31461
 C178 C 0.41878 0.52827 0.33428
 C179 C 0.42682 0.57460 0.36453
 C180 C 0.41627 0.58538 0.38174
 C181 C 0.40380 0.59825 0.40239
 C182 C 0.42089 0.63364 0.40811
 C183 C 0.40904 0.64612 0.42835
 C184 C 0.37988 0.62331 0.44319
 C185 C 0.36281 0.58776 0.43719
 C186 C 0.37472 0.57536 0.41694
 H187 H 0.48920 0.60852 0.34156
 H188 H 0.51142 0.58682 0.30718
 H189 H 0.41452 0.48956 0.30750
 H190 H 0.39294 0.51191 0.34189
 H191 H 0.44344 0.65159 0.39697
 H192 H 0.42279 0.67362 0.43239
 H193 H 0.34028 0.56947 0.44817
 H194 H 0.36130 0.54790 0.41268
 C195 C 0.43819 0.87853 0.34438
 C196 C 0.47164 0.89114 0.33461
 C197 C 0.48437 0.91627 0.31496
 C198 C 0.46377 0.92926 0.30474
 C199 C 0.43004 0.91620 0.31473
 C200 C 0.41743 0.89107 0.33438
 C201 C 0.42526 0.85293 0.36481
 C202 C 0.41447 0.83160 0.38201
 C203 C 0.40165 0.80627 0.40263
 C204 C 0.42455 0.80003 0.41709
 C205 C 0.41220 0.77571 0.43731
 C206 C 0.37668 0.75727 0.44338
 C207 C 0.35385 0.76366 0.42863
 C208 C 0.36629 0.78800 0.40842
 H209 H 0.48794 0.88162 0.34223
 H210 H 0.51040 0.92553 0.30788
 H211 H 0.41331 0.92539 0.30747
 H212 H 0.39149 0.88149 0.34181
 H213 H 0.45198 0.81403 0.41279
 H214 H 0.43050 0.77143 0.44821
 H215 H 0.32638 0.74993 0.43272
 H216 H 0.34832 0.79263 0.39735
 C217 C 0.12191 0.56057 0.34422
 C218 C 0.10948 0.52727 0.33414
 C219 C 0.08442 0.51474 0.31444
 C220 C 0.07142 0.53541 0.30455
 C221 C 0.08418 0.56891 0.31477
 C222 C 0.10924 0.58137 0.33447
 C223 C 0.14744 0.57327 0.36470
 C224 C 0.16871 0.58379 0.38193
 C225 C 0.19397 0.59622 0.40260
 C226 C 0.21222 0.57911 0.40830
 C227 C 0.23652 0.59095 0.42854
 C228 C 0.24287 0.62012 0.44340
 C229 C 0.22444 0.63721 0.43743
 C230 C 0.20016 0.62530 0.41717
 H231 H 0.11910 0.51094 0.34155
 H232 H 0.07517 0.48886 0.30702
 H233 H 0.07473 0.58547 0.30760
 H234 H 0.11867 0.60718 0.34215
 H235 H 0.20762 0.55656 0.39714
 H236 H 0.25024 0.57720 0.43257
 H237 H 0.22869 0.65974 0.44841
 H238 H 0.18617 0.63874 0.41292
 C239 C 0.56201 0.43995 0.34451
 C240 C 0.52859 0.41905 0.33469
 C241 C 0.51589 0.43152 0.31511
 C242 C 0.53650 0.46513 0.30509
 C243 C 0.57012 0.48590 0.31505
 C244 C 0.58276 0.47336 0.33463
 C245 C 0.57488 0.42722 0.36487
 C246 C 0.58560 0.41660 0.38202
 C247 C 0.59834 0.40402 0.40260
 C248 C 0.57533 0.37500 0.41714
 C249 C 0.58762 0.36298 0.43734
 C250 C 0.62316 0.37988 0.44328
 C251 C 0.64609 0.40898 0.42843
 C252 C 0.63372 0.42094 0.40825
 H253 H 0.51231 0.39314 0.34222
 H254 H 0.48991 0.41488 0.30787
 H255 H 0.58665 0.51188 0.30777
 H256 H 0.60867 0.48976 0.34212
 H257 H 0.54788 0.36172 0.41291
 H258 H 0.56926 0.34050 0.44832
 H259 H 0.67358 0.42259 0.43244
 H260 H 0.65174 0.44344 0.39710
 C261 C 0.55981 0.12165 0.34410
 C262 C 0.52646 0.10903 0.33417
 C263 C 0.51388 0.08384 0.31456
 C264 C 0.53456 0.07082 0.30455
 C265 C 0.56821 0.08390 0.31468
 C266 C 0.58066 0.10909 0.33430
 C267 C 0.57254 0.14726 0.36451
 C268 C 0.58313 0.16859 0.38170
 C269 C 0.59566 0.19390 0.40232
 C270 C 0.57876 0.21237 0.40796
 C271 C 0.59067 0.23668 0.42819
 C272 C 0.61969 0.24282 0.44311
 C273 C 0.63659 0.22417 0.43718
 C274 C 0.62462 0.19988 0.41693
 H275 H 0.51010 0.11860 0.34165
 H276 H 0.48790 0.07456 0.30734
 H277 H 0.58499 0.07466 0.30757
 H278 H 0.60654 0.11869 0.34187
 H279 H 0.55631 0.20792 0.39676
 H280 H 0.57707 0.25058 0.43219
 H281 H 0.65901 0.22827 0.44822
 H282 H 0.63789 0.18570 0.41272
 C283 C 0.87694 0.43756 0.34380
 C284 C 0.88940 0.47097 0.33401
 C285 C 0.91448 0.48367 0.31434
 C286 C 0.92744 0.46306 0.30423
 C287 C 0.91462 0.42944 0.31415
 C288 C 0.88953 0.41680 0.33382
 C289 C 0.85148 0.42470 0.36428
 C290 C 0.83029 0.41399 0.38154
 C291 C 0.80516 0.40125 0.40225
 C292 C 0.79925 0.42425 0.41691
 C293 C 0.77510 0.41195 0.43723
 C294 C 0.75652 0.37640 0.44316
 C295 C 0.76259 0.35348 0.42820
 C296 C 0.78676 0.36586 0.40789
 H297 H 0.87982 0.48724 0.34163
 H298 H 0.92380 0.50965 0.30714
 H299 H 0.92405 0.41293 0.30680
 H300 H 0.88005 0.39090 0.34129
 H301 H 0.81338 0.45170 0.41269
 H302 H 0.77104 0.43030 0.44831
 H303 H 0.74873 0.32598 0.43219
 H304 H 0.79116 0.34785 0.39664
 C305 C 0.56190 0.43998 1.15587
 C306 C 0.58261 0.47340 1.16580
 C307 C 0.56998 0.48591 1.18547
 C308 C 0.53638 0.46511 1.19547
 C309 C 0.51580 0.43150 1.18541
 C310 C 0.52850 0.41905 1.16574
 C311 C 0.57483 0.42729 1.13543
 C312 C 0.58563 0.41675 1.11823
 C313 C 0.59848 0.40426 1.09759
 C314 C 0.63385 0.42137 1.09184
 C315 C 0.64630 0.40946 1.07162
 C316 C 0.62348 0.38023 1.05682
 C317 C 0.58795 0.36314 1.06285
 C318 C 0.57558 0.37510 1.08308
 H319 H 0.60850 0.48984 1.15830
 H320 H 0.58649 0.51189 1.19277
 H321 H 0.48984 0.41482 1.19267
 H322 H 0.51223 0.39314 1.15819
 H323 H 0.65181 0.44397 1.10295
 H324 H 0.67378 0.42323 1.06755
 H325 H 0.56966 0.34055 1.05191
 H326 H 0.54815 0.36166 1.08736
 C327 C 0.87834 0.43857 1.15587
 C328 C 0.89076 0.47191 1.16583
 C329 C 0.91585 0.48460 1.18551
 C330 C 0.92898 0.46405 1.19557
 C331 C 0.91611 0.43042 1.18540
 C332 C 0.89102 0.41786 1.16572
 C333 C 0.85279 0.42569 1.13541
 C334 C 0.83149 0.41490 1.11819
 C335 C 0.80622 0.40205 1.09754
 C336 C 0.80003 0.42493 1.08300
 C337 C 0.77575 0.41253 1.06275
 C338 C 0.75729 0.37699 1.05674
 C339 C 0.76364 0.35418 1.07156
 C340 C 0.78794 0.36666 1.09180
 H341 H 0.88111 0.48817 1.15833
 H342 H 0.92497 0.51056 1.19275
 H343 H 0.92543 0.41374 1.19254
 H344 H 0.88158 0.39200 1.15814
 H345 H 0.81404 0.45238 1.08728
 H346 H 0.77150 0.43081 1.05179
 H347 H 0.74990 0.32668 1.06751
 H348 H 0.79253 0.34872 1.10293
 C349 C 0.56062 0.12229 1.15616
 C350 C 0.58147 0.10979 1.16609
 C351 C 0.56898 0.08474 1.18580
 C352 C 0.53539 0.07183 1.19585
 C353 C 0.51467 0.08467 1.18578
 C354 C 0.52723 0.10971 1.16608
 C355 C 0.57335 0.14780 1.13566
 C356 C 0.58388 0.16905 1.11841
 C357 C 0.59633 0.19428 1.09772
 C358 C 0.62539 0.20043 1.08316
 C359 C 0.63729 0.22466 1.06288
 C360 C 0.62023 0.24312 1.05687
 C361 C 0.59110 0.23682 1.07173
 C362 C 0.57926 0.21257 1.09199
 H363 H 0.60735 0.11933 1.15855
 H364 H 0.58558 0.07542 1.19311
 H365 H 0.48872 0.07530 1.19307
 H366 H 0.51086 0.11920 1.15853
 H367 H 0.63880 0.18642 1.08743
 H368 H 0.65980 0.22887 1.05190
 H369 H 0.57736 0.25056 1.06768
 H370 H 0.55673 0.20801 1.10314
 C371 C 0.43807 0.56132 1.15615
 C372 C 0.41737 0.52798 1.16615
 C373 C 0.43005 0.51559 1.18581
 C374 C 0.46369 0.53646 1.19572
 C375 C 0.48425 0.57001 1.18560
 C376 C 0.47150 0.58232 1.16593
 C377 C 0.42515 0.57384 1.13567
 C378 C 0.41438 0.58424 1.11840
 C379 C 0.40161 0.59657 1.09769
 C380 C 0.36624 0.57949 1.09196
 C381 C 0.35386 0.59124 1.07164
 C382 C 0.37677 0.62028 1.05673
 C383 C 0.41229 0.63734 1.06274
 C384 C 0.42458 0.62553 1.08307
 H385 H 0.39145 0.51150 1.15869
 H386 H 0.41356 0.48966 1.19318
 H387 H 0.51024 0.58671 1.19279
 H388 H 0.48775 0.60818 1.15830
 H389 H 0.34824 0.55704 1.10316
 H390 H 0.32638 0.57753 1.06758
 H391 H 0.43063 0.65978 1.05171
 H392 H 0.45202 0.63893 1.08735
 C393 C 0.12242 0.56183 1.15549
 C394 C 0.10975 0.58251 1.16550
 C395 C 0.08458 0.56977 1.18510
 C396 C 0.07175 0.53610 1.19494
 C397 C 0.08476 0.51556 1.18481
 C398 C 0.10993 0.52837 1.16520
 C399 C 0.14797 0.57481 1.13509
 C400 C 0.16926 0.58564 1.11789
 C401 C 0.19449 0.59849 1.09726
 C402 C 0.21285 0.63388 1.09165
 C403 C 0.23711 0.64635 1.07141
 C404 C 0.24330 0.62349 1.05646
 C405 C 0.22475 0.58793 1.06235
 C406 C 0.20051 0.57556 1.08261
 H407 H 0.11925 0.60845 1.15809
 H408 H 0.07511 0.58624 1.19248
 H409 H 0.07542 0.48955 1.19195
 H410 H 0.11956 0.51215 1.15756
 H411 H 0.20835 0.65184 1.10289
 H412 H 0.25094 0.67386 1.06744
 H413 H 0.22890 0.56963 1.05129
 H414 H 0.18641 0.54809 1.08680
 C415 C 0.43879 0.87732 1.15637
 C416 C 0.41784 0.88982 1.16614
 C417 C 0.43018 0.91489 1.18585
 C418 C 0.46369 0.92780 1.19603
 C419 C 0.48449 0.91495 1.18614
 C420 C 0.47208 0.88988 1.16643
 C421 C 0.42626 0.85189 1.13584
 C422 C 0.41587 0.83071 1.11854
 C423 C 0.40360 0.80560 1.09779
 C424 C 0.37475 0.79965 1.08306
 C425 C 0.36301 0.77553 1.06270
 C426 C 0.38003 0.75701 1.05678
 C427 C 0.40897 0.76312 1.07179
 C428 C 0.42065 0.78727 1.09214
 H429 H 0.39203 0.88028 1.15846
 H430 H 0.41353 0.92424 1.19303
 H431 H 0.51039 0.92433 1.19355
 H432 H 0.48851 0.88038 1.15899
 H433 H 0.36137 0.81372 1.08728
 H434 H 0.34064 0.77144 1.05159
 H435 H 0.42266 0.74931 1.06780
 H436 H 0.44303 0.79169 1.10343
 C437 C 0.56019 0.43742 0.65568
 C438 C 0.58117 0.47084 0.66550
 C439 C 0.56880 0.48359 0.68516
 C440 C 0.53522 0.46301 0.69524
 C441 C 0.51438 0.42938 0.68530
 C442 C 0.52682 0.41670 0.66564
 C443 C 0.57279 0.42452 0.63522
 C444 C 0.58330 0.41379 0.61798
 C445 C 0.59575 0.40107 0.59729
 C446 C 0.62472 0.42408 0.58270
 C447 C 0.63664 0.41181 0.56240
 C448 C 0.61968 0.37628 0.55640
 C449 C 0.59063 0.35333 0.57128
 C450 C 0.57877 0.36569 0.59157
 H451 H 0.60704 0.48710 0.65790
 H452 H 0.58549 0.50958 0.69238
 H453 H 0.48843 0.41289 0.69264
 H454 H 0.51037 0.39079 0.65816
 H455 H 0.63804 0.45153 0.58698
 H456 H 0.65909 0.43018 0.55138
 H457 H 0.57699 0.32584 0.56723
 H458 H 0.55631 0.34766 0.60276
 C459 C 0.56200 0.12215 0.65536
 C460 C 0.52860 0.10962 0.66521
 C461 C 0.51596 0.08452 0.68486
 C462 C 0.53663 0.07162 0.69490
 C463 C 0.57023 0.08449 0.68492
 C464 C 0.58281 0.10960 0.66528
 C465 C 0.57481 0.14765 0.63493
 C466 C 0.58550 0.16889 0.61771
 C467 C 0.59823 0.19410 0.59706
 C468 C 0.57523 0.20000 0.58244
 C469 C 0.58753 0.22422 0.56217
 C470 C 0.62307 0.24286 0.55625
 C471 C 0.64599 0.23680 0.57117
 C472 C 0.63361 0.21256 0.59142
 H473 H 0.51228 0.11916 0.65765
 H474 H 0.48999 0.07515 0.69211
 H475 H 0.58679 0.07511 0.69222
 H476 H 0.60870 0.11913 0.65776
 H477 H 0.54778 0.18582 0.58666
 H478 H 0.56918 0.22827 0.55112
 H479 H 0.67349 0.25070 0.56718
 H480 H 0.65163 0.20817 0.60263
 C481 C 0.87769 0.43971 0.65535
 C482 C 0.89024 0.41883 0.66512
 C483 C 0.91540 0.43129 0.68474
 C484 C 0.92836 0.46488 0.69483
 C485 C 0.91547 0.48562 0.68493
 C486 C 0.89031 0.47309 0.66531
 C487 C 0.85211 0.42699 0.63493
 C488 C 0.83080 0.41640 0.61774
 C489 C 0.80552 0.40387 0.59712
 C490 C 0.79955 0.37491 0.58248
 C491 C 0.77528 0.36293 0.56223
 C492 C 0.75663 0.37982 0.55634
 C493 C 0.76275 0.40885 0.57128
 C494 C 0.78705 0.42077 0.59151
 H495 H 0.88065 0.39295 0.65752
 H496 H 0.92476 0.41467 0.69193
 H497 H 0.92490 0.51158 0.69227
 H498 H 0.88078 0.48947 0.65786
 H499 H 0.81373 0.36164 0.58667
 H500 H 0.77119 0.34050 0.55118
 H501 H 0.74886 0.42245 0.56732
 H502 H 0.79149 0.44322 0.60273
 C503 C 0.43833 0.56062 0.65542
 C504 C 0.41744 0.52733 0.66548
 C505 C 0.42998 0.51480 0.68515
 C506 C 0.46367 0.53545 0.69503
 C507 C 0.48444 0.56894 0.68484
 C508 C 0.47182 0.58140 0.66517
 C509 C 0.42548 0.57331 0.63497
 C510 C 0.41472 0.58384 0.61777
 C511 C 0.40187 0.59627 0.59713
 C512 C 0.36649 0.57918 0.59144
 C513 C 0.35402 0.59101 0.57122
 C514 C 0.37684 0.62017 0.55638
 C515 C 0.41238 0.63724 0.56235
 C516 C 0.42476 0.62534 0.58258
 H517 H 0.39147 0.51101 0.65806
 H518 H 0.41333 0.48892 0.69255
 H519 H 0.51047 0.58549 0.69201
 H520 H 0.48823 0.60721 0.65751
 H521 H 0.34854 0.55664 0.60258
 H522 H 0.32653 0.57727 0.56720
 H523 H 0.43066 0.65977 0.55137
 H524 H 0.45221 0.63877 0.58682
 C525 C 0.43991 0.87820 0.65587
 C526 C 0.41910 0.89079 0.66571
 C527 C 0.43154 0.91589 0.68541
 C528 C 0.46515 0.92886 0.69561
 C529 C 0.48579 0.91581 0.68556
 C530 C 0.47322 0.89071 0.66586
 C531 C 0.42720 0.85265 0.63538
 C532 C 0.41666 0.83137 0.61813
 C533 C 0.40417 0.80610 0.59744
 C534 C 0.37505 0.79991 0.58296
 C535 C 0.36309 0.77564 0.56268
 C536 C 0.38016 0.75722 0.55657
 C537 C 0.40937 0.76357 0.57134
 C538 C 0.42126 0.78785 0.59161
 H539 H 0.39325 0.88128 0.65810
 H540 H 0.41478 0.92515 0.69255
 H541 H 0.51174 0.92500 0.69280
 H542 H 0.48956 0.88113 0.65837
 H543 H 0.36162 0.81389 0.58731
 H544 H 0.34053 0.77139 0.55176
 H545 H 0.42311 0.74985 0.56721
 H546 H 0.44384 0.79245 0.60270
 C547 C 0.12184 0.56175 0.65578
 C548 C 0.10921 0.52830 0.66554
 C549 C 0.08411 0.51559 0.68522
 C550 C 0.07116 0.53622 0.69550
 C551 C 0.08424 0.56996 0.68552
 C552 C 0.10934 0.58254 0.66584
 C553 C 0.14742 0.57466 0.63532
 C554 C 0.16873 0.58545 0.61809
 C555 C 0.19403 0.59831 0.59743
 C556 C 0.20022 0.57542 0.58286
 C557 C 0.22450 0.58781 0.56260
 C558 C 0.24297 0.62335 0.55662
 C559 C 0.23663 0.64616 0.57148
 C560 C 0.21232 0.63370 0.59172
 H561 H 0.11871 0.51197 0.65788
 H562 H 0.07484 0.48955 0.69229
 H563 H 0.07507 0.58672 0.69283
 H564 H 0.11893 0.60848 0.65842
 H565 H 0.18620 0.54797 0.58710
 H566 H 0.22874 0.56952 0.55162
 H567 H 0.25038 0.67366 0.56745
 H568 H 0.20774 0.65165 0.60288
 C569 C 0.43940 0.56202 0.84421
 C570 C 0.47274 0.58268 0.83419
 C571 C 0.48510 0.56992 0.81454
 C572 C 0.46421 0.53625 0.80467
 C573 C 0.43066 0.51573 0.81481
 C574 C 0.41837 0.52856 0.83446
 C575 C 0.42689 0.57502 0.86467
 C576 C 0.41648 0.58585 0.88191
 C577 C 0.40413 0.59867 0.90260
 C578 C 0.42120 0.63405 0.90830
 C579 C 0.40942 0.64649 0.92860
 C580 C 0.38036 0.62361 0.94350
 C581 C 0.36332 0.58806 0.93752
 C582 C 0.37516 0.57572 0.91722
 H583 H 0.48923 0.60862 0.84162
 H584 H 0.51104 0.58637 0.80716
 H585 H 0.41394 0.48972 0.80764
 H586 H 0.39252 0.51236 0.84211
 H587 H 0.44366 0.65203 0.89710
 H588 H 0.42312 0.67399 0.93263
 H589 H 0.34086 0.56974 0.94854
 H590 H 0.36177 0.54826 0.91295
 C591 C 0.12325 0.56128 0.84378
 C592 C 0.11077 0.58224 0.83406
 C593 C 0.08567 0.56990 0.81439
 C594 C 0.07271 0.53636 0.80420
 C595 C 0.08554 0.51554 0.81405
 C596 C 0.11064 0.52795 0.83371
 C597 C 0.14872 0.57383 0.86427
 C598 C 0.16991 0.58425 0.88154
 C599 C 0.19504 0.59659 0.90227
 C600 C 0.20101 0.62552 0.91695
 C601 C 0.22513 0.63733 0.93729
 C602 C 0.24363 0.62031 0.94325
 C603 C 0.23751 0.59130 0.92828
 C604 C 0.21336 0.57954 0.90795
 H605 H 0.12035 0.60808 0.84174
 H606 H 0.07634 0.58657 0.80724
 H607 H 0.07611 0.48962 0.80664
 H608 H 0.12011 0.51151 0.84113
 H609 H 0.18696 0.63890 0.91271
 H610 H 0.22923 0.65975 0.94837
 H611 H 0.25129 0.57761 0.93230
 H612 H 0.20891 0.55711 0.89670
 C613 C 0.43859 0.87713 0.84395
 C614 C 0.47200 0.88960 0.83414
 C615 C 0.48469 0.91463 0.81444
 C616 C 0.46407 0.92753 0.80431
 C617 C 0.43044 0.91470 0.81424
 C618 C 0.41782 0.88967 0.83393
 C619 C 0.42572 0.85174 0.86447
 C620 C 0.41496 0.83060 0.88176
 C621 C 0.40213 0.80553 0.90249
 C622 C 0.42506 0.79963 0.91722
 C623 C 0.41268 0.77554 0.93757
 C624 C 0.37712 0.75701 0.94347
 C625 C 0.35428 0.76308 0.92846
 C626 C 0.36674 0.78720 0.90812
 H627 H 0.48829 0.88007 0.84179
 H628 H 0.51068 0.92397 0.80723
 H629 H 0.41391 0.92407 0.80687
 H630 H 0.39192 0.88019 0.84141
 H631 H 0.45251 0.81371 0.91301
 H632 H 0.43097 0.77148 0.94868
 H633 H 0.32677 0.74927 0.93243
 H634 H 0.34878 0.79160 0.89683
 C635 C 0.56052 0.43805 0.84450
 C636 C 0.52710 0.41732 0.83461
 C637 C 0.51461 0.42990 0.81494
 C638 C 0.53542 0.46346 0.80489
 C639 C 0.56904 0.48406 0.81491
 C640 C 0.58147 0.47141 0.83459
 C641 C 0.57319 0.42518 0.86496
 C642 C 0.58371 0.41443 0.88218
 C643 C 0.59616 0.40164 0.90283
 C644 C 0.57906 0.36627 0.90859
 C645 C 0.59092 0.35386 0.92883
 C646 C 0.62012 0.37673 0.94364
 C647 C 0.63720 0.41225 0.93760
 C648 C 0.62527 0.42457 0.91735
 H649 H 0.51065 0.39145 0.84216
 H650 H 0.48863 0.41337 0.80767
 H651 H 0.58572 0.50999 0.80761
 H652 H 0.60738 0.48769 0.84212
 H653 H 0.55649 0.34828 0.89748
 H654 H 0.57717 0.32638 0.93291
 H655 H 0.65976 0.43057 0.94854
 H656 H 0.63872 0.45201 0.91306
 C657 C 0.87817 0.43963 0.84424
 C658 C 0.89080 0.47303 0.83434
 C659 C 0.91586 0.48555 0.81463
 C660 C 0.92866 0.46480 0.80454
 C661 C 0.91571 0.43120 0.81457
 C662 C 0.89064 0.41874 0.83428
 C663 C 0.85264 0.42693 0.86474
 C664 C 0.83136 0.41641 0.88198
 C665 C 0.80610 0.40397 0.90267
 C666 C 0.78782 0.42105 0.90843
 C667 C 0.76354 0.40922 0.92869
 C668 C 0.75721 0.38007 0.94352
 C669 C 0.77566 0.36300 0.93749
 C670 C 0.79992 0.37490 0.91721
 H671 H 0.88134 0.48944 0.84190
 H672 H 0.92526 0.51152 0.80735
 H673 H 0.92500 0.41456 0.80724
 H674 H 0.88107 0.39285 0.84181
 H675 H 0.79240 0.44359 0.89730
 H676 H 0.74981 0.42296 0.93276
 H677 H 0.77142 0.34047 0.94845
 H678 H 0.81392 0.36146 0.91293
 C679 C 0.56188 0.12202 0.84428
 C680 C 0.52849 0.10952 0.83439
 C681 C 0.51586 0.08444 0.81467
 C682 C 0.53650 0.07152 0.80458
 C683 C 0.57009 0.08436 0.81460
 C684 C 0.58265 0.10943 0.83432
 C685 C 0.57473 0.14755 0.86479
 C686 C 0.58549 0.16881 0.88205
 C687 C 0.59833 0.19406 0.90275
 C688 C 0.57544 0.20022 0.91733
 C689 C 0.58781 0.22449 0.93761
 C690 C 0.62335 0.24295 0.94361
 C691 C 0.64616 0.23663 0.92875
 C692 C 0.63370 0.21235 0.90848
 H693 H 0.51218 0.11907 0.84198
 H694 H 0.48991 0.07512 0.80740
 H695 H 0.58664 0.07497 0.80727
 H696 H 0.60853 0.11891 0.84184
 H697 H 0.54799 0.18620 0.91306
 H698 H 0.56953 0.22872 0.94860
 H699 H 0.67365 0.25038 0.93279
 H700 H 0.65166 0.20778 0.89731
   
