data_POSCAR
  _audit_creation_date              2014-09-24
  _audit_creation_method            'ToBaCCo'
  _symmetry_space_group_name_H-M    'P1'
  _symmetry_Int_Tables_number       1
  _symmetry_cell_setting            triclinic
  loop_
  _symmetry_equiv_pos_as_xyz
 x,y,z
_cell_length_a 33.7931
_cell_length_b 15.3549
_cell_length_c 14.1596
_cell_angle_alpha 89.298300
_cell_angle_beta 90.860100
_cell_angle_gamma 83.458900
loop_
  _atom_site_label
  _atom_site_type_symbol
  _atom_site_fract_x
  _atom_site_fract_y
  _atom_site_fract_z
O1 O 0.70682 0.30464 0.58530
 O2 O 0.77732 0.34852 0.40112
 O3 O 0.70480 0.30558 0.40336
 O4 O 0.77927 0.34585 0.58563
 O5 O 0.80169 0.20484 0.58720
 O6 O 0.72788 0.16494 0.40376
 O7 O 0.80010 0.20778 0.40556
 O8 O 0.72903 0.16351 0.58803
 Cu9 Cu 0.73977 0.34036 0.49391
 Cu10 Cu 0.76695 0.17101 0.49602
 C11 C 0.70559 0.22756 0.61733
 C12 C 0.80118 0.28471 0.37275
 C13 C 0.70358 0.22842 0.37296
 C14 C 0.80323 0.28202 0.61709
 O15 O 0.22212 0.66115 0.41301
 O16 O 0.29871 0.69373 0.59373
 O17 O 0.22436 0.65792 0.59803
 O18 O 0.29611 0.69350 0.41188
 O19 O 0.27675 0.83588 0.40996
 O20 O 0.20411 0.79984 0.59393
 O21 O 0.27768 0.83519 0.59485
 O22 O 0.20230 0.80334 0.41164
 Cu23 Cu 0.26223 0.66250 0.50429
 Cu24 Cu 0.23826 0.83262 0.50279
 C25 C 0.19914 0.72675 0.38180
 C26 C 0.30145 0.77027 0.62447
 C27 C 0.20158 0.72350 0.62674
 C28 C 0.29904 0.76999 0.38002
 O29 O 0.19799 0.31716 -0.44857
 O30 O 0.27982 0.30762 -0.61675
 O31 O 0.20823 0.25416 -0.61673
 O32 O 0.26777 0.36503 -0.44591
 O33 O 0.29253 0.23692 -0.38492
 O34 O 0.23684 0.12630 -0.56305
 O35 O 0.30503 0.17949 -0.55609
 O36 O 0.22020 0.18464 -0.39491
 Cu37 Cu 0.23607 0.32393 -0.53872
 Cu38 Cu 0.26619 0.16916 -0.46745
 C39 C 0.19480 0.25241 -0.39383
 C40 C 0.30623 0.24187 -0.61522
 C41 C 0.21269 0.17092 -0.61927
 C42 C 0.28997 0.32000 -0.38600
 O43 O -0.19796 0.75927 -0.41333
 O44 O -0.25652 0.64137 -0.57975
 O45 O -0.19984 0.74526 -0.59539
 O46 O -0.25514 0.66331 -0.39456
 O47 O -0.30153 0.77620 -0.41216
 O48 O -0.24637 0.85788 -0.61080
 O49 O -0.30211 0.75608 -0.59362
 O50 O -0.24348 0.87426 -0.42633
 Cu51 Cu -0.22308 0.69012 -0.49513
 Cu52 Cu -0.27776 0.82783 -0.51213
 C53 C -0.21090 0.83693 -0.39123
 C54 C -0.28916 0.67808 -0.61474
 C55 C -0.21379 0.81629 -0.63701
 C56 C -0.28745 0.70654 -0.36873
 N57 N -0.04767 0.88547 -0.11693
 N58 N -0.08338 0.86014 -0.13196
 N59 N 0.04169 0.90190 -0.16036
 N60 N 0.07314 0.87891 -0.21219
 N61 N 0.03554 0.83856 -0.10103
 N62 N 0.06278 0.77042 -0.11119
 N63 N -0.04125 0.94781 -0.17738
 N64 N -0.07241 0.96712 -0.23395
 C65 C -0.09808 0.91125 -0.20600
 C66 C 0.08593 0.79688 -0.18095
 N67 N 0.05324 1.14326 -0.08161
 N68 N 0.07967 1.19805 -0.09863
 N69 N -0.03019 1.12925 -0.16601
 N70 N -0.06025 1.15247 -0.22467
 N71 N -0.02962 1.18567 -0.09720
 N72 N -0.05932 1.24924 -0.10764
 N73 N 0.05293 1.08553 -0.14933
 N74 N 0.07963 1.09949 -0.21352
 Mn75 Mn 0.00601 1.01583 -0.16414
 C76 C 0.09670 1.16855 -0.17949
 C77 C -0.07787 1.22753 -0.18806
 N78 N 0.02974 0.82926 0.10196
 N79 N 0.05934 0.76530 0.11144
 N80 N -0.05125 0.93128 0.15602
 N81 N -0.08331 0.93696 0.20840
 N82 N -0.05386 0.87526 0.08748
 N83 N -0.08818 0.84138 0.09152
 N84 N 0.03147 0.88637 0.16981
 N85 N 0.06208 0.86302 0.22694
 Mn86 Mn -0.00924 0.85576 -0.00729
 C87 C 0.07895 0.78727 0.19035
 C88 C -0.10585 0.87994 0.16834
 N89 N -0.03514 1.17621 0.10521
 N90 N -0.06268 1.24369 0.11463
 N91 N 0.04244 1.06844 0.18037
 N92 N 0.07439 1.04823 0.23391
 N93 N 0.04792 1.13179 0.12042
 N94 N 0.08387 1.15670 0.13241
 N95 N -0.04040 1.11344 0.16586
 N96 N -0.07180 1.13595 0.21780
 Mn97 Mn 0.00908 1.16020 0.01193
 Mn98 Mn -0.00446 0.99994 0.16890
 Cl99 Cl 0.00037 1.00778 0.00225
 C100 C -0.08523 1.21718 0.18521
 C101 C 0.09961 1.10446 0.20444
 N102 N 0.55407 0.63092 -0.08482
 N103 N 0.58763 0.66766 -0.08644
 N104 N 0.46927 0.61564 -0.17017
 N105 N 0.43841 0.63773 -0.22694
 N106 N 0.47014 0.67185 -0.10117
 N107 N 0.43980 0.73416 -0.10973
 N108 N 0.55235 0.57755 -0.15618
 N109 N 0.58407 0.57795 -0.20935
 C110 C 0.60577 0.63434 -0.16509
 C111 C 0.42056 0.71195 -0.18902
 N112 N 0.45674 0.36766 -0.12620
 N113 N 0.42133 0.34028 -0.13895
 N114 N 0.54452 0.39346 -0.16983
 N115 N 0.57599 0.37317 -0.22239
 N116 N 0.54004 0.32937 -0.11018
 N117 N 0.56818 0.26336 -0.12076
 N118 N 0.46127 0.43253 -0.18499
 N119 N 0.42914 0.45136 -0.23838
 Mn120 Mn 0.50691 0.50474 -0.17128
 C121 C 0.40488 0.39254 -0.21020
 C122 C 0.59028 0.29196 -0.19097
 N123 N 0.46383 0.65868 0.10137
 N124 N 0.43633 0.72588 0.11357
 N125 N 0.54177 0.55392 0.17749
 N126 N 0.57307 0.53631 0.23405
 N127 N 0.54716 0.61794 0.11832
 N128 N 0.58216 0.64630 0.13423
 N129 N 0.45842 0.59396 0.15960
 N130 N 0.42715 0.61515 0.21272
 Mn131 Mn 0.50894 0.64614 0.00851
 C132 C 0.41369 0.69747 0.18321
 C133 C 0.59761 0.59521 0.20746
 N134 N 0.53429 0.31592 0.09188
 N135 N 0.56512 0.25492 0.10079
 N136 N 0.45042 0.40863 0.14465
 N137 N 0.42332 0.39239 0.20697
 N138 N 0.45120 0.35215 0.07551
 N139 N 0.42510 0.29597 0.08941
 N140 N 0.53380 0.37122 0.16201
 N141 N 0.56430 0.34976 0.22000
 Mn142 Mn 0.49560 0.34034 -0.01749
 Mn143 Mn 0.49587 0.48216 0.16189
 Cl144 Cl 0.50179 0.49347 -0.00446
 C145 C 0.58327 0.27689 0.18163
 C146 C 0.40736 0.32293 0.17035
 C147 C 0.33799 0.23624 0.31543
 C148 C 0.35326 0.15903 0.27427
 C149 C 0.38045 0.18236 0.21164
 C150 C 0.38018 0.27172 0.22085
 O151 O 0.35430 0.30499 0.28357
 H152 H 0.34502 0.09392 0.28738
 H153 H 0.39897 0.13923 0.16624
 C154 C -0.19311 0.85004 0.28864
 C155 C -0.20771 0.92236 0.23441
 C156 C -0.17760 0.93739 0.17565
 C157 C -0.14688 0.87320 0.19766
 O158 O -0.15600 0.82031 0.26682
 H159 H -0.23635 0.96141 0.23950
 H160 H -0.17709 0.99201 0.12680
 C161 C 0.68706 0.62905 0.32166
 C162 C 0.69768 0.54340 0.29548
 C163 C 0.66555 0.52015 0.24672
 C164 C 0.63823 0.59395 0.24496
 O165 O 0.65102 0.66019 0.29050
 H166 H 0.72501 0.50204 0.31260
 H167 H 0.66204 0.45661 0.21749
 C168 C 0.18980 1.12722 0.31872
 C169 C 0.19587 1.03797 0.30399
 C170 C 0.16369 1.01931 0.25288
 C171 C 0.14077 1.09856 0.23867
 O172 O 0.15656 1.16462 0.27775
 H173 H 0.22015 0.99153 0.33006
 H174 H 0.15669 0.95507 0.23226
 C175 C 0.67567 0.21425 -0.31240
 C176 C 0.67247 0.13790 -0.26214
 C177 C 0.63972 0.15657 -0.20717
 C178 C 0.62569 0.24241 -0.22928
 O179 O 0.64741 0.27733 -0.29261
 H180 H 0.69153 0.07643 -0.26550
 H181 H 0.62731 0.11288 -0.15804
 C182 C 0.17097 0.71286 -0.30286
 C183 C 0.16616 0.63692 -0.25330
 C184 C 0.13350 0.65794 -0.19840
 C185 C 0.12094 0.74473 -0.21953
 O186 O 0.14360 0.77796 -0.28252
 H187 H 0.18409 0.57404 -0.25715
 H188 H 0.12017 0.61507 -0.15003
 C189 C 0.33137 0.78290 -0.31006
 C190 C 0.33534 0.86045 -0.26413
 C191 C 0.36904 0.84377 -0.20923
 C192 C 0.38331 0.75806 -0.22730
 O193 O 0.36049 0.72087 -0.28780
 H194 H 0.31607 0.92167 -0.27007
 H195 H 0.38219 0.88910 -0.16364
 C196 C -0.16621 1.29679 -0.31216
 C197 C -0.16527 1.37155 -0.25939
 C198 C -0.13176 1.35593 -0.20347
 C199 C -0.11483 1.27347 -0.22772
 O200 O -0.13567 1.23752 -0.29315
 H201 H -0.18650 1.42993 -0.26118
 H202 H -0.12082 1.39943 -0.15215
 C203 C 0.69155 0.67745 -0.28596
 C204 C 0.70959 0.65559 -0.19960
 C205 C 0.67931 0.64021 -0.14097
 C206 C 0.64528 0.65232 -0.19660
 O207 O 0.65252 0.67517 -0.28458
 H208 H 0.74090 0.65319 -0.18125
 H209 H 0.68180 0.62030 -0.06733
 C210 C 0.16308 1.25682 -0.33196
 C211 C 0.13925 1.33344 -0.31237
 C212 C 0.11253 1.31017 -0.24870
 C213 C 0.12135 1.22096 -0.23607
 O214 O 0.15214 1.18798 -0.28608
 H215 H 0.14140 1.39864 -0.34039
 H216 H 0.08852 1.35250 -0.21763
 C217 C 0.31399 0.36536 -0.31978
 C218 C 0.30586 0.45291 -0.29844
 C219 C 0.33844 0.47317 -0.24966
 C220 C 0.36362 0.39614 -0.24348
 O221 O 0.34900 0.33033 -0.28590
 H222 H 0.27998 0.49741 -0.31931
 H223 H 0.34398 0.53713 -0.22478
 C224 C -0.18716 0.88426 -0.32578
 C225 C -0.19693 0.97011 -0.29944
 C226 C -0.16502 0.99055 -0.24765
 C227 C -0.13871 0.91505 -0.24445
 O228 O -0.15187 0.85048 -0.29213
 H229 H -0.22343 1.01346 -0.31863
 H230 H -0.16087 1.05354 -0.21787
 C231 C 0.32945 0.78059 0.30908
 C232 C 0.33417 0.85689 0.26015
 C233 C 0.36644 0.83608 0.20408
 C234 C 0.37893 0.74898 0.22387
 O235 O 0.35655 0.71534 0.28724
 H236 H 0.31640 0.91988 0.26511
 H237 H 0.37958 0.87930 0.15575
 C238 C -0.17026 1.29732 0.30643
 C239 C -0.16536 1.37498 0.26008
 C240 C -0.13270 1.35557 0.20481
 C241 C -0.12036 1.26815 0.22298
 O242 O -0.14308 1.23293 0.28385
 H243 H -0.18311 1.43786 0.26639
 H244 H -0.11907 1.39990 0.15872
 C245 C 0.67303 0.21292 0.30245
 C246 C 0.67299 0.13868 0.24846
 C247 C 0.63912 0.15256 0.19368
 C248 C 0.62106 0.23352 0.21975
 O249 O 0.64157 0.27028 0.28527
 H250 H 0.69504 0.08171 0.24879
 H251 H 0.62866 0.10881 0.14196
 C252 C 0.16790 0.71444 0.31154
 C253 C 0.16580 0.64002 0.25882
 C254 C 0.13204 0.65723 0.20409
 C255 C 0.11602 0.74025 0.22876
 O256 O 0.13773 0.77510 0.29351
 H257 H 0.18643 0.58068 0.26001
 H258 H 0.12029 0.61430 0.15335
   
