data_POSCAR
  _audit_creation_date              2014-09-24
  _audit_creation_method            'ToBaCCo'
  _symmetry_space_group_name_H-M    'P1'
  _symmetry_Int_Tables_number       1
  _symmetry_cell_setting            triclinic
  loop_
  _symmetry_equiv_pos_as_xyz
 x,y,z
_cell_length_a 22.2807
_cell_length_b 22.4613
_cell_length_c 28.7569
_cell_angle_alpha 88.981900
_cell_angle_beta 89.979500
_cell_angle_gamma 121.030100
loop_
  _atom_site_label
  _atom_site_type_symbol
  _atom_site_fract_x
  _atom_site_fract_y
  _atom_site_fract_z
C1 C 0.00862 0.53018 1.37090
 C2 C 0.07058 0.55116 1.34550
 C3 C 0.06604 0.53910 1.29756
 C4 C 0.00092 0.50713 1.27441
 C5 C -0.06037 0.48527 1.30146
 C6 C -0.05741 0.49488 1.34969
 C7 C -0.00375 0.49384 1.22285
 C8 C -0.06453 0.47873 1.19763
 C9 C -0.07165 0.45983 1.15089
 C10 C -0.01586 0.46114 1.12757
 C11 C 0.04702 0.48216 1.15027
 C12 C 0.05226 0.49598 1.19793
 H13 H 0.01165 0.53932 1.40777
 H14 H 0.11449 0.55757 1.27861
 H15 H -0.11155 0.45637 1.28601
 H16 H -0.10714 0.48095 1.21368
 H17 H -0.01976 0.45041 1.09071
 H18 H 0.10061 0.50831 1.21454
 C19 C 0.47490 0.47633 1.36931
 C20 C 0.44125 0.50521 1.34401
 C21 C 0.43421 0.49600 1.29594
 C22 C 0.45848 0.45748 1.27289
 C23 C 0.48302 0.42153 1.29989
 C24 C 0.49609 0.43427 1.34738
 C25 C 0.46653 0.46210 1.22109
 C26 C 0.51810 0.45271 1.19965
 C27 C 0.52905 0.46147 1.15170
 C28 C 0.49399 0.48630 1.12502
 C29 C 0.44427 0.49785 1.14549
 C30 C 0.42767 0.48200 1.19274
 H31 H 0.47940 0.48154 1.40665
 H32 H 0.41423 0.52367 1.27657
 H33 H 0.49694 0.38719 1.28359
 H34 H 0.54996 0.43818 1.21945
 H35 H 0.50400 0.49465 1.08785
 H36 H 0.38595 0.48749 1.20701
 C37 C 0.53313 1.01439 1.37263
 C38 C 0.50902 0.95137 1.35018
 C39 C 0.50403 0.94945 1.30174
 C40 C 0.51532 1.00818 1.27542
 C41 C 0.53547 1.07052 1.29933
 C42 C 0.54797 1.07518 1.34774
 C43 C 0.50594 1.00342 1.22341
 C44 C 0.54485 1.06248 1.19378
 C45 C 0.53678 1.05722 1.14520
 C46 C 0.49360 0.99198 1.12601
 C47 C 0.45585 0.93251 1.15414
 C48 C 0.45952 0.93876 1.20264
 H49 H 0.53667 1.01450 1.41019
 H50 H 0.48938 0.90107 1.28509
 H51 H 0.54304 1.11597 1.28034
 H52 H 0.58136 1.11258 1.20809
 H53 H 0.48961 0.98717 1.08853
 H54 H 0.42724 0.89258 1.22373
 C55 C 1.00721 0.48604 0.63149
 C56 C 0.94401 0.45332 0.65636
 C57 C 0.94410 0.46148 0.70435
 C58 C 1.00728 0.50177 0.72899
 C59 C 1.07058 0.53648 0.70251
 C60 C 1.07131 0.52853 0.65395
 C61 C 1.00601 0.50771 0.78149
 C62 C 1.06616 0.55600 0.80680
 C63 C 1.06319 0.55955 0.85551
 C64 C 0.99889 0.52050 0.87858
 C65 C 0.93957 0.47188 0.85517
 C66 C 0.94392 0.46327 0.80755
 H67 H 1.00506 0.48102 0.59406
 H68 H 0.89350 0.43793 0.72117
 H69 H 1.12031 0.56836 0.71909
 H70 H 1.11606 0.58943 0.78993
 H71 H 0.99594 0.52510 0.91588
 H72 H 0.89778 0.42157 0.79187
 C73 C 0.52392 0.52514 0.62337
 C74 C 0.55776 0.49715 0.64840
 C75 C 0.55879 0.49965 0.69717
 C76 C 0.52154 0.52525 0.72151
 C77 C 0.48825 0.55349 0.69501
 C78 C 0.49036 0.55452 0.64635
 C79 C 0.51527 0.52047 0.77385
 C80 C 0.49664 0.56251 0.79902
 C81 C 0.48461 0.55318 0.84719
 C82 C 0.49771 0.50672 0.87143
 C83 C 0.52066 0.46788 0.84800
 C84 C 0.52584 0.47215 0.79937
 H85 H 0.52610 0.52646 0.58568
 H86 H 0.58812 0.48065 0.71551
 H87 H 0.45852 0.57314 0.71145
 H88 H 0.49024 0.60198 0.78180
 H89 H 0.49064 0.50133 0.90890
 H90 H 0.53894 0.43794 0.78212
 C91 C 0.50556 -0.00021 0.62741
 C92 C 0.54662 0.06205 0.65067
 C93 C 0.54745 0.06167 0.69927
 C94 C 0.50230 0.00023 0.72486
 C95 C 0.45805 -0.06116 0.70068
 C96 C 0.46268 -0.06300 0.65226
 C97 C 0.49958 -0.00013 0.77655
 C98 C 0.48331 -0.06070 0.80256
 C99 C 0.46993 -0.06523 0.85054
 C100 C 0.48009 -0.00562 0.87314
 C101 C 0.50140 0.05613 0.84842
 C102 C 0.50985 0.05875 0.80019
 H103 H 0.50612 0.00120 0.58972
 H104 H 0.58215 0.10959 0.71679
 H105 H 0.42174 -0.10852 0.71957
 H106 H 0.47796 -0.10559 0.78523
 H107 H 0.47576 -0.00510 0.91062
 H108 H 0.52275 0.10616 0.78144
 O109 O 0.42695 0.64897 0.95032
 O110 O 0.41936 0.76140 0.94289
 C111 C 0.38791 0.79489 0.94418
 O112 O 0.33980 0.78127 0.97321
 O113 O 0.22320 0.66166 0.96323
 C114 C 0.19162 0.59706 0.95476
 O115 O 0.20469 0.55450 0.97535
 O116 O 0.31856 0.55653 0.95079
 C117 C 0.38037 0.59094 0.93448
 O118 O 0.44564 0.66732 1.04231
 O119 O 0.44253 0.78205 1.03521
 C120 C 0.40512 0.79102 1.06448
 O121 O 0.33849 0.75676 1.06422
 O122 O 0.21698 0.64204 1.05656
 C123 C 0.20964 0.58911 1.07802
 O124 O 0.23969 0.55726 1.06543
 O125 O 0.35243 0.55914 1.04082
 C126 C 0.41239 0.60409 1.05567
 Cr127 Cr 0.42963 0.71282 0.99313
 Cr128 Cr 0.28132 0.70824 1.01385
 Cr129 Cr 0.28087 0.56094 1.00789
 O130 O 0.33077 0.66037 1.00507
 O131 O 0.56776 0.34234 0.93941
 O132 O 0.55718 0.22053 0.94164
 C133 C 0.60360 0.21490 0.92035
 O134 O 0.66635 0.24474 0.93320
 O135 O 0.77987 0.35492 0.95828
 C136 C 0.79463 0.41583 0.94568
 O137 O 0.76411 0.44586 0.96145
 O138 O 0.64521 0.44088 0.97362
 C139 C 0.59946 0.40789 0.94281
 O140 O 0.54289 0.33156 1.03135
 O141 O 0.54191 0.21489 1.03384
 C142 C 0.57528 0.18449 1.04328
 O143 O 0.63363 0.20023 1.02421
 O144 O 0.74836 0.31019 1.04804
 C145 C 0.77859 0.36974 1.06537
 O146 O 0.76796 0.41748 1.05173
 O147 O 0.64536 0.40487 1.06349
 C148 C 0.57918 0.37353 1.06277
 Cr149 Cr 0.55641 0.27924 0.98691
 Cr150 Cr 0.70496 0.27926 0.99110
 Cr151 Cr 0.70369 0.42341 1.01201
 O152 O 0.65543 0.32715 0.99671
 O153 O 0.66440 0.43687 0.55250
 O154 O 0.78912 0.45110 0.54208
 C155 C 0.79930 0.41201 0.56876
 O156 O 0.76424 0.34661 0.56579
 O157 O 0.65390 0.22569 0.54903
 C158 C 0.59188 0.20717 0.56150
 O159 O 0.55796 0.23336 0.54452
 O160 O 0.55903 0.34965 0.53010
 C161 C 0.59774 0.40155 0.55572
 O162 O 0.65485 0.44616 0.46130
 O163 O 0.77408 0.44616 0.45023
 C164 C 0.81110 0.41782 0.44894
 O165 O 0.79913 0.36560 0.47438
 O166 O 0.68673 0.24365 0.45808
 C167 C 0.62552 0.21220 0.44124
 O168 O 0.57775 0.22432 0.45300
 O169 O 0.57918 0.34041 0.43775
 C170 C 0.60437 0.40523 0.43615
 Cr171 Cr 0.71873 0.44104 0.50136
 Cr172 Cr 0.72389 0.29719 0.51128
 Cr173 Cr 0.57245 0.28909 0.49169
 O174 O 0.67130 0.34165 0.50133
 O175 O 0.34965 0.55976 0.52246
 O176 O 0.22999 0.55446 0.53520
 C177 C 0.20564 0.58674 0.55621
 O178 O 0.22692 0.65065 0.54892
 O179 O 0.34875 0.76065 0.56350
 C180 C 0.41439 0.79888 0.56324
 O181 O 0.45228 0.78906 0.53600
 O182 O 0.43701 0.66377 0.54708
 C183 C 0.40116 0.59728 0.54917
 O184 O 0.34280 0.58611 0.43015
 O185 O 0.22534 0.58273 0.44478
 C186 C 0.20928 0.62890 0.43777
 O187 O 0.23740 0.68625 0.45853
 O188 O 0.36163 0.79708 0.47117
 C189 C 0.41312 0.80967 0.44435
 O190 O 0.44421 0.77503 0.44569
 O191 O 0.44777 0.65791 0.45689
 C192 C 0.40780 0.60977 0.43054
 Cr193 Cr 0.28916 0.57461 0.48365
 Cr194 Cr 0.29567 0.72185 0.50994
 Cr195 Cr 0.44124 0.71947 0.49637
 O196 O 0.34086 0.67142 0.49650
 C197 C 0.41416 0.54272 0.36520
 C198 C 0.43905 0.57628 0.40491
 H199 H 0.37404 0.54782 0.34742
 H200 H 0.48590 0.58104 0.41986
 C201 C 0.48465 0.88654 0.37790
 C202 C 0.43897 0.87070 0.41297
 H203 H 0.50130 0.85083 0.36819
 H204 H 0.41915 0.90496 0.41943
 C205 C 0.13573 0.57893 0.36794
 C206 C 0.14956 0.61306 0.40800
 H207 H 0.17659 0.57328 0.35197
 H208 H 0.11514 0.63008 0.42061
 C209 C 0.53058 0.40532 0.37140
 C210 C 0.57086 0.43552 0.40835
 H211 H 0.52952 0.36033 0.35727
 H212 H 0.58111 0.48590 0.41908
 C213 C 0.57133 0.13835 0.37122
 C214 C 0.60782 0.15298 0.41104
 H215 H 0.56250 0.17751 0.35574
 H216 H 0.62756 0.12020 0.42268
 C217 C 0.87966 0.46714 0.37579
 C218 C 0.87571 0.44987 0.42105
 H219 H 0.83145 0.45341 0.35795
 H220 H 0.91986 0.45178 0.43818
 C221 C 0.57194 0.43889 1.12812
 C222 C 0.54103 0.38908 1.09686
 H223 H 0.62777 0.46524 1.13424
 H224 H 0.48463 0.36307 1.09285
 C225 C 0.86411 0.44198 1.12514
 C226 C 0.83224 0.38409 1.10032
 H227 H 0.84514 0.47773 1.12505
 H228 H 0.85007 0.34744 1.10327
 C229 C 0.57389 0.11898 1.11371
 C230 C 0.54166 0.12558 1.07628
 H231 H 0.62665 0.15979 1.12190
 H232 H 0.48646 0.08864 1.07123
 C233 C 0.40909 0.52541 1.11695
 C234 C 0.44622 0.58091 1.08887
 H235 H 0.35254 0.50011 1.11915
 H236 H 0.50297 0.60943 1.08985
 C237 C 0.10898 0.49822 1.12198
 C238 C 0.16204 0.56398 1.11837
 H239 H 0.10401 0.46104 1.09644
 H240 H 0.16149 0.60287 1.13990
 C241 C 0.41416 0.86430 1.13161
 C242 C 0.44333 0.84810 1.09707
 H243 H 0.35987 0.82985 1.14169
 H244 H 0.49893 0.88201 1.09001
 C245 C 0.59364 0.46730 0.62297
 C246 C 0.56193 0.42398 0.58775
 H247 H 0.64637 0.48187 0.63273
 H248 H 0.50740 0.40602 0.58082
 C249 C 0.58763 0.12729 0.62351
 C250 C 0.55496 0.14945 0.59540
 H251 H 0.64422 0.15580 0.62581
 H252 H 0.49818 0.12215 0.59594
 C253 C 0.87720 0.41368 0.63131
 C254 C 0.85808 0.44673 0.60126
 H255 H 0.84529 0.35795 0.63680
 H256 H 0.89041 0.50289 0.59803
 C257 C 0.46017 0.58912 0.61935
 C258 C 0.42260 0.56034 0.58130
 H259 H 0.46999 0.63918 0.63053
 H260 H 0.40827 0.50787 0.57261
 C261 C 0.42563 0.87296 0.62976
 C262 C 0.45007 0.86218 0.59035
 H263 H 0.38028 0.82950 0.64667
 H264 H 0.50115 0.90149 0.57696
 C265 C 0.13496 0.56567 0.62843
 C266 C 0.14464 0.54493 0.58700
 H267 H 0.17858 0.61152 0.64345
 H268 H 0.10675 0.49384 0.57463
 C269 C 0.45967 0.59248 0.87330
 C270 C 0.39962 0.55856 0.89782
 H271 H 0.49320 0.64838 0.87517
 H272 H 0.36576 0.50299 0.89360
 C273 C 0.12702 0.59815 0.88400
 C274 C 0.13350 0.56641 0.92199
 H275 H 0.16844 0.64973 0.87333
 H276 H 0.09458 0.51215 0.92879
 C277 C 0.44703 0.87164 0.87500
 C278 C 0.40970 0.85636 0.91450
 H279 H 0.45570 0.83262 0.86014
 H280 H 0.39131 0.88989 0.92606
 C281 C 0.54058 0.42390 0.87464
 C282 C 0.58075 0.44883 0.91229
 H283 H 0.52447 0.37246 0.86245
 H284 H 0.60063 0.50232 0.92174
 C285 C 0.87411 0.42790 0.88173
 C286 C 0.85276 0.45642 0.91311
 H287 H 0.84435 0.37243 0.87606
 H288 H 0.87972 0.51255 0.91542
 C289 C 0.51703 0.11774 0.87469
 C290 C 0.58350 0.16812 0.88077
 H291 H 0.47617 0.11370 0.89737
 H292 H 0.62477 0.16787 0.86092
   
