data_POSCAR
  _audit_creation_date              2014-09-24
  _audit_creation_method            'ToBaCCo'
  _symmetry_space_group_name_H-M    'P1'
  _symmetry_Int_Tables_number       1
  _symmetry_cell_setting            triclinic
  loop_
  _symmetry_equiv_pos_as_xyz
 x,y,z
_cell_length_a 48.9077
_cell_length_b 12.8095
_cell_length_c 15.7386
_cell_angle_alpha 88.294600
_cell_angle_beta 89.844600
_cell_angle_gamma 89.693100
loop_
  _atom_site_label
  _atom_site_type_symbol
  _atom_site_fract_x
  _atom_site_fract_y
  _atom_site_fract_z
C1 C 0.72244 0.18179 0.54158
 C2 C 0.72434 0.18994 0.45133
 C3 C 0.75032 0.19197 0.41223
 C4 C 0.77442 0.18926 0.46124
 C5 C 0.77202 0.20150 0.55065
 C6 C 0.74653 0.18823 0.58960
 H7 H 0.74500 0.19393 0.65813
 H8 H 0.75150 0.18576 0.34380
 C9 C 0.22457 0.72169 0.53635
 C10 C 0.22892 0.72759 0.44797
 C11 C 0.25574 0.72122 0.41663
 C12 C 0.27846 0.71721 0.47124
 C13 C 0.27398 0.71171 0.56103
 C14 C 0.24679 0.70975 0.59106
 H15 H 0.24260 0.69979 0.65855
 H16 H 0.25902 0.72926 0.34855
 C17 C 0.27511 0.28559 -0.54847
 C18 C 0.27029 0.28800 -0.46005
 C19 C 0.24323 0.29720 -0.43102
 C20 C 0.22052 0.30523 -0.48690
 C21 C 0.22577 0.30650 -0.57698
 C22 C 0.25308 0.29800 -0.60476
 H23 H 0.25725 0.29205 -0.67214
 H24 H 0.24017 0.30375 -0.36318
 C25 C -0.22166 0.74373 -0.54094
 C26 C -0.22356 0.75395 -0.45209
 C27 C -0.24899 0.76630 -0.41336
 C28 C -0.27322 0.76002 -0.46016
 C29 C -0.27154 0.73389 -0.54794
 C30 C -0.24576 0.73507 -0.58854
 H31 H -0.24407 0.71760 -0.65538
 H32 H -0.24969 0.78231 -0.34611
 O33 O -0.02978 0.84988 0.16197
 O34 O -0.06335 0.93746 0.08636
 C35 C -0.05530 0.87466 0.14741
 O36 O 0.04211 1.22142 0.12614
 O37 O 0.06994 1.13416 0.03420
 C38 C 0.06589 1.19961 0.09388
 O39 O -0.03396 1.18621 0.16365
 O40 O -0.06574 1.10305 0.08312
 C41 C -0.05882 1.15683 0.14772
 O42 O 0.04788 0.85594 0.13275
 O43 O 0.07228 0.95580 0.03631
 C44 C 0.07082 0.89230 0.10133
 Zr45 Zr 0.00666 0.89741 0.09659
 O46 O 0.01164 0.87375 0.22923
 O47 O 0.00762 0.73412 0.08165
 Zr48 Zr 0.00286 1.16339 0.09391
 O49 O 0.00954 1.18169 0.22518
 O50 O -0.00339 1.32671 0.08200
 O51 O -0.01835 1.02560 0.11938
 O52 O 0.02847 1.03490 0.10315
 O53 O 0.03665 0.84905 -0.16725
 O54 O 0.06761 0.95510 -0.10345
 C55 C 0.06133 0.88177 -0.15471
 O56 O -0.04354 1.20951 -0.15753
 O57 O -0.06983 1.11026 -0.06598
 C58 C -0.06696 1.17848 -0.12804
 O59 O 0.03241 1.22998 -0.17475
 O60 O 0.06556 1.13390 -0.10549
 C61 C 0.05782 1.20482 -0.16073
 O62 O -0.03974 0.84660 -0.15101
 O63 O -0.06814 0.93829 -0.06347
 C64 C -0.06369 0.87285 -0.12320
 Zr65 Zr -0.00079 0.90118 -0.11580
 O66 O -0.00208 0.89942 -0.25015
 O67 O -0.00166 0.73573 -0.10958
 Zr68 Zr -0.00382 1.16701 -0.11896
 O69 O -0.00564 1.17717 -0.25320
 O70 O -0.00856 1.33102 -0.11243
 Zr71 Zr -0.03908 1.02577 0.00161
 Zr72 Zr 0.04131 1.03953 -0.02480
 O73 O 0.02043 1.03793 -0.14129
 O74 O -0.02682 1.03049 -0.12678
 O75 O 0.02762 0.88369 -0.01752
 O76 O -0.02463 1.18015 -0.00468
 O77 O -0.02080 0.87674 -0.00114
 O78 O 0.02365 1.18972 -0.02058
 H79 H 0.04187 1.03760 0.15003
 H80 H -0.03829 1.23708 0.00014
 H81 H 0.03092 1.04012 -0.19524
 H82 H -0.03285 0.81491 0.00417
 H83 H 0.01389 1.35718 0.06012
 H84 H 0.00884 1.35932 -0.09123
 H85 H -0.01653 1.11715 -0.27162
 H86 H -0.01824 0.94094 -0.26848
 H87 H 0.01488 0.71167 -0.07848
 H88 H 0.00869 0.70286 0.13986
 H89 H 0.01516 0.94296 0.25283
 H90 H 0.00511 1.11380 0.25331
 O91 O 0.46601 0.30378 0.14849
 O92 O 0.43535 0.40845 0.07574
 C93 C 0.44135 0.33705 0.13285
 O94 O 0.54557 0.65153 0.14638
 O95 O 0.57335 0.56327 0.05431
 C96 C 0.56936 0.61927 0.12058
 O97 O 0.46873 0.65836 0.16430
 O98 O 0.43645 0.57726 0.08456
 C99 C 0.44352 0.63551 0.14671
 O100 O 0.54234 0.28650 0.12463
 O101 O 0.57186 0.39152 0.04806
 C102 C 0.56679 0.31625 0.10258
 Zr103 Zr 0.50354 0.35019 0.09152
 O104 O 0.50825 0.32170 0.22359
 O105 O 0.50081 0.18871 0.07101
 Zr106 Zr 0.50578 0.61538 0.10305
 O107 O 0.51014 0.61769 0.23645
 O108 O 0.50489 0.78059 0.09821
 O109 O 0.48110 0.48374 0.11971
 O110 O 0.52803 0.47772 0.10845
 O111 O 0.53583 0.31440 -0.17476
 O112 O 0.56823 0.39939 -0.09746
 C113 C 0.56092 0.33426 -0.15465
 O114 O 0.46232 0.68646 -0.15369
 O115 O 0.43372 0.59457 -0.06301
 C116 C 0.43828 0.66110 -0.12458
 O117 O 0.53887 0.69257 -0.15889
 O118 O 0.56992 0.58508 -0.08970
 C119 C 0.56365 0.66088 -0.14350
 O120 O 0.45917 0.33657 -0.16484
 O121 O 0.43203 0.42428 -0.07110
 C122 C 0.43545 0.36428 -0.13510
 Zr123 Zr 0.49918 0.37366 -0.12207
 O124 O 0.49748 0.39873 -0.25534
 O125 O 0.49553 0.20954 -0.13060
 Zr126 Zr 0.50143 0.63657 -0.10957
 O127 O 0.50144 0.65838 -0.24340
 O128 O 0.49937 0.80019 -0.09519
 Zr129 Zr 0.46214 0.49854 0.00010
 Zr130 Zr 0.54322 0.48833 -0.01749
 O131 O 0.52384 0.50348 -0.13609
 O132 O 0.47586 0.50957 -0.12689
 O133 O 0.52566 0.33856 -0.02086
 O134 O 0.47977 0.64781 0.00261
 O135 O 0.47735 0.34620 -0.01081
 O136 O 0.52857 0.64281 -0.00737
 H137 H 0.54031 0.46860 0.15799
 H138 H 0.46732 0.70862 0.00773
 H139 H 0.53498 0.50625 -0.18880
 H140 H 0.46426 0.28739 -0.01056
 H141 H 0.52360 0.80522 0.08469
 H142 H 0.51663 0.82205 -0.06851
 H143 H 0.49323 0.59464 -0.26645
 H144 H 0.49507 0.32921 -0.28017
 H145 H 0.50971 0.17802 -0.09298
 H146 H 0.50158 0.15424 0.12813
 H147 H 0.49833 0.37788 0.25253
 H148 H 0.50167 0.55280 0.25932
 C149 C 0.33713 0.30774 0.30964
 C150 C 0.35382 0.23095 0.34426
 C151 C 0.34582 0.16716 0.41290
 C152 C 0.31963 0.18368 0.44709
 C153 C 0.30263 0.26599 0.41475
 C154 C 0.31162 0.32802 0.34450
 O155 O 0.34817 0.35865 0.24380
 C156 C 0.37251 0.31395 0.23712
 C157 C 0.37722 0.23626 0.29748
 C158 C 0.40218 0.18405 0.30452
 C159 C 0.42324 0.21500 0.24833
 C160 C 0.41870 0.29527 0.18565
 C161 C 0.39259 0.34246 0.17867
 H162 H 0.35909 0.10609 0.43841
 H163 H 0.31264 0.13280 0.49880
 H164 H 0.29911 0.39084 0.31797
 H165 H 0.40556 0.12423 0.35328
 H166 H 0.44314 0.17815 0.25485
 H167 H 0.38817 0.40233 0.13074
 C168 C -0.15903 0.81188 0.32791
 C169 C -0.14237 0.72753 0.34736
 C170 C -0.15093 0.64385 0.39904
 C171 C -0.17749 0.64819 0.43300
 C172 C -0.19466 0.73603 0.41634
 C173 C -0.18541 0.81835 0.36192
 O174 O -0.14721 0.88215 0.27636
 C175 C -0.12258 0.84152 0.26319
 C176 C -0.11843 0.74753 0.30564
 C177 C -0.09378 0.69280 0.30145
 C178 C -0.07268 0.73610 0.25086
 C179 C -0.07683 0.83121 0.20425
 C180 C -0.10217 0.88469 0.21137
 H181 H -0.13771 0.57742 0.41256
 H182 H -0.18464 0.58359 0.47278
 H183 H -0.19812 0.88625 0.34804
 H184 H -0.09087 0.61931 0.33583
 H185 H -0.05338 0.69470 0.24679
 H186 H -0.10593 0.95811 0.17760
 C187 C 0.67415 0.68143 0.29241
 C188 C 0.65741 0.61895 0.34208
 C189 C 0.66430 0.58316 0.42307
 C190 C 0.68894 0.61727 0.45652
 C191 C 0.70587 0.68943 0.41038
 C192 C 0.69903 0.71700 0.32474
 O193 O 0.66290 0.70864 0.21790
 C194 C 0.63841 0.66369 0.22186
 C195 C 0.63415 0.60900 0.29724
 C196 C 0.60940 0.56342 0.31937
 C197 C 0.58804 0.57370 0.26114
 C198 C 0.59195 0.62586 0.18134
 C199 C 0.61761 0.67101 0.16066
 H200 H 0.65086 0.53262 0.46010
 H201 H 0.69454 0.58901 0.51972
 H202 H 0.71140 0.77091 0.28707
 H203 H 0.60651 0.52246 0.37979
 H204 H 0.56859 0.53781 0.27710
 H205 H 0.62111 0.71034 0.09988
 C206 C 0.16051 1.25683 0.30841
 C207 C 0.16447 1.31575 0.23508
 C208 C 0.18845 1.37032 0.21873
 C209 C 0.20878 1.36652 0.28169
 C210 C 0.20521 1.30664 0.35905
 C211 C 0.18100 1.24695 0.36944
 O212 O 0.13612 1.21237 0.31277
 C213 C 0.12444 1.24335 0.24036
 C214 C 0.14106 1.30526 0.18961
 C215 C 0.13360 1.33897 0.10791
 C216 C 0.10804 1.30713 0.07754
 C217 C 0.09036 1.24608 0.13005
 C218 C 0.09860 1.21449 0.21277
 H219 H 0.19110 1.41666 0.16066
 H220 H 0.22687 1.41362 0.27109
 H221 H 0.17781 1.19564 0.42441
 H222 H 0.14737 1.38447 0.06784
 H223 H 0.10228 1.32716 0.01265
 H224 H 0.08604 1.16338 0.25238
 C225 C 0.65190 0.23141 -0.37700
 C226 C 0.65152 0.16104 -0.30928
 C227 C 0.67295 0.09281 -0.29091
 C228 C 0.69610 0.09871 -0.34310
 C229 C 0.69749 0.17114 -0.41343
 C230 C 0.67461 0.23716 -0.43145
 O231 O 0.63034 0.29523 -0.37810
 C232 C 0.61625 0.26436 -0.30951
 C233 C 0.62841 0.18253 -0.26533
 C234 C 0.61871 0.14402 -0.18745
 C235 C 0.59558 0.19240 -0.15311
 C236 C 0.58276 0.27709 -0.19720
 C237 C 0.59288 0.31247 -0.27713
 H238 H 0.67223 0.03924 -0.23649
 H239 H 0.71305 0.04631 -0.32853
 H240 H 0.67533 0.29701 -0.48151
 H241 H 0.62926 0.08158 -0.15304
 H242 H 0.58807 0.16559 -0.09137
 H243 H 0.58372 0.37870 -0.31062
 C244 C 0.16296 0.81181 -0.34031
 C245 C 0.14715 0.72371 -0.34381
 C246 C 0.15522 0.63513 -0.38550
 C247 C 0.18072 0.63688 -0.42580
 C248 C 0.19711 0.72689 -0.42549
 C249 C 0.18836 0.81579 -0.38126
 O250 O 0.15153 0.88613 -0.29477
 C251 C 0.12801 0.84348 -0.26973
 C252 C 0.12440 0.74431 -0.29846
 C253 C 0.10116 0.68531 -0.28141
 C254 C 0.08041 0.73126 -0.23358
 C255 C 0.08358 0.83352 -0.20287
 C256 C 0.10790 0.88982 -0.22036
 H257 H 0.14243 0.56700 -0.38482
 H258 H 0.18827 0.56834 -0.45617
 H259 H 0.20106 0.88446 -0.37788
 H260 H 0.09891 0.60760 -0.30537
 H261 H 0.06193 0.68738 -0.22042
 H262 H 0.11077 0.96799 -0.19772
 C263 C 0.34191 0.68111 -0.33351
 C264 C 0.33770 0.74241 -0.26447
 C265 C 0.31281 0.78873 -0.24656
 C266 C 0.29154 0.77510 -0.30414
 C267 C 0.29529 0.71499 -0.37834
 C268 C 0.32079 0.66372 -0.39062
 O269 O 0.36725 0.64407 -0.33812
 C270 C 0.37917 0.68331 -0.27055
 C271 C 0.36189 0.74390 -0.22337
 C272 C 0.36956 0.78813 -0.14752
 C273 C 0.39597 0.76637 -0.11772
 C274 C 0.41407 0.70452 -0.16549
 C275 C 0.40580 0.66359 -0.24346
 H276 H 0.31007 0.83614 -0.19137
 H277 H 0.27260 0.81655 -0.29267
 H278 H 0.32423 0.61254 -0.44321
 H279 H 0.35529 0.83315 -0.11067
 H280 H 0.40196 0.79340 -0.05592
 H281 H 0.41910 0.61253 -0.27866
 C282 C -0.17497 1.21553 -0.28132
 C283 C -0.15867 1.29305 -0.31596
 C284 C -0.16495 1.34661 -0.39144
 C285 C -0.18867 1.31749 -0.43407
 C286 C -0.20588 1.23699 -0.40039
 C287 C -0.19935 1.18837 -0.32077
 O288 O -0.16333 1.16421 -0.21624
 C289 C -0.13917 1.21014 -0.20989
 C290 C -0.13549 1.29022 -0.26893
 C291 C -0.11083 1.34217 -0.27964
 C292 C -0.08878 1.30821 -0.22927
 C293 C -0.09162 1.22297 -0.16998
 C294 C -0.11753 1.17572 -0.15829
 H295 H -0.15141 1.40529 -0.41866
 H296 H -0.19342 1.35641 -0.49431
 H297 H -0.21129 1.12386 -0.29492
 H298 H -0.10834 1.40384 -0.32754
 H299 H -0.06921 1.34586 -0.23913
 H300 H -0.12029 1.10921 -0.11508
 C301 C 0.66958 0.74823 -0.30376
 C302 C 0.64975 0.80273 -0.34844
 C303 C 0.65448 0.84969 -0.42761
 C304 C 0.68039 0.83605 -0.46370
 C305 C 0.70150 0.78061 -0.41933
 C306 C 0.69604 0.73940 -0.33627
 O307 O 0.65993 0.69888 -0.23466
 C308 C 0.63346 0.72282 -0.23587
 C309 C 0.62628 0.78696 -0.30385
 C310 C 0.59943 0.81654 -0.32079
 C311 C 0.57908 0.77760 -0.26565
 C312 C 0.58575 0.70940 -0.19556
 C313 C 0.61348 0.68231 -0.18062
 H314 H 0.63836 0.89008 -0.46251
 H315 H 0.68368 0.86529 -0.52770
 H316 H 0.71094 0.69209 -0.30165
 H317 H 0.59423 0.86542 -0.37596
 H318 H 0.55809 0.79875 -0.27948
 H319 H 0.61935 0.62905 -0.12913
 C320 C 0.16118 1.27145 -0.33882
 C321 C 0.14175 1.33276 -0.37887
 C322 C 0.14682 1.38598 -0.45519
 C323 C 0.17332 1.38062 -0.48906
 C324 C 0.19400 1.31664 -0.45004
 C325 C 0.18743 1.26275 -0.37230
 O326 O 0.15185 1.22144 -0.26985
 C327 C 0.12604 1.25305 -0.26573
 C328 C 0.11887 1.32279 -0.33001
 C329 C 0.09280 1.36650 -0.33665
 C330 C 0.07295 1.33232 -0.27729
 C331 C 0.07944 1.25462 -0.21398
 C332 C 0.10672 1.21751 -0.20689
 H333 H 0.13097 1.43092 -0.48728
 H334 H 0.17754 1.42749 -0.54571
 H335 H 0.20188 1.21146 -0.33980
 H336 H 0.08784 1.42397 -0.38620
 H337 H 0.05246 1.36423 -0.28242
 H338 H 0.11260 1.15869 -0.15946
 C339 C 0.33816 0.32954 -0.34793
 C340 C 0.33583 0.25908 -0.28067
 C341 C 0.31262 0.19825 -0.26721
 C342 C 0.29111 0.20964 -0.32596
 C343 C 0.29297 0.28135 -0.39632
 C344 C 0.31677 0.34362 -0.40609
 O345 O 0.36196 0.37938 -0.34945
 C346 C 0.37487 0.33997 -0.28139
 C347 C 0.35971 0.26642 -0.23685
 C348 C 0.36890 0.21825 -0.16159
 C349 C 0.39448 0.24869 -0.13018
 C350 C 0.41045 0.32445 -0.17481
 C351 C 0.40069 0.36924 -0.25225
 H352 H 0.31122 0.14297 -0.21394
 H353 H 0.27314 0.16141 -0.31748
 H354 H 0.31873 0.40040 -0.45807
 H355 H 0.35647 0.16149 -0.12704
 H356 H 0.40169 0.21490 -0.07038
 H357 H 0.41242 0.42760 -0.28697
 C358 C -0.16193 0.82469 -0.32440
 C359 C -0.15415 0.72743 -0.29330
 C360 C -0.16845 0.63705 -0.31040
 C361 C -0.19157 0.64730 -0.36241
 C362 C -0.19942 0.74623 -0.39695
 C363 C -0.18476 0.83637 -0.37660
 O364 O -0.14570 0.90054 -0.29969
 C365 C -0.12728 0.84990 -0.25217
 C366 C -0.13146 0.74378 -0.24648
 C367 C -0.11421 0.67560 -0.20130
 C368 C -0.09169 0.71885 -0.16022
 C369 C -0.08737 0.82800 -0.16430
 C370 C -0.10527 0.89434 -0.21107
 H371 H -0.16208 0.56168 -0.28443
 H372 H -0.20326 0.57849 -0.37670
 H373 H -0.19113 0.91251 -0.40024
 H374 H -0.11782 0.59227 -0.19844
 H375 H -0.07773 0.66795 -0.12508
 H376 H -0.10169 0.97747 -0.21706
 C377 C 0.33970 0.68214 0.32753
 C378 C 0.35734 0.75566 0.35761
 C379 C 0.35008 0.82262 0.42208
 C380 C 0.32375 0.81225 0.45750
 C381 C 0.30585 0.73235 0.43100
 C382 C 0.31391 0.66800 0.36377
 O383 O 0.35023 0.62739 0.26510
 C384 C 0.37520 0.66607 0.25618
 C385 C 0.38078 0.74385 0.31180
 C386 C 0.40635 0.79078 0.31587
 C387 C 0.42695 0.75525 0.26101
 C388 C 0.42151 0.67603 0.20210
 C389 C 0.39497 0.63267 0.19912
 H390 H 0.36413 0.88082 0.44409
 H391 H 0.31754 0.86466 0.50686
 H392 H 0.30060 0.60743 0.34137
 H393 H 0.41046 0.85095 0.36088
 H394 H 0.44708 0.78966 0.26450
 H395 H 0.38984 0.57356 0.15452
 C396 C -0.16483 1.18535 0.31554
 C397 C -0.14646 1.13460 0.36850
 C398 C -0.15374 1.08908 0.44593
 C399 C -0.18068 1.10260 0.47280
 C400 C -0.19984 1.16392 0.42428
 C401 C -0.19202 1.20022 0.34146
 O402 O -0.15345 1.21991 0.24319
 C403 C -0.12734 1.19147 0.25183
 C404 C -0.12206 1.14056 0.32820
 C405 C -0.09610 1.10705 0.35264
 C406 C -0.07475 1.12303 0.29440
 C407 C -0.07982 1.16965 0.21318
 C408 C -0.10643 1.20581 0.19182
 H409 H -0.13917 1.04532 0.48475
 H410 H -0.18643 1.06677 0.53299
 H411 H -0.20584 1.24508 0.30103
 H412 H -0.09250 1.06825 0.41370
 H413 H -0.05462 1.09264 0.31024
 H414 H -0.11077 1.24045 0.12966
 C415 C 0.66814 0.25067 0.29267
 C416 C 0.65284 0.16092 0.30070
 C417 C 0.66016 0.07769 0.35499
 C418 C 0.68408 0.08813 0.40300
 C419 C 0.70001 0.17964 0.39636
 C420 C 0.69217 0.26159 0.33939
 O421 O 0.65701 0.32240 0.24061
 C422 C 0.63422 0.27708 0.21511
 C423 C 0.63070 0.17821 0.25007
 C424 C 0.60753 0.11886 0.23556
 C425 C 0.58704 0.16380 0.18378
 C426 C 0.59005 0.26580 0.14749
 C427 C 0.61424 0.32269 0.16250
 H428 H 0.64772 0.00816 0.36127
 H429 H 0.69026 0.02679 0.44696
 H430 H 0.70396 0.33268 0.33390
 H431 H 0.60499 0.04193 0.26485
 H432 H 0.56861 0.11970 0.17290
 H433 H 0.61680 0.40185 0.13751
 C434 C 0.16393 0.75460 0.31623
 C435 C 0.16873 0.85158 0.27991
 C436 C 0.19200 0.90950 0.29472
 C437 C 0.21140 0.86604 0.35011
 C438 C 0.20739 0.76619 0.38900
 C439 C 0.18338 0.70861 0.37130
 O440 O 0.13991 0.71512 0.29333
 C441 C 0.12951 0.78935 0.24140
 C442 C 0.14672 0.87350 0.23151
 C443 C 0.14079 0.96056 0.18125
 C444 C 0.11606 0.96170 0.13832
 C445 C 0.09719 0.87747 0.14669
 C446 C 0.10398 0.78948 0.19984
 H447 H 0.19506 0.98582 0.26502
 H448 H 0.22961 0.91044 0.36335
 H449 H 0.18008 0.63123 0.39865
 H450 H 0.15470 1.02588 0.17553
 H451 H 0.11155 1.03065 0.09951
 H452 H 0.09014 0.72426 0.20800
   
