data_POSCAR
  _audit_creation_date              2014-09-24
  _audit_creation_method            'ToBaCCo'
  _symmetry_space_group_name_H-M    'P1'
  _symmetry_Int_Tables_number       1
  _symmetry_cell_setting            triclinic
  loop_
  _symmetry_equiv_pos_as_xyz
 x,y,z
_cell_length_a 41.6092
_cell_length_b 42.2663
_cell_length_c 16.4718
_cell_angle_alpha 89.898200
_cell_angle_beta 90.073000
_cell_angle_gamma 119.442800
loop_
  _atom_site_label
  _atom_site_type_symbol
  _atom_site_fract_x
  _atom_site_fract_y
  _atom_site_fract_z
C1 C 0.15203 0.46729 0.50266
 C2 C 0.15900 0.45315 0.43181
 C3 C 0.18270 0.43827 0.43700
 C4 C 0.20041 0.43885 0.51077
 C5 C 0.19197 0.45250 0.58084
 C6 C 0.16792 0.46676 0.57727
 C7 C 0.22879 0.42683 0.51416
 C8 C 0.23712 0.41530 0.58794
 C9 C 0.26714 0.40903 0.59366
 C10 C 0.28708 0.41114 0.52359
 C11 C 0.27899 0.42175 0.44915
 C12 C 0.25048 0.43039 0.44533
 H13 H 0.13326 0.47819 0.50016
 H14 H 0.18638 0.42524 0.38406
 H15 H 0.20539 0.45405 0.63809
 H16 H 0.22155 0.41256 0.64251
 H17 H 0.31077 0.40703 0.52817
 H18 H 0.24668 0.44162 0.38939
 C19 C 0.50892 -0.33035 0.50415
 C20 C 0.51960 -0.31057 0.43149
 C21 C 0.52856 -0.27387 0.43239
 C22 C 0.52487 -0.25755 0.50419
 C23 C 0.51218 -0.27908 0.57515
 C24 C 0.50657 -0.31468 0.57732
 C25 C 0.53448 -0.21829 0.50580
 C26 C 0.54359 -0.19864 0.57973
 C27 C 0.55200 -0.16220 0.58173
 C28 C 0.55311 -0.14451 0.50923
 C29 C 0.54523 -0.16291 0.43526
 C30 C 0.53480 -0.19986 0.43378
 H31 H 0.50448 -0.35789 0.50412
 H32 H 0.53754 -0.25868 0.37638
 H33 H 0.50593 -0.26865 0.62916
 H34 H 0.54439 -0.21112 0.63646
 H35 H 0.55917 -0.11645 0.51048
 H36 H 0.52677 -0.21378 0.37614
 C37 C 1.31844 0.84384 0.51323
 C38 C 1.29997 0.83571 0.43825
 C39 C 1.26232 0.80923 0.43670
 C40 C 1.24434 0.78825 0.50633
 C41 C 1.26424 0.79683 0.58007
 C42 C 1.30073 0.82502 0.58367
 C43 C 1.20573 0.75680 0.50064
 C44 C 1.18332 0.74201 0.57062
 C45 C 1.14877 0.71012 0.56571
 C46 C 1.13526 0.69538 0.48869
 C47 C 1.15698 0.70880 0.41931
 C48 C 1.19226 0.73896 0.42551
 H49 H 1.34729 0.86447 0.51715
 H50 H 1.24707 0.80551 0.38100
 H51 H 1.25234 0.78154 0.63497
 H52 H 1.19362 0.75339 0.62978
 H53 H 1.10838 0.67123 0.48333
 H54 H 1.20954 0.74701 0.37202
 C55 C 0.84142 0.53194 0.50957
 C56 C 0.82649 0.53136 0.43354
 C57 C 0.79475 0.53463 0.42717
 C58 C 0.77901 0.54136 0.49653
 C59 C 0.79534 0.54284 0.57316
 C60 C 0.82583 0.53723 0.57955
 C61 C 0.74643 0.54748 0.48850
 C62 C 0.72335 0.54263 0.55573
 C63 C 0.69337 0.54924 0.54983
 C64 C 0.68499 0.55817 0.47337
 C65 C 0.70612 0.56131 0.40498
 C66 C 0.73733 0.55720 0.41307
 H67 H 0.86588 0.52908 0.51419
 H68 H 0.78320 0.53229 0.36733
 H69 H 0.78524 0.54888 0.62809
 H70 H 0.72727 0.53187 0.61211
 H71 H 0.66135 0.56221 0.46617
 H72 H 0.75383 0.56139 0.35943
 C73 C 0.48859 0.32053 0.50349
 C74 C 0.48644 0.30357 0.42960
 C75 C 0.47649 0.26689 0.42835
 C76 C 0.46623 0.24575 0.50011
 C77 C 0.46653 0.26322 0.57399
 C78 C 0.47990 0.30103 0.57678
 C79 C 0.45856 0.20693 0.49751
 C80 C 0.46112 0.18918 0.56823
 C81 C 0.46018 0.15542 0.56396
 C82 C 0.45647 0.13940 0.48732
 C83 C 0.45289 0.15576 0.41684
 C84 C 0.45181 0.18822 0.42270
 H85 H 0.49617 0.34903 0.50356
 H86 H 0.47788 0.25582 0.37036
 H87 H 0.45826 0.24830 0.63036
 H88 H 0.46354 0.20107 0.62726
 H89 H 0.45769 0.11444 0.48178
 H90 H 0.44687 0.19889 0.36742
 C91 C 0.68994 0.14815 0.49558
 C92 C 0.70637 0.16501 0.42242
 C93 C 0.74239 0.19428 0.42218
 C94 C 0.76295 0.20661 0.49500
 C95 C 0.74580 0.18845 0.56832
 C96 C 0.70897 0.16042 0.56886
 C97 C 0.80077 0.23968 0.49500
 C98 C 0.81524 0.26040 0.56657
 C99 C 0.84975 0.29229 0.56698
 C100 C 0.86910 0.30447 0.49360
 C101 C 0.85505 0.28547 0.42141
 C102 C 0.82160 0.25265 0.42249
 H103 H 0.66149 0.12638 0.49590
 H104 H 0.75315 0.20800 0.36506
 H105 H 0.76015 0.19641 0.62575
 H106 H 0.79884 0.25355 0.62123
 H107 H 0.89507 0.32980 0.49190
 H108 H 0.81204 0.23811 0.36589
 N109 N 0.95760 0.53309 0.09252
 N110 N 0.93282 0.54218 0.11521
 N111 N 1.03696 0.55169 0.14108
 N112 N 1.06374 0.56985 0.19348
 N113 N 1.03488 0.57400 0.08859
 N114 N 1.05986 0.60791 0.10500
 N115 N 0.95949 0.51079 0.14551
 N116 N 0.93627 0.50443 0.20581
 C117 C 0.91972 0.52407 0.18602
 C118 C 1.07825 0.60503 0.17003
 N119 N 1.04219 0.46489 0.07766
 N120 N 1.06494 0.45270 0.09832
 N121 N 0.96363 0.44428 0.13798
 N122 N 0.94253 0.42398 0.19801
 N123 N 0.96499 0.42365 0.07985
 N124 N 0.94494 0.38894 0.09908
 N125 N 1.04096 0.48575 0.13524
 N126 N 1.06281 0.48836 0.19578
 Mn127 Mn 1.00017 0.49814 0.14053
 C128 C 1.07836 0.46851 0.17127
 C129 C 0.93037 0.38960 0.17195
 N130 N 1.03275 0.57648 -0.08714
 N131 N 1.05515 0.61087 -0.10730
 N132 N 0.95589 0.51424 -0.13939
 N133 N 0.93148 0.50922 -0.19619
 N134 N 0.95537 0.53551 -0.08207
 N135 N 0.93058 0.54558 -0.09861
 N136 N 1.03328 0.55483 -0.14328
 N137 N 1.05623 0.57362 -0.20161
 Mn138 Mn 0.99518 0.55515 0.00321
 C139 C 1.07030 0.60867 -0.17872
 C140 C 0.91569 0.52866 -0.16982
 N141 N 0.96311 0.42623 -0.09524
 N142 N 0.93960 0.39226 -0.11552
 N143 N 1.03770 0.48971 -0.15089
 N144 N 1.06453 0.50124 -0.20460
 N145 N 1.04069 0.46816 -0.09777
 N146 N 1.06978 0.46446 -0.11409
 N147 N 0.96023 0.44876 -0.14555
 N148 N 0.93450 0.43094 -0.19998
 Mn149 Mn 1.00282 0.44543 -0.00914
 Mn150 Mn 0.99669 0.50178 -0.14527
 Cl151 Cl 0.99867 0.50009 -0.00246
 C152 C 0.92126 0.39561 -0.18034
 C153 C 1.08476 0.48582 -0.18046
 N154 N 0.46908 0.41813 0.09009
 N155 N 0.46738 0.38683 0.10821
 N156 N 0.44184 0.47030 0.15463
 N157 N 0.42360 0.47574 0.21322
 N158 N 0.41901 0.44428 0.10619
 N159 N 0.38464 0.43117 0.13138
 N160 N 0.49152 0.44361 0.14008
 N161 N 0.50591 0.43059 0.19253
 C162 C 0.49134 0.39536 0.17118
 C163 C 0.38777 0.45149 0.19771
 N164 N 0.52003 0.56639 0.08149
 N165 N 0.52741 0.59957 0.10162
 N166 N 0.55157 0.51588 0.12555
 N167 N 0.57538 0.51617 0.17865
 N168 N 0.56873 0.53872 0.06596
 N169 N 0.60486 0.55563 0.07802
 N170 N 0.50280 0.54351 0.14090
 N171 N 0.49825 0.56054 0.20292
 Mn172 Mn 0.49679 0.49330 0.14082
 C173 C 0.51348 0.59544 0.17761
 C174 C 0.60845 0.54056 0.14782
 N175 N 0.40823 0.44008 -0.06790
 N176 N 0.37223 0.42137 -0.08120
 N177 N 0.47416 0.43767 -0.14472
 N178 N 0.48496 0.42364 -0.20263
 N179 N 0.45864 0.41436 -0.08517
 N180 N 0.45819 0.38346 -0.10165
 N181 N 0.42467 0.46418 -0.12580
 N182 N 0.40039 0.46264 -0.17929
 Mn183 Mn 0.43844 0.42869 0.01102
 C184 C 0.36781 0.43638 -0.15013
 C185 C 0.47531 0.39005 -0.17494
 N186 N 0.55782 0.53459 -0.10890
 N187 N 0.59197 0.54575 -0.13362
 N188 N 0.48511 0.53754 -0.13959
 N189 N 0.47112 0.55193 -0.18986
 N190 N 0.50937 0.56253 -0.09133
 N191 N 0.51269 0.59452 -0.10823
 N192 N 0.53409 0.50990 -0.15848
 N193 N 0.55133 0.50312 -0.21698
 Mn194 Mn 0.53938 0.55089 -0.01351
 Mn195 Mn 0.47940 0.48744 -0.14269
 Cl196 Cl 0.48846 0.49006 -0.00104
 C197 C 0.58751 0.52536 -0.20076
 C198 C 0.48804 0.58755 -0.16882
 N199 N 0.42570 -0.04458 0.08647
 N200 N 0.39161 -0.06830 0.10862
 N201 N 0.48231 0.03471 0.13526
 N202 N 0.48675 0.05971 0.18861
 N203 N 0.45840 0.03144 0.07922
 N204 N 0.44547 0.05391 0.09380
 N205 N 0.44927 -0.04133 0.14340
 N206 N 0.43192 -0.06261 0.20542
 C207 C 0.39618 -0.07992 0.18222
 C208 C 0.46411 0.07183 0.16138
 N209 N 0.57800 0.04195 0.08774
 N210 N 0.61119 0.06925 0.10487
 N211 N 0.52115 -0.03537 0.14802
 N212 N 0.51585 -0.05882 0.20630
 N213 N 0.54531 -0.03420 0.09509
 N214 N 0.55719 -0.05687 0.11633
 N215 N 0.55377 0.04047 0.14074
 N216 N 0.56962 0.06650 0.19482
 Mn217 Mn 0.50165 -0.00040 0.14230
 C218 C 0.60524 0.08484 0.17100
 C219 C 0.53837 -0.07209 0.18574
 N220 N 0.45967 0.02848 -0.09612
 N221 N 0.44884 0.05216 -0.11556
 N222 N 0.45104 -0.04655 -0.14176
 N223 N 0.43535 -0.07390 -0.19291
 N224 N 0.42696 -0.04777 -0.08869
 N225 N 0.39406 -0.07606 -0.10277
 N226 N 0.48373 0.02956 -0.14915
 N227 N 0.49013 0.05404 -0.20566
 Mn228 Mn 0.44226 -0.00816 -0.00501
 C229 C 0.46867 0.06825 -0.18328
 C230 C 0.39996 -0.09251 -0.16723
 N231 N 0.54656 -0.03720 -0.08062
 N232 N 0.56043 -0.05876 -0.09667
 N233 N 0.55552 0.03566 -0.14463
 N234 N 0.57224 0.05928 -0.20342
 N235 N 0.57921 0.03877 -0.08818
 N236 N 0.61289 0.06453 -0.10774
 N237 N 0.52278 -0.04037 -0.13696
 N238 N 0.51953 -0.06430 -0.19209
 Mn239 Mn 0.56271 0.00239 0.00367
 Mn240 Mn 0.50320 -0.00544 -0.14371
 Cl241 Cl 0.50248 -0.00291 -0.00067
 C242 C 0.54273 -0.07587 -0.16578
 C243 C 0.60785 0.07762 -0.17907
 C244 C 1.15775 0.46578 0.28264
 C245 C 1.14013 0.45233 0.35940
 C246 C 1.10211 0.44028 0.36585
 C247 C 1.08230 0.44346 0.30186
 C248 C 1.09931 0.45840 0.22791
 C249 C 1.13676 0.46822 0.21619
 C250 C 1.19614 0.47999 0.27155
 C251 C 1.21267 0.49358 0.19642
 C252 C 1.19180 0.49447 0.13137
 C253 C 1.15429 0.48241 0.14118
 H254 H 1.21416 0.48175 0.32053
 H255 H 1.24202 0.50397 0.18897
 H256 H 1.20490 0.50526 0.07341
 H257 H 1.13919 0.48443 0.08974
 H258 H 1.08749 0.42889 0.42222
 H259 H 1.05350 0.43544 0.31135
 C260 C 0.55048 0.68220 0.30768
 C261 C 0.51928 0.67111 0.35949
 C262 C 0.48715 0.63808 0.34340
 C263 C 0.48562 0.61564 0.28074
 C264 C 0.51614 0.62483 0.23107
 C265 C 0.54881 0.65887 0.24261
 C266 C 0.58437 0.71408 0.32320
 C267 C 0.61501 0.72389 0.27388
 C268 C 0.61310 0.70178 0.20969
 C269 C 0.58068 0.66938 0.19478
 H270 H 0.58810 0.73141 0.37445
 H271 H 0.64062 0.74853 0.28641
 H272 H 0.63718 0.70939 0.17224
 H273 H 0.58149 0.65286 0.14604
 H274 H 0.46283 0.62908 0.38111
 H275 H 0.46045 0.58994 0.27286
 C276 C 0.31820 -0.16162 0.29135
 C277 C 0.31934 -0.14490 0.36780
 C278 C 0.34302 -0.10721 0.37563
 C279 C 0.36608 -0.08665 0.31309
 C280 C 0.36609 -0.10245 0.23893
 C281 C 0.34121 -0.13978 0.22606
 C282 C 0.29771 -0.19970 0.27971
 C283 C 0.29729 -0.21522 0.20479
 C284 C 0.31818 -0.19356 0.14051
 C285 C 0.34042 -0.15626 0.15111
 H286 H 0.28269 -0.21826 0.32820
 H287 H 0.28106 -0.24436 0.19698
 H288 H 0.31786 -0.20585 0.08269
 H289 H 0.35719 -0.14055 0.10039
 H290 H 0.34406 -0.09325 0.43155
 H291 H 0.38488 -0.05801 0.32349
 C292 C 0.87134 0.56258 0.31911
 C293 C 0.84649 0.53034 0.36063
 C294 C 0.84459 0.49743 0.34017
 C295 C 0.86760 0.49609 0.28085
 C296 C 0.89345 0.52764 0.24050
 C297 C 0.89547 0.56147 0.25913
 C298 C 0.87381 0.59624 0.33881
 C299 C 0.89957 0.62817 0.30082
 C300 C 0.92373 0.62737 0.24378
 C301 C 0.92207 0.59458 0.22352
 H302 H 0.85608 0.59828 0.38398
 H303 H 0.90113 0.65374 0.31655
 H304 H 0.94416 0.65238 0.21558
 H305 H 0.94240 0.59610 0.18099
 H306 H 0.82600 0.47277 0.37248
 H307 H 0.86591 0.47018 0.26792
 C308 C 0.52595 0.35619 0.33570
 C309 C 0.49249 0.32404 0.35288
 C310 C 0.46249 0.31285 0.29989
 C311 C 0.46383 0.33488 0.23562
 C312 C 0.49522 0.36873 0.22266
 C313 C 0.52748 0.37860 0.26951
 C314 C 0.55791 0.36649 0.38290
 C315 C 0.59065 0.39829 0.36556
 C316 C 0.59236 0.42001 0.30027
 C317 C 0.56127 0.41023 0.25214
 H318 H 0.55800 0.34975 0.43252
 H319 H 0.61495 0.40587 0.40231
 H320 H 0.61802 0.44438 0.28633
 H321 H 0.56426 0.42722 0.20034
 H322 H 0.43688 0.28806 0.31182
 H323 H 0.43906 0.32667 0.20004
 C324 C 0.65218 0.15575 0.33653
 C325 C 0.68435 0.15276 0.34697
 C326 C 0.69306 0.13368 0.28988
 C327 C 0.66846 0.11442 0.22763
 C328 C 0.63446 0.11365 0.22126
 C329 C 0.62707 0.13625 0.27289
 C330 C 0.64429 0.17744 0.38894
 C331 C 0.61191 0.17920 0.38022
 C332 C 0.58737 0.16027 0.31794
 C333 C 0.59512 0.13966 0.26355
 H334 H 0.66324 0.19343 0.43644
 H335 H 0.60600 0.19559 0.42149
 H336 H 0.56231 0.16175 0.31150
 H337 H 0.57610 0.12700 0.21380
 H338 H 0.71780 0.13152 0.29701
 H339 H 0.67476 0.09765 0.18843
 C340 C 0.48745 0.15325 -0.30054
 C341 C 0.46177 0.13668 -0.36587
 C342 C 0.43693 0.09902 -0.36197
 C343 C 0.43784 0.07784 -0.29869
 C344 C 0.46318 0.09331 -0.23577
 C345 C 0.48721 0.13125 -0.23417
 C346 C 0.51549 0.19014 -0.30204
 C347 C 0.53942 0.20564 -0.23643
 C348 C 0.53731 0.18452 -0.16963
 C349 C 0.51201 0.14748 -0.16904
 H350 H 0.52021 0.20731 -0.35426
 H351 H 0.56026 0.23407 -0.23820
 H352 H 0.55615 0.19666 -0.11923
 H353 H 0.51195 0.13161 -0.11728
 H354 H 0.41643 0.08551 -0.40901
 H355 H 0.41946 0.04872 -0.30057
 C356 C 0.68190 0.55562 -0.30251
 C357 C 0.66953 0.54353 -0.38347
 C358 C 0.63136 0.52432 -0.39831
 C359 C 0.60602 0.51797 -0.33758
 C360 C 0.61717 0.52988 -0.25798
 C361 C 0.65543 0.54720 -0.23880
 C362 C 0.71974 0.57785 -0.28373
 C363 C 0.73141 0.58775 -0.20389
 C364 C 0.70581 0.57630 -0.14118
 C365 C 0.66820 0.55637 -0.15814
 H366 H 0.74073 0.58848 -0.33021
 H367 H 0.76054 0.60426 -0.19058
 H368 H 0.71512 0.58336 -0.07907
 H369 H 0.64961 0.54775 -0.10706
 H370 H 0.62059 0.51335 -0.45787
 H371 H 0.57709 0.50390 -0.35421
 C372 C 0.86538 0.30237 -0.28441
 C373 C 0.86305 0.31480 -0.36373
 C374 C 0.87499 0.35184 -0.37496
 C375 C 0.89108 0.37656 -0.31287
 C376 C 0.89624 0.36577 -0.23576
 C377 C 0.88093 0.32802 -0.21928
 C378 C 0.85504 0.26566 -0.26888
 C379 C 0.85638 0.25387 -0.19053
 C380 C 0.86842 0.27829 -0.12623
 C381 C 0.88071 0.31500 -0.14017
 H382 H 0.84634 0.24571 -0.31676
 H383 H 0.84783 0.22556 -0.17957
 H384 H 0.86861 0.26879 -0.06525
 H385 H 0.88901 0.33263 -0.08793
 H386 H 0.87209 0.36213 -0.43328
 H387 H 0.90102 0.40488 -0.32730
 C388 C 0.58653 -0.10879 -0.32290
 C389 C 0.55562 -0.14315 -0.34038
 C390 C 0.52445 -0.15669 -0.29028
 C391 C 0.52208 -0.13535 -0.22884
 C392 C 0.55099 -0.10011 -0.21486
 C393 C 0.58414 -0.08693 -0.25993
 C394 C 0.61941 -0.09530 -0.36832
 C395 C 0.64903 -0.06076 -0.35316
 C396 C 0.64645 -0.03908 -0.29286
 C397 C 0.61435 -0.05186 -0.24667
 H398 H 0.62249 -0.11142 -0.41548
 H399 H 0.67407 -0.05072 -0.38856
 H400 H 0.66946 -0.01219 -0.28176
 H401 H 0.61355 -0.03407 -0.20064
 H402 H 0.50054 -0.18283 -0.30303
 H403 H 0.49654 -0.14556 -0.19511
 C404 C 0.29343 0.38193 -0.30577
 C405 C 0.28309 0.40829 -0.32606
 C406 C 0.29507 0.43909 -0.27681
 C407 C 0.32017 0.44603 -0.21424
 C408 C 0.33355 0.42212 -0.19801
 C409 C 0.31909 0.38896 -0.24150
 C410 C 0.27963 0.34922 -0.34976
 C411 C 0.29131 0.32420 -0.33186
 C412 C 0.31697 0.33137 -0.27033
 C413 C 0.33091 0.36345 -0.22562
 H414 H 0.25960 0.34273 -0.39787
 H415 H 0.28051 0.29920 -0.36610
 H416 H 0.32612 0.31196 -0.25715
 H417 H 0.35081 0.36787 -0.17858
 H418 H 0.28767 0.45969 -0.29157
 H419 H 0.33129 0.47162 -0.18205
 C420 C 1.12398 0.70150 -0.29099
 C421 C 1.13122 0.68856 -0.36489
 C422 C 1.12155 0.65182 -0.36962
 C423 C 1.10397 0.62801 -0.30684
 C424 C 1.09482 0.63908 -0.23447
 C425 C 1.10657 0.67679 -0.22430
 C426 C 1.13128 0.73771 -0.28338
 C427 C 1.12483 0.75033 -0.21054
 C428 C 1.11057 0.72717 -0.14420
 C429 C 1.10136 0.69079 -0.15075
 H430 H 1.14137 0.75648 -0.33384
 H431 H 1.13100 0.77829 -0.20549
 H432 H 1.10621 0.73736 -0.08744
 H433 H 1.09096 0.67450 -0.09682
 H434 H 1.12808 0.64102 -0.42291
 H435 H 1.09677 0.59998 -0.31691
 C436 C 0.87021 0.56949 -0.30503
 C437 C 0.84276 0.53709 -0.34153
 C438 C 0.83694 0.50353 -0.31273
 C439 C 0.85944 0.50165 -0.25266
 C440 C 0.88844 0.53323 -0.21905
 C441 C 0.89344 0.56769 -0.24332
 C442 C 0.87623 0.60373 -0.33159
 C443 C 0.90439 0.63561 -0.29809
 C444 C 0.92733 0.63401 -0.23865
 C445 C 0.92223 0.60053 -0.21180
 H446 H 0.85925 0.60614 -0.37831
 H447 H 0.90864 0.66170 -0.31887
 H448 H 0.94942 0.65889 -0.21356
 H449 H 0.94128 0.60100 -0.16677
 H450 H 0.81637 0.47858 -0.34098
 H451 H 0.85539 0.47519 -0.23527
 C452 C 0.51554 0.35375 -0.33227
 C453 C 0.48372 0.31964 -0.34927
 C454 C 0.45387 0.30631 -0.29469
 C455 C 0.45270 0.32843 -0.23300
 C456 C 0.48163 0.36406 -0.22308
 C457 C 0.51440 0.37604 -0.26898
 C458 C 0.54905 0.36550 -0.37485
 C459 C 0.57991 0.39903 -0.35834
 C460 C 0.57853 0.42107 -0.29750
 C461 C 0.54635 0.40963 -0.25245
 H462 H 0.55197 0.34848 -0.41979
 H463 H 0.60521 0.40765 -0.39198
 H464 H 0.60276 0.44682 -0.28394
 H465 H 0.54718 0.42689 -0.20315
 H466 H 0.42957 0.28014 -0.30476
 H467 H 0.42773 0.31868 -0.19735
 C468 C 0.65854 0.15275 -0.33512
 C469 C 0.68801 0.14629 -0.35447
 C470 C 0.69382 0.12208 -0.30687
 C471 C 0.66908 0.10205 -0.24509
 C472 C 0.63761 0.10530 -0.23041
 C473 C 0.63290 0.13185 -0.27341
 C474 C 0.65377 0.17931 -0.37712
 C475 C 0.62369 0.18425 -0.36088
 C476 C 0.59837 0.16353 -0.30130
 C477 C 0.60313 0.13805 -0.25682
 H478 H 0.67344 0.19668 -0.42216
 H479 H 0.62014 0.20440 -0.39429
 H480 H 0.57508 0.16743 -0.28911
 H481 H 0.58350 0.12367 -0.20899
 H482 H 0.71631 0.11699 -0.32093
 H483 H 0.67308 0.08191 -0.21270
 C484 C 1.15613 0.51093 -0.34809
 C485 C 1.15722 0.47788 -0.35195
 C486 C 1.14270 0.45328 -0.28691
 C487 C 1.12161 0.45777 -0.22714
 C488 C 1.11565 0.48765 -0.22895
 C489 C 1.13594 0.51622 -0.28489
 C490 C 1.17621 0.53950 -0.40361
 C491 C 1.17640 0.57245 -0.39699
 C492 C 1.15729 0.57789 -0.33435
 C493 C 1.13730 0.55021 -0.27860
 H494 H 1.19283 0.53700 -0.45096
 H495 H 1.19217 0.59417 -0.43957
 H496 H 1.15858 0.60395 -0.32809
 H497 H 1.12430 0.55632 -0.22891
 H498 H 1.14393 0.42825 -0.28714
 H499 H 1.10743 0.43619 -0.18322
 C500 C 0.51741 0.67818 -0.27482
 C501 C 0.49817 0.66464 -0.35002
 C502 C 0.47080 0.62782 -0.35400
 C503 C 0.46530 0.60397 -0.29099
 C504 C 0.48617 0.61583 -0.21974
 C505 C 0.50923 0.65380 -0.20769
 C506 C 0.54658 0.71433 -0.26550
 C507 C 0.56309 0.72729 -0.19016
 C508 C 0.55162 0.70455 -0.12282
 C509 C 0.52516 0.66810 -0.13131
 H510 H 0.55780 0.73297 -0.31572
 H511 H 0.58479 0.75523 -0.18395
 H512 H 0.56381 0.71502 -0.06398
 H513 H 0.51672 0.65167 -0.07700
 H514 H 0.45421 0.61682 -0.40824
 H515 H 0.44596 0.57543 -0.30060
 C516 C 0.35303 -0.16684 -0.32519
 C517 C 0.32114 -0.16371 -0.33880
 C518 C 0.31225 -0.14373 -0.28458
 C519 C 0.33668 -0.12343 -0.22302
 C520 C 0.37059 -0.12262 -0.21437
 C521 C 0.37778 -0.14652 -0.26167
 C522 C 0.36106 -0.18936 -0.37440
 C523 C 0.39256 -0.19228 -0.36037
 C524 C 0.41637 -0.17308 -0.29707
 C525 C 0.40914 -0.15047 -0.24787
 H526 H 0.34281 -0.20522 -0.42319
 H527 H 0.39832 -0.20980 -0.39824
 H528 H 0.44044 -0.17592 -0.28579
 H529 H 0.42785 -0.13683 -0.19808
 H530 H 0.28779 -0.14131 -0.29429
 H531 H 0.33045 -0.10575 -0.18681
 C532 C 0.57943 -0.11303 0.33222
 C533 C 0.54629 -0.14314 0.36029
 C534 C 0.51275 -0.15140 0.32365
 C535 C 0.51127 -0.12893 0.26371
 C536 C 0.54330 -0.09780 0.23791
 C537 C 0.57800 -0.08990 0.27090
 C538 C 0.61392 -0.10499 0.36543
 C539 C 0.64622 -0.07441 0.34018
 C540 C 0.64480 -0.05126 0.28190
 C541 C 0.61112 -0.05871 0.24768
 H542 H 0.61619 -0.12230 0.41092
 H543 H 0.67247 -0.06852 0.36631
 H544 H 0.66994 -0.02734 0.26317
 H545 H 0.61155 -0.03962 0.20354
 H546 H 0.48723 -0.17421 0.34502
 H547 H 0.48459 -0.13509 0.23949
 C548 C 0.29241 0.41444 0.30052
 C549 C 0.30437 0.42922 0.37929
 C550 C 0.34196 0.45256 0.39308
 C551 C 0.36778 0.46006 0.33250
 C552 C 0.35725 0.44520 0.25447
 C553 C 0.31888 0.42363 0.23663
 C554 C 0.25480 0.39033 0.28401
 C555 C 0.24304 0.37757 0.20559
 C556 C 0.26835 0.38854 0.14229
 C557 C 0.30584 0.41136 0.15724
 H558 H 0.23414 0.38101 0.33127
 H559 H 0.21406 0.35942 0.19370
 H560 H 0.25890 0.37928 0.08112
 H561 H 0.32386 0.41990 0.10527
 H562 H 0.35164 0.46481 0.45222
 H563 H 0.39658 0.47718 0.34810
 C564 C 1.13524 0.69856 0.27172
 C565 C 1.14426 0.68669 0.34433
 C566 C 1.13801 0.65111 0.34959
 C567 C 1.11937 0.62619 0.28871
 C568 C 1.10645 0.63582 0.21941
 C569 C 1.11732 0.67324 0.20711
 C570 C 1.14295 0.73481 0.26254
 C571 C 1.13518 0.74659 0.18988
 C572 C 1.11980 0.72265 0.12521
 C573 C 1.11102 0.68641 0.13330
 H574 H 1.15530 0.75442 0.31095
 H575 H 1.14163 0.77459 0.18329
 H576 H 1.11474 0.73223 0.06822
 H577 H 1.10073 0.66974 0.07989
 H578 H 1.14568 0.64189 0.40394
 H579 H 1.11320 0.59843 0.29875
 C580 C 0.48199 0.15548 0.28089
 C581 C 0.45233 0.13899 0.33722
 C582 C 0.42424 0.10317 0.32389
 C583 C 0.42659 0.08264 0.26049
 C584 C 0.45708 0.09734 0.20859
 C585 C 0.48414 0.13437 0.21583
 C586 C 0.51052 0.19183 0.28948
 C587 C 0.53934 0.20733 0.23344
 C588 C 0.54093 0.18681 0.16916
 C589 C 0.51387 0.15051 0.16073
 H590 H 0.51106 0.20873 0.33908
 H591 H 0.56078 0.23533 0.24044
 H592 H 0.56351 0.19893 0.12625
 H593 H 0.51615 0.13527 0.11042
 H594 H 0.40150 0.09020 0.36630
 H595 H 0.40588 0.05421 0.25589
 C596 C 0.68337 0.59136 0.30409
 C597 C 0.69166 0.56352 0.32400
 C598 C 0.67851 0.53286 0.27400
 C599 C 0.65412 0.52759 0.21079
 C600 C 0.64274 0.55310 0.19477
 C601 C 0.65854 0.58608 0.23914
 C602 C 0.69823 0.62378 0.34948
 C603 C 0.68848 0.65026 0.33203
 C604 C 0.66370 0.64486 0.26961
 C605 C 0.64869 0.61308 0.22362
 H606 H 0.71757 0.62888 0.39842
 H607 H 0.70007 0.67503 0.36734
 H608 H 0.65607 0.66542 0.25678
 H609 H 0.62952 0.61002 0.17589
 H610 H 0.68431 0.51117 0.28878
 H611 H 0.64181 0.50204 0.17817
 C612 C 0.91134 0.31670 0.33062
 C613 C 0.87326 0.30385 0.34449
 C614 C 0.85427 0.31595 0.29418
 C615 C 0.87295 0.34262 0.23557
 C616 C 0.91102 0.35761 0.22506
 C617 C 0.93046 0.34403 0.27089
 C618 C 0.93099 0.30361 0.37661
 C619 C 0.96879 0.31757 0.36497
 C620 C 0.98765 0.34475 0.30763
 C621 C 0.96881 0.35796 0.26090
 H622 H 0.91722 0.28241 0.42150
 H623 H 0.98354 0.30733 0.40078
 H624 H 1.01703 0.35565 0.29927
 H625 H 0.98455 0.37913 0.21718
 H626 H 0.82529 0.30678 0.30465
 H627 H 0.85789 0.35290 0.20084
   
