data_POSCAR
  _audit_creation_date              2014-09-24
  _audit_creation_method            'ToBaCCo'
  _symmetry_space_group_name_H-M    'P1'
  _symmetry_Int_Tables_number       1
  _symmetry_cell_setting            triclinic
  loop_
  _symmetry_equiv_pos_as_xyz
 x,y,z
_cell_length_a 48.7426
_cell_length_b 48.0035
_cell_length_c 48.7402
_cell_angle_alpha 89.908600
_cell_angle_beta 89.985200
_cell_angle_gamma 89.996400
loop_
  _atom_site_label
  _atom_site_type_symbol
  _atom_site_fract_x
  _atom_site_fract_y
  _atom_site_fract_z
N1 N 0.59341 0.66900 0.61257
 N2 N 0.58273 0.65770 0.63469
 C3 C 0.56049 0.67247 0.64222
 C4 C 0.55697 0.69424 0.62381
 C5 C 0.57834 0.69129 0.60526
 H6 H 0.54768 0.66759 0.65967
 H7 H 0.58280 0.70447 0.58784
 Cu8 Cu 0.59899 0.62476 0.65141
 Cu9 Cu 0.62608 0.65406 0.59488
 Cu10 Cu 0.65544 0.59542 0.62441
 N11 N 0.61561 0.59182 0.66775
 N12 N 0.63768 0.58048 0.65708
 C13 C 0.64491 0.55816 0.67217
 C14 C 0.62636 0.55518 0.69365
 C15 C 0.60803 0.57709 0.69003
 H16 H 0.66244 0.54519 0.66765
 H17 H 0.59046 0.58207 0.70258
 N18 N 0.67036 0.61360 0.59132
 N19 N 0.65915 0.63587 0.58005
 C20 C 0.67394 0.64322 0.55785
 C21 C 0.69555 0.62472 0.55493
 C22 C 0.69257 0.60623 0.57658
 H23 H 0.66941 0.66091 0.54490
 H24 H 0.70548 0.58853 0.58115
 H25 H 0.62068 0.61339 0.60776
 H26 H 0.64265 0.63612 0.62970
 N27 N 0.90740 0.33143 0.11169
 N28 N 0.91850 0.34312 0.13335
 C29 C 0.94075 0.32835 0.14089
 C30 C 0.94391 0.30608 0.12295
 C31 C 0.92218 0.30887 0.10468
 H32 H 0.95357 0.33354 0.15821
 H33 H 0.91729 0.29560 0.08749
 Cu34 Cu 0.90276 0.37647 0.14968
 Cu35 Cu 0.87459 0.34626 0.09418
 Cu36 Cu 0.84536 0.40494 0.12346
 N37 N 0.88560 0.40894 0.16630
 N38 N 0.86323 0.41998 0.15593
 C39 C 0.85578 0.44204 0.17122
 C40 C 0.87447 0.44506 0.19244
 C41 C 0.89311 0.42360 0.18861
 H42 H 0.83791 0.45475 0.16724
 H43 H 0.91094 0.41908 0.20100
 N44 N 0.83031 0.38669 0.09056
 N45 N 0.84140 0.36432 0.07945
 C46 C 0.82650 0.35686 0.05739
 C47 C 0.80493 0.37542 0.05439
 C48 C 0.80807 0.39405 0.07584
 H49 H 0.83118 0.33934 0.04433
 H50 H 0.79500 0.41157 0.08055
 H51 H 0.87995 0.38711 0.10636
 H52 H 0.85871 0.36445 0.12920
 N53 N 0.40692 0.16863 -0.11190
 N54 N 0.41801 0.15689 -0.13355
 C55 C 0.44032 0.17160 -0.14107
 C56 C 0.44342 0.19379 -0.12315
 C57 C 0.42175 0.19116 -0.10490
 H58 H 0.45318 0.16665 -0.15845
 H59 H 0.41716 0.20448 -0.08766
 Cu60 Cu 0.40218 0.12362 -0.14990
 Cu61 Cu 0.37409 0.15387 -0.09436
 Cu62 Cu 0.34476 0.09524 -0.12363
 N63 N 0.38498 0.09119 -0.16652
 N64 N 0.36260 0.08017 -0.15612
 C65 C 0.35512 0.05812 -0.17140
 C66 C 0.37380 0.05507 -0.19264
 C67 C 0.39247 0.07652 -0.18883
 H68 H 0.33725 0.04543 -0.16741
 H69 H 0.41030 0.08100 -0.20123
 N70 N 0.32975 0.11351 -0.09072
 N71 N 0.34088 0.13586 -0.07961
 C72 C 0.32598 0.14334 -0.05754
 C73 C 0.30439 0.12482 -0.05453
 C74 C 0.30750 0.10619 -0.07599
 H75 H 0.33069 0.16086 -0.04448
 H76 H 0.29441 0.08869 -0.08070
 H77 H 0.37939 0.11301 -0.10655
 H78 H 0.35817 0.13571 -0.12936
 N79 N 0.09280 0.83030 0.38770
 N80 N 0.08205 0.84169 0.36568
 C81 C 0.05979 0.82694 0.35816
 C82 C 0.05629 0.80498 0.37648
 C83 C 0.07781 0.80795 0.39497
 H84 H 0.04718 0.83194 0.34062
 H85 H 0.08241 0.79495 0.41247
 Cu86 Cu 0.09825 0.87469 0.34902
 Cu87 Cu 0.12547 0.84526 0.40538
 Cu88 Cu 0.15468 0.90408 0.37603
 N89 N 0.11482 0.90768 0.33274
 N90 N 0.13691 0.91902 0.34338
 C91 C 0.14412 0.94135 0.32830
 C92 C 0.12554 0.94428 0.30696
 C93 C 0.10722 0.92247 0.31050
 H94 H 0.16150 0.95456 0.33274
 H95 H 0.08978 0.91757 0.29771
 N96 N 0.16961 0.88587 0.40909
 N97 N 0.15853 0.86347 0.42022
 C98 C 0.17336 0.85606 0.44237
 C99 C 0.19486 0.87468 0.44540
 C100 C 0.19176 0.89330 0.42387
 H101 H 0.16869 0.83851 0.45546
 H102 H 0.20481 0.91085 0.41914
 H103 H 0.11997 0.88597 0.39266
 H104 H 0.14198 0.86338 0.37061
 C105 C 0.10349 0.14581 0.12480
 C106 C 0.12384 0.14576 0.10450
 C107 C 0.14432 0.12527 0.10472
 C108 C 0.14443 0.10483 0.12526
 C109 C 0.12409 0.10486 0.14558
 C110 C 0.10362 0.12535 0.14534
 H111 H 0.12374 0.16159 0.08859
 H112 H 0.16028 0.08897 0.12544
 H113 H 0.08787 0.12538 0.16106
 C114 C 0.39558 0.85454 0.62495
 C115 C 0.39536 0.87498 0.64543
 C116 C 0.37480 0.89537 0.64565
 C117 C 0.35444 0.89532 0.62536
 C118 C 0.35464 0.87489 0.60486
 C119 C 0.37521 0.85450 0.60467
 H120 H 0.41112 0.87501 0.66114
 H121 H 0.33852 0.91110 0.62553
 H122 H 0.37536 0.83868 0.58881
 C123 C 0.89614 0.64532 0.37521
 C124 C 0.87581 0.64523 0.39554
 C125 C 0.85528 0.62480 0.39532
 C126 C 0.85510 0.60444 0.37476
 C127 C 0.87542 0.60450 0.35442
 C128 C 0.89593 0.62494 0.35466
 H129 H 0.87596 0.66100 0.41145
 H130 H 0.83921 0.58862 0.37458
 H131 H 0.91167 0.62500 0.33892
 C132 C 0.60421 0.35469 -0.12508
 C133 C 0.62453 0.35472 -0.10476
 C134 C 0.64502 0.37519 -0.10495
 C135 C 0.64518 0.39564 -0.12550
 C136 C 0.62487 0.39563 -0.14584
 C137 C 0.60439 0.37515 -0.14562
 H138 H 0.62440 0.33889 -0.08886
 H139 H 0.66104 0.41149 -0.12566
 H140 H 0.58867 0.37513 -0.16136
 C141 C 0.00570 0.26491 0.14355
 C142 C 0.00569 0.24392 0.12373
 C143 C -0.01478 0.24348 0.10367
 C144 C -0.03518 0.26395 0.10337
 C145 C -0.03551 0.28535 0.12323
 C146 C -0.01465 0.28544 0.14335
 C147 C 0.02668 0.22283 0.12397
 C148 C 0.04426 0.20517 0.12416
 C149 C 0.06486 0.18450 0.12438
 C150 C 0.08246 0.16687 0.12457
 H151 H 0.02147 0.26545 0.15920
 H152 H -0.01497 0.22729 0.08821
 H153 H -0.05056 0.26274 0.08746
 H154 H -0.01379 0.30124 0.15908
 C155 C 0.51103 0.75402 0.60137
 C156 C 0.49386 0.75693 0.62419
 C157 C 0.49727 0.73940 0.64688
 C158 C 0.51776 0.71902 0.64679
 C159 C 0.53518 0.71588 0.62394
 C160 C 0.53154 0.73366 0.60122
 C161 C 0.47275 0.77791 0.62432
 C162 C 0.45508 0.79547 0.62444
 C163 C 0.43438 0.81602 0.62460
 C164 C 0.41670 0.83358 0.62475
 H165 H 0.50853 0.76745 0.58367
 H166 H 0.48412 0.74151 0.66468
 H167 H 0.51999 0.70595 0.66473
 H168 H 0.54433 0.73181 0.58319
 C169 C 1.01443 0.74290 0.39639
 C170 C 0.99423 0.74312 0.37606
 C171 C 0.99456 0.76381 0.35587
 C172 C 1.01500 0.78424 0.35596
 C173 C 1.03560 0.78437 0.37634
 C174 C 1.03492 0.76328 0.39658
 C175 C 0.97316 0.72210 0.37591
 C176 C 0.95552 0.70451 0.37577
 C177 C 0.93486 0.68391 0.37559
 C178 C 0.91721 0.66632 0.37543
 H179 H 1.01436 0.72695 0.41215
 H180 H 0.97899 0.76417 0.34001
 H181 H 1.01440 0.79980 0.33993
 H182 H 1.05009 0.76225 0.41271
 C183 C 0.48319 0.25988 -0.10722
 C184 C 0.50628 0.25674 -0.12399
 C185 C 0.50885 0.23307 -0.14049
 C186 C 0.48845 0.21261 -0.14025
 C187 C 0.46511 0.21552 -0.12345
 C188 C 0.46276 0.23944 -0.10693
 C189 C 0.52730 0.27779 -0.12425
 C190 C 0.54492 0.29541 -0.12447
 C191 C 0.56555 0.31603 -0.12470
 C192 C 0.58317 0.33365 -0.12488
 H193 H 0.48097 0.27815 -0.09439
 H194 H 0.52667 0.23041 -0.15352
 H195 H 0.49116 0.19447 -0.15309
 H196 H 0.44508 0.24260 -0.09389
 C197 C 0.10224 -0.01045 0.24734
 C198 C 0.12491 0.00707 0.24384
 C199 C 0.14778 0.00411 0.26092
 C200 C 0.14801 -0.01628 0.28144
 C201 C 0.12532 -0.03405 0.28517
 C202 C 0.10242 -0.03087 0.26783
 C203 C 0.12470 0.02807 0.22273
 C204 C 0.12453 0.04566 0.20506
 C205 C 0.12436 0.06626 0.18437
 C206 C 0.12423 0.08385 0.16669
 H207 H 0.08440 -0.00831 0.23425
 H208 H 0.16546 0.01753 0.25836
 H209 H 0.16609 -0.01816 0.29416
 H210 H 0.08449 -0.04393 0.27014
 C211 C 0.60556 0.51403 -0.24457
 C212 C 0.62577 0.49339 -0.24412
 C213 C 0.64618 0.49320 -0.26426
 C214 C 0.64643 0.51356 -0.28480
 C215 C 0.62617 0.53459 -0.28560
 C216 C 0.60571 0.53444 -0.26507
 C217 C 0.62556 0.47240 -0.22300
 C218 C 0.62538 0.45481 -0.20532
 C219 C 0.62519 0.43422 -0.18462
 C220 C 0.62504 0.41664 -0.16694
 H221 H 0.58964 0.51436 -0.22906
 H222 H 0.66195 0.47729 -0.26410
 H223 H 0.66261 0.51256 -0.29992
 H224 H 0.58967 0.54996 -0.26457
 C225 C 0.35656 0.99000 0.76660
 C226 C 0.37398 0.99280 0.74395
 C227 C 0.39132 1.01593 0.74197
 C228 C 0.39127 1.03619 0.76255
 C229 C 0.37384 1.03360 0.78545
 C230 C 0.35646 1.01023 0.78720
 C231 C 0.37411 0.97192 0.72280
 C232 C 0.37424 0.95441 0.70509
 C233 C 0.37442 0.93389 0.68439
 C234 C 0.37458 0.91635 0.66673
 H235 H 0.34309 0.97213 0.76837
 H236 H 0.40486 1.01834 0.72449
 H237 H 0.40477 1.05393 0.76030
 H238 H 0.34291 1.00733 0.80454
 C239 C 0.89214 0.48424 0.25777
 C240 C 0.87468 0.50729 0.25591
 C241 C 0.85713 0.51003 0.23336
 C242 C 0.85702 0.48982 0.21274
 C243 C 0.87452 0.46652 0.21436
 C244 C 0.89208 0.46400 0.23717
 C245 C 0.87480 0.52814 0.27710
 C246 C 0.87492 0.54562 0.29483
 C247 C 0.87507 0.56609 0.31558
 C248 C 0.87522 0.58359 0.33329
 H249 H 0.90578 0.48189 0.27516
 H250 H 0.84356 0.52783 0.23169
 H251 H 0.84337 0.49267 0.19548
 H252 H 0.90569 0.44634 0.23933
 C253 C 0.24488 0.10191 -0.00947
 C254 C 0.24172 0.12502 0.00768
 C255 C 0.25900 0.14807 0.00454
 C256 C 0.27937 0.14803 -0.01566
 C257 C 0.28275 0.12489 -0.03306
 C258 C 0.26522 0.10182 -0.02970
 C259 C 0.22078 0.12507 0.02850
 C260 C 0.20325 0.12512 0.04595
 C261 C 0.18273 0.12518 0.06639
 C262 C 0.16522 0.12523 0.08385
 H263 H 0.23164 0.08392 -0.00719
 H264 H 0.25671 0.16610 0.01769
 H265 H 0.29225 0.16626 -0.01769
 H266 H 0.26726 0.08354 -0.04248
 C267 C 0.76086 0.60781 0.51576
 C268 C 0.75802 0.62469 0.49252
 C269 C 0.73482 0.64158 0.48963
 C270 C 0.71451 0.64162 0.50989
 C271 C 0.71712 0.62471 0.53338
 C272 C 0.74057 0.60779 0.53605
 C273 C 0.77892 0.62468 0.47164
 C274 C 0.79642 0.62468 0.45416
 C275 C 0.81690 0.62471 0.43369
 C276 C 0.83439 0.62474 0.41620
 H277 H 0.77877 0.59468 0.51823
 H278 H 0.73239 0.65470 0.47168
 H279 H 0.69672 0.65474 0.50693
 H280 H 0.74349 0.59467 0.55387
 C281 C 0.74550 0.39844 0.00929
 C282 C 0.74230 0.37532 -0.00784
 C283 C 0.75952 0.35222 -0.00466
 C284 C 0.77987 0.35222 0.01555
 C285 C 0.78330 0.37538 0.03292
 C286 C 0.76583 0.39850 0.02953
 C287 C 0.72138 0.37529 -0.02867
 C288 C 0.70387 0.37526 -0.04613
 C289 C 0.68339 0.37523 -0.06659
 C290 C 0.66590 0.37521 -0.08407
 H291 H 0.73232 0.41646 0.00698
 H292 H 0.75718 0.33418 -0.01778
 H293 H 0.79269 0.33396 0.01761
 H294 H 0.76791 0.41678 0.04228
 C295 C 0.24019 0.85157 0.50462
 C296 C 0.25733 0.87471 0.50778
 C297 C 0.25409 0.89785 0.49060
 C298 C 0.23381 0.89786 0.47032
 C299 C 0.21643 0.87469 0.46693
 C300 C 0.21989 0.85153 0.48436
 C301 C 0.27822 0.87473 0.52865
 C302 C 0.29571 0.87475 0.54612
 C303 C 0.31620 0.87479 0.56657
 C304 C 0.33371 0.87484 0.58403
 H305 H 0.24255 0.83352 0.51778
 H306 H 0.26722 0.91590 0.49290
 H307 H 0.23170 0.91616 0.45752
 H308 H 0.20712 0.83323 0.48231
   
