data_POSCAR
  _audit_creation_date              2014-09-24
  _audit_creation_method            'ToBaCCo'
  _symmetry_space_group_name_H-M    'P1'
  _symmetry_Int_Tables_number       1
  _symmetry_cell_setting            triclinic
  loop_
  _symmetry_equiv_pos_as_xyz
 x,y,z
_cell_length_a 20.4296
_cell_length_b 20.5129
_cell_length_c 20.8146
_cell_angle_alpha 88.513200
_cell_angle_beta 90.910600
_cell_angle_gamma 91.679200
loop_
  _atom_site_label
  _atom_site_type_symbol
  _atom_site_fract_x
  _atom_site_fract_y
  _atom_site_fract_z
C1 C -0.00011 0.49865 0.24734
 C2 C 0.00768 0.51242 0.74929
 C3 C 0.24531 -0.01601 0.50223
 C4 C 0.75748 -0.00110 0.49902
 C5 C 0.50815 0.27024 1.00127
 C6 C 0.49521 0.73857 0.99878
 B7 B 1.00888 1.08295 0.02794
 B8 B 1.05126 1.01903 0.06421
 B9 B 0.96719 1.01937 0.07083
 B10 B 0.93519 1.04881 -0.00173
 B11 B 1.00076 1.06718 -0.05235
 B12 B 1.07253 1.04811 -0.01314
 B13 B 0.99899 0.93186 -0.02554
 B14 B 0.95558 0.99550 -0.06174
 B15 B 1.03939 0.99417 -0.06783
 B16 B 1.07073 0.96475 0.00571
 B17 B 1.00519 0.94701 0.05507
 B18 B 0.93432 0.96573 0.01320
 B19 B 0.57259 0.48160 0.46578
 B20 B 0.56870 0.48188 0.54739
 B21 B 0.55701 0.55363 0.50342
 B22 B 0.51378 0.53398 0.43485
 B23 B 0.49892 0.45076 0.43673
 B24 B 0.53123 0.41863 0.50688
 B25 B 0.43299 0.50300 0.53845
 B26 B 0.43745 0.50379 0.45572
 B27 B 0.44771 0.43252 0.50059
 B28 B 0.49082 0.45023 0.56981
 B29 B 0.50785 0.53283 0.56944
 B30 B 0.47372 0.56600 0.49848
 C31 C 0.98750 1.36819 0.11303
 C32 C 1.05215 1.35197 0.11427
 C33 C 1.10125 1.39303 0.13829
 C34 C 1.08247 1.44926 0.16928
 C35 C 1.01552 1.45854 0.18505
 C36 C 0.96756 1.42327 0.14708
 O37 O 0.94925 1.32204 0.08576
 C38 C 0.99080 1.27488 0.07259
 C39 C 1.05353 1.29045 0.09132
 C40 C 1.10226 1.24520 0.09267
 C41 C 1.08553 1.18138 0.07456
 C42 C 1.02221 1.16175 0.05013
 C43 C 0.97572 1.21301 0.04630
 H44 H 1.15236 1.38114 0.13524
 H45 H 1.12112 1.48005 0.18934
 H46 H 0.91593 1.43269 0.15070
 H47 H 1.15101 1.25745 0.11053
 H48 H 1.12424 1.14695 0.07914
 H49 H 0.93077 1.20836 0.02052
 C50 C 1.02746 0.67663 0.18064
 C51 C 0.96575 0.69955 0.18754
 C52 C 0.91273 0.66025 0.20571
 C53 C 0.92396 0.59477 0.22050
 C54 C 0.98860 0.57000 0.22327
 C55 C 1.04075 0.61160 0.19916
 O56 O 1.06859 0.72170 0.15476
 C57 C 1.03150 0.77404 0.14623
 C58 C 0.96901 0.76260 0.16731
 C59 C 0.92214 0.80944 0.16564
 C60 C 0.93857 0.86955 0.13690
 C61 C 0.99989 0.88275 0.10599
 C62 C 1.04860 0.83427 0.11533
 H63 H 0.86368 0.67881 0.20611
 H64 H 0.88128 0.56390 0.23000
 H65 H 1.08995 0.59413 0.19558
 H66 H 0.87390 0.79989 0.18516
 H67 H 0.90127 0.90473 0.13758
 H68 H 1.09715 0.84086 0.09769
 C69 C 0.98216 1.34077 -0.16718
 C70 C 1.04198 1.31550 -0.17805
 C71 C 1.09441 1.35160 -0.20224
 C72 C 1.08474 1.41674 -0.21882
 C73 C 1.02169 1.44532 -0.21514
 C74 C 0.96974 1.40535 -0.18746
 O75 O 0.94090 1.29712 -0.13919
 C76 C 0.97616 1.24324 -0.13359
 C77 C 1.03720 1.25250 -0.15896
 C78 C 1.08073 1.20331 -0.16451
 C79 C 1.06321 1.14274 -0.13800
 C80 C 1.00520 1.13178 -0.10140
 C81 C 0.95863 1.18268 -0.10359
 H82 H 1.14172 1.33024 -0.20809
 H83 H 1.12724 1.44246 -0.23767
 H84 H 0.92044 1.42296 -0.18494
 H85 H 1.12715 1.21124 -0.18828
 H86 H 1.09843 1.10580 -0.14402
 H87 H 0.91162 1.17667 -0.08118
 C88 C 1.00108 0.68116 -0.17407
 C89 C 0.98021 0.66542 -0.11340
 C90 C 0.96150 0.60235 -0.09435
 C91 C 0.96827 0.55257 -0.13868
 C92 C 0.98961 0.56662 -0.20273
 C93 C 1.00134 0.63382 -0.22077
 O94 O 1.02087 0.74324 -0.18123
 C95 C 1.01126 0.76737 -0.12362
 C96 C 0.98467 0.72215 -0.08137
 C97 C 0.96121 0.73891 -0.02261
 C98 C 0.96432 0.80495 -0.00760
 C99 C 0.99693 0.85389 -0.04651
 C100 C 1.02162 0.83231 -0.10597
 H101 H 0.94585 0.59118 -0.04575
 H102 H 0.95829 0.50376 -0.12096
 H103 H 1.01614 0.64819 -0.26893
 H104 H 0.93568 0.70347 0.00807
 H105 H 0.93514 0.81695 0.03185
 H106 H 1.03974 0.86523 -0.14206
 C107 C 1.18030 0.97356 0.32613
 C108 C 1.15005 1.03234 0.32352
 C109 C 1.13698 1.06801 0.37669
 C110 C 1.16118 1.04537 0.43525
 C111 C 1.20014 0.98830 0.44081
 C112 C 1.20676 0.94983 0.38494
 O113 O 1.18118 0.94599 0.26864
 C114 C 1.15167 0.98947 0.22980
 C115 C 1.13386 1.04335 0.26168
 C116 C 1.09806 1.09247 0.23420
 C117 C 1.07599 1.08445 0.17169
 C118 C 1.09332 1.03099 0.13301
 C119 C 1.13162 0.98165 0.16533
 H120 H 1.11077 1.11308 0.37307
 H121 H 1.15511 1.07607 0.47621
 H122 H 1.23507 0.90610 0.38590
 H123 H 1.08081 1.13201 0.26231
 H124 H 1.03575 1.11485 0.15917
 H125 H 1.13871 0.93490 0.14488
 C126 C 1.18395 0.95268 -0.32115
 C127 C 1.11925 0.96454 -0.33187
 C128 C 1.09092 0.97240 -0.39164
 C129 C 1.13147 0.97082 -0.44391
 C130 C 1.20143 0.97278 -0.43692
 C131 C 1.22778 0.95967 -0.37338
 O132 O 1.19711 0.94159 -0.25834
 C133 C 1.13934 0.95051 -0.23026
 C134 C 1.09235 0.96768 -0.27415
 C135 C 1.03706 0.99899 -0.25831
 C136 C 1.02984 1.01270 -0.19436
 C137 C 1.06728 0.98417 -0.14328
 C138 C 1.12403 0.94977 -0.16389
 H139 H 1.03846 0.97666 -0.39796
 H140 H 1.10583 0.96895 -0.48941
 H141 H 1.28001 0.95612 -0.36522
 H142 H 1.00550 1.02071 -0.29477
 H143 H 0.99586 1.04930 -0.18674
 H144 H 1.15395 0.92114 -0.13138
 C145 C 0.82481 1.04250 0.32863
 C146 C 0.88814 1.02506 0.33848
 C147 C 0.91362 1.00304 0.39623
 C148 C 0.87196 0.99794 0.44766
 C149 C 0.80340 1.00891 0.44055
 C150 C 0.77986 1.03243 0.37893
 O151 O 0.81311 1.06155 0.26743
 C152 C 0.87048 1.05289 0.23888
 C153 C 0.91565 1.02827 0.28099
 C154 C 0.96902 0.99628 0.26222
 C155 C 0.97714 0.99038 0.19730
 C156 C 0.94087 1.02503 0.14834
 C157 C 0.88528 1.05842 0.17260
 H158 H 0.96479 0.99138 0.40197
 H159 H 0.89594 0.98536 0.49225
 H160 H 0.72861 1.04216 0.37056
 H161 H 1.00002 0.97036 0.29635
 H162 H 1.01549 0.95871 0.18814
 H163 H 0.85029 1.08247 0.14268
 C164 C 0.82756 1.02641 -0.32668
 C165 C 0.84921 0.96455 -0.31553
 C166 C 0.85373 0.91873 -0.36202
 C167 C 0.83110 0.93547 -0.42282
 C168 C 0.79928 0.99592 -0.43681
 C169 C 0.79996 1.04343 -0.38734
 O170 O 0.83465 1.06312 -0.27454
 C171 C 0.85987 1.02197 -0.23028
 C172 C 0.86697 0.96113 -0.25360
 C173 C 0.88737 0.90887 -0.21706
 C174 C 0.90604 0.92025 -0.15419
 C175 C 0.91087 0.98349 -0.12848
 C176 C 0.88259 1.03527 -0.16743
 H177 H 0.87423 0.87141 -0.35192
 H178 H 0.83447 0.89873 -0.45894
 H179 H 0.77812 1.09040 -0.39435
 H180 H 0.88844 0.86030 -0.23616
 H181 H 0.91760 0.87799 -0.12814
 H182 H 0.88303 1.08487 -0.15162
 C183 C 1.32619 1.21035 -0.02358
 C184 C 1.33570 1.14953 -0.04619
 C185 C 1.39579 1.12032 -0.04459
 C186 C 1.44980 1.15748 -0.02377
 C187 C 1.44531 1.22547 -0.01126
 C188 C 1.38031 1.24891 -0.00420
 O189 O 1.26280 1.22347 -0.01793
 C190 C 1.23230 1.16888 -0.03732
 C191 C 1.27540 1.12372 -0.05605
 C192 C 1.25607 1.06291 -0.07515
 C193 C 1.19085 1.04504 -0.06658
 C194 C 1.14482 1.08414 -0.03600
 C195 C 1.16509 1.15165 -0.03284
 H196 H 1.40040 1.06933 -0.05542
 H197 H 1.49433 1.13133 -0.01596
 H198 H 1.37089 1.29380 0.01891
 H199 H 1.29083 1.02818 -0.09121
 H200 H 1.18087 0.99598 -0.07453
 H201 H 1.13102 1.19006 -0.02872
 C202 C 0.68509 1.20404 0.01350
 C203 C 0.68289 1.16504 -0.03881
 C204 C 0.63107 1.16182 -0.08208
 C205 C 0.57731 1.19915 -0.06992
 C206 C 0.57239 1.23363 -0.01147
 C207 C 0.62973 1.23888 0.02903
 O208 O 0.74166 1.20040 0.04646
 C209 C 0.77457 1.15674 0.01430
 C210 C 0.73908 1.13315 -0.03670
 C211 C 0.75561 1.07872 -0.06848
 C212 C 0.81344 1.05005 -0.04973
 C213 C 0.86103 1.08045 -0.00829
 C214 C 0.83687 1.13187 0.02902
 H215 H 0.63255 1.13260 -0.12458
 H216 H 0.53799 1.19976 -0.10542
 H217 H 0.63143 1.26842 0.07133
 H218 H 0.72229 1.05548 -0.10243
 H219 H 0.81763 1.00198 -0.06695
 H220 H 0.86366 1.15118 0.06927
 C221 C 1.31449 0.79834 -0.00415
 C222 C 1.32844 0.86206 0.00948
 C223 C 1.38975 0.89090 0.00490
 C224 C 1.44062 0.85098 -0.00897
 C225 C 1.43295 0.78140 -0.00538
 C226 C 1.36700 0.75488 -0.00862
 O227 O 1.24963 0.78666 -0.01082
 C228 C 1.22379 0.84454 0.00138
 C229 C 1.27114 0.88969 0.01770
 C230 C 1.25876 0.94979 0.04074
 C231 C 1.19421 0.96708 0.04295
 C232 C 1.14180 0.92842 0.01581
 C233 C 1.15758 0.86386 -0.00359
 H234 H 1.39747 0.94323 0.00757
 H235 H 1.48629 0.87605 -0.02030
 H236 H 1.35748 0.70304 -0.01328
 H237 H 1.29775 0.98285 0.05647
 H238 H 1.18763 1.01569 0.05933
 H239 H 1.12074 0.82992 -0.02104
 C240 C 0.67174 0.81638 -0.01718
 C241 C 0.67051 0.85705 0.03400
 C242 C 0.61724 0.86274 0.07297
 C243 C 0.56216 0.82431 0.05929
 C244 C 0.55787 0.78404 0.00401
 C245 C 0.61484 0.77996 -0.03481
 O246 O 0.73082 0.81632 -0.04404
 C247 C 0.76630 0.85874 -0.00905
 C248 C 0.73058 0.88496 0.03814
 C249 C 0.75450 0.93309 0.07731
 C250 C 0.81803 0.95593 0.06689
 C251 C 0.86082 0.92898 0.02240
 C252 C 0.83250 0.87842 -0.01668
 H253 H 0.61893 0.89368 0.11434
 H254 H 0.52168 0.82574 0.09218
 H255 H 0.61613 0.74744 -0.07480
 H256 H 0.72395 0.95550 0.11205
 H257 H 0.83168 0.99787 0.09118
 H258 H 0.85895 0.85455 -0.05214
 C259 C 0.85325 0.49055 0.36456
 C260 C 0.82070 0.43630 0.34237
 C261 C 0.84822 0.39314 0.30108
 C262 C 0.91023 0.40929 0.27695
 C263 C 0.94037 0.47156 0.28764
 C264 C 0.91438 0.50920 0.33833
 O265 O 0.81775 0.52322 0.40604
 C266 C 0.76084 0.48922 0.40808
 C267 C 0.76057 0.43727 0.36820
 C268 C 0.70529 0.40037 0.35482
 C269 C 0.64753 0.41671 0.38402
 C270 C 0.64387 0.46663 0.43059
 C271 C 0.70393 0.50284 0.44294
 H272 H 0.82296 0.34810 0.28824
 H273 H 0.93335 0.37292 0.24943
 H274 H 0.93818 0.55457 0.35241
 H275 H 0.70619 0.36025 0.32206
 H276 H 0.60954 0.38207 0.37550
 H277 H 0.70660 0.54087 0.47742
 C278 C 0.15634 0.53189 0.35351
 C279 C 0.18304 0.47304 0.34234
 C280 C 0.14748 0.41898 0.32187
 C281 C 0.08222 0.42772 0.30513
 C282 C 0.05817 0.49185 0.29601
 C283 C 0.09321 0.54434 0.32739
 O284 O 0.19924 0.57269 0.38308
 C285 C 0.25447 0.53865 0.38665
 C286 C 0.24654 0.48029 0.35747
 C287 C 0.29837 0.44677 0.33634
 C288 C 0.36028 0.46740 0.35690
 C289 C 0.37010 0.51113 0.40812
 C290 C 0.31628 0.55441 0.41605
 H291 H 0.16931 0.37169 0.31904
 H292 H 0.05419 0.38575 0.28824
 H293 H 0.07431 0.59301 0.32786
 H294 H 0.29170 0.40690 0.30348
 H295 H 0.39710 0.44101 0.33665
 H296 H 0.31974 0.59580 0.44589
 C297 C 0.84318 0.52782 0.65586
 C298 C 0.83623 0.46519 0.63513
 C299 C 0.88542 0.42031 0.63983
 C300 C 0.94374 0.43960 0.67041
 C301 C 0.95060 0.50128 0.70044
 C302 C 0.90007 0.54734 0.68927
 O303 O 0.78898 0.56189 0.64699
 C304 C 0.74679 0.51874 0.62146
 C305 C 0.77341 0.45885 0.61527
 C306 C 0.73601 0.40371 0.60326
 C307 C 0.66939 0.41152 0.59223
 C308 C 0.64099 0.47362 0.58399
 C309 C 0.68070 0.52797 0.60484
 H310 H 0.87870 0.37157 0.62164
 H311 H 0.98195 0.40421 0.67460
 H312 H 0.90219 0.59552 0.70884
 H313 H 0.75647 0.35562 0.60662
 H314 H 0.64162 0.36738 0.59235
 H315 H 0.66135 0.57547 0.61006
 C316 C 0.15259 0.52788 0.62919
 C317 C 0.19614 0.56209 0.66700
 C318 C 0.18229 0.58332 0.72751
 C319 C 0.12095 0.56801 0.75149
 C320 C 0.07123 0.53583 0.71386
 C321 C 0.08825 0.51538 0.65086
 O322 O 0.18144 0.50207 0.57866
 C323 C 0.24455 0.52022 0.58607
 C324 C 0.25454 0.55697 0.63967
 C325 C 0.31504 0.56848 0.66690
 C326 C 0.36780 0.54396 0.63637
 C327 C 0.36384 0.51608 0.57480
 C328 C 0.29922 0.49939 0.55143
 H329 H 0.21931 0.60641 0.75772
 H330 H 0.11379 0.57826 0.80158
 H331 H 0.05499 0.48639 0.62179
 H332 H 0.32102 0.58851 0.71432
 H333 H 0.40848 0.53673 0.66721
 H334 H 0.29169 0.46899 0.51023
 C335 C 0.47527 0.66424 0.17300
 C336 C 0.53755 0.64191 0.18069
 C337 C 0.58266 0.64151 0.13252
 C338 C 0.56426 0.66772 0.07350
 C339 C 0.50177 0.69663 0.06229
 C340 C 0.45581 0.69351 0.11369
 O341 O 0.44050 0.65587 0.22678
 C342 C 0.48290 0.62834 0.26831
 C343 C 0.54283 0.62083 0.24180
 C344 C 0.59595 0.59692 0.27500
 C345 C 0.58647 0.57569 0.33787
 C346 C 0.52420 0.57524 0.36728
 C347 C 0.47182 0.60557 0.33185
 H348 H 0.63089 0.62196 0.14014
 H349 H 0.60062 0.66806 0.03623
 H350 H 0.40822 0.71484 0.10905
 H351 H 0.64336 0.59376 0.25295
 H352 H 0.62860 0.55702 0.36052
 H353 H 0.42415 0.61081 0.35205
 C354 C 0.48957 0.67965 0.82283
 C355 C 0.51557 0.61947 0.83252
 C356 C 0.52490 0.59066 0.89230
 C357 C 0.51037 0.62695 0.94530
 C358 C 0.49562 0.69463 0.93901
 C359 C 0.48212 0.72029 0.87561
 O360 O 0.47517 0.69205 0.76083
 C361 C 0.49514 0.63889 0.73173
 C362 C 0.52256 0.59536 0.77397
 C363 C 0.55327 0.54062 0.75558
 C364 C 0.55394 0.52827 0.69051
 C365 C 0.51803 0.56476 0.64339
 C366 C 0.48824 0.62298 0.66646
 H367 H 0.53968 0.54052 0.89790
 H368 H 0.51189 0.60060 0.99063
 H369 H 0.46690 0.76999 0.86781
 H370 H 0.57797 0.50916 0.79017
 H371 H 0.58117 0.48714 0.67955
 H372 H 0.45735 0.65288 0.63588
 C373 C 0.51200 0.35677 0.16389
 C374 C 0.50565 0.30322 0.20465
 C375 C 0.50035 0.24001 0.18345
 C376 C 0.50153 0.23139 0.11730
 C377 C 0.50661 0.28556 0.07291
 C378 C 0.51281 0.34953 0.09721
 O379 O 0.51556 0.41249 0.19500
 C380 C 0.51113 0.39315 0.25631
 C381 C 0.50483 0.32703 0.26449
 C382 C 0.49592 0.29671 0.32384
 C383 C 0.49309 0.33639 0.37724
 C384 C 0.49916 0.40596 0.37209
 C385 C 0.50954 0.43339 0.30898
 H386 H 0.49577 0.19870 0.21665
 H387 H 0.49884 0.18193 0.10040
 H388 H 0.51855 0.39212 0.06590
 H389 H 0.48975 0.24425 0.32890
 H390 H 0.48352 0.31140 0.42187
 H391 H 0.51052 0.48411 0.29818
 C392 C 0.53041 0.36141 0.84292
 C393 C 0.46848 0.38451 0.83606
 C394 C 0.42871 0.39421 0.88830
 C395 C 0.45033 0.37019 0.94859
 C396 C 0.50655 0.33084 0.95368
 C397 C 0.55247 0.33852 0.90257
 O398 O 0.56104 0.35633 0.78751
 C399 C 0.51664 0.37562 0.74446
 C400 C 0.45925 0.39260 0.77181
 C401 C 0.40480 0.40781 0.73531
 C402 C 0.41263 0.41333 0.66875
 C403 C 0.47516 0.41086 0.63928
 C404 C 0.52481 0.38181 0.67792
 H405 H 0.38205 0.41750 0.88264
 H406 H 0.42078 0.37859 0.98976
 H407 H 0.60121 0.31957 0.90530
 H408 H 0.35775 0.41465 0.75699
 H409 H 0.36854 0.42062 0.64167
 H410 H 0.57111 0.37099 0.65971
 C411 C 0.70906 0.81516 0.47559
 C412 C 0.68185 0.80528 0.53476
 C413 C 0.66786 0.85415 0.57608
 C414 C 0.68622 0.91673 0.55818
 C415 C 0.72049 0.93136 0.50001
 C416 C 0.73043 0.87916 0.45657
 O417 O 0.70759 0.76013 0.44162
 C418 C 0.67785 0.71590 0.48103
 C419 C 0.66312 0.74270 0.53844
 C420 C 0.61935 0.71542 0.58042
 C421 C 0.58616 0.66097 0.56028
 C422 C 0.60449 0.62163 0.50970
 C423 C 0.65186 0.65230 0.46667
 H424 H 0.64399 0.84462 0.62152
 H425 H 0.67841 0.95422 0.59278
 H426 H 0.75554 0.88745 0.41162
 H427 H 0.60039 0.74250 0.61967
 H428 H 0.53733 0.66084 0.57315
 H429 H 0.66464 0.63168 0.42209
 C430 C 0.68182 0.16948 0.49188
 C431 C 0.61771 0.15394 0.50569
 C432 C 0.59352 0.09069 0.51035
 C433 C 0.63762 0.04118 0.50205
 C434 C 0.70695 0.05441 0.49820
 C435 C 0.72830 0.12080 0.49052
 O436 O 0.69257 0.23315 0.48306
 C437 C 0.63401 0.25748 0.49279
 C438 C 0.58756 0.21129 0.50945
 C439 C 0.52801 0.22698 0.53481
 C440 C 0.51538 0.29333 0.54008
 C441 C 0.55647 0.34299 0.51215
 C442 C 0.61871 0.32294 0.49085
 H443 H 0.54179 0.07987 0.51668
 H444 H 0.61570 -0.00702 0.49885
 H445 H 0.77948 0.13395 0.48377
 H446 H 0.49482 0.18979 0.55452
 H447 H 0.47482 0.30544 0.56794
 H448 H 0.65883 0.35637 0.48264
 C449 C 0.32136 0.81385 0.50981
 C450 C 0.38126 0.82795 0.48335
 C451 C 0.40304 0.89027 0.46738
 C452 C 0.36083 0.94069 0.47799
 C453 C 0.29479 0.92839 0.49853
 C454 C 0.27569 0.86281 0.51531
 O455 O 0.31388 0.75133 0.52737
 C456 C 0.37006 0.72610 0.51006
 C457 C 0.41148 0.77079 0.48110
 C458 C 0.46927 0.75447 0.45323
 C459 C 0.48525 0.68893 0.45567
 C460 C 0.44733 0.64072 0.49072
 C461 C 0.38850 0.66160 0.51864
 H462 H 0.45209 0.90013 0.44993
 H463 H 0.38197 0.98868 0.46990
 H464 H 0.22711 0.85033 0.53255
 H465 H 0.49991 0.79052 0.42824
 H466 H 0.52889 0.67761 0.43094
 H467 H 0.35527 0.62992 0.54406
 C468 C 0.30474 0.16367 0.53188
 C469 C 0.31206 0.18138 0.46848
 C470 C 0.31554 0.13752 0.42006
 C471 C 0.30530 0.07261 0.43648
 C472 C 0.28286 0.05173 0.49907
 C473 C 0.28637 0.09848 0.54897
 O474 O 0.31821 0.21363 0.57039
 C475 C 0.33274 0.26321 0.52929
 C476 C 0.32585 0.24542 0.46637
 C477 C 0.33456 0.28577 0.41295
 C478 C 0.36193 0.34718 0.42028
 C479 C 0.38605 0.36773 0.48840
 C480 C 0.36159 0.32403 0.54449
 H481 H 0.32765 0.15251 0.37132
 H482 H 0.30798 0.03862 0.39774
 H483 H 0.27390 0.08553 0.59801
 H484 H 0.32211 0.26939 0.36519
 H485 H 0.37928 0.36509 0.45410
 H486 H 0.37374 0.33148 0.59349
   
