data_POSCAR
  _audit_creation_date              2014-09-24
  _audit_creation_method            'ToBaCCo'
  _symmetry_space_group_name_H-M    'P1'
  _symmetry_Int_Tables_number       1
  _symmetry_cell_setting            triclinic
  loop_
  _symmetry_equiv_pos_as_xyz
 x,y,z
_cell_length_a 42.0248
_cell_length_b 41.9775
_cell_length_c 37.6599
_cell_angle_alpha 90.000000
_cell_angle_beta 89.928900
_cell_angle_gamma 90.002000
loop_
  _atom_site_label
  _atom_site_type_symbol
  _atom_site_fract_x
  _atom_site_fract_y
  _atom_site_fract_z
C1 C -0.09850 0.30164 -0.01847
 C2 C -0.09871 0.30162 0.01795
 C3 C -0.06783 0.29493 0.02869
 N4 N -0.04890 0.29075 0.00001
 C5 C -0.06753 0.29497 -0.02883
 C6 C -0.05823 0.29013 0.06424
 C7 C -0.02619 0.28571 0.07471
 C8 C -0.01658 0.27520 0.10799
 C9 C 0.01613 0.27527 0.10797
 C10 C 0.02570 0.28580 0.07471
 N11 N -0.00023 0.29243 0.05476
 C12 C 0.05770 0.29032 0.06430
 C13 C 0.06758 0.29503 0.02886
 C14 C 0.09855 0.30167 0.01849
 C15 C 0.09876 0.30157 -0.01793
 C16 C 0.06788 0.29485 -0.02865
 N17 N 0.04895 0.29075 0.00003
 C18 C 0.05828 0.28997 -0.06420
 C19 C 0.02624 0.28552 -0.07465
 C20 C 0.01663 0.27494 -0.10790
 C21 C -0.01608 0.27501 -0.10788
 C22 C -0.02565 0.28562 -0.07465
 N23 N 0.00028 0.29229 -0.05472
 C24 C -0.05765 0.29017 -0.06426
 H25 H -0.11894 0.30552 -0.03539
 H26 H -0.11934 0.30550 0.03463
 H27 H 0.00022 0.30387 -0.03036
 H28 H -0.03159 0.26829 0.13006
 H29 H 0.03114 0.26842 0.13002
 H30 H 0.11899 0.30560 0.03539
 H31 H 0.11939 0.30540 -0.03463
 H32 H -0.03110 0.26811 -0.12991
 H33 H -0.00017 0.30395 0.03037
 H34 H 0.03164 0.26797 -0.12995
 C35 C 0.40094 0.80215 0.48216
 C36 C 0.40105 0.80228 0.51859
 C37 C 0.43208 0.79602 0.52900
 N38 N 0.45081 0.79196 0.50017
 C39 C 0.43190 0.79583 0.47150
 C40 C 0.44196 0.79154 0.56445
 C41 C 0.47399 0.78723 0.57483
 C42 C 0.48361 0.77697 0.60816
 C43 C 0.51633 0.77690 0.60803
 C44 C 0.52586 0.78713 0.57463
 N45 N 0.49989 0.79374 0.55473
 C46 C 0.55786 0.79132 0.56401
 C47 C 0.56755 0.79593 0.52849
 C48 C 0.59851 0.80225 0.51781
 C49 C 0.59840 0.80232 0.48138
 C50 C 0.56737 0.79602 0.47099
 N51 N 0.54864 0.79199 0.49982
 C52 C 0.55749 0.79148 0.43554
 C53 C 0.52547 0.78713 0.42517
 C54 C 0.51585 0.77680 0.39187
 C55 C 0.48313 0.77671 0.39199
 C56 C 0.47360 0.78699 0.42537
 N57 N 0.49956 0.79364 0.44526
 C58 C 0.44160 0.79117 0.43598
 H59 H 0.38031 0.80574 0.46544
 H60 H 0.38052 0.80598 0.53548
 H61 H 0.49960 0.80501 0.46973
 H62 H 0.46862 0.77025 0.63032
 H63 H 0.53138 0.77013 0.63008
 H64 H 0.61913 0.80589 0.53452
 H65 H 0.61892 0.80601 0.46448
 H66 H 0.46809 0.76988 0.36996
 H67 H 0.49984 0.80506 0.53024
 H68 H 0.53084 0.77006 0.36971
 C69 C 1.09952 0.69840 0.01802
 C70 C 1.09946 0.69840 -0.01840
 C71 C 1.06854 0.70519 -0.02888
 N72 N 1.04982 0.70943 -0.00004
 C73 C 1.06862 0.70518 0.02868
 C74 C 1.05875 0.71002 -0.06437
 C75 C 1.02669 0.71451 -0.07472
 C76 C 1.01699 0.72509 -0.10794
 C77 C 0.98428 0.72500 -0.10783
 C78 C 0.97480 0.71439 -0.07458
 N79 N 1.00079 0.70772 -0.05472
 C80 C 0.94282 0.70987 -0.06408
 C81 C 0.93313 0.70501 -0.02861
 C82 C 0.90221 0.69841 -0.01801
 C83 C 0.90226 0.69831 0.01842
 C84 C 0.93321 0.70486 0.02887
 N85 N 0.95196 0.70908 0.00009
 C86 C 0.94299 0.70957 0.06431
 C87 C 0.97496 0.71413 0.07472
 C88 C 0.98444 0.72468 0.10798
 C89 C 1.01715 0.72483 0.10799
 C90 C 1.02685 0.71435 0.07470
 N91 N 1.00095 0.70757 0.05476
 C92 C 1.05891 0.70997 0.06424
 H93 H 1.12007 0.69444 0.03475
 H94 H 1.11997 0.69445 -0.03525
 H95 H 1.00099 0.69605 0.03037
 H96 H 1.03194 0.73206 -0.13004
 H97 H 0.96921 0.73190 -0.12981
 H98 H 0.88164 0.69464 -0.03477
 H99 H 0.88173 0.69445 0.03527
 H100 H 1.03210 0.73177 0.13006
 H101 H 1.00086 0.69614 -0.03037
 H102 H 0.96936 0.73149 0.13003
 C103 C 0.59881 0.19789 0.48199
 C104 C 0.59867 0.19775 0.51843
 C105 C 0.56764 0.20400 0.52889
 N106 N 0.54892 0.20807 0.50009
 C107 C 0.56786 0.20420 0.47139
 C108 C 0.55772 0.20848 0.56436
 C109 C 0.52569 0.21279 0.57479
 C110 C 0.51604 0.22305 0.60814
 C111 C 0.48332 0.22312 0.60807
 C112 C 0.47382 0.21289 0.57469
 N113 N 0.49980 0.20629 0.55473
 C114 C 0.44183 0.20870 0.56412
 C115 C 0.43216 0.20408 0.52861
 C116 C 0.40121 0.19776 0.51799
 C117 C 0.40136 0.19769 0.48156
 C118 C 0.43239 0.20398 0.47111
 N119 N 0.45110 0.20802 0.49991
 C120 C 0.44230 0.20852 0.43565
 C121 C 0.47433 0.21288 0.42522
 C122 C 0.48397 0.22321 0.39190
 C123 C 0.51669 0.22332 0.39197
 C124 C 0.52620 0.21304 0.42533
 N125 N 0.50022 0.20638 0.44527
 C126 C 0.55819 0.20886 0.43589
 H127 H 0.61945 0.19430 0.46524
 H128 H 0.61919 0.19405 0.53528
 H129 H 0.50016 0.19501 0.46974
 H130 H 0.53101 0.22977 0.63028
 H131 H 0.46825 0.22989 0.63014
 H132 H 0.38057 0.19413 0.53474
 H133 H 0.38084 0.19400 0.46470
 H134 H 0.53175 0.23014 0.36991
 H135 H 0.49987 0.19496 0.53024
 H136 H 0.46899 0.22995 0.36977
 C137 C 0.69820 -0.09905 -0.01899
 C138 C 0.69826 -0.09915 0.01742
 C139 C 0.70518 -0.06826 0.02806
 N140 N 0.70946 -0.04942 -0.00067
 C141 C 0.70510 -0.06810 -0.02948
 C142 C 0.71009 -0.05860 0.06359
 C143 C 0.71458 -0.02652 0.07402
 C144 C 0.72517 -0.01685 0.10724
 C145 C 0.72505 0.01589 0.10722
 C146 C 0.71441 0.02541 0.07402
 N147 N 0.70777 -0.00057 0.05410
 C148 C 0.70977 0.05742 0.06365
 C149 C 0.70494 0.06725 0.02824
 C150 C 0.69815 0.09821 0.01788
 C151 C 0.69820 0.09837 -0.01854
 C152 C 0.70504 0.06748 -0.02927
 N153 N 0.70926 0.04858 -0.00060
 C154 C 0.70998 0.05784 -0.06481
 C155 C 0.71460 0.02578 -0.07525
 C156 C 0.72534 0.01620 -0.10847
 C157 C 0.72535 -0.01653 -0.10851
 C158 C 0.71462 -0.02619 -0.07532
 N159 N 0.70784 -0.00024 -0.05537
 C160 C 0.70998 -0.05828 -0.06498
 H161 H 0.69416 -0.11954 -0.03584
 H162 H 0.69426 -0.11973 0.03417
 H163 H 0.69616 -0.00031 -0.03106
 H164 H 0.73214 -0.03185 0.12928
 H165 H 0.73192 0.03096 0.12924
 H166 H 0.69416 0.11868 0.03479
 H167 H 0.69426 0.11899 -0.03523
 H168 H 0.73235 -0.03153 -0.13056
 H169 H 0.69618 -0.00057 0.02977
 H170 H 0.73233 0.03126 -0.13048
 C171 C 0.19801 0.40092 0.48256
 C172 C 0.19790 0.40105 0.51900
 C173 C 0.20415 0.43212 0.52942
 N174 N 0.20820 0.45087 0.50059
 C175 C 0.20431 0.43192 0.47191
 C176 C 0.20866 0.44203 0.56487
 C177 C 0.21296 0.47410 0.57527
 C178 C 0.22324 0.48374 0.60858
 C179 C 0.22331 0.51650 0.60848
 C180 C 0.21307 0.52603 0.57511
 N181 N 0.20646 0.50002 0.55520
 C182 C 0.20888 0.55806 0.56453
 C183 C 0.20425 0.56775 0.52902
 C184 C 0.19794 0.59873 0.51838
 C185 C 0.19784 0.59861 0.48195
 C186 C 0.20412 0.56754 0.47152
 N187 N 0.20817 0.54880 0.50033
 C188 C 0.20864 0.55763 0.43606
 C189 C 0.21298 0.52557 0.42565
 C190 C 0.22328 0.51593 0.39232
 C191 C 0.22338 0.48317 0.39242
 C192 C 0.21312 0.47364 0.42581
 N193 N 0.20648 0.49964 0.44573
 C194 C 0.20895 0.44161 0.43640
 H195 H 0.19442 0.38027 0.46584
 H196 H 0.19422 0.38050 0.53587
 H197 H 0.19514 0.49969 0.47022
 H198 H 0.22996 0.46875 0.63072
 H199 H 0.23009 0.53158 0.63053
 H200 H 0.19432 0.61939 0.53512
 H201 H 0.19415 0.61915 0.46508
 H202 H 0.23018 0.46811 0.37036
 H203 H 0.19513 0.49996 0.53073
 H204 H 0.23000 0.53093 0.37017
 C205 C 0.30178 0.90163 -0.01832
 C206 C 0.30189 0.90179 0.01810
 C207 C 0.29512 0.93275 0.02849
 N208 N 0.29075 0.95142 -0.00033
 C209 C 0.29492 0.93252 -0.02902
 C210 C 0.29035 0.94257 0.06392
 C211 C 0.28573 0.97458 0.07432
 C212 C 0.27515 0.98411 0.10757
 C213 C 0.27503 1.01685 0.10759
 C214 C 0.28557 1.02652 0.07432
 N215 N 0.29234 1.00056 0.05436
 C216 C 0.29005 1.05860 0.06387
 C217 C 0.29490 1.06826 0.02832
 C218 C 0.30180 1.09914 0.01764
 C219 C 0.30179 1.09904 -0.01877
 C220 C 0.29488 1.06810 -0.02923
 N221 N 0.29056 1.04941 -0.00039
 C222 C 0.28993 1.05828 -0.06470
 C223 C 0.28527 1.02619 -0.07502
 C224 C 0.27449 1.01653 -0.10816
 C225 C 0.27450 0.98380 -0.10812
 C226 C 0.28529 0.97422 -0.07496
 N227 N 0.29209 1.00024 -0.05511
 C228 C 0.28992 0.94216 -0.06453
 H229 H 0.30568 0.88101 -0.03503
 H230 H 0.30590 0.88131 0.03499
 H231 H 0.30380 1.00030 -0.03085
 H232 H 0.26831 0.96904 0.12962
 H233 H 0.26809 1.03185 0.12966
 H234 H 0.30583 1.11972 0.03437
 H235 H 0.30581 1.11954 -0.03563
 H236 H 0.26747 0.96874 -0.13010
 H237 H 0.30389 1.00057 0.02998
 H238 H 0.26745 1.03153 -0.13018
 C239 C 0.80205 0.40127 0.51790
 C240 C 0.80218 0.40139 0.48147
 C241 C 0.79591 0.43246 0.47104
 N242 N 0.79184 0.45120 0.49986
 C243 C 0.79572 0.43225 0.52854
 C244 C 0.79142 0.44237 0.43559
 C245 C 0.78710 0.47443 0.42519
 C246 C 0.77682 0.48406 0.39187
 C247 C 0.77672 0.51682 0.39197
 C248 C 0.78695 0.52635 0.42534
 N249 N 0.79358 0.50035 0.44526
 C250 C 0.79111 0.55838 0.43593
 C251 C 0.79573 0.56808 0.47144
 C252 C 0.80202 0.59907 0.48207
 C253 C 0.80209 0.59894 0.51851
 C254 C 0.79582 0.56787 0.52894
 N255 N 0.79181 0.54913 0.50012
 C256 C 0.79127 0.55796 0.56439
 C257 C 0.78695 0.52590 0.57480
 C258 C 0.77663 0.51626 0.60812
 C259 C 0.77656 0.48350 0.60803
 C260 C 0.78685 0.47397 0.57465
 N261 N 0.79349 0.49998 0.55473
 C262 C 0.79104 0.44194 0.56406
 H263 H 0.80564 0.38061 0.53463
 H264 H 0.80589 0.38085 0.46459
 H265 H 0.80485 0.50003 0.53025
 H266 H 0.77011 0.46906 0.36974
 H267 H 0.76993 0.53189 0.36993
 H268 H 0.80563 0.61973 0.46534
 H269 H 0.80576 0.61949 0.53538
 H270 H 0.76975 0.46842 0.63008
 H271 H 0.80491 0.50030 0.46973
 H272 H 0.76988 0.53125 0.63027
 O273 O 0.23191 0.27510 0.20505
 O274 O 0.29947 0.25478 0.26291
 O275 O 0.27558 0.23132 0.20455
 O276 O 0.25578 0.29859 0.26336
 O277 O 0.22463 0.26720 0.29498
 O278 O 0.24443 0.19993 0.23617
 O279 O 0.26829 0.22341 0.29453
 O280 O 0.20075 0.24372 0.23668
 Cu281 Cu 0.26881 0.26809 0.23081
 Cu282 Cu 0.23141 0.23041 0.26875
 C283 C 0.20480 0.26272 0.21080
 C284 C 0.29540 0.23580 0.28880
 C285 C 0.26321 0.20415 0.21012
 C286 C 0.23698 0.29437 0.28939
 O287 O 0.75565 0.80013 0.23588
 O288 O 0.77537 0.73289 0.29471
 O289 O 0.79937 0.75637 0.23641
 O290 O 0.73169 0.77666 0.29426
 O291 O 0.70060 0.74526 0.26267
 O292 O 0.76829 0.72498 0.20479
 O293 O 0.74431 0.70147 0.26309
 O294 O 0.72458 0.76871 0.20428
 Cu295 Cu 0.76863 0.76967 0.26848
 Cu296 Cu 0.73132 0.73196 0.23054
 C297 C 0.73692 0.79589 0.20984
 C298 C 0.76306 0.70570 0.28911
 C299 C 0.79539 0.73736 0.21055
 C300 C 0.70461 0.76425 0.28855
 O301 O 0.74522 0.29937 0.26273
 O302 O 0.72498 0.23181 0.20469
 O303 O 0.70141 0.25569 0.26303
 O304 O 0.76878 0.27546 0.20439
 O305 O 0.80001 0.24422 0.23600
 O306 O 0.73264 0.22444 0.29463
 O307 O 0.75619 0.20055 0.23630
 O308 O 0.77643 0.26810 0.29434
 Cu309 Cu 0.73197 0.26872 0.23055
 Cu310 Cu 0.76945 0.23120 0.26848
 C311 C 0.76411 0.29526 0.28864
 C312 C 0.73729 0.20465 0.21040
 C313 C 0.70553 0.23684 0.28902
 C314 C 0.79589 0.26305 0.21000
 O315 O 0.27518 0.76815 0.20496
 O316 O 0.25487 0.70056 0.26301
 O317 O 0.23143 0.72446 0.20465
 O318 O 0.29866 0.74427 0.26328
 O319 O 0.26734 0.77549 0.29490
 O320 O 0.20011 0.75568 0.23627
 O321 O 0.22357 0.73181 0.29462
 O322 O 0.24388 0.79938 0.23659
 Cu323 Cu 0.26817 0.73122 0.23081
 Cu324 Cu 0.23058 0.76871 0.26876
 C325 C 0.26284 0.79530 0.21068
 C326 C 0.23593 0.70466 0.28892
 C327 C 0.20430 0.73686 0.21025
 C328 C 0.29448 0.76311 0.28927
 O329 O 0.75573 0.19978 0.76354
 O330 O 0.77547 0.26725 0.70501
 O331 O 0.79936 0.24364 0.76324
 O332 O 0.73184 0.22343 0.70530
 O333 O 0.70063 0.25466 0.73704
 O334 O 0.76816 0.27488 0.79497
 O335 O 0.74428 0.29851 0.73674
 O336 O 0.72455 0.23104 0.79528
 Cu337 Cu 0.76872 0.23039 0.73110
 Cu338 Cu 0.73127 0.26790 0.76918
 C339 C 0.73694 0.20390 0.78960
 C340 C 0.76309 0.29440 0.71070
 C341 C 0.79528 0.26255 0.78919
 C342 C 0.70471 0.23576 0.71109
 O343 O 0.24391 0.80013 0.76411
 O344 O 0.22417 0.73265 0.70564
 O345 O 0.20030 0.75624 0.76398
 O346 O 0.26779 0.77648 0.70581
 O347 O 0.29902 0.74525 0.73745
 O348 O 0.23153 0.72501 0.79561
 O349 O 0.25538 0.70140 0.73726
 O350 O 0.27511 0.76888 0.79575
 Cu351 Cu 0.23091 0.76950 0.73172
 Cu352 Cu 0.26839 0.73200 0.76968
 C353 C 0.26272 0.79602 0.79010
 C354 C 0.23656 0.70551 0.71128
 C355 C 0.20440 0.73734 0.78992
 C356 C 0.29492 0.76415 0.71151
 O357 O 0.25495 0.29887 0.73754
 O358 O 0.27513 0.23127 0.79554
 O359 O 0.29872 0.25516 0.73720
 O360 O 0.23136 0.27494 0.79584
 O361 O 0.20011 0.24373 0.76421
 O362 O 0.26747 0.22394 0.70558
 O363 O 0.24390 0.20004 0.76392
 O364 O 0.22372 0.26764 0.70590
 Cu365 Cu 0.26817 0.26819 0.76970
 Cu366 Cu 0.23067 0.23071 0.73174
 C367 C 0.23605 0.29479 0.71163
 C368 C 0.26280 0.20413 0.78983
 C369 C 0.29459 0.23633 0.71119
 C370 C 0.20424 0.26256 0.79022
 O371 O 0.73216 0.77617 0.70505
 O372 O 0.79956 0.75640 0.76345
 O373 O 0.77592 0.73247 0.70525
 O374 O 0.75574 0.80007 0.76333
 O375 O 0.72453 0.76882 0.79505
 O376 O 0.74471 0.70123 0.73699
 O377 O 0.76834 0.72518 0.79519
 O378 O 0.70093 0.74494 0.73677
 Cu379 Cu 0.76897 0.76941 0.73109
 Cu380 Cu 0.73149 0.73192 0.76918
 C381 C 0.70505 0.76377 0.71074
 C382 C 0.79545 0.73757 0.78947
 C383 C 0.76361 0.70531 0.71103
 C384 C 0.73686 0.79597 0.78931
 C385 C 0.28092 0.12747 0.13720
 C386 C 0.26173 0.12248 0.16708
 C387 C 0.25641 0.14725 0.19119
 C388 C 0.28761 0.08185 0.08932
 C389 C 0.28991 0.18201 0.15585
 C390 C 0.29517 0.15720 0.13177
 C391 C 0.28489 0.10252 0.11137
 C392 C 0.27022 0.17740 0.18567
 H393 H 0.25051 0.09957 0.17147
 H394 H 0.24114 0.14291 0.21385
 H395 H 0.30087 0.20492 0.15080
 H396 H 0.30998 0.16134 0.10865
 C397 C 0.78186 0.62816 0.63900
 C398 C 0.76252 0.62334 0.66878
 C399 C 0.75703 0.64827 0.69263
 C400 C 0.78868 0.58243 0.59137
 C401 C 0.79070 0.68283 0.65721
 C402 C 0.79612 0.65786 0.63340
 C403 C 0.78591 0.60311 0.61335
 C404 C 0.77082 0.67840 0.68692
 H405 H 0.75129 0.60045 0.67328
 H406 H 0.74162 0.64408 0.71521
 H407 H 0.80165 0.70571 0.65204
 H408 H 0.81105 0.66186 0.61035
 C409 C 0.71926 0.87254 0.13690
 C410 C 0.70504 0.84280 0.13150
 C411 C 0.71028 0.81800 0.15558
 C412 C 0.71255 0.91815 0.08904
 C413 C 0.74372 0.85279 0.19087
 C414 C 0.73841 0.87755 0.16675
 C415 C 0.71528 0.89749 0.11108
 C416 C 0.72994 0.82263 0.18538
 H417 H 0.69025 0.83864 0.10841
 H418 H 0.69934 0.79509 0.15056
 H419 H 0.75897 0.85714 0.21351
 H420 H 0.74961 0.90047 0.17113
 C421 C 0.21792 0.37189 0.63954
 C422 C 0.20362 0.34220 0.63402
 C423 C 0.20900 0.31726 0.65786
 C424 C 0.21120 0.41757 0.59185
 C425 C 0.24269 0.35181 0.69315
 C426 C 0.23725 0.37672 0.66927
 C427 C 0.21392 0.39691 0.61386
 C428 C 0.22886 0.32169 0.68751
 H429 H 0.18871 0.33819 0.61100
 H430 H 0.19802 0.29438 0.65274
 H431 H 0.25809 0.35601 0.71569
 H432 H 0.24851 0.39959 0.67371
 C433 C 0.87277 0.28087 0.13739
 C434 C 0.84310 0.29515 0.13190
 C435 C 0.81822 0.28985 0.15588
 C436 C 0.91850 0.28765 0.08967
 C437 C 0.85279 0.25624 0.19122
 C438 C 0.87763 0.26160 0.16721
 C439 C 0.89779 0.28489 0.11166
 C440 C 0.82270 0.27008 0.18565
 H441 H 0.83906 0.31002 0.10883
 H442 H 0.79536 0.30084 0.15079
 H443 H 0.85704 0.24091 0.21384
 H444 H 0.90050 0.25036 0.17164
 C445 C 0.37189 0.78230 0.63923
 C446 C 0.37674 0.76298 0.66901
 C447 C 0.35187 0.75754 0.69294
 C448 C 0.41752 0.78902 0.59146
 C449 C 0.31732 0.79121 0.65762
 C450 C 0.34223 0.79659 0.63373
 C451 C 0.39688 0.78630 0.61350
 C452 C 0.32178 0.77135 0.68732
 H453 H 0.39960 0.75173 0.67344
 H454 H 0.35609 0.74215 0.71552
 H455 H 0.29446 0.80218 0.65252
 H456 H 0.33821 0.81149 0.61067
 C457 C 0.12767 0.71914 0.13750
 C458 C 0.12271 0.73838 0.16733
 C459 C 0.14746 0.74370 0.19139
 C460 C 0.08211 0.71243 0.08969
 C461 C 0.18214 0.71010 0.15608
 C462 C 0.15735 0.70483 0.13206
 C463 C 0.10274 0.71516 0.11171
 C464 C 0.17757 0.72984 0.18586
 H465 H 0.09984 0.74964 0.17174
 H466 H 0.14315 0.75902 0.21403
 H467 H 0.20501 0.69910 0.15103
 H468 H 0.16146 0.68998 0.10897
 C469 C 0.62774 0.21767 0.63901
 C470 C 0.62290 0.23700 0.66879
 C471 C 0.64777 0.24242 0.69266
 C472 C 0.58214 0.21100 0.59133
 C473 C 0.68229 0.20871 0.65728
 C474 C 0.65739 0.20335 0.63344
 C475 C 0.60276 0.21370 0.61333
 C476 C 0.67785 0.22858 0.68698
 H477 H 0.60005 0.24828 0.67327
 H478 H 0.64357 0.25783 0.71525
 H479 H 0.70515 0.19771 0.65212
 H480 H 0.66140 0.18843 0.61038
 C481 C 0.71918 0.12690 0.86211
 C482 C 0.73841 0.12205 0.83223
 C483 C 0.74375 0.14692 0.80826
 C484 C 0.71245 0.08113 0.90978
 C485 C 0.71019 0.18152 0.84372
 C486 C 0.70491 0.15661 0.86767
 C487 C 0.71518 0.10186 0.88781
 C488 C 0.72993 0.17705 0.81391
 H489 H 0.74964 0.09916 0.82774
 H490 H 0.75905 0.14268 0.78560
 H491 H 0.69921 0.20440 0.84887
 H492 H 0.69007 0.16065 0.89078
 C493 C 0.21783 0.62769 0.36124
 C494 C 0.20347 0.65736 0.36669
 C495 C 0.20883 0.68226 0.34277
 C496 C 0.21115 0.58208 0.40905
 C497 C 0.24261 0.64768 0.30753
 C498 C 0.23719 0.62282 0.33148
 C499 C 0.21385 0.60272 0.38700
 C500 C 0.22873 0.67779 0.31310
 H501 H 0.18852 0.66139 0.38973
 H502 H 0.19781 0.70513 0.34785
 H503 H 0.25804 0.64346 0.28497
 H504 H 0.24849 0.59995 0.32709
 C505 C 0.28058 0.87306 0.86247
 C506 C 0.29484 0.84335 0.86800
 C507 C 0.28952 0.81842 0.84410
 C508 C 0.28740 0.91886 0.91007
 C509 C 0.25593 0.85300 0.80875
 C510 C 0.26131 0.87790 0.83268
 C511 C 0.28462 0.89813 0.88813
 C512 C 0.26976 0.82288 0.81437
 H513 H 0.30971 0.83933 0.89105
 H514 H 0.30050 0.79554 0.84922
 H515 H 0.24060 0.85723 0.78615
 H516 H 0.25008 0.90078 0.82821
 C517 C 0.78222 0.37227 0.36085
 C518 C 0.79652 0.34258 0.36633
 C519 C 0.79115 0.31767 0.34245
 C520 C 0.78892 0.41791 0.40860
 C521 C 0.75748 0.35226 0.30719
 C522 C 0.76291 0.37714 0.33111
 C523 C 0.78621 0.39726 0.38657
 C524 C 0.77130 0.32214 0.31279
 H525 H 0.81142 0.33854 0.38936
 H526 H 0.80213 0.29478 0.34754
 H527 H 0.74209 0.35649 0.28464
 H528 H 0.75166 0.40002 0.32669
 C529 C 0.12731 0.28051 0.86273
 C530 C 0.15700 0.29475 0.86824
 C531 C 0.18190 0.28940 0.84431
 C532 C 0.08156 0.28741 0.91039
 C533 C 0.14731 0.25582 0.80895
 C534 C 0.12245 0.26123 0.83292
 C535 C 0.10228 0.28459 0.88843
 C536 C 0.17742 0.26962 0.81455
 H537 H 0.16104 0.30964 0.89131
 H538 H 0.20476 0.30037 0.84940
 H539 H 0.14307 0.24047 0.78633
 H540 H 0.09958 0.25001 0.82847
 C541 C 0.62755 0.78231 0.36074
 C542 C 0.65715 0.79675 0.36617
 C543 C 0.68207 0.79141 0.34229
 C544 C 0.58192 0.78897 0.40852
 C545 C 0.64767 0.75747 0.30712
 C546 C 0.62278 0.76287 0.33103
 C547 C 0.60256 0.78626 0.38647
 C548 C 0.67771 0.77143 0.31267
 H549 H 0.66111 0.81175 0.38916
 H550 H 0.70488 0.80250 0.34735
 H551 H 0.64353 0.74198 0.28460
 H552 H 0.59997 0.75150 0.32666
 C553 C 0.87245 0.71955 0.86165
 C554 C 0.84277 0.70528 0.86725
 C555 C 0.81785 0.71066 0.84343
 C556 C 0.91825 0.71257 0.90910
 C557 C 0.85238 0.74432 0.80800
 C558 C 0.87727 0.73888 0.83186
 C559 C 0.89752 0.71543 0.88723
 C560 C 0.82229 0.73049 0.81369
 H561 H 0.83877 0.69036 0.89030
 H562 H 0.79500 0.69968 0.84859
 H563 H 0.85660 0.75970 0.78539
 H564 H 0.90013 0.75012 0.82733
 C565 C 0.37232 0.21771 0.36094
 C566 C 0.34270 0.20330 0.36641
 C567 C 0.31782 0.20865 0.34255
 C568 C 0.41789 0.21104 0.40867
 C569 C 0.35231 0.24253 0.30732
 C570 C 0.37716 0.23711 0.33121
 C571 C 0.39728 0.21374 0.38665
 C572 C 0.32225 0.22860 0.31291
 H573 H 0.33869 0.18832 0.38942
 H574 H 0.29499 0.19759 0.34764
 H575 H 0.35651 0.25800 0.28478
 H576 H 0.39999 0.24846 0.32681
 C577 C 0.71890 0.87295 0.86165
 C578 C 0.70458 0.84327 0.86717
 C579 C 0.70989 0.81837 0.84324
 C580 C 0.71234 0.91856 0.90949
 C581 C 0.74355 0.85296 0.80786
 C582 C 0.73818 0.87783 0.83183
 C583 C 0.71499 0.89792 0.88742
 C584 C 0.72971 0.82284 0.81350
 H585 H 0.68971 0.83923 0.89025
 H586 H 0.69890 0.79549 0.84836
 H587 H 0.75892 0.85719 0.78525
 H588 H 0.74945 0.90070 0.82738
 C589 C 0.21885 0.37122 0.36197
 C590 C 0.20466 0.34147 0.36746
 C591 C 0.21009 0.31659 0.34351
 C592 C 0.21173 0.41699 0.40957
 C593 C 0.24363 0.35132 0.30820
 C594 C 0.23815 0.37616 0.33218
 C595 C 0.21465 0.39626 0.38765
 C596 C 0.22988 0.32116 0.31376
 H597 H 0.18976 0.33736 0.39051
 H598 H 0.19916 0.29367 0.34858
 H599 H 0.25898 0.35564 0.28558
 H600 H 0.24932 0.39909 0.32774
 C601 C 0.28086 0.12709 0.86202
 C602 C 0.26155 0.12223 0.83227
 C603 C 0.25614 0.14712 0.80836
 C604 C 0.28752 0.08145 0.90978
 C605 C 0.28982 0.18170 0.84364
 C606 C 0.29517 0.15677 0.86751
 C607 C 0.28483 0.10210 0.88774
 C608 C 0.26997 0.17724 0.81397
 H609 H 0.25029 0.09936 0.82786
 H610 H 0.24075 0.14291 0.78581
 H611 H 0.30081 0.20457 0.84874
 H612 H 0.31007 0.16080 0.89054
 C613 C 0.78120 0.62881 0.36158
 C614 C 0.76195 0.62387 0.33181
 C615 C 0.75645 0.64872 0.30786
 C616 C 0.78833 0.58301 0.40912
 C617 C 0.78989 0.68348 0.34319
 C618 C 0.79532 0.65859 0.36710
 C619 C 0.78541 0.60375 0.38722
 C620 C 0.77015 0.67891 0.31345
 H621 H 0.75082 0.60093 0.32735
 H622 H 0.74115 0.64441 0.28526
 H623 H 0.80078 0.70641 0.34828
 H624 H 0.81019 0.66269 0.39014
 C625 C 0.12749 0.71919 0.86227
 C626 C 0.12261 0.73851 0.83250
 C627 C 0.14746 0.74395 0.80854
 C628 C 0.08190 0.71247 0.91009
 C629 C 0.18204 0.71028 0.84381
 C630 C 0.15716 0.70490 0.86774
 C631 C 0.10253 0.71519 0.88803
 C632 C 0.17756 0.73014 0.81412
 H633 H 0.09975 0.74976 0.82810
 H634 H 0.14323 0.75935 0.78597
 H635 H 0.20490 0.69930 0.84889
 H636 H 0.16119 0.68999 0.89078
 C637 C 0.62859 0.21875 0.36148
 C638 C 0.62374 0.23812 0.33173
 C639 C 0.64861 0.24359 0.30779
 C640 C 0.58279 0.21165 0.40905
 C641 C 0.68317 0.20989 0.34303
 C642 C 0.65827 0.20448 0.36694
 C643 C 0.60353 0.21457 0.38713
 C644 C 0.67871 0.22975 0.31334
 H645 H 0.60088 0.24936 0.32731
 H646 H 0.64438 0.25900 0.28522
 H647 H 0.70603 0.19889 0.34810
 H648 H 0.66229 0.18952 0.38995
 C649 C 0.87228 0.28078 0.86118
 C650 C 0.84263 0.29509 0.86675
 C651 C 0.81771 0.28968 0.84294
 C652 C 0.91792 0.28759 0.90880
 C653 C 0.85223 0.25593 0.80760
 C654 C 0.87711 0.26140 0.83144
 C655 C 0.89728 0.28482 0.88682
 C656 C 0.82215 0.26977 0.81328
 H657 H 0.83862 0.31005 0.88977
 H658 H 0.79486 0.30067 0.84809
 H659 H 0.85643 0.24049 0.78504
 H660 H 0.89997 0.25013 0.82696
 C661 C 0.37129 0.78126 0.36167
 C662 C 0.34158 0.79548 0.36718
 C663 C 0.31671 0.79005 0.34329
 C664 C 0.41702 0.78838 0.40918
 C665 C 0.35137 0.75642 0.30799
 C666 C 0.37619 0.76191 0.33191
 C667 C 0.39631 0.78546 0.38729
 C668 C 0.32125 0.77022 0.31358
 H669 H 0.33750 0.81042 0.39021
 H670 H 0.29384 0.80102 0.34838
 H671 H 0.35565 0.74104 0.28540
 H672 H 0.39908 0.75070 0.32746
 C673 C 0.28110 0.87237 0.13856
 C674 C 0.29540 0.84269 0.13303
 C675 C 0.28998 0.81775 0.15688
 C676 C 0.28784 0.91807 0.09088
 C677 C 0.25625 0.85231 0.19219
 C678 C 0.26172 0.87721 0.16831
 C679 C 0.28512 0.89739 0.11287
 C680 C 0.27007 0.82219 0.18655
 H681 H 0.31035 0.83868 0.11000
 H682 H 0.30097 0.79487 0.15176
 H683 H 0.24081 0.85652 0.21476
 H684 H 0.25046 0.90009 0.17276
 C685 C 0.78117 0.37146 0.63837
 C686 C 0.79541 0.34174 0.63282
 C687 C 0.79001 0.31680 0.65669
 C688 C 0.78826 0.41732 0.59087
 C689 C 0.75636 0.35139 0.69206
 C690 C 0.76182 0.37629 0.66816
 C691 C 0.78535 0.39656 0.61277
 C692 C 0.77017 0.32126 0.68642
 H693 H 0.81035 0.33772 0.60978
 H694 H 0.80098 0.29392 0.65156
 H695 H 0.74098 0.35561 0.71466
 H696 H 0.75061 0.39919 0.67265
 C697 C 0.71907 0.12761 0.13827
 C698 C 0.70479 0.15731 0.13277
 C699 C 0.71020 0.18224 0.15662
 C700 C 0.71230 0.08192 0.09060
 C701 C 0.74387 0.14764 0.19188
 C702 C 0.73840 0.12275 0.16799
 C703 C 0.71504 0.10259 0.11259
 C704 C 0.73007 0.17777 0.18626
 H705 H 0.68987 0.16133 0.10976
 H706 H 0.69924 0.20513 0.15152
 H707 H 0.75928 0.14342 0.21442
 H708 H 0.74964 0.09986 0.17242
 C709 C 0.21861 0.62850 0.63890
 C710 C 0.20432 0.65820 0.63342
 C711 C 0.20968 0.68312 0.65731
 C712 C 0.21161 0.58268 0.59135
 C713 C 0.24336 0.64854 0.69256
 C714 C 0.23794 0.62365 0.66864
 C715 C 0.21448 0.60342 0.61326
 C716 C 0.22951 0.67866 0.68700
 H717 H 0.18940 0.66223 0.61041
 H718 H 0.19868 0.70600 0.65224
 H719 H 0.25874 0.64431 0.71513
 H720 H 0.24918 0.60077 0.67307
 C721 C 0.87266 0.71898 0.13876
 C722 C 0.87737 0.73844 0.16845
 C723 C 0.85240 0.74396 0.19222
 C724 C 0.91847 0.71214 0.09123
 C725 C 0.81802 0.71011 0.15692
 C726 C 0.84303 0.70465 0.13318
 C727 C 0.89775 0.71491 0.11317
 C728 C 0.82234 0.73010 0.18653
 H729 H 0.90020 0.74973 0.17293
 H730 H 0.85651 0.75946 0.21474
 H731 H 0.79519 0.69910 0.15176
 H732 H 0.83911 0.68964 0.11019
 C733 C 0.37147 0.21838 0.63862
 C734 C 0.34179 0.20410 0.63316
 C735 C 0.31691 0.20946 0.65711
 C736 C 0.41723 0.21140 0.59098
 C737 C 0.35149 0.24312 0.69239
 C738 C 0.37634 0.23770 0.66840
 C739 C 0.39651 0.21426 0.61292
 C740 C 0.32140 0.22928 0.68684
 H741 H 0.33775 0.18919 0.61012
 H742 H 0.29405 0.19847 0.65205
 H743 H 0.35574 0.25849 0.71498
 H744 H 0.39921 0.24894 0.67281
 C745 C 0.12777 0.28100 0.13886
 C746 C 0.15741 0.29536 0.13333
 C747 C 0.18233 0.28993 0.15712
 C748 C 0.08214 0.28778 0.09125
 C749 C 0.14785 0.25608 0.19240
 C750 C 0.12297 0.26157 0.16857
 C751 C 0.10278 0.28503 0.11322
 C752 C 0.17793 0.26996 0.18674
 H753 H 0.16140 0.31035 0.11033
 H754 H 0.20518 0.30096 0.15199
 H755 H 0.14367 0.24060 0.21492
 H756 H 0.10013 0.25026 0.17303
 C757 C 0.62817 0.78168 0.63837
 C758 C 0.65784 0.79598 0.63285
 C759 C 0.68272 0.79064 0.65674
 C760 C 0.58243 0.78862 0.59083
 C761 C 0.64816 0.75694 0.69209
 C762 C 0.62331 0.76234 0.66816
 C763 C 0.60314 0.78578 0.61273
 C764 C 0.67824 0.77081 0.68647
 H765 H 0.66188 0.81091 0.60980
 H766 H 0.70557 0.80166 0.65163
 H767 H 0.64392 0.74156 0.71469
 H768 H 0.60045 0.75108 0.67263
   
