data_POSCAR
  _audit_creation_date              2014-09-24
  _audit_creation_method            'ToBaCCo'
  _symmetry_space_group_name_H-M    'P1'
  _symmetry_Int_Tables_number       1
  _symmetry_cell_setting            triclinic
  loop_
  _symmetry_equiv_pos_as_xyz
 x,y,z
_cell_length_a 18.9868
_cell_length_b 19.0285
_cell_length_c 35.3789
_cell_angle_alpha 83.588200
_cell_angle_beta 96.044400
_cell_angle_gamma 70.731000
loop_
  _atom_site_label
  _atom_site_type_symbol
  _atom_site_fract_x
  _atom_site_fract_y
  _atom_site_fract_z
C1 C 0.02279 0.68082 1.01096
 C2 C 0.01592 0.63706 1.04431
 C3 C 0.01624 0.56353 1.04163
 C4 C 0.01593 0.53634 1.00602
 C5 C 0.01908 0.58410 0.97312
 C6 C 0.02704 0.65458 0.97532
 C7 C 0.01156 0.45912 1.00274
 C8 C 0.02993 0.42529 0.96965
 C9 C 0.02050 0.35689 0.96482
 C10 C -0.00312 0.31894 0.99410
 C11 C -0.01521 0.34646 1.02881
 C12 C -0.01076 0.41789 1.03235
 H13 H 0.02465 0.73625 1.01297
 H14 H 0.01389 0.52875 1.06717
 H15 H 0.01734 0.56601 0.94551
 H16 H 0.05342 0.44999 0.94760
 H17 H -0.01186 0.26681 0.98969
 H18 H -0.02422 0.43992 1.05840
 C19 C 0.33804 -0.05448 0.49442
 C20 C 0.35746 -0.02262 0.52594
 C21 C 0.41929 0.00252 0.52649
 C22 C 0.46435 -0.00743 0.49678
 C23 C 0.44558 -0.04384 0.46656
 C24 C 0.38134 -0.06482 0.46459
 C25 C 0.52726 0.02420 0.49604
 C26 C 0.55021 0.04388 0.46092
 C27 C 0.60894 0.07366 0.45947
 C28 C 0.63762 0.09277 0.49372
 C29 C 0.61613 0.07424 0.52933
 C30 C 0.56354 0.03661 0.53018
 H31 H 0.28608 -0.06650 0.49204
 H32 H 0.43066 0.03115 0.54984
 H33 H 0.47912 -0.05473 0.44361
 H34 H 0.52349 0.03383 0.43482
 H35 H 0.67941 0.11979 0.49288
 H36 H 0.54884 0.01968 0.55755
 C37 C 0.11626 -0.07599 0.27619
 H38 H 0.11554 -0.07365 0.24545
 C39 C 0.18394 -0.08880 0.30032
 H40 H 0.23547 -0.09623 0.28817
 C41 C 0.04957 -0.06543 0.32949
 H42 H -0.00296 -0.05419 0.34080
 C43 C 0.11584 -0.07827 0.35457
 H44 H 0.11335 -0.07567 0.38483
 N45 N 0.05089 -0.06515 0.29110
 C46 C -0.10407 -0.12639 0.21204
 H47 H -0.15592 -0.08021 0.21205
 C48 C -0.10115 -0.17577 0.18537
 H49 H -0.15146 -0.16835 0.16562
 C50 C 0.02620 -0.18798 0.23542
 H51 H 0.07641 -0.19107 0.25394
 C52 C 0.03149 -0.23884 0.20937
 H53 H 0.08594 -0.28018 0.20793
 Zn54 Zn -0.04005 -0.04394 0.25686
 N55 N -0.03983 -0.13038 0.23460
 C56 C -0.04993 0.01931 0.17987
 N57 N -0.04494 0.03380 0.21664
 C58 C -0.03969 0.10051 0.22458
 C59 C -0.04092 0.15622 0.19474
 C60 C -0.05132 0.07289 0.14947
 C61 C -0.13288 -0.06499 0.31057
 C62 C -0.18617 -0.04275 0.33524
 C63 C -0.22375 0.08522 0.30235
 C64 C -0.16989 0.06055 0.27822
 N65 N -0.12384 -0.01294 0.28368
 H66 H -0.05166 -0.03431 0.17377
 H67 H -0.03383 0.11017 0.25412
 H68 H -0.03566 0.20851 0.20154
 H69 H -0.05586 0.05969 0.12051
 H70 H -0.09594 -0.12315 0.31412
 H71 H -0.19057 -0.08388 0.35778
 H72 H -0.25755 0.14444 0.29909
 H73 H -0.16302 0.10089 0.25627
 C74 C -0.03171 -0.23000 0.18247
 C75 C 0.18397 -0.09063 0.34001
 C76 C -0.23058 0.03346 0.33180
 C77 C -0.04629 0.14230 0.15656
 C78 C -0.02307 0.18704 0.77230
 H79 H -0.07426 0.20026 0.75214
 C80 C -0.01941 0.23397 0.79965
 H81 H -0.06824 0.28321 0.80017
 C82 C 0.09957 0.10250 0.79873
 H83 H 0.14440 0.04943 0.79920
 C84 C 0.10607 0.14812 0.82607
 H85 H 0.15730 0.13056 0.84668
 N86 N 0.03508 0.12154 0.77323
 C87 C 0.09088 -0.02673 0.68726
 H88 H 0.04785 -0.05227 0.68846
 C89 C 0.13463 -0.03681 0.65764
 H90 H 0.12489 -0.07078 0.63647
 C91 C 0.15010 0.05433 0.71136
 H92 H 0.15419 0.09213 0.73137
 C93 C 0.19575 0.04500 0.68252
 H94 H 0.23618 0.07385 0.68187
 Zn95 Zn 0.02399 0.04530 0.74579
 N96 N 0.09821 0.01940 0.71294
 C97 C -0.07737 0.11759 0.67901
 N98 N -0.07093 0.07750 0.71424
 C99 C -0.12672 0.05241 0.72416
 C100 C -0.19114 0.06519 0.69754
 C101 C -0.13986 0.13006 0.65124
 C102 C 0.06692 -0.11052 0.78010
 C103 C 0.07213 -0.16781 0.80995
 C104 C 0.00525 -0.07267 0.84585
 C105 C -0.00017 -0.01764 0.81517
 N106 N 0.03139 -0.03703 0.78336
 H107 H -0.03166 0.13599 0.67170
 H108 H -0.12026 0.02022 0.75226
 H109 H -0.23446 0.04403 0.70596
 H110 H -0.14061 0.15773 0.62272
 H111 H 0.09171 -0.12481 0.75464
 H112 H 0.10105 -0.22614 0.80737
 H113 H -0.01925 -0.05605 0.87118
 H114 H -0.02883 0.04105 0.81695
 C115 C 0.18675 0.00085 0.65433
 C116 C 0.04460 0.21286 0.82810
 C117 C 0.04220 -0.14869 0.84356
 C118 C -0.19736 0.10227 0.65998
 C119 C -0.01663 -0.25405 0.07907
 C120 C 0.00867 -0.33250 0.07933
 C121 C 0.02700 -0.37781 0.11626
 C122 C 0.01344 -0.34510 0.14998
 C123 C -0.02113 -0.26663 0.14777
 C124 C -0.03153 -0.22240 0.11201
 C125 C -0.09796 -0.15788 0.09101
 C126 C -0.08173 -0.19225 0.05478
 H127 H 0.05288 -0.43840 0.11975
 H128 H 0.02829 -0.38126 0.17762
 H129 H -0.08854 -0.10318 0.09066
 H130 H -0.15252 -0.15837 0.09947
 H131 H -0.06331 -0.15682 0.03361
 H132 H -0.12653 -0.21266 0.04264
 C133 C -0.00325 0.21939 0.06233
 C134 C -0.02981 0.29774 0.06096
 C135 C -0.07069 0.32596 0.09052
 C136 C -0.07736 0.27618 0.12175
 C137 C -0.04389 0.19726 0.12388
 C138 C -0.01041 0.17101 0.09252
 C139 C 0.06505 0.11371 0.09162
 C140 C 0.07307 0.16697 0.05838
 H141 H -0.09634 0.38599 0.09009
 H142 H -0.10757 0.29943 0.14434
 H143 H 0.06046 0.06080 0.08299
 H144 H 0.10585 0.10604 0.11803
 H145 H 0.07335 0.14441 0.03072
 H146 H 0.11848 0.19036 0.06544
 C147 C 0.27929 -0.06750 0.56884
 C148 C 0.31006 -0.01275 0.55704
 C149 C 0.29113 0.05265 0.57460
 C150 C 0.24986 0.05812 0.60570
 C151 C 0.22722 -0.00209 0.62034
 C152 C 0.23929 -0.06247 0.59959
 C153 C 0.27270 -0.14539 0.61323
 C154 C 0.31638 -0.15081 0.57939
 H155 H 0.30907 0.09907 0.56477
 H156 H 0.23686 0.10916 0.61842
 H157 H 0.22974 -0.17329 0.61083
 H158 H 0.30933 -0.15952 0.64166
 H159 H 0.29831 -0.18149 0.55749
 H160 H 0.37845 -0.16819 0.58812
 C161 C -0.34184 0.04661 0.59940
 C162 C -0.35187 0.09152 0.56356
 C163 C -0.32610 0.15346 0.56340
 C164 C -0.28192 0.16164 0.59602
 C165 C -0.26024 0.10707 0.62953
 C166 C -0.29638 0.05351 0.63125
 C167 C -0.26466 -0.02969 0.64419
 C168 C -0.31426 -0.03739 0.60951
 H169 H -0.33808 0.19491 0.53783
 H170 H -0.26132 0.20836 0.59391
 H171 H -0.28164 -0.04646 0.67196
 H172 H -0.20329 -0.05392 0.64270
 H173 H -0.35960 -0.05851 0.61745
 H174 H -0.28171 -0.06631 0.58792
 C175 C 0.02550 -0.31681 0.90485
 C176 C 0.04023 -0.30277 0.94271
 C177 C 0.07211 -0.24552 0.94650
 C178 C 0.07666 -0.19806 0.91412
 C179 C 0.05121 -0.20693 0.87680
 C180 C 0.03102 -0.27024 0.87287
 C181 C -0.03626 -0.27587 0.84947
 C182 C -0.04301 -0.32647 0.88421
 H183 H 0.09319 -0.23571 0.97425
 H184 H 0.09716 -0.15230 0.91838
 H185 H -0.02113 -0.30588 0.82467
 H186 H -0.08386 -0.22116 0.84234
 H187 H -0.03253 -0.38534 0.87897
 H188 H -0.09458 -0.30126 0.89726
 C189 C -0.00552 0.36268 0.89334
 C190 C 0.03431 0.32341 0.92932
 C191 C 0.07451 0.24576 0.93194
 C192 C 0.07870 0.21038 0.89912
 C193 C 0.04311 0.25159 0.86243
 C194 C -0.00135 0.32747 0.86075
 C195 C -0.00027 0.39530 0.83564
 C196 C -0.00415 0.43371 0.87115
 H197 H 0.10251 0.21216 0.95958
 H198 H 0.10911 0.15036 0.90283
 H199 H -0.05198 0.42058 0.81386
 H200 H 0.05382 0.38554 0.82406
 H201 H -0.05784 0.48151 0.86969
 H202 H 0.04789 0.44614 0.88000
 C203 C -0.28542 0.08440 0.42676
 C204 C -0.35872 0.08083 0.42525
 C205 C -0.39498 0.07940 0.38812
 C206 C -0.35479 0.06862 0.35662
 C207 C -0.27791 0.05992 0.36122
 C208 C -0.24633 0.07394 0.39568
 C209 C -0.17234 0.03180 0.42027
 C210 C -0.21451 0.04234 0.45452
 H211 H -0.45350 0.08393 0.38305
 H212 H -0.38249 0.06234 0.32949
 H213 H -0.13248 0.06333 0.41907
 H214 H -0.14879 -0.02807 0.41608
 H215 H -0.19771 0.07914 0.47322
 H216 H -0.21565 -0.01134 0.47003
 C217 C 0.33476 -0.15040 0.42678
 C218 C 0.35209 -0.08459 0.42846
 C219 C 0.33042 -0.03093 0.39456
 C220 C 0.28092 -0.03697 0.36342
 C221 C 0.25274 -0.09693 0.36571
 C222 C 0.28664 -0.15639 0.39621
 C223 C 0.25953 -0.20858 0.42043
 C224 C 0.31294 -0.20236 0.45428
 H225 H 0.34463 0.01982 0.39379
 H226 H 0.25854 0.00913 0.33961
 H227 H 0.27656 -0.26576 0.41207
 H228 H 0.19918 -0.18396 0.42373
 H229 H 0.36052 -0.25598 0.46511
 H230 H 0.28237 -0.17527 0.47678
   
