data_POSCAR
  _audit_creation_date              2014-09-24
  _audit_creation_method            'ToBaCCo'
  _symmetry_space_group_name_H-M    'P1'
  _symmetry_Int_Tables_number       1
  _symmetry_cell_setting            triclinic
  loop_
  _symmetry_equiv_pos_as_xyz
 x,y,z
_cell_length_a 17.9222
_cell_length_b 17.8843
_cell_length_c 12.6048
_cell_angle_alpha 97.862300
_cell_angle_beta 57.384900
_cell_angle_gamma 93.159200
loop_
  _atom_site_label
  _atom_site_type_symbol
  _atom_site_fract_x
  _atom_site_fract_y
  _atom_site_fract_z
O1 O 0.01888 0.46549 1.12214
 O2 O -0.12896 0.59980 1.12695
 O3 O -0.11069 0.45683 1.10357
 O4 O 0.03120 0.61387 1.10973
 O5 O 0.12017 0.58870 0.90185
 O6 O -0.02954 0.44540 0.89359
 O7 O -0.04107 0.59994 0.92023
 O8 O 0.09753 0.44952 0.91160
 Cu9 Cu -0.05373 0.53976 1.13584
 Cu10 Cu 0.04208 0.52489 0.88618
 C11 C 0.07821 0.43030 1.01716
 C12 C -0.11178 0.62240 1.02547
 C13 C -0.08921 0.42122 0.99588
 C14 C 0.10358 0.62368 1.00669
 O15 O 0.38799 0.06254 0.63668
 O16 O 0.62967 0.06155 0.41585
 O17 O 0.49307 0.05722 0.38892
 O18 O 0.52698 0.02594 0.64634
 O19 O 0.52535 -0.09686 0.59253
 O20 O 0.49078 -0.06661 0.34437
 O21 O 0.62825 -0.06093 0.36185
 O22 O 0.38790 -0.06079 0.58827
 Cu23 Cu 0.50935 0.06372 0.52671
 Cu24 Cu 0.50805 -0.08174 0.46845
 C25 C 0.34654 0.00146 0.64827
 C26 C 0.67017 0.00047 0.34961
 C27 C 0.48449 -0.00051 0.32467
 C28 C 0.53212 -0.04237 0.66178
 C29 C 0.05140 0.01626 0.12903
 C30 C 0.13709 0.04125 0.08868
 C31 C 0.15768 0.11582 0.06168
 C32 C 0.09348 0.16471 0.07573
 C33 C 0.00868 0.13722 0.11099
 C34 C -0.01154 0.06195 0.13464
 C35 C 0.20342 -0.01147 0.07616
 C36 C 0.19746 -0.08920 0.04750
 C37 C 0.25035 -0.14121 0.05227
 C38 C 0.31543 -0.11522 0.07698
 C39 C 0.32600 -0.03701 0.09943
 C40 C 0.26874 0.01421 0.10064
 H41 H 0.03244 -0.03939 0.15834
 H42 H 0.22409 0.13572 0.02759
 H43 H 0.15066 -0.11012 0.02194
 H44 H 0.27170 0.07378 0.12768
 H45 H -0.04105 0.17372 0.11961
 H46 H 0.35671 -0.15577 0.08002
 C47 C -0.18072 -0.11662 0.92179
 C48 C -0.18804 -0.04846 0.88436
 C49 C -0.25713 -0.03860 0.86525
 C50 C -0.31891 -0.09586 0.88466
 C51 C -0.31137 -0.16287 0.92644
 C52 C -0.24153 -0.17356 0.94282
 C53 C -0.12363 0.01185 0.86806
 C54 C -0.03565 -0.00785 0.82199
 C55 C 0.02388 0.04600 0.82249
 C56 C -0.00225 0.12263 0.85536
 C57 C -0.09005 0.14379 0.89929
 C58 C -0.15050 0.08803 0.90749
 H59 H -0.12927 -0.12488 0.93970
 H60 H -0.26217 0.01338 0.83440
 H61 H -0.01376 -0.06625 0.78775
 H62 H -0.21885 0.10406 0.94683
 H63 H -0.35750 -0.20807 0.94302
 H64 H 0.04348 0.16490 0.85483
 N65 N 0.29723 -0.27313 -0.05507
 N66 N 0.25779 -0.33448 -0.07100
 C67 C 0.16938 -0.32412 0.00783
 C68 C 0.15162 -0.25337 0.07676
 C69 C 0.23452 -0.22222 0.03265
 H70 H 0.08740 -0.22573 0.14077
 H71 H 0.36533 -0.26462 -0.10994
 H72 H 0.29089 -0.38140 -0.13807
 N73 N 0.17165 0.28478 0.07899
 N74 N 0.16951 0.35552 0.06077
 C75 C 0.11511 0.36038 0.01911
 C76 C 0.07889 0.29077 0.01464
 C77 C 0.11641 0.24405 0.05284
 H78 H 0.02723 0.27767 -0.00399
 H79 H 0.20611 0.26618 0.11627
 H80 H 0.20154 0.39998 0.08205
 N81 N 0.12062 -0.05016 0.82000
 N82 N 0.20493 -0.06114 0.77675
 C83 C 0.24950 0.00087 0.72805
 C84 C 0.19042 0.05466 0.74221
 C85 C 0.10914 0.01910 0.79896
 H86 H 0.20575 0.10842 0.70537
 H87 H 0.07268 -0.09091 0.85998
 H88 H 0.23196 -0.11186 0.77524
 N89 N -0.45470 -0.13584 0.88268
 N90 N -0.49380 -0.12065 0.82423
 C91 C -0.45511 -0.06117 0.76083
 C92 C -0.38723 -0.03749 0.77862
 C93 C -0.38807 -0.08735 0.85549
 H94 H -0.33815 0.00398 0.73022
 H95 H -0.47176 -0.18109 0.93515
 H96 H -0.54287 -0.15350 0.82157
 N97 N -0.29233 -0.25661 1.11012
 N98 N -0.25306 -0.31060 1.13609
 C99 C -0.17190 -0.32792 1.03151
 C100 C -0.15770 -0.28591 0.93754
 C101 C -0.23412 -0.24147 0.99102
 H102 H -0.09695 -0.28312 0.84618
 H103 H -0.35148 -0.22716 1.17722
 H104 H -0.28157 -0.33108 1.22343
 N105 N -0.19669 0.24474 1.06019
 N106 N -0.19783 0.31906 1.08585
 C107 C -0.12466 0.34613 0.98883
 C108 C -0.07450 0.28635 0.89805
 C109 C -0.12169 0.22300 0.94779
 H110 H -0.00831 0.28803 0.81479
 H111 H -0.24331 0.20933 1.12295
 H112 H -0.24487 0.34981 1.17181
 N113 N -0.10276 -0.04629 0.12932
 N114 N -0.19195 -0.06395 0.19221
 C115 C -0.23860 -0.00067 0.26376
 C116 C -0.18104 0.05896 0.24634
 C117 C -0.09647 0.02748 0.16356
 H118 H -0.19811 0.11568 0.29652
 H119 H -0.05103 -0.08574 0.07281
 H120 H -0.21621 -0.11815 0.18905
 N121 N 0.41890 0.06336 0.13012
 N122 N 0.46092 0.07340 0.19064
 C123 C 0.46080 0.00815 0.23251
 C124 C 0.41804 -0.04594 0.19594
 C125 C 0.39051 -0.00841 0.13363
 H126 H 0.40053 -0.10199 0.22403
 H127 H 0.40714 0.10618 0.09199
 H128 H 0.48506 0.12501 0.20819
   
