data_POSCAR
  _audit_creation_date              2014-09-24
  _audit_creation_method            'ToBaCCo'
  _symmetry_space_group_name_H-M    'P1'
  _symmetry_Int_Tables_number       1
  _symmetry_cell_setting            triclinic
  loop_
  _symmetry_equiv_pos_as_xyz
 x,y,z
_cell_length_a 24.5367
_cell_length_b 24.6935
_cell_length_c 60.8577
_cell_angle_alpha 83.161700
_cell_angle_beta 95.705400
_cell_angle_gamma 121.285500
loop_
  _atom_site_label
  _atom_site_type_symbol
  _atom_site_fract_x
  _atom_site_fract_y
  _atom_site_fract_z
C1 C 0.03369 0.14861 0.52830
 H2 H 0.07727 0.14752 0.52858
 C3 C 0.03125 0.19143 0.54047
 H4 H 0.07293 0.22166 0.55055
 C5 C -0.07367 0.10823 0.51522
 H6 H -0.11407 0.07591 0.50514
 C7 C -0.07783 0.15160 0.52684
 H8 H -0.12171 0.15242 0.52545
 N9 N -0.01845 0.10747 0.51631
 C10 C 0.01476 -0.04716 0.51150
 H11 H 0.01117 -0.04914 0.49371
 C12 C 0.01777 -0.09493 0.52540
 H13 H 0.01721 -0.13340 0.51830
 C14 C 0.01566 0.00302 0.54252
 H15 H 0.01191 0.03936 0.54925
 C16 C 0.02027 -0.04282 0.55699
 H17 H 0.02088 -0.04072 0.57470
 Zn18 Zn -0.00531 0.05454 0.50037
 N19 N 0.01274 -0.00001 0.52021
 C20 C 0.12029 0.11095 0.48461
 N21 N 0.06413 0.10996 0.48238
 C22 C 0.05653 0.15215 0.46794
 C23 C 0.10534 0.19566 0.45418
 C24 C 0.17136 0.15522 0.47162
 C25 C -0.12813 -0.04967 0.49316
 C26 C -0.17726 -0.09793 0.48107
 C27 C -0.12522 -0.03844 0.44749
 C28 C -0.07644 0.00750 0.46030
 N29 N -0.07821 0.00097 0.48272
 H30 H 0.12588 0.07818 0.49671
 H31 H 0.01180 0.15128 0.46689
 H32 H 0.09627 0.22628 0.44214
 H33 H 0.21607 0.15610 0.47412
 H34 H -0.12827 -0.05409 0.51106
 H35 H -0.21592 -0.13693 0.49025
 H36 H -0.11841 -0.03213 0.42990
 H37 H -0.03553 0.04651 0.45217
 C38 C 0.01993 -0.09321 0.54844
 C39 C -0.02476 0.19406 0.53975
 C40 C -0.17629 -0.09416 0.45767
 C41 C 0.16423 0.19823 0.45594
 C42 C 1.17198 0.04161 0.13845
 H43 H 1.17166 0.08550 0.13735
 C44 C 1.21595 0.03812 0.12687
 H45 H 1.24901 0.07930 0.11663
 C46 C 1.12916 -0.06526 0.15330
 H47 H 1.09561 -0.10495 0.16388
 C48 C 1.17199 -0.07119 0.14160
 H49 H 1.17127 -0.11570 0.14312
 N50 N 1.13018 -0.00927 0.15151
 C51 C 0.96932 0.01691 0.15532
 H52 H 0.96819 0.01908 0.17290
 C53 C 0.91782 0.01042 0.14130
 H54 H 0.87793 0.00892 0.14814
 C55 C 1.01913 0.00935 0.12536
 H56 H 1.05716 0.00642 0.11921
 C57 C 0.96871 0.00253 0.11085
 H58 H 0.96962 -0.00377 0.09361
 Zn59 Zn 1.07791 0.00649 0.16742
 N60 N 1.01829 0.01542 0.14724
 C61 C 1.11205 0.11548 0.19078
 N62 N 1.13289 0.08053 0.18275
 C63 C 1.19317 0.09225 0.18775
 C64 C 1.23488 0.14003 0.20133
 C65 C 1.15225 0.16351 0.20479
 C66 C 0.97666 -0.11455 0.18152
 C67 C 0.93022 -0.15658 0.19650
 C68 C 0.99541 -0.08969 0.22572
 C69 C 1.04057 -0.04929 0.21028
 N70 N 1.02933 -0.06093 0.18851
 H71 H 1.06364 0.10470 0.18705
 H72 H 1.20846 0.06280 0.18195
 H73 H 1.28251 0.14810 0.20499
 H74 H 1.13409 0.18912 0.21175
 H75 H 0.96837 -0.12209 0.16406
 H76 H 0.88651 -0.19679 0.19049
 H77 H 1.00352 -0.07790 0.24278
 H78 H 1.08258 -0.00644 0.21553
 C79 C 0.91646 0.00135 0.11887
 C80 C 1.21660 -0.01858 0.12846
 C81 C 0.93824 -0.14260 0.21870
 C82 C 1.21424 0.17535 0.21058
 C83 C 0.01005 0.89094 0.86179
 H84 H -0.03462 0.84736 0.85899
 C85 C 0.05647 0.88964 0.87655
 H86 H 0.04726 0.84436 0.88463
 C87 C 0.07600 1.00210 0.85385
 H88 H 0.08319 1.04568 0.84491
 C89 C 0.12362 1.00320 0.86891
 H90 H 0.16682 1.04818 0.87165
 N91 N 0.02022 0.94645 0.85089
 C92 C -0.18021 0.88265 0.84501
 H93 H -0.19541 0.86109 0.82942
 C94 C -0.22581 0.87791 0.85853
 H95 H -0.27572 0.85140 0.85321
 C96 C -0.09666 0.94834 0.86967
 H97 H -0.04619 0.97627 0.87391
 C98 C -0.13999 0.94777 0.88293
 H99 H -0.12179 0.97379 0.89764
 Zn100 Zn -0.05006 0.93720 0.83235
 N101 N -0.11694 0.91692 0.85094
 C102 C -0.11866 0.81176 0.81635
 N103 N -0.06843 0.87243 0.81377
 C104 C -0.02303 0.88864 0.79910
 C105 C -0.02854 0.84425 0.78553
 C106 C -0.12560 0.76536 0.80329
 C107 C -0.01860 1.06489 0.82632
 C108 C -0.01559 1.11880 0.81482
 C109 C -0.03896 1.06820 0.78073
 C110 C -0.04300 1.01472 0.79291
 N111 N -0.03290 1.01383 0.81532
 H112 H -0.15200 0.79840 0.82910
 H113 H 0.01787 0.93648 0.79798
 H114 H 0.00739 0.85931 0.77354
 H115 H -0.16514 0.71711 0.80594
 H116 H -0.01187 1.06293 0.84414
 H117 H -0.00604 1.15833 0.82383
 H118 H -0.04879 1.06750 0.76298
 H119 H -0.05717 0.97307 0.78444
 C120 C -0.20583 0.91268 0.87745
 C121 C 0.11387 0.94636 0.88068
 C122 C -0.02640 1.12044 0.79177
 C123 C -0.08012 0.78136 0.78758
 C124 C 0.35889 -0.00184 -0.01120
 C125 C 0.36054 -0.00913 0.01149
 C126 C 0.40319 -0.02951 0.01786
 N127 N 0.42697 -0.03576 -0.00014
 C128 C 0.39985 -0.01899 -0.01796
 C129 C 0.41705 -0.04494 0.03996
 C130 C 0.47074 -0.05087 0.04645
 C131 C 0.48203 -0.07306 0.06740
 C132 C 0.54154 -0.06588 0.06757
 C133 C 0.56460 -0.04013 0.04665
 N134 N 0.52136 -0.03086 0.03392
 C135 C 0.62560 -0.02296 0.04018
 C136 C 0.64119 -0.01424 0.01775
 C137 C 0.70094 0.00454 0.01071
 C138 C 0.69490 0.00207 -0.01181
 C139 C 0.63204 -0.01625 -0.01802
 N140 N 0.59912 -0.02709 0.00017
 C141 C 0.60531 -0.02609 -0.03997
 C142 C 0.54393 -0.03551 -0.04624
 C143 C 0.51295 -0.05331 -0.06678
 C144 C 0.45727 -0.05261 -0.06685
 C145 C 0.45585 -0.03375 -0.04646
 N146 N 0.50893 -0.02316 -0.03406
 C147 C 0.40791 -0.02367 -0.04022
 H148 H 0.33034 0.01383 -0.02152
 H149 H 0.33373 -0.00006 0.02211
 H150 H 0.52375 -0.00164 -0.01922
 H151 H 0.45111 -0.09148 0.08126
 H152 H 0.56521 -0.07813 0.08151
 H153 H 0.74437 0.01773 0.02071
 H154 H 0.73291 0.01249 -0.02223
 H155 H 0.42217 -0.06411 -0.08048
 H156 H 0.52940 -0.00530 0.01856
 H157 H 0.52894 -0.06464 -0.08054
 C158 C -0.09087 0.30146 0.65298
 C159 C -0.08041 0.29943 0.67551
 C160 C -0.06085 0.35935 0.68170
 N161 N -0.05932 0.39779 0.66370
 C162 C -0.07791 0.36245 0.64609
 C163 C -0.03993 0.37880 0.70342
 C164 C -0.03103 0.43587 0.71023
 C165 C -0.00353 0.46008 0.73049
 C166 C -0.00717 0.51356 0.73124
 C167 C -0.03554 0.52149 0.71122
 N168 N -0.05078 0.47341 0.69867
 C169 C -0.04897 0.57072 0.70537
 C170 C -0.06194 0.58767 0.68329
 C171 C -0.07624 0.63494 0.67699
 C172 C -0.07898 0.64101 0.65429
 C173 C -0.06611 0.59742 0.64741
 N174 N -0.05549 0.56504 0.66515
 C175 C -0.05992 0.59149 0.62511
 C176 C -0.05715 0.54031 0.61812
 C177 C -0.04236 0.53765 0.59701
 C178 C -0.04835 0.47937 0.59644
 C179 C -0.06523 0.44836 0.61737
 N180 N -0.07154 0.48543 0.63037
 C181 C -0.07657 0.38644 0.62373
 H182 H -0.10486 0.26268 0.64288
 H183 H -0.08567 0.25865 0.68608
 H184 H -0.09072 0.47142 0.64592
 H185 H 0.01659 0.44098 0.74353
 H186 H 0.00956 0.54322 0.74499
 H187 H -0.08255 0.66334 0.68757
 H188 H -0.08860 0.67429 0.64402
 H189 H -0.04088 0.46225 0.58214
 H190 H -0.07885 0.46343 0.68407
 H191 H -0.02909 0.57369 0.58330
 C192 C 0.34874 0.37899 0.32103
 C193 C 0.34423 0.38299 0.34297
 C194 C 0.39513 0.44161 0.34850
 N195 N 0.43023 0.47362 0.33060
 C196 C 0.40256 0.43503 0.31386
 C197 C 0.40545 0.46642 0.36930
 C198 C 0.45658 0.52758 0.37400
 C199 C 0.45873 0.56207 0.39079
 C200 C 0.51680 0.61788 0.39004
 C201 C 0.54961 0.61512 0.37332
 N202 N 0.51239 0.55993 0.36361
 C203 C 0.61384 0.66060 0.36849
 C204 C 0.64307 0.65909 0.34989
 C205 C 0.70834 0.69114 0.34731
 C206 C 0.71671 0.68090 0.32657
 C207 C 0.65622 0.64360 0.31705
 N208 N 0.61131 0.63019 0.33138
 C209 C 0.64303 0.62690 0.29488
 C210 C 0.58096 0.58296 0.28678
 C211 C 0.56193 0.57576 0.26457
 C212 C 0.49967 0.52618 0.26376
 C213 C 0.48216 0.50464 0.28550
 N214 N 0.53218 0.53932 0.29940
 C215 C 0.42315 0.45092 0.29190
 H216 H 0.31562 0.33946 0.31144
 H217 H 0.30660 0.34737 0.35342
 H218 H 0.53552 0.52903 0.31636
 H219 H 0.42245 0.54906 0.40239
 H220 H 0.53319 0.65552 0.40093
 H221 H 0.74597 0.71893 0.35917
 H222 H 0.76217 0.69946 0.31927
 H223 H 0.47099 0.50764 0.24880
 H224 H 0.52677 0.54184 0.35234
 H225 H 0.59005 0.60304 0.25040
 C226 C 0.02872 0.29935 0.55631
 C227 C -0.02702 0.24041 0.55271
 C228 C -0.08349 0.22522 0.56250
 C229 C -0.08335 0.26683 0.57642
 C230 C -0.02587 0.32383 0.58091
 C231 C 0.02950 0.34018 0.57046
 C232 C -0.02435 0.36304 0.59609
 C233 C -0.08002 0.34719 0.60635
 C234 C -0.13768 0.29207 0.60110
 C235 C -0.13926 0.25180 0.58639
 H236 H -0.12694 0.18017 0.56002
 H237 H 0.07363 0.38434 0.57338
 H238 H 0.02024 0.40551 0.60022
 H239 H -0.18392 0.20860 0.58303
 H240 H 0.07237 0.31387 0.54838
 H241 H -0.18096 0.27935 0.60894
 C242 C 0.86800 0.85642 0.24581
 C243 C 0.88468 0.82221 0.23384
 C244 C 0.84892 0.75539 0.23596
 C245 C 0.79761 0.72320 0.25019
 C246 C 0.78116 0.75837 0.26197
 C247 C 0.81657 0.82486 0.25964
 C248 C 0.72984 0.72660 0.27604
 C249 C 0.69575 0.65998 0.27915
 C250 C 0.71238 0.62522 0.26747
 C251 C 0.76263 0.65654 0.25298
 H252 H 0.86157 0.72872 0.22680
 H253 H 0.80461 0.85249 0.26856
 H254 H 0.71682 0.75359 0.28487
 H255 H 0.77452 0.62871 0.24415
 H256 H 0.89425 0.90790 0.24414
 H257 H 0.68654 0.57379 0.26969
 C258 C 0.14184 -0.09770 -0.08357
 C259 C 0.16204 -0.05454 -0.10253
 C260 C 0.22802 -0.01342 -0.10532
 C261 C 0.27278 -0.01597 -0.08956
 C262 C 0.25141 -0.06095 -0.07100
 C263 C 0.18596 -0.10135 -0.06813
 C264 C 0.29576 -0.06436 -0.05542
 C265 C 0.36146 -0.02174 -0.05758
 C266 C 0.38250 0.02320 -0.07597
 C267 C 0.33855 0.02568 -0.09195
 H268 H 0.24465 0.01987 -0.11984
 H269 H 0.16882 -0.13544 -0.05382
 H270 H 0.27930 -0.09944 -0.04134
 H271 H 0.35593 0.06064 -0.10601
 H272 H 0.09162 -0.12866 -0.08050
 H273 H 0.43301 0.05654 -0.07786
 C274 C 0.06155 0.86670 0.58153
 C275 C 0.01709 0.85410 0.56359
 C276 C -0.03285 0.79139 0.56100
 C277 C -0.03931 0.74181 0.57652
 C278 C 0.00582 0.75491 0.59451
 C279 C 0.05638 0.81739 0.59675
 C280 C -0.00093 0.70549 0.61013
 C281 C -0.05293 0.64338 0.60829
 C282 C -0.09783 0.63084 0.59050
 C283 C -0.09084 0.67958 0.57463
 H284 H -0.06787 0.78170 0.54737
 H285 H 0.09126 0.82825 0.61047
 H286 H 0.03381 0.71520 0.62386
 H287 H -0.12602 0.66877 0.56101
 H288 H 0.10018 0.91486 0.58376
 H289 H -0.13823 0.58317 0.58892
 C290 C 0.29452 0.20664 0.24250
 C291 C 0.25631 0.22124 0.22711
 C292 C 0.25885 0.27933 0.22774
 C293 C 0.29960 0.32239 0.24333
 C294 C 0.33851 0.30730 0.25836
 C295 C 0.33543 0.24932 0.25785
 C296 C 0.37952 0.35017 0.27382
 C297 C 0.38140 0.40749 0.27478
 C298 C 0.34254 0.42233 0.25997
 C299 C 0.30216 0.38023 0.24423
 H300 H 0.22990 0.29138 0.21596
 H301 H 0.36441 0.23677 0.26941
 H302 H 0.40938 0.33874 0.28538
 H303 H 0.27266 0.39264 0.23291
 H304 H 0.29239 0.16164 0.24286
 H305 H 0.34354 0.46646 0.26067
 C306 C 0.68962 -0.14006 -0.10570
 C307 C 0.75023 -0.08581 -0.10963
 C308 C 0.76672 -0.02950 -0.10012
 C309 C 0.72475 -0.02778 -0.08660
 C310 C 0.66634 -0.08379 -0.08145
 C311 C 0.64881 -0.13945 -0.09133
 C312 C 0.62696 -0.08311 -0.06635
 C313 C 0.64405 -0.02632 -0.05724
 C314 C 0.69981 0.03006 -0.06384
 C315 C 0.74052 0.02915 -0.07805
 H316 H 0.81155 0.01389 -0.10377
 H317 H 0.60371 -0.18264 -0.08784
 H318 H 0.58346 -0.12657 -0.06151
 H319 H 0.78457 0.07283 -0.08220
 H320 H 0.67513 -0.18427 -0.11262
 H321 H 0.71304 0.07433 -0.05721
 C322 C 0.32824 0.02700 0.11731
 C323 C 0.26377 -0.02161 0.11611
 C324 C 0.24395 -0.06921 0.10155
 C325 C 0.28749 -0.06616 0.08739
 C326 C 0.35192 -0.01585 0.08828
 C327 C 0.37206 0.02963 0.10363
 C328 C 0.39458 -0.01053 0.07326
 C329 C 0.37344 -0.05425 0.05716
 C330 C 0.30988 -0.10484 0.05664
 C331 C 0.26724 -0.11099 0.07172
 H332 H 0.19413 -0.10646 0.10042
 H333 H 0.42125 0.06831 0.10460
 H334 H 0.44362 0.02873 0.07355
 H335 H 0.21814 -0.14983 0.07078
 H336 H 0.34439 0.06384 0.12856
 H337 H 0.29313 -0.13889 0.04426
 C338 C 0.74587 0.79326 0.45499
 C339 C 0.77971 0.85679 0.44544
 C340 C 0.76840 0.86703 0.42243
 C341 C 0.72841 0.81628 0.40941
 C342 C 0.69854 0.75334 0.41915
 C343 C 0.70667 0.74249 0.44198
 C344 C 0.66136 0.70239 0.40584
 C345 C 0.65215 0.71394 0.38298
 C346 C 0.68027 0.77695 0.37363
 C347 C 0.71840 0.82764 0.38667
 H348 H 0.78876 0.91463 0.41442
 H349 H 0.68366 0.69446 0.44978
 H350 H 0.63979 0.65386 0.41316
 H351 H 0.74042 0.87571 0.37894
 H352 H 0.75274 0.78099 0.47226
 H353 H 0.67319 0.78679 0.35609
 C354 C -0.07185 0.19131 0.78543
 C355 C -0.02959 0.17397 0.77933
 C356 C 0.00596 0.20469 0.76039
 C357 C -0.00191 0.25109 0.74728
 C358 C -0.04670 0.26627 0.75297
 C359 C -0.08065 0.23685 0.77229
 C360 C -0.05790 0.30931 0.73895
 C361 C -0.02423 0.33789 0.71949
 C362 C 0.02234 0.32479 0.71458
 C363 C 0.03311 0.28143 0.72825
 H364 H 0.03891 0.19164 0.75572
 H365 H -0.11486 0.24813 0.77699
 H366 H -0.09377 0.31942 0.74282
 H367 H 0.06804 0.27084 0.72375
 H368 H -0.09989 0.16777 0.79994
 H369 H 0.04906 0.34692 0.69973
 C370 C 0.83515 -0.06360 0.09023
 C371 C 0.85933 -0.01363 0.10412
 C372 C 0.82904 0.02166 0.10367
 C373 C 0.77648 0.00850 0.08895
 C374 C 0.75317 -0.04144 0.07487
 C375 C 0.78242 -0.07758 0.07582
 C376 C 0.70206 -0.05338 0.05967
 C377 C 0.67522 -0.01475 0.05782
 C378 C 0.69760 0.03385 0.07215
 C379 C 0.74765 0.04522 0.08768
 H380 H 0.84751 0.06041 0.11427
 H381 H 0.76508 -0.11608 0.06520
 H382 H 0.68444 -0.09124 0.04872
 H383 H 0.76472 0.08359 0.09834
 H384 H 0.85705 -0.09213 0.09059
 H385 H 0.67711 0.06385 0.07095
 C386 C 0.26127 0.23050 0.43469
 C387 C 0.21705 0.24485 0.44130
 C388 C 0.22233 0.30327 0.43315
 C389 C 0.26869 0.34493 0.41803
 C390 C 0.31287 0.32991 0.41172
 C391 C 0.30917 0.27296 0.42032
 C392 C 0.35894 0.37134 0.39649
 C393 C 0.35980 0.42631 0.38681
 C394 C 0.31499 0.44032 0.39282
 C395 C 0.27053 0.40058 0.40865
 H396 H 0.19014 0.31647 0.43835
 H397 H 0.34229 0.26043 0.41546
 H398 H 0.39295 0.36002 0.39157
 H399 H 0.23655 0.41248 0.41311
 H400 H 0.25818 0.18571 0.44015
 H401 H 0.31424 0.48181 0.38512
 C402 C -0.14572 0.68545 0.76564
 C403 C -0.08563 0.73306 0.77355
 C404 C -0.03048 0.73541 0.76744
 C405 C -0.03500 0.69273 0.75307
 C406 C -0.09562 0.64552 0.74510
 C407 C -0.15067 0.64187 0.75167
 C408 C -0.09998 0.60390 0.73025
 C409 C -0.04442 0.61009 0.72288
 C410 C 0.01556 0.65698 0.73091
 C411 C 0.02027 0.69751 0.74611
 H412 H 0.01618 0.77076 0.77373
 H413 H -0.19752 0.60618 0.74563
 H414 H -0.14627 0.56812 0.72382
 H415 H 0.06713 0.73360 0.75199
 H416 H -0.18899 0.68276 0.76978
 H417 H 0.05872 0.66262 0.72514
   
