data_POSCAR
  _audit_creation_date              2014-09-24
  _audit_creation_method            'ToBaCCo'
  _symmetry_space_group_name_H-M    'P1'
  _symmetry_Int_Tables_number       1
  _symmetry_cell_setting            triclinic
  loop_
  _symmetry_equiv_pos_as_xyz
 x,y,z
_cell_length_a 23.5607
_cell_length_b 23.6027
_cell_length_c 23.5599
_cell_angle_alpha 85.852800
_cell_angle_beta 83.635100
_cell_angle_gamma 89.267700
loop_
  _atom_site_label
  _atom_site_type_symbol
  _atom_site_fract_x
  _atom_site_fract_y
  _atom_site_fract_z
O1 O 0.55910 0.49601 0.04698
 O2 O 0.40225 0.50096 0.04568
 O3 O 0.47925 0.42153 0.04302
 O4 O 0.48160 0.57594 0.05430
 O5 O 0.49445 0.58938 -0.03995
 O6 O 0.49087 0.43436 -0.05135
 O7 O 0.41390 0.51620 -0.04839
 O8 O 0.56976 0.50872 -0.04741
 Cu9 Cu 0.47930 0.49744 0.05694
 Cu10 Cu 0.49298 0.51352 -0.05622
 C11 C 0.59107 0.50124 -0.00030
 C12 C 0.38133 0.50947 -0.00169
 C13 C 0.48493 0.40157 -0.00591
 C14 C 0.48926 0.60898 0.00925
 O15 O 0.04221 0.57107 0.47451
 O16 O 0.04110 0.41462 0.48173
 O17 O 0.04062 0.49509 0.40116
 O18 O 0.04716 0.49055 0.55655
 O19 O -0.04704 0.49279 0.57081
 O20 O -0.05367 0.49568 0.41515
 O21 O -0.05306 0.41580 0.49745
 O22 O -0.05197 0.57201 0.48932
 Cu23 Cu 0.05226 0.49267 0.47740
 Cu24 Cu -0.06089 0.49404 0.49472
 C25 C -0.00483 0.59828 0.48017
 C26 C -0.00634 0.38861 0.49022
 C27 C -0.00744 0.49611 0.38167
 C28 C 0.00126 0.49145 0.59016
 O29 O 0.49902 0.05501 0.59038
 O30 O 0.50862 0.05153 0.43341
 O31 O 0.42581 0.05505 0.51562
 O32 O 0.58261 0.05254 0.50788
 O33 O 0.58147 -0.04125 0.51587
 O34 O 0.42462 -0.03867 0.52737
 O35 O 0.50529 -0.04218 0.44251
 O36 O 0.49995 -0.03876 0.59913
 Cu37 Cu 0.50432 0.06296 0.51086
 Cu38 Cu 0.50291 -0.04967 0.52183
 C39 C 0.49780 0.00863 0.62158
 C40 C 0.50761 0.00414 0.41128
 C41 C 0.39853 0.00865 0.52350
 C42 C 0.60872 0.00526 0.51083
 C43 C 0.54217 0.15457 -0.09218
 C44 C 0.54130 0.11619 -0.13316
 C45 C 0.51949 0.06615 -0.10519
 N46 N 0.50810 0.07241 -0.04848
 C47 C 0.52232 0.12623 -0.04031
 C48 C 0.50665 0.01679 -0.13175
 C49 C 0.49070 -0.03463 -0.10002
 C50 C 0.46216 -0.07842 -0.12066
 C51 C 0.45813 -0.12204 -0.07851
 C52 C 0.48528 -0.10408 -0.03367
 N53 N 0.50444 -0.05042 -0.04689
 C54 C 0.49604 -0.13856 0.01576
 C55 C 0.51023 -0.11559 0.06602
 C56 C 0.53005 -0.14670 0.11200
 C57 C 0.53673 -0.10895 0.15242
 C58 C 0.51999 -0.05614 0.13013
 N59 N 0.50385 -0.06037 0.07727
 C60 C 0.51742 -0.00555 0.15923
 C61 C 0.50876 0.04879 0.13181
 C62 C 0.49570 0.09748 0.16025
 C63 C 0.49443 0.14166 0.11914
 C64 C 0.50619 0.11895 0.06630
 N65 N 0.51545 0.06230 0.07463
 C66 C 0.51331 0.15115 0.01265
 H67 H 0.55608 0.19822 -0.09985
 H68 H 0.55480 0.12460 -0.17835
 H69 H 0.53172 0.03555 0.04367
 H70 H 0.44603 -0.07892 -0.16189
 H71 H 0.43821 -0.16268 -0.08110
 H72 H 0.53933 -0.19175 0.11580
 H73 H 0.55240 -0.11937 0.19338
 H74 H 0.48741 0.18565 0.12794
 H75 H 0.53174 -0.02873 -0.02431
 H76 H 0.48868 0.10113 0.20603
 C77 C -0.10890 0.45408 0.86076
 C78 C -0.15173 0.46133 0.90400
 C79 C -0.12676 0.48515 0.94713
 N80 N -0.07027 0.49306 0.93159
 C81 C -0.05927 0.47432 0.87861
 C82 C -0.15670 0.50295 0.99798
 C83 C -0.12846 0.51864 1.04430
 C84 C -0.15254 0.55020 1.08829
 C85 C -0.11238 0.55289 1.12614
 C86 C -0.06487 0.52300 1.10413
 N87 N -0.07488 0.50249 1.05410
 C88 C -0.01516 0.51251 1.13181
 C89 C 0.03798 0.49809 1.10234
 C90 C 0.08663 0.48336 1.12828
 C91 C 0.12964 0.47679 1.08506
 C92 C 0.10586 0.48711 1.03399
 N93 N 0.04989 0.50058 1.04474
 C94 C 0.13684 0.48834 0.97892
 C95 C 0.11035 0.49161 0.92743
 C96 C 0.13875 0.49956 0.87258
 C97 C 0.09836 0.49753 0.83493
 C98 C 0.04631 0.48723 0.86743
 N99 N 0.05412 0.48319 0.92366
 C100 C -0.00587 0.47889 0.84458
 H101 H -0.11389 0.43613 0.82063
 H102 H -0.19616 0.45038 0.90369
 H103 H 0.02385 0.46960 0.95708
 H104 H -0.19463 0.56933 1.09277
 H105 H -0.11762 0.57443 1.16542
 H106 H 0.09101 0.47844 1.17361
 H107 H 0.17354 0.46618 1.09086
 H108 H 0.10678 0.50212 0.78873
 H109 H -0.04918 0.47366 1.03150
 H110 H 0.18397 0.50523 0.86022
 C111 C 0.15340 -0.11683 0.50850
 C112 C 0.11270 -0.15766 0.50900
 C113 C 0.06138 -0.12951 0.50345
 N114 N 0.06934 -0.07275 0.50175
 C115 C 0.12552 -0.06479 0.50522
 C116 C 0.00911 -0.15628 0.49753
 C117 C -0.04265 -0.12667 0.49088
 C118 C -0.08987 -0.15095 0.47216
 C119 C -0.13103 -0.10953 0.47042
 C120 C -0.10840 -0.06093 0.48877
 N121 N -0.05434 -0.07173 0.50129
 C122 C -0.13857 -0.00874 0.49353
 C123 C -0.11238 0.04410 0.49809
 C124 C -0.14118 0.09566 0.50021
 C125 C -0.10081 0.13657 0.50161
 C126 C -0.04854 0.10881 0.50119
 N127 N -0.05581 0.05231 0.49889
 C128 C 0.00416 0.13605 0.50387
 C129 C 0.05691 0.10696 0.50769
 C130 C 0.10568 0.13194 0.52254
 C131 C 0.14717 0.09081 0.52258
 C132 C 0.12279 0.04123 0.50860
 N133 N 0.06782 0.05150 0.49899
 C134 C 0.15205 -0.01150 0.50683
 H135 H 0.19830 -0.12521 0.51090
 H136 H 0.12071 -0.20289 0.51258
 H137 H 0.04089 0.02343 0.48338
 H138 H -0.09394 -0.19386 0.45977
 H139 H -0.17266 -0.11465 0.45619
 H140 H -0.18655 0.10340 0.50033
 H141 H -0.10936 0.18162 0.50304
 H142 H 0.19004 0.09650 0.53357
 H143 H -0.02898 -0.04489 0.52066
 H144 H 0.11081 0.17507 0.53377
 C145 C -0.34629 0.49884 0.99802
 C146 C -0.31911 0.49139 1.04512
 C147 C -0.25609 0.48825 1.04378
 C148 C -0.21971 0.50943 0.99970
 H149 H -0.34380 0.48504 1.08665
 H150 H -0.23920 0.46819 1.08122
 H151 H -0.32239 0.50232 0.95602
 H152 H -0.23564 0.53000 0.96209
 C153 C 0.32199 0.51090 0.99831
 C154 C 0.29644 0.52601 0.95126
 C155 C 0.23377 0.52791 0.95188
 C156 C 0.20021 0.48552 0.97625
 H157 H 0.32158 0.54125 0.91195
 H158 H 0.21524 0.56400 0.92943
 H159 H 0.29580 0.50069 1.03849
 H160 H 0.21914 0.44927 0.99812
 C161 C -0.00562 -0.34248 0.47683
 C162 C 0.04152 -0.31111 0.46226
 C163 C 0.04109 -0.24850 0.46037
 C164 C 0.00732 -0.21924 0.49753
 H165 H 0.08188 -0.33140 0.44907
 H166 H 0.07249 -0.22619 0.43006
 H167 H -0.04655 -0.32149 0.48532
 H168 H -0.02400 -0.24123 0.52817
 C169 C -0.00795 0.32622 0.49149
 C170 C 0.03756 0.29555 0.47247
 C171 C 0.03697 0.23315 0.47077
 C172 C 0.00284 0.19882 0.50702
 H173 H 0.07643 0.31703 0.45422
 H174 H 0.06790 0.21467 0.43980
 H175 H -0.04835 0.30568 0.50576
 H176 H -0.02756 0.21645 0.53897
 C177 C 0.49422 0.00865 -0.31890
 C178 C 0.48885 0.05635 -0.29089
 C179 C 0.48544 0.05650 -0.22784
 C180 C 0.51046 0.01690 -0.19514
 H181 H 0.48435 0.09706 -0.31437
 H182 H 0.46325 0.09178 -0.20816
 H183 H 0.49465 -0.03223 -0.29491
 H184 H 0.53277 -0.01847 -0.21446
 C185 C 0.50872 0.00389 0.34864
 C186 C 0.49689 -0.04264 0.32272
 C187 C 0.49374 -0.04275 0.26035
 C188 C 0.52443 -0.00796 0.22140
 H189 H 0.48491 -0.08145 0.34839
 H190 H 0.46543 -0.07334 0.24626
 H191 H 0.51637 0.04402 0.32384
 H192 H 0.55298 0.02255 0.23521
 C193 C 0.49248 -0.32943 0.01493
 C194 C 0.50863 -0.29283 -0.02997
 C195 C 0.51422 -0.23082 -0.02684
 C196 C 0.49026 -0.20133 0.01631
 H197 H 0.52048 -0.30895 -0.07157
 H198 H 0.53790 -0.20816 -0.06339
 H199 H 0.48346 -0.31484 0.05746
 H200 H 0.46696 -0.22283 0.05365
 C201 C 0.48572 0.33968 -0.01011
 C202 C 0.46285 0.30433 0.03315
 C203 C 0.46486 0.24210 0.03162
 C204 C 0.51162 0.21415 0.01110
 H205 H 0.43954 0.32138 0.07043
 H206 H 0.42824 0.21841 0.05228
 H207 H 0.50462 0.32303 -0.04958
 H208 H 0.54878 0.23756 -0.00867
 C209 C -0.32868 0.00509 0.50868
 C210 C -0.29926 -0.04181 0.52282
 C211 C -0.23679 -0.04260 0.52397
 C212 C -0.20113 -0.00815 0.48957
 H213 H -0.32191 -0.08064 0.53781
 H214 H -0.21953 -0.07407 0.55326
 H215 H -0.30692 0.04520 0.49798
 H216 H -0.21776 0.02267 0.45929
 C217 C 0.33598 0.01021 0.52709
 C218 C 0.30400 -0.03426 0.54902
 C219 C 0.24142 -0.03476 0.54980
 C220 C 0.21487 -0.00960 0.50729
 H221 H 0.32391 -0.07130 0.56847
 H222 H 0.21706 -0.05993 0.58415
 H223 H 0.31592 0.04920 0.51211
 H224 H 0.23892 0.01514 0.47242
 C225 C -0.00840 0.49780 1.31935
 C226 C -0.05681 0.49518 1.29475
 C227 C -0.05745 0.49441 1.23223
 C228 C -0.01727 0.51934 1.19413
 H229 H -0.09725 0.48967 1.32121
 H230 H -0.09240 0.47239 1.21731
 H231 H 0.03250 0.49939 1.29336
 H232 H 0.01723 0.54228 1.20868
 C233 C 0.00460 0.49118 0.65219
 C234 C -0.04078 0.50395 0.68853
 C235 C -0.03948 0.50638 0.75074
 C236 C -0.00399 0.47550 0.78154
 H237 H -0.08053 0.51637 0.67192
 H238 H -0.07136 0.53315 0.77242
 H239 H 0.04573 0.48282 0.66757
 H240 H 0.02807 0.44846 0.76062
   
