data_POSCAR
  _audit_creation_date              2014-09-24
  _audit_creation_method            'ToBaCCo'
  _symmetry_space_group_name_H-M    'P1'
  _symmetry_Int_Tables_number       1
  _symmetry_cell_setting            triclinic
  loop_
  _symmetry_equiv_pos_as_xyz
 x,y,z
_cell_length_a 47.9242
_cell_length_b 49.1089
_cell_length_c 49.6508
_cell_angle_alpha 90.117100
_cell_angle_beta 90.427000
_cell_angle_gamma 89.502100
loop_
  _atom_site_label
  _atom_site_type_symbol
  _atom_site_fract_x
  _atom_site_fract_y
  _atom_site_fract_z
O1 O 0.36229 0.34302 -0.02879
 O2 O 0.33714 0.38200 0.03008
 O3 O 0.36729 0.33762 0.02315
 O4 O 0.33442 0.38793 -0.02216
 O5 O 0.29590 0.36361 -0.02293
 O6 O 0.32834 0.31391 0.02344
 O7 O 0.29836 0.35808 0.02933
 O8 O 0.32377 0.31864 -0.02850
 Cu9 Cu 0.35418 0.36507 0.00074
 Cu10 Cu 0.30768 0.33623 0.00045
 C11 C 0.34721 0.32424 -0.03867
 C12 C 0.31325 0.37672 0.03959
 C13 C 0.35353 0.31711 0.03083
 C14 C 0.30976 0.38408 -0.03073
 O15 O 0.67962 0.62715 0.02110
 O16 O 0.65043 0.66563 -0.03671
 O17 O 0.69041 0.62892 -0.03044
 O18 O 0.63800 0.66001 0.01373
 O19 O 0.66660 0.69398 0.02259
 O20 O 0.71948 0.66247 -0.02181
 O21 O 0.67984 0.69893 -0.02799
 O22 O 0.70852 0.66099 0.02943
 Cu23 Cu 0.66186 0.64199 -0.00918
 Cu24 Cu 0.69651 0.68247 0.00128
 C25 C 0.69882 0.63787 0.03533
 C26 C 0.66001 0.68913 -0.04183
 C27 C 0.71397 0.64006 -0.03349
 C28 C 0.64339 0.68207 0.02589
 O29 O 0.62367 0.33751 1.00820
 O30 O 0.66559 0.37381 0.95950
 O31 O 0.62894 0.33459 0.95603
 O32 O 0.66771 0.36783 1.01215
 O33 O 0.69685 0.33271 1.01288
 O34 O 0.66009 0.30113 0.95686
 O35 O 0.69731 0.34097 0.95996
 O36 O 0.65328 0.30279 1.00801
 Cu37 Cu 0.64359 0.35681 0.98386
 Cu38 Cu 0.68003 0.31677 0.98400
 C39 C 0.63084 0.31407 1.01629
 C40 C 0.68852 0.36399 0.95147
 C41 C 0.63819 0.31186 0.94709
 C42 C 0.68886 0.35542 1.02226
 O43 O 0.38353 0.65739 1.03645
 O44 O 0.34928 0.61480 0.98498
 O45 O 0.37976 0.65845 0.98384
 O46 O 0.35280 0.61342 1.03681
 O47 O 0.31490 0.63912 1.03953
 O48 O 0.34200 0.68432 0.98695
 O49 O 0.31153 0.64081 0.98745
 O50 O 0.34540 0.68275 1.03952
 Cu51 Cu 0.37027 0.63358 1.01030
 Cu52 Cu 0.32472 0.66441 1.01368
 C53 C 0.37023 0.67725 1.04683
 C54 C 0.32451 0.62049 0.97758
 C55 C 0.36536 0.67892 0.97623
 C56 C 0.32898 0.61833 1.04685
 O57 O -0.03616 0.36241 0.33386
 O58 O 0.02096 0.33862 0.37792
 O59 O 0.01797 0.36822 0.33443
 O60 O -0.03296 0.33224 0.37672
 O61 O -0.02814 0.29562 0.35125
 O62 O 0.02293 0.33127 0.30945
 O63 O 0.02569 0.30165 0.35290
 O64 O -0.03131 0.32586 0.30831
 Cu65 Cu -0.00802 0.35408 0.35823
 Cu66 Cu -0.00220 0.30995 0.32790
 C67 C -0.04359 0.34821 0.31369
 C68 C 0.03298 0.31605 0.37303
 C69 C 0.02923 0.35574 0.31480
 C70 C -0.03925 0.30775 0.37111
 O71 O 0.02236 0.69380 0.64000
 O72 O -0.02692 0.65638 0.68247
 O73 O -0.03186 0.69224 0.64416
 O74 O 0.02696 0.65728 0.67804
 O75 O 0.02843 0.69020 0.70839
 O76 O -0.03013 0.72526 0.67434
 O77 O -0.02541 0.68945 0.71265
 O78 O 0.02417 0.72654 0.67051
 Cu79 Cu -0.00252 0.67167 0.65804
 Cu80 Cu -0.00055 0.71123 0.69444
 C81 C 0.03173 0.71652 0.64813
 C82 C -0.03442 0.66651 0.70487
 C83 C -0.04113 0.71464 0.65353
 C84 C 0.03749 0.66768 0.69920
 O85 O 0.94813 0.65899 0.37886
 O86 O 1.00217 0.61104 0.35537
 O87 O 1.00060 0.65078 0.39027
 O88 O 0.94985 0.61987 0.34320
 O89 O 0.96183 0.64931 0.31186
 O90 O 1.01239 0.67997 0.35869
 O91 O 1.01405 0.64034 0.32388
 O92 O 0.96002 0.68830 0.34739
 Cu93 Cu 0.97395 0.63221 0.37007
 Cu94 Cu 0.98828 0.66739 0.33229
 C95 C 0.94496 0.68184 0.36725
 C96 C 1.01733 0.61755 0.33560
 C97 C 1.01512 0.67077 0.38248
 C98 C 0.94726 0.62935 0.31949
 O99 O 0.98928 0.33625 0.61527
 O100 O 1.03871 0.38689 0.64109
 O101 O 1.04151 0.34785 0.60546
 O102 O 0.98776 0.37440 0.65184
 O103 O 1.00212 0.34524 0.68294
 O104 O 1.05433 0.31776 0.63619
 O105 O 1.05322 0.35751 0.67189
 O106 O 1.00245 0.30727 0.64696
 Cu107 Cu 1.01295 0.36418 0.62516
 Cu108 Cu 1.02968 0.32899 0.66252
 C109 C 0.98706 0.31338 0.62692
 C110 C 1.05405 0.38100 0.66118
 C111 C 1.05687 0.32798 0.61287
 C112 C 0.98603 0.36443 0.67539
 O113 O 0.39468 0.01358 0.33049
 O114 O 0.35077 -0.02500 0.37616
 O115 O 0.38259 -0.03904 0.33421
 O116 O 0.35474 0.02530 0.36321
 O117 O 0.32037 0.02417 0.33329
 O118 O 0.34766 -0.03908 0.30496
 O119 O 0.31700 -0.02627 0.34566
 O120 O 0.36143 0.01308 0.29947
 Cu121 Cu 0.37407 -0.00690 0.35352
 Cu122 Cu 0.33399 -0.00681 0.31767
 C123 C 0.38568 0.02013 0.30736
 C124 C 0.32642 -0.03196 0.36909
 C125 C 0.36967 -0.04990 0.31442
 C126 C 0.33245 0.03549 0.35305
 O127 O 0.65446 -0.02661 0.64201
 O128 O 0.61770 0.03015 0.67605
 O129 O 0.65116 0.02569 0.63469
 O130 O 0.61956 -0.02271 0.68165
 O131 O 0.65543 -0.01818 0.70942
 O132 O 0.68715 0.03056 0.66226
 O133 O 0.65379 0.03473 0.70356
 O134 O 0.69018 -0.02169 0.66995
 Cu135 Cu 0.63208 0.00126 0.65584
 Cu136 Cu 0.67515 0.00699 0.68913
 C137 C 0.67859 -0.03381 0.65034
 C138 C 0.62962 0.04201 0.69574
 C139 C 0.67464 0.03609 0.64024
 C140 C 0.63223 -0.02901 0.70333
 O141 O 0.34958 1.02428 0.61417
 O142 O 0.38974 0.96622 0.64201
 O143 O 0.34975 0.97165 0.60613
 O144 O 0.39056 1.01863 0.64830
 O145 O 0.35932 1.01554 0.68063
 O146 O 0.31904 0.96731 0.63873
 O147 O 0.35918 0.96278 0.67486
 O148 O 0.31845 1.01973 0.64639
 Cu149 Cu 0.37293 0.99549 0.62433
 Cu150 Cu 0.33590 0.99078 0.66340
 C151 C 0.32722 1.03194 0.62567
 C152 C 0.38153 0.95497 0.66352
 C153 C 0.32740 0.96157 0.61512
 C154 C 0.38185 1.02528 0.67148
 O155 O 0.64845 1.03969 0.38799
 O156 O 0.60347 0.98752 0.35695
 O157 O 0.64290 0.98703 0.39328
 O158 O 0.60904 1.03959 0.35081
 O159 O 0.64059 1.03217 0.31939
 O160 O 0.67452 0.98035 0.36177
 O161 O 0.63537 0.98036 0.32577
 O162 O 0.67974 1.03269 0.35626
 Cu163 Cu 0.62287 1.01431 0.37552
 Cu164 Cu 0.66080 1.00583 0.33770
 C165 C 0.67188 1.04494 0.37745
 C166 C 0.61185 0.97507 0.33604
 C167 C 0.66436 0.97457 0.38457
 C168 C 0.61874 1.04431 0.32756
 C169 C 0.80687 0.78952 0.49242
 C170 C 0.81029 0.79306 0.52054
 C171 C 0.79387 0.81269 0.53389
 C172 C 0.77448 0.82902 0.51978
 C173 C 0.77181 0.82601 0.49156
 C174 C 0.78756 0.80589 0.47836
 H175 H 0.78435 0.80260 0.45699
 H176 H 0.79735 0.81651 0.55510
 C177 C 0.19133 0.20329 0.47273
 C178 C 0.19289 0.20898 0.50066
 C179 C 0.21522 0.19836 0.51592
 C180 C 0.23548 0.18144 0.50411
 C181 C 0.23396 0.17570 0.47625
 C182 C 0.21189 0.18674 0.46091
 H183 H 0.21004 0.18170 0.43971
 H184 H 0.21623 0.20246 0.53737
 C185 C 0.15448 0.80806 0.50121
 C186 C 0.15396 0.80773 0.47273
 C187 C 0.17333 0.82322 0.45857
 C188 C 0.19317 0.83924 0.47187
 C189 C 0.19384 0.83987 0.50038
 C190 C 0.17449 0.82410 0.51462
 H191 H 0.17491 0.82442 0.53639
 H192 H 0.17282 0.82293 0.43671
 C193 C 0.83320 0.20476 0.52197
 C194 C 0.82754 0.20460 0.49397
 C195 C 0.80527 0.18928 0.48396
 C196 C 0.78817 0.17402 0.50109
 C197 C 0.79350 0.17456 0.52920
 C198 C 0.81574 0.19009 0.53923
 H199 H 0.82022 0.18952 0.56064
 H200 H 0.80084 0.18999 0.46254
 C201 C 0.47901 0.82533 0.80526
 C202 C 0.50837 0.82714 0.80267
 C203 C 0.52542 0.80826 0.81651
 C204 C 0.51395 0.78855 0.83360
 C205 C 0.48475 0.78809 0.83756
 C206 C 0.46766 0.80645 0.82318
 H207 H 0.44531 0.80654 0.82616
 H208 H 0.54781 0.80905 0.81444
 C209 C 0.48341 0.15330 0.17567
 C210 C 0.51279 0.15059 0.17721
 C211 C 0.52915 0.16377 0.15792
 C212 C 0.51711 0.18053 0.13813
 C213 C 0.48783 0.18472 0.13771
 C214 C 0.47139 0.17063 0.15635
 H215 H 0.44885 0.17228 0.15529
 H216 H 0.55169 0.16215 0.15892
 C217 C 0.49179 0.18689 0.77959
 C218 C 0.46264 0.18546 0.78398
 C219 C 0.45002 0.20376 0.80201
 C220 C 0.46590 0.22277 0.81658
 C221 C 0.49496 0.22417 0.81224
 C222 C 0.50746 0.20649 0.79357
 H223 H 0.52954 0.20837 0.78952
 H224 H 0.42787 0.20202 0.80580
 C225 C 0.53040 0.81988 0.21351
 C226 C 0.50158 0.81458 0.21585
 C227 C 0.48830 0.79890 0.19583
 C228 C 0.50312 0.78864 0.17352
 C229 C 0.53203 0.79406 0.17151
 C230 C 0.54518 0.80939 0.19161
 H231 H 0.56729 0.81367 0.18995
 H232 H 0.46620 0.79506 0.19746
 C233 C 0.83025 0.47701 0.83986
 C234 C 0.82423 0.50527 0.84034
 C235 C 0.83625 0.52197 0.82067
 C236 C 0.85465 0.51140 0.80131
 C237 C 0.86062 0.48316 0.80100
 C238 C 0.84863 0.46642 0.82060
 H239 H 0.85371 0.44488 0.82112
 H240 H 0.83058 0.54333 0.81983
 C241 C 0.20487 0.48710 0.18503
 C242 C 0.20674 0.51585 0.18566
 C243 C 0.18750 0.53089 0.20083
 C244 C 0.16620 0.51828 0.21518
 C245 C 0.16421 0.48955 0.21490
 C246 C 0.18379 0.47434 0.19999
 H247 H 0.18231 0.45238 0.19958
 H248 H 0.18880 0.55295 0.20107
 C249 C 0.77525 0.50117 0.17711
 C250 C 0.77549 0.47238 0.17675
 C251 C 0.79358 0.45803 0.19414
 C252 C 0.81092 0.47188 0.21251
 C253 C 0.80936 0.50067 0.21395
 C254 C 0.79186 0.51498 0.19603
 H255 H 0.79148 0.53699 0.19669
 H256 H 0.79424 0.43605 0.19303
 C257 C 0.21426 0.52973 0.82125
 C258 C 0.21721 0.50104 0.82040
 C259 C 0.20440 0.48655 0.79937
 C260 C 0.18737 0.49959 0.78022
 C261 C 0.18348 0.52814 0.78159
 C262 C 0.19787 0.54285 0.80160
 H263 H 0.19619 0.56487 0.80210
 H264 H 0.20743 0.46468 0.79802
 C265 C 0.30262 0.39260 0.06261
 C266 C 0.27700 0.38646 0.07429
 C267 C 0.26353 0.40231 0.09616
 C268 C 0.23985 0.39130 0.10836
 C269 C 0.22514 0.40598 0.12778
 C270 C 0.23377 0.43203 0.13564
 C271 C 0.25769 0.44310 0.12371
 C272 C 0.27244 0.42838 0.10416
 C273 C 0.21603 0.44752 0.15468
 C274 C 0.22478 0.47031 0.16924
 H275 H 0.26587 0.36883 0.06684
 H276 H 0.23240 0.37135 0.10253
 H277 H 0.20668 0.39706 0.13647
 H278 H 0.26454 0.46346 0.12859
 H279 H 0.29016 0.43793 0.09488
 H280 H 0.19461 0.44100 0.15661
 H281 H 0.31518 0.40915 0.07017
 H282 H 0.24608 0.47716 0.16768
 C283 C 0.71013 0.62388 0.05918
 C284 C 0.69957 0.59930 0.06847
 C285 C 0.71096 0.58530 0.09258
 C286 C 0.70812 0.55700 0.09465
 C287 C 0.71977 0.54293 0.11648
 C288 C 0.73443 0.55700 0.13678
 C289 C 0.73593 0.58545 0.13549
 C290 C 0.72439 0.59951 0.11357
 C291 C 0.74853 0.54251 0.15923
 C292 C 0.75972 0.51642 0.15591
 H293 H 0.68339 0.58925 0.05689
 H294 H 0.69732 0.54567 0.07906
 H295 H 0.71716 0.52109 0.11741
 H296 H 0.74661 0.59676 0.15116
 H297 H 0.72595 0.62146 0.11327
 H298 H 0.75133 0.55320 0.17813
 H299 H 0.72740 0.63341 0.06960
 H300 H 0.75760 0.50664 0.13647
 C301 C 0.70438 0.37996 0.93202
 C302 C 0.73225 0.37493 0.92586
 C303 C 0.74757 0.39327 0.90768
 C304 C 0.77580 0.39870 0.91269
 C305 C 0.79003 0.41762 0.89695
 C306 C 0.77629 0.43110 0.87553
 C307 C 0.74828 0.42491 0.87009
 C308 C 0.73409 0.40617 0.88588
 C309 C 0.78985 0.45202 0.85871
 C310 C 0.81828 0.45772 0.85925
 H311 H 0.74360 0.35901 0.93644
 H312 H 0.78662 0.38895 0.92935
 H313 H 0.81147 0.42190 0.90213
 H314 H 0.73723 0.43477 0.85362
 H315 H 0.71253 0.40183 0.88097
 H316 H 0.77686 0.46318 0.84448
 H317 H 0.69396 0.39766 0.92353
 H318 H 0.83264 0.44524 0.87082
 C319 C 0.31073 0.60290 0.95768
 C320 C 0.28542 0.61018 0.94559
 C321 C 0.27094 0.59229 0.92621
 C322 C 0.25534 0.60401 0.90517
 C323 C 0.24160 0.58756 0.88641
 C324 C 0.24284 0.55906 0.88873
 C325 C 0.25755 0.54734 0.91034
 C326 C 0.27175 0.56378 0.92881
 C327 C 0.22871 0.54122 0.86909
 C328 C 0.22805 0.54717 0.84164
 H329 H 0.27666 0.63024 0.94932
 H330 H 0.25408 0.62595 0.90307
 H331 H 0.22971 0.59716 0.87036
 H332 H 0.25841 0.52541 0.91268
 H333 H 0.28295 0.55421 0.94532
 H334 H 0.21978 0.52248 0.87637
 H335 H 0.32099 0.58400 0.95213
 H336 H 0.23648 0.56632 0.83479
 C337 C 0.05555 0.30682 0.39116
 C338 C 0.06913 0.28177 0.38780
 C339 C 0.09187 0.27155 0.40567
 C340 C 0.10780 0.24907 0.39711
 C341 C 0.12934 0.23854 0.41324
 C342 C 0.13529 0.25020 0.43851
 C343 C 0.11948 0.27273 0.44706
 C344 C 0.09787 0.28321 0.43098
 C345 C 0.15804 0.23988 0.45620
 C346 C 0.16824 0.21317 0.45521
 H347 H 0.06321 0.26918 0.37077
 H348 H 0.10373 0.23971 0.37771
 H349 H 0.14152 0.22166 0.40552
 H350 H 0.12365 0.28207 0.46646
 H351 H 0.08584 0.30012 0.43879
 H352 H 0.16664 0.25377 0.47097
 H353 H 0.06154 0.32044 0.40726
 H354 H 0.16038 0.19923 0.44014
 C355 C 0.05185 0.73157 0.63185
 C356 C 0.05862 0.72383 0.60564
 C357 C 0.07932 0.73863 0.58945
 C358 C 0.07674 0.73875 0.56129
 C359 C 0.09594 0.75272 0.54551
 C360 C 0.11830 0.76658 0.55771
 C361 C 0.12137 0.76569 0.58580
 C362 C 0.10203 0.75198 0.60156
 C363 C 0.13924 0.78135 0.54183
 C364 C 0.13324 0.79333 0.51696
 H365 H 0.04745 0.70721 0.59623
 H366 H 0.05969 0.72817 0.55150
 H367 H 0.09351 0.75218 0.52383
 H368 H 0.13871 0.77581 0.59559
 H369 H 0.10521 0.75149 0.62316
 H370 H 0.15991 0.78338 0.55049
 H371 H 0.06101 0.74963 0.64062
 H372 H 0.11248 0.79159 0.50848
 C373 C 0.92396 0.70143 0.37697
 C374 C 0.90756 0.69605 0.39943
 C375 C 0.88779 0.71587 0.41154
 C376 C 0.86881 0.70648 0.43074
 C377 C 0.85066 0.72455 0.44371
 C378 C 0.85132 0.75255 0.43791
 C379 C 0.86983 0.76189 0.41831
 C380 C 0.88805 0.74384 0.40538
 C381 C 0.83322 0.77252 0.45190
 C382 C 0.82281 0.76825 0.47772
 H383 H 0.90938 0.67619 0.40880
 H384 H 0.86807 0.68505 0.43581
 H385 H 0.83609 0.71644 0.45810
 H386 H 0.87068 0.78336 0.41345
 H387 H 0.90262 0.75216 0.39117
 H388 H 0.83009 0.79226 0.44258
 H389 H 0.92186 0.72046 0.36623
 H390 H 0.82827 0.74974 0.48835
 C391 C 0.96612 0.29378 0.61760
 C392 C 0.95070 0.29802 0.59404
 C393 C 0.92806 0.27980 0.58515
 C394 C 0.92159 0.27816 0.55762
 C395 C 0.89969 0.26188 0.54857
 C396 C 0.88358 0.24716 0.56699
 C397 C 0.88969 0.24920 0.59458
 C398 C 0.91187 0.26521 0.60361
 C399 C 0.85946 0.23081 0.55807
 C400 C 0.85839 0.21840 0.53279
 H401 H 0.95592 0.31498 0.58114
 H402 H 0.93347 0.28958 0.54307
 H403 H 0.89499 0.26149 0.52724
 H404 H 0.87726 0.23841 0.60915
 H405 H 0.91575 0.26672 0.62506
 H406 H 0.84211 0.22889 0.57173
 H407 H 0.96288 0.27567 0.62953
 H408 H 0.87642 0.21960 0.51987
 C409 C 0.40400 0.03582 0.28975
 C410 C 0.39475 0.04758 0.26576
 C411 C 0.41356 0.06342 0.24842
 C412 C 0.40269 0.08516 0.23325
 C413 C 0.42020 0.10081 0.21716
 C414 C 0.44887 0.09468 0.21573
 C415 C 0.45953 0.07235 0.23018
 C416 C 0.44211 0.05693 0.24649
 C417 C 0.46805 0.11047 0.19879
 C418 C 0.46427 0.13813 0.19335
 H419 H 0.37282 0.04662 0.26040
 H420 H 0.38067 0.09024 0.23410
 H421 H 0.41113 0.11733 0.20556
 H422 H 0.48148 0.06700 0.22903
 H423 H 0.45098 0.03974 0.25724
 H424 H 0.48634 0.10006 0.19107
 H425 H 0.42527 0.03893 0.29650
 H426 H 0.44575 0.14860 0.20042
 C427 C 0.61565 0.06431 0.71028
 C428 C 0.58864 0.07332 0.70416
 C429 C 0.57417 0.09470 0.72009
 C430 C 0.55221 0.10964 0.70825
 C431 C 0.53820 0.12996 0.72282
 C432 C 0.54575 0.13547 0.74973
 C433 C 0.56752 0.12033 0.76157
 C434 C 0.58145 0.10007 0.74707
 C435 C 0.53180 0.15665 0.76630
 C436 C 0.50603 0.16866 0.76009
 H437 H 0.57799 0.06492 0.68675
 H438 H 0.54609 0.10579 0.68755
 H439 H 0.52184 0.14138 0.71274
 H440 H 0.57363 0.12396 0.78232
 H441 H 0.59752 0.08841 0.75733
 H442 H 0.54136 0.16153 0.78554
 H443 H 0.62732 0.07381 0.72643
 H444 H 0.49472 0.16259 0.74220
 C445 C 0.39866 0.93309 0.67557
 C446 C 0.39232 0.92193 0.70066
 C447 C 0.41023 0.90208 0.71548
 C448 C 0.40015 0.89105 0.73957
 C449 C 0.41655 0.87317 0.75496
 C450 C 0.44361 0.86600 0.74662
 C451 C 0.45354 0.87659 0.72232
 C452 C 0.43719 0.89454 0.70696
 C453 C 0.46202 0.84756 0.76245
 C454 C 0.45932 0.84312 0.79010
 H455 H 0.37329 0.92862 0.71041
 H456 H 0.37945 0.89637 0.74661
 H457 H 0.40775 0.86489 0.77314
 H458 H 0.47430 0.87132 0.71541
 H459 H 0.44611 0.90261 0.68878
 H460 H 0.47940 0.83805 0.75210
 H461 H 0.41702 0.92665 0.66473
 H462 H 0.44175 0.85157 0.80091
 C463 C 0.59386 0.95454 0.32340
 C464 C 0.60325 0.93885 0.30180
 C465 C 0.58580 0.91896 0.28720
 C466 C 0.59911 0.89840 0.27231
 C467 C 0.58356 0.87986 0.25723
 C468 C 0.55426 0.88160 0.25665
 C469 C 0.54093 0.90242 0.27121
 C470 C 0.55650 0.92088 0.28649
 C471 C 0.53724 0.86301 0.23998
 C472 C 0.54609 0.83684 0.23289
 H473 H 0.62477 0.94076 0.29556
 H474 H 0.62167 0.89682 0.27217
 H475 H 0.59468 0.86478 0.24547
 H476 H 0.51841 0.90450 0.27065
 H477 H 0.54556 0.93699 0.29702
 H478 H 0.51702 0.87025 0.23303
 H479 H 0.57316 0.95169 0.33142
 H480 H 0.56638 0.82944 0.23935
 C481 C 0.35662 0.30856 0.93780
 C482 C 0.38152 0.31424 0.92469
 C483 C 0.39207 0.29821 0.90156
 C484 C 0.42061 0.29925 0.89568
 C485 C 0.43169 0.28384 0.87461
 C486 C 0.41439 0.26698 0.85891
 C487 C 0.38565 0.26686 0.86396
 C488 C 0.37454 0.28226 0.88512
 C489 C 0.42579 0.24965 0.83712
 C490 C 0.45296 0.23928 0.83824
 H491 H 0.39464 0.33028 0.93262
 H492 H 0.43446 0.31181 0.90765
 H493 H 0.45377 0.28541 0.87057
 H494 H 0.37184 0.25449 0.85176
 H495 H 0.35226 0.28171 0.88829
 H496 H 0.41231 0.24450 0.82031
 H497 H 0.34369 0.29186 0.93116
 H498 H 0.46565 0.24359 0.85582
 C499 C 0.64787 0.70602 0.93661
 C500 C 0.62312 0.69940 0.92329
 C501 C 0.60806 0.71859 0.90516
 C502 C 0.58813 0.70837 0.88703
 C503 C 0.57239 0.72601 0.87071
 C504 C 0.57602 0.75438 0.87253
 C505 C 0.59630 0.76454 0.89028
 C506 C 0.61200 0.74694 0.90658
 C507 C 0.55890 0.77398 0.85670
 C508 C 0.53235 0.76794 0.84674
 H509 H 0.61404 0.67958 0.92671
 H510 H 0.58467 0.68665 0.88552
 H511 H 0.55757 0.71727 0.85672
 H512 H 0.59950 0.78629 0.89210
 H513 H 0.62650 0.75584 0.92079
 H514 H 0.56631 0.79469 0.85517
 H515 H 0.65816 0.72502 0.93232
 H516 H 0.52370 0.74806 0.85051
 C517 C 0.38336 0.69419 0.06773
 C518 C 0.41174 0.69229 0.07394
 C519 C 0.42515 0.70917 0.09499
 C520 C 0.45354 0.71543 0.09271
 C521 C 0.46687 0.73122 0.11235
 C522 C 0.45203 0.74078 0.13485
 C523 C 0.42385 0.73389 0.13750
 C524 C 0.41045 0.71839 0.11771
 C525 C 0.46563 0.75681 0.15643
 C526 C 0.48811 0.77401 0.15168
 H527 H 0.42490 0.67895 0.06201
 H528 H 0.46542 0.70817 0.07562
 H529 H 0.48888 0.73532 0.11014
 H530 H 0.41214 0.74062 0.15491
 H531 H 0.38878 0.71318 0.12057
 H532 H 0.45745 0.75499 0.17660
 H533 H 0.37041 0.70918 0.07781
 H534 H 0.49556 0.77628 0.13130
 C535 C 0.61228 0.30050 0.03529
 C536 C 0.61470 0.27315 0.04235
 C537 C 0.59424 0.25967 0.06009
 C538 C 0.60219 0.23593 0.07391
 C539 C 0.58350 0.22297 0.09108
 C540 C 0.55632 0.23344 0.09452
 C541 C 0.54829 0.25700 0.08056
 C542 C 0.56686 0.26982 0.06328
 C543 C 0.53609 0.22075 0.11290
 C544 C 0.53630 0.19299 0.11861
 H545 H 0.63240 0.26142 0.03514
 H546 H 0.62308 0.22763 0.07176
 H547 H 0.59067 0.20520 0.10204
 H548 H 0.52741 0.26533 0.08276
 H549 H 0.55940 0.28742 0.05225
 H550 H 0.52007 0.23363 0.12163
 H551 H 0.59560 0.31285 0.04354
 H552 H 0.55249 0.18004 0.11033
 C553 C 0.31092 0.05515 0.61521
 C554 C 0.31980 0.07077 0.59350
 C555 C 0.30318 0.09359 0.58197
 C556 C 0.30841 0.10171 0.55544
 C557 C 0.29235 0.12223 0.54330
 C558 C 0.27087 0.13539 0.55766
 C559 C 0.26612 0.12775 0.58443
 C560 C 0.28221 0.10723 0.59658
 C561 C 0.25162 0.15530 0.54476
 C562 C 0.25773 0.16892 0.52093
 H563 H 0.33906 0.06511 0.58357
 H564 H 0.32446 0.09159 0.54376
 H565 H 0.29625 0.12685 0.52239
 H566 H 0.24971 0.13753 0.59592
 H567 H 0.27807 0.10225 0.61735
 H568 H 0.23104 0.15780 0.55337
 H569 H 0.29117 0.05952 0.62474
 H570 H 0.27840 0.16730 0.51246
 C571 C 0.68967 0.06402 0.38900
 C572 C 0.68375 0.07783 0.41298
 C573 C 0.70385 0.09668 0.42583
 C574 C 0.70290 0.10088 0.45380
 C575 C 0.72266 0.11734 0.46669
 C576 C 0.74358 0.13009 0.45166
 C577 C 0.74400 0.12649 0.42365
 C578 C 0.72423 0.11024 0.41081
 C579 C 0.76620 0.14605 0.46428
 C580 C 0.76435 0.15878 0.48940
 H581 H 0.66475 0.07323 0.42370
 H582 H 0.68732 0.09077 0.46581
 H583 H 0.72199 0.11922 0.48838
 H584 H 0.75979 0.13628 0.41162
 H585 H 0.72504 0.10845 0.38912
 H586 H 0.78531 0.14784 0.45296
 H587 H 0.70946 0.06720 0.37919
 H588 H 0.74548 0.15707 0.50106
 C589 C 0.69368 0.94355 0.63751
 C590 C 0.68423 0.93101 0.61399
 C591 C 0.70023 0.90902 0.60060
 C592 C 0.69816 0.90610 0.57257
 C593 C 0.71379 0.88614 0.55923
 C594 C 0.73162 0.86854 0.57379
 C595 C 0.73275 0.87070 0.60193
 C596 C 0.71733 0.89083 0.61525
 C597 C 0.74865 0.84740 0.56027
 C598 C 0.75860 0.85058 0.53415
 H599 H 0.66564 0.93886 0.60405
 H600 H 0.68474 0.91956 0.56093
 H601 H 0.71157 0.88435 0.53759
 H602 H 0.74590 0.85701 0.61360
 H603 H 0.71863 0.89190 0.63699
 H604 H 0.75390 0.82913 0.57146
 H605 H 0.71344 0.93740 0.64638
 H606 H 0.75413 0.86936 0.52355
 C607 C 0.30919 0.95357 0.38866
 C608 C 0.28317 0.94291 0.38207
 C609 C 0.26623 0.92794 0.40181
 C610 C 0.24856 0.90725 0.39265
 C611 C 0.23285 0.89223 0.41086
 C612 C 0.23430 0.89789 0.43862
 C613 C 0.25108 0.91931 0.44770
 C614 C 0.26708 0.93412 0.42950
 C615 C 0.21791 0.88225 0.45826
 C616 C 0.21251 0.85463 0.45468
 H617 H 0.27584 0.94397 0.36140
 H618 H 0.24721 0.90246 0.37137
 H619 H 0.21930 0.87650 0.40310
 H620 H 0.25209 0.92433 0.46894
 H621 H 0.27979 0.95058 0.43712
 H622 H 0.21022 0.89272 0.47596
 H623 H 0.31773 0.95063 0.40870
 H624 H 0.22026 0.84442 0.43684
 C625 C 0.07210 0.40223 0.67247
 C626 C 0.08896 0.39776 0.69502
 C627 C 0.10396 0.41991 0.70900
 C628 C 0.12805 0.41355 0.72394
 C629 C 0.14207 0.43378 0.73833
 C630 C 0.13205 0.46080 0.73824
 C631 C 0.10765 0.46709 0.72372
 C632 C 0.09379 0.44689 0.70907
 C633 C 0.14568 0.48226 0.75442
 C634 C 0.17430 0.48207 0.75956
 H635 H 0.09138 0.37723 0.70272
 H636 H 0.13596 0.39283 0.72461
 H637 H 0.16023 0.42800 0.75014
 H638 H 0.09928 0.48765 0.72379
 H639 H 0.07471 0.45234 0.69853
 H640 H 0.13270 0.49820 0.76293
 H641 H 0.07116 0.42222 0.66333
 H642 H 0.18713 0.46605 0.75100
 C643 C 0.03878 0.59820 0.32625
 C644 C 0.05607 0.60429 0.30463
 C645 C 0.07744 0.58553 0.29339
 C646 C 0.09581 0.59580 0.27410
 C647 C 0.11562 0.57889 0.26198
 C648 C 0.11735 0.55114 0.26872
 C649 C 0.09955 0.54093 0.28850
 C650 C 0.07961 0.55785 0.30061
 C651 C 0.13739 0.53250 0.25544
 C652 C 0.14599 0.53637 0.22894
 H653 H 0.05392 0.62416 0.29533
 H654 H 0.09480 0.61704 0.26830
 H655 H 0.12967 0.58773 0.24753
 H656 H 0.10063 0.51964 0.29414
 H657 H 0.06578 0.54889 0.31512
 H658 H 0.14455 0.51468 0.26637
 H659 H 0.04076 0.57907 0.33681
 H660 H 0.13902 0.55426 0.21802
 C661 C 0.93326 0.35765 0.29629
 C662 C 0.91865 0.38169 0.30198
 C663 C 0.89575 0.39305 0.28510
 C664 C 0.88824 0.42046 0.28882
 C665 C 0.86707 0.43240 0.27331
 C666 C 0.85285 0.41714 0.25363
 C667 C 0.85956 0.38945 0.25053
 C668 C 0.88093 0.37748 0.26601
 C669 C 0.83090 0.42974 0.23645
 C670 C 0.83232 0.45705 0.22881
 H671 H 0.92514 0.39359 0.31930
 H672 H 0.89893 0.43280 0.30371
 H673 H 0.86171 0.45353 0.27703
 H674 H 0.84855 0.37718 0.23582
 H675 H 0.88545 0.35608 0.26311
 H676 H 0.81396 0.41710 0.22945
 H677 H 0.92816 0.34565 0.27868
 H678 H 0.85056 0.46836 0.23497
 C679 C 0.94668 0.65154 0.72253
 C680 C 0.93651 0.62588 0.71573
 C681 C 0.91985 0.60906 0.73425
 C682 C 0.90379 0.58782 0.72356
 C683 C 0.88873 0.57073 0.74049
 C684 C 0.88981 0.57435 0.76860
 C685 C 0.90557 0.59582 0.77925
 C686 C 0.92059 0.61290 0.76234
 C687 C 0.87509 0.55626 0.78749
 C688 C 0.86675 0.52987 0.78097
 H689 H 0.94087 0.61772 0.69589
 H690 H 0.90286 0.58444 0.70200
 H691 H 0.87622 0.55493 0.73140
 H692 H 0.90677 0.59904 0.80082
 H693 H 0.93329 0.62851 0.77150
 H694 H 0.87291 0.56315 0.80812
 H695 H 0.94111 0.66097 0.74147
 H696 H 0.87115 0.52173 0.76120
 C697 C 0.73423 0.62768 0.95041
 C698 C 0.72981 0.60252 0.93775
 C699 C 0.75061 0.58785 0.92091
 C700 C 0.74220 0.56406 0.90746
 C701 C 0.76077 0.54950 0.89117
 C702 C 0.78838 0.55834 0.88808
 C703 C 0.79686 0.58206 0.90155
 C704 C 0.77832 0.59660 0.91790
 C705 C 0.80835 0.54441 0.86990
 C706 C 0.80542 0.51756 0.86088
 H707 H 0.70973 0.59287 0.94017
 H708 H 0.72101 0.55682 0.90931
 H709 H 0.75311 0.53178 0.88057
 H710 H 0.81798 0.58940 0.89940
 H711 H 0.78601 0.61454 0.92801
 H712 H 0.82652 0.55574 0.86381
 H713 H 0.75382 0.63812 0.94818
 H714 H 0.78952 0.50509 0.86973
 C715 C 0.29832 0.40238 0.95071
 C716 C 0.27197 0.39863 0.93909
 C717 C 0.26040 0.41580 0.91710
 C718 C 0.23861 0.40532 0.90130
 C719 C 0.22714 0.42051 0.88018
 C720 C 0.23711 0.44660 0.87432
 C721 C 0.25865 0.45741 0.89041
 C722 C 0.27017 0.44216 0.91161
 C723 C 0.22352 0.46197 0.85212
 C724 C 0.23384 0.48581 0.84071
 H725 H 0.25993 0.38106 0.94500
 H726 H 0.23053 0.38518 0.90519
 H727 H 0.21037 0.41179 0.86832
 H728 H 0.26636 0.47774 0.88719
 H729 H 0.28627 0.45139 0.92386
 H730 H 0.20383 0.45424 0.84458
 H731 H 0.31118 0.41912 0.94431
 H732 H 0.25322 0.49448 0.84777
 C733 C 0.31813 0.60021 0.06558
 C734 C 0.29250 0.60479 0.07810
 C735 C 0.27916 0.58459 0.09574
 C736 C 0.26147 0.59384 0.11623
 C737 C 0.24724 0.57535 0.13233
 C738 C 0.25011 0.54718 0.12793
 C739 C 0.26748 0.53788 0.10718
 C740 C 0.28215 0.55640 0.09137
 C741 C 0.23376 0.52746 0.14360
 C742 C 0.22778 0.53167 0.17076
 H743 H 0.28191 0.62420 0.07537
 H744 H 0.25849 0.61546 0.11966
 H745 H 0.23329 0.58319 0.14759
 H746 H 0.26962 0.51627 0.10318
 H747 H 0.29503 0.54867 0.07520
 H748 H 0.22567 0.50980 0.13318
 H749 H 0.32998 0.58192 0.07028
 H750 H 0.23600 0.54962 0.18063
 C751 C 0.70396 0.36630 0.04374
 C752 C 0.69698 0.39060 0.05674
 C753 C 0.71410 0.40142 0.07926
 C754 C 0.70127 0.41704 0.09940
 C755 C 0.71694 0.42741 0.12092
 C756 C 0.74599 0.42284 0.12239
 C757 C 0.75875 0.40712 0.10225
 C758 C 0.74306 0.39665 0.08084
 C759 C 0.76374 0.43454 0.14405
 C760 C 0.75595 0.45755 0.15878
 H761 H 0.67782 0.40119 0.05133
 H762 H 0.67899 0.42091 0.09867
 H763 H 0.70607 0.43872 0.13637
 H764 H 0.78105 0.40337 0.10279
 H765 H 0.75383 0.38534 0.06529
 H766 H 0.78480 0.42665 0.14644
 H767 H 0.72183 0.35468 0.05090
 H768 H 0.73592 0.46706 0.15485
 C769 C 0.93638 0.72792 0.64114
 C770 C 0.92336 0.71777 0.61795
 C771 C 0.89961 0.73162 0.60432
 C772 C 0.89468 0.72621 0.57695
 C773 C 0.87268 0.73902 0.56323
 C774 C 0.85501 0.75749 0.57669
 C775 C 0.85928 0.76215 0.60429
 C776 C 0.88142 0.74945 0.61800
 C777 C 0.83181 0.77178 0.56263
 C778 C 0.83278 0.77813 0.53525
 H779 H 0.93173 0.69955 0.60852
 H780 H 0.90804 0.71215 0.56608
 H781 H 0.86938 0.73407 0.54221
 H782 H 0.84564 0.77590 0.61520
 H783 H 0.88389 0.75337 0.63932
 H784 H 0.81405 0.77818 0.57447
 H785 H 0.92929 0.74697 0.64980
 H786 H 0.85115 0.77236 0.52400
 C787 C 0.94151 0.29364 0.38659
 C788 C 0.92814 0.30510 0.40890
 C789 C 0.90789 0.29004 0.42559
 C790 C 0.90270 0.29902 0.45194
 C791 C 0.88421 0.28500 0.46847
 C792 C 0.87054 0.26164 0.45905
 C793 C 0.87490 0.25322 0.43229
 C794 C 0.89332 0.26728 0.41575
 C795 C 0.85198 0.24679 0.47763
 C796 C 0.84464 0.21951 0.47419
 H797 H 0.93362 0.32553 0.41521
 H798 H 0.91329 0.31672 0.45992
 H799 H 0.88091 0.29223 0.48883
 H800 H 0.86389 0.23609 0.42378
 H801 H 0.89566 0.26042 0.39518
 H802 H 0.84505 0.25731 0.49561
 H803 H 0.93738 0.27274 0.38101
 H804 H 0.85046 0.20865 0.45610
 C805 C 0.07656 0.31736 0.59505
 C806 C 0.09105 0.29313 0.60035
 C807 C 0.11155 0.28133 0.58151
 C808 C 0.11261 0.25301 0.57797
 C809 C 0.13256 0.24114 0.56114
 C810 C 0.15231 0.25740 0.54818
 C811 C 0.15152 0.28571 0.55198
 C812 C 0.13101 0.29767 0.56821
 C813 C 0.17477 0.24492 0.53203
 C814 C 0.16992 0.22292 0.51493
 H815 H 0.08576 0.28123 0.61792
 H816 H 0.09796 0.24005 0.58827
 H817 H 0.13311 0.21920 0.55896
 H818 H 0.16677 0.29854 0.54237
 H819 H 0.13092 0.31954 0.57106
 H820 H 0.19542 0.25372 0.53294
 H821 H 0.07970 0.32760 0.57600
 H822 H 0.14873 0.21632 0.51117
 C823 C 0.03403 0.68268 0.40041
 C824 C 0.05042 0.70489 0.39302
 C825 C 0.07023 0.71939 0.41107
 C826 C 0.08501 0.74137 0.40035
 C827 C 0.10356 0.75622 0.41630
 C828 C 0.10767 0.74955 0.44357
 C829 C 0.09342 0.72724 0.45425
 C830 C 0.07476 0.71235 0.43826
 C831 C 0.12707 0.76506 0.46106
 C832 C 0.13328 0.79241 0.45655
 H833 H 0.04846 0.71251 0.37260
 H834 H 0.08224 0.74712 0.37944
 H835 H 0.11492 0.77259 0.40699
 H836 H 0.09646 0.72153 0.47514
 H837 H 0.06404 0.69557 0.44748
 H838 H 0.13628 0.75476 0.47826
 H839 H 0.03551 0.67432 0.42048
 H840 H 0.12433 0.80276 0.43929
 C841 C 0.62038 0.95047 0.72144
 C842 C 0.59430 0.93892 0.71647
 C843 C 0.58266 0.91646 0.73265
 C844 C 0.55367 0.91268 0.73268
 C845 C 0.54193 0.89113 0.74691
 C846 C 0.55907 0.87272 0.76124
 C847 C 0.58809 0.87614 0.76074
 C848 C 0.59982 0.89788 0.74673
 C849 C 0.54738 0.84931 0.77598
 C850 C 0.52098 0.85017 0.78773
 H851 H 0.58154 0.94698 0.70018
 H852 H 0.54004 0.92641 0.72157
 H853 H 0.51953 0.88858 0.74607
 H854 H 0.60173 0.86197 0.77128
 H855 H 0.62230 0.89959 0.74644
 H856 H 0.56034 0.83128 0.77795
 H857 H 0.63261 0.94424 0.73880
 H858 H 0.50890 0.86882 0.78620
 C859 C 0.38020 0.92516 0.30145
 C860 C 0.40566 0.91289 0.30828
 C861 C 0.41851 0.89084 0.29188
 C862 C 0.44751 0.88680 0.29331
 C863 C 0.46077 0.86813 0.27624
 C864 C 0.44519 0.85295 0.25743
 C865 C 0.41610 0.85614 0.25681
 C866 C 0.40282 0.87461 0.27402
 C867 C 0.45865 0.83574 0.23662
 C868 C 0.48565 0.82514 0.23921
 H869 H 0.41788 0.92159 0.32455
 H870 H 0.46011 0.89890 0.30694
 H871 H 0.48327 0.86666 0.27708
 H872 H 0.40361 0.84459 0.24262
 H873 H 0.38034 0.87621 0.27295
 H874 H 0.44740 0.83293 0.21784
 H875 H 0.36831 0.91779 0.28439
 H876 H 0.49656 0.82718 0.25824
 C877 C 0.60381 0.06334 0.30958
 C878 C 0.61259 0.06749 0.28316
 C879 C 0.59639 0.08274 0.26254
 C880 C 0.60993 0.09049 0.23884
 C881 C 0.59522 0.10350 0.21811
 C882 C 0.56661 0.10911 0.22058
 C883 C 0.55288 0.10115 0.24422
 C884 C 0.56763 0.08812 0.26500
 C885 C 0.55192 0.12247 0.19776
 C886 C 0.52646 0.13630 0.20014
 H887 H 0.63232 0.05861 0.27697
 H888 H 0.63199 0.08629 0.23626
 H889 H 0.60627 0.10920 0.20005
 H890 H 0.53065 0.10415 0.24655
 H891 H 0.55617 0.08161 0.28248
 H892 H 0.56204 0.12183 0.17835
 H893 H 0.58506 0.07309 0.31699
 H894 H 0.51601 0.13696 0.21934
 C895 C 0.39843 0.04445 0.68762
 C896 C 0.38794 0.05747 0.71044
 C897 C 0.40440 0.07758 0.72589
 C898 C 0.39063 0.09928 0.73874
 C899 C 0.40579 0.11897 0.75288
 C900 C 0.43503 0.11702 0.75475
 C901 C 0.44869 0.09478 0.74275
 C902 C 0.43358 0.07532 0.72831
 C903 C 0.45188 0.13743 0.76934
 C904 C 0.44457 0.16499 0.77073
 H905 H 0.36637 0.05433 0.71596
 H906 H 0.36812 0.10120 0.73748
 H907 H 0.39455 0.13542 0.76260
 H908 H 0.47117 0.09267 0.74424
 H909 H 0.44476 0.05838 0.71934
 H910 H 0.47165 0.13077 0.77786
 H911 H 0.41901 0.04950 0.68041
 H912 H 0.42448 0.17178 0.76311
 C913 C 0.62237 0.69324 0.04435
 C914 C 0.62567 0.71801 0.05766
 C915 C 0.60540 0.72822 0.07770
 C916 C 0.60263 0.75635 0.08177
 C917 C 0.58414 0.76663 0.10099
 C918 C 0.56848 0.74885 0.11706
 C919 C 0.57115 0.72070 0.11280
 C920 C 0.58946 0.71044 0.09342
 C921 C 0.54932 0.75867 0.13840
 C922 C 0.54954 0.78516 0.14861
 H923 H 0.64325 0.73074 0.05268
 H924 H 0.61464 0.77044 0.06985
 H925 H 0.58221 0.78848 0.10288
 H926 H 0.55935 0.70653 0.12483
 H927 H 0.59156 0.68859 0.09131
 H928 H 0.53560 0.74399 0.14758
 H929 H 0.60372 0.68142 0.04748
 H930 H 0.56547 0.79912 0.14221
 C931 C 0.36664 0.29662 0.04851
 C932 C 0.39539 0.29583 0.05323
 C933 C 0.40908 0.27535 0.07086
 C934 C 0.43726 0.26860 0.06669
 C935 C 0.45093 0.24969 0.08333
 C936 C 0.43665 0.23737 0.10467
 C937 C 0.40864 0.24450 0.10910
 C938 C 0.39493 0.26319 0.09235
 C939 C 0.45048 0.21827 0.12363
 C940 C 0.47406 0.20259 0.11741
 H941 H 0.40857 0.30999 0.04261
 H942 H 0.44873 0.27803 0.05051
 H943 H 0.47278 0.24539 0.07982
 H944 H 0.39733 0.23562 0.12568
 H945 H 0.37349 0.26853 0.09675
 H946 H 0.44145 0.21653 0.14347
 H947 H 0.35340 0.28112 0.05693
 H948 H 0.48321 0.20404 0.09763
 C949 C 0.62377 0.29698 0.92548
 C950 C 0.59811 0.30485 0.91448
 C951 C 0.58316 0.28772 0.89448
 C952 C 0.56378 0.29983 0.87678
 C953 C 0.54927 0.28404 0.85788
 C954 C 0.55366 0.25566 0.85660
 C955 C 0.57304 0.24362 0.87428
 C956 C 0.58743 0.25934 0.89316
 C957 C 0.53829 0.23781 0.83763
 C958 C 0.51219 0.24450 0.82679
 H959 H 0.58896 0.32421 0.92032
 H960 H 0.56005 0.32161 0.87742
 H961 H 0.53494 0.29420 0.84422
 H962 H 0.57667 0.22182 0.87388
 H963 H 0.60137 0.24898 0.90704
 H964 H 0.54635 0.21737 0.83447
 H965 H 0.63397 0.27865 0.91831
 H966 H 0.50267 0.26390 0.83171
 C967 C 0.37549 0.69672 0.95465
 C968 C 0.40098 0.69208 0.94193
 C969 C 0.41184 0.70949 0.92008
 C970 C 0.44056 0.70897 0.91487
 C971 C 0.45176 0.72511 0.89456
 C972 C 0.43436 0.74214 0.87890
 C973 C 0.40551 0.74198 0.88347
 C974 C 0.39431 0.72592 0.90390
 C975 C 0.44560 0.75978 0.85743
 C976 C 0.47267 0.77008 0.85844
 H977 H 0.41418 0.67552 0.94904
 H978 H 0.45446 0.69610 0.92667
 H979 H 0.47397 0.72382 0.89095
 H980 H 0.39162 0.75454 0.87135
 H981 H 0.37195 0.72617 0.90660
 H982 H 0.43184 0.76531 0.84092
 H983 H 0.36260 0.71402 0.94906
 H984 H 0.48573 0.76512 0.87562
 C985 C 0.67742 0.95309 0.40110
 C986 C 0.70095 0.93880 0.39222
 C987 C 0.71500 0.91684 0.40769
 C988 C 0.74259 0.90991 0.40120
 C989 C 0.75674 0.88934 0.41520
 C990 C 0.74360 0.87511 0.43597
 C991 C 0.71562 0.88147 0.44199
 C992 C 0.70148 0.90216 0.42801
 C993 C 0.75995 0.85409 0.45074
 C994 C 0.75246 0.84361 0.47576
 H995 H 0.71024 0.94464 0.37328
 H996 H 0.75338 0.92066 0.38539
 H997 H 0.77817 0.88473 0.40996
 H998 H 0.70433 0.87042 0.45715
 H999 H 0.67989 0.90618 0.43290
 H1000 H 0.78013 0.84842 0.44265
 H1001 H 0.66844 0.94881 0.42053
 H1002 H 0.73347 0.85048 0.48528
 C1003 C 0.31114 0.94332 0.59752
 C1004 C 0.28520 0.93316 0.60503
 C1005 C 0.26707 0.91608 0.58751
 C1006 C 0.24302 0.90482 0.59878
 C1007 C 0.22477 0.88927 0.58312
 C1008 C 0.23014 0.88440 0.55579
 C1009 C 0.25414 0.89573 0.54431
 C1010 C 0.27240 0.91141 0.55998
 C1011 C 0.20960 0.86843 0.53997
 C1012 C 0.21531 0.85560 0.51540
 H1013 H 0.27760 0.93811 0.62497
 H1014 H 0.23820 0.90818 0.61982
 H1015 H 0.20633 0.88099 0.59245
 H1016 H 0.25859 0.89322 0.52313
 H1017 H 0.29022 0.92014 0.55014
 H1018 H 0.18892 0.86657 0.54836
 H1019 H 0.31990 0.93840 0.57812
 H1020 H 0.23573 0.85741 0.50654
 C1021 C 0.31980 0.06045 0.36404
 C1022 C 0.32916 0.07299 0.38761
 C1023 C 0.31391 0.09618 0.39995
 C1024 C 0.31531 0.09986 0.42793
 C1025 C 0.29941 0.12021 0.44043
 C1026 C 0.28179 0.13736 0.42506
 C1027 C 0.28170 0.13469 0.39694
 C1028 C 0.29756 0.11433 0.38447
 C1029 C 0.26325 0.15805 0.43756
 C1030 C 0.25361 0.15585 0.46391
 H1031 H 0.34650 0.06395 0.39862
 H1032 H 0.32820 0.08652 0.44024
 H1033 H 0.30106 0.12238 0.46206
 H1034 H 0.26883 0.14803 0.38460
 H1035 H 0.29686 0.11287 0.36273
 H1036 H 0.25591 0.17481 0.42518
 H1037 H 0.30121 0.06804 0.35398
 H1038 H 0.26042 0.13883 0.47614
 C1039 C 0.68741 0.05424 0.62036
 C1040 C 0.71243 0.06775 0.62527
 C1041 C 0.72640 0.08446 0.60464
 C1042 C 0.74390 0.10569 0.61293
 C1043 C 0.75783 0.12151 0.59397
 C1044 C 0.75476 0.11615 0.56627
 C1045 C 0.73778 0.09452 0.55800
 C1046 C 0.72360 0.07890 0.57694
 C1047 C 0.76983 0.13190 0.54566
 C1048 C 0.77692 0.15922 0.54908
 H1049 H 0.72175 0.06669 0.64520
 H1050 H 0.74677 0.11007 0.63416
 H1051 H 0.77149 0.13743 0.60113
 H1052 H 0.73545 0.08973 0.53679
 H1053 H 0.71104 0.06212 0.56983
 H1054 H 0.77503 0.12168 0.52700
 H1055 H 0.67669 0.05692 0.60127
 H1056 H 0.77226 0.16931 0.56794
 C1057 C 0.92737 0.61730 0.30026
 C1058 C 0.91186 0.59423 0.30635
 C1059 C 0.89278 0.58091 0.28682
 C1060 C 0.88634 0.55337 0.29047
 C1061 C 0.86883 0.53986 0.27231
 C1062 C 0.85692 0.55382 0.25023
 C1063 C 0.86321 0.58144 0.24670
 C1064 C 0.88080 0.59493 0.26485
 C1065 C 0.83884 0.54013 0.23005
 C1066 C 0.82520 0.51565 0.23498
 H1067 H 0.91506 0.58453 0.32573
 H1068 H 0.89534 0.54209 0.30719
 H1069 H 0.86535 0.51839 0.27542
 H1070 H 0.85435 0.59267 0.22989
 H1071 H 0.88460 0.61635 0.26170
 H1072 H 0.83646 0.54959 0.21047
 H1073 H 0.92592 0.62635 0.28045
 H1074 H 0.82687 0.50628 0.25461
 C1075 C 0.96537 0.37500 0.69454
 C1076 C 0.95048 0.39911 0.69010
 C1077 C 0.93113 0.41067 0.71027
 C1078 C 0.92721 0.43898 0.71151
 C1079 C 0.90969 0.45057 0.73088
 C1080 C 0.89552 0.43394 0.74923
 C1081 C 0.89863 0.40559 0.74731
 C1082 C 0.91635 0.39402 0.72813
 C1083 C 0.87672 0.44540 0.76993
 C1084 C 0.88017 0.47133 0.78100
 H1085 H 0.95477 0.41096 0.67223
 H1086 H 0.93801 0.45218 0.69767
 H1087 H 0.90698 0.47246 0.73109
 H1088 H 0.88751 0.39235 0.76089
 H1089 H 0.91815 0.37206 0.72713
 H1090 H 0.85992 0.43271 0.77695
 H1091 H 0.96315 0.36426 0.71341
 H1092 H 0.89741 0.48367 0.77444
 C1093 C 0.06005 0.65354 0.71390
 C1094 C 0.07031 0.62802 0.70613
 C1095 C 0.09075 0.61226 0.72253
 C1096 C 0.10696 0.59188 0.71019
 C1097 C 0.12604 0.57629 0.72528
 C1098 C 0.12900 0.58065 0.75319
 C1099 C 0.11253 0.60085 0.76547
 C1100 C 0.09358 0.61639 0.75043
 C1101 C 0.14868 0.56496 0.77051
 C1102 C 0.16528 0.54299 0.76215
 H1103 H 0.06324 0.61929 0.68725
 H1104 H 0.10497 0.58811 0.68875
 H1105 H 0.13829 0.56106 0.71488
 H1106 H 0.11416 0.60454 0.78695
 H1107 H 0.08081 0.63117 0.76095
 H1108 H 0.14942 0.57055 0.79163
 H1109 H 0.06829 0.66347 0.73169
 H1110 H 0.16375 0.53534 0.74179
 C1111 C 0.05014 0.36926 0.29801
 C1112 C 0.05723 0.39658 0.30135
 C1113 C 0.07915 0.41002 0.28531
 C1114 C 0.07827 0.43841 0.28220
 C1115 C 0.09887 0.45179 0.26756
 C1116 C 0.12096 0.43696 0.25587
 C1117 C 0.12216 0.40866 0.25951
 C1118 C 0.10147 0.39527 0.27398
 C1119 C 0.14374 0.45035 0.24097
 C1120 C 0.14073 0.47559 0.22830
 H1121 H 0.04568 0.40885 0.31568
 H1122 H 0.06158 0.45030 0.29113
 H1123 H 0.09771 0.47373 0.26604
 H1124 H 0.13922 0.39683 0.25114
 H1125 H 0.10346 0.37350 0.27673
 H1126 H 0.16362 0.43977 0.23996
 H1127 H 0.05992 0.35724 0.28236
 H1128 H 0.12075 0.48597 0.22878
   
