data_POSCAR
  _audit_creation_date              2014-09-24
  _audit_creation_method            'ToBaCCo'
  _symmetry_space_group_name_H-M    'P1'
  _symmetry_Int_Tables_number       1
  _symmetry_cell_setting            triclinic
  loop_
  _symmetry_equiv_pos_as_xyz
 x,y,z
_cell_length_a 27.1011
_cell_length_b 27.1122
_cell_length_c 27.1269
_cell_angle_alpha 93.361700
_cell_angle_beta 86.023400
_cell_angle_gamma 94.424100
loop_
  _atom_site_label
  _atom_site_type_symbol
  _atom_site_fract_x
  _atom_site_fract_y
  _atom_site_fract_z
O1 O 0.56039 0.50667 0.04474
 O2 O 0.42537 0.50178 0.03356
 O3 O 0.48905 0.43676 0.04551
 O4 O 0.49673 0.57160 0.03272
 O5 O 0.50850 0.55970 -0.04847
 O6 O 0.50081 0.42488 -0.03569
 O7 O 0.43714 0.48990 -0.04762
 O8 O 0.57215 0.49478 -0.03645
 Cu9 Cu 0.49171 0.50537 0.04733
 Cu10 Cu 0.50581 0.49109 -0.05025
 C11 C 0.58904 0.50143 0.00608
 C12 C 0.40848 0.49527 -0.00898
 C13 C 0.49384 0.40808 0.00710
 C14 C 0.50374 0.58839 -0.01007
 O15 O -0.04619 0.56209 0.50769
 O16 O -0.03492 0.42725 0.50202
 O17 O -0.03424 0.49697 0.57199
 O18 O -0.04676 0.49252 0.43748
 O19 O 0.03462 0.50514 0.42487
 O20 O 0.04715 0.50960 0.55935
 O21 O 0.04645 0.43987 0.48941
 O22 O 0.03518 0.57473 0.49507
 Cu23 Cu -0.04874 0.49342 0.50600
 Cu24 Cu 0.04906 0.50857 0.49085
 C25 C -0.00745 0.59118 0.50226
 C26 C 0.00773 0.41082 0.49514
 C27 C 0.00861 0.50387 0.58835
 C28 C -0.00823 0.49839 0.40850
 O29 O 0.50538 0.03465 0.57253
 O30 O 0.50937 0.04490 0.43741
 O31 O 0.44019 0.04682 0.50872
 O32 O 0.57465 0.03321 0.50140
 O33 O 0.56063 -0.04807 0.49121
 O34 O 0.42611 -0.03446 0.49850
 O35 O 0.49534 -0.03638 0.42724
 O36 O 0.49131 -0.04661 0.56228
 Cu37 Cu 0.50881 0.04810 0.50600
 Cu38 Cu 0.49194 -0.04958 0.49376
 C39 C 0.49793 -0.00780 0.59020
 C40 C 0.50275 0.00604 0.40954
 C41 C 0.41047 0.00852 0.50466
 C42 C 0.59032 -0.00976 0.49545
 C43 C 0.50404 -0.04559 -0.10934
 C44 C 0.50740 -0.09464 -0.09739
 C45 C 0.50646 -0.10773 -0.04822
 C46 C 0.50348 -0.07056 -0.00946
 C47 C 0.50080 -0.02050 -0.02095
 C48 C 0.50084 -0.00796 -0.07104
 C49 C 0.49842 0.04193 -0.08149
 C50 C 0.49518 0.07864 -0.04362
 C51 C 0.49546 0.06717 0.00624
 C52 C 0.49820 0.01711 0.01773
 C53 C 0.50380 -0.08203 0.04040
 C54 C 0.50064 -0.04530 0.07828
 C55 C 0.49821 0.00458 0.06782
 C56 C 0.49505 0.04224 0.10611
 C57 C 0.49157 0.09125 0.09415
 C58 C 0.49239 0.10431 0.04500
 H59 H 0.49911 0.05322 -0.11913
 H60 H 0.49231 0.11619 -0.05397
 H61 H 0.50666 -0.11958 0.05075
 H62 H 0.50000 -0.05657 0.11592
 H63 H 0.50935 -0.12338 -0.12687
 H64 H 0.48961 0.12001 0.12362
 C65 C 0.04696 0.50080 0.89126
 C66 C 0.09604 0.49990 0.90378
 C67 C 0.10811 0.50027 0.95309
 C68 C 0.06995 0.50171 0.99144
 C69 C 0.01984 0.50185 0.97932
 C70 C 0.00827 0.50142 0.92907
 C71 C -0.04165 0.50126 0.91797
 C72 C -0.07938 0.50266 0.95540
 C73 C -0.06886 0.50316 1.00544
 C74 C -0.01877 0.50281 1.01756
 C75 C 0.08064 0.50425 1.04153
 C76 C 0.04288 0.50539 1.07895
 C77 C -0.00714 0.50396 1.06783
 C78 C -0.04579 0.50500 1.10567
 C79 C -0.09486 0.50616 1.09314
 C80 C -0.10698 0.50494 1.04380
 H81 H -0.05216 0.50008 0.88015
 H82 H -0.11694 0.50361 0.94455
 H83 H 0.11841 0.50596 1.05241
 H84 H 0.05347 0.50804 1.11679
 H85 H 0.12547 0.49915 0.87456
 H86 H -0.12431 0.50691 1.12233
 C87 C -0.04527 -0.10803 0.50607
 C88 C -0.09457 -0.09647 0.50499
 C89 C -0.10704 -0.04755 0.50313
 C90 C -0.06920 -0.00851 0.50307
 C91 C -0.01898 -0.01954 0.50426
 C92 C -0.00696 -0.06943 0.50608
 C93 C 0.04283 -0.07924 0.50944
 C94 C 0.08021 -0.04108 0.50972
 C95 C 0.06937 0.00849 0.50664
 C96 C 0.01924 0.01947 0.50456
 C97 C -0.08036 0.04131 0.50343
 C98 C -0.04297 0.07948 0.50370
 C99 C 0.00715 0.06943 0.50364
 C100 C 0.04544 0.10806 0.50428
 C101 C 0.09465 0.09654 0.50638
 C102 C 0.10719 0.04754 0.50714
 H103 H 0.05343 -0.11651 0.51265
 H104 H 0.11770 -0.05093 0.51315
 H105 H -0.11825 0.05145 0.50422
 H106 H -0.05394 0.11707 0.50470
 H107 H -0.12375 -0.12621 0.50473
 H108 H 0.12386 0.12625 0.50650
 C109 C -0.26193 0.50439 1.02064
 C110 C -0.23720 0.54600 1.04335
 C111 C -0.18653 0.54638 1.05023
 C112 C -0.35845 0.50271 1.01066
 C113 C -0.18502 0.46355 1.01148
 C114 C -0.23572 0.46321 1.00460
 C115 C -0.31440 0.50354 1.01492
 C116 C -0.16007 0.50524 1.03418
 H117 H -0.25716 0.57795 1.05611
 H118 H -0.16791 0.57861 1.06825
 H119 H -0.16527 0.43124 0.99956
 H120 H -0.25455 0.43072 0.98724
 C121 C 0.26271 0.49676 0.97626
 C122 C 0.24537 0.53745 0.95506
 C123 C 0.19489 0.53880 0.94817
 C124 C 0.35886 0.49484 0.98662
 C125 C 0.17869 0.45878 0.98391
 C126 C 0.22926 0.45747 0.99080
 C127 C 0.31492 0.49527 0.98225
 C128 C 0.16118 0.49957 0.96270
 H129 H 0.27093 0.56797 0.94354
 H130 H 0.18205 0.57033 0.93137
 H131 H 0.15324 0.42791 0.99468
 H132 H 0.24231 0.42571 1.00705
 C133 C -0.02188 -0.26277 0.50585
 C134 C -0.04835 -0.23981 0.54584
 C135 C -0.05531 -0.18922 0.54620
 C136 C -0.01182 -0.35920 0.50377
 C137 C -0.00909 -0.18423 0.46664
 C138 C -0.00214 -0.23485 0.46632
 C139 C -0.01611 -0.31519 0.50483
 C140 C -0.03559 -0.16105 0.50669
 H141 H -0.06399 -0.26109 0.57650
 H142 H -0.07625 -0.17202 0.57716
 H143 H 0.00571 -0.16320 0.43551
 H144 H 0.01815 -0.25229 0.43505
 C145 C 0.02271 0.26242 0.49814
 C146 C 0.01036 0.22933 0.45851
 C147 C 0.01708 0.17885 0.46067
 C148 C 0.01243 0.35843 0.49495
 C149 C 0.04829 0.19439 0.54219
 C150 C 0.04157 0.24478 0.54000
 C151 C 0.01681 0.31456 0.49588
 C152 C 0.03592 0.16103 0.50265
 H153 H -0.00406 0.24259 0.42586
 H154 H 0.00805 0.15372 0.42953
 H155 H 0.06329 0.18134 0.57464
 H156 H 0.05140 0.27005 0.57081
 C157 C 0.50023 -0.02193 -0.26394
 C158 C 0.54291 -0.03799 -0.24550
 C159 C 0.54435 -0.04497 -0.19499
 C160 C 0.49787 -0.01193 -0.36016
 C161 C 0.46045 -0.01958 -0.18102
 C162 C 0.45904 -0.01260 -0.23158
 C163 C 0.49857 -0.01613 -0.31621
 C164 C 0.50321 -0.03563 -0.16238
 H165 H 0.57491 -0.04552 -0.27022
 H166 H 0.57743 -0.05785 -0.18128
 H167 H 0.42812 -0.01295 -0.15645
 H168 H 0.42574 -0.00042 -0.24549
 C169 C 0.49978 0.01958 0.26081
 C170 C 0.45698 0.03553 0.24251
 C171 C 0.45520 0.04207 0.19195
 C172 C 0.50271 0.01028 0.35707
 C173 C 0.53896 0.01637 0.17764
 C174 C 0.54071 0.00984 0.22825
 C175 C 0.50179 0.01422 0.31311
 C176 C 0.49610 0.03239 0.15916
 H177 H 0.42517 0.04336 0.26737
 H178 H 0.42206 0.05495 0.17837
 H179 H 0.57113 0.00951 0.15292
 H180 H 0.57409 -0.00229 0.24205
 C181 C 0.50727 -0.26277 -0.02569
 C182 C 0.46596 -0.23703 -0.00887
 C183 C 0.46589 -0.18634 -0.01568
 C184 C 0.50568 -0.35918 -0.01522
 C185 C 0.54859 -0.18690 -0.05600
 C186 C 0.54861 -0.23761 -0.04919
 C187 C 0.50670 -0.31518 -0.01983
 C188 C 0.50732 -0.16092 -0.03907
 H189 H 0.43368 -0.25621 0.00909
 H190 H 0.43348 -0.16695 -0.00309
 H191 H 0.58061 -0.16789 -0.07456
 H192 H 0.58065 -0.25725 -0.06256
 C193 C 0.49082 0.25928 0.02258
 C194 C 0.44954 0.23390 0.04594
 C195 C 0.44982 0.18321 0.05270
 C196 C 0.49202 0.35567 0.01224
 C197 C 0.53263 0.18311 0.01259
 C198 C 0.53232 0.23378 0.00583
 C199 C 0.49116 0.31168 0.01679
 C200 C 0.49128 0.15747 0.03586
 H201 H 0.41737 0.25335 0.05925
 H202 H 0.41784 0.16402 0.07117
 H203 H 0.56519 0.16390 0.00008
 H204 H 0.56455 0.25315 -0.01202
 C205 C -0.26159 -0.02636 0.49705
 C206 C -0.22824 -0.01347 0.45730
 C207 C -0.17772 -0.01994 0.45934
 C208 C -0.35743 -0.01525 0.49465
 C209 C -0.19382 -0.05213 0.54090
 C210 C -0.24426 -0.04567 0.53883
 C211 C -0.31365 -0.02013 0.49517
 C212 C -0.16018 -0.03904 0.50132
 H213 H -0.24130 0.00134 0.42474
 H214 H -0.15230 -0.01031 0.42821
 H215 H -0.18092 -0.06730 0.57335
 H216 H -0.26976 -0.05587 0.56973
 C217 C 0.26204 0.02520 0.50772
 C218 C 0.23820 0.05064 0.54784
 C219 C 0.18761 0.05755 0.54781
 C220 C 0.35818 0.01404 0.50640
 C221 C 0.18451 0.01355 0.46750
 C222 C 0.23509 0.00664 0.46757
 C223 C 0.31431 0.01896 0.50725
 C224 C 0.16040 0.03880 0.50777
 H225 H 0.25876 0.06535 0.57897
 H226 H 0.16963 0.07749 0.57895
 H227 H 0.16417 -0.00052 0.43602
 H228 H 0.25325 -0.01284 0.43622
 C229 C -0.02389 0.50076 1.26031
 C230 C -0.04309 0.54210 1.24211
 C231 C -0.04966 0.54370 1.19161
 C232 C -0.01332 0.49828 1.35625
 C233 C -0.01770 0.46261 1.17724
 C234 C -0.01113 0.46105 1.22779
 C235 C -0.01792 0.49904 1.31244
 C236 C -0.03678 0.50408 1.15881
 H237 H -0.05322 0.57295 1.26699
 H238 H -0.06485 0.57574 1.17804
 H239 H -0.00829 0.43143 1.15250
 H240 H 0.00355 0.42881 1.24153
 C241 C 0.02457 0.50324 0.73661
 C242 C 0.04258 0.46163 0.75549
 C243 C 0.04937 0.46069 0.80600
 C244 C 0.01373 0.50446 0.64062
 C245 C 0.02004 0.54303 0.81905
 C246 C 0.01325 0.54393 0.76848
 C247 C 0.01842 0.50425 0.68446
 C248 C 0.03790 0.50127 0.83813
 H249 H 0.05162 0.43004 0.73112
 H250 H 0.06360 0.42840 0.82011
 H251 H 0.01168 0.57489 0.84330
 H252 H -0.00050 0.57639 0.75421
   
