data_POSCAR
  _audit_creation_date              2014-09-24
  _audit_creation_method            'ToBaCCo'
  _symmetry_space_group_name_H-M    'P1'
  _symmetry_Int_Tables_number       1
  _symmetry_cell_setting            triclinic
  loop_
  _symmetry_equiv_pos_as_xyz
 x,y,z
_cell_length_a 37.4851
_cell_length_b 37.5032
_cell_length_c 37.5446
_cell_angle_alpha 90.015200
_cell_angle_beta 90.024000
_cell_angle_gamma 90.006700
loop_
  _atom_site_label
  _atom_site_type_symbol
  _atom_site_fract_x
  _atom_site_fract_y
  _atom_site_fract_z
C1 C 0.18008 0.21363 0.23151
 C2 C 0.20324 0.18485 0.23713
 C3 C 0.23202 0.17918 0.21402
 C4 C 0.23763 0.20232 0.18526
 C5 C 0.21449 0.23110 0.17961
 C6 C 0.18572 0.23674 0.20275
 H7 H 0.19888 0.16695 0.25939
 H8 H 0.25991 0.19794 0.16736
 H9 H 0.16780 0.25902 0.19838
 C10 C 0.67980 0.71508 0.73185
 C11 C 0.70288 0.68620 0.73727
 C12 C 0.73159 0.68057 0.71407
 C13 C 0.73723 0.70384 0.68544
 C14 C 0.71417 0.73273 0.67999
 C15 C 0.68546 0.73834 0.70321
 H16 H 0.69850 0.66819 0.75944
 H17 H 0.75945 0.69949 0.66747
 H18 H 0.66759 0.76069 0.69900
 C19 C 0.31893 0.78627 0.73240
 C20 C 0.29571 0.81502 0.73788
 C21 C 0.26689 0.82052 0.71471
 C22 C 0.26135 0.79720 0.68604
 C23 C 0.28457 0.76844 0.68056
 C24 C 0.31335 0.76299 0.70375
 H25 H 0.30012 0.83301 0.76010
 H26 H 0.23909 0.80136 0.66802
 H27 H 0.33134 0.74074 0.69949
 C28 C 0.82081 0.28535 0.23214
 C29 C 0.81524 0.26219 0.20333
 C30 C 0.78644 0.26774 0.18018
 C31 C 0.76320 0.29644 0.18582
 C32 C 0.76872 0.31960 0.21458
 C33 C 0.79752 0.31406 0.23773
 H34 H 0.83320 0.23994 0.19890
 H35 H 0.74092 0.30073 0.16789
 H36 H 0.80173 0.33205 0.25998
 C37 C 0.82025 0.71479 0.26840
 C38 C 0.81467 0.73806 0.29706
 C39 C 0.78597 0.73249 0.32030
 C40 C 0.76286 0.70363 0.31487
 C41 C 0.76843 0.68035 0.28622
 C42 C 0.79713 0.68594 0.26299
 H43 H 0.83257 0.76039 0.30125
 H44 H 0.74064 0.69932 0.33286
 H45 H 0.80144 0.66792 0.24081
 C46 C 0.32103 0.21400 -0.23256
 C47 C 0.31537 0.23719 -0.20382
 C48 C 0.28653 0.23163 -0.18074
 C49 C 0.26334 0.20289 -0.18640
 C50 C 0.26895 0.17969 -0.21510
 C51 C 0.29778 0.18524 -0.23818
 H52 H 0.33329 0.25947 -0.19936
 H53 H 0.24102 0.19859 -0.16853
 H54 H 0.30207 0.16722 -0.26039
 C55 C 0.67925 0.28507 -0.23229
 C56 C 0.68494 0.26194 -0.20351
 C57 C 0.71379 0.26756 -0.18043
 C58 C 0.73696 0.29631 -0.18613
 C59 C 0.73132 0.31944 -0.21487
 C60 C 0.70248 0.31383 -0.23794
 H61 H 0.66704 0.23966 -0.19902
 H62 H 0.75929 0.30066 -0.16826
 H63 H 0.69817 0.33181 -0.26018
 C64 C 0.18060 0.78617 0.26813
 C65 C 0.20394 0.81482 0.26262
 C66 C 0.23268 0.82035 0.28589
 C67 C 0.23802 0.79715 0.31468
 C68 C 0.21468 0.76850 0.32019
 C69 C 0.18598 0.76302 0.29691
 H70 H 0.19969 0.83271 0.24030
 H71 H 0.26023 0.80133 0.33277
 H72 H 0.16791 0.74085 0.30118
 C73 C 0.46420 0.42981 0.48268
 C74 C 0.43542 0.45299 0.48819
 C75 C 0.42979 0.48170 0.46499
 C76 C 0.45298 0.48722 0.43626
 C77 C 0.48177 0.46406 0.43072
 C78 C 0.48737 0.43537 0.45394
 H79 H 0.41747 0.44870 0.51043
 H80 H 0.44863 0.50944 0.41828
 H81 H 0.50966 0.41743 0.44966
 C82 C -0.03604 -0.06911 0.98163
 C83 C -0.01292 -0.06359 0.95285
 C84 C -0.01853 -0.03490 0.92963
 C85 C -0.04729 -0.01171 0.93519
 C86 C -0.07047 -0.01719 0.96398
 C87 C -0.06481 -0.04592 0.98719
 H88 H 0.00934 -0.08155 0.94854
 H89 H -0.05158 0.01049 0.91715
 H90 H -0.08268 -0.05028 1.00950
 C91 C 1.03558 0.57009 0.98162
 C92 C 1.01237 0.56451 0.95289
 C93 C 1.01787 0.53572 0.92975
 C94 C 1.04661 0.51250 0.93535
 C95 C 1.06983 0.51805 0.96407
 C96 C 1.06430 0.54685 0.98720
 H97 H 0.99013 0.58250 0.94856
 H98 H 1.05088 0.49022 0.91743
 H99 H 1.08228 0.55116 1.00943
 C100 C 0.53617 0.06951 0.48245
 C101 C 0.56507 0.04647 0.48794
 C102 C 0.57077 0.01773 0.46474
 C103 C 0.54750 0.01209 0.43604
 C104 C 0.51860 0.03513 0.43055
 C105 C 0.51295 0.06383 0.45376
 H106 H 0.58302 0.05094 0.51019
 H107 H 0.55182 -0.01012 0.41801
 H108 H 0.49058 0.08168 0.44951
 C109 C -0.03638 0.07015 0.51771
 C110 C -0.01310 0.06447 0.54635
 C111 C -0.01863 0.03568 0.56947
 C112 C -0.04747 0.01256 0.56395
 C113 C -0.07080 0.01820 0.53530
 C114 C -0.06521 0.04703 0.51218
 H115 H 0.00922 0.08237 0.55063
 H116 H -0.05169 -0.00971 0.58191
 H117 H -0.08320 0.05150 0.48997
 C118 C 0.46448 0.57039 0.01841
 C119 C 0.48765 0.56480 0.04717
 C120 C 0.48213 0.53599 0.07026
 C121 C 0.45342 0.51275 0.06458
 C122 C 0.43024 0.51831 0.03584
 C123 C 0.43578 0.54713 0.01276
 H124 H 0.50987 0.58281 0.05156
 H125 H 0.44913 0.49044 0.08245
 H126 H 0.41783 0.55145 -0.00949
 C127 C 0.53577 -0.07084 0.01787
 C128 C 0.56457 -0.04763 0.01237
 C129 C 0.57027 -0.01901 0.03569
 C130 C 0.54718 -0.01360 0.06452
 C131 C 0.51840 -0.03676 0.07006
 C132 C 0.51269 -0.06538 0.04674
 H133 H 0.58250 -0.05176 -0.00993
 H134 H 0.55160 0.00856 0.08257
 H135 H 0.49037 -0.08328 0.05110
 C136 C 1.03588 0.43077 0.51729
 C137 C 1.01273 0.43625 0.54605
 C138 C 1.01830 0.46493 0.56931
 C139 C 1.04705 0.48815 0.56381
 C140 C 1.07026 0.48271 0.53503
 C141 C 1.06464 0.45398 0.51178
 H142 H 0.99048 0.41827 0.55032
 H143 H 1.05130 0.51034 0.58188
 H144 H 1.08254 0.44966 0.48948
 C145 C 0.42983 0.01559 0.20254
 H146 H 0.43124 0.03975 0.21824
 C147 C 0.45311 0.01065 0.17393
 H148 H 0.47247 0.03109 0.16744
 C149 C 0.40323 -0.04084 0.19204
 H150 H 0.38416 -0.06109 0.19949
 C151 C 0.42603 -0.04685 0.16324
 H152 H 0.42420 -0.07155 0.14837
 N153 N 0.40525 -0.00981 0.21077
 C154 C 0.32067 0.04688 0.26704
 H155 H 0.31923 0.03125 0.29121
 C156 C 0.29740 0.07551 0.26197
 H157 H 0.27802 0.08210 0.28233
 C158 C 0.34732 0.05714 0.21066
 H159 H 0.36638 0.04959 0.19048
 C160 C 0.32453 0.08597 0.20453
 H161 H 0.32637 0.10074 0.17980
 Zn162 Zn 0.37522 -0.00120 0.25040
 N163 N 0.34527 0.03852 0.24172
 C164 C 0.40314 0.03855 0.30873
 N165 N 0.40515 0.00744 0.29012
 C166 C 0.42970 -0.01794 0.29849
 C167 C 0.45298 -0.01290 0.32710
 C168 C 0.42594 0.04467 0.33753
 C169 C 0.32068 -0.04922 0.23355
 C170 C 0.29734 -0.07780 0.23853
 C171 C 0.32431 -0.08836 0.29605
 C172 C 0.34717 -0.05957 0.29001
 N173 N 0.34523 -0.04091 0.25896
 H174 H 0.38411 0.05879 0.30117
 H175 H 0.43111 -0.04215 0.28288
 H176 H 0.47234 -0.03331 0.33369
 H177 H 0.42415 0.06944 0.35228
 H178 H 0.31932 -0.03356 0.20939
 H179 H 0.27798 -0.08434 0.21811
 H180 H 0.32605 -0.10314 0.32078
 H181 H 0.36620 -0.05206 0.31026
 C182 C 0.29943 0.09527 0.23046
 C183 C 0.45111 -0.02082 0.15406
 C184 C 0.29924 -0.09758 0.27004
 C185 C 0.45101 0.01867 0.34683
 C186 C 0.07045 -0.01717 0.70147
 H187 H 0.06898 -0.04129 0.71721
 C188 C 0.04712 -0.01218 0.67290
 H189 H 0.02766 -0.03255 0.66645
 C190 C 0.09720 0.03917 0.69092
 H191 H 0.11631 0.05938 0.69836
 C192 C 0.07435 0.04523 0.66215
 H193 H 0.07620 0.06993 0.64730
 N194 N 0.09511 0.00817 0.70968
 C195 C 0.17940 -0.04845 0.76650
 H196 H 0.18083 -0.03265 0.79058
 C197 C 0.20264 -0.07714 0.76167
 H198 H 0.22199 -0.08361 0.78211
 C199 C 0.15284 -0.05906 0.71012
 H200 H 0.13382 -0.05160 0.68985
 C201 C 0.17560 -0.08796 0.70422
 H202 H 0.17379 -0.10288 0.67958
 Zn203 Zn 0.12503 -0.00034 0.74942
 N204 N 0.15487 -0.04022 0.74107
 C205 C 0.09687 -0.03956 0.80796
 N206 N 0.09500 -0.00860 0.78911
 C207 C 0.07051 0.01693 0.79721
 C208 C 0.04716 0.01220 0.82580
 C209 C 0.07401 -0.04536 0.83675
 C210 C 0.17976 0.04741 0.73246
 C211 C 0.20316 0.07598 0.73735
 C212 C 0.17612 0.08690 0.79475
 C213 C 0.15321 0.05813 0.78880
 N214 N 0.15515 0.03931 0.75785
 H215 H 0.11586 -0.05991 0.80061
 H216 H 0.06921 0.04101 0.78141
 H217 H 0.02786 0.03273 0.83218
 H218 H 0.07571 -0.07001 0.85170
 H219 H 0.18112 0.03163 0.70838
 H220 H 0.22256 0.08236 0.71694
 H221 H 0.17437 0.10183 0.81940
 H222 H 0.13413 0.05078 0.80904
 C223 C 0.20065 -0.09710 0.73027
 C224 C 0.04916 0.01928 0.65303
 C225 C 0.20124 0.09593 0.76875
 C226 C 0.04901 -0.01920 0.84578
 C227 C 0.57071 0.48308 0.20255
 H228 H 0.56925 0.45889 0.21817
 C229 C 0.54747 0.48812 0.17390
 H230 H 0.52809 0.46772 0.16731
 C231 C 0.59736 0.53953 0.19229
 H232 H 0.61641 0.55975 0.19986
 C233 C 0.57461 0.54564 0.16346
 H234 H 0.57646 0.57038 0.14869
 N235 N 0.59529 0.50844 0.21092
 C236 C 0.67970 0.45172 0.26743
 H237 H 0.68110 0.46737 0.29160
 C238 C 0.70301 0.42310 0.26243
 H239 H 0.72237 0.41655 0.28283
 C240 C 0.65317 0.44139 0.21099
 H241 H 0.63414 0.44893 0.19075
 C242 C 0.67599 0.41258 0.20492
 H243 H 0.67421 0.39780 0.18018
 Zn244 Zn 0.62521 0.49979 0.25063
 N245 N 0.65515 0.46004 0.24205
 C246 C 0.59717 0.46017 0.30895
 N247 N 0.59520 0.49123 0.29028
 C248 C 0.57065 0.51665 0.29854
 C249 C 0.54734 0.51169 0.32712
 C250 C 0.57434 0.45414 0.33773
 C251 C 0.67982 0.54772 0.23390
 C252 C 0.70310 0.57637 0.23886
 C253 C 0.67598 0.58709 0.29626
 C254 C 0.65318 0.55823 0.29024
 N255 N 0.65522 0.53948 0.25925
 H256 H 0.61620 0.43991 0.30147
 H257 H 0.56927 0.54082 0.28288
 H258 H 0.52799 0.53213 0.33364
 H259 H 0.57612 0.42941 0.35253
 H260 H 0.68125 0.53200 0.20978
 H261 H 0.72248 0.58288 0.21847
 H262 H 0.67414 0.60197 0.32093
 H263 H 0.63411 0.55077 0.31044
 C264 C 0.70106 0.40333 0.23091
 C265 C 0.54952 0.51965 0.15415
 C266 C 0.70107 0.59627 0.27029
 C267 C 0.54929 0.48018 0.34693
 C268 C 0.92927 0.51693 0.70165
 H269 H 0.93062 0.54103 0.71744
 C270 C 0.95263 0.51211 0.67309
 H271 H 0.97198 0.53259 0.66670
 C272 C 0.90277 0.46049 0.69093
 H273 H 0.88373 0.44019 0.69827
 C274 C 0.92565 0.45460 0.66215
 H275 H 0.92390 0.42994 0.64722
 N276 N 0.90471 0.49146 0.70975
 C277 C 0.82003 0.54778 0.76623
 H278 H 0.81859 0.53201 0.79032
 C279 C 0.79677 0.57645 0.76133
 H280 H 0.77739 0.58292 0.78172
 C281 C 0.84670 0.55839 0.70993
 H282 H 0.86579 0.55096 0.68972
 C283 C 0.82393 0.58725 0.70396
 H284 H 0.82579 0.60218 0.67933
 Zn285 Zn 0.87465 0.49988 0.74940
 N286 N 0.84464 0.53958 0.74088
 C287 C 0.90249 0.53946 0.80788
 N288 N 0.90456 0.50843 0.78915
 C289 C 0.92915 0.48305 0.79742
 C290 C 0.95241 0.48803 0.82606
 C291 C 0.92527 0.54550 0.83672
 C292 C 0.82022 0.45175 0.73241
 C293 C 0.79693 0.42310 0.73734
 C294 C 0.82390 0.41254 0.79486
 C295 C 0.84670 0.44138 0.78886
 N296 N 0.84474 0.46008 0.75783
 H297 H 0.88343 0.55969 0.80039
 H298 H 0.93061 0.45891 0.78172
 H299 H 0.97180 0.46762 0.83258
 H300 H 0.92342 0.57021 0.85156
 H301 H 0.81883 0.46744 0.70827
 H302 H 0.77759 0.41656 0.71690
 H303 H 0.82567 0.39773 0.81957
 H304 H 0.86570 0.44891 0.80913
 C305 C 0.79882 0.59640 0.72994
 C306 C 0.95072 0.48069 0.65312
 C307 C 0.79887 0.40329 0.76882
 C308 C 0.95037 0.51951 0.84592
 C309 C 0.20213 0.42901 0.01658
 H310 H 0.21785 0.43036 0.04072
 C311 C 0.17350 0.45232 0.01167
 H312 H 0.16699 0.47163 0.03212
 C313 C 0.19167 0.40257 -0.03988
 H314 H 0.19915 0.38358 -0.06015
 C315 C 0.16283 0.42540 -0.04586
 H316 H 0.14799 0.42366 -0.07056
 N317 N 0.21040 0.40451 -0.00886
 C318 C 0.26714 0.32001 0.04746
 H319 H 0.29132 0.31867 0.03179
 C320 C 0.26221 0.29667 0.07602
 H321 H 0.28268 0.27735 0.08251
 C322 C 0.21061 0.34644 0.05790
 H323 H 0.19032 0.36545 0.05044
 C324 C 0.20461 0.32359 0.08665
 H325 H 0.17987 0.32532 0.10147
 Zn326 Zn 0.25019 0.37459 -0.00038
 N327 N 0.24168 0.34453 0.03922
 C328 C 0.30861 0.40258 0.03927
 N329 N 0.28987 0.40461 0.00826
 C330 C 0.29807 0.42925 -0.01705
 C331 C 0.32665 0.45260 -0.01203
 C332 C 0.33739 0.42545 0.04536
 C333 C 0.23346 0.32018 -0.04853
 C334 C 0.23852 0.29696 -0.07718
 C335 C 0.29604 0.32412 -0.08761
 C336 C 0.28992 0.34685 -0.05877
 N337 N 0.25883 0.34476 -0.04015
 H338 H 0.30118 0.38347 0.05945
 H339 H 0.28235 0.43067 -0.04118
 H340 H 0.33311 0.47203 -0.03238
 H341 H 0.35225 0.42364 0.07005
 H342 H 0.20926 0.31869 -0.03290
 H343 H 0.21812 0.27758 -0.08378
 H344 H 0.32080 0.32599 -0.10237
 H345 H 0.31014 0.36590 -0.05119
 C346 C 0.23069 0.29856 0.09583
 C347 C 0.15364 0.45042 -0.01980
 C348 C 0.27006 0.29903 -0.09692
 C349 C 0.34652 0.45061 0.01943
 C350 C 0.70257 0.06993 -0.01691
 H351 H 0.71823 0.06856 -0.04107
 C352 C 0.67397 0.04660 -0.01192
 H353 H 0.66744 0.02724 -0.03233
 C354 C 0.69218 0.09648 0.03950
 H355 H 0.69967 0.11553 0.05972
 C356 C 0.66338 0.07362 0.04556
 H357 H 0.64857 0.07540 0.07027
 N358 N 0.71085 0.09451 0.00846
 C359 C 0.76706 0.17912 -0.04821
 H360 H 0.79129 0.18060 -0.03261
 C361 C 0.76194 0.20235 -0.07683
 H362 H 0.78232 0.22174 -0.08343
 C363 C 0.71060 0.15241 -0.05843
 H364 H 0.69041 0.13334 -0.05087
 C365 C 0.70442 0.17516 -0.08724
 H366 H 0.67963 0.17328 -0.10198
 Zn367 Zn 0.75050 0.12457 -0.00017
 N368 N 0.74173 0.15451 -0.03984
 C369 C 0.80894 0.09676 -0.03990
 N370 N 0.79030 0.09471 -0.00884
 C371 C 0.79871 0.07017 0.01651
 C372 C 0.82738 0.04694 0.01147
 C373 C 0.83781 0.07401 -0.04600
 C374 C 0.73367 0.17903 0.04788
 C375 C 0.73866 0.20229 0.07651
 C376 C 0.79630 0.17538 0.08695
 C377 C 0.79024 0.15260 0.05813
 N378 N 0.75912 0.15454 0.03952
 H379 H 0.80135 0.11578 -0.06010
 H380 H 0.78307 0.06873 0.04068
 H381 H 0.83400 0.02760 0.03186
 H382 H 0.85258 0.07584 -0.07073
 H383 H 0.70944 0.18039 0.03227
 H384 H 0.71819 0.22157 0.08311
 H385 H 0.82108 0.17362 0.10172
 H386 H 0.81053 0.13362 0.05057
 C387 C 0.73036 0.20027 -0.09655
 C388 C 0.65416 0.04854 0.01957
 C389 C 0.77023 0.20036 0.09626
 C390 C 0.84715 0.04896 -0.02004
 C391 C 0.20118 0.57046 0.48323
 H392 H 0.21697 0.56910 0.45915
 C393 C 0.17253 0.54715 0.48804
 H394 H 0.16608 0.52783 0.46758
 C395 C 0.19056 0.59690 0.53965
 H396 H 0.19800 0.61590 0.55995
 C397 C 0.16171 0.57408 0.54552
 H398 H 0.14679 0.57582 0.57017
 N399 N 0.20939 0.59497 0.50870
 C400 C 0.26634 0.67953 0.45269
 H401 H 0.29042 0.68089 0.46854
 C402 C 0.26158 0.70287 0.42411
 H403 H 0.28208 0.72223 0.41778
 C404 C 0.20992 0.65301 0.44181
 H405 H 0.18961 0.63396 0.44911
 C406 C 0.20409 0.67588 0.41302
 H407 H 0.17946 0.67411 0.39801
 Zn408 Zn 0.24920 0.62492 0.50039
 N409 N 0.24086 0.65497 0.46073
 C410 C 0.30779 0.59701 0.46101
 N411 N 0.28898 0.59497 0.49196
 C412 C 0.29719 0.57038 0.51733
 C413 C 0.32585 0.54711 0.51243
 C414 C 0.33666 0.57422 0.45505
 C415 C 0.23217 0.67938 0.54836
 C416 C 0.23705 0.70268 0.57697
 C417 C 0.29456 0.67564 0.58780
 C418 C 0.28861 0.65282 0.55898
 N419 N 0.25761 0.65482 0.54018
 H420 H 0.30035 0.61607 0.44079
 H421 H 0.28141 0.56894 0.54141
 H422 H 0.33232 0.52773 0.53283
 H423 H 0.35157 0.57606 0.43041
 H424 H 0.20805 0.68079 0.53258
 H425 H 0.21661 0.72205 0.58339
 H426 H 0.31926 0.67385 0.60270
 H427 H 0.30890 0.63378 0.55157
 C428 C 0.23021 0.70095 0.40406
 C429 C 0.15258 0.54905 0.51945
 C430 C 0.26851 0.70072 0.59689
 C431 C 0.34580 0.54913 0.48104
 C432 C 0.70204 0.93075 0.51688
 H433 H 0.71776 0.93221 0.54101
 C434 C 0.67333 0.95395 0.51193
 H435 H 0.66677 0.97330 0.53233
 C436 C 0.69161 0.90411 0.46051
 H437 H 0.69913 0.88507 0.44030
 C438 C 0.66270 0.92682 0.45449
 H439 H 0.64783 0.92496 0.42981
 N440 N 0.71035 0.90618 0.49152
 C441 C 0.76703 0.82181 0.54808
 H442 H 0.79121 0.82043 0.53242
 C443 C 0.76205 0.79849 0.57664
 H444 H 0.78249 0.77914 0.58315
 C445 C 0.71053 0.84832 0.55846
 H446 H 0.69026 0.86734 0.55097
 C447 C 0.70448 0.82549 0.58723
 H448 H 0.67973 0.82725 0.60201
 Zn449 Zn 0.75014 0.87628 0.50010
 N450 N 0.74160 0.84635 0.53980
 C451 C 0.80864 0.90429 0.53961
 N452 N 0.78988 0.90626 0.50861
 C453 C 0.79814 0.93079 0.48320
 C454 C 0.82681 0.95406 0.48812
 C455 C 0.83751 0.92709 0.54559
 C456 C 0.73328 0.82167 0.45224
 C457 C 0.73825 0.79831 0.42370
 C458 C 0.79578 0.82537 0.41300
 C459 C 0.78974 0.84825 0.44175
 N460 N 0.75869 0.84627 0.46045
 H461 H 0.80116 0.88528 0.55986
 H462 H 0.78241 0.93216 0.45908
 H463 H 0.83333 0.97338 0.46768
 H464 H 0.85239 0.92530 0.57027
 H465 H 0.70912 0.82029 0.46793
 H466 H 0.71782 0.77892 0.41724
 H467 H 0.82050 0.82714 0.39818
 H468 H 0.81000 0.86731 0.44919
 C469 C 0.73052 0.80043 0.59642
 C470 C 0.65344 0.95188 0.48048
 C471 C 0.76975 0.80026 0.40387
 C472 C 0.84671 0.95211 0.51956
 C473 C 0.01635 0.20245 0.42897
 H474 H 0.04053 0.21813 0.43036
 C475 C 0.01135 0.17387 0.45229
 H476 H 0.03177 0.16738 0.47165
 C477 C -0.04012 0.19197 0.40240
 H478 H -0.06036 0.19941 0.38334
 C479 C -0.04619 0.16319 0.42523
 H480 H -0.07092 0.14836 0.42343
 N481 N -0.00905 0.21067 0.40439
 C482 C 0.04770 0.26681 0.31988
 H483 H 0.03205 0.29100 0.31837
 C484 C 0.07636 0.26170 0.29667
 H485 H 0.08294 0.28204 0.27727
 C486 C 0.05801 0.21044 0.34662
 H487 H 0.05045 0.19027 0.36569
 C488 C 0.08686 0.20426 0.32390
 H489 H 0.10165 0.17952 0.32580
 Zn490 Zn -0.00040 0.25027 0.37433
 N491 N 0.03935 0.24151 0.34449
 C492 C 0.03936 0.30871 0.40210
 N493 N 0.00823 0.29011 0.40411
 C494 C -0.01718 0.29855 0.42858
 C495 C -0.01213 0.32722 0.45178
 C496 C 0.04548 0.33759 0.42482
 C497 C -0.04838 0.23325 0.31986
 C498 C -0.07700 0.23814 0.29654
 C499 C -0.08766 0.29576 0.32334
 C500 C -0.05884 0.28981 0.34619
 N501 N -0.04012 0.25875 0.34432
 H502 H 0.05961 0.30110 0.38314
 H503 H -0.04141 0.28293 0.43001
 H504 H -0.03256 0.33386 0.47108
 H505 H 0.07027 0.35232 0.42302
 H506 H -0.03268 0.20908 0.31857
 H507 H -0.08351 0.21764 0.27727
 H508 H -0.10250 0.32048 0.32504
 H509 H -0.05136 0.31012 0.36515
 C510 C 0.09615 0.23017 0.29878
 C511 C -0.02017 0.15403 0.45032
 C512 C -0.09685 0.26964 0.29838
 C513 C 0.01946 0.34695 0.44980
 C514 C -0.01679 0.70261 0.07030
 H515 H -0.04095 0.71832 0.06893
 C516 C -0.01190 0.67395 0.04704
 H517 H -0.03239 0.66744 0.02775
 C518 C 0.03974 0.69213 0.09673
 H519 H 0.06005 0.69961 0.11572
 C520 C 0.04570 0.66328 0.07396
 H521 H 0.07042 0.64842 0.07572
 N522 N 0.00869 0.71087 0.09478
 C523 C -0.04765 0.76746 0.17930
 H524 H -0.03193 0.79161 0.18067
 C525 C -0.07621 0.76249 0.20264
 H526 H -0.08267 0.78292 0.22201
 C527 C -0.05819 0.71101 0.15277
 H528 H -0.05076 0.69076 0.13373
 C529 C -0.08696 0.70497 0.17563
 H530 H -0.10182 0.68025 0.17387
 Zn531 Zn 0.00022 0.75060 0.12474
 N532 N -0.03946 0.74205 0.15474
 C533 C -0.03948 0.80903 0.09692
 N534 N -0.00840 0.79035 0.09487
 C535 C 0.01697 0.79866 0.07030
 C536 C 0.01192 0.82729 0.04706
 C537 C -0.04558 0.83786 0.07417
 C538 C 0.04828 0.73370 0.17914
 C539 C 0.07692 0.73863 0.20242
 C540 C 0.08764 0.79614 0.17543
 C541 C 0.05880 0.79014 0.15263
 N542 N 0.04003 0.75912 0.15461
 H543 H -0.05970 0.80151 0.11596
 H544 H 0.04115 0.78299 0.06885
 H545 H 0.03232 0.83384 0.02770
 H546 H -0.07033 0.85266 0.07600
 H547 H 0.03253 0.70956 0.18053
 H548 H 0.08340 0.71820 0.22176
 H549 H 0.10252 0.82084 0.17366
 H550 H 0.05133 0.81040 0.13361
 C551 C -0.09608 0.73099 0.20071
 C552 C 0.01959 0.65407 0.04897
 C553 C 0.09681 0.77011 0.20047
 C554 C -0.01961 0.84710 0.04909
 C555 C 0.48332 0.20167 0.57141
 H556 H 0.45915 0.21738 0.57001
 C557 C 0.48830 0.17309 0.54808
 H558 H 0.46787 0.16661 0.52871
 C559 C 0.53979 0.19118 0.59797
 H560 H 0.56004 0.19863 0.61702
 C561 C 0.54583 0.16239 0.57513
 H562 H 0.57056 0.14756 0.57692
 N563 N 0.50873 0.20990 0.59598
 C564 C 0.45208 0.26638 0.68038
 H565 H 0.46778 0.29054 0.68184
 C566 C 0.42339 0.26138 0.70358
 H567 H 0.41684 0.28180 0.72292
 C568 C 0.44168 0.20994 0.65376
 H569 H 0.44920 0.18971 0.63474
 C570 C 0.41280 0.20388 0.67648
 H571 H 0.39796 0.17916 0.67462
 Zn572 Zn 0.50016 0.24959 0.62596
 N573 N 0.46040 0.24099 0.65583
 C574 C 0.46052 0.30804 0.59804
 N575 N 0.49160 0.28935 0.59606
 C576 C 0.51701 0.29763 0.57154
 C577 C 0.51203 0.32624 0.54827
 C578 C 0.45447 0.33685 0.57525
 C579 C 0.54821 0.23271 0.68042
 C580 C 0.57688 0.23766 0.70367
 C581 C 0.58750 0.29520 0.67671
 C582 C 0.55864 0.28919 0.65394
 N583 N 0.53992 0.25814 0.65591
 H584 H 0.44027 0.30054 0.61705
 H585 H 0.54119 0.28194 0.57015
 H586 H 0.53246 0.33276 0.52894
 H587 H 0.42973 0.35167 0.57703
 H588 H 0.53251 0.20855 0.68180
 H589 H 0.58342 0.21722 0.72298
 H590 H 0.60235 0.31993 0.67492
 H591 H 0.55113 0.30945 0.63494
 C592 C 0.40354 0.22988 0.70152
 C593 C 0.51981 0.15324 0.55004
 C594 C 0.59674 0.26916 0.70171
 C595 C 0.48050 0.34606 0.55022
 C596 C 0.51676 0.70295 0.92978
 H597 H 0.54090 0.71870 0.93114
 C598 C 0.51190 0.67430 0.95304
 H599 H 0.53240 0.66782 0.97233
 C600 C 0.46024 0.69239 0.90335
 H601 H 0.43992 0.69983 0.88437
 C602 C 0.45431 0.66354 0.92612
 H603 H 0.42961 0.64865 0.92436
 N604 N 0.49127 0.71117 0.90529
 C605 C 0.54761 0.76781 0.82083
 H606 H 0.53190 0.79197 0.81947
 C607 C 0.57620 0.76285 0.79751
 H608 H 0.58268 0.78328 0.77818
 C609 C 0.55811 0.71134 0.84731
 H610 H 0.55065 0.69108 0.86632
 C611 C 0.58690 0.70532 0.82447
 H612 H 0.60174 0.68059 0.82622
 Zn613 Zn 0.49970 0.75091 0.87536
 N614 N 0.53938 0.74239 0.84536
 C615 C 0.53936 0.80935 0.90329
 N616 N 0.50829 0.79064 0.90529
 C617 C 0.48293 0.79887 0.92989
 C618 C 0.48798 0.82743 0.95324
 C619 C 0.54548 0.83810 0.92615
 C620 C 0.45160 0.73398 0.82098
 C621 C 0.42290 0.73888 0.79776
 C622 C 0.41216 0.79636 0.82482
 C623 C 0.44106 0.79040 0.84756
 N624 N 0.45986 0.75940 0.84552
 H625 H 0.55958 0.80189 0.88422
 H626 H 0.45876 0.78317 0.93130
 H627 H 0.46760 0.83389 0.97265
 H628 H 0.57022 0.85292 0.92436
 H629 H 0.46736 0.70986 0.81954
 H630 H 0.41640 0.71844 0.77842
 H631 H 0.39726 0.82105 0.82666
 H632 H 0.44854 0.81066 0.86659
 C633 C 0.59605 0.73135 0.79943
 C634 C 0.48043 0.65439 0.95111
 C635 C 0.40297 0.77033 0.79978
 C636 C 0.51951 0.84724 0.95128
 C637 C 0.15052 0.21944 0.25524
 C638 C 0.12573 0.22432 0.27510
 C639 C 0.65029 0.72084 0.75567
 C640 C 0.62557 0.72564 0.77562
 C641 C 0.34853 0.78066 0.75617
 C642 C 0.37334 0.77596 0.77606
 C643 C -0.15119 0.27998 0.25464
 C644 C -0.12641 0.27526 0.27458
 C645 C -0.15027 0.72050 0.24453
 C646 C -0.12557 0.72528 0.22455
 C647 C 0.34908 0.21938 0.74502
 C648 C 0.37391 0.22416 0.72518
 C649 C 0.65119 0.27964 0.74528
 C650 C 0.62636 0.27485 0.72542
 C651 C 0.15109 0.78052 0.24426
 C652 C 0.12635 0.77578 0.22428
 C653 C 0.25579 0.14961 0.21979
 C654 C 0.27569 0.12484 0.22465
 C655 C 0.75528 0.65090 0.71965
 C656 C 0.77513 0.62605 0.72433
 C657 C 0.75513 0.34899 0.77934
 C658 C 0.77507 0.37374 0.77452
 C659 C 0.25535 -0.15177 0.28053
 C660 C 0.27538 -0.12708 0.27576
 C661 C 0.24435 -0.15149 0.72001
 C662 C 0.22441 -0.12670 0.72469
 C663 C 0.74485 0.34909 0.22032
 C664 C 0.72488 0.37381 0.22515
 C665 C 0.74468 0.65072 0.28064
 C666 C 0.72480 0.62590 0.27594
 C667 C 0.24511 0.15017 0.77915
 C668 C 0.22512 0.12544 0.77439
 C669 C 0.22024 0.25485 0.15008
 C670 C 0.22502 0.27477 0.12534
 C671 C 0.71995 0.75660 0.65056
 C672 C 0.72477 0.77659 0.62589
 C673 C 0.78025 0.75639 0.34974
 C674 C 0.77547 0.77640 0.37441
 C675 C 0.28074 0.25542 -0.15122
 C676 C 0.27588 0.27531 -0.12648
 C677 C 0.71961 0.24383 -0.15088
 C678 C 0.72451 0.22397 -0.12612
 C679 C 0.22016 0.74470 0.34976
 C680 C 0.22473 0.72476 0.37452
 C681 C 0.27890 0.74455 0.65110
 C682 C 0.27416 0.72456 0.62640
 C683 C 0.78074 0.24397 0.15062
 C684 C 0.77595 0.22408 0.12584
 C685 C 0.46995 0.40031 0.50650
 C686 C 0.47476 0.37559 0.52644
 C687 C -0.03026 0.90138 0.00543
 C688 C -0.02541 0.87664 0.02535
 C689 C 0.02993 0.59967 0.00537
 C690 C 0.02521 0.62447 0.02525
 C691 C 0.53037 0.09902 0.50627
 C692 C 0.52554 0.12374 0.52622
 C693 C -0.03067 0.09973 0.49397
 C694 C -0.02589 0.12449 0.47408
 C695 C 0.47013 0.60000 0.99471
 C696 C 0.47484 0.62480 0.97484
 C697 C 0.53023 0.90133 0.99521
 C698 C 0.52534 0.87668 0.97517
 C699 C 0.03013 0.40126 0.49345
 C700 C 0.02528 0.37652 0.47353
 C701 C 0.40020 0.50547 0.47065
 C702 C 0.37540 0.52538 0.47539
 C703 C 0.90154 0.00533 -0.03062
 C704 C 0.87675 0.02524 -0.02581
 C705 C 0.59983 0.00481 0.03003
 C706 C 0.62460 0.02475 0.02527
 C707 C 0.09824 0.50527 0.52971
 C708 C 0.12301 0.52523 0.52502
 C709 C 0.09936 0.49421 -0.03022
 C710 C 0.12410 0.47424 -0.02547
 C711 C 0.59888 0.99534 0.47007
 C712 C 0.62376 0.97553 0.47481
 C713 C 0.90116 0.99573 0.52993
 C714 C 0.87634 0.97584 0.52519
 C715 C 0.40074 0.49444 0.03004
 C716 C 0.37603 0.47445 0.02519
 C717 C 0.50557 0.46974 0.40119
 C718 C 0.52550 0.47449 0.37645
 C719 C 0.00524 -0.02930 0.90007
 C720 C 0.02519 -0.02467 0.87532
 C721 C 0.00528 0.02989 0.59890
 C722 C 0.02529 0.02505 0.62357
 C723 C 0.50591 0.53026 0.09981
 C724 C 0.52580 0.52543 0.12458
 C725 C 0.49469 -0.03116 0.09967
 C726 C 0.47482 -0.02646 0.12447
 C727 C 0.99450 0.47050 0.59886
 C728 C 0.97455 0.47515 0.62360
 C729 C 0.99406 0.53002 0.90022
 C730 C 0.97413 0.52523 0.87547
 C731 C 0.49476 0.02934 0.40106
 C732 C 0.47480 0.02447 0.37634
   
