data_POSCAR
  _audit_creation_date              2014-09-24
  _audit_creation_method            'ToBaCCo'
  _symmetry_space_group_name_H-M    'P1'
  _symmetry_Int_Tables_number       1
  _symmetry_cell_setting            triclinic
  loop_
  _symmetry_equiv_pos_as_xyz
 x,y,z
_cell_length_a 45.3581
_cell_length_b 47.1626
_cell_length_c 47.2698
_cell_angle_alpha 89.962400
_cell_angle_beta 90.299400
_cell_angle_gamma 89.256800
loop_
  _atom_site_label
  _atom_site_type_symbol
  _atom_site_fract_x
  _atom_site_fract_y
  _atom_site_fract_z
N1 N 0.13503 0.15891 0.21831
 N2 N 0.14345 0.13413 0.20825
 C3 C 0.13544 0.11362 0.22635
 C4 C 0.12143 0.12619 0.24908
 C5 C 0.12154 0.15504 0.24334
 H6 H 0.13973 0.09121 0.22333
 H7 H 0.11204 0.17190 0.25597
 Cu8 Cu 0.16492 0.13063 0.17296
 Cu9 Cu 0.14027 0.19389 0.19695
 Cu10 Cu 0.18675 0.18970 0.13941
 N11 N 0.19681 0.12979 0.14568
 N12 N 0.20606 0.15301 0.13335
 C13 C 0.22950 0.14657 0.11708
 C14 C 0.23512 0.11765 0.11932
 C15 C 0.21382 0.10771 0.13747
 H16 H 0.24147 0.16185 0.10471
 H17 H 0.21146 0.08614 0.14488
 N18 N 0.16502 0.22470 0.14957
 N19 N 0.14809 0.22659 0.17214
 C20 C 0.13553 0.25263 0.17291
 C21 C 0.14463 0.26764 0.14951
 C22 C 0.16340 0.24935 0.13519
 H23 H 0.11969 0.25971 0.18848
 H24 H 0.17452 0.25343 0.11545
 H25 H 0.14713 0.17681 0.15709
 H26 H 0.18001 0.17894 0.18129
 N27 N -0.13293 0.83600 0.22388
 N28 N -0.15344 0.85591 0.22462
 C29 C -0.15325 0.86819 0.25031
 C30 C -0.13143 0.85509 0.26646
 C31 C -0.11904 0.83475 0.24907
 H32 H -0.16771 0.88544 0.25662
 H33 H -0.10074 0.82066 0.25407
 Cu34 Cu -0.17750 0.86452 0.19147
 Cu35 Cu -0.12480 0.81480 0.18951
 Cu36 Cu -0.18669 0.80998 0.14651
 N37 N -0.20555 0.86671 0.16043
 N38 N -0.21017 0.84501 0.14358
 C39 C -0.23231 0.85167 0.12552
 C40 C -0.24160 0.87925 0.13121
 C41 C -0.22404 0.88811 0.15335
 H42 H -0.24061 0.83760 0.10936
 H43 H -0.22521 0.90838 0.16401
 N44 N -0.15305 0.78272 0.14489
 N45 N -0.12888 0.78594 0.16018
 C46 C -0.10884 0.76613 0.15285
 C47 C -0.12097 0.74931 0.13219
 C48 C -0.14908 0.76028 0.12753
 H49 H -0.08702 0.76398 0.16201
 H50 H -0.16491 0.75320 0.11197
 H51 H -0.15172 0.83387 0.15786
 H52 H -0.16912 0.81347 0.18708
 N53 N -0.13362 0.16023 -0.21464
 N54 N -0.15248 0.13928 -0.21401
 C55 C -0.14571 0.12064 -0.23467
 C56 C -0.12115 0.13046 -0.24878
 C57 C -0.11411 0.15558 -0.23552
 H58 H -0.15713 0.10100 -0.23842
 H59 H -0.09582 0.16923 -0.24038
 Cu60 Cu -0.18298 0.13770 -0.18506
 Cu61 Cu -0.13531 0.19131 -0.18737
 Cu62 Cu -0.16256 0.16748 -0.12370
 N63 N -0.20615 0.13295 -0.15080
 N64 N -0.19715 0.14371 -0.12664
 C65 C -0.21574 0.13619 -0.10599
 C66 C -0.23801 0.12039 -0.11786
 C67 C -0.23128 0.11863 -0.14645
 H68 H -0.21356 0.14236 -0.08404
 H69 H -0.24333 0.10752 -0.16273
 N70 N -0.13747 0.20113 -0.12707
 N71 N -0.12872 0.21139 -0.15157
 C72 C -0.11468 0.23600 -0.14711
 C73 C -0.11458 0.24130 -0.11830
 C74 C -0.12900 0.21875 -0.10628
 H75 H -0.10508 0.24883 -0.16355
 H76 H -0.13389 0.21592 -0.08409
 H77 H -0.14058 0.15859 -0.16106
 H78 H -0.17308 0.18323 -0.16258
 N79 N 0.13149 0.83590 -0.21702
 N80 N 0.15322 0.85406 -0.21841
 C81 C 0.15051 0.86910 -0.24263
 C82 C 0.12564 0.85989 -0.25688
 C83 C 0.11421 0.83888 -0.24005
 H84 H 0.16429 0.88667 -0.24848
 H85 H 0.09389 0.82766 -0.24363
 Cu86 Cu 0.18004 0.85909 -0.18635
 Cu87 Cu 0.12450 0.81219 -0.18406
 Cu88 Cu 0.16836 0.82409 -0.12539
 N89 N 0.20620 0.86336 -0.15367
 N90 N 0.19981 0.85116 -0.12948
 C91 C 0.21970 0.85856 -0.10980
 C92 C 0.23999 0.87601 -0.12222
 C93 C 0.23089 0.87875 -0.15020
 H94 H 0.21994 0.85115 -0.08814
 H95 H 0.24109 0.89125 -0.16654
 N96 N 0.13595 0.79697 -0.12554
 N97 N 0.12061 0.79083 -0.14847
 C98 C 0.10256 0.76912 -0.14258
 C99 C 0.10673 0.76159 -0.11455
 C100 C 0.12780 0.77973 -0.10437
 H101 H 0.08753 0.75954 -0.15749
 H102 H 0.13735 0.77944 -0.08337
 H103 H 0.14083 0.84157 -0.15612
 H104 H 0.16688 0.81281 -0.16766
 N105 N 0.15433 1.13130 0.78672
 N106 N 0.12985 1.14511 0.79294
 C107 C 0.10772 1.13507 0.77690
 C108 C 0.11907 1.11426 0.75946
 C109 C 0.14870 1.11227 0.76626
 H110 H 0.08535 1.14329 0.77669
 H111 H 0.16503 1.09846 0.75667
 Cu112 Cu 0.13019 1.17746 0.81829
 Cu113 Cu 0.19180 1.13967 0.80489
 Cu114 Cu 0.19333 1.19830 0.84906
 N115 N 0.13121 1.20972 0.84370
 N116 N 0.15623 1.21865 0.85441
 C117 C 0.15108 1.24222 0.86973
 C118 C 0.12120 1.24825 0.86854
 C119 C 0.10923 1.22720 0.85202
 H120 H 0.16774 1.25378 0.88119
 H121 H 0.08627 1.22518 0.84616
 N122 N 0.22833 1.17453 0.84130
 N123 N 0.22746 1.15161 0.82531
 C124 C 0.25352 1.13776 0.82730
 C125 C 0.27161 1.15276 0.84535
 C126 C 0.25512 1.17604 0.85360
 H127 H 0.25855 1.11768 0.81730
 H128 H 0.26152 1.19173 0.86905
 H129 H 0.17500 1.15925 0.84073
 H130 H 0.18280 1.18241 0.80965
 N131 N 0.84871 0.86679 0.78594
 N132 N 0.86771 0.84602 0.78141
 C133 C 0.88495 0.85284 0.75942
 C134 C 0.87635 0.87946 0.74993
 C135 C 0.85353 0.88781 0.76735
 H136 H 0.90267 0.83968 0.75131
 H137 H 0.84099 0.90746 0.76625
 Cu138 Cu 0.86890 0.81285 0.80562
 Cu139 Cu 0.81887 0.86455 0.81521
 Cu140 Cu 0.80803 0.79691 0.84170
 N141 N 0.86969 0.78428 0.83516
 N142 N 0.84551 0.77731 0.84857
 C143 C 0.85179 0.75623 0.86689
 C144 C 0.88162 0.74996 0.86503
 C145 C 0.89232 0.76819 0.84477
 H146 H 0.83589 0.74669 0.88083
 H147 H 0.91479 0.76942 0.83737
 N148 N 0.77799 0.82725 0.84384
 N149 N 0.78284 0.85337 0.83512
 C150 C 0.75907 0.86965 0.84084
 C151 C 0.73831 0.85295 0.85392
 C152 C 0.75094 0.82619 0.85537
 H153 H 0.75704 0.89191 0.83559
 H154 H 0.74149 0.80754 0.86486
 H155 H 0.83395 0.83119 0.84043
 H156 H 0.81590 0.82276 0.80595
 N157 N 0.16570 0.85299 1.22514
 N158 N 0.14074 0.83929 1.22303
 C159 C 0.12533 0.84297 1.24711
 C160 C 0.14184 0.85963 1.26522
 C161 C 0.16731 0.86543 1.25067
 H162 H 0.10390 0.83407 1.25117
 H163 H 0.18527 0.87851 1.25786
 Cu164 Cu 0.13108 0.81757 1.18918
 Cu165 Cu 0.19276 0.85590 1.19371
 Cu166 Cu 0.18375 0.80873 1.13891
 N167 N 0.12932 0.78744 1.16107
 N168 N 0.15048 0.78303 1.14257
 C169 C 0.14365 0.76033 1.12659
 C170 C 0.11670 0.75021 1.13549
 C171 C 0.10821 0.76798 1.15725
 H172 H 0.15682 0.75235 1.10926
 H173 H 0.08822 0.76667 1.16953
 N174 N 0.21540 0.83728 1.13948
 N175 N 0.21790 0.85588 1.16017
 C176 C 0.23876 0.87469 1.15350
 C177 C 0.25032 0.86743 1.12761
 C178 C 0.23516 0.84353 1.11920
 H179 H 0.24467 0.89284 1.16619
 H180 H 0.23723 0.83257 1.09921
 H181 H 0.16570 0.84263 1.15963
 H182 H 0.18355 0.81385 1.18168
 N183 N 0.84650 1.14823 1.21928
 N184 N 0.86257 1.17121 1.22017
 C185 C 0.88173 1.16916 1.24195
 C186 C 0.87698 1.14384 1.25566
 C187 C 0.85449 1.13101 1.24079
 H188 H 0.89783 1.18491 1.24763
 H189 H 0.84519 1.11041 1.24487
 Cu190 Cu 0.85645 1.20167 1.19308
 Cu191 Cu 0.81755 1.14186 1.18950
 Cu192 Cu 0.80691 1.19588 1.14030
 N193 N 0.84973 1.23216 1.16618
 N194 N 0.83129 1.22946 1.14481
 C195 C 0.83231 1.25298 1.12863
 C196 C 0.85217 1.27140 1.14088
 C197 C 0.86261 1.25764 1.16467
 H198 H 0.81944 1.25652 1.10960
 H199 H 0.87896 1.26547 1.17934
 N200 N 0.78451 1.16018 1.13963
 N201 N 0.78932 1.13936 1.15787
 C202 C 0.77157 1.11762 1.15144
 C203 C 0.75442 1.12525 1.12848
 C204 C 0.76309 1.15235 1.12145
 H205 H 0.77072 1.09778 1.16286
 H206 H 0.75468 1.16520 1.10418
 H207 H 0.83619 1.16795 1.15934
 H208 H 0.80731 1.18426 1.18234
 O209 O 0.46189 0.94836 0.94430
 O210 O 0.42763 0.97246 0.97101
 C211 C 0.43492 0.95450 0.95142
 O212 O 0.54232 0.94820 1.04791
 O213 O 0.57405 0.97643 1.02323
 C214 C 0.56855 0.95666 1.04150
 O215 O 0.46050 0.94233 1.04245
 O216 O 0.42703 0.97021 1.01836
 C217 C 0.43380 0.94925 1.03506
 O218 O 0.54484 0.95328 0.94491
 O219 O 0.57531 0.97886 0.97401
 C220 C 0.57072 0.96144 0.95336
 Zr221 Zr 0.50239 0.96357 0.96090
 O222 O 0.50725 0.91889 0.96313
 O223 O 0.50332 0.96043 0.91629
 Zr224 Zr 0.50074 0.96198 1.03223
 O225 O 0.50598 0.91740 1.03399
 O226 O 0.49614 0.96343 1.07678
 O227 O 0.47555 0.95632 0.99563
 O228 O 0.52750 0.95851 0.99702
 O229 O 0.53933 1.04978 0.94682
 O230 O 0.57246 1.02551 0.97485
 C231 C 0.56597 1.04326 0.95473
 O232 O 0.45514 1.04973 1.04475
 O233 O 0.42438 1.02074 1.01958
 C234 C 0.42917 1.04133 1.03716
 O235 O 0.53752 1.04919 1.05006
 O236 O 0.57182 1.02430 1.02418
 C237 C 0.56449 1.04276 1.04329
 O238 O 0.45662 1.04977 0.94811
 O239 O 0.42515 1.02059 0.97198
 C240 C 0.43046 1.04081 0.95427
 Zr241 Zr 0.49858 1.03530 0.96259
 O242 O 0.49960 1.08014 0.96472
 O243 O 0.49638 1.03726 0.91789
 Zr244 Zr 0.49720 1.03324 1.03410
 O245 O 0.49737 1.07771 1.03938
 O246 O 0.49300 1.02836 1.07845
 Zr247 Zr 0.45575 0.99707 0.99619
 Zr248 Zr 0.54364 1.00014 0.99848
 O249 O 0.52318 1.04044 0.99901
 O250 O 0.47142 1.03899 0.99774
 O251 O 0.52666 1.00052 0.95681
 O252 O 0.47287 0.99661 1.03763
 O253 O 0.47516 0.99875 0.95585
 O254 O 0.52538 0.99837 1.03937
 H255 H 0.54170 0.94237 0.99667
 H256 H 0.45867 0.99570 1.05346
 H257 H 0.53557 1.05759 0.99937
 H258 H 0.46243 0.99901 0.93876
 H259 H 0.51421 0.97200 1.08467
 H260 H 0.51246 1.02231 1.08604
 H261 H 0.49195 1.08597 1.02083
 H262 H 0.48108 1.08672 0.97369
 H263 H 0.51183 1.02429 0.91049
 H264 H 0.49591 0.97868 0.90864
 H265 H 0.48794 0.91094 0.96838
 H266 H 0.49638 0.90970 1.01688
 O267 O 0.05031 0.54231 -0.04956
 O268 O 0.02339 0.57148 -0.02041
 C269 C 0.04179 0.56716 -0.04090
 O270 O -0.05051 0.46130 -0.05288
 O271 O -0.02208 0.42937 -0.02783
 C272 C -0.04210 0.43564 -0.04656
 O273 O -0.05131 0.54095 -0.04972
 O274 O -0.02554 0.57111 -0.02085
 C275 C -0.04442 0.56605 -0.04087
 O276 O 0.05707 0.46295 -0.04944
 O277 O 0.02885 0.43016 -0.02656
 C278 C 0.04972 0.43708 -0.04375
 Zr279 Zr 0.03875 0.50171 -0.03447
 O280 O 0.04129 0.50058 -0.07912
 O281 O 0.08508 0.50628 -0.03181
 Zr282 Zr -0.03579 0.50054 -0.03638
 O283 O -0.03432 0.50037 -0.08116
 O284 O -0.08244 0.50254 -0.03744
 O285 O 0.00072 0.52664 -0.03953
 O286 O 0.00239 0.47692 -0.04202
 O287 O 0.05504 0.45718 0.04833
 O288 O 0.02837 0.42741 0.01983
 C289 C 0.04837 0.43216 0.03883
 O290 O -0.05380 0.53500 0.05215
 O291 O -0.02696 0.56795 0.02798
 C292 C -0.04676 0.56093 0.04628
 O293 O -0.05349 0.45562 0.04476
 O294 O -0.02343 0.42653 0.01833
 C295 C -0.04494 0.43080 0.03579
 O296 O 0.05065 0.53690 0.05461
 O297 O 0.02279 0.56914 0.02923
 C298 C 0.04229 0.56264 0.04845
 Zr299 Zr 0.03731 0.49768 0.03698
 O300 O 0.03523 0.49225 0.08139
 O301 O 0.08374 0.50108 0.03910
 Zr302 Zr -0.03699 0.49643 0.03520
 O303 O -0.03541 0.49069 0.07962
 O304 O -0.08357 0.49832 0.03643
 Zr305 Zr -0.00057 0.54133 0.00261
 Zr306 Zr 0.00208 0.45716 -0.00215
 O307 O 0.00081 0.47200 0.03978
 O308 O -0.00077 0.52220 0.04298
 O309 O 0.04459 0.47461 -0.00003
 O310 O -0.04257 0.52288 0.00063
 O311 O 0.04262 0.52445 0.00264
 O312 O -0.04145 0.47332 -0.00219
 H313 H 0.00324 0.46507 -0.05931
 H314 H -0.06046 0.53516 0.00086
 H315 H 0.00079 0.45789 0.05532
 H316 H 0.05941 0.53766 0.00341
 H317 H -0.08978 0.48554 -0.02760
 H318 H -0.09085 0.48689 0.02040
 H319 H -0.02717 0.50811 0.08802
 H320 H 0.02417 0.50866 0.08919
 H321 H 0.09213 0.48714 0.02566
 H322 H 0.09329 0.48901 -0.02267
 H323 H 0.02545 0.51319 -0.08648
 H324 H -0.02448 0.51793 -0.08725
 O325 O 1.05368 -0.04269 0.45430
 O326 O 1.02350 -0.01468 0.42653
 C327 C 1.04367 -0.03408 0.42986
 O328 O 0.95384 -0.05389 0.53669
 O329 O 0.98035 -0.02817 0.56894
 C330 C 0.96164 -0.04763 0.56235
 O331 O 0.95265 -0.04899 0.45739
 O332 O 0.97518 -0.01707 0.42818
 C333 C 0.95815 -0.03839 0.43261
 O334 O 1.06160 -0.04450 0.53386
 O335 O 1.03159 -0.02459 0.56763
 C336 C 1.05388 -0.04023 0.55997
 Zr337 Zr 1.04143 -0.02982 0.49585
 O338 O 1.04743 -0.07438 0.49552
 O339 O 1.08730 -0.02330 0.49262
 Zr340 Zr 0.96721 -0.03551 0.49797
 O341 O 0.97202 -0.08022 0.49723
 O342 O 0.92071 -0.03879 0.49634
 O343 O 1.00366 -0.03620 0.47143
 O344 O 1.00588 -0.03972 0.52104
 O345 O 1.05319 0.05186 0.54155
 O346 O 1.02753 0.02284 0.57133
 C347 C 1.04684 0.04222 0.56648
 O348 O 0.94296 0.05304 0.46567
 O349 O 0.97178 0.03142 0.43201
 C350 C 0.95080 0.04862 0.43965
 O351 O 0.94314 0.04327 0.54446
 O352 O 0.97605 0.01923 0.57301
 C353 C 0.95293 0.03528 0.56907
 O354 O 1.04548 0.06165 0.46303
 O355 O 1.02032 0.03474 0.43076
 C356 C 1.03759 0.05543 0.43735
 Zr357 Zr 1.03491 0.04122 0.50165
 O358 O 1.03063 0.08538 0.50882
 O359 O 1.08111 0.04487 0.49730
 Zr360 Zr 0.96078 0.03590 0.50374
 O361 O 0.95936 0.08025 0.51074
 O362 O 0.91421 0.03530 0.50216
 Zr363 Zr 0.99916 0.00627 0.45801
 Zr364 Zr 1.00269 -0.00041 0.54196
 O365 O 0.99841 0.04176 0.52778
 O366 O 0.99624 0.04612 0.47801
 O367 O 1.04476 0.00406 0.52381
 O368 O 0.95748 0.00175 0.47669
 O369 O 1.04245 0.00799 0.47392
 O370 O 0.95921 -0.00227 0.52608
 H371 H 1.00811 -0.05731 0.53237
 H372 H 0.93959 0.00153 0.46458
 H373 H 0.99748 0.05708 0.54210
 H374 H 1.05889 0.01009 0.46038
 H375 H 0.91274 -0.03012 0.51380
 H376 H 0.90809 0.01769 0.51170
 H377 H 0.96611 0.08963 0.49324
 H378 H 1.01702 0.09310 0.49423
 H379 H 1.09030 0.02926 0.50839
 H380 H 1.09642 -0.04238 0.49050
 H381 H 1.03252 -0.08214 0.48243
 H382 H 0.98263 -0.08540 0.47971
 C383 C 1.10958 0.11186 0.27214
 C384 C 1.09751 0.12557 0.29565
 C385 C 1.08467 0.10953 0.31922
 N386 N 1.07992 0.12230 0.34455
 N387 N 1.06840 0.10791 0.36603
 C388 C 1.06098 0.08027 0.36285
 N389 N 1.06544 0.06761 0.33744
 N390 N 1.07716 0.08193 0.31607
 C391 C 1.04816 0.06394 0.38617
 C392 C 1.04939 0.07285 0.41429
 H393 H 1.09828 0.14842 0.29742
 H394 H 1.03870 0.04357 0.38114
 H395 H 1.11038 0.08889 0.27181
 H396 H 1.06046 0.09235 0.41965
 C397 C 0.87839 -0.13793 0.29527
 C398 C 0.87241 -0.11159 0.30733
 C399 C 0.88604 -0.10280 0.33409
 N400 N 0.88906 -0.07481 0.33965
 N401 N 0.90264 -0.06633 0.36312
 C402 C 0.91345 -0.08553 0.38205
 N403 N 0.90989 -0.11357 0.37682
 N404 N 0.89658 -0.12207 0.35313
 C405 C 0.92924 -0.07607 0.40750
 C406 C 0.94339 -0.05008 0.40764
 H407 H 0.85989 -0.09584 0.29549
 H408 H 0.93074 -0.08998 0.42571
 H409 H 0.89293 -0.15281 0.30609
 H410 H 0.94390 -0.03763 0.38837
 C411 C 0.89571 0.11681 0.72830
 C412 C 0.88390 0.09577 0.71111
 C413 C 0.90093 0.08279 0.68792
 N414 N 0.88671 0.07024 0.66603
 N415 N 0.90183 0.05894 0.64463
 C416 C 0.93177 0.05943 0.64449
 N417 N 0.94603 0.07154 0.66663
 N418 N 0.93089 0.08314 0.68788
 C419 C 0.94867 0.04754 0.62065
 C420 C 0.93616 0.04516 0.59379
 H421 H 0.86108 0.08983 0.71362
 H422 H 0.97185 0.04258 0.62375
 H423 H 0.91767 0.12446 0.72411
 H424 H 0.91377 0.05268 0.59029
 C425 C 1.11089 -0.12781 0.71807
 C426 C 1.12481 -0.11001 0.69892
 C427 C 1.10824 -0.09669 0.67539
 N428 N 1.12256 -0.08659 0.65241
 N429 N 1.10756 -0.07440 0.63119
 C430 C 1.07773 -0.07162 0.63236
 N431 N 1.06350 -0.08143 0.65547
 N432 N 1.07843 -0.09386 0.67651
 C433 C 1.06070 -0.05767 0.60959
 C434 C 1.07161 -0.05421 0.58228
 H435 H 1.14823 -0.10625 0.70084
 H436 H 1.03829 -0.05098 0.61423
 H437 H 1.08805 -0.13330 0.71450
 H438 H 1.09308 -0.06289 0.57689
 C439 C 0.25759 1.10137 1.10701
 C440 C 0.28059 1.11316 1.09163
 C441 C 0.30486 1.09575 1.08007
 N442 N 0.33058 1.10819 1.07296
 N443 N 0.35295 1.09277 1.06283
 C444 C 0.35037 1.06435 1.05915
 N445 N 0.32449 1.05193 1.06588
 N446 N 0.30219 1.06733 1.07630
 C447 C 0.37507 1.04723 1.04794
 C448 C 0.40389 1.05707 1.04897
 H449 H 0.28204 1.13594 1.08939
 H450 H 0.37066 1.02630 1.03962
 H451 H 0.25765 1.07868 1.11063
 H452 H 0.40831 1.07707 1.05934
 C453 C 0.26407 0.88757 0.89182
 C454 C 0.28665 0.90213 0.87851
 C455 C 0.31144 0.91316 0.89523
 N456 N 0.33801 0.91756 0.88302
 N457 N 0.36066 0.92682 0.89840
 C458 C 0.35745 0.93220 0.92647
 N459 N 0.33079 0.92819 0.93854
 N460 N 0.30827 0.91868 0.92325
 C461 C 0.38184 0.94308 0.94370
 C462 C 0.41115 0.94104 0.93521
 H463 H 0.28717 0.90395 0.85569
 H464 H 0.37651 0.95267 0.96389
 H465 H 0.26571 0.88391 0.91443
 H466 H 0.41677 0.92971 0.91602
 C467 C 0.73604 0.89542 1.11840
 C468 C 0.71614 0.88441 1.09884
 C469 C 0.69200 0.90195 1.08700
 N470 N 0.66696 0.88951 1.07772
 N471 N 0.64467 0.90516 1.06753
 C472 C 0.64672 0.93384 1.06593
 N473 N 0.67195 0.94627 1.07476
 N474 N 0.69412 0.93062 1.08530
 C475 C 0.62223 0.95118 1.05447
 C476 C 0.59336 0.94149 1.05504
 H477 H 0.71672 0.86205 1.09368
 H478 H 0.62686 0.97202 1.04608
 H479 H 0.73334 0.91728 1.12507
 H480 H 0.58870 0.92172 1.06571
 C481 C 0.73824 1.10926 0.89691
 C482 C 0.71433 1.09618 0.88390
 C483 C 0.68966 1.08529 0.90067
 N484 N 0.66307 1.08083 0.88827
 N485 N 0.64055 1.07126 0.90340
 C486 C 0.64389 1.06559 0.93144
 N487 N 0.67057 1.06969 0.94373
 N488 N 0.69299 1.07951 0.92867
 C489 C 0.61945 1.05444 0.94830
 C490 C 0.59022 1.05648 0.93919
 H491 H 0.71280 1.09516 0.86107
 H492 H 0.62462 1.04476 0.96855
 H493 H 0.73803 1.11197 0.91967
 H494 H 0.58493 1.06784 0.91986
 C495 C 0.13407 0.29608 0.14095
 C496 C 0.13550 0.30536 0.11299
 C497 C 0.12184 0.33221 0.10346
 N498 N 0.11587 0.33611 0.07558
 N499 N 0.10270 0.35986 0.06654
 C500 C 0.09522 0.38076 0.08501
 N501 N 0.10162 0.37708 0.11287
 N502 N 0.11455 0.35317 0.12197
 C503 C 0.08004 0.40678 0.07511
 C504 C 0.06449 0.40713 0.04961
 H505 H 0.14481 0.29148 0.09704
 H506 H 0.07972 0.42529 0.08866
 H507 H 0.12272 0.30898 0.15651
 H508 H 0.06289 0.38774 0.03745
 C509 C -0.10234 0.26554 -0.10287
 C510 C -0.09586 0.29116 -0.11600
 C511 C -0.08443 0.31536 -0.09985
 N512 N -0.08454 0.34168 -0.11147
 N513 N -0.07434 0.36373 -0.09693
 C514 C -0.06351 0.36019 -0.07029
 N515 N -0.06317 0.33384 -0.05879
 N516 N -0.07355 0.31185 -0.07323
 C517 C -0.05151 0.38404 -0.05410
 C518 C -0.05577 0.41224 -0.06221
 H519 H -0.10038 0.29397 -0.13835
 H520 H -0.03919 0.37917 -0.03496
 H521 H -0.09981 0.26356 -0.08015
 H522 H -0.06945 0.41730 -0.08042
 C523 C 0.09329 0.73848 -0.09850
 C524 C 0.08251 0.71428 -0.11157
 C525 C 0.07268 0.68984 -0.09495
 N526 N 0.07163 0.66379 -0.10702
 N527 N 0.06373 0.64131 -0.09189
 C528 C 0.05643 0.64412 -0.06419
 N529 N 0.05705 0.67024 -0.05224
 N530 N 0.06520 0.69267 -0.06729
 C531 C 0.04743 0.61955 -0.04733
 C532 C 0.05319 0.59184 -0.05611
 H533 H 0.08366 0.71222 -0.13436
 H534 H 0.03628 0.62341 -0.02746
 H535 H 0.09454 0.73939 -0.07563
 H536 H 0.06583 0.58808 -0.07516
 C537 C -0.10551 0.72593 0.11782
 C538 C -0.12003 0.70347 0.10503
 C539 C -0.10324 0.67970 0.09258
 N540 N -0.11599 0.65407 0.08891
 N541 N -0.10056 0.63232 0.07833
 C542 C -0.07189 0.63549 0.07087
 N543 N -0.05931 0.66120 0.07418
 N544 N -0.07463 0.68284 0.08499
 C545 C -0.05461 0.61201 0.05863
 C546 C -0.06317 0.58381 0.06064
 H547 H -0.14385 0.70241 0.10583
 H548 H -0.03425 0.61715 0.04801
 H549 H -0.08166 0.72543 0.11923
 H550 H -0.08252 0.57841 0.07275
 C551 C 1.10302 0.09974 0.73678
 C552 C 1.11738 0.08927 0.71295
 C553 C 1.10098 0.07818 0.68860
 N554 N 1.11402 0.07672 0.66288
 N555 N 1.09910 0.06754 0.64041
 C556 C 1.07064 0.05933 0.64293
 N557 N 1.05774 0.06041 0.66873
 N558 N 1.07257 0.06983 0.69114
 C559 C 1.05396 0.04898 0.61845
 C560 C 1.06294 0.05390 0.59074
 H561 H 1.14101 0.09148 0.71102
 H562 H 1.03369 0.03776 0.62238
 H563 H 1.07916 0.09981 0.73760
 H564 H 1.08210 0.06676 0.58673
 C565 C 0.88860 -0.10409 0.72652
 C566 C 0.90384 -0.11704 0.70446
 C567 C 0.91548 -0.10060 0.68075
 N568 N 0.92225 -0.11373 0.65606
 N569 N 0.93273 -0.09899 0.63435
 C570 C 0.93704 -0.07065 0.63668
 N571 N 0.93059 -0.05759 0.66148
 N572 N 0.91984 -0.07226 0.68308
 C573 C 0.94909 -0.05421 0.61319
 C574 C 0.94867 -0.06405 0.58542
 H575 H 0.90602 -0.13993 0.70379
 H576 H 0.95773 -0.03339 0.61780
 H577 H 0.88409 -0.08148 0.72589
 H578 H 0.93789 -0.08379 0.58039
 C579 C 1.13438 -0.12964 0.29353
 C580 C 1.10535 -0.12595 0.30231
 C581 C 1.09811 -0.11154 0.32904
 N582 N 1.07113 -0.09933 0.33238
 N583 N 1.06456 -0.08531 0.35601
 C584 C 1.08464 -0.08315 0.37730
 N585 N 1.11147 -0.09578 0.37419
 N586 N 1.11816 -0.10956 0.35040
 C587 C 1.07736 -0.06768 0.40346
 C588 C 1.05454 -0.04765 0.40389
 H589 H 1.08747 -0.13131 0.28810
 H590 H 1.09019 -0.07193 0.42243
 H591 H 1.15215 -0.12187 0.30668
 H592 H 1.04326 -0.04229 0.38430
 C593 C 0.89354 0.13284 0.28014
 C594 C 0.88151 0.11328 0.29869
 C595 C 0.89841 0.10201 0.32285
 N596 N 0.88418 0.09077 0.34531
 N597 N 0.89935 0.08019 0.36719
 C598 C 0.92930 0.08023 0.36722
 N599 N 0.94351 0.09120 0.34463
 N600 N 0.92835 0.10207 0.32291
 C601 C 0.94631 0.06756 0.39058
 C602 C 0.93429 0.06362 0.41733
 H603 H 0.85879 0.10693 0.29612
 H604 H 0.96908 0.06155 0.38671
 H605 H 0.91519 0.14135 0.28436
 H606 H 0.91253 0.07200 0.42207
 C607 C 0.10494 0.27174 -0.11813
 C608 C 0.11905 0.29576 -0.10804
 C609 C 0.10258 0.31931 -0.09504
 N610 N 0.11582 0.34461 -0.09087
 N611 N 0.10107 0.36615 -0.07914
 C612 C 0.07261 0.36307 -0.07101
 N613 N 0.05947 0.33771 -0.07496
 N614 N 0.07415 0.31624 -0.08686
 C615 C 0.05615 0.38640 -0.05768
 C616 C 0.06619 0.41418 -0.05782
 H617 H 0.14262 0.29791 -0.11063
 H618 H 0.03518 0.38160 -0.04803
 H619 H 0.08113 0.27053 -0.11732
 H620 H 0.08623 0.41937 -0.06895
 C621 C -0.13852 0.29945 0.13119
 C622 C -0.13865 0.30708 0.10276
 C623 C -0.12490 0.33348 0.09330
 N624 N -0.11435 0.33555 0.06659
 N625 N -0.10036 0.35877 0.05831
 C626 C -0.09664 0.38085 0.07636
 N627 N -0.10771 0.37901 0.10288
 N628 N -0.12142 0.35568 0.11127
 C629 C -0.08070 0.40633 0.06765
 C630 C -0.06085 0.40562 0.04528
 H631 H -0.14613 0.29214 0.08697
 H632 H -0.08359 0.42557 0.07987
 H633 H -0.12830 0.31328 0.14658
 H634 H -0.05646 0.38576 0.03448
 C635 C -0.10119 0.72858 -0.11911
 C636 C -0.11473 0.70661 -0.10468
 C637 C -0.09778 0.68401 -0.09046
 N638 N -0.11109 0.65926 -0.08417
 N639 N -0.09597 0.63820 -0.07190
 C640 C -0.06703 0.64121 -0.06523
 N641 N -0.05378 0.66615 -0.07110
 N642 N -0.06885 0.68715 -0.08364
 C643 C -0.05028 0.61783 -0.05200
 C644 C -0.05994 0.59002 -0.05423
 H645 H -0.13849 0.70476 -0.10536
 H646 H -0.02966 0.62237 -0.04137
 H647 H -0.07736 0.72934 -0.12008
 H648 H -0.07928 0.58547 -0.06690
 C649 C 0.09948 0.72658 0.12388
 C650 C 0.11248 0.70434 0.10886
 C651 C 0.09513 0.68069 0.09747
 N652 N 0.10867 0.65570 0.09107
 N653 N 0.09332 0.63422 0.08048
 C654 C 0.06387 0.63702 0.07562
 N655 N 0.05037 0.66211 0.08175
 N656 N 0.06567 0.68349 0.09264
 C657 C 0.04691 0.61375 0.06293
 C658 C 0.05713 0.58574 0.06360
 H659 H 0.13621 0.70353 0.10648
 H660 H 0.02588 0.61877 0.05306
 H661 H 0.07613 0.72603 0.12851
 H662 H 0.07700 0.58053 0.07542
 C663 C 0.30041 1.14408 0.85709
 C664 C 0.30886 1.11564 0.85844
 C665 C 0.33483 1.10598 0.87455
 N666 N 0.33661 1.07866 0.88337
 N667 N 0.35945 1.06964 0.89886
 C668 C 0.38147 1.08758 0.90593
 N669 N 0.37995 1.11482 0.89674
 N670 N 0.35692 1.12394 0.88147
 C671 C 0.40676 1.07759 0.92290
 C672 C 0.40493 1.05325 0.93943
 H673 H 0.29443 1.09961 0.84994
 H674 H 0.42689 1.08968 0.92262
 H675 H 0.31352 1.15992 0.86773
 H676 H 0.38403 1.04253 0.94125
 C677 C 0.27195 0.88418 1.11199
 C678 C 0.29095 0.87251 1.09200
 C679 C 0.31377 0.88994 1.07875
 N680 N 0.33937 0.87783 1.06981
 N681 N 0.36066 0.89372 1.05903
 C682 C 0.35699 0.92226 1.05652
 N683 N 0.33116 0.93428 1.06493
 N684 N 0.31003 0.91844 1.07602
 C685 C 0.38047 0.94014 1.04513
 C686 C 0.40997 0.93160 1.04611
 H687 H 0.29073 0.84992 1.08790
 H688 H 0.37460 0.96108 1.03733
 H689 H 0.27454 0.90614 1.11814
 H690 H 0.41595 0.91161 1.05604
 C691 C 0.73195 1.10756 1.11494
 C692 C 0.70826 1.11918 1.09991
 C693 C 0.68483 1.10129 1.08825
 N694 N 0.65779 1.11266 1.08273
 N695 N 0.63625 1.09658 1.07257
 C696 C 0.64105 1.06859 1.06732
 N697 N 0.66821 1.05730 1.07247
 N698 N 0.68966 1.07331 1.08293
 C699 C 0.61762 1.05082 1.05550
 C700 C 0.58797 1.05861 1.05751
 H701 H 0.70572 1.14199 1.09838
 H702 H 0.62383 1.03108 1.04528
 H703 H 0.73292 1.08491 1.11877
 H704 H 0.58175 1.07724 1.06961
 C705 C 0.70938 0.86164 0.86508
 C706 C 0.70205 0.89011 0.86899
 C707 C 0.67424 0.89944 0.88189
 N708 N 0.67157 0.92642 0.89143
 N709 N 0.64683 0.93528 0.90379
 C710 C 0.62374 0.91754 0.90685
 N711 N 0.62620 0.89063 0.89691
 N712 N 0.65108 0.88167 0.88474
 C713 C 0.59669 0.92717 0.92106
 C714 C 0.59692 0.95090 0.93855
 H715 H 0.71797 0.90627 0.86408
 H716 H 0.57684 0.91483 0.91878
 H717 H 0.69435 0.84534 0.87187
 H718 H 0.61747 0.96175 0.94239
   
