data_POSCAR
  _audit_creation_date              2014-09-24
  _audit_creation_method            'ToBaCCo'
  _symmetry_space_group_name_H-M    'P1'
  _symmetry_Int_Tables_number       1
  _symmetry_cell_setting            triclinic
  loop_
  _symmetry_equiv_pos_as_xyz
 x,y,z
_cell_length_a 38.6445
_cell_length_b 39.2928
_cell_length_c 39.2565
_cell_angle_alpha 90.047800
_cell_angle_beta 89.959600
_cell_angle_gamma 89.958100
loop_
  _atom_site_label
  _atom_site_type_symbol
  _atom_site_fract_x
  _atom_site_fract_y
  _atom_site_fract_z
C1 C 0.34404 0.33906 1.38406
 C2 C 0.31530 0.35355 1.40036
 C3 C 0.30015 0.38381 1.38806
 C4 C 0.31501 0.39983 1.35940
 C5 C 0.34311 0.38499 1.34220
 C6 C 0.35749 0.35434 1.35444
 C7 C 0.35917 0.30916 1.39672
 C8 C 0.38683 0.29331 1.37940
 C9 C 0.39923 0.30824 1.34910
 C10 C 0.38509 0.33878 1.33685
 C11 C 0.39802 0.35383 1.30709
 C12 C 0.38388 0.38439 1.29458
 C13 C 0.35655 0.39994 1.31250
 H14 H 0.30478 0.34109 1.42271
 H15 H 0.30393 0.42316 1.34950
 H16 H 0.34873 0.29788 1.41973
 H17 H 0.42043 0.29655 1.33525
 H18 H 0.41912 0.34157 1.29364
 H19 H 0.34528 0.42337 1.30307
 C20 C 1.15590 0.66122 0.88864
 C21 C 1.18605 0.64780 0.90352
 C22 C 1.20355 0.62006 0.88850
 C23 C 1.19013 0.60597 0.85819
 C24 C 1.15999 0.61897 0.84327
 C25 C 1.14261 0.64653 0.85863
 C26 C 1.13925 0.68953 0.90300
 C27 C 1.10934 0.70359 0.88784
 C28 C 1.09565 0.68783 0.85849
 C29 C 1.11216 0.65962 0.84372
 C30 C 1.09919 0.64478 0.81376
 C31 C 1.11687 0.61773 0.79802
 C32 C 1.14723 0.60499 0.81293
 H33 H 1.19598 0.65932 0.92663
 H34 H 1.20309 0.58476 0.84593
 H35 H 1.15012 0.70088 0.92578
 H36 H 1.07259 0.69795 0.84646
 H37 H 1.07593 0.65491 0.80214
 H38 H 1.16082 0.58397 0.80100
 C39 C 0.65259 -0.15929 0.11055
 C40 C 0.68090 -0.14400 0.09413
 C41 C 0.69567 -0.11393 0.10706
 C42 C 0.68091 -0.09858 0.13604
 C43 C 0.65272 -0.11357 0.15272
 C44 C 0.63872 -0.14427 0.14018
 C45 C 0.63848 -0.18977 0.09821
 C46 C 0.61059 -0.20574 0.11508
 C47 C 0.59722 -0.19058 0.14490
 C48 C 0.61124 -0.16022 0.15764
 C49 C 0.59863 -0.14584 0.18794
 C50 C 0.61243 -0.11523 0.20036
 C51 C 0.63900 -0.09889 0.18237
 H52 H 0.69195 -0.15605 0.07177
 H53 H 0.69183 -0.07530 0.14621
 H54 H 0.64946 -0.20099 0.07539
 H55 H 0.57607 -0.20249 0.15858
 H56 H 0.57800 -0.15835 0.20186
 H57 H 0.64990 -0.07545 0.19224
 C58 C -0.15632 1.16106 -0.38325
 C59 C -0.18516 1.14679 -0.39950
 C60 C -0.19984 1.11609 -0.38779
 C61 C -0.18455 1.09953 -0.35965
 C62 C -0.15635 1.11411 -0.34248
 C63 C -0.14228 1.14506 -0.35424
 C64 C -0.14160 1.19140 -0.39530
 C65 C -0.11368 1.20651 -0.37812
 C66 C -0.10045 1.19100 -0.34866
 C67 C -0.11438 1.16024 -0.33680
 C68 C -0.10101 1.14462 -0.30756
 C69 C -0.11503 1.11390 -0.29536
 C70 C -0.14252 1.09863 -0.31324
 H71 H -0.19605 1.15974 -0.42139
 H72 H -0.19534 1.07591 -0.35016
 H73 H -0.15227 1.20360 -0.41773
 H74 H -0.07895 1.20261 -0.33528
 H75 H -0.07975 1.15665 -0.29419
 H76 H -0.15363 1.07503 -0.30408
 C77 C 0.65401 0.66076 0.61246
 C78 C 0.68422 0.64739 0.59761
 C79 C 0.70148 0.61965 0.61257
 C80 C 0.68803 0.60532 0.64262
 C81 C 0.65787 0.61829 0.65758
 C82 C 0.64058 0.64597 0.64237
 C83 C 0.63750 0.68915 0.59824
 C84 C 0.60762 0.70327 0.61345
 C85 C 0.59379 0.68748 0.64273
 C86 C 0.61017 0.65913 0.65736
 C87 C 0.59713 0.64423 0.68726
 C88 C 0.61473 0.61706 0.70284
 C89 C 0.64503 0.60424 0.68782
 H90 H 0.69449 0.65892 0.57467
 H91 H 0.70109 0.58403 0.65459
 H92 H 0.64850 0.70052 0.57553
 H93 H 0.57077 0.69768 0.65479
 H94 H 0.57391 0.65441 0.69897
 H95 H 0.65856 0.58314 0.69962
 C96 C 0.84172 0.33739 0.11933
 C97 C 0.81296 0.35179 0.10307
 C98 C 0.79790 0.38217 0.11519
 C99 C 0.81286 0.39842 0.14369
 C100 C 0.84104 0.38370 0.16085
 C101 C 0.85532 0.35291 0.14876
 C102 C 0.85675 0.30740 0.10677
 C103 C 0.88448 0.29165 0.12398
 C104 C 0.89704 0.30677 0.15413
 C105 C 0.88300 0.33745 0.16627
 C106 C 0.89616 0.35280 0.19578
 C107 C 0.88220 0.38354 0.20812
 C108 C 0.85471 0.39892 0.19032
 H109 H 0.80239 0.33914 0.08083
 H110 H 0.80185 0.42186 0.15344
 H111 H 0.84617 0.29598 0.08388
 H112 H 0.91830 0.29516 0.16788
 H113 H 0.91736 0.34065 0.20915
 H114 H 0.84358 0.42248 0.19963
 C115 C 0.34065 0.16114 0.88138
 C116 C 0.31158 0.14706 0.89738
 C117 C 0.29670 0.11654 0.88543
 C118 C 0.31197 0.10000 0.85722
 C119 C 0.34044 0.11440 0.84028
 C120 C 0.35474 0.14516 0.85235
 C121 C 0.35557 0.19126 0.89374
 C122 C 0.38378 0.20619 0.87685
 C123 C 0.39709 0.19069 0.84738
 C124 C 0.38295 0.16013 0.83521
 C125 C 0.39645 0.14451 0.80601
 C126 C 0.38226 0.11398 0.79350
 C127 C 0.35440 0.09892 0.81103
 H128 H 0.30069 0.15999 0.91933
 H129 H 0.30102 0.07651 0.84753
 H130 H 0.34485 0.20345 0.91619
 H131 H 0.41883 0.20215 0.83422
 H132 H 0.41797 0.15639 0.79291
 H133 H 0.34316 0.07546 0.80164
 C134 C 0.15582 0.83916 0.38652
 C135 C 0.18619 0.85258 0.40091
 C136 C 0.20318 0.88034 0.38567
 C137 C 0.18931 0.89462 0.35581
 C138 C 0.15896 0.88163 0.34133
 C139 C 0.14195 0.85394 0.35681
 C140 C 0.13956 0.81076 0.40100
 C141 C 0.10947 0.79666 0.38625
 C142 C 0.09522 0.81245 0.35718
 C143 C 0.11135 0.84079 0.34230
 C144 C 0.09786 0.85567 0.31260
 C145 C 0.11518 0.88283 0.29674
 C146 C 0.14566 0.89566 0.31129
 H147 H 0.19681 0.84109 0.42372
 H148 H 0.20214 0.91592 0.34366
 H149 H 0.15088 0.79938 0.42354
 H150 H 0.07203 0.80228 0.34547
 H151 H 0.07450 0.84547 0.30124
 H152 H 0.15899 0.91676 0.29927
 Zn153 Zn 0.00757 1.04151 -0.01820
 Zn154 Zn -0.02781 0.97377 -0.02607
 Zn155 Zn 0.04101 0.97911 0.00896
 Zn156 Zn -0.02163 1.00714 0.04264
 O157 O -0.00032 1.00030 0.00173
 O158 O -0.01229 1.04454 -0.05896
 O159 O -0.00749 0.93386 -0.03743
 O160 O 0.07721 1.00235 -0.00736
 O161 O -0.03851 0.99481 -0.06557
 O162 O 0.05260 1.04991 -0.02544
 O163 O 0.04288 0.93853 -0.01091
 O164 O 0.00170 0.98957 0.07779
 O165 O -0.06854 0.96299 -0.00628
 O166 O 0.04962 0.97103 0.05305
 O167 O -0.06339 0.98819 0.04400
 O168 O -0.02847 1.05117 0.05248
 O169 O -0.00894 1.07662 0.00602
 C170 C -0.03060 1.02425 -0.07646
 C171 C 0.02195 0.92189 -0.02935
 C172 C 0.07923 1.03158 -0.02088
 C173 C 0.03116 0.97546 0.07942
 C174 C -0.08059 0.97059 0.02289
 C175 C -0.02307 1.07787 0.03516
 Zn176 Zn 0.48215 0.00857 0.45657
 Zn177 Zn 0.47385 -0.02564 0.52488
 Zn178 Zn 0.54325 -0.02146 0.49121
 Zn179 Zn 0.51044 0.04154 0.51846
 O180 O 0.50232 0.00067 0.49787
 O181 O 0.44088 -0.01141 0.45342
 O182 O 0.49348 -0.06560 0.53720
 O183 O 0.55186 -0.03066 0.44734
 O184 O 0.43414 -0.03663 0.50353
 O185 O 0.50692 -0.00726 0.42144
 O186 O 0.54444 -0.06161 0.51174
 O187 O 0.55555 0.04940 0.52562
 O188 O 0.46193 -0.00451 0.56404
 O189 O 0.57973 0.00166 0.50718
 O190 O 0.49024 0.04429 0.55915
 O191 O 0.49416 0.07723 0.49493
 O192 O 0.47469 0.05267 0.44800
 C193 C 0.42325 -0.02946 0.47385
 C194 C 0.52301 -0.07786 0.52993
 C195 C 0.53514 -0.02370 0.42046
 C196 C 0.58203 0.03091 0.52069
 C197 C 0.47060 0.02443 0.57572
 C198 C 0.47995 0.07903 0.46589
 Zn199 Zn 1.01017 0.45908 0.48245
 Zn200 Zn 1.04344 0.52167 0.50947
 Zn201 Zn 0.97438 0.52666 0.47463
 Zn202 Zn 0.98103 0.49356 0.54336
 O203 O 1.00216 0.50033 0.50236
 O204 O 1.05522 0.45075 0.47511
 O205 O 1.04512 0.56208 0.48929
 O206 O 0.96300 0.50518 0.43548
 O207 O 1.07967 0.49838 0.49321
 O208 O 0.98992 0.45575 0.44185
 O209 O 0.99478 0.56627 0.46262
 O210 O 0.93972 0.51331 0.54523
 O211 O 1.05221 0.52994 0.55356
 O212 O 0.93407 0.53825 0.49493
 O213 O 1.00476 0.51066 0.57850
 O214 O 0.97354 0.44960 0.55287
 O215 O 0.99387 0.42403 0.50677
 C216 C 1.08180 0.46912 0.47973
 C217 C 1.02416 0.57840 0.47059
 C218 C 0.97101 0.47572 0.42460
 C219 C 0.92249 0.53118 0.52439
 C220 C 1.03405 0.52508 0.58004
 C221 C 0.97922 0.42284 0.53566
 Zn222 Zn 0.47984 0.49212 0.95751
 Zn223 Zn 0.47372 0.52523 1.02630
 Zn224 Zn 0.50893 0.45733 1.01816
 Zn225 Zn 0.54262 0.51964 0.99112
 O226 O 0.50118 0.49866 0.99840
 O227 O 0.43863 0.51209 0.95593
 O228 O 0.46221 0.50377 1.06538
 O229 O 0.49248 0.42240 0.99372
 O230 O 0.43346 0.53735 1.00617
 O231 O 0.47215 0.44824 0.94784
 O232 O 0.48863 0.45409 1.05876
 O233 O 0.57869 0.49613 1.00727
 O234 O 0.49465 0.56450 1.03853
 O235 O 0.55393 0.44877 1.02559
 O236 O 0.54479 0.55993 1.01148
 O237 O 0.55126 0.52798 0.94703
 O238 O 0.50348 0.50922 0.92234
 C239 C 0.42167 0.53024 0.97680
 C240 C 0.46998 0.47423 1.07614
 C241 C 0.47778 0.42139 0.96486
 C242 C 0.58062 0.46697 1.02094
 C243 C 0.52415 0.57633 1.03049
 C244 C 0.53287 0.52341 0.92067
 C245 C 1.21045 0.42130 0.43127
 N246 N 1.22269 0.39018 0.44007
 N247 N 1.25204 0.37846 0.42667
 C248 C 1.27009 0.39708 0.40348
 N249 N 1.25766 0.42829 0.39477
 N250 N 1.22859 0.44027 0.40858
 C251 C 1.17753 0.43373 0.44511
 N252 N 1.17115 0.46762 0.44750
 N253 N 1.14086 0.47885 0.45925
 C254 C 1.11569 0.45661 0.46850
 N255 N 1.12201 0.42272 0.46598
 N256 N 1.15251 0.41148 0.45476
 C257 C 0.29363 0.58130 0.92981
 N258 N 0.27660 0.60710 0.94561
 N259 N 0.24741 0.61960 0.93243
 C260 C 0.23409 0.60678 0.90298
 N261 N 0.25124 0.58081 0.88750
 N262 N 0.28037 0.56841 0.90056
 C263 C 0.32638 0.56779 0.94315
 N264 N 0.34422 0.54445 0.92472
 N265 N 0.37435 0.53245 0.93580
 C266 C 0.38780 0.54318 0.96585
 N267 N 0.36991 0.56642 0.98453
 N268 N 0.33971 0.57858 0.97333
 C269 C -0.21205 0.92498 0.06611
 N270 N -0.22903 0.89932 0.05007
 N271 N -0.25867 0.88731 0.06266
 C272 C -0.27251 0.90056 0.09166
 N273 N -0.25557 0.92645 0.10736
 N274 N -0.22595 0.93838 0.09488
 C275 C -0.17843 0.93730 0.05377
 N276 N -0.16022 0.95988 0.07275
 N277 N -0.12919 0.97047 0.06263
 C278 C -0.11519 0.95900 0.03307
 N279 N -0.13346 0.93655 0.01386
 N280 N -0.16453 0.92580 0.02409
 C281 C 0.71074 0.07857 0.56873
 N282 N 0.72919 0.05934 0.59094
 N283 N 0.75817 0.07134 0.60484
 C284 C 0.77017 0.10285 0.59672
 N285 N 0.75182 0.12175 0.57401
 N286 N 0.72256 0.10999 0.56052
 C287 C 0.67786 0.06615 0.55488
 N288 N 0.65271 0.08842 0.54557
 N289 N 0.62222 0.07721 0.53443
 C290 C 0.61600 0.04333 0.53167
 N291 N 0.64130 0.02106 0.54057
 N292 N 0.67160 0.03227 0.55222
 C293 C 0.42975 0.20443 0.41631
 N294 N 0.43780 0.21575 0.38465
 N295 N 0.42425 0.24463 0.37289
 C296 C 0.40161 0.26306 0.39203
 N297 N 0.39352 0.25143 0.42368
 N298 N 0.40749 0.22285 0.43568
 C299 C 0.44417 0.17237 0.42914
 N300 N 0.44744 0.16697 0.46314
 N301 N 0.45966 0.13749 0.47482
 C302 C 0.46856 0.11219 0.45294
 N303 N 0.46520 0.11755 0.41894
 N304 N 0.45350 0.14723 0.40724
 C305 C 0.92914 0.29756 0.58571
 N306 N 0.91533 0.27456 0.56379
 N307 N 0.90161 0.24568 0.57530
 C308 C 0.90152 0.23855 0.60915
 N309 N 0.91559 0.26147 0.63104
 N310 N 0.92895 0.29054 0.61956
 C311 C 0.94340 0.32975 0.57302
 N312 N 0.95166 0.33336 0.53960
 N313 N 0.96378 0.36284 0.52787
 C314 C 0.96775 0.38988 0.54905
 N315 N 0.95947 0.38628 0.58248
 N316 N 0.94772 0.35667 0.59429
 C317 C 0.06750 0.79297 -0.07492
 N318 N 0.05244 0.77668 -0.10154
 N319 N 0.06560 0.74755 -0.11328
 C320 C 0.09428 0.73348 -0.09885
 N321 N 0.10890 0.74977 -0.07191
 N322 N 0.09586 0.77889 -0.06026
 C323 C 0.05455 0.82599 -0.06278
 N324 N 0.07294 0.84366 -0.03929
 N325 N 0.06227 0.87408 -0.02874
 C326 C 0.03273 0.88802 -0.04114
 N327 N 0.01409 0.87030 -0.06453
 N328 N 0.02490 0.83983 -0.07525
 C329 C 0.57089 0.70365 1.07882
 N330 N 0.55638 0.71913 1.10624
 N331 N 0.56911 0.74843 1.11791
 C332 C 0.59675 0.76351 1.10259
 N333 N 0.61097 0.74792 1.07499
 N334 N 0.59838 0.71860 1.06343
 C335 C 0.55789 0.67088 1.06623
 N336 N 0.57580 0.65382 1.04190
 N337 N 0.56479 0.62380 1.03062
 C338 C 0.53534 0.60973 1.04308
 N339 N 0.51721 0.62682 1.06733
 N340 N 0.52837 0.65686 1.07878
 C341 C 0.42122 0.42567 1.20289
 N342 N 0.43301 0.39532 1.21453
 N343 N 0.42131 0.38247 1.24369
 C344 C 0.39728 0.39939 1.26246
 N345 N 0.38553 0.42988 1.25079
 N346 N 0.39729 0.44280 1.22158
 C347 C 0.43394 0.43907 1.17026
 N348 N 0.42366 0.46995 1.15836
 N349 N 0.43519 0.48146 1.12845
 C350 C 0.45731 0.46243 1.10940
 N351 N 0.46753 0.43164 1.12138
 N352 N 0.45612 0.42021 1.15122
 C353 C 0.58004 -0.07484 0.29366
 N354 N 0.58399 -0.05433 0.26613
 N355 N 0.59423 -0.06717 0.23635
 C356 C 0.60024 -0.10106 0.23291
 N357 N 0.59594 -0.12159 0.26037
 N358 N 0.58624 -0.10868 0.29027
 C359 C 0.56927 -0.06081 0.32660
 N360 N 0.57820 -0.07670 0.35598
 N361 N 0.56800 -0.06434 0.38596
 C362 C 0.54812 -0.03590 0.38757
 N363 N 0.53908 -0.02004 0.35817
 N364 N 0.54975 -0.03211 0.32821
 C365 C -0.07773 1.07210 -0.20396
 N366 N -0.10187 1.05522 -0.22255
 N367 N -0.11355 1.06825 -0.25174
 C368 C -0.10150 1.09859 -0.26347
 N369 N -0.07722 1.11522 -0.24483
 N370 N -0.06560 1.10227 -0.21570
 C371 C -0.06529 1.05877 -0.17123
 N372 N -0.04315 1.07760 -0.15218
 N373 N -0.03213 1.06635 -0.12214
 C374 C -0.04273 1.03578 -0.10997
 N375 N -0.06480 1.01676 -0.12904
 N376 N -0.07594 1.02810 -0.15914
 C377 C 1.08155 0.57636 0.70596
 N378 N 1.05882 0.58960 0.72881
 N379 N 1.06999 0.60292 0.75804
 C380 C 1.10428 0.60315 0.76564
 N381 N 1.12693 0.58973 0.74280
 N382 N 1.11581 0.57676 0.71344
 C383 C 1.06938 0.56223 0.67350
 N384 N 1.09166 0.55773 0.64712
 N385 N 1.08050 0.54564 0.61737
 C386 C 1.04672 0.53720 0.61310
 N387 N 1.02451 0.54141 0.63958
 N388 N 1.03560 0.55385 0.66921
 C389 C 0.79387 0.58107 0.57126
 N390 N 0.77577 0.60543 0.55440
 N391 N 0.74633 0.61764 0.56734
 C392 C 0.73388 0.60593 0.59756
 N393 N 0.75205 0.58147 0.61418
 N394 N 0.78143 0.56934 0.60134
 C395 C 0.82682 0.56788 0.55805
 N396 N 0.84537 0.54556 0.57702
 N397 N 0.87564 0.53384 0.56596
 C398 C 0.88855 0.54386 0.53544
 N399 N 0.86996 0.56609 0.51625
 N400 N 0.83961 0.57794 0.52740
 C401 C 0.70851 0.41940 1.07129
 N402 N 0.72073 0.38816 1.06285
 N403 N 0.74995 0.37652 1.07653
 C404 C 0.76789 0.39534 1.09965
 N405 N 0.75546 0.42665 1.10804
 N406 N 0.72652 0.43855 1.09395
 C407 C 0.67579 0.43176 1.05700
 N408 N 0.66955 0.46563 1.05414
 N409 N 0.63947 0.47679 1.04188
 C410 C 0.61437 0.45449 1.03253
 N411 N 0.62055 0.42062 1.03552
 N412 N 0.65085 0.40945 1.04726
 C413 C 0.20722 1.07932 -0.07084
 N414 N 0.21919 1.11068 -0.06260
 N415 N 0.24842 1.12236 -0.07624
 C416 C 0.26661 1.10344 -0.09913
 N417 N 0.25442 1.07200 -0.10732
 N418 N 0.22547 1.06008 -0.09327
 C419 C 0.17449 1.06690 -0.05661
 N420 N 0.16833 1.03302 -0.05379
 N421 N 0.13822 1.02181 -0.04164
 C422 C 0.11303 1.04406 -0.03235
 N423 N 0.11913 1.07795 -0.03529
 N424 N 0.14945 1.08917 -0.04693
 C425 C 0.29559 -0.08050 0.42609
 N426 N 0.28323 -0.06936 0.39576
 N427 N 0.25387 -0.08172 0.38316
 C428 C 0.23565 -0.10581 0.40028
 N429 N 0.24806 -0.11694 0.43071
 N430 N 0.27746 -0.10451 0.44341
 C431 C 0.32837 -0.06700 0.43927
 N432 N 0.34075 -0.07650 0.47023
 N433 N 0.37086 -0.06436 0.48157
 C434 C 0.38962 -0.04238 0.46228
 N435 N 0.37716 -0.03290 0.43142
 N436 N 0.34709 -0.04493 0.42016
 C437 C 0.56669 -0.20696 0.57640
 N438 N 0.59495 -0.22131 0.56176
 N439 N 0.60766 -0.25054 0.57336
 C440 C 0.59281 -0.26670 0.60024
 N441 N 0.56422 -0.25239 0.61467
 N442 N 0.55137 -0.22312 0.60297
 C443 C 0.55421 -0.17382 0.56422
 N444 N 0.52451 -0.15965 0.57630
 N445 N 0.51415 -0.12913 0.56537
 C446 C 0.53330 -0.11169 0.54217
 N447 N 0.56289 -0.12594 0.53020
 N448 N 0.57310 -0.15640 0.54094
 C449 C 1.06875 0.70708 0.42388
 N450 N 1.09724 0.72128 0.43815
 N451 N 1.10993 0.75045 0.42636
 C452 C 1.09480 0.76668 0.39968
 N453 N 1.06600 0.75249 0.38562
 N454 N 1.05319 0.72331 0.39750
 C455 C 1.05613 0.67406 0.43622
 N456 N 1.02642 0.66005 0.42410
 N457 N 1.01586 0.62963 0.43509
 C458 C 1.03479 0.61214 0.45840
 N459 N 1.06440 0.62623 0.47044
 N460 N 1.07483 0.65660 0.45962
 C461 C -0.07285 1.20275 0.08666
 N462 N -0.09515 1.22124 0.06747
 N463 N -0.10904 1.24980 0.07963
 C464 C -0.10083 1.26136 0.11128
 N465 N -0.07815 1.24288 0.13027
 N466 N -0.06468 1.21399 0.11833
 C467 C -0.05844 1.17081 0.07347
 N468 N -0.04934 1.14531 0.09499
 N469 N -0.03777 1.11573 0.08282
 C470 C -0.03433 1.11084 0.04874
 N471 N -0.04299 1.13652 0.02726
 N472 N -0.05508 1.16588 0.03940
 C473 C 0.42718 0.29665 0.91386
 N474 N 0.41306 0.27365 0.93557
 N475 N 0.39917 0.24495 0.92378
 C476 C 0.39919 0.23801 0.88988
 N477 N 0.41357 0.26094 0.86821
 N478 N 0.42711 0.28983 0.87996
 C479 C 0.44159 0.32868 0.92682
 N480 N 0.44614 0.35569 0.90574
 N481 N 0.45801 0.38517 0.91779
 C482 C 0.46619 0.38855 0.95125
 N483 N 0.46201 0.36142 0.97224
 N484 N 0.44976 0.33207 0.96028
 C485 C 0.57970 0.57544 0.79486
 N486 N 0.55690 0.58885 0.77224
 N487 N 0.56796 0.60229 0.74303
 C488 C 0.60221 0.60246 0.73523
 N489 N 0.62494 0.58888 0.75785
 N490 N 0.61392 0.57580 0.78718
 C491 C 0.56768 0.56113 0.82727
 N492 N 0.59014 0.55632 0.85342
 N493 N 0.57915 0.54404 0.88314
 C494 C 0.54538 0.53568 0.88761
 N495 N 0.52298 0.54019 0.86136
 N496 N 0.53390 0.55283 0.83176
 C497 C 0.42085 0.07214 0.70248
 N498 N 0.43340 0.10189 0.71486
 N499 N 0.42133 0.11484 0.74385
 C500 C 0.39615 0.09864 0.76171
 N501 N 0.38365 0.06872 0.74934
 N502 N 0.39579 0.05569 0.72028
 C503 C 0.43392 0.05881 0.66994
 N504 N 0.42273 0.02863 0.65708
 N505 N 0.43450 0.01733 0.62716
 C506 C 0.45778 0.03589 0.60905
 N507 N 0.46892 0.06596 0.62200
 N508 N 0.45727 0.07717 0.65185
 C509 C 0.07898 0.92407 0.20504
 N510 N 0.05648 0.91060 0.22793
 N511 N 0.06791 0.89731 0.25705
 C512 C 0.10223 0.89734 0.26450
 N513 N 0.12465 0.91099 0.24162
 N514 N 0.11327 0.92393 0.21237
 C515 C 0.06663 0.93816 0.17268
 N516 N 0.08892 0.94307 0.14640
 N517 N 0.07768 0.95519 0.11672
 C518 C 0.04381 0.96327 0.11242
 N519 N 0.02157 0.95865 0.13880
 N520 N 0.03274 0.94617 0.16836
 C521 C 0.92089 0.42602 0.29877
 N522 N 0.89648 0.44278 0.28040
 N523 N 0.88427 0.42947 0.25153
 C524 C 0.89602 0.39895 0.23990
 N525 N 0.92053 0.38240 0.25833
 N526 N 0.93268 0.39563 0.28715
 C527 C 0.93410 0.43981 0.33106
 N528 N 0.95682 0.42131 0.34977
 N529 N 0.96858 0.43302 0.37938
 C530 C 0.95819 0.46375 0.39144
 N531 N 0.93555 0.48243 0.37270
 N532 N 0.92367 0.47064 0.34302
   
