data_POSCAR
  _audit_creation_date              2014-09-24
  _audit_creation_method            'ToBaCCo'
  _symmetry_space_group_name_H-M    'P1'
  _symmetry_Int_Tables_number       1
  _symmetry_cell_setting            triclinic
  loop_
  _symmetry_equiv_pos_as_xyz
 x,y,z
_cell_length_a 72.3371
_cell_length_b 72.3728
_cell_length_c 20.8613
_cell_angle_alpha 90.023700
_cell_angle_beta 89.998300
_cell_angle_gamma 119.933500
loop_
  _atom_site_label
  _atom_site_type_symbol
  _atom_site_fract_x
  _atom_site_fract_y
  _atom_site_fract_z
C1 C 0.23089 0.49641 0.46721
 C2 C 0.23271 0.49993 0.53498
 C3 C 0.25095 0.50217 0.56673
 C4 C 0.26665 0.49953 0.53497
 C5 C 0.26459 0.49582 0.46781
 C6 C 0.24674 0.49394 0.43558
 H7 H 0.24627 0.49236 0.38383
 H8 H 0.25174 0.50362 0.61849
 C9 C 0.50267 -0.26572 0.46577
 C10 C 0.50198 -0.26589 0.53394
 C11 C 0.50176 -0.24908 0.56683
 C12 C 0.50247 -0.23165 0.53456
 C13 C 0.50269 -0.23171 0.46635
 C14 C 0.50263 -0.24866 0.43344
 H15 H 0.50314 -0.24813 0.38150
 H16 H 0.50163 -0.24945 0.61879
 C17 C 1.26697 0.76775 0.46427
 C18 C 1.26725 0.76715 0.53256
 C19 C 1.25046 0.75010 0.56536
 C20 C 1.23320 0.73361 0.53264
 C21 C 1.23264 0.73418 0.46502
 C22 C 1.24936 0.75117 0.43196
 H23 H 1.24883 0.75098 0.38002
 H24 H 1.25066 0.74982 0.61734
 C25 C 0.76500 0.49626 0.46736
 C26 C 0.76650 0.49900 0.53505
 C27 C 0.75054 0.50124 0.56700
 C28 C 0.73267 0.49965 0.53465
 C29 C 0.73142 0.49674 0.46698
 C30 C 0.74744 0.49491 0.43484
 H31 H 0.74686 0.49366 0.38297
 H32 H 0.75101 0.50222 0.61885
 C33 C 0.50283 0.26844 0.46744
 C34 C 0.49993 0.26714 0.53510
 C35 C 0.49835 0.24927 0.56730
 C36 C 0.50060 0.23334 0.53521
 C37 C 0.50331 0.23486 0.46752
 C38 C 0.50465 0.25244 0.43514
 H39 H 0.50589 0.25304 0.38327
 H40 H 0.49740 0.24879 0.61915
 C41 C 0.73215 0.23456 0.46662
 C42 C 0.73288 0.23401 0.53422
 C43 C 0.74989 0.25079 0.56708
 C44 C 0.76638 0.26837 0.53446
 C45 C 0.76574 0.26851 0.46615
 C46 C 0.74861 0.25173 0.43358
 H47 H 0.74825 0.25186 0.38161
 H48 H 0.74980 0.25032 0.61902
 O49 O 0.97063 0.45381 0.11906
 O50 O 0.94702 0.45801 0.05609
 C51 C 0.95138 0.44866 0.10185
 O52 O 1.02993 0.54879 0.11114
 O53 O 1.05351 0.54282 0.05393
 C54 C 1.04916 0.55351 0.09527
 O55 O 0.97018 0.51733 0.11644
 O56 O 0.94683 0.48887 0.05529
 C57 C 0.95101 0.50287 0.09994
 O58 O 1.03020 0.48173 0.11255
 O59 O 1.05352 0.51095 0.05403
 C60 C 1.04937 0.49620 0.09611
 Zr61 Zr 1.00034 0.47683 0.08005
 O62 O 1.00138 0.47474 0.18091
 O63 O 0.99960 0.44742 0.06953
 Zr64 Zr 1.00010 0.52349 0.08006
 O65 O 1.00227 0.52490 0.18136
 O66 O 0.99764 0.55145 0.07835
 O67 O 0.98127 0.49065 0.09287
 O68 O 1.01868 0.50945 0.09210
 O69 O 1.03044 0.48142 -0.11071
 O70 O 1.05380 0.51112 -0.05363
 C71 C 1.04963 0.49603 -0.09460
 O72 O 0.97024 0.51696 -0.11877
 O73 O 0.94686 0.48874 -0.05691
 C74 C 0.95106 0.50259 -0.10204
 O75 O 1.03007 0.54859 -0.11272
 O76 O 1.05358 0.54292 -0.05403
 C77 C 1.04930 0.55342 -0.09620
 O78 O 0.97056 0.45305 -0.11814
 O79 O 0.94704 0.45790 -0.05675
 C80 C 0.95133 0.44824 -0.10170
 Zr81 Zr 1.00036 0.47674 -0.08093
 O82 O 1.00282 0.47758 -0.18213
 O83 O 0.99836 0.44655 -0.07910
 Zr84 Zr 1.00012 0.52334 -0.08150
 O85 O 1.00250 0.52478 -0.18272
 O86 O 0.99759 0.55125 -0.08009
 Zr87 Zr 0.96830 0.48408 -0.00051
 Zr88 Zr 1.03202 0.51615 -0.00044
 O89 O 1.01874 0.50933 -0.09309
 O90 O 0.98122 0.49047 -0.09389
 O91 O 1.01953 0.48289 -0.00027
 O92 O 0.98146 0.51740 -0.00080
 O93 O 0.98158 0.46401 -0.00031
 O94 O 1.01919 0.53667 -0.00072
 H95 H 1.02819 0.51427 0.13004
 H96 H 0.97174 0.52335 -0.00102
 H97 H 1.02835 0.51409 -0.13079
 H98 H 0.97187 0.44836 -0.00011
 H99 H 1.00993 0.56237 0.05371
 H100 H 1.01006 0.56234 -0.05646
 H101 H 0.99112 0.51099 -0.19962
 H102 H 0.99127 0.47970 -0.19929
 H103 H 1.00964 0.44766 -0.04981
 H104 H 0.99923 0.44213 0.11356
 H105 H 1.00134 0.48738 0.19846
 H106 H 0.99020 0.51155 0.19835
 O107 O 0.45339 0.48290 0.11956
 O108 O 0.45794 0.51110 0.05812
 C109 C 0.44842 0.49719 0.10318
 O110 O 0.54898 0.51856 0.11011
 O111 O 0.54287 0.48917 0.05181
 C112 C 0.55368 0.50409 0.09328
 O113 O 0.51753 0.54696 0.11790
 O114 O 0.48896 0.54213 0.05757
 C115 C 0.50313 0.55185 0.10194
 O116 O 0.48135 0.45123 0.11166
 O117 O 0.51067 0.45724 0.05326
 C118 C 0.49581 0.44651 0.09493
 Zr119 Zr 0.47686 0.47662 0.08130
 O120 O 0.47727 0.47462 0.18246
 O121 O 0.44721 0.44806 0.07475
 Zr122 Zr 0.52356 0.52325 0.08056
 O123 O 0.52523 0.52222 0.18171
 O124 O 0.55154 0.55360 0.07895
 O125 O 0.49073 0.50947 0.09416
 O126 O 0.50950 0.49067 0.09233
 O127 O 0.48080 0.45104 -0.11044
 O128 O 0.51062 0.45723 -0.05421
 C129 C 0.49545 0.44642 -0.09500
 O130 O 0.51649 0.54670 -0.11777
 O131 O 0.48852 0.54199 -0.05479
 C132 C 0.50217 0.55153 -0.10044
 O133 O 0.54823 0.51869 -0.11320
 O134 O 0.54249 0.48935 -0.05561
 C135 C 0.55305 0.50425 -0.09727
 O136 O 0.45248 0.48267 -0.11571
 O137 O 0.45759 0.51109 -0.05414
 C138 C 0.44773 0.49710 -0.09883
 Zr139 Zr 0.47634 0.47653 -0.08002
 O140 O 0.47714 0.47520 -0.18130
 O141 O 0.44617 0.44836 -0.07834
 Zr142 Zr 0.52295 0.52320 -0.08108
 O143 O 0.52403 0.52214 -0.18236
 O144 O 0.55087 0.55360 -0.08026
 Zr145 Zr 0.48396 0.51589 0.00116
 Zr146 Zr 0.51588 0.48403 -0.00061
 O147 O 0.50889 0.49059 -0.09289
 O148 O 0.49006 0.50937 -0.09263
 O149 O 0.48261 0.46346 0.00030
 O150 O 0.51730 0.53591 0.00019
 O151 O 0.46389 0.48258 0.00127
 O152 O 0.53646 0.51733 -0.00090
 H153 H 0.51438 0.48586 0.12987
 H154 H 0.52328 0.55157 0.00009
 H155 H 0.51355 0.48575 -0.13085
 H156 H 0.44822 0.47658 0.00177
 H157 H 0.56241 0.55225 0.05381
 H158 H 0.56192 0.55229 -0.05607
 H159 H 0.51023 0.51986 -0.19881
 H160 H 0.47866 0.48867 -0.19809
 H161 H 0.44700 0.43868 -0.04647
 H162 H 0.44262 0.44336 0.11943
 H163 H 0.48085 0.48876 0.19966
 H164 H 0.51175 0.52051 0.19915
 O165 O 0.54719 0.02978 -0.11750
 O166 O 0.54240 0.05330 -0.05594
 C167 C 0.55206 0.04899 -0.10089
 O168 O 0.45172 -0.02966 -0.11306
 O169 O 0.45748 -0.05322 -0.05504
 C170 C 0.44691 -0.04888 -0.09681
 O171 O 0.48333 0.03013 -0.11860
 O172 O 0.51147 0.05343 -0.05629
 C173 C 0.49766 0.04928 -0.10156
 O174 O 0.51905 -0.02992 -0.11092
 O175 O 0.48938 -0.05337 -0.05405
 C176 C 0.50447 -0.04912 -0.09510
 Zr177 Zr 0.52365 0.00000 -0.08025
 O178 O 0.52416 -0.00205 -0.18138
 O179 O 0.55324 0.00099 -0.07176
 Zr180 Zr 0.47700 0.00022 -0.08189
 O181 O 0.47601 -0.00205 -0.18316
 O182 O 0.44906 0.00271 -0.08189
 O183 O 0.50990 0.01912 -0.09355
 O184 O 0.49109 -0.01835 -0.09329
 O185 O 0.51841 -0.03013 0.11167
 O186 O 0.48888 -0.05336 0.05389
 C187 C 0.50374 -0.04927 0.09556
 O188 O 0.48273 0.02986 0.11694
 O189 O 0.51118 0.05330 0.05592
 C190 C 0.49716 0.04905 0.10057
 O191 O 0.45115 -0.02997 0.11018
 O192 O 0.45713 -0.05332 0.05180
 C193 C 0.44643 -0.04915 0.09357
 O194 O 0.54672 0.02964 0.11872
 O195 O 0.54209 0.05318 0.05688
 C196 C 0.55158 0.04886 0.10225
 Zr197 Zr 0.52316 -0.00013 0.08105
 O198 O 0.52193 -0.00261 0.18226
 O199 O 0.55334 0.00180 0.08020
 Zr200 Zr 0.47648 0.00002 0.07970
 O201 O 0.47458 -0.00246 0.18086
 O202 O 0.44853 0.00251 0.07686
 Zr203 Zr 0.51609 0.03194 -0.00006
 Zr204 Zr 0.48413 -0.03169 -0.00086
 O205 O 0.49051 -0.01853 0.09198
 O206 O 0.50932 0.01895 0.09322
 O207 O 0.51738 -0.01919 0.00024
 O208 O 0.48274 0.01876 -0.00097
 O209 O 0.53615 0.01864 0.00061
 O210 O 0.46353 -0.01893 -0.00145
 H211 H 0.48642 -0.02789 -0.13116
 H212 H 0.47678 0.02846 -0.00114
 H213 H 0.48560 -0.02812 0.12971
 H214 H 0.55181 0.02832 0.00099
 H215 H 0.43811 -0.00939 -0.05672
 H216 H 0.43750 -0.01004 0.05336
 H217 H 0.48833 0.00884 0.19825
 H218 H 0.51976 0.00895 0.19912
 H219 H 0.55245 -0.00906 0.04958
 H220 H 0.55808 0.00090 -0.11615
 H221 H 0.51993 0.00798 -0.19890
 H222 H 0.48958 0.00979 -0.19972
 C223 C 1.19255 0.51284 0.40556
 C224 C 1.18305 0.49856 0.35475
 C225 C 1.18981 0.48402 0.33997
 C226 C 1.20574 0.48349 0.37644
 C227 C 1.21506 0.49734 0.42921
 C228 C 1.20849 0.51236 0.44218
 C229 C 1.16610 0.49855 0.31852
 C230 C 1.15172 0.49836 0.28870
 C231 C 1.13470 0.49795 0.25437
 C232 C 1.12002 0.49749 0.22560
 C233 C 1.10234 0.49688 0.19194
 C234 C 1.10596 0.51193 0.14433
 C235 C 1.08876 0.51160 0.11266
 C236 C 1.06764 0.49617 0.12827
 C237 C 1.06419 0.48098 0.17585
 C238 C 1.08143 0.48137 0.20743
 H239 H 1.18762 0.52435 0.41698
 H240 H 1.18255 0.47287 0.30070
 H241 H 1.21008 0.47155 0.36488
 H242 H 1.21590 0.52402 0.48006
 H243 H 1.12208 0.52402 0.13196
 H244 H 1.09202 0.52352 0.07629
 H245 H 1.04818 0.46889 0.18911
 H246 H 1.07843 0.46964 0.24423
 C247 C 0.51686 0.69339 0.41324
 C248 C 0.50444 0.68543 0.35792
 C249 C 0.49204 0.69414 0.33712
 C250 C 0.49173 0.71046 0.37211
 C251 C 0.50361 0.71820 0.42933
 C252 C 0.51659 0.70970 0.44836
 C253 C 0.50423 0.66818 0.32295
 C254 C 0.50396 0.65359 0.29415
 C255 C 0.50360 0.63642 0.26095
 C256 C 0.50335 0.62170 0.23302
 C257 C 0.50319 0.60413 0.20016
 C258 C 0.48773 0.59270 0.15350
 C259 C 0.48763 0.57564 0.12161
 C260 C 0.50305 0.56980 0.13603
 C261 C 0.51849 0.58138 0.18319
 C262 C 0.51854 0.59841 0.21495
 H263 H 0.52680 0.68700 0.42924
 H264 H 0.48238 0.68812 0.29425
 H265 H 0.48139 0.71632 0.35572
 H266 H 0.52701 0.71599 0.48953
 H267 H 0.47575 0.59697 0.14173
 H268 H 0.47551 0.56708 0.08568
 H269 H 0.53058 0.57735 0.19552
 H270 H 0.53057 0.60714 0.25102
 C271 C 0.29543 -0.19144 0.33647
 C272 C 0.31671 -0.18308 0.35488
 C273 C 0.32163 -0.19133 0.40866
 C274 C 0.30533 -0.20767 0.44446
 C275 C 0.28371 -0.21593 0.42762
 C276 C 0.27910 -0.20778 0.37212
 C277 C 0.33345 -0.16593 0.31880
 C278 C 0.34739 -0.15145 0.28875
 C279 C 0.36369 -0.13437 0.25387
 C280 C 0.37765 -0.11969 0.22448
 C281 C 0.39442 -0.10204 0.19001
 C282 C 0.39961 -0.08114 0.20492
 C283 C 0.41630 -0.06393 0.17289
 C284 C 0.42808 -0.06740 0.12544
 C285 C 0.42255 -0.08851 0.11023
 C286 C 0.40584 -0.10569 0.14235
 H287 H 0.29143 -0.18518 0.29488
 H288 H 0.33809 -0.18519 0.42283
 H289 H 0.30980 -0.21423 0.48421
 H290 H 0.26278 -0.21337 0.35751
 H291 H 0.39087 -0.07813 0.24174
 H292 H 0.42010 -0.04793 0.18587
 H293 H 0.43125 -0.09179 0.07401
 H294 H 0.40197 -0.12180 0.13041
 C295 C 0.79549 0.48187 0.34856
 C296 C 0.81626 0.49903 0.35598
 C297 C 0.82017 0.51558 0.39846
 C298 C 0.80345 0.51484 0.43400
 C299 C 0.78265 0.49743 0.42789
 C300 C 0.77874 0.48110 0.38415
 C301 C 0.83362 0.49953 0.32089
 C302 C 0.84827 0.49995 0.29211
 C303 C 0.86553 0.50045 0.25899
 C304 C 0.88033 0.50089 0.23106
 C305 C 0.89805 0.50142 0.19803
 C306 C 0.91894 0.51702 0.21342
 C307 C 0.93619 0.51752 0.18157
 C308 C 0.93276 0.50240 0.13377
 C309 C 0.91167 0.48676 0.11871
 C310 C 0.89446 0.48630 0.15066
 H311 H 0.79228 0.46900 0.31575
 H312 H 0.83616 0.52896 0.40442
 H313 H 0.80673 0.52774 0.46678
 H314 H 0.76281 0.46759 0.37860
 H315 H 0.92190 0.52879 0.25008
 H316 H 0.95219 0.52977 0.19441
 H317 H 0.90842 0.47485 0.08231
 H318 H 0.87835 0.47413 0.13845
 C319 C 0.48267 0.30327 0.39570
 C320 C 0.49918 0.31587 0.35311
 C321 C 0.51668 0.31270 0.34710
 C322 C 0.51778 0.29715 0.38395
 C323 C 0.50144 0.28470 0.42756
 C324 C 0.48373 0.28770 0.43253
 C325 C 0.49831 0.33223 0.31631
 C326 C 0.49766 0.34608 0.28603
 C327 C 0.49698 0.36247 0.25129
 C328 C 0.49646 0.37661 0.22232
 C329 C 0.49589 0.39368 0.18870
 C330 C 0.51109 0.40520 0.14153
 C331 C 0.51094 0.42223 0.11042
 C332 C 0.49555 0.42800 0.12621
 C333 C 0.48019 0.41614 0.17322
 C334 C 0.48039 0.39912 0.20422
 H335 H 0.46902 0.30555 0.40062
 H336 H 0.52954 0.32235 0.31426
 H337 H 0.53152 0.29503 0.37926
 H338 H 0.47082 0.27805 0.46518
 H339 H 0.52317 0.40113 0.12917
 H340 H 0.52298 0.43098 0.07444
 H341 H 0.46812 0.42010 0.18657
 H342 H 0.46856 0.39032 0.24073
 C343 C 0.70230 0.18952 0.34847
 C344 C 0.68111 0.18389 0.36095
 C345 C 0.67661 0.19520 0.40693
 C346 C 0.69322 0.21193 0.44076
 C347 C 0.71449 0.21741 0.42922
 C348 C 0.71892 0.20623 0.38230
 C349 C 0.66402 0.16636 0.32709
 C350 C 0.64978 0.15158 0.29883
 C351 C 0.63316 0.13421 0.26577
 C352 C 0.61900 0.11936 0.23749
 C353 C 0.60211 0.10165 0.20360
 C354 C 0.59693 0.08076 0.21857
 C355 C 0.58052 0.06355 0.18563
 C356 C 0.56907 0.06703 0.13714
 C357 C 0.57442 0.08813 0.12250
 C358 C 0.59082 0.10529 0.15553
 H359 H 0.70597 0.18089 0.31298
 H360 H 0.66027 0.19101 0.41685
 H361 H 0.68949 0.22052 0.47623
 H362 H 0.73521 0.21020 0.37277
 H363 H 0.60557 0.07776 0.25572
 H364 H 0.57683 0.04755 0.19817
 H365 H 0.56593 0.09142 0.08560
 H366 H 0.59469 0.12139 0.14356
 C367 C 0.48723 0.19134 -0.34005
 C368 C 0.50107 0.18388 -0.35673
 C369 C 0.51516 0.19314 -0.40804
 C370 C 0.51521 0.20959 -0.44321
 C371 C 0.50092 0.21693 -0.42832
 C372 C 0.48724 0.20780 -0.37512
 C373 C 0.50073 0.16658 -0.32169
 C374 C 0.50042 0.15199 -0.29299
 C375 C 0.50004 0.13478 -0.26000
 C376 C 0.49967 0.12000 -0.23222
 C377 C 0.49918 0.10227 -0.19941
 C378 C 0.48371 0.08140 -0.21533
 C379 C 0.48320 0.06413 -0.18362
 C380 C 0.49820 0.06754 -0.13543
 C381 C 0.51373 0.08862 -0.11986
 C382 C 0.51419 0.10585 -0.15168
 H383 H 0.47626 0.18428 -0.30031
 H384 H 0.52618 0.18771 -0.42078
 H385 H 0.52691 0.21692 -0.48097
 H386 H 0.47585 0.21273 -0.36206
 H387 H 0.47202 0.07845 -0.25226
 H388 H 0.47104 0.04815 -0.19683
 H389 H 0.52554 0.09185 -0.08312
 H390 H 0.52626 0.12195 -0.13903
 C391 C 0.70528 0.51456 -0.34036
 C392 C 0.68386 0.50121 -0.35647
 C393 C 0.67853 0.48707 -0.40793
 C394 C 0.69453 0.48641 -0.44362
 C395 C 0.71629 0.50012 -0.42904
 C396 C 0.72135 0.51395 -0.37593
 C397 C 0.66732 0.50200 -0.32030
 C398 C 0.65337 0.50262 -0.29044
 C399 C 0.63691 0.50328 -0.25600
 C400 C 0.62274 0.50378 -0.22707
 C401 C 0.60566 0.50427 -0.19317
 C402 C 0.60010 0.51971 -0.20832
 C403 C 0.58314 0.51987 -0.17670
 C404 C 0.57146 0.50453 -0.12944
 C405 C 0.57733 0.48920 -0.11413
 C406 C 0.59430 0.48908 -0.14584
 H407 H 0.70960 0.52557 -0.30053
 H408 H 0.66196 0.47643 -0.42025
 H409 H 0.68975 0.47463 -0.48130
 H410 H 0.73778 0.52493 -0.36314
 H411 H 0.60878 0.53153 -0.24493
 H412 H 0.57908 0.53189 -0.18970
 H413 H 0.56873 0.47717 -0.07800
 H414 H 0.59846 0.47705 -0.13375
 C415 C 0.80775 0.29738 -0.33956
 C416 C 0.81602 0.31855 -0.35889
 C417 C 0.80736 0.32322 -0.41215
 C418 C 0.79077 0.30677 -0.44678
 C419 C 0.78269 0.28524 -0.42932
 C420 C 0.79115 0.28088 -0.37405
 C421 C 0.83355 0.33546 -0.32451
 C422 C 0.84835 0.34963 -0.29609
 C423 C 0.86577 0.36621 -0.26308
 C424 C 0.88066 0.38038 -0.23501
 C425 C 0.89842 0.39734 -0.20149
 C426 C 0.91930 0.40247 -0.21654
 C427 C 0.93656 0.41900 -0.18409
 C428 C 0.93312 0.43062 -0.13604
 C429 C 0.91203 0.42530 -0.12129
 C430 C 0.89483 0.40879 -0.15382
 H431 H 0.81432 0.29359 -0.29827
 H432 H 0.81341 0.33959 -0.42694
 H433 H 0.78395 0.31103 -0.48631
 H434 H 0.78565 0.26464 -0.35895
 H435 H 0.92225 0.39371 -0.25340
 H436 H 0.95255 0.42266 -0.19670
 H437 H 0.90877 0.43392 -0.08472
 H438 H 0.87873 0.40496 -0.14182
 C439 C 0.49135 -0.20252 -0.33661
 C440 C 0.50438 -0.18133 -0.35547
 C441 C 0.51715 -0.17670 -0.41006
 C442 C 0.51672 -0.19320 -0.44615
 C443 C 0.50325 -0.21473 -0.42877
 C444 C 0.49087 -0.21905 -0.37254
 C445 C 0.50458 -0.16434 -0.31892
 C446 C 0.50467 -0.15011 -0.28862
 C447 C 0.50475 -0.13337 -0.25364
 C448 C 0.50484 -0.11895 -0.22438
 C449 C 0.50504 -0.10153 -0.19039
 C450 C 0.52068 -0.08054 -0.20431
 C451 C 0.52064 -0.06352 -0.17282
 C452 C 0.50490 -0.06724 -0.12686
 C453 C 0.48934 -0.08844 -0.11269
 C454 C 0.48943 -0.10545 -0.14432
 H455 H 0.48138 -0.20629 -0.29437
 H456 H 0.52756 -0.16032 -0.42459
 H457 H 0.52748 -0.18896 -0.48649
 H458 H 0.48010 -0.23529 -0.35750
 H459 H 0.53284 -0.07732 -0.23989
 H460 H 0.53286 -0.04744 -0.18493
 H461 H 0.47700 -0.09190 -0.07758
 H462 H 0.47724 -0.12164 -0.13316
 C463 C 0.30910 0.51375 -0.34092
 C464 C 0.31622 0.49951 -0.35595
 C465 C 0.30668 0.48501 -0.40616
 C466 C 0.29027 0.48487 -0.44179
 C467 C 0.28321 0.49949 -0.42848
 C468 C 0.29266 0.51367 -0.37647
 C469 C 0.33331 0.49971 -0.32007
 C470 C 0.34767 0.49968 -0.29078
 C471 C 0.36451 0.49946 -0.25725
 C472 C 0.37891 0.49913 -0.22916
 C473 C 0.39611 0.49860 -0.19618
 C474 C 0.40135 0.48294 -0.21156
 C475 C 0.41812 0.48242 -0.17992
 C476 C 0.42990 0.49757 -0.13231
 C477 C 0.42448 0.51326 -0.11719
 C478 C 0.40770 0.51374 -0.14895
 H479 H 0.31637 0.52505 -0.30202
 H480 H 0.31183 0.47367 -0.41758
 H481 H 0.28269 0.47281 -0.47847
 H482 H 0.28795 0.52531 -0.36462
 H483 H 0.39249 0.47115 -0.24809
 H484 H 0.42183 0.47014 -0.19279
 H485 H 0.43321 0.52520 -0.08092
 H486 H 0.40380 0.52595 -0.13671
 C487 C 1.18874 0.70445 -0.34692
 C488 C 1.18298 0.68319 -0.35851
 C489 C 1.19387 0.67838 -0.40518
 C490 C 1.21036 0.69477 -0.44036
 C491 C 1.21603 0.71612 -0.42948
 C492 C 1.20520 0.72083 -0.38208
 C493 C 1.16580 0.66635 -0.32277
 C494 C 1.15132 0.65235 -0.29287
 C495 C 1.13425 0.63600 -0.25801
 C496 C 1.11960 0.62203 -0.22855
 C497 C 1.10201 0.60526 -0.19388
 C498 C 1.08106 0.59991 -0.20885
 C499 C 1.06391 0.58326 -0.17648
 C500 C 1.06748 0.57169 -0.12861
 C501 C 1.08865 0.57738 -0.11340
 C502 C 1.10576 0.59403 -0.14586
 H503 H 1.18043 0.70836 -0.31093
 H504 H 1.18959 0.66199 -0.41444
 H505 H 1.21869 0.69082 -0.47611
 H506 H 1.20932 0.73719 -0.37296
 H507 H 1.07797 0.60849 -0.24594
 H508 H 1.04786 0.57933 -0.18948
 H509 H 1.09201 0.56884 -0.07686
 H510 H 1.12192 0.59804 -0.13385
 C511 C 0.80684 0.48463 -0.40809
 C512 C 0.81614 0.49879 -0.35696
 C513 C 0.80861 0.51258 -0.34029
 C514 C 0.79207 0.51246 -0.37529
 C515 C 0.78293 0.49873 -0.42840
 C516 C 0.79032 0.48447 -0.44319
 C517 C 0.83354 0.49927 -0.32210
 C518 C 0.84822 0.49967 -0.29358
 C519 C 0.86551 0.50013 -0.26080
 C520 C 0.88034 0.50053 -0.23313
 C521 C 0.89808 0.50103 -0.20033
 C522 C 0.91897 0.51653 -0.21606
 C523 C 0.93623 0.51705 -0.18424
 C524 C 0.93281 0.50204 -0.13611
 C525 C 0.91172 0.48647 -0.12078
 C526 C 0.89449 0.48600 -0.15271
 H527 H 0.81232 0.47364 -0.42080
 H528 H 0.81569 0.52360 -0.30067
 H529 H 0.78710 0.52382 -0.36228
 H530 H 0.78298 0.47273 -0.48085
 H531 H 0.92192 0.52823 -0.25292
 H532 H 0.95223 0.52922 -0.19730
 H533 H 0.90847 0.47464 -0.08413
 H534 H 0.87838 0.47391 -0.14022
 C535 C 0.48500 0.29437 -0.33945
 C536 C 0.49839 0.31580 -0.35524
 C537 C 0.51253 0.32119 -0.40669
 C538 C 0.51317 0.30523 -0.44268
 C539 C 0.49945 0.28347 -0.42840
 C540 C 0.48560 0.27835 -0.37532
 C541 C 0.49762 0.33228 -0.31872
 C542 C 0.49701 0.34617 -0.28855
 C543 C 0.49634 0.36256 -0.25376
 C544 C 0.49582 0.37668 -0.22458
 C545 C 0.49531 0.39371 -0.19048
 C546 C 0.51074 0.40530 -0.14394
 C547 C 0.51064 0.42228 -0.11225
 C548 C 0.49508 0.42791 -0.12680
 C549 C 0.47948 0.41597 -0.17318
 C550 C 0.47963 0.39901 -0.20479
 H551 H 0.47398 0.29001 -0.29965
 H552 H 0.52320 0.33776 -0.41876
 H553 H 0.52497 0.31006 -0.48034
 H554 H 0.47459 0.26191 -0.36276
 H555 H 0.52297 0.40134 -0.13252
 H556 H 0.52288 0.43109 -0.07681
 H557 H 0.46728 0.41985 -0.18560
 H558 H 0.46762 0.39015 -0.24080
 C559 C 0.68836 0.20330 -0.34687
 C560 C 0.68346 0.18231 -0.35893
 C561 C 0.69506 0.17823 -0.40498
 C562 C 0.71137 0.19506 -0.43926
 C563 C 0.71612 0.21614 -0.42810
 C564 C 0.70464 0.22014 -0.38116
 C565 C 0.66639 0.16496 -0.32450
 C566 C 0.65201 0.15045 -0.29584
 C567 C 0.63512 0.13344 -0.26251
 C568 C 0.62067 0.11887 -0.23425
 C569 C 0.60343 0.10138 -0.20077
 C570 C 0.59787 0.08040 -0.21588
 C571 C 0.58117 0.06336 -0.18342
 C572 C 0.56978 0.06708 -0.13526
 C573 C 0.57547 0.08826 -0.12050
 C574 C 0.59219 0.10528 -0.15309
 H575 H 0.67949 0.20663 -0.31132
 H576 H 0.69143 0.16204 -0.41457
 H577 H 0.72021 0.19168 -0.47472
 H578 H 0.70807 0.23628 -0.37190
 H579 H 0.60646 0.07721 -0.25277
 H580 H 0.57723 0.04729 -0.19607
 H581 H 0.56703 0.09171 -0.08384
 H582 H 0.59635 0.12147 -0.14108
 C583 C 1.20397 0.51194 -0.33702
 C584 C 1.18274 0.49710 -0.35120
 C585 C 1.17802 0.48288 -0.40215
 C586 C 1.19444 0.48366 -0.43940
 C587 C 1.21596 0.49892 -0.42689
 C588 C 1.22045 0.51277 -0.37414
 C589 C 1.16575 0.49664 -0.31412
 C590 C 1.15143 0.49633 -0.28378
 C591 C 1.13452 0.49601 -0.24917
 C592 C 1.11995 0.49576 -0.22044
 C593 C 1.10238 0.49547 -0.18724
 C594 C 1.08145 0.47985 -0.20200
 C595 C 1.06429 0.47989 -0.17143
 C596 C 1.06784 0.49562 -0.12562
 C597 C 1.08898 0.51114 -0.11063
 C598 C 1.10612 0.51106 -0.14132
 H599 H 1.20779 0.52303 -0.29764
 H600 H 1.16163 0.47116 -0.41309
 H601 H 1.19026 0.47201 -0.47728
 H602 H 1.23669 0.52486 -0.36297
 H603 H 1.07839 0.46773 -0.23757
 H604 H 1.04825 0.46770 -0.18413
 H605 H 1.09231 0.52347 -0.07560
 H606 H 1.12227 0.52324 -0.12962
 C607 C 0.51417 0.70276 -0.34488
 C608 C 0.49775 0.68192 -0.35682
 C609 C 0.48220 0.67817 -0.40295
 C610 C 0.48326 0.69519 -0.43776
 C611 C 0.50003 0.71607 -0.42712
 C612 C 0.51527 0.71976 -0.37967
 C613 C 0.49729 0.66441 -0.32285
 C614 C 0.49734 0.64991 -0.29459
 C615 C 0.49778 0.63312 -0.26167
 C616 C 0.49841 0.61889 -0.23365
 C617 C 0.49934 0.60198 -0.20027
 C618 C 0.48466 0.59075 -0.15165
 C619 C 0.48561 0.57438 -0.11906
 C620 C 0.50129 0.56901 -0.13471
 C621 C 0.51598 0.58042 -0.18373
 C622 C 0.51499 0.59680 -0.21622
 H623 H 0.52628 0.70582 -0.30929
 H624 H 0.46940 0.66211 -0.41247
 H625 H 0.47123 0.69207 -0.47366
 H626 H 0.52830 0.73575 -0.37073
 H627 H 0.47248 0.59464 -0.13891
 H628 H 0.47401 0.56592 -0.08172
 H629 H 0.52824 0.57671 -0.19704
 H630 H 0.52645 0.60542 -0.25378
 C631 C 0.31107 -0.20254 -0.34594
 C632 C 0.31508 -0.18168 -0.35473
 C633 C 0.30314 -0.17758 -0.39950
 C634 C 0.28739 -0.19425 -0.43579
 C635 C 0.28358 -0.21516 -0.42804
 C636 C 0.29534 -0.21922 -0.38222
 C637 C 0.33167 -0.16447 -0.31855
 C638 C 0.34572 -0.15006 -0.28863
 C639 C 0.36234 -0.13316 -0.25418
 C640 C 0.37667 -0.11866 -0.22534
 C641 C 0.39393 -0.10122 -0.19176
 C642 C 0.39954 -0.08022 -0.20673
 C643 C 0.41663 -0.06320 -0.17544
 C644 C 0.42841 -0.06695 -0.12870
 C645 C 0.42253 -0.08816 -0.11359
 C646 C 0.40540 -0.10516 -0.14499
 H647 H 0.32020 -0.20589 -0.31141
 H648 H 0.30609 -0.16151 -0.40656
 H649 H 0.27829 -0.19086 -0.47028
 H650 H 0.29258 -0.23524 -0.37542
 H651 H 0.39077 -0.07700 -0.24292
 H652 H 0.42070 -0.04711 -0.18827
 H653 H 0.43122 -0.09164 -0.07785
 H654 H 0.40121 -0.12136 -0.13309
 C655 C 0.48415 -0.19489 0.39971
 C656 C 0.50018 -0.18319 0.35476
 C657 C 0.51667 -0.18772 0.34528
 C658 C 0.51729 -0.20371 0.38109
 C659 C 0.50150 -0.21523 0.42713
 C660 C 0.48474 -0.21092 0.43557
 C661 C 0.50004 -0.16624 0.31917
 C662 C 0.50027 -0.15184 0.28956
 C663 C 0.50085 -0.13477 0.25520
 C664 C 0.50151 -0.12006 0.22621
 C665 C 0.50240 -0.10235 0.19217
 C666 C 0.51826 -0.08151 0.20692
 C667 C 0.51889 -0.06423 0.17496
 C668 C 0.50362 -0.06758 0.12775
 C669 C 0.48786 -0.08863 0.11281
 C670 C 0.48727 -0.10588 0.14487
 H671 H 0.47130 -0.19154 0.40733
 H672 H 0.52915 -0.17877 0.31063
 H673 H 0.53031 -0.20682 0.37384
 H674 H 0.47229 -0.21981 0.47032
 H675 H 0.53004 -0.07861 0.24347
 H676 H 0.53123 -0.04827 0.18770
 H677 H 0.47586 -0.09182 0.07677
 H678 H 0.47493 -0.12195 0.13307
 C679 C 0.31940 0.51459 0.39704
 C680 C 0.31535 0.49757 0.35644
 C681 C 0.29459 0.48028 0.35070
 C682 C 0.27798 0.47984 0.38619
 C683 C 0.28204 0.49664 0.42815
 C684 C 0.30282 0.51419 0.43248
 C685 C 0.33260 0.49769 0.32178
 C686 C 0.34716 0.49778 0.29347
 C687 C 0.36430 0.49785 0.26098
 C688 C 0.37897 0.49786 0.23360
 C689 C 0.39649 0.49780 0.20118
 C690 C 0.40217 0.48249 0.21680
 C691 C 0.41913 0.48233 0.18519
 C692 C 0.43063 0.49751 0.13740
 C693 C 0.42483 0.51290 0.12225
 C694 C 0.40787 0.51302 0.15397
 H695 H 0.33540 0.52808 0.40168
 H696 H 0.29129 0.46704 0.31934
 H697 H 0.26205 0.46621 0.38204
 H698 H 0.30622 0.52744 0.46386
 H699 H 0.39347 0.47065 0.25333
 H700 H 0.42315 0.47026 0.19805
 H701 H 0.43334 0.52484 0.08582
 H702 H 0.40361 0.52496 0.14158
 C703 C 1.17701 0.69640 0.40263
 C704 C 1.18129 0.68507 0.35616
 C705 C 1.20233 0.68995 0.34494
 C706 C 1.21903 0.70603 0.38024
 C707 C 1.21483 0.71733 0.42734
 C708 C 1.19371 0.71252 0.43794
 C709 C 1.16414 0.66835 0.32015
 C710 C 1.14983 0.65425 0.29006
 C711 C 1.13307 0.63765 0.25512
 C712 C 1.11868 0.62338 0.22577
 C713 C 1.10134 0.60622 0.19156
 C714 C 1.10538 0.59456 0.14569
 C715 C 1.08844 0.57753 0.11374
 C716 C 1.06721 0.57195 0.12739
 C717 C 1.06337 0.58394 0.17320
 C718 C 1.08033 0.60093 0.20501
 H719 H 1.16079 0.69278 0.41157
 H720 H 1.20582 0.68128 0.30911
 H721 H 1.23521 0.70952 0.37139
 H722 H 1.19018 0.72123 0.47350
 H723 H 1.12160 0.59852 0.13496
 H724 H 1.09198 0.56866 0.07881
 H725 H 1.04726 0.58012 0.18492
 H726 H 1.07703 0.60985 0.24047
 C727 C 0.48400 0.17972 0.39861
 C728 C 0.50055 0.18363 0.35616
 C729 C 0.51770 0.20440 0.34868
 C730 C 0.51845 0.22115 0.38421
 C731 C 0.50212 0.21724 0.42796
 C732 C 0.48472 0.19644 0.43409
 C733 C 0.50010 0.16626 0.32125
 C734 C 0.49972 0.15160 0.29264
 C735 C 0.49928 0.13435 0.25970
 C736 C 0.49890 0.11957 0.23190
 C737 C 0.49845 0.10187 0.19894
 C738 C 0.51363 0.10552 0.15174
 C739 C 0.51323 0.08835 0.11974
 C740 C 0.49759 0.06724 0.13459
 C741 C 0.48241 0.06377 0.18225
 C742 C 0.48286 0.08098 0.21415
 H743 H 0.47063 0.16372 0.40461
 H744 H 0.53057 0.20760 0.31589
 H745 H 0.53196 0.23707 0.37864
 H746 H 0.47182 0.19315 0.46688
 H747 H 0.52580 0.12163 0.13967
 H748 H 0.52519 0.09163 0.08344
 H749 H 0.47017 0.04776 0.19492
 H750 H 0.47104 0.07798 0.25069
 C751 C 0.69676 0.51703 0.39471
 C752 C 0.68419 0.50056 0.35197
 C753 C 0.68730 0.48303 0.34607
 C754 C 0.70278 0.48187 0.38317
 C755 C 0.71521 0.49817 0.42692
 C756 C 0.71226 0.51591 0.43179
 C757 C 0.66790 0.50149 0.31490
 C758 C 0.65411 0.50218 0.28442
 C759 C 0.63778 0.50291 0.24947
 C760 C 0.62367 0.50347 0.22037
 C761 C 0.60662 0.50407 0.18665
 C762 C 0.59498 0.48877 0.13984
 C763 C 0.57792 0.48891 0.10878
 C764 C 0.57226 0.50439 0.12428
 C765 C 0.58427 0.51987 0.17089
 C766 C 0.60131 0.51967 0.20184
 H767 H 0.69452 0.53070 0.39954
 H768 H 0.67767 0.47020 0.31312
 H769 H 0.70486 0.46811 0.37855
 H770 H 0.72189 0.52880 0.46454
 H771 H 0.59895 0.47660 0.12777
 H772 H 0.56906 0.47678 0.07313
 H773 H 0.58039 0.53201 0.18402
 H774 H 0.61020 0.53158 0.23807
 C775 C 0.79651 0.31258 0.34584
 C776 C 0.81735 0.31661 0.35553
 C777 C 0.82124 0.30442 0.39985
 C778 C 0.80439 0.28847 0.43507
 C779 C 0.78352 0.28472 0.42673
 C780 C 0.77965 0.29665 0.38106
 C781 C 0.83480 0.33357 0.32110
 C782 C 0.84943 0.34794 0.29280
 C783 C 0.86659 0.36491 0.26019
 C784 C 0.88128 0.37946 0.23265
 C785 C 0.89886 0.39689 0.20002
 C786 C 0.91984 0.40265 0.21607
 C787 C 0.93694 0.41955 0.18441
 C788 C 0.93328 0.43093 0.13612
 C789 C 0.91209 0.42504 0.12050
 C790 C 0.89502 0.40813 0.15227
 H791 H 0.79333 0.32192 0.31163
 H792 H 0.83730 0.30737 0.40758
 H793 H 0.80765 0.27925 0.46947
 H794 H 0.76366 0.29395 0.37384
 H795 H 0.92298 0.39406 0.25302
 H796 H 0.95302 0.42363 0.19763
 H797 H 0.90867 0.43345 0.08366
 H798 H 0.87884 0.40382 0.13953
   
