data_POSCAR
  _audit_creation_date              2014-09-24
  _audit_creation_method            'ToBaCCo'
  _symmetry_space_group_name_H-M    'P1'
  _symmetry_Int_Tables_number       1
  _symmetry_cell_setting            triclinic
  loop_
  _symmetry_equiv_pos_as_xyz
 x,y,z
_cell_length_a 27.9130
_cell_length_b 27.9209
_cell_length_c 27.9811
_cell_angle_alpha 90.047700
_cell_angle_beta 89.922900
_cell_angle_gamma 90.063100
loop_
  _atom_site_label
  _atom_site_type_symbol
  _atom_site_fract_x
  _atom_site_fract_y
  _atom_site_fract_z
C1 C 0.31440 0.37323 1.37896
 C2 C 0.33700 0.33230 1.39712
 C3 C 0.37795 0.31400 1.37450
 C4 C 0.39635 0.33679 1.33379
 C5 C 0.37379 0.37770 1.31563
 C6 C 0.33289 0.39594 1.33824
 H7 H 0.32233 0.31431 1.42827
 H8 H 0.42763 0.32236 1.31580
 H9 H 0.31513 0.42724 1.32368
 C10 C 1.18685 0.62562 0.87881
 C11 C 1.16401 0.66643 0.89707
 C12 C 1.12315 0.68462 0.87443
 C13 C 1.10504 0.66193 0.83361
 C14 C 1.12779 0.62115 0.81530
 C15 C 1.16864 0.60296 0.83792
 H16 H 1.17835 0.68447 0.92830
 H17 H 1.07381 0.67642 0.81571
 H18 H 1.18657 0.57175 0.82327
 C19 C 0.68613 -0.12657 0.12120
 C20 C 0.66756 -0.10391 0.16195
 C21 C 0.62663 -0.12226 0.18445
 C22 C 0.60411 -0.16322 0.16617
 C23 C 0.62258 -0.18596 0.12545
 C24 C 0.66357 -0.16756 0.10293
 H25 H 0.68528 -0.07256 0.17659
 H26 H 0.57279 -0.17772 0.18407
 H27 H 0.67828 -0.18549 0.07176
 C28 C -0.18520 1.12711 -0.37823
 C29 C -0.16702 1.10451 -0.33742
 C30 C -0.12614 1.12273 -0.31481
 C31 C -0.10332 1.16353 -0.33309
 C32 C -0.12145 1.18620 -0.37392
 C33 C -0.16239 1.16789 -0.39651
 H34 H -0.18506 1.07333 -0.32288
 H35 H -0.07204 1.17796 -0.31511
 H36 H -0.17694 1.18569 -0.42773
 C37 C 0.68445 0.62631 0.62011
 C38 C 0.66685 0.60315 0.66095
 C39 C 0.62600 0.62069 0.68421
 C40 C 0.60264 0.66138 0.66651
 C41 C 0.62017 0.68458 0.62569
 C42 C 0.66106 0.66697 0.60247
 H43 H 0.68534 0.57208 0.67504
 H44 H 0.57142 0.67540 0.68489
 H45 H 0.67507 0.68531 0.57127
 C46 C 0.81598 0.37288 0.12031
 C47 C 0.83365 0.39603 0.16112
 C48 C 0.87435 0.37829 0.18436
 C49 C 0.89750 0.33741 0.16669
 C50 C 0.87990 0.31418 0.12588
 C51 C 0.83914 0.33202 0.10267
 H52 H 0.81534 0.42725 0.17520
 H53 H 0.92861 0.32334 0.18514
 H54 H 0.82497 0.31379 0.07147
 C55 C 0.31353 0.12619 0.87961
 C56 C 0.33703 0.16694 0.89723
 C57 C 0.37788 0.18457 0.87394
 C58 C 0.39533 0.16135 0.83308
 C59 C 0.37192 0.12061 0.81539
 C60 C 0.33108 0.10301 0.83869
 H61 H 0.32319 0.18538 0.92848
 H62 H 0.42654 0.17539 0.81467
 H63 H 0.31265 0.07186 0.82452
 C64 C 0.18528 0.87448 0.37949
 C65 C 0.16207 0.83351 0.39696
 C66 C 0.12127 0.81575 0.37375
 C67 C 0.10359 0.83906 0.33314
 C68 C 0.12672 0.88003 0.31561
 C69 C 0.16749 0.89776 0.33882
 H70 H 0.17610 0.81499 0.42801
 H71 H 0.07243 0.82492 0.31478
 H72 H 0.18572 0.92908 0.32476
 Zn73 Zn -0.01005 0.94260 0.02963
 Zn74 Zn -0.05806 1.02941 -0.00947
 Zn75 Zn 0.03784 1.03855 0.03817
 Zn76 Zn 0.02904 0.99037 -0.05733
 O77 O -0.00023 1.00032 0.00033
 O78 O -0.07195 0.93060 0.04155
 O79 O -0.06204 1.08605 0.01984
 O80 O 0.05499 1.00958 0.09302
 O81 O -0.10772 0.99510 0.01248
 O82 O 0.01928 0.93892 0.08612
 O83 O 0.00863 1.09345 0.05523
 O84 O 0.08566 1.01981 -0.06137
 O85 O -0.06984 1.04129 -0.07122
 O86 O 0.09279 1.05571 0.00898
 O87 O -0.00515 1.01223 -0.10685
 O88 O 0.04102 0.92848 -0.06906
 O89 O 0.01206 0.89293 -0.00440
 C90 C -0.10939 0.95485 0.03333
 C91 C -0.03282 1.10932 0.04554
 C92 C 0.04517 0.96823 0.10910
 C93 C 0.10880 1.04581 -0.03233
 C94 C -0.04541 1.03308 -0.10853
 C95 C 0.03292 0.89116 -0.04461
 Zn96 Zn 0.55675 -0.02880 0.48958
 Zn97 Zn 0.46081 -0.03775 0.53733
 Zn98 Zn 0.50875 0.05814 0.52877
 Zn99 Zn 0.46984 0.01029 0.44178
 O100 O 0.49895 0.00039 0.49945
 O101 O 0.56062 -0.08541 0.51882
 O102 O 0.44357 -0.00870 0.59221
 O103 O 0.57063 0.07003 0.54071
 O104 O 0.48992 -0.09268 0.55433
 O105 O 0.60636 0.00545 0.51157
 O106 O 0.47926 0.06195 0.58528
 O107 O 0.45798 0.07219 0.43006
 O108 O 0.40592 -0.05487 0.50818
 O109 O 0.48683 0.10781 0.49472
 O110 O 0.41320 -0.01908 0.43781
 O111 O 0.50413 -0.01167 0.39221
 O112 O 0.56871 -0.04071 0.42783
 C113 C 0.53136 -0.10861 0.54457
 C114 C 0.45334 0.03268 0.60828
 C115 C 0.60803 0.04570 0.53247
 C116 C 0.46610 0.10954 0.45450
 C117 C 0.38999 -0.04500 0.46689
 C118 C 0.54439 -0.03253 0.39052
 Zn119 Zn 1.01061 0.44137 0.47088
 Zn120 Zn 1.05863 0.52848 0.50978
 Zn121 Zn 0.96284 0.53719 0.46196
 Zn122 Zn 0.97146 0.48951 0.55766
 O123 O 1.00081 0.49921 0.49999
 O124 O 1.07250 0.42948 0.45899
 O125 O 1.06260 0.58510 0.48049
 O126 O 0.94579 0.50797 0.40717
 O127 O 1.10824 0.49424 0.48779
 O128 O 0.98132 0.43735 0.41437
 O129 O 0.99204 0.59210 0.44488
 O130 O 0.91488 0.51897 0.56155
 O131 O 1.07050 0.54039 0.57152
 O132 O 0.90788 0.55436 0.49099
 O133 O 1.00571 0.51148 0.60718
 O134 O 0.95938 0.42767 0.56954
 O135 O 0.98848 0.39181 0.50508
 C136 C 1.10992 0.45390 0.46707
 C137 C 1.03341 0.60817 0.45467
 C138 C 0.95554 0.46654 0.39124
 C139 C 0.89181 0.54473 0.53232
 C140 C 1.04608 0.53223 0.60885
 C141 C 0.96755 0.39023 0.54526
 Zn142 Zn 0.49036 0.55821 0.97120
 Zn143 Zn 0.44231 0.47128 1.01041
 Zn144 Zn 0.53804 0.46227 0.96226
 Zn145 Zn 0.52958 0.51035 1.05789
 O146 O 0.50015 0.50045 1.00036
 O147 O 0.42847 0.57008 0.95943
 O148 O 0.43820 0.41462 0.98115
 O149 O 0.55510 0.49132 0.90738
 O150 O 0.39269 0.50549 0.98855
 O151 O 0.51962 0.56199 0.91461
 O152 O 0.50871 0.40736 0.94528
 O153 O 0.58613 0.48087 1.06160
 O154 O 0.43058 0.45945 1.07220
 O155 O 0.59300 0.44508 0.99115
 O156 O 0.49542 0.48845 1.10756
 O157 O 0.54173 0.57224 1.06964
 O158 O 0.51257 0.60789 1.00523
 C159 C 0.39104 0.54571 0.96767
 C160 C 0.46728 0.39142 0.95522
 C161 C 0.54535 0.53271 0.89143
 C162 C 0.60913 0.45491 1.03239
 C163 C 0.45510 0.46763 1.10941
 C164 C 0.53358 0.60961 1.04532
 C165 C 1.27338 0.38977 0.39956
 C166 C 1.23660 0.40427 0.41691
 C167 C 1.19298 0.42127 0.43594
 C168 C 1.15527 0.43599 0.45094
 C169 C 0.22780 0.60918 0.89950
 C170 C 0.26451 0.59482 0.91701
 C171 C 0.30805 0.57802 0.93626
 C172 C 0.34571 0.56348 0.95142
 C173 C -0.27284 0.89013 0.10067
 C174 C -0.23607 0.90479 0.08337
 C175 C -0.19246 0.92197 0.06439
 C176 C -0.15476 0.93682 0.04943
 C177 C 0.77150 0.10966 0.60000
 C178 C 0.73471 0.09520 0.58268
 C179 C 0.69108 0.07826 0.56365
 C180 C 0.65338 0.06359 0.54864
 C181 C 0.39855 0.27299 0.39092
 C182 C 0.41591 0.23622 0.40530
 C183 C 0.43496 0.19261 0.42216
 C184 C 0.44996 0.15491 0.43674
 C185 C 0.89936 0.22711 0.60951
 C186 C 0.91689 0.26378 0.59497
 C187 C 0.93612 0.30730 0.57792
 C188 C 0.95126 0.34493 0.56318
 C189 C 0.10117 0.72784 -0.10813
 C190 C 0.08367 0.76456 -0.09372
 C191 C 0.06442 0.80813 -0.07689
 C192 C 0.04924 0.84581 -0.06233
 C193 C 0.60195 0.77301 1.10891
 C194 C 0.58448 0.73624 1.09447
 C195 C 0.56522 0.69265 1.07760
 C196 C 0.54999 0.65496 1.06304
 C197 C 0.39136 0.39963 1.27250
 C198 C 0.40585 0.41709 1.23585
 C199 C 0.42275 0.43629 1.19234
 C200 C 0.43735 0.45141 1.15471
 C201 C 0.60891 -0.10037 0.22757
 C202 C 0.59426 -0.08296 0.26420
 C203 C 0.57713 -0.06382 0.30767
 C204 C 0.56234 -0.04874 0.34526
 C205 C -0.10881 1.10089 -0.27160
 C206 C -0.09449 1.08350 -0.23491
 C207 C -0.07772 1.06437 -0.19139
 C208 C -0.06318 1.04929 -0.15377
 C209 C 1.11038 0.59934 0.77205
 C210 C 1.09587 0.58208 0.73531
 C211 C 1.07882 0.56318 0.69175
 C212 C 1.06405 0.54828 0.65411
 C213 C 0.72780 0.60953 0.59777
 C214 C 0.76466 0.59538 0.58028
 C215 C 0.80843 0.57846 0.56145
 C216 C 0.84628 0.56346 0.54707
 C217 C 0.77278 0.38986 1.09797
 C218 C 0.73604 0.40411 1.08043
 C219 C 0.69239 0.42110 1.06152
 C220 C 0.65461 0.43613 1.04710
 C221 C 0.27255 1.11029 -0.09909
 C222 C 0.23578 1.09620 -0.08127
 C223 C 0.19211 1.07940 -0.06203
 C224 C 0.15431 1.06450 -0.04733
 C225 C 0.22624 -0.10953 0.40064
 C226 C 0.26300 -0.09539 0.41833
 C227 C 0.30668 -0.07855 0.43741
 C228 C 0.34448 -0.06365 0.45198
 C229 C 0.59765 -0.27225 0.60886
 C230 C 0.57993 -0.23553 0.59477
 C231 C 0.56082 -0.19188 0.57799
 C232 C 0.54624 -0.15410 0.56314
 C233 C 1.09900 0.77233 0.39043
 C234 C 1.08152 0.73542 0.40446
 C235 C 1.06268 0.69160 0.42123
 C236 C 1.04825 0.65372 0.43609
 C237 C -0.09900 1.27316 0.10994
 C238 C -0.08135 1.23636 0.09583
 C239 C -0.06231 1.19265 0.07902
 C240 C -0.04774 1.15484 0.06415
 C241 C 0.40050 0.22777 0.89078
 C242 C 0.41830 0.26450 0.90490
 C243 C 0.43752 0.30815 0.92173
 C244 C 0.45222 0.34593 0.93662
 C245 C 0.60930 0.59840 0.72752
 C246 C 0.59532 0.58085 0.76434
 C247 C 0.57865 0.56193 0.80808
 C248 C 0.56388 0.54747 0.84591
 C249 C 0.38865 0.09828 0.77207
 C250 C 0.40275 0.08076 0.73525
 C251 C 0.41962 0.06187 0.69154
 C252 C 0.43460 0.04745 0.65375
 C253 C 0.10983 0.90245 0.27249
 C254 C 0.09567 0.92006 0.23581
 C255 C 0.07879 0.93903 0.19223
 C256 C 0.06385 0.95349 0.15451
 C257 C 0.89115 0.40062 0.22761
 C258 C 0.90525 0.41817 0.26438
 C259 C 0.92207 0.43713 0.30805
 C260 C 0.93695 0.45164 0.34581
   
