data_POSCAR
  _audit_creation_date              2014-09-24
  _audit_creation_method            'ToBaCCo'
  _symmetry_space_group_name_H-M    'P1'
  _symmetry_Int_Tables_number       1
  _symmetry_cell_setting            triclinic
  loop_
  _symmetry_equiv_pos_as_xyz
 x,y,z
_cell_length_a 23.5719
_cell_length_b 23.5680
_cell_length_c 23.4550
_cell_angle_alpha 89.766300
_cell_angle_beta 89.917600
_cell_angle_gamma 89.919600
loop_
  _atom_site_label
  _atom_site_type_symbol
  _atom_site_fract_x
  _atom_site_fract_y
  _atom_site_fract_z
C1 C 0.16213 0.16253 0.23240
 C2 C 0.13770 0.21039 0.20662
 C3 C 0.16193 0.23365 0.15726
 C4 C 0.21071 0.20919 0.13362
 C5 C 0.23530 0.16131 0.15928
 C6 C 0.21099 0.13800 0.20872
 H7 H 0.09956 0.22915 0.22445
 H8 H 0.22901 0.22703 0.09504
 H9 H 0.22960 0.10053 0.22828
 C10 C -0.15722 0.83874 0.23789
 C11 C -0.20660 0.86287 0.21490
 C12 C -0.23248 0.83824 0.16734
 C13 C -0.20906 0.78943 0.14280
 C14 C -0.15974 0.76527 0.16573
 C15 C -0.13384 0.78988 0.21330
 H16 H -0.22447 0.90106 0.23342
 H17 H -0.22867 0.77078 0.10552
 H18 H -0.09529 0.77144 0.23058
 C19 C -0.16256 0.16029 -0.23664
 C20 C -0.13996 0.20978 -0.21271
 C21 C -0.16509 0.23356 -0.16415
 C22 C -0.21281 0.20792 -0.13958
 C23 C -0.23539 0.15850 -0.16341
 C24 C -0.21035 0.13470 -0.21195
 H25 H -0.10254 0.22933 -0.23124
 H26 H -0.23183 0.22593 -0.10159
 H27 H -0.22762 0.09606 -0.22993
 C28 C 0.16278 0.84211 -0.23485
 C29 C 0.13673 0.79351 -0.21230
 C30 C 0.15929 0.76702 -0.16383
 C31 C 0.20797 0.78900 -0.13789
 C32 C 0.23407 0.83753 -0.16036
 C33 C 0.21151 0.86409 -0.20887
 H34 H 0.09866 0.77669 -0.23192
 H35 H 0.22506 0.76884 -0.09996
 H36 H 0.23144 0.90207 -0.22582
 C37 C 0.16442 1.16150 0.76443
 C38 C 0.21222 1.13708 0.79031
 C39 C 0.23513 1.16128 0.83965
 C40 C 0.21036 1.20994 0.86309
 C41 C 0.16262 1.23441 0.83735
 C42 C 0.13967 1.21023 0.78801
 H43 H 0.23115 1.09900 0.77264
 H44 H 0.22774 1.22828 0.90163
 H45 H 0.10225 1.22888 0.76857
 C46 C 0.84071 0.84227 0.76446
 C47 C 0.86466 0.79273 0.78753
 C48 C 0.83991 0.76678 0.83539
 C49 C 0.79113 0.79046 0.86007
 C50 C 0.76720 0.83993 0.83703
 C51 C 0.79195 0.86577 0.78925
 H52 H 0.90276 0.77481 0.76871
 H53 H 0.77220 0.77093 0.89750
 H54 H 0.77361 0.90439 0.77185
 C55 C 0.15886 0.83635 1.23600
 C56 C 0.13356 0.78852 1.21148
 C57 C 0.15762 0.76367 1.16295
 C58 C 0.20707 0.78658 1.13896
 C59 C 0.23243 0.83437 1.16341
 C60 C 0.20834 0.85920 1.21194
 H61 H 0.09492 0.77105 1.22959
 H62 H 0.22531 0.76775 1.10099
 H63 H 0.22767 0.89663 1.23038
 C64 C 0.84183 1.16303 1.23382
 C65 C 0.79302 1.13739 1.21160
 C66 C 0.76667 1.16020 1.16315
 C67 C 0.78908 1.20877 1.13685
 C68 C 0.83789 1.23453 1.15893
 C69 C 0.86421 1.21163 1.20748
 H70 H 0.77590 1.09944 1.23149
 H71 H 0.76894 1.22597 1.09895
 H72 H 0.90232 1.23118 1.22431
 O73 O 0.41991 1.10109 1.10176
 O74 O 0.35788 1.04649 1.05014
 C75 C 0.36919 1.08582 1.08678
 O76 O 0.57953 1.09611 0.89846
 O77 O 0.64181 1.04548 0.95420
 C78 C 0.63027 1.08169 0.91420
 O79 O 0.42038 1.10056 0.90309
 O80 O 0.35810 1.04616 0.95518
 C81 C 0.36962 1.08526 0.91800
 O82 O 0.57960 1.09663 1.10649
 O83 O 0.64191 1.04459 1.05227
 C84 C 0.63040 1.08171 1.09119
 Zr85 Zr 0.49984 1.06909 1.07502
 O86 O 0.50570 1.15871 1.07487
 O87 O 0.49361 1.06821 1.16508
 Zr88 Zr 0.50004 1.06902 0.93085
 O89 O 0.50602 1.15866 0.93139
 O90 O 0.49409 1.06922 0.84079
 O91 O 0.44930 1.08010 1.00283
 O92 O 0.54912 1.07935 1.00286
 O93 O 0.57989 0.89855 1.10784
 O94 O 0.64207 0.95003 1.05267
 C95 C 0.63064 0.91340 1.09232
 O96 O 0.42069 0.89383 0.90390
 O97 O 0.35832 0.94804 0.95582
 C98 C 0.36990 0.90914 0.91876
 O99 O 0.58018 0.89847 0.89941
 O100 O 0.64223 0.95016 0.95389
 C101 C 0.63089 0.91349 0.91458
 O102 O 0.42036 0.89361 1.10315
 O103 O 0.35823 0.94884 1.05179
 C104 C 0.36961 0.90924 1.08844
 Zr105 Zr 0.50007 0.92566 1.07582
 O106 O 0.50634 0.83605 1.07641
 O107 O 0.49377 0.92656 1.16587
 Zr108 Zr 0.50032 0.92529 0.93151
 O109 O 0.50660 0.83567 0.93317
 O110 O 0.49446 0.92468 0.84147
 Zr111 Zr 0.41573 0.99720 1.00312
 Zr112 Zr 0.58440 0.99723 1.00316
 O113 O 0.54943 0.91512 1.00370
 O114 O 0.44957 0.91433 1.00369
 O115 O 0.55062 0.99740 1.08649
 O116 O 0.45110 0.99713 0.92068
 O117 O 0.45067 0.99739 1.08569
 O118 O 0.55075 0.99718 0.91993
 H119 H 0.57455 1.11279 1.00269
 H120 H 0.42565 0.99713 0.88710
 H121 H 0.57519 0.88186 1.00383
 H122 H 0.42500 0.99751 1.11918
 H123 H 0.52540 1.04546 0.82603
 H124 H 0.52547 0.94872 0.82646
 H125 H 0.47369 0.82104 0.95489
 H126 H 0.47520 0.82125 1.05252
 H127 H 0.52591 0.94913 1.18049
 H128 H 0.52631 1.04638 1.17992
 H129 H 0.47459 1.17344 1.05071
 H130 H 0.47328 1.17336 0.95326
 O131 O -0.10645 0.41910 0.09662
 O132 O -0.05234 0.35737 0.04383
 C133 C -0.09118 0.36846 0.08130
 O134 O -0.10241 0.58081 -0.10662
 O135 O -0.05073 0.64236 -0.05158
 C136 C -0.08740 0.63142 -0.09107
 O137 O -0.10714 0.42108 -0.10271
 O138 O -0.05246 0.35838 -0.05134
 C139 C -0.09166 0.37017 -0.08814
 O140 O -0.10165 0.57866 0.10226
 O141 O -0.05048 0.64136 0.04737
 C142 C -0.08679 0.62955 0.08714
 Zr143 Zr -0.07515 0.49917 0.06927
 O144 O -0.16476 0.50547 0.06834
 O145 O -0.07561 0.49222 0.15928
 Zr146 Zr -0.07564 0.50062 -0.07478
 O147 O -0.16524 0.50688 -0.07300
 O148 O -0.07659 0.49545 -0.16485
 O149 O -0.08634 0.44917 -0.00300
 O150 O -0.08567 0.54926 -0.00242
 O151 O 0.09572 0.57849 0.10097
 O152 O 0.04386 0.64129 0.04688
 C153 C 0.08075 0.62941 0.08601
 O154 O 0.10004 0.42090 -0.10319
 O155 O 0.04578 0.35822 -0.05141
 C156 C 0.08495 0.37000 -0.08833
 O157 O 0.09535 0.58039 -0.10695
 O158 O 0.04373 0.64213 -0.05177
 C159 C 0.08055 0.63099 -0.09118
 O160 O 0.10055 0.41931 0.09545
 O161 O 0.04528 0.35754 0.04436
 C162 C 0.08496 0.36871 0.08072
 Zr163 Zr 0.06847 0.49912 0.06869
 O164 O 0.15807 0.50526 0.06808
 O165 O 0.06828 0.49210 0.15872
 Zr166 Zr 0.06802 0.50041 -0.07559
 O167 O 0.15762 0.50643 -0.07618
 O168 O 0.06687 0.49513 -0.16568
 Zr169 Zr -0.00339 0.41547 -0.00360
 Zr170 Zr -0.00352 0.58413 -0.00262
 O171 O 0.07858 0.54893 -0.00322
 O172 O 0.07943 0.44915 -0.00376
 O173 O -0.00332 0.54958 0.08045
 O174 O -0.00378 0.45143 -0.08589
 O175 O -0.00325 0.44990 0.07909
 O176 O -0.00383 0.55119 -0.08607
 H177 H -0.11885 0.57512 -0.00212
 H178 H -0.00376 0.42612 -0.11951
 H179 H 0.11193 0.57448 -0.00315
 H180 H -0.00316 0.42411 0.11254
 H181 H -0.05200 0.52612 -0.17967
 H182 H 0.04495 0.52796 -0.18017
 H183 H 0.17251 0.47489 -0.05260
 H184 H 0.17281 0.47364 0.04472
 H185 H 0.04581 0.52418 0.17383
 H186 H -0.05098 0.52262 0.17426
 H187 H -0.17943 0.47278 0.04657
 H188 H -0.17977 0.47385 -0.05134
 O189 O 1.10124 -0.10154 0.42027
 O190 O 1.04992 -0.04701 0.35731
 C191 C 1.08633 -0.08652 0.36915
 O192 O 0.89951 -0.09575 0.58059
 O193 O 0.95433 -0.04443 0.64265
 C194 C 0.91508 -0.08110 0.63146
 O195 O 0.90399 -0.10064 0.42063
 O196 O 0.95556 -0.04656 0.35748
 C197 C 0.91884 -0.08565 0.36947
 O198 O 1.10619 -0.09582 0.58052
 O199 O 1.05191 -0.04362 0.64269
 C200 C 1.09093 -0.08065 0.63141
 Zr201 Zr 1.07464 -0.06887 0.50016
 O202 O 1.07493 -0.15845 0.50719
 O203 O 1.16425 -0.06822 0.49372
 Zr204 Zr 0.93102 -0.06840 0.50035
 O205 O 0.93059 -0.15800 0.50711
 O206 O 0.84140 -0.06710 0.49435
 O207 O 1.00280 -0.08001 0.44958
 O208 O 1.00283 -0.07876 0.54970
 O209 O 1.10674 0.10201 0.57888
 O210 O 1.05202 0.05089 0.64184
 C211 C 1.09134 0.08743 0.63004
 O212 O 0.90411 0.10655 0.41870
 O213 O 0.95574 0.05171 0.35659
 C214 C 0.91894 0.09098 0.36780
 O215 O 0.89923 0.10234 0.57906
 O216 O 0.95367 0.05093 0.64201
 C217 C 0.91436 0.08756 0.63019
 O218 O 1.10235 0.10579 0.41848
 O219 O 1.05046 0.05130 0.35655
 C220 C 1.08745 0.09028 0.36763
 Zr221 Zr 1.07492 0.07458 0.49894
 O222 O 1.07471 0.16424 0.50420
 O223 O 1.16454 0.07385 0.49280
 Zr224 Zr 0.93133 0.07515 0.49911
 O225 O 0.93238 0.16480 0.50458
 O226 O 0.84174 0.07568 0.49302
 Zr227 Zr 1.00295 0.00268 0.41491
 Zr228 Zr 1.00287 0.00348 0.58440
 O229 O 1.00310 0.08544 0.54842
 O230 O 1.00316 0.08572 0.44805
 O231 O 1.08579 0.00305 0.55045
 O232 O 0.92085 0.00317 0.45028
 O233 O 1.08508 0.00256 0.45002
 O234 O 0.92002 0.00361 0.55063
 H235 H 1.00289 -0.11212 0.57554
 H236 H 0.88754 0.00314 0.42457
 H237 H 1.00309 0.11881 0.57397
 H238 H 1.11836 0.00220 0.42417
 H239 H 0.82677 -0.04531 0.52720
 H240 H 0.82691 0.05173 0.52437
 H241 H 0.95469 0.17926 0.47188
 H242 H 1.05187 0.17884 0.47197
 H243 H 1.17915 0.05096 0.52503
 H244 H 1.17901 -0.04615 0.52626
 H245 H 1.05091 -0.17338 0.47616
 H246 H 0.95420 -0.17300 0.47569
 C247 C 1.13722 0.13879 0.27919
 C248 C 1.11465 0.11721 0.32000
 C249 C 0.86882 -0.13629 0.28305
 C250 C 0.89181 -0.11357 0.32269
 C251 C 0.86300 0.13600 0.71739
 C252 C 0.88609 0.11407 0.67723
 C253 C 1.13963 -0.13124 0.71912
 C254 C 1.11808 -0.10790 0.67879
 C255 C 0.28159 1.13638 1.13510
 C256 C 0.32199 1.11376 1.11323
 C257 C 0.28276 0.86137 0.86755
 C258 C 0.32295 0.88241 0.89102
 C259 C 0.71830 0.86439 1.14219
 C260 C 0.67780 0.88663 1.12010
 C261 C 0.71677 1.13129 0.86311
 C262 C 0.67708 1.10854 0.88606
 C263 C 0.13565 0.28170 0.13006
 C264 C 0.11289 0.32162 0.10740
 C265 C -0.14042 0.28281 -0.13801
 C266 C -0.11886 0.32325 -0.11547
 C267 C 0.13141 0.71841 -0.13948
 C268 C 0.10804 0.67818 -0.11810
 C269 C -0.13446 0.71654 0.13903
 C270 C -0.11288 0.67639 0.11585
 C271 C 1.14072 0.13668 0.71781
 C272 C 1.11885 0.11435 0.67723
 C273 C 0.86552 -0.13167 0.71888
 C274 C 0.88782 -0.10846 0.67881
 C275 C 1.13441 -0.13824 0.28195
 C276 C 1.11255 -0.11506 0.32211
 C277 C 0.86831 0.13967 0.27993
 C278 C 0.89161 0.11809 0.32033
 C279 C 0.13593 0.28305 -0.13713
 C280 C 0.11306 0.32315 -0.11511
 C281 C -0.13921 0.28070 0.13236
 C282 C -0.11799 0.32110 0.10890
 C283 C -0.13568 0.71986 -0.14079
 C284 C -0.11382 0.67899 -0.11877
 C285 C 0.13057 0.71576 0.13666
 C286 C 0.10778 0.67608 0.11398
 C287 C 0.28302 1.13517 0.86724
 C288 C 0.32276 1.11276 0.89050
 C289 C 0.28180 0.85946 1.13739
 C290 C 0.32239 0.88154 1.11526
 C291 C 0.71780 1.13260 1.13913
 C292 C 0.67749 1.10933 1.11800
 C293 C 0.71836 0.86535 0.86362
 C294 C 0.67805 0.88714 0.88646
   
