data_POSCAR
  _audit_creation_date              2014-09-24
  _audit_creation_method            'ToBaCCo'
  _symmetry_space_group_name_H-M    'P1'
  _symmetry_Int_Tables_number       1
  _symmetry_cell_setting            triclinic
  loop_
  _symmetry_equiv_pos_as_xyz
 x,y,z
_cell_length_a 30.4943
_cell_length_b 30.2869
_cell_length_c 30.3155
_cell_angle_alpha 101.525400
_cell_angle_beta 85.180500
_cell_angle_gamma 92.663500
loop_
  _atom_site_label
  _atom_site_type_symbol
  _atom_site_fract_x
  _atom_site_fract_y
  _atom_site_fract_z
O1 O 0.55376 0.51864 0.04623
 O2 O 0.43389 0.50862 0.03598
 O3 O 0.49353 0.45416 0.04894
 O4 O 0.49267 0.57155 0.03252
 O5 O 0.50490 0.54763 -0.04106
 O6 O 0.50775 0.43064 -0.02445
 O7 O 0.44554 0.48233 -0.03708
 O8 O 0.56557 0.49474 -0.02731
 Cu9 Cu 0.49249 0.51551 0.04832
 Cu10 Cu 0.50694 0.48662 -0.03988
 C11 C 0.58017 0.50814 0.01130
 C12 C 0.41904 0.49394 -0.00234
 C13 C 0.50130 0.42249 0.01509
 C14 C 0.49809 0.57948 -0.00719
 O15 O -0.04224 0.55742 0.51106
 O16 O -0.02686 0.43748 0.50876
 O17 O -0.03269 0.50783 0.57230
 O18 O -0.03685 0.48564 0.44902
 O19 O 0.03399 0.50389 0.44187
 O20 O 0.03977 0.51571 0.56429
 O21 O 0.04483 0.44819 0.49564
 O22 O 0.02950 0.57040 0.51143
 Cu23 Cu -0.04201 0.49624 0.51136
 Cu24 Cu 0.04436 0.51055 0.50236
 C25 C -0.00913 0.58461 0.51211
 C26 C 0.01165 0.42225 0.50084
 C27 C 0.00437 0.51416 0.58919
 C28 C -0.00231 0.49225 0.42449
 O29 O 0.48734 0.02679 0.57212
 O30 O 0.50313 0.04380 0.45482
 O31 O 0.43959 0.03475 0.50944
 O32 O 0.55961 0.03377 0.51489
 O33 O 0.55881 -0.03899 0.48520
 O34 O 0.43822 -0.03973 0.49106
 O35 O 0.50287 -0.03006 0.43048
 O36 O 0.49880 -0.04563 0.54830
 Cu37 Cu 0.49919 0.04210 0.51585
 Cu38 Cu 0.49881 -0.04623 0.48680
 C39 C 0.49155 -0.01220 0.58051
 C40 C 0.50423 0.00970 0.42266
 C41 C 0.41867 -0.00255 0.49891
 C42 C 0.57982 -0.00247 0.49917
 C43 C 0.48991 -0.04727 -0.09846
 C44 C 0.48604 -0.09108 -0.08964
 C45 C 0.48863 -0.09978 -0.04635
 C46 C 0.49366 -0.06320 -0.00960
 C47 C 0.49707 -0.01839 -0.01735
 C48 C 0.49612 -0.01040 -0.06195
 C49 C 0.50237 0.03414 -0.06868
 C50 C 0.50520 0.07022 -0.03252
 C51 C 0.50574 0.06335 0.01191
 C52 C 0.50239 0.01850 0.01954
 C53 C 0.49613 -0.07018 0.03458
 C54 C 0.49944 -0.03419 0.07070
 C55 C 0.50344 0.01046 0.06407
 C56 C 0.50768 0.04735 0.10076
 C57 C 0.51011 0.09128 0.09252
 C58 C 0.50904 0.10000 0.04901
 H59 H 0.50532 0.04207 -0.10196
 H60 H 0.50718 0.10355 -0.04026
 H61 H 0.49531 -0.10356 0.04216
 H62 H 0.49867 -0.04215 0.10392
 H63 H 0.48095 -0.11932 -0.11717
 H64 H 0.51309 0.11942 0.12065
 C65 C 0.04277 0.51179 0.91317
 C66 C 0.08595 0.50445 0.92188
 C67 C 0.09603 0.49491 0.96321
 C68 C 0.06114 0.49095 0.99647
 C69 C 0.01755 0.50094 0.98917
 C70 C 0.00856 0.51242 0.94786
 C71 C -0.03422 0.52507 0.94261
 C72 C -0.06822 0.52325 0.97582
 C73 C -0.06083 0.50903 1.01584
 C74 C -0.01723 0.49926 1.02322
 C75 C 0.06830 0.47611 1.03626
 C76 C 0.03437 0.47486 1.06971
 C77 C -0.00826 0.48801 1.06462
 C78 C -0.04236 0.48935 1.09954
 C79 C -0.08554 0.49684 1.09090
 C80 C -0.09559 0.50552 1.04925
 H81 H -0.04180 0.53712 0.91293
 H82 H -0.10026 0.53389 0.97003
 H83 H 0.10009 0.46471 1.04180
 H84 H 0.04183 0.46281 1.09943
 H85 H 0.11219 0.50589 0.89572
 H86 H -0.11180 0.49616 1.11721
 C87 C -0.04268 -0.09431 0.49203
 C88 C -0.08582 -0.07902 0.49704
 C89 C -0.09521 -0.03543 0.49286
 C90 C -0.06039 -0.00422 0.48723
 C91 C -0.01630 -0.01815 0.48417
 C92 C -0.00740 -0.06385 0.48403
 C93 C 0.03626 -0.07787 0.47410
 C94 C 0.07083 -0.04687 0.47053
 C95 C 0.06307 -0.00069 0.47576
 C96 C 0.01899 0.01345 0.48005
 C97 C -0.06838 0.03998 0.48293
 C98 C -0.03383 0.07093 0.47917
 C99 C 0.01008 0.05898 0.47975
 C100 C 0.04547 0.09087 0.47867
 C101 C 0.08867 0.07666 0.47680
 C102 C 0.09809 0.03156 0.47509
 H103 H 0.04435 -0.11300 0.46837
 H104 H 0.10371 -0.05966 0.46308
 H105 H -0.10144 0.05122 0.48242
 H106 H -0.04207 0.10424 0.47542
 H107 H -0.11308 -0.10168 0.50364
 H108 H 0.11557 0.10148 0.47768
 C109 C -0.28083 0.51142 1.02500
 C110 C -0.29821 0.48413 0.98702
 C111 C -0.34358 0.48417 0.98223
 C112 C -0.37170 0.51042 1.01560
 C113 C -0.35369 0.53755 1.05356
 C114 C -0.30818 0.53844 1.05823
 C115 C -0.23317 0.51111 1.03043
 C116 C -0.21572 0.53848 1.06833
 C117 C -0.17047 0.53762 1.07360
 C118 C -0.14288 0.50913 1.04164
 C119 C -0.16113 0.48153 1.00410
 C120 C -0.20613 0.48283 0.99802
 C121 C -0.28946 0.56547 1.09564
 C122 C -0.24402 0.56564 1.10050
 C123 C -0.26996 0.45683 0.95494
 C124 C -0.22476 0.45601 0.96048
 H125 H -0.31014 0.58659 1.12146
 H126 H -0.23100 0.58689 1.12992
 H127 H -0.28298 0.43556 0.92553
 H128 H -0.20424 0.43412 0.93518
 H129 H -0.35716 0.46285 0.95313
 H130 H -0.37504 0.55796 1.07932
 H131 H -0.15672 0.55863 1.10277
 H132 H -0.14031 0.45873 0.97999
 C133 C 0.28194 0.48937 0.98533
 C134 C 0.29888 0.51261 1.02540
 C135 C 0.34430 0.51261 1.02987
 C136 C 0.37325 0.49135 0.99377
 C137 C 0.35546 0.46857 0.95353
 C138 C 0.30981 0.46681 0.94951
 C139 C 0.23414 0.48931 0.98051
 C140 C 0.21702 0.46518 0.94087
 C141 C 0.17159 0.46544 0.93637
 C142 C 0.14348 0.49094 0.97045
 C143 C 0.16156 0.51573 1.00957
 C144 C 0.20664 0.51413 1.01524
 C145 C 0.29144 0.44315 0.91027
 C146 C 0.24581 0.44199 0.90621
 C147 C 0.27013 0.53614 1.05991
 C148 C 0.22489 0.53731 1.05471
 H149 H 0.31250 0.42536 0.88245
 H150 H 0.23305 0.42334 0.87537
 H151 H 0.28281 0.55439 1.09095
 H152 H 0.20402 0.55644 1.08186
 H153 H 0.35716 0.53066 1.06094
 H154 H 0.37696 0.45170 0.92554
 H155 H 0.15816 0.44652 0.90599
 H156 H 0.14059 0.53660 1.03533
 C157 C -0.02470 -0.27930 0.50778
 C158 C 0.01153 -0.29128 0.52802
 C159 C 0.01708 -0.33682 0.52882
 C160 C -0.01512 -0.36975 0.51263
 C161 C -0.05261 -0.35651 0.49487
 C162 C -0.05655 -0.31170 0.49058
 C163 C -0.02908 -0.23201 0.50398
 C164 C -0.06305 -0.22078 0.48019
 C165 C -0.06579 -0.17622 0.47476
 C166 C -0.03674 -0.14217 0.49551
 C167 C -0.00444 -0.15380 0.52156
 C168 C 0.00086 -0.19898 0.52406
 C169 C -0.09104 -0.29886 0.46836
 C170 C -0.09376 -0.25431 0.46248
 C171 C 0.04145 -0.25745 0.54692
 C172 C 0.03565 -0.21193 0.54584
 H173 H -0.11562 -0.32363 0.45459
 H174 H -0.12038 -0.24593 0.44439
 H175 H 0.06931 -0.26617 0.56308
 H176 H 0.05915 -0.18683 0.56126
 H177 H 0.04573 -0.34639 0.54321
 H178 H -0.07728 -0.38151 0.48163
 H179 H -0.09095 -0.16791 0.45481
 H180 H 0.01686 -0.12783 0.53938
 C181 C 0.02663 0.28142 0.49181
 C182 C -0.00229 0.30508 0.52596
 C183 C -0.00718 0.35129 0.52849
 C184 C 0.01760 0.37391 0.49807
 C185 C 0.04722 0.35006 0.46471
 C186 C 0.05133 0.30350 0.46093
 C187 C 0.03103 0.23258 0.48826
 C188 C 0.05886 0.20862 0.45326
 C189 C 0.06244 0.16207 0.44968
 C190 C 0.03916 0.13971 0.48133
 C191 C 0.01243 0.16451 0.51701
 C192 C 0.00747 0.21081 0.52005
 C193 C 0.07926 0.27847 0.42671
 C194 C 0.08272 0.23176 0.42274
 C195 C -0.02565 0.28208 0.55688
 C196 C -0.02054 0.23579 0.55421
 H197 H 0.09835 0.29506 0.40260
 H198 H 0.10443 0.21364 0.39571
 H199 H -0.04789 0.30006 0.58348
 H200 H -0.03896 0.21935 0.57887
 H201 H -0.02974 0.36985 0.55444
 H202 H 0.06604 0.36752 0.44109
 H203 H 0.08357 0.14318 0.42255
 H204 H -0.00449 0.14767 0.54221
 C205 C 0.48664 -0.02918 -0.28451
 C206 C 0.46505 0.00703 -0.29474
 C207 C 0.46758 0.01325 -0.33960
 C208 C 0.48885 -0.01832 -0.37459
 C209 C 0.50841 -0.05575 -0.36372
 C210 C 0.50886 -0.06032 -0.31861
 C211 C 0.48642 -0.03430 -0.23708
 C212 C 0.51105 -0.06822 -0.22649
 C213 C 0.51278 -0.07131 -0.18114
 C214 C 0.48823 -0.04235 -0.14649
 C215 C 0.46116 -0.01063 -0.15830
 C216 C 0.46184 -0.00501 -0.20326
 C217 C 0.53187 -0.09487 -0.30681
 C218 C 0.53359 -0.09827 -0.26147
 C219 C 0.44136 0.03619 -0.25985
 C220 C 0.43906 0.02973 -0.21505
 H221 H 0.54943 -0.11895 -0.33277
 H222 H 0.55244 -0.12485 -0.25376
 H223 H 0.42414 0.06401 -0.26730
 H224 H 0.42014 0.05275 -0.18927
 H225 H 0.45177 0.04181 -0.34739
 H226 H 0.52541 -0.08001 -0.39002
 H227 H 0.53322 -0.09634 -0.17276
 H228 H 0.44048 0.01039 -0.13239
 C229 C 0.50790 0.02745 0.28613
 C230 C 0.47782 0.05153 0.31879
 C231 C 0.47764 0.04641 0.36378
 C232 C 0.50614 0.01629 0.37573
 C233 C 0.53571 -0.00807 0.34259
 C234 C 0.53726 -0.00199 0.29775
 C235 C 0.50842 0.03293 0.23879
 C236 C 0.53934 0.00992 0.20635
 C237 C 0.53982 0.01550 0.16142
 C238 C 0.50821 0.04198 0.14852
 C239 C 0.47765 0.06501 0.18162
 C240 C 0.47787 0.06095 0.22688
 C241 C 0.56752 -0.02469 0.26429
 C242 C 0.56882 -0.01850 0.21947
 C243 C 0.44826 0.07984 0.30567
 C244 C 0.44806 0.08420 0.26043
 H245 H 0.59050 -0.04731 0.27285
 H246 H 0.59276 -0.03654 0.19476
 H247 H 0.42480 0.09845 0.33051
 H248 H 0.42444 0.10605 0.25168
 H249 H 0.45458 0.06481 0.38929
 H250 H 0.55781 -0.03110 0.35194
 H251 H 0.56417 -0.00130 0.13630
 H252 H 0.45367 0.08596 0.17199
 C253 C 0.49157 -0.28496 -0.02629
 C254 C 0.52308 -0.31349 -0.05248
 C255 C 0.52459 -0.35822 -0.04671
 C256 C 0.49587 -0.37384 -0.01395
 C257 C 0.46479 -0.34471 0.01235
 C258 C 0.46202 -0.30037 0.00581
 C259 C 0.48972 -0.23795 -0.03232
 C260 C 0.45751 -0.20974 -0.00697
 C261 C 0.45609 -0.16497 -0.01271
 C262 C 0.48805 -0.14784 -0.04173
 C263 C 0.51967 -0.17682 -0.06736
 C264 C 0.52046 -0.22201 -0.06305
 C265 C 0.43033 -0.27113 0.03065
 C266 C 0.42787 -0.22671 0.02408
 C267 C 0.55269 -0.29653 -0.08357
 C268 C 0.55162 -0.25147 -0.08851
 H269 H 0.40719 -0.28270 0.05534
 H270 H 0.40293 -0.20530 0.04393
 H271 H 0.57721 -0.31813 -0.10390
 H272 H 0.57539 -0.23960 -0.11247
 H273 H 0.54868 -0.38057 -0.06682
 H274 H 0.44232 -0.35686 0.03726
 H275 H 0.43100 -0.14306 0.00619
 H276 H 0.54390 -0.16393 -0.09027
 C277 C 0.50678 0.28614 0.03198
 C278 C 0.47435 0.31408 0.05736
 C279 C 0.47329 0.35918 0.05257
 C280 C 0.50340 0.37569 0.02153
 C281 C 0.53546 0.34717 -0.00390
 C282 C 0.53774 0.30249 0.00171
 C283 C 0.50810 0.23873 0.03690
 C284 C 0.54122 0.21111 0.01244
 C285 C 0.54230 0.16604 0.01730
 C286 C 0.50923 0.14807 0.04455
 C287 C 0.47657 0.17642 0.06918
 C288 C 0.47605 0.22188 0.06578
 C289 C 0.57027 0.27380 -0.02233
 C290 C 0.57222 0.22901 -0.01675
 C291 C 0.44337 0.29618 0.08657
 C292 C 0.44400 0.25078 0.09045
 H293 H 0.59449 0.28611 -0.04560
 H294 H 0.59788 0.20806 -0.03588
 H295 H 0.41813 0.31732 0.10624
 H296 H 0.41921 0.23820 0.11299
 H297 H 0.44843 0.38106 0.07195
 H298 H 0.55894 0.36002 -0.02752
 H299 H 0.56819 0.14464 -0.00071
 H300 H 0.45149 0.16288 0.09078
 C301 C -0.28034 -0.00900 0.49277
 C302 C -0.30414 -0.03734 0.46004
 C303 C -0.34984 -0.03426 0.46221
 C304 C -0.37180 -0.00286 0.49643
 C305 C -0.34751 0.02633 0.52829
 C306 C -0.30160 0.02293 0.52697
 C307 C -0.23241 -0.01375 0.49184
 C308 C -0.20866 0.01312 0.52567
 C309 C -0.16331 0.00686 0.52571
 C310 C -0.14208 -0.02546 0.49177
 C311 C -0.16623 -0.05142 0.45777
 C312 C -0.21145 -0.04600 0.45779
 C313 C -0.27661 0.04995 0.55964
 C314 C -0.23095 0.04498 0.55913
 C315 C -0.28191 -0.06878 0.42621
 C316 C -0.23625 -0.07293 0.42501
 H317 H -0.29257 0.07469 0.58621
 H318 H -0.21302 0.06602 0.58532
 H319 H -0.30001 -0.09064 0.40070
 H320 H -0.22034 -0.09787 0.39861
 H321 H -0.36844 -0.05647 0.43733
 H322 H -0.36443 0.05039 0.55482
 H323 H -0.14468 0.02637 0.55225
 H324 H -0.14978 -0.07655 0.43190
 C325 C 0.28194 0.00369 0.48411
 C326 C 0.31280 0.02166 0.45487
 C327 C 0.35768 0.01912 0.46006
 C328 C 0.37159 -0.00205 0.49341
 C329 C 0.34062 -0.02107 0.52172
 C330 C 0.29544 -0.01757 0.51770
 C331 C 0.23464 0.00832 0.48024
 C332 C 0.20375 -0.00736 0.51103
 C333 C 0.15890 -0.00058 0.50872
 C334 C 0.14497 0.02048 0.47509
 C335 C 0.17634 0.03501 0.44388
 C336 C 0.22127 0.02955 0.44664
 C337 C 0.26351 -0.03393 0.54711
 C338 C 0.21843 -0.02859 0.54405
 C339 C 0.29818 0.04233 0.42146
 C340 C 0.25312 0.04596 0.41723
 H341 H 0.27347 -0.05031 0.57317
 H342 H 0.19489 -0.04098 0.56787
 H343 H 0.32176 0.05606 0.39859
 H344 H 0.24315 0.06243 0.39123
 H345 H 0.38190 0.03353 0.43823
 H346 H 0.35170 -0.03709 0.54757
 H347 H 0.13490 -0.01080 0.53349
 H348 H 0.16570 0.05163 0.41825
 C349 C -0.01438 0.48485 1.28396
 C350 C 0.01828 0.51334 1.30568
 C351 C 0.02333 0.51413 1.35134
 C352 C -0.00490 0.48774 1.37549
 C353 C -0.03731 0.45916 1.35319
 C354 C -0.04196 0.45730 1.30724
 C355 C -0.02057 0.48472 1.23625
 C356 C -0.05323 0.45625 1.21449
 C357 C -0.05941 0.45683 1.16929
 C358 C -0.03372 0.48620 1.14629
 C359 C -0.00162 0.51498 1.16891
 C360 C 0.00559 0.51388 1.21365
 C361 C -0.07411 0.42907 1.28429
 C362 C -0.07948 0.42837 1.23860
 C363 C 0.04446 0.54130 1.28161
 C364 C 0.03803 0.54178 1.23643
 H365 H -0.09546 0.40754 1.30185
 H366 H -0.10479 0.40629 1.22221
 H367 H 0.06969 0.56349 1.29804
 H368 H 0.05851 0.56428 1.21924
 H369 H 0.04799 0.53656 1.36854
 H370 H -0.05902 0.43868 1.37167
 H371 H -0.08446 0.43496 1.15212
 H372 H 0.01743 0.53848 1.15167
 C373 C 0.01569 0.51952 0.72931
 C374 C 0.04367 0.54721 0.70656
 C375 C 0.03932 0.54600 0.66067
 C376 C 0.00664 0.51816 0.63806
 C377 C -0.02205 0.49173 0.66166
 C378 C -0.01715 0.49165 0.70717
 C379 C 0.02166 0.51879 0.77687
 C380 C -0.00470 0.48926 0.79882
 C381 C 0.00238 0.48725 0.84338
 C382 C 0.03437 0.51572 0.86657
 C383 C 0.06022 0.54550 0.84422
 C384 C 0.05434 0.54680 0.79912
 C385 C -0.04360 0.46336 0.73062
 C386 C -0.03724 0.46193 0.77561
 C387 C 0.07589 0.57489 0.72996
 C388 C 0.08093 0.57492 0.77558
 H389 H -0.06893 0.44162 0.71385
 H390 H -0.05789 0.43916 0.79231
 H391 H 0.09753 0.59653 0.71282
 H392 H 0.10627 0.59664 0.79236
 H393 H 0.06138 0.56643 0.64246
 H394 H -0.04683 0.46980 0.64406
 H395 H -0.01674 0.46338 0.86005
 H396 H 0.08520 0.56712 0.86179
   
