data_POSCAR
  _audit_creation_date              2014-09-24
  _audit_creation_method            'ToBaCCo'
  _symmetry_space_group_name_H-M    'P1'
  _symmetry_Int_Tables_number       1
  _symmetry_cell_setting            triclinic
  loop_
  _symmetry_equiv_pos_as_xyz
 x,y,z
_cell_length_a 39.8852
_cell_length_b 39.7335
_cell_length_c 38.0514
_cell_angle_alpha 88.309700
_cell_angle_beta 89.674600
_cell_angle_gamma 89.777400
loop_
  _atom_site_label
  _atom_site_type_symbol
  _atom_site_fract_x
  _atom_site_fract_y
  _atom_site_fract_z
N1 N 0.28233 0.21723 0.18066
 N2 N 0.27580 0.24867 0.17139
 C3 C 0.30014 0.26017 0.14963
 C4 C 0.32327 0.23450 0.14487
 C5 C 0.31047 0.20729 0.16425
 H6 H 0.30091 0.28537 0.13810
 H7 H 0.32066 0.18205 0.16634
 Cu8 Cu 0.23507 0.27068 0.18728
 Cu9 Cu 0.25519 0.19299 0.21578
 Cu10 Cu 0.21285 0.24847 0.26947
 N11 N 0.20010 0.29474 0.21184
 N12 N 0.19301 0.28725 0.24488
 C13 C 0.17015 0.30927 0.25657
 C14 C 0.16207 0.33167 0.22924
 C15 C 0.18115 0.32106 0.20097
 H16 H 0.15985 0.30870 0.28293
 H17 H 0.18091 0.33121 0.17430
 N18 N 0.22302 0.20145 0.28363
 N19 N 0.23842 0.18014 0.26292
 C20 C 0.24148 0.15015 0.28000
 C21 C 0.22667 0.15265 0.31268
 C22 C 0.21535 0.18544 0.31426
 H23 H 0.25382 0.12828 0.26958
 H24 H 0.20272 0.19680 0.33619
 H25 H 0.21255 0.22397 0.22326
 H26 H 0.25451 0.23794 0.23843
 N27 N 0.70099 -0.24375 0.22976
 N28 N 0.70870 -0.27525 0.22391
 C29 C 0.68815 -0.28713 0.19936
 C30 C 0.66563 -0.26192 0.18947
 C31 C 0.67518 -0.23445 0.20893
 H32 H 0.69081 -0.31171 0.18818
 H33 H 0.66354 -0.20982 0.20879
 Cu34 Cu 0.74584 -0.29747 0.24741
 Cu35 Cu 0.72405 -0.21811 0.26537
 Cu36 Cu 0.78991 -0.25893 0.30879
 N37 N 0.79091 -0.31182 0.25927
 N38 N 0.80817 -0.29716 0.28373
 C39 C 0.83804 -0.31281 0.28717
 C40 C 0.84010 -0.33805 0.26260
 C41 C 0.80923 -0.33691 0.24593
 H42 H 0.85717 -0.30567 0.30554
 H43 H 0.79994 -0.35404 0.22672
 N44 N 0.77441 -0.21329 0.32027
 N45 N 0.75030 -0.19728 0.30289
 C46 C 0.74574 -0.16681 0.31684
 C47 C 0.76824 -0.16328 0.34403
 C48 C 0.78571 -0.19347 0.34573
 H49 H 0.72692 -0.14869 0.30846
 H50 H 0.80467 -0.20079 0.36471
 H51 H 0.76952 -0.24348 0.26196
 H52 H 0.73893 -0.25851 0.29603
 N53 N 0.69647 0.26232 0.77138
 N54 N 0.71336 0.28151 0.79249
 C55 C 0.69419 0.28853 0.82053
 C56 C 0.66334 0.27345 0.81653
 C57 C 0.66577 0.25663 0.78523
 H58 H 0.70213 0.30324 0.84242
 H59 H 0.64669 0.24138 0.77347
 Cu60 Cu 0.75832 0.29652 0.78106
 Cu61 Cu 0.71594 0.24678 0.72749
 Cu62 Cu 0.80234 0.25638 0.72008
 N63 N 0.80074 0.31399 0.76359
 N64 N 0.81820 0.29842 0.73961
 C65 C 0.84690 0.31543 0.73341
 C66 C 0.84783 0.34285 0.75537
 C67 C 0.81754 0.34134 0.77346
 H68 H 0.86613 0.30773 0.71514
 H69 H 0.80774 0.35945 0.79156
 N70 N 0.77667 0.22465 0.69188
 N71 N 0.74368 0.22233 0.69337
 C72 C 0.73360 0.19940 0.67032
 C73 C 0.76153 0.18679 0.65324
 C74 C 0.78845 0.20302 0.66814
 H75 H 0.70785 0.19190 0.66667
 H76 H 0.81475 0.19895 0.66259
 H77 H 0.76102 0.24253 0.75199
 H78 H 0.75710 0.27891 0.72015
 N79 N 0.30829 -0.23241 0.80443
 N80 N 0.29410 -0.25758 0.82204
 C81 C 0.31388 -0.26686 0.84926
 C82 C 0.34156 -0.24600 0.84888
 C83 C 0.33739 -0.22470 0.81990
 H84 H 0.30838 -0.28693 0.86822
 H85 H 0.35430 -0.20502 0.81086
 Cu86 Cu 0.25083 -0.27558 0.80845
 Cu87 Cu 0.28793 -0.21107 0.76322
 Cu88 Cu 0.21895 -0.25086 0.72996
 N89 N 0.21512 -0.30040 0.78609
 N90 N 0.20429 -0.29162 0.75464
 C91 C 0.18033 -0.31311 0.74517
 C92 C 0.17553 -0.33709 0.77207
 C93 C 0.19790 -0.32757 0.79798
 H94 H 0.16742 -0.31130 0.72030
 H95 H 0.20021 -0.33804 0.82437
 N96 N 0.23721 -0.20908 0.70897
 N97 N 0.26351 -0.19367 0.72175
 C98 C 0.26909 -0.16518 0.70260
 C99 C 0.24473 -0.16236 0.67703
 C100 C 0.22522 -0.19078 0.68149
 H101 H 0.28895 -0.14742 0.70723
 H102 H 0.20373 -0.19737 0.66596
 H103 H 0.23876 -0.22556 0.77212
 H104 H 0.26711 -0.25631 0.74982
 N105 N 0.71923 -0.22257 0.81041
 N106 N 0.73030 -0.25218 0.82162
 C107 C 0.70827 -0.26553 0.84497
 C108 C 0.68178 -0.24322 0.84833
 C109 C 0.68986 -0.21595 0.82647
 H110 H 0.71145 -0.28947 0.85887
 H111 H 0.67536 -0.19312 0.82238
 Cu112 Cu 0.77300 -0.27000 0.80545
 Cu113 Cu 0.74426 -0.19524 0.77586
 Cu114 Cu 0.79563 -0.24438 0.72412
 N115 N 0.81105 -0.29010 0.78167
 N116 N 0.81918 -0.28066 0.74941
 C117 C 0.84501 -0.29958 0.73847
 C118 C 0.85469 -0.32151 0.76582
 C119 C 0.83179 -0.31503 0.79259
 H120 H 0.85477 -0.29829 0.71191
 H121 H 0.83052 -0.32715 0.81837
 N122 N 0.78071 -0.19854 0.70982
 N123 N 0.76230 -0.17933 0.73012
 C124 C 0.75804 -0.14902 0.71395
 C125 C 0.77509 -0.14892 0.68217
 C126 C 0.78873 -0.18092 0.68020
 H127 H 0.74360 -0.12850 0.72450
 H128 H 0.80349 -0.19062 0.65880
 H129 H 0.75154 -0.23968 0.75343
 H130 H 0.79063 -0.22054 0.77051
 N131 N 0.29386 0.23278 0.77710
 N132 N 0.29225 0.26555 0.78057
 C133 C 0.31674 0.27503 0.80232
 C134 C 0.33476 0.24663 0.81291
 C135 C 0.31893 0.22018 0.79701
 H136 H 0.32098 0.30059 0.81017
 H137 H 0.32489 0.19367 0.79991
 Cu138 Cu 0.25691 0.29220 0.75819
 Cu139 Cu 0.26381 0.20904 0.74651
 Cu140 Cu 0.21563 0.25959 0.69090
 N141 N 0.21597 0.31284 0.73999
 N142 N 0.19968 0.29970 0.71382
 C143 C 0.17249 0.31861 0.70636
 C144 C 0.17194 0.34544 0.72872
 C145 C 0.19968 0.34071 0.75006
 H146 H 0.15422 0.31291 0.68651
 H147 H 0.20736 0.35637 0.77134
 N148 N 0.22534 0.21236 0.68170
 N149 N 0.24312 0.19286 0.70328
 C150 C 0.24779 0.16283 0.68854
 C151 C 0.23214 0.16367 0.65626
 C152 C 0.21783 0.19522 0.65284
 H153 H 0.26295 0.14253 0.69955
 H154 H 0.20448 0.20547 0.63028
 H155 H 0.26328 0.25022 0.71328
 H156 H 0.22450 0.24358 0.74042
 N157 N 0.30918 -0.25631 0.22119
 N158 N 0.29635 -0.28412 0.20920
 C159 C 0.31633 -0.29541 0.18334
 C160 C 0.34316 -0.27362 0.17935
 C161 C 0.33759 -0.24895 0.20349
 H162 H 0.31146 -0.31736 0.16805
 H163 H 0.35306 -0.22715 0.20766
 Cu164 Cu 0.25447 -0.30221 0.22821
 Cu165 Cu 0.28828 -0.23135 0.25861
 Cu166 Cu 0.21431 -0.26324 0.29367
 N167 N 0.21353 -0.32044 0.24928
 N168 N 0.19768 -0.30456 0.27427
 C169 C 0.17013 -0.32199 0.28387
 C170 C 0.16893 -0.35076 0.26441
 C171 C 0.19658 -0.34873 0.24230
 H172 H 0.15211 -0.31419 0.30337
 H173 H 0.20373 -0.36661 0.22271
 N174 N 0.23520 -0.22183 0.30992
 N175 N 0.26346 -0.20972 0.29662
 C176 C 0.27195 -0.18205 0.31405
 C177 C 0.24819 -0.17692 0.33988
 C178 C 0.22500 -0.20222 0.33621
 H179 H 0.29391 -0.16685 0.30865
 H180 H 0.20278 -0.20635 0.35213
 H181 H 0.26420 -0.27224 0.28211
 H182 H 0.23981 -0.24657 0.24911
 N183 N 0.68423 0.25678 0.20529
 N184 N 0.70145 0.27880 0.18618
 C185 C 0.68348 0.28816 0.15769
 C186 C 0.65301 0.27158 0.15935
 C187 C 0.65450 0.25164 0.18979
 H188 H 0.69226 0.30500 0.13681
 H189 H 0.63566 0.23416 0.19954
 Cu190 Cu 0.74581 0.29280 0.20031
 Cu191 Cu 0.70244 0.23580 0.24818
 Cu192 Cu 0.78899 0.24135 0.25447
 N193 N 0.78763 0.30705 0.22106
 N194 N 0.80513 0.28641 0.24149
 C195 C 0.83323 0.30204 0.25150
 C196 C 0.83283 0.33458 0.23736
 C197 C 0.80377 0.33667 0.21771
 H198 H 0.85239 0.29062 0.26800
 H199 H 0.79492 0.35825 0.20239
 N200 N 0.76252 0.20655 0.27979
 N201 N 0.72945 0.20591 0.27929
 C202 C 0.71863 0.18129 0.30157
 C203 C 0.74626 0.16507 0.31626
 C204 C 0.77364 0.18214 0.30210
 H205 H 0.69253 0.17598 0.30714
 H206 H 0.79975 0.17764 0.30827
 H207 H 0.74454 0.26503 0.25833
 H208 H 0.74688 0.23432 0.22225
 C209 C 0.21881 0.10047 0.50503
 C210 C 0.21789 0.09873 0.46911
 C211 C 0.22511 0.06564 0.46118
 N212 N 0.23062 0.04723 0.49101
 C213 C 0.22647 0.06837 0.51787
 C214 C 0.22864 0.05359 0.42677
 C215 C 0.23518 0.01955 0.41915
 C216 C 0.24524 0.00832 0.38654
 C217 C 0.24798 -0.02611 0.38965
 C218 C 0.23917 -0.03508 0.42395
 N219 N 0.23107 -0.00713 0.44163
 C220 C 0.23728 -0.06859 0.43732
 C221 C 0.23287 -0.07749 0.47321
 C222 C 0.22731 -0.10996 0.48624
 C223 C 0.22678 -0.10826 0.52218
 C224 C 0.23216 -0.07484 0.52985
 N225 N 0.23606 -0.05614 0.49992
 C226 C 0.23554 -0.06259 0.56405
 C227 C 0.23901 -0.02817 0.57146
 C228 C 0.24865 -0.01620 0.60370
 C229 C 0.24757 0.01832 0.60077
 C230 C 0.23725 0.02652 0.56680
 N231 N 0.23173 -0.00200 0.54926
 C232 C 0.23170 0.05971 0.55368
 H233 H 0.21474 0.12291 0.51995
 H234 H 0.21301 0.11961 0.45093
 H235 H 0.22012 -0.00356 0.52506
 H236 H 0.25007 0.02328 0.36285
 H237 H 0.25530 -0.04268 0.36885
 H238 H 0.22430 -0.13256 0.47139
 H239 H 0.22329 -0.12929 0.54055
 H240 H 0.25348 0.03540 0.62147
 H241 H 0.21994 -0.00659 0.46629
 H242 H 0.25558 -0.03081 0.62702
 C243 C 0.73458 0.10929 0.47463
 C244 C 0.73714 0.11168 0.51043
 C245 C 0.75104 0.08162 0.52285
 N246 N 0.75718 0.06107 0.49588
 C247 C 0.74711 0.07789 0.46638
 C248 C 0.76070 0.07480 0.55806
 C249 C 0.76908 0.04208 0.57107
 C250 C 0.78295 0.03489 0.60380
 C251 C 0.78518 0.00037 0.60733
 C252 C 0.77298 -0.01261 0.57651
 N253 N 0.76293 0.01295 0.55471
 C254 C 0.77005 -0.04733 0.56994
 C255 C 0.76549 -0.06018 0.53606
 C256 C 0.76110 -0.09393 0.52906
 C257 C 0.76030 -0.09616 0.49314
 C258 C 0.76411 -0.06371 0.47941
 N259 N 0.76759 -0.04182 0.50568
 C260 C 0.76666 -0.05510 0.44322
 C261 C 0.76791 -0.02152 0.42989
 C262 C 0.77701 -0.01218 0.39575
 C263 C 0.77310 0.02218 0.39264
 C264 C 0.76144 0.03289 0.42487
 N265 N 0.75828 0.00608 0.44738
 C266 C 0.75171 0.06634 0.43191
 H267 H 0.72509 0.12865 0.45668
 H268 H 0.73006 0.13326 0.52555
 H269 H 0.74638 0.00612 0.47174
 H270 H 0.79039 0.05264 0.62331
 H271 H 0.79477 -0.01359 0.62999
 H272 H 0.75928 -0.11484 0.54784
 H273 H 0.75769 -0.11911 0.47879
 H274 H 0.77779 0.03745 0.36912
 H275 H 0.74936 0.01043 0.53172
 H276 H 0.78532 -0.02845 0.37509
 C277 C 0.50701 0.27170 0.09098
 C278 C 0.47311 0.26593 0.08998
 C279 C 0.46644 0.25325 0.05719
 N280 N 0.49502 0.25134 0.03812
 C281 C 0.51978 0.26283 0.05859
 C282 C 0.43503 0.24110 0.04622
 C283 C 0.42854 0.23311 0.01095
 C284 C 0.40092 0.21528 -0.00020
 C285 C 0.40186 0.21624 -0.03638
 C286 C 0.43012 0.23445 -0.04626
 N287 N 0.44626 0.24458 -0.01730
 C288 C 0.43878 0.24377 -0.08122
 C289 C 0.47110 0.25518 -0.09097
 C290 C 0.48007 0.26801 -0.12397
 C291 C 0.51407 0.27308 -0.12330
 C292 C 0.52458 0.26362 -0.08979
 N293 N 0.49836 0.25244 -0.07019
 C294 C 0.55816 0.26344 -0.07842
 C295 C 0.56754 0.25920 -0.04280
 C296 C 0.60007 0.25386 -0.03117
 C297 C 0.59892 0.25384 0.00502
 C298 C 0.56572 0.25913 0.01444
 N299 N 0.54685 0.26263 -0.01485
 C300 C 0.55405 0.26319 0.04921
 H301 H 0.52071 0.28119 0.11305
 H302 H 0.45551 0.27006 0.11119
 H303 H 0.52215 0.27093 -0.01578
 H304 H 0.38168 0.20345 0.01603
 H305 H 0.38354 0.20526 -0.05348
 H306 H 0.46392 0.27269 -0.14636
 H307 H 0.52932 0.28256 -0.14500
 H308 H 0.62020 0.25084 0.02237
 H309 H 0.46547 0.26217 -0.01697
 H310 H 0.62240 0.25089 -0.04709
 C311 C 0.49048 0.74381 0.12120
 C312 C 0.52477 0.74603 0.12193
 C313 C 0.53594 0.74185 0.08775
 N314 N 0.50969 0.73693 0.06629
 C315 C 0.48187 0.73837 0.08660
 C316 C 0.56998 0.74002 0.07753
 C317 C 0.58088 0.73817 0.04221
 C318 C 0.61316 0.72970 0.03194
 C319 C 0.61390 0.73172 -0.00422
 C320 C 0.58207 0.74145 -0.01509
 N321 N 0.56220 0.74564 0.01341
 C322 C 0.57279 0.74776 -0.05055
 C323 C 0.53928 0.75188 -0.06186
 C324 C 0.52979 0.76163 -0.09565
 C325 C 0.49537 0.76079 -0.09626
 C326 C 0.48502 0.75039 -0.06287
 N327 N 0.51190 0.74470 -0.04201
 C328 C 0.45135 0.74471 -0.05270
 C329 C 0.44127 0.73569 -0.01803
 C330 C 0.40974 0.72366 -0.00873
 C331 C 0.40912 0.72021 0.02730
 C332 C 0.44019 0.73044 0.03905
 N333 N 0.45958 0.73996 0.01126
 C334 C 0.44892 0.73286 0.07481
 H335 H 0.47384 0.74561 0.14363
 H336 H 0.53978 0.74980 0.14509
 H337 H 0.48221 0.75262 0.01241
 H338 H 0.63403 0.72280 0.04875
 H339 H 0.63550 0.72672 -0.02063
 H340 H 0.54598 0.76844 -0.11763
 H341 H 0.47977 0.76677 -0.11880
 H342 H 0.38797 0.71167 0.04307
 H343 H 0.53846 0.75639 0.01335
 H344 H 0.38913 0.71829 -0.02603
 C345 C 0.10094 0.50563 0.26897
 C346 C 0.09985 0.47166 0.26379
 C347 C 0.06812 0.46487 0.25111
 N348 N 0.04980 0.49347 0.24862
 C349 C 0.06973 0.51836 0.25970
 C350 C 0.05761 0.43338 0.23892
 C351 C 0.02359 0.42584 0.23242
 C352 C 0.01241 0.39705 0.21646
 C353 C -0.02207 0.39774 0.21804
 C354 C -0.03103 0.42723 0.23435
 N355 N -0.00309 0.44404 0.24326
 C356 C -0.06422 0.43678 0.24271
 C357 C -0.07363 0.47000 0.25085
 C358 C -0.10576 0.48002 0.26006
 C359 C -0.10479 0.51434 0.26333
 C360 C -0.07207 0.52408 0.25622
 N361 N -0.05317 0.49701 0.24827
 C362 C -0.06071 0.55772 0.25479
 C363 C -0.02656 0.56676 0.25157
 C364 C -0.01509 0.59915 0.24419
 C365 C 0.01935 0.59781 0.24538
 C366 C 0.02797 0.56461 0.25321
 N367 N -0.00014 0.54594 0.25730
 C368 C 0.06101 0.55278 0.25864
 H369 H 0.12241 0.51942 0.27807
 H370 H 0.12030 0.45408 0.26817
 H371 H -0.00125 0.52138 0.26733
 H372 H 0.02751 0.37725 0.20542
 H373 H -0.03861 0.37862 0.20838
 H374 H -0.12773 0.46434 0.26346
 H375 H -0.12580 0.53034 0.26986
 H376 H 0.03608 0.61895 0.24124
 H377 H -0.00235 0.46449 0.25962
 H378 H -0.02999 0.62153 0.23889
 C379 C 0.11054 0.49049 0.73855
 C380 C 0.11119 0.52423 0.74510
 C381 C 0.07985 0.53239 0.75838
 N382 N 0.06012 0.50486 0.76011
 C383 C 0.07872 0.47930 0.74774
 C384 C 0.07055 0.56423 0.77088
 C385 C 0.03688 0.57312 0.77799
 C386 C 0.02686 0.60193 0.79492
 C387 C -0.00757 0.60330 0.79296
 C388 C -0.01762 0.57515 0.77512
 N389 N 0.00960 0.55689 0.76614
 C390 C -0.05088 0.56869 0.76455
 C391 C -0.06197 0.53614 0.75615
 C392 C -0.09407 0.52813 0.74545
 C393 C -0.09494 0.49368 0.74289
 C394 C -0.06319 0.48194 0.75144
 N395 N -0.04325 0.50785 0.75988
 C396 C -0.05364 0.44768 0.75368
 C397 C -0.01992 0.43670 0.75644
 C398 C -0.01002 0.40363 0.76332
 C399 C 0.02440 0.40290 0.76109
 C400 C 0.03461 0.43560 0.75340
 N401 N 0.00747 0.45596 0.75026
 C402 C 0.06810 0.44553 0.74718
 H403 H 0.13123 0.47586 0.72851
 H404 H 0.13244 0.54074 0.74090
 H405 H 0.00757 0.48063 0.74046
 H406 H 0.04276 0.62051 0.80662
 H407 H -0.02339 0.62310 0.80292
 H408 H -0.11485 0.54520 0.74061
 H409 H -0.11644 0.47894 0.73559
 H410 H 0.04007 0.38077 0.76453
 H411 H 0.00972 0.53731 0.74864
 H412 H -0.02595 0.38209 0.76877
 C413 C 0.37841 0.25729 0.06708
 C414 C 0.35187 0.25593 0.09090
 C415 C 0.35351 0.23572 0.12172
 C416 C 0.38328 0.21681 0.12863
 C417 C 0.40931 0.21635 0.10299
 C418 C 0.40718 0.23756 0.07246
 C419 C 0.43692 0.19485 0.10898
 N420 N 0.43960 0.17727 0.13989
 N421 N 0.41655 0.17974 0.16511
 C422 C 0.38873 0.19910 0.16070
 H423 H 0.37638 0.27373 0.04395
 H424 H 0.32966 0.27070 0.08484
 H425 H 0.45651 0.19206 0.08951
 H426 H 0.37184 0.20111 0.18276
 C427 C 0.61093 0.76729 0.11609
 C428 C 0.63289 0.76707 0.14440
 C429 C 0.64042 0.73710 0.16350
 C430 C 0.62310 0.70706 0.15472
 C431 C 0.60152 0.70732 0.12512
 C432 C 0.59542 0.73771 0.10594
 C433 C 0.58569 0.67720 0.11618
 N434 N 0.58952 0.64915 0.13686
 N435 N 0.60776 0.64936 0.16601
 C436 C 0.62421 0.67732 0.17589
 H437 H 0.60587 0.79083 0.10197
 H438 H 0.64510 0.79052 0.15030
 H439 H 0.56996 0.67582 0.09321
 H440 H 0.63661 0.67620 0.20098
 C441 C 0.59557 0.23925 -0.12338
 C442 C 0.62033 0.24187 -0.14926
 C443 C 0.63509 0.27299 -0.15803
 C444 C 0.62360 0.30234 -0.14114
 C445 C 0.59877 0.29949 -0.11439
 C446 C 0.58493 0.26765 -0.10546
 C447 C 0.58812 0.32883 -0.09775
 N448 N 0.60103 0.35911 -0.10791
 N449 N 0.62367 0.36198 -0.13365
 C450 C 0.63524 0.33475 -0.15072
 H451 H 0.58481 0.21482 -0.11700
 H452 H 0.62861 0.21922 -0.16195
 H453 H 0.56949 0.32800 -0.07697
 H454 H 0.65284 0.33892 -0.17205
 C455 C 0.41426 0.72076 -0.09772
 C456 C 0.38711 0.72289 -0.12059
 C457 C 0.36982 0.75334 -0.12615
 C458 C 0.37994 0.78224 -0.10794
 C459 C 0.40759 0.78001 -0.08470
 C460 C 0.42460 0.74896 -0.07951
 C461 C 0.41702 0.80894 -0.06683
 N462 N 0.39952 0.83800 -0.07165
 N463 N 0.37317 0.83999 -0.09294
 C464 C 0.36269 0.81315 -0.11108
 H465 H 0.42689 0.69680 -0.09360
 H466 H 0.37961 0.70059 -0.13421
 H467 H 0.43809 0.80870 -0.04904
 H468 H 0.34070 0.81622 -0.12729
 C469 C 0.08270 0.37750 0.25382
 C470 C 0.10813 0.35357 0.25185
 C471 C 0.13628 0.35887 0.23005
 C472 C 0.13837 0.38936 0.20954
 C473 C 0.11109 0.41245 0.20954
 C474 C 0.08373 0.40707 0.23298
 C475 C 0.11245 0.44083 0.18657
 N476 N 0.14045 0.44707 0.16718
 N477 N 0.16712 0.42689 0.16929
 C478 C 0.16718 0.39854 0.19001
 H479 H 0.06208 0.37303 0.27199
 H480 H 0.10568 0.33066 0.26776
 H481 H 0.09163 0.45823 0.18408
 H482 H 0.19016 0.38427 0.19173
 C483 C 0.09660 0.61817 0.75206
 C484 C 0.12258 0.64132 0.75148
 C485 C 0.15102 0.63703 0.77308
 C486 C 0.15283 0.60737 0.79527
 C487 C 0.12498 0.58509 0.79753
 C488 C 0.09727 0.59002 0.77481
 C489 C 0.12620 0.55764 0.82167
 N490 N 0.15464 0.55103 0.83992
 N491 N 0.18191 0.56987 0.83533
 C492 C 0.18217 0.59733 0.81331
 H493 H 0.07572 0.62216 0.73429
 H494 H 0.11955 0.66324 0.73426
 H495 H 0.10498 0.54109 0.82579
 H496 H 0.20583 0.60975 0.80895
 C497 C -0.09058 0.60308 0.28572
 C498 C -0.11375 0.62932 0.28719
 C499 C -0.13357 0.63850 0.25791
 C500 C -0.12710 0.62244 0.22542
 C501 C -0.10405 0.59512 0.22438
 C502 C -0.08610 0.58526 0.25494
 C503 C -0.09868 0.57919 0.19228
 N504 N -0.11410 0.59097 0.16276
 N505 N -0.13410 0.61783 0.16312
 C506 C -0.14072 0.63419 0.19317
 H507 H -0.07635 0.59621 0.30904
 H508 H -0.11731 0.64117 0.31220
 H509 H -0.08192 0.55788 0.19022
 H510 H -0.15532 0.65705 0.19102
 C511 C -0.08552 0.40225 0.72571
 C512 C -0.10826 0.37571 0.72671
 C513 C -0.12694 0.36766 0.75731
 C514 C -0.12017 0.38576 0.78842
 C515 C -0.09764 0.41341 0.78690
 C516 C -0.08034 0.42159 0.75526
 C517 C -0.09186 0.43121 0.81771
 N518 N -0.10636 0.42094 0.84843
 N519 N -0.12576 0.39379 0.85049
 C520 C -0.13270 0.37563 0.82184
 H521 H -0.07176 0.40778 0.70161
 H522 H -0.11217 0.36236 0.70268
 H523 H -0.07553 0.45286 0.81785
 H524 H -0.14660 0.35265 0.82606
 C525 C 0.25653 0.09062 0.38200
 C526 C 0.25596 0.11412 0.35415
 C527 C 0.22550 0.12660 0.34100
 C528 C 0.19492 0.11448 0.35554
 C529 C 0.19551 0.09015 0.38352
 C530 C 0.22662 0.07842 0.39689
 C531 C 0.16482 0.07825 0.39722
 N532 N 0.13555 0.09002 0.38357
 N533 N 0.13497 0.11274 0.35714
 C534 C 0.16359 0.12530 0.34260
 H535 H 0.28046 0.08181 0.39206
 H536 H 0.27952 0.12320 0.34324
 H537 H 0.16382 0.05966 0.41855
 H538 H 0.16155 0.14334 0.32089
 C539 C 0.74009 0.10520 0.61026
 C540 C 0.73999 0.13237 0.63259
 C541 C 0.76224 0.15939 0.62734
 C542 C 0.78481 0.15893 0.59827
 C543 C 0.78594 0.13043 0.57656
 C544 C 0.76287 0.10371 0.58223
 C545 C 0.81008 0.12975 0.54948
 N546 N 0.83019 0.15670 0.54320
 N547 N 0.82776 0.18423 0.56215
 C548 C 0.80567 0.18638 0.58921
 H549 H 0.72220 0.08507 0.61487
 H550 H 0.72248 0.13206 0.65446
 H551 H 0.81310 0.10812 0.53315
 H552 H 0.80422 0.20985 0.60266
 C553 C 0.26704 -0.10355 0.60153
 C554 C 0.26931 -0.12715 0.62918
 C555 C 0.24114 -0.13540 0.64979
 C556 C 0.21027 -0.11856 0.64316
 C557 C 0.20798 -0.09466 0.61488
 C558 C 0.23660 -0.08740 0.59393
 C559 C 0.17701 -0.07866 0.60848
 N560 N 0.15036 -0.08568 0.62967
 N561 N 0.15266 -0.10751 0.65679
 C562 C 0.18166 -0.12406 0.66435
 H563 H 0.28913 -0.09795 0.58575
 H564 H 0.29309 -0.13967 0.63401
 H565 H 0.17379 -0.06056 0.58696
 H566 H 0.18209 -0.14088 0.68716
 C567 C 0.73902 -0.09557 0.40457
 C568 C 0.73952 -0.12128 0.38047
 C569 C 0.76990 -0.13494 0.36860
 C570 C 0.80055 -0.12155 0.38090
 C571 C 0.79991 -0.09583 0.40608
 C572 C 0.76886 -0.08280 0.41779
 C573 C 0.83054 -0.08350 0.41837
 N574 N 0.85984 -0.09549 0.40547
 N575 N 0.86052 -0.11879 0.38103
 C576 C 0.83197 -0.13205 0.36817
 H577 H 0.71510 -0.08566 0.41321
 H578 H 0.71582 -0.13096 0.37144
 H579 H 0.83144 -0.06429 0.43790
 H580 H 0.83427 -0.15007 0.34763
 C581 C 0.61881 0.77835 -0.08166
 C582 C 0.64467 0.78061 -0.10638
 C583 C 0.65247 0.75345 -0.12771
 C584 C 0.63284 0.72374 -0.12481
 C585 C 0.60676 0.72135 -0.09934
 C586 C 0.59985 0.74891 -0.07766
 C587 C 0.58830 0.69131 -0.09639
 N588 N 0.59492 0.66582 -0.11833
 N589 N 0.61868 0.66840 -0.14297
 C590 C 0.63772 0.69646 -0.14708
 H591 H 0.61365 0.79964 -0.06530
 H592 H 0.65925 0.80355 -0.10829
 H593 H 0.56860 0.68789 -0.07698
 H594 H 0.65602 0.69727 -0.16810
 C595 C 0.38532 0.26447 -0.10659
 C596 C 0.36076 0.26561 -0.13239
 C597 C 0.36275 0.24491 -0.16156
 C598 C 0.39065 0.22277 -0.16478
 C599 C 0.41484 0.22054 -0.13755
 C600 C 0.41245 0.24218 -0.10872
 C601 C 0.44097 0.19688 -0.14029
 N602 N 0.44381 0.17824 -0.16941
 N603 N 0.42231 0.18170 -0.19591
 C604 C 0.39605 0.20344 -0.19473
 H605 H 0.38321 0.28123 -0.08473
 H606 H 0.33980 0.28270 -0.12929
 H607 H 0.45926 0.19317 -0.11965
 H608 H 0.38030 0.20585 -0.21761
 C609 C 0.40189 0.75743 0.10810
 C610 C 0.37664 0.75581 0.13342
 C611 C 0.37039 0.72592 0.15283
 C612 C 0.39050 0.69708 0.14678
 C613 C 0.41613 0.69876 0.12077
 C614 C 0.42181 0.72926 0.10155
 C615 C 0.43555 0.66982 0.11502
 N616 N 0.43004 0.64134 0.13467
 N617 N 0.40655 0.63995 0.15968
 C618 C 0.38673 0.66682 0.16652
 H619 H 0.40610 0.78091 0.09356
 H620 H 0.36163 0.77811 0.13774
 H621 H 0.45509 0.66961 0.09520
 H622 H 0.36864 0.66427 0.18762
 C623 C 0.58996 0.23818 0.09602
 C624 C 0.61335 0.24035 0.12287
 C625 C 0.62649 0.27154 0.13217
 C626 C 0.61477 0.30134 0.11459
 C627 C 0.59138 0.29896 0.08680
 C628 C 0.57909 0.26710 0.07754
 C629 C 0.58056 0.32874 0.06943
 N630 N 0.59185 0.35895 0.07990
 N631 N 0.61304 0.36133 0.10662
 C632 C 0.62471 0.33366 0.12442
 H633 H 0.58048 0.21369 0.08932
 H634 H 0.62181 0.21731 0.13598
 H635 H 0.56306 0.32828 0.04783
 H636 H 0.64104 0.33739 0.14648
 C637 C -0.10132 0.59789 0.78769
 C638 C -0.12343 0.62507 0.78879
 C639 C -0.11980 0.65343 0.76591
 C640 C -0.09125 0.65461 0.74301
 C641 C -0.07020 0.62583 0.74032
 C642 C -0.07504 0.59751 0.76327
 C643 C -0.04414 0.62663 0.71520
 N644 N -0.03751 0.65544 0.69659
 N645 N -0.05503 0.68346 0.70161
 C646 C -0.08120 0.68418 0.72448
 H647 H -0.10494 0.57673 0.80591
 H648 H -0.14425 0.62298 0.80705
 H649 H -0.02869 0.60478 0.71050
 H650 H -0.09267 0.70828 0.72900
 C651 C -0.10672 0.40366 0.21130
 C652 C -0.13166 0.37927 0.21028
 C653 C -0.14146 0.36114 0.24081
 C654 C -0.12634 0.36869 0.27337
 C655 C -0.10039 0.39299 0.27417
 C656 C -0.09063 0.41047 0.24285
 C657 C -0.08527 0.39946 0.30657
 N658 N -0.09625 0.38337 0.33633
 N659 N -0.12137 0.36144 0.33585
 C660 C -0.13691 0.35371 0.30554
 H661 H -0.09964 0.41714 0.18724
 H662 H -0.14305 0.37414 0.18523
 H663 H -0.06502 0.41732 0.30856
 H664 H -0.15778 0.33655 0.30718
 C665 C 0.10913 0.40343 0.76981
 C666 C 0.13463 0.37994 0.76523
 C667 C 0.14581 0.37184 0.73149
 C668 C 0.13127 0.38850 0.70168
 C669 C 0.10460 0.41169 0.70643
 C670 C 0.09375 0.41922 0.74077
 C671 C 0.09005 0.42728 0.67654
 N672 N 0.10225 0.42084 0.64411
 N673 N 0.12808 0.40006 0.63964
 C674 C 0.14314 0.38390 0.66723
 H675 H 0.10127 0.40938 0.79622
 H676 H 0.14546 0.36769 0.78833
 H677 H 0.06926 0.44468 0.67869
 H678 H 0.16466 0.36832 0.66184
 C679 C 0.10365 0.59027 0.23104
 C680 C 0.13011 0.61288 0.23254
 C681 C 0.14226 0.62340 0.26493
 C682 C 0.12789 0.60989 0.29655
 C683 C 0.10034 0.58753 0.29489
 C684 C 0.08834 0.57774 0.26185
 C685 C 0.08600 0.57512 0.32650
 N686 N 0.09919 0.58375 0.35770
 N687 N 0.12578 0.60378 0.35935
 C688 C 0.14069 0.61694 0.32994
 H689 H 0.09486 0.58258 0.20562
 H690 H 0.14081 0.62272 0.20812
 H691 H 0.06461 0.55845 0.32667
 H692 H 0.16281 0.63208 0.33309
 C693 C 0.74477 -0.08024 0.61963
 C694 C 0.74609 -0.10459 0.64670
 C695 C 0.77618 -0.12133 0.65502
 C696 C 0.80595 -0.11196 0.63656
 C697 C 0.80441 -0.08750 0.60863
 C698 C 0.77347 -0.07187 0.60003
 C699 C 0.83408 -0.07918 0.59031
 N700 N 0.86349 -0.09380 0.60002
 N701 N 0.86519 -0.11602 0.62684
 C702 C 0.83755 -0.12544 0.64553
 H703 H 0.72098 -0.06833 0.61335
 H704 H 0.72314 -0.11114 0.66059
 H705 H 0.83421 -0.06097 0.56861
 H706 H 0.84080 -0.14281 0.66761
 C707 C 0.21438 -0.10532 0.39192
 C708 C 0.21700 -0.13175 0.36887
 C709 C 0.24706 -0.14978 0.36555
 C710 C 0.27495 -0.14140 0.38656
 C711 C 0.27236 -0.11415 0.40965
 C712 C 0.24175 -0.09626 0.41234
 C713 C 0.30053 -0.10582 0.42964
 N714 N 0.32902 -0.12434 0.42736
 N715 N 0.33116 -0.15062 0.40655
 C716 C 0.30513 -0.15989 0.38625
 H717 H 0.19081 -0.09185 0.39396
 H718 H 0.19542 -0.13794 0.35316
 H719 H 0.30013 -0.08485 0.44714
 H720 H 0.30823 -0.18194 0.37065
 C721 C 0.77168 0.11740 0.39906
 C722 C 0.77062 0.14069 0.37105
 C723 C 0.74680 0.13813 0.34427
 C724 C 0.72392 0.11073 0.34571
 C725 C 0.72410 0.08787 0.37516
 C726 C 0.74852 0.09105 0.40176
 C727 C 0.69984 0.06227 0.37689
 N728 N 0.67821 0.05865 0.34995
 N729 N 0.67923 0.07887 0.32144
 C730 C 0.70142 0.10456 0.31828
 H731 H 0.79069 0.12003 0.41901
 H732 H 0.78842 0.16121 0.37063
 H733 H 0.69795 0.04501 0.39932
 H734 H 0.70166 0.11926 0.29400
 C735 C 0.20319 0.09829 0.59423
 C736 C 0.20335 0.12345 0.61891
 C737 C 0.23353 0.13791 0.62929
 C738 C 0.26411 0.12769 0.61363
 C739 C 0.26387 0.10225 0.58835
 C740 C 0.23316 0.08735 0.57898
 C741 C 0.29450 0.09253 0.57314
 N742 N 0.32335 0.10770 0.58255
 N743 N 0.32357 0.13192 0.60600
 C744 C 0.29500 0.14250 0.62177
 H745 H 0.17956 0.08708 0.58707
 H746 H 0.17981 0.13132 0.63048
 H747 H 0.29574 0.07316 0.55379
 H748 H 0.29674 0.16260 0.64017
   
