data_POSCAR
  _audit_creation_date              2014-09-24
  _audit_creation_method            'ToBaCCo'
  _symmetry_space_group_name_H-M    'P1'
  _symmetry_Int_Tables_number       1
  _symmetry_cell_setting            triclinic
  loop_
  _symmetry_equiv_pos_as_xyz
 x,y,z
_cell_length_a 42.5304
_cell_length_b 33.1956
_cell_length_c 30.3461
_cell_angle_alpha 90.175800
_cell_angle_beta 90.036100
_cell_angle_gamma 90.128500
loop_
  _atom_site_label
  _atom_site_type_symbol
  _atom_site_fract_x
  _atom_site_fract_y
  _atom_site_fract_z
C1 C 0.24947 0.26954 0.24917
 C2 C 0.24935 0.22845 0.24918
 C3 C 0.22594 0.20487 0.22343
 C4 C 0.27265 0.20496 0.27492
 C5 C 0.27449 0.29305 0.27185
 C6 C 0.22458 0.29302 0.22651
 C7 C 0.20720 0.17605 0.24477
 C8 C 0.18462 0.15420 0.22122
 C9 C 0.18070 0.16071 0.17593
 C10 C 0.19978 0.18889 0.15426
 C11 C 0.22240 0.21070 0.17785
 C12 C 0.27622 0.21103 0.32051
 C13 C 0.29878 0.18934 0.34405
 C14 C 0.31772 0.16110 0.32235
 C15 C 0.31379 0.15432 0.27714
 C16 C 0.29128 0.17601 0.25356
 C17 C 0.30640 0.28692 0.26188
 C18 C 0.32971 0.30843 0.28447
 C19 C 0.32133 0.33655 0.31687
 C20 C 0.28956 0.34343 0.32622
 C21 C 0.26625 0.32192 0.30371
 C22 C 0.23298 0.32176 0.19474
 C23 C 0.20979 0.34330 0.17230
 C24 C 0.17798 0.33658 0.18163
 C25 C 0.16945 0.30857 0.21393
 C26 C 0.19263 0.28703 0.23645
 H27 H 0.20974 0.17097 0.27984
 H28 H 0.17014 0.13246 0.23850
 H29 H 0.19718 0.19417 0.11920
 H30 H 0.23705 0.23225 0.16065
 H31 H 0.26166 0.23267 0.33773
 H32 H 0.30153 0.19468 0.37908
 H33 H 0.28874 0.17074 0.21850
 H34 H 0.31321 0.26533 0.23684
 H35 H 0.35421 0.30304 0.27681
 H36 H 0.28283 0.36521 0.35113
 H37 H 0.24178 0.32723 0.31167
 H38 H 0.25748 0.32697 0.18681
 H39 H 0.21666 0.36499 0.14747
 H40 H 0.14491 0.30329 0.22158
 H41 H 0.18569 0.26555 0.26142
 H42 H 0.32827 0.13247 0.26006
 C43 C 0.75008 0.22882 0.24969
 C44 C 0.75003 0.26991 0.24964
 C45 C 0.77337 0.29347 0.22395
 C46 C 0.72664 0.29343 0.27530
 C47 C 0.72508 0.20529 0.27220
 C48 C 0.77515 0.20538 0.22724
 C49 C 0.79198 0.32257 0.24530
 C50 C 0.81448 0.34439 0.22176
 C51 C 0.81844 0.33756 0.17656
 C52 C 0.79955 0.30915 0.15486
 C53 C 0.77699 0.28733 0.17838
 C54 C 0.72305 0.28759 0.32089
 C55 C 0.70046 0.30938 0.34438
 C56 C 0.68151 0.33747 0.32264
 C57 C 0.68543 0.34400 0.27743
 C58 C 0.70797 0.32221 0.25391
 C59 C 0.69318 0.21124 0.26205
 C60 C 0.66988 0.18979 0.28454
 C61 C 0.67825 0.16192 0.31702
 C62 C 0.71002 0.15520 0.32653
 C63 C 0.73333 0.17665 0.30411
 C64 C 0.76699 0.17643 0.19537
 C65 C 0.79036 0.15504 0.17302
 C66 C 0.82211 0.16214 0.18255
 C67 C 0.83040 0.19033 0.21498
 C68 C 0.80704 0.21172 0.23740
 H69 H 0.78940 0.32790 0.28035
 H70 H 0.82892 0.36637 0.23884
 H71 H 0.80232 0.30377 0.11985
 H72 H 0.76245 0.26557 0.16115
 H73 H 0.73764 0.26609 0.33815
 H74 H 0.69772 0.30424 0.37940
 H75 H 0.71052 0.32731 0.21885
 H76 H 0.68636 0.23266 0.23696
 H77 H 0.64537 0.19507 0.27675
 H78 H 0.71676 0.13361 0.35150
 H79 H 0.75779 0.17148 0.31221
 H80 H 0.74254 0.17096 0.18727
 H81 H 0.78369 0.13321 0.14809
 H82 H 0.85489 0.19590 0.22278
 H83 H 0.81379 0.23338 0.26245
 H84 H 0.67094 0.36573 0.26032
 C85 C 0.75043 0.77262 0.75065
 C86 C 0.75034 0.73154 0.75059
 C87 C 0.72686 0.70797 0.72495
 C88 C 0.77373 0.70802 0.77613
 C89 C 0.77556 0.79612 0.77311
 C90 C 0.72541 0.79609 0.72825
 C91 C 0.70822 0.67907 0.74635
 C92 C 0.68562 0.65721 0.72285
 C93 C 0.68160 0.66377 0.67766
 C94 C 0.70052 0.69199 0.65592
 C95 C 0.72317 0.71386 0.67939
 C96 C 0.77747 0.71404 0.82171
 C97 C 0.80005 0.69223 0.84508
 C98 C 0.81884 0.66393 0.82323
 C99 C 0.81477 0.65723 0.77803
 C100 C 0.79225 0.67904 0.75462
 C101 C 0.80742 0.78996 0.76285
 C102 C 0.83085 0.81134 0.78532
 C103 C 0.82266 0.83940 0.81793
 C104 C 0.79091 0.84633 0.82753
 C105 C 0.76749 0.82492 0.80511
 C106 C 0.73361 0.82480 0.69635
 C107 C 0.71028 0.84615 0.67398
 C108 C 0.67853 0.83927 0.68353
 C109 C 0.67019 0.81134 0.71600
 C110 C 0.69351 0.78999 0.73844
 H111 H 0.71085 0.67393 0.78139
 H112 H 0.67116 0.63537 0.73996
 H113 H 0.69770 0.69716 0.62091
 H114 H 0.73773 0.73546 0.66213
 H115 H 0.76300 0.73570 0.83905
 H116 H 0.80291 0.69751 0.88011
 H117 H 0.78957 0.67380 0.71957
 H118 H 0.81409 0.76841 0.73770
 H119 H 0.85531 0.80582 0.77737
 H120 H 0.78421 0.86803 0.85256
 H121 H 0.74306 0.83026 0.81328
 H122 H 0.75807 0.83009 0.68821
 H123 H 0.71699 0.86778 0.64901
 H124 H 0.64569 0.80593 0.72382
 H125 H 0.68673 0.76852 0.76352
 H126 H 0.82913 0.63533 0.76083
 C127 C 0.24939 0.72881 0.75083
 C128 C 0.24937 0.76990 0.75079
 C129 C 0.27274 0.79343 0.72511
 C130 C 0.22599 0.79346 0.77643
 C131 C 0.22441 0.70530 0.77341
 C132 C 0.27439 0.70534 0.72829
 C133 C 0.29140 0.82246 0.74649
 C134 C 0.31394 0.84423 0.72297
 C135 C 0.31788 0.83744 0.67776
 C136 C 0.29893 0.80910 0.65604
 C137 C 0.27633 0.78733 0.67953
 C138 C 0.22239 0.78766 0.82201
 C139 C 0.19983 0.80949 0.84550
 C140 C 0.18089 0.83763 0.82374
 C141 C 0.18484 0.84411 0.77849
 C142 C 0.20736 0.82225 0.75501
 C143 C 0.19250 0.71124 0.76332
 C144 C 0.16922 0.68975 0.78581
 C145 C 0.17762 0.66181 0.81826
 C146 C 0.20943 0.65513 0.82771
 C147 C 0.23269 0.67664 0.80528
 C148 C 0.26614 0.67644 0.69641
 C149 C 0.28944 0.65501 0.67397
 C150 C 0.32121 0.66201 0.68342
 C151 C 0.32960 0.69015 0.71586
 C152 C 0.30631 0.71157 0.73837
 H153 H 0.28884 0.82775 0.78155
 H154 H 0.32842 0.86615 0.74007
 H155 H 0.30169 0.80376 0.62102
 H156 H 0.26176 0.76562 0.66229
 H157 H 0.23696 0.76613 0.83929
 H158 H 0.19714 0.80431 0.88055
 H159 H 0.20993 0.82732 0.71995
 H160 H 0.18566 0.73268 0.73827
 H161 H 0.14471 0.69508 0.77796
 H162 H 0.21629 0.63352 0.85262
 H163 H 0.25717 0.67148 0.81331
 H164 H 0.24167 0.67104 0.68836
 H165 H 0.28269 0.63322 0.64903
 H166 H 0.35411 0.69564 0.72359
 H167 H 0.31313 0.73319 0.76343
 H168 H 0.17042 0.86585 0.76124
 O169 O 1.03199 0.05121 0.00477
 O170 O 0.97070 -0.00370 -0.05650
 O171 O 0.97077 0.05099 0.00542
 O172 O 1.03193 -0.00431 -0.05579
 O173 O 1.03168 -0.05153 -0.00482
 O174 O 0.97067 0.00363 0.05623
 O175 O 0.97047 -0.05106 -0.00569
 O176 O 1.03190 0.00399 0.05575
 Cu177 Cu 1.00131 0.02828 -0.03062
 Cu178 Cu 1.00111 -0.02848 0.03047
 C179 C 1.04253 0.03700 0.04066
 C180 C 0.96013 -0.03682 -0.04172
 C181 C 0.96031 0.03679 0.04142
 C182 C 1.04234 -0.03736 -0.04066
 O183 O 0.46960 0.49610 0.44385
 O184 O 0.53072 0.55147 0.50494
 O185 O 0.53082 0.49591 0.44445
 O186 O 0.46951 0.55090 0.50568
 O187 O 0.46963 0.50360 0.55656
 O188 O 0.53080 0.44875 0.49549
 O189 O 0.53085 0.50431 0.55598
 O190 O 0.46960 0.44881 0.49473
 Cu191 Cu 0.50010 0.52832 0.46963
 Cu192 Cu 0.50017 0.47164 0.53080
 C193 C 0.45919 0.46292 0.45868
 C194 C 0.54135 0.53736 0.54083
 C195 C 0.54138 0.46295 0.45960
 C196 C 0.45915 0.53669 0.54173
 O197 O -0.03053 0.55180 -0.00487
 O198 O 0.03049 0.49646 0.05572
 O199 O 0.03067 0.55131 -0.00569
 O200 O -0.03073 0.49624 0.05525
 O201 O -0.03090 0.44910 0.00387
 O202 O 0.03038 0.50404 -0.05691
 O203 O 0.03030 0.44919 0.00450
 O204 O -0.03084 0.50466 -0.05624
 Cu205 Cu 0.00006 0.52868 0.03025
 Cu206 Cu -0.00023 0.47202 -0.03134
 C207 C -0.04123 0.53770 -0.04083
 C208 C 0.04078 0.46329 0.04065
 C209 C 0.04096 0.53714 -0.04186
 C210 C -0.04140 0.46327 0.03988
 O211 O 0.46864 1.05112 0.49536
 O212 O 0.52984 0.99670 0.55658
 O213 O 0.52986 1.05104 0.49465
 O214 O 0.46861 0.99600 0.55596
 O215 O 0.46872 0.94847 0.50501
 O216 O 0.52982 1.00338 0.44386
 O217 O 0.52993 0.94904 0.50579
 O218 O 0.46859 1.00359 0.44441
 Cu219 Cu 0.49929 1.02848 0.53073
 Cu220 Cu 0.49932 0.97136 0.46967
 C221 C 0.45804 1.03666 0.45950
 C222 C 0.54032 0.96350 0.54181
 C223 C 0.54025 1.03666 0.45864
 C224 C 0.45810 0.96284 0.54086
 C225 C 1.11493 0.10098 0.11074
 C226 C 1.10305 0.11635 0.07124
 C227 C 1.07946 0.09556 0.04845
 C228 C 1.15912 0.14083 0.15415
 C229 C 1.07954 0.04384 0.10469
 C230 C 1.10314 0.06471 0.12742
 C231 C 1.13905 0.12258 0.13429
 C232 C 1.06743 0.05906 0.06493
 H233 H 1.11199 0.14443 0.05808
 H234 H 1.07067 0.10810 0.01795
 H235 H 1.07081 0.01584 0.11825
 H236 H 1.11216 0.05257 0.15802
 C237 C 0.61365 0.60178 0.61064
 C238 C 0.60200 0.56546 0.62739
 C239 C 0.57843 0.54447 0.60475
 C240 C 0.65785 0.64181 0.65380
 C241 C 0.57809 0.59615 0.54847
 C242 C 0.60165 0.61707 0.57117
 C243 C 0.63777 0.62349 0.63406
 C244 C 0.56620 0.55959 0.56501
 H245 H 0.61111 0.55339 0.65796
 H246 H 0.56981 0.51642 0.61836
 H247 H 0.56921 0.60861 0.51798
 H248 H 0.61048 0.64518 0.55794
 C249 C -0.11374 0.39928 0.10950
 C250 C -0.10192 0.38393 0.06987
 C251 C -0.07836 0.40472 0.04722
 C252 C -0.15787 0.35944 0.15267
 C253 C -0.07834 0.45639 0.10387
 C254 C -0.10191 0.43552 0.12645
 C255 C -0.13783 0.37766 0.13291
 C256 C -0.06629 0.44120 0.06397
 H257 H -0.11089 0.35587 0.05649
 H258 H -0.06961 0.39222 0.01661
 H259 H -0.06958 0.48437 0.11764
 H260 H -0.11089 0.44763 0.15715
 C261 C 0.38579 0.89898 0.61069
 C262 C 0.39778 0.88340 0.57127
 C263 C 0.42134 0.90414 0.54857
 C264 C 0.34161 0.85926 0.65388
 C265 C 0.42104 0.95622 0.60475
 C266 C 0.39747 0.93540 0.62739
 C267 C 0.36168 0.87744 0.63413
 C268 C 0.43325 0.94080 0.56506
 H269 H 0.38893 0.85519 0.55809
 H270 H 0.43021 0.89145 0.51811
 H271 H 0.42968 0.98436 0.61831
 H272 H 0.38836 0.94770 0.65793
 C273 C -0.11339 0.60205 -0.11011
 C274 C -0.10185 0.56575 -0.12713
 C275 C -0.07833 0.54477 -0.10466
 C276 C -0.15747 0.64202 -0.15301
 C277 C -0.07781 0.59644 -0.04802
 C278 C -0.10132 0.61734 -0.07055
 C279 C -0.13744 0.62374 -0.13338
 C280 C -0.06604 0.55990 -0.06483
 H281 H -0.11101 0.55367 -0.15777
 H282 H -0.06979 0.51674 -0.11847
 H283 H -0.06887 0.60891 -0.01746
 H284 H -0.11006 0.64544 -0.05712
 C285 C 0.38564 1.09997 0.38955
 C286 C 0.39761 1.11564 0.42900
 C287 C 0.42120 1.09508 0.45174
 C288 C 0.34144 1.13940 0.34628
 C289 C 0.42095 1.04300 0.39555
 C290 C 0.39735 1.06364 0.37287
 C291 C 0.36151 1.12135 0.36607
 C292 C 0.43315 1.05850 0.43527
 H293 H 0.38874 1.14378 0.44217
 H294 H 0.43006 1.10783 0.48221
 H295 H 0.42962 1.01493 0.38200
 H296 H 0.38827 1.05127 0.34232
 C297 C 1.11445 -0.10162 -0.11046
 C298 C 1.10289 -0.06531 -0.12719
 C299 C 1.07939 -0.04435 -0.10455
 C300 C 1.15848 -0.14160 -0.15366
 C301 C 1.07893 -0.09608 -0.04832
 C302 C 1.10242 -0.11696 -0.07102
 C303 C 1.13848 -0.12331 -0.13390
 C304 C 1.06714 -0.05952 -0.06484
 H305 H 1.11202 -0.05320 -0.15774
 H306 H 1.07084 -0.01631 -0.11814
 H307 H 1.07003 -0.10858 -0.01785
 H308 H 1.11118 -0.14507 -0.05781
 C309 C 0.61366 0.39908 0.38975
 C310 C 0.60195 0.43530 0.37300
 C311 C 0.57839 0.45613 0.39566
 C312 C 0.65780 0.35932 0.34653
 C313 C 0.57818 0.40445 0.45195
 C314 C 0.60173 0.38370 0.42923
 C315 C 0.63775 0.37752 0.36629
 C316 C 0.56623 0.44092 0.43541
 H317 H 0.61101 0.44744 0.34242
 H318 H 0.56972 0.48411 0.38206
 H319 H 0.56936 0.39193 0.48245
 H320 H 0.61061 0.35566 0.44245
 C321 C 0.88932 -0.10107 -0.11473
 C322 C 0.90105 -0.06447 -0.13053
 C323 C 0.92407 -0.04353 -0.10677
 C324 C 0.84546 -0.14037 -0.15944
 C325 C 0.92370 -0.09581 -0.05117
 C326 C 0.90067 -0.11670 -0.07501
 C327 C 0.86551 -0.12248 -0.13914
 C328 C 0.93566 -0.05896 -0.06679
 H329 H 0.89240 -0.05209 -0.16122
 H330 H 0.93277 -0.01527 -0.11973
 H331 H 0.93212 -0.10852 -0.02054
 H332 H 0.89172 -0.14501 -0.06246
 C333 C 0.38881 0.39790 0.38565
 C334 C 0.40021 0.38245 0.42541
 C335 C 0.42308 0.40359 0.44928
 C336 C 0.34527 0.35813 0.34084
 C337 C 0.42319 0.45582 0.39362
 C338 C 0.40033 0.43462 0.36983
 C339 C 0.36517 0.37623 0.36119
 C340 C 0.43484 0.44054 0.43364
 H341 H 0.39143 0.35406 0.43798
 H342 H 0.43156 0.39099 0.47993
 H343 H 0.43173 0.48415 0.38063
 H344 H 0.39164 0.44688 0.33910
 C345 C 0.11144 0.60179 -0.11454
 C346 C 0.09976 0.56515 -0.13061
 C347 C 0.07688 0.54406 -0.10693
 C348 C 0.15499 0.64142 -0.15915
 C349 C 0.07728 0.59625 -0.05087
 C350 C 0.10017 0.61728 -0.07463
 C351 C 0.13508 0.62337 -0.13889
 C352 C 0.06536 0.55938 -0.06677
 H353 H 0.10834 0.55287 -0.16145
 H354 H 0.06820 0.51579 -0.12011
 H355 H 0.06891 0.60887 -0.02011
 H356 H 0.10908 0.64561 -0.06187
 C357 C 0.61072 1.10104 0.38567
 C358 C 0.59916 1.06424 0.36988
 C359 C 0.57627 1.04325 0.39364
 C360 C 0.65431 1.14047 0.34092
 C361 C 0.57641 1.09587 0.44922
 C362 C 0.59931 1.11680 0.42538
 C363 C 0.63439 1.12252 0.36124
 C364 C 0.56462 1.05883 0.43360
 H365 H 0.60785 1.05175 0.33920
 H366 H 0.56770 1.01485 0.38068
 H367 H 0.56794 1.10869 0.47983
 H368 H 0.60813 1.14526 0.43792
 C369 C 0.11087 0.39813 0.11320
 C370 C 0.09941 0.38272 0.07332
 C371 C 0.07665 0.40392 0.04959
 C372 C 0.15418 0.35823 0.15778
 C373 C 0.07676 0.45612 0.10564
 C374 C 0.09952 0.43486 0.12929
 C375 C 0.13438 0.37638 0.13753
 C376 C 0.06505 0.44088 0.06551
 H377 H 0.10807 0.35432 0.06055
 H378 H 0.06812 0.39135 0.01885
 H379 H 0.06834 0.48445 0.11883
 H380 H 0.10825 0.44709 0.16011
 C381 C 0.61090 0.89968 0.61485
 C382 C 0.59930 0.93639 0.63063
 C383 C 0.57637 0.95719 0.60685
 C384 C 0.65455 0.86057 0.65962
 C385 C 0.57656 0.90458 0.55127
 C386 C 0.59950 0.88383 0.57513
 C387 C 0.63460 0.87838 0.63930
 C388 C 0.56472 0.94152 0.56687
 H389 H 0.60798 0.94894 0.66133
 H390 H 0.56776 0.98553 0.61980
 H391 H 0.56809 0.89169 0.52065
 H392 H 0.60834 0.85544 0.56260
 C393 C 0.88980 0.10131 0.11416
 C394 C 0.90129 0.11689 0.07449
 C395 C 0.92422 0.09592 0.05073
 C396 C 0.84611 0.14073 0.15873
 C397 C 0.92423 0.04364 0.10632
 C398 C 0.90131 0.06466 0.13000
 C399 C 0.86608 0.12279 0.13848
 C400 C 0.93595 0.05903 0.06639
 H401 H 0.89251 0.14524 0.06191
 H402 H 0.93274 0.10861 0.02014
 H403 H 0.93275 0.01535 0.11931
 H404 H 0.89256 0.05231 0.16066
 C405 C 0.38870 0.60111 0.61471
 C406 C 0.40029 0.56449 0.63054
 C407 C 0.42318 0.54349 0.60677
 C408 C 0.34515 0.64056 0.65949
 C409 C 0.42295 0.59571 0.55110
 C410 C 0.40006 0.61666 0.57495
 C411 C 0.36505 0.62260 0.63915
 C412 C 0.43478 0.55887 0.56676
 H413 H 0.39164 0.55217 0.66126
 H414 H 0.43178 0.51524 0.61976
 H415 H 0.43138 0.60838 0.52045
 H416 H 0.39122 0.64498 0.56238
   
