data_POSCAR
  _audit_creation_date              2014-09-24
  _audit_creation_method            'ToBaCCo'
  _symmetry_space_group_name_H-M    'P1'
  _symmetry_Int_Tables_number       1
  _symmetry_cell_setting            triclinic
  loop_
  _symmetry_equiv_pos_as_xyz
 x,y,z
_cell_length_a 19.1965
_cell_length_b 19.0170
_cell_length_c 19.3758
_cell_angle_alpha 71.758300
_cell_angle_beta 113.198600
_cell_angle_gamma 62.083000
loop_
  _atom_site_label
  _atom_site_type_symbol
  _atom_site_fract_x
  _atom_site_fract_y
  _atom_site_fract_z
O1 O 0.63887 0.46446 0.03698
 O2 O 0.49840 0.43900 0.11259
 O3 O 0.61726 0.33770 0.08465
 O4 O 0.52109 0.56835 0.06354
 O5 O 0.38265 0.66002 -0.08510
 O6 O 0.47826 0.42935 -0.06368
 O7 O 0.36063 0.53401 -0.03724
 O8 O 0.50129 0.55835 -0.11276
 Cu9 Cu 0.58224 0.44340 0.08963
 Cu10 Cu 0.41747 0.55424 -0.08980
 C11 C 0.59311 0.51731 -0.05099
 C12 C 0.40618 0.48091 0.05069
 C13 C 0.56287 0.34443 0.01439
 C14 C 0.43675 0.65330 -0.01471
 O15 O -0.03011 0.63861 0.44274
 O16 O -0.12145 0.50721 0.42470
 O17 O -0.11694 0.60032 0.49944
 O18 O -0.03359 0.54570 0.36713
 O19 O 0.11799 0.40078 0.50171
 O20 O 0.03541 0.45630 0.63417
 O21 O 0.03102 0.36323 0.55926
 O22 O 0.12305 0.49421 0.57595
 Cu23 Cu -0.09025 0.58662 0.42032
 Cu24 Cu 0.09166 0.41494 0.58086
 C25 C 0.06172 0.58881 0.51407
 C26 C -0.06056 0.41294 0.48761
 C27 C -0.05400 0.53867 0.58945
 C28 C 0.05543 0.46290 0.41177
 O29 O 0.43202 0.11618 0.51429
 O30 O 0.46477 0.04370 0.36631
 O31 O 0.33565 0.09407 0.39709
 O32 O 0.56314 0.06489 0.48182
 O33 O 0.66360 -0.09358 0.60339
 O34 O 0.43596 -0.06398 0.51942
 O35 O 0.56643 -0.11567 0.48667
 O36 O 0.53519 -0.04334 0.63507
 Cu37 Cu 0.43894 0.09591 0.42825
 Cu38 Cu 0.56027 -0.09527 0.57280
 C39 C 0.47674 0.04922 0.59923
 C40 C 0.52228 -0.04879 0.40201
 C41 C 0.34716 0.02023 0.44470
 C42 C 0.65204 -0.01958 0.55606
 O43 O 0.40075 0.10412 -0.15179
 O44 O 0.43963 0.03471 0.06877
 O45 O 0.46322 0.13537 -0.03043
 O46 O 0.37585 0.00241 -0.05422
 O47 O 0.53616 -0.13719 0.02899
 O48 O 0.62345 -0.00411 0.05234
 O49 O 0.59852 -0.10543 0.14989
 O50 O 0.55943 -0.03642 -0.07059
 Cu51 Cu 0.40360 0.08304 -0.05020
 Cu52 Cu 0.59561 -0.08468 0.04839
 C53 C 0.47298 0.04641 -0.14905
 C54 C 0.52631 -0.04790 0.14725
 C55 C 0.55810 0.08836 0.01499
 C56 C 0.44127 -0.09018 -0.01653
 O57 O -0.16064 0.60015 0.93125
 O58 O 0.06849 0.56427 1.00318
 O59 O -0.08138 0.61274 0.85395
 O60 O -0.01170 0.55053 1.08383
 O61 O 0.08295 0.38927 1.14717
 O62 O 0.01287 0.45151 0.91723
 O63 O 0.16184 0.40238 1.06935
 O64 O -0.06751 0.43820 0.99787
 Cu65 Cu -0.05518 0.59803 0.96234
 Cu66 Cu 0.05644 0.40420 1.03869
 C67 C -0.15317 0.52545 0.95164
 C68 C 0.15409 0.47725 1.04894
 C69 C -0.04683 0.54273 0.84630
 C70 C 0.04822 0.45927 1.15480
 O71 O -0.02342 -0.07056 0.43652
 O72 O -0.11531 0.16060 0.41503
 O73 O 0.00134 0.05654 0.38636
 O74 O -0.13933 0.03532 0.46437
 O75 O -0.00189 -0.05693 0.61353
 O76 O 0.13884 -0.03596 0.53557
 O77 O 0.02300 0.06994 0.56322
 O78 O 0.11462 -0.16103 0.58479
 Cu79 Cu -0.08262 0.05444 0.41063
 Cu80 Cu 0.08207 -0.05499 0.58920
 C81 C 0.06077 -0.15544 0.51505
 C82 C -0.06125 0.15487 0.48479
 C83 C 0.09354 0.01513 0.44756
 C84 C -0.09408 -0.01555 0.55239
 N85 N -0.33447 0.61702 0.83603
 N86 N -0.40440 0.61580 0.83195
 C87 C -0.35478 0.53572 0.91837
 C88 C -0.25212 0.48741 0.97556
 N89 N -0.24291 0.54046 0.92140
 H90 H -0.19168 0.42419 1.05046
 N91 N 0.33060 0.39773 1.16650
 N92 N 0.40066 0.39814 1.16962
 C93 C 0.35538 0.46572 1.07919
 C94 C 0.25509 0.50771 1.02059
 N95 N 0.24309 0.46320 1.07787
 H96 H 0.19800 0.56174 0.94384
 N97 N 0.18634 -0.33646 0.60140
 N98 N 0.18911 -0.40808 0.60354
 C99 C 0.09438 -0.36153 0.52794
 C100 C 0.03365 -0.25869 0.47837
 N101 N 0.09382 -0.24644 0.52720
 H102 H -0.04827 -0.19945 0.41856
 N103 N -0.18762 0.33549 0.40087
 N104 N -0.19058 0.40693 0.39964
 C105 C -0.09516 0.36041 0.47393
 C106 C -0.03354 0.25789 0.52117
 N107 N -0.09412 0.24563 0.47309
 H108 H 0.04890 0.19911 0.57913
 N109 N 0.38894 0.17037 -0.31258
 N110 N 0.38921 0.17391 -0.38190
 C111 C 0.45918 0.07779 -0.34732
 C112 C 0.50266 0.01503 -0.25414
 N113 N 0.45645 0.07587 -0.23553
 H114 H 0.55971 -0.06649 -0.20571
 N115 N 0.61568 -0.17127 0.31289
 N116 N 0.61587 -0.17478 0.38235
 C117 C 0.54093 -0.07924 0.34586
 C118 C 0.49432 -0.01684 0.25154
 N119 N 0.54339 -0.07730 0.23397
 H120 H 0.43362 0.06446 0.20177
 N121 N 0.31098 -0.09713 -0.09081
 N122 N 0.30647 -0.16420 -0.09221
 C123 C 0.40406 -0.25451 -0.02609
 C124 C 0.46858 -0.24098 0.01534
 N125 N 0.40771 -0.14189 -0.02715
 H126 H 0.55203 -0.29642 0.06621
 N127 N 0.68850 0.09502 0.08992
 N128 N 0.69307 0.16192 0.09174
 C129 C 0.59552 0.25229 0.02565
 C130 C 0.53096 0.23895 -0.01621
 N131 N 0.59176 0.13993 0.02600
 H132 H 0.44752 0.29448 -0.06723
 N133 N -0.09918 -0.10150 0.67095
 N134 N -0.16475 -0.10567 0.67474
 C135 C -0.25669 -0.03333 0.58598
 C136 C -0.24550 0.01499 0.52750
 N137 N -0.14614 -0.02983 0.58316
 H138 H -0.30222 0.07254 0.45117
 N139 N 0.09862 0.10149 0.32919
 N140 N 0.16412 0.10602 0.32565
 C141 C 0.25595 0.03380 0.41449
 C142 C 0.24480 -0.01486 0.47275
 N143 N 0.14556 0.02966 0.41690
 H144 H 0.30142 -0.07243 0.54907
 N145 N 0.16044 0.34322 1.32682
 N146 N 0.16637 0.34193 1.39772
 C147 C 0.08478 0.43577 1.35894
 C148 C 0.02847 0.49491 1.26195
 N149 N 0.07830 0.43421 1.24501
 H150 H -0.04364 0.57279 1.20875
 N151 N -0.15921 0.65856 0.67422
 N152 N -0.16515 0.65971 0.60335
 C153 C -0.08337 0.56591 0.64224
 C154 C -0.02693 0.50695 0.73927
 N155 N -0.07688 0.56771 0.75611
 H156 H 0.04530 0.42914 0.79253
   
