data_POSCAR
  _audit_creation_date              2014-09-24
  _audit_creation_method            'ToBaCCo'
  _symmetry_space_group_name_H-M    'P1'
  _symmetry_Int_Tables_number       1
  _symmetry_cell_setting            triclinic
  loop_
  _symmetry_equiv_pos_as_xyz
 x,y,z
_cell_length_a 42.4369
_cell_length_b 42.7539
_cell_length_c 43.0275
_cell_angle_alpha 90.059700
_cell_angle_beta 89.988200
_cell_angle_gamma 90.052600
loop_
  _atom_site_label
  _atom_site_type_symbol
  _atom_site_fract_x
  _atom_site_fract_y
  _atom_site_fract_z
C1 C 0.25057 0.27204 0.22698
 C2 C 0.27385 0.27173 0.20383
 C3 C 0.29711 0.24831 0.20338
 C4 C 0.29694 0.22514 0.22657
 C5 C 0.27401 0.22535 0.25007
 C6 C 0.25067 0.24882 0.25025
 C7 C 0.22718 0.29521 0.22720
 C8 C 0.20402 0.29575 0.25060
 C9 C 0.20440 0.27261 0.27382
 C10 C 0.22743 0.24909 0.27370
 C11 C 0.22758 0.22582 0.29666
 C12 C 0.25087 0.20242 0.29677
 C13 C 0.27406 0.20244 0.27340
 H14 H 0.27365 0.28960 0.18599
 H15 H 0.31485 0.20708 0.22655
 H16 H 0.22722 0.31301 0.20929
 H17 H 0.18657 0.27270 0.29186
 H18 H 0.20969 0.22613 0.31465
 H19 H 0.29202 0.18443 0.27316
 C20 C 0.74934 -0.27319 0.22713
 C21 C 0.72616 -0.27279 0.20386
 C22 C 0.70301 -0.24913 0.20309
 C23 C 0.70348 -0.22582 0.22632
 C24 C 0.72617 -0.22627 0.25002
 C25 C 0.74923 -0.24999 0.25041
 C26 C 0.77262 -0.29649 0.22741
 C27 C 0.79568 -0.29737 0.25102
 C28 C 0.79500 -0.27422 0.27441
 C29 C 0.77219 -0.25050 0.27409
 C30 C 0.77204 -0.22722 0.29710
 C31 C 0.74903 -0.20356 0.29699
 C32 C 0.72612 -0.20333 0.27338
 H33 H 0.72648 -0.29088 0.18619
 H34 H 0.68593 -0.20740 0.22635
 H35 H 0.77247 -0.31409 0.20925
 H36 H 0.81247 -0.27429 0.29279
 H37 H 0.78971 -0.22771 0.31528
 H38 H 0.70839 -0.18511 0.27297
 C39 C 0.74972 0.27298 0.77258
 C40 C 0.72663 0.27249 0.79593
 C41 C 0.70355 0.24873 0.79681
 C42 C 0.70399 0.22541 0.77358
 C43 C 0.72662 0.22595 0.74980
 C44 C 0.74961 0.24977 0.74932
 C45 C 0.77292 0.29639 0.77221
 C46 C 0.79591 0.29738 0.74853
 C47 C 0.79524 0.27421 0.72515
 C48 C 0.77249 0.25037 0.72556
 C49 C 0.77234 0.22708 0.70256
 C50 C 0.74939 0.20332 0.70277
 C51 C 0.72656 0.20300 0.72647
 H52 H 0.72696 0.29060 0.81359
 H53 H 0.68650 0.20692 0.77364
 H54 H 0.77276 0.31400 0.79036
 H55 H 0.81265 0.27436 0.70671
 H56 H 0.78994 0.22763 0.68432
 H57 H 0.70887 0.18470 0.72695
 C58 C 0.24921 -0.27167 0.77384
 C59 C 0.27228 -0.27111 0.79718
 C60 C 0.29570 -0.24780 0.79750
 C61 C 0.29581 -0.22490 0.77406
 C62 C 0.27309 -0.22535 0.75037
 C63 C 0.24968 -0.24881 0.75025
 C64 C 0.22572 -0.29478 0.77373
 C65 C 0.20280 -0.29586 0.74999
 C66 C 0.20374 -0.27298 0.72639
 C67 C 0.22677 -0.24941 0.72654
 C68 C 0.22721 -0.22641 0.70331
 C69 C 0.25047 -0.20295 0.70322
 C70 C 0.27343 -0.20270 0.72679
 H71 H 0.27185 -0.28876 0.81525
 H72 H 0.31381 -0.20690 0.77400
 H73 H 0.22564 -0.31214 0.79208
 H74 H 0.18634 -0.27316 0.70794
 H75 H 0.20953 -0.22695 0.68513
 H76 H 0.29139 -0.18466 0.72702
 C77 C 0.75025 -0.27175 0.77352
 C78 C 0.72722 -0.27119 0.79691
 C79 C 0.70388 -0.24785 0.79728
 C80 C 0.70379 -0.22494 0.77385
 C81 C 0.72647 -0.22541 0.75012
 C82 C 0.74980 -0.24889 0.74995
 C83 C 0.77367 -0.29489 0.77337
 C84 C 0.79655 -0.29597 0.74959
 C85 C 0.79564 -0.27310 0.72599
 C86 C 0.77267 -0.24951 0.72619
 C87 C 0.77227 -0.22651 0.70297
 C88 C 0.74908 -0.20303 0.70295
 C89 C 0.72616 -0.20276 0.72656
 H90 H 0.72764 -0.28883 0.81498
 H91 H 0.68584 -0.20692 0.77384
 H92 H 0.77373 -0.31225 0.79172
 H93 H 0.81300 -0.27329 0.70751
 H94 H 0.78992 -0.22705 0.68476
 H95 H 0.70825 -0.18469 0.72683
 C96 C 0.25048 0.27281 0.77229
 C97 C 0.27378 0.27254 0.79540
 C98 C 0.29706 0.24914 0.79578
 C99 C 0.29689 0.22597 0.77255
 C100 C 0.27395 0.22614 0.74909
 C101 C 0.25059 0.24959 0.74898
 C102 C 0.22707 0.29595 0.77213
 C103 C 0.20389 0.29644 0.74878
 C104 C 0.20427 0.27330 0.72552
 C105 C 0.22733 0.24981 0.72557
 C106 C 0.22747 0.22653 0.70257
 C107 C 0.25079 0.20317 0.70241
 C108 C 0.27400 0.20323 0.72573
 H109 H 0.27358 0.29041 0.81329
 H110 H 0.31482 0.20792 0.77252
 H111 H 0.22710 0.31376 0.79008
 H112 H 0.18641 0.27336 0.70750
 H113 H 0.20957 0.22681 0.68460
 H114 H 0.29198 0.18523 0.72593
 C115 C 0.25021 -0.27305 0.22677
 C116 C 0.27341 -0.27265 0.20353
 C117 C 0.29664 -0.24902 0.20282
 C118 C 0.29623 -0.22574 0.22608
 C119 C 0.27350 -0.22620 0.24975
 C120 C 0.25037 -0.24989 0.25008
 C121 C 0.22686 -0.29631 0.22699
 C122 C 0.20378 -0.29719 0.25058
 C123 C 0.20450 -0.27408 0.27401
 C124 C 0.22738 -0.25039 0.27373
 C125 C 0.22758 -0.22716 0.29679
 C126 C 0.25066 -0.20355 0.29673
 C127 C 0.27360 -0.20331 0.27314
 H128 H 0.27307 -0.29072 0.18583
 H129 H 0.31384 -0.20736 0.22615
 H130 H 0.22698 -0.31389 0.20881
 H131 H 0.18701 -0.27415 0.29238
 H132 H 0.20989 -0.22766 0.31496
 H133 H 0.29140 -0.18511 0.27278
 C134 C 0.75077 0.27189 0.22704
 C135 C 0.72779 0.27128 0.20363
 C136 C 0.70448 0.24788 0.20319
 C137 C 0.70438 0.22493 0.22659
 C138 C 0.72702 0.22543 0.25034
 C139 C 0.75033 0.24899 0.25058
 C140 C 0.77415 0.29509 0.22725
 C141 C 0.79700 0.29622 0.25105
 C142 C 0.79610 0.27331 0.27461
 C143 C 0.77317 0.24965 0.27436
 C144 C 0.77276 0.22660 0.29754
 C145 C 0.74960 0.20305 0.29750
 C146 C 0.72671 0.20275 0.27387
 H147 H 0.72820 0.28895 0.18559
 H148 H 0.68646 0.20685 0.22655
 H149 H 0.77420 0.31247 0.20892
 H150 H 0.81344 0.27354 0.29311
 H151 H 0.79037 0.22717 0.31577
 H152 H 0.70883 0.18463 0.27354
 O153 O 0.27726 0.02991 0.46943
 O154 O 0.27727 -0.03074 0.53019
 O155 O 0.27725 -0.03085 0.46950
 O156 O 0.27723 0.03003 0.53011
 O157 O 0.22516 0.03011 0.52996
 O158 O 0.22518 -0.03104 0.46966
 O159 O 0.22521 -0.03094 0.53004
 O160 O 0.22520 0.03000 0.46959
 Cu161 Cu 0.28248 -0.00041 0.49981
 Cu162 Cu 0.21996 -0.00048 0.49982
 C163 C 0.25123 0.04028 0.45920
 C164 C 0.25123 -0.04118 0.54042
 C165 C 0.25121 -0.04131 0.45929
 C166 C 0.25119 0.04045 0.54032
 O167 O 0.72279 0.03017 0.53038
 O168 O 0.72271 -0.03059 0.46959
 O169 O 0.72265 -0.03060 0.53028
 O170 O 0.72276 0.03018 0.46970
 O171 O 0.77483 0.03030 0.46986
 O172 O 0.77471 -0.03076 0.53014
 O173 O 0.77478 -0.03076 0.46977
 O174 O 0.77485 0.03030 0.53021
 Cu175 Cu 0.71749 -0.00021 0.49999
 Cu176 Cu 0.78002 -0.00024 0.49999
 C177 C 0.74884 0.04059 0.54060
 C178 C 0.74874 -0.04103 0.45937
 C179 C 0.74866 -0.04103 0.54049
 C180 C 0.74881 0.04060 0.45951
 O181 O 0.47014 0.27324 0.02971
 O182 O 0.53183 0.27325 -0.03051
 O183 O 0.47028 0.27345 -0.03070
 O184 O 0.53160 0.27302 0.02980
 O185 O 0.53139 0.22134 0.02958
 O186 O 0.47004 0.22177 -0.03095
 O187 O 0.53122 0.22157 -0.03115
 O188 O 0.47016 0.22156 0.02974
 Cu189 Cu 0.50097 0.27843 -0.00041
 Cu190 Cu 0.50068 0.21636 -0.00071
 C191 C 0.45974 0.24740 0.04004
 C192 C 0.54195 0.24742 -0.04112
 C193 C 0.45975 0.24769 -0.04113
 C194 C 0.54192 0.24712 0.03998
 O195 O 0.53072 0.72656 0.03081
 O196 O 0.46917 0.72694 -0.02952
 O197 O 0.53064 0.72694 -0.02952
 O198 O 0.46910 0.72657 0.03079
 O199 O 0.46940 0.77825 0.03143
 O200 O 0.53059 0.77862 -0.02929
 O201 O 0.46933 0.77862 -0.02929
 O202 O 0.53053 0.77824 0.03144
 Cu203 Cu 0.49990 0.72156 0.00062
 Cu204 Cu 0.49997 0.78363 0.00110
 C205 C 0.54106 0.75233 0.04142
 C206 C 0.45882 0.75283 -0.03970
 C207 C 0.54104 0.75283 -0.03970
 C208 C 0.45881 0.75235 0.04139
 O209 O 0.03049 0.46983 0.27700
 O210 O -0.03089 0.53072 0.27706
 O211 O -0.03069 0.46956 0.27719
 O212 O 0.03027 0.53092 0.27689
 O213 O 0.03049 0.53040 0.22554
 O214 O -0.03118 0.46977 0.22583
 O215 O -0.03115 0.53044 0.22571
 O216 O 0.03031 0.46966 0.22565
 Cu217 Cu -0.00020 0.50028 0.28220
 Cu218 Cu -0.00039 0.50007 0.22052
 C219 C 0.04083 0.45939 0.25131
 C220 C -0.04148 0.54090 0.25139
 C221 C -0.04134 0.45928 0.25155
 C222 C 0.04082 0.54101 0.25117
 O223 O 0.03009 0.53137 0.72317
 O224 O -0.03101 0.47011 0.72273
 O225 O -0.03103 0.53126 0.72301
 O226 O 0.03020 0.47027 0.72291
 O227 O 0.03000 0.47007 0.77426
 O228 O -0.03128 0.53097 0.77437
 O229 O -0.03154 0.47031 0.77407
 O230 O 0.03029 0.53083 0.77451
 Cu231 Cu -0.00043 0.50076 0.71779
 Cu232 Cu -0.00064 0.50053 0.77946
 C233 C 0.04062 0.54147 0.74891
 C234 C -0.04173 0.45986 0.74833
 C235 C -0.04156 0.54148 0.74871
 C236 C 0.04051 0.45981 0.74857
 C237 C 0.36630 0.24775 0.13359
 N238 N 0.36073 0.22178 0.15086
 N239 N 0.33884 0.22198 0.17306
 C240 C 0.32153 0.24810 0.17875
 N241 N 0.32710 0.27403 0.16135
 N242 N 0.34911 0.27390 0.13927
 C243 C 0.39053 0.24762 0.10922
 N244 N 0.39898 0.27459 0.09480
 N245 N 0.42107 0.27452 0.07279
 C246 C 0.43538 0.24745 0.06426
 N247 N 0.42686 0.22046 0.07860
 N248 N 0.40490 0.22056 0.10074
 C249 C 0.63491 0.75164 0.13450
 N250 N 0.65540 0.72742 0.13684
 N251 N 0.67748 0.72727 0.15884
 C252 C 0.67983 0.75118 0.17962
 N253 N 0.65913 0.77533 0.17719
 N254 N 0.63723 0.77564 0.15502
 C255 C 0.61058 0.75184 0.11023
 N256 N 0.59437 0.77841 0.10376
 N257 N 0.57232 0.77860 0.08171
 C258 C 0.56549 0.75216 0.06554
 N259 N 0.58161 0.72557 0.07211
 N260 N 0.60386 0.72544 0.09396
 C261 C 0.63566 0.24785 -0.13437
 N262 N 0.63792 0.22384 -0.15489
 N263 N 0.65976 0.22417 -0.17713
 C264 C 0.68045 0.24837 -0.17964
 N265 N 0.67815 0.27228 -0.15888
 N266 N 0.65614 0.27211 -0.13680
 C267 C 0.61139 0.24768 -0.11005
 N268 N 0.60480 0.27409 -0.09377
 N269 N 0.58260 0.27403 -0.07187
 C270 C 0.56637 0.24747 -0.06527
 N271 N 0.57306 0.22101 -0.08144
 N272 N 0.59508 0.22115 -0.10353
 C273 C 0.36493 0.75282 -0.13279
 N274 N 0.35947 0.77875 -0.15013
 N275 N 0.33753 0.77855 -0.17227
 C276 C 0.32006 0.75248 -0.17783
 N277 N 0.32552 0.72659 -0.16035
 N278 N 0.34758 0.72672 -0.13833
 C279 C 0.38928 0.75289 -0.10853
 N280 N 0.39769 0.72589 -0.09419
 N281 N 0.41990 0.72588 -0.07231
 C282 C 0.43438 0.75290 -0.06383
 N283 N 0.42590 0.77993 -0.07809
 N284 N 0.40382 0.77991 -0.10011
 C285 C 0.13455 0.36562 0.25100
 N286 N 0.15165 0.35981 0.22498
 N287 N 0.17375 0.33770 0.22489
 C288 C 0.17950 0.32041 0.25075
 N289 N 0.16227 0.32623 0.27674
 N290 N 0.14029 0.34845 0.27690
 C291 C 0.11022 0.39004 0.25111
 N292 N 0.09593 0.39865 0.27802
 N293 N 0.07390 0.42084 0.27811
 C294 C 0.06523 0.43508 0.25126
 N295 N 0.07945 0.42641 0.22433
 N296 N 0.10161 0.40436 0.22427
 C297 C 0.13437 0.63535 0.74955
 N298 N 0.13699 0.65562 0.72545
 N299 N 0.15897 0.67789 0.72567
 C300 C 0.17944 0.68067 0.74985
 N301 N 0.17676 0.66017 0.77387
 N302 N 0.15461 0.63807 0.77380
 C303 C 0.11004 0.61091 0.74939
 N304 N 0.10319 0.59474 0.77568
 N305 N 0.08099 0.57268 0.77556
 C306 C 0.06503 0.56581 0.74908
 N307 N 0.07197 0.58188 0.72275
 N308 N 0.09398 0.60412 0.72294
 C309 C -0.13581 0.63405 0.25135
 N310 N -0.15625 0.63650 0.22724
 N311 N -0.17846 0.65850 0.22723
 C312 C -0.18101 0.67916 0.25118
 N313 N -0.16036 0.67662 0.27523
 N314 N -0.13831 0.65445 0.27538
 C315 C -0.11133 0.60979 0.25138
 N316 N -0.09510 0.60315 0.27775
 N317 N -0.07293 0.58109 0.27779
 C318 C -0.06600 0.56508 0.25139
 N319 N -0.08214 0.57182 0.22500
 N320 N -0.10449 0.59368 0.22502
 C321 C -0.13583 0.36633 0.74809
 N322 N -0.13828 0.34592 0.72405
 N323 N -0.16025 0.32363 0.72423
 C324 C -0.18086 0.32097 0.74831
 N325 N -0.17837 0.34164 0.77225
 N326 N -0.15624 0.36376 0.77222
 C327 C -0.11143 0.39070 0.74808
 N328 N -0.10471 0.40682 0.77447
 N329 N -0.08241 0.42878 0.77456
 C330 C -0.06623 0.43562 0.74821
 N331 N -0.07305 0.41960 0.72178
 N332 N -0.09516 0.39745 0.72175
 C333 C 0.25108 0.13333 0.36605
 N334 N 0.27723 0.13874 0.34870
 N335 N 0.27713 0.16060 0.32666
 C336 C 0.25095 0.17804 0.32122
 N337 N 0.22484 0.17261 0.33869
 N338 N 0.22487 0.15063 0.36062
 C339 C 0.25114 0.10916 0.39028
 N340 N 0.22396 0.10084 0.40475
 N341 N 0.22398 0.07883 0.42666
 C342 C 0.25121 0.06448 0.43503
 N343 N 0.27840 0.07286 0.42063
 N344 N 0.27835 0.09474 0.39859
 C345 C 0.74911 0.13402 0.63355
 N346 N 0.77524 0.15158 0.63875
 N347 N 0.77529 0.17364 0.66065
 C348 C 0.74928 0.17888 0.67833
 N349 N 0.72318 0.16119 0.67312
 N350 N 0.72306 0.13926 0.65110
 C351 C 0.74902 0.10975 0.60937
 N352 N 0.72182 0.09516 0.60121
 N353 N 0.72173 0.07319 0.57922
 C354 C 0.74889 0.06487 0.56474
 N355 N 0.77611 0.07939 0.57296
 N356 N 0.77616 0.10149 0.59481
 C357 C 0.25100 -0.13418 0.63362
 N358 N 0.22478 -0.15155 0.63899
 N359 N 0.22467 -0.17346 0.66099
 C360 C 0.25070 -0.17872 0.67861
 N361 N 0.27689 -0.16123 0.67323
 N362 N 0.27707 -0.13945 0.65110
 C363 C 0.25110 -0.11004 0.60935
 N364 N 0.27831 -0.09554 0.60109
 N365 N 0.27838 -0.07367 0.57904
 C366 C 0.25121 -0.06538 0.56459
 N367 N 0.22398 -0.07981 0.57292
 N368 N 0.22394 -0.10181 0.59483
 C369 C 0.74883 -0.13433 0.36629
 N370 N 0.72276 -0.13960 0.34878
 N371 N 0.72286 -0.16151 0.32673
 C372 C 0.74895 -0.17914 0.32145
 N373 N 0.77498 -0.17387 0.33909
 N374 N 0.77496 -0.15184 0.36101
 C375 C 0.74879 -0.11009 0.39050
 N376 N 0.77595 -0.10185 0.40505
 N377 N 0.77594 -0.07978 0.42694
 C378 C 0.74874 -0.06529 0.43521
 N379 N 0.72157 -0.07360 0.42073
 N380 N 0.72161 -0.09554 0.39871
 C381 C 0.63479 0.75280 -0.13289
 N382 N 0.65205 0.72669 -0.13848
 N383 N 0.67407 0.72655 -0.16054
 C384 C 0.67957 0.75245 -0.17801
 N385 N 0.66220 0.77854 -0.17240
 N386 N 0.64030 0.77875 -0.15021
 C387 C 0.61049 0.75289 -0.10860
 N388 N 0.59604 0.77991 -0.10014
 N389 N 0.57399 0.77993 -0.07809
 C390 C 0.56546 0.75290 -0.06384
 N391 N 0.57986 0.72587 -0.07235
 N392 N 0.60203 0.72588 -0.09426
 C393 C 0.36626 0.24847 -0.13452
 N394 N 0.34914 0.27465 -0.14013
 N395 N 0.32711 0.27483 -0.16219
 C396 C 0.32147 0.24890 -0.17962
 N397 N 0.33872 0.22275 -0.17400
 N398 N 0.36063 0.22250 -0.15182
 C399 C 0.39050 0.24825 -0.11019
 N400 N 0.40478 0.22113 -0.10182
 N401 N 0.42676 0.22094 -0.07972
 C402 C 0.43539 0.24788 -0.06532
 N403 N 0.42118 0.27501 -0.07374
 N404 N 0.39907 0.27518 -0.09571
 C405 C 0.36485 0.75171 0.13434
 N406 N 0.34428 0.72752 0.13662
 N407 N 0.32216 0.72738 0.15860
 C408 C 0.31985 0.75127 0.17938
 N409 N 0.34064 0.77540 0.17702
 N410 N 0.36258 0.77569 0.15488
 C411 C 0.38921 0.75190 0.11012
 N412 N 0.40551 0.77845 0.10368
 N413 N 0.42759 0.77863 0.08166
 C414 C 0.43437 0.75219 0.06550
 N415 N 0.41816 0.72561 0.07203
 N416 N 0.39589 0.72550 0.09385
 C417 C 0.63552 0.24715 0.13327
 N418 N 0.65278 0.27328 0.13890
 N419 N 0.67475 0.27344 0.16099
 C420 C 0.68021 0.24755 0.17845
 N421 N 0.66284 0.22143 0.17281
 N422 N 0.64098 0.22120 0.15058
 C423 C 0.61127 0.24706 0.10894
 N424 N 0.59678 0.22003 0.10047
 N425 N 0.57477 0.22001 0.07840
 C426 C 0.56632 0.24704 0.06413
 N427 N 0.58075 0.27407 0.07266
 N428 N 0.60289 0.27406 0.09460
 C429 C -0.13517 0.63526 0.74911
 N430 N -0.13777 0.65550 0.72499
 N431 N -0.15971 0.67776 0.72521
 C432 C -0.18016 0.68056 0.74942
 N433 N -0.17750 0.66008 0.77346
 N434 N -0.15539 0.63799 0.77338
 C435 C -0.11088 0.61085 0.74898
 N436 N -0.10405 0.59477 0.77532
 N437 N -0.08187 0.57273 0.77525
 C438 C -0.06592 0.56580 0.74878
 N439 N -0.07284 0.58178 0.72241
 N440 N -0.09483 0.60400 0.72254
 C441 C -0.13484 0.36523 0.25152
 N442 N -0.15506 0.36244 0.22727
 N443 N -0.17713 0.34027 0.22720
 C444 C -0.17974 0.31977 0.25124
 N445 N -0.15930 0.32264 0.27543
 N446 N -0.13739 0.34498 0.27564
 C447 C -0.11058 0.38972 0.25159
 N448 N -0.09447 0.39664 0.27798
 N449 N -0.07251 0.41893 0.27803
 C450 C -0.06569 0.43491 0.25161
 N451 N -0.08171 0.42791 0.22520
 N452 N -0.10385 0.40580 0.22523
 C453 C 0.13429 0.36616 0.74861
 N454 N 0.14006 0.34903 0.72265
 N455 N 0.16209 0.32685 0.72273
 C456 C 0.17933 0.32105 0.74871
 N457 N 0.17355 0.33830 0.77462
 N458 N 0.15140 0.36036 0.77461
 C459 C 0.10993 0.39052 0.74858
 N460 N 0.10130 0.40480 0.77545
 N461 N 0.07912 0.42683 0.77546
 C462 C 0.06489 0.43551 0.74856
 N463 N 0.07359 0.42129 0.72166
 N464 N 0.09564 0.39913 0.72169
 C465 C 0.13512 0.63428 0.25087
 N466 N 0.13765 0.65467 0.27491
 N467 N 0.15974 0.67683 0.27476
 C468 C 0.18041 0.67936 0.25071
 N469 N 0.17783 0.65872 0.22676
 N470 N 0.15557 0.63673 0.22676
 C471 C 0.11063 0.61001 0.25094
 N472 N 0.09440 0.60341 0.27732
 N473 N 0.07224 0.58132 0.27742
 C474 C 0.06530 0.56525 0.25107
 N475 N 0.08143 0.57194 0.22465
 N476 N 0.10379 0.59384 0.22461
 C477 C 0.74870 -0.13418 0.63346
 N478 N 0.72261 -0.13948 0.65093
 N479 N 0.72274 -0.16129 0.67302
 C480 C 0.74890 -0.17878 0.67838
 N481 N 0.77495 -0.17349 0.66077
 N482 N 0.77488 -0.15156 0.63881
 C483 C 0.74865 -0.11001 0.60925
 N484 N 0.77583 -0.10175 0.59476
 N485 N 0.77584 -0.07971 0.57289
 C486 C 0.74864 -0.06527 0.56460
 N487 N 0.72144 -0.07360 0.57902
 N488 N 0.72147 -0.09551 0.60101
 C489 C 0.25100 -0.13449 0.36615
 N490 N 0.22482 -0.15194 0.36082
 N491 N 0.22475 -0.17392 0.33885
 C492 C 0.25079 -0.17918 0.32123
 N493 N 0.27694 -0.16162 0.32657
 N494 N 0.27708 -0.13976 0.34866
 C495 C 0.25108 -0.11031 0.39040
 N496 N 0.27829 -0.09578 0.39864
 N497 N 0.27836 -0.07387 0.42068
 C498 C 0.25118 -0.06557 0.43515
 N499 N 0.22396 -0.08003 0.42685
 N500 N 0.22393 -0.10208 0.40494
 C501 C 0.74911 0.13403 0.36681
 N502 N 0.77531 0.15145 0.36153
 N503 N 0.77541 0.17345 0.33963
 C504 C 0.74938 0.17876 0.32203
 N505 N 0.72321 0.16122 0.32732
 N506 N 0.72304 0.13935 0.34935
 C507 C 0.74901 0.10978 0.39095
 N508 N 0.72179 0.09525 0.39912
 N509 N 0.72170 0.07327 0.42105
 C510 C 0.74887 0.06489 0.43545
 N511 N 0.77611 0.07936 0.42722
 N512 N 0.77616 0.10147 0.40542
 C513 C 0.25102 0.13391 0.63318
 N514 N 0.27719 0.13941 0.65047
 N515 N 0.27708 0.16134 0.67249
 C516 C 0.25088 0.17875 0.67796
 N517 N 0.22475 0.17324 0.66053
 N518 N 0.22479 0.15119 0.63863
 C519 C 0.25108 0.10964 0.60901
 N520 N 0.22390 0.10124 0.59460
 N521 N 0.22393 0.07912 0.57276
 C522 C 0.25116 0.06475 0.56441
 N523 N 0.27836 0.07322 0.57875
 N524 N 0.27830 0.09521 0.60072
   
