data_POSCAR
  _audit_creation_date              2014-09-24
  _audit_creation_method            'ToBaCCo'
  _symmetry_space_group_name_H-M    'P1'
  _symmetry_Int_Tables_number       1
  _symmetry_cell_setting            triclinic
  loop_
  _symmetry_equiv_pos_as_xyz
 x,y,z
_cell_length_a 36.6050
_cell_length_b 36.6030
_cell_length_c 36.9521
_cell_angle_alpha 90.163300
_cell_angle_beta 89.873200
_cell_angle_gamma 90.114600
loop_
  _atom_site_label
  _atom_site_type_symbol
  _atom_site_fract_x
  _atom_site_fract_y
  _atom_site_fract_z
N1 N 0.64115 0.64055 0.63953
 N2 N 0.85833 0.35929 0.13839
 N3 N 0.38917 0.11121 -0.11066
 N4 N 0.11059 0.88873 0.38938
 N5 N 0.08395 0.18532 0.11306
 N6 N 0.06856 0.16948 0.14109
 C7 C 0.03912 0.18889 0.15123
 C8 C 0.03571 0.21858 0.12840
 C9 C 0.06467 0.21539 0.10434
 H10 H 0.02112 0.18161 0.17327
 H11 H 0.07147 0.23371 0.08241
 Cu12 Cu 0.08803 0.12480 0.16169
 Cu13 Cu 0.12851 0.16601 0.09126
 Cu14 Cu 0.15911 0.08213 0.12285
 N15 N 0.10799 0.08013 0.18176
 N16 N 0.13566 0.06332 0.16640
 C17 C 0.14389 0.03331 0.18576
 C18 C 0.11994 0.03113 0.21480
 C19 C 0.09758 0.06137 0.21129
 H20 H 0.16559 0.01445 0.17908
 H21 H 0.07568 0.06943 0.22922
 N22 N 0.17931 0.10609 0.07942
 N23 N 0.16812 0.13817 0.06762
 C24 C 0.18809 0.14749 0.03836
 C25 C 0.21314 0.11999 0.03142
 C26 C 0.20665 0.09422 0.05805
 H27 H 0.18468 0.17250 0.02330
 H28 H 0.22144 0.06908 0.06220
 H29 H 0.11560 0.11259 0.10304
 H30 H 0.14803 0.13560 0.13472
 N31 N 0.41763 0.81574 0.60997
 N32 N 0.43118 0.83011 0.63969
 C33 C 0.45914 0.80940 0.65116
 C34 C 0.46358 0.78051 0.62734
 C35 C 0.43674 0.78548 0.60140
 H36 H 0.47567 0.81538 0.67463
 H37 H 0.43142 0.76832 0.57812
 Cu38 Cu 0.41191 0.87508 0.66007
 Cu39 Cu 0.37616 0.83765 0.58496
 Cu40 Cu 0.34090 0.91770 0.62195
 N41 N 0.39218 0.91984 0.68051
 N42 N 0.36423 0.93642 0.66563
 C43 C 0.35586 0.96630 0.68531
 C44 C 0.38002 0.96867 0.71407
 C45 C 0.40264 0.93864 0.71008
 H46 H 0.33393 0.98496 0.67906
 H47 H 0.42468 0.93069 0.72775
 N48 N 0.32112 0.89451 0.57792
 N49 N 0.33429 0.86404 0.56388
 C50 C 0.31430 0.85494 0.53459
 C51 C 0.28733 0.88100 0.52989
 C52 C 0.29259 0.90562 0.55790
 H53 H 0.31900 0.83109 0.51794
 H54 H 0.27628 0.92947 0.56380
 H55 H 0.38608 0.89067 0.60141
 H56 H 0.35401 0.86325 0.62979
 N57 N 0.91127 0.68752 0.38160
 N58 N 0.92976 0.66915 0.35708
 C59 C 0.96207 0.68599 0.35144
 C60 C 0.96385 0.71643 0.37387
 C61 C 0.93098 0.71650 0.39244
 H62 H 0.98270 0.67681 0.33252
 H63 H 0.92163 0.73647 0.41197
 Cu64 Cu 0.90870 0.62574 0.33454
 Cu65 Cu 0.86238 0.67353 0.39675
 Cu66 Cu 0.84072 0.58324 0.37887
 N67 N 0.88498 0.58250 0.31450
 N68 N 0.85832 0.56614 0.33204
 C69 C 0.84747 0.53662 0.31320
 C70 C 0.86831 0.53424 0.28194
 C71 C 0.89194 0.56389 0.28374
 H72 H 0.82642 0.51793 0.32213
 H73 H 0.91267 0.57135 0.26422
 N74 N 0.81543 0.61252 0.41601
 N75 N 0.82290 0.64730 0.42173
 C76 C 0.80153 0.65987 0.44862
 C77 C 0.77935 0.63163 0.46058
 C78 C 0.78888 0.60200 0.43906
 H79 H 0.80278 0.68742 0.45912
 H80 H 0.77792 0.57460 0.44048
 H81 H 0.88053 0.62151 0.39437
 H82 H 0.84692 0.63385 0.35853
 N83 N 0.58846 0.31236 -0.11870
 N84 N 0.56996 0.33073 -0.14303
 C85 C 0.53762 0.31392 -0.14858
 C86 C 0.53584 0.28350 -0.12629
 C87 C 0.56873 0.28341 -0.10790
 H88 H 0.51699 0.32311 -0.16733
 H89 H 0.57808 0.26344 -0.08852
 Cu90 Cu 0.59106 0.37411 -0.16545
 Cu91 Cu 0.63740 0.32627 -0.10375
 Cu92 Cu 0.65925 0.41648 -0.12137
 N93 N 0.61480 0.41731 -0.18543
 N94 N 0.64155 0.43360 -0.16800
 C95 C 0.65241 0.46311 -0.18676
 C96 C 0.63146 0.46553 -0.21784
 C97 C 0.60777 0.43593 -0.21603
 H98 H 0.67353 0.48175 -0.17788
 H99 H 0.58696 0.42853 -0.23544
 N100 N 0.68453 0.38721 -0.08451
 N101 N 0.67697 0.35245 -0.07889
 C102 C 0.69836 0.33986 -0.05219
 C103 C 0.72064 0.36806 -0.04025
 C104 C 0.71116 0.39768 -0.06159
 H105 H 0.69705 0.31234 -0.04178
 H106 H 0.72220 0.42505 -0.06012
 H107 H 0.61936 0.37833 -0.10578
 H108 H 0.65287 0.36584 -0.14187
 C109 C -0.05100 0.29751 0.13156
 C110 C -0.03004 0.29343 0.10004
 C111 C -0.00120 0.26831 0.09910
 C112 C -0.10961 0.33949 0.13471
 C113 C -0.01404 0.25180 0.16131
 C114 C -0.04263 0.27693 0.16223
 C115 C -0.08235 0.32116 0.13245
 C116 C 0.00677 0.24685 0.12962
 H117 H -0.03636 0.30916 0.07607
 H118 H 0.01414 0.26502 0.07424
 H119 H -0.00842 0.23619 0.18547
 H120 H -0.05862 0.27991 0.18677
 C121 C 0.54988 0.70130 0.63176
 C122 C 0.53914 0.72008 0.66298
 C123 C 0.51049 0.74512 0.66166
 C124 C 0.60894 0.66003 0.63564
 C125 C 0.50228 0.73202 0.59787
 C126 C 0.53115 0.70698 0.59924
 C127 C 0.58151 0.67806 0.63312
 C128 C 0.49208 0.75184 0.62898
 H129 H 0.55341 0.71590 0.68830
 H130 H 0.50305 0.75941 0.68625
 H131 H 0.48880 0.73668 0.57227
 H132 H 0.53935 0.69269 0.57484
 C133 C 1.04643 0.79959 0.38145
 C134 C 1.04528 0.77669 0.35103
 C135 C 1.01903 0.74885 0.34883
 C136 C 1.09017 0.85700 0.38562
 C137 C 0.99552 0.76653 0.40767
 C138 C 1.02178 0.79411 0.40988
 C139 C 1.07115 0.83018 0.38309
 C140 C 0.99346 0.74392 0.37690
 H141 H 1.06412 0.78080 0.32875
 H142 H 1.01807 0.73200 0.32473
 H143 H 0.97670 0.76314 0.43003
 H144 H 1.02240 0.81164 0.43355
 C145 C 0.45324 0.20038 -0.11865
 C146 C 0.45440 0.22319 -0.14900
 C147 C 0.48065 0.25103 -0.15123
 C148 C 0.40955 0.14294 -0.11447
 C149 C 0.50414 0.23350 -0.09253
 C150 C 0.47787 0.20593 -0.09030
 C151 C 0.42854 0.16978 -0.11701
 C152 C 0.50621 0.25603 -0.12324
 H153 H 0.43556 0.21900 -0.17121
 H154 H 0.48161 0.26781 -0.17527
 H155 H 0.52294 0.23695 -0.07023
 H156 H 0.47724 0.18845 -0.06667
 C157 C 0.11674 -0.04750 0.30095
 C158 C 0.14765 -0.04509 0.27871
 C159 C 0.14857 -0.01995 0.25022
 C160 C 0.11403 -0.09061 0.35817
 C161 C 0.08751 0.00006 0.26602
 C162 C 0.08662 -0.02509 0.29433
 C163 C 0.11603 -0.07165 0.33160
 C164 C 0.11863 0.00323 0.24382
 H165 H 0.17121 -0.06220 0.28372
 H166 H 0.17301 -0.01815 0.23380
 H167 H 0.06374 0.01699 0.26167
 H168 H 0.06255 -0.02674 0.31139
 C169 C 0.63577 0.55162 -0.29666
 C170 C 0.60535 0.52843 -0.29523
 C171 C 0.60413 0.49991 -0.27006
 C172 C 0.63828 0.60910 -0.33981
 C173 C 0.66396 0.51754 -0.24807
 C174 C 0.66514 0.54588 -0.27325
 C175 C 0.63656 0.58238 -0.32084
 C176 C 0.63327 0.49443 -0.24587
 H177 H 0.58237 0.53271 -0.31314
 H178 H 0.58002 0.48280 -0.26904
 H179 H 0.68711 0.51389 -0.23031
 H180 H 0.68884 0.56366 -0.27413
 C181 C 0.38300 1.04717 0.80077
 C182 C 0.41320 1.02490 0.79379
 C183 C 0.41236 0.99979 0.76532
 C184 C 0.38574 1.09041 0.85811
 C185 C 0.35115 1.01951 0.75009
 C186 C 0.35203 1.04462 0.77875
 C187 C 0.38374 1.07137 0.83150
 C188 C 0.38121 0.99650 0.74331
 H189 H 0.43733 1.02665 0.81065
 H190 H 0.43621 0.98300 0.76067
 H191 H 0.32667 1.01763 0.73384
 H192 H 0.32843 1.06166 0.78401
 C193 C 0.86382 0.44825 0.20258
 C194 C 0.89420 0.47150 0.20389
 C195 C 0.89548 0.49998 0.22925
 C196 C 0.86122 0.39079 0.15914
 C197 C 0.83581 0.48216 0.25169
 C198 C 0.83456 0.45386 0.22632
 C199 C 0.86297 0.41752 0.17822
 C200 C 0.86645 0.50535 0.25375
 H201 H 0.91708 0.46728 0.18572
 H202 H 0.91955 0.51715 0.23016
 H203 H 0.81275 0.48571 0.26970
 H204 H 0.81092 0.43601 0.22552
 C205 C 0.29943 0.11729 -0.04769
 C206 C 0.28923 0.08545 -0.02942
 C207 C 0.26072 0.08620 -0.00428
 C208 C 0.35753 0.11458 -0.09024
 C209 C 0.25184 0.15067 -0.01607
 C210 C 0.28049 0.14984 -0.04123
 C211 C 0.33058 0.11653 -0.07150
 C212 C 0.24194 0.11892 0.00309
 H213 H 0.30374 0.06010 -0.03418
 H214 H 0.25367 0.06111 0.00947
 H215 H 0.23817 0.17636 -0.01105
 H216 H 0.28828 0.17470 -0.05514
 C217 C 0.70424 0.63414 0.55029
 C218 C 0.70398 0.60445 0.52633
 C219 C 0.72816 0.60367 0.49690
 C220 C 0.66171 0.63703 0.60816
 C221 C 0.75259 0.66242 0.51527
 C222 C 0.72850 0.66311 0.54458
 C223 C 0.68049 0.63496 0.58137
 C224 C 0.75291 0.63261 0.49112
 H225 H 0.68529 0.58186 0.53051
 H226 H 0.72735 0.58044 0.47876
 H227 H 0.77129 0.68507 0.51205
 H228 H 0.72906 0.68616 0.56304
 C229 C 0.79572 0.36556 0.04913
 C230 C 0.77136 0.33665 0.04343
 C231 C 0.74729 0.33734 0.01421
 C232 C 0.83801 0.36276 0.10697
 C233 C 0.77192 0.39595 -0.00409
 C234 C 0.79608 0.39518 0.02525
 C235 C 0.81938 0.36479 0.08017
 C236 C 0.74708 0.36708 -0.00985
 H237 H 0.77069 0.31366 0.06184
 H238 H 0.72851 0.31474 0.01100
 H239 H 0.77281 0.41912 -0.02217
 H240 H 0.81482 0.41774 0.02942
 C241 C 0.20027 0.88309 0.45204
 C242 C 0.22045 0.85106 0.45701
 C243 C 0.24931 0.85046 0.48181
 C244 C 0.14220 0.88545 0.40971
 C245 C 0.23808 0.91407 0.49630
 C246 C 0.20937 0.91461 0.47150
 C247 C 0.16912 0.88362 0.42836
 C248 C 0.25816 0.88187 0.50209
 H249 H 0.21350 0.82645 0.44218
 H250 H 0.26401 0.82516 0.48566
 H251 H 0.24433 0.93891 0.51096
 H252 H 0.19391 0.93955 0.46787
   
