data_POSCAR
  _audit_creation_date              2014-09-24
  _audit_creation_method            'ToBaCCo'
  _symmetry_space_group_name_H-M    'P1'
  _symmetry_Int_Tables_number       1
  _symmetry_cell_setting            triclinic
  loop_
  _symmetry_equiv_pos_as_xyz
 x,y,z
_cell_length_a 27.1614
_cell_length_b 27.1617
_cell_length_c 27.0742
_cell_angle_alpha 89.803000
_cell_angle_beta 90.206900
_cell_angle_gamma 89.997100
loop_
  _atom_site_label
  _atom_site_type_symbol
  _atom_site_fract_x
  _atom_site_fract_y
  _atom_site_fract_z
O1 O 0.56973 0.12499 0.00319
 O2 O 0.62406 0.06025 0.00288
 C3 C 0.61383 0.10680 0.00369
 O4 O 0.43242 -0.00346 0.12668
 O5 O 0.37783 -0.00100 0.06175
 C6 C 0.38823 -0.00318 0.10842
 O7 O 0.57013 0.00295 0.12640
 O8 O 0.62438 0.00027 0.06157
 C9 C 0.61427 0.00229 0.10826
 O10 O 0.43242 0.12506 -0.00402
 O11 O 0.37776 0.06069 0.00002
 C12 C 0.38821 0.10711 -0.00304
 Zr13 Zr 0.50084 0.08843 0.00240
 O14 O 0.49555 0.13881 0.06177
 O15 O 0.50336 0.14840 -0.04747
 Zr16 Zr 0.50102 0.00024 0.08994
 O17 O 0.49572 0.05561 0.14452
 O18 O 0.50666 -0.05486 0.14517
 O19 O 0.54526 0.05104 0.05295
 O20 O 0.45773 0.05073 0.05244
 O21 O 0.43143 0.00392 -0.12277
 O22 O 0.37709 0.00109 -0.05797
 C23 C 0.38730 0.00330 -0.10461
 O24 O 0.56958 -0.12363 -0.00165
 O25 O 0.62416 -0.05907 0.00128
 C26 C 0.61378 -0.10555 -0.00102
 O27 O 0.43166 -0.12341 0.00436
 O28 O 0.37722 -0.05870 0.00128
 C29 C 0.38751 -0.10522 0.00351
 O30 O 0.56942 -0.00164 -0.12282
 O31 O 0.62409 0.00073 -0.05792
 C32 C 0.61364 -0.00114 -0.10459
 Zr33 Zr 0.50059 0.00095 -0.08633
 O34 O 0.49512 -0.05415 -0.14122
 O35 O 0.50528 0.05614 -0.14155
 Zr36 Zr 0.50070 -0.08717 0.00164
 O37 O 0.49503 -0.14202 -0.05347
 O38 O 0.50631 -0.14202 0.05716
 Zr39 Zr 0.57449 0.00053 0.00174
 Zr40 Zr 0.42707 0.00074 0.00173
 O41 O 0.45783 -0.04936 -0.04876
 O42 O 0.54474 -0.05001 -0.04925
 O43 O 0.45692 0.05171 -0.04905
 O44 O 0.54370 -0.04992 0.05216
 O45 O 0.54339 0.05116 -0.04849
 O46 O 0.45681 -0.05033 0.05258
 H47 H 0.43520 0.07099 0.07267
 H48 H 0.56575 -0.07065 0.07274
 H49 H 0.43588 -0.06989 -0.06951
 H50 H 0.56534 0.07171 -0.06919
 H51 H 0.47991 -0.07886 0.13931
 H52 H 0.47808 -0.13783 0.07972
 H53 H 0.52212 -0.13657 -0.07717
 H54 H 0.52318 -0.07693 -0.13661
 H55 H 0.47723 0.07889 -0.13684
 H56 H 0.50576 0.13433 -0.08095
 H57 H 0.52755 0.13910 0.07934
 H58 H 0.52362 0.07851 0.13969
 O59 O 0.00201 0.43197 -0.12638
 O60 O 0.00188 0.37742 -0.06142
 C61 C 0.00259 0.38780 -0.10811
 O62 O 0.12536 0.56933 0.00236
 O63 O 0.06070 0.62378 -0.00012
 C64 C 0.10722 0.61347 0.00206
 O65 O 0.12506 0.43169 -0.00404
 O66 O 0.06044 0.37713 -0.00132
 C67 C 0.10694 0.38751 -0.00339
 O68 O -0.00473 0.56939 -0.12647
 O69 O -0.00072 0.62384 -0.06196
 C70 C -0.00368 0.61359 -0.10856
 Zr71 Zr 0.00133 0.50081 -0.08975
 O72 O 0.06039 0.50627 -0.14043
 O73 O -0.04852 0.49891 -0.14986
 Zr74 Zr 0.08870 0.50065 -0.00113
 O75 O 0.14345 0.50627 -0.05634
 O76 O 0.14344 0.49494 0.05447
 O77 O 0.05184 0.45652 -0.05224
 O78 O 0.05133 0.54389 -0.05191
 O79 O -0.12325 0.56961 -0.00503
 O80 O -0.05863 0.62415 -0.00227
 C81 C -0.10514 0.61379 -0.00442
 O82 O -0.00270 0.43160 0.12317
 O83 O -0.00063 0.37721 0.05842
 C84 C -0.00257 0.38747 0.10506
 O85 O 0.00347 0.56941 0.12275
 O86 O 0.00053 0.62404 0.05780
 C87 C 0.00268 0.61361 0.10449
 O88 O -0.12358 0.43183 0.00097
 O89 O -0.05894 0.37735 -0.00065
 C90 C -0.10545 0.38768 0.00098
 Zr91 Zr -0.08694 0.50058 -0.00204
 O92 O -0.14185 0.50580 0.05302
 O93 O -0.14169 0.49595 -0.05771
 Zr94 Zr 0.00077 0.50046 0.08641
 O95 O -0.05406 0.50584 0.14151
 O96 O 0.05629 0.49483 0.14127
 Zr97 Zr 0.00085 0.42684 -0.00160
 Zr98 Zr 0.00085 0.57435 -0.00181
 O99 O -0.04948 0.54329 0.04846
 O100 O -0.04993 0.45645 0.04907
 O101 O -0.04981 0.54454 -0.05293
 O102 O 0.05105 0.45761 0.04911
 O103 O -0.04932 0.45788 -0.05232
 O104 O 0.05152 0.54466 0.04948
 H105 H 0.07155 0.56648 -0.07227
 H106 H 0.07146 0.43546 0.06990
 H107 H -0.07015 0.56512 0.06903
 H108 H -0.06998 0.43577 -0.07272
 H109 H 0.13804 0.52210 0.07807
 H110 H 0.07858 0.52334 0.13726
 H111 H -0.07780 0.47880 0.13602
 H112 H -0.13687 0.47815 0.07636
 H113 H -0.13665 0.52393 -0.08066
 H114 H -0.08156 0.49288 -0.13602
 H115 H 0.07799 0.47438 -0.14053
 H116 H 0.13815 0.47897 -0.07984
 O117 O -0.12493 -0.00280 0.56914
 O118 O -0.06013 -0.00153 0.62387
 C119 C -0.10668 -0.00277 0.61347
 O120 O 0.00267 -0.12512 0.43098
 O121 O -0.00070 -0.06037 0.37618
 C122 C 0.00183 -0.10689 0.38663
 O123 O -0.00343 -0.12551 0.56938
 O124 O -0.00055 -0.06092 0.62391
 C125 C -0.00269 -0.10743 0.61366
 O126 O -0.12503 0.00390 0.43084
 O127 O -0.06072 -0.00105 0.37615
 C128 C -0.10713 0.00231 0.38651
 Zr129 Zr -0.08870 -0.00218 0.49987
 O130 O -0.13913 -0.06151 0.49457
 O131 O -0.14889 0.04706 0.50200
 Zr132 Zr -0.00061 -0.08899 0.50019
 O133 O -0.05566 -0.14389 0.49467
 O134 O 0.05467 -0.14370 0.50590
 O135 O -0.05138 -0.05242 0.54451
 O136 O -0.05096 -0.05172 0.45676
 O137 O -0.00446 0.12349 0.43085
 O138 O -0.00252 0.05897 0.37633
 C139 C -0.00440 0.10546 0.38660
 O140 O 0.12336 0.00240 0.56953
 O141 O 0.05876 -0.00052 0.62400
 C142 C 0.10526 0.00177 0.61378
 O143 O 0.12359 -0.00387 0.43154
 O144 O 0.05895 -0.00203 0.37666
 C145 C 0.10547 -0.00374 0.38719
 O146 O 0.00136 0.12303 0.56887
 O147 O -0.00098 0.05833 0.62368
 C148 C 0.00089 0.10486 0.61321
 Zr149 Zr -0.00129 0.08669 0.49982
 O150 O 0.05400 0.14142 0.49452
 O151 O -0.05651 0.14152 0.50442
 Zr152 Zr 0.08693 -0.00071 0.50030
 O153 O 0.14120 0.05498 0.49476
 O154 O 0.14214 -0.05547 0.50616
 Zr155 Zr -0.00084 -0.00120 0.57392
 Zr156 Zr -0.00094 -0.00095 0.42603
 O157 O 0.04915 0.04947 0.45697
 O158 O 0.04968 0.04986 0.54431
 O159 O -0.05206 0.04929 0.45587
 O160 O 0.04962 -0.05125 0.54319
 O161 O -0.05145 0.04875 0.54255
 O162 O 0.05001 -0.05159 0.45609
 H163 H -0.07141 -0.07211 0.43438
 H164 H 0.07032 -0.07173 0.56538
 H165 H 0.06957 0.07006 0.43476
 H166 H -0.07198 0.06941 0.56443
 H167 H 0.07782 -0.13861 0.47824
 H168 H 0.13681 -0.07912 0.47897
 H169 H 0.13643 0.07779 0.52273
 H170 H 0.07670 0.13691 0.52282
 H171 H -0.07966 0.13637 0.47660
 H172 H -0.13502 0.08050 0.50515
 H173 H -0.13971 -0.07868 0.52686
 H174 H -0.07908 -0.13870 0.52205
 C175 C -0.27440 0.20837 0.00422
 C176 C -0.29500 0.26096 0.00517
 C177 C -0.25960 0.29642 0.00482
 C178 C -0.20699 0.27590 0.00354
 C179 C -0.20570 0.24220 -0.04185
 C180 C -0.24116 0.20668 -0.04150
 C181 C -0.23903 0.20544 0.04851
 C182 C -0.20355 0.24098 0.04816
 C183 C -0.31310 0.17074 0.00445
 C184 C -0.34597 0.14095 0.00429
 C185 C -0.16942 0.31465 0.00300
 C186 C -0.13965 0.34753 0.00224
 H187 H -0.33401 0.26961 0.00605
 H188 H -0.26831 0.33543 0.00540
 H189 H -0.17922 0.24585 -0.07159
 H190 H -0.24506 0.17990 -0.07093
 H191 H -0.24157 0.17786 0.07751
 H192 H -0.17569 0.24386 0.07685
 C193 C 0.27586 0.79306 0.00468
 C194 C 0.24153 0.79519 0.04956
 C195 C 0.20613 0.75958 0.04944
 C196 C 0.20859 0.72541 0.00445
 C197 C 0.26126 0.70498 0.00467
 C198 C 0.29658 0.74051 0.00479
 C199 C 0.24156 0.79543 -0.04047
 C200 C 0.20617 0.75984 -0.04059
 C201 C 0.31450 0.83076 0.00464
 C202 C 0.34733 0.86059 0.00428
 C203 C 0.17109 0.68658 0.00413
 C204 C 0.14137 0.65365 0.00343
 H205 H 0.24469 0.82230 0.07877
 H206 H 0.17893 0.75618 0.07855
 H207 H 0.27005 0.66598 0.00473
 H208 H 0.33563 0.73193 0.00494
 H209 H 0.24472 0.82271 -0.06970
 H210 H 0.17901 0.75662 -0.06991
 C211 C 0.27642 0.20869 -0.00554
 C212 C 0.24184 0.20644 -0.05047
 C213 C 0.20622 0.24185 -0.05032
 C214 C 0.20876 0.27596 -0.00527
 C215 C 0.26132 0.29668 -0.00539
 C216 C 0.29685 0.26135 -0.00554
 C217 C 0.24240 0.20606 0.03956
 C218 C 0.20681 0.24145 0.03970
 C219 C 0.31525 0.17117 -0.00544
 C220 C 0.34813 0.14139 -0.00472
 C221 C 0.17104 0.31458 -0.00494
 C222 C 0.14118 0.34739 -0.00437
 H223 H 0.24496 0.17939 -0.07972
 H224 H 0.17883 0.24514 -0.07945
 H225 H 0.26989 0.33573 -0.00536
 H226 H 0.33584 0.27015 -0.00563
 H227 H 0.24589 0.17876 0.06875
 H228 H 0.17981 0.24447 0.06901
 C229 C -0.27449 0.79282 -0.00399
 C230 C -0.24043 0.79593 -0.04906
 C231 C -0.20488 0.76047 -0.04960
 C232 C -0.20693 0.72543 -0.00502
 C233 C -0.25953 0.70480 -0.00518
 C234 C -0.29500 0.74019 -0.00464
 C235 C -0.23992 0.79445 0.04097
 C236 C -0.20439 0.75900 0.04043
 C237 C -0.31324 0.83040 -0.00326
 C238 C -0.34610 0.86021 -0.00236
 C239 C -0.16926 0.68675 -0.00539
 C240 C -0.13940 0.65392 -0.00522
 H241 H -0.24389 0.82358 -0.07792
 H242 H -0.17787 0.75772 -0.07892
 H243 H -0.26817 0.66578 -0.00568
 H244 H -0.33401 0.73146 -0.00468
 H245 H -0.24302 0.82113 0.07056
 H246 H -0.17705 0.75532 0.06956
 C247 C 0.00388 -0.27508 0.20655
 C248 C 0.00349 -0.29597 0.25928
 C249 C 0.00341 -0.26076 0.29492
 C250 C 0.00373 -0.20803 0.27442
 C251 C -0.04092 -0.20532 0.23958
 C252 C -0.04084 -0.24059 0.20388
 C253 C 0.04890 -0.24092 0.20472
 C254 C 0.04881 -0.20564 0.24044
 C255 C 0.00382 -0.31359 0.16872
 C256 C 0.00346 -0.34632 0.13878
 C257 C 0.00348 -0.17064 0.31337
 C258 C 0.00293 -0.14099 0.34637
 H259 H 0.00330 -0.33504 0.26789
 H260 H 0.00315 -0.26968 0.33404
 H261 H -0.06998 -0.17805 0.24262
 H262 H -0.06983 -0.24354 0.17632
 H263 H 0.07818 -0.24410 0.17772
 H264 H 0.07801 -0.17858 0.24406
 C265 C 0.00324 0.27543 0.79097
 C266 C 0.00342 0.29538 0.73789
 C267 C 0.00317 0.25954 0.70289
 C268 C 0.00277 0.20717 0.72433
 C269 C -0.04212 0.20557 0.75859
 C270 C -0.04187 0.24148 0.79365
 C271 C 0.04786 0.24082 0.79404
 C272 C 0.04762 0.20489 0.75896
 C273 C 0.00337 0.31457 0.82815
 C274 C 0.00318 0.34763 0.85772
 C275 C 0.00237 0.16913 0.68602
 C276 C 0.00181 0.13910 0.65336
 H277 H 0.00371 0.33430 0.72858
 H278 H 0.00326 0.26776 0.66362
 H279 H -0.07145 0.17856 0.75565
 H280 H -0.07099 0.24525 0.82074
 H281 H 0.07700 0.24417 0.82137
 H282 H 0.07655 0.17745 0.75625
 C283 C -0.00525 0.27534 0.20697
 C284 C -0.00507 0.29563 0.25979
 C285 C -0.00537 0.26001 0.29526
 C286 C -0.00580 0.20751 0.27453
 C287 C 0.03903 0.20499 0.24025
 C288 C 0.03932 0.24067 0.20472
 C289 C -0.05041 0.24142 0.20439
 C290 C -0.05071 0.20572 0.23996
 C291 C -0.00476 0.31426 0.16929
 C292 C -0.00398 0.34724 0.13942
 C293 C -0.00588 0.16969 0.31332
 C294 C -0.00550 0.13976 0.34628
 H295 H -0.00471 0.33461 0.26858
 H296 H -0.00526 0.26849 0.33443
 H297 H 0.06795 0.17756 0.24354
 H298 H 0.06848 0.24381 0.17757
 H299 H -0.07951 0.24504 0.17701
 H300 H -0.08005 0.17876 0.24304
 C301 C -0.00547 -0.27773 0.79291
 C302 C -0.00390 -0.29782 0.74004
 C303 C -0.00358 -0.26208 0.70469
 C304 C -0.00486 -0.20965 0.72559
 C305 C 0.03913 -0.20697 0.76124
 C306 C 0.03881 -0.24278 0.79665
 C307 C -0.05089 -0.24411 0.79420
 C308 C -0.05057 -0.20828 0.75877
 C309 C -0.00556 -0.31680 0.83044
 C310 C -0.00498 -0.34991 0.86020
 C311 C -0.00437 -0.17171 0.68691
 C312 C -0.00371 -0.14173 0.65400
 H313 H -0.00309 -0.33676 0.73112
 H314 H -0.00250 -0.27041 0.66552
 H315 H 0.06792 -0.17934 0.75894
 H316 H 0.06734 -0.24582 0.82469
 H317 H -0.08060 -0.24801 0.82065
 H318 H -0.08000 -0.18148 0.75487
 C319 C 0.27512 0.00457 0.79346
 C320 C 0.29540 0.00479 0.74064
 C321 C 0.25977 0.00455 0.70516
 C322 C 0.20727 0.00412 0.72590
 C323 C 0.20477 0.04894 0.76022
 C324 C 0.24048 0.04918 0.79578
 C325 C 0.24117 -0.04056 0.79597
 C326 C 0.20548 -0.04080 0.76043
 C327 C 0.31405 0.00462 0.83114
 C328 C 0.34704 0.00424 0.86103
 C329 C 0.16944 0.00369 0.68711
 C330 C 0.13952 0.00298 0.65415
 H331 H 0.33437 0.00511 0.73185
 H332 H 0.26824 0.00468 0.66600
 H333 H 0.17735 0.07787 0.75694
 H334 H 0.24366 0.07830 0.82297
 H335 H 0.24478 -0.06970 0.82329
 H336 H 0.17852 -0.07014 0.75731
 C337 C -0.27710 0.00401 0.20688
 C338 C -0.29739 0.00478 0.25969
 C339 C -0.26178 0.00492 0.29518
 C340 C -0.20927 0.00429 0.27447
 C341 C -0.20677 0.04875 0.23937
 C342 C -0.24248 0.04861 0.20381
 C343 C -0.24314 -0.04112 0.20516
 C344 C -0.20746 -0.04098 0.24071
 C345 C -0.31605 0.00369 0.16922
 C346 C -0.34913 0.00313 0.13942
 C347 C -0.17146 0.00422 0.31328
 C348 C -0.14151 0.00365 0.34624
 H349 H -0.33637 0.00517 0.26846
 H350 H -0.27027 0.00544 0.33433
 H351 H -0.17937 0.07771 0.24215
 H352 H -0.24566 0.07744 0.17610
 H353 H -0.24673 -0.07054 0.17834
 H354 H -0.18048 -0.07028 0.24434
 C355 C 0.27593 -0.00540 0.20936
 C356 C 0.24213 0.03987 0.20692
 C357 C 0.20625 0.03983 0.24201
 C358 C 0.20773 -0.00545 0.27607
 C359 C 0.26013 -0.00628 0.29745
 C360 C 0.29593 -0.00625 0.26243
 C361 C 0.24116 -0.04986 0.20612
 C362 C 0.20526 -0.04989 0.24123
 C363 C 0.31503 -0.00517 0.17216
 C364 C 0.34808 -0.00453 0.14258
 C365 C 0.16975 -0.00530 0.31441
 C366 C 0.13974 -0.00479 0.34709
 H367 H 0.24595 0.06929 0.17996
 H368 H 0.17935 0.06922 0.24512
 H369 H 0.26839 -0.00681 0.33672
 H370 H 0.33485 -0.00675 0.27170
 H371 H 0.24435 -0.07868 0.17863
 H372 H 0.17771 -0.07873 0.24383
 C373 C -0.27503 -0.00289 0.79341
 C374 C -0.24141 -0.04832 0.79543
 C375 C -0.20608 -0.04852 0.75976
 C376 C -0.20789 -0.00328 0.72562
 C377 C -0.20469 0.04120 0.76033
 C378 C -0.24000 0.04141 0.79599
 C379 C -0.29585 -0.00205 0.74065
 C380 C -0.26060 -0.00226 0.70506
 C381 C -0.31357 -0.00254 0.83120
 C382 C -0.34631 -0.00203 0.86111
 C383 C -0.17046 -0.00338 0.68672
 C384 C -0.14079 -0.00323 0.65374
 H385 H -0.24497 -0.07765 0.82252
 H386 H -0.17937 -0.07804 0.75628
 H387 H -0.17707 0.06993 0.75723
 H388 H -0.24264 0.07032 0.82344
 H389 H -0.33491 -0.00135 0.73199
 H390 H -0.26947 -0.00174 0.66593
   
