data_POSCAR
  _audit_creation_date              2014-09-24
  _audit_creation_method            'ToBaCCo'
  _symmetry_space_group_name_H-M    'P1'
  _symmetry_Int_Tables_number       1
  _symmetry_cell_setting            triclinic
  loop_
  _symmetry_equiv_pos_as_xyz
 x,y,z
_cell_length_a 41.8494
_cell_length_b 41.8999
_cell_length_c 41.9283
_cell_angle_alpha 89.949800
_cell_angle_beta 90.026700
_cell_angle_gamma 90.016100
loop_
  _atom_site_label
  _atom_site_type_symbol
  _atom_site_fract_x
  _atom_site_fract_y
  _atom_site_fract_z
C1 C 0.27345 0.25011 0.22621
 C2 C 0.24982 0.27380 0.22628
 C3 C 0.22621 0.27386 0.24997
 C4 C 0.22625 0.25020 0.27361
 C5 C 0.24987 0.22650 0.27358
 C6 C 0.27346 0.22647 0.24987
 H7 H 0.24980 0.29211 0.20798
 H8 H 0.20799 0.25023 0.29195
 H9 H 0.29174 0.20813 0.24983
 C10 C 0.72612 -0.25040 0.22599
 C11 C 0.74988 -0.27401 0.22598
 C12 C 0.77355 -0.27408 0.24967
 C13 C 0.77343 -0.25049 0.27338
 C14 C 0.74972 -0.22689 0.27342
 C15 C 0.72608 -0.22686 0.24974
 H16 H 0.74994 -0.29226 0.20761
 H17 H 0.79171 -0.25045 0.29175
 H18 H 0.70774 -0.20855 0.24984
 C19 C 0.72717 0.25058 0.77301
 C20 C 0.75072 0.27436 0.77289
 C21 C 0.77441 0.27445 0.74925
 C22 C 0.77448 0.25069 0.72571
 C23 C 0.75093 0.22690 0.72581
 C24 C 0.72729 0.22687 0.74947
 H25 H 0.75057 0.29269 0.79116
 H26 H 0.79277 0.25065 0.70737
 H27 H 0.70907 0.20846 0.74955
 C28 C 0.27308 -0.25076 0.77428
 C29 C 0.27312 -0.22717 0.75057
 C30 C 0.24948 -0.22715 0.72691
 C31 C 0.22576 -0.25076 0.72695
 C32 C 0.22566 -0.27440 0.75065
 C33 C 0.24935 -0.27437 0.77431
 H34 H 0.29149 -0.20890 0.75054
 H35 H 0.20748 -0.25069 0.70858
 H36 H 0.24938 -0.29261 0.79270
 C37 C 0.72667 -0.25063 0.77414
 C38 C 0.75034 -0.27427 0.77411
 C39 C 0.77397 -0.27430 0.75042
 C40 C 0.77388 -0.25064 0.72676
 C41 C 0.75022 -0.22700 0.72680
 C42 C 0.72662 -0.22700 0.75049
 H43 H 0.75031 -0.29255 0.79247
 H44 H 0.79212 -0.25057 0.70837
 H45 H 0.70830 -0.20870 0.75051
 C46 C 0.27321 0.25001 0.77312
 C47 C 0.27311 0.22632 0.74957
 C48 C 0.24941 0.22631 0.72597
 C49 C 0.22580 0.25000 0.72593
 C50 C 0.22588 0.27370 0.74947
 C51 C 0.24960 0.27370 0.77307
 H52 H 0.29139 0.20798 0.74961
 H53 H 0.20744 0.24999 0.70765
 H54 H 0.24966 0.29204 0.79130
 C55 C 0.27475 -0.24977 0.22577
 C56 C 0.25093 -0.27331 0.22571
 C57 C 0.22726 -0.27327 0.24932
 C58 C 0.22737 -0.24971 0.27300
 C59 C 0.25114 -0.22618 0.27309
 C60 C 0.27483 -0.22620 0.24948
 H61 H 0.25078 -0.29160 0.20741
 H62 H 0.20904 -0.24969 0.29127
 H63 H 0.29321 -0.20793 0.24962
 C64 C 0.72638 0.24986 0.22651
 C65 C 0.74995 0.27360 0.22663
 C66 C 0.77355 0.27367 0.25033
 C67 C 0.77357 0.24999 0.27393
 C68 C 0.75001 0.22623 0.27383
 C69 C 0.72641 0.22618 0.25011
 H70 H 0.74994 0.29193 0.20835
 H71 H 0.79184 0.25003 0.29229
 H72 H 0.70817 0.20779 0.25002
 O73 O 0.22376 0.03055 0.46892
 O74 O 0.22376 -0.03174 0.53101
 O75 O 0.22350 0.03042 0.53103
 O76 O 0.22404 -0.03161 0.46888
 O77 O 0.27689 -0.03137 0.46913
 O78 O 0.27635 0.03065 0.53127
 O79 O 0.27661 -0.03151 0.53126
 O80 O 0.27661 0.03079 0.46917
 Cu81 Cu 0.21843 -0.00063 0.49993
 Cu82 Cu 0.28195 -0.00034 0.50024
 C83 C 0.25018 0.04119 0.45857
 C84 C 0.25018 -0.04213 0.54162
 C85 C 0.24983 0.04101 0.54163
 C86 C 0.25055 -0.04195 0.45851
 O87 O 0.77680 0.03052 0.53111
 O88 O 0.77646 -0.03172 0.46909
 O89 O 0.77663 0.03044 0.46900
 O90 O 0.77659 -0.03165 0.53121
 O91 O 0.72375 -0.03150 0.53131
 O92 O 0.72378 0.03057 0.46911
 O93 O 0.72362 -0.03158 0.46918
 O94 O 0.72395 0.03067 0.53121
 Cu95 Cu 0.78195 -0.00062 0.50010
 Cu96 Cu 0.71844 -0.00045 0.50022
 C97 C 0.75043 0.04111 0.54162
 C98 C 0.74999 -0.04215 0.45866
 C99 C 0.75021 0.04098 0.45856
 C100 C 0.75016 -0.04205 0.54176
 O101 O 0.46900 0.22356 0.03049
 O102 O 0.53128 0.22363 -0.03160
 O103 O 0.53123 0.22352 0.03052
 O104 O 0.46904 0.22364 -0.03162
 O105 O 0.46907 0.27642 -0.03159
 O106 O 0.53126 0.27631 0.03055
 O107 O 0.53131 0.27641 -0.03157
 O108 O 0.46903 0.27634 0.03052
 Cu109 Cu 0.50013 0.21826 -0.00056
 Cu110 Cu 0.50017 0.28170 -0.00052
 C111 C 0.45851 0.24994 0.04099
 C112 C 0.54181 0.25003 -0.04207
 C113 C 0.54173 0.24989 0.04103
 C114 C 0.45855 0.25005 -0.04209
 O115 O 0.53144 0.77621 0.03174
 O116 O 0.46908 0.77606 -0.03034
 O117 O 0.46920 0.77621 0.03178
 O118 O 0.53131 0.77605 -0.03039
 O119 O 0.53129 0.72326 -0.03021
 O120 O 0.46918 0.72343 0.03196
 O121 O 0.46906 0.72328 -0.03016
 O122 O 0.53141 0.72343 0.03191
 Cu123 Cu 0.50026 0.78146 0.00068
 Cu124 Cu 0.50023 0.71803 0.00090
 C125 C 0.54195 0.74985 0.04230
 C126 C 0.45855 0.74964 -0.04073
 C127 C 0.45870 0.74985 0.04236
 C128 C 0.54178 0.74962 -0.04079
 O129 O 0.03072 0.46980 0.22353
 O130 O -0.03156 0.53195 0.22343
 O131 O 0.03069 0.53196 0.22329
 O132 O -0.03150 0.46978 0.22364
 O133 O -0.03137 0.46992 0.27639
 O134 O 0.03082 0.53209 0.27604
 O135 O -0.03143 0.53209 0.27618
 O136 O 0.03085 0.46994 0.27628
 Cu137 Cu -0.00043 0.50087 0.21815
 Cu138 Cu -0.00027 0.50103 0.28154
 C139 C 0.04128 0.45936 0.24992
 C140 C -0.04201 0.54251 0.24979
 C141 C 0.04126 0.54251 0.24961
 C142 C -0.04191 0.45935 0.25007
 O143 O 0.03062 0.53152 0.77635
 O144 O -0.03166 0.46932 0.77601
 O145 O 0.03057 0.46936 0.77610
 O146 O -0.03163 0.53149 0.77628
 O147 O -0.03158 0.53176 0.72353
 O148 O 0.03062 0.46963 0.72335
 O149 O -0.03161 0.46959 0.72326
 O150 O 0.03066 0.53178 0.72360
 Cu151 Cu -0.00053 0.50040 0.78151
 Cu152 Cu -0.00048 0.50072 0.71812
 C153 C 0.04116 0.54214 0.75003
 C154 C -0.04213 0.45895 0.74958
 C155 C 0.04109 0.45901 0.74970
 C156 C -0.04210 0.54210 0.74994
 C157 C 0.29771 0.25007 0.20187
 C158 C 0.31804 0.25004 0.18150
 C159 C 0.34233 0.25000 0.15719
 C160 C 0.33375 0.24723 0.12500
 C161 C 0.35735 0.24720 0.10138
 C162 C 0.38963 0.24993 0.10985
 C163 C 0.39821 0.25269 0.14204
 C164 C 0.37461 0.25272 0.16566
 C165 C 0.41392 0.24992 0.08554
 C166 C 0.43428 0.24992 0.06519
 H167 H 0.30887 0.24511 0.11818
 H168 H 0.35045 0.24505 0.07657
 H169 H 0.42309 0.25482 0.14886
 H170 H 0.38151 0.25487 0.19047
 C171 C 0.70312 0.74965 0.20297
 C172 C 0.68275 0.74970 0.18261
 C173 C 0.65842 0.74975 0.15833
 C174 C 0.66028 0.77126 0.13279
 C175 C 0.63661 0.77131 0.10920
 C176 C 0.61099 0.74986 0.11106
 C177 C 0.60914 0.72834 0.13660
 C178 C 0.63280 0.72829 0.16018
 C179 C 0.58664 0.74989 0.08679
 C180 C 0.56624 0.74989 0.06647
 H181 H 0.67998 0.78796 0.13111
 H182 H 0.63829 0.78805 0.08956
 H183 H 0.58944 0.71165 0.13828
 H184 H 0.63113 0.71155 0.17982
 C185 C 0.70286 0.25050 -0.20270
 C186 C 0.68250 0.25043 -0.18236
 C187 C 0.65817 0.25035 -0.15810
 C188 C 0.63194 0.22971 -0.16064
 C189 C 0.60829 0.22964 -0.13707
 C190 C 0.61078 0.25019 -0.11083
 C191 C 0.63701 0.27083 -0.10829
 C192 C 0.66065 0.27091 -0.13187
 C193 C 0.58644 0.25012 -0.08657
 C194 C 0.56606 0.25007 -0.06625
 H195 H 0.62978 0.21372 -0.18082
 H196 H 0.58812 0.21358 -0.13928
 H197 H 0.63917 0.28682 -0.08811
 H198 H 0.68083 0.28696 -0.12965
 C199 C 0.29741 0.74925 -0.20143
 C200 C 0.31780 0.74927 -0.18110
 C201 C 0.34214 0.74932 -0.15682
 C202 C 0.33791 0.73152 -0.12883
 C203 C 0.36156 0.73158 -0.10524
 C204 C 0.38955 0.74944 -0.10953
 C205 C 0.39378 0.76723 -0.13753
 C206 C 0.37013 0.76717 -0.16112
 C207 C 0.41389 0.74951 -0.08525
 C208 C 0.43428 0.74958 -0.06492
 H209 H 0.31636 0.71764 -0.12526
 H210 H 0.35803 0.71774 -0.08369
 H211 H 0.41533 0.78112 -0.14111
 H212 H 0.37366 0.78102 -0.18267
 C213 C 0.20194 0.29820 0.25002
 C214 C 0.18161 0.31860 0.25005
 C215 C 0.15735 0.34294 0.25004
 C216 C 0.15366 0.36292 0.27658
 C217 C 0.13009 0.38659 0.27656
 C218 C 0.11009 0.39038 0.25000
 C219 C 0.11378 0.37040 0.22348
 C220 C 0.13735 0.34674 0.22350
 C221 C 0.08583 0.41474 0.24998
 C222 C 0.06549 0.43512 0.24996
 H223 H 0.16899 0.36020 0.29723
 H224 H 0.12745 0.40190 0.29720
 H225 H 0.09845 0.37312 0.20282
 H226 H 0.13999 0.33143 0.20285
 C227 C 0.20259 0.70263 0.75066
 C228 C 0.18218 0.68231 0.75063
 C229 C 0.15779 0.65806 0.75055
 C230 C 0.14925 0.64274 0.77902
 C231 C 0.12553 0.61920 0.77892
 C232 C 0.11026 0.61087 0.75037
 C233 C 0.11882 0.62619 0.72190
 C234 C 0.14253 0.64973 0.72199
 C235 C 0.08587 0.58663 0.75026
 C236 C 0.06544 0.56632 0.75016
 H237 H 0.16089 0.64899 0.80123
 H238 H 0.11912 0.60750 0.80107
 H239 H 0.10718 0.61994 0.69968
 H240 H 0.14895 0.66142 0.69984
 C241 C -0.20337 0.70298 0.24965
 C242 C -0.18294 0.68268 0.24965
 C243 C -0.15856 0.65845 0.24966
 C244 C -0.14134 0.65195 0.27759
 C245 C -0.11764 0.62840 0.27761
 C246 C -0.11106 0.61125 0.24970
 C247 C -0.12828 0.61775 0.22177
 C248 C -0.15198 0.64130 0.22175
 C249 C -0.08669 0.58700 0.24972
 C250 C -0.06628 0.56669 0.24975
 H251 H -0.14622 0.66506 0.29931
 H252 H -0.10448 0.62357 0.29934
 H253 H -0.12340 0.60464 0.20005
 H254 H -0.16514 0.64613 0.20002
 C255 C -0.20267 0.29756 0.74916
 C256 C -0.18238 0.31802 0.74911
 C257 C -0.15817 0.34243 0.74910
 C258 C -0.12831 0.33649 0.73521
 C259 C -0.10475 0.36019 0.73527
 C260 C -0.11095 0.38993 0.74921
 C261 C -0.14082 0.39588 0.76307
 C262 C -0.16438 0.37218 0.76302
 C263 C -0.08668 0.41430 0.74933
 C264 C -0.06635 0.43470 0.74944
 H265 H -0.12325 0.31358 0.72438
 H266 H -0.08174 0.35533 0.72448
 H267 H -0.14588 0.41879 0.77392
 H268 H -0.18738 0.37703 0.77382
 C269 C 0.24992 0.20220 0.29789
 C270 C 0.24996 0.18185 0.31824
 C271 C 0.25003 0.15753 0.34252
 C272 C 0.25424 0.12544 0.33414
 C273 C 0.25429 0.10181 0.35773
 C274 C 0.25013 0.11017 0.38981
 C275 C 0.24594 0.14226 0.39820
 C276 C 0.24589 0.16589 0.37461
 C277 C 0.25016 0.08584 0.41409
 C278 C 0.25018 0.06545 0.43441
 H279 H 0.25747 0.11871 0.30940
 H280 H 0.25755 0.07707 0.35097
 H281 H 0.24270 0.14899 0.42293
 H282 H 0.24262 0.19063 0.38136
 C283 C 0.75102 0.20252 0.70164
 C284 C 0.75105 0.18209 0.68140
 C285 C 0.75104 0.15769 0.65724
 C286 C 0.75445 0.16602 0.62505
 C287 C 0.75435 0.14232 0.60156
 C288 C 0.75084 0.11019 0.61017
 C289 C 0.74745 0.10186 0.64236
 C290 C 0.74755 0.12556 0.66585
 C291 C 0.75069 0.08580 0.58599
 C292 C 0.75057 0.06539 0.56574
 H293 H 0.75717 0.19079 0.61812
 H294 H 0.75699 0.14904 0.57674
 H295 H 0.74472 0.07709 0.64929
 H296 H 0.74490 0.11884 0.69067
 C297 C 0.24957 -0.20289 0.70256
 C298 C 0.24966 -0.18257 0.68218
 C299 C 0.24977 -0.15829 0.65786
 C300 C 0.25127 -0.12600 0.66639
 C301 C 0.25139 -0.10240 0.64277
 C302 C 0.25002 -0.11099 0.61050
 C303 C 0.24852 -0.14328 0.60197
 C304 C 0.24840 -0.16688 0.62560
 C305 C 0.25011 -0.08670 0.58619
 C306 C 0.25016 -0.06635 0.56583
 H307 H 0.25234 -0.11908 0.69126
 H308 H 0.25254 -0.07750 0.64964
 H309 H 0.24745 -0.15020 0.57710
 H310 H 0.24724 -0.19178 0.61873
 C311 C 0.74966 -0.20267 0.29776
 C312 C 0.74964 -0.18238 0.31814
 C313 C 0.74963 -0.15815 0.34246
 C314 C 0.75591 -0.16635 0.37426
 C315 C 0.75594 -0.14280 0.39789
 C316 C 0.74969 -0.11094 0.38983
 C317 C 0.74339 -0.10275 0.35803
 C318 C 0.74336 -0.12630 0.33440
 C319 C 0.74977 -0.08669 0.41413
 C320 C 0.74986 -0.06636 0.43447
 H321 H 0.76079 -0.19090 0.38076
 H322 H 0.76083 -0.14940 0.42240
 H323 H 0.73853 -0.07819 0.35152
 H324 H 0.73848 -0.11969 0.30989
 C325 C 0.70243 0.74937 -0.20155
 C326 C 0.68211 0.74938 -0.18120
 C327 C 0.65785 0.74941 -0.15691
 C328 C 0.63144 0.72902 -0.15952
 C329 C 0.60784 0.72905 -0.13592
 C330 C 0.61056 0.74947 -0.10962
 C331 C 0.63698 0.76985 -0.10700
 C332 C 0.66058 0.76982 -0.13060
 C333 C 0.58629 0.74951 -0.08534
 C334 C 0.56596 0.74955 -0.06500
 H335 H 0.62911 0.71313 -0.17977
 H336 H 0.58751 0.71319 -0.13817
 H337 H 0.63931 0.78573 -0.08675
 H338 H 0.68091 0.78568 -0.12835
 C339 C 0.29754 0.25001 -0.20264
 C340 C 0.31793 0.25002 -0.18232
 C341 C 0.34224 0.25004 -0.15807
 C342 C 0.33688 0.23443 -0.12900
 C343 C 0.36053 0.23445 -0.10542
 C344 C 0.38962 0.25008 -0.11083
 C345 C 0.39499 0.26570 -0.13990
 C346 C 0.37134 0.26568 -0.16348
 C347 C 0.41395 0.25009 -0.08658
 C348 C 0.43432 0.25008 -0.06626
 H349 H 0.31446 0.22226 -0.12459
 H350 H 0.35614 0.22230 -0.08303
 H351 H 0.41741 0.27785 -0.14432
 H352 H 0.37573 0.27782 -0.18588
 C353 C 0.29777 0.75019 0.20284
 C354 C 0.31815 0.75014 0.18254
 C355 C 0.34247 0.75009 0.15831
 C356 C 0.33512 0.73999 0.12731
 C357 C 0.35876 0.73994 0.10375
 C358 C 0.38984 0.74999 0.11110
 C359 C 0.39718 0.76008 0.14210
 C360 C 0.37354 0.76013 0.16566
 C361 C 0.41415 0.74995 0.08686
 C362 C 0.43450 0.74991 0.06654
 H363 H 0.31116 0.73217 0.12138
 H364 H 0.35283 0.73209 0.07986
 H365 H 0.42114 0.76790 0.14803
 H366 H 0.37947 0.76799 0.18955
 C367 C 0.70215 0.24981 0.20216
 C368 C 0.68186 0.24979 0.18176
 C369 C 0.65765 0.24978 0.15741
 C370 C 0.65991 0.27088 0.13156
 C371 C 0.63636 0.27088 0.10789
 C372 C 0.61046 0.24979 0.10998
 C373 C 0.60820 0.22869 0.13582
 C374 C 0.63175 0.22868 0.15949
 C375 C 0.58622 0.24982 0.08564
 C376 C 0.56591 0.24985 0.06526
 H377 H 0.67984 0.28728 0.12973
 H378 H 0.63834 0.28729 0.08800
 H379 H 0.58827 0.21228 0.13765
 H380 H 0.62978 0.21227 0.17938
 C381 C -0.20304 0.70272 0.75038
 C382 C -0.18268 0.68238 0.75034
 C383 C -0.15837 0.65811 0.75028
 C384 C -0.14738 0.64529 0.77914
 C385 C -0.12375 0.62170 0.77907
 C386 C -0.11102 0.61085 0.75015
 C387 C -0.12202 0.62367 0.72129
 C388 C -0.14565 0.64726 0.72135
 C389 C -0.08670 0.58660 0.75008
 C390 C -0.06633 0.56628 0.75001
 H391 H -0.15707 0.65352 0.80164
 H392 H -0.11541 0.61194 0.80152
 H393 H -0.11234 0.61544 0.69879
 H394 H -0.15398 0.65702 0.69891
 C395 C -0.20224 0.29804 0.25043
 C396 C -0.18195 0.31846 0.25048
 C397 C -0.15773 0.34282 0.25051
 C398 C -0.12621 0.33517 0.24227
 C399 C -0.10267 0.35887 0.24223
 C400 C -0.11057 0.39030 0.25042
 C401 C -0.14209 0.39795 0.25868
 C402 C -0.16562 0.37425 0.25872
 C403 C -0.08637 0.41469 0.25032
 C404 C -0.06608 0.43510 0.25021
 H405 H -0.11985 0.31094 0.23589
 H406 H -0.07837 0.35271 0.23581
 H407 H -0.14844 0.42218 0.26506
 H408 H -0.18993 0.38041 0.26513
 C409 C 0.20163 0.29802 0.74944
 C410 C 0.18132 0.31840 0.74943
 C411 C 0.15709 0.34273 0.74945
 C412 C 0.15625 0.36545 0.77394
 C413 C 0.13268 0.38911 0.77397
 C414 C 0.10987 0.39013 0.74952
 C415 C 0.11072 0.36741 0.72504
 C416 C 0.13428 0.34375 0.72500
 C417 C 0.08561 0.41444 0.74957
 C418 C 0.06528 0.43480 0.74963
 H419 H 0.17378 0.36487 0.79295
 H420 H 0.13224 0.40656 0.79302
 H421 H 0.09319 0.36799 0.70602
 H422 H 0.13473 0.32630 0.70596
 C423 C 0.20283 0.70257 0.24927
 C424 C 0.18235 0.68235 0.24925
 C425 C 0.15790 0.65821 0.24928
 C426 C 0.14325 0.64922 0.27795
 C427 C 0.11950 0.62574 0.27799
 C428 C 0.11032 0.61116 0.24936
 C429 C 0.12496 0.62017 0.22068
 C430 C 0.14871 0.64365 0.22064
 C431 C 0.08593 0.58696 0.24941
 C432 C 0.06552 0.56667 0.24949
 H433 H 0.15019 0.66034 0.30023
 H434 H 0.10833 0.61894 0.30029
 H435 H 0.11803 0.60904 0.19841
 H436 H 0.15989 0.65044 0.19834
 C437 C 0.75015 -0.20271 0.70253
 C438 C 0.75012 -0.18237 0.68219
 C439 C 0.75010 -0.15810 0.65792
 C440 C 0.74394 -0.12626 0.66604
 C441 C 0.74394 -0.10266 0.64243
 C442 C 0.75010 -0.11081 0.61062
 C443 C 0.75625 -0.14265 0.60250
 C444 C 0.75625 -0.16625 0.62611
 C445 C 0.75012 -0.08653 0.58634
 C446 C 0.75013 -0.06621 0.56599
 H447 H 0.73915 -0.11971 0.69056
 H448 H 0.73915 -0.07811 0.64896
 H449 H 0.76104 -0.14920 0.57798
 H450 H 0.76105 -0.19080 0.61958
 C451 C 0.25121 -0.20199 0.29741
 C452 C 0.25123 -0.18174 0.31780
 C453 C 0.25121 -0.15757 0.34214
 C454 C 0.24982 -0.16631 0.37437
 C455 C 0.24973 -0.14281 0.39803
 C456 C 0.25103 -0.11049 0.38955
 C457 C 0.25243 -0.10175 0.35732
 C458 C 0.25252 -0.12525 0.33366
 C459 C 0.25089 -0.08632 0.41389
 C460 C 0.25075 -0.06606 0.43428
 H461 H 0.24879 -0.19124 0.38118
 H462 H 0.24863 -0.14982 0.42289
 H463 H 0.25343 -0.07682 0.35051
 H464 H 0.25359 -0.11824 0.30880
 C465 C 0.75004 0.20191 0.29805
 C466 C 0.75008 0.18152 0.31835
 C467 C 0.75015 0.15721 0.34258
 C468 C 0.74664 0.12506 0.33410
 C469 C 0.74666 0.10142 0.35766
 C470 C 0.75020 0.10984 0.38980
 C471 C 0.75372 0.14198 0.39829
 C472 C 0.75369 0.16562 0.37472
 C473 C 0.75021 0.08553 0.41404
 C474 C 0.75022 0.06518 0.43437
 H475 H 0.74388 0.11830 0.30931
 H476 H 0.74392 0.07663 0.35084
 H477 H 0.75647 0.14875 0.42307
 H478 H 0.75642 0.19041 0.38154
 C479 C 0.24933 0.20198 0.70179
 C480 C 0.24928 0.18159 0.68154
 C481 C 0.24925 0.15725 0.65737
 C482 C 0.24498 0.16557 0.62528
 C483 C 0.24503 0.14192 0.60177
 C484 C 0.24936 0.10986 0.61027
 C485 C 0.25361 0.10154 0.64236
 C486 C 0.25356 0.12519 0.66587
 C487 C 0.24949 0.08555 0.58607
 C488 C 0.24963 0.06519 0.56578
 H489 H 0.24164 0.19029 0.61846
 H490 H 0.24173 0.14860 0.57702
 H491 H 0.25697 0.07682 0.64918
 H492 H 0.25689 0.11851 0.69062
   
