data_POSCAR
  _audit_creation_date              2014-09-24
  _audit_creation_method            'ToBaCCo'
  _symmetry_space_group_name_H-M    'P1'
  _symmetry_Int_Tables_number       1
  _symmetry_cell_setting            triclinic
  loop_
  _symmetry_equiv_pos_as_xyz
 x,y,z
_cell_length_a 44.8659
_cell_length_b 45.0973
_cell_length_c 44.7145
_cell_angle_alpha 89.930100
_cell_angle_beta 89.219200
_cell_angle_gamma 93.945500
loop_
  _atom_site_label
  _atom_site_type_symbol
  _atom_site_fract_x
  _atom_site_fract_y
  _atom_site_fract_z
C1 C 0.18173 0.24043 0.21914
 C2 C 0.18232 0.24846 0.18868
 C3 C 0.20448 0.23872 0.16995
 C4 C 0.22573 0.22034 0.18096
 C5 C 0.22505 0.21223 0.21075
 C6 C 0.20313 0.22260 0.22999
 C7 C 0.16342 0.24687 0.24306
 N8 N 0.17352 0.23367 0.26795
 C9 C 0.19767 0.21870 0.26006
 C10 C 0.24762 0.19340 0.21482
 N11 N 0.26178 0.18988 0.18815
 C12 C 0.24863 0.20644 0.16734
 C13 C 0.20032 0.25023 0.14201
 N14 N 0.17603 0.26645 0.14305
 C15 C 0.16469 0.26551 0.17143
 H16 H 0.14445 0.26045 0.24251
 H17 H 0.21039 0.20577 0.27506
 H18 H 0.25287 0.18246 0.23547
 H19 H 0.25466 0.20770 0.14384
 H20 H 0.21393 0.24699 0.12224
 H21 H 0.14547 0.27681 0.17904
 C22 C 0.67197 0.70950 0.73955
 C23 C 0.68246 0.72707 0.71528
 C24 C 0.70608 0.71855 0.69781
 C25 C 0.71984 0.69239 0.70479
 C26 C 0.70981 0.67534 0.72917
 C27 C 0.68551 0.68379 0.74644
 C28 C 0.64823 0.71149 0.75908
 N29 N 0.64694 0.68749 0.77747
 C30 C 0.66974 0.67046 0.77001
 C31 C 0.72690 0.65121 0.73050
 N32 N 0.74679 0.65301 0.70736
 C33 C 0.74265 0.67804 0.69144
 C34 C 0.71050 0.73928 0.67518
 N35 N 0.69030 0.76012 0.67879
 C36 C 0.67304 0.75277 0.70322
 H37 H 0.63257 0.72872 0.75941
 H38 H 0.67421 0.64962 0.78049
 H39 H 0.72463 0.63329 0.74669
 H40 H 0.75527 0.68527 0.67162
 H41 H 0.72702 0.73913 0.65732
 H42 H 0.65457 0.76486 0.71135
 C43 C 0.32647 0.77690 0.72228
 C44 C 0.32432 0.76565 0.69300
 C45 C 0.30538 0.77795 0.67304
 C46 C 0.28874 0.80160 0.68164
 C47 C 0.29038 0.81252 0.71043
 C48 C 0.30938 0.80001 0.73097
 C49 C 0.34267 0.76930 0.74679
 N50 N 0.33565 0.78702 0.77002
 C51 C 0.31530 0.80582 0.76056
 C52 C 0.27089 0.83490 0.71236
 N53 N 0.25791 0.83776 0.68527
 C54 C 0.26880 0.81741 0.66642
 C55 C 0.30628 0.76214 0.64694
 N56 N 0.32543 0.74052 0.65031
 C57 C 0.33681 0.74246 0.67835
 H58 H 0.35822 0.75202 0.74776
 H59 H 0.30567 0.82268 0.77409
 H60 H 0.26648 0.84805 0.73197
 H61 H 0.26244 0.81384 0.64338
 H62 H 0.29358 0.76580 0.62700
 H63 H 0.35223 0.72761 0.68766
 C64 C 0.84584 0.26794 0.20434
 C65 C 0.83182 0.27344 0.17734
 C66 C 0.81043 0.29398 0.17628
 C67 C 0.80217 0.30863 0.20233
 C68 C 0.81598 0.30334 0.22915
 C69 C 0.83844 0.28301 0.23007
 C70 C 0.86765 0.24940 0.21145
 N71 N 0.87431 0.25308 0.24082
 C72 C 0.85649 0.27355 0.25246
 C73 C 0.80224 0.31983 0.25069
 N74 N 0.78046 0.33455 0.23740
 C75 C 0.78044 0.32792 0.20787
 C76 C 0.80042 0.29469 0.14741
 N77 N 0.81513 0.27486 0.13105
 C78 C 0.83426 0.26159 0.14914
 H79 H 0.87840 0.23496 0.19596
 H80 H 0.85675 0.28112 0.27544
 H81 H 0.80715 0.32034 0.27432
 H82 H 0.76518 0.33603 0.19169
 H83 H 0.78303 0.30790 0.13914
 H84 H 0.84859 0.24439 0.14231
 C85 C 0.81285 0.68479 0.31814
 C86 C 0.78574 0.68396 0.33410
 C87 C 0.76097 0.66730 0.32362
 C88 C 0.76307 0.65143 0.29671
 C89 C 0.78979 0.65281 0.28075
 C90 C 0.81477 0.66946 0.29155
 C91 C 0.83994 0.70033 0.32224
 N92 N 0.85809 0.69498 0.29852
 C93 C 0.84286 0.67604 0.27970
 C94 C 0.78532 0.63655 0.25509
 N95 N 0.75661 0.62501 0.25512
 C96 C 0.74276 0.63393 0.28044
 C97 C 0.73737 0.67251 0.34255
 N98 N 0.74731 0.69213 0.36387
 C99 C 0.77682 0.69914 0.35890
 H100 H 0.84541 0.71539 0.34049
 H101 H 0.85127 0.66837 0.25846
 H102 H 0.80194 0.63300 0.23792
 H103 H 0.71965 0.62812 0.28651
 H104 H 0.71443 0.66391 0.34002
 H105 H 0.79053 0.71506 0.37174
 C106 C 0.29147 0.21695 -0.26457
 C107 C 0.28084 0.23319 -0.24038
 C108 C 0.25330 0.22489 -0.22763
 C109 C 0.23652 0.19989 -0.23811
 C110 C 0.24729 0.18313 -0.26122
 C111 C 0.27492 0.19202 -0.27487
 C112 C 0.31771 0.21958 -0.28093
 N113 N 0.31756 0.19698 -0.30099
 C114 C 0.29157 0.17984 -0.29727
 C115 C 0.22795 0.15802 -0.26365
 N116 N 0.20594 0.15941 -0.24252
 C117 C 0.21099 0.18517 -0.22711
 C118 C 0.24977 0.24236 -0.20290
 N119 N 0.27473 0.26069 -0.19989
 C120 C 0.29389 0.25546 -0.22278
 H121 H 0.33573 0.23657 -0.27822
 H122 H 0.28512 0.15995 -0.30977
 H123 H 0.23053 0.13950 -0.27864
 H124 H 0.19822 0.19204 -0.20794
 H125 H 0.23134 0.24037 -0.18696
 H126 H 0.31621 0.26591 -0.22552
 C127 C 0.65386 0.29692 -0.19045
 C128 C 0.66932 0.27663 -0.17424
 C129 C 0.70002 0.27688 -0.17647
 C130 C 0.71573 0.29809 -0.19477
 C131 C 0.70043 0.31822 -0.21112
 C132 C 0.66893 0.31663 -0.21003
 C133 C 0.62390 0.29896 -0.19418
 N134 N 0.61994 0.31803 -0.21699
 C135 C 0.64731 0.32886 -0.22714
 C136 C 0.72171 0.33731 -0.22507
 N137 N 0.74928 0.32879 -0.21801
 C138 C 0.74571 0.30438 -0.20010
 C139 C 0.70851 0.25306 -0.15996
 N140 N 0.68348 0.23820 -0.14864
 C141 C 0.65946 0.25260 -0.15714
 H142 H 0.60634 0.28489 -0.18345
 H143 H 0.65121 0.34347 -0.24624
 H144 H 0.71746 0.35630 -0.23883
 H145 H 0.76359 0.29311 -0.18997
 H146 H 0.73102 0.24626 -0.15746
 H147 H 0.63639 0.24570 -0.15192
 C148 C 0.19365 0.82135 0.30983
 C149 C 0.21898 0.80684 0.31826
 C150 C 0.24265 0.82259 0.33216
 C151 C 0.24142 0.85332 0.33725
 C152 C 0.21549 0.86680 0.33086
 C153 C 0.19190 0.85099 0.31668
 C154 C 0.16914 0.81310 0.29252
 N155 N 0.15316 0.83732 0.28850
 C156 C 0.16682 0.86041 0.30355
 C157 C 0.22028 0.89650 0.33655
 N158 N 0.24914 0.90213 0.34460
 C159 C 0.26246 0.87588 0.34500
 C160 C 0.26316 0.80233 0.33936
 N161 N 0.25258 0.77505 0.32988
 C162 C 0.22593 0.77767 0.31649
 H163 H 0.16441 0.79171 0.28201
 H164 H 0.16022 0.88303 0.30339
 H165 H 0.20478 0.91323 0.33180
 H166 H 0.28587 0.87356 0.34932
 H167 H 0.28362 0.80683 0.35161
 H168 H 0.21175 0.75933 0.30788
 C169 C 0.47456 0.42079 0.43097
 C170 C 0.47288 0.43971 0.40634
 C171 C 0.45109 0.45987 0.40540
 C172 C 0.43061 0.46132 0.42920
 C173 C 0.43213 0.44248 0.45355
 C174 C 0.45433 0.42204 0.45447
 C175 C 0.49450 0.40031 0.43828
 N176 N 0.48696 0.38902 0.46571
 C177 C 0.46235 0.40206 0.47580
 C178 C 0.41039 0.44979 0.47371
 N179 N 0.39592 0.47261 0.46216
 C180 C 0.40813 0.47980 0.43499
 C181 C 0.45563 0.47610 0.37944
 N182 N 0.47967 0.46611 0.36476
 C183 C 0.49036 0.44391 0.38105
 H184 H 0.51341 0.39451 0.42477
 H185 H 0.45159 0.39788 0.49736
 H186 H 0.40605 0.43977 0.49547
 H187 H 0.40149 0.49758 0.42077
 H188 H 0.44270 0.49406 0.37208
 H189 H 0.50971 0.43198 0.37510
 C190 C -0.03288 -0.08251 0.98876
 C191 C -0.01539 -0.07717 0.96288
 C192 C -0.02046 -0.05330 0.94472
 C193 C -0.04289 -0.03442 0.95220
 C194 C -0.06020 -0.03960 0.97774
 C195 C -0.05525 -0.06400 0.99613
 C196 C -0.03303 -0.10418 1.01034
 N197 N -0.05501 -0.09948 1.03059
 C198 C -0.06881 -0.07495 1.02208
 C199 C -0.08032 -0.01783 0.97901
 N200 N -0.07560 0.00023 0.95479
 C201 C -0.05270 -0.00983 0.93831
 C202 C -0.00082 -0.05378 0.92093
 N203 N 0.01604 -0.07737 0.92420
 C204 C 0.00737 -0.09187 0.94984
 H205 H -0.01825 -0.12217 1.01118
 H206 H -0.08718 -0.06558 1.03384
 H207 H -0.09733 -0.01551 0.99611
 H208 H -0.04377 -0.00021 0.91761
 H209 H 0.00092 -0.03824 0.90241
 H210 H 0.01661 -0.11176 0.95821
 C211 C 1.02888 0.58495 0.98466
 C212 C 1.00923 0.56730 0.96645
 C213 C 1.02032 0.54520 0.94857
 C214 C 1.05093 0.54041 0.94850
 C215 C 1.07009 0.55903 0.96482
 C216 C 1.05905 0.58073 0.98325
 C217 C 1.02533 0.60690 1.00601
 N218 N 1.05266 0.61522 1.01754
 C219 C 1.07322 0.59943 1.00323
 C220 C 1.09854 0.55084 0.95982
 N221 N 1.09723 0.52668 0.94177
 C222 C 1.06814 0.51981 0.93485
 C223 C 0.99716 0.53339 0.93156
 N224 N 0.97230 0.54759 0.93845
 C225 C 0.97924 0.56804 0.96008
 H226 H 1.00442 0.61534 1.01330
 H227 H 1.09694 0.60056 1.00746
 H228 H 1.11858 0.56082 0.96998
 H229 H 1.06020 0.50155 0.92070
 H230 H 0.99863 0.51674 0.91428
 H231 H 0.96416 0.58363 0.96904
 C232 C 0.57144 0.09310 0.46253
 C233 C 0.55770 0.09044 0.43465
 C234 C 0.56010 0.06498 0.41799
 C235 C 0.57650 0.04207 0.42873
 C236 C 0.59042 0.04463 0.45614
 C237 C 0.58772 0.07045 0.47340
 C238 C 0.57030 0.11421 0.48444
 N239 N 0.58535 0.10517 0.50849
 C240 C 0.59628 0.07847 0.50204
 C241 C 0.60375 0.01830 0.46085
 N242 N 0.59801 0.00012 0.43702
 C243 C 0.58124 0.01457 0.41740
 C244 C 0.54268 0.06726 0.39318
 N245 N 0.52987 0.09359 0.39434
 C246 C 0.53892 0.10803 0.41961
 H247 H 0.55832 0.13423 0.48342
 H248 H 0.60829 0.06527 0.51741
 H249 H 0.61634 0.01268 0.48031
 H250 H 0.57294 0.00588 0.39633
 H251 H 0.53884 0.05059 0.37598
 H252 H 0.53142 0.12909 0.42715
 C253 C -0.03866 0.04303 0.55149
 C254 C -0.04134 0.01895 0.57132
 C255 C -0.06224 -0.00436 0.56636
 C256 C -0.08065 -0.00396 0.54135
 C257 C -0.07789 0.01973 0.52148
 C258 C -0.05671 0.04359 0.52667
 C259 C -0.02015 0.06851 0.55110
 N260 N -0.02643 0.08478 0.52671
 C261 C -0.04872 0.06973 0.51152
 C262 C -0.09828 0.01361 0.49913
 N263 N -0.11321 -0.01305 0.50519
 C264 C -0.10260 -0.02386 0.53094
 C265 C -0.05920 -0.02501 0.58862
 N266 N -0.03681 -0.01470 0.60680
 C267 C -0.02582 0.01219 0.59644
 H268 H -0.00334 0.07464 0.56751
 H269 H -0.05840 0.07727 0.49106
 H270 H -0.10203 0.02757 0.48003
 H271 H -0.11022 -0.04482 0.54125
 H272 H -0.07177 -0.04626 0.59086
 H273 H -0.00741 0.02553 0.60611
 C274 C 0.47349 0.54186 0.03816
 C275 C 0.47765 0.51285 0.04772
 C276 C 0.45495 0.49067 0.04475
 C277 C 0.42756 0.49742 0.03243
 C278 C 0.42358 0.52614 0.02306
 C279 C 0.44678 0.54834 0.02552
 C280 C 0.49149 0.56782 0.03861
 N281 N 0.47648 0.58971 0.02589
 C282 C 0.44909 0.57796 0.01790
 C283 C 0.39444 0.52707 0.01439
 N284 N 0.38057 0.49963 0.01818
 C285 C 0.40063 0.48119 0.02887
 C286 C 0.46496 0.46518 0.05707
 N287 N 0.49307 0.47153 0.06735
 C288 C 0.50095 0.50059 0.06172
 H289 H 0.51410 0.57025 0.04683
 H290 H 0.43208 0.59007 0.00725
 H291 H 0.38385 0.54651 0.00676
 H292 H 0.39557 0.45815 0.03502
 H293 H 0.45236 0.44394 0.05924
 H294 H 0.52187 0.51213 0.06805
 C295 C 0.54545 -0.06133 0.04510
 C296 C 0.53030 -0.05246 0.07092
 C297 C 0.54337 -0.03062 0.08924
 C298 C 0.57192 -0.01757 0.08215
 C299 C 0.58672 -0.02635 0.05668
 C300 C 0.57341 -0.04819 0.03805
 C301 C 0.53825 -0.08165 0.02286
 N302 N 0.56116 -0.08092 0.00263
 C303 C 0.58273 -0.06049 0.01176
 C304 C 0.61345 -0.00969 0.05476
 N305 N 0.61538 0.00897 0.07849
 C306 C 0.59009 0.00438 0.09545
 C307 C 0.52321 -0.02579 0.11193
 N308 N 0.49839 -0.04422 0.10789
 C309 C 0.50253 -0.06067 0.08291
 H310 H 0.51789 -0.09590 0.02147
 H311 H 0.60381 -0.05507 0.00031
 H312 H 0.63016 -0.01077 0.03717
 H313 H 0.58502 0.01644 0.11559
 H314 H 0.52623 -0.00984 0.12990
 H315 H 0.48633 -0.07694 0.07373
 C316 C 1.02658 0.45370 0.55012
 C317 C 1.03020 0.47424 0.57353
 C318 C 1.05118 0.49813 0.57096
 C319 C 1.06887 0.50178 0.54485
 C320 C 1.06491 0.48166 0.52164
 C321 C 1.04391 0.45729 0.52440
 C322 C 1.00725 0.42906 0.54608
 N323 N 1.01268 0.41744 0.51868
 C324 C 1.03509 0.43451 0.50525
 C325 C 1.08321 0.49175 0.49839
 N326 N 1.09857 0.51733 0.50695
 C327 C 1.09011 0.52352 0.53545
 C328 C 1.04795 0.51562 0.59588
 N329 N 1.02553 0.50291 0.61338
 C330 C 1.01474 0.47749 0.59999
 H331 H 0.99056 0.42022 0.56202
 H332 H 1.04400 0.43083 0.48304
 H333 H 1.08502 0.48113 0.47681
 H334 H 1.09809 0.54289 0.54806
 H335 H 1.06015 0.53667 0.60022
 H336 H 0.99596 0.46324 0.60814
 C337 C 0.42681 0.02843 0.21365
 H338 H 0.43694 0.04990 0.22010
 C339 C 0.44051 0.01172 0.19176
 H340 H 0.46126 0.02052 0.18148
 C341 C 0.38715 -0.00877 0.21896
 H342 H 0.36616 -0.01645 0.22942
 C343 C 0.40002 -0.02616 0.19712
 H344 H 0.38877 -0.04732 0.19141
 N345 N 0.40062 0.01799 0.22671
 C346 C 0.34819 0.09272 0.25098
 H347 H 0.34874 0.09223 0.27516
 C348 C 0.33285 0.11441 0.23654
 H349 H 0.32167 0.13053 0.24977
 C350 C 0.36195 0.07222 0.20447
 H351 H 0.37307 0.05558 0.19202
 C352 C 0.34713 0.09371 0.18911
 H353 H 0.34695 0.09308 0.16494
 Zn354 Zn 0.38235 0.04210 0.25522
 N355 N 0.36221 0.07202 0.23489
 C356 C 0.41692 0.09064 0.28067
 N357 N 0.41247 0.06048 0.27979
 C358 C 0.42944 0.04296 0.29634
 C359 C 0.45071 0.05564 0.31585
 C360 C 0.43781 0.10426 0.30001
 C361 C 0.32584 0.02591 0.28151
 C362 C 0.30507 0.00978 0.29957
 C363 C 0.34271 -0.02381 0.31168
 C364 C 0.36311 -0.00655 0.29373
 N365 N 0.35451 0.01808 0.27932
 H366 H 0.40432 0.10433 0.26646
 H367 H 0.42644 0.01909 0.29454
 H368 H 0.46356 0.04126 0.32926
 H369 H 0.44063 0.12827 0.30049
 H370 H 0.31870 0.04453 0.26907
 H371 H 0.28238 0.01651 0.30054
 H372 H 0.34975 -0.04345 0.32280
 H373 H 0.38561 -0.01324 0.29089
 C374 C 0.33223 0.11514 0.20521
 C375 C 0.42701 -0.01587 0.18305
 C376 C 0.31342 -0.01530 0.31517
 C377 C 0.45465 0.08668 0.31831
 C378 C 0.06480 -0.06052 0.71836
 H379 H 0.07203 -0.07974 0.73003
 C380 C 0.03924 -0.06319 0.70094
 H381 H 0.02718 -0.08469 0.69917
 C382 C 0.07246 -0.00933 0.70639
 H383 H 0.08534 0.01164 0.70878
 C384 C 0.04712 -0.01106 0.68847
 H385 H 0.04080 0.00869 0.67703
 N386 N 0.08098 -0.03401 0.72054
 C387 C 0.16995 -0.06168 0.73983
 H388 H 0.17440 -0.05249 0.76179
 C389 C 0.19042 -0.07960 0.72616
 H390 H 0.21062 -0.08426 0.73775
 C391 C 0.13819 -0.06690 0.69800
 H392 H 0.11793 -0.06184 0.68691
 C393 C 0.15807 -0.08455 0.68346
 H394 H 0.15226 -0.09324 0.66162
 Zn395 Zn 0.11519 -0.03380 0.74476
 N396 N 0.14407 -0.05634 0.72591
 C397 C 0.11384 -0.07479 0.79430
 N398 N 0.10181 -0.05099 0.78160
 C399 C 0.07811 -0.03847 0.79442
 C400 C 0.06622 -0.04907 0.82159
 C401 C 0.10255 -0.08621 0.82161
 C402 C 0.14351 0.02208 0.72771
 C403 C 0.15406 0.05171 0.73211
 C404 C 0.14093 0.04626 0.78448
 C405 C 0.13116 0.01681 0.77921
 N406 N 0.13170 0.00553 0.75105
 H407 H 0.13211 -0.08500 0.78337
 H408 H 0.06862 -0.01992 0.78355
 H409 H 0.04754 -0.03845 0.83148
 H410 H 0.11264 -0.10493 0.83147
 H411 H 0.14419 0.01243 0.70559
 H412 H 0.16280 0.06492 0.71330
 H413 H 0.13987 0.05482 0.80705
 H414 H 0.12284 0.00317 0.79773
 C415 C 0.18445 -0.09140 0.69766
 C416 C 0.03020 -0.03826 0.68555
 C417 C 0.15202 0.06425 0.76068
 C418 C 0.07852 -0.07312 0.83567
 C419 C 0.59166 0.42532 0.17956
 H420 H 0.59212 0.41000 0.19815
 C421 C 0.57142 0.41957 0.15646
 H422 H 0.55674 0.39954 0.15745
 C423 C 0.60825 0.47150 0.15760
 H424 H 0.62153 0.49235 0.15888
 C425 C 0.58814 0.46678 0.13424
 H426 H 0.58671 0.48386 0.11738
 N427 N 0.60911 0.45119 0.18001
 C428 C 0.66737 0.43900 0.25630
 H429 H 0.66155 0.45792 0.26948
 C430 C 0.68968 0.42133 0.26609
 H431 H 0.70069 0.42682 0.28692
 C432 C 0.66123 0.41042 0.21211
 H433 H 0.65071 0.40685 0.19069
 C434 C 0.68371 0.39237 0.22089
 H435 H 0.68995 0.37464 0.20626
 Zn436 Zn 0.62789 0.46191 0.21636
 N437 N 0.65369 0.43335 0.22975
 C438 C 0.59221 0.45112 0.26937
 N439 N 0.59646 0.46718 0.24376
 C440 C 0.57716 0.48760 0.23559
 C441 C 0.55268 0.49305 0.25375
 C442 C 0.56793 0.45586 0.28826
 C443 C 0.67437 0.49914 0.19196
 C444 C 0.69503 0.52372 0.19092
 C445 C 0.66867 0.54512 0.23221
 C446 C 0.64837 0.52028 0.23228
 N447 N 0.65171 0.49782 0.21251
 H448 H 0.60741 0.43450 0.27508
 H449 H 0.58093 0.49973 0.21484
 H450 H 0.53783 0.50948 0.24664
 H451 H 0.56488 0.44293 0.30863
 H452 H 0.67689 0.48061 0.17701
 H453 H 0.71338 0.52380 0.17499
 H454 H 0.66617 0.56239 0.24868
 H455 H 0.63079 0.51840 0.24906
 C456 C 0.69845 0.39792 0.24805
 C457 C 0.56879 0.44096 0.13395
 C458 C 0.69259 0.54687 0.21164
 C459 C 0.54783 0.47711 0.28056
 C460 C 0.91111 0.53263 0.71712
 H461 H 0.89513 0.54937 0.71915
 C462 C 0.93590 0.53798 0.69827
 H463 H 0.93835 0.55846 0.68551
 C464 C 0.92835 0.48652 0.73217
 H465 H 0.92618 0.46720 0.74656
 C466 C 0.95302 0.49053 0.71267
 H467 H 0.96926 0.47386 0.71151
 N468 N 0.90736 0.50699 0.73330
 C469 C 0.83835 0.55436 0.76241
 H470 H 0.84674 0.55745 0.78479
 C471 C 0.82064 0.57551 0.75008
 H472 H 0.81528 0.59463 0.76322
 C473 C 0.83595 0.52652 0.71746
 H474 H 0.84231 0.50746 0.70482
 C475 C 0.81888 0.54744 0.70407
 H476 H 0.81180 0.54414 0.68120
 Zn477 Zn 0.87279 0.50293 0.75919
 N478 N 0.84590 0.53064 0.74585
 C479 C 0.91480 0.51612 0.80479
 N480 N 0.88506 0.51137 0.79939
 C481 C 0.86457 0.51302 0.82199
 C482 C 0.87371 0.52025 0.85108
 C483 C 0.92490 0.52295 0.83355
 C484 C 0.86333 0.44142 0.74165
 C485 C 0.84868 0.41304 0.74265
 C486 C 0.80942 0.43274 0.77240
 C487 C 0.82524 0.46059 0.77153
 N488 N 0.85217 0.46431 0.75706
 H489 H 0.93090 0.51488 0.78676
 H490 H 0.84104 0.50938 0.81742
 H491 H 0.85698 0.52166 0.86858
 H492 H 0.94867 0.52686 0.83718
 H493 H 0.88371 0.44479 0.72876
 H494 H 0.85850 0.39485 0.73122
 H495 H 0.78851 0.42999 0.78482
 H496 H 0.81606 0.47924 0.78262
 C497 C 0.81140 0.57251 0.72032
 C498 C 0.95695 0.51661 0.69560
 C499 C 0.82165 0.40839 0.75863
 C500 C 0.90429 0.52547 0.85710
 C501 C 0.16062 0.40160 -0.03956
 H502 H 0.15184 0.38821 -0.02102
 C503 C 0.14530 0.42599 -0.04876
 H504 H 0.12479 0.43088 -0.03732
 C505 C 0.19988 0.41437 -0.07420
 H506 H 0.22182 0.41049 -0.08307
 C507 C 0.18556 0.43905 -0.08376
 H508 H 0.19651 0.45390 -0.10019
 N509 N 0.18782 0.39678 -0.05181
 C510 C 0.21660 0.34733 0.02263
 H511 H 0.23903 0.35775 0.02225
 C512 C 0.20601 0.33211 0.04822
 H513 H 0.22031 0.33118 0.06746
 C514 C 0.17101 0.33529 -0.00212
 H515 H 0.15773 0.33612 -0.02206
 C516 C 0.15916 0.32054 0.02343
 H517 H 0.13669 0.31014 0.02305
 Zn518 Zn 0.21521 0.37152 -0.03482
 N519 N 0.19895 0.34911 -0.00172
 C520 C 0.23777 0.41888 -0.00109
 N521 N 0.24647 0.39828 -0.02099
 C522 C 0.27516 0.39888 -0.03144
 C523 C 0.29637 0.42076 -0.02167
 C524 C 0.25805 0.44149 0.00871
 C525 C 0.21746 0.34431 -0.09180
 C526 C 0.23079 0.32873 -0.11478
 C527 C 0.26878 0.31562 -0.08031
 C528 C 0.25418 0.33065 -0.05775
 N529 N 0.22988 0.34582 -0.06420
 H530 H 0.21477 0.41810 0.00660
 H531 H 0.28159 0.38309 -0.04800
 H532 H 0.31901 0.42128 -0.03049
 H533 H 0.25056 0.45791 0.02422
 H534 H 0.19766 0.35585 -0.09626
 H535 H 0.22118 0.32841 -0.13688
 H536 H 0.28888 0.30474 -0.07520
 H537 H 0.26319 0.33162 -0.03543
 C538 C 0.17677 0.31905 0.04904
 C539 C 0.15859 0.44578 -0.07006
 C540 C 0.25736 0.31516 -0.10936
 C541 C 0.28769 0.44270 -0.00183
 C542 C 0.73509 0.07558 0.01265
 H543 H 0.74199 0.06621 -0.00839
 C544 C 0.71346 0.06016 0.03056
 H545 H 0.70393 0.03872 0.02322
 C546 C 0.73814 0.11559 0.04704
 H547 H 0.74722 0.13755 0.05303
 C548 C 0.71677 0.10085 0.06572
 H549 H 0.70984 0.11181 0.08589
 N550 N 0.74633 0.10312 0.02076
 C551 C 0.76167 0.15601 -0.05997
 H552 H 0.78511 0.16300 -0.05797
 C553 C 0.74476 0.16855 -0.08198
 H554 H 0.75548 0.18484 -0.09716
 C555 C 0.71886 0.12796 -0.04114
 H556 H 0.70856 0.11302 -0.02455
 C557 C 0.70114 0.13983 -0.06291
 H558 H 0.67747 0.13348 -0.06273
 Zn559 Zn 0.77122 0.12587 -0.00640
 N560 N 0.74846 0.13655 -0.03972
 C561 C 0.80863 0.10055 -0.04916
 N562 N 0.80342 0.10358 -0.01931
 C563 C 0.82029 0.09015 0.00111
 C564 C 0.84403 0.07367 -0.00832
 C565 C 0.83233 0.08483 -0.05948
 C566 C 0.76965 0.18621 0.00651
 C567 C 0.77611 0.21283 0.02144
 C568 C 0.81334 0.18908 0.04963
 C569 C 0.80648 0.16284 0.03370
 N570 N 0.78480 0.16184 0.01266
 H571 H 0.79442 0.11018 -0.06521
 H572 H 0.81517 0.09200 0.02470
 H573 H 0.85742 0.06324 0.00812
 H574 H 0.83601 0.08286 -0.08335
 H575 H 0.75146 0.18484 -0.00906
 H576 H 0.76293 0.23142 0.01665
 H577 H 0.83006 0.18938 0.06690
 H578 H 0.81778 0.14311 0.03883
 C579 C 0.71396 0.16100 -0.08322
 C580 C 0.70360 0.07306 0.05718
 C581 C 0.79791 0.21442 0.04362
 C582 C 0.85054 0.07139 -0.03897
 C583 C 0.22196 0.60816 0.50568
 H584 H 0.23524 0.60906 0.52564
 C585 C 0.19430 0.59175 0.50598
 H586 H 0.18683 0.57984 0.52606
 C587 C 0.21578 0.62145 0.45505
 H588 H 0.22409 0.63263 0.43503
 C589 C 0.18824 0.60512 0.45430
 H590 H 0.17583 0.60421 0.43369
 N591 N 0.23286 0.62138 0.47997
 C592 C 0.28522 0.68707 0.44253
 H593 H 0.28721 0.69730 0.46433
 C594 C 0.28516 0.70503 0.41697
 H595 H 0.28740 0.72896 0.41939
 C596 C 0.27794 0.64368 0.41307
 H597 H 0.27373 0.61982 0.41172
 C598 C 0.27802 0.66074 0.38696
 H599 H 0.27430 0.64943 0.36591
 Zn600 Zn 0.27441 0.63406 0.47605
 N601 N 0.28097 0.65698 0.44026
 C602 C 0.31431 0.59093 0.45356
 N603 N 0.29613 0.59924 0.47623
 C604 C 0.29325 0.58314 0.50197
 C605 C 0.30791 0.55718 0.50538
 C606 C 0.32954 0.56496 0.45605
 C607 C 0.27030 0.66843 0.52988
 C608 C 0.28240 0.68166 0.55573
 C609 C 0.33155 0.67012 0.53847
 C610 C 0.31864 0.65773 0.51278
 N611 N 0.28852 0.65648 0.50927
 H612 H 0.31744 0.60450 0.43373
 H613 H 0.28001 0.59080 0.52031
 H614 H 0.30514 0.54520 0.52628
 H615 H 0.34386 0.55861 0.43780
 H616 H 0.24643 0.66722 0.52655
 H617 H 0.26768 0.69071 0.57225
 H618 H 0.35552 0.67038 0.54104
 H619 H 0.33259 0.64810 0.49598
 C620 C 0.28088 0.69195 0.38873
 C621 C 0.17792 0.58883 0.47956
 C622 C 0.31330 0.68189 0.56054
 C623 C 0.32623 0.54759 0.48217
 C624 C 0.68887 0.90312 0.48892
 H625 H 0.70387 0.91061 0.50652
 C626 C 0.66862 0.92227 0.47754
 H627 H 0.66810 0.94450 0.48658
 C628 C 0.67218 0.86536 0.45507
 H629 H 0.67400 0.84341 0.44593
 C630 C 0.65165 0.88376 0.44302
 H631 H 0.63762 0.87525 0.42509
 N632 N 0.69025 0.87524 0.47764
 C633 C 0.72996 0.82270 0.54671
 H634 H 0.74877 0.81444 0.53471
 C635 C 0.72334 0.81312 0.57597
 H636 H 0.73732 0.79759 0.58651
 C637 C 0.68823 0.85216 0.54716
 H638 H 0.67402 0.86667 0.53566
 C639 C 0.68102 0.84344 0.57643
 H640 H 0.66131 0.85157 0.58692
 Zn641 Zn 0.72025 0.85179 0.49231
 N642 N 0.71240 0.84185 0.53294
 C643 C 0.77397 0.88319 0.51131
 N644 N 0.75654 0.87531 0.48758
 C645 C 0.76246 0.88709 0.45995
 C646 C 0.78627 0.90827 0.45545
 C647 C 0.79813 0.90425 0.50778
 C648 C 0.69650 0.79623 0.47322
 C649 C 0.69476 0.76989 0.45675
 C650 C 0.74358 0.78385 0.43568
 C651 C 0.74435 0.80997 0.45252
 N652 N 0.72074 0.81590 0.47039
 H653 H 0.76853 0.87402 0.53320
 H654 H 0.74792 0.88076 0.44158
 H655 H 0.79012 0.91757 0.43333
 H656 H 0.81132 0.91082 0.52707
 H657 H 0.67823 0.80131 0.48796
 H658 H 0.67502 0.75489 0.45918
 H659 H 0.76237 0.77977 0.42116
 H660 H 0.76367 0.82560 0.45101
 C661 C 0.69858 0.82352 0.59118
 C662 C 0.64991 0.91279 0.45404
 C663 C 0.71837 0.76360 0.43731
 C664 C 0.80412 0.91758 0.47971
 C665 C 0.01990 0.22322 0.45137
 H666 H 0.03362 0.24376 0.45371
 C667 C 0.01863 0.20230 0.47435
 H668 H 0.03145 0.20733 0.49420
 C669 C -0.01364 0.19265 0.42247
 H670 H -0.02641 0.18912 0.40233
 C671 C -0.01555 0.17097 0.44500
 H672 H -0.02964 0.15078 0.44183
 N673 N 0.00435 0.21794 0.42585
 C674 C 0.05409 0.26514 0.35377
 H675 H 0.03756 0.27906 0.34496
 C676 C 0.08121 0.26270 0.33830
 H677 H 0.08563 0.27510 0.31778
 C678 C 0.06790 0.23083 0.39036
 H679 H 0.06242 0.21755 0.40999
 C680 C 0.09534 0.22818 0.37600
 H681 H 0.11047 0.21293 0.38510
 Zn682 Zn 0.00892 0.24855 0.39670
 N683 N 0.04784 0.24906 0.37916
 C684 C 0.02381 0.30688 0.41997
 N685 N 0.00242 0.28419 0.41728
 C686 C -0.02399 0.28431 0.43247
 C687 C -0.02962 0.30754 0.45179
 C688 C 0.01915 0.33063 0.43928
 C689 C -0.01598 0.21783 0.34802
 C690 C -0.03419 0.21286 0.32324
 C691 C -0.05830 0.25773 0.33514
 C692 C -0.03957 0.26186 0.35971
 N693 N -0.01888 0.24203 0.36561
 H694 H 0.04487 0.30601 0.40806
 H695 H -0.04039 0.26573 0.43025
 H696 H -0.05074 0.30662 0.46375
 H697 H 0.03669 0.34812 0.44186
 H698 H 0.00096 0.20266 0.35297
 H699 H -0.03123 0.19348 0.30962
 H700 H -0.07424 0.27404 0.33045
 H701 H -0.04110 0.28133 0.37353
 C702 C 0.10220 0.24396 0.34942
 C703 C 0.00099 0.17552 0.47125
 C704 C -0.05542 0.23323 0.31626
 C705 C -0.00763 0.33084 0.45600
 C706 C -0.00101 0.70832 0.12000
 H707 H -0.02488 0.70976 0.12248
 C708 C 0.01028 0.68779 0.09993
 H709 H -0.00503 0.67312 0.08739
 C710 C 0.04804 0.72639 0.13240
 H711 H 0.06286 0.74203 0.14419
 C712 C 0.06016 0.70650 0.11274
 H713 H 0.08418 0.70742 0.11027
 N714 N 0.01799 0.72696 0.13589
 C715 C -0.02349 0.76426 0.21446
 H716 H -0.01263 0.78627 0.21175
 C717 C -0.04071 0.75763 0.23993
 H718 H -0.04316 0.77483 0.25647
 C719 C -0.03411 0.71570 0.19537
 H720 H -0.03126 0.69949 0.17797
 C721 C -0.05227 0.70828 0.22040
 H722 H -0.06359 0.68633 0.22209
 Zn723 Zn 0.00426 0.75748 0.16068
 N724 N -0.02048 0.74349 0.19282
 C725 C -0.04434 0.79121 0.14538
 N726 N -0.01666 0.78353 0.13694
 C727 C -0.00279 0.79518 0.11197
 C728 C -0.01620 0.81652 0.09512
 C729 C -0.05852 0.81258 0.12924
 C730 C 0.05265 0.76452 0.19967
 C731 C 0.07342 0.78031 0.21766
 C732 C 0.06193 0.82541 0.19236
 C733 C 0.04156 0.80878 0.17476
 N734 N 0.03693 0.77896 0.17903
 H735 H -0.05523 0.78130 0.16501
 H736 H 0.01913 0.78849 0.10568
 H737 H -0.00442 0.82613 0.07574
 H738 H -0.08028 0.81869 0.13671
 H739 H 0.04810 0.74087 0.20301
 H740 H 0.08504 0.76864 0.23463
 H741 H 0.06479 0.84918 0.18890
 H742 H 0.02850 0.81999 0.15872
 C743 C -0.05551 0.72942 0.24308
 C744 C 0.04133 0.68667 0.09617
 C745 C 0.07755 0.81127 0.21470
 C746 C -0.04413 0.82596 0.10407
 C747 C 0.52313 0.21240 0.58034
 H748 H 0.50578 0.22244 0.56809
 C749 C 0.53819 0.18961 0.56740
 H750 H 0.53219 0.18228 0.54509
 C751 C 0.55163 0.20999 0.62441
 H752 H 0.55666 0.21814 0.64664
 C753 C 0.56726 0.18684 0.61229
 H754 H 0.58437 0.17742 0.62539
 N755 N 0.52989 0.22204 0.60836
 C756 C 0.44648 0.25491 0.64219
 H757 H 0.45232 0.27832 0.64560
 C758 C 0.41795 0.24285 0.65034
 H759 H 0.40182 0.25717 0.65971
 C760 C 0.46063 0.20754 0.62696
 H761 H 0.47743 0.19354 0.61861
 C762 C 0.43225 0.19471 0.63425
 H763 H 0.42773 0.17103 0.63128
 Zn764 Zn 0.50720 0.25304 0.62265
 N765 N 0.46731 0.23715 0.63102
 C766 C 0.48287 0.29350 0.58131
 N767 N 0.50792 0.28178 0.59168
 C768 C 0.53503 0.28841 0.57846
 C769 C 0.53779 0.30729 0.55379
 C770 C 0.48466 0.31276 0.55669
 C771 C 0.50845 0.26817 0.68377
 C772 C 0.51942 0.28179 0.70970
 C773 C 0.56375 0.29951 0.68220
 C774 C 0.55174 0.28573 0.65658
 N775 N 0.52440 0.27059 0.65772
 H776 H 0.46141 0.28755 0.59164
 H777 H 0.55448 0.27813 0.58642
 H778 H 0.55966 0.31200 0.54373
 H779 H 0.46450 0.32162 0.54842
 H780 H 0.48728 0.25533 0.68472
 H781 H 0.50625 0.27885 0.73002
 H782 H 0.58564 0.31119 0.68095
 H783 H 0.56439 0.28710 0.63588
 C784 C 0.41057 0.21238 0.64635
 C785 C 0.56046 0.17634 0.58338
 C786 C 0.54742 0.29784 0.70919
 C787 C 0.51233 0.31944 0.54234
 C788 C 0.50324 0.73233 0.95786
 H789 H 0.51883 0.75169 0.95726
 C790 C 0.50440 0.71207 0.98128
 H791 H 0.52035 0.71670 0.99887
 C792 C 0.46516 0.70199 0.93443
 H793 H 0.45092 0.69765 0.91538
 C794 C 0.46562 0.68103 0.95747
 H795 H 0.45131 0.66075 0.95614
 N796 N 0.48447 0.72658 0.93463
 C797 C 0.53034 0.74066 0.84895
 H798 H 0.52299 0.76158 0.84098
 C799 C 0.55254 0.72668 0.83312
 H800 H 0.56188 0.73683 0.81281
 C801 C 0.52814 0.70269 0.88566
 H802 H 0.51918 0.69346 0.90643
 C803 C 0.55003 0.68793 0.87051
 H804 H 0.55728 0.66768 0.88011
 Zn805 Zn 0.49174 0.74929 0.89942
 N806 N 0.51894 0.72879 0.87504
 C807 C 0.53813 0.79553 0.90183
 N808 N 0.50975 0.78696 0.91088
 C809 C 0.49462 0.80388 0.93029
 C810 C 0.50809 0.83030 0.94157
 C811 C 0.55231 0.82192 0.91230
 C812 C 0.43206 0.76402 0.89564
 C813 C 0.40578 0.77101 0.88170
 C814 C 0.42690 0.75650 0.83446
 C815 C 0.45283 0.74978 0.84935
 N816 N 0.45529 0.75442 0.87932
 H817 H 0.55034 0.78151 0.88729
 H818 H 0.47248 0.79638 0.93796
 H819 H 0.49589 0.84313 0.95746
 H820 H 0.57513 0.82775 0.90529
 H821 H 0.43397 0.76649 0.91957
 H822 H 0.38792 0.77896 0.89531
 H823 H 0.42573 0.75347 0.81047
 H824 H 0.47115 0.74149 0.83673
 C825 C 0.56290 0.70011 0.84409
 C826 C 0.48636 0.68539 0.98060
 C827 C 0.40321 0.76797 0.85053
 C828 C 0.53735 0.83954 0.93270
 C829 C 0.16105 0.23509 0.29767
 C830 C 0.17559 0.22676 0.32299
 C831 C 0.15579 0.22985 0.34587
 C832 C 0.13049 0.23977 0.33291
 O833 O 0.13375 0.24323 0.30353
 H834 H 0.19785 0.21916 0.32465
 H835 H 0.15942 0.22517 0.36922
 C836 C 0.62449 0.68109 0.80013
 C837 C 0.62172 0.65535 0.81687
 C838 C 0.59786 0.65862 0.83544
 C839 C 0.58785 0.68618 0.82868
 O840 O 0.60403 0.69976 0.80710
 H841 H 0.63532 0.63648 0.81574
 H842 H 0.58904 0.64262 0.85187
 C843 C 0.34790 0.78612 0.79949
 C844 C 0.33610 0.79961 0.82417
 C845 C 0.35477 0.79403 0.84696
 C846 C 0.37671 0.77757 0.83451
 O847 O 0.37246 0.77274 0.80558
 H848 H 0.31642 0.81214 0.82544
 H849 H 0.35278 0.80181 0.86971
 C850 C -0.10409 0.23951 0.25567
 C851 C -0.08763 0.21748 0.24371
 C852 C -0.06780 0.21137 0.26522
 C853 C -0.07342 0.23016 0.28874
 O854 O -0.09559 0.24720 0.28297
 H855 H -0.08944 0.20724 0.22190
 H856 H -0.05068 0.19571 0.26329
 C857 C -0.11422 0.70802 0.29285
 C858 C -0.09883 0.72757 0.31181
 C859 C -0.07380 0.73728 0.29614
 C860 C -0.07581 0.72296 0.26884
 O861 O -0.10019 0.70495 0.26695
 H862 H -0.10525 0.73456 0.33397
 H863 H -0.05654 0.75345 0.30353
 C864 C 0.34004 0.19261 0.67908
 C865 C 0.34067 0.16884 0.65968
 C866 C 0.36726 0.17304 0.64460
 C867 C 0.38080 0.19912 0.65575
 O868 O 0.36424 0.21104 0.67665
 H869 H 0.32407 0.15054 0.65690
 H870 H 0.37561 0.15884 0.62738
 C871 C 0.59323 0.31996 0.76950
 C872 C 0.56638 0.31748 0.78499
 C873 C 0.54522 0.31186 0.76399
 C874 C 0.56067 0.31029 0.73711
 O875 O 0.58989 0.31590 0.74038
 H876 H 0.56288 0.31806 0.80898
 H877 H 0.52157 0.30749 0.76834
 C878 C 0.12852 0.83952 0.26860
 C879 C 0.11493 0.86552 0.26323
 C880 C 0.09427 0.85849 0.24200
 C881 C 0.09669 0.82872 0.23592
 O882 O 0.11746 0.81708 0.25220
 H883 H 0.11949 0.88710 0.27332
 H884 H 0.07894 0.87334 0.23257
 C885 C 0.28529 0.17040 0.18273
 C886 C 0.29887 0.16653 0.15528
 C887 C 0.31858 0.14536 0.15990
 C888 C 0.31558 0.13785 0.18984
 O889 O 0.29540 0.15317 0.20373
 H890 H 0.29482 0.17754 0.13438
 H891 H 0.33338 0.13663 0.14330
 C892 C 0.76787 0.63138 0.70072
 C893 C 0.78005 0.62700 0.67274
 C894 C 0.79766 0.60380 0.67619
 C895 C 0.79507 0.59600 0.70607
 O896 O 0.77694 0.61275 0.72102
 H897 H 0.77625 0.63895 0.65231
 H898 H 0.81119 0.59409 0.65907
 C899 C 0.77592 0.34345 0.77450
 C900 C 0.80329 0.33140 0.77686
 C901 C 0.82387 0.35378 0.76916
 C902 C 0.80771 0.37802 0.76327
 O903 O 0.77849 0.37180 0.76632
 H904 H 0.80782 0.30912 0.78358
 H905 H 0.84792 0.35299 0.76940
 C906 C 0.26260 -0.06998 0.34621
 C907 C 0.24731 -0.04541 0.35357
 C908 C 0.26579 -0.02160 0.34557
 C909 C 0.29084 -0.03320 0.33320
 O910 O 0.28928 -0.06271 0.33418
 H911 H 0.22474 -0.04496 0.36234
 H912 H 0.26069 0.00148 0.34680
 C913 C 0.23706 -0.14289 0.67838
 C914 C 0.22540 -0.13970 0.65020
 C915 C 0.20469 -0.11930 0.65345
 C916 C 0.20503 -0.11158 0.68336
 O917 O 0.22493 -0.12572 0.69851
 H918 H 0.23104 -0.15084 0.62970
 H919 H 0.19095 -0.11127 0.63591
 C920 C 0.75963 0.35312 0.25140
 C921 C 0.75981 0.36131 0.28108
 C922 C 0.73655 0.37915 0.28424
 C923 C 0.72391 0.38038 0.25623
 O924 O 0.73795 0.36451 0.23636
 H925 H 0.77504 0.35525 0.29824
 H926 H 0.72973 0.38985 0.30460
 C927 C 0.74359 0.60531 0.23301
 C928 C 0.75609 0.60062 0.20521
 C929 C 0.73802 0.57863 0.19269
 C930 C 0.71593 0.57151 0.21387
 O931 O 0.71924 0.58789 0.23829
 H932 H 0.77614 0.61150 0.19542
 H933 H 0.74104 0.56876 0.17093
 C934 C 0.18430 0.13764 0.76415
 C935 C 0.16282 0.13991 0.78636
 C936 C 0.14762 0.11285 0.78746
 C937 C 0.16077 0.09597 0.76590
 O938 O 0.18292 0.11105 0.75141
 H939 H 0.15881 0.15870 0.80049
 H940 H 0.12920 0.10617 0.80241
 C941 C 0.16536 0.28236 0.11805
 C942 C 0.13615 0.28906 0.11416
 C943 C 0.13608 0.30308 0.08701
 C944 C 0.16532 0.30411 0.07672
 O945 O 0.18306 0.29145 0.09554
 H946 H 0.11727 0.28405 0.12906
 H947 H 0.11716 0.31210 0.07636
 C948 C 0.68697 0.78503 0.65941
 C949 C 0.66878 0.80774 0.66562
 C950 C 0.67110 0.82569 0.64110
 C951 C 0.69049 0.81258 0.62166
 O952 O 0.70031 0.78792 0.63290
 H953 H 0.65533 0.81084 0.68548
 H954 H 0.65985 0.84589 0.63793
 C955 C 0.72961 0.70591 0.38615
 C956 C 0.70047 0.69698 0.39360
 C957 C 0.69219 0.71699 0.41450
 C958 C 0.71693 0.73672 0.41812
 O959 O 0.73963 0.72986 0.40089
 H960 H 0.68682 0.67842 0.38472
 H961 H 0.67044 0.71734 0.42515
 C962 C 0.28062 0.27919 -0.17435
 C963 C 0.30875 0.28745 -0.16390
 C964 C 0.30388 0.30177 -0.13758
 C965 C 0.27320 0.30130 -0.13422
 O966 O 0.25905 0.28757 -0.15651
 H967 H 0.33009 0.28282 -0.17374
 H968 H 0.32065 0.31159 -0.12274
 C969 C 0.68236 0.21116 -0.13168
 C970 C 0.65688 0.19274 -0.12711
 C971 C 0.66538 0.17060 -0.10906
 C972 C 0.69542 0.17725 -0.10388
 O973 O 0.70576 0.20184 -0.11783
 H974 H 0.63476 0.19516 -0.13570
 H975 H 0.65108 0.15216 -0.10050
 C976 C 0.26478 0.74732 0.33666
 C977 C 0.26570 0.72429 0.31661
 C978 C 0.27376 0.70068 0.33297
 C979 C 0.27665 0.71092 0.36206
 O980 O 0.27130 0.73942 0.36420
 H981 H 0.26006 0.72446 0.29316
 H982 H 0.27598 0.67844 0.32465
 C983 C 0.33104 0.71894 0.62782
 C984 C 0.35504 0.70147 0.62737
 C985 C 0.35196 0.68527 0.60167
 C986 C 0.32618 0.69401 0.58861
 O987 O 0.31349 0.71445 0.60452
 H988 H 0.37273 0.70085 0.64352
 H989 H 0.36654 0.66877 0.59369
 C990 C 0.80952 0.26726 0.10052
 C991 C 0.79750 0.28585 0.08017
 C992 C 0.79299 0.26901 0.05520
 C993 C 0.80236 0.24129 0.06236
 O994 O 0.81270 0.24035 0.08986
 H995 H 0.79209 0.30865 0.08340
 H996 H 0.78323 0.27601 0.03459
 C997 C 0.50303 0.36788 0.48186
 C998 C 0.53028 0.35834 0.47288
 C999 C 0.53765 0.33904 0.49452
 C1000 C 0.51434 0.33821 0.51513
 O1001 O 0.49321 0.35572 0.50739
 H1002 H 0.54331 0.36464 0.45308
 H1003 H 0.55750 0.32674 0.49478
 C1004 C -0.06125 0.88334 0.05517
 C1005 C -0.08404 0.88715 0.07557
 C1006 C -0.08139 0.86555 0.09660
 C1007 C -0.05715 0.85027 0.08747
 O1008 O -0.04503 0.86109 0.06231
 H1009 H -0.10040 0.90368 0.07544
 H1010 H -0.09513 0.86203 0.11651
 C1011 C 0.05899 0.63468 0.04034
 C1012 C 0.08731 0.64027 0.05175
 C1013 C 0.08422 0.65995 0.07415
 C1014 C 0.05429 0.66547 0.07498
 O1015 O 0.03874 0.64988 0.05447
 H1016 H 0.10797 0.63101 0.04509
 H1017 H 0.10203 0.66879 0.08829
 C1018 C 0.58626 0.12073 0.53647
 C1019 C 0.60215 0.11328 0.56123
 C1020 C 0.59528 0.13354 0.58263
 C1021 C 0.57564 0.15166 0.56920
 O1022 O 0.57032 0.14381 0.54124
 H1023 H 0.61665 0.09524 0.56355
 H1024 H 0.60326 0.13448 0.60534
 C1025 C -0.01192 0.11312 0.51865
 C1026 C 0.00981 0.12798 0.53552
 C1027 C 0.01752 0.15344 0.52019
 C1028 C -0.00008 0.15239 0.49498
 O1029 O -0.01801 0.12776 0.49404
 H1030 H 0.01908 0.12122 0.55645
 H1031 H 0.03430 0.17042 0.52680
 C1032 C 0.48713 0.61819 1.02054
 C1033 C 0.51400 0.63079 1.03071
 C1034 C 0.51657 0.65856 1.01853
 C1035 C 0.49119 0.66082 1.00164
 O1036 O 0.47324 0.63631 1.00304
 H1037 H 0.53011 0.62090 1.04472
 H1038 H 0.53555 0.67451 1.02059
 C1039 C 0.56258 0.90076 0.97651
 C1040 C 0.58507 0.90346 0.95513
 C1041 C 0.57845 0.88115 0.93531
 C1042 C 0.55241 0.86646 0.94608
 O1043 O 0.54270 0.87850 0.97107
 H1044 H 0.60409 0.91953 0.95413
 H1045 H 0.59124 0.87628 0.91546
 C1046 C -0.00254 0.39148 0.50601
 C1047 C -0.02913 0.37841 0.51693
 C1048 C -0.03516 0.35430 0.49920
 C1049 C -0.01171 0.35432 0.47871
 O1050 O 0.00812 0.37706 0.48287
 H1051 H -0.04246 0.38543 0.53563
 H1052 H -0.05418 0.33839 0.50167
 C1053 C 0.37269 0.48789 0.47651
 C1054 C 0.35870 0.47909 0.50298
 C1055 C 0.33899 0.50009 0.50871
 C1056 C 0.34250 0.52025 0.48531
 O1057 O 0.36294 0.51268 0.46567
 H1058 H 0.36235 0.45980 0.51649
 H1059 H 0.32396 0.50038 0.52779
 C1060 C 0.90841 0.02385 -0.05204
 C1061 C 0.91266 0.04090 -0.07765
 C1062 C 0.89154 0.06109 -0.07606
 C1063 C 0.87604 0.05502 -0.04961
 O1064 O 0.88633 0.03247 -0.03487
 H1065 H 0.92885 0.03888 -0.09553
 H1066 H 0.88802 0.07832 -0.09224
 C1067 C 0.63970 0.03070 0.08320
 C1068 C 0.64304 0.04859 0.10806
 C1069 C 0.66817 0.06662 0.10229
 C1070 C 0.67820 0.05835 0.07430
 O1071 O 0.66091 0.03644 0.06284
 H1072 H 0.62880 0.04877 0.12777
 H1073 H 0.67764 0.08391 0.11674
 C1074 C 0.11855 0.53420 0.48983
 C1075 C 0.12313 0.53008 0.45954
 C1076 C 0.14487 0.55118 0.45147
 C1077 C 0.15229 0.56646 0.47739
 O1078 O 0.13626 0.55619 0.50078
 H1079 H 0.11213 0.51376 0.44498
 H1080 H 0.15504 0.55412 0.42949
 C1081 C 0.12116 0.51142 -0.06619
 C1082 C 0.15006 0.52404 -0.06752
 C1083 C 0.16743 0.50104 -0.07250
 C1084 C 0.14803 0.47591 -0.07303
 O1085 O 0.11974 0.48216 -0.06945
 H1086 H 0.15763 0.54713 -0.06447
 H1087 H 0.19161 0.50217 -0.07306
 C1088 C 0.60742 0.97227 0.43336
 C1089 C 0.60003 0.95394 0.40945
 C1090 C 0.61445 0.92886 0.41424
 C1091 C 0.62968 0.93363 0.44067
 O1092 O 0.62537 0.96004 0.45232
 H1093 H 0.58606 0.95817 0.39062
 H1094 H 0.61424 0.90978 0.39962
 C1095 C 0.86342 0.97223 0.48801
 C1096 C 0.85538 0.98061 0.45977
 C1097 C 0.83233 0.96080 0.45227
 C1098 C 0.82801 0.94186 0.47658
 O1099 O 0.84697 0.94888 0.49826
 H1100 H 0.86498 0.99890 0.44633
 H1101 H 0.81988 0.96080 0.43173
 C1102 C 0.34934 0.49216 0.01414
 C1103 C 0.32764 0.51224 0.01688
 C1104 C 0.30139 0.49612 0.01206
 C1105 C 0.30911 0.46749 0.00648
 O1106 O 0.33830 0.46501 0.00777
 H1107 H 0.33059 0.53569 0.02201
 H1108 H 0.27933 0.50441 0.01190
 C1109 C 0.49265 0.47716 0.33716
 C1110 C 0.48192 0.49954 0.32023
 C1111 C 0.50112 0.50279 0.29635
 C1112 C 0.52211 0.48210 0.30058
 O1113 O 0.51687 0.46658 0.32540
 H1114 H 0.46260 0.51200 0.32468
 H1115 H 0.49978 0.51852 0.27824
 C1116 C 0.03858 -0.08527 0.90322
 C1117 C 0.05637 -0.10881 0.90621
 C1118 C 0.07419 -0.10778 0.88113
 C1119 C 0.06581 -0.08368 0.86482
 O1120 O 0.04422 -0.07012 0.87833
 H1121 H 0.05640 -0.12475 0.92430
 H1122 H 0.09110 -0.12290 0.87558
 C1123 C -0.02497 -0.03002 0.63160
 C1124 C -0.03640 -0.05710 0.64256
 C1125 C -0.01752 -0.06390 0.66482
 C1126 C 0.00402 -0.04044 0.66569
 O1127 O -0.00063 -0.01983 0.64557
 H1128 H -0.05588 -0.07041 0.63515
 H1129 H -0.01938 -0.08369 0.67858
 C1130 C 0.51094 0.45210 0.08374
 C1131 C 0.50416 0.42211 0.08804
 C1132 C 0.52575 0.41322 0.10665
 C1133 C 0.54403 0.43852 0.11231
 O1134 O 0.53504 0.46205 0.09824
 H1135 H 0.48552 0.40849 0.07924
 H1136 H 0.52745 0.39106 0.11546
 C1137 C 0.47200 -0.04514 0.12650
 C1138 C 0.44830 -0.06611 0.12428
 C1139 C 0.42817 -0.05836 0.14550
 C1140 C 0.44106 -0.03316 0.15908
 O1141 O 0.46774 -0.02518 0.14748
 H1142 H 0.44585 -0.08470 0.10905
 H1143 H 0.40653 -0.06965 0.14999
 C1144 C 1.01263 0.51562 0.63957
 C1145 C 1.01906 0.54444 0.64905
 C1146 C 0.99940 0.54842 0.67197
 C1147 C 0.98272 0.52169 0.67496
 O1148 O 0.99067 0.50170 0.65530
 H1149 H 1.03517 0.56095 0.63968
 H1150 H 0.99704 0.56859 0.68463
 C1151 C 0.94480 0.54395 0.92235
 C1152 C 0.91768 0.55282 0.93250
 C1153 C 0.89829 0.54626 0.90974
 C1154 C 0.91515 0.53413 0.88730
 O1155 O 0.94340 0.53271 0.89505
 H1156 H 0.91272 0.56304 0.95370
 H1157 H 0.87492 0.55071 0.90932
 C1158 C 0.50832 0.10275 0.37354
 C1159 C 0.49855 0.13099 0.37165
 C1160 C 0.47744 0.12926 0.34991
 C1161 C 0.47590 0.10001 0.34034
 O1162 O 0.49472 0.08400 0.35471
 H1163 H 0.50566 0.15034 0.38467
 H1164 H 0.46427 0.14707 0.34266
   
