data_POSCAR
  _audit_creation_date              2014-09-24
  _audit_creation_method            'ToBaCCo'
  _symmetry_space_group_name_H-M    'P1'
  _symmetry_Int_Tables_number       1
  _symmetry_cell_setting            triclinic
  loop_
  _symmetry_equiv_pos_as_xyz
 x,y,z
_cell_length_a 31.0850
_cell_length_b 30.7209
_cell_length_c 59.9764
_cell_angle_alpha 89.549200
_cell_angle_beta 94.598000
_cell_angle_gamma 91.828800
loop_
  _atom_site_label
  _atom_site_type_symbol
  _atom_site_fract_x
  _atom_site_fract_y
  _atom_site_fract_z
C1 C 0.01426 0.61570 0.99908
 C2 C 0.00133 0.59414 1.01836
 C3 C -0.00573 0.54860 1.01742
 C4 C 0.00443 0.52435 0.99873
 C5 C 0.01862 0.54724 0.98005
 C6 C 0.02244 0.59301 0.97965
 C7 C 0.00277 0.47529 0.99920
 C8 C -0.00020 0.45099 0.97916
 C9 C 0.00327 0.40554 0.97957
 C10 C 0.00583 0.38361 1.00016
 C11 C 0.00706 0.40653 1.02029
 C12 C 0.00662 0.45217 1.01972
 H13 H 0.01458 0.65089 0.99868
 H14 H -0.01701 0.53174 1.03175
 H15 H 0.02925 0.52950 0.96615
 H16 H -0.00385 0.46706 0.96306
 H17 H 0.00670 0.34837 1.00048
 H18 H 0.01091 0.46910 1.03549
 C19 C 0.38073 0.03024 0.49822
 C20 C 0.40556 0.02000 0.51793
 C21 C 0.45004 0.01469 0.51739
 C22 C 0.47067 0.02125 0.49744
 C23 C 0.44511 0.03331 0.47796
 C24 C 0.40013 0.03670 0.47809
 C25 C 0.51809 0.01368 0.49678
 C26 C 0.53497 0.00108 0.47673
 C27 C 0.57881 -0.00854 0.47601
 C28 C 0.60533 -0.00720 0.49617
 C29 C 0.58958 0.00413 0.51664
 C30 C 0.54631 0.01660 0.51640
 H31 H 0.34610 0.03275 0.49859
 H32 H 0.46777 0.00397 0.53258
 H33 H 0.45983 0.04030 0.46255
 H34 H 0.51350 -0.00377 0.46184
 H35 H 0.63960 -0.01158 0.49568
 H36 H 0.53395 0.02658 0.53178
 C37 C 0.04106 0.00773 0.26171
 H38 H 0.04414 0.00786 0.24387
 C39 C 0.07736 0.01608 0.27653
 H40 H 0.10837 0.02271 0.26997
 C41 C -0.00346 0.00031 0.29188
 H42 H -0.03504 -0.00547 0.29782
 C43 C 0.03187 0.00871 0.30725
 H44 H 0.02714 0.00853 0.32494
 N45 N 0.00171 -0.00028 0.26958
 C46 C -0.07689 -0.07495 0.21885
 H47 H -0.10585 -0.05616 0.21770
 C48 C -0.07421 -0.11102 0.20507
 H49 H -0.10116 -0.11950 0.19317
 C50 C -0.00583 -0.08510 0.23503
 H51 H 0.02075 -0.07495 0.24672
 C52 C -0.00174 -0.12136 0.22155
 H53 H 0.02808 -0.13881 0.22305
 Zn54 Zn -0.04692 -0.00936 0.24885
 N55 N -0.04250 -0.06193 0.23294
 C56 C -0.04498 0.03037 0.20642
 N57 N -0.04789 0.03835 0.22852
 C58 C -0.04645 0.07982 0.23645
 C59 C -0.04149 0.11522 0.22193
 C60 C -0.03984 0.06462 0.19142
 C61 C -0.10363 -0.05285 0.27512
 C62 C -0.13718 -0.05854 0.28904
 C63 C -0.15818 0.01515 0.28052
 C64 C -0.12437 0.01928 0.26649
 N65 N -0.09732 -0.01418 0.26453
 H66 H -0.04503 -0.00261 0.20040
 H67 H -0.04752 0.08534 0.25418
 H68 H -0.03915 0.14796 0.22856
 H69 H -0.03709 0.05745 0.17395
 H70 H -0.08172 -0.07897 0.27322
 H71 H -0.14125 -0.08956 0.29742
 H72 H -0.17809 0.04282 0.28272
 H73 H -0.11892 0.04969 0.25786
 C74 C -0.03584 -0.13409 0.20593
 C75 C 0.07295 0.01680 0.29965
 C76 C -0.16430 -0.02389 0.29243
 C77 C -0.03725 0.10766 0.19916
 C78 C 0.02816 0.09014 0.75918
 H79 H 0.02424 0.09499 0.74125
 C80 C 0.02803 0.12586 0.77354
 H81 H 0.02437 0.15830 0.76661
 C82 C 0.03753 0.04196 0.79011
 H83 H 0.04038 0.00927 0.79664
 C84 C 0.03803 0.07658 0.80498
 H85 H 0.04136 0.07002 0.82280
 N86 N 0.03327 0.04923 0.76766
 C87 C 0.08597 -0.03158 0.71763
 H88 H 0.06270 -0.05857 0.71745
 C89 C 0.11950 -0.03193 0.70356
 H90 H 0.12106 -0.05910 0.69232
 C91 C 0.11022 0.03735 0.73191
 H92 H 0.10648 0.06419 0.74305
 C93 C 0.14479 0.03806 0.71832
 H94 H 0.16754 0.06551 0.71935
 Zn95 Zn 0.03267 0.00090 0.74816
 N96 N 0.08122 0.00320 0.73097
 C97 C -0.01563 0.00265 0.70637
 N98 N -0.01887 0.00127 0.72884
 C99 C -0.05812 0.00101 0.73745
 C100 C -0.09612 -0.00009 0.72319
 C101 C -0.05254 0.00113 0.69161
 C102 C 0.07555 -0.05799 0.77644
 C103 C 0.08092 -0.09304 0.79117
 C104 C 0.00618 -0.11465 0.78215
 C105 C 0.00230 -0.07917 0.76744
 N106 N 0.03646 -0.05103 0.76537
 H107 H 0.01555 0.00484 0.69970
 H108 H -0.05989 0.00108 0.75539
 H109 H -0.12717 -0.00137 0.73021
 H110 H -0.04920 0.00166 0.67377
 H111 H 0.10232 -0.03538 0.77429
 H112 H 0.11219 -0.09749 0.80006
 H113 H -0.02187 -0.13554 0.78438
 H114 H -0.02834 -0.07349 0.75827
 C115 C 0.14942 0.00337 0.70359
 C116 C 0.03349 0.11919 0.79677
 C117 C 0.04567 -0.12131 0.79465
 C118 C -0.09339 -0.00097 0.69996
 C119 C -0.00916 -0.33414 0.07821
 C120 C -0.03489 -0.37198 0.07386
 C121 C -0.03164 -0.39586 0.05427
 C122 C -0.00304 -0.38202 0.03826
 C123 C 0.02245 -0.34375 0.04288
 C124 C 0.01955 -0.32046 0.06250
 C125 C -0.01194 -0.30848 0.09884
 N126 N 0.01889 -0.27755 0.10482
 N127 N 0.01612 -0.25321 0.12286
 C128 C -0.01767 -0.25859 0.13571
 N129 N -0.04847 -0.28975 0.12985
 N130 N -0.04560 -0.31430 0.11180
 C131 C -0.02145 -0.22957 0.15504
 C132 C -0.05981 -0.22873 0.16595
 C133 C -0.06422 -0.19857 0.18293
 C134 C -0.03025 -0.16888 0.18946
 C135 C 0.00854 -0.17078 0.17907
 C136 C 0.01288 -0.20069 0.16207
 H137 H -0.05750 -0.38327 0.08563
 H138 H -0.05295 -0.42413 0.05147
 H139 H 0.04640 -0.33239 0.03187
 H140 H 0.04003 -0.29152 0.06532
 H141 H -0.08684 -0.25058 0.16098
 H142 H -0.09436 -0.19814 0.19080
 H143 H 0.03510 -0.14800 0.18348
 H144 H 0.04295 -0.20049 0.15412
 C145 C 0.00764 0.33108 0.08112
 C146 C 0.03597 0.32188 0.06474
 C147 C 0.03667 0.34718 0.04534
 C148 C 0.00921 0.38241 0.04186
 C149 C -0.01785 0.39285 0.05858
 C150 C -0.01874 0.36735 0.07800
 C151 C 0.00425 0.30154 0.10063
 N152 N -0.02567 0.30748 0.11558
 N153 N -0.03034 0.27915 0.13224
 C154 C -0.00530 0.24368 0.13464
 N155 N 0.02492 0.23813 0.11986
 N156 N 0.02958 0.26639 0.10324
 C157 C -0.01201 0.21042 0.15220
 C158 C 0.01150 0.17204 0.15289
 C159 C 0.00358 0.13920 0.16834
 C160 C -0.02792 0.14387 0.18359
 C161 C -0.05060 0.18272 0.18347
 C162 C -0.04285 0.21564 0.16785
 H163 H 0.05699 0.29443 0.06662
 H164 H 0.05835 0.33883 0.03288
 H165 H -0.03947 0.41976 0.05626
 H166 H -0.04082 0.37546 0.09029
 H167 H 0.03567 0.16691 0.14122
 H168 H 0.02215 0.10996 0.16834
 H169 H -0.07509 0.18711 0.19505
 H170 H -0.06146 0.24484 0.16783
 C171 C 0.34223 0.00867 0.57885
 C172 C 0.37800 0.03739 0.57740
 C173 C 0.39941 0.04006 0.55778
 C174 C 0.38480 0.01478 0.53914
 C175 C 0.34930 -0.01416 0.54060
 C176 C 0.32848 -0.01756 0.56037
 C177 C 0.31834 0.00714 0.59919
 N178 N 0.29487 -0.02907 0.60433
 N179 N 0.27184 -0.02981 0.62213
 C180 C 0.27103 0.00574 0.63539
 N181 N 0.29462 0.04192 0.63030
 N182 N 0.31799 0.04252 0.61261
 C183 C 0.24322 0.00564 0.65426
 C184 C 0.22684 0.04465 0.66160
 C185 C 0.19722 0.04408 0.67796
 C186 C 0.18388 0.00452 0.68766
 C187 C 0.20204 -0.03424 0.68101
 C188 C 0.23097 -0.03373 0.66434
 H189 H 0.38937 0.05784 0.59142
 H190 H 0.42666 0.06271 0.55692
 H191 H 0.33764 -0.03401 0.52639
 H192 H 0.30088 -0.03982 0.56099
 H193 H 0.23554 0.07548 0.65402
 H194 H 0.18358 0.07453 0.68235
 H195 H 0.19358 -0.06520 0.68849
 H196 H 0.24357 -0.06424 0.65923
 C197 C -0.32753 -0.00356 0.57674
 C198 C -0.36120 0.02601 0.57505
 C199 C -0.38887 0.02855 0.55546
 C200 C -0.38321 0.00193 0.53685
 C201 C -0.34956 -0.02803 0.53898
 C202 C -0.32240 -0.03073 0.55852
 C203 C -0.29693 -0.00590 0.59698
 N204 N -0.26620 -0.03642 0.59843
 N205 N -0.23711 -0.03771 0.61590
 C206 C -0.23735 -0.00856 0.63276
 N207 N -0.26842 0.02174 0.63152
 N208 N -0.29766 0.02303 0.61398
 C209 C -0.20272 -0.00865 0.65128
 C210 C -0.20236 0.02051 0.66929
 C211 C -0.16757 0.02212 0.68569
 C212 C -0.13242 -0.00504 0.68418
 C213 C -0.13352 -0.03508 0.66664
 C214 C -0.16825 -0.03699 0.65045
 H215 H -0.36595 0.04755 0.58878
 H216 H -0.41331 0.05290 0.55476
 H217 H -0.34478 -0.05096 0.52587
 H218 H -0.29713 -0.05428 0.55923
 H219 H -0.22848 0.04265 0.67048
 H220 H -0.16736 0.04561 0.69907
 H221 H -0.10708 -0.05679 0.66529
 H222 H -0.16742 -0.06007 0.63696
 C223 C 0.04831 -0.33384 0.92133
 C224 C 0.02888 -0.37568 0.91942
 C225 C 0.02195 -0.40061 0.93852
 C226 C 0.03355 -0.38397 0.96016
 C227 C 0.05485 -0.34269 0.96178
 C228 C 0.06217 -0.31819 0.94271
 C229 C 0.05228 -0.30550 0.90142
 N230 N 0.07374 -0.26638 0.90343
 N231 N 0.07500 -0.23935 0.88605
 C232 C 0.05477 -0.25013 0.86586
 N233 N 0.03370 -0.28952 0.86372
 N234 N 0.03249 -0.31665 0.88114
 C235 C 0.05417 -0.21853 0.84701
 C236 C 0.03104 -0.22784 0.82638
 C237 C 0.02870 -0.19666 0.80919
 C238 C 0.04952 -0.15559 0.81227
 C239 C 0.07314 -0.14666 0.83277
 C240 C 0.07551 -0.17770 0.84988
 H241 H 0.01799 -0.38882 0.90316
 H242 H 0.00492 -0.43171 0.93617
 H243 H 0.06671 -0.32917 0.97779
 H244 H 0.07792 -0.28638 0.94484
 H245 H 0.01427 -0.25899 0.82359
 H246 H 0.01059 -0.20468 0.79351
 H247 H 0.08891 -0.11511 0.83588
 H248 H 0.09352 -0.16925 0.86553
 C249 C 0.01717 0.33227 0.91971
 C250 C 0.04475 0.32621 0.93915
 C251 C 0.03997 0.35010 0.95839
 C252 C 0.00760 0.38085 0.95875
 C253 C -0.01962 0.38771 0.93927
 C254 C -0.01503 0.36344 0.91993
 C255 C 0.02185 0.30522 0.89971
 N256 N -0.00723 0.30633 0.88155
 N257 N -0.00363 0.28024 0.86415
 C258 C 0.02926 0.25206 0.86420
 N259 N 0.05850 0.25144 0.88225
 N260 N 0.05489 0.27741 0.89959
 C261 C 0.03220 0.22079 0.84569
 C262 C 0.06451 0.18964 0.84723
 C263 C 0.06552 0.15761 0.83097
 C264 C 0.03444 0.15597 0.81267
 C265 C 0.00319 0.18810 0.81050
 C266 C 0.00195 0.22015 0.82692
 H267 H 0.06997 0.30264 0.93965
 H268 H 0.06193 0.34470 0.97303
 H269 H -0.04485 0.41123 0.93913
 H270 H -0.03678 0.36895 0.90524
 H271 H 0.08855 0.18923 0.86132
 H272 H 0.09036 0.13362 0.83286
 H273 H -0.02123 0.18744 0.79656
 H274 H -0.02325 0.24375 0.82516
 C275 C -0.36172 -0.03140 0.41582
 C276 C -0.39909 -0.00677 0.41542
 C277 C -0.42001 -0.00080 0.43497
 C278 C -0.40354 -0.01866 0.45559
 C279 C -0.36740 -0.04532 0.45545
 C280 C -0.34698 -0.05160 0.43594
 C281 C -0.33647 -0.03426 0.39593
 N282 N -0.30050 -0.05832 0.39687
 N283 N -0.27564 -0.05860 0.37983
 C284 C -0.28554 -0.03481 0.36107
 N285 N -0.32191 -0.01118 0.35993
 N286 N -0.34685 -0.01088 0.37703
 C287 C -0.25589 -0.03327 0.34286
 C288 C -0.26624 -0.01075 0.32273
 C289 C -0.23693 -0.00807 0.30615
 C290 C -0.19663 -0.02776 0.30940
 C291 C -0.18658 -0.05042 0.32950
 C292 C -0.21582 -0.05331 0.34592
 H293 H -0.41149 0.00904 0.40014
 H294 H -0.44729 0.02032 0.43403
 H295 H -0.35481 -0.06207 0.47040
 H296 H -0.31881 -0.07159 0.43684
 H297 H -0.29687 0.00500 0.31982
 H298 H -0.24586 0.00928 0.29078
 H299 H -0.15552 -0.06512 0.33285
 H300 H -0.20650 -0.07063 0.36125
 C301 C 0.31454 0.05108 0.41858
 C302 C 0.35107 0.02524 0.41842
 C303 C 0.37989 0.02204 0.43746
 C304 C 0.37283 0.04458 0.45707
 C305 C 0.33747 0.07197 0.45689
 C306 C 0.30868 0.07522 0.43788
 C307 C 0.28137 0.05075 0.39936
 N308 N 0.24458 0.07315 0.40026
 N309 N 0.21335 0.07046 0.38375
 C310 C 0.21749 0.04524 0.36559
 N311 N 0.25452 0.02327 0.36453
 N312 N 0.28576 0.02594 0.38107
 C313 C 0.18147 0.04009 0.34793
 C314 C 0.18560 0.01403 0.32908
 C315 C 0.15066 0.00711 0.31318
 C316 C 0.11079 0.02592 0.31582
 C317 C 0.10695 0.05274 0.33438
 C318 C 0.14187 0.05982 0.35021
 H319 H 0.35669 0.00631 0.40384
 H320 H 0.40666 0.00040 0.43714
 H321 H 0.33159 0.09028 0.47164
 H322 H 0.28116 0.09577 0.43855
 H323 H 0.21563 -0.00163 0.32677
 H324 H 0.15449 -0.01396 0.29913
 H325 H 0.07683 0.06827 0.33667
 H326 H 0.13753 0.08024 0.36444
   
