data_POSCAR
  _audit_creation_date              2014-09-24
  _audit_creation_method            'ToBaCCo'
  _symmetry_space_group_name_H-M    'P1'
  _symmetry_Int_Tables_number       1
  _symmetry_cell_setting            triclinic
  loop_
  _symmetry_equiv_pos_as_xyz
 x,y,z
_cell_length_a 28.9832
_cell_length_b 29.0199
_cell_length_c 52.6221
_cell_angle_alpha 87.628700
_cell_angle_beta 91.194400
_cell_angle_gamma 120.093000
loop_
  _atom_site_label
  _atom_site_type_symbol
  _atom_site_fract_x
  _atom_site_fract_y
  _atom_site_fract_z
C1 C 0.02125 0.08643 0.53466
 H2 H 0.05841 0.08613 0.53428
 C3 C 0.01696 0.12311 0.54926
 H4 H 0.05082 0.15106 0.56027
 C5 C -0.06770 0.05162 0.52001
 H6 H -0.10009 0.02446 0.50812
 C7 C -0.07366 0.08784 0.53436
 H8 H -0.11084 0.08824 0.53369
 N9 N -0.02070 0.05166 0.52044
 C10 C 0.01554 -0.07393 0.50714
 H11 H 0.01739 -0.07185 0.48658
 C12 C 0.01934 -0.11426 0.52073
 H13 H 0.02460 -0.14311 0.51065
 C14 C 0.00312 -0.04092 0.54537
 H15 H -0.00505 -0.01346 0.55484
 C16 C 0.00671 -0.08064 0.55968
 H17 H 0.00199 -0.08319 0.58015
 Zn18 Zn -0.00749 0.00818 0.49952
 N19 N 0.00719 -0.03855 0.51956
 C20 C 0.09806 0.05514 0.47928
 N21 N 0.05105 0.05510 0.47873
 C22 C 0.04516 0.09207 0.46454
 C23 C 0.08755 0.13122 0.45012
 C24 C 0.14163 0.09379 0.46512
 C25 C -0.11221 -0.07295 0.49178
 C26 C -0.15530 -0.11141 0.47816
 C27 C -0.10583 -0.07161 0.43923
 C28 C -0.06367 -0.03390 0.45361
 N29 N -0.06744 -0.03552 0.47941
 H30 H 0.10224 0.02615 0.49114
 H31 H 0.00760 0.09160 0.46483
 H32 H 0.08265 0.16090 0.43915
 H33 H 0.17923 0.09422 0.46590
 H34 H -0.11360 -0.07401 0.51234
 H35 H -0.19016 -0.14187 0.48832
 H36 H -0.10176 -0.07080 0.41875
 H37 H -0.02723 -0.00483 0.44419
 C38 C 0.01419 -0.11803 0.54721
 C39 C -0.03076 0.12408 0.54899
 C40 C -0.15180 -0.11121 0.45165
 C41 C 0.13632 0.13233 0.45054
 C42 C 1.10137 0.04097 0.13167
 H43 H 1.10117 0.07814 0.13179
 C44 C 1.13906 0.03727 0.11720
 H45 H 1.16789 0.07160 0.10602
 C46 C 1.06517 -0.04870 0.14680
 H47 H 1.03703 -0.08163 0.15881
 C48 C 1.10236 -0.05408 0.13259
 H49 H 1.10253 -0.09136 0.13348
 N50 N 1.06542 -0.00162 0.14605
 C51 C 0.93845 0.03367 0.15851
 H52 H 0.93893 0.03447 0.17906
 C53 C 0.89898 0.03791 0.14472
 H54 H 0.86918 0.04245 0.15463
 C55 C 0.97460 0.02336 0.12054
 H56 H 1.00293 0.01582 0.11127
 C57 C 0.93579 0.02743 0.10603
 H58 H 0.93480 0.02369 0.08560
 Zn59 Zn 1.02026 0.01052 0.16667
 N60 N 0.97496 0.02612 0.14632
 C61 C 1.06527 0.11472 0.18654
 N62 N 1.06551 0.06789 0.18726
 C63 C 1.10149 0.06128 0.20161
 C64 C 1.13920 0.10270 0.21610
 C65 C 1.10248 0.15732 0.20077
 C66 C 0.93842 -0.09454 0.17489
 C67 C 0.89898 -0.13826 0.18872
 C68 C 0.93596 -0.09081 0.22737
 C69 C 0.97474 -0.04793 0.21282
 N70 N 0.97500 -0.05040 0.18705
 H71 H 1.03711 0.11949 0.17456
 H72 H 1.10128 0.02391 0.20146
 H73 H 1.16804 0.09721 0.22725
 H74 H 1.10265 0.19476 0.19991
 H75 H 0.93882 -0.09492 0.15435
 H76 H 0.86912 -0.17266 0.17884
 H77 H 0.93506 -0.08800 0.24780
 H78 H 1.00312 -0.01200 0.22208
 C79 C 0.89723 0.03403 0.11828
 C80 C 1.13978 -0.01055 0.11777
 C81 C 0.89734 -0.13605 0.21516
 C82 C 1.13991 0.15123 0.21557
 C83 C 0.04537 0.95266 0.86857
 H84 H 0.00783 0.91551 0.86826
 C85 C 0.08773 0.95599 0.88302
 H86 H 0.08282 0.92140 0.89400
 C87 C 0.09825 1.04260 0.85387
 H88 H 0.10243 1.07579 0.84201
 C89 C 0.14179 1.04763 0.86807
 H90 H 0.17937 1.08487 0.86733
 N91 N 0.05126 0.99555 0.85439
 C92 C -0.11200 0.96009 0.84136
 H93 H -0.11344 0.95974 0.82080
 C94 C -0.15505 0.95543 0.85500
 H95 H -0.18995 0.95099 0.84490
 C96 C -0.06339 0.96967 0.87951
 H97 H -0.02694 0.97710 0.88892
 C98 C -0.10553 0.96519 0.89390
 H99 H -0.10152 0.96849 0.91436
 Zn100 Zn -0.00728 0.98383 0.83359
 N101 N -0.06721 0.96750 0.85371
 C102 C -0.06751 0.88008 0.81310
 N103 N -0.02050 0.92711 0.81267
 C104 C 0.02143 0.93434 0.79846
 C105 C 0.01713 0.89336 0.78386
 C106 C -0.07349 0.83789 0.79875
 C107 C 0.01572 1.08899 0.82598
 C108 C 0.01952 1.13313 0.81238
 C109 C 0.00688 1.08685 0.77343
 C110 C 0.00331 1.04354 0.78774
 N111 N 0.00738 1.04525 0.81355
 H112 H -0.09990 0.87481 0.82498
 H113 H 0.05860 0.97185 0.79884
 H114 H 0.05099 0.89931 0.77284
 H115 H -0.11067 0.80025 0.79942
 H116 H 0.01758 1.08877 0.84653
 H117 H 0.02477 1.16724 0.82246
 H118 H 0.00216 1.08467 0.75296
 H119 H -0.00485 1.00790 0.77828
 C120 C -0.15147 0.95875 0.88149
 C121 C 0.13647 1.00376 0.88265
 C122 C 0.01435 1.13172 0.78591
 C123 C -0.03060 0.84460 0.78413
 C124 C 0.46420 -0.00558 -0.01384
 C125 C 0.46632 -0.00361 0.01288
 C126 C 0.50986 -0.00152 0.02598
 C127 C 0.55075 -0.00251 0.01272
 C128 C 0.54747 -0.00682 -0.01390
 C129 C 0.50449 -0.00775 -0.02705
 H130 H 0.50239 -0.01017 -0.04760
 H131 H 0.51195 0.00092 0.04653
 C132 C -0.02063 0.44837 0.65327
 C133 C -0.01942 0.44718 0.68005
 C134 C -0.02007 0.48786 0.69318
 C135 C -0.02060 0.53038 0.67985
 C136 C -0.01944 0.53276 0.65306
 C137 C -0.02011 0.49142 0.63993
 H138 H -0.01999 0.49286 0.61930
 H139 H -0.01991 0.48656 0.71382
 C140 C 0.55103 0.55400 0.32097
 C141 C 0.54781 0.55493 0.34760
 C142 C 0.50480 0.51282 0.36073
 C143 C 0.46444 0.47038 0.34750
 C144 C 0.46651 0.47064 0.32077
 C145 C 0.51007 0.51215 0.30769
 H146 H 0.51212 0.51186 0.28714
 H147 H 0.50274 0.51307 0.38128
 C148 C -0.03432 0.16390 0.56285
 C149 C -0.03535 0.19850 0.57430
 C150 C -0.03471 0.24097 0.58777
 C151 C -0.04321 0.23581 0.61410
 C152 C -0.04042 0.27804 0.62727
 C153 C -0.02900 0.32562 0.61416
 C154 C -0.02080 0.33065 0.58782
 C155 C -0.02363 0.28843 0.57465
 C156 C -0.02557 0.36925 0.62774
 C157 C -0.02297 0.40556 0.63923
 H158 H -0.05156 0.19938 0.62445
 H159 H -0.04692 0.27370 0.64764
 H160 H -0.01198 0.36725 0.57750
 H161 H -0.01674 0.29294 0.55431
 C162 C 0.85389 0.82171 0.22946
 C163 C 0.81652 0.78702 0.24123
 C164 C 0.77101 0.74624 0.25503
 C165 C 0.77242 0.74195 0.28162
 C166 C 0.72755 0.70319 0.29499
 C167 C 0.68106 0.66868 0.28182
 C168 C 0.67971 0.67290 0.25523
 C169 C 0.72457 0.71161 0.24187
 C170 C 0.63493 0.62872 0.29553
 C171 C 0.59649 0.59494 0.30704
 H172 H 0.80806 0.76865 0.29199
 H173 H 0.72906 0.70016 0.31555
 H174 H 0.64400 0.64636 0.24486
 H175 H 0.72297 0.71471 0.22131
 C176 C 0.18121 0.00647 -0.10366
 C177 C 0.21806 0.00698 -0.09235
 C178 C 0.26142 0.00592 -0.07905
 C179 C 0.27129 0.01946 -0.05347
 C180 C 0.31249 0.01681 -0.04042
 C181 C 0.34387 0.00048 -0.05287
 C182 C 0.33411 -0.01289 -0.07847
 C183 C 0.29296 -0.01020 -0.09152
 C184 C 0.38610 -0.00240 -0.03941
 C185 C 0.42157 -0.00432 -0.02794
 H186 H 0.24703 0.03178 -0.04362
 H187 H 0.31979 0.02735 -0.02064
 H188 H 0.35817 -0.02551 -0.08828
 H189 H 0.28553 -0.02096 -0.11127
 C190 C 0.01273 0.83772 0.56132
 C191 C 0.00994 0.79976 0.57297
 C192 C 0.00522 0.75365 0.58669
 C193 C 0.01569 0.75542 0.61286
 C194 C 0.00992 0.71015 0.62622
 C195 C -0.00646 0.66291 0.61349
 C196 C -0.01685 0.66117 0.58732
 C197 C -0.01105 0.70644 0.57396
 C198 C -0.01201 0.61648 0.62721
 C199 C -0.01597 0.57800 0.63884
 H200 H 0.02812 0.79167 0.62291
 H201 H 0.01822 0.71196 0.64644
 H202 H -0.02944 0.62488 0.57728
 H203 H -0.01942 0.70458 0.55374
 C204 C 0.18049 0.19498 0.22942
 C205 C 0.21563 0.23097 0.24090
 C206 C 0.25863 0.27329 0.25445
 C207 C 0.30739 0.30651 0.24218
 C208 C 0.34989 0.34658 0.25549
 C209 C 0.34382 0.35357 0.28114
 C210 C 0.29499 0.32052 0.29339
 C211 C 0.25248 0.28040 0.28008
 C212 C 0.38758 0.39466 0.29487
 C213 C 0.42388 0.42916 0.30651
 H214 H 0.31264 0.30121 0.22240
 H215 H 0.38745 0.37195 0.24584
 H216 H 0.28985 0.32567 0.31321
 H217 H 0.21503 0.25480 0.28978
 C218 C 0.80924 -0.04044 -0.10512
 C219 C 0.77513 -0.03816 -0.09344
 C220 C 0.73507 -0.03385 -0.07974
 C221 C 0.69914 -0.02271 -0.09299
 C222 C 0.66123 -0.01683 -0.07971
 C223 C 0.65911 -0.02200 -0.05311
 C224 C 0.69489 -0.03334 -0.03985
 C225 C 0.73285 -0.03920 -0.05314
 C226 C 0.62009 -0.01594 -0.03946
 C227 C 0.58720 -0.01134 -0.02793
 H228 H 0.70065 -0.01829 -0.11355
 H229 H 0.63370 -0.00814 -0.09015
 H230 H 0.69350 -0.03755 -0.01928
 H231 H 0.76057 -0.04759 -0.04270
 C232 C 0.18037 -0.01369 0.10396
 C233 C 0.21552 -0.01454 0.09251
 C234 C 0.25853 -0.01387 0.07901
 C235 C 0.25239 -0.02728 0.05340
 C236 C 0.29490 -0.02493 0.04013
 C237 C 0.34371 -0.00904 0.05241
 C238 C 0.34977 0.00418 0.07804
 C239 C 0.30728 0.00180 0.09130
 C240 C 0.38746 -0.00642 0.03873
 C241 C 0.42374 -0.00469 0.02712
 H242 H 0.21495 -0.03924 0.04368
 H243 H 0.28976 -0.03536 0.02033
 H244 H 0.38733 0.01647 0.08771
 H245 H 0.31252 0.01246 0.11107
 C246 C 0.81043 0.85027 0.43881
 C247 C 0.77620 0.81388 0.42713
 C248 C 0.73600 0.76952 0.41344
 C249 C 0.73373 0.77265 0.38684
 C250 C 0.69563 0.72885 0.37356
 C251 C 0.65977 0.68172 0.38682
 C252 C 0.66193 0.67866 0.41342
 C253 C 0.69999 0.72246 0.42670
 C254 C 0.62062 0.63665 0.37317
 C255 C 0.58763 0.59916 0.36165
 H256 H 0.76152 0.80878 0.37639
 H257 H 0.69421 0.73167 0.35299
 H258 H 0.63435 0.64244 0.42386
 H259 H 0.70154 0.71954 0.44726
 C260 C 0.01288 0.17450 0.77179
 C261 C 0.01007 0.20967 0.76014
 C262 C 0.00534 0.25104 0.74642
 C263 C 0.01575 0.25972 0.72025
 C264 C 0.00996 0.29920 0.70688
 C265 C -0.00638 0.33006 0.71963
 C266 C -0.01672 0.32143 0.74579
 C267 C -0.01090 0.28198 0.75916
 C268 C -0.01195 0.37092 0.70591
 C269 C -0.01593 0.40543 0.69428
 H270 H 0.02816 0.23591 0.71019
 H271 H 0.01822 0.30568 0.68666
 H272 H -0.02927 0.34513 0.75584
 H273 H -0.01922 0.27548 0.77937
 C274 C 0.85375 0.03279 0.10402
 C275 C 0.81635 0.03009 0.09228
 C276 C 0.77081 0.02534 0.07853
 C277 C 0.77208 0.03090 0.05193
 C278 C 0.72718 0.02476 0.03860
 C279 C 0.68081 0.01292 0.05182
 C280 C 0.67961 0.00751 0.07841
 C281 C 0.72450 0.01368 0.09174
 C282 C 0.63465 0.00672 0.03815
 C283 C 0.59620 0.00205 0.02666
 H284 H 0.80762 0.03972 0.04153
 H285 H 0.72857 0.02917 0.01804
 H286 H 0.64399 -0.00155 0.08882
 H287 H 0.72302 0.00910 0.11229
 C288 C 0.18110 0.17450 0.43691
 C289 C 0.21799 0.21097 0.42566
 C290 C 0.26141 0.25554 0.41244
 C291 C 0.29291 0.30315 0.42498
 C292 C 0.33412 0.34712 0.41199
 C293 C 0.34398 0.34368 0.38640
 C294 C 0.31263 0.29601 0.37387
 C295 C 0.27138 0.25203 0.38685
 C296 C 0.38627 0.38893 0.37300
 C297 C 0.42178 0.42641 0.36158
 H298 H 0.28540 0.30636 0.44473
 H299 H 0.35815 0.38377 0.42187
 H300 H 0.32002 0.29290 0.35409
 H301 H 0.24715 0.21548 0.37694
 C302 C -0.03416 0.80121 0.77027
 C303 C -0.03521 0.76557 0.75882
 C304 C -0.03459 0.72373 0.74535
 C305 C -0.02349 0.68738 0.75846
 C306 C -0.02068 0.64797 0.74530
 C307 C -0.02891 0.64479 0.71895
 C308 C -0.04034 0.68092 0.70584
 C309 C -0.04311 0.72037 0.71901
 C310 C -0.02550 0.60458 0.70538
 C311 C -0.02292 0.57086 0.69389
 H312 H -0.01658 0.68978 0.77880
 H313 H -0.01185 0.62022 0.75561
 H314 H -0.04687 0.67873 0.68548
 H315 H -0.05148 0.74842 0.70867
   
