data_POSCAR
  _audit_creation_date              2014-09-24
  _audit_creation_method            'ToBaCCo'
  _symmetry_space_group_name_H-M    'P1'
  _symmetry_Int_Tables_number       1
  _symmetry_cell_setting            triclinic
  loop_
  _symmetry_equiv_pos_as_xyz
 x,y,z
_cell_length_a 33.3934
_cell_length_b 33.6281
_cell_length_c 33.3342
_cell_angle_alpha 90.717100
_cell_angle_beta 91.678000
_cell_angle_gamma 89.762900
loop_
  _atom_site_label
  _atom_site_type_symbol
  _atom_site_fract_x
  _atom_site_fract_y
  _atom_site_fract_z
C1 C 0.71508 0.70210 0.97780
 H2 H 0.74391 0.70906 0.96572
 C3 C 0.68067 0.72151 0.96314
 H4 H 0.68354 0.74354 0.94001
 C5 C 0.67621 0.66292 1.02039
 H6 H 0.67428 0.63937 1.04195
 C7 C 0.64110 0.68152 1.00661
 H8 H 0.61271 0.67200 1.01801
 N9 N 0.71207 0.67218 1.00462
 C10 C 0.83829 0.64491 1.03241
 H11 H 0.83790 0.61329 1.02678
 C12 C 0.87434 0.66317 1.04354
 H13 H 0.90119 0.64513 1.04621
 C14 C 0.80349 0.70617 1.03754
 H15 H 0.77565 0.72265 1.03579
 C16 C 0.83897 0.72565 1.04941
 H17 H 0.83808 0.75714 1.05648
 Zn18 Zn 0.75639 0.63775 1.01541
 N19 N 0.80377 0.66639 1.02945
 C20 C 0.78893 0.57266 0.97266
 N21 N 0.76611 0.60607 0.96877
 C22 C 0.75279 0.61833 0.93193
 C23 C 0.76462 0.59845 0.89718
 C24 C 0.80163 0.55199 0.93871
 C25 C 0.75300 0.61802 1.09684
 C26 C 0.73859 0.59813 1.13000
 C27 C 0.70632 0.55090 1.08446
 C28 C 0.72149 0.57169 1.05227
 N29 N 0.74365 0.60501 1.05896
 H30 H 0.79816 0.56255 1.00218
 H31 H 0.73406 0.64433 0.92906
 H32 H 0.75488 0.60974 0.86821
 H33 H 0.82096 0.52631 0.94261
 H34 H 0.77032 0.64490 1.10133
 H35 H 0.74568 0.61008 1.15967
 H36 H 0.68774 0.52518 1.07784
 H37 H 0.71405 0.56228 1.02182
 C38 C 0.87501 0.70399 1.05267
 C39 C 0.64285 0.71001 0.97631
 C40 C 0.71362 0.56467 1.12424
 C41 C 0.79042 0.56554 0.90027
 C42 C 0.70573 0.31069 0.54383
 H43 H 0.73533 0.30605 0.55706
 C44 C 0.67377 0.28766 0.55626
 H45 H 0.67934 0.26527 0.57883
 C46 C 0.66236 0.34726 0.50049
 H47 H 0.65777 0.37102 0.47935
 C48 C 0.62951 0.32510 0.51224
 H49 H 0.60006 0.33214 0.49978
 N50 N 0.69934 0.34073 0.51741
 C51 C 0.82162 0.37699 0.49139
 H52 H 0.81802 0.40859 0.49587
 C53 C 0.85796 0.36229 0.47805
 H54 H 0.88204 0.38291 0.47286
 C55 C 0.79383 0.31228 0.49008
 H56 H 0.76831 0.29308 0.49327
 C57 C 0.83006 0.29615 0.47700
 H58 H 0.83206 0.26461 0.47040
 Zn59 Zn 0.74089 0.37797 0.50831
 N60 N 0.79015 0.35222 0.49645
 C61 C 0.76902 0.44545 0.55221
 N62 N 0.74936 0.41031 0.55521
 C63 C 0.73903 0.39639 0.59166
 C64 C 0.75118 0.41630 0.62691
 C65 C 0.78180 0.46634 0.58674
 C66 C 0.74180 0.40010 0.42751
 C67 C 0.72999 0.42040 0.39288
 C68 C 0.68657 0.46142 0.43285
 C69 C 0.69946 0.44040 0.46691
 N70 N 0.72619 0.40998 0.46354
 H71 H 0.77609 0.45661 0.52299
 H72 H 0.72282 0.36893 0.59382
 H73 H 0.74416 0.40355 0.65552
 H74 H 0.79903 0.49327 0.58357
 H75 H 0.76262 0.37554 0.42528
 H76 H 0.74218 0.41117 0.36448
 H77 H 0.66444 0.48479 0.43598
 H78 H 0.68735 0.44762 0.49587
 C79 C 0.86229 0.32154 0.46983
 C80 C 0.63476 0.29573 0.54153
 C81 C 0.70142 0.45105 0.39503
 C82 C 0.77415 0.45100 0.62480
 C83 C 0.21601 -0.17163 0.03071
 H84 H 0.24613 -0.17410 0.04331
 C85 C 0.18447 -0.19018 0.04935
 H86 H 0.19059 -0.20742 0.07608
 C87 C 0.17116 -0.14378 -0.01783
 H88 H 0.16601 -0.12490 -0.04344
 C89 C 0.13870 -0.16249 -0.00051
 H90 H 0.10872 -0.15765 -0.01281
 N91 N 0.20856 -0.14717 -0.00079
 C92 C 0.33183 -0.14158 -0.00583
 H93 H 0.33457 -0.11989 0.01817
 C94 C 0.36551 -0.16359 -0.01651
 H95 H 0.39384 -0.15792 -0.00091
 C96 C 0.29180 -0.17547 -0.05495
 H97 H 0.26291 -0.17979 -0.06988
 C98 C 0.32470 -0.19813 -0.06664
 H99 H 0.32075 -0.21972 -0.09078
 Zn100 Zn 0.25122 -0.11395 -0.01515
 N101 N 0.29620 -0.14678 -0.02607
 C102 C 0.29408 -0.05281 0.02632
 N103 N 0.26321 -0.07883 0.02872
 C104 C 0.24221 -0.08171 0.06296
 C105 C 0.25489 -0.06155 0.09780
 C106 C 0.30768 -0.03180 0.06048
 C107 C 0.25229 -0.09079 -0.09700
 C108 C 0.23676 -0.07223 -0.13133
 C109 C 0.19030 -0.03650 -0.08974
 C110 C 0.20648 -0.05616 -0.05635
 N111 N 0.23591 -0.08373 -0.06071
 H112 H 0.30966 -0.05021 -0.00152
 H113 H 0.21637 -0.10072 0.06397
 H114 H 0.23898 -0.06597 0.12523
 H115 H 0.33386 -0.01311 0.05856
 H116 H 0.27657 -0.11180 -0.09978
 H117 H 0.24955 -0.07978 -0.15995
 H118 H 0.16588 -0.01578 -0.08520
 H119 H 0.19444 -0.05064 -0.02701
 C120 C 0.36247 -0.19158 -0.04804
 C121 C 0.14511 -0.18438 0.03464
 C122 C 0.20424 -0.04555 -0.12842
 C123 C 0.28900 -0.03746 0.09724
 C124 C 0.20298 0.18187 0.44363
 H125 H 0.22952 0.17988 0.42598
 C126 C 0.16948 0.20228 0.42861
 H127 H 0.17095 0.21614 0.39954
 C128 C 0.16847 0.16493 0.50206
 H129 H 0.16805 0.14982 0.53045
 C130 C 0.13424 0.18532 0.48823
 H131 H 0.10768 0.18551 0.50611
 N132 N 0.20150 0.16254 0.47909
 C133 C 0.32437 0.13228 0.51343
 H134 H 0.32389 0.10156 0.50342
 C135 C 0.36008 0.14908 0.52776
 H136 H 0.38690 0.13088 0.52890
 C137 C 0.28938 0.19269 0.52475
 H138 H 0.26162 0.20936 0.52343
 C139 C 0.32451 0.21056 0.54018
 H140 H 0.32356 0.24108 0.55084
 Zn141 Zn 0.24395 0.12687 0.49211
 N142 N 0.28998 0.15407 0.51218
 C143 C 0.28675 0.11946 0.42295
 N144 N 0.25917 0.09994 0.44449
 C145 C 0.24563 0.06329 0.43276
 C146 C 0.26068 0.04470 0.39840
 C147 C 0.30321 0.10166 0.38940
 C148 C 0.24791 0.08958 0.56741
 C149 C 0.23302 0.06848 0.59943
 C150 C 0.17592 0.04966 0.55736
 C151 C 0.19217 0.07080 0.52593
 N152 N 0.22704 0.09111 0.53177
 H153 H 0.29685 0.14866 0.43251
 H154 H 0.22380 0.04817 0.45026
 H155 H 0.25047 0.01526 0.38956
 H156 H 0.32604 0.11719 0.37336
 H157 H 0.27530 0.10619 0.57182
 H158 H 0.24945 0.06905 0.62792
 H159 H 0.14725 0.03517 0.55262
 H160 H 0.17574 0.07298 0.49760
 C161 C 0.36043 0.18856 0.54183
 C162 C 0.13408 0.20313 0.45037
 C163 C 0.19594 0.04922 0.59505
 C164 C 0.29043 0.06381 0.37704
 C165 C 0.18480 0.45359 0.21547
 H166 H 0.18566 0.43897 0.24420
 C167 C 0.20493 0.43670 0.18320
 H168 H 0.22172 0.40944 0.18773
 C169 C 0.15951 0.50517 0.17404
 H170 H 0.14063 0.53101 0.16996
 C171 C 0.17933 0.48948 0.14111
 H172 H 0.17572 0.50394 0.11239
 N173 N 0.16198 0.48683 0.21022
 C174 C 0.13527 0.54064 0.32604
 H175 H 0.10536 0.55029 0.31759
 C176 C 0.15164 0.55251 0.36301
 H177 H 0.13358 0.57055 0.38270
 C178 C 0.19563 0.50821 0.30911
 H179 H 0.21276 0.49127 0.28783
 C180 C 0.21364 0.52023 0.34590
 H181 H 0.24455 0.51232 0.35264
 Zn182 Zn 0.12803 0.50493 0.25166
 N183 N 0.15682 0.51820 0.30016
 C184 C 0.06674 0.46949 0.29489
 N185 N 0.09023 0.46446 0.26257
 C186 C 0.09008 0.42948 0.24143
 C187 C 0.06861 0.39680 0.25489
 C188 C 0.04548 0.43761 0.30968
 C189 C 0.12761 0.58357 0.23124
 C190 C 0.11296 0.62014 0.21841
 C191 C 0.04617 0.59256 0.21549
 C192 C 0.06228 0.55611 0.22818
 N193 N 0.10247 0.55232 0.23512
 H194 H 0.06598 0.49759 0.31066
 H195 H 0.10809 0.42616 0.21521
 H196 H 0.07071 0.36847 0.23926
 H197 H 0.02891 0.44159 0.33691
 H198 H 0.15935 0.57972 0.23752
 H199 H 0.13379 0.64434 0.21478
 H200 H 0.01430 0.59505 0.20904
 H201 H 0.04289 0.53083 0.23192
 C202 C 0.19130 0.54239 0.37352
 C203 C 0.20157 0.45420 0.14513
 C204 C 0.07185 0.62491 0.20983
 C205 C 0.04756 0.40037 0.29051
 C206 C -0.18713 0.03840 0.20812
 H207 H -0.19665 0.05067 0.23646
 C208 C -0.20622 0.05011 0.17235
 H209 H -0.23074 0.07120 0.17390
 C210 C -0.14212 -0.00232 0.17224
 H211 H -0.11640 -0.02191 0.17227
 C212 C -0.15984 0.00910 0.13570
 H213 H -0.14764 -0.00249 0.10815
 N214 N -0.15546 0.01300 0.20740
 C215 C -0.13675 -0.01739 0.33315
 H216 H -0.10538 -0.00956 0.33555
 C217 C -0.15589 -0.03204 0.36636
 H218 H -0.13882 -0.03554 0.39423
 C219 C -0.19629 -0.02354 0.29309
 H220 H -0.21157 -0.02078 0.26421
 C221 C -0.21650 -0.03924 0.32553
 H222 H -0.24746 -0.04823 0.32145
 Zn223 Zn -0.12519 0.00428 0.25517
 N224 N -0.15704 -0.01322 0.29751
 C225 C -0.11959 0.07390 0.30070
 N226 N -0.10138 0.05375 0.27062
 C227 C -0.07067 0.07046 0.25080
 C228 C -0.05552 0.10771 0.26298
 C229 C -0.10610 0.11123 0.31318
 C230 C -0.10740 -0.07361 0.24205
 C231 C -0.08636 -0.10753 0.23077
 C232 C -0.02657 -0.06767 0.22734
 C233 C -0.04868 -0.03446 0.23983
 N234 N -0.08870 -0.03785 0.24562
 H235 H -0.14532 0.06140 0.31474
 H236 H -0.05813 0.05519 0.22534
 H237 H -0.03060 0.12031 0.24750
 H238 H -0.12098 0.12618 0.33758
 H239 H -0.13925 -0.07550 0.24660
 H240 H -0.10239 -0.13528 0.22673
 H241 H 0.00486 -0.06434 0.22103
 H242 H -0.03411 -0.00603 0.24340
 C243 C -0.19611 -0.04375 0.36272
 C244 C -0.19178 0.03652 0.13524
 C245 C -0.04572 -0.10461 0.22204
 C246 C -0.07337 0.12850 0.29467
 C247 C 0.32963 0.53633 0.72002
 H248 H 0.32802 0.55082 0.74910
 C249 C 0.31117 0.55365 0.68652
 H250 H 0.29499 0.58139 0.69010
 C251 C 0.35432 0.48353 0.67985
 H252 H 0.37160 0.45645 0.67732
 C253 C 0.33556 0.49947 0.64554
 H254 H 0.33888 0.48474 0.61675
 N255 N 0.35234 0.50302 0.71583
 C256 C 0.35042 0.49695 0.83896
 H257 H 0.37002 0.52220 0.84267
 C258 C 0.32819 0.48483 0.87143
 H259 H 0.33179 0.50052 0.89986
 C260 C 0.32163 0.44631 0.79765
 H261 H 0.31957 0.43118 0.76882
 C262 C 0.29877 0.43317 0.82930
 H263 H 0.27934 0.40776 0.82448
 Zn264 Zn 0.38373 0.48780 0.76138
 N265 N 0.34834 0.47640 0.80353
 C266 C 0.44062 0.52829 0.81149
 N267 N 0.41864 0.53049 0.77659
 C268 C 0.41958 0.56365 0.75362
 C269 C 0.43956 0.59770 0.76758
 C270 C 0.46057 0.56187 0.82692
 C271 C 0.40888 0.40657 0.76565
 C272 C 0.42793 0.37247 0.75111
 C273 C 0.46226 0.41340 0.70412
 C274 C 0.44226 0.44661 0.71930
 N275 N 0.41503 0.44245 0.74846
 H276 H 0.44052 0.50119 0.82865
 H277 H 0.40380 0.56436 0.72493
 H278 H 0.43813 0.62435 0.74969
 H279 H 0.47587 0.56023 0.85595
 H280 H 0.38821 0.40391 0.78972
 H281 H 0.42128 0.34394 0.76399
 H282 H 0.48239 0.41723 0.67960
 H283 H 0.44698 0.47556 0.70649
 C284 C 0.30304 0.45160 0.86727
 C285 C 0.31507 0.53580 0.64854
 C286 C 0.45411 0.37549 0.71910
 C287 C 0.45891 0.59762 0.80550
 C288 C 0.68834 0.94681 0.70485
 H289 H 0.69647 0.93510 0.73407
 C290 C 0.70845 0.93359 0.67098
 H291 H 0.73205 0.91163 0.67453
 C292 C 0.64656 0.98840 0.66477
 H293 H 0.62210 1.00937 0.66227
 C294 C 0.66581 0.97602 0.63017
 H295 H 0.65573 0.98774 0.60149
 N296 N 0.65715 0.97276 0.70101
 C297 C 0.64592 0.98527 0.82875
 H298 H 0.61834 0.96909 0.83148
 C299 C 0.66657 0.99818 0.86344
 H300 H 0.65433 0.99140 0.89229
 C301 C 0.69389 1.01507 0.78784
 H302 H 0.70369 1.02244 0.75820
 C303 C 0.71561 1.02856 0.82175
 H304 H 0.74230 1.04603 0.81752
 Zn305 Zn 0.62563 0.98466 0.74614
 N306 N 0.65913 0.99484 0.79192
 C307 C 0.60344 0.90361 0.74484
 N308 N 0.59216 0.94074 0.75675
 C309 C 0.55960 0.94639 0.77975
 C310 C 0.53874 0.91378 0.79403
 C311 C 0.58351 0.87022 0.75843
 C312 C 0.60751 1.06658 0.74991
 C313 C 0.58848 1.10171 0.73799
 C314 C 0.54114 1.06252 0.69834
 C315 C 0.56119 1.02810 0.71095
 N316 N 0.59435 1.03079 0.73546
 H317 H 0.62910 0.89956 0.72631
 H318 H 0.55117 0.97620 0.78882
 H319 H 0.51417 0.91895 0.81394
 H320 H 0.59426 0.84095 0.75002
 H321 H 0.63382 1.06818 0.76945
 H322 H 0.60045 1.12990 0.74870
 H323 H 0.51575 1.05974 0.67756
 H324 H 0.55134 0.99930 0.69984
 C325 C 0.70119 1.02151 0.86035
 C326 C 0.69641 0.94734 0.63282
 C327 C 0.55548 1.10006 0.71098
 C328 C 0.55159 0.87499 0.78455
 C329 C 0.04439 0.21191 -0.18906
 H330 H 0.06087 0.23953 -0.18871
 C331 C 0.05765 0.17977 -0.21219
 H332 H 0.08403 0.18334 -0.22990
 C333 C -0.00808 0.17292 -0.16419
 H334 H -0.03310 0.16980 -0.14472
 C335 C 0.00399 0.14016 -0.18698
 H336 H -0.01208 0.11242 -0.18466
 N337 N 0.01276 0.20763 -0.16471
 C338 C -0.03981 0.32043 -0.12911
 H339 H -0.04670 0.31214 -0.09887
 C340 C -0.05681 0.35474 -0.14522
 H341 H -0.07647 0.37281 -0.12716
 C342 C -0.00766 0.30601 -0.19009
 H343 H 0.01066 0.28646 -0.20782
 C344 C -0.02323 0.34098 -0.20709
 H345 H -0.01683 0.34816 -0.23783
 Zn346 Zn -0.00017 0.24807 -0.12666
 N347 N -0.01641 0.29632 -0.15174
 C348 C 0.04140 0.28849 -0.06404
 N349 N 0.04478 0.25875 -0.09175
 C350 C 0.08030 0.23947 -0.09658
 C351 C 0.11483 0.25210 -0.07545
 C352 C 0.07503 0.30180 -0.04199
 C353 C -0.08079 0.23357 -0.11591
 C354 C -0.11471 0.21855 -0.09826
 C355 C -0.07263 0.19556 -0.04292
 C356 C -0.03950 0.21193 -0.06142
 N357 N -0.04416 0.23002 -0.09748
 H358 H 0.01286 0.30300 -0.06010
 H359 H 0.08239 0.21510 -0.11778
 H360 H 0.14310 0.23748 -0.08106
 H361 H 0.07178 0.32667 -0.02138
 H362 H -0.08355 0.24747 -0.14495
 H363 H -0.14321 0.22170 -0.11429
 H364 H -0.06783 0.18047 -0.01465
 H365 H -0.00991 0.20912 -0.04762
 C366 C -0.04880 0.36514 -0.18466
 C367 C 0.03807 0.14291 -0.21037
 C368 C -0.11110 0.19818 -0.06159
 C369 C 0.11269 0.28449 -0.04860
 C370 C 0.46879 0.21012 0.17951
 H371 H 0.45734 0.23972 0.18464
 C372 C 0.45272 0.17826 0.20012
 H373 H 0.42939 0.18405 0.22132
 C374 C 0.51076 0.16623 0.14370
 H375 H 0.53204 0.16113 0.12043
 C376 C 0.49571 0.13360 0.16374
 H377 H 0.50625 0.10409 0.15594
 N378 N 0.49689 0.20362 0.15142
 C379 C 0.56791 0.30501 0.14182
 H380 H 0.58738 0.28993 0.12145
 C381 C 0.58212 0.33895 0.16155
 H382 H 0.61256 0.34835 0.15667
 C383 C 0.50426 0.31340 0.17016
 H384 H 0.47353 0.30404 0.17243
 C385 C 0.51712 0.34839 0.18996
 H386 H 0.49647 0.36511 0.20815
 Zn387 Zn 0.51268 0.24561 0.11750
 N388 N 0.52992 0.29200 0.14713
 C389 C 0.46964 0.29594 0.06590
 N390 N 0.46820 0.26039 0.08467
 C391 C 0.43405 0.23842 0.08420
 C392 C 0.39884 0.25313 0.06607
 C393 C 0.43513 0.31187 0.04766
 C394 C 0.58901 0.21548 0.10835
 C395 C 0.62306 0.20227 0.08922
 C396 C 0.58765 0.20936 0.02540
 C397 C 0.55437 0.22378 0.04587
 N398 N 0.55582 0.22670 0.08666
 H399 H 0.49715 0.31286 0.06694
 H400 H 0.43361 0.21016 0.09926
 H401 H 0.37157 0.23595 0.06743
 H402 H 0.43660 0.34097 0.03427
 H403 H 0.58906 0.21742 0.14078
 H404 H 0.64915 0.19366 0.10718
 H405 H 0.58626 0.20667 -0.00702
 H406 H 0.52744 0.23236 0.02930
 C407 C 0.55679 0.36110 0.18610
 C408 C 0.46553 0.13925 0.19162
 C409 C 0.62264 0.19899 0.04730
 C410 C 0.39880 0.29093 0.04865
 C411 C 0.96603 0.70485 0.69514
 H412 H 0.96411 0.73441 0.70811
 C413 C 0.95291 0.67207 0.71656
 H414 H 0.94102 0.67674 0.74612
 C415 C 0.98214 0.66307 0.64009
 H416 H 0.99295 0.65998 0.60993
 C417 C 0.96980 0.62957 0.66049
 H418 H 0.97117 0.60082 0.64560
 N419 N 0.97974 0.69977 0.65740
 C420 C 1.03076 0.78869 0.68754
 H421 H 1.04332 0.76066 0.69711
 C422 C 1.04376 0.82377 0.70651
 H423 H 1.06669 0.82208 0.73008
 C424 C 0.98619 0.82488 0.64517
 H425 H 0.96383 0.82550 0.62121
 C426 C 0.99853 0.86073 0.66312
 H427 H 0.98562 0.88833 0.65236
 Zn428 Zn 0.99412 0.74277 0.62487
 N429 N 1.00365 0.78988 0.65632
 C430 C 0.95502 0.77915 0.55752
 N431 N 0.95127 0.75209 0.58715
 C432 C 0.91534 0.73476 0.59388
 C433 C 0.88093 0.74637 0.57221
 C434 C 0.92142 0.79139 0.53489
 C435 C 1.07156 0.71409 0.62582
 C436 C 1.10820 0.70098 0.61188
 C437 C 1.08536 0.71609 0.54439
 C438 C 1.04873 0.72886 0.55976
 N439 N 1.04265 0.72786 0.59999
 H440 H 0.98356 0.79333 0.55326
 H441 H 0.91271 0.71357 0.61773
 H442 H 0.85237 0.73361 0.57950
 H443 H 0.92484 0.81448 0.51292
 H444 H 1.06572 0.71196 0.65736
 H445 H 1.13033 0.68974 0.63331
 H446 H 1.08954 0.71647 0.51231
 H447 H 1.02517 0.73879 0.53939
 C448 C 1.02876 0.86059 0.69325
 C449 C 0.95422 0.63383 0.69898
 C450 C 1.11553 0.70157 0.57067
 C451 C 0.88347 0.77602 0.54317
 C452 C 0.51808 0.70829 0.29595
 H453 H 0.52583 0.73751 0.28549
 C454 C 0.53261 0.67434 0.27645
 H455 H 0.55121 0.67790 0.25068
 C456 C 0.48706 0.66842 0.34414
 H457 H 0.47048 0.66624 0.37137
 C458 C 0.50082 0.63378 0.32555
 H459 H 0.49426 0.60533 0.33867
 N460 N 0.49680 0.70473 0.32986
 C461 C 0.44813 0.79316 0.30026
 H462 H 0.43606 0.76459 0.29099
 C463 C 0.43539 0.82762 0.28043
 H464 H 0.41327 0.82490 0.25615
 C465 C 0.49116 0.83096 0.34339
 H466 H 0.51278 0.83247 0.36799
 C467 C 0.47922 0.86609 0.32464
 H468 H 0.49205 0.89387 0.33551
 Zn469 Zn 0.48691 0.74962 0.36303
 N470 N 0.47463 0.79553 0.33196
 C471 C 0.53188 0.78457 0.42765
 N472 N 0.53395 0.75986 0.39515
 C473 C 0.56974 0.74520 0.38304
 C474 C 0.60545 0.75717 0.40235
 C475 C 0.56685 0.79712 0.44798
 C476 C 0.40512 0.73991 0.38009
 C477 C 0.37270 0.72654 0.40170
 C478 C 0.41881 0.70886 0.45578
 C479 C 0.45032 0.72276 0.43321
 N480 N 0.44309 0.73749 0.39587
 H481 H 0.50313 0.79600 0.43664
 H482 H 0.57094 0.72551 0.35731
 H483 H 0.63363 0.74629 0.39118
 H484 H 0.56450 0.81803 0.47277
 H485 H 0.39995 0.75106 0.35019
 H486 H 0.34291 0.72777 0.38803
 H487 H 0.42547 0.69621 0.48493
 H488 H 0.48076 0.72013 0.44484
 C489 C 0.44999 0.86506 0.29341
 C490 C 0.52521 0.63648 0.29212
 C491 C 0.37940 0.70995 0.43976
 C492 C 0.60437 0.78431 0.43462
 C493 C 0.37430 0.00662 0.24175
 C494 C 0.11567 1.00172 0.73538
 C495 C 0.62497 0.50483 0.24995
 C496 C 0.86740 0.50365 0.76148
 C497 C 0.25197 0.36978 0.00539
 C498 C 0.75765 0.11328 0.99266
 C499 C 0.25511 0.62239 0.51286
 C500 C 0.74588 0.86490 0.49160
 C501 C -0.00850 0.26565 0.37481
 C502 C 1.01613 0.76574 0.13107
 C503 C 0.50177 0.23920 0.62799
 C504 C 0.50283 0.74555 0.88073
 N505 N 0.44562 -0.06341 0.29281
 C506 C 0.43415 -0.09940 0.27741
 N507 N 0.40500 -0.10024 0.24812
 N508 N 0.38742 -0.06681 0.23565
 C509 C 0.39812 -0.03093 0.25181
 N510 N 0.42794 -0.02997 0.28043
 N511 N 0.89003 0.40282 0.80133
 C512 C 0.93020 0.39951 0.79768
 N513 N 0.95034 0.42959 0.78051
 N514 N 0.93089 0.46223 0.76822
 C515 C 0.89056 0.46579 0.77231
 N516 N 0.87063 0.43507 0.78863
 N517 N 0.09242 1.10821 0.75511
 C518 C 0.05545 1.10684 0.77081
 N519 N 0.03682 1.07102 0.77256
 N520 N 0.05468 1.03789 0.75966
 C521 C 0.09191 1.03930 0.74432
 N522 N 0.11030 1.07519 0.74237
 N523 N 0.54226 0.56484 0.29445
 C524 C 0.54659 0.60081 0.27693
 N525 N 0.57436 0.60440 0.24832
 N526 N 0.59767 0.57378 0.23861
 C527 C 0.59445 0.53814 0.25711
 N528 N 0.56557 0.53414 0.28469
 N529 N 0.54870 0.42904 0.21493
 C530 C 0.57259 0.39740 0.20628
 N531 N 0.61255 0.40053 0.21381
 N532 N 0.62824 0.43398 0.22867
 C533 C 0.60480 0.46603 0.23662
 N534 N 0.56453 0.46280 0.22971
 N535 N 0.07687 0.89766 0.73673
 C536 C 0.04726 0.89825 0.70799
 N537 N 0.03806 0.93344 0.69024
 N538 N 0.05836 0.96638 0.70006
 C539 C 0.08878 0.96555 0.72807
 N540 N 0.09711 0.93052 0.74655
 N541 N 0.93949 0.56210 0.70245
 C542 C 0.93642 0.59915 0.71883
 N543 N 0.91356 0.60422 0.75152
 N544 N 0.89351 0.57382 0.76631
 C545 C 0.89546 0.53695 0.74913
 N546 N 0.91952 0.53167 0.71728
 N547 N 0.41067 0.11013 0.22901
 C548 C 0.44486 0.10469 0.20865
 N549 N 0.45739 0.06685 0.20110
 N550 N 0.43635 0.03577 0.21309
 C551 C 0.40198 0.04129 0.23335
 N552 N 0.38960 0.07917 0.24084
 N553 N 0.26124 0.40124 -0.10094
 C554 C 0.28459 0.43409 -0.09710
 N555 N 0.29429 0.44781 -0.05957
 N556 N 0.28204 0.42892 -0.02728
 C557 C 0.25923 0.39560 -0.03104
 N558 N 0.24895 0.38238 -0.06866
 N559 N 0.80131 0.94042 0.43444
 C560 C 0.78492 0.93675 0.39683
 N561 N 0.75334 0.91186 0.39074
 N562 N 0.73973 0.89044 0.42079
 C563 C 0.75706 0.89306 0.45819
 N564 N 0.78760 0.91920 0.46449
 N565 N 0.81031 0.04352 1.06335
 C566 C 0.79301 0.05223 1.09891
 N567 N 0.76235 0.07882 1.09895
 N568 N 0.75037 0.09678 1.06538
 C569 C 0.76860 0.08934 1.03012
 N570 N 0.79841 0.06170 1.02969
 N571 N 0.30049 0.59730 0.61269
 C572 C 0.30050 0.55703 0.61248
 N573 N 0.28745 0.53736 0.57870
 N574 N 0.27377 0.55744 0.54677
 C575 C 0.27324 0.59793 0.54728
 N576 N 0.28734 0.61727 0.58080
 N577 N 0.18437 0.57084 0.44112
 C578 C 0.20887 0.55741 0.41210
 N579 N 0.24908 0.56170 0.41793
 N580 N 0.26391 0.58029 0.45069
 C581 C 0.23912 0.59539 0.47888
 N582 N 0.19911 0.58929 0.47376
 N583 N 0.75037 0.06500 0.89106
 C584 C 0.71874 0.04016 0.89453
 N585 N 0.70230 0.03668 0.93119
 N586 N 0.71572 0.05834 0.96247
 C587 C 0.74619 0.08454 0.95846
 N588 N 0.76379 0.08661 0.92229
 N589 N 0.69739 0.93895 0.55917
 C590 C 0.71294 0.92939 0.59594
 N591 N 0.74131 0.90042 0.59832
 N592 N 0.75291 0.88117 0.56547
 C593 C 0.73657 0.88992 0.52877
 N594 N 0.70895 0.91968 0.52631
 N595 N 0.23396 0.39702 0.11206
 C596 C 0.21821 0.43418 0.10933
 N597 N 0.21514 0.45119 0.07256
 N598 N 0.22706 0.43177 0.03988
 C599 C 0.24278 0.39452 0.04264
 N600 N 0.24579 0.37757 0.07944
 N601 N -0.08176 0.33250 0.42567
 C602 C -0.10167 0.30720 0.44924
 N603 N -0.08951 0.26860 0.45078
 N604 N -0.05890 0.25585 0.42905
 C605 C -0.03962 0.28106 0.40446
 N606 N -0.05170 0.31970 0.40366
 N607 N 0.43566 0.79653 0.95283
 C608 C 0.39870 0.78835 0.93669
 N609 N 0.39596 0.76399 0.90397
 N610 N 0.42872 0.74898 0.88768
 C611 C 0.46573 0.75725 0.90364
 N612 N 0.46850 0.78147 0.93656
 N613 N 1.11536 0.80209 0.09907
 C614 C 1.11128 0.80251 0.05851
 N615 N 1.07539 0.79232 0.04112
 N616 N 1.04512 0.78100 0.06357
 C617 C 1.04946 0.77998 0.10429
 N618 N 1.08509 0.79130 0.12143
 N619 N 0.56199 0.29075 0.55179
 C620 C 0.59965 0.27688 0.55970
 N621 N 0.60478 0.24836 0.58788
 N622 N 0.57381 0.23505 0.60802
 C623 C 0.53628 0.24974 0.60101
 N624 N 0.53100 0.27750 0.57200
 N625 N 0.43356 0.18769 0.55375
 C626 C 0.39760 0.20525 0.56034
 N627 N 0.39615 0.23612 0.58688
 N628 N 0.42910 0.24797 0.60706
 C629 C 0.46491 0.22951 0.60150
 N630 N 0.46653 0.19967 0.57373
 N631 N 0.91160 0.75833 0.08790
 C632 C 0.91247 0.72270 0.06836
 N633 N 0.94798 0.70296 0.06651
 N634 N 0.98094 0.71754 0.08458
 C635 C 0.97977 0.75241 0.10556
 N636 N 0.94452 0.77286 0.10612
 N637 N 0.56962 0.70776 0.96380
 C638 C 0.60565 0.72383 0.95535
 N639 N 0.60742 0.74926 0.92416
 N640 N 0.57484 0.75742 0.90175
 C641 C 0.53901 0.74041 0.90935
 N642 N 0.53702 0.71591 0.94136
 N643 N 0.09461 0.22602 0.39188
 C644 C 0.09691 0.22001 0.43200
 N645 N 0.06415 0.22831 0.45403
 N646 N 0.03064 0.24251 0.43653
 C647 C 0.02845 0.24845 0.39621
 N648 N 0.06121 0.23987 0.37442
 N649 N 0.50697 0.13522 0.66681
 C650 C 0.53850 0.13698 0.69336
 N651 N 0.55627 0.17278 0.70057
 N652 N 0.54377 0.20518 0.68118
 C653 C 0.51302 0.20315 0.65358
 N654 N 0.49447 0.16756 0.64748
 N655 N 1.01774 0.67307 0.19247
 C656 C 1.05711 0.66263 0.19241
 N657 N 1.08313 0.68685 0.17421
 N658 N 1.07040 0.71966 0.15606
 C659 C 1.03108 0.73017 0.15552
 N660 N 1.00501 0.70628 0.17455
 N661 N 1.00474 0.86686 0.17760
 C662 C 0.97474 0.86106 0.20345
 N663 N 0.96051 0.82361 0.20782
 N664 N 0.97501 0.79333 0.18652
 C665 C 1.00411 0.79926 0.15960
 N666 N 1.01901 0.83663 0.15607
 N667 N 0.45447 0.30293 0.70624
 C668 C 0.47007 0.33937 0.69916
 N669 N 0.49796 0.34250 0.67059
 N670 N 0.50912 0.31079 0.64937
 C671 C 0.49277 0.27449 0.65559
 N672 N 0.46556 0.27116 0.68491
 N673 N 0.47727 0.66867 0.80188
 C674 C 0.47403 0.63517 0.82396
 N675 N 0.48145 0.63769 0.86414
 N676 N 0.49138 0.67222 0.88156
 C677 C 0.49472 0.70578 0.85959
 N678 N 0.48745 0.70322 0.81929
 N679 N -0.08117 0.19072 0.33298
 C680 C -0.05782 0.16719 0.30992
 N681 N -0.01924 0.17817 0.30463
 N682 N -0.00423 0.21043 0.32325
 C683 C -0.02717 0.23301 0.34792
 N684 N -0.06625 0.22289 0.35141
 N685 N 0.03591 0.36343 0.35138
 C686 C 0.03228 0.36516 0.31087
 N687 N 0.01594 0.33371 0.29032
 N688 N 0.00282 0.30210 0.30990
 C689 C 0.00616 0.30065 0.35067
 N690 N 0.02341 0.33181 0.37079
 N691 N 0.50527 0.84495 0.83173
 C692 C 0.53490 0.84016 0.80507
 N693 N 0.55186 0.80358 0.80100
 N694 N 0.54044 0.77334 0.82339
 C695 C 0.51145 0.77835 0.85082
 N696 N 0.49381 0.81475 0.85409
 N697 N 0.66899 0.51742 0.14912
 C698 C 0.69532 0.54770 0.15550
 N699 N 0.70068 0.56196 0.19372
 N700 N 0.67995 0.54738 0.22379
 C701 C 0.65297 0.51770 0.21704
 N702 N 0.64820 0.50297 0.17904
 N703 N 0.19681 1.02985 0.66630
 C704 C 0.17661 1.03238 0.63043
 N705 N 0.13716 1.02280 0.62867
 N706 N 0.11859 1.01170 0.66146
 C707 C 0.13866 1.00927 0.69743
 N708 N 0.17825 1.01860 0.69910
 N709 N 0.19648 0.95751 0.80092
 C710 C 0.18557 0.96920 0.83832
 N711 N 0.15357 0.99406 0.84139
 N712 N 0.13297 1.00585 0.80889
 C713 C 0.14351 0.99370 0.77160
 N714 N 0.17573 0.96916 0.76836
 N715 N 0.69883 0.45824 0.32131
 C716 C 0.68507 0.46952 0.35771
 N717 N 0.65374 0.49534 0.35882
 N718 N 0.63614 0.50824 0.32500
 C719 C 0.64908 0.49601 0.28852
 N720 N 0.68125 0.47115 0.28751
 N721 N 0.79002 0.45081 0.69774
 C722 C 0.79352 0.46846 0.66154
 N723 N 0.81872 0.49980 0.65896
 N724 N 0.84052 0.51205 0.69078
 C725 C 0.83834 0.49342 0.72664
 N726 N 0.81184 0.46309 0.72962
 N727 N 0.33771 0.00464 0.13468
 C728 C 0.30722 -0.02182 0.13522
 N729 N 0.29675 -0.03688 0.17107
 N730 N 0.31659 -0.02665 0.20488
 C731 C 0.34764 -0.00068 0.20431
 N732 N 0.35741 0.01499 0.16845
 N733 N 0.29011 0.03192 0.30999
 C734 C 0.31067 0.04430 0.34360
 N735 N 0.35120 0.04253 0.34438
 N736 N 0.37065 0.02918 0.31271
 C737 C 0.35046 0.01761 0.27859
 N738 N 0.30968 0.01894 0.27799
 N739 N 0.83813 0.52051 0.86770
 C740 C 0.80776 0.54721 0.86398
 N741 N 0.79585 0.55876 0.82651
 N742 N 0.81369 0.54424 0.79414
 C743 C 0.84418 0.51749 0.79793
 N744 N 0.85603 0.50614 0.83546
 N745 N 0.16510 0.68942 0.51756
 C746 C 0.15329 0.68425 0.55585
 N747 N 0.17600 0.66095 0.58043
 N748 N 0.20859 0.64287 0.56729
 C749 C 0.22049 0.64749 0.52900
 N750 N 0.19808 0.67146 0.50443
 N751 N 0.69518 0.18903 1.04412
 C752 C 0.65809 0.18235 1.02776
 N753 N 0.65402 0.15600 0.99677
 N754 N 0.68565 0.13569 0.98399
 C755 C 0.72258 0.14100 1.00161
 N756 N 0.72680 0.16903 1.03112
 N757 N 0.81993 0.18319 0.93543
 C758 C 0.85667 0.18024 0.95391
 N759 N 0.86031 0.15722 0.98712
 N760 N 0.82913 0.13698 1.00017
 C761 C 0.79280 0.13899 0.98074
 N762 N 0.78873 0.16321 0.94859
 N763 N 0.30783 0.69284 0.44664
 C764 C 0.34630 0.69090 0.46109
 N765 N 0.35438 0.66845 0.49388
 N766 N 0.32550 0.64814 0.51098
 C767 C 0.28709 0.64947 0.49630
 N768 N 0.27884 0.67260 0.46389
 N769 N 0.64067 0.82710 0.48387
 C770 C 0.64187 0.80171 0.45199
 N771 N 0.67762 0.79527 0.43444
 N772 N 0.71057 0.81415 0.44766
 C773 C 0.70913 0.84039 0.47896
 N774 N 0.67354 0.84591 0.49710
 N775 N 0.14690 0.33258 -0.00312
 C776 C 0.14956 0.30247 -0.03039
 N777 N 0.18639 0.29219 -0.04357
 N778 N 0.21902 0.31188 -0.03075
 C779 C 0.21625 0.34255 -0.00395
 N780 N 0.17943 0.35219 0.00971
 N781 N 0.32604 0.28924 0.03123
 C782 C 0.36088 0.31001 0.03473
 N783 N 0.35988 0.34966 0.02789
 N784 N 0.32563 0.36785 0.01811
 C785 C 0.29078 0.34725 0.01434
 N786 N 0.29167 0.30746 0.02117
 N787 N 0.81020 0.78721 0.54079
 C788 C 0.84670 0.79423 0.52530
 N789 N 0.84938 0.82190 0.49626
 N790 N 0.81731 0.84263 0.48424
 C791 C 0.78109 0.83690 0.50083
 N792 N 0.77806 0.80803 0.52878
   
