data_POSCAR
  _audit_creation_date              2014-09-24
  _audit_creation_method            'ToBaCCo'
  _symmetry_space_group_name_H-M    'P1'
  _symmetry_Int_Tables_number       1
  _symmetry_cell_setting            triclinic
  loop_
  _symmetry_equiv_pos_as_xyz
 x,y,z
_cell_length_a 37.4949
_cell_length_b 36.8401
_cell_length_c 37.5689
_cell_angle_alpha 90.060200
_cell_angle_beta 89.974300
_cell_angle_gamma 90.010700
loop_
  _atom_site_label
  _atom_site_type_symbol
  _atom_site_fract_x
  _atom_site_fract_y
  _atom_site_fract_z
N1 N 0.58162 0.67981 0.60767
 N2 N 0.56804 0.66536 0.63666
 C3 C 0.53946 0.68496 0.64686
 C4 C 0.53461 0.71262 0.62256
 C5 C 0.56168 0.70853 0.59796
 H6 H 0.52309 0.67937 0.66991
 H7 H 0.56688 0.72565 0.57518
 Cu8 Cu 0.58834 0.62179 0.65771
 Cu9 Cu 0.62509 0.66147 0.58580
 Cu10 Cu 0.66419 0.58617 0.62485
 N11 N 0.61081 0.57960 0.67927
 N12 N 0.64139 0.56696 0.66740
 C13 C 0.65194 0.53920 0.68816
 C14 C 0.62623 0.53376 0.71401
 C15 C 0.60043 0.55974 0.70753
 H16 H 0.67611 0.52365 0.68432
 H17 H 0.57629 0.56419 0.72269
 N18 N 0.68324 0.60943 0.58165
 N19 N 0.66913 0.63896 0.56760
 C20 C 0.68893 0.64918 0.53940
 C21 C 0.71629 0.62449 0.53519
 C22 C 0.71187 0.59957 0.56222
 H23 H 0.68355 0.67240 0.52267
 H24 H 0.72862 0.57632 0.56754
 H25 H 0.61899 0.60819 0.60196
 H26 H 0.64557 0.63857 0.63169
 N27 N 0.91864 0.31871 0.10762
 N28 N 0.93139 0.33238 0.13736
 C29 C 0.95953 0.31239 0.14794
 C30 C 0.96505 0.28524 0.12309
 C31 C 0.93873 0.29012 0.09777
 H32 H 0.97525 0.31750 0.17155
 H33 H 0.93414 0.27368 0.07434
 Cu34 Cu 0.91086 0.37591 0.15838
 Cu35 Cu 0.87590 0.33780 0.08493
 Cu36 Cu 0.83708 0.41366 0.12361
 N37 N 0.88900 0.41864 0.17963
 N38 N 0.85930 0.43234 0.16676
 C39 C 0.84910 0.46058 0.18712
 C40 C 0.87408 0.46514 0.21375
 C41 C 0.89911 0.43823 0.20820
 H42 H 0.82568 0.47707 0.18253
 H43 H 0.92260 0.43313 0.22411
 N44 N 0.81861 0.39078 0.07990
 N45 N 0.83257 0.36106 0.06599
 C46 C 0.81300 0.35104 0.03755
 C47 C 0.78598 0.37602 0.03305
 C48 C 0.79033 0.40093 0.06015
 H49 H 0.81823 0.32763 0.02096
 H50 H 0.77367 0.42428 0.06539
 H51 H 0.88244 0.39079 0.10186
 H52 H 0.85420 0.36075 0.13028
 N53 N 0.41789 0.18160 -0.10758
 N54 N 0.43125 0.16735 -0.13679
 C55 C 0.45963 0.18713 -0.14715
 C56 C 0.46460 0.21471 -0.12274
 C57 C 0.43780 0.21038 -0.09789
 H58 H 0.47586 0.18167 -0.17035
 H59 H 0.43280 0.22733 -0.07491
 Cu60 Cu 0.41102 0.12362 -0.15769
 Cu61 Cu 0.37481 0.16281 -0.08526
 Cu62 Cu 0.33639 0.08667 -0.12370
 N63 N 0.38908 0.08092 -0.17893
 N64 N 0.35908 0.06755 -0.16639
 C65 C 0.34885 0.03938 -0.18683
 C66 C 0.37410 0.03452 -0.21315
 C67 C 0.39934 0.06118 -0.20736
 H68 H 0.32516 0.02320 -0.18253
 H69 H 0.42302 0.06608 -0.22307
 N70 N 0.31740 0.10995 -0.08043
 N71 N 0.33119 0.13980 -0.06664
 C72 C 0.31136 0.15002 -0.03844
 C73 C 0.28432 0.12503 -0.03397
 C74 C 0.28895 0.09992 -0.06085
 H75 H 0.31647 0.17351 -0.02193
 H76 H 0.27241 0.07645 -0.06600
 H77 H 0.38151 0.10962 -0.10147
 H78 H 0.35393 0.13942 -0.13076
 N79 N 0.08126 0.81861 0.39198
 N80 N 0.06869 0.83203 0.36209
 C81 C 0.04043 0.81210 0.35161
 C82 C 0.03469 0.78526 0.37669
 C83 C 0.06097 0.79026 0.40203
 H84 H 0.02480 0.81703 0.32792
 H85 H 0.06542 0.77404 0.42559
 Cu86 Cu 0.08964 0.87515 0.34075
 Cu87 Cu 0.12409 0.83764 0.41461
 Cu88 Cu 0.16294 0.91347 0.37600
 N89 N 0.11109 0.91827 0.31991
 N90 N 0.14062 0.93218 0.33297
 C91 C 0.15063 0.96064 0.31285
 C92 C 0.12568 0.96512 0.28620
 C93 C 0.10086 0.93794 0.29147
 H94 H 0.17390 0.97730 0.31761
 H95 H 0.07747 0.93271 0.27544
 N96 N 0.18150 0.89053 0.41960
 N97 N 0.16752 0.86083 0.43348
 C98 C 0.18716 0.85074 0.46181
 C99 C 0.21428 0.87565 0.46628
 C100 C 0.20988 0.90059 0.43926
 H101 H 0.18195 0.82733 0.47835
 H102 H 0.22660 0.92390 0.43402
 H103 H 0.11748 0.89050 0.39743
 H104 H 0.14613 0.86044 0.36941
 C105 C 0.09782 0.12580 0.15177
 C106 C 0.07157 0.15292 0.15158
 C107 C 0.07094 0.17907 0.12448
 C108 C 0.09701 0.17854 0.09771
 C109 C 0.12410 0.15229 0.09814
 C110 C 0.12439 0.12561 0.12510
 C111 C 0.09798 0.09887 0.17813
 C112 C 0.12489 0.07239 0.17875
 C113 C 0.15158 0.07260 0.15252
 C114 C 0.15123 0.09874 0.12540
 C115 C 0.17727 0.09847 0.09858
 C116 C 0.17739 0.12532 0.07208
 C117 C 0.15092 0.15227 0.07210
 H118 H 0.05123 0.15339 0.17211
 H119 H 0.09648 0.19895 0.07694
 H120 H 0.07752 0.09883 0.19855
 H121 H 0.17222 0.05199 0.15291
 H122 H 0.19786 0.07780 0.09864
 H123 H 0.15092 0.17283 0.05146
 C124 C 0.40106 0.87418 0.65153
 C125 C 0.42718 0.84693 0.65123
 C126 C 0.42758 0.82060 0.62419
 C127 C 0.40134 0.82124 0.59756
 C128 C 0.37443 0.84770 0.59806
 C129 C 0.37441 0.87447 0.62499
 C130 C 0.40112 0.90115 0.67792
 C131 C 0.37434 0.92777 0.67868
 C132 C 0.34760 0.92769 0.65252
 C133 C 0.34773 0.90151 0.62538
 C134 C 0.32163 0.90188 0.59865
 C135 C 0.32127 0.87497 0.57217
 C136 C 0.34754 0.84783 0.57212
 H137 H 0.44760 0.84652 0.67166
 H138 H 0.40154 0.80074 0.57682
 H139 H 0.42163 0.90109 0.69826
 H140 H 0.32706 0.94840 0.65300
 H141 H 0.30118 0.92269 0.59877
 H142 H 0.34735 0.82720 0.55151
 C143 C 0.90179 0.62580 0.34848
 C144 C 0.92794 0.65303 0.34855
 C145 C 0.92866 0.67917 0.37571
 C146 C 0.90277 0.67852 0.40265
 C147 C 0.87577 0.65216 0.40234
 C148 C 0.87541 0.62547 0.37532
 C149 C 0.90157 0.59887 0.32206
 C150 C 0.87478 0.57225 0.32157
 C151 C 0.84826 0.57233 0.34797
 C152 C 0.84867 0.59847 0.37515
 C153 C 0.82282 0.59810 0.40215
 C154 C 0.82277 0.62495 0.42869
 C155 C 0.84913 0.65201 0.42856
 H156 H 0.94815 0.65357 0.32789
 H157 H 0.90337 0.69892 0.42347
 H158 H 0.92190 0.59892 0.30152
 H159 H 0.82770 0.55162 0.34768
 H160 H 0.80231 0.57734 0.40219
 H161 H 0.84918 0.67259 0.44922
 C162 C 0.59883 0.37569 -0.15186
 C163 C 0.57242 0.34873 -0.15141
 C164 C 0.57198 0.32239 -0.12443
 C165 C 0.59840 0.32279 -0.09797
 C166 C 0.62558 0.34896 -0.09863
 C167 C 0.62571 0.37568 -0.12554
 C168 C 0.59885 0.40266 -0.17819
 C169 C 0.62600 0.42884 -0.17916
 C170 C 0.65300 0.42848 -0.15333
 C171 C 0.65274 0.40239 -0.12615
 C172 C 0.67900 0.40254 -0.09958
 C173 C 0.67918 0.37574 -0.07304
 C174 C 0.65262 0.34887 -0.07284
 H175 H 0.55186 0.34853 -0.17169
 H176 H 0.59814 0.30229 -0.07728
 H177 H 0.57815 0.40296 -0.19834
 H178 H 0.67381 0.44891 -0.15410
 H179 H 0.69968 0.42312 -0.09983
 H180 H 0.65269 0.32831 -0.05220
 N181 N 0.01284 0.25442 0.15236
 C182 C -0.00852 0.25867 0.12346
 N183 N -0.00360 0.23656 0.09492
 N184 N 0.02190 0.21139 0.09513
 C185 C 0.04301 0.20700 0.12414
 N186 N 0.03795 0.22884 0.15281
 N187 N 0.49076 0.75029 0.65396
 C188 C 0.50679 0.74061 0.62297
 N189 N 0.49671 0.75726 0.59238
 N190 N 0.47129 0.78252 0.59273
 C191 C 0.45543 0.79243 0.62375
 N192 N 0.46573 0.77594 0.65438
 N193 N 1.00308 0.73698 0.40515
 C194 C 1.00816 0.75878 0.37644
 N195 N 0.98691 0.75425 0.34750
 N196 N 0.96176 0.72870 0.34715
 C197 C 0.95656 0.70716 0.37597
 N198 N 0.97755 0.71183 0.40503
 N199 N 0.50278 0.25919 -0.09254
 C200 C 0.49243 0.24271 -0.12317
 N201 N 0.50825 0.25250 -0.15420
 N202 N 0.53337 0.27807 -0.15464
 C203 C 0.54395 0.29438 -0.12398
 N204 N 0.52829 0.28437 -0.09290
 N205 N 0.15631 0.00907 0.24787
 C206 C 0.12548 -0.00704 0.25830
 N207 N 0.09446 0.00302 0.24255
 N208 N 0.09423 0.02851 0.21742
 C209 C 0.12510 0.04445 0.20677
 N210 N 0.15616 0.03417 0.22236
 N211 N 0.65549 0.48672 -0.25336
 C212 C 0.62623 0.50762 -0.25922
 N213 N 0.59693 0.50251 -0.23854
 N214 N 0.59678 0.47724 -0.21320
 C215 C 0.62613 0.45659 -0.20721
 N216 N 0.65554 0.46187 -0.22762
 N217 N 0.34320 0.99124 0.74794
 C218 C 0.37416 1.00686 0.75873
 N219 N 0.40517 0.99644 0.74313
 N220 N 0.40526 0.97108 0.71782
 C221 C 0.37427 0.95563 0.70682
 N222 N 0.34323 0.96628 0.72226
 N223 N 0.90525 0.50313 0.25742
 C224 C 0.87422 0.49289 0.24178
 N225 N 0.84334 0.50878 0.25243
 N226 N 0.84348 0.53384 0.27804
 C227 C 0.87455 0.54430 0.29351
 N228 N 0.90545 0.52858 0.28264
 N229 N 0.24057 0.09368 0.00358
 C230 C 0.25654 0.12511 -0.00646
 N231 N 0.24642 0.15660 0.00935
 N232 N 0.22101 0.15671 0.03415
 C233 C 0.20521 0.12524 0.04442
 N234 N 0.21555 0.09371 0.02878
 N235 N 0.75382 0.65608 0.49162
 C236 C 0.74401 0.62461 0.50763
 N237 N 0.76019 0.59324 0.49766
 N238 N 0.78509 0.59331 0.47235
 C239 C 0.79510 0.62482 0.45651
 N240 N 0.77911 0.65622 0.46670
 N241 N 0.74829 0.34449 -0.01046
 C242 C 0.75832 0.37597 0.00544
 N243 N 0.74231 0.40739 -0.00456
 N244 N 0.71734 0.40736 -0.02977
 C245 C 0.70708 0.37583 -0.04548
 N246 N 0.72292 0.34438 -0.03528
 N247 N 0.25822 0.90685 0.50376
 C248 C 0.24203 0.87550 0.49378
 N249 N 0.25195 0.84399 0.50962
 N250 N 0.27737 0.84378 0.53438
 C251 C 0.29339 0.87517 0.54458
 N252 N 0.28326 0.90673 0.52892
   
