data_POSCAR
  _audit_creation_date              2014-09-24
  _audit_creation_method            'ToBaCCo'
  _symmetry_space_group_name_H-M    'P1'
  _symmetry_Int_Tables_number       1
  _symmetry_cell_setting            triclinic
  loop_
  _symmetry_equiv_pos_as_xyz
 x,y,z
_cell_length_a 55.8444
_cell_length_b 55.7704
_cell_length_c 53.2472
_cell_angle_alpha 90.021100
_cell_angle_beta 89.900600
_cell_angle_gamma 87.082800
loop_
  _atom_site_label
  _atom_site_type_symbol
  _atom_site_fract_x
  _atom_site_fract_y
  _atom_site_fract_z
O1 O -0.02022 0.27783 0.02657
 O2 O 0.02612 0.27774 -0.02276
 O3 O -0.02034 0.27481 -0.02220
 O4 O 0.02594 0.28077 0.02616
 O5 O 0.03040 0.24131 0.02873
 O6 O -0.01545 0.23536 -0.02004
 O7 O 0.03084 0.23836 -0.01993
 O8 O -0.01606 0.23835 0.02887
 Cu9 Cu 0.00243 0.28174 0.00163
 Cu10 Cu 0.00785 0.23439 0.00468
 C11 C -0.02606 0.25812 0.03619
 C12 C 0.03653 0.25805 -0.02980
 C13 C -0.02576 0.25408 -0.02946
 C14 C 0.03602 0.26204 0.03579
 O15 O 0.47123 0.77722 0.52084
 O16 O 0.51554 0.77599 0.47008
 O17 O 0.46907 0.77559 0.47187
 O18 O 0.51779 0.77502 0.51893
 O19 O 0.51882 0.73543 0.51897
 O20 O 0.47044 0.73600 0.47257
 O21 O 0.51712 0.73640 0.47012
 O22 O 0.47212 0.73765 0.52145
 Cu23 Cu 0.49326 0.77990 0.49540
 Cu24 Cu 0.49473 0.73242 0.49580
 C25 C 0.46410 0.75783 0.52997
 C26 C 0.52399 0.75615 0.46135
 C27 C 0.46148 0.75575 0.46417
 C28 C 0.52662 0.75499 0.52697
 O29 O 1.02107 0.72356 0.02093
 O30 O 0.97476 0.71760 -0.02747
 O31 O 1.02111 0.72107 -0.02769
 O32 O 0.97458 0.72088 0.02144
 O33 O 0.96988 0.76030 0.01867
 O34 O 1.01618 0.76043 -0.03037
 O35 O 0.96980 0.75703 -0.02979
 O36 O 1.01631 0.76296 0.01868
 Cu37 Cu 0.99832 0.71683 -0.00294
 Cu38 Cu 0.99265 0.76413 -0.00596
 C39 C 1.02672 0.74425 0.02814
 C40 C 0.96427 0.73626 -0.03685
 C41 C 1.02666 0.74083 -0.03749
 C42 C 0.96419 0.74059 0.02837
 O43 O 0.52797 0.21767 0.52971
 O44 O 0.48306 0.21705 0.47970
 O45 O 0.52967 0.21746 0.48082
 O46 O 0.48138 0.21948 0.52855
 O47 O 0.48023 0.25906 0.52715
 O48 O 0.52764 0.25705 0.47955
 O49 O 0.48118 0.25664 0.47857
 O50 O 0.52707 0.25724 0.52857
 Cu51 Cu 0.50568 0.21396 0.50482
 Cu52 Cu 0.50395 0.26146 0.50340
 C53 C 0.53529 0.23742 0.53773
 C54 C 0.47432 0.23661 0.47059
 C55 C 0.53673 0.23705 0.47190
 C56 C 0.47249 0.23975 0.53587
 O57 O 0.72168 -0.02612 0.02364
 O58 O 0.72263 0.01809 -0.02732
 O59 O 0.72309 -0.02839 -0.02532
 O60 O 0.72300 0.02036 0.02150
 O61 O 0.76256 0.01810 0.02140
 O62 O 0.76263 -0.03084 -0.02454
 O63 O 0.76214 0.01583 -0.02723
 O64 O 0.76121 -0.02857 0.02436
 Cu65 Cu 0.71865 -0.00382 -0.00189
 Cu66 Cu 0.76609 -0.00666 -0.00143
 C67 C 0.74116 -0.03489 0.03283
 C68 C 0.74244 0.02463 -0.03610
 C69 C 0.74295 -0.03788 -0.03300
 C70 C 0.74287 0.02767 0.02928
 O71 O 0.21858 0.48710 0.52644
 O72 O 0.21589 0.53014 0.47429
 O73 O 0.21885 0.48352 0.47758
 O74 O 0.21708 0.53368 0.52307
 O75 O 0.25660 0.53316 0.52253
 O76 O 0.25831 0.48407 0.47654
 O77 O 0.25537 0.53076 0.47406
 O78 O 0.25809 0.48638 0.52567
 Cu79 Cu 0.21365 0.50858 0.50042
 Cu80 Cu 0.26106 0.50847 0.49966
 C81 C 0.23869 0.47934 0.53503
 C82 C 0.23507 0.53801 0.46537
 C83 C 0.23897 0.47542 0.46908
 C84 C 0.23663 0.54204 0.53048
 O85 O 0.27797 1.02797 0.02656
 O86 O 0.27687 0.98628 -0.02672
 O87 O 0.27739 1.03267 -0.02221
 O88 O 0.27548 0.98176 0.02193
 O89 O 0.23596 0.98512 0.02143
 O90 O 0.23792 1.03612 -0.02178
 O91 O 0.23735 0.98952 -0.02721
 O92 O 0.23849 1.03141 0.02675
 Cu93 Cu 0.28086 1.00685 -0.00010
 Cu94 Cu 0.23349 1.01087 -0.00024
 C95 C 0.25855 1.03687 0.03591
 C96 C 0.25704 0.98068 -0.03612
 C97 C 0.25789 1.04323 -0.02949
 C98 C 0.25529 0.97472 0.02918
 O99 O 0.78425 0.51693 0.52287
 O100 O 0.78552 0.46945 0.47516
 O101 O 0.78303 0.51615 0.47418
 O102 O 0.78515 0.47006 0.52406
 O103 O 0.74560 0.47137 0.52487
 O104 O 0.74352 0.51604 0.47433
 O105 O 0.74603 0.46941 0.47597
 O106 O 0.74470 0.51790 0.52327
 Cu107 Cu 0.78845 0.49306 0.49905
 Cu108 Cu 0.74101 0.49373 0.49966
 C109 C 0.76434 0.52567 0.53116
 C110 C 0.76609 0.46126 0.46735
 C111 C 0.76282 0.52384 0.46564
 C112 C 0.76563 0.46298 0.53309
 C113 C 0.24115 0.25870 0.25798
 C114 C 0.25814 0.24030 0.25934
 C115 C 0.25747 0.21915 0.24239
 C116 C 0.27837 0.24103 0.27732
 C117 C 0.23913 0.27759 0.27764
 C118 C 0.22371 0.26055 0.23694
 C119 C 0.23683 0.20586 0.24090
 C120 C 0.23531 0.18754 0.22315
 C121 C 0.25445 0.18207 0.20655
 C122 C 0.27548 0.19480 0.20883
 C123 C 0.27701 0.21305 0.22668
 C124 C 0.28297 0.22209 0.29421
 C125 C 0.30142 0.22325 0.31182
 C126 C 0.31574 0.24329 0.31267
 C127 C 0.31144 0.26192 0.29523
 C128 C 0.29300 0.26076 0.27769
 C129 C 0.24019 0.30186 0.27105
 C130 C 0.23844 0.31968 0.28952
 C131 C 0.23514 0.31354 0.31485
 C132 C 0.23368 0.28924 0.32135
 C133 C 0.23572 0.27141 0.30291
 C134 C 0.23159 0.25894 0.21190
 C135 C 0.21506 0.25893 0.19229
 C136 C 0.19037 0.26119 0.19732
 C137 C 0.18251 0.26397 0.22227
 C138 C 0.19906 0.26362 0.24194
 H139 H 0.22168 0.21005 0.25316
 H140 H 0.21908 0.17776 0.22232
 H141 H 0.29047 0.19124 0.19622
 H142 H 0.29308 0.22311 0.22753
 H143 H 0.27191 0.20669 0.29414
 H144 H 0.30413 0.20870 0.32514
 H145 H 0.29004 0.27533 0.26442
 H146 H 0.24266 0.30695 0.25162
 H147 H 0.23937 0.33829 0.28401
 H148 H 0.23127 0.28403 0.34075
 H149 H 0.23458 0.25278 0.30830
 H150 H 0.25056 0.25729 0.20758
 H151 H 0.22155 0.25719 0.17316
 H152 H 0.16354 0.26569 0.22660
 H153 H 0.19261 0.26508 0.26110
 H154 H 0.32246 0.27734 0.29502
 C155 C 0.75786 0.73550 0.24947
 C156 C 0.74034 0.75344 0.24957
 C157 C 0.74139 0.77446 0.23252
 C158 C 0.71942 0.75255 0.26675
 C159 C 0.75921 0.71703 0.26953
 C160 C 0.77670 0.73363 0.22969
 C161 C 0.76183 0.78810 0.23178
 C162 C 0.76349 0.80671 0.21441
 C163 C 0.74468 0.81218 0.19750
 C164 C 0.72387 0.79901 0.19892
 C165 C 0.72220 0.78043 0.21636
 C166 C 0.71398 0.77150 0.28345
 C167 C 0.69519 0.77000 0.30069
 C168 C 0.68136 0.74960 0.30138
 C169 C 0.68643 0.73099 0.28406
 C170 C 0.70521 0.73249 0.26687
 C171 C 0.75885 0.69262 0.26330
 C172 C 0.76057 0.67514 0.28209
 C173 C 0.76314 0.68180 0.30736
 C174 C 0.76373 0.70626 0.31352
 C175 C 0.76172 0.72374 0.29476
 C176 C 0.77062 0.73481 0.20411
 C177 C 0.78849 0.73327 0.18572
 C178 C 0.81271 0.72993 0.19255
 C179 C 0.81873 0.72810 0.21809
 C180 C 0.80089 0.72997 0.23649
 H181 H 0.77666 0.78406 0.24443
 H182 H 0.77954 0.81682 0.21420
 H183 H 0.70914 0.80258 0.18604
 H184 H 0.70627 0.77014 0.21667
 H185 H 0.72472 0.78713 0.28360
 H186 H 0.69191 0.78455 0.31392
 H187 H 0.70884 0.71788 0.25378
 H188 H 0.75710 0.68715 0.24390
 H189 H 0.76031 0.65639 0.27685
 H190 H 0.76555 0.71184 0.33288
 H191 H 0.76233 0.74250 0.29985
 H192 H 0.75204 0.73689 0.19838
 H193 H 0.78338 0.73436 0.16612
 H194 H 0.83729 0.72567 0.22383
 H195 H 0.80599 0.72885 0.25609
 H196 H 0.67581 0.71528 0.28372
 C197 C 0.74619 0.23051 0.25337
 C198 C 0.76321 0.24715 0.25344
 C199 C 0.78322 0.24642 0.23499
 C200 C 0.76225 0.26709 0.27194
 C201 C 0.72841 0.22940 0.27404
 C202 C 0.74421 0.21276 0.23274
 C203 C 0.79823 0.22565 0.23202
 C204 C 0.81654 0.22490 0.21406
 C205 C 0.82024 0.24494 0.19873
 C206 C 0.80540 0.26586 0.20213
 C207 C 0.78720 0.26663 0.22019
 C208 C 0.78167 0.27029 0.28801
 C209 C 0.78040 0.28843 0.30616
 C210 C 0.75975 0.30385 0.30835
 C211 C 0.74058 0.30093 0.29173
 C212 C 0.74184 0.28276 0.27367
 C213 C 0.70383 0.23172 0.26868
 C214 C 0.68696 0.23050 0.28797
 C215 C 0.69441 0.22653 0.31289
 C216 C 0.71904 0.22387 0.31816
 C217 C 0.73592 0.22535 0.29889
 C218 C 0.74382 0.22003 0.20747
 C219 C 0.74141 0.20321 0.18833
 C220 C 0.73871 0.17894 0.19414
 C221 C 0.73866 0.17175 0.21940
 C222 C 0.74143 0.18850 0.23851
 H223 H 0.79571 0.21000 0.24359
 H224 H 0.82792 0.20869 0.21231
 H225 H 0.80750 0.28150 0.19046
 H226 H 0.77580 0.28282 0.22221
 H227 H 0.79757 0.25837 0.28689
 H228 H 0.79538 0.29005 0.31882
 H229 H 0.72686 0.28084 0.26107
 H230 H 0.69774 0.23467 0.24958
 H231 H 0.66807 0.23235 0.28339
 H232 H 0.72523 0.22093 0.33723
 H233 H 0.75484 0.22323 0.30329
 H234 H 0.74514 0.23876 0.20258
 H235 H 0.74118 0.20921 0.16898
 H236 H 0.73677 0.15310 0.22432
 H237 H 0.74150 0.18250 0.25786
 H238 H 0.72465 0.31281 0.29257
 C239 C 0.25431 0.76100 0.24304
 C240 C 0.23663 0.74508 0.24427
 C241 C 0.21855 0.74371 0.22399
 C242 C 0.23492 0.72787 0.26544
 C243 C 0.27354 0.76170 0.26220
 C244 C 0.25527 0.77889 0.22252
 C245 C 0.19421 0.74863 0.22936
 C246 C 0.17707 0.74780 0.21031
 C247 C 0.18397 0.74157 0.18567
 C248 C 0.20835 0.73627 0.18043
 C249 C 0.22551 0.73742 0.19942
 C250 C 0.23494 0.73571 0.29053
 C251 C 0.23521 0.71909 0.31018
 C252 C 0.23483 0.69439 0.30511
 C253 C 0.23369 0.68666 0.28005
 C254 C 0.23377 0.70325 0.26040
 C255 C 0.28880 0.74148 0.26713
 C256 C 0.30677 0.74253 0.28531
 C257 C 0.30990 0.76388 0.29876
 C258 C 0.29470 0.78414 0.29352
 C259 C 0.27682 0.78307 0.27534
 C260 C 0.27587 0.77953 0.20752
 C261 C 0.27749 0.79689 0.18880
 C262 C 0.25860 0.81412 0.18491
 C263 C 0.23792 0.81338 0.19998
 C264 C 0.23630 0.79594 0.21866
 H265 H 0.18854 0.75340 0.24825
 H266 H 0.15838 0.75171 0.21488
 H267 H 0.21414 0.73152 0.16157
 H268 H 0.24423 0.73337 0.19502
 H269 H 0.23514 0.75466 0.29488
 H270 H 0.23569 0.72551 0.32936
 H271 H 0.23360 0.69681 0.24121
 H272 H 0.28682 0.72494 0.25685
 H273 H 0.31842 0.72674 0.28859
 H274 H 0.29638 0.80074 0.30376
 H275 H 0.26523 0.79887 0.27176
 H276 H 0.29070 0.76652 0.21030
 H277 H 0.29350 0.79675 0.17729
 H278 H 0.22324 0.82664 0.19775
 H279 H 0.22045 0.79601 0.23042
 H280 H 0.23348 0.66772 0.27563
 C281 C 0.76953 0.25091 0.74835
 C282 C 0.75222 0.23461 0.74785
 C283 C 0.73207 0.23682 0.72973
 C284 C 0.75261 0.21418 0.76576
 C285 C 0.78690 0.25157 0.76930
 C286 C 0.77158 0.26921 0.72836
 C287 C 0.71762 0.25812 0.72825
 C288 C 0.69903 0.26037 0.71076
 C289 C 0.69441 0.24128 0.69451
 C290 C 0.70865 0.21980 0.69638
 C291 C 0.72723 0.21756 0.71392
 C292 C 0.73294 0.21091 0.78155
 C293 C 0.73376 0.19247 0.79935
 C294 C 0.75419 0.17674 0.80150
 C295 C 0.77360 0.17971 0.78510
 C296 C 0.77281 0.19822 0.76742
 C297 C 0.81159 0.24929 0.76442
 C298 C 0.82802 0.25017 0.78411
 C299 C 0.81999 0.25380 0.80891
 C300 C 0.79525 0.25632 0.81370
 C301 C 0.77883 0.25516 0.79406
 C302 C 0.77452 0.26234 0.70314
 C303 C 0.77652 0.27971 0.68444
 C304 C 0.77547 0.30422 0.69068
 C305 C 0.77271 0.31103 0.71597
 C306 C 0.77098 0.29365 0.73467
 H307 H 0.72075 0.27301 0.74068
 H308 H 0.68810 0.27695 0.71016
 H309 H 0.70573 0.20485 0.68396
 H310 H 0.73814 0.20097 0.71483
 H311 H 0.71720 0.22306 0.78054
 H312 H 0.71861 0.19090 0.81185
 H313 H 0.78801 0.20022 0.75507
 H314 H 0.81809 0.24667 0.74539
 H315 H 0.84702 0.24844 0.77992
 H316 H 0.78864 0.25902 0.83268
 H317 H 0.75982 0.25725 0.79809
 H318 H 0.77530 0.24352 0.69798
 H319 H 0.77851 0.27402 0.66507
 H320 H 0.77211 0.32980 0.72127
 H321 H 0.76886 0.29927 0.75405
 H322 H 0.78939 0.16764 0.78586
 C323 C 0.23122 0.75751 0.74273
 C324 C 0.24959 0.77269 0.74334
 C325 C 0.27071 0.76930 0.72648
 C326 C 0.24929 0.79324 0.76117
 C327 C 0.21235 0.75858 0.76238
 C328 C 0.22933 0.73868 0.72309
 C329 C 0.28400 0.74726 0.72558
 C330 C 0.30300 0.74378 0.70862
 C331 C 0.30917 0.76234 0.69234
 C332 C 0.29622 0.78462 0.69384
 C333 C 0.27728 0.78809 0.71085
 C334 C 0.26812 0.79544 0.77827
 C335 C 0.26718 0.81388 0.79612
 C336 C 0.24746 0.83062 0.79706
 C337 C 0.22899 0.82877 0.77935
 C338 C 0.22993 0.81032 0.76155
 C339 C 0.18826 0.76301 0.75571
 C340 C 0.17039 0.76364 0.77413
 C341 C 0.17634 0.75938 0.79943
 C342 C 0.20049 0.75477 0.80601
 C343 C 0.21836 0.75444 0.78764
 C344 C 0.23144 0.74417 0.69744
 C345 C 0.22970 0.72623 0.67927
 C346 C 0.22519 0.70262 0.68637
 C347 C 0.22252 0.69728 0.71196
 C348 C 0.22461 0.71511 0.73012
 H349 H 0.27949 0.73266 0.73785
 H350 H 0.31289 0.72658 0.70831
 H351 H 0.30030 0.79921 0.68139
 H352 H 0.26726 0.80524 0.71130
 H353 H 0.28322 0.78245 0.77825
 H354 H 0.28160 0.81463 0.80961
 H355 H 0.21543 0.80921 0.74819
 H356 H 0.18334 0.76607 0.73627
 H357 H 0.15188 0.76699 0.76859
 H358 H 0.20551 0.75155 0.82541
 H359 H 0.23688 0.75074 0.79303
 H360 H 0.23437 0.76234 0.69147
 H361 H 0.23150 0.73087 0.65963
 H362 H 0.21922 0.67918 0.71794
 H363 H 0.22279 0.71044 0.74975
 H364 H 0.21380 0.84164 0.77920
 C365 C 0.26627 0.25501 0.75785
 C366 C 0.24906 0.27327 0.75751
 C367 C 0.25003 0.29339 0.73930
 C368 C 0.22827 0.27378 0.77502
 C369 C 0.26729 0.23645 0.77800
 C370 C 0.28489 0.25236 0.73785
 C371 C 0.27047 0.30696 0.73745
 C372 C 0.27163 0.32509 0.71943
 C373 C 0.25231 0.33011 0.70302
 C374 C 0.23166 0.31685 0.70537
 C375 C 0.23049 0.29877 0.72342
 C376 C 0.22326 0.29397 0.79020
 C377 C 0.20428 0.29429 0.80737
 C378 C 0.18977 0.27448 0.80951
 C379 C 0.19448 0.25453 0.79376
 C380 C 0.21348 0.25422 0.77663
 C381 C 0.27028 0.21207 0.77153
 C382 C 0.27215 0.19447 0.79015
 C383 C 0.27083 0.20091 0.81560
 C384 C 0.26784 0.22526 0.82216
 C385 C 0.26644 0.24292 0.80352
 C386 C 0.27848 0.25212 0.71234
 C387 C 0.29606 0.24889 0.69379
 C388 C 0.32031 0.24528 0.70042
 C389 C 0.32667 0.24516 0.72592
 C390 C 0.30913 0.24872 0.74445
 H391 H 0.28558 0.30336 0.74985
 H392 H 0.28761 0.33526 0.71844
 H393 H 0.21658 0.32003 0.69284
 H394 H 0.21457 0.28851 0.72456
 H395 H 0.23441 0.30927 0.78917
 H396 H 0.20133 0.30982 0.81938
 H397 H 0.21676 0.23866 0.76469
 H398 H 0.27113 0.20664 0.75200
 H399 H 0.27430 0.17578 0.78467
 H400 H 0.26705 0.23062 0.84171
 H401 H 0.26487 0.26162 0.80902
 H402 H 0.25983 0.25416 0.70682
 H403 H 0.29069 0.24873 0.67426
 H404 H 0.34527 0.24257 0.73150
 H405 H 0.31445 0.24866 0.76401
 H406 H 0.18336 0.23920 0.79456
 C407 C 0.73419 0.75467 0.74745
 C408 C 0.75047 0.73572 0.74951
 C409 C 0.75166 0.71631 0.73047
 C410 C 0.76813 0.73376 0.77041
 C411 C 0.73363 0.77504 0.76534
 C412 C 0.71583 0.75596 0.72729
 C413 C 0.74728 0.69274 0.73758
 C414 C 0.74704 0.67455 0.71954
 C415 C 0.75158 0.67960 0.69417
 C416 C 0.75662 0.70313 0.68722
 C417 C 0.75662 0.72135 0.70523
 C418 C 0.76080 0.73589 0.79561
 C419 C 0.77778 0.73593 0.81487
 C420 C 0.80239 0.73320 0.80934
 C421 C 0.80963 0.72991 0.78424
 C422 C 0.79266 0.73022 0.76497
 C423 C 0.75378 0.78868 0.76890
 C424 C 0.75312 0.80733 0.78645
 C425 C 0.73223 0.81276 0.80058
 C426 C 0.71194 0.79937 0.79650
 C427 C 0.71261 0.78077 0.77896
 C428 C 0.71434 0.77588 0.71119
 C429 C 0.69687 0.77765 0.69246
 C430 C 0.68039 0.75961 0.68959
 C431 C 0.68184 0.73972 0.70588
 C432 C 0.69934 0.73797 0.72462
 H433 H 0.74353 0.68856 0.75701
 H434 H 0.74341 0.65650 0.72542
 H435 H 0.76006 0.70751 0.66778
 H436 H 0.76023 0.73945 0.69948
 H437 H 0.74194 0.73796 0.80034
 H438 H 0.77172 0.73809 0.83410
 H439 H 0.79872 0.72838 0.74570
 H440 H 0.77002 0.78477 0.75819
 H441 H 0.76890 0.81760 0.78888
 H442 H 0.69569 0.80290 0.80729
 H443 H 0.69688 0.77045 0.77639
 H444 H 0.72686 0.78998 0.71304
 H445 H 0.69643 0.79302 0.68003
 H446 H 0.66916 0.72574 0.70445
 H447 H 0.69988 0.72271 0.73722
 H448 H 0.82848 0.72788 0.77944
 C449 C 0.28162 0.05818 0.06705
 C450 C 0.28267 0.07402 0.08729
 C451 C 0.26172 0.08503 0.09726
 C452 C 0.23946 0.07981 0.08686
 C453 C 0.23831 0.06378 0.06669
 C454 C 0.25942 0.05279 0.05639
 N455 N 0.26370 0.10145 0.11777
 N456 N 0.24579 0.11372 0.12664
 C457 C 0.24820 0.13016 0.14710
 C458 C 0.22841 0.14501 0.15423
 C459 C 0.23036 0.16172 0.17362
 C460 C 0.25220 0.16375 0.18645
 C461 C 0.27196 0.14853 0.17945
 C462 C 0.27002 0.13195 0.15994
 H463 H 0.29831 0.05015 0.05983
 H464 H 0.29992 0.07788 0.09515
 H465 H 0.22299 0.08808 0.09432
 H466 H 0.22088 0.06015 0.05910
 H467 H 0.21152 0.14389 0.14445
 H468 H 0.21490 0.17342 0.17819
 H469 H 0.28893 0.14934 0.18915
 H470 H 0.28556 0.12055 0.15490
 C471 C 0.78523 0.55708 0.55500
 C472 C 0.78529 0.57533 0.57296
 C473 C 0.76451 0.58170 0.58657
 C474 C 0.74340 0.56979 0.58182
 C475 C 0.74323 0.55169 0.56362
 C476 C 0.76420 0.54506 0.55012
 N477 N 0.76542 0.60029 0.60504
 N478 N 0.74820 0.60525 0.62015
 C479 C 0.74936 0.62400 0.63842
 C480 C 0.73125 0.62667 0.65655
 C481 C 0.73203 0.64464 0.67479
 C482 C 0.75086 0.66043 0.67498
 C483 C 0.76891 0.65787 0.65663
 C484 C 0.76825 0.63974 0.63856
 H485 H 0.80164 0.55249 0.54484
 H486 H 0.80164 0.58442 0.57642
 H487 H 0.72708 0.57450 0.59207
 H488 H 0.72677 0.54272 0.56030
 H489 H 0.71657 0.61471 0.65659
 H490 H 0.71775 0.64641 0.68857
 H491 H 0.78370 0.66970 0.65647
 H492 H 0.78244 0.63807 0.62470
 C493 C 0.71817 0.94252 0.06465
 C494 C 0.71706 0.92581 0.08409
 C495 C 0.73789 0.91358 0.09277
 C496 C 0.76008 0.91840 0.08186
 C497 C 0.76126 0.93527 0.06245
 C498 C 0.74027 0.94744 0.05356
 N499 N 0.73584 0.89633 0.11250
 N500 N 0.75365 0.88343 0.12056
 C501 C 0.75113 0.86616 0.14023
 C502 C 0.77097 0.85125 0.14699
 C503 C 0.76895 0.83384 0.16567
 C504 C 0.74697 0.83113 0.17809
 C505 C 0.72713 0.84635 0.17143
 C506 C 0.72916 0.86367 0.15266
 H507 H 0.70167 0.95161 0.05834
 H508 H 0.69986 0.92226 0.09235
 H509 H 0.77646 0.90918 0.08830
 H510 H 0.77855 0.93865 0.05431
 H511 H 0.78798 0.85292 0.13751
 H512 H 0.78448 0.82219 0.17003
 H513 H 0.71006 0.84499 0.18085
 H514 H 0.71357 0.87507 0.14789
 C515 C 0.21783 0.45654 0.56829
 C516 C 0.21809 0.44026 0.58820
 C517 C 0.23963 0.42902 0.59631
 C518 C 0.26117 0.43440 0.58434
 C519 C 0.26098 0.45085 0.56445
 C520 C 0.23926 0.46204 0.55616
 N521 N 0.23894 0.41221 0.61659
 N522 N 0.25739 0.40005 0.62427
 C523 C 0.25600 0.38323 0.64452
 C524 C 0.27630 0.36875 0.65079
 C525 C 0.27523 0.35165 0.66993
 C526 C 0.25376 0.34884 0.68326
 C527 C 0.23352 0.36372 0.67717
 C528 C 0.23459 0.38071 0.65797
 H529 H 0.20080 0.46487 0.56246
 H530 H 0.20139 0.43627 0.59729
 H531 H 0.27808 0.42593 0.59034
 H532 H 0.27778 0.45471 0.55549
 H533 H 0.29290 0.37047 0.64055
 H534 H 0.29106 0.34027 0.67390
 H535 H 0.21684 0.36233 0.68734
 H536 H 0.21867 0.39180 0.65363
 C537 C 0.94682 0.28006 0.06699
 C538 C 0.92957 0.28026 0.08604
 C539 C 0.92045 0.25881 0.09451
 C540 C 0.92889 0.23696 0.08374
 C541 C 0.94630 0.23670 0.06480
 C542 C 0.95543 0.25827 0.05618
 N543 N 0.90275 0.25978 0.11406
 N544 N 0.89222 0.24130 0.12137
 C545 C 0.87463 0.24250 0.14103
 C546 C 0.86179 0.22219 0.14630
 C547 C 0.84421 0.22291 0.16506
 C548 C 0.83928 0.24399 0.17909
 C549 C 0.85247 0.26427 0.17394
 C550 C 0.86990 0.26357 0.15504
 H551 H 0.95353 0.29697 0.06085
 H552 H 0.92323 0.29720 0.09421
 H553 H 0.92213 0.22012 0.09002
 H554 H 0.95255 0.21963 0.05685
 H555 H 0.86522 0.20585 0.13561
 H556 H 0.83417 0.20709 0.16824
 H557 H 0.84946 0.28065 0.18465
 H558 H 0.87973 0.27946 0.15147
 C559 C 0.44049 0.78121 0.56243
 C560 C 0.42369 0.78279 0.58186
 C561 C 0.41228 0.76244 0.58989
 C562 C 0.41807 0.74018 0.57840
 C563 C 0.43509 0.73850 0.55900
 C564 C 0.44637 0.75907 0.55072
 N565 N 0.39479 0.76513 0.60952
 N566 N 0.38220 0.74809 0.61692
 C567 C 0.36467 0.75165 0.63646
 C568 C 0.34960 0.73313 0.64226
 C569 C 0.33173 0.73646 0.66058
 C570 C 0.32872 0.75842 0.67354
 C571 C 0.34421 0.77681 0.66797
 C572 C 0.36195 0.77350 0.64958
 H573 H 0.44890 0.79738 0.55663
 H574 H 0.41938 0.80002 0.59059
 H575 H 0.40947 0.72417 0.58436
 H576 H 0.43924 0.72121 0.55035
 H577 H 0.35145 0.71623 0.63226
 H578 H 0.31992 0.72204 0.66416
 H579 H 0.34267 0.79377 0.67788
 H580 H 0.37348 0.78806 0.64560
 C581 C 0.05020 0.76901 0.05600
 C582 C 0.06786 0.77093 0.07441
 C583 C 0.08051 0.75044 0.08347
 C584 C 0.07508 0.72781 0.07411
 C585 C 0.05721 0.72577 0.05599
 C586 C 0.04454 0.74636 0.04656
 N587 N 0.09854 0.75300 0.10229
 N588 N 0.11303 0.73564 0.10845
 C589 C 0.13079 0.73778 0.12761
 C590 C 0.14840 0.71923 0.13058
 C591 C 0.16586 0.72058 0.14924
 C592 C 0.16575 0.74040 0.16554
 C593 C 0.14799 0.75897 0.16262
 C594 C 0.13072 0.75776 0.14371
 H595 H 0.04089 0.78529 0.04935
 H596 H 0.07183 0.78848 0.08152
 H597 H 0.08451 0.71167 0.08093
 H598 H 0.05349 0.70800 0.04929
 H599 H 0.14859 0.70370 0.11836
 H600 H 0.17922 0.70593 0.15124
 H601 H 0.14761 0.77452 0.17484
 H602 H 0.11723 0.77228 0.14183
 C603 C 0.56014 0.21531 0.57005
 C604 C 0.57766 0.21451 0.58871
 C605 C 0.58909 0.23525 0.59547
 C606 C 0.58258 0.25709 0.58353
 C607 C 0.56487 0.25798 0.56489
 C608 C 0.55357 0.23702 0.55785
 N609 N 0.60735 0.23339 0.61431
 N610 N 0.61976 0.25091 0.62063
 C611 C 0.63804 0.24831 0.63945
 C612 C 0.65223 0.26766 0.64461
 C613 C 0.67051 0.26545 0.66252
 C614 C 0.67484 0.24377 0.67566
 C615 C 0.66039 0.22444 0.67056
 C616 C 0.64220 0.22665 0.65261
 H617 H 0.55174 0.19886 0.56518
 H618 H 0.58251 0.19760 0.59781
 H619 H 0.59118 0.27339 0.58851
 H620 H 0.56021 0.27495 0.55583
 H621 H 0.64926 0.28442 0.63455
 H622 H 0.68151 0.28058 0.66576
 H623 H 0.66299 0.20764 0.68062
 H624 H 0.63140 0.21144 0.64907
 C625 C 0.72056 0.05079 0.93404
 C626 C 0.72034 0.06780 0.91480
 C627 C 0.74177 0.07628 0.90559
 C628 C 0.76366 0.06733 0.91571
 C629 C 0.76398 0.05011 0.93487
 C630 C 0.74239 0.04167 0.94441
 N631 N 0.74065 0.09400 0.88610
 N632 N 0.75911 0.10411 0.87809
 C633 C 0.75757 0.12186 0.85861
 C634 C 0.77801 0.13407 0.85234
 C635 C 0.77696 0.15183 0.83378
 C636 C 0.75540 0.15758 0.82097
 C637 C 0.73495 0.14505 0.82715
 C638 C 0.73600 0.12741 0.84582
 H639 H 0.70353 0.04481 0.94071
 H640 H 0.70336 0.07456 0.90712
 H641 H 0.78049 0.07359 0.90882
 H642 H 0.78115 0.04358 0.94228
 H643 H 0.79473 0.13002 0.86209
 H644 H 0.79295 0.16136 0.82980
 H645 H 0.71817 0.14873 0.81739
 H646 H 0.71996 0.11811 0.85020
 C647 C 0.21242 0.55933 0.43082
 C648 C 0.21075 0.57653 0.41175
 C649 C 0.23001 0.59085 0.40664
 C650 C 0.25129 0.58746 0.42054
 C651 C 0.25312 0.56999 0.43939
 C652 C 0.23361 0.55589 0.44486
 N653 N 0.22746 0.60858 0.38725
 N654 N 0.24257 0.62463 0.38408
 C655 C 0.24001 0.64210 0.36442
 C656 C 0.25526 0.66125 0.36402
 C657 C 0.25331 0.67850 0.34499
 C658 C 0.23623 0.67665 0.32581
 C659 C 0.22097 0.65739 0.32621
 C660 C 0.22273 0.64032 0.34542
 H661 H 0.19713 0.54866 0.43451
 H662 H 0.19430 0.57891 0.40110
 H663 H 0.26648 0.59824 0.41680
 H664 H 0.26965 0.56778 0.44994
 H665 H 0.26868 0.66279 0.37851
 H666 H 0.26547 0.69303 0.34494
 H667 H 0.20758 0.65563 0.31172
 H668 H 0.21077 0.62564 0.34529
 C669 C 0.27896 0.95577 0.93124
 C670 C 0.27939 0.93925 0.91151
 C671 C 0.25813 0.93010 0.90269
 C672 C 0.23619 0.93793 0.91371
 C673 C 0.23571 0.95461 0.93343
 C674 C 0.25714 0.96359 0.94252
 N675 N 0.25951 0.91273 0.88283
 N676 N 0.24124 0.90258 0.87447
 C677 C 0.24313 0.88504 0.85474
 C678 C 0.22259 0.87363 0.84722
 C679 C 0.22394 0.85608 0.82843
 C680 C 0.24595 0.84965 0.81670
 C681 C 0.26653 0.86131 0.82417
 C682 C 0.26516 0.87882 0.84301
 H683 H 0.29579 0.96235 0.93770
 H684 H 0.29639 0.93338 0.90317
 H685 H 0.21950 0.93112 0.90717
 H686 H 0.21862 0.96025 0.94172
 H687 H 0.20552 0.87818 0.85615
 H688 H 0.20782 0.84721 0.82342
 H689 H 0.28368 0.85705 0.81530
 H690 H 0.28131 0.88744 0.84839
 C691 C 0.78898 0.43466 0.43690
 C692 C 0.78995 0.41684 0.41846
 C693 C 0.76909 0.40612 0.41082
 C694 C 0.74702 0.41347 0.42185
 C695 C 0.74598 0.43141 0.44026
 C696 C 0.76697 0.44219 0.44799
 N697 N 0.77088 0.38797 0.39181
 N698 N 0.75293 0.37659 0.38464
 C699 C 0.75503 0.35856 0.36549
 C700 C 0.73499 0.34564 0.35950
 C701 C 0.73650 0.32787 0.34098
 C702 C 0.75814 0.32278 0.32799
 C703 C 0.77821 0.33588 0.33400
 C704 C 0.77670 0.35358 0.35260
 H705 H 0.80547 0.44262 0.44238
 H706 H 0.80704 0.41134 0.41008
 H707 H 0.73063 0.40544 0.41620
 H708 H 0.72878 0.43680 0.44844
 H709 H 0.71821 0.34927 0.36935
 H710 H 0.72081 0.31787 0.33707
 H711 H 0.79503 0.33266 0.32411
 H712 H 0.79243 0.36342 0.35679
 C713 C 0.06644 0.23637 0.94392
 C714 C 0.08426 0.23634 0.92544
 C715 C 0.09034 0.25777 0.91403
 C716 C 0.07839 0.27943 0.92135
 C717 C 0.06063 0.27955 0.93993
 C718 C 0.05437 0.25800 0.95150
 N719 N 0.10880 0.25701 0.89526
 N720 N 0.11445 0.27560 0.88319
 C721 C 0.13311 0.27480 0.86464
 C722 C 0.13757 0.29567 0.85121
 C723 C 0.15581 0.29557 0.83318
 C724 C 0.17003 0.27452 0.82831
 C725 C 0.16545 0.25356 0.84182
 C726 C 0.14715 0.25367 0.85978
 H727 H 0.06225 0.21938 0.95229
 H728 H 0.09336 0.21953 0.91997
 H729 H 0.08282 0.29625 0.91282
 H730 H 0.05183 0.29659 0.94515
 H731 H 0.12684 0.31205 0.85473
 H732 H 0.15863 0.31193 0.82289
 H733 H 0.17630 0.23715 0.83884
 H734 H 0.14414 0.23731 0.87001
 C735 C 0.54732 0.77823 0.42950
 C736 C 0.56454 0.77885 0.41053
 C737 C 0.57688 0.75777 0.40261
 C738 C 0.57159 0.73578 0.41372
 C739 C 0.55420 0.73509 0.43269
 C740 C 0.54198 0.75637 0.44088
 N741 N 0.59479 0.75942 0.38349
 N742 N 0.60779 0.74143 0.37597
 C743 C 0.62574 0.74375 0.35695
 C744 C 0.64040 0.72365 0.35035
 C745 C 0.65839 0.72549 0.33225
 C746 C 0.66198 0.74756 0.32033
 C747 C 0.64707 0.76768 0.32688
 C748 C 0.62914 0.76582 0.34503
 H749 H 0.53821 0.79494 0.43527
 H750 H 0.56845 0.79588 0.40209
 H751 H 0.58091 0.71923 0.40785
 H752 H 0.55050 0.71799 0.44109
 H753 H 0.63803 0.70657 0.35945
 H754 H 0.66978 0.70974 0.32791
 H755 H 0.64912 0.78483 0.31782
 H756 H 0.61797 0.78163 0.34971
 C757 C 0.94278 0.71166 0.93178
 C758 C 0.92485 0.70926 0.91377
 C759 C 0.90900 0.72868 0.90792
 C760 C 0.91148 0.75079 0.92009
 C761 C 0.92961 0.75332 0.93785
 C762 C 0.94538 0.73374 0.94398
 N763 N 0.89078 0.72556 0.88944
 N764 N 0.87381 0.74127 0.88575
 C765 C 0.85585 0.73842 0.86693
 C766 C 0.83610 0.75488 0.86605
 C767 C 0.81848 0.75292 0.84764
 C768 C 0.82051 0.73455 0.82955
 C769 C 0.84034 0.71801 0.83048
 C770 C 0.85781 0.71983 0.84909
 H771 H 0.95470 0.69628 0.93601
 H772 H 0.92319 0.69216 0.90447
 H773 H 0.89952 0.76611 0.91578
 H774 H 0.93111 0.77053 0.94698
 H775 H 0.83442 0.76934 0.87962
 H776 H 0.80354 0.76608 0.84717
 H777 H 0.84226 0.70361 0.81685
 H778 H 0.87294 0.70691 0.84935
 C779 C 0.45013 0.21378 0.44011
 C780 C 0.43257 0.21286 0.42156
 C781 C 0.42039 0.23388 0.41326
 C782 C 0.42616 0.25607 0.42356
 C783 C 0.44385 0.25705 0.44207
 C784 C 0.45595 0.23588 0.45063
 N785 N 0.40222 0.23208 0.39451
 N786 N 0.38945 0.25018 0.38694
 C787 C 0.37127 0.24806 0.36823
 C788 C 0.35702 0.26841 0.36163
 C789 C 0.33898 0.26689 0.34362
 C790 C 0.33495 0.24489 0.33178
 C791 C 0.34937 0.22448 0.33841
 C792 C 0.36735 0.22602 0.35648
 H793 H 0.45914 0.19715 0.44622
 H794 H 0.42830 0.19567 0.41373
 H795 H 0.41699 0.27259 0.41738
 H796 H 0.44791 0.27433 0.44981
 H797 H 0.35980 0.28547 0.37061
 H798 H 0.32796 0.28286 0.33923
 H799 H 0.34695 0.20736 0.32941
 H800 H 0.37821 0.21002 0.36119
 C801 C 0.76491 0.93006 0.94190
 C802 C 0.76551 0.91240 0.92329
 C803 C 0.74469 0.90741 0.91018
 C804 C 0.72300 0.92004 0.91615
 C805 C 0.72232 0.93759 0.93491
 C806 C 0.74332 0.94291 0.94785
 N807 N 0.74612 0.88955 0.89086
 N808 N 0.72842 0.88549 0.87676
 C809 C 0.72995 0.86752 0.85755
 C810 C 0.71022 0.86480 0.84187
 C811 C 0.71104 0.84724 0.82313
 C812 C 0.73166 0.83200 0.81986
 C813 C 0.75152 0.83488 0.83556
 C814 C 0.75070 0.85250 0.85423
 H815 H 0.78138 0.93368 0.95158
 H816 H 0.78230 0.90273 0.91888
 H817 H 0.70663 0.91640 0.90630
 H818 H 0.70544 0.94722 0.93905
 H819 H 0.69418 0.87633 0.84420
 H820 H 0.69557 0.84569 0.81112
 H821 H 0.76751 0.82319 0.83377
 H822 H 0.76617 0.85421 0.86620
 C823 C 0.26134 0.45065 0.43669
 C824 C 0.26240 0.43260 0.41848
 C825 C 0.24239 0.41928 0.41359
 C826 C 0.22105 0.42433 0.42707
 C827 C 0.21986 0.44262 0.44511
 C828 C 0.24003 0.45594 0.45015
 N829 N 0.24423 0.40100 0.39467
 N830 N 0.22798 0.38617 0.39116
 C831 C 0.23004 0.36822 0.37189
 C832 C 0.21358 0.35013 0.37132
 C833 C 0.21528 0.33225 0.35288
 C834 C 0.23332 0.33242 0.33445
 C835 C 0.24969 0.35074 0.33490
 C836 C 0.24816 0.36842 0.35353
 H837 H 0.27715 0.46065 0.44002
 H838 H 0.27892 0.42891 0.40817
 H839 H 0.20531 0.41431 0.42351
 H840 H 0.20320 0.44627 0.45519
 H841 H 0.19949 0.34981 0.38530
 H842 H 0.20231 0.31845 0.35281
 H843 H 0.26387 0.35116 0.32103
 H844 H 0.26106 0.38226 0.35351
 C845 C 0.23678 0.07563 0.94732
 C846 C 0.23702 0.09503 0.93078
 C847 C 0.25852 0.10177 0.92009
 C848 C 0.28006 0.08916 0.92651
 C849 C 0.27996 0.06997 0.94342
 C850 C 0.25826 0.06279 0.95391
 N851 N 0.25787 0.12129 0.90264
 N852 N 0.27566 0.12570 0.88874
 C853 C 0.27467 0.14524 0.87127
 C854 C 0.29223 0.14600 0.85257
 C855 C 0.29107 0.16418 0.83449
 C856 C 0.27252 0.18215 0.83521
 C857 C 0.25527 0.18176 0.85440
 C858 C 0.25621 0.16333 0.87220
 H859 H 0.21971 0.07083 0.95500
 H860 H 0.22033 0.10465 0.92598
 H861 H 0.29693 0.09418 0.91854
 H862 H 0.29687 0.06062 0.94800
 H863 H 0.30656 0.13220 0.85171
 H864 H 0.30466 0.16426 0.81996
 H865 H 0.24076 0.19539 0.85522
 H866 H 0.24250 0.16318 0.88659
 C867 C 0.74030 0.54616 0.43170
 C868 C 0.73892 0.56345 0.41274
 C869 C 0.75857 0.57715 0.40740
 C870 C 0.77994 0.57312 0.42103
 C871 C 0.78147 0.55556 0.43980
 C872 C 0.76159 0.54203 0.44544
 N873 N 0.75630 0.59497 0.38810
 N874 N 0.77199 0.61038 0.38453
 C875 C 0.76953 0.62799 0.36502
 C876 C 0.78532 0.64667 0.36435
 C877 C 0.78316 0.66429 0.34572
 C878 C 0.76533 0.66326 0.32722
 C879 C 0.74963 0.64437 0.32776
 C880 C 0.75161 0.62694 0.34658
 H881 H 0.72473 0.53593 0.43551
 H882 H 0.72239 0.56636 0.40231
 H883 H 0.79541 0.58344 0.41712
 H884 H 0.79808 0.55279 0.45011
 H885 H 0.79922 0.64763 0.37841
 H886 H 0.79562 0.67855 0.34555
 H887 H 0.73564 0.64329 0.31381
 H888 H 0.73922 0.61263 0.34666
 C889 C 0.05725 0.71965 0.93669
 C890 C 0.07513 0.71996 0.91831
 C891 C 0.08034 0.74142 0.90643
 C892 C 0.06760 0.76279 0.91326
 C893 C 0.04993 0.76262 0.93185
 C894 C 0.04444 0.74102 0.94382
 N895 N 0.09878 0.74109 0.88771
 N896 N 0.10227 0.75918 0.87388
 C897 C 0.12099 0.75892 0.85547
 C898 C 0.12150 0.77776 0.83816
 C899 C 0.13944 0.77791 0.81983
 C900 C 0.15737 0.75933 0.81883
 C901 C 0.15699 0.74057 0.83640
 C902 C 0.13887 0.74027 0.85450
 H903 H 0.05367 0.70266 0.94542
 H904 H 0.08489 0.70339 0.91322
 H905 H 0.07142 0.77964 0.90439
 H906 H 0.04052 0.77945 0.93673
 H907 H 0.10787 0.79227 0.83879
 H908 H 0.13948 0.79266 0.80660
 H909 H 0.17053 0.72596 0.83588
 H910 H 0.13890 0.72556 0.86775
 C911 C 0.55923 0.25784 0.43849
 C912 C 0.57678 0.25793 0.41983
 C913 C 0.59117 0.23726 0.41480
 C914 C 0.58768 0.21620 0.42855
 C915 C 0.56985 0.21597 0.44707
 C916 C 0.55552 0.23685 0.45229
 N917 N 0.60893 0.23825 0.39549
 N918 N 0.62473 0.22141 0.39159
 C919 C 0.64203 0.22296 0.37183
 C920 C 0.66111 0.20574 0.37040
 C921 C 0.67832 0.20697 0.35138
 C922 C 0.67646 0.22532 0.33329
 C923 C 0.65722 0.24249 0.33468
 C924 C 0.64021 0.24141 0.35384
 H925 H 0.54841 0.27417 0.44194
 H926 H 0.57927 0.27423 0.40930
 H927 H 0.59856 0.19996 0.42486
 H928 H 0.56741 0.19956 0.45742
 H929 H 0.66269 0.19142 0.38411
 H930 H 0.69288 0.19340 0.35057
 H931 H 0.65551 0.25692 0.32109
 H932 H 0.62561 0.25492 0.35450
 C933 C 0.95337 0.22968 0.93861
 C934 C 0.93623 0.22759 0.91974
 C935 C 0.92111 0.24732 0.91310
 C936 C 0.92339 0.26936 0.92545
 C937 C 0.94070 0.27156 0.94410
 C938 C 0.95585 0.25173 0.95090
 N939 N 0.90388 0.24464 0.89357
 N940 N 0.88772 0.26089 0.88879
 C941 C 0.87081 0.25850 0.86890
 C942 C 0.85157 0.27546 0.86687
 C943 C 0.83488 0.27380 0.84752
 C944 C 0.83740 0.25527 0.82968
 C945 C 0.85678 0.23830 0.83168
 C946 C 0.87330 0.23981 0.85123
 H947 H 0.96485 0.21411 0.94336
 H948 H 0.93468 0.21054 0.91030
 H949 H 0.91196 0.28491 0.92055
 H950 H 0.94216 0.28876 0.95327
 H951 H 0.84954 0.28998 0.88033
 H952 H 0.82022 0.28722 0.84622
 H953 H 0.85900 0.22377 0.81825
 H954 H 0.88809 0.22654 0.85238
 C955 C 0.43134 0.73381 0.43962
 C956 C 0.41353 0.73313 0.42131
 C957 C 0.40633 0.75386 0.40804
 C958 C 0.41694 0.77558 0.41356
 C959 C 0.43466 0.77635 0.43207
 C960 C 0.44217 0.75541 0.44517
 N961 N 0.38837 0.75223 0.38903
 N962 N 0.38221 0.76974 0.37474
 C963 C 0.36420 0.76780 0.35581
 C964 C 0.35933 0.78718 0.33965
 C965 C 0.34187 0.78587 0.32099
 C966 C 0.32882 0.76509 0.31826
 C967 C 0.33380 0.74561 0.33453
 C968 C 0.35135 0.74692 0.35311
 H969 H 0.43663 0.71738 0.44942
 H970 H 0.40545 0.71631 0.41726
 H971 H 0.41158 0.79188 0.40358
 H972 H 0.44269 0.79324 0.43590
 H973 H 0.36917 0.80333 0.34147
 H974 H 0.33874 0.80105 0.30854
 H975 H 0.32385 0.72950 0.33318
 H976 H 0.35472 0.73170 0.36544
 C977 C 0.23194 0.94485 0.05267
 C978 C 0.23063 0.92590 0.06966
 C979 C 0.25136 0.91620 0.08125
 C980 C 0.27364 0.92549 0.07544
 C981 C 0.27501 0.94438 0.05831
 C982 C 0.25413 0.95436 0.04686
 N983 N 0.24919 0.89717 0.09901
 N984 N 0.26698 0.88848 0.11150
 C985 C 0.26456 0.86958 0.12937
 C986 C 0.28446 0.86199 0.14373
 C987 C 0.28257 0.84395 0.16172
 C988 C 0.26067 0.83306 0.16554
 C989 C 0.24075 0.84060 0.15090
 C990 C 0.24265 0.85872 0.13300
 H991 H 0.21553 0.95206 0.04412
 H992 H 0.21338 0.91886 0.07397
 H993 H 0.28993 0.91822 0.08416
 H994 H 0.29235 0.95132 0.05424
 H995 H 0.30141 0.87028 0.14117
 H996 H 0.29815 0.83882 0.17293
 H997 H 0.22374 0.83234 0.15313
 H998 H 0.22702 0.86421 0.12203
 C999 C 0.74527 0.44180 0.56779
 C1000 C 0.74524 0.42450 0.58671
 C1001 C 0.76570 0.40967 0.59129
 C1002 C 0.78652 0.41261 0.57698
 C1003 C 0.78670 0.43021 0.55823
 C1004 C 0.76598 0.44484 0.55333
 N1005 N 0.76470 0.39186 0.61054
 N1006 N 0.78108 0.37543 0.61361
 C1007 C 0.77957 0.35791 0.63315
 C1008 C 0.79595 0.33806 0.63340
 C1009 C 0.79458 0.32047 0.65200
 C1010 C 0.77697 0.32271 0.67087
 C1011 C 0.76071 0.34277 0.67072
 C1012 C 0.76191 0.36016 0.65196
 H1013 H 0.72908 0.45289 0.56456
 H1014 H 0.72913 0.42243 0.59768
 H1015 H 0.80260 0.40140 0.58031
 H1016 H 0.80289 0.43213 0.54735
 H1017 H 0.80966 0.33613 0.61904
 H1018 H 0.80744 0.30526 0.65184
 H1019 H 0.74685 0.34480 0.68493
 H1020 H 0.74907 0.37537 0.65222
 C1021 C 0.76430 0.05981 0.05124
 C1022 C 0.76490 0.07837 0.06877
 C1023 C 0.74466 0.08470 0.08325
 C1024 C 0.72348 0.07254 0.07969
 C1025 C 0.72274 0.05417 0.06187
 C1026 C 0.74323 0.04749 0.04764
 N1027 N 0.74624 0.10327 0.10160
 N1028 N 0.72999 0.10757 0.11799
 C1029 C 0.73194 0.12610 0.13635
 C1030 C 0.71595 0.12719 0.15660
 C1031 C 0.71806 0.14443 0.17540
 C1032 C 0.73605 0.16110 0.17395
 C1033 C 0.75176 0.16035 0.15332
 C1034 C 0.74984 0.14289 0.13472
 H1035 H 0.78032 0.05517 0.04043
 H1036 H 0.78128 0.08766 0.07134
 H1037 H 0.70757 0.07723 0.09063
 H1038 H 0.70628 0.04497 0.05949
 H1039 H 0.70206 0.11439 0.15801
 H1040 H 0.70561 0.14482 0.19102
 H1041 H 0.76585 0.17293 0.15189
 H1042 H 0.76236 0.14245 0.11917
 C1043 C 0.25719 0.57497 0.55224
 C1044 C 0.25710 0.59425 0.56897
 C1045 C 0.23633 0.60115 0.58237
 C1046 C 0.21538 0.58867 0.57863
 C1047 C 0.21535 0.56951 0.56162
 C1048 C 0.23632 0.56239 0.54835
 N1049 N 0.23714 0.62077 0.59965
 N1050 N 0.22004 0.62636 0.61471
 C1051 C 0.22123 0.64602 0.63192
 C1052 C 0.20376 0.64895 0.65068
 C1053 C 0.20494 0.66743 0.66833
 C1054 C 0.22350 0.68350 0.66723
 C1055 C 0.24076 0.68084 0.64807
 C1056 C 0.23973 0.66217 0.63063
 H1057 H 0.27359 0.57004 0.54220
 H1058 H 0.27333 0.60376 0.57167
 H1059 H 0.19907 0.59375 0.58874
 H1060 H 0.19901 0.56015 0.55903
 H1061 H 0.18938 0.63668 0.65184
 H1062 H 0.19129 0.66923 0.68278
 H1063 H 0.25534 0.69288 0.64694
 H1064 H 0.25342 0.66033 0.61624
 C1065 C 0.93026 0.76147 0.05165
 C1066 C 0.91208 0.76165 0.06968
 C1067 C 0.90863 0.74129 0.08428
 C1068 C 0.92351 0.72050 0.08053
 C1069 C 0.94157 0.72019 0.06228
 C1070 C 0.94517 0.74072 0.04771
 N1071 N 0.88985 0.74223 0.10262
 N1072 N 0.88728 0.72552 0.11850
 C1073 C 0.86827 0.72671 0.13661
 C1074 C 0.86834 0.70970 0.15591
 C1075 C 0.85029 0.71070 0.17415
 C1076 C 0.83168 0.72861 0.17310
 C1077 C 0.83145 0.74547 0.15351
 C1078 C 0.84966 0.74462 0.13547
 H1079 H 0.93250 0.77753 0.04064
 H1080 H 0.90068 0.77774 0.07238
 H1081 H 0.92110 0.70450 0.09157
 H1082 H 0.95278 0.70396 0.05968
 H1083 H 0.88254 0.69577 0.15694
 H1084 H 0.85073 0.69738 0.18896
 H1085 H 0.81741 0.75956 0.15242
 H1086 H 0.84917 0.75794 0.12067
 C1087 C 0.43892 0.26268 0.55755
 C1088 C 0.42047 0.26435 0.57525
 C1089 C 0.41582 0.24478 0.59054
 C1090 C 0.42963 0.22315 0.58767
 C1091 C 0.44794 0.22132 0.56967
 C1092 C 0.45288 0.24116 0.55457
 N1093 N 0.39708 0.24750 0.60884
 N1094 N 0.39382 0.23196 0.62582
 C1095 C 0.37495 0.23521 0.64395
 C1096 C 0.37456 0.21981 0.66466
 C1097 C 0.35681 0.22306 0.68307
 C1098 C 0.33895 0.24161 0.68080
 C1099 C 0.33912 0.25680 0.65978
 C1100 C 0.35705 0.25373 0.64156
 H1101 H 0.44217 0.27822 0.54609
 H1102 H 0.40989 0.28107 0.57726
 H1103 H 0.42626 0.20774 0.59926
 H1104 H 0.45842 0.20454 0.56778
 H1105 H 0.38821 0.20545 0.66668
 H1106 H 0.35691 0.21097 0.69899
 H1107 H 0.32564 0.27132 0.65770
 H1108 H 0.35692 0.26583 0.62567
 C1109 C 0.05691 0.28640 0.06776
 C1110 C 0.07400 0.28842 0.08668
 C1111 C 0.08903 0.26864 0.09337
 C1112 C 0.08671 0.24661 0.08100
 C1113 C 0.06944 0.24447 0.06231
 C1114 C 0.05439 0.26436 0.05546
 N1115 N 0.10625 0.27124 0.11293
 N1116 N 0.12241 0.25495 0.11759
 C1117 C 0.13935 0.25716 0.13747
 C1118 C 0.15865 0.24025 0.13920
 C1119 C 0.17541 0.24173 0.15851
 C1120 C 0.17287 0.26002 0.17661
 C1121 C 0.15340 0.27690 0.17497
 C1122 C 0.13682 0.27559 0.15545
 H1123 H 0.04549 0.30200 0.06297
 H1124 H 0.07559 0.30547 0.09613
 H1125 H 0.09807 0.23102 0.08593
 H1126 H 0.06794 0.22728 0.05313
 H1127 H 0.16070 0.22592 0.12553
 H1128 H 0.19013 0.22835 0.15956
 H1129 H 0.15116 0.29121 0.18866
 H1130 H 0.12196 0.28880 0.15454
 C1131 C 0.55719 0.73202 0.55295
 C1132 C 0.57527 0.73097 0.57104
 C1133 C 0.58253 0.75192 0.58250
 C1134 C 0.57163 0.77419 0.57548
 C1135 C 0.55356 0.77530 0.55724
 C1136 C 0.54607 0.75419 0.54587
 N1137 N 0.60085 0.74994 0.60128
 N1138 N 0.60778 0.76795 0.61345
 C1139 C 0.62607 0.76549 0.63225
 C1140 C 0.63226 0.78578 0.64574
 C1141 C 0.64987 0.78391 0.66437
 C1142 C 0.66168 0.76162 0.66978
 C1143 C 0.65547 0.74128 0.65612
 C1144 C 0.63782 0.74317 0.63755
 H1145 H 0.55192 0.71542 0.54453
 H1146 H 0.58356 0.71372 0.57628
 H1147 H 0.57700 0.79066 0.58408
 H1148 H 0.54534 0.79264 0.55221
 H1149 H 0.62329 0.80306 0.64191
 H1150 H 0.65400 0.79986 0.67478
 H1151 H 0.66446 0.72393 0.65958
 H1152 H 0.63343 0.72721 0.62731
   
