data_POSCAR
  _audit_creation_date              2014-09-24
  _audit_creation_method            'ToBaCCo'
  _symmetry_space_group_name_H-M    'P1'
  _symmetry_Int_Tables_number       1
  _symmetry_cell_setting            triclinic
  loop_
  _symmetry_equiv_pos_as_xyz
 x,y,z
_cell_length_a 54.6292
_cell_length_b 56.5649
_cell_length_c 56.2506
_cell_angle_alpha 91.044800
_cell_angle_beta 90.159500
_cell_angle_gamma 91.077100
loop_
  _atom_site_label
  _atom_site_type_symbol
  _atom_site_fract_x
  _atom_site_fract_y
  _atom_site_fract_z
N1 N 0.28367 0.23537 0.23398
 N2 N 0.27454 0.25511 0.22617
 C3 C 0.28715 0.26190 0.20685
 C4 C 0.30525 0.24559 0.20224
 C5 C 0.30242 0.22896 0.21990
 H6 H 0.28309 0.27733 0.19663
 H7 H 0.31311 0.21331 0.22236
 Cu8 Cu 0.24659 0.26985 0.24139
 Cu9 Cu 0.27018 0.21924 0.26148
 Cu10 Cu 0.21952 0.24414 0.28824
 N11 N 0.21755 0.28300 0.25619
 N12 N 0.20713 0.27289 0.27450
 C13 C 0.18732 0.28521 0.28093
 C14 C 0.18504 0.30414 0.26581
 C15 C 0.20463 0.30211 0.25031
 H16 H 0.17519 0.28038 0.29526
 H17 H 0.20912 0.31361 0.23576
 N18 N 0.23462 0.21510 0.29964
 N19 N 0.25392 0.20558 0.28951
 C20 C 0.25959 0.18580 0.30117
 C21 C 0.24303 0.18265 0.31954
 C22 C 0.22750 0.20164 0.31797
 H23 H 0.27443 0.17432 0.29637
 H24 H 0.21213 0.20543 0.32936
 H25 H 0.23503 0.23132 0.25707
 H26 H 0.25557 0.24871 0.27776
 N27 N 0.71818 -0.24048 0.23442
 N28 N 0.72680 -0.26045 0.22602
 C29 C 0.71509 -0.26620 0.20555
 C30 C 0.69816 -0.24881 0.20075
 C31 C 0.70080 -0.23279 0.21964
 H32 H 0.71894 -0.28175 0.19489
 H33 H 0.69089 -0.21667 0.22262
 Cu34 Cu 0.75290 -0.27671 0.24240
 Cu35 Cu 0.73006 -0.22570 0.26379
 Cu36 Cu 0.77700 -0.25338 0.29307
 N37 N 0.78025 -0.29126 0.25855
 N38 N 0.78916 -0.28227 0.27851
 C39 C 0.80791 -0.29542 0.28575
 C40 C 0.81128 -0.31373 0.26934
 C41 C 0.79322 -0.31042 0.25229
 H42 H 0.81864 -0.29137 0.30149
 H43 H 0.78978 -0.32097 0.23639
 N44 N 0.76231 -0.22396 0.30496
 N45 N 0.74441 -0.21343 0.29376
 C46 C 0.73873 -0.19354 0.30584
 C47 C 0.75381 -0.19133 0.32561
 C48 C 0.76854 -0.21097 0.32444
 H49 H 0.72503 -0.18124 0.30031
 H50 H 0.78282 -0.21544 0.33681
 H51 H 0.76496 -0.23927 0.26158
 H52 H 0.74198 -0.25626 0.27935
 N53 N 0.70398 0.25434 0.78388
 N54 N 0.71652 0.27269 0.79233
 C55 C 0.70494 0.28144 0.81158
 C56 C 0.68398 0.26785 0.81545
 C57 C 0.68404 0.25079 0.79745
 H58 H 0.71146 0.29643 0.82214
 H59 H 0.67055 0.23687 0.79429
 Cu60 Cu 0.74683 0.28326 0.77739
 Cu61 Cu 0.71439 0.23624 0.75604
 Cu62 Cu 0.76803 0.25489 0.72891
 N63 N 0.77708 0.29338 0.76201
 N64 N 0.78501 0.28226 0.74293
 C65 C 0.80594 0.29263 0.73569
 C66 C 0.81174 0.31142 0.75107
 C67 C 0.79283 0.31127 0.76761
 H68 H 0.81615 0.28664 0.72039
 H69 H 0.79055 0.32325 0.78257
 N70 N 0.74838 0.22753 0.71733
 N71 N 0.72800 0.22032 0.72767
 C72 C 0.71920 0.20102 0.71589
 C73 C 0.73482 0.19577 0.69721
 C74 C 0.75308 0.21305 0.69873
 H75 H 0.70284 0.19128 0.72081
 H76 H 0.76872 0.21496 0.68719
 H77 H 0.75129 0.24383 0.75989
 H78 H 0.73338 0.26371 0.74051
 N79 N 0.29641 -0.23528 0.78595
 N80 N 0.28245 -0.25041 0.79736
 C81 C 0.29419 -0.25741 0.81695
 C82 C 0.31683 -0.24603 0.81804
 C83 C 0.31757 -0.23200 0.79805
 H84 H 0.28669 -0.26986 0.82947
 H85 H 0.33252 -0.22062 0.79248
 Cu86 Cu 0.25048 -0.26017 0.78560
 Cu87 Cu 0.28592 -0.22166 0.75601
 Cu88 Cu 0.23315 -0.24612 0.73040
 N89 N 0.22426 -0.27727 0.76929
 N90 N 0.21749 -0.27200 0.74765
 C91 C 0.19924 -0.28695 0.74070
 C92 C 0.19430 -0.30256 0.75905
 C93 C 0.21072 -0.29568 0.77689
 H94 H 0.19038 -0.28639 0.72353
 H95 H 0.21303 -0.30345 0.79412
 N96 N 0.25189 -0.21975 0.71613
 N97 N 0.27200 -0.21055 0.72587
 C98 C 0.28020 -0.19266 0.71241
 C99 C 0.26453 -0.19036 0.69322
 C100 C 0.24677 -0.20788 0.69621
 H101 H 0.29608 -0.18170 0.71666
 H102 H 0.23117 -0.21165 0.68482
 H103 H 0.24834 -0.22701 0.75873
 H104 H 0.26648 -0.25212 0.74638
 N105 N 0.71955 -0.23829 0.76524
 N106 N 0.72940 -0.25738 0.77380
 C107 C 0.71812 -0.26286 0.79431
 C108 C 0.70030 -0.24625 0.79886
 C109 C 0.70178 -0.23095 0.77997
 H110 H 0.72284 -0.27756 0.80532
 H111 H 0.69074 -0.21561 0.77705
 Cu112 Cu 0.75635 -0.27277 0.75749
 Cu113 Cu 0.73071 -0.22394 0.73597
 Cu114 Cu 0.77827 -0.25116 0.70628
 N115 N 0.78327 -0.28771 0.74071
 N116 N 0.79135 -0.27937 0.72050
 C117 C 0.81007 -0.29250 0.71280
 C118 C 0.81429 -0.31012 0.72913
 C119 C 0.79674 -0.30644 0.74663
 H120 H 0.82022 -0.28888 0.69678
 H121 H 0.79402 -0.31643 0.76262
 N122 N 0.76266 -0.22242 0.69478
 N123 N 0.74453 -0.21209 0.70611
 C124 C 0.73845 -0.19248 0.69444
 C125 C 0.75351 -0.19025 0.67483
 C126 C 0.76863 -0.20960 0.67563
 H127 H 0.72460 -0.18029 0.70025
 H128 H 0.78311 -0.21388 0.66334
 H129 H 0.74366 -0.25466 0.72055
 H130 H 0.76626 -0.23584 0.73766
 N131 N 0.28216 0.23500 0.76892
 N132 N 0.27292 0.25470 0.77739
 C133 C 0.28488 0.26111 0.79751
 C134 C 0.30263 0.24454 0.80200
 C135 C 0.30030 0.22820 0.78340
 H136 H 0.28069 0.27649 0.80829
 H137 H 0.31097 0.21252 0.78054
 Cu138 Cu 0.24582 0.26980 0.76153
 Cu139 Cu 0.26968 0.21944 0.73998
 Cu140 Cu 0.22160 0.24644 0.71131
 N141 N 0.21906 0.28497 0.74519
 N142 N 0.20972 0.27568 0.72553
 C143 C 0.19125 0.28914 0.71813
 C144 C 0.18876 0.30800 0.73400
 C145 C 0.20681 0.30471 0.75096
 H146 H 0.18017 0.28512 0.70260
 H147 H 0.21066 0.31574 0.76645
 N148 N 0.23612 0.21679 0.69968
 N149 N 0.25445 0.20653 0.71049
 C150 C 0.25996 0.18656 0.69840
 C151 C 0.24430 0.18405 0.67904
 C152 C 0.22946 0.20360 0.68048
 H153 H 0.27402 0.17448 0.70357
 H154 H 0.21489 0.20795 0.66840
 H155 H 0.25691 0.24966 0.72455
 H156 H 0.23457 0.23209 0.74240
 N157 N 0.29802 -0.24995 0.21258
 N158 N 0.28663 -0.26828 0.20271
 C159 C 0.29905 -0.27527 0.18328
 C160 C 0.31940 -0.26054 0.18075
 C161 C 0.31809 -0.24463 0.19974
 H162 H 0.29348 -0.28981 0.17167
 H163 H 0.33078 -0.23027 0.20400
 Cu164 Cu 0.25657 -0.28117 0.21604
 Cu165 Cu 0.28574 -0.23433 0.24115
 Cu166 Cu 0.23233 -0.25741 0.26574
 N167 N 0.22697 -0.29421 0.23012
 N168 N 0.21753 -0.28501 0.24957
 C169 C 0.19724 -0.29755 0.25532
 C170 C 0.19375 -0.31557 0.23851
 C171 C 0.21305 -0.31284 0.22284
 H172 H 0.18577 -0.29365 0.27047
 H173 H 0.21684 -0.32378 0.20739
 N174 N 0.25016 -0.22956 0.27934
 N175 N 0.27051 -0.22097 0.26998
 C176 C 0.27825 -0.20212 0.28304
 C177 C 0.26207 -0.19852 0.30158
 C178 C 0.24442 -0.21629 0.29863
 H179 H 0.29431 -0.19150 0.27906
 H180 H 0.22863 -0.21938 0.30975
 H181 H 0.26761 -0.26370 0.25461
 H182 H 0.24913 -0.24347 0.23620
 N183 N 0.69855 0.23947 0.22163
 N184 N 0.70983 0.25791 0.21252
 C185 C 0.69759 0.26443 0.19292
 C186 C 0.67762 0.24918 0.18958
 C187 C 0.67889 0.23362 0.20822
 H188 H 0.70298 0.27896 0.18175
 H189 H 0.66635 0.21917 0.21193
 Cu190 Cu 0.73956 0.27118 0.22721
 Cu191 Cu 0.70996 0.22415 0.25012
 Cu192 Cu 0.76253 0.24723 0.27672
 N193 N 0.76923 0.28393 0.24244
 N194 N 0.77791 0.27441 0.26178
 C195 C 0.79829 0.28631 0.26873
 C196 C 0.80279 0.30438 0.25296
 C197 C 0.78393 0.30228 0.23642
 H198 H 0.80918 0.28186 0.28401
 H199 H 0.78103 0.31337 0.22126
 N200 N 0.74435 0.21977 0.28918
 N201 N 0.72427 0.21104 0.27904
 C202 C 0.71620 0.19238 0.29148
 C203 C 0.73193 0.18912 0.31043
 C204 C 0.74959 0.20686 0.30837
 H205 H 0.70024 0.18170 0.28683
 H206 H 0.76508 0.21019 0.32001
 H207 H 0.72756 0.25364 0.26481
 H208 H 0.74649 0.23341 0.24610
 C209 C 0.25233 0.00938 0.54711
 C210 C 0.25140 -0.01210 0.55900
 C211 C 0.24905 -0.03372 0.54669
 C212 C 0.24772 -0.03405 0.52156
 C213 C 0.24880 -0.01240 0.50916
 C214 C 0.25114 0.00940 0.52197
 C215 C 0.25310 0.03053 0.50928
 C216 C 0.25262 0.03034 0.48453
 C217 C 0.25017 0.00900 0.47146
 C218 C 0.24828 -0.01259 0.48388
 C219 C 0.24620 -0.05544 0.50848
 C220 C 0.24567 -0.05563 0.48374
 C221 C 0.24665 -0.03443 0.47108
 C222 C 0.24695 -0.03451 0.44592
 C223 C 0.24893 -0.01310 0.43398
 C224 C 0.25045 0.00857 0.44629
 H225 H 0.25546 0.04746 0.51834
 H226 H 0.25463 0.04712 0.47575
 H227 H 0.24581 -0.07231 0.51724
 H228 H 0.24487 -0.07264 0.47464
 H229 H 0.25242 -0.01199 0.57828
 H230 H 0.24932 -0.01333 0.41469
 C231 C 0.74560 0.03016 0.55418
 C232 C 0.74367 0.00873 0.56606
 C233 C 0.74274 -0.01291 0.55370
 C234 C 0.74346 -0.01331 0.52855
 C235 C 0.74539 0.00829 0.51619
 C236 C 0.74641 0.03013 0.52903
 C237 C 0.74737 0.05133 0.51637
 C238 C 0.74762 0.05112 0.49163
 C239 C 0.74687 0.02970 0.47856
 C240 C 0.74563 0.00808 0.49093
 C241 C 0.74144 -0.03467 0.51545
 C242 C 0.74168 -0.03487 0.49072
 C243 C 0.74392 -0.01374 0.47809
 C244 C 0.74361 -0.01375 0.45294
 C245 C 0.74476 0.00770 0.44104
 C246 C 0.74644 0.02932 0.45341
 H247 H 0.74755 0.06835 0.52545
 H248 H 0.74803 0.06799 0.48287
 H249 H 0.73923 -0.05146 0.52415
 H250 H 0.73967 -0.05182 0.48163
 H251 H 0.74312 0.00889 0.58535
 H252 H 0.74439 0.00758 0.42175
 C253 C 0.43276 0.26414 0.02420
 C254 C 0.41957 0.26379 0.00285
 C255 C 0.43136 0.26310 -0.01917
 C256 C 0.45725 0.26289 -0.02005
 C257 C 0.47093 0.26342 0.00145
 C258 C 0.45866 0.26411 0.02367
 C259 C 0.47262 0.26557 0.04470
 C260 C 0.49809 0.26624 0.04399
 C261 C 0.51064 0.26535 0.02222
 C262 C 0.49695 0.26396 0.00073
 C263 C 0.46982 0.26300 -0.04183
 C264 C 0.49528 0.26332 -0.04254
 C265 C 0.50922 0.26365 -0.02150
 C266 C 0.53513 0.26447 -0.02206
 C267 C 0.54829 0.26613 -0.00073
 C268 C 0.53652 0.26654 0.02129
 H269 H 0.46397 0.26662 0.06196
 H270 H 0.50784 0.26779 0.06073
 H271 H 0.46011 0.26318 -0.05861
 H272 H 0.50391 0.26377 -0.05981
 H273 H 0.39972 0.26404 0.00338
 H274 H 0.56815 0.26675 -0.00127
 C275 C 0.47004 0.75874 -0.02273
 C276 C 0.45751 0.75945 -0.00111
 C277 C 0.46976 0.75760 0.02059
 C278 C 0.49545 0.75494 0.02088
 C279 C 0.50848 0.75417 -0.00091
 C280 C 0.49573 0.75602 -0.02281
 C281 C 0.50884 0.75416 -0.04419
 C282 C 0.53400 0.75076 -0.04412
 C283 C 0.54708 0.74917 -0.02266
 C284 C 0.53419 0.75076 -0.00083
 C285 C 0.50830 0.75213 0.04229
 C286 C 0.53347 0.74884 0.04237
 C287 C 0.54684 0.74830 0.02105
 C288 C 0.57240 0.74453 0.02092
 C289 C 0.58477 0.74291 -0.00075
 C290 C 0.57259 0.74523 -0.02243
 H291 H 0.49973 0.75493 -0.06125
 H292 H 0.54300 0.74900 -0.06115
 H293 H 0.49896 0.75209 0.05922
 H294 H 0.54224 0.74628 0.05936
 H295 H 0.43776 0.76127 -0.00118
 H296 H 0.60436 0.74007 -0.00074
 C297 C -0.02555 0.54437 0.24439
 C298 C -0.00342 0.55701 0.24670
 C299 C 0.01908 0.54566 0.24635
 C300 C 0.01967 0.52075 0.24372
 C301 C -0.00264 0.50761 0.24139
 C302 C -0.02534 0.51944 0.24174
 C303 C -0.04721 0.50599 0.24032
 C304 C -0.04685 0.48146 0.23834
 C305 C -0.02462 0.46936 0.23781
 C306 C -0.00228 0.48253 0.23944
 C307 C 0.04187 0.50859 0.24420
 C308 C 0.04221 0.48401 0.24238
 C309 C 0.02038 0.47063 0.23995
 C310 C 0.02047 0.44560 0.23889
 C311 C -0.00170 0.43292 0.23728
 C312 C -0.02413 0.44437 0.23662
 H313 H -0.06489 0.51426 0.24112
 H314 H -0.06427 0.47205 0.23765
 H315 H 0.05921 0.51793 0.24642
 H316 H 0.05980 0.47561 0.24326
 H317 H -0.00370 0.57612 0.24872
 H318 H -0.00151 0.41374 0.23667
 C319 C -0.01899 0.55210 0.75140
 C320 C 0.00299 0.56480 0.74878
 C321 C 0.02560 0.55366 0.74916
 C322 C 0.02645 0.52890 0.75215
 C323 C 0.00428 0.51570 0.75476
 C324 C -0.01853 0.52732 0.75428
 C325 C -0.04027 0.51376 0.75582
 C326 C -0.03969 0.48936 0.75818
 C327 C -0.01734 0.47749 0.75912
 C328 C 0.00487 0.49075 0.75719
 C329 C 0.04875 0.51689 0.75181
 C330 C 0.04933 0.49244 0.75414
 C331 C 0.02763 0.47904 0.75687
 C332 C 0.02796 0.45412 0.75846
 C333 C 0.00595 0.44134 0.76053
 C334 C -0.01661 0.45259 0.76098
 H335 H -0.05803 0.52182 0.75478
 H336 H -0.05704 0.47987 0.75884
 H337 H 0.06599 0.52624 0.74936
 H338 H 0.06699 0.48411 0.75344
 H339 H 0.00250 0.58381 0.74662
 H340 H 0.00638 0.42222 0.76164
 C341 C 0.35310 0.22538 0.15775
 C342 C 0.35629 0.24541 0.14321
 C343 C 0.34245 0.26568 0.14894
 C344 C 0.32625 0.26569 0.16828
 C345 C 0.32310 0.24564 0.18231
 C346 C 0.33683 0.22558 0.17689
 C347 C 0.34467 0.28589 0.13527
 C348 C 0.35991 0.28641 0.11561
 C349 C 0.37376 0.26660 0.10875
 C350 C 0.37237 0.24594 0.12309
 C351 C 0.38707 0.22653 0.11681
 C352 C 0.40209 0.22696 0.09693
 C353 C 0.40301 0.24660 0.08234
 C354 C 0.38891 0.26675 0.08798
 C355 C 0.39025 0.28605 0.07225
 C356 C 0.40479 0.28517 0.05192
 C357 C 0.41863 0.26527 0.04663
 C358 C 0.41776 0.24604 0.06189
 H359 H 0.36260 0.20912 0.15469
 H360 H 0.31606 0.28149 0.17230
 H361 H 0.33480 0.20971 0.18721
 H362 H 0.33431 0.30152 0.13971
 H363 H 0.36045 0.30280 0.10621
 H364 H 0.38751 0.21060 0.12696
 H365 H 0.41293 0.21157 0.09279
 H366 H 0.37998 0.30194 0.07479
 H367 H 0.40512 0.30009 0.04010
 H368 H 0.42827 0.23047 0.05755
 C369 C 0.65136 0.77375 0.15877
 C370 C 0.65009 0.75574 0.14102
 C371 C 0.66490 0.73571 0.14409
 C372 C 0.68072 0.73431 0.16374
 C373 C 0.68210 0.75251 0.18109
 C374 C 0.66699 0.77212 0.17831
 C375 C 0.66391 0.71709 0.12753
 C376 C 0.64850 0.71777 0.10793
 C377 C 0.63352 0.73737 0.10384
 C378 C 0.63463 0.75686 0.12045
 C379 C 0.62056 0.77697 0.11575
 C380 C 0.60585 0.77804 0.09567
 C381 C 0.60425 0.75909 0.07955
 C382 C 0.61778 0.73833 0.08347
 C383 C 0.61498 0.71944 0.06671
 C384 C 0.59993 0.72145 0.04679
 C385 C 0.58704 0.74214 0.04294
 C386 C 0.58929 0.76093 0.05934
 H387 H 0.64039 0.78934 0.15832
 H388 H 0.69182 0.71878 0.16538
 H389 H 0.66711 0.78660 0.19111
 H390 H 0.67520 0.70172 0.12976
 H391 H 0.64912 0.70266 0.09605
 H392 H 0.62078 0.79252 0.12706
 H393 H 0.59559 0.79395 0.09273
 H394 H 0.62403 0.70282 0.06841
 H395 H 0.59840 0.70676 0.03420
 H396 H 0.57948 0.77708 0.05620
 C397 C 0.64905 0.29389 -0.13238
 C398 C 0.63129 0.27605 -0.12757
 C399 C 0.63115 0.25544 -0.14230
 C400 C 0.64814 0.25298 -0.16085
 C401 C 0.66572 0.27074 -0.16522
 C402 C 0.66587 0.29121 -0.15082
 C403 C 0.61418 0.23724 -0.13838
 C404 C 0.59750 0.23872 -0.11988
 C405 C 0.59706 0.25864 -0.10439
 C406 C 0.61395 0.27781 -0.10856
 C407 C 0.61306 0.29802 -0.09349
 C408 C 0.59682 0.29928 -0.07463
 C409 C 0.58080 0.28054 -0.06990
 C410 C 0.58044 0.25998 -0.08474
 C411 C 0.56376 0.24145 -0.07890
 C412 C 0.54864 0.24323 -0.05898
 C413 C 0.54939 0.26350 -0.04442
 C414 C 0.56538 0.28214 -0.05004
 H415 H 0.65068 0.31013 -0.12218
 H416 H 0.64779 0.23692 -0.17163
 H417 H 0.67899 0.30540 -0.15376
 H418 H 0.61388 0.22150 -0.14968
 H419 H 0.58515 0.22380 -0.11823
 H420 H 0.62475 0.31334 -0.09570
 H421 H 0.59701 0.31509 -0.06342
 H422 H 0.56222 0.22515 -0.08899
 H423 H 0.53661 0.22849 -0.05463
 H424 H 0.56608 0.29778 -0.03859
 C425 C 0.35247 0.72918 -0.13063
 C426 C 0.37127 0.74638 -0.12665
 C427 C 0.37203 0.76614 -0.14183
 C428 C 0.35460 0.76836 -0.16009
 C429 C 0.33591 0.75129 -0.16345
 C430 C 0.33520 0.73168 -0.14863
 C431 C 0.38998 0.78375 -0.13855
 C432 C 0.40696 0.78256 -0.12019
 C433 C 0.40678 0.76350 -0.10431
 C434 C 0.38898 0.74484 -0.10794
 C435 C 0.38937 0.72531 -0.09266
 C436 C 0.40587 0.72433 -0.07399
 C437 C 0.42270 0.74269 -0.06967
 C438 C 0.42366 0.76250 -0.08479
 C439 C 0.44120 0.78064 -0.07932
 C440 C 0.45663 0.77919 -0.05954
 C441 C 0.45522 0.75963 -0.04475
 C442 C 0.43836 0.74141 -0.04998
 H443 H 0.35025 0.71366 -0.12001
 H444 H 0.35530 0.78372 -0.17132
 H445 H 0.32125 0.71799 -0.15091
 H446 H 0.39077 0.79882 -0.15018
 H447 H 0.42006 0.79698 -0.11897
 H448 H 0.37710 0.71029 -0.09457
 H449 H 0.40526 0.70906 -0.06261
 H450 H 0.44321 0.79640 -0.08963
 H451 H 0.46944 0.79356 -0.05550
 H452 H 0.43723 0.72633 -0.03836
 C453 C 0.13033 0.34005 0.28499
 C454 C 0.12675 0.35520 0.26556
 C455 C 0.14344 0.35360 0.24637
 C456 C 0.16250 0.33722 0.24665
 C457 C 0.16545 0.32204 0.26585
 C458 C 0.14927 0.32384 0.28504
 C459 C 0.14095 0.36818 0.22683
 C460 C 0.12202 0.38416 0.22563
 C461 C 0.10458 0.38620 0.24401
 C462 C 0.10712 0.37162 0.26442
 C463 C 0.08978 0.37373 0.28288
 C464 C 0.07037 0.38906 0.28135
 C465 C 0.06737 0.40302 0.26147
 C466 C 0.08448 0.40209 0.24256
 C467 C 0.08041 0.41688 0.22286
 C468 C 0.06000 0.43139 0.22192
 C469 C 0.04316 0.43180 0.24056
 C470 C 0.04701 0.41771 0.26031
 H471 H 0.11882 0.34008 0.30048
 H472 H 0.17476 0.33610 0.23160
 H473 H 0.15115 0.31272 0.30035
 H474 H 0.15373 0.36714 0.21216
 H475 H 0.12151 0.39459 0.20983
 H476 H 0.09047 0.36359 0.29886
 H477 H 0.05740 0.38984 0.29589
 H478 H 0.09240 0.41749 0.20772
 H479 H 0.05710 0.44209 0.20642
 H480 H 0.03382 0.41800 0.27470
 C481 C 0.15627 0.64690 0.78102
 C482 C 0.14060 0.64161 0.76151
 C483 C 0.14359 0.65533 0.74085
 C484 C 0.16138 0.67360 0.74004
 C485 C 0.17668 0.67883 0.75966
 C486 C 0.17385 0.66505 0.78006
 C487 C 0.12871 0.65090 0.72105
 C488 C 0.11053 0.63345 0.72134
 C489 C 0.10639 0.61956 0.74162
 C490 C 0.12194 0.62346 0.76192
 C491 C 0.11814 0.60923 0.78202
 C492 C 0.09942 0.59235 0.78265
 C493 C 0.08368 0.58883 0.76335
 C494 C 0.08703 0.60214 0.74241
 C495 C 0.07043 0.59774 0.72335
 C496 C 0.05109 0.58145 0.72541
 C497 C 0.04776 0.56880 0.74629
 C498 C 0.06422 0.57237 0.76513
 H499 H 0.15542 0.63753 0.79748
 H500 H 0.16306 0.68372 0.72397
 H501 H 0.18506 0.66818 0.79569
 H502 H 0.13100 0.66121 0.70512
 H503 H 0.09993 0.63140 0.70526
 H504 H 0.12927 0.61073 0.79781
 H505 H 0.09706 0.58210 0.79862
 H506 H 0.07147 0.60686 0.70675
 H507 H 0.03834 0.57898 0.71074
 H508 H 0.06140 0.56276 0.78144
 C509 C -0.13564 0.65100 0.28917
 C510 C -0.13250 0.63480 0.27002
 C511 C -0.14893 0.63603 0.25057
 C512 C -0.16778 0.65265 0.25063
 C513 C -0.17049 0.66887 0.26966
 C514 C -0.15416 0.66761 0.28893
 C515 C -0.14630 0.62088 0.23094
 C516 C -0.12727 0.60497 0.22979
 C517 C -0.11014 0.60330 0.24851
 C518 C -0.11334 0.61787 0.26932
 C519 C -0.09728 0.61504 0.28873
 C520 C -0.07810 0.59939 0.28755
 C521 C -0.07395 0.58600 0.26700
 C522 C -0.08987 0.58759 0.24714
 C523 C -0.08437 0.57381 0.22658
 C524 C -0.06386 0.55941 0.22587
 C525 C -0.04839 0.55805 0.24560
 C526 C -0.05360 0.57127 0.26613
 H527 H -0.12381 0.65175 0.30451
 H528 H -0.17991 0.65311 0.23541
 H529 H -0.15540 0.67947 0.30413
 H530 H -0.15892 0.62157 0.21606
 H531 H -0.12663 0.59402 0.21396
 H532 H -0.09909 0.62457 0.30535
 H533 H -0.06613 0.59800 0.30286
 H534 H -0.09511 0.57419 0.21052
 H535 H -0.05978 0.54957 0.20969
 H536 H -0.04141 0.57037 0.28134
 C537 C -0.13043 0.34016 0.73009
 C538 C -0.12622 0.35832 0.74731
 C539 C -0.14318 0.36023 0.76622
 C540 C -0.16368 0.34486 0.76735
 C541 C -0.16775 0.32698 0.74998
 C542 C -0.15069 0.32492 0.73144
 C543 C -0.13962 0.37745 0.78402
 C544 C -0.11943 0.39273 0.78367
 C545 C -0.10196 0.39161 0.76524
 C546 C -0.10569 0.37443 0.74649
 C547 C -0.08892 0.37404 0.72743
 C548 C -0.06896 0.38949 0.72685
 C549 C -0.06469 0.40587 0.74522
 C550 C -0.08098 0.40721 0.76479
 C551 C -0.07531 0.42397 0.78316
 C552 C -0.05457 0.43875 0.78186
 C553 C -0.03898 0.43745 0.76225
 C554 C -0.04405 0.42091 0.74408
 H555 H -0.11831 0.33695 0.71538
 H556 H -0.17628 0.34690 0.78202
 H557 H -0.15272 0.31151 0.71762
 H558 H -0.15256 0.37907 0.79851
 H559 H -0.11824 0.40548 0.79809
 H560 H -0.09077 0.36215 0.71237
 H561 H -0.05661 0.38851 0.71181
 H562 H -0.08626 0.42595 0.79892
 H563 H -0.05059 0.45120 0.79628
 H564 H -0.03177 0.41977 0.72899
 C565 C 0.21951 0.14106 0.36694
 C566 C 0.23894 0.12506 0.36946
 C567 C 0.25996 0.12865 0.35513
 C568 C 0.26124 0.14742 0.33911
 C569 C 0.24177 0.16302 0.33678
 C570 C 0.22098 0.15962 0.35093
 C571 C 0.27964 0.11345 0.35673
 C572 C 0.27892 0.09445 0.37198
 C573 C 0.25835 0.08981 0.38645
 C574 C 0.23816 0.10558 0.38544
 C575 C 0.21787 0.10130 0.40039
 C576 C 0.21701 0.08210 0.41541
 C577 C 0.23622 0.06628 0.41620
 C578 C 0.25725 0.06987 0.40183
 C579 C 0.27611 0.05306 0.40324
 C580 C 0.27392 0.03358 0.41801
 C581 C 0.25311 0.03023 0.43200
 C582 C 0.23433 0.04664 0.43110
 H583 H 0.20274 0.13971 0.37687
 H584 H 0.27758 0.14984 0.32850
 H585 H 0.20547 0.17113 0.34952
 H586 H 0.29581 0.11618 0.34592
 H587 H 0.29497 0.08372 0.37198
 H588 H 0.20218 0.11251 0.40099
 H589 H 0.20097 0.07951 0.42643
 H590 H 0.29265 0.05414 0.39296
 H591 H 0.28852 0.02088 0.41838
 H592 H 0.21804 0.04383 0.44175
 C593 C 0.70973 0.14260 0.66221
 C594 C 0.72939 0.13684 0.64690
 C595 C 0.75084 0.15129 0.64839
 C596 C 0.75240 0.17041 0.66463
 C597 C 0.73285 0.17574 0.67979
 C598 C 0.71152 0.16166 0.67829
 C599 C 0.77078 0.14657 0.63378
 C600 C 0.77014 0.12764 0.61776
 C601 C 0.74940 0.11246 0.61569
 C602 C 0.72859 0.11724 0.63037
 C603 C 0.70776 0.10219 0.62815
 C604 C 0.70729 0.08298 0.61248
 C605 C 0.72746 0.07789 0.59835
 C606 C 0.74881 0.09255 0.59956
 C607 C 0.76877 0.08638 0.58473
 C608 C 0.76752 0.06642 0.56975
 C609 C 0.74640 0.05214 0.56886
 C610 C 0.72644 0.05795 0.58315
 H611 H 0.69268 0.13277 0.66235
 H612 H 0.76914 0.18093 0.66555
 H613 H 0.69595 0.16533 0.68952
 H614 H 0.78719 0.15763 0.63478
 H615 H 0.78639 0.12540 0.60727
 H616 H 0.69136 0.10465 0.63838
 H617 H 0.69092 0.07185 0.61155
 H618 H 0.78574 0.09634 0.58440
 H619 H 0.78324 0.06193 0.55898
 H620 H 0.71013 0.04670 0.58254
 C621 C 0.28901 -0.14149 0.65407
 C622 C 0.26868 -0.13644 0.63944
 C623 C 0.24702 -0.15026 0.64244
 C624 C 0.24587 -0.16801 0.65963
 C625 C 0.26603 -0.17237 0.67431
 C626 C 0.28761 -0.15906 0.67113
 C627 C 0.22647 -0.14616 0.62848
 C628 C 0.22664 -0.12834 0.61183
 C629 C 0.24753 -0.11370 0.60842
 C630 C 0.26901 -0.11803 0.62226
 C631 C 0.29002 -0.10360 0.61866
 C632 C 0.28996 -0.08525 0.60267
 C633 C 0.26908 -0.08044 0.58951
 C634 C 0.24758 -0.09467 0.59189
 C635 C 0.22696 -0.08887 0.57789
 C636 C 0.22765 -0.06951 0.56278
 C637 C 0.24885 -0.05548 0.56096
 C638 C 0.26953 -0.06112 0.57421
 H639 H 0.30629 -0.13215 0.65302
 H640 H 0.22899 -0.17806 0.66185
 H641 H 0.30367 -0.16217 0.68183
 H642 H 0.20989 -0.15676 0.63059
 H643 H 0.20991 -0.12642 0.60198
 H644 H 0.30695 -0.10584 0.62809
 H645 H 0.30646 -0.07450 0.60077
 H646 H 0.20987 -0.09864 0.57840
 H647 H 0.21141 -0.06518 0.55277
 H648 H 0.28593 -0.05011 0.57284
 C649 C 0.77607 -0.14913 0.37457
 C650 C 0.75673 -0.13284 0.37643
 C651 C 0.73605 -0.13681 0.36149
 C652 C 0.73512 -0.15600 0.34533
 C653 C 0.75460 -0.17167 0.34344
 C654 C 0.77494 -0.16814 0.35837
 C655 C 0.71637 -0.12154 0.36257
 C656 C 0.71679 -0.10204 0.37784
 C657 C 0.73708 -0.09691 0.39280
 C658 C 0.75727 -0.11272 0.39232
 C659 C 0.77737 -0.10779 0.40759
 C660 C 0.77801 -0.08796 0.42248
 C661 C 0.75875 -0.07217 0.42283
 C662 C 0.73792 -0.07639 0.40811
 C663 C 0.71895 -0.05962 0.40914
 C664 C 0.72082 -0.03963 0.42394
 C665 C 0.74143 -0.03569 0.43830
 C666 C 0.76036 -0.05197 0.43771
 H667 H 0.79249 -0.14765 0.38515
 H668 H 0.71906 -0.15866 0.33420
 H669 H 0.79036 -0.17984 0.35732
 H670 H 0.70045 -0.12461 0.35130
 H671 H 0.70077 -0.09129 0.37738
 H672 H 0.79310 -0.11890 0.40848
 H673 H 0.79392 -0.08486 0.43376
 H674 H 0.70251 -0.06117 0.39861
 H675 H 0.70611 -0.02704 0.42412
 H676 H 0.77648 -0.04869 0.44867
 C677 C 0.65578 0.77779 -0.15555
 C678 C 0.65182 0.75833 -0.14046
 C679 C 0.66420 0.73712 -0.14603
 C680 C 0.67988 0.73574 -0.16574
 C681 C 0.68363 0.75522 -0.18041
 C682 C 0.67136 0.77618 -0.17511
 C683 C 0.66092 0.71733 -0.13194
 C684 C 0.64574 0.71801 -0.11224
 C685 C 0.63311 0.73869 -0.10569
 C686 C 0.63615 0.75919 -0.12007
 C687 C 0.62353 0.77987 -0.11352
 C688 C 0.60866 0.78068 -0.09358
 C689 C 0.60564 0.76098 -0.07933
 C690 C 0.61767 0.73962 -0.08516
 C691 C 0.61383 0.72015 -0.06998
 C692 C 0.59896 0.72204 -0.04994
 C693 C 0.58730 0.74319 -0.04441
 C694 C 0.59072 0.76263 -0.05909
 H695 H 0.64724 0.79461 -0.15283
 H696 H 0.68900 0.71931 -0.16973
 H697 H 0.67398 0.79165 -0.18591
 H698 H 0.67029 0.70106 -0.13617
 H699 H 0.64440 0.70188 -0.10245
 H700 H 0.62476 0.79597 -0.12338
 H701 H 0.59947 0.79701 -0.08923
 H702 H 0.62208 0.70323 -0.07290
 H703 H 0.59658 0.70690 -0.03859
 H704 H 0.58189 0.77912 -0.05457
 C705 C 0.34913 0.22353 -0.15308
 C706 C 0.35223 0.24345 -0.13763
 C707 C 0.33868 0.26387 -0.14281
 C708 C 0.32285 0.26414 -0.16251
 C709 C 0.31987 0.24422 -0.17751
 C710 C 0.33326 0.22399 -0.17260
 C711 C 0.34086 0.28401 -0.12830
 C712 C 0.35598 0.28440 -0.10846
 C713 C 0.36972 0.26452 -0.10224
 C714 C 0.36808 0.24379 -0.11724
 C715 C 0.38235 0.22415 -0.11136
 C716 C 0.39744 0.22455 -0.09145
 C717 C 0.39892 0.24440 -0.07646
 C718 C 0.38508 0.26470 -0.08153
 C719 C 0.38707 0.28426 -0.06545
 C720 C 0.40218 0.28359 -0.04546
 C721 C 0.41589 0.26361 -0.04082
 C722 C 0.41414 0.24400 -0.05627
 H723 H 0.35848 0.20719 -0.15055
 H724 H 0.31291 0.28006 -0.16611
 H725 H 0.33132 0.20822 -0.18366
 H726 H 0.33065 0.29972 -0.13226
 H727 H 0.35651 0.30077 -0.09840
 H728 H 0.38239 0.20806 -0.12186
 H729 H 0.40802 0.20901 -0.08768
 H730 H 0.37708 0.30030 -0.06757
 H731 H 0.40321 0.29881 -0.03349
 H732 H 0.42457 0.22838 -0.05243
 C733 C 0.35586 0.71806 0.12760
 C734 C 0.37256 0.73704 0.12372
 C735 C 0.37189 0.75666 0.13974
 C736 C 0.35479 0.75728 0.15837
 C737 C 0.33803 0.73853 0.16159
 C738 C 0.33898 0.71889 0.14612
 C739 C 0.38813 0.77571 0.13700
 C740 C 0.40497 0.77594 0.11856
 C741 C 0.40617 0.75707 0.10184
 C742 C 0.38970 0.73726 0.10449
 C743 C 0.39067 0.71849 0.08764
 C744 C 0.40684 0.71905 0.06872
 C745 C 0.42283 0.73820 0.06578
 C746 C 0.42303 0.75744 0.08234
 C747 C 0.43995 0.77631 0.07841
 C748 C 0.45544 0.77615 0.05867
 C749 C 0.45469 0.75722 0.04238
 C750 C 0.43848 0.73828 0.04606
 H751 H 0.35522 0.70223 0.11671
 H752 H 0.35438 0.77264 0.17013
 H753 H 0.32669 0.70388 0.14826
 H754 H 0.38778 0.79073 0.14924
 H755 H 0.41667 0.79142 0.11780
 H756 H 0.37893 0.70304 0.08829
 H757 H 0.40670 0.70431 0.05612
 H758 H 0.44163 0.79155 0.09008
 H759 H 0.46786 0.79100 0.05590
 H760 H 0.43792 0.72366 0.03331
 C761 C 0.62622 0.22892 0.14820
 C762 C 0.62283 0.24878 0.13367
 C763 C 0.63824 0.26889 0.13793
 C764 C 0.65603 0.26895 0.15605
 C765 C 0.65898 0.24915 0.17032
 C766 C 0.64391 0.22919 0.16612
 C767 C 0.63588 0.28890 0.12408
 C768 C 0.61878 0.28940 0.10581
 C769 C 0.60314 0.26981 0.10060
 C770 C 0.60494 0.24928 0.11501
 C771 C 0.58881 0.22994 0.11026
 C772 C 0.57199 0.23027 0.09175
 C773 C 0.57047 0.24981 0.07716
 C774 C 0.58586 0.26997 0.08138
 C775 C 0.58355 0.28925 0.06582
 C776 C 0.56707 0.28823 0.04682
 C777 C 0.55219 0.26821 0.04279
 C778 C 0.55384 0.24909 0.05805
 H779 H 0.61570 0.21273 0.14614
 H780 H 0.66742 0.28459 0.15913
 H781 H 0.64589 0.21344 0.17653
 H782 H 0.64751 0.30437 0.12732
 H783 H 0.61832 0.30561 0.09611
 H784 H 0.58862 0.21408 0.12054
 H785 H 0.56016 0.21490 0.08870
 H786 H 0.59445 0.30524 0.06748
 H787 H 0.56613 0.30307 0.03496
 H788 H 0.54252 0.23343 0.05466
 C789 C -0.13236 0.65498 0.70833
 C790 C -0.12834 0.63962 0.72745
 C791 C -0.14435 0.64120 0.74716
 C792 C -0.16359 0.65738 0.74742
 C793 C -0.16714 0.67283 0.72844
 C794 C -0.15128 0.67118 0.70888
 C795 C -0.14093 0.62683 0.76674
 C796 C -0.12151 0.61139 0.76758
 C797 C -0.10473 0.60945 0.74862
 C798 C -0.10872 0.62319 0.72788
 C799 C -0.09294 0.62009 0.70826
 C800 C -0.07336 0.60491 0.70916
 C801 C -0.06850 0.59231 0.72961
 C802 C -0.08407 0.59425 0.74968
 C803 C -0.07785 0.58131 0.77014
 C804 C -0.05705 0.56731 0.77052
 C805 C -0.04198 0.56554 0.75056
 C806 C -0.04782 0.57801 0.73016
 H807 H -0.12094 0.65539 0.69278
 H808 H -0.17536 0.65813 0.76284
 H809 H -0.15318 0.68243 0.69369
 H810 H -0.15325 0.62777 0.78179
 H811 H -0.12028 0.60103 0.78339
 H812 H -0.09529 0.62902 0.69170
 H813 H -0.06165 0.60327 0.69370
 H814 H -0.08826 0.58203 0.78634
 H815 H -0.05247 0.55808 0.78659
 H816 H -0.03594 0.57680 0.71479
 C817 C -0.14227 0.34019 0.27530
 C818 C -0.13565 0.35387 0.25541
 C819 C -0.15048 0.35148 0.23474
 C820 C -0.17062 0.33558 0.23405
 C821 C -0.17650 0.32178 0.25377
 C822 C -0.16223 0.32450 0.27440
 C823 C -0.14508 0.36483 0.21478
 C824 C -0.12519 0.38050 0.21471
 C825 C -0.10962 0.38336 0.23469
 C826 C -0.11488 0.36973 0.25535
 C827 C -0.09903 0.37216 0.27517
 C828 C -0.07879 0.38728 0.27493
 C829 C -0.07345 0.40071 0.25507
 C830 C -0.08878 0.39917 0.23465
 C831 C -0.08240 0.41350 0.21507
 C832 C -0.06162 0.42831 0.21580
 C833 C -0.04667 0.42943 0.23599
 C834 C -0.05264 0.41562 0.25553
 H835 H -0.13253 0.34114 0.29195
 H836 H -0.18145 0.33375 0.21794
 H837 H -0.16649 0.31456 0.29015
 H838 H -0.15636 0.36313 0.19893
 H839 H -0.12241 0.38997 0.19849
 H840 H -0.10151 0.36239 0.29124
 H841 H -0.06711 0.38840 0.29055
 H842 H -0.09298 0.41372 0.19891
 H843 H -0.05708 0.43887 0.20050
 H844 H -0.04094 0.41651 0.27115
 C845 C 0.13648 0.34581 0.71325
 C846 C 0.13286 0.36146 0.73281
 C847 C 0.14891 0.35973 0.75252
 C848 C 0.16725 0.34261 0.75269
 C849 C 0.17012 0.32682 0.73340
 C850 C 0.15471 0.32888 0.71364
 C851 C 0.14645 0.37489 0.77215
 C852 C 0.12811 0.39154 0.77296
 C853 C 0.11122 0.39366 0.75410
 C854 C 0.11376 0.37848 0.73360
 C855 C 0.09684 0.38053 0.71474
 C856 C 0.07777 0.39631 0.71601
 C857 C 0.07475 0.41084 0.73598
 C858 C 0.09156 0.41010 0.75522
 C859 C 0.08759 0.42559 0.77493
 C860 C 0.06738 0.44039 0.77567
 C861 C 0.05070 0.44040 0.75682
 C862 C 0.05460 0.42583 0.73695
 H863 H 0.12553 0.34599 0.69733
 H864 H 0.17898 0.34142 0.76814
 H865 H 0.15656 0.31734 0.69824
 H866 H 0.15877 0.37375 0.78722
 H867 H 0.12753 0.40234 0.78889
 H868 H 0.09753 0.36992 0.69870
 H869 H 0.06504 0.39695 0.70122
 H870 H 0.09948 0.42653 0.79022
 H871 H 0.06446 0.45155 0.79123
 H872 H 0.04154 0.42586 0.72238
 C873 C 0.15122 0.63573 0.21480
 C874 C 0.13597 0.63088 0.23450
 C875 C 0.14013 0.64438 0.25568
 C876 C 0.15888 0.66175 0.25691
 C877 C 0.17386 0.66619 0.23725
 C878 C 0.16974 0.65301 0.21624
 C879 C 0.12556 0.64054 0.27558
 C880 C 0.10661 0.62385 0.27493
 C881 C 0.10144 0.61010 0.25424
 C882 C 0.11665 0.61337 0.23382
 C883 C 0.11203 0.59904 0.21339
 C884 C 0.09284 0.58264 0.21260
 C885 C 0.07740 0.57976 0.23202
 C886 C 0.08148 0.59329 0.25322
 C887 C 0.06503 0.58969 0.27233
 C888 C 0.04530 0.57375 0.27017
 C889 C 0.04141 0.56071 0.24913
 C890 C 0.05757 0.56364 0.23016
 H891 H 0.14926 0.62673 0.19787
 H892 H 0.16186 0.67168 0.27335
 H893 H 0.18067 0.65617 0.20056
 H894 H 0.12873 0.65070 0.29186
 H895 H 0.09636 0.62216 0.29114
 H896 H 0.12296 0.59998 0.19755
 H897 H 0.08991 0.57222 0.19643
 H898 H 0.06649 0.59918 0.28904
 H899 H 0.03275 0.57182 0.28492
 H900 H 0.05427 0.55375 0.21372
 C901 C 0.77562 -0.14798 0.62756
 C902 C 0.75622 -0.13177 0.62619
 C903 C 0.73551 -0.13585 0.64079
 C904 C 0.73461 -0.15508 0.65619
 C905 C 0.75417 -0.17065 0.65766
 C906 C 0.77454 -0.16701 0.64302
 C907 C 0.71578 -0.12065 0.64016
 C908 C 0.71618 -0.10109 0.62567
 C909 C 0.73651 -0.09584 0.61110
 C910 C 0.75675 -0.11161 0.61111
 C911 C 0.77687 -0.10658 0.59620
 C912 C 0.77749 -0.08672 0.58209
 C913 C 0.75818 -0.07100 0.58219
 C914 C 0.73733 -0.07529 0.59660
 C915 C 0.71832 -0.05857 0.59607
 C916 C 0.72012 -0.03860 0.58195
 C917 C 0.74071 -0.03466 0.56782
 C918 C 0.75973 -0.05083 0.56804
 H919 H 0.79207 -0.14642 0.61718
 H920 H 0.71853 -0.15783 0.66710
 H921 H 0.79003 -0.17861 0.64376
 H922 H 0.69982 -0.12380 0.65117
 H923 H 0.70012 -0.09039 0.62642
 H924 H 0.79265 -0.11764 0.59499
 H925 H 0.79342 -0.08356 0.57104
 H926 H 0.70188 -0.06015 0.60646
 H927 H 0.70534 -0.02608 0.58207
 H928 H 0.77585 -0.04752 0.55729
 C929 C 0.28638 -0.14770 0.34019
 C930 C 0.26582 -0.14144 0.35406
 C931 C 0.24403 -0.15516 0.35085
 C932 C 0.24295 -0.17391 0.33405
 C933 C 0.26335 -0.17943 0.32007
 C934 C 0.28507 -0.16627 0.32357
 C935 C 0.22330 -0.14998 0.36424
 C936 C 0.22351 -0.13129 0.38060
 C937 C 0.24456 -0.11676 0.38420
 C938 C 0.26611 -0.12199 0.37076
 C939 C 0.28713 -0.10739 0.37420
 C940 C 0.28712 -0.08820 0.38986
 C941 C 0.26630 -0.08271 0.40287
 C942 C 0.24473 -0.09696 0.40053
 C943 C 0.22420 -0.09050 0.41447
 C944 C 0.22507 -0.07054 0.42952
 C945 C 0.24636 -0.05654 0.43130
 C946 C 0.26691 -0.06276 0.41805
 H947 H 0.30385 -0.13867 0.34161
 H948 H 0.22598 -0.18388 0.33160
 H949 H 0.30135 -0.17030 0.31349
 H950 H 0.20661 -0.16046 0.36195
 H951 H 0.20665 -0.12857 0.39002
 H952 H 0.30402 -0.11007 0.36483
 H953 H 0.30365 -0.07739 0.39168
 H954 H 0.20712 -0.10029 0.41407
 H955 H 0.20897 -0.06581 0.43961
 H956 H 0.28338 -0.05179 0.41945
 C957 C 0.70744 0.13869 0.34748
 C958 C 0.72765 0.13335 0.36214
 C959 C 0.74925 0.14741 0.35978
 C960 C 0.75045 0.16567 0.34319
 C961 C 0.73039 0.17038 0.32853
 C962 C 0.70889 0.15681 0.33103
 C963 C 0.76968 0.14307 0.37382
 C964 C 0.76941 0.12484 0.39000
 C965 C 0.74857 0.11001 0.39280
 C966 C 0.72725 0.11447 0.37878
 C967 C 0.70634 0.09974 0.38165
 C968 C 0.70631 0.08104 0.39722
 C969 C 0.72698 0.07620 0.41066
 C970 C 0.74839 0.09067 0.40893
 C971 C 0.76880 0.08484 0.42321
 C972 C 0.76797 0.06527 0.43801
 C973 C 0.74685 0.05106 0.43921
 C974 C 0.72640 0.05666 0.42563
 H975 H 0.69020 0.12922 0.34808
 H976 H 0.76728 0.17590 0.34147
 H977 H 0.69290 0.16017 0.32031
 H978 H 0.78620 0.15383 0.37218
 H979 H 0.78605 0.12277 0.39996
 H980 H 0.68957 0.10199 0.37196
 H981 H 0.68989 0.07008 0.39860
 H982 H 0.78579 0.09479 0.42322
 H983 H 0.78401 0.06097 0.44833
 H984 H 0.71007 0.04549 0.42655
 C985 C 0.22126 0.14264 0.62972
 C986 C 0.24061 0.12648 0.62706
 C987 C 0.26147 0.13002 0.64187
 C988 C 0.26261 0.14879 0.65858
 C989 C 0.24319 0.16448 0.66107
 C990 C 0.22261 0.16122 0.64638
 C991 C 0.28113 0.11478 0.64005
 C992 C 0.28056 0.09579 0.62410
 C993 C 0.26013 0.09116 0.60916
 C994 C 0.23992 0.10691 0.61048
 C995 C 0.21964 0.10247 0.59529
 C996 C 0.21881 0.08313 0.57975
 C997 C 0.23808 0.06738 0.57858
 C998 C 0.25913 0.07118 0.59311
 C999 C 0.27814 0.05452 0.59116
 C1000 C 0.27599 0.03491 0.57585
 C1001 C 0.25508 0.03128 0.56181
 C1002 C 0.23621 0.04759 0.56315
 H1003 H 0.20468 0.14142 0.61936
 H1004 H 0.27880 0.15118 0.66958
 H1005 H 0.20718 0.17286 0.64791
 H1006 H 0.29718 0.11748 0.65123
 H1007 H 0.29657 0.08500 0.62403
 H1008 H 0.20387 0.11359 0.59498
 H1009 H 0.20274 0.08038 0.56860
 H1010 H 0.29479 0.05584 0.60139
 H1011 H 0.29068 0.02230 0.57510
 H1012 H 0.21985 0.04457 0.55246
   
