data_POSCAR
  _audit_creation_date              2014-09-24
  _audit_creation_method            'ToBaCCo'
  _symmetry_space_group_name_H-M    'P1'
  _symmetry_Int_Tables_number       1
  _symmetry_cell_setting            triclinic
  loop_
  _symmetry_equiv_pos_as_xyz
 x,y,z
_cell_length_a 37.0466
_cell_length_b 36.0951
_cell_length_c 36.2606
_cell_angle_alpha 89.961000
_cell_angle_beta 90.555700
_cell_angle_gamma 89.536400
loop_
  _atom_site_label
  _atom_site_type_symbol
  _atom_site_fract_x
  _atom_site_fract_y
  _atom_site_fract_z
N1 N 0.18883 1.25901 0.15901
 N2 N 0.16673 1.26123 0.18703
 C3 C 0.14097 1.28671 0.17958
 C4 C 0.14731 1.30170 0.14492
 C5 C 0.17819 1.28338 0.13291
 H6 H 0.11931 1.29357 0.19817
 H7 H 0.19129 1.28629 0.10659
 Cu8 Cu 0.17332 1.23027 0.23039
 Cu9 Cu 0.22770 1.22234 0.15702
 Cu10 Cu 0.23094 1.15800 0.22798
 N11 N 0.17185 1.19116 0.26709
 N12 N 0.19430 1.16286 0.26592
 C13 C 0.18658 1.13925 0.29339
 C14 C 0.15751 1.15339 0.31307
 C15 C 0.14908 1.18662 0.29540
 H16 H 0.20090 1.11348 0.29811
 H17 H 0.12742 1.20572 0.30175
 N18 N 0.26561 1.15802 0.18707
 N19 N 0.26458 1.18271 0.16023
 C20 C 0.29066 1.17453 0.13586
 C21 C 0.30902 1.14307 0.14782
 C22 C 0.29237 1.13351 0.18049
 H23 H 0.29509 1.18964 0.11061
 H24 H 0.29884 1.11008 0.19795
 H25 H 0.19952 1.18505 0.18871
 H26 H 0.23470 1.21309 0.21293
 N27 N 0.81511 0.73518 0.17240
 N28 N 0.84516 0.74016 0.19128
 C29 C 0.86990 0.71501 0.18061
 C30 C 0.85436 0.69271 0.15394
 C31 C 0.81943 0.70604 0.14961
 H32 H 0.89725 0.71330 0.19121
 H33 H 0.79935 0.69659 0.12998
 Cu34 Cu 0.84927 0.77896 0.22809
 Cu35 Cu 0.77446 0.76971 0.17646
 Cu36 Cu 0.80148 0.85554 0.20944
 N37 N 0.85485 0.82333 0.25770
 N38 N 0.83600 0.85339 0.25023
 C39 C 0.84566 0.88037 0.27380
 C40 C 0.87206 0.86649 0.29773
 C41 C 0.87711 0.82998 0.28642
 H42 H 0.83420 0.90799 0.27310
 H43 H 0.89568 0.80968 0.29780
 N44 N 0.75762 0.84836 0.17930
 N45 N 0.74621 0.81554 0.16844
 C46 C 0.71525 0.81992 0.14909
 C47 C 0.70696 0.85739 0.14750
 C48 C 0.73438 0.87450 0.16707
 H49 H 0.70073 0.79765 0.13582
 H50 H 0.73718 0.90385 0.17218
 H51 H 0.81363 0.80804 0.17909
 H52 H 0.78749 0.80310 0.22248
 N53 N 0.79024 1.27080 -0.17463
 N54 N 0.81416 1.27124 -0.20111
 C55 C 0.83939 1.29672 -0.19319
 C56 C 0.83081 1.31329 -0.15986
 C57 C 0.79919 1.29622 -0.14907
 H58 H 0.86262 1.30206 -0.21014
 H59 H 0.78453 1.30071 -0.12380
 Cu60 Cu 0.81181 1.23667 -0.24214
 Cu61 Cu 0.75055 1.23576 -0.17462
 Cu62 Cu 0.76712 1.15748 -0.22727
 N63 N 0.82077 1.19278 -0.27157
 N64 N 0.80549 1.16114 -0.26346
 C65 C 0.81946 1.13434 -0.28488
 C66 C 0.84467 1.15005 -0.30818
 C67 C 0.84445 1.18743 -0.29903
 H68 H 0.81120 1.10571 -0.28398
 H69 H 0.86158 1.20884 -0.30994
 N70 N 0.72896 1.16006 -0.18975
 N71 N 0.72235 1.19005 -0.17007
 C72 C 0.69481 1.18328 -0.14712
 C73 C 0.68325 1.14733 -0.15286
 C74 C 0.70553 1.13352 -0.18013
 H75 H 0.68400 1.20311 -0.12773
 H76 H 0.70502 1.10596 -0.19175
 H77 H 0.78759 1.19839 -0.19334
 H78 H 0.75192 1.21213 -0.22745
 N79 N 0.18134 0.73366 -0.15506
 N80 N 0.15256 0.74197 -0.17496
 C81 C 0.12625 0.71773 -0.16738
 C82 C 0.13937 0.69266 -0.14161
 C83 C 0.17450 0.70346 -0.13450
 H84 H 0.09948 0.71835 -0.17955
 H85 H 0.19305 0.69126 -0.11465
 Cu86 Cu 0.15141 0.78397 -0.20845
 Cu87 Cu 0.22375 0.76513 -0.15453
 Cu88 Cu 0.22765 0.83224 -0.22244
 N89 N 0.15666 0.81679 -0.25048
 N90 N 0.18634 0.83554 -0.25600
 C91 C 0.18163 0.85755 -0.28566
 C92 C 0.14694 0.85239 -0.29971
 C93 C 0.13211 0.82596 -0.27656
 H94 H 0.20181 0.87646 -0.29553
 H95 H 0.10513 0.81488 -0.27766
 N96 N 0.26634 0.82464 -0.18542
 N97 N 0.26414 0.79994 -0.15870
 C98 C 0.29154 0.80515 -0.13465
 C99 C 0.31222 0.83420 -0.14708
 C100 C 0.29564 0.84577 -0.17944
 H101 H 0.29533 0.79005 -0.10912
 H102 H 0.30283 0.86967 -0.19571
 H103 H 0.20128 0.81359 -0.17602
 H104 H 0.21657 0.77766 -0.20992
 C105 C 0.52605 1.06036 -0.02993
 H106 H 0.50732 1.07357 -0.01135
 C107 C 0.54905 1.08215 -0.05107
 H108 H 0.54704 1.11202 -0.04917
 C109 C 0.55203 1.00553 -0.05432
 H110 H 0.55341 0.97558 -0.05483
 C111 C 0.57563 1.02618 -0.07573
 H112 H 0.59528 1.01177 -0.09246
 N113 N 0.52800 1.02277 -0.03191
 C114 C 0.46934 1.01793 0.06600
 H115 H 0.48854 1.00002 0.07997
 C116 C 0.44462 1.03846 0.08668
 H117 H 0.44568 1.03676 0.11649
 C118 C 0.44393 1.04125 0.01036
 H119 H 0.44357 1.04173 -0.01947
 C120 C 0.41881 1.06226 0.02992
 H121 H 0.39900 1.07868 0.01487
 Zn122 Zn 0.50070 0.99175 -0.00098
 N123 N 0.46883 1.02002 0.02853
 C124 C 0.55508 0.98484 0.05237
 N125 N 0.53463 0.96502 0.02826
 C126 C 0.54064 0.92816 0.02308
 C127 C 0.56777 0.90974 0.04307
 C128 C 0.58214 0.96747 0.07325
 C129 C 0.46541 0.96647 -0.06577
 C130 C 0.44102 0.94481 -0.08578
 C131 C 0.43124 0.90830 -0.03100
 C132 C 0.45493 0.93134 -0.01182
 N133 N 0.47175 0.95947 -0.02944
 H134 H 0.55044 1.01432 0.05522
 H135 H 0.52528 0.91318 0.00258
 H136 H 0.57271 0.88065 0.03774
 H137 H 0.59751 0.98378 0.09279
 H138 H 0.47820 0.98974 -0.07893
 H139 H 0.43530 0.95213 -0.11418
 H140 H 0.41913 0.88551 -0.01636
 H141 H 0.45985 0.92688 0.01731
 C142 C 0.41895 1.06108 0.06863
 C143 C 0.57456 1.06508 -0.07410
 C144 C 0.42333 0.91521 -0.06844
 C145 C 0.58906 0.92943 0.06854
 C146 C -0.01844 0.54568 1.05283
 H147 H 0.01048 0.54205 1.05552
 C148 C -0.03618 0.57170 1.07466
 H149 H -0.02059 0.58689 1.09488
 C150 C -0.07334 0.52968 1.02316
 H151 H -0.08752 0.51385 1.00238
 C152 C -0.09208 0.55621 1.04375
 H153 H -0.12058 0.56040 1.03830
 N154 N -0.03716 0.52492 1.02809
 C155 C 0.04002 0.43539 1.00774
 H156 H 0.03991 0.43583 0.97790
 C157 C 0.06141 0.40955 1.02674
 H158 H 0.07729 0.38989 1.01112
 C159 C 0.01785 0.45949 1.06394
 H160 H 0.00024 0.47833 1.07841
 C161 C 0.03923 0.43450 1.08407
 H162 H 0.03849 0.43544 1.11388
 Zn163 Zn -0.00982 0.49285 0.99781
 N164 N 0.01899 0.45985 1.02645
 C165 C 0.05570 0.52623 0.97532
 N166 N 0.01954 0.52400 0.96909
 C167 C 0.00253 0.54684 0.94460
 C168 C 0.02205 0.57274 0.92460
 C169 C 0.07617 0.55253 0.95664
 C170 C -0.06450 0.44146 0.98450
 C171 C -0.08664 0.41801 0.96383
 C172 C -0.05810 0.44010 0.90848
 C173 C -0.03647 0.46306 0.93021
 N174 N -0.04023 0.46358 0.96749
 H175 H 0.06848 0.50862 0.99582
 H176 H -0.02640 0.54506 0.94079
 H177 H 0.00779 0.58978 0.90461
 H178 H 0.10460 0.55476 0.96330
 H179 H -0.06639 0.44182 1.01425
 H180 H -0.10536 0.40019 0.97798
 H181 H -0.05490 0.44039 0.87884
 H182 H -0.01626 0.47988 0.91721
 C183 C 0.06140 0.40892 1.06553
 C184 C -0.07350 0.57783 1.06996
 C185 C -0.08355 0.41705 0.92525
 C186 C 0.05937 0.57650 0.93094
 C187 C 1.05703 -0.00517 0.56176
 H188 H 1.05833 0.02474 0.56274
 C189 C 1.07694 -0.02638 0.58702
 H190 H 1.09343 -0.01256 0.60754
 C191 C 1.03256 -0.05935 0.53477
 H192 H 1.01464 -0.07205 0.51491
 C193 C 1.05182 -0.08164 0.55974
 H194 H 1.04908 -0.11145 0.55834
 N195 N 1.03566 -0.02183 0.53610
 C196 C 1.02170 0.06508 0.45371
 H197 H 0.99253 0.06676 0.45296
 C198 C 1.04189 0.08613 0.42921
 H199 H 1.02789 0.10380 0.40952
 C200 C 1.07496 0.03776 0.47864
 H201 H 1.08770 0.01807 0.49715
 C202 C 1.09623 0.05846 0.45474
 H203 H 1.12528 0.05512 0.45590
 Zn204 Zn 1.00816 0.00971 0.50479
 N205 N 1.03838 0.04123 0.47750
 C206 C 0.98383 0.07368 0.54311
 N207 N 0.97723 0.03747 0.53562
 C208 C 0.95000 0.01918 0.55238
 C209 C 0.92712 0.03770 0.57661
 C210 C 0.96243 0.09296 0.56835
 C211 C 1.00036 -0.04095 0.44712
 C212 C 0.98273 -0.06084 0.41940
 C213 C 0.92658 -0.03197 0.43745
 C214 C 0.94527 -0.01270 0.46489
 N215 N 0.98145 -0.01786 0.46956
 H216 H 1.00642 0.08733 0.53042
 H217 H 0.94590 -0.00990 0.54666
 H218 H 0.90480 0.02256 0.58805
 H219 H 0.96935 0.12128 0.57484
 H220 H 1.02929 -0.04367 0.45066
 H221 H 0.99833 -0.07881 0.40161
 H222 H 0.89773 -0.02775 0.43441
 H223 H 0.93088 0.00693 0.48182
 C224 C 1.07969 0.08257 0.42909
 C225 C 1.07435 -0.06515 0.58632
 C226 C 0.94533 -0.05643 0.41426
 C227 C 0.93336 0.07509 0.58554
 C228 C 0.13851 0.34369 1.09223
 C229 C 0.12648 0.32854 1.12574
 C230 C 0.09290 0.34068 1.13935
 C231 C 0.07185 0.36648 1.11982
 C232 C 0.08395 0.38152 1.08642
 C233 C 0.11770 0.36996 1.07306
 H234 H 0.16430 0.33590 1.08075
 H235 H 0.08210 0.32977 1.16469
 H236 H 0.04571 0.37406 1.13069
 H237 H 0.12836 0.38150 1.04790
 C238 C -0.09112 0.66670 1.12340
 C239 C -0.12762 0.66329 1.13251
 C240 C -0.14660 0.63190 1.12079
 C241 C -0.12908 0.60394 1.10088
 C242 C -0.09242 0.60729 1.09147
 C243 C -0.07388 0.63935 1.10271
 H244 H -0.07607 0.69100 1.13156
 H245 H -0.17477 0.62863 1.12770
 H246 H -0.14422 0.57953 1.09337
 H247 H -0.04608 0.64378 1.09512
 C248 C -0.11163 0.34770 0.85194
 C249 C -0.14775 0.34089 0.86110
 C250 C -0.16285 0.36000 0.89108
 C251 C -0.14219 0.38497 0.91165
 C252 C -0.10593 0.39139 0.90277
 C253 C -0.09096 0.37258 0.87255
 H254 H -0.09889 0.33326 0.82935
 H255 H -0.19069 0.35582 0.89869
 H256 H -0.15470 0.39946 0.93439
 H257 H -0.06295 0.37639 0.86532
 C258 C 0.08237 0.66745 0.88385
 C259 C 0.11919 0.66275 0.87650
 C260 C 0.13649 0.62962 0.88695
 C261 C 0.11709 0.60136 0.90402
 C262 C 0.08015 0.60607 0.91188
 C263 C 0.06321 0.63972 0.90177
 H264 H 0.06856 0.69303 0.87660
 H265 H 0.16486 0.62531 0.88130
 H266 H 0.13105 0.57574 0.91065
 H267 H 0.03523 0.64514 0.90825
 C268 C 1.11058 0.15508 0.36051
 C269 C 1.13961 0.13690 0.34306
 C270 C 1.14975 0.10139 0.35589
 C271 C 1.13081 0.08422 0.38421
 C272 C 1.10136 0.10208 0.40086
 C273 C 1.09181 0.13792 0.38901
 H274 H 1.10193 0.18256 0.35229
 H275 H 1.17178 0.08606 0.34370
 H276 H 1.13861 0.05637 0.39224
 H277 H 1.06966 0.15275 0.40170
 C278 C 1.09421 -0.13735 0.65984
 C279 C 1.12983 -0.12869 0.67072
 C280 C 1.14748 -0.09993 0.65188
 C281 C 1.12968 -0.07976 0.62415
 C282 C 1.09395 -0.08798 0.61416
 C283 C 1.07660 -0.11731 0.63192
 H284 H 1.07941 -0.15933 0.67294
 H285 H 1.17485 -0.09221 0.65875
 H286 H 1.14389 -0.05758 0.61053
 H287 H 1.04894 -0.12411 0.62497
 C288 C 0.91674 -0.13254 0.34827
 C289 C 0.88995 -0.11466 0.32663
 C290 C 0.88160 -0.07733 0.33462
 C291 C 0.89943 -0.05862 0.36306
 C292 C 0.92615 -0.07656 0.38435
 C293 C 0.93459 -0.11371 0.37665
 H294 H 0.92423 -0.16113 0.34357
 H295 H 0.86137 -0.06212 0.31902
 H296 H 0.89266 -0.02982 0.36799
 H297 H 0.95479 -0.12840 0.39289
 C298 C 0.88479 0.15190 0.63843
 C299 C 0.86630 0.13186 0.66559
 C300 C 0.87020 0.09305 0.66610
 C301 C 0.89236 0.07497 0.64082
 C302 C 0.91024 0.09481 0.61307
 C303 C 0.90585 0.13361 0.61217
 H304 H 0.88218 0.18172 0.63651
 H305 H 0.85729 0.07641 0.68691
 H306 H 0.89579 0.04534 0.64371
 H307 H 0.91821 0.15010 0.59091
 C308 C 0.35554 1.13848 0.09801
 C309 C 0.33829 1.12268 0.12854
 C310 C 0.34869 1.08684 0.13985
 C311 C 0.37517 1.06707 0.12075
 C312 C 0.39191 1.08265 0.08986
 C313 C 0.38200 1.11869 0.07890
 H314 H 0.34871 1.16616 0.08872
 H315 H 0.33593 1.07354 0.16300
 H316 H 0.38187 1.03918 0.12961
 H317 H 0.39484 1.13170 0.05558
 C318 C 0.64246 1.13930 -0.09866
 C319 C 0.65419 1.12743 -0.13346
 C320 C 0.63844 1.09585 -0.14927
 C321 C 0.61203 1.07618 -0.13042
 C322 C 0.60091 1.08744 -0.09517
 C323 C 0.61623 1.11945 -0.07966
 H324 H 0.65425 1.16332 -0.08555
 H325 H 0.64639 1.08631 -0.17631
 H326 H 0.60029 1.05211 -0.14352
 H327 H 0.60875 1.12860 -0.05234
 C328 C 0.34018 0.85697 -0.08865
 C329 C 0.34165 0.85304 -0.12705
 C330 C 0.37051 0.86863 -0.14620
 C331 C 0.39757 0.88782 -0.12719
 C332 C 0.39575 0.89282 -0.08868
 C333 C 0.36657 0.87705 -0.06976
 H334 H 0.31784 0.84571 -0.07334
 H335 H 0.37225 0.86571 -0.17585
 H336 H 0.41987 0.89865 -0.14280
 H337 H 0.36334 0.88097 -0.04041
 C338 C 0.64469 0.85632 0.11974
 C339 C 0.67662 0.87561 0.12758
 C340 C 0.67954 0.91257 0.11596
 C341 C 0.65125 0.92986 0.09677
 C342 C 0.61908 0.91080 0.08912
 C343 C 0.61613 0.87379 0.10091
 H344 H 0.64155 0.82791 0.12864
 H345 H 0.70402 0.92801 0.12100
 H346 H 0.65492 0.95803 0.08735
 H347 H 0.59159 0.85841 0.09599
   
