data_POSCAR
  _audit_creation_date              2014-09-24
  _audit_creation_method            'ToBaCCo'
  _symmetry_space_group_name_H-M    'P1'
  _symmetry_Int_Tables_number       1
  _symmetry_cell_setting            triclinic
  loop_
  _symmetry_equiv_pos_as_xyz
 x,y,z
_cell_length_a 28.0120
_cell_length_b 27.8869
_cell_length_c 28.2017
_cell_angle_alpha 90.551400
_cell_angle_beta 90.368300
_cell_angle_gamma 89.462800
loop_
  _atom_site_label
  _atom_site_type_symbol
  _atom_site_fract_x
  _atom_site_fract_y
  _atom_site_fract_z
N1 N 0.27724 0.16255 0.15891
 N2 N 0.26091 0.19657 0.13099
 C3 C 0.29302 0.20466 0.09671
 C4 C 0.33122 0.17394 0.10365
 C5 C 0.32031 0.14773 0.14329
 H6 H 0.28937 0.23157 0.06952
 H7 H 0.34250 0.12080 0.16013
 Cu8 Cu 0.20044 0.22870 0.14333
 Cu9 Cu 0.24257 0.14208 0.21483
 Cu10 Cu 0.14315 0.20999 0.24581
 N11 N 0.15039 0.27191 0.16526
 N12 N 0.12786 0.26436 0.20526
 C13 C 0.09597 0.30008 0.21253
 C14 C 0.09896 0.33140 0.17515
 C15 C 0.13374 0.31273 0.14576
 H16 H 0.07300 0.30352 0.24309
 H17 H 0.14654 0.32808 0.11319
 N18 N 0.16470 0.15347 0.28199
 N19 N 0.20254 0.12750 0.27006
 C20 C 0.20916 0.09275 0.30238
 C21 C 0.17387 0.09725 0.33594
 C22 C 0.14629 0.13593 0.32225
 H23 H 0.23814 0.06686 0.30227
 H24 H 0.11588 0.15081 0.34090
 H25 H 0.17465 0.16512 0.19597
 H26 H 0.21412 0.20984 0.22619
 N27 N 0.72217 -0.16242 0.15256
 N28 N 0.73801 -0.19647 0.12393
 C29 C 0.70564 -0.20394 0.08914
 C30 C 0.66788 -0.17275 0.09662
 C31 C 0.67921 -0.14696 0.13700
 H32 H 0.70885 -0.23070 0.06127
 H33 H 0.65741 -0.11990 0.15436
 Cu34 Cu 0.79828 -0.22936 0.13598
 Cu35 Cu 0.75717 -0.14244 0.20918
 Cu36 Cu 0.85685 -0.21017 0.23892
 N37 N 0.84896 -0.27224 0.15732
 N38 N 0.87200 -0.26423 0.19738
 C39 C 0.90401 -0.29976 0.20448
 C40 C 0.90063 -0.33148 0.16691
 C41 C 0.86543 -0.31333 0.13754
 H42 H 0.92706 -0.30297 0.23524
 H43 H 0.85205 -0.32927 0.10500
 N44 N 0.83557 -0.15404 0.27632
 N45 N 0.79750 -0.12817 0.26499
 C46 C 0.79085 -0.09396 0.29843
 C47 C 0.82639 -0.09877 0.33207
 C48 C 0.85412 -0.13701 0.31728
 H49 H 0.76164 -0.06833 0.29907
 H50 H 0.88464 -0.15206 0.33573
 H51 H 0.82464 -0.16555 0.18966
 H52 H 0.78558 -0.21026 0.21917
 N53 N 0.71751 0.17071 0.84402
 N54 N 0.73343 0.20437 0.87291
 C55 C 0.70141 0.21193 0.90770
 C56 C 0.66373 0.18130 0.89997
 C57 C 0.67485 0.15566 0.85945
 H58 H 0.70486 0.23825 0.93592
 H59 H 0.65315 0.12875 0.84209
 Cu60 Cu 0.79352 0.23636 0.86151
 Cu61 Cu 0.75245 0.15016 0.78779
 Cu62 Cu 0.85151 0.21668 0.75883
 N63 N 0.84341 0.27894 0.84028
 N64 N 0.86619 0.27080 0.80030
 C65 C 0.89784 0.30603 0.79344
 C66 C 0.89446 0.33769 0.83107
 C67 C 0.85969 0.31980 0.86025
 H68 H 0.92079 0.30894 0.76291
 H69 H 0.84661 0.33564 0.89290
 N70 N 0.83066 0.16057 0.72149
 N71 N 0.79276 0.13521 0.73245
 C72 C 0.78658 0.10066 0.69930
 C73 C 0.82228 0.10470 0.66626
 C74 C 0.84958 0.14286 0.68108
 H75 H 0.75770 0.07520 0.69852
 H76 H 0.88015 0.15732 0.66308
 H77 H 0.81992 0.17243 0.80778
 H78 H 0.78041 0.21777 0.77816
 N79 N 0.27366 -0.16522 0.84774
 N80 N 0.26585 -0.20601 0.86933
 C81 C 0.30117 -0.21408 0.90095
 C82 C 0.33238 -0.17624 0.89905
 C83 C 0.31405 -0.14574 0.86513
 H84 H 0.30445 -0.24544 0.92305
 H85 H 0.32936 -0.11250 0.85324
 Cu86 Cu 0.21096 -0.24518 0.85305
 Cu87 Cu 0.23112 -0.14139 0.79806
 Cu88 Cu 0.15842 -0.22858 0.74768
 N89 N 0.15548 -0.28227 0.83396
 N90 N 0.13516 -0.27573 0.79228
 C91 C 0.10055 -0.30836 0.78584
 C92 C 0.09912 -0.33641 0.82578
 C93 C 0.13436 -0.31928 0.85563
 H94 H 0.07931 -0.31238 0.75388
 H95 H 0.14505 -0.33386 0.88953
 N96 N 0.17230 -0.16743 0.71653
 N97 N 0.19877 -0.13363 0.73627
 C98 C 0.20180 -0.09656 0.70617
 C99 C 0.17582 -0.10776 0.66594
 C100 C 0.15758 -0.15272 0.67346
 H101 H 0.22244 -0.06451 0.71248
 H102 H 0.13580 -0.17342 0.64914
 H103 H 0.17073 -0.18515 0.80406
 H104 H 0.22557 -0.21021 0.77552
 N105 N 0.72326 -0.15958 0.84361
 N106 N 0.73970 -0.19270 0.87249
 C107 C 0.70740 -0.20020 0.90673
 C108 C 0.66900 -0.17006 0.89864
 C109 C 0.67994 -0.14478 0.85848
 H110 H 0.71105 -0.22637 0.93463
 H111 H 0.65759 -0.11857 0.84077
 Cu112 Cu 0.80040 -0.22473 0.86125
 Cu113 Cu 0.75798 -0.14009 0.78755
 Cu114 Cu 0.85801 -0.20769 0.75850
 N115 N 0.85067 -0.26805 0.84015
 N116 N 0.87330 -0.26107 0.80009
 C117 C 0.90481 -0.29713 0.79303
 C118 C 0.90147 -0.32802 0.83066
 C119 C 0.86687 -0.30889 0.85998
 H120 H 0.92735 -0.30130 0.76224
 H121 H 0.85357 -0.32410 0.89242
 N122 N 0.83629 -0.15217 0.72121
 N123 N 0.79812 -0.12636 0.73236
 C124 C 0.79122 -0.09251 0.69921
 C125 C 0.82668 -0.09748 0.66593
 C126 C 0.85467 -0.13544 0.68062
 H127 H 0.76194 -0.06698 0.69855
 H128 H 0.88529 -0.15045 0.66241
 H129 H 0.78708 -0.20790 0.77794
 H130 H 0.82601 -0.16215 0.80743
 N131 N 0.27448 0.16352 0.84736
 N132 N 0.26091 0.20090 0.87289
 C133 C 0.29331 0.20865 0.90757
 C134 C 0.32866 0.17426 0.90333
 C135 C 0.31593 0.14620 0.86492
 H136 H 0.29242 0.23812 0.93278
 H137 H 0.33621 0.11669 0.84980
 Cu138 Cu 0.20478 0.23840 0.85556
 Cu139 Cu 0.23966 0.14267 0.79095
 Cu140 Cu 0.13930 0.20935 0.75946
 N141 N 0.14854 0.27548 0.83774
 N142 N 0.12305 0.26399 0.80003
 C143 C 0.08828 0.29708 0.79395
 C144 C 0.09244 0.33081 0.82973
 C145 C 0.13089 0.31636 0.85687
 H146 H 0.06309 0.29760 0.76473
 H147 H 0.14589 0.33528 0.88705
 N148 N 0.16158 0.15280 0.72309
 N149 N 0.19971 0.12735 0.73519
 C150 C 0.20692 0.09265 0.70237
 C151 C 0.17170 0.09662 0.66834
 C152 C 0.14358 0.13495 0.68222
 H153 H 0.23637 0.06730 0.70233
 H154 H 0.11322 0.14953 0.66317
 H155 H 0.21179 0.20942 0.77401
 H156 H 0.17396 0.16996 0.81103
 N157 N 0.28655 -0.17416 0.16085
 N158 N 0.27001 -0.20599 0.13033
 C159 C 0.29952 -0.20878 0.09288
 C160 C 0.33627 -0.17705 0.10067
 C161 C 0.32729 -0.15579 0.14407
 H162 H 0.29585 -0.23349 0.06331
 H163 H 0.34958 -0.13038 0.16288
 Cu164 Cu 0.21488 -0.24442 0.14594
 Cu165 Cu 0.25654 -0.16273 0.22216
 Cu166 Cu 0.13955 -0.20274 0.22844
 N167 N 0.15729 -0.27901 0.16133
 N168 N 0.12774 -0.26249 0.19384
 C169 C 0.09170 -0.29363 0.19884
 C170 C 0.09956 -0.33158 0.16806
 C171 C 0.14133 -0.32143 0.14481
 H172 H 0.06288 -0.28963 0.22397
 H173 H 0.15933 -0.34386 0.11889
 N174 N 0.16663 -0.15514 0.27300
 N175 N 0.21147 -0.14098 0.27129
 C176 C 0.21994 -0.11071 0.30777
 C177 C 0.17857 -0.10589 0.33353
 C178 C 0.14542 -0.13442 0.31085
 H179 H 0.25384 -0.09397 0.31542
 H180 H 0.10909 -0.14067 0.32181
 H181 H 0.20982 -0.22068 0.22924
 H182 H 0.19348 -0.17085 0.18842
 N183 N 0.72221 0.16666 0.15550
 N184 N 0.73795 0.20009 0.12713
 C185 C 0.70524 0.20817 0.09284
 C186 C 0.66734 0.17808 0.10039
 C187 C 0.67899 0.15224 0.14026
 H188 H 0.70828 0.23464 0.06525
 H189 H 0.65717 0.12588 0.15750
 Cu190 Cu 0.79846 0.23149 0.13896
 Cu191 Cu 0.75751 0.14628 0.21150
 Cu192 Cu 0.85728 0.21241 0.24165
 N193 N 0.84897 0.27368 0.16058
 N194 N 0.87208 0.26587 0.20056
 C195 C 0.90394 0.30105 0.20778
 C196 C 0.90035 0.33233 0.17039
 C197 C 0.86523 0.31422 0.14102
 H198 H 0.92710 0.30433 0.23845
 H199 H 0.85179 0.32987 0.10857
 N200 N 0.83613 0.15690 0.27841
 N201 N 0.79811 0.13159 0.26677
 C202 C 0.79153 0.09767 0.29969
 C203 C 0.82703 0.10210 0.33336
 C204 C 0.85472 0.13979 0.31913
 H205 H 0.76235 0.07257 0.30003
 H206 H 0.88519 0.15445 0.33779
 H207 H 0.78613 0.21368 0.22204
 H208 H 0.82513 0.16791 0.19208
 C209 C 0.16473 0.02030 0.45809
 C210 C 0.16583 -0.03022 0.45755
 C211 C 0.16610 -0.05523 0.50041
 C212 C 0.16581 -0.03040 0.54385
 C213 C 0.16452 0.02011 0.54438
 C214 C 0.16373 0.04511 0.50152
 H215 H 0.16339 0.08401 0.50196
 H216 H 0.16757 -0.09412 0.49997
 C217 C 0.83595 -0.02317 0.45646
 C218 C 0.83563 0.02733 0.45676
 C219 C 0.83517 0.05247 0.49998
 C220 C 0.83464 0.02774 0.54295
 C221 C 0.83541 -0.02276 0.54267
 C222 C 0.83625 -0.04791 0.49944
 H223 H 0.83610 -0.08682 0.49923
 H224 H 0.83418 0.09137 0.50016
 C225 C 0.45491 0.17086 0.02760
 C226 C 0.45406 0.17096 -0.02234
 C227 C 0.49699 0.17218 -0.04750
 C228 C 0.54082 0.17343 -0.02336
 C229 C 0.54169 0.17306 0.02656
 C230 C 0.49877 0.17171 0.05173
 H231 H 0.49948 0.17183 0.09020
 H232 H 0.49629 0.17269 -0.08596
 C233 C 0.45770 0.83374 -0.02670
 C234 C 0.45827 0.83317 0.02325
 C235 C 0.50194 0.83331 0.04775
 C236 C 0.54510 0.83360 0.02299
 C237 C 0.54456 0.83434 -0.02692
 C238 C 0.50089 0.83459 -0.05146
 H239 H 0.50054 0.83461 -0.08994
 H240 H 0.50234 0.83235 0.08621
 C241 C 0.02416 0.45702 0.16097
 C242 C -0.02611 0.45730 0.15932
 C243 C -0.05111 0.50100 0.15748
 C244 C -0.02648 0.54449 0.15780
 C245 C 0.02379 0.54423 0.15934
 C246 C 0.04880 0.50049 0.16058
 H247 H 0.08750 0.50033 0.16235
 H248 H -0.08984 0.50120 0.15700
 C249 C 0.01909 0.45756 0.84076
 C250 C -0.03115 0.45932 0.84205
 C251 C -0.05482 0.50381 0.84277
 C252 C -0.02885 0.54650 0.84149
 C253 C 0.02139 0.54471 0.84015
 C254 C 0.04503 0.50025 0.84020
 H255 H 0.08370 0.49884 0.83854
 H256 H -0.09353 0.50520 0.84299
 C257 C 0.37475 0.17210 0.07701
 C258 C 0.41127 0.17120 0.05462
 C259 C 0.62642 0.82975 0.07142
 C260 C 0.58944 0.83173 0.04936
 C261 C 0.62066 0.17830 -0.07290
 C262 C 0.58434 0.17593 -0.05037
 C263 C 0.37640 0.82853 -0.07497
 C264 C 0.41340 0.83145 -0.05309
 C265 C 0.07289 0.37559 0.16938
 C266 C 0.05090 0.41270 0.16515
 C267 C 0.07251 0.62361 0.83176
 C268 C 0.04920 0.58782 0.83615
 C269 C -0.07518 0.62629 0.16213
 C270 C -0.05330 0.58894 0.15937
 C271 C -0.08112 0.37928 0.83646
 C272 C -0.05882 0.41594 0.83980
 C273 C 0.16955 0.06998 0.37865
 C274 C 0.16684 0.04732 0.41472
 C275 C 0.82750 0.07741 0.62315
 C276 C 0.83120 0.05477 0.58672
 C277 C 0.17168 -0.08009 0.62336
 C278 C 0.16867 -0.05735 0.58729
 C279 C 0.83082 -0.07225 0.37574
 C280 C 0.83369 -0.05006 0.41251
 C281 C 0.62520 0.83208 -0.07533
 C282 C 0.58840 0.83339 -0.05347
 C283 C 0.37255 0.17209 -0.07028
 C284 C 0.40959 0.17118 -0.04840
 C285 C 0.37864 0.82758 0.07285
 C286 C 0.41469 0.83057 0.05004
 C287 C 0.62333 0.17620 0.07420
 C288 C 0.58618 0.17470 0.05252
 C289 C -0.07519 0.62940 0.83556
 C290 C -0.05431 0.59161 0.83887
 C291 C -0.07421 0.37635 0.16518
 C292 C -0.05257 0.41328 0.16193
 C293 C 0.06614 0.37499 0.83434
 C294 C 0.04461 0.41246 0.83766
 C295 C 0.07252 0.62507 0.16430
 C296 C 0.05028 0.58834 0.16169
 C297 C 0.83080 -0.07129 0.62266
 C298 C 0.83334 -0.04931 0.58623
 C299 C 0.17269 -0.07925 0.37695
 C300 C 0.16898 -0.05695 0.41358
 C301 C 0.83120 0.07589 0.37670
 C302 C 0.83370 0.05390 0.41318
 C303 C 0.16811 0.06949 0.62497
 C304 C 0.16600 0.04695 0.58837
   
