data_POSCAR
  _audit_creation_date              2014-09-24
  _audit_creation_method            'ToBaCCo'
  _symmetry_space_group_name_H-M    'P1'
  _symmetry_Int_Tables_number       1
  _symmetry_cell_setting            triclinic
  loop_
  _symmetry_equiv_pos_as_xyz
 x,y,z
_cell_length_a 43.1053
_cell_length_b 43.0750
_cell_length_c 43.1083
_cell_angle_alpha 90.003300
_cell_angle_beta 90.012800
_cell_angle_gamma 89.959700
loop_
  _atom_site_label
  _atom_site_type_symbol
  _atom_site_fract_x
  _atom_site_fract_y
  _atom_site_fract_z
C1 C 0.19199 0.15144 0.19244
 C2 C 0.17873 0.13845 0.21920
 C3 C 0.15246 0.15200 0.23346
 C4 C 0.13970 0.17901 0.21983
 C5 C 0.15257 0.19201 0.19293
 C6 C 0.17876 0.17814 0.17913
 C7 C 0.21850 0.13812 0.17899
 C8 C 0.23213 0.15086 0.15200
 C9 C 0.21809 0.17740 0.13869
 C10 C 0.19178 0.19109 0.15210
 C11 C 0.17858 0.21789 0.13909
 C12 C 0.15247 0.23193 0.15273
 C13 C 0.13954 0.21872 0.17960
 H14 H 0.19003 0.11853 0.22955
 H15 H 0.11890 0.18949 0.22925
 H16 H 0.22766 0.11705 0.18916
 H17 H 0.22833 0.18860 0.11869
 H18 H 0.18897 0.22817 0.11863
 H19 H 0.11916 0.22913 0.19004
 C20 C -0.19272 0.84776 0.19260
 C21 C -0.17970 0.86042 0.21962
 C22 C -0.15251 0.84776 0.23298
 C23 C -0.13874 0.82182 0.21831
 C24 C -0.15165 0.80885 0.19139
 C25 C -0.17864 0.82197 0.17839
 C26 C -0.21959 0.86074 0.17954
 C27 C -0.23292 0.84842 0.15219
 C28 C -0.21836 0.82248 0.13830
 C29 C -0.19163 0.80917 0.15127
 C30 C -0.17792 0.78293 0.13769
 C31 C -0.15134 0.76930 0.15082
 C32 C -0.13821 0.78259 0.17757
 H33 H -0.19033 0.88099 0.22936
 H34 H -0.11868 0.81056 0.22842
 H35 H -0.22925 0.88130 0.19029
 H36 H -0.22844 0.81146 0.11811
 H37 H -0.18789 0.77315 0.11677
 H38 H -0.11790 0.77207 0.18803
 C39 C -0.19257 0.15233 -0.19238
 C40 C -0.17940 0.13946 -0.21924
 C41 C -0.15273 0.15261 -0.23265
 C42 C -0.13922 0.17888 -0.21880
 C43 C -0.15212 0.19198 -0.19196
 C44 C -0.17882 0.17858 -0.17860
 C45 C -0.21934 0.13935 -0.17923
 C46 C -0.23283 0.15199 -0.15211
 C47 C -0.21846 0.17817 -0.13847
 C48 C -0.19183 0.19153 -0.15156
 C49 C -0.17831 0.21802 -0.13827
 C50 C -0.15187 0.23171 -0.15161
 C51 C -0.13881 0.21836 -0.17836
 H52 H -0.19023 0.11950 -0.23005
 H53 H -0.11848 0.18899 -0.22879
 H54 H -0.22878 0.11857 -0.18972
 H55 H -0.22864 0.18935 -0.11841
 H56 H -0.18875 0.22837 -0.11786
 H57 H -0.11815 0.22846 -0.18854
 C58 C 0.19077 0.84925 -0.19120
 C59 C 0.17719 0.86233 -0.21774
 C60 C 0.15102 0.84858 -0.23198
 C61 C 0.13858 0.82141 -0.21842
 C62 C 0.15176 0.80830 -0.19171
 C63 C 0.17801 0.82218 -0.17809
 C64 C 0.21724 0.86266 -0.17782
 C65 C 0.23115 0.84939 -0.15144
 C66 C 0.21802 0.82258 -0.13827
 C67 C 0.19160 0.80888 -0.15143
 C68 C 0.17871 0.78194 -0.13849
 C69 C 0.15240 0.76803 -0.15185
 C70 C 0.13907 0.78140 -0.17847
 H71 H 0.18822 0.88244 -0.22798
 H72 H 0.11781 0.81083 -0.22777
 H73 H 0.22696 0.88359 -0.18784
 H74 H 0.22877 0.81197 -0.11816
 H75 H 0.18897 0.77197 -0.11780
 H76 H 0.11911 0.77053 -0.18921
 C77 C 0.15103 1.19147 0.80782
 C78 C 0.13819 1.17818 0.78100
 C79 C 0.15188 1.15196 0.76674
 C80 C 0.17889 1.13928 0.78044
 C81 C 0.19171 1.15214 0.80744
 C82 C 0.17771 1.17830 0.82121
 C83 C 0.13756 1.21792 0.82126
 C84 C 0.15014 1.23158 0.84832
 C85 C 0.17666 1.21761 0.86171
 C86 C 0.19052 1.19138 0.84829
 C87 C 0.21729 1.17826 0.86138
 C88 C 0.23146 1.15220 0.84778
 C89 C 0.21842 1.13921 0.82085
 H90 H 0.11829 1.18943 0.77059
 H91 H 0.18949 1.11854 0.77101
 H92 H 0.11651 1.22703 0.81102
 H93 H 0.18775 1.22788 0.88176
 H94 H 0.22698 1.18819 0.88236
 H95 H 0.22944 1.11937 0.80998
 C96 C 0.84834 0.80798 0.80829
 C97 C 0.86167 0.82138 0.78179
 C98 C 0.84895 0.84837 0.76807
 C99 C 0.82243 0.86175 0.78204
 C100 C 0.80872 0.84840 0.80836
 C101 C 0.82165 0.82135 0.82145
 C102 C 0.86130 0.78121 0.82162
 C103 C 0.84774 0.76698 0.84789
 C104 C 0.82075 0.78068 0.86058
 C105 C 0.80777 0.80759 0.84764
 C106 C 0.78107 0.82097 0.86059
 C107 C 0.76787 0.84785 0.84759
 C108 C 0.78193 0.86145 0.82149
 H109 H 0.88274 0.81117 0.77269
 H110 H 0.81125 0.88176 0.77173
 H111 H 0.88121 0.77081 0.81037
 H112 H 0.81025 0.77130 0.88137
 H113 H 0.77065 0.81057 0.88098
 H114 H 0.77167 0.88193 0.81105
 C115 C 0.15180 0.80822 1.19127
 C116 C 0.13855 0.82155 1.21787
 C117 C 0.15185 0.84795 1.23170
 C118 C 0.17852 0.86118 1.21838
 C119 C 0.19208 0.84806 1.19188
 C120 C 0.17876 0.82139 1.17835
 C121 C 0.13875 0.78163 1.17776
 C122 C 0.15236 0.76745 1.15146
 C123 C 0.17942 0.78109 1.13887
 C124 C 0.19252 0.80783 1.15199
 C125 C 0.21930 0.82116 1.13915
 C126 C 0.23266 0.84781 1.15243
 C127 C 0.21885 0.86112 1.17881
 H128 H 0.11820 0.81099 1.22819
 H129 H 0.18867 0.88182 1.22858
 H130 H 0.11875 0.77132 1.18890
 H131 H 0.18988 0.77178 1.11802
 H132 H 0.23009 0.81046 1.11911
 H133 H 0.22879 0.88185 1.18903
 C134 C 0.84938 1.19058 1.19135
 C135 C 0.86242 1.17689 1.21785
 C136 C 0.84863 1.15068 1.23201
 C137 C 0.82143 1.13834 1.21842
 C138 C 0.80836 1.15164 1.19174
 C139 C 0.82229 1.17790 1.17820
 C140 C 0.86285 1.21706 1.17804
 C141 C 0.84963 1.23107 1.15169
 C142 C 0.82279 1.21804 1.13849
 C143 C 0.80903 1.19161 1.15158
 C144 C 0.78208 1.17882 1.13859
 C145 C 0.76812 1.15249 1.15187
 C146 C 0.78145 1.13904 1.17845
 H147 H 0.88254 1.18785 1.22812
 H148 H 0.81081 1.11756 1.22772
 H149 H 0.88379 1.22671 1.18809
 H150 H 0.81222 1.22887 1.11840
 H151 H 0.77215 1.18916 1.11793
 H152 H 0.77053 1.11905 1.18912
 N153 N 0.53248 1.05562 0.96639
 N154 N 0.55654 1.07425 0.96299
 N155 N 0.46725 1.03394 0.94494
 N156 N 0.44312 1.03725 0.92637
 N157 N 0.46719 1.05548 0.96649
 N158 N 0.44303 1.07402 0.96316
 N159 N 0.53260 1.03395 0.94497
 N160 N 0.55679 1.03720 0.92649
 C161 C 0.57147 1.06251 0.93795
 C162 C 0.42825 1.06242 0.93797
 N163 N 0.46736 0.94558 0.96645
 N164 N 0.44312 0.92714 0.96323
 N165 N 0.53268 0.96716 0.94492
 N166 N 0.55678 0.96382 0.92634
 N167 N 0.53269 0.94558 0.96642
 N168 N 0.55679 0.92697 0.96304
 N169 N 0.46735 0.96714 0.94493
 N170 N 0.44312 0.96395 0.92649
 Mn171 Mn 0.49998 1.00055 0.94454
 C172 C 0.42824 0.93883 0.93813
 C173 C 0.57159 0.93859 0.93787
 N174 N 0.46728 1.05550 1.03329
 N175 N 0.44306 1.07398 1.03665
 N176 N 0.53266 1.03402 1.05467
 N177 N 0.55676 1.03742 1.07324
 N178 N 0.53257 1.05559 1.03317
 N179 N 0.55662 1.07425 1.03652
 N180 N 0.46731 1.03385 1.05472
 N181 N 0.44306 1.03693 1.07315
 Mn182 Mn 0.49988 1.05595 0.99983
 C183 C 0.42819 1.06214 1.06168
 C184 C 0.57147 1.06267 1.06169
 N185 N 0.53274 0.94555 1.03321
 N186 N 0.55678 0.92686 1.03667
 N187 N 0.46749 0.96709 1.05476
 N188 N 0.44345 0.96371 1.07341
 N189 N 0.46745 0.94555 1.03322
 N190 N 0.44338 0.92694 1.03663
 N191 N 0.53283 0.96721 1.05464
 N192 N 0.55697 0.96391 1.07318
 Mn193 Mn 0.50006 0.94517 0.99982
 Mn194 Mn 0.50008 1.00055 1.05509
 Cl195 Cl 0.50000 1.00055 0.99982
 C196 C 0.57167 0.93857 1.06175
 C197 C 0.42864 0.93850 1.06186
 N198 N -0.05451 0.46746 0.03384
 N199 N -0.07291 0.44321 0.03715
 N200 N -0.03283 0.53290 0.05514
 N201 N -0.03595 0.55725 0.07348
 N202 N -0.05445 0.53283 0.03369
 N203 N -0.07286 0.55711 0.03685
 N204 N -0.03289 0.46750 0.05529
 N205 N -0.03600 0.44328 0.07377
 C206 C -0.06114 0.42837 0.06224
 C207 C -0.06110 0.57211 0.06183
 N208 N 0.05534 0.53269 0.03321
 N209 N 0.07387 0.55687 0.03637
 N210 N 0.03387 0.46739 0.05502
 N211 N 0.03728 0.44333 0.07366
 N212 N 0.05529 0.46728 0.03338
 N213 N 0.07385 0.44312 0.03671
 N214 N 0.03397 0.53270 0.05491
 N215 N 0.03746 0.55680 0.07348
 Mn216 Mn 0.00053 0.50013 0.05549
 C217 C 0.06250 0.57166 0.06167
 C218 C 0.06238 0.42842 0.06201
 N219 N -0.05473 0.53274 -0.03303
 N220 N -0.07329 0.55690 -0.03633
 N221 N -0.03339 0.46728 -0.05455
 N222 N -0.03673 0.44307 -0.07300
 N223 N -0.05481 0.46732 -0.03292
 N224 N -0.07331 0.44311 -0.03606
 N225 N -0.03336 0.53260 -0.05472
 N226 N -0.03688 0.55659 -0.07344
 Mn227 Mn -0.05502 0.50008 0.00040
 C228 C -0.06193 0.57153 -0.06171
 C229 C -0.06180 0.42823 -0.06124
 N230 N 0.05502 0.46716 -0.03343
 N231 N 0.07346 0.44290 -0.03676
 N232 N 0.03345 0.53253 -0.05496
 N233 N 0.03680 0.55663 -0.07357
 N234 N 0.05508 0.53248 -0.03352
 N235 N 0.07371 0.55653 -0.03695
 N236 N 0.03331 0.46712 -0.05479
 N237 N 0.03631 0.44279 -0.07315
 Mn238 Mn 0.05558 0.49990 -0.00009
 Mn239 Mn 0.00001 0.49989 -0.05515
 Cl240 Cl 0.00027 0.50000 0.00016
 C241 C 0.06154 0.42793 -0.06170
 C242 C 0.06208 0.57136 -0.06210
 N243 N 1.03318 0.05454 0.53247
 N244 N 1.03666 0.07332 0.55642
 N245 N 1.05472 0.03282 0.46732
 N246 N 1.07348 0.03627 0.44337
 N247 N 1.03309 0.05429 0.46716
 N248 N 1.03648 0.07286 0.44304
 N249 N 1.05463 0.03289 0.53262
 N250 N 1.07320 0.03628 0.55672
 C251 C 1.06177 0.06167 0.57133
 C252 C 1.06184 0.06139 0.42845
 N253 N 1.03314 -0.05558 0.46749
 N254 N 1.03640 -0.07413 0.44334
 N255 N 1.05471 -0.03391 0.53273
 N256 N 1.07326 -0.03718 0.55688
 N257 N 1.03310 -0.05536 0.53285
 N258 N 1.03628 -0.07373 0.55714
 N259 N 1.05467 -0.03404 0.46745
 N260 N 1.07317 -0.03736 0.44328
 Mn261 Mn 1.05508 -0.00056 0.50003
 C262 C 1.06155 -0.06254 0.42848
 C263 C 1.06151 -0.06217 0.57188
 N264 N 0.96632 0.05439 0.46720
 N265 N 0.96299 0.07290 0.44302
 N266 N 0.94482 0.03301 0.53251
 N267 N 0.92617 0.03649 0.55654
 N268 N 0.96636 0.05454 0.53248
 N269 N 0.96294 0.07326 0.55648
 N270 N 0.94489 0.03277 0.46717
 N271 N 0.92646 0.03590 0.44291
 Mn272 Mn 0.99974 0.05484 0.49983
 C273 C 0.93797 0.06112 0.42811
 C274 C 0.93771 0.06176 0.57126
 N275 N 0.96641 -0.05531 0.53285
 N276 N 0.96329 -0.07362 0.55719
 N277 N 0.94488 -0.03398 0.46738
 N278 N 0.92636 -0.03732 0.44324
 N279 N 0.96634 -0.05562 0.46752
 N280 N 0.96292 -0.07435 0.44353
 N281 N 0.94479 -0.03385 0.53271
 N282 N 0.92628 -0.03705 0.55689
 Mn283 Mn 0.99975 -0.05587 0.50017
 Mn284 Mn 0.94445 -0.00051 0.49994
 Cl285 Cl 0.99975 -0.00052 0.49999
 C286 C 0.93808 -0.06203 0.57193
 C287 C 0.93783 -0.06268 0.42860
 C288 C 1.11339 0.11298 0.31566
 C289 C 1.12917 0.09418 0.29424
 C290 C 1.14206 0.10692 0.26736
 C291 C 1.13936 0.13896 0.26081
 C292 C 1.12325 0.15762 0.28245
 C293 C 1.11065 0.14485 0.30943
 C294 C 1.09999 0.09948 0.34446
 C295 C 1.07153 0.11034 0.35621
 C296 C 1.05918 0.09799 0.38352
 C297 C 1.07488 0.07437 0.39956
 C298 C 1.10314 0.06326 0.38776
 C299 C 1.11562 0.07576 0.36057
 H300 H 1.15293 0.09110 0.25119
 H301 H 1.12146 0.18249 0.27957
 H302 H 1.03721 0.10682 0.39197
 H303 H 1.11577 0.04511 0.39971
 H304 H 1.09931 0.16017 0.32581
 H305 H 1.05860 0.12817 0.34412
 H306 H 1.13108 0.06939 0.29793
 H307 H 1.13779 0.06716 0.35246
 C308 C 0.88640 -0.11374 0.31551
 C309 C 0.90526 -0.12913 0.29387
 C310 C 0.89256 -0.14184 0.26688
 C311 C 0.86049 -0.13935 0.26046
 C312 C 0.84177 -0.12366 0.28235
 C313 C 0.85452 -0.11122 0.30943
 C314 C 0.89987 -0.10047 0.34438
 C315 C 0.88889 -0.07214 0.35635
 C316 C 0.90120 -0.05990 0.38373
 C317 C 0.92490 -0.07561 0.39963
 C318 C 0.93614 -0.10374 0.38762
 C319 C 0.92369 -0.11610 0.36035
 H320 H 0.90841 -0.15239 0.25054
 H321 H 0.81689 -0.12207 0.27958
 H322 H 0.89228 -0.03802 0.39233
 H323 H 0.95436 -0.11637 0.39946
 H324 H 0.83917 -0.10018 0.32597
 H325 H 0.87098 -0.05921 0.34437
 H326 H 0.93006 -0.13087 0.29748
 H327 H 0.93239 -0.13817 0.35204
 C328 C 0.88648 0.11341 0.68408
 C329 C 0.88420 0.14575 0.68775
 C330 C 0.87153 0.15844 0.71475
 C331 C 0.86086 0.13908 0.73872
 C332 C 0.86316 0.10674 0.73507
 C333 C 0.87582 0.09404 0.70805
 C334 C 0.89980 0.09997 0.65528
 C335 C 0.88633 0.07366 0.64146
 C336 C 0.89867 0.06122 0.61417
 C337 C 0.92473 0.07482 0.60015
 C338 C 0.93833 0.10099 0.61401
 C339 C 0.92598 0.11345 0.64127
 H340 H 0.86961 0.18343 0.71666
 H341 H 0.85555 0.09124 0.75332
 H342 H 0.88772 0.04103 0.60399
 H343 H 0.95855 0.11185 0.60379
 H344 H 0.87769 0.06905 0.70610
 H345 H 0.86594 0.06297 0.65148
 H346 H 0.89174 0.16127 0.66949
 H347 H 0.93714 0.13346 0.65160
 C348 C 1.11191 -0.11277 0.68565
 C349 C 1.12738 -0.09381 0.70714
 C350 C 1.14021 -0.10641 0.73412
 C351 C 1.13777 -0.13846 0.74069
 C352 C 1.12189 -0.15726 0.71901
 C353 C 1.10934 -0.14462 0.69194
 C354 C 1.09874 -0.09945 0.65665
 C355 C 1.07045 -0.11045 0.64466
 C356 C 1.05839 -0.09836 0.61710
 C357 C 1.07423 -0.07487 0.60104
 C358 C 1.10230 -0.06360 0.61310
 C359 C 1.11449 -0.07583 0.64055
 H360 H 1.15088 -0.09049 0.75032
 H361 H 1.12029 -0.18215 0.72191
 H362 H 1.03655 -0.10729 0.60846
 H363 H 1.11502 -0.04552 0.60115
 H364 H 1.09822 -0.16005 0.67552
 H365 H 1.05744 -0.12822 0.65673
 H366 H 1.12914 -0.06902 0.70338
 H367 H 1.13653 -0.06714 0.64886
 C368 C 0.31435 1.11196 1.11280
 C369 C 0.29289 1.12777 1.09408
 C370 C 0.26593 1.14050 1.10685
 C371 C 0.25935 1.13760 1.13884
 C372 C 0.28097 1.12133 1.15739
 C373 C 0.30803 1.10889 1.14459
 C374 C 0.34336 1.09894 1.09932
 C375 C 0.35540 1.07052 1.11001
 C376 C 0.38298 1.05861 1.09780
 C377 C 0.39901 1.07472 1.07448
 C378 C 0.38690 1.10292 1.06351
 C379 C 0.35944 1.11497 1.07588
 H380 H 0.24977 1.15149 1.09110
 H381 H 0.27805 1.11935 1.18222
 H382 H 0.39165 1.03667 1.10650
 H383 H 0.39883 1.11586 1.04558
 H384 H 0.32441 1.09749 1.15985
 H385 H 0.34335 1.05729 1.12762
 H386 H 0.29665 1.12990 1.06934
 H387 H 0.35111 1.13712 1.06742
 C388 C 0.31446 0.88877 0.88749
 C389 C 0.29054 0.87814 0.90693
 C390 C 0.26345 0.86551 0.89434
 C391 C 0.25969 0.86323 0.86203
 C392 C 0.28357 0.87395 0.84260
 C393 C 0.31063 0.88658 0.85519
 C394 C 0.34341 0.90188 0.90080
 C395 C 0.35752 0.92799 0.88725
 C396 C 0.38503 0.94004 0.89944
 C397 C 0.39905 0.92620 0.92540
 C398 C 0.38490 0.90025 0.93910
 C399 C 0.35736 0.88821 0.92693
 H400 H 0.24528 0.85785 0.90989
 H401 H 0.28159 0.87202 0.81764
 H402 H 0.39533 0.96019 0.88853
 H403 H 0.39519 0.88913 0.95916
 H404 H 0.32884 0.89409 0.83961
 H405 H 0.34711 0.93931 0.86738
 H406 H 0.29261 0.87994 0.93190
 H407 H 0.34725 0.86787 0.93767
 C408 C 0.68478 0.88748 1.11325
 C409 C 0.70646 0.87218 1.09437
 C410 C 0.73340 0.85934 1.10708
 C411 C 0.73973 0.86158 1.13918
 C412 C 0.71783 0.87725 1.15791
 C413 C 0.69081 0.88984 1.14516
 C414 C 0.65590 0.90078 1.09978
 C415 C 0.64384 0.92905 1.11083
 C416 C 0.61646 0.94129 1.09850
 C417 C 0.60064 0.92565 1.07471
 C418 C 0.61274 0.89758 1.06342
 C419 C 0.64002 0.88521 1.07589
 H420 H 0.74976 0.84884 1.09121
 H421 H 0.72053 0.87869 1.18281
 H422 H 0.60778 0.96312 1.10747
 H423 H 0.60097 0.88499 1.04513
 H424 H 0.67424 0.90082 1.16052
 H425 H 0.65575 0.94192 1.12882
 H426 H 0.70292 0.87059 1.06955
 H427 H 0.64838 0.86319 1.06714
 C428 C 0.68482 1.11318 0.88680
 C429 C 0.69102 1.11050 0.85495
 C430 C 0.71807 1.12299 0.84223
 C431 C 0.73982 1.13890 0.86092
 C432 C 0.73332 1.14148 0.89296
 C433 C 0.70636 1.12872 0.90564
 C434 C 0.65591 1.09998 0.90023
 C435 C 0.63985 1.11574 0.92388
 C436 C 0.61251 1.10348 0.93626
 C437 C 0.60051 1.07533 0.92509
 C438 C 0.61650 1.05949 0.90155
 C439 C 0.64396 1.07162 0.88932
 H440 H 0.72091 1.12129 0.81736
 H441 H 0.74956 1.15220 0.90880
 H442 H 0.60060 1.11621 0.95437
 H443 H 0.60790 1.03759 0.89269
 H444 H 0.70267 1.13057 0.93042
 H445 H 0.64813 1.13783 0.93251
 H446 H 0.67457 1.09934 0.83961
 H447 H 0.65600 1.05860 0.87153
 C448 C 0.11337 0.31530 0.11343
 C449 C 0.12334 0.29096 0.09412
 C450 C 0.13595 0.26390 0.10684
 C451 C 0.13891 0.26059 0.13915
 C452 C 0.12894 0.28494 0.15844
 C453 C 0.11630 0.31197 0.14573
 C454 C 0.10008 0.34412 0.09998
 C455 C 0.07424 0.35848 0.11379
 C456 C 0.06195 0.38581 0.10139
 C457 C 0.07528 0.39941 0.07496
 C458 C 0.10098 0.38503 0.06102
 C459 C 0.11325 0.35764 0.07339
 H460 H 0.14300 0.24536 0.09140
 H461 H 0.13140 0.28332 0.18338
 H462 H 0.04200 0.39630 0.11251
 H463 H 0.11171 0.39499 0.04061
 H464 H 0.10931 0.33051 0.16118
 H465 H 0.06332 0.34838 0.13403
 H466 H 0.12097 0.29267 0.06917
 H467 H 0.13336 0.34732 0.06243
 C468 C -0.11258 0.31486 -0.11218
 C469 C -0.11524 0.31144 -0.14449
 C470 C -0.12792 0.28447 -0.15722
 C471 C -0.13820 0.26026 -0.13795
 C472 C -0.13553 0.26365 -0.10563
 C473 C -0.12287 0.29067 -0.09288
 C474 C -0.09926 0.34366 -0.09874
 C475 C -0.11259 0.35741 -0.07233
 C476 C -0.10038 0.38486 -0.06008
 C477 C -0.07459 0.39909 -0.07398
 C478 C -0.06106 0.38524 -0.10018
 C479 C -0.07329 0.35783 -0.11245
 H480 H -0.13017 0.28279 -0.18218
 H481 H -0.14286 0.24522 -0.09020
 H482 H -0.11124 0.39503 -0.03983
 H483 H -0.04103 0.39559 -0.11125
 H484 H -0.12073 0.29245 -0.06791
 H485 H -0.13280 0.34723 -0.06145
 H486 H -0.10801 0.32989 -0.15994
 H487 H -0.06223 0.34755 -0.13253
 C488 C 0.11345 0.68455 -0.11281
 C489 C 0.09404 0.70857 -0.12333
 C490 C 0.10667 0.73568 -0.13588
 C491 C 0.13898 0.73937 -0.13821
 C492 C 0.15839 0.71537 -0.12762
 C493 C 0.14577 0.68828 -0.11506
 C494 C 0.10008 0.65565 -0.09966
 C495 C 0.11357 0.64155 -0.07352
 C496 C 0.10117 0.61420 -0.06130
 C497 C 0.07506 0.60034 -0.07498
 C498 C 0.06145 0.61445 -0.10101
 C499 C 0.07382 0.64183 -0.11322
 H500 H 0.09113 0.75395 -0.14341
 H501 H 0.18336 0.71732 -0.12956
 H502 H 0.11203 0.60392 -0.04109
 H503 H 0.04129 0.60427 -0.11202
 H504 H 0.16132 0.66999 -0.10761
 H505 H 0.13353 0.65187 -0.06228
 H506 H 0.06907 0.70659 -0.12147
 H507 H 0.06313 0.65194 -0.13358
 C508 C -0.11193 0.68606 0.11157
 C509 C -0.14425 0.68971 0.11381
 C510 C -0.15698 0.71676 0.12638
 C511 C -0.13769 0.74081 0.13699
 C512 C -0.10536 0.73722 0.13467
 C513 C -0.09262 0.71014 0.12210
 C514 C -0.09850 0.65712 0.09850
 C515 C -0.07230 0.64327 0.11218
 C516 C -0.06009 0.61567 0.10024
 C517 C -0.07380 0.60139 0.07436
 C518 C -0.09979 0.61534 0.06050
 C519 C -0.11202 0.64289 0.07246
 H520 H -0.18196 0.71858 0.12836
 H521 H -0.08991 0.75553 0.14224
 H522 H -0.04001 0.60544 0.11136
 H523 H -0.11071 0.60495 0.04040
 H524 H -0.06764 0.70820 0.12027
 H525 H -0.06158 0.65348 0.13247
 H526 H -0.15974 0.67137 0.10638
 H527 H -0.13193 0.65324 0.06113
 C528 C 1.11319 0.11297 0.68433
 C529 C 1.09431 0.12862 0.70577
 C530 C 1.10694 0.14146 0.73272
 C531 C 1.13895 0.13884 0.73934
 C532 C 1.15769 0.12282 0.71771
 C533 C 1.14502 0.11026 0.69064
 C534 C 1.09978 0.09966 0.65544
 C535 C 1.11068 0.07124 0.64360
 C536 C 1.09837 0.05894 0.61624
 C537 C 1.07475 0.07468 0.60024
 C538 C 1.06363 0.10292 0.61210
 C539 C 1.07609 0.11534 0.63934
 H540 H 1.09106 0.15224 0.74889
 H541 H 1.18254 0.12107 0.72066
 H542 H 1.10721 0.03699 0.60774
 H543 H 1.04548 0.11558 0.60018
 H544 H 1.16039 0.09900 0.67427
 H545 H 1.12850 0.05827 0.65567
 H546 H 1.06954 0.13049 0.70202
 H547 H 1.06747 0.13749 0.64752
 C548 C 0.88800 -0.11266 0.68583
 C549 C 0.89104 -0.14446 0.69226
 C550 C 0.87854 -0.15718 0.71931
 C551 C 0.86223 -0.13854 0.74083
 C552 C 0.85934 -0.10654 0.73413
 C553 C 0.87213 -0.09385 0.70717
 C554 C 0.90110 -0.09927 0.65683
 C555 C 0.88513 -0.07586 0.64059
 C556 C 0.89724 -0.06361 0.61312
 C557 C 0.92544 -0.07468 0.60115
 C558 C 0.94151 -0.09795 0.61735
 C559 C 0.92954 -0.11003 0.64494
 H560 H 0.88051 -0.18203 0.72231
 H561 H 0.84831 -0.09073 0.75020
 H562 H 0.88434 -0.04572 0.60106
 H563 H 0.96346 -0.10671 0.60880
 H564 H 0.86999 -0.06910 0.70333
 H565 H 0.86297 -0.06735 0.64881
 H566 H 0.90247 -0.15979 0.67596
 H567 H 0.94273 -0.12762 0.65711
 C568 C 1.11255 -0.11321 0.31512
 C569 C 1.09321 -0.12344 0.29093
 C570 C 1.10592 -0.13597 0.26384
 C571 C 1.13824 -0.13856 0.26035
 C572 C 1.15755 -0.12836 0.28456
 C573 C 1.14486 -0.11581 0.31161
 C574 C 1.09915 -0.09997 0.34397
 C575 C 1.11285 -0.07401 0.35819
 C576 C 1.10057 -0.06181 0.38560
 C577 C 1.07436 -0.07535 0.39939
 C578 C 1.06051 -0.10117 0.38514
 C579 C 1.07276 -0.11335 0.35768
 H580 H 1.09046 -0.14324 0.24543
 H581 H 1.18252 -0.13055 0.28281
 H582 H 1.11162 -0.04177 0.39599
 H583 H 1.04026 -0.11206 0.39526
 H584 H 1.16035 -0.10863 0.33004
 H585 H 1.13293 -0.06292 0.34795
 H586 H 1.06825 -0.12134 0.29278
 H587 H 1.06190 -0.13357 0.34746
 C588 C 0.88725 0.11140 0.31432
 C589 C 0.85541 0.10884 0.30803
 C590 C 0.84278 0.12143 0.28096
 C591 C 0.86158 0.13733 0.25930
 C592 C 0.89362 0.13970 0.26585
 C593 C 0.90621 0.12683 0.29282
 C594 C 0.90056 0.09826 0.34334
 C595 C 0.92420 0.11403 0.35939
 C596 C 0.93647 0.10187 0.38683
 C597 C 0.92521 0.07381 0.39895
 C598 C 0.90168 0.05795 0.38297
 C599 C 0.88955 0.06999 0.35540
 H600 H 0.81791 0.11986 0.27806
 H601 H 0.90953 0.15036 0.24965
 H602 H 0.95457 0.11460 0.39873
 H603 H 0.89275 0.03613 0.39166
 H604 H 0.93098 0.12856 0.29656
 H605 H 0.93290 0.13606 0.35103
 H606 H 0.83999 0.09773 0.32444
 H607 H 0.87176 0.05697 0.34337
 C608 C 0.11108 0.31381 -0.11257
 C609 C 0.10806 0.30746 -0.14437
 C610 C 0.12053 0.28038 -0.15713
 C611 C 0.13677 0.25877 -0.13854
 C612 C 0.13957 0.26536 -0.10654
 C613 C 0.12682 0.29234 -0.09381
 C614 C 0.09811 0.34288 -0.09915
 C615 C 0.11417 0.35899 -0.07573
 C616 C 0.10219 0.38652 -0.06343
 C617 C 0.07404 0.39867 -0.07443
 C618 C 0.05789 0.38261 -0.09771
 C619 C 0.06974 0.35496 -0.10986
 H620 H 0.11860 0.27745 -0.18197
 H621 H 0.15052 0.24919 -0.09076
 H622 H 0.11514 0.39848 -0.04552
 H623 H 0.03598 0.39131 -0.10644
 H624 H 0.12891 0.29611 -0.06906
 H625 H 0.13629 0.35062 -0.06726
 H626 H 0.09670 0.32385 -0.15966
 H627 H 0.05649 0.34289 -0.12746
 C628 C -0.11092 0.31443 0.11289
 C629 C -0.12156 0.29052 0.09342
 C630 C -0.13419 0.26340 0.10597
 C631 C -0.13647 0.25961 0.13828
 C632 C -0.12571 0.28347 0.15774
 C633 C -0.11308 0.31056 0.14519
 C634 C -0.09789 0.34344 0.09961
 C635 C -0.07180 0.35759 0.11313
 C636 C -0.05982 0.38515 0.10094
 C637 C -0.07371 0.39915 0.07500
 C638 C -0.09965 0.38496 0.06133
 C639 C -0.11162 0.35738 0.07351
 H640 H -0.14186 0.24524 0.09040
 H641 H -0.12763 0.28145 0.18270
 H642 H -0.03968 0.39548 0.11183
 H643 H -0.11081 0.39524 0.04130
 H644 H -0.10556 0.32876 0.16079
 H645 H -0.06044 0.34718 0.13299
 H646 H -0.11978 0.29261 0.06845
 H647 H -0.13195 0.34725 0.06279
 C648 C -0.11339 0.68465 -0.11297
 C649 C -0.09457 0.70605 -0.12873
 C650 C -0.10726 0.73298 -0.14162
 C651 C -0.13927 0.73961 -0.13895
 C652 C -0.15794 0.71800 -0.12284
 C653 C -0.14521 0.69096 -0.11023
 C654 C -0.09994 0.65576 -0.09963
 C655 C -0.11075 0.64397 -0.07119
 C656 C -0.09844 0.61658 -0.05890
 C657 C -0.07492 0.60049 -0.07468
 C658 C -0.06387 0.61232 -0.10293
 C659 C -0.07632 0.63959 -0.11534
 H660 H -0.09142 0.74912 -0.15249
 H661 H -0.18279 0.72093 -0.12106
 H662 H -0.10722 0.60810 -0.03694
 H663 H -0.04578 0.60034 -0.11562
 H664 H -0.16054 0.67461 -0.09889
 H665 H -0.12852 0.65610 -0.05821
 H666 H -0.06980 0.70229 -0.13064
 H667 H -0.06777 0.64773 -0.13750
 C668 C 0.11360 0.68514 0.11228
 C669 C 0.09473 0.70660 0.12794
 C670 C 0.10737 0.73354 0.14081
 C671 C 0.13938 0.74013 0.13822
 C672 C 0.15810 0.71849 0.12216
 C673 C 0.14542 0.69144 0.10957
 C674 C 0.10023 0.65618 0.09908
 C675 C 0.11111 0.64423 0.07071
 C676 C 0.09889 0.61673 0.05859
 C677 C 0.07540 0.60071 0.07445
 C678 C 0.06429 0.61271 0.10261
 C679 C 0.07665 0.64007 0.11486
 H680 H 0.09151 0.74971 0.15163
 H681 H 0.18296 0.72140 0.12043
 H682 H 0.10772 0.60813 0.03669
 H683 H 0.04623 0.60078 0.11536
 H684 H 0.16079 0.67506 0.09830
 H685 H 0.12885 0.65630 0.05768
 H686 H 0.06996 0.70285 0.12981
 H687 H 0.06805 0.64833 0.13696
 C688 C 0.31487 1.11334 0.88713
 C689 C 0.31092 1.14567 0.88512
 C690 C 0.28385 1.15824 0.87245
 C691 C 0.26010 1.13878 0.86150
 C692 C 0.26400 1.10645 0.86355
 C693 C 0.29109 1.09387 0.87623
 C694 C 0.34377 1.10003 0.90039
 C695 C 0.35782 1.07391 0.88677
 C696 C 0.38524 1.06165 0.89901
 C697 C 0.39919 1.07526 0.92512
 C698 C 0.38510 1.10124 0.93888
 C699 C 0.35769 1.11350 0.92664
 H700 H 0.28173 1.18323 0.87071
 H701 H 0.24592 1.09086 0.85572
 H702 H 0.39560 1.04159 0.88793
 H703 H 0.39525 1.11209 0.95914
 H704 H 0.29324 1.06888 0.87790
 H705 H 0.34787 1.06323 0.86632
 H706 H 0.32902 1.16128 0.89284
 H707 H 0.34720 1.13336 0.93792
 C708 C 0.31576 0.88736 1.11329
 C709 C 0.31215 0.88497 1.14561
 C710 C 0.28519 0.87221 1.15828
 C711 C 0.26121 0.86155 1.13893
 C712 C 0.26479 0.86398 1.10661
 C713 C 0.29176 0.87674 1.09393
 C714 C 0.34453 0.90070 1.09987
 C715 C 0.35835 0.88722 1.07357
 C716 C 0.38566 0.89954 1.06119
 C717 C 0.39970 0.92559 1.07483
 C718 C 0.38583 0.93921 1.10098
 C719 C 0.35854 0.92688 1.11338
 H720 H 0.28334 0.87018 1.18324
 H721 H 0.24652 0.85640 1.09112
 H722 H 0.39585 0.88857 1.04100
 H723 H 0.39605 0.95943 1.11186
 H724 H 0.29366 0.87869 1.06896
 H725 H 0.34831 0.86683 1.06285
 H726 H 0.33043 0.89248 1.16111
 H727 H 0.34821 0.93804 1.13338
 C728 C 0.68468 1.11383 1.11251
 C729 C 0.68845 1.14615 1.11494
 C730 C 0.71552 1.15867 1.12761
 C731 C 0.73946 1.13917 1.13814
 C732 C 0.73574 1.10685 1.13563
 C733 C 0.70866 1.09432 1.12296
 C734 C 0.65577 1.10053 1.09930
 C735 C 0.64199 1.07419 1.11273
 C736 C 0.61461 1.06187 1.10049
 C737 C 0.60046 1.07563 1.07456
 C738 C 0.61426 1.10185 1.06102
 C739 C 0.64162 1.11419 1.07327
 H740 H 0.71750 1.18364 1.12969
 H741 H 0.75397 1.09124 1.14310
 H742 H 0.60448 1.04163 1.11140
 H743 H 0.60394 1.11283 1.04091
 H744 H 0.70665 1.06934 1.12096
 H745 H 0.65213 1.06336 1.13301
 H746 H 0.67019 1.16177 1.10755
 H747 H 0.65190 1.13423 1.06215
 C748 C 0.68457 0.88721 0.88667
 C749 C 0.68790 0.85489 0.88370
 C750 C 0.71489 0.84217 0.87104
 C751 C 0.73922 0.86146 0.86109
 C752 C 0.73590 0.89379 0.86405
 C753 C 0.70887 0.90653 0.87669
 C754 C 0.65580 0.90066 0.90004
 C755 C 0.64226 0.92733 0.88696
 C756 C 0.61491 0.93968 0.89928
 C757 C 0.60058 0.92566 0.92495
 C758 C 0.61420 0.89917 0.93820
 C759 C 0.64150 0.88678 0.92585
 H760 H 0.71652 0.81720 0.86857
 H761 H 0.75441 0.90924 0.85701
 H762 H 0.60493 0.96015 0.88862
 H763 H 0.60374 0.88798 0.95811
 H764 H 0.70717 0.93150 0.87908
 H765 H 0.65254 0.93835 0.86686
 H766 H 0.66938 0.83943 0.89069
 H767 H 0.65161 0.86649 0.93671
   
