data_POSCAR
  _audit_creation_date              2014-09-24
  _audit_creation_method            'ToBaCCo'
  _symmetry_space_group_name_H-M    'P1'
  _symmetry_Int_Tables_number       1
  _symmetry_cell_setting            triclinic
  loop_
  _symmetry_equiv_pos_as_xyz
 x,y,z
_cell_length_a 33.3729
_cell_length_b 33.3754
_cell_length_c 33.7687
_cell_angle_alpha 89.993600
_cell_angle_beta 89.979800
_cell_angle_gamma 89.913500
loop_
  _atom_site_label
  _atom_site_type_symbol
  _atom_site_fract_x
  _atom_site_fract_y
  _atom_site_fract_z
N1 N 0.28974 0.39921 1.37555
 N2 N 0.29201 0.37079 1.40246
 C3 C 0.26061 0.37420 1.42741
 C4 C 0.23756 0.40627 1.41515
 C5 C 0.25685 0.42150 1.38227
 H6 H 0.25423 0.35428 1.45186
 H7 H 0.24733 0.44647 1.36415
 Cu8 Cu 0.33446 0.33089 1.39999
 Cu9 Cu 0.32845 0.40431 1.33264
 Cu10 Cu 0.40410 0.33278 1.32840
 N11 N 0.37647 0.29055 1.39743
 N12 N 0.40405 0.29172 1.36959
 C13 C 0.42876 0.26004 1.37384
 C14 C 0.41562 0.23779 1.40578
 C15 C 0.38246 0.25791 1.42009
 H16 H 0.45362 0.25300 1.35449
 H17 H 0.36376 0.24903 1.44471
 N18 N 0.39884 0.37678 1.28960
 N19 N 0.37041 0.40431 1.29154
 C20 C 0.37427 0.42946 1.26054
 C21 C 0.40642 0.41696 1.23810
 C22 C 0.42128 0.38355 1.25712
 H23 H 0.35448 0.45425 1.25398
 H24 H 0.44612 0.36518 1.24742
 H25 H 0.34324 0.34418 1.32957
 H26 H 0.37565 0.37656 1.36114
 N27 N 1.20654 0.59949 0.87966
 N28 N 1.20035 0.62488 0.90882
 C29 C 1.23079 0.62203 0.93495
 C30 C 1.25726 0.59340 0.92114
 C31 C 1.24105 0.57974 0.88613
 H32 H 1.23399 0.64013 0.96132
 H33 H 1.25398 0.55770 0.86641
 Cu34 Cu 1.15432 0.66073 0.90869
 Cu35 Cu 1.17081 0.59523 0.83438
 Cu36 Cu 1.09901 0.66925 0.82554
 N37 N 1.11814 0.70566 0.90019
 N38 N 1.09757 0.70949 0.86719
 C39 C 1.07639 0.74384 0.86846
 C40 C 1.08404 0.76227 0.90425
 C41 C 1.11054 0.73731 0.92377
 H42 H 1.05691 0.75456 0.84516
 H43 H 1.12387 0.74226 0.95254
 N44 N 1.10505 0.62552 0.78685
 N45 N 1.13184 0.59663 0.79068
 C46 C 1.12824 0.57109 0.75996
 C47 C 1.09790 0.58482 0.73579
 C48 C 1.08386 0.61927 0.75353
 H49 H 1.14667 0.54487 0.75515
 H50 H 1.06001 0.63832 0.74276
 H51 H 1.15836 0.65593 0.83709
 H52 H 1.11980 0.62130 0.85843
 N53 N 0.71027 -0.10138 0.12351
 N54 N 0.70759 -0.13002 0.09688
 C55 C 0.73867 -0.12694 0.07151
 C56 C 0.76186 -0.09483 0.08315
 C57 C 0.74313 -0.07934 0.11616
 H58 H 0.74470 -0.14710 0.04716
 H59 H 0.75320 -0.05435 0.13392
 Cu60 Cu 0.66508 -0.16977 0.09976
 Cu61 Cu 0.67210 -0.09565 0.16674
 Cu62 Cu 0.59604 -0.16617 0.17210
 N63 N 0.62232 -0.20922 0.10318
 N64 N 0.59507 -0.20737 0.13129
 C65 C 0.56970 -0.23848 0.12747
 C66 C 0.58194 -0.26100 0.09539
 C67 C 0.61538 -0.24180 0.08068
 H68 H 0.54500 -0.24489 0.14718
 H69 H 0.63361 -0.25139 0.05593
 N70 N 0.60205 -0.12221 0.21057
 N71 N 0.63062 -0.09495 0.20827
 C72 C 0.62710 -0.06960 0.23918
 C73 C 0.59502 -0.08175 0.26188
 C74 C 0.57987 -0.11509 0.24312
 H75 H 0.64702 -0.04489 0.24544
 H76 H 0.55492 -0.13315 0.25301
 H77 H 0.65710 -0.15558 0.17019
 H78 H 0.62470 -0.12313 0.13853
 N79 N -0.20960 1.10136 -0.37602
 N80 N -0.20673 1.12945 -0.40319
 C81 C -0.23759 1.12590 -0.42871
 C82 C -0.26088 1.09405 -0.41666
 C83 C -0.24243 1.07917 -0.38319
 H84 H -0.24347 1.14564 -0.45343
 H85 H -0.25266 1.05452 -0.36504
 Cu86 Cu -0.16454 1.16948 -0.40075
 Cu87 Cu -0.17153 1.09652 -0.33251
 Cu88 Cu -0.09564 1.16736 -0.32824
 N89 N -0.12210 1.20920 -0.39779
 N90 N -0.09484 1.20796 -0.36969
 C91 C -0.06998 1.23947 -0.37379
 C92 C -0.08268 1.26167 -0.40593
 C93 C -0.11574 1.24172 -0.42051
 H94 H -0.04540 1.24652 -0.35413
 H95 H -0.13421 1.25069 -0.44526
 N96 N -0.10153 1.12397 -0.28911
 N97 N -0.13012 1.09669 -0.29088
 C98 C -0.12645 1.07180 -0.25962
 C99 C -0.09432 1.08431 -0.23718
 C100 C -0.07919 1.11733 -0.25659
 H101 H -0.14620 1.04704 -0.25300
 H102 H -0.05408 1.13546 -0.24733
 H103 H -0.15666 1.15660 -0.33009
 H104 H -0.12412 1.12365 -0.36114
 N105 N 0.71167 0.60178 0.62858
 N106 N 0.70974 0.62968 0.60114
 C107 C 0.74120 0.62561 0.57647
 C108 C 0.76371 0.59337 0.58906
 C109 C 0.74421 0.57880 0.62207
 H110 H 0.74763 0.64491 0.55156
 H111 H 0.75361 0.55398 0.64047
 Cu112 Cu 0.66723 0.66954 0.60081
 Cu113 Cu 0.67319 0.59879 0.67181
 Cu114 Cu 0.59838 0.67100 0.67360
 N115 N 0.62565 0.71033 0.60309
 N116 N 0.59893 0.71092 0.63170
 C117 C 0.57484 0.74297 0.62694
 C118 C 0.58723 0.76337 0.59363
 C119 C 0.61945 0.74198 0.57914
 H120 H 0.55057 0.75126 0.64655
 H121 H 0.63746 0.74946 0.55358
 N122 N 0.60277 0.62820 0.71343
 N123 N 0.63145 0.60089 0.71307
 C124 C 0.62714 0.57697 0.74495
 C125 C 0.59417 0.58985 0.76604
 C126 C 0.57938 0.62224 0.74537
 H127 H 0.64672 0.55234 0.75266
 H128 H 0.55396 0.64057 0.75354
 H129 H 0.62638 0.62571 0.64210
 H130 H 0.65946 0.65925 0.67191
 N131 N 0.78704 0.39713 0.13009
 N132 N 0.78823 0.36882 0.10301
 C133 C 0.75703 0.37363 0.07812
 C134 C 0.73551 0.40673 0.09026
 C135 C 0.75528 0.42100 0.12322
 H136 H 0.74999 0.35428 0.05341
 H137 H 0.74661 0.44622 0.14140
 Cu138 Cu 0.82982 0.32798 0.10401
 Cu139 Cu 0.82535 0.39982 0.17350
 Cu140 Cu 0.89977 0.32708 0.17536
 N141 N 0.87191 0.28764 0.10495
 N142 N 0.89903 0.28730 0.13320
 C143 C 0.92351 0.25565 0.12796
 C144 C 0.91108 0.23529 0.09466
 C145 C 0.87835 0.25626 0.08068
 H146 H 0.94810 0.24759 0.14724
 H147 H 0.86015 0.24863 0.05531
 N148 N 0.89543 0.36986 0.21535
 N149 N 0.86690 0.39734 0.21489
 C150 C 0.87128 0.42133 0.24669
 C151 C 0.90414 0.40837 0.26785
 C152 C 0.91880 0.37582 0.24730
 H153 H 0.85194 0.44620 0.25421
 H154 H 0.94422 0.35750 0.25548
 H155 H 0.87174 0.37215 0.14374
 H156 H 0.83899 0.33947 0.17473
 N157 N 0.28947 0.10378 0.87171
 N158 N 0.29157 0.13187 0.89894
 C159 C 0.26016 0.12812 0.92374
 C160 C 0.23755 0.09590 0.91139
 C161 C 0.25691 0.08105 0.87844
 H162 H 0.25378 0.14767 0.94849
 H163 H 0.24736 0.05621 0.86020
 Cu164 Cu 0.33429 0.17144 0.89878
 Cu165 Cu 0.32760 0.10019 0.82830
 Cu166 Cu 0.40234 0.17195 0.82505
 N167 N 0.37580 0.21214 0.89546
 N168 N 0.40213 0.21234 0.86648
 C169 C 0.42615 0.24446 0.87043
 C170 C 0.41419 0.26532 0.90364
 C171 C 0.38228 0.24413 0.91890
 H172 H 0.45002 0.25246 0.85029
 H173 H 0.36461 0.25210 0.94457
 N174 N 0.39765 0.12867 0.78577
 N175 N 0.36893 0.10152 0.78672
 C176 C 0.37288 0.07719 0.75509
 C177 C 0.40567 0.08961 0.73355
 C178 C 0.42074 0.12218 0.75370
 H179 H 0.35319 0.05256 0.74787
 H180 H 0.44612 0.14027 0.74509
 H181 H 0.37485 0.12719 0.85737
 H182 H 0.34141 0.16065 0.82769
 N183 N 0.21139 0.89690 0.37188
 N184 N 0.20965 0.86836 0.39869
 C185 C 0.24071 0.87245 0.42386
 C186 C 0.26272 0.90533 0.41214
 C187 C 0.24338 0.92023 0.37921
 H188 H 0.24738 0.85263 0.44831
 H189 H 0.25266 0.94542 0.36130
 Cu190 Cu 0.16786 0.82789 0.39673
 Cu191 Cu 0.17373 0.90027 0.32794
 Cu192 Cu 0.09904 0.82810 0.32440
 N193 N 0.12575 0.78772 0.39482
 N194 N 0.09905 0.78791 0.36618
 C195 C 0.07454 0.75623 0.37052
 C196 C 0.08655 0.73524 0.40363
 C197 C 0.11901 0.75592 0.41845
 H198 H 0.05035 0.74854 0.35065
 H199 H 0.13687 0.74767 0.44389
 N200 N 0.10412 0.87123 0.28491
 N201 N 0.13277 0.89847 0.28594
 C202 C 0.12901 0.92265 0.25419
 C203 C 0.09644 0.91004 0.23247
 C204 C 0.08129 0.87752 0.25264
 H205 H 0.14863 0.94737 0.24705
 H206 H 0.05596 0.85940 0.24396
 H207 H 0.12676 0.87267 0.35672
 H208 H 0.15984 0.83999 0.32598
 Zn209 Zn 0.00803 1.04737 -0.02576
 Zn210 Zn -0.03139 0.96675 -0.03252
 Zn211 Zn 0.04950 0.97516 0.00571
 Zn212 Zn -0.02307 1.00712 0.04638
 O213 O 0.00069 0.99899 -0.00164
 O214 O -0.01656 1.04996 -0.07239
 O215 O -0.00676 0.92082 -0.04661
 O216 O 0.09039 1.00430 -0.01291
 O217 O -0.04651 0.99095 -0.07794
 O218 O 0.05946 1.05827 -0.03582
 O219 O 0.05303 0.92804 -0.01889
 O220 O 0.00596 0.98831 0.08679
 O221 O -0.07699 0.95225 -0.00778
 O222 O 0.06017 0.96489 0.05673
 O223 O -0.07034 0.98281 0.05009
 O224 O -0.03320 1.05872 0.05662
 O225 O -0.01109 1.08866 0.00236
 C226 C -0.03836 1.02555 -0.09134
 C227 C 0.02836 0.90805 -0.03940
 C228 C 0.09114 1.03822 -0.02976
 C229 C 0.03979 0.97105 0.08784
 C230 C -0.09007 0.96094 0.02646
 C231 C -0.02774 1.09001 0.03607
 Zn232 Zn 0.49209 -0.04719 0.47443
 Zn233 Zn 0.53219 0.03297 0.46734
 Zn234 Zn 0.45163 0.02534 0.50657
 Zn235 Zn 0.52411 -0.00743 0.54640
 O236 O 0.50008 0.00105 0.49859
 O237 O 0.51640 -0.05010 0.42762
 O238 O 0.50760 0.07881 0.45281
 O239 O 0.41022 -0.00322 0.48804
 O240 O 0.54695 0.00855 0.42197
 O241 O 0.44051 -0.05740 0.46474
 O242 O 0.44857 0.07269 0.48240
 O243 O 0.49557 0.01138 0.58720
 O244 O 0.57798 0.04738 0.49192
 O245 O 0.44136 0.03535 0.55767
 O246 O 0.57148 0.01664 0.54976
 O247 O 0.53388 -0.05915 0.55641
 O248 O 0.51080 -0.08874 0.50238
 C249 C 0.53834 -0.02591 0.40854
 C250 C 0.47287 0.09211 0.46091
 C251 C 0.40906 -0.03708 0.47107
 C252 C 0.46187 0.02885 0.58861
 C253 C 0.59116 0.03855 0.52610
 C254 C 0.52775 -0.09034 0.53591
 Zn255 Zn 0.95275 0.47394 0.49385
 Zn256 Zn 1.03340 0.46666 0.53288
 Zn257 Zn 1.02499 0.50579 0.45321
 Zn258 Zn 0.99327 0.54688 0.52470
 O259 O 1.00120 0.49821 0.50127
 O260 O 0.95001 0.42678 0.51822
 O261 O 1.07908 0.45173 0.50834
 O262 O 0.99624 0.48656 0.41278
 O263 O 1.00897 0.42096 0.54797
 O264 O 0.94201 0.46358 0.44292
 O265 O 1.07231 0.48149 0.45001
 O266 O 1.01168 0.58800 0.49588
 O267 O 1.04837 0.49179 0.57779
 O268 O 1.03472 0.55727 0.44239
 O269 O 1.01804 0.55055 0.57118
 O270 O 0.94171 0.55714 0.53494
 O271 O 0.91150 0.50255 0.51272
 C272 C 0.97436 0.40752 0.53982
 C273 C 1.09204 0.45989 0.47392
 C274 C 0.96239 0.46944 0.41178
 C275 C 1.02855 0.58889 0.46226
 C276 C 1.04002 0.52659 0.59058
 C277 C 0.91033 0.53657 0.52938
 Zn278 Zn 0.47436 0.49513 0.95365
 Zn279 Zn 0.46728 0.53397 1.03354
 Zn280 Zn 0.50729 0.45374 1.02453
 Zn281 Zn 0.54727 0.52677 0.99312
 O282 O 0.49896 0.50250 1.00133
 O283 O 0.42686 0.51930 0.95141
 O284 O 0.45347 0.50884 1.07883
 O285 O 0.48858 0.41272 0.99578
 O286 O 0.42088 0.54854 1.01005
 O287 O 0.46462 0.44367 0.94282
 O288 O 0.48337 0.44995 1.07149
 O289 O 0.58873 0.49830 1.01165
 O290 O 0.49186 0.57982 1.04798
 O291 O 0.55900 0.44354 1.03413
 O292 O 0.55030 0.57407 1.01723
 O293 O 0.55745 0.53680 0.94201
 O294 O 0.50255 0.51430 0.91276
 C295 C 0.40728 0.54045 0.97586
 C296 C 0.46201 0.47401 1.09144
 C297 C 0.47125 0.41196 0.96239
 C298 C 0.59021 0.46432 1.02837
 C299 C 0.52628 0.59337 1.03918
 C300 C 0.53659 0.53100 0.91119
 C301 C 1.15954 0.41402 0.48110
 C302 C 1.16509 0.39171 0.44114
 C303 C 1.20058 0.41933 0.43131
 C304 C 1.19574 0.44133 0.47102
 C305 C 1.17248 0.44936 0.41071
 C306 C 1.13658 0.42195 0.42072
 C307 C 1.13157 0.44408 0.46036
 C308 C 1.16715 0.47156 0.45054
 H309 H 1.15381 0.39964 0.51019
 H310 H 1.16462 0.35871 0.43703
 H311 H 1.22053 0.44920 0.49148
 H312 H 1.17750 0.46400 0.38162
 H313 H 1.11186 0.41400 0.40019
 H314 H 1.16769 0.50455 0.45462
 C315 C 0.34770 0.54347 0.92398
 C316 C 0.30756 0.53674 0.94577
 C317 C 0.29659 0.58083 0.93824
 C318 C 0.33641 0.58768 0.91640
 C319 C 0.31570 0.59333 0.97780
 C320 C 0.32729 0.54893 0.98548
 C321 C 0.36707 0.55580 0.96351
 C322 C 0.35615 0.59994 0.95609
 H323 H 0.36093 0.52283 0.90173
 H324 H 0.28721 0.51085 0.94136
 H325 H 0.33978 0.60374 0.88781
 H326 H 0.30209 0.61398 0.99980
 H327 H 0.32393 0.53284 1.01405
 H328 H 0.37653 0.62582 0.96046
 C329 C -0.16957 0.94929 0.01731
 C330 C -0.17928 0.90499 0.02739
 C331 C -0.19925 0.91894 0.06609
 C332 C -0.19013 0.96293 0.05617
 C333 C -0.15937 0.91493 0.08849
 C334 C -0.13882 0.90122 0.04965
 C335 C -0.12972 0.94525 0.03981
 C336 C -0.14988 0.95907 0.07850
 H337 H -0.17335 0.96358 -0.01214
 H338 H -0.19180 0.88261 0.00649
 H339 H -0.21162 0.98819 0.05904
 H340 H -0.15558 0.90066 0.11795
 H341 H -0.11732 0.87597 0.04684
 H342 H -0.13764 0.98145 0.09958
 C343 C 0.67098 0.04915 0.51760
 C344 C 0.68105 0.09354 0.52689
 C345 C 0.70032 0.08020 0.56614
 C346 C 0.69085 0.03612 0.55701
 C347 C 0.66018 0.08514 0.58791
 C348 C 0.64033 0.09824 0.54852
 C349 C 0.63086 0.05412 0.53947
 C350 C 0.65033 0.04091 0.57871
 H351 H 0.67501 0.03421 0.48850
 H352 H 0.69410 0.11532 0.50567
 H353 H 0.71202 0.01070 0.56070
 H354 H 0.65613 0.10010 0.61700
 H355 H 0.61916 0.12366 0.54485
 H356 H 0.63758 0.01914 0.60012
 C357 C 0.48067 0.15850 0.41447
 C358 C 0.44010 0.16445 0.39280
 C359 C 0.43125 0.20076 0.41946
 C360 C 0.47157 0.19549 0.44084
 C361 C 0.41017 0.17380 0.44996
 C362 C 0.41922 0.13707 0.42350
 C363 C 0.45949 0.13164 0.44499
 C364 C 0.45063 0.16802 0.47154
 H365 H 0.50979 0.15187 0.39998
 H366 H 0.43551 0.16331 0.36026
 H367 H 0.49291 0.21995 0.44790
 H368 H 0.38105 0.17984 0.46469
 H369 H 0.39781 0.11267 0.41643
 H370 H 0.45517 0.16913 0.50408
 C371 C 0.95214 0.33185 0.52880
 C372 C 0.97321 0.30402 0.55912
 C373 C 0.93298 0.29871 0.58065
 C374 C 0.91179 0.32604 0.55052
 C375 C 0.94200 0.33473 0.60761
 C376 C 0.98248 0.34072 0.58578
 C377 C 0.96116 0.36794 0.55564
 C378 C 0.92099 0.36247 0.57728
 H379 H 0.95651 0.33103 0.49621
 H380 H 0.99447 0.27952 0.55170
 H381 H 0.88259 0.32026 0.53589
 H382 H 0.93758 0.33555 0.64018
 H383 H 1.01168 0.34714 0.60014
 H384 H 0.89965 0.38689 0.58470
 C385 C 0.01558 0.83644 -0.07546
 C386 C 0.04816 0.83146 -0.10783
 C387 C 0.06881 0.79945 -0.08212
 C388 C 0.03645 0.80380 -0.05001
 C389 C 0.09481 0.83150 -0.06201
 C390 C 0.07401 0.86400 -0.08743
 C391 C 0.04164 0.86847 -0.05531
 C392 C 0.06226 0.83636 -0.02970
 H393 H -0.01715 0.83880 -0.08085
 H394 H 0.04252 0.82932 -0.14015
 H395 H 0.02118 0.77861 -0.03477
 H396 H 0.12754 0.82918 -0.05658
 H397 H 0.08928 0.88917 -0.10270
 H398 H 0.06787 0.83870 0.00262
 C399 C 0.51648 0.67279 1.05177
 C400 C 0.52692 0.68195 1.09564
 C401 C 0.56588 0.70222 1.08185
 C402 C 0.55560 0.69373 1.03830
 C403 C 0.58885 0.66243 1.08508
 C404 C 0.54973 0.64154 1.09860
 C405 C 0.53951 0.63299 1.05502
 C406 C 0.57845 0.65349 1.04138
 H407 H 0.48655 0.67663 1.03795
 H408 H 0.50577 0.69395 1.11809
 H409 H 0.55817 0.71555 1.01362
 H410 H 0.61877 0.65850 1.09891
 H411 H 0.54715 0.61969 1.12325
 H412 H 0.59968 0.64164 1.01891
 C413 C 0.45118 0.48299 1.17023
 C414 C 0.40685 0.47320 1.18010
 C415 C 0.42056 0.43382 1.19959
 C416 C 0.46459 0.44344 1.19030
 C417 C 0.41612 0.41135 1.16013
 C418 C 0.40263 0.45087 1.14008
 C419 C 0.44668 0.46043 1.13078
 C420 C 0.46030 0.42106 1.15043
 H421 H 0.46573 0.51262 1.17399
 H422 H 0.38475 0.49457 1.19271
 H423 H 0.48991 0.44019 1.21137
 H424 H 0.40158 0.38170 1.15637
 H425 H 0.37727 0.45410 1.11906
 H426 H 0.48245 0.39958 1.13807
 C427 C 0.54929 -0.01634 0.32984
 C428 C 0.59384 -0.02523 0.31992
 C429 C 0.58100 -0.06483 0.30039
 C430 C 0.53677 -0.05610 0.30972
 C431 C 0.58596 -0.08729 0.33981
 C432 C 0.59855 -0.04755 0.35993
 C433 C 0.55427 -0.03890 0.36924
 C434 C 0.54158 -0.07848 0.34951
 H435 H 0.53405 0.01300 0.32612
 H436 H 0.61547 -0.00345 0.30730
 H437 H 0.51151 -0.05981 0.28866
 H438 H 0.60122 -0.11663 0.34353
 H439 H 0.62382 -0.04385 0.38097
 H440 H 0.51997 -0.10047 0.36180
 C441 C -0.02759 1.04745 -0.16634
 C442 C -0.05874 1.02677 -0.19352
 C443 C -0.08014 1.06727 -0.19870
 C444 C -0.04919 1.08803 -0.17197
 C445 C -0.10717 1.05857 -0.16282
 C446 C -0.08550 1.01783 -0.15701
 C447 C -0.05453 1.03877 -0.13041
 C448 C -0.07604 1.07920 -0.13572
 H449 H 0.00532 1.04267 -0.16748
 H450 H -0.05173 1.00545 -0.21778
 H451 H -0.03419 1.11705 -0.17801
 H452 H -0.14007 1.06341 -0.16179
 H453 H -0.10031 0.98881 -0.15050
 H454 H -0.08311 1.10066 -0.11158
 C455 C 1.10061 0.54913 0.63818
 C456 C 1.08811 0.58921 0.65777
 C457 C 1.08361 0.56742 0.69761
 C458 C 1.09637 0.52749 0.67860
 C459 C 1.03932 0.55853 0.68888
 C460 C 1.04366 0.58024 0.64868
 C461 C 1.05628 0.54031 0.62948
 C462 C 1.05176 0.51843 0.66930
 H463 H 1.12569 0.54512 0.61693
 H464 H 1.10321 0.61850 0.65344
 H465 H 1.11822 0.50594 0.69131
 H466 H 1.01426 0.56261 0.71013
 H467 H 1.02184 0.60201 0.63627
 H468 H 1.03666 0.48915 0.67367
 C469 C 0.84769 0.53245 0.57800
 C470 C 0.84090 0.57429 0.59659
 C471 C 0.80234 0.57867 0.57209
 C472 C 0.80865 0.53702 0.55368
 C473 C 0.82575 0.59847 0.53808
 C474 C 0.86479 0.59388 0.56246
 C475 C 0.87114 0.55221 0.54403
 C476 C 0.83263 0.55658 0.51945
 H477 H 0.85710 0.50512 0.59429
 H478 H 0.84395 0.58170 0.62849
 H479 H 0.78512 0.51379 0.55028
 H480 H 0.81652 0.62581 0.52171
 H481 H 0.88819 0.61722 0.56592
 H482 H 0.82964 0.54917 0.48754
 C483 C 0.63580 0.43741 1.08690
 C484 C 0.65773 0.39892 1.07328
 C485 C 0.69739 0.42228 1.07292
 C486 C 0.67587 0.46059 1.08672
 C487 C 0.69110 0.43385 1.02929
 C488 C 0.65083 0.41069 1.02944
 C489 C 0.62940 0.44901 1.04328
 C490 C 0.66908 0.47238 1.04289
 H491 H 0.61266 0.43897 1.11047
 H492 H 0.65347 0.36856 1.08602
 H493 H 0.68625 0.48117 1.11039
 H494 H 0.71433 0.43221 1.00581
 H495 H 0.64015 0.39035 1.00570
 H496 H 0.67347 0.50274 1.03021
 C497 C 0.16840 1.05928 -0.01919
 C498 C 0.19296 1.03971 -0.05305
 C499 C 0.19892 1.08129 -0.07168
 C500 C 0.17493 1.10111 -0.03804
 C501 C 0.16066 1.07635 -0.09652
 C502 C 0.15424 1.03458 -0.07771
 C503 C 0.13020 1.05434 -0.04411
 C504 C 0.13618 1.09595 -0.06276
 H505 H 0.17117 1.05209 0.01279
 H506 H 0.21675 1.01675 -0.04926
 H507 H 0.18372 1.12864 -0.02181
 H508 H 0.15788 1.08349 -0.12851
 H509 H 0.14535 1.00705 -0.09390
 H510 H 0.11252 1.11903 -0.06665
 C511 C 0.34577 -0.03302 0.42337
 C512 C 0.33943 -0.07472 0.40440
 C513 C 0.30117 -0.07985 0.42924
 C514 C 0.30704 -0.03833 0.44803
 C515 C 0.32517 -0.09976 0.46279
 C516 C 0.36390 -0.09443 0.43807
 C517 C 0.36983 -0.05288 0.45688
 C518 C 0.33163 -0.05799 0.48181
 H519 H 0.35464 -0.00540 0.40732
 H520 H 0.34227 -0.08172 0.37239
 H521 H 0.28319 -0.01544 0.45188
 H522 H 0.31643 -0.12738 0.47891
 H523 H 0.38759 -0.11747 0.43409
 H524 H 0.32880 -0.05095 0.51381
 C525 C 0.54050 -0.16966 0.52846
 C526 C 0.58479 -0.17758 0.53966
 C527 C 0.57071 -0.19820 0.57793
 C528 C 0.52661 -0.19079 0.56695
 C529 C 0.57241 -0.15829 0.60056
 C530 C 0.58632 -0.13724 0.56212
 C531 C 0.54224 -0.12972 0.55112
 C532 C 0.52812 -0.15028 0.58938
 H533 H 0.52718 -0.17404 0.49866
 H534 H 0.60822 -0.18889 0.51916
 H535 H 0.50225 -0.21330 0.56910
 H536 H 0.58579 -0.15399 0.63035
 H537 H 0.61071 -0.11477 0.56001
 H538 H 0.50464 -0.13868 0.60966
 C539 C 1.07618 0.65273 0.46572
 C540 C 1.09557 0.65883 0.42455
 C541 C 1.06995 0.69669 0.41882
 C542 C 1.05073 0.69107 0.45981
 C543 C 1.03647 0.67201 0.39926
 C544 C 1.06197 0.63368 0.40519
 C545 C 1.04273 0.62800 0.44620
 C546 C 1.01703 0.66582 0.44050
 H547 H 1.09238 0.64442 0.49324
 H548 H 1.12805 0.65634 0.41784
 H549 H 1.04632 0.71514 0.48209
 H550 H 1.02020 0.68017 0.37176
 H551 H 1.06647 0.60977 0.38277
 H552 H 0.98456 0.66829 0.44721
 C553 C -0.02863 1.14981 0.08969
 C554 C -0.02787 1.19040 0.06736
 C555 C -0.07200 1.19715 0.07867
 C556 C -0.07296 1.15714 0.10121
 C557 C -0.08602 1.17643 0.04045
 C558 C -0.04170 1.16918 0.02891
 C559 C -0.04270 1.12915 0.05147
 C560 C -0.08681 1.13600 0.06281
 H561 H -0.00486 1.13850 0.10978
 H562 H -0.00383 1.21326 0.06942
 H563 H -0.08605 1.15261 0.13109
 H564 H -0.10975 1.18750 0.02017
 H565 H -0.02864 1.17387 -0.00096
 H566 H -0.11094 1.11322 0.06084
 C567 C 0.43760 0.36721 0.90537
 C568 C 0.46347 0.32920 0.89895
 C569 C 0.43048 0.30403 0.91875
 C570 C 0.40449 0.34156 0.92495
 C571 C 0.45006 0.30964 0.95956
 C572 C 0.48326 0.33537 0.94001
 C573 C 0.45720 0.37286 0.94621
 C574 C 0.42425 0.34766 0.96595
 H575 H 0.43258 0.39119 0.88312
 H576 H 0.47954 0.32135 0.87123
 H577 H 0.37192 0.34370 0.91861
 H578 H 0.45500 0.28553 0.98167
 H579 H 0.51583 0.33325 0.94636
 H580 H 0.40825 0.35566 0.99368
 C581 C 0.52865 0.54405 0.83302
 C582 C 0.54054 0.58814 0.82516
 C583 C 0.57881 0.57347 0.80429
 C584 C 0.56714 0.52956 0.81167
 C585 C 0.60219 0.57480 0.84349
 C586 C 0.56373 0.58931 0.86477
 C587 C 0.55202 0.54542 0.87225
 C588 C 0.59030 0.53068 0.85146
 H589 H 0.49825 0.53124 0.82893
 H590 H 0.51999 0.61187 0.81424
 H591 H 0.56872 0.50520 0.78934
 H592 H 0.63259 0.58766 0.84734
 H593 H 0.56222 0.61379 0.88698
 H594 H 0.61060 0.50688 0.86266
 C595 C 0.43567 0.08778 0.63472
 C596 C 0.39706 0.07416 0.65624
 C597 C 0.42058 0.07265 0.69535
 C598 C 0.45900 0.08644 0.67424
 C599 C 0.43149 0.02846 0.68822
 C600 C 0.40819 0.02977 0.64851
 C601 C 0.44662 0.04362 0.62749
 C602 C 0.47012 0.04207 0.66664
 H603 H 0.43748 0.11204 0.61229
 H604 H 0.36687 0.08760 0.65237
 H605 H 0.47999 0.10984 0.68488
 H606 H 0.42962 0.00427 0.71070
 H607 H 0.38747 0.00628 0.63753
 H608 H 0.50031 0.02868 0.67067
 C609 C 0.03185 0.95739 0.16575
 C610 C 0.04322 0.91307 0.17316
 C611 C 0.08157 0.92699 0.19428
 C612 C 0.07040 0.97114 0.18732
 C613 C 0.10508 0.92577 0.15513
 C614 C 0.06653 0.91202 0.13360
 C615 C 0.05532 0.95615 0.12656
 C616 C 0.09368 0.97013 0.14757
 H617 H 0.00158 0.97058 0.16991
 H618 H 0.02238 0.88950 0.18374
 H619 H 0.07216 0.99525 0.20989
 H620 H 0.13535 0.91252 0.15118
 H621 H 0.06483 0.88783 0.11110
 H622 H 0.11427 0.99378 0.13666
 C623 C 0.90821 0.46857 0.35247
 C624 C 0.93110 0.46928 0.31251
 C625 C 0.91968 0.42519 0.30582
 C626 C 0.89658 0.42426 0.34520
 C627 C 0.95820 0.41108 0.32660
 C628 C 0.96983 0.45536 0.33375
 C629 C 0.94673 0.45441 0.37317
 C630 C 0.93529 0.41033 0.36640
 H631 H 0.88783 0.49240 0.36350
 H632 H 0.92919 0.49333 0.28987
 H633 H 0.86630 0.41124 0.34950
 H634 H 0.97881 0.38731 0.31586
 H635 H 1.00010 0.46833 0.32927
 H636 H 0.93712 0.38621 0.38897
   
