data_POSCAR
  _audit_creation_date              2014-09-24
  _audit_creation_method            'ToBaCCo'
  _symmetry_space_group_name_H-M    'P1'
  _symmetry_Int_Tables_number       1
  _symmetry_cell_setting            triclinic
  loop_
  _symmetry_equiv_pos_as_xyz
 x,y,z
_cell_length_a 33.7108
_cell_length_b 33.3782
_cell_length_c 27.5164
_cell_angle_alpha 89.702200
_cell_angle_beta 90.278900
_cell_angle_gamma 88.833000
loop_
  _atom_site_label
  _atom_site_type_symbol
  _atom_site_fract_x
  _atom_site_fract_y
  _atom_site_fract_z
C1 C 0.31037 -0.05202 0.25118
 C2 C 0.33081 -0.01759 0.23659
 C3 C 0.36079 -0.02113 0.20197
 C4 C 0.37314 -0.05853 0.18448
 C5 C 0.35303 -0.09286 0.19924
 C6 C 0.32067 -0.09013 0.23176
 C7 C 0.33109 0.01957 0.26568
 C8 C 0.36115 0.02152 0.30074
 C9 C 0.37601 0.05841 0.31577
 C10 C 0.35672 0.09397 0.29958
 C11 C 0.32413 0.09284 0.26720
 C12 C 0.31234 0.05525 0.24922
 H13 H 0.28782 -0.04926 0.27895
 H14 H 0.37745 0.00527 0.19284
 H15 H 0.37624 -0.00619 0.31104
 H16 H 0.28983 0.05377 0.22109
 H17 H 0.36271 -0.12142 0.18467
 H18 H 0.36732 0.12250 0.31211
 C19 C 0.18289 -0.05495 0.75589
 C20 C 0.16239 -0.01967 0.76959
 C21 C 0.13092 -0.02214 0.80225
 C22 C 0.11734 -0.05917 0.81838
 C23 C 0.13817 -0.09434 0.80519
 C24 C 0.17161 -0.09262 0.77458
 C25 C 0.16319 0.01734 0.73988
 C26 C 0.13345 0.02103 0.70459
 C27 C 0.12011 0.05867 0.68775
 C28 C 0.14063 0.09293 0.70255
 C29 C 0.17340 0.08965 0.73474
 C30 C 0.18353 0.05161 0.75466
 H31 H 0.20636 -0.05316 0.72927
 H32 H 0.11403 0.00498 0.81024
 H33 H 0.11740 -0.00569 0.69549
 H34 H 0.20612 0.04881 0.78266
 H35 H 0.12788 -0.12287 0.81838
 H36 H 0.13120 0.12195 0.68857
 C37 C 0.68840 0.43994 0.24908
 C38 C 0.66911 0.47538 0.26520
 C39 C 0.63874 0.47258 0.29937
 C40 C 0.62484 0.43539 0.31454
 C41 C 0.64451 0.40021 0.29905
 C42 C 0.67700 0.40193 0.26696
 C43 C 0.66925 0.51324 0.23668
 C44 C 0.63868 0.51765 0.20250
 C45 C 0.62623 0.55547 0.18570
 C46 C 0.64710 0.58934 0.20005
 C47 C 0.67966 0.58585 0.23233
 C48 C 0.68992 0.54748 0.25165
 H49 H 0.71098 0.44192 0.22135
 H50 H 0.62265 0.49973 0.30927
 H51 H 0.62167 0.49153 0.19335
 H52 H 0.71276 0.54442 0.27930
 H53 H 0.63395 0.37161 0.31162
 H54 H 0.63755 0.61830 0.18606
 C55 C 0.81348 0.45333 0.75168
 C56 C 0.83527 0.48707 0.73777
 C57 C 0.86507 0.48278 0.70296
 C58 C 0.87563 0.44522 0.68432
 C59 C 0.85387 0.41166 0.69803
 C60 C 0.82207 0.41534 0.73106
 C61 C 0.83644 0.52413 0.76702
 C62 C 0.86792 0.52646 0.80011
 C63 C 0.88242 0.56356 0.81499
 C64 C 0.86165 0.59878 0.80060
 C65 C 0.82756 0.59712 0.77063
 C66 C 0.81601 0.55947 0.75259
 H67 H 0.79111 0.45637 0.77960
 H68 H 0.88287 0.50853 0.69437
 H69 H 0.88418 0.49904 0.80887
 H70 H 0.79225 0.55772 0.72610
 H71 H 0.86190 0.38286 0.68271
 H72 H 0.87226 0.62746 0.81268
 C73 C 0.24234 0.37624 1.06881
 C74 C 0.26448 0.38931 1.02861
 C75 C 0.29820 0.41216 1.03621
 C76 C 0.30799 0.42559 1.08270
 C77 C 0.28361 0.41598 1.12191
 C78 C 0.25161 0.38991 1.11575
 C79 C 0.24837 0.38810 0.97872
 C80 C 0.21325 0.40975 0.96895
 C81 C 0.20173 0.41871 0.92110
 C82 C 0.22496 0.40420 0.88256
 C83 C 0.25927 0.38025 0.89153
 C84 C 0.27131 0.37332 0.93997
 H85 H 0.21630 0.35831 1.06305
 H86 H 0.31497 0.42231 1.00512
 H87 H 0.19663 0.42243 0.99899
 H88 H 0.29857 0.35670 0.94773
 H89 H 0.29117 0.42679 1.15781
 H90 H 0.21567 0.41119 0.84578
 C91 C 0.75435 0.12437 1.06768
 C92 C 0.73210 0.11226 1.02707
 C93 C 0.69869 0.08878 1.03374
 C94 C 0.68943 0.07367 1.07965
 C95 C 0.71398 0.08237 1.11920
 C96 C 0.74566 0.10903 1.11402
 C97 C 0.74809 0.11481 0.97749
 C98 C 0.78358 0.09405 0.96772
 C99 C 0.79500 0.08609 0.91984
 C100 C 0.77121 0.10051 0.88143
 C101 C 0.73652 0.12362 0.89047
 C102 C 0.72468 0.12973 0.93885
 H103 H 0.78022 0.14266 1.06254
 H104 H 0.68188 0.07936 1.00226
 H105 H 0.80061 0.08124 0.99770
 H106 H 0.69716 0.14571 0.94663
 H107 H 0.70685 0.07019 1.15463
 H108 H 0.78048 0.09420 0.84467
 C109 C 0.26417 0.61600 0.56440
 C110 C 0.24080 0.60118 0.52632
 C111 C 0.20606 0.58107 0.53684
 C112 C 0.19500 0.57386 0.58494
 C113 C 0.21852 0.58819 0.62301
 C114 C 0.25261 0.61075 0.61309
 C115 C 0.25486 0.60108 0.47578
 C116 C 0.28979 0.57990 0.46536
 C117 C 0.30109 0.57292 0.41729
 C118 C 0.27754 0.58838 0.37919
 C119 C 0.24325 0.61192 0.38897
 C120 C 0.23148 0.61704 0.43762
 H121 H 0.29097 0.63193 0.55591
 H122 H 0.18888 0.56881 0.50722
 H123 H 0.30697 0.56678 0.49503
 H124 H 0.20456 0.63384 0.44602
 H125 H 0.20937 0.58262 0.66000
 H126 H 0.28688 0.58297 0.34223
 C127 C 0.73354 0.88704 0.56030
 C128 C 0.75849 0.89939 0.52260
 C129 C 0.79406 0.91797 0.53379
 C130 C 0.80407 0.92718 0.58205
 C131 C 0.77829 0.91573 0.61950
 C132 C 0.74394 0.89362 0.60915
 C133 C 0.74574 0.89784 0.47124
 C134 C 0.71051 0.91764 0.45772
 C135 C 0.70048 0.92311 0.40877
 C136 C 0.72545 0.90731 0.37284
 C137 C 0.75982 0.88458 0.38572
 C138 C 0.77036 0.88115 0.43518
 H139 H 0.70647 0.87166 0.55141
 H140 H 0.81220 0.92813 0.50397
 H141 H 0.69199 0.93096 0.48550
 H142 H 0.79730 0.86509 0.44583
 H143 H 0.78614 0.92241 0.65670
 H144 H 0.71696 0.91174 0.33524
 C145 C -0.03731 0.22567 0.35644
 C146 C -0.00842 0.23129 0.39162
 C147 C -0.00483 0.20560 0.43109
 C148 C -0.03045 0.17377 0.43701
 C149 C -0.06279 0.17021 0.40388
 C150 C -0.06628 0.19659 0.36325
 C151 C 0.01458 0.26745 0.39229
 C152 C 0.00837 0.29405 0.43040
 C153 C 0.03284 0.32658 0.43650
 C154 C 0.06487 0.33195 0.40427
 C155 C 0.07094 0.30487 0.36567
 C156 C 0.04508 0.27315 0.35933
 H157 H -0.03963 0.24708 0.32672
 H158 H 0.01877 0.21080 0.45714
 H159 H -0.01588 0.28918 0.45541
 H160 H 0.05015 0.25147 0.33067
 H161 H -0.08441 0.14702 0.40894
 H162 H 0.08487 0.35661 0.40919
 C163 C -0.03482 0.77459 0.13456
 C164 C -0.00529 0.77614 0.09952
 C165 C -0.00771 0.80385 0.06201
 C166 C -0.04128 0.82806 0.05660
 C167 C -0.07327 0.82454 0.08921
 C168 C -0.06988 0.79767 0.12918
 C169 C 0.02182 0.74231 0.09421
 C170 C 0.01545 0.71620 0.05578
 C171 C 0.03848 0.68129 0.05087
 C172 C 0.07049 0.67448 0.08382
 C173 C 0.07674 0.70132 0.12238
 C174 C 0.05170 0.73468 0.12793
 H175 H -0.03216 0.75185 0.16276
 H176 H 0.01570 0.80477 0.03508
 H177 H -0.00908 0.72251 0.03104
 H178 H 0.05605 0.75532 0.15773
 H179 H -0.09974 0.84304 0.08405
 H180 H 0.08992 0.64844 0.08061
 C181 C 0.45306 0.26500 0.62686
 C182 C 0.48169 0.25939 0.59124
 C183 C 0.48386 0.28538 0.55184
 C184 C 0.45809 0.31804 0.54807
 C185 C 0.42806 0.32374 0.58318
 C186 C 0.42528 0.29649 0.62242
 C187 C 0.50960 0.22598 0.59325
 C188 C 0.50952 0.19900 0.55516
 C189 C 0.54054 0.17163 0.54987
 C190 C 0.57259 0.17117 0.58309
 C191 C 0.57225 0.19838 0.62223
 C192 C 0.54014 0.22521 0.62742
 H193 H 0.45139 0.24380 0.65675
 H194 H 0.50710 0.28106 0.52507
 H195 H 0.48542 0.19996 0.52881
 H196 H 0.54022 0.24747 0.65600
 H197 H 0.40749 0.34902 0.58023
 H198 H 0.59701 0.14989 0.57884
 C199 C 0.45677 0.72613 0.85655
 C200 C 0.48864 0.73183 0.88766
 C201 C 0.49678 0.70523 0.92552
 C202 C 0.47289 0.67230 0.93349
 C203 C 0.43927 0.66711 0.90297
 C204 C 0.43141 0.69423 0.86443
 C205 C 0.50997 0.76891 0.88683
 C206 C 0.50296 0.79572 0.92433
 C207 C 0.52674 0.82875 0.93011
 C208 C 0.55881 0.83462 0.89802
 C209 C 0.56579 0.80718 0.85996
 C210 C 0.54063 0.77476 0.85412
 H211 H 0.45025 0.74805 0.82823
 H212 H 0.52189 0.71093 0.94916
 H213 H 0.47886 0.79044 0.94945
 H214 H 0.54644 0.75261 0.82620
 H215 H 0.41924 0.64264 0.90882
 H216 H 0.57820 0.85979 0.90284
 C217 C -0.30019 0.56043 0.99431
 C218 C -0.26592 0.58107 1.00861
 C219 C -0.26896 0.61057 1.04429
 C220 C -0.30571 0.62276 1.06264
 C221 C -0.33981 0.60222 1.04865
 C222 C -0.33759 0.56993 1.01539
 C223 C -0.22945 0.58240 0.97888
 C224 C -0.22775 0.61446 0.94599
 C225 C -0.19140 0.63136 0.93349
 C226 C -0.15597 0.61185 0.94887
 C227 C -0.15675 0.57688 0.97798
 C228 C -0.19389 0.56331 0.99438
 H229 H -0.29785 0.53826 0.96580
 H230 H -0.24280 0.62745 1.05323
 H231 H -0.25533 0.62983 0.93648
 H232 H -0.19515 0.53920 1.02079
 H233 H -0.36784 0.61200 1.06386
 H234 H -0.12782 0.62420 0.93842
 C235 C -0.30292 0.43736 0.49288
 C236 C -0.26769 0.41810 0.47729
 C237 C -0.26984 0.38702 0.44361
 C238 C -0.30642 0.37234 0.42864
 C239 C -0.34154 0.39177 0.44395
 C240 C -0.34039 0.42502 0.47552
 C241 C -0.23097 0.41880 0.50683
 C242 C -0.22755 0.38911 0.54258
 C243 C -0.19062 0.37738 0.56161
 C244 C -0.15673 0.39817 0.54754
 C245 C -0.15956 0.43012 0.51368
 C246 C -0.19698 0.43959 0.49246
 H247 H -0.30107 0.46045 0.52029
 H248 H -0.24275 0.37091 0.43418
 H249 H -0.25359 0.37206 0.55144
 H250 H -0.19945 0.46191 0.46384
 H251 H -0.36958 0.38029 0.43155
 H252 H -0.12839 0.38927 0.56318
 C253 C 0.18867 -0.06330 0.00073
 C254 C 0.22426 -0.08204 -0.01443
 C255 C 0.22281 -0.11293 -0.04842
 C256 C 0.18657 -0.12878 -0.06334
 C257 C 0.15103 -0.10944 -0.04865
 C258 C 0.15166 -0.07585 -0.01769
 C259 C 0.26120 -0.08065 0.01480
 C260 C 0.26591 -0.11104 0.04961
 C261 C 0.30368 -0.12398 0.06542
 C262 C 0.33696 -0.10251 0.05005
 C263 C 0.33274 -0.06934 0.01816
 C264 C 0.29461 -0.05944 -0.00057
 H265 H 0.18979 -0.04006 0.02799
 H266 H 0.25048 -0.12797 -0.05772
 H267 H 0.23995 -0.12787 0.05916
 H268 H 0.29111 -0.03650 -0.02834
 H269 H 0.12293 -0.12080 -0.06108
 H270 H 0.36604 -0.11157 0.06335
 C271 C 0.19842 1.05963 0.49873
 C272 C 0.23273 1.08068 0.51235
 C273 C 0.22924 1.11154 0.54638
 C274 C 0.19227 1.12378 0.56445
 C275 C 0.15843 1.10255 0.55133
 C276 C 0.16093 1.06978 0.51915
 C277 C 0.26969 1.08047 0.48304
 C278 C 0.27203 1.11084 0.44795
 C279 C 0.30878 1.12470 0.43195
 C280 C 0.34369 1.10430 0.44742
 C281 C 0.34231 1.07146 0.47984
 C282 C 0.30492 1.06052 0.49870
 H283 H 0.20071 1.03660 0.47125
 H284 H 0.25522 1.12890 0.55466
 H285 H 0.24492 1.12691 0.43813
 H286 H 0.30333 1.03776 0.52677
 H287 H 0.13018 1.11211 0.56617
 H288 H 0.37200 1.11419 0.43408
 C289 C 0.13476 0.48475 0.19154
 C290 C 0.14988 0.50859 0.22905
 C291 C 0.17132 0.54255 0.21756
 C292 C 0.17921 0.55261 0.16923
 C293 C 0.16438 0.52870 0.13174
 C294 C 0.14075 0.49527 0.14247
 C295 C 0.14866 0.49591 0.28039
 C296 C 0.16854 0.46053 0.29365
 C297 C 0.17568 0.45116 0.34250
 C298 C 0.16127 0.47683 0.37869
 C299 C 0.13829 0.51129 0.36617
 C300 C 0.13342 0.52134 0.31667
 H301 H 0.11788 0.45853 0.20075
 H302 H 0.18383 0.55996 0.24683
 H303 H 0.18081 0.44155 0.26556
 H304 H 0.11740 0.54852 0.30618
 H305 H 0.17033 0.53712 0.09452
 H306 H 0.16688 0.46884 0.41626
 C307 C -0.13151 1.01326 0.19025
 C308 C -0.14356 0.98788 0.22801
 C309 C -0.16237 0.95221 0.21687
 C310 C -0.17177 0.94233 0.16867
 C311 C -0.16025 0.96835 0.13111
 C312 C -0.13815 1.00304 0.14127
 C313 C -0.14227 1.00056 0.27940
 C314 C -0.15975 1.03734 0.29187
 C315 C -0.16987 1.04569 0.34028
 C316 C -0.15996 1.01767 0.37652
 C317 C -0.13626 0.98364 0.36546
 C318 C -0.12938 0.97415 0.31645
 H319 H -0.11628 1.04053 0.19932
 H320 H -0.17261 0.93395 0.24671
 H321 H -0.16943 1.05745 0.26300
 H322 H -0.11357 0.94672 0.30702
 H323 H -0.16736 0.96050 0.09405
 H324 H -0.16799 1.02431 0.41367
 C325 C 0.37089 0.51215 -0.31353
 C326 C 0.35580 0.48853 -0.27579
 C327 C 0.33484 0.45425 -0.28668
 C328 C 0.32739 0.44356 -0.33483
 C329 C 0.34255 0.46702 -0.37273
 C330 C 0.36580 0.50092 -0.36250
 C331 C 0.35619 0.50210 -0.22503
 C332 C 0.33549 0.53731 -0.21384
 C333 C 0.32819 0.54811 -0.16542
 C334 C 0.34320 0.52316 -0.12798
 C335 C 0.36659 0.48872 -0.13869
 C336 C 0.37177 0.47776 -0.18756
 H337 H 0.38715 0.53877 -0.30436
 H338 H 0.32211 0.43727 -0.25712
 H339 H 0.32276 0.55455 -0.24367
 H340 H 0.38829 0.45066 -0.19667
 H341 H 0.33678 0.45799 -0.40973
 H342 H 0.33784 0.53158 -0.09067
 C343 C 0.62180 -0.00577 -0.32151
 C344 C 0.63453 0.01682 -0.28148
 C345 C 0.65831 0.05002 -0.28906
 C346 C 0.67292 0.05886 -0.33526
 C347 C 0.66349 0.03389 -0.37427
 C348 C 0.63658 0.00239 -0.36819
 C349 C 0.63227 0.00122 -0.23143
 C350 C 0.65378 -0.03393 -0.22037
 C351 C 0.66207 -0.04469 -0.17208
 C352 C 0.64710 -0.02065 -0.13448
 C353 C 0.62325 0.01366 -0.14479
 C354 C 0.61693 0.02493 -0.19362
 H355 H 0.60327 -0.03150 -0.31565
 H356 H 0.66822 0.06698 -0.25794
 H357 H 0.66689 -0.05109 -0.24975
 H358 H 0.60045 0.05225 -0.20240
 H359 H 0.67521 0.04060 -0.40995
 H360 H 0.65361 -0.02943 -0.09738
 C361 C -0.02363 0.21124 0.89087
 C362 C -0.01822 0.24093 0.85595
 C363 C -0.04493 0.24602 0.81773
 C364 C -0.07740 0.22139 0.81350
 C365 C -0.08254 0.19014 0.84766
 C366 C -0.05524 0.18496 0.88640
 C367 C 0.01748 0.26437 0.85518
 C368 C 0.04309 0.25947 0.81612
 C369 C 0.07494 0.28471 0.81011
 C370 C 0.08042 0.31643 0.84330
 C371 C 0.05424 0.32137 0.88283
 C372 C 0.02336 0.29450 0.88906
 H373 H -0.00176 0.20701 0.91957
 H374 H -0.04031 0.26965 0.79124
 H375 H 0.03809 0.23554 0.79040
 H376 H 0.00230 0.29859 0.91839
 H377 H -0.10717 0.17000 0.84402
 H378 H 0.10460 0.33694 0.83849
 C379 C 0.52122 0.20661 0.12774
 C380 C 0.51819 0.23492 0.16456
 C381 C 0.54402 0.23352 0.20404
 C382 C 0.57377 0.20433 0.20667
 C383 C 0.57665 0.17471 0.17031
 C384 C 0.54964 0.17563 0.13095
 C385 C 0.48609 0.26442 0.16448
 C386 C 0.45987 0.26453 0.20321
 C387 C 0.42891 0.29237 0.20485
 C388 C 0.42520 0.32214 0.16836
 C389 C 0.45264 0.32264 0.12977
 C390 C 0.48231 0.29283 0.12743
 H391 H 0.49996 0.20750 0.09801
 H392 H 0.54178 0.25631 0.23195
 H393 H 0.46265 0.24154 0.23115
 H394 H 0.50372 0.29284 0.09814
 H395 H 0.59972 0.15167 0.17233
 H396 H 0.40126 0.34426 0.16976
 C397 C 0.02246 0.70847 0.62593
 C398 C 0.01879 0.73707 0.66235
 C399 C 0.04476 0.73686 0.70161
 C400 C 0.07453 0.70786 0.70522
 C401 C 0.07805 0.67779 0.66957
 C402 C 0.05146 0.67805 0.62979
 C403 C -0.01506 0.76436 0.66349
 C404 C -0.04122 0.76133 0.70205
 C405 C -0.07395 0.78726 0.70572
 C406 C -0.07845 0.81885 0.67119
 C407 C -0.05119 0.82210 0.63262
 C408 C -0.02026 0.79395 0.62835
 H409 H 0.00106 0.70842 0.59637
 H410 H 0.04183 0.75968 0.72942
 H411 H -0.03639 0.73733 0.72832
 H412 H 0.00105 0.79625 0.59909
 H413 H 0.10117 0.65487 0.67254
 H414 H -0.10274 0.84044 0.67371
 C415 C 0.48006 0.70365 0.38577
 C416 C 0.48555 0.73360 0.35125
 C417 C 0.45923 0.73869 0.31260
 C418 C 0.42687 0.71407 0.30801
 C419 C 0.42144 0.68273 0.34187
 C420 C 0.44855 0.67733 0.38068
 C421 C 0.52081 0.75761 0.35150
 C422 C 0.54691 0.75330 0.31289
 C423 C 0.57773 0.77977 0.30680
 C424 C 0.58178 0.81191 0.33968
 C425 C 0.55527 0.81603 0.37899
 C426 C 0.52533 0.78814 0.38518
 H427 H 0.50164 0.69938 0.41480
 H428 H 0.46381 0.76252 0.28634
 H429 H 0.54283 0.72906 0.28733
 H430 H 0.50389 0.79177 0.41418
 H431 H 0.39664 0.66282 0.33802
 H432 H 0.60510 0.83341 0.33484
 B433 B -0.05900 0.01867 0.99663
 B434 B -0.07252 0.01344 0.93842
 B435 B -0.03733 0.04521 0.95296
 B436 B -0.00962 0.02627 0.99930
 B437 B -0.02913 -0.01931 1.01318
 B438 B -0.06900 -0.02691 0.97486
 B439 B -0.00264 -0.02214 0.91972
 B440 B 0.01112 -0.01626 0.97745
 B441 B -0.02505 -0.04797 0.96328
 B442 B -0.05202 -0.02883 0.91631
 B443 B -0.03216 0.01671 0.90243
 B444 B 0.00739 0.02444 0.94057
 B445 B 0.44926 0.51314 0.49487
 B446 B 0.43534 0.50537 0.43717
 B447 B 0.46953 0.53885 0.44956
 B448 B 0.49843 0.52250 0.49616
 B449 B 0.48064 0.47694 0.51283
 B450 B 0.44053 0.46659 0.47572
 B451 B 0.50596 0.47153 0.41896
 B452 B 0.52022 0.47987 0.47605
 B453 B 0.48494 0.44651 0.46465
 B454 B 0.45691 0.46294 0.41710
 B455 B 0.47503 0.50876 0.40038
 B456 B 0.51470 0.51916 0.43721
 B457 B 0.55580 0.98055 0.49124
 B458 B 0.56660 0.98791 0.43212
 B459 B 0.53329 0.95431 0.44766
 B460 B 0.50670 0.97084 0.49583
 B461 B 0.52482 1.01683 0.51004
 B462 B 0.56308 1.02694 0.47042
 B463 B 0.49499 1.02134 0.41783
 B464 B 0.48340 1.01325 0.47580
 B465 B 0.51798 1.04667 0.46137
 B466 B 0.54378 1.03004 0.41274
 B467 B 0.52513 0.98415 0.39815
 B468 B 0.48740 0.97376 0.43770
 B469 B 0.05539 0.48505 0.99712
 B470 B 0.06986 0.49254 0.93960
 B471 B 0.03488 0.45987 0.95154
 B472 B 0.00606 0.47675 0.99749
 B473 B 0.02464 0.52206 1.01403
 B474 B 0.06525 0.53128 0.97759
 B475 B -0.00014 0.52800 0.91958
 B476 B -0.01492 0.51981 0.97649
 B477 B 0.02123 0.55256 0.96551
 B478 B 0.04920 0.53564 0.91866
 B479 B 0.03026 0.49021 0.90203
 B480 B -0.00983 0.48050 0.93818
 B481 B 0.04859 0.52141 0.50445
 B482 B 0.06219 0.51008 0.56164
 B483 B 0.02750 0.54498 0.55109
 B484 B -0.00073 0.53192 0.50300
 B485 B 0.01808 0.48689 0.48354
 B486 B 0.05804 0.47363 0.52043
 B487 B -0.00799 0.47707 0.57657
 B488 B -0.02188 0.48876 0.51996
 B489 B 0.01383 0.45401 0.52946
 B490 B 0.04118 0.46702 0.57847
 B491 B 0.02216 0.51240 0.59800
 B492 B -0.01739 0.52579 0.56137
 B493 B 0.54051 0.02224 -0.00017
 B494 B 0.55667 0.00910 0.05546
 B495 B 0.52202 0.04468 0.04884
 B496 B 0.49133 0.03330 0.00231
 B497 B 0.50862 -0.01135 -0.02024
 B498 B 0.55008 -0.02604 0.01322
 B499 B 0.48690 -0.02350 0.07408
 B500 B 0.47049 -0.01014 0.01901
 B501 B 0.50617 -0.04541 0.02466
 B502 B 0.53592 -0.03409 0.07208
 B503 B 0.51846 0.01085 0.09473
 B504 B 0.47740 0.02569 0.06151
 B505 B 0.45511 0.47987 0.00269
 B506 B 0.44057 0.49058 0.05936
 B507 B 0.47563 0.45599 0.05001
 B508 B 0.50451 0.46979 0.00287
 B509 B 0.48569 0.51499 -0.01708
 B510 B 0.44507 0.52733 0.01849
 B511 B 0.51020 0.52390 0.07688
 B512 B 0.52521 0.51294 0.02071
 B513 B 0.48891 0.54735 0.02918
 B514 B 0.46099 0.53357 0.07705
 B515 B 0.48002 0.48816 0.09711
 B516 B 0.52024 0.47541 0.06183
 B517 B -0.04835 0.97909 0.50681
 B518 B -0.06351 0.99012 0.56340
 B519 B -0.02795 0.95606 0.55471
 B520 B 0.00103 0.96968 0.50765
 B521 B -0.01827 1.01443 0.48671
 B522 B -0.05934 1.02658 0.52174
 B523 B 0.00569 1.02484 0.58065
 B524 B 0.02108 1.01328 0.52481
 B525 B -0.01585 1.04739 0.53230
 B526 B -0.04377 1.03373 0.58038
 B527 B -0.02414 0.98882 0.60135
 B528 B 0.01634 0.97618 0.56658
 B529 B 0.76898 0.18789 0.25601
 B530 B 0.76387 0.17770 0.31583
 B531 B 0.79588 0.21174 0.29801
 B532 B 0.77733 0.23758 0.24955
 B533 B 0.73188 0.21815 0.23765
 B534 B 0.72391 0.17982 0.27888
 B535 B 0.72974 0.24944 0.32894
 B536 B 0.73561 0.26044 0.27034
 B537 B 0.70372 0.22509 0.28699
 B538 B 0.72221 0.20006 0.33596
 B539 B 0.76780 0.22012 0.34822
 B540 B 0.77594 0.25779 0.30704
 B541 B 0.73113 0.80886 0.75472
 B542 B 0.73660 0.82282 0.81275
 B543 B 0.70504 0.78728 0.79863
 B544 B 0.72351 0.75898 0.75296
 B545 B 0.76858 0.77851 0.73890
 B546 B 0.77618 0.81913 0.77652
 B547 B 0.77181 0.75224 0.83306
 B548 B 0.76569 0.73807 0.77550
 B549 B 0.79725 0.77480 0.78871
 B550 B 0.77879 0.80217 0.83532
 B551 B 0.73353 0.78231 0.84945
 B552 B 0.72554 0.74215 0.81208
 B553 B 0.26838 0.29778 0.74509
 B554 B 0.25853 0.31205 0.68762
 B555 B 0.29212 0.27623 0.69884
 B556 B 0.27770 0.24777 0.74632
 B557 B 0.23317 0.26765 0.76468
 B558 B 0.22161 0.30850 0.72778
 B559 B 0.22457 0.24192 0.67130
 B560 B 0.23478 0.22748 0.72809
 B561 B 0.20133 0.26436 0.71793
 B562 B 0.21572 0.29184 0.66946
 B563 B 0.26058 0.27171 0.65105
 B564 B 0.27234 0.23136 0.68772
 B565 B 0.23411 0.70048 0.24562
 B566 B 0.24437 0.68626 0.18859
 B567 B 0.20958 0.72089 0.19876
 B568 B 0.22289 0.75013 0.24577
 B569 B 0.26812 0.73202 0.26497
 B570 B 0.28119 0.69145 0.22902
 B571 B 0.27566 0.75760 0.17105
 B572 B 0.26494 0.77197 0.22752
 B573 B 0.29971 0.73632 0.21828
 B574 B 0.28629 0.70798 0.17033
 B575 B 0.24079 0.72632 0.15112
 B576 B 0.22760 0.76644 0.18685
 B577 B 0.26527 0.69522 0.75919
 B578 B 0.25948 0.68122 0.81747
 B579 B 0.29167 0.71618 0.80343
 B580 B 0.27384 0.74493 0.75731
 B581 B 0.22857 0.72618 0.74262
 B582 B 0.21992 0.68567 0.78041
 B583 B 0.22523 0.75217 0.83634
 B584 B 0.23192 0.76637 0.77890
 B585 B 0.19979 0.73030 0.79202
 B586 B 0.21774 0.70243 0.83907
 B587 B 0.26312 0.72163 0.85381
 B588 B 0.27182 0.76167 0.81627
 B589 B 0.23442 0.30756 0.25657
 B590 B 0.24160 0.31766 0.31593
 B591 B 0.20852 0.28409 0.29944
 B592 B 0.22512 0.25805 0.25086
 B593 B 0.27053 0.27683 0.23717
 B594 B 0.28028 0.31497 0.27764
 B595 B 0.27487 0.24531 0.32883
 B596 B 0.26714 0.23458 0.27054
 B597 B 0.30005 0.26940 0.28573
 B598 B 0.28343 0.29455 0.33493
 B599 B 0.23792 0.27532 0.34893
 B600 B 0.22789 0.23778 0.30853
 B601 B 0.77213 0.79520 0.24539
 B602 B 0.76342 0.80966 0.18760
 B603 B 0.79645 0.77347 0.19966
 B604 B 0.78094 0.74518 0.24679
 B605 B 0.73630 0.76537 0.26405
 B606 B 0.72573 0.80627 0.22684
 B607 B 0.72903 0.73971 0.17046
 B608 B 0.73832 0.72512 0.22752
 B609 B 0.70528 0.76229 0.21650
 B610 B 0.72071 0.78972 0.16842
 B611 B 0.76572 0.76918 0.15107
 B612 B 0.77641 0.72875 0.18805
 B613 B 0.72873 0.20678 0.74487
 B614 B 0.74015 0.19136 0.68873
 B615 B 0.70590 0.22707 0.69676
 B616 B 0.71895 0.25665 0.74364
 B617 B 0.76318 0.23764 0.76500
 B618 B 0.77605 0.19623 0.73043
 B619 B 0.77372 0.26150 0.67096
 B620 B 0.76198 0.27704 0.72662
 B621 B 0.79600 0.24038 0.71956
 B622 B 0.78308 0.21171 0.67171
 B623 B 0.73846 0.23088 0.65026
 B624 B 0.72549 0.27192 0.68463
 N625 N 0.46476 1.08199 0.37534
 N626 N 0.43257 1.09297 0.35038
 C627 C 0.41148 1.05961 0.34298
 C628 C 0.43228 1.02772 0.36429
 N629 N 0.46520 1.04292 0.38414
 H630 H 0.42384 0.99670 0.36697
 N631 N -0.02787 0.58781 0.87231
 N632 N -0.05988 0.59845 0.84669
 C633 C -0.08145 0.56519 0.84081
 C634 C -0.06110 0.53377 0.86346
 N635 N -0.02816 0.54911 0.88319
 H636 H -0.07044 0.50316 0.86803
 N637 N 0.02346 -0.08135 0.87155
 N638 N 0.05550 -0.09265 0.84692
 C639 C 0.07919 -0.06062 0.84471
 C640 C 0.06025 -0.02925 0.86823
 N641 N 0.02567 -0.04328 0.88456
 H642 H 0.07126 0.00048 0.87477
 N643 N 0.53172 0.41288 0.36935
 N644 N 0.56331 0.40190 0.34372
 C645 C 0.58724 0.43375 0.34205
 C646 C 0.56887 0.46472 0.36700
 N647 N 0.53443 0.45055 0.38373
 H648 H 0.58006 0.49432 0.37396
 N649 N 0.53506 0.58284 0.12561
 N650 N 0.56604 0.59244 0.15285
 C651 C 0.58940 0.55923 0.15653
 C652 C 0.57150 0.52905 0.13120
 N653 N 0.53789 0.54484 0.11215
 H654 H 0.58251 0.49875 0.12563
 N655 N 0.03265 1.08563 0.62445
 N656 N 0.06394 1.09564 0.65092
 C657 C 0.08524 1.06162 0.65945
 C658 C 0.06559 1.03056 0.63741
 N659 N 0.03323 1.04664 0.61563
 H660 H 0.07480 0.99940 0.63507
 N661 N -0.03356 0.41803 0.62508
 N662 N -0.06458 0.40830 0.65190
 C663 C -0.08833 0.44124 0.65420
 C664 C -0.07066 0.47138 0.62824
 N665 N -0.03668 0.45584 0.61043
 H666 H -0.08173 0.50168 0.62230
 N667 N 0.46360 -0.08337 0.12290
 N668 N 0.43334 -0.09389 0.15055
 C669 C 0.40913 -0.06137 0.15409
 C670 C 0.42575 -0.03068 0.12803
 N671 N 0.45956 -0.04546 0.10892
 H672 H 0.41396 -0.00058 0.12251
 N673 N 0.38251 0.49476 0.11695
 N674 N 0.34774 0.47801 0.12471
 C675 C 0.34310 0.45055 0.08950
 C676 C 0.37611 0.45076 0.06041
 N677 N 0.39993 0.47894 0.07826
 H678 H 0.38249 0.43138 0.02998
 N679 N -0.11853 0.98624 0.62584
 N680 N -0.15326 0.96894 0.63259
 C681 C -0.16107 0.94818 0.59181
 C682 C -0.12960 0.95270 0.56077
 N683 N -0.10395 0.97720 0.58249
 H684 H -0.12487 0.93702 0.52721
 N685 N -0.12824 0.01990 0.87693
 N686 N -0.16272 0.03907 0.87033
 C687 C -0.16909 0.06134 0.91041
 C688 C -0.13740 0.05533 0.94144
 N689 N -0.11264 0.02905 0.91965
 H690 H -0.13252 0.06970 0.97596
 N691 N 0.37883 0.50729 0.37640
 N692 N 0.34378 0.52522 0.36924
 C693 C 0.33749 0.54918 0.40784
 C694 C 0.36968 0.54557 0.43842
 N695 N 0.39472 0.51890 0.41804
 H696 H 0.37462 0.56170 0.47176
 N697 N 0.11957 0.50659 0.62152
 N698 N 0.15423 0.52360 0.62977
 C699 C 0.15893 0.55092 0.59412
 C700 C 0.12625 0.55024 0.56427
 N701 N 0.10249 0.52194 0.58192
 H702 H 0.12037 0.56915 0.53297
 N703 N 0.61586 0.00279 0.11181
 N704 N 0.65063 0.01951 0.11992
 C705 C 0.65479 0.04790 0.08540
 C706 C 0.62155 0.04819 0.05630
 N707 N 0.59802 0.01946 0.07351
 H708 H 0.61467 0.06848 0.02656
 N709 N 0.62841 0.99897 0.38227
 N710 N 0.66363 0.98203 0.37364
 C711 C 0.66413 0.94618 0.39637
 C712 C 0.62811 0.94168 0.41870
 N713 N 0.60671 0.97548 0.41007
 H714 H 0.62008 0.91757 0.44291
 N715 N 0.12636 0.48804 0.87959
 N716 N 0.16053 0.46845 0.87283
 C717 C 0.16632 0.44458 0.91202
 C718 C 0.13460 0.45014 0.94272
 N719 N 0.11039 0.47772 0.92163
 H720 H 0.12922 0.43444 0.97638
 N721 N -0.00302 0.38030 0.54001
 N722 N 0.00328 0.34603 0.51678
 C723 C 0.02302 0.35491 0.47557
 C724 C 0.02767 0.39527 0.47376
 N725 N 0.01093 0.41041 0.51427
 H726 H 0.04189 0.41215 0.44524
 N727 N 0.49274 -0.11958 0.03578
 N728 N 0.50010 -0.15349 0.01225
 C729 C 0.51633 -0.14334 -0.03080
 C730 C 0.51736 -0.10273 -0.03359
 N731 N 0.50234 -0.08860 0.00842
 H732 H 0.52894 -0.08508 -0.06327
 N733 N -0.04696 -0.11715 0.94603
 N734 N -0.05723 -0.14851 0.97256
 C735 C -0.04083 -0.14323 1.01659
 C736 C -0.01803 -0.10980 1.01513
 N737 N -0.02341 -0.09315 0.97088
 H738 H -0.00232 -0.09667 1.04537
 N739 N 0.48547 0.37319 0.44282
 N740 N 0.47408 0.33924 0.46324
 C741 C 0.46689 0.34750 0.51034
 C742 C 0.47671 0.38619 0.51872
 N743 N 0.48794 0.40185 0.47576
 H744 H 0.47383 0.40200 0.55284
 N745 N 0.52960 1.11822 0.43992
 N746 N 0.54157 1.15043 0.46338
 C747 C 0.53640 1.14272 0.51093
 C748 C 0.51799 1.10689 0.51552
 N749 N 0.51501 1.09149 0.47054
 H750 H 0.51031 1.09210 0.54922
 N751 N -0.00891 0.62335 0.96264
 N752 N -0.00437 0.65791 0.98534
 C753 C 0.02714 0.65336 1.01572
 C754 C 0.04183 0.61521 1.01024
 N755 N 0.01854 0.59713 0.97727
 H756 H 0.06558 0.60085 1.03088
 N757 N 0.51871 0.61689 0.02763
 N758 N 0.51480 0.65033 0.00173
 C759 C 0.48388 0.64554 -0.02916
 C760 C 0.46886 0.60852 -0.02077
 N761 N 0.49151 0.59118 0.01433
 H762 H 0.44550 0.59417 -0.04094
 N763 N 0.01201 1.11748 0.53262
 N764 N 0.00807 1.15128 0.50760
 C765 C -0.02144 1.14644 0.47469
 C766 C -0.03560 1.10861 0.48092
 N767 N -0.01371 1.09120 0.51690
 H768 H -0.05768 1.09397 0.45892
 N769 N 0.82980 0.72552 0.88339
 N770 N 0.84097 0.69273 0.90768
 C771 C 0.80919 0.66887 0.90974
 C772 C 0.77802 0.68869 0.88619
 N773 N 0.79217 0.72363 0.86964
 H774 H 0.74862 0.67775 0.87882
 N775 N 0.33420 0.21335 0.37159
 N776 N 0.34425 0.18077 0.39688
 C777 C 0.31073 0.16027 0.40433
 C778 C 0.27971 0.18184 0.38262
 N779 N 0.29560 0.21459 0.36240
 H780 H 0.24879 0.17401 0.38007
 N781 N 0.67232 0.27659 0.37829
 N782 N 0.66128 0.30907 0.40265
 C783 C 0.69232 0.33388 0.40222
 C784 C 0.72291 0.31518 0.37717
 N785 N 0.70924 0.27958 0.36263
 H786 H 0.75195 0.32669 0.36913
 N787 N 0.16527 0.78000 0.88039
 N788 N 0.15371 0.81241 0.90456
 C789 C 0.18613 0.83482 0.91106
 C790 C 0.21806 0.81455 0.89022
 N791 N 0.20383 0.78064 0.87134
 H792 H 0.24831 0.82429 0.88653
 N793 N 0.33406 0.78804 0.12699
 N794 N 0.34248 0.82034 0.10097
 C795 C 0.30795 0.84057 0.09312
 C796 C 0.27817 0.81917 0.11513
 N797 N 0.29556 0.78682 0.13613
 H798 H 0.24700 0.82713 0.11783
 N799 N 0.83276 0.28458 0.62181
 N800 N 0.84360 0.31549 0.59475
 C801 C 0.81209 0.34097 0.59234
 C802 C 0.78164 0.32442 0.61841
 N803 N 0.79559 0.28938 0.63645
 H804 H 0.75220 0.33695 0.62436
 N805 N 0.16631 0.21660 0.62208
 N806 N 0.15653 0.18519 0.59551
 C807 C 0.18901 0.16099 0.59334
 C808 C 0.21896 0.17882 0.61910
 N809 N 0.20373 0.21333 0.63673
 H810 H 0.24882 0.16736 0.62537
 N811 N 0.67097 0.71644 0.11951
 N812 N 0.66035 0.68534 0.09293
 C813 C 0.69174 0.65966 0.09216
 C814 C 0.72198 0.67635 0.11873
 N815 N 0.70791 0.71162 0.13550
 H816 H 0.75126 0.66372 0.12594
 N817 N 0.24629 0.62778 0.12992
 N818 N 0.22887 0.59293 0.12272
 C819 C 0.20290 0.58839 0.15936
 C820 C 0.20487 0.62140 0.18874
 N821 N 0.23252 0.64518 0.16982
 H822 H 0.18699 0.62767 0.22036
 N823 N 0.74365 0.13246 0.63130
 N824 N 0.72620 0.09781 0.62325
 C825 C 0.69883 0.09359 0.65837
 C826 C 0.69995 0.12674 0.68778
 N827 N 0.72844 0.15021 0.67016
 H828 H 0.68079 0.13360 0.71811
 N829 N 0.76160 0.11946 0.37557
 N830 N 0.77978 0.08441 0.38415
 C831 C 0.80912 0.08099 0.35117
 C832 C 0.80943 0.11553 0.32419
 N833 N 0.77855 0.13825 0.33878
 H834 H 0.83011 0.12297 0.29573
 N835 N 0.27219 0.62841 0.88238
 N836 N 0.29116 0.59347 0.88847
 C837 C 0.30601 0.58312 0.84474
 C838 C 0.29576 0.61306 0.81217
 N839 N 0.27438 0.64056 0.83655
 H840 H 0.30545 0.61576 0.77519
 N841 N 0.25970 0.36894 0.62620
 N842 N 0.27824 0.40306 0.61813
 C843 C 0.30322 0.40802 0.65593
 C844 C 0.29943 0.37600 0.68702
 N845 N 0.27175 0.35243 0.66779
 H846 H 0.31614 0.37014 0.71996
 N847 N 0.76980 0.86446 0.12394
 N848 N 0.78757 0.89922 0.11726
 C849 C 0.80686 0.90743 0.15904
 C850 C 0.80076 0.87617 0.19081
 N851 N 0.77706 0.85022 0.16824
 H852 H 0.81473 0.87164 0.22568
 N853 N 0.73034 0.88002 0.87249
 N854 N 0.71059 0.91447 0.87828
 C855 C 0.68763 0.91978 0.83839
 C856 C 0.69385 0.88751 0.80833
 N857 N 0.72093 0.86345 0.83043
 H858 H 0.67899 0.88172 0.77432
 N859 N 0.25185 0.37928 0.36744
 N860 N 0.23451 0.41439 0.37709
 C861 C 0.19905 0.41472 0.35427
 C862 C 0.19523 0.37880 0.33086
 N863 N 0.22898 0.35762 0.33889
 H864 H 0.17156 0.37086 0.30629
 N865 N 0.12796 0.24908 0.70613
 N866 N 0.09398 0.25589 0.72912
 C867 C 0.10281 0.27551 0.77056
 C868 C 0.14283 0.27951 0.77274
 N869 N 0.15784 0.26252 0.73227
 H870 H 0.15961 0.29319 0.80171
 N871 N 0.63288 0.74311 0.20520
 N872 N 0.59857 0.74878 0.22781
 C873 C 0.60591 0.77152 0.26729
 C874 C 0.64542 0.77894 0.26849
 N875 N 0.66156 0.76060 0.22957
 H876 H 0.66129 0.79500 0.29635
 N877 N 0.63170 0.22374 0.31192
 N878 N 0.59728 0.21407 0.29201
 C879 C 0.60405 0.20935 0.24410
 C880 C 0.64234 0.21892 0.23496
 N881 N 0.65917 0.22761 0.27804
 H882 H 0.65685 0.21822 0.19994
 N883 N 0.12907 0.71895 0.81467
 N884 N 0.09647 0.70762 0.79182
 C885 C 0.10336 0.71279 0.74411
 C886 C 0.13920 0.73034 0.73870
 N887 N 0.15525 0.73310 0.78343
 H888 H 0.15345 0.73755 0.70464
 N889 N 0.86738 0.74589 0.79704
 N890 N 0.90199 0.74914 0.77502
 C891 C 0.89805 0.77894 0.74167
 C892 C 0.86018 0.79408 0.74470
 N893 N 0.84165 0.77241 0.77903
 H894 H 0.84624 0.81640 0.72119
 N895 N 0.37230 0.26977 0.30965
 N896 N 0.40635 0.28018 0.28975
 C897 C 0.39892 0.28606 0.24204
 C898 C 0.36053 0.27649 0.23292
 N899 N 0.34437 0.26656 0.27593
 H900 H 0.34542 0.27818 0.19812
 N901 N 0.37310 0.74469 0.20185
 N902 N 0.40730 0.73621 0.22404
 C903 C 0.39827 0.72379 0.26935
 C904 C 0.35830 0.72663 0.27489
 N905 N 0.34320 0.73984 0.23216
 H906 H 0.34167 0.71839 0.30688
 N907 N 0.86920 0.25482 0.70795
 N908 N 0.90321 0.24814 0.73133
 C909 C 0.89425 0.23043 0.77406
 C910 C 0.85410 0.22753 0.77667
 N911 N 0.83920 0.24322 0.73502
 H912 H 0.83724 0.21502 0.80631
 N913 N 0.62542 0.96548 0.51571
 N914 N 0.64865 0.97440 0.55267
 C915 C 0.62507 0.98017 0.59123
 C916 C 0.58639 0.97335 0.57641
 N917 N 0.58750 0.96550 0.52803
 H918 H 0.55993 0.98189 0.59634
 N919 N 0.07105 0.44185 1.07064
 N920 N 0.09277 0.44477 1.11080
 C921 C 0.11918 0.47400 1.10320
 C922 C 0.11338 0.48781 1.05639
 N923 N 0.08269 0.46772 1.03720
 H924 H 0.12639 0.51407 1.04034
 N925 N -0.07445 0.06026 1.07040
 N926 N -0.09447 0.05517 1.11130
 C927 C -0.11985 0.02500 1.10383
 C928 C -0.11586 0.01346 1.05602
 N929 N -0.08637 0.03505 1.03655
 H930 H -0.12855 -0.01259 1.03929
 N931 N 0.43310 0.55528 0.56804
 N932 N 0.41200 0.55111 0.60828
 C933 C 0.38625 0.52131 0.60047
 C934 C 0.39130 0.50891 0.55313
 N935 N 0.42152 0.52986 0.53425
 H936 H 0.37842 0.48296 0.53638
 N937 N 0.43989 0.43571 -0.06874
 N938 N 0.41698 0.43818 -0.10805
 C939 C 0.38918 0.46701 -0.09981
 C940 C 0.39530 0.48090 -0.05344
 N941 N 0.42766 0.46151 -0.03533
 H942 H 0.38134 0.50698 -0.03720
 N943 N -0.06223 0.93317 0.43623
 N944 N -0.08543 0.93402 0.39708
 C945 C -0.11386 0.96237 0.40459
 C946 C -0.10748 0.97796 0.44999
 N947 N -0.07484 0.95968 0.46864
 H948 H -0.12167 1.00433 0.46524
 N949 N 0.06460 0.56523 0.43266
 N950 N 0.08787 0.56238 0.39401
 C951 C 0.11571 0.53379 0.40385
 C952 C 0.10923 0.52050 0.45051
 N953 N 0.07659 0.53989 0.46718
 H954 H 0.12309 0.49463 0.46786
 N955 N 0.55305 0.06692 -0.07209
 N956 N 0.57411 0.06423 -0.11261
 C957 C 0.60231 0.03554 -0.10524
 C958 C 0.59849 0.02211 -0.05815
 N959 N 0.56685 0.04142 -0.03872
 H960 H 0.61326 -0.00381 -0.04207
 N961 N 0.59052 0.50141 -0.02376
 N962 N 0.62720 0.51535 -0.02515
 C963 C 0.62795 0.54821 0.00325
 C964 C 0.58990 0.55401 0.02102
 N965 N 0.56733 0.52419 0.00396
 H966 H 0.58021 0.57667 0.04608
 N967 N 0.08664 0.99971 0.48218
 N968 N 0.12353 1.01302 0.48062
 C969 C 0.12430 1.04711 0.50668
 C970 C 0.08607 1.05422 0.52344
 N971 N 0.06331 1.02398 0.50786
 H972 H 0.07640 1.07808 0.54688
 N973 N 0.07571 -0.00661 1.02193
 N974 N 0.11275 -0.02075 1.02326
 C975 C 0.11410 -0.05416 0.99594
 C976 C 0.07589 -0.06026 0.97868
 N977 N 0.05282 -0.02966 0.99511
 H978 H 0.06632 -0.08335 0.95422
 N979 N 0.58592 0.49258 0.51681
 N980 N 0.62332 0.47943 0.51607
 C981 C 0.62431 0.44531 0.48996
 C982 C 0.58549 0.43750 0.47630
 N983 N 0.56249 0.46804 0.49286
 H984 H 0.57517 0.41335 0.45390
 N985 N -0.08818 0.50341 0.47932
 N986 N -0.12468 0.48922 0.47770
 C987 C -0.12374 0.45340 0.50068
 C988 C -0.08493 0.44598 0.51539
 N989 N -0.06363 0.47798 0.50202
 H990 H -0.07378 0.42085 0.53655
 N991 N 0.40230 0.00589 -0.01593
 N992 N 0.36586 -0.00851 -0.01614
 C993 C 0.36793 -0.04528 0.00447
 C994 C 0.40735 -0.05299 0.01630
 N995 N 0.42789 -0.02027 0.00361
 H996 H 0.41958 -0.07892 0.03512
 N997 N 0.41801 0.99978 0.51694
 N998 N 0.38075 1.01352 0.51766
 C999 C 0.37974 1.04899 0.49395
 C1000 C 0.41844 1.05667 0.47981
 N1001 N 0.44148 1.02508 0.49417
 H1002 H 0.42847 1.08173 0.45857
 N1003 N -0.07958 0.50910 1.02054
 N1004 N -0.11695 0.52247 1.02102
 C1005 C -0.11905 0.55532 0.99231
 C1006 C -0.08116 0.56166 0.97493
 N1007 N -0.05723 0.53209 0.99291
 H1008 H -0.07266 0.58424 0.94923
 N1009 N 0.03477 0.61717 0.52682
 N1010 N 0.04281 0.65238 0.54600
 C1011 C 0.05086 0.64593 0.59351
 C1012 C 0.04674 0.60568 0.60302
 N1013 N 0.03650 0.58877 0.56053
 H1014 H 0.04850 0.59064 0.63795
 N1015 N 0.53146 0.11698 0.02649
 N1016 N 0.54063 0.15155 0.04654
 C1017 C 0.54842 0.14411 0.09390
 C1018 C 0.54295 0.10388 0.10242
 N1019 N 0.53219 0.08802 0.05950
 H1020 H 0.54415 0.08824 0.13699
 N1021 N -0.04092 0.11610 0.98393
 N1022 N -0.04700 0.15320 0.96787
 C1023 C -0.05648 0.15074 0.92029
 C1024 C -0.05536 0.11087 0.90756
 N1025 N -0.04538 0.09019 0.94818
 H1026 H -0.05847 0.09841 0.87152
 N1027 N 0.46092 0.60960 0.47927
 N1028 N 0.45370 0.64631 0.46261
 C1029 C 0.44692 0.64320 0.41445
 C1030 C 0.45099 0.60338 0.40198
 N1031 N 0.45988 0.58338 0.44340
 H1032 H 0.45052 0.59068 0.36586
 N1033 N 0.54472 0.88355 0.47759
 N1034 N 0.55223 0.84706 0.46084
 C1035 C 0.55581 0.85037 0.41219
 C1036 C 0.54911 0.88991 0.39951
 N1037 N 0.54239 0.90973 0.44134
 H1038 H 0.54739 0.90265 0.36328
 N1039 N 0.04296 0.38870 0.98132
 N1040 N 0.04982 0.35208 0.96468
 C1041 C 0.05611 0.35545 0.91646
 C1042 C 0.05210 0.39540 0.90396
 N1043 N 0.04374 0.41518 0.94541
 H1044 H 0.05240 0.40838 0.86783
 N1045 N 0.46967 0.38362 0.02631
 N1046 N 0.46199 0.34828 0.04577
 C1047 C 0.45299 0.35465 0.09287
 C1048 C 0.45614 0.39502 0.10184
 N1049 N 0.46678 0.41207 0.05947
 H1050 H 0.45362 0.41007 0.13648
 N1051 N -0.03795 0.88456 0.53009
 N1052 N -0.04667 0.84934 0.54907
 C1053 C -0.05247 0.85501 0.59703
 C1054 C -0.04603 0.89478 0.60701
 N1055 N -0.03686 0.91219 0.56432
 H1056 H -0.04558 0.90906 0.64224
 N1057 N 0.21846 0.37793 0.23300
 N1058 N 0.22539 0.40163 0.19560
 C1059 C 0.23021 0.37801 0.15665
 C1060 C 0.22505 0.33876 0.17179
 N1061 N 0.21884 0.33970 0.22049
 H1062 H 0.23358 0.31225 0.15151
 N1063 N 0.68863 0.82572 0.68128
 N1064 N 0.69201 0.84761 0.64115
 C1065 C 0.72172 0.87344 0.64865
 C1066 C 0.73536 0.86717 0.69536
 N1067 N 0.71473 0.83671 0.71454
 H1068 H 0.76188 0.87941 0.71121
 N1069 N 0.30782 0.67819 0.68636
 N1070 N 0.30437 0.65671 0.64612
 C1071 C 0.27382 0.63176 0.65273
 C1072 C 0.25953 0.63826 0.69881
 N1073 N 0.28098 0.66770 0.71881
 H1074 H 0.23259 0.62649 0.71394
 N1075 N 0.78049 0.11735 0.23118
 N1076 N 0.77153 0.09479 0.19372
 C1077 C 0.76764 0.11932 0.15521
 C1078 C 0.77591 0.15786 0.17060
 N1079 N 0.78277 0.15574 0.21926
 H1080 H 0.76896 0.18519 0.15065
 N1081 N 0.68389 0.19389 0.81569
 N1082 N 0.68626 0.17259 0.85648
 C1083 C 0.71487 0.14428 0.85012
 C1084 C 0.72858 0.14821 0.80334
 N1085 N 0.70954 0.18010 0.78318
 H1086 H 0.75445 0.13345 0.78805
 N1087 N 0.19004 0.68400 0.31654
 N1088 N 0.19250 0.66127 0.35621
 C1089 C 0.22238 0.63440 0.34931
 C1090 C 0.23713 0.64095 0.30343
 N1091 N 0.21688 0.67253 0.28417
 H1092 H 0.26390 0.62785 0.28827
 N1093 N 0.81379 0.80992 0.31947
 N1094 N 0.81020 0.83290 0.35855
 C1095 C 0.78203 0.86112 0.34851
 C1096 C 0.76964 0.85509 0.30150
 N1097 N 0.78937 0.82253 0.28449
 H1098 H 0.74458 0.86957 0.28355
 N1099 N 0.31328 0.31215 0.81602
 N1100 N 0.31058 0.33300 0.85686
 C1101 C 0.28056 0.35998 0.85094
 C1102 C 0.26616 0.35562 0.80439
 N1103 N 0.28649 0.32492 0.78379
 H1104 H 0.23929 0.36921 0.78965
 N1105 N 0.74782 0.34477 0.76447
 N1106 N 0.76241 0.38140 0.76569
 C1107 C 0.79814 0.37969 0.74384
 C1108 C 0.80507 0.34028 0.73021
 N1109 N 0.77288 0.31942 0.74310
 H1110 H 0.83008 0.32835 0.71022
 N1111 N 0.25048 0.83894 0.26741
 N1112 N 0.26426 0.87593 0.26837
 C1113 C 0.29906 0.87540 0.24428
 C1114 C 0.30647 0.83617 0.23007
 N1115 N 0.27530 0.81442 0.24433
 H1116 H 0.33139 0.82468 0.20966
 N1117 N 0.24327 0.83273 0.73778
 N1118 N 0.22889 0.87000 0.73678
 C1119 C 0.19445 0.87023 0.76150
 C1120 C 0.18799 0.83121 0.77671
 N1121 N 0.21934 0.80873 0.76181
 H1122 H 0.16392 0.82062 0.79872
 N1123 N 0.74632 0.32599 0.22658
 N1124 N 0.73250 0.36352 0.22613
 C1125 C 0.69854 0.36432 0.25183
 C1126 C 0.69173 0.32524 0.26686
 N1127 N 0.72247 0.30219 0.25109
 H1128 H 0.66828 0.31507 0.29020
 N1129 N 0.75076 0.65850 0.26984
 N1130 N 0.73675 0.62161 0.27111
 C1131 C 0.70237 0.62222 0.24582
 C1132 C 0.69566 0.66132 0.22995
 N1133 N 0.72664 0.68306 0.24510
 H1134 H 0.67186 0.67234 0.20688
 N1135 N 0.24694 0.16054 0.76970
 N1136 N 0.23198 0.12408 0.77156
 C1137 C 0.19701 0.12554 0.74748
 C1138 C 0.19094 0.16466 0.73167
 N1139 N 0.22286 0.18558 0.74569
 H1140 H 0.16680 0.17623 0.70950
 N1141 N 0.25407 0.16914 0.22850
 N1142 N 0.26756 0.13151 0.22807
 C1143 C 0.30254 0.13053 0.25209
 C1144 C 0.31027 0.16952 0.26600
 N1145 N 0.27910 0.19275 0.25137
 H1146 H 0.33492 0.17957 0.28754
 N1147 N 0.75793 0.67325 0.72933
 N1148 N 0.77270 0.63608 0.72777
 C1149 C 0.80468 0.63452 0.75743
 C1150 C 0.80899 0.67246 0.77660
 N1151 N 0.77919 0.69591 0.75862
 H1152 H 0.83034 0.68119 0.80346
 N1153 N 0.86809 0.76340 0.22125
 N1154 N 0.90379 0.76929 0.20332
 C1155 C 0.89904 0.79049 0.16166
 C1156 C 0.85886 0.79765 0.15490
 N1157 N 0.84061 0.77984 0.19263
 H1158 H 0.84416 0.81140 0.12379
 N1159 N 0.36333 0.28369 0.72464
 N1160 N 0.39854 0.29119 0.70598
 C1161 C 0.39300 0.29819 0.65806
 C1162 C 0.35330 0.29382 0.64779
 N1163 N 0.33578 0.28462 0.69022
 H1164 H 0.33906 0.29456 0.61243
 N1165 N 0.36034 0.70555 0.77016
 N1166 N 0.39710 0.69749 0.78476
 C1167 C 0.39596 0.69223 0.83335
 C1168 C 0.35727 0.69825 0.84820
 N1169 N 0.33597 0.70664 0.80769
 H1170 H 0.34623 0.69919 0.88507
 N1171 N 0.86595 0.21741 0.26971
 N1172 N 0.90278 0.21367 0.28601
 C1173 C 0.90125 0.19743 0.33101
 C1174 C 0.86175 0.19144 0.34176
 N1175 N 0.84066 0.20466 0.30264
 H1176 H 0.84938 0.18236 0.37626
 N1177 N 0.13911 0.29722 0.26846
 N1178 N 0.10281 0.30482 0.28463
 C1179 C 0.10536 0.30669 0.33348
 C1180 C 0.14414 0.29866 0.34685
 N1181 N 0.16434 0.29307 0.30524
 H1182 H 0.15610 0.29539 0.38327
 N1183 N 0.63561 0.79456 0.76529
 N1184 N 0.59883 0.80185 0.77989
 C1185 C 0.60055 0.80903 0.82804
 C1186 C 0.63962 0.80499 0.84266
 N1187 N 0.66057 0.79583 0.80248
 H1188 H 0.65123 0.80585 0.87939
 N1189 N 0.63498 0.22045 0.72195
 N1190 N 0.59989 0.21114 0.70413
 C1191 C 0.60527 0.20170 0.65700
 C1192 C 0.64488 0.20620 0.64625
 N1193 N 0.66237 0.21814 0.68777
 H1194 H 0.65915 0.20314 0.61126
 N1195 N 0.13981 0.70641 0.22457
 N1196 N 0.10474 0.69847 0.20552
 C1197 C 0.10959 0.69658 0.15695
 C1198 C 0.14851 0.70473 0.14678
 N1199 N 0.16640 0.71080 0.18986
 H1200 H 0.16176 0.70878 0.11137
   
