data_POSCAR
  _audit_creation_date              2014-09-24
  _audit_creation_method            'ToBaCCo'
  _symmetry_space_group_name_H-M    'P1'
  _symmetry_Int_Tables_number       1
  _symmetry_cell_setting            triclinic
  loop_
  _symmetry_equiv_pos_as_xyz
 x,y,z
_cell_length_a 36.2835
_cell_length_b 37.2085
_cell_length_c 37.2449
_cell_angle_alpha 90.260100
_cell_angle_beta 90.136500
_cell_angle_gamma 90.183300
loop_
  _atom_site_label
  _atom_site_type_symbol
  _atom_site_fract_x
  _atom_site_fract_y
  _atom_site_fract_z
N1 N 0.24968 1.23715 0.24852
 N2 N 0.84095 0.81434 0.16109
 N3 N 0.75533 1.22854 -0.24463
 N4 N 0.15150 0.81705 -0.16213
 C5 C 0.55414 1.05136 -0.01794
 H6 H 0.55978 1.05037 0.01057
 C7 C 0.57629 1.07223 -0.04028
 H8 H 0.59914 1.08712 -0.02872
 C9 C 0.51833 1.03182 -0.06766
 H10 H 0.49607 1.01560 -0.07829
 C11 C 0.53985 1.05230 -0.09101
 H12 H 0.53342 1.05217 -0.11941
 N13 N 0.52564 1.03193 -0.03182
 C14 C 0.45237 1.01516 0.05914
 H15 H 0.45092 0.98611 0.05919
 C16 C 0.43141 1.03499 0.08351
 H17 H 0.41430 1.02095 0.10269
 C18 C 0.47617 1.06861 0.03362
 H19 H 0.49286 1.08164 0.01351
 C20 C 0.45566 1.08951 0.05752
 H21 H 0.45690 1.11851 0.05552
 Zn22 Zn 0.49859 1.00313 0.00058
 N23 N 0.47420 1.03213 0.03488
 C24 C 0.53897 0.97387 0.05907
 N25 N 0.53282 0.97229 0.02306
 C26 C 0.55335 0.95079 0.00139
 C27 C 0.58158 0.92988 0.01575
 C28 C 0.56701 0.95343 0.07456
 C29 C 0.43431 0.99599 -0.03950
 C30 C 0.40449 0.97864 -0.05578
 C31 C 0.43125 0.92160 -0.03945
 C32 C 0.46064 0.94010 -0.02344
 N33 N 0.46160 0.97665 -0.02378
 H34 H 0.52301 0.99184 0.07570
 H35 H 0.54821 0.95047 -0.02723
 H36 H 0.59767 0.91301 -0.00201
 H37 H 0.57227 0.95595 0.10309
 H38 H 0.43554 1.02505 -0.03893
 H39 H 0.38314 0.99458 -0.06826
 H40 H 0.43046 0.89254 -0.03820
 H41 H 0.48211 0.92523 -0.01001
 C42 C 0.43265 1.07271 0.08271
 C43 C 0.56930 1.07288 -0.07737
 C44 C 0.40249 0.94094 -0.05560
 C45 C 0.58908 0.93142 0.05274
 C46 C -0.02677 0.50241 1.06511
 H47 H -0.00912 0.48365 1.07892
 C48 C -0.04571 0.52854 1.08481
 H49 H -0.04300 0.52916 1.11376
 C50 C -0.05045 0.52565 1.01063
 H51 H -0.05126 0.52493 0.98159
 C52 C -0.06988 0.55208 1.02920
 H53 H -0.08547 0.57169 1.01415
 N54 N -0.02931 0.50161 1.02867
 C55 C 0.06807 0.44412 1.02676
 H56 H 0.08071 0.46247 1.00805
 C57 C 0.09036 0.42273 1.04849
 H58 H 0.12002 0.42546 1.04673
 C59 C 0.01423 0.41828 1.05177
 H60 H -0.01553 0.41663 1.05266
 C61 C 0.03547 0.39642 1.07405
 H62 H 0.02182 0.37775 1.09188
 Zn63 Zn 0.00025 0.47106 1.00007
 N64 N 0.03073 0.44189 1.02912
 C65 C 0.04954 0.52705 0.98940
 N66 N 0.02902 0.50217 0.97141
 C67 C 0.02645 0.50252 0.93496
 C68 C 0.04469 0.52903 0.91522
 C69 C 0.06826 0.55387 0.97078
 C70 C -0.06687 0.44171 0.97362
 C71 C -0.08866 0.41934 0.95207
 C72 C -0.03320 0.39446 0.92637
 C73 C -0.01246 0.41727 0.94847
 N74 N -0.02950 0.44064 0.97113
 H75 H 0.05037 0.52666 1.01844
 H76 H 0.00929 0.48308 0.92119
 H77 H 0.04195 0.52926 0.88627
 H78 H 0.08335 0.57412 0.98580
 H79 H -0.07993 0.45987 0.99233
 H80 H -0.11837 0.42113 0.95396
 H81 H -0.01913 0.37599 0.90856
 H82 H 0.01733 0.41655 0.94748
 C83 C 0.07411 0.39862 1.07271
 C84 C -0.06724 0.55412 1.06677
 C85 C -0.07187 0.39542 0.92789
 C86 C 0.06555 0.55545 0.93321
 C87 C 1.04373 -0.00555 0.56010
 H88 H 1.04363 0.02352 0.56069
 C89 C 1.06056 -0.02460 0.58781
 H90 H 1.07322 -0.00991 0.60978
 C91 C 1.02539 -0.05984 0.53162
 H92 H 1.01098 -0.07346 0.51009
 C93 C 1.04183 -0.07998 0.55884
 H94 H 1.04052 -0.10903 0.55756
 N95 N 1.02665 -0.02330 0.53273
 C96 C 1.02018 0.05478 0.44615
 H97 H 0.99085 0.05374 0.44094
 C98 C 1.04284 0.07652 0.42518
 H99 H 1.03071 0.09200 0.40366
 C100 C 1.07160 0.03455 0.47971
 H101 H 1.08275 0.01775 0.50064
 C102 C 1.09533 0.05590 0.45930
 H103 H 1.12456 0.05581 0.46523
 Zn104 Zn 1.00154 0.00490 0.49845
 N105 N 1.03474 0.03460 0.47298
 C106 C 0.96937 0.06974 0.52364
 N107 N 0.96713 0.03324 0.52401
 C108 C 0.94214 0.01597 0.54497
 C109 C 0.91811 0.03552 0.56678
 C110 C 0.94589 0.09033 0.54502
 C111 C 0.99996 -0.04475 0.44258
 C112 C 0.98506 -0.06489 0.41439
 C113 C 0.92461 -0.04321 0.43061
 C114 C 0.94071 -0.02348 0.45861
 N115 N 0.97780 -0.02454 0.46394
 H116 H 0.98992 0.08300 0.50744
 H117 H 0.94146 -0.01310 0.54530
 H118 H 0.89905 0.02124 0.58394
 H119 H 0.94812 0.11934 0.54434
 H120 H 1.02942 -0.04469 0.44715
 H121 H 1.00324 -0.08081 0.39773
 H122 H 0.89520 -0.04124 0.42610
 H123 H 0.92369 -0.00657 0.47534
 C124 C 1.08098 0.07729 0.43162
 C125 C 1.05950 -0.06234 0.58756
 C126 C 0.94695 -0.06392 0.40778
 C127 C 0.92007 0.07324 0.56726
 C128 C 0.10952 0.34972 1.15510
 C129 C 0.14210 0.33451 1.14203
 C130 C 0.15226 0.33988 1.10623
 C131 C 0.13007 0.36053 1.08361
 C132 C 0.22715 0.25769 1.22658
 C133 C 0.08726 0.37036 1.13252
 C134 C 0.16521 0.31356 1.16535
 C135 C 0.18468 0.29602 1.18479
 C136 C 0.20757 0.27543 1.20740
 C137 C 0.09735 0.37610 1.09652
 H138 H 0.10144 0.34581 1.18279
 H139 H 0.17735 0.32813 1.09579
 H140 H 0.13833 0.36404 1.05593
 H141 H 0.06251 0.38236 1.14339
 C142 C -0.13370 0.62863 1.09161
 C143 C -0.11342 0.64734 1.11771
 C144 C -0.07938 0.63396 1.12917
 C145 C -0.06506 0.60268 1.11371
 C146 C -0.15181 0.77829 1.15472
 C147 C -0.11943 0.59737 1.07610
 C148 C -0.12578 0.68192 1.13017
 C149 C -0.13507 0.71168 1.13922
 C150 C -0.14469 0.74730 1.14827
 C151 C -0.08457 0.58448 1.08642
 H152 H -0.16002 0.63882 1.08245
 H153 H -0.06329 0.64839 1.14912
 H154 H -0.03795 0.59376 1.12189
 H155 H -0.13529 0.58371 1.05546
 C156 C -0.14861 0.33378 0.89513
 C157 C -0.13857 0.32827 0.85928
 C158 C -0.10648 0.34429 0.84594
 C159 C -0.08461 0.36591 0.86830
 C160 C -0.22319 0.24851 0.77580
 C161 C -0.12682 0.35540 0.91752
 C162 C -0.16139 0.30643 0.83617
 C163 C -0.18071 0.28820 0.81697
 C164 C -0.20354 0.26685 0.79467
 C165 C -0.09461 0.37182 0.90433
 H166 H -0.17333 0.32142 0.90577
 H167 H -0.09849 0.34028 0.81820
 H168 H -0.06026 0.37852 0.85722
 H169 H -0.13499 0.35901 0.94524
 C170 C 0.13009 0.63169 0.90821
 C171 C 0.10934 0.64949 0.88209
 C172 C 0.07563 0.63497 0.87069
 C173 C 0.06211 0.60345 0.88622
 C174 C 0.14490 0.78095 0.84447
 C175 C 0.11662 0.60017 0.92379
 C176 C 0.12087 0.68426 0.86951
 C177 C 0.12949 0.71415 0.86033
 C178 C 0.13837 0.74988 0.85111
 C179 C 0.08209 0.58612 0.91352
 H180 H 0.15616 0.64275 0.91733
 H181 H 0.05918 0.64870 0.85072
 H182 H 0.03524 0.59362 0.87806
 H183 H 0.13282 0.58721 0.94444
 C184 C 1.11695 0.15490 0.37583
 C185 C 1.15069 0.14131 0.36387
 C186 C 1.16215 0.10717 0.37479
 C187 C 1.13977 0.08651 0.39727
 C188 C 1.22969 0.21717 0.27314
 C189 C 1.09453 0.13430 0.39827
 C190 C 1.17301 0.16206 0.33964
 C191 C 1.19125 0.17944 0.31898
 C192 C 1.21215 0.19980 0.29441
 C193 C 1.10555 0.09975 0.40904
 H194 H 1.10784 0.18132 0.36760
 H195 H 1.18816 0.09633 0.36557
 H196 H 1.14882 0.05986 0.40473
 H197 H 1.06858 0.14543 0.40727
 C198 C 1.06966 -0.13054 0.66235
 C199 C 1.10230 -0.11894 0.67885
 C200 C 1.12189 -0.08991 0.66453
 C201 C 1.10850 -0.07204 0.63427
 C202 C 1.14254 -0.17195 0.80342
 C203 C 1.05622 -0.11273 0.63207
 C204 C 1.11441 -0.13525 0.71177
 C205 C 1.12390 -0.14791 0.74004
 C206 C 1.13428 -0.16149 0.77388
 C207 C 1.07524 -0.08295 0.61798
 H208 H 1.05413 -0.15280 0.67338
 H209 H 1.14715 -0.08065 0.67714
 H210 H 1.12398 -0.04950 0.62379
 H211 H 1.03031 -0.12148 0.62045
 C212 C 0.88162 -0.11789 0.34828
 C213 C 0.90065 -0.11769 0.31562
 C214 C 0.93479 -0.10034 0.31325
 C215 C 0.94987 -0.08311 0.34326
 C216 C 0.85113 -0.17348 0.19494
 C217 C 0.89669 -0.10062 0.37844
 C218 C 0.88518 -0.13448 0.28411
 C219 C 0.87334 -0.14770 0.25680
 C220 C 0.86079 -0.16212 0.22385
 C221 C 0.93100 -0.08301 0.37623
 H222 H 0.85514 -0.13123 0.35041
 H223 H 0.94964 -0.09982 0.28804
 H224 H 0.97598 -0.06926 0.34045
 H225 H 0.88166 -0.10127 0.40351
 C226 C 0.88894 0.14413 0.63408
 C227 C 0.85220 0.13421 0.63969
 C228 C 0.83738 0.10459 0.62131
 C229 C 0.85931 0.08485 0.59753
 C230 C 0.77396 0.20920 0.73209
 C231 C 0.91088 0.12449 0.61033
 C232 C 0.82997 0.15428 0.66463
 C233 C 0.81189 0.17135 0.68575
 C234 C 0.79124 0.19163 0.71066
 C235 C 0.89635 0.09456 0.59181
 H236 H 0.90073 0.16692 0.64827
 H237 H 0.80894 0.09670 0.62542
 H238 H 0.84723 0.06219 0.58341
 H239 H 0.93943 0.13231 0.60699
 C240 C 0.39983 1.14724 0.14483
 C241 C 0.36350 1.13647 0.15147
 C242 C 0.35000 1.10461 0.13621
 C243 C 0.37260 1.08370 0.11418
 C244 C 0.27409 1.21622 0.22894
 C245 C 0.42251 1.12636 0.12277
 C246 C 0.33973 1.15839 0.17329
 C247 C 0.31939 1.17668 0.19118
 C248 C 0.29515 1.19802 0.21172
 C249 C 0.40909 1.09440 0.10708
 H250 H 0.41057 1.17185 0.15654
 H251 H 0.32186 1.09611 0.14104
 H252 H 0.36125 1.05956 0.10208
 H253 H 0.45058 1.13511 0.11813
 C254 C 0.62881 1.14856 -0.11345
 C255 C 0.63984 1.13444 -0.14659
 C256 C 0.62727 1.10050 -0.15748
 C257 C 0.60398 1.08060 -0.13518
 C258 C 0.73195 1.20927 -0.22584
 C259 C 0.60557 1.12872 -0.09111
 C260 C 0.66460 1.15458 -0.16903
 C261 C 0.68562 1.17161 -0.18737
 C262 C 0.71049 1.19178 -0.20834
 C263 C 0.59304 1.09442 -0.10163
 H264 H 0.63831 1.17485 -0.10479
 H265 H 0.63575 1.08926 -0.18303
 H266 H 0.59519 1.05411 -0.14384
 H267 H 0.59725 1.14029 -0.06567
 C268 C 0.34300 0.87254 -0.10522
 C269 C 0.30777 0.88680 -0.09989
 C270 C 0.30354 0.91855 -0.08011
 C271 C 0.33433 0.93608 -0.06576
 C272 C 0.18558 0.82931 -0.15027
 C273 C 0.37393 0.89006 -0.09083
 C274 C 0.27570 0.86920 -0.11458
 C275 C 0.24802 0.85553 -0.12637
 C276 C 0.21472 0.84079 -0.13954
 C277 C 0.36991 0.92211 -0.07102
 H278 H 0.34658 0.84799 -0.12055
 H279 H 0.27638 0.92975 -0.07570
 H280 H 0.33023 0.96034 -0.05012
 H281 H 0.40098 0.87882 -0.09559
 C282 C 0.64952 0.87856 0.11705
 C283 C 0.68283 0.87761 0.09820
 C284 C 0.68518 0.89332 0.06424
 C285 C 0.65454 0.91030 0.04929
 C286 C 0.80636 0.82553 0.14993
 C287 C 0.61875 0.89556 0.10212
 C288 C 0.71516 0.86172 0.11389
 C289 C 0.74312 0.84936 0.12617
 C290 C 0.77681 0.83600 0.13950
 C291 C 0.62100 0.91181 0.06812
 H292 H 0.64741 0.86649 0.14339
 H293 H 0.71089 0.89294 0.04951
 H294 H 0.65742 0.92307 0.02338
 H295 H 0.59324 0.89597 0.11712
   
