data_POSCAR
  _audit_creation_date              2014-09-24
  _audit_creation_method            'ToBaCCo'
  _symmetry_space_group_name_H-M    'P1'
  _symmetry_Int_Tables_number       1
  _symmetry_cell_setting            triclinic
  loop_
  _symmetry_equiv_pos_as_xyz
 x,y,z
_cell_length_a 32.7455
_cell_length_b 32.6076
_cell_length_c 33.0119
_cell_angle_alpha 89.978300
_cell_angle_beta 89.935500
_cell_angle_gamma 90.023900
loop_
  _atom_site_label
  _atom_site_type_symbol
  _atom_site_fract_x
  _atom_site_fract_y
  _atom_site_fract_z
N1 N 0.35619 0.36091 1.34803
 N2 N 1.14385 0.64759 0.85684
 N3 N 0.64336 -0.14846 0.14321
 N4 N -0.14489 1.13956 -0.35002
 N5 N 0.64210 0.64458 0.63902
 N6 N 0.85547 0.36117 0.15080
 N7 N 0.35569 0.13793 0.84964
 N8 N 0.14164 0.85544 0.36151
 Zn9 Zn -0.02352 1.01210 0.05652
 Zn10 Zn 0.05034 0.97988 0.01536
 Zn11 Zn -0.03131 0.97036 -0.02435
 Zn12 Zn 0.00797 1.05332 -0.01719
 O13 O 0.00074 1.00381 0.00748
 O14 O 0.00584 0.99286 0.09817
 O15 O 0.05407 0.93138 -0.00884
 O16 O -0.07787 0.95525 0.00101
 O17 O 0.06123 0.96984 0.06745
 O18 O -0.07178 0.98730 0.05981
 O19 O -0.00569 0.92357 -0.03900
 O20 O -0.01951 1.05681 -0.06351
 O21 O 0.09187 1.00945 -0.00448
 O22 O -0.04697 0.99513 -0.07070
 O23 O 0.06017 1.06346 -0.02984
 O24 O -0.00906 1.09583 0.01270
 O25 O -0.03309 1.06500 0.06731
 C26 C 0.04057 0.97565 0.09947
 C27 C 0.02987 0.91048 -0.03056
 C28 C -0.09178 0.96448 0.03584
 C29 C -0.04092 1.03144 -0.08342
 C30 C 0.09269 1.04333 -0.02341
 C31 C -0.02604 1.09743 0.04723
 Zn32 Zn 0.47648 0.01219 0.44486
 Zn33 Zn 0.46862 -0.02930 0.52559
 Zn34 Zn 0.55050 -0.01929 0.48666
 Zn35 Zn 0.50731 0.05394 0.51874
 O36 O 0.50063 0.00432 0.49404
 O37 O 0.42793 -0.01248 0.44156
 O38 O 0.49411 -0.07597 0.54021
 O39 O 0.56119 -0.03084 0.43473
 O40 O 0.42227 -0.04439 0.50047
 O41 O 0.50606 -0.00772 0.40359
 O42 O 0.55509 -0.06683 0.51268
 O43 O 0.55946 0.06462 0.53142
 O44 O 0.45287 -0.00483 0.57192
 O45 O 0.59171 0.01122 0.50546
 O46 O 0.47965 0.05722 0.56516
 O47 O 0.49014 0.09620 0.48854
 O48 O 0.46721 0.06510 0.43365
 C49 C 0.40811 -0.03526 0.46580
 C50 C 0.53041 -0.08799 0.53365
 C51 C 0.54057 -0.02541 0.40263
 C52 C 0.59220 0.04497 0.52456
 C53 C 0.45855 0.03140 0.58494
 C54 C 0.47378 0.09762 0.45373
 Zn55 Zn 0.97755 0.48771 0.55474
 Zn56 Zn 1.00868 0.44643 0.48081
 Zn57 Zn 0.96908 0.52917 0.47394
 Zn58 Zn 1.05102 0.52026 0.51316
 O59 O 1.00148 0.49598 0.50555
 O60 O 0.96783 0.43489 0.56537
 O61 O 0.98151 0.44304 0.43413
 O62 O 0.92224 0.54345 0.49915
 O63 O 0.99122 0.40389 0.51059
 O64 O 0.92917 0.51219 0.55824
 O65 O 0.95393 0.50468 0.42744
 O66 O 1.05429 0.56892 0.48901
 O67 O 1.06096 0.43636 0.46847
 O68 O 0.99406 0.57635 0.45970
 O69 O 1.09259 0.49077 0.49321
 O70 O 1.06205 0.53056 0.56523
 O71 O 1.00703 0.50704 0.59629
 C72 C 0.97426 0.40245 0.54514
 C73 C 0.96019 0.46859 0.41434
 C74 C 0.90864 0.53435 0.53412
 C75 C 1.02956 0.58978 0.46785
 C76 C 1.09344 0.45669 0.47462
 C77 C 1.04157 0.52467 0.59736
 Zn78 Zn 0.47707 0.48691 0.94322
 Zn79 Zn 0.55083 0.51914 0.98444
 Zn80 Zn 0.46899 0.52888 1.02385
 Zn81 Zn 0.50809 0.44587 1.01730
 O82 O 0.50113 0.49529 0.99231
 O83 O 0.50662 0.50614 0.90159
 O84 O 0.55458 0.56767 1.00860
 O85 O 0.42255 0.54392 0.99841
 O86 O 0.56192 0.52921 0.93234
 O87 O 0.42876 0.51167 0.93973
 O88 O 0.49458 0.57566 1.03837
 O89 O 0.48047 0.44261 1.06374
 O90 O 0.59221 0.48952 1.00442
 O91 O 0.45322 0.50442 1.07028
 O92 O 0.56026 0.43570 1.03002
 O93 O 0.49108 0.40330 0.98749
 O94 O 0.46757 0.43396 0.93261
 C95 C 0.54132 0.52344 0.90031
 C96 C 0.53024 0.58866 1.03012
 C97 C 0.40873 0.53460 0.96361
 C98 C 0.45914 0.46827 1.08341
 C99 C 0.59287 0.45574 1.02352
 C100 C 0.47439 0.40160 0.95286
 C101 C 1.24578 0.39989 0.40519
 C102 C 1.25510 0.35794 0.40191
 C103 C 1.29117 0.34516 0.38314
 C104 C 1.31891 0.37403 0.36753
 C105 C 1.30957 0.41593 0.37063
 C106 C 1.27344 0.42875 0.38929
 C107 C 1.20706 0.41350 0.42448
 C108 C 1.20612 0.44860 0.44919
 C109 C 1.16940 0.46219 0.46614
 C110 C 1.13279 0.44092 0.45884
 C111 C 1.13387 0.40539 0.43477
 C112 C 1.17055 0.39188 0.41774
 H113 H 1.29732 0.31265 0.38059
 H114 H 1.33041 0.43874 0.35872
 H115 H 1.16966 0.48959 0.48465
 H116 H 1.10619 0.38840 0.42836
 H117 H 1.26686 0.46125 0.39071
 H118 H 1.23383 0.46555 0.45551
 H119 H 1.23464 0.33495 0.41412
 H120 H 1.17011 0.36505 0.39843
 C121 C 0.25492 0.59961 0.90515
 C122 C 0.24962 0.60405 0.86309
 C123 C 0.21322 0.61954 0.84737
 C124 C 0.18131 0.63126 0.87329
 C125 C 0.18659 0.62739 0.91533
 C126 C 0.22301 0.61163 0.93114
 C127 C 0.29354 0.58218 0.92148
 C128 C 0.31138 0.59773 0.95708
 C129 C 0.34852 0.58199 0.97129
 C130 C 0.36864 0.55056 0.95005
 C131 C 0.35040 0.53463 0.91489
 C132 C 0.31330 0.55009 0.90092
 H133 H 0.21011 0.62289 0.81489
 H134 H 0.16228 0.63617 0.93582
 H135 H 0.36184 0.59493 0.99845
 H136 H 0.36480 0.51008 0.89804
 H137 H 0.22590 0.60822 0.96363
 H138 H 0.29715 0.62269 0.97344
 H139 H 0.27386 0.59600 0.84223
 H140 H 0.29999 0.53672 0.87397
 C141 C -0.24568 0.89964 0.09451
 C142 C -0.27758 0.88751 0.06863
 C143 C -0.31399 0.87176 0.08457
 C144 C -0.31924 0.86800 0.12664
 C145 C -0.28734 0.87985 0.15245
 C146 C -0.25096 0.89533 0.13660
 C147 C -0.20708 0.91705 0.07805
 C148 C -0.18741 0.94928 0.09844
 C149 C -0.15028 0.96469 0.08441
 C150 C -0.13193 0.94858 0.04936
 C151 C -0.15198 0.91704 0.02824
 C152 C -0.18915 0.90134 0.04252
 H153 H -0.33829 0.86289 0.06416
 H154 H -0.29044 0.87656 0.18495
 H155 H -0.13594 0.98935 0.10115
 H156 H -0.13857 0.90397 0.00117
 H157 H -0.22672 0.90347 0.15737
 H158 H -0.20079 0.96277 0.12532
 H159 H -0.27469 0.89083 0.03612
 H160 H -0.20334 0.87627 0.02629
 C161 C 0.74444 0.10011 0.59467
 C162 C 0.78051 0.10353 0.57179
 C163 C 0.81689 0.11597 0.59014
 C164 C 0.81800 0.12469 0.63173
 C165 C 0.78210 0.12114 0.65470
 C166 C 0.74562 0.10898 0.63634
 C167 C 0.70571 0.08726 0.57520
 C168 C 0.66890 0.10729 0.58450
 C169 C 0.63219 0.09434 0.56714
 C170 C 0.63147 0.06085 0.54033
 C171 C 0.66844 0.04129 0.53050
 C172 C 0.70517 0.05445 0.54764
 H173 H 0.84427 0.11898 0.57195
 H174 H 0.78229 0.12839 0.68670
 H175 H 0.60426 0.11005 0.57537
 H176 H 0.66894 0.01537 0.51000
 H177 H 0.71837 0.10625 0.65476
 H178 H 0.66852 0.13302 0.60523
 H179 H 0.78038 0.09731 0.53957
 H180 H 0.73305 0.03827 0.54015
 C181 C 0.41656 0.25340 0.39132
 C182 C 0.41446 0.26168 0.34957
 C183 C 0.39565 0.29736 0.33543
 C184 C 0.37855 0.32567 0.36270
 C185 C 0.38214 0.31825 0.40448
 C186 C 0.40075 0.28245 0.41864
 C187 C 0.43338 0.21382 0.40622
 C188 C 0.45644 0.21206 0.44208
 C189 C 0.47016 0.17444 0.45718
 C190 C 0.46124 0.13772 0.43669
 C191 C 0.43895 0.13957 0.40039
 C192 C 0.42510 0.17714 0.38540
 H193 H 0.39345 0.30224 0.30307
 H194 H 0.36969 0.33982 0.42614
 H195 H 0.48746 0.17410 0.48512
 H196 H 0.43140 0.11187 0.38393
 H197 H 0.40154 0.27692 0.45096
 H198 H 0.46385 0.23979 0.45854
 H199 H 0.42699 0.24033 0.32775
 H200 H 0.40687 0.17727 0.35806
 C201 C 0.90945 0.24860 0.60388
 C202 C 0.86785 0.24769 0.61435
 C203 C 0.84994 0.21163 0.62857
 C204 C 0.87332 0.17590 0.63293
 C205 C 0.91471 0.17641 0.62187
 C206 C 0.93263 0.21248 0.60725
 C207 C 0.92838 0.28745 0.59008
 C208 C 0.95389 0.28836 0.55586
 C209 C 0.96957 0.32561 0.54163
 C210 C 0.96036 0.36257 0.56162
 C211 C 0.93590 0.36133 0.59661
 C212 C 0.91997 0.32422 0.61057
 H213 H 0.81799 0.21172 0.63705
 H214 H 0.93306 0.14899 0.62506
 H215 H 0.98837 0.32554 0.51461
 H216 H 0.92825 0.38918 0.61278
 H217 H 0.96478 0.21244 0.59951
 H218 H 0.96069 0.26043 0.53944
 H219 H 0.84916 0.27493 0.61150
 H220 H 0.90086 0.32427 0.63738
 C221 C 0.09223 0.75754 -0.09508
 C222 C 0.06691 0.72490 -0.10713
 C223 C 0.08383 0.68886 -0.12289
 C224 C 0.12635 0.68465 -0.12670
 C225 C 0.15161 0.71732 -0.11499
 C226 C 0.13477 0.75336 -0.09950
 C227 C 0.07471 0.79576 -0.07764
 C228 C 0.09489 0.81591 -0.04583
 C229 C 0.07992 0.85276 -0.03044
 C230 C 0.04411 0.87036 -0.04616
 C231 C 0.02314 0.84977 -0.07722
 C232 C 0.03837 0.81287 -0.09290
 H233 H 0.06380 0.66399 -0.13169
 H234 H 0.18443 0.71510 -0.11837
 H235 H 0.09657 0.86754 -0.00615
 H236 H -0.00449 0.86261 -0.08999
 H237 H 0.15513 0.77821 -0.09143
 H238 H 0.12237 0.80313 -0.03267
 H239 H 0.03408 0.72693 -0.10375
 H240 H 0.02225 0.79829 -0.11763
 C241 C 0.59213 0.74157 1.09493
 C242 C 0.56671 0.77418 1.10685
 C243 C 0.58350 0.81022 1.12272
 C244 C 0.62598 0.81445 1.12676
 C245 C 0.65134 0.78181 1.11520
 C246 C 0.63463 0.74576 1.09961
 C247 C 0.57476 0.70336 1.07739
 C248 C 0.59519 0.68324 1.04567
 C249 C 0.58033 0.64637 1.03021
 C250 C 0.54439 0.62877 1.04575
 C251 C 0.52320 0.64934 1.07670
 C252 C 0.53831 0.68624 1.09246
 H253 H 0.56342 0.83509 1.13140
 H254 H 0.68413 0.78406 1.11875
 H255 H 0.59715 0.63159 1.00602
 H256 H 0.49547 0.63649 1.08933
 H257 H 0.65505 0.72093 1.09165
 H258 H 0.62276 0.69603 1.03267
 H259 H 0.53391 0.77213 1.10327
 H260 H 0.52201 0.70080 1.11711
 C261 C 0.39459 0.41426 1.23695
 C262 C 0.35640 0.39493 1.23983
 C263 C 0.34327 0.37853 1.27672
 C264 C 0.36857 0.38039 1.31090
 C265 C 0.40663 0.39991 1.30817
 C266 C 0.41938 0.41721 1.27149
 C267 C 0.40964 0.42889 1.19738
 C268 C 0.41995 0.47025 1.19146
 C269 C 0.43501 0.48351 1.15394
 C270 C 0.44103 0.45531 1.12232
 C271 C 0.43071 0.41395 1.12847
 C272 C 0.41469 0.40097 1.16551
 H273 H 0.31393 0.36330 1.27846
 H274 H 0.42640 0.40142 1.33439
 H275 H 0.44294 0.51551 1.14997
 H276 H 0.43492 0.39164 1.10452
 H277 H 0.44910 0.43171 1.26968
 H278 H 0.41621 0.49219 1.21581
 H279 H 0.33696 0.39227 1.21343
 H280 H 0.40706 0.36890 1.16963
 C281 C 0.59744 -0.09422 0.25137
 C282 C 0.60589 -0.06982 0.21729
 C283 C 0.62040 -0.08772 0.18159
 C284 C 0.62609 -0.13032 0.17918
 C285 C 0.61673 -0.15480 0.21290
 C286 C 0.60276 -0.13690 0.24876
 C287 C 0.58380 -0.07527 0.28983
 C288 C 0.60198 -0.08674 0.32663
 C289 C 0.58867 -0.06966 0.36311
 C290 C 0.55651 -0.04112 0.36363
 C291 C 0.53862 -0.02930 0.32672
 C292 C 0.55236 -0.04599 0.29013
 H293 H 0.62753 -0.06840 0.15585
 H294 H 0.62125 -0.18767 0.21172
 H295 H 0.60301 -0.07949 0.39102
 H296 H 0.51380 -0.00736 0.32614
 H297 H 0.59609 -0.15638 0.27451
 H298 H 0.62659 -0.10891 0.32712
 H299 H 0.60223 -0.03685 0.21864
 H300 H 0.53777 -0.03678 0.26215
 C301 C -0.10214 1.08998 -0.23743
 C302 C -0.09158 1.12999 -0.24947
 C303 C -0.10552 1.14610 -0.28606
 C304 C -0.12967 1.12239 -0.31239
 C305 C -0.13917 1.08187 -0.30099
 C306 C -0.12594 1.06601 -0.26384
 C307 C -0.08854 1.07387 -0.19735
 C308 C -0.07891 1.03210 -0.19186
 C309 C -0.06465 1.01779 -0.15442
 C310 C -0.05895 1.04511 -0.12207
 C311 C -0.06923 1.08652 -0.12723
 C312 C -0.08434 1.10061 -0.16416
 H313 H -0.09760 1.17745 -0.29340
 H314 H -0.15721 1.06247 -0.32065
 H315 H -0.05673 0.98571 -0.15118
 H316 H -0.06570 1.10810 -0.10254
 H317 H -0.13502 1.03520 -0.25559
 H318 H -0.08129 1.01062 -0.21672
 H319 H -0.07237 1.14911 -0.23066
 H320 H -0.09269 1.13262 -0.16658
 C321 C 1.09820 0.59302 0.74879
 C322 C 1.10657 0.56872 0.78293
 C323 C 1.12097 0.58672 0.81860
 C324 C 1.12662 0.62934 0.82093
 C325 C 1.11731 0.65373 0.78715
 C326 C 1.10345 0.63572 0.75133
 C327 C 1.08475 0.57398 0.71032
 C328 C 1.10307 0.58548 0.67356
 C329 C 1.08984 0.56848 0.63704
 C330 C 1.05762 0.53998 0.63644
 C331 C 1.03964 0.52805 0.67332
 C332 C 1.05331 0.54467 0.70996
 H333 H 1.12806 0.56747 0.84438
 H334 H 1.12180 0.68661 0.78826
 H335 H 1.10424 0.57841 0.60916
 H336 H 1.01477 0.50616 0.67384
 H337 H 1.09685 0.65514 0.72554
 H338 H 1.12770 0.60766 0.67311
 H339 H 1.10296 0.53573 0.78164
 H340 H 1.03862 0.53543 0.73792
 C341 C 0.75305 0.59604 0.59132
 C342 C 0.74944 0.60570 0.63268
 C343 C 0.71296 0.62119 0.64820
 C344 C 0.67932 0.62762 0.62274
 C345 C 0.68266 0.61802 0.58142
 C346 C 0.71927 0.60243 0.56579
 C347 C 0.79202 0.57922 0.57534
 C348 C 0.80791 0.59220 0.53785
 C349 C 0.84565 0.57747 0.52406
 C350 C 0.86818 0.54952 0.54754
 C351 C 0.85181 0.53606 0.58462
 C352 C 0.81422 0.55063 0.59827
 H353 H 0.71111 0.62883 0.68007
 H354 H 0.65688 0.62263 0.56142
 H355 H 0.85741 0.58838 0.49534
 H356 H 0.86809 0.51421 0.60331
 H357 H 0.72099 0.59487 0.53390
 H358 H 0.79165 0.61446 0.51965
 H359 H 0.77508 0.60186 0.65301
 H360 H 0.80247 0.53938 0.62687
 C361 C 0.74493 0.39951 1.09369
 C362 C 0.75426 0.35760 1.09740
 C363 C 0.79036 0.34503 1.11618
 C364 C 0.81810 0.37407 1.13141
 C365 C 0.80871 0.41593 1.12794
 C366 C 0.77256 0.42854 1.10925
 C367 C 0.70627 0.41292 1.07424
 C368 C 0.70545 0.44769 1.04906
 C369 C 0.66880 0.46112 1.03192
 C370 C 0.63213 0.44003 1.03949
 C371 C 0.63308 0.40479 1.06402
 C372 C 0.66970 0.39144 1.08123
 H373 H 0.79655 0.31255 1.11902
 H374 H 0.82955 0.43887 1.13955
 H375 H 0.66917 0.48829 1.01305
 H376 H 0.60535 0.38794 1.07063
 H377 H 0.76596 0.46102 1.10750
 H378 H 0.73320 0.46452 1.04253
 H379 H 0.73381 0.33449 1.08547
 H380 H 0.66917 0.36484 1.10088
 C381 C 0.24515 1.09962 -0.09299
 C382 C 0.25458 1.14153 -0.09658
 C383 C 0.29071 1.15409 -0.11540
 C384 C 0.31837 1.12505 -0.13076
 C385 C 0.30891 1.08319 -0.12736
 C386 C 0.27272 1.07059 -0.10864
 C387 C 0.20639 1.08622 -0.07363
 C388 C 0.20540 1.05136 -0.04858
 C389 C 0.16864 1.03790 -0.03161
 C390 C 0.13205 1.05905 -0.03922
 C391 C 0.13317 1.09437 -0.06361
 C392 C 0.16990 1.10776 -0.08067
 H393 H 0.29697 1.18657 -0.11820
 H394 H 0.32968 1.06025 -0.13908
 H395 H 0.16887 1.01066 -0.01283
 H396 H 0.10551 1.11127 -0.07024
 H397 H 0.26604 1.03811 -0.10698
 H398 H 0.23309 1.03449 -0.04204
 H399 H 0.23417 1.16464 -0.08457
 H400 H 0.16952 1.13442 -0.10023
 C401 C 0.25131 -0.09795 0.41384
 C402 C 0.24465 -0.14044 0.41145
 C403 C 0.20836 -0.15578 0.39507
 C404 C 0.17789 -0.12890 0.38115
 C405 C 0.18403 -0.08644 0.38484
 C406 C 0.22043 -0.07111 0.40084
 C407 C 0.29106 -0.08160 0.42796
 C408 C 0.31051 -0.05014 0.40621
 C409 C 0.34847 -0.03525 0.41854
 C410 C 0.36774 -0.05123 0.45315
 C411 C 0.34813 -0.08248 0.47518
 C412 C 0.31026 -0.09771 0.46254
 H413 H 0.20453 -0.18862 0.39218
 H414 H 0.16082 -0.06516 0.37469
 H415 H 0.36270 -0.01112 0.40093
 H416 H 0.36222 -0.09542 0.50195
 H417 H 0.22457 -0.03822 0.40283
 H418 H 0.29665 -0.03753 0.37916
 H419 H 0.26811 -0.16179 0.42089
 H420 H 0.29579 -0.12184 0.47995
 C421 C 0.59151 -0.24322 0.59355
 C422 C 0.63207 -0.25436 0.58470
 C423 C 0.64853 -0.29088 0.59943
 C424 C 0.62464 -0.31808 0.62255
 C425 C 0.58363 -0.30765 0.63024
 C426 C 0.56743 -0.27055 0.61633
 C427 C 0.57493 -0.20303 0.57953
 C428 C 0.53340 -0.19841 0.56927
 C429 C 0.51844 -0.16068 0.55544
 C430 C 0.54488 -0.12716 0.55071
 C431 C 0.58612 -0.13152 0.56127
 C432 C 0.60083 -0.16875 0.57603
 H433 H 0.68028 -0.29742 0.59305
 H434 H 0.56413 -0.32798 0.64752
 H435 H 0.48653 -0.15807 0.54722
 H436 H 0.60701 -0.10590 0.55843
 H437 H 0.53624 -0.26302 0.62422
 H438 H 0.51255 -0.22411 0.57099
 H439 H 0.65138 -0.23484 0.56634
 H440 H 0.63260 -0.17045 0.58484
 C441 C 1.08602 0.74649 0.40748
 C442 C 1.08910 0.75297 0.36554
 C443 C 1.10689 0.78884 0.35045
 C444 C 1.12157 0.81915 0.37701
 C445 C 1.11743 0.81311 0.41895
 C446 C 1.10002 0.77709 0.43403
 C447 C 1.07033 0.70705 0.42354
 C448 C 1.09151 0.68682 0.45460
 C449 C 1.07805 0.64890 0.46892
 C450 C 1.04284 0.63042 0.45278
 C451 C 1.02121 0.65091 0.42209
 C452 C 1.03502 0.68877 0.40739
 H453 H 1.11009 0.79250 0.31801
 H454 H 1.12806 0.83620 0.44001
 H455 H 1.09536 0.63401 0.49268
 H456 H 0.99400 0.63743 0.40906
 H457 H 1.09760 0.77305 0.46651
 H458 H 1.11908 0.69994 0.46725
 H459 H 1.07901 0.72966 0.34443
 H460 H 1.01803 0.70388 0.38355
 C461 C -0.08400 1.25344 0.10830
 C462 C -0.09988 1.28221 0.08075
 C463 C -0.11862 1.31806 0.09465
 C464 C -0.12221 1.32580 0.13636
 C465 C -0.10507 1.29774 0.16385
 C466 C -0.08616 1.26201 0.14998
 C467 C -0.06702 1.21382 0.09371
 C468 C -0.07532 1.17726 0.11478
 C469 C -0.06128 1.13965 0.10013
 C470 C -0.03875 1.13762 0.06393
 C471 C -0.02981 1.17421 0.04319
 C472 C -0.04375 1.21190 0.05795
 H473 H -0.13110 1.33944 0.07284
 H474 H -0.10729 1.30287 0.19617
 H475 H -0.06885 1.11204 0.11678
 H476 H -0.01235 1.17373 0.01532
 H477 H -0.07359 1.24086 0.17195
 H478 H -0.09370 1.17754 0.14206
 H479 H -0.09904 1.27643 0.04847
 H480 H -0.03634 1.23954 0.04131
 C481 C 0.41658 0.24549 0.89200
 C482 C 0.40065 0.21673 0.91958
 C483 C 0.38183 0.18092 0.90573
 C484 C 0.37818 0.17320 0.86402
 C485 C 0.39541 0.20122 0.83650
 C486 C 0.41442 0.23691 0.85032
 C487 C 0.43355 0.28513 0.90653
 C488 C 0.42530 0.32165 0.88541
 C489 C 0.43930 0.35929 0.90002
 C490 C 0.46174 0.36138 0.93622
 C491 C 0.47064 0.32483 0.95701
 C492 C 0.45675 0.28711 0.94229
 H493 H 0.36930 0.15956 0.92757
 H494 H 0.39317 0.19612 0.80418
 H495 H 0.43176 0.38687 0.88334
 H496 H 0.48803 0.32536 0.98488
 H497 H 0.42704 0.25804 0.82832
 H498 H 0.40696 0.32133 0.85815
 H499 H 0.40150 0.22251 0.95185
 H500 H 0.46412 0.25949 0.95896
 C501 C 0.59895 0.59073 0.74853
 C502 C 0.60293 0.56696 0.71324
 C503 C 0.61670 0.58479 0.67721
 C504 C 0.62609 0.62674 0.67570
 C505 C 0.62180 0.65061 0.71078
 C506 C 0.60842 0.63276 0.74691
 C507 C 0.58526 0.57182 0.78706
 C508 C 0.60535 0.58107 0.82349
 C509 C 0.59176 0.56440 0.86007
 C510 C 0.55750 0.53841 0.86109
 C511 C 0.53780 0.52862 0.82452
 C512 C 0.55169 0.54500 0.78784
 H513 H 0.62022 0.56594 0.65043
 H514 H 0.62945 0.68291 0.71023
 H515 H 0.60761 0.57260 0.88769
 H516 H 0.51133 0.50870 0.82429
 H517 H 0.60529 0.65184 0.77357
 H518 H 0.63164 0.60124 0.82365
 H519 H 0.59618 0.53445 0.71377
 H520 H 0.53553 0.53756 0.76019
 C521 C 0.39384 0.08464 0.73856
 C522 C 0.35565 0.10392 0.74149
 C523 C 0.34255 0.12021 0.77841
 C524 C 0.36789 0.11828 0.81257
 C525 C 0.40591 0.09875 0.80979
 C526 C 0.41864 0.08156 0.77308
 C527 C 0.40891 0.07022 0.69896
 C528 C 0.41939 0.02893 0.69295
 C529 C 0.43452 0.01587 0.65542
 C530 C 0.44044 0.04421 0.62387
 C531 C 0.42996 0.08550 0.63009
 C532 C 0.41388 0.09828 0.66716
 H533 H 0.31324 0.13547 0.78019
 H534 H 0.42572 0.09721 0.83599
 H535 H 0.44258 -0.01608 0.65139
 H536 H 0.43409 0.10790 0.60619
 H537 H 0.44835 0.06709 0.77123
 H538 H 0.41573 0.00690 0.71725
 H539 H 0.33621 0.10666 0.71510
 H540 H 0.40612 0.13030 0.67136
 C541 C 0.09982 0.91097 0.25191
 C542 C 0.07180 0.89778 0.28153
 C543 C 0.08548 0.87987 0.31753
 C544 C 0.12742 0.87452 0.32458
 C545 C 0.15542 0.88781 0.29509
 C546 C 0.14181 0.90600 0.25930
 C547 C 0.08538 0.92895 0.21309
 C548 C 0.10551 0.91975 0.17656
 C549 C 0.09149 0.93571 0.13988
 C550 C 0.05678 0.96100 0.13874
 C551 C 0.03685 0.97060 0.17525
 C552 C 0.05107 0.95486 0.21203
 H553 H 0.06334 0.87003 0.33991
 H554 H 0.18791 0.88382 0.29969
 H555 H 0.10737 0.92744 0.11227
 H556 H 0.01011 0.99013 0.17540
 H557 H 0.16425 0.91634 0.23746
 H558 H 0.13159 0.89936 0.17613
 H559 H 0.03924 0.90060 0.27661
 H560 H 0.03525 0.96310 0.23966
 C561 C 0.89490 0.41484 0.26120
 C562 C 0.91943 0.41760 0.22641
 C563 C 0.90627 0.40032 0.18991
 C564 C 0.86808 0.38101 0.18762
 C565 C 0.84301 0.37942 0.22205
 C566 C 0.85655 0.39580 0.25876
 C567 C 0.91042 0.42933 0.30058
 C568 C 0.91622 0.40121 0.33217
 C569 C 0.93248 0.41412 0.36909
 C570 C 0.94230 0.45557 0.37539
 C571 C 0.93564 0.48392 0.34401
 C572 C 0.92032 0.47075 0.30661
 H573 H 0.92587 0.40159 0.16351
 H574 H 0.81359 0.36432 0.22066
 H575 H 0.93715 0.39170 0.39286
 H576 H 0.94315 0.51600 0.34810
 H577 H 0.83733 0.39329 0.28538
 H578 H 0.90889 0.36910 0.32794
 H579 H 0.94925 0.43190 0.22789
 H580 H 0.91601 0.49282 0.28246
   
