data_POSCAR
  _audit_creation_date              2014-09-24
  _audit_creation_method            'ToBaCCo'
  _symmetry_space_group_name_H-M    'P1'
  _symmetry_Int_Tables_number       1
  _symmetry_cell_setting            triclinic
  loop_
  _symmetry_equiv_pos_as_xyz
 x,y,z
_cell_length_a 50.1728
_cell_length_b 48.9377
_cell_length_c 50.2041
_cell_angle_alpha 90.046900
_cell_angle_beta 90.001600
_cell_angle_gamma 90.033700
loop_
  _atom_site_label
  _atom_site_type_symbol
  _atom_site_fract_x
  _atom_site_fract_y
  _atom_site_fract_z
C1 C 0.60499 0.62418 0.64395
 C2 C 0.58501 0.64421 0.64331
 C3 C 0.58486 0.66431 0.62333
 C4 C 0.60495 0.66423 0.60382
 C5 C 0.62521 0.64452 0.60437
 C6 C 0.62529 0.62444 0.62455
 C7 C 0.60504 0.60405 0.66382
 C8 C 0.62547 0.58421 0.66512
 C9 C 0.64579 0.58496 0.64562
 C10 C 0.64566 0.60466 0.62534
 C11 C 0.66559 0.60479 0.60574
 C12 C 0.66561 0.62467 0.58556
 C13 C 0.64544 0.64456 0.58508
 H14 H 0.56936 0.64405 0.65820
 H15 H 0.60501 0.67982 0.58849
 H16 H 0.58969 0.60479 0.67896
 H17 H 0.66122 0.56950 0.64534
 H18 H 0.68132 0.58961 0.60632
 H19 H 0.64529 0.65983 0.56944
 C20 C 0.89385 0.37427 0.14485
 C21 C 0.91366 0.35406 0.14486
 C22 C 0.91494 0.33418 0.12445
 C23 C 0.89546 0.33495 0.10412
 C24 C 0.87524 0.35473 0.10419
 C25 C 0.87449 0.37457 0.12453
 C26 C 0.89324 0.39434 0.16482
 C27 C 0.87334 0.41454 0.16489
 C28 C 0.85388 0.41451 0.14477
 C29 C 0.85438 0.39473 0.12454
 C30 C 0.83511 0.39480 0.10430
 C31 C 0.83553 0.37484 0.08417
 C32 C 0.85565 0.35488 0.08424
 H33 H 0.92879 0.35477 0.16023
 H34 H 0.89516 0.31945 0.08870
 H35 H 0.90809 0.39411 0.18050
 H36 H 0.83861 0.43018 0.14463
 H37 H 0.81951 0.41013 0.10440
 H38 H 0.85621 0.33966 0.06855
 C39 C 0.39472 0.12423 -0.14379
 C40 C 0.41461 0.14439 -0.14321
 C41 C 0.41465 0.16460 -0.12331
 C42 C 0.39455 0.16450 -0.10382
 C43 C 0.37440 0.14464 -0.10429
 C44 C 0.37444 0.12444 -0.12439
 C45 C 0.39477 0.10401 -0.16360
 C46 C 0.37447 0.08399 -0.16482
 C47 C 0.35418 0.08468 -0.14529
 C48 C 0.35419 0.10450 -0.12509
 C49 C 0.33426 0.10460 -0.10548
 C50 C 0.33412 0.12460 -0.08539
 C51 C 0.35418 0.14465 -0.08500
 H52 H 0.43027 0.14421 -0.15809
 H53 H 0.39438 0.18018 -0.08855
 H54 H 0.41010 0.10481 -0.17877
 H55 H 0.33885 0.06909 -0.14493
 H56 H 0.31862 0.08930 -0.10600
 H57 H 0.35424 0.16001 -0.06942
 C58 C 0.10601 0.87455 0.35538
 C59 C 0.08618 0.85434 0.35539
 C60 C 0.08490 0.83448 0.37578
 C61 C 0.10440 0.83527 0.39609
 C62 C 0.12465 0.85504 0.39601
 C63 C 0.12540 0.87486 0.37569
 C64 C 0.10663 0.89460 0.33544
 C65 C 0.12655 0.91481 0.33536
 C66 C 0.14604 0.91479 0.35546
 C67 C 0.14554 0.89503 0.37567
 C68 C 0.16483 0.89511 0.39588
 C69 C 0.16441 0.87516 0.41599
 C70 C 0.14426 0.85521 0.41593
 H71 H 0.07104 0.85504 0.34003
 H72 H 0.10470 0.81979 0.41149
 H73 H 0.09175 0.89437 0.31977
 H74 H 0.16132 0.93046 0.35559
 H75 H 0.18046 0.91043 0.39577
 H76 H 0.14371 0.83999 0.43161
 N77 N 0.09337 0.16762 0.11223
 N78 N 0.08415 0.15762 0.13471
 C79 C 0.06291 0.17245 0.14247
 C80 C 0.05845 0.19262 0.12370
 C81 C 0.07814 0.18890 0.10475
 H82 H 0.05123 0.16864 0.16018
 H83 H 0.08139 0.20106 0.08707
 Cu84 Cu 0.10037 0.12564 0.15098
 Cu85 Cu 0.12493 0.15287 0.09476
 Cu86 Cu 0.15474 0.09652 0.12429
 N87 N 0.11698 0.09389 0.16729
 N88 N 0.13843 0.08278 0.15688
 C89 C 0.14584 0.06128 0.17186
 C90 C 0.12796 0.05862 0.19271
 C91 C 0.10990 0.07970 0.18914
 H92 H 0.16266 0.04821 0.16756
 H93 H 0.09297 0.08440 0.20163
 N94 N 0.16820 0.11345 0.09128
 N95 N 0.15703 0.13506 0.08023
 C96 C 0.17113 0.14213 0.05847
 C97 C 0.19208 0.12402 0.05556
 C98 C 0.18955 0.10607 0.07669
 H99 H 0.16640 0.15909 0.04553
 H100 H 0.20264 0.08921 0.08136
 H101 H 0.12050 0.11332 0.10844
 H102 H 0.14213 0.13648 0.12858
 N103 N 0.40717 0.83324 0.61076
 N104 N 0.41818 0.84489 0.63163
 C105 C 0.43992 0.83051 0.63875
 C106 C 0.44281 0.80880 0.62129
 C107 C 0.42166 0.81124 0.60374
 H108 H 0.45281 0.83555 0.65530
 H109 H 0.41686 0.79771 0.58740
 Cu110 Cu 0.40317 0.87762 0.64774
 Cu111 Cu 0.37456 0.84703 0.59473
 Cu112 Cu 0.34532 0.90332 0.62457
 N113 N 0.38583 0.90872 0.66457
 N114 N 0.36287 0.91813 0.65595
 C115 C 0.35506 0.93895 0.67165
 C116 C 0.37428 0.94297 0.69103
 C117 C 0.39354 0.92344 0.68590
 H118 H 0.33698 0.95063 0.66890
 H119 H 0.41158 0.91997 0.69717
 N120 N 0.33057 0.88557 0.59260
 N121 N 0.34154 0.86392 0.58140
 C122 C 0.32686 0.85655 0.56011
 C123 C 0.30574 0.87453 0.55766
 C124 C 0.30876 0.89267 0.57859
 H125 H 0.33147 0.83966 0.54702
 H126 H 0.29588 0.90968 0.58336
 H127 H 0.37895 0.88725 0.60663
 H128 H 0.36008 0.86415 0.62953
 N129 N 0.90638 0.66781 0.38799
 N130 N 0.91563 0.65777 0.36552
 C131 C 0.93687 0.67262 0.35776
 C132 C 0.94130 0.69284 0.37653
 C133 C 0.92161 0.68913 0.39547
 H134 H 0.94856 0.66878 0.34007
 H135 H 0.91835 0.70132 0.41314
 Cu136 Cu 0.89944 0.62572 0.34927
 Cu137 Cu 0.87482 0.65306 0.40545
 Cu138 Cu 0.84506 0.59657 0.37595
 N139 N 0.88285 0.59391 0.33297
 N140 N 0.86140 0.58278 0.34337
 C141 C 0.85401 0.56124 0.32840
 C142 C 0.87190 0.55857 0.30756
 C143 C 0.88995 0.57968 0.31113
 H144 H 0.83718 0.54815 0.33270
 H145 H 0.90688 0.58438 0.29864
 N146 N 0.83158 0.61355 0.40894
 N147 N 0.84272 0.63522 0.41998
 C148 C 0.82861 0.64232 0.44173
 C149 C 0.80767 0.62415 0.44464
 C150 C 0.81023 0.60616 0.42353
 H151 H 0.83331 0.65932 0.45465
 H152 H 0.79717 0.58925 0.41887
 H153 H 0.87928 0.61347 0.39181
 H154 H 0.85765 0.63655 0.37163
 N155 N 0.59319 0.33287 -0.11150
 N156 N 0.58278 0.34397 -0.13294
 C157 C 0.56091 0.32975 -0.14001
 C158 C 0.55733 0.30868 -0.12196
 C159 C 0.57820 0.31136 -0.10410
 H160 H 0.54841 0.33444 -0.15693
 H161 H 0.58250 0.29830 -0.08728
 Cu162 Cu 0.59911 0.37573 -0.14954
 Cu163 Cu 0.62580 0.34666 -0.09520
 Cu164 Cu 0.65534 0.40306 -0.12496
 N165 N 0.61538 0.40775 -0.16572
 N166 N 0.63787 0.41779 -0.15649
 C167 C 0.64534 0.43909 -0.17170
 C168 C 0.62638 0.44279 -0.19137
 C169 C 0.60760 0.42258 -0.18693
 H170 H 0.66303 0.45128 -0.16844
 H171 H 0.58989 0.41874 -0.19861
 N172 N 0.66989 0.38527 -0.09289
 N173 N 0.65883 0.36363 -0.08174
 C174 C 0.67343 0.35626 -0.06041
 C175 C 0.69458 0.37423 -0.05786
 C176 C 0.69166 0.39236 -0.07879
 H177 H 0.66876 0.33938 -0.04735
 H178 H 0.70461 0.40934 -0.08350
 H179 H 0.62150 0.38662 -0.10779
 H180 H 0.64167 0.36349 -0.12941
 C181 C -0.02425 0.27407 0.12414
 C182 C -0.03453 0.28357 0.09989
 C183 C -0.05485 0.30323 0.10008
 C184 C -0.06472 0.31400 0.12435
 C185 C -0.05375 0.30418 0.14852
 C186 C -0.03380 0.28411 0.14850
 C187 C -0.00305 0.25319 0.12403
 C188 C 0.00679 0.24320 0.14833
 C189 C 0.02676 0.22316 0.14810
 C190 C 0.03722 0.21355 0.12382
 C191 C 0.02732 0.22399 0.09964
 C192 C 0.00697 0.24364 0.09963
 C193 C -0.02335 0.27373 0.17242
 C194 C -0.00348 0.25354 0.17233
 C195 C -0.02411 0.27339 0.07586
 C196 C -0.00363 0.25385 0.07573
 H197 H -0.03063 0.28123 0.19138
 H198 H 0.00397 0.24605 0.19122
 H199 H -0.03180 0.28064 0.05698
 H200 H 0.00388 0.24660 0.05677
 H201 H -0.06200 0.31093 0.08117
 H202 H -0.06144 0.31113 0.16750
 H203 H 0.03448 0.21542 0.16679
 H204 H 0.03508 0.21649 0.08087
 C205 C 0.52419 0.72585 0.62241
 C206 C 0.53051 0.71197 0.59874
 C207 C 0.55047 0.69191 0.59911
 C208 C 0.56383 0.68554 0.62299
 C209 C 0.55713 0.69956 0.64656
 C210 C 0.53741 0.71985 0.64636
 C211 C 0.50335 0.74708 0.62211
 C212 C 0.49728 0.76120 0.64570
 C213 C 0.47755 0.78148 0.64527
 C214 C 0.46374 0.78747 0.62155
 C215 C 0.46999 0.77298 0.59811
 C216 C 0.48990 0.75286 0.59825
 C217 C 0.53070 0.73432 0.66958
 C218 C 0.51101 0.75470 0.66924
 C219 C 0.51670 0.71840 0.57522
 C220 C 0.49669 0.73845 0.57499
 H221 H 0.54078 0.72991 0.68817
 H222 H 0.50648 0.76542 0.68758
 H223 H 0.52136 0.70781 0.55684
 H224 H 0.48649 0.74274 0.55644
 H225 H 0.55540 0.68100 0.58097
 H226 H 0.56755 0.69493 0.66493
 H227 H 0.47272 0.79227 0.66349
 H228 H 0.45969 0.77760 0.57969
 C229 C 1.02404 0.77435 0.37609
 C230 C 1.03358 0.78437 0.35173
 C231 C 1.05354 0.80445 0.35171
 C232 C 1.06454 0.81430 0.37588
 C233 C 1.05468 0.80355 0.40015
 C234 C 1.03434 0.78389 0.40034
 C235 C 1.00282 0.75347 0.37620
 C236 C 0.99281 0.74393 0.40060
 C237 C 0.97245 0.72427 0.40059
 C238 C 0.96253 0.71380 0.37641
 C239 C 0.97299 0.72339 0.35213
 C240 C 0.99297 0.74344 0.35190
 C241 C 1.02392 0.77372 0.42437
 C242 C 1.00343 0.75418 0.42450
 C243 C 1.02311 0.77397 0.32781
 C244 C 1.00323 0.75376 0.32790
 H245 H 1.03163 0.78100 0.44325
 H246 H 0.99592 0.74695 0.44346
 H247 H 1.03039 0.78145 0.30885
 H248 H 0.99577 0.74624 0.30901
 H249 H 1.06122 0.81138 0.33273
 H250 H 1.06184 0.81127 0.41906
 H251 H 0.96469 0.71679 0.41936
 H252 H 0.96526 0.71561 0.33344
 C253 C 0.47532 0.22624 -0.12260
 C254 C 0.46230 0.21990 -0.14658
 C255 C 0.44253 0.19963 -0.14670
 C256 C 0.43562 0.18594 -0.12302
 C257 C 0.44878 0.19267 -0.09911
 C258 C 0.46875 0.21273 -0.09881
 C259 C 0.49625 0.24742 -0.12240
 C260 C 0.50951 0.25353 -0.09850
 C261 C 0.52954 0.27355 -0.09847
 C262 C 0.53614 0.28758 -0.12207
 C263 C 0.52249 0.28126 -0.14582
 C264 C 0.50262 0.26111 -0.14612
 C265 C 0.48237 0.21951 -0.07526
 C266 C 0.50245 0.23952 -0.07511
 C267 C 0.46928 0.23398 -0.16994
 C268 C 0.48906 0.25428 -0.16970
 H269 H 0.47752 0.20921 -0.05678
 H270 H 0.51250 0.24407 -0.05653
 H271 H 0.45935 0.22930 -0.18856
 H272 H 0.49382 0.26467 -0.18815
 H273 H 0.43227 0.19474 -0.16510
 H274 H 0.44371 0.18201 -0.08088
 H275 H 0.53970 0.27840 -0.08002
 H276 H 0.52758 0.29167 -0.16416
 C277 C 0.12728 -0.02371 0.27466
 C278 C 0.10328 -0.03002 0.28766
 C279 C 0.10315 -0.05025 0.30743
 C280 C 0.12684 -0.06393 0.31436
 C281 C 0.15078 -0.05723 0.30122
 C282 C 0.15108 -0.03721 0.28124
 C283 C 0.12749 -0.00257 0.25374
 C284 C 0.15141 0.00352 0.24050
 C285 C 0.15145 0.02351 0.22048
 C286 C 0.12784 0.03754 0.21387
 C287 C 0.10407 0.03125 0.22750
 C288 C 0.10375 0.01112 0.24736
 C289 C 0.17466 -0.03046 0.26764
 C290 C 0.17481 -0.01049 0.24757
 C291 C 0.07991 -0.01594 0.28067
 C292 C 0.08015 0.00432 0.26090
 H293 H 0.19314 -0.04075 0.27250
 H294 H 0.19341 -0.00595 0.23753
 H295 H 0.06127 -0.02061 0.29059
 H296 H 0.06170 0.01471 0.25613
 H297 H 0.08473 -0.05511 0.31768
 H298 H 0.16902 -0.06788 0.30630
 H299 H 0.16991 0.02835 0.21034
 H300 H 0.08572 0.04166 0.22241
 C301 C 0.62585 0.52422 -0.27402
 C302 C 0.65011 0.53374 -0.28433
 C303 C 0.64990 0.55337 -0.30466
 C304 C 0.62560 0.56409 -0.31451
 C305 C 0.60143 0.55425 -0.30351
 C306 C 0.60147 0.53421 -0.28355
 C307 C 0.62599 0.50336 -0.25282
 C308 C 0.60169 0.49334 -0.24296
 C309 C 0.60193 0.47331 -0.22300
 C310 C 0.62624 0.46373 -0.21257
 C311 C 0.65043 0.47421 -0.22249
 C312 C 0.65041 0.49384 -0.24283
 C313 C 0.57755 0.52381 -0.27307
 C314 C 0.57765 0.50363 -0.25321
 C315 C 0.67417 0.52360 -0.27393
 C316 C 0.67432 0.50408 -0.25345
 H317 H 0.55857 0.53127 -0.28034
 H318 H 0.55877 0.49612 -0.24574
 H319 H 0.69305 0.53087 -0.28164
 H320 H 0.69330 0.49687 -0.24596
 H321 H 0.66881 0.56109 -0.31183
 H322 H 0.58242 0.56116 -0.31118
 H323 H 0.58324 0.46554 -0.21527
 H324 H 0.66922 0.46673 -0.21475
 C325 C 0.37438 1.02392 0.77428
 C326 C 0.39870 1.03420 0.78370
 C327 C 0.39865 1.05421 0.80371
 C328 C 0.37444 1.06379 0.81485
 C329 C 0.35020 1.05276 0.80511
 C330 C 0.35008 1.03313 0.78475
 C331 C 0.37435 1.00312 0.75299
 C332 C 0.34997 0.99331 0.74311
 C333 C 0.35005 0.97376 0.72266
 C334 C 0.37429 0.96370 0.71247
 C335 C 0.39856 0.97357 0.72280
 C336 C 0.39870 0.99348 0.74291
 C337 C 0.32608 1.02269 0.77447
 C338 C 0.32602 1.00320 0.75393
 C339 C 0.42268 1.02414 0.77303
 C340 C 0.42267 1.00405 0.75306
 H341 H 0.30716 1.02970 0.78231
 H342 H 0.30707 0.99576 0.74652
 H343 H 0.44162 1.03183 0.78021
 H344 H 0.44160 0.99682 0.74542
 H345 H 0.41763 1.06133 0.81130
 H346 H 0.33124 1.06026 0.81238
 H347 H 0.33130 0.96607 0.71500
 H348 H 0.41729 0.96614 0.71488
 C349 C 0.87260 0.47609 0.22562
 C350 C 0.84880 0.46257 0.21902
 C351 C 0.84911 0.44252 0.19903
 C352 C 0.87305 0.43582 0.18591
 C353 C 0.89674 0.44952 0.19286
 C354 C 0.89661 0.46978 0.21263
 C355 C 0.87239 0.49727 0.24654
 C356 C 0.89613 0.51098 0.25294
 C357 C 0.89580 0.53115 0.27279
 C358 C 0.87202 0.53745 0.28640
 C359 C 0.84841 0.52338 0.27978
 C360 C 0.84846 0.50336 0.25976
 C361 C 0.91998 0.48388 0.21964
 C362 C 0.91973 0.50418 0.23942
 C363 C 0.82522 0.46932 0.23260
 C364 C 0.82506 0.48933 0.25267
 H365 H 0.93862 0.47922 0.20974
 H366 H 0.93819 0.51459 0.24420
 H367 H 0.80673 0.45901 0.22772
 H368 H 0.80646 0.49387 0.26269
 H369 H 0.83087 0.43186 0.19393
 H370 H 0.91516 0.44466 0.18262
 H371 H 0.91415 0.54158 0.27790
 H372 H 0.82994 0.52823 0.28991
 C373 C 0.27332 0.12430 -0.02550
 C374 C 0.28654 0.09985 -0.03183
 C375 C 0.30630 0.10004 -0.05158
 C376 C 0.31304 0.12450 -0.06473
 C377 C 0.29967 0.14885 -0.05804
 C378 C 0.27967 0.14884 -0.03852
 C379 C 0.25246 0.12420 -0.00481
 C380 C 0.23903 0.14857 0.00131
 C381 C 0.21915 0.14835 0.02094
 C382 C 0.21288 0.12405 0.03463
 C383 C 0.22666 0.09982 0.02830
 C384 C 0.24637 0.09975 0.00849
 C385 C 0.26587 0.17284 -0.03179
 C386 C 0.24584 0.17270 -0.01225
 C387 C 0.27979 0.07575 -0.01820
 C388 C 0.26009 0.07572 0.00166
 H389 H 0.27055 0.19189 -0.04172
 H390 H 0.23566 0.19165 -0.00769
 H391 H 0.28987 0.05677 -0.02288
 H392 H 0.25555 0.05671 0.01174
 H393 H 0.31673 0.08130 -0.05647
 H394 H 0.30462 0.16768 -0.06829
 H395 H 0.20890 0.16718 0.02584
 H396 H 0.22182 0.08096 0.03849
 C397 C 0.72641 0.62441 0.52568
 C398 C 0.71329 0.59992 0.53208
 C399 C 0.69353 0.60010 0.55183
 C400 C 0.68669 0.62459 0.56489
 C401 C 0.69996 0.64898 0.55813
 C402 C 0.71996 0.64898 0.53862
 C403 C 0.74729 0.62432 0.50499
 C404 C 0.76062 0.64873 0.49880
 C405 C 0.78052 0.64852 0.47918
 C406 C 0.78687 0.62419 0.46557
 C407 C 0.77318 0.59992 0.47196
 C408 C 0.75347 0.59984 0.49177
 C409 C 0.73368 0.67302 0.53182
 C410 C 0.75371 0.67288 0.51229
 C411 C 0.72014 0.57579 0.51852
 C412 C 0.73984 0.57577 0.49866
 H413 H 0.72891 0.69210 0.54169
 H414 H 0.76383 0.69186 0.50767
 H415 H 0.71013 0.55678 0.52325
 H416 H 0.74446 0.55673 0.48864
 H417 H 0.68318 0.58132 0.55678
 H418 H 0.69493 0.66783 0.56832
 H419 H 0.79070 0.66737 0.47423
 H420 H 0.77809 0.58103 0.46183
 C421 C 0.77564 0.37454 0.02337
 C422 C 0.78864 0.39910 0.02980
 C423 C 0.80816 0.39912 0.04980
 C424 C 0.81486 0.37475 0.06310
 C425 C 0.80174 0.35027 0.05629
 C426 C 0.78199 0.35008 0.03653
 C427 C 0.75495 0.37444 0.00250
 C428 C 0.74168 0.34997 -0.00365
 C429 C 0.72187 0.35004 -0.02336
 C430 C 0.71552 0.37428 -0.03707
 C431 C 0.72918 0.39860 -0.03075
 C432 C 0.74881 0.39883 -0.01086
 C433 C 0.76838 0.32597 0.02972
 C434 C 0.74852 0.32592 0.01001
 C435 C 0.78188 0.42312 0.01605
 C436 C 0.76235 0.42297 -0.00398
 H437 H 0.77308 0.30697 0.03975
 H438 H 0.73846 0.30690 0.00542
 H439 H 0.79180 0.44219 0.02079
 H440 H 0.75777 0.44193 -0.01412
 H441 H 0.81839 0.41796 0.05480
 H442 H 0.80665 0.33152 0.06666
 H443 H 0.71169 0.33115 -0.02824
 H444 H 0.72427 0.41743 -0.04095
 C445 C 0.22444 0.87485 0.47665
 C446 C 0.21146 0.89942 0.47030
 C447 C 0.19190 0.89944 0.45034
 C448 C 0.18512 0.87506 0.43702
 C449 C 0.19822 0.85058 0.44377
 C450 C 0.21802 0.85039 0.46349
 C451 C 0.24518 0.87475 0.49747
 C452 C 0.25843 0.85027 0.50356
 C453 C 0.27830 0.85033 0.52321
 C454 C 0.28473 0.87458 0.53693
 C455 C 0.27108 0.89890 0.53069
 C456 C 0.25139 0.89913 0.51085
 C457 C 0.23160 0.82627 0.47023
 C458 C 0.25152 0.82622 0.48988
 C459 C 0.21829 0.92343 0.48406
 C460 C 0.23787 0.92328 0.50404
 H461 H 0.22685 0.80727 0.46019
 H462 H 0.26156 0.80719 0.49443
 H463 H 0.20840 0.94250 0.47937
 H464 H 0.24251 0.94224 0.51419
 H465 H 0.18169 0.91828 0.44538
 H466 H 0.19326 0.83183 0.43338
 H467 H 0.28846 0.83145 0.52804
 H468 H 0.27606 0.91774 0.54089
   
