data_POSCAR
  _audit_creation_date              2014-09-24
  _audit_creation_method            'ToBaCCo'
  _symmetry_space_group_name_H-M    'P1'
  _symmetry_Int_Tables_number       1
  _symmetry_cell_setting            triclinic
  loop_
  _symmetry_equiv_pos_as_xyz
 x,y,z
_cell_length_a 46.1892
_cell_length_b 44.9284
_cell_length_c 43.6326
_cell_angle_alpha 89.805700
_cell_angle_beta 90.149900
_cell_angle_gamma 89.898800
loop_
  _atom_site_label
  _atom_site_type_symbol
  _atom_site_fract_x
  _atom_site_fract_y
  _atom_site_fract_z
C1 C 0.29512 0.29080 0.24041
 H2 H 0.29733 0.28996 0.26508
 C3 C 0.31411 0.30813 0.22305
 H4 H 0.33077 0.32089 0.23453
 C5 C 0.27073 0.27510 0.19545
 H6 H 0.25421 0.26178 0.18465
 C7 C 0.28902 0.29238 0.17726
 H8 H 0.28630 0.29226 0.15260
 N9 N 0.27378 0.27495 0.22647
 C10 C 0.20380 0.26279 0.29225
 H11 H 0.20141 0.23885 0.29149
 C12 C 0.18518 0.27980 0.31031
 H13 H 0.16868 0.26875 0.32373
 C14 C 0.22845 0.30618 0.27579
 H15 H 0.24507 0.31644 0.26199
 C16 C 0.21040 0.32403 0.29364
 H17 H 0.21332 0.34793 0.29333
 Zn18 Zn 0.24932 0.25151 0.25167
 N19 N 0.22511 0.27611 0.27572
 C20 C 0.26979 0.22709 0.30803
 N21 N 0.27340 0.22783 0.27710
 C22 C 0.29488 0.21209 0.26332
 C23 C 0.31362 0.19442 0.28076
 C24 C 0.28785 0.20943 0.32630
 C25 C 0.20510 0.23998 0.20904
 C26 C 0.18674 0.22265 0.19098
 C27 C 0.20907 0.17855 0.21236
 C28 C 0.22717 0.19674 0.22979
 N29 N 0.22514 0.22686 0.22757
 H30 H 0.25297 0.24016 0.31863
 H31 H 0.29739 0.21328 0.23870
 H32 H 0.33043 0.18179 0.26940
 H33 H 0.28473 0.20907 0.35089
 H34 H 0.20359 0.26401 0.20812
 H35 H 0.17152 0.23361 0.17577
 H36 H 0.21083 0.15464 0.21482
 H37 H 0.24267 0.18669 0.24527
 C38 C 0.18848 0.31085 0.31129
 C39 C 0.31102 0.30921 0.19106
 C40 C 0.18862 0.19144 0.19241
 C41 C 0.31009 0.19283 0.31266
 C42 C 0.79753 0.79056 0.23689
 H43 H 0.79830 0.79095 0.26168
 C44 C 0.81639 0.80842 0.21998
 H45 H 0.83066 0.82297 0.23261
 C46 C 0.77654 0.77179 0.19146
 H47 H 0.76145 0.75697 0.18036
 C48 C 0.79498 0.78922 0.17358
 H49 H 0.79375 0.78658 0.14901
 N50 N 0.77774 0.77316 0.22251
 C51 C 0.70644 0.76151 0.28687
 H52 H 0.70418 0.73755 0.28642
 C53 C 0.68754 0.77865 0.30448
 H54 H 0.67096 0.76769 0.31787
 C55 C 0.73094 0.80484 0.27000
 H56 H 0.74749 0.81507 0.25613
 C57 C 0.71263 0.82280 0.28740
 H58 H 0.71538 0.84672 0.28675
 Zn59 Zn 0.75262 0.74992 0.24713
 N60 N 0.72788 0.77473 0.27044
 C61 C 0.77149 0.72500 0.30395
 N62 N 0.77600 0.72609 0.27316
 C63 C 0.79798 0.71062 0.25994
 C64 C 0.81639 0.69299 0.27782
 C65 C 0.78911 0.70728 0.32262
 C66 C 0.70954 0.73898 0.20326
 C67 C 0.69104 0.72196 0.18504
 C68 C 0.71199 0.67749 0.20719
 C69 C 0.73024 0.69537 0.22482
 N70 N 0.72884 0.72552 0.22239
 H71 H 0.75428 0.73785 0.31415
 H72 H 0.80119 0.71206 0.23543
 H73 H 0.83370 0.68068 0.26695
 H74 H 0.78528 0.70660 0.34709
 H75 H 0.70862 0.76302 0.20211
 H76 H 0.67629 0.73316 0.16950
 H77 H 0.71313 0.65356 0.20988
 H78 H 0.74524 0.68510 0.24069
 C79 C 0.69068 0.80972 0.30507
 C80 C 0.81532 0.80836 0.18759
 C81 C 0.69208 0.69073 0.18687
 C82 C 0.81192 0.69107 0.30956
 C83 C 0.79321 0.28803 0.73835
 H84 H 0.79530 0.28714 0.76304
 C85 C 0.81227 0.30541 0.72115
 H86 H 0.82886 0.31814 0.73276
 C87 C 0.76897 0.27249 0.69324
 H88 H 0.75245 0.25925 0.68234
 C89 C 0.78736 0.28982 0.67519
 H90 H 0.78472 0.28980 0.65052
 N91 N 0.77191 0.27224 0.72427
 C92 C 0.70210 0.26060 0.79036
 H93 H 0.69983 0.23664 0.79002
 C94 C 0.68361 0.27780 0.80838
 H95 H 0.66731 0.26687 0.82218
 C96 C 0.72637 0.30387 0.77290
 H97 H 0.74278 0.31399 0.75874
 C98 C 0.70845 0.32189 0.79071
 H99 H 0.71126 0.34580 0.79000
 Zn100 Zn 0.74725 0.24897 0.74939
 N101 N 0.72315 0.27378 0.77334
 C102 C 0.76861 0.22604 0.80592
 N103 N 0.77117 0.22524 0.77497
 C104 C 0.79154 0.20803 0.76137
 C105 C 0.80992 0.19009 0.77893
 C106 C 0.78646 0.20845 0.82447
 C107 C 0.70300 0.23778 0.70667
 C108 C 0.68473 0.22062 0.68830
 C109 C 0.70708 0.17633 0.70922
 C110 C 0.72496 0.19433 0.72709
 N111 N 0.72296 0.22448 0.72517
 H112 H 0.75291 0.24061 0.81642
 H113 H 0.79321 0.20793 0.73663
 H114 H 0.82447 0.17578 0.76645
 H115 H 0.78408 0.21118 0.84891
 H116 H 0.70150 0.26181 0.70598
 H117 H 0.66951 0.23168 0.67316
 H118 H 0.70891 0.15238 0.71128
 H119 H 0.74030 0.18409 0.74259
 C120 C 0.68679 0.30887 0.80884
 C121 C 0.80930 0.30661 0.68915
 C122 C 0.68677 0.18943 0.68928
 C123 C 0.80779 0.18964 0.81138
 C124 C 0.29455 0.79136 0.73931
 H125 H 0.29510 0.79237 0.76408
 C126 C 0.31344 0.80891 0.72210
 H127 H 0.32812 0.82377 0.73388
 C128 C 0.27429 0.77103 0.69409
 H129 H 0.25936 0.75588 0.68323
 C130 C 0.29293 0.78802 0.67599
 H131 H 0.29208 0.78564 0.65132
 N132 N 0.27507 0.77336 0.72515
 C133 C 0.20420 0.76286 0.79034
 H134 H 0.20201 0.73889 0.79053
 C135 C 0.18544 0.78036 0.80776
 H136 H 0.16906 0.76968 0.82166
 C137 C 0.22826 0.80587 0.77198
 H138 H 0.24452 0.81585 0.75754
 C139 C 0.21012 0.82418 0.78918
 H140 H 0.21274 0.84809 0.78785
 Zn141 Zn 0.24989 0.75055 0.75011
 N142 N 0.22536 0.77576 0.77326
 C143 C 0.26927 0.72602 0.80704
 N144 N 0.27334 0.72684 0.77617
 C145 C 0.29505 0.71115 0.76272
 C146 C 0.31366 0.69361 0.78045
 C147 C 0.28712 0.70838 0.82558
 C148 C 0.20683 0.73943 0.70628
 C149 C 0.18831 0.72235 0.68816
 C150 C 0.20876 0.67798 0.71102
 C151 C 0.22704 0.69592 0.72854
 N152 N 0.22592 0.72604 0.72570
 H153 H 0.25227 0.73904 0.81739
 H154 H 0.29791 0.71237 0.73815
 H155 H 0.33075 0.68113 0.76938
 H156 H 0.28366 0.70792 0.85011
 H157 H 0.20615 0.76347 0.70477
 H158 H 0.17375 0.73348 0.67236
 H159 H 0.20970 0.65407 0.71403
 H160 H 0.24188 0.68572 0.74464
 C161 C 0.18847 0.81145 0.80750
 C162 C 0.31267 0.80754 0.68994
 C163 C 0.18910 0.69114 0.69038
 C164 C 0.30968 0.69199 0.81227
 C165 C 0.04150 0.04817 0.01138
 H166 H 0.04105 0.05120 -0.01323
 C167 C 0.05899 0.06642 0.02942
 H168 H 0.07209 0.08338 0.01854
 C169 C 0.02534 0.02205 0.05539
 H170 H 0.01224 0.00469 0.06543
 C171 C 0.04277 0.03959 0.07426
 H172 H 0.04270 0.03578 0.09877
 N173 N 0.02493 0.02663 0.02454
 C174 C 0.01238 -0.04282 -0.04440
 H175 H -0.01065 -0.04650 -0.04324
 C176 C 0.02924 -0.06099 -0.06318
 H177 H 0.01880 -0.07785 -0.07701
 C178 C 0.05416 -0.01749 -0.02694
 H179 H 0.06405 -0.00108 -0.01232
 C180 C 0.07179 -0.03501 -0.04558
 H181 H 0.09501 -0.03172 -0.04509
 Zn182 Zn 0.00117 0.00226 -0.00067
 N183 N 0.02493 -0.02140 -0.02683
 C184 C -0.04335 0.01316 -0.04403
 N185 N -0.02456 0.02648 -0.02433
 C186 C -0.02472 0.05656 -0.02066
 C187 C -0.04334 0.07445 -0.03800
 C188 C -0.06234 0.03021 -0.06185
 C189 C -0.01457 -0.05219 0.02781
 C190 C -0.03167 -0.07068 0.04607
 C191 C -0.06217 -0.02844 0.05761
 C192 C -0.04451 -0.01078 0.03910
 N193 N -0.02139 -0.02289 0.02449
 H194 H -0.04398 -0.01075 -0.04574
 H195 H -0.01064 0.06690 -0.00409
 H196 H -0.04261 0.09837 -0.03513
 H197 H -0.07719 0.01911 -0.07727
 H198 H 0.00416 -0.06127 0.01636
 H199 H -0.02621 -0.09406 0.04794
 H200 H -0.08036 -0.01832 0.06923
 H201 H -0.04925 0.01266 0.03627
 C202 C 0.05935 -0.05713 -0.06399
 C203 C 0.05978 0.06220 0.06129
 C204 C -0.05593 -0.05888 0.06117
 C205 C -0.06235 0.06133 -0.05913
 C206 C 0.03725 0.54674 0.51425
 H207 H 0.03629 0.54920 0.48959
 C208 C 0.05464 0.56578 0.53154
 H209 H 0.06727 0.58272 0.52001
 C210 C 0.02219 0.52140 0.55916
 H211 H 0.00922 0.50440 0.56994
 C212 C 0.03947 0.53979 0.57730
 H213 H 0.03964 0.53668 0.60192
 N214 N 0.02181 0.52479 0.52816
 C215 C 0.01156 0.45269 0.46232
 H216 H -0.01165 0.44959 0.46292
 C217 C 0.02871 0.43415 0.44419
 H218 H 0.01848 0.41700 0.43057
 C219 C 0.05302 0.47901 0.47920
 H220 H 0.06251 0.49622 0.49317
 C221 C 0.07094 0.46109 0.46131
 H222 H 0.09410 0.46473 0.46178
 Zn223 Zn -0.00065 0.49947 0.50283
 N224 N 0.02385 0.47487 0.47901
 C225 C -0.02526 0.51936 0.44642
 N226 N -0.02378 0.52397 0.47716
 C227 C -0.03857 0.54661 0.49058
 C228 C -0.05597 0.56554 0.47297
 C229 C -0.04271 0.53750 0.42799
 C230 C -0.01204 0.45386 0.54547
 C231 C -0.02908 0.43487 0.56328
 C232 C -0.07178 0.45766 0.54127
 C233 C -0.05395 0.47644 0.52417
 N234 N -0.02465 0.47442 0.52676
 H235 H -0.01315 0.50147 0.43608
 H236 H -0.03674 0.54999 0.51504
 H237 H -0.06711 0.58371 0.48414
 H238 H -0.04418 0.53281 0.40373
 H239 H 0.01132 0.45230 0.54661
 H240 H -0.01872 0.41866 0.57812
 H241 H -0.09506 0.45978 0.53918
 H242 H -0.06358 0.49252 0.50876
 C243 C 0.05880 0.43843 0.44334
 C244 C 0.05614 0.56219 0.56348
 C245 C -0.05936 0.43666 0.56125
 C246 C -0.05842 0.56102 0.44119
 C247 C 0.53760 0.04609 0.50928
 H248 H 0.53445 0.05062 0.48513
 C249 C 0.55494 0.06488 0.52691
 H250 H 0.56534 0.08375 0.51610
 C251 C 0.52821 0.01558 0.55255
 H252 H 0.51777 -0.00371 0.56239
 C253 C 0.54548 0.03369 0.57099
 H254 H 0.54789 0.02836 0.59508
 N255 N 0.52467 0.02202 0.52230
 C256 C 0.51293 -0.04810 0.45441
 H257 H 0.48973 -0.05133 0.45485
 C258 C 0.53012 -0.06613 0.43583
 H259 H 0.51993 -0.08289 0.42167
 C260 C 0.55435 -0.02244 0.47243
 H261 H 0.56380 -0.00563 0.48695
 C262 C 0.57232 -0.03985 0.45405
 H263 H 0.59549 -0.03629 0.45475
 Zn264 Zn 0.50124 -0.00269 0.49758
 N265 N 0.52518 -0.02667 0.47218
 C266 C 0.47197 0.01619 0.44318
 N267 N 0.47687 0.02212 0.47330
 C268 C 0.46502 0.04649 0.48683
 C269 C 0.44722 0.06578 0.47010
 C270 C 0.45407 0.03471 0.42568
 C271 C 0.48278 -0.05712 0.52454
 C272 C 0.46551 -0.07520 0.54305
 C273 C 0.43963 -0.03139 0.55958
 C274 C 0.45728 -0.01418 0.54060
 N275 N 0.47816 -0.02723 0.52328
 H276 H 0.48179 -0.00292 0.43253
 H277 H 0.46979 0.05127 0.51058
 H278 H 0.43852 0.08531 0.48126
 H279 H 0.44997 0.02907 0.40196
 H280 H 0.49995 -0.06710 0.51134
 H281 H 0.46916 -0.09900 0.54308
 H282 H 0.42336 -0.02046 0.57337
 H283 H 0.45434 0.00965 0.53980
 C284 C 0.56023 -0.06204 0.43544
 C285 C 0.55911 0.05872 0.55820
 C286 C 0.44346 -0.06240 0.56081
 C287 C 0.44140 0.05995 0.43907
 C288 C 0.53852 0.54664 0.01197
 H289 H 0.53716 0.54915 -0.01267
 C290 C 0.55621 0.56562 0.02899
 H291 H 0.56868 0.58256 0.01727
 C292 C 0.52410 0.52127 0.05709
 H293 H 0.51125 0.50429 0.06808
 C294 C 0.54170 0.53958 0.07496
 H295 H 0.54225 0.53644 0.09957
 N296 N 0.52324 0.52471 0.02611
 C297 C 0.51161 0.45268 -0.03959
 H298 H 0.48840 0.44968 -0.03860
 C299 C 0.52842 0.43399 -0.05791
 H300 H 0.51794 0.41683 -0.07128
 C301 C 0.55342 0.47886 -0.02346
 H302 H 0.56320 0.49606 -0.00970
 C303 C 0.57100 0.46080 -0.04157
 H304 H 0.59419 0.46432 -0.04147
 Zn305 Zn 0.50024 0.49955 0.00115
 N306 N 0.52424 0.47484 -0.02315
 C307 C 0.47455 0.51958 -0.05470
 N308 N 0.47680 0.52422 -0.02401
 C309 C 0.46247 0.54697 -0.01023
 C310 C 0.44478 0.56599 -0.02739
 C311 C 0.45677 0.53782 -0.07267
 C312 C 0.48924 0.45399 0.04403
 C313 C 0.47233 0.43519 0.06219
 C314 C 0.42947 0.45826 0.04084
 C315 C 0.44717 0.47684 0.02339
 N316 N 0.47649 0.47462 0.02548
 H317 H 0.48628 0.50158 -0.06532
 H318 H 0.46489 0.55034 0.01418
 H319 H 0.43402 0.58424 -0.01594
 H320 H 0.45469 0.53311 -0.09689
 H321 H 0.51259 0.45226 0.04477
 H322 H 0.48278 0.41894 0.07691
 H323 H 0.40617 0.46056 0.03915
 H324 H 0.43742 0.49297 0.00811
 C325 C 0.55852 0.43812 -0.05924
 C326 C 0.55819 0.56197 0.06089
 C327 C 0.44203 0.43723 0.06068
 C328 C 0.44153 0.56145 -0.05908
 C329 C 0.13272 -0.13266 -0.13830
 C330 C 0.16265 -0.12717 -0.13978
 C331 C 0.18067 -0.14529 -0.15737
 C332 C 0.16924 -0.16944 -0.17376
 C333 C 0.13938 -0.17510 -0.17218
 C334 C 0.12130 -0.15686 -0.15472
 C335 C 0.11357 -0.11324 -0.11965
 C336 C 0.09053 -0.12543 -0.10278
 C337 C 0.07278 -0.10719 -0.08494
 C338 C 0.07778 -0.07640 -0.08344
 C339 C 0.10071 -0.06417 -0.10036
 C340 C 0.11835 -0.08236 -0.11834
 H341 H 0.20367 -0.14068 -0.15779
 H342 H 0.12993 -0.19333 -0.18490
 H343 H 0.05551 -0.11728 -0.07180
 H344 H 0.10480 -0.04045 -0.09997
 H345 H 0.09830 -0.16143 -0.15447
 H346 H 0.08654 -0.14916 -0.10287
 H347 H 0.17225 -0.10909 -0.12695
 H348 H 0.13555 -0.07217 -0.13148
 C349 C 0.13271 0.36487 0.36749
 C350 C 0.16260 0.37056 0.36605
 C351 C 0.18064 0.35306 0.34780
 C352 C 0.16925 0.32939 0.33066
 C353 C 0.13940 0.32356 0.33218
 C354 C 0.12132 0.34114 0.35035
 C355 C 0.11353 0.38369 0.38673
 C356 C 0.09070 0.37097 0.40351
 C357 C 0.07284 0.38871 0.42176
 C358 C 0.07749 0.41954 0.42373
 C359 C 0.10022 0.43228 0.40687
 C360 C 0.11799 0.41458 0.38855
 H361 H 0.20362 0.35778 0.34748
 H362 H 0.12995 0.30572 0.31890
 H363 H 0.05572 0.37822 0.43480
 H364 H 0.10402 0.45605 0.40753
 H365 H 0.09834 0.33645 0.35057
 H366 H 0.08695 0.34719 0.40298
 H367 H 0.17215 0.38830 0.37940
 H368 H 0.13501 0.42517 0.37547
 C369 C 0.63449 -0.13574 0.36019
 C370 C 0.66441 -0.13016 0.35907
 C371 C 0.68258 -0.14782 0.34116
 C372 C 0.67130 -0.17158 0.32406
 C373 C 0.64143 -0.17731 0.32526
 C374 C 0.62321 -0.15954 0.34306
 C375 C 0.61518 -0.11682 0.37918
 C376 C 0.59212 -0.12946 0.39567
 C377 C 0.57418 -0.11167 0.41375
 C378 C 0.57898 -0.08088 0.41588
 C379 C 0.60194 -0.06821 0.39936
 C380 C 0.61979 -0.08595 0.38115
 H381 H 0.70558 -0.14319 0.34106
 H382 H 0.63208 -0.19523 0.31200
 H383 H 0.55688 -0.12210 0.42657
 H384 H 0.60588 -0.04447 0.40019
 H385 H 0.60021 -0.16415 0.34303
 H386 H 0.58826 -0.15321 0.39505
 H387 H 0.67389 -0.11238 0.37243
 H388 H 0.63701 -0.07542 0.36831
 C389 C 0.63147 0.36358 -0.13514
 C390 C 0.66135 0.36928 -0.13698
 C391 C 0.67923 0.35155 -0.15516
 C392 C 0.66771 0.32762 -0.17183
 C393 C 0.63790 0.32177 -0.16988
 C394 C 0.61996 0.33958 -0.15178
 C395 C 0.61246 0.38266 -0.11597
 C396 C 0.58977 0.37017 -0.09879
 C397 C 0.57213 0.38815 -0.08054
 C398 C 0.57687 0.41900 -0.07896
 C399 C 0.59943 0.43150 -0.09624
 C400 C 0.61697 0.41357 -0.11458
 H401 H 0.70220 0.35630 -0.15582
 H402 H 0.62835 0.30371 -0.18278
 H403 H 0.55513 0.37785 -0.06718
 H404 H 0.60330 0.45526 -0.09589
 H405 H 0.59699 0.33486 -0.15124
 H406 H 0.58597 0.34640 -0.09899
 H407 H 0.67101 0.38721 -0.12401
 H408 H 0.63388 0.42398 -0.12797
 C409 C -0.13795 0.13505 -0.13385
 C410 C -0.13040 0.14195 -0.16411
 C411 C -0.14825 0.15997 -0.18226
 C412 C -0.17455 0.17193 -0.17082
 C413 C -0.18174 0.16465 -0.14007
 C414 C -0.16379 0.14659 -0.12206
 C415 C -0.11886 0.11596 -0.11460
 C416 C -0.11411 0.12275 -0.08357
 C417 C -0.09591 0.10497 -0.06555
 C418 C -0.08205 0.07997 -0.07813
 C419 C -0.08694 0.07308 -0.10911
 C420 C -0.10511 0.09088 -0.12714
 H421 H -0.14009 0.16546 -0.20473
 H422 H -0.20196 0.17130 -0.12977
 H423 H -0.09286 0.11068 -0.04167
 H424 H -0.07636 0.05414 -0.11956
 H425 H -0.17056 0.14109 -0.09898
 H426 H -0.12416 0.14208 -0.07331
 H427 H -0.11021 0.13397 -0.17363
 H428 H -0.10858 0.08487 -0.15088
 C429 C -0.13264 0.63631 0.36589
 C430 C -0.12082 0.65622 0.34434
 C431 C -0.13882 0.67384 0.32592
 C432 C -0.16902 0.67229 0.32895
 C433 C -0.18092 0.65267 0.35058
 C434 C -0.16296 0.63471 0.36868
 C435 C -0.11349 0.61724 0.38528
 C436 C -0.12110 0.61028 0.41566
 C437 C -0.10335 0.59204 0.43369
 C438 C -0.07728 0.58056 0.42199
 C439 C -0.06952 0.58778 0.39172
 C440 C -0.08746 0.60570 0.37355
 H441 H -0.12913 0.68908 0.30964
 H442 H -0.20418 0.65083 0.35306
 H443 H -0.11030 0.58666 0.45672
 H444 H -0.04943 0.57978 0.38202
 H445 H -0.17290 0.61924 0.38453
 H446 H -0.14072 0.61909 0.42568
 H447 H -0.09761 0.65854 0.34194
 H448 H -0.08104 0.61019 0.35015
 C449 C 0.36638 0.13734 0.36726
 C450 C 0.37778 0.15617 0.34448
 C451 C 0.35951 0.17413 0.32673
 C452 C 0.32948 0.17392 0.33158
 C453 C 0.31805 0.15537 0.35449
 C454 C 0.33627 0.13717 0.37203
 C455 C 0.38578 0.11778 0.38578
 C456 C 0.38006 0.11234 0.41694
 C457 C 0.39804 0.09361 0.43418
 C458 C 0.42235 0.08005 0.42078
 C459 C 0.42821 0.08572 0.38970
 C460 C 0.41009 0.10422 0.37239
 H461 H 0.36890 0.18853 0.30948
 H462 H 0.29492 0.15452 0.35842
 H463 H 0.39264 0.08948 0.45794
 H464 H 0.44697 0.07604 0.37871
 H465 H 0.32667 0.12256 0.38895
 H466 H 0.36177 0.12271 0.42813
 H467 H 0.40088 0.15733 0.34057
 H468 H 0.41497 0.10758 0.34838
 C469 C 0.36600 0.63725 -0.13235
 C470 C 0.33574 0.63586 -0.12880
 C471 C 0.31750 0.65387 -0.14654
 C472 C 0.32904 0.67333 -0.16854
 C473 C 0.35918 0.67474 -0.17225
 C474 C 0.37747 0.65707 -0.15421
 C475 C 0.38547 0.61802 -0.11349
 C476 C 0.41113 0.60630 -0.12592
 C477 C 0.42938 0.58826 -0.10826
 C478 C 0.42231 0.58109 -0.07778
 C479 C 0.39661 0.59273 -0.06538
 C480 C 0.37854 0.61109 -0.08292
 H481 H 0.29429 0.65216 -0.14351
 H482 H 0.36860 0.68986 -0.18882
 H483 H 0.44918 0.58012 -0.11849
 H484 H 0.39018 0.58738 -0.04217
 H485 H 0.40063 0.65924 -0.15718
 H486 H 0.41701 0.61076 -0.14949
 H487 H 0.32606 0.62049 -0.11268
 H488 H 0.35922 0.62004 -0.07238
 C489 C -0.12961 -0.13545 0.13436
 C490 C -0.15577 -0.14604 0.12224
 C491 C -0.17373 -0.16451 0.13957
 C492 C -0.16616 -0.17309 0.16978
 C493 C -0.13965 -0.16234 0.18166
 C494 C -0.12174 -0.14386 0.16423
 C495 C -0.11067 -0.11564 0.11590
 C496 C -0.08043 -0.11913 0.11653
 C497 C -0.06267 -0.10066 0.09892
 C498 C -0.07474 -0.07826 0.08026
 C499 C -0.10497 -0.07469 0.07974
 C500 C -0.12272 -0.09314 0.09736
 H501 H -0.19410 -0.17090 0.12931
 H502 H -0.13187 -0.16881 0.20409
 H503 H -0.03944 -0.10377 0.10010
 H504 H -0.11498 -0.05788 0.06535
 H505 H -0.10174 -0.13596 0.17430
 H506 H -0.07049 -0.13644 0.13034
 H507 H -0.16237 -0.14014 0.09918
 H508 H -0.14591 -0.08963 0.09665
 C509 C -0.13388 0.36107 0.63450
 C510 C -0.16393 0.36110 0.62916
 C511 C -0.18230 0.34332 0.64679
 C512 C -0.17111 0.32533 0.67040
 C513 C -0.14115 0.32539 0.67595
 C514 C -0.12271 0.34294 0.65811
 C515 C -0.11435 0.37997 0.61559
 C516 C -0.09014 0.39399 0.62880
 C517 C -0.07208 0.41207 0.61108
 C518 C -0.07798 0.41678 0.57985
 C519 C -0.10203 0.40271 0.56657
 C520 C -0.11991 0.38439 0.58418
 H521 H -0.20537 0.34401 0.64232
 H522 H -0.13193 0.31144 0.69378
 H523 H -0.05386 0.42294 0.62195
 H524 H -0.10681 0.40563 0.54243
 H525 H -0.09966 0.34196 0.66253
 H526 H -0.08546 0.39151 0.65299
 H527 H -0.17338 0.37522 0.61163
 H528 H -0.13797 0.37347 0.57308
 C529 C 0.36887 -0.13697 0.63535
 C530 C 0.34041 -0.14297 0.62574
 C531 C 0.32225 -0.16092 0.64341
 C532 C 0.33214 -0.17352 0.67107
 C533 C 0.36066 -0.16767 0.68061
 C534 C 0.37878 -0.14956 0.66301
 C535 C 0.38810 -0.11767 0.61659
 C536 C 0.41772 -0.12427 0.61367
 C537 C 0.43571 -0.10625 0.59582
 C538 C 0.42448 -0.08127 0.58030
 C539 C 0.39487 -0.07463 0.58331
 C540 C 0.37693 -0.09254 0.60130
 H541 H 0.30030 -0.16463 0.63556
 H542 H 0.36912 -0.17730 0.70158
 H543 H 0.45848 -0.11181 0.59435
 H544 H 0.38541 -0.05579 0.57140
 H545 H 0.40046 -0.14513 0.67128
 H546 H 0.42699 -0.14363 0.62484
 H547 H 0.33219 -0.13399 0.60436
 H548 H 0.35431 -0.08655 0.60339
 C549 C 0.36777 0.36295 0.13558
 C550 C 0.37899 0.34493 0.15925
 C551 C 0.36057 0.32766 0.17742
 C552 C 0.33057 0.32778 0.17212
 C553 C 0.31931 0.34570 0.14851
 C554 C 0.33766 0.36320 0.13056
 C555 C 0.38727 0.38145 0.11624
 C556 C 0.38139 0.38563 0.08487
 C557 C 0.39922 0.40363 0.06685
 C558 C 0.42354 0.41760 0.07968
 C559 C 0.42978 0.41309 0.11087
 C560 C 0.41177 0.39534 0.12900
 H561 H 0.36984 0.31376 0.19526
 H562 H 0.29622 0.34652 0.14423
 H563 H 0.39417 0.40639 0.04275
 H564 H 0.44823 0.42389 0.12140
 H565 H 0.32817 0.37726 0.11301
 H566 H 0.36311 0.37478 0.07410
 H567 H 0.40207 0.34378 0.16346
 H568 H 0.41672 0.39303 0.15315
 C569 C 0.13307 0.13628 0.13690
 C570 C 0.12266 0.16304 0.14926
 C571 C 0.14058 0.18086 0.16738
 C572 C 0.16942 0.17244 0.17328
 C573 C 0.17981 0.14569 0.16071
 C574 C 0.16180 0.12775 0.14286
 C575 C 0.11407 0.11734 0.11774
 C576 C 0.11328 0.08638 0.12229
 C577 C 0.09546 0.06850 0.10414
 C578 C 0.07834 0.08120 0.08085
 C579 C 0.07918 0.11215 0.07626
 C580 C 0.09675 0.13007 0.09464
 H581 H 0.13168 0.20101 0.17712
 H582 H 0.20204 0.13878 0.16426
 H583 H 0.09538 0.04468 0.10800
 H584 H 0.06602 0.12252 0.05862
 H585 H 0.17048 0.10742 0.13324
 H586 H 0.12626 0.07604 0.14010
 H587 H 0.10048 0.16994 0.14532
 H588 H 0.09713 0.15385 0.09051
 C589 C 0.13204 0.63659 0.63593
 C590 C 0.12246 0.66399 0.64755
 C591 C 0.14091 0.68166 0.66523
 C592 C 0.16946 0.67243 0.67146
 C593 C 0.17906 0.64508 0.65957
 C594 C 0.16053 0.62733 0.64211
 C595 C 0.11238 0.61764 0.61751
 C596 C 0.11103 0.58682 0.62287
 C597 C 0.09258 0.56890 0.60550
 C598 C 0.07529 0.58138 0.58223
 C599 C 0.07666 0.61219 0.57682
 C600 C 0.09492 0.63017 0.59440
 H601 H 0.13262 0.70231 0.67445
 H602 H 0.20104 0.63754 0.66341
 H603 H 0.09215 0.54518 0.60997
 H604 H 0.06341 0.62242 0.55918
 H605 H 0.16861 0.60651 0.63305
 H606 H 0.12407 0.57662 0.64071
 H607 H 0.10049 0.67149 0.64345
 H608 H 0.09569 0.65383 0.58965
 C609 C 0.63213 0.13431 0.63280
 C610 C 0.62111 0.16036 0.64620
 C611 C 0.63880 0.17828 0.66448
 C612 C 0.66794 0.17060 0.66966
 C613 C 0.67898 0.14465 0.65601
 C614 C 0.66127 0.12670 0.63785
 C615 C 0.61331 0.11502 0.61374
 C616 C 0.61465 0.08389 0.61674
 C617 C 0.59701 0.06566 0.59879
 C618 C 0.57772 0.07815 0.57734
 C619 C 0.57639 0.10927 0.57431
 C620 C 0.59393 0.12752 0.59239
 H621 H 0.62951 0.19787 0.67501
 H622 H 0.70145 0.13840 0.65905
 H623 H 0.59871 0.04175 0.60144
 H624 H 0.56155 0.11953 0.55816
 H625 H 0.67049 0.10703 0.62740
 H626 H 0.62916 0.07363 0.63322
 H627 H 0.59864 0.16657 0.64303
 H628 H 0.59261 0.15142 0.58940
 C629 C 0.63483 0.63632 0.13251
 C630 C 0.62521 0.66356 0.14447
 C631 C 0.64373 0.68119 0.16210
 C632 C 0.67239 0.67209 0.16793
 C633 C 0.68203 0.64492 0.15568
 C634 C 0.66343 0.62719 0.13827
 C635 C 0.61507 0.61737 0.11423
 C636 C 0.61389 0.58652 0.11946
 C637 C 0.59526 0.56861 0.10230
 C638 C 0.57761 0.58113 0.07935
 C639 C 0.57883 0.61197 0.07404
 C640 C 0.59727 0.62993 0.09142
 H641 H 0.63541 0.70171 0.17161
 H642 H 0.70410 0.63748 0.15921
 H643 H 0.59494 0.54488 0.10669
 H644 H 0.56531 0.62222 0.05664
 H645 H 0.67153 0.60648 0.12895
 H646 H 0.62718 0.57630 0.13708
 H647 H 0.60315 0.67095 0.14070
 H648 H 0.59790 0.65361 0.08677
   
