data_POSCAR
  _audit_creation_date              2014-09-24
  _audit_creation_method            'ToBaCCo'
  _symmetry_space_group_name_H-M    'P1'
  _symmetry_Int_Tables_number       1
  _symmetry_cell_setting            triclinic
  loop_
  _symmetry_equiv_pos_as_xyz
 x,y,z
_cell_length_a 41.5404
_cell_length_b 41.9340
_cell_length_c 14.4997
_cell_angle_alpha 89.989000
_cell_angle_beta 90.221400
_cell_angle_gamma 119.531300
loop_
  _atom_site_label
  _atom_site_type_symbol
  _atom_site_fract_x
  _atom_site_fract_y
  _atom_site_fract_z
C1 C 0.15796 0.47529 0.48511
 C2 C 0.17786 0.48116 0.40266
 C3 C 0.21671 0.49810 0.40748
 C4 C 0.23582 0.51001 0.49271
 C5 C 0.21495 0.50754 0.57178
 C6 C 0.17611 0.48811 0.57005
 C7 C 0.27627 0.52114 0.50154
 C8 C 0.29114 0.51892 0.58797
 C9 C 0.32673 0.52333 0.59519
 C10 C 0.34795 0.52954 0.51612
 C11 C 0.33385 0.53101 0.42976
 C12 C 0.29914 0.52898 0.42301
 H13 H 0.12809 0.46311 0.48269
 H14 H 0.23121 0.49974 0.34457
 H15 H 0.22849 0.51876 0.63692
 H16 H 0.27482 0.51121 0.65006
 H17 H 0.37443 0.53038 0.52108
 H18 H 0.28961 0.53100 0.35507
 C19 C 0.51548 -0.33073 0.48485
 C20 C 0.52242 -0.31081 0.40316
 C21 C 0.52482 -0.27631 0.40632
 C22 C 0.51637 -0.26321 0.48775
 C23 C 0.50815 -0.28489 0.56845
 C24 C 0.50928 -0.31788 0.56826
 C25 C 0.51620 -0.22730 0.48735
 C26 C 0.51710 -0.20875 0.57011
 C27 C 0.51704 -0.17528 0.56733
 C28 C 0.51835 -0.15897 0.48253
 C29 C 0.51670 -0.17694 0.40028
 C30 C 0.51476 -0.21114 0.40281
 H31 H 0.51511 -0.35679 0.48351
 H32 H 0.53432 -0.25975 0.34486
 H33 H 0.50001 -0.27708 0.63137
 H34 H 0.51769 -0.21974 0.63702
 H35 H 0.51950 -0.13261 0.48070
 H36 H 0.51180 -0.22469 0.33754
 C37 C 1.33955 0.83402 0.53147
 C38 C 1.32932 0.81726 0.44429
 C39 C 1.29447 0.78557 0.43448
 C40 C 1.27004 0.77070 0.51041
 C41 C 1.28070 0.78977 0.59535
 C42 C 1.31575 0.82033 0.60697
 C43 C 1.23432 0.73498 0.50299
 C44 C 1.21734 0.71408 0.58324
 C45 C 1.18399 0.68062 0.57838
 C46 C 1.16901 0.66684 0.49117
 C47 C 1.18658 0.68543 0.41054
 C48 C 1.21801 0.72013 0.41630
 H49 H 1.36582 0.85898 0.54037
 H50 H 1.28780 0.77183 0.36849
 H51 H 1.26203 0.78134 0.65334
 H52 H 1.23074 0.72250 0.64978
 H53 H 1.14381 0.64061 0.48519
 H54 H 1.22990 0.73438 0.35265
 C55 C 0.84417 0.51920 0.48979
 C56 C 0.82922 0.52465 0.40937
 C57 C 0.79436 0.52201 0.41321
 C58 C 0.77133 0.50695 0.49157
 C59 C 0.78645 0.49914 0.57052
 C60 C 0.82306 0.50573 0.56974
 C61 C 0.73114 0.49660 0.48653
 C62 C 0.70959 0.49194 0.56647
 C63 C 0.67136 0.48051 0.55922
 C64 C 0.65624 0.47771 0.47060
 C65 C 0.67715 0.48272 0.39174
 C66 C 0.71366 0.49054 0.39959
 H67 H 0.87205 0.52328 0.48858
 H68 H 0.78506 0.53017 0.35259
 H69 H 0.76985 0.48667 0.63103
 H70 H 0.72204 0.49622 0.63415
 H71 H 0.62829 0.47307 0.46239
 H72 H 0.72801 0.49223 0.33628
 C73 C 0.47323 0.31946 0.51684
 C74 C 0.48555 0.31063 0.43643
 C75 C 0.49756 0.28466 0.43968
 C76 C 0.49572 0.26591 0.52273
 C77 C 0.48452 0.27669 0.60347
 C78 C 0.47339 0.30326 0.60126
 C79 C 0.50315 0.23404 0.52470
 C80 C 0.50710 0.21916 0.60952
 C81 C 0.50811 0.18616 0.61182
 C82 C 0.50920 0.16999 0.52866
 C83 C 0.50664 0.18438 0.44448
 C84 C 0.50271 0.21568 0.44215
 H85 H 0.46518 0.34043 0.51414
 H86 H 0.50781 0.27928 0.37666
 H87 H 0.48204 0.26343 0.66873
 H88 H 0.50691 0.23125 0.67484
 H89 H 0.51082 0.14491 0.52951
 H90 H 0.49808 0.22433 0.37569
 C91 C 0.65777 0.17400 0.48346
 C92 C 0.68088 0.18818 0.40654
 C93 C 0.71445 0.22119 0.41597
 C94 C 0.72339 0.24171 0.49900
 C95 C 0.69912 0.22668 0.57452
 C96 C 0.66783 0.19196 0.56823
 C97 C 0.75823 0.27790 0.50816
 C98 C 0.77482 0.29128 0.59562
 C99 C 0.80632 0.32597 0.60445
 C100 C 0.82226 0.34673 0.52546
 C101 C 0.80816 0.33317 0.43780
 C102 C 0.77567 0.29929 0.42939
 H103 H 0.63286 0.14748 0.47907
 H104 H 0.73370 0.23000 0.35919
 H105 H 0.70486 0.24075 0.64004
 H106 H 0.76390 0.27498 0.65726
 H107 H 0.84788 0.37237 0.53166
 H108 H 0.76480 0.28966 0.36099
 O109 O 0.94712 0.42389 0.17754
 O110 O 0.90906 0.43745 0.09321
 C111 C 0.91464 0.41936 0.15770
 O112 O 1.06345 0.58442 0.15223
 O113 O 1.09988 0.56664 0.07304
 C114 C 1.09523 0.58761 0.13162
 O115 O 0.96138 0.54340 0.15930
 O116 O 0.91592 0.49423 0.08200
 C117 C 0.92681 0.52146 0.13919
 O118 O 1.04805 0.45832 0.15964
 O119 O 1.09236 0.50464 0.07289
 C120 C 1.08197 0.47813 0.13245
 Zr121 Zr 0.99977 0.46007 0.12333
 O122 O 1.00697 0.46958 0.26746
 O123 O 0.98951 0.40615 0.14662
 Zr124 Zr 1.00989 0.54462 0.11030
 O125 O 1.01422 0.54978 0.25569
 O126 O 1.01556 0.59716 0.09209
 O127 O 0.97205 0.48983 0.13728
 O128 O 1.03741 0.51519 0.13208
 O129 O 1.04559 0.45652 -0.15987
 O130 O 1.09126 0.50528 -0.08078
 C131 C 1.08016 0.47899 -0.14102
 O132 O 0.95661 0.52982 -0.18078
 O133 O 0.91335 0.48766 -0.08245
 C134 C 0.92273 0.50807 -0.15537
 O135 O 1.06001 0.57770 -0.16877
 O136 O 1.09842 0.56344 -0.08539
 C137 C 1.09237 0.58237 -0.14705
 O138 O 0.94231 0.41646 -0.15375
 O139 O 0.90627 0.43263 -0.06755
 C140 C 0.91045 0.41231 -0.12843
 Zr141 Zr 0.99669 0.45420 -0.10868
 O142 O 0.99162 0.44764 -0.25388
 O143 O 0.98881 0.40052 -0.09617
 Zr144 Zr 1.00701 0.53919 -0.12003
 O145 O 1.00994 0.54069 -0.26562
 O146 O 1.00838 0.59036 -0.12046
 Zr147 Zr 0.94818 0.47772 0.00449
 Zr148 Zr 1.05874 0.52094 -0.00193
 O149 O 1.03363 0.50899 -0.13331
 O150 O 0.96918 0.48342 -0.13036
 O151 O 1.03015 0.46316 0.00614
 O152 O 0.97663 0.53522 -0.00465
 O153 O 0.96547 0.43828 0.01013
 O154 O 1.04251 0.56129 -0.00741
 H155 H 1.05482 0.52231 0.18485
 H156 H 0.96199 0.54801 -0.00916
 H157 H 1.04936 0.51500 -0.18880
 H158 H 0.94668 0.41196 0.01411
 H159 H 1.01711 0.60725 0.15479
 H160 H 1.03034 0.60772 -0.08422
 H161 H 0.99680 0.51495 -0.28700
 H162 H 1.01270 0.46908 -0.28278
 H163 H 1.01028 0.40227 -0.06200
 H164 H 0.98927 0.39563 0.08554
 H165 H 0.98429 0.46858 0.29197
 H166 H 0.99270 0.52793 0.28192
 O167 O 0.42953 0.48451 0.18871
 O168 O 0.44015 0.53272 0.09453
 C169 C 0.42425 0.51138 0.16408
 O170 O 0.59037 0.52386 0.12076
 O171 O 0.56781 0.46739 0.05415
 C172 C 0.59227 0.49445 0.10298
 O173 O 0.54927 0.58524 0.13868
 O174 O 0.49658 0.57971 0.07334
 C175 C 0.52570 0.59667 0.12521
 O176 O 0.46646 0.41919 0.17777
 O177 O 0.50962 0.41809 0.08111
 C178 C 0.48710 0.40576 0.15066
 Zr179 Zr 0.46409 0.46574 0.13110
 O180 O 0.47949 0.47414 0.27229
 O181 O 0.41178 0.42220 0.16952
 Zr182 Zr 0.54884 0.53746 0.09072
 O183 O 0.56075 0.54223 0.23378
 O184 O 0.60061 0.58444 0.06431
 O185 O 0.49511 0.52268 0.13159
 O186 O 0.51983 0.48259 0.12527
 O187 O 0.44652 0.40613 -0.14076
 O188 O 0.49822 0.41037 -0.07280
 C189 C 0.46855 0.39330 -0.12340
 O190 O 0.52429 0.56894 -0.19275
 O191 O 0.48513 0.57282 -0.08751
 C192 C 0.50445 0.58282 -0.16233
 O193 O 0.56926 0.51005 -0.19292
 O194 O 0.55793 0.46088 -0.10107
 C195 C 0.57440 0.48300 -0.16955
 O196 O 0.41029 0.47140 -0.14342
 O197 O 0.42987 0.52539 -0.06531
 C198 C 0.40773 0.50011 -0.12213
 Zr199 Zr 0.44816 0.45485 -0.09792
 O200 O 0.43718 0.44367 -0.24036
 O201 O 0.39401 0.41233 -0.06773
 Zr202 Zr 0.53312 0.52701 -0.13698
 O203 O 0.52681 0.51964 -0.28169
 O204 O 0.58589 0.57389 -0.15083
 Zr205 Zr 0.47730 0.52997 0.00086
 Zr206 Zr 0.51937 0.46208 -0.00759
 O207 O 0.50168 0.47052 -0.13683
 O208 O 0.47688 0.51013 -0.13313
 O209 O 0.46187 0.43428 0.01718
 O210 O 0.53463 0.55732 -0.02348
 O211 O 0.43750 0.47462 0.02126
 O212 O 0.56001 0.51722 -0.02859
 H213 H 0.52983 0.47491 0.17762
 H214 H 0.54782 0.58429 -0.03120
 H215 H 0.50430 0.45822 -0.19219
 H216 H 0.41132 0.46811 0.02943
 H217 H 0.61262 0.57796 0.01457
 H218 H 0.58982 0.57861 -0.21794
 H219 H 0.50260 0.51724 -0.29832
 H220 H 0.44740 0.46752 -0.27221
 H221 H 0.39632 0.39295 -0.03440
 H222 H 0.39700 0.41314 0.11239
 H223 H 0.47911 0.49642 0.29320
 H224 H 0.53997 0.54262 0.26580
 O225 O 0.48609 0.04954 0.20690
 O226 O 0.52676 0.09097 0.10423
 C227 C 0.50762 0.08301 0.17919
 O228 O 0.54595 -0.05215 0.12406
 O229 O 0.49007 -0.09238 0.05969
 C230 C 0.51914 -0.08527 0.10803
 O231 O 0.59545 0.05023 0.13933
 O232 O 0.58000 0.09108 0.07714
 C233 C 0.60119 0.08325 0.12713
 O234 O 0.43447 -0.05350 0.20027
 O235 O 0.43738 -0.09301 0.09499
 C236 C 0.42532 -0.08621 0.17095
 Zr237 Zr 0.47144 -0.00139 0.14313
 O238 O 0.47735 -0.00222 0.28794
 O239 O 0.42060 -0.00203 0.15889
 Zr240 Zr 0.55177 -0.00015 0.09210
 O241 O 0.56282 -0.00458 0.23274
 O242 O 0.60304 0.00437 0.05390
 O243 O 0.52881 0.03150 0.13825
 O244 O 0.49764 -0.03208 0.13182
 O245 O 0.40840 -0.04978 -0.11663
 O246 O 0.42482 -0.09098 -0.06207
 C247 C 0.40247 -0.08291 -0.10645
 O248 O 0.57095 0.05463 -0.18955
 O249 O 0.56812 0.09371 -0.08288
 C250 C 0.57996 0.08713 -0.15895
 O251 O 0.52625 -0.04798 -0.18991
 O252 O 0.48198 -0.09024 -0.09387
 C253 C 0.50396 -0.08145 -0.16455
 O254 O 0.46207 0.05221 -0.12240
 O255 O 0.51731 0.09241 -0.05518
 C256 C 0.48906 0.08524 -0.10692
 Zr257 Zr 0.45479 0.00050 -0.08233
 O258 O 0.44158 -0.00254 -0.22438
 O259 O 0.40699 0.00388 -0.04889
 Zr260 Zr 0.53499 0.00210 -0.13339
 O261 O 0.52174 -0.00111 -0.27549
 O262 O 0.58723 0.00781 -0.16569
 Zr263 Zr 0.52990 0.05491 0.00884
 Zr264 Zr 0.47643 -0.05473 0.00127
 O265 O 0.47809 -0.03052 -0.12697
 O266 O 0.50935 0.03384 -0.12367
 O267 O 0.44079 -0.03380 0.03228
 O268 O 0.56479 0.03329 -0.02177
 O269 O 0.47304 0.03172 0.03601
 O270 O 0.53343 -0.03194 -0.02655
 H271 H 0.49457 -0.04780 0.18503
 H272 H 0.59143 0.05045 -0.03180
 H273 H 0.46628 -0.04666 -0.18099
 H274 H 0.46274 0.04821 0.04763
 H275 H 0.59784 -0.01894 0.02419
 H276 H 0.58977 -0.01093 -0.13002
 H277 H 0.51830 0.02004 -0.29038
 H278 H 0.46337 0.01714 -0.25600
 H279 H 0.39275 -0.01559 -0.00333
 H280 H 0.41691 -0.00157 0.22622
 H281 H 0.49626 -0.00948 0.29998
 H282 H 0.55727 0.01238 0.26778
 C283 C 1.14766 0.49842 0.17771
 C284 C 1.17187 0.49899 0.24603
 C285 C 1.15882 0.47263 0.31689
 C286 C 1.12408 0.44051 0.30350
 C287 C 1.10027 0.43920 0.23152
 C288 C 1.11034 0.47089 0.17704
 C289 C 1.06757 0.40587 0.21541
 N290 N 1.05876 0.37652 0.27020
 N291 N 1.08074 0.37800 0.33905
 C292 C 1.11320 0.40884 0.35705
 H293 H 1.15725 0.52174 0.13197
 H294 H 1.19908 0.52301 0.25052
 H295 H 1.04990 0.40228 0.15707
 H296 H 1.13087 0.40796 0.41073
 C297 C 0.55397 0.63822 0.25765
 C298 C 0.55256 0.66023 0.32670
 C299 C 0.52820 0.67434 0.32151
 C300 C 0.50769 0.66913 0.23832
 C301 C 0.51035 0.64757 0.16571
 C302 C 0.53115 0.62924 0.17949
 C303 C 0.49150 0.64475 0.08255
 N304 N 0.46919 0.65970 0.07536
 N305 N 0.46437 0.67728 0.14560
 C306 C 0.48248 0.68220 0.22683
 H307 H 0.57131 0.62601 0.26961
 H308 H 0.56958 0.66483 0.38754
 H309 H 0.49481 0.63165 0.02226
 H310 H 0.47648 0.69597 0.28119
 C311 C 0.36298 -0.13531 0.21975
 C312 C 0.33923 -0.15990 0.28605
 C313 C 0.35332 -0.16643 0.36814
 C314 C 0.39222 -0.15189 0.37584
 C315 C 0.41622 -0.12689 0.30890
 C316 C 0.40143 -0.11729 0.23226
 C317 C 0.45449 -0.11225 0.32137
 N318 N 0.46767 -0.12262 0.39417
 N319 N 0.44514 -0.14719 0.45488
 C320 C 0.40795 -0.16256 0.44746
 H321 H 0.35120 -0.12872 0.16090
 H322 H 0.30971 -0.17099 0.27689
 H323 H 0.47406 -0.09362 0.27288
 H324 H 0.39097 -0.18332 0.49691
 C325 C 0.91157 0.55454 0.25810
 C326 C 0.88756 0.55596 0.32219
 C327 C 0.84991 0.52972 0.32185
 C328 C 0.83541 0.50503 0.24584
 C329 C 0.85970 0.50592 0.17543
 C330 C 0.89870 0.52782 0.18808
 C331 C 0.84380 0.48474 0.09551
 N332 N 0.80682 0.46171 0.09074
 N333 N 0.78461 0.45819 0.16049
 C334 C 0.79764 0.47864 0.23815
 H335 H 0.94085 0.57328 0.26759
 H336 H 0.89915 0.57564 0.37805
 H337 H 0.85983 0.48714 0.03505
 H338 H 0.77804 0.47401 0.29188
 C339 C 0.51914 0.38192 0.24934
 C340 C 0.51890 0.35882 0.31909
 C341 C 0.48554 0.32923 0.34941
 C342 C 0.45212 0.32142 0.30426
 C343 C 0.45243 0.34472 0.23282
 C344 C 0.48613 0.37596 0.20749
 C345 C 0.41874 0.33608 0.18956
 N346 N 0.38694 0.30634 0.21712
 N347 N 0.38659 0.28469 0.28480
 C348 C 0.41804 0.29121 0.32933
 H349 H 0.54495 0.40620 0.23291
 H350 H 0.54463 0.36548 0.35373
 H351 H 0.41746 0.35243 0.13343
 H352 H 0.41619 0.27256 0.38330
 C353 C 0.64121 0.10260 0.26524
 C354 C 0.66068 0.12834 0.33306
 C355 C 0.67064 0.16524 0.32145
 C356 C 0.66606 0.17716 0.23299
 C357 C 0.64754 0.15081 0.16189
 C358 C 0.63172 0.11287 0.18182
 C359 C 0.64560 0.16344 0.07336
 N360 N 0.65966 0.19981 0.05831
 N361 N 0.67520 0.22430 0.12589
 C362 C 0.67847 0.21422 0.21282
 H363 H 0.63099 0.07403 0.28190
 H364 H 0.66533 0.11875 0.39854
 H365 H 0.63389 0.14490 0.01555
 H366 H 0.69085 0.23539 0.26451
 C367 C 0.46578 0.10507 -0.23832
 C368 C 0.47188 0.12930 -0.30936
 C369 C 0.50139 0.16545 -0.30674
 C370 C 0.52304 0.17818 -0.22485
 C371 C 0.51605 0.15336 -0.15038
 C372 C 0.48915 0.11557 -0.16103
 C373 C 0.53667 0.16735 -0.06861
 N374 N 0.56423 0.20269 -0.06458
 N375 N 0.57253 0.22507 -0.13653
 C376 C 0.55310 0.21401 -0.21656
 H377 H 0.44405 0.07699 -0.24819
 H378 H 0.45377 0.11913 -0.36912
 H379 H 0.53057 0.15103 -0.00689
 H380 H 0.56161 0.23329 -0.27288
 C381 C 0.63771 0.50127 -0.22412
 C382 C 0.66193 0.50021 -0.28932
 C383 C 0.64859 0.47475 -0.36248
 C384 C 0.61061 0.44682 -0.36100
 C385 C 0.58601 0.44864 -0.29634
 C386 C 0.59963 0.47655 -0.22854
 C387 C 0.54817 0.42283 -0.30351
 N388 N 0.53623 0.39570 -0.36725
 N389 N 0.55959 0.39229 -0.42347
 C390 C 0.59634 0.41652 -0.42157
 H391 H 0.64853 0.52282 -0.17259
 H392 H 0.69058 0.52173 -0.28708
 H393 H 0.52801 0.42372 -0.25867
 H394 H 0.61410 0.41182 -0.46730
 C395 C 0.85158 0.39343 -0.21024
 C396 C 0.82632 0.37252 -0.27853
 C397 C 0.82410 0.33990 -0.31061
 C398 C 0.84634 0.32700 -0.26775
 C399 C 0.87277 0.34897 -0.19981
 C400 C 0.87703 0.38364 -0.17599
 C401 C 0.89445 0.33563 -0.15847
 N402 N 0.89080 0.30310 -0.18589
 N403 N 0.86701 0.28309 -0.25189
 C404 C 0.84485 0.29397 -0.29409
 H405 H 0.85347 0.41919 -0.19040
 H406 H 0.80965 0.38292 -0.31019
 H407 H 0.91379 0.35044 -0.10355
 H408 H 0.82628 0.27658 -0.34742
 C409 C 0.53997 -0.10508 -0.24672
 C410 C 0.54360 -0.12812 -0.31011
 C411 C 0.51236 -0.15788 -0.34871
 C412 C 0.47677 -0.16548 -0.31972
 C413 C 0.47293 -0.14160 -0.25658
 C414 C 0.50500 -0.11068 -0.22063
 C415 C 0.43701 -0.14856 -0.23633
 N416 N 0.40728 -0.17802 -0.27373
 N417 N 0.41088 -0.20087 -0.33090
 C418 C 0.44458 -0.19550 -0.35556
 H419 H 0.56488 -0.08164 -0.22061
 H420 H 0.57100 -0.12156 -0.33287
 H421 H 0.43207 -0.13080 -0.19233
 H422 H 0.44592 -0.21466 -0.40320
 C423 C 0.39041 0.54113 -0.20380
 C424 C 0.37133 0.54665 -0.27555
 C425 C 0.34069 0.51696 -0.31675
 C426 C 0.32709 0.48133 -0.27968
 C427 C 0.34625 0.47587 -0.20567
 C428 C 0.37981 0.50565 -0.17264
 C429 C 0.33134 0.44052 -0.16789
 N430 N 0.30038 0.41233 -0.20507
 N431 N 0.28335 0.41713 -0.27729
 C432 C 0.29569 0.45056 -0.31613
 H433 H 0.41545 0.56445 -0.17803
 H434 H 0.38189 0.57406 -0.30287
 H435 H 0.34357 0.43520 -0.10809
 H436 H 0.28072 0.45264 -0.37474
 C437 C 1.13454 0.59743 -0.27723
 C438 C 1.15575 0.62145 -0.34643
 C439 C 1.16688 0.65910 -0.34246
 C440 C 1.15772 0.67273 -0.26220
 C441 C 1.13619 0.64786 -0.19136
 C442 C 1.12355 0.60996 -0.20116
 C443 C 1.12658 0.66147 -0.11390
 N444 N 1.13697 0.69752 -0.10867
 N445 N 1.15581 0.72067 -0.17625
 C446 C 1.16611 0.70953 -0.25299
 H447 H 1.12453 0.56839 -0.28636
 H448 H 1.16284 0.61017 -0.40519
 H449 H 1.11091 0.64371 -0.05754
 H450 H 1.17997 0.72957 -0.30630
 C451 C 0.87053 0.51784 -0.20159
 C452 C 0.84473 0.51575 -0.26710
 C453 C 0.84033 0.49733 -0.35099
 C454 C 0.85995 0.47805 -0.36539
 C455 C 0.88774 0.48225 -0.30234
 C456 C 0.89325 0.50269 -0.22034
 C457 C 0.90938 0.46591 -0.32410
 N458 N 0.90278 0.44612 -0.40269
 N459 N 0.87574 0.44118 -0.46046
 C460 C 0.85370 0.45585 -0.44374
 H461 H 0.87427 0.53312 -0.13845
 H462 H 0.82998 0.53062 -0.25491
 H463 H 0.93117 0.46826 -0.27919
 H464 H 0.83168 0.45034 -0.49222
 C465 C 0.48936 0.34961 -0.17401
 C466 C 0.49060 0.32730 -0.24360
 C467 C 0.46487 0.31545 -0.31659
 C468 C 0.43305 0.31943 -0.30779
 C469 C 0.43037 0.33974 -0.23288
 C470 C 0.46128 0.35904 -0.17270
 C471 C 0.39662 0.33952 -0.22073
 N472 N 0.36862 0.32201 -0.28225
 N473 N 0.37170 0.30408 -0.35433
 C474 C 0.40278 0.30195 -0.36886
 H475 H 0.51251 0.36229 -0.12648
 H476 H 0.51459 0.32355 -0.24665
 H477 H 0.39137 0.35146 -0.16086
 H478 H 0.40303 0.28558 -0.42617
 C479 C 0.59043 0.13626 -0.26806
 C480 C 0.61188 0.16214 -0.33415
 C481 C 0.64876 0.17112 -0.34830
 C482 C 0.66483 0.15498 -0.29175
 C483 C 0.64294 0.12874 -0.22466
 C484 C 0.60525 0.11855 -0.21541
 C485 C 0.65939 0.11292 -0.16998
 N486 N 0.69532 0.12247 -0.18305
 N487 N 0.71577 0.14659 -0.24733
 C488 C 0.70178 0.16300 -0.30237
 H489 H 0.56151 0.12853 -0.26153
 H490 H 0.59915 0.17389 -0.37765
 H491 H 0.64410 0.09321 -0.11680
 H492 H 0.71975 0.18206 -0.35367
 C493 C 1.14119 0.51018 -0.21828
 C494 C 1.16440 0.51275 -0.29040
 C495 C 1.15548 0.48261 -0.34823
 C496 C 1.12517 0.44788 -0.32350
 C497 C 1.10206 0.44515 -0.24834
 C498 C 1.10860 0.47724 -0.19982
 C499 C 1.07387 0.41006 -0.22242
 N500 N 1.06879 0.38002 -0.26954
 N501 N 1.09038 0.38252 -0.33986
 C502 C 1.11855 0.41524 -0.36771
 H503 H 1.14756 0.53500 -0.18098
 H504 H 1.18771 0.53946 -0.30581
 H505 H 1.05683 0.40592 -0.16284
 H506 H 1.13626 0.41518 -0.42192
 C507 C 0.47898 0.59825 -0.29556
 C508 C 0.47913 0.62275 -0.35978
 C509 C 0.50373 0.66070 -0.35197
 C510 C 0.52647 0.67411 -0.27134
 C511 C 0.52549 0.64870 -0.20470
 C512 C 0.50256 0.61067 -0.21949
 C513 C 0.54898 0.66206 -0.12741
 N514 N 0.57231 0.69851 -0.11781
 N515 N 0.57411 0.72235 -0.18102
 C516 C 0.55247 0.71147 -0.25768
 H517 H 0.46119 0.56913 -0.30724
 H518 H 0.46099 0.61168 -0.41922
 H519 H 0.54916 0.64383 -0.07490
 H520 H 0.55644 0.73228 -0.30699
 C521 C 0.35745 -0.09949 -0.23405
 C522 C 0.33672 -0.12293 -0.30474
 C523 C 0.32779 -0.15964 -0.30404
 C524 C 0.33561 -0.17409 -0.22383
 C525 C 0.35650 -0.15009 -0.15035
 C526 C 0.37041 -0.11176 -0.15971
 C527 C 0.36295 -0.16545 -0.07103
 N528 N 0.35071 -0.20197 -0.06739
 N529 N 0.33244 -0.22416 -0.13750
 C530 C 0.32457 -0.21150 -0.21561
 H531 H 0.36603 -0.07075 -0.24280
 H532 H 0.33006 -0.11160 -0.36428
 H533 H 0.37665 -0.14911 -0.01090
 H534 H 0.30977 -0.23083 -0.27015
 C535 C 0.55177 -0.10577 0.21493
 C536 C 0.55039 -0.12699 0.28985
 C537 C 0.51786 -0.15909 0.31142
 C538 C 0.48717 -0.17212 0.25063
 C539 C 0.48899 -0.15122 0.17143
 C540 C 0.52048 -0.11570 0.15893
 C541 C 0.45878 -0.16665 0.10961
 N542 N 0.42816 -0.19887 0.12990
 N543 N 0.42567 -0.21705 0.20717
 C544 C 0.45409 -0.20480 0.26818
 H545 H 0.57687 -0.07979 0.20566
 H546 H 0.57441 -0.11719 0.33455
 H547 H 0.45940 -0.15458 0.04360
 H548 H 0.45050 -0.22079 0.32962
 C549 C 0.41000 0.55140 0.26083
 C550 C 0.38785 0.55629 0.32501
 C551 C 0.35271 0.52735 0.34742
 C552 C 0.33891 0.49325 0.30100
 C553 C 0.36130 0.48847 0.23517
 C554 C 0.39769 0.51729 0.21838
 C555 C 0.34654 0.45465 0.18865
 N556 N 0.31224 0.42714 0.20958
 N557 N 0.29171 0.43113 0.27386
 C558 C 0.30388 0.46307 0.32055
 H559 H 0.43771 0.57374 0.24818
 H560 H 0.39891 0.58229 0.36087
 H561 H 0.36172 0.44990 0.13526
 H562 H 0.28592 0.46433 0.37225
 C563 C 1.13265 0.65120 0.18989
 C564 C 1.15527 0.67576 0.25799
 C565 C 1.17356 0.66527 0.32211
 C566 C 1.17176 0.63088 0.31230
 C567 C 1.14710 0.60518 0.24741
 C568 C 1.12717 0.61536 0.18556
 C569 C 1.14109 0.56923 0.25240
 N570 N 1.16037 0.56058 0.31346
 N571 N 1.18546 0.58543 0.36998
 C572 C 1.19200 0.62039 0.37106
 H573 H 1.11708 0.65926 0.14471
 H574 H 1.15618 0.70191 0.26505
 H575 H 1.12087 0.54776 0.20978
 H576 H 1.21242 0.63952 0.41900
 C577 C 0.47706 0.10344 0.29118
 C578 C 0.47566 0.12812 0.35230
 C579 C 0.50530 0.16373 0.36067
 C580 C 0.53590 0.17562 0.30114
 C581 C 0.53765 0.15051 0.23774
 C582 C 0.50822 0.11320 0.23559
 C583 C 0.56941 0.16398 0.18193
 N584 N 0.59641 0.19948 0.18829
 N585 N 0.59465 0.22261 0.24796
 C586 C 0.56552 0.21179 0.30527
 H587 H 0.45361 0.07591 0.28960
 H588 H 0.45201 0.11867 0.39763
 H589 H 0.57381 0.14742 0.13312
 H590 H 0.56569 0.23172 0.35276
 C591 C 0.64872 0.52232 0.19920
 C592 C 0.66803 0.51914 0.27351
 C593 C 0.66203 0.48482 0.30136
 C594 C 0.64004 0.45374 0.24624
 C595 C 0.62137 0.45710 0.16761
 C596 C 0.62248 0.49116 0.15062
 C597 C 0.60229 0.42608 0.11048
 N598 N 0.60019 0.39382 0.13432
 N599 N 0.61610 0.39040 0.21075
 C600 C 0.63596 0.41928 0.26757
 H601 H 0.65208 0.54917 0.18523
 H602 H 0.68582 0.54337 0.31373
 H603 H 0.59011 0.42709 0.04561
 H604 H 0.64893 0.41525 0.32795
 C605 C 0.89273 0.37746 0.29099
 C606 C 0.86752 0.35738 0.35862
 C607 C 0.83159 0.35201 0.35680
 C608 C 0.82000 0.36486 0.28027
 C609 C 0.84534 0.38394 0.20744
 C610 C 0.88317 0.39268 0.21641
 C611 C 0.83125 0.39277 0.12881
 N612 N 0.79560 0.38543 0.12670
 N613 N 0.77290 0.36997 0.19757
 C614 C 0.78394 0.35965 0.27445
 H615 H 0.92055 0.38192 0.29980
 H616 H 0.87666 0.34682 0.41516
 H617 H 0.84719 0.40404 0.06723
 H618 H 0.76432 0.34724 0.32987
   
