data_POSCAR
  _audit_creation_date              2014-09-24
  _audit_creation_method            'ToBaCCo'
  _symmetry_space_group_name_H-M    'P1'
  _symmetry_Int_Tables_number       1
  _symmetry_cell_setting            triclinic
  loop_
  _symmetry_equiv_pos_as_xyz
 x,y,z
_cell_length_a 30.9451
_cell_length_b 30.9471
_cell_length_c 45.9657
_cell_angle_alpha 89.927400
_cell_angle_beta 90.053100
_cell_angle_gamma 89.991400
loop_
  _atom_site_label
  _atom_site_type_symbol
  _atom_site_fract_x
  _atom_site_fract_y
  _atom_site_fract_z
O1 O -0.03816 0.54147 0.97066
 O2 O -0.03854 0.45820 1.02680
 O3 O -0.03493 0.54243 1.02722
 O4 O -0.03492 0.45726 0.97025
 O5 O 0.03632 0.45838 0.97066
 O6 O 0.03630 0.54092 1.02716
 O7 O 0.03262 0.45669 1.02720
 O8 O 0.03307 0.54260 0.97058
 Cu9 Cu -0.04370 0.49986 0.99872
 Cu10 Cu 0.04164 0.49964 0.99892
 C11 C -0.00295 0.55667 0.96103
 C12 C -0.00350 0.44269 1.03662
 C13 C 0.00116 0.55620 1.03683
 C14 C 0.00117 0.44331 0.96081
 O15 O 0.45875 -0.03760 0.47070
 O16 O 0.54198 -0.03797 0.52685
 O17 O 0.45775 -0.03436 0.52726
 O18 O 0.54297 -0.03435 0.47030
 O19 O 0.54182 0.03688 0.47061
 O20 O 0.45923 0.03687 0.52709
 O21 O 0.54347 0.03318 0.52715
 O22 O 0.45761 0.03364 0.47051
 Cu23 Cu 0.50035 -0.04313 0.49878
 Cu24 Cu 0.50054 0.04220 0.49885
 C25 C 0.44356 -0.00238 0.46101
 C26 C 0.55748 -0.00294 0.53662
 C27 C 0.44396 0.00172 0.53681
 C28 C 0.55692 0.00174 0.46081
 C29 C -0.05410 0.01174 0.26499
 C30 C -0.01682 0.01718 0.24821
 C31 C -0.01150 0.05450 0.23139
 C32 C -0.04352 0.08665 0.23103
 C33 C -0.08083 0.08097 0.24813
 C34 C -0.08638 0.04364 0.26527
 C35 C 0.01675 -0.01635 0.24823
 C36 C 0.01131 -0.05369 0.23151
 C37 C 0.04322 -0.08596 0.23128
 C38 C 0.08057 -0.08034 0.24839
 C39 C 0.08624 -0.04298 0.26543
 C40 C 0.05407 -0.01097 0.26503
 H41 H -0.05735 -0.01698 0.27832
 H42 H 0.01720 0.05785 0.21808
 H43 H -0.01742 -0.05699 0.21821
 H44 H 0.05740 0.01776 0.27829
 H45 H -0.10562 0.10567 0.24809
 H46 H 0.10526 -0.10512 0.24847
 C47 C -0.01170 -0.05361 0.76512
 C48 C -0.01709 -0.01635 0.74825
 C49 C -0.05438 -0.01102 0.73140
 C50 C -0.08655 -0.04302 0.73109
 C51 C -0.08093 -0.08030 0.74827
 C52 C -0.04363 -0.08585 0.76545
 C53 C 0.01643 0.01721 0.74824
 C54 C 0.05380 0.01178 0.73155
 C55 C 0.08604 0.04371 0.73126
 C56 C 0.08037 0.08107 0.74830
 C57 C 0.04297 0.08674 0.76531
 C58 C 0.01100 0.05454 0.76496
 H59 H 0.01699 -0.05687 0.77848
 H60 H -0.05769 0.01766 0.71803
 H61 H 0.05714 -0.01696 0.71829
 H62 H -0.01775 0.05787 0.77821
 H63 H -0.10564 -0.10506 0.74827
 H64 H 0.10512 0.10578 0.74833
 C65 C 0.00932 -0.34114 0.09989
 C66 C -0.03132 -0.35548 0.09005
 C67 C -0.03438 -0.38926 0.06982
 C68 C 0.00314 -0.40933 0.05914
 C69 C 0.04357 -0.39540 0.06945
 C70 C 0.04662 -0.36183 0.08949
 C71 C 0.01350 -0.30432 0.12034
 N72 N 0.05315 -0.28828 0.12696
 N73 N 0.05746 -0.25478 0.14482
 C74 C 0.02231 -0.23580 0.15694
 N75 N -0.01744 -0.25189 0.15046
 N76 N -0.02177 -0.28543 0.13249
 C77 C 0.02750 -0.19799 0.17643
 C78 C -0.00792 -0.18090 0.19168
 C79 C -0.00277 -0.14488 0.20972
 C80 C 0.03786 -0.12500 0.21280
 C81 C 0.07326 -0.14223 0.19762
 C82 C 0.06818 -0.17832 0.17974
 H83 H -0.06071 -0.34025 0.09764
 H84 H -0.06600 -0.39928 0.06230
 H85 H 0.07319 -0.41018 0.06182
 H86 H 0.07845 -0.35192 0.09665
 H87 H -0.03964 -0.19539 0.18977
 H88 H -0.03059 -0.13278 0.22144
 H89 H 0.10483 -0.12731 0.19910
 H90 H 0.09616 -0.19044 0.16821
 C91 C -0.01118 0.34126 0.09854
 C92 C 0.02937 0.35656 0.08928
 C93 C 0.03226 0.39040 0.06904
 C94 C -0.00540 0.40969 0.05766
 C95 C -0.04582 0.39462 0.06746
 C96 C -0.04862 0.36099 0.08752
 C97 C -0.01512 0.30448 0.11911
 N98 N -0.05461 0.28786 0.12545
 N99 N -0.05870 0.25443 0.14346
 C100 C -0.02347 0.23611 0.15600
 N101 N 0.01613 0.25277 0.14979
 N102 N 0.02024 0.28624 0.13168
 C103 C -0.02843 0.19839 0.17566
 C104 C 0.00708 0.18164 0.19107
 C105 C 0.00214 0.14571 0.20927
 C106 C -0.03837 0.12560 0.21237
 C107 C -0.07386 0.14249 0.19704
 C108 C -0.06898 0.17847 0.17899
 H109 H 0.05887 0.34207 0.09739
 H110 H 0.06398 0.40108 0.06213
 H111 H -0.07571 0.40850 0.05947
 H112 H -0.08041 0.35031 0.09422
 H113 H 0.03871 0.19632 0.18915
 H114 H 0.03001 0.13386 0.22109
 H115 H -0.10533 0.12737 0.19853
 H116 H -0.09702 0.19032 0.16735
 C117 C 0.34127 0.00987 0.59987
 C118 C 0.35565 -0.03077 0.59010
 C119 C 0.38943 -0.03382 0.56987
 C120 C 0.40947 0.00370 0.55912
 C121 C 0.39550 0.04413 0.56935
 C122 C 0.36191 0.04717 0.58939
 C123 C 0.30444 0.01405 0.62032
 N124 N 0.28837 0.05369 0.62687
 N125 N 0.25487 0.05799 0.64474
 C126 C 0.23592 0.02284 0.65694
 N127 N 0.25205 -0.01691 0.65052
 N128 N 0.28559 -0.02123 0.63255
 C129 C 0.19811 0.02802 0.67643
 C130 C 0.18105 -0.00740 0.69175
 C131 C 0.14503 -0.00226 0.70979
 C132 C 0.12511 0.03836 0.71279
 C133 C 0.14231 0.07376 0.69755
 C134 C 0.17840 0.06869 0.67967
 H135 H 0.34044 -0.06016 0.59776
 H136 H 0.39949 -0.06544 0.56241
 H137 H 0.41024 0.07375 0.56166
 H138 H 0.35197 0.07900 0.59649
 H139 H 0.19557 -0.03911 0.68989
 H140 H 0.13295 -0.03007 0.72156
 H141 H 0.12735 0.10532 0.69896
 H142 H 0.19049 0.09666 0.66809
 C143 C -0.34111 -0.01062 0.59855
 C144 C -0.35641 0.02993 0.58923
 C145 C -0.39025 0.03282 0.56898
 C146 C -0.40953 -0.00483 0.55767
 C147 C -0.39446 -0.04525 0.56753
 C148 C -0.36083 -0.04806 0.58759
 C149 C -0.30433 -0.01456 0.61912
 N150 N -0.28771 -0.05406 0.62553
 N151 N -0.25429 -0.05815 0.64353
 C152 C -0.23596 -0.02292 0.65601
 N153 N -0.25262 0.01668 0.64973
 N154 N -0.28609 0.02080 0.63163
 C155 C -0.19825 -0.02788 0.67568
 C156 C -0.18149 0.00763 0.69102
 C157 C -0.14557 0.00268 0.70923
 C158 C -0.12548 -0.03785 0.71241
 C159 C -0.14238 -0.07333 0.69715
 C160 C -0.17835 -0.06845 0.67909
 H161 H -0.34193 0.05943 0.59729
 H162 H -0.40093 0.06454 0.56203
 H163 H -0.40834 -0.07514 0.55959
 H164 H -0.35015 -0.07985 0.59434
 H165 H -0.19615 0.03926 0.68903
 H166 H -0.13370 0.03055 0.72100
 H167 H -0.12727 -0.10481 0.69870
 H168 H -0.19020 -0.09649 0.66750
 C169 C -0.01066 -0.34034 0.89801
 C170 C 0.02993 -0.35508 0.90772
 C171 C 0.03284 -0.38892 0.92797
 C172 C -0.00478 -0.40865 0.93880
 C173 C -0.04517 -0.39427 0.92866
 C174 C -0.04806 -0.36063 0.90861
 C175 C -0.01468 -0.30355 0.87746
 N176 N -0.05425 -0.28726 0.87086
 N177 N -0.05842 -0.25384 0.85285
 C178 C -0.02320 -0.23519 0.84056
 N179 N 0.01648 -0.25152 0.84703
 N180 N 0.02067 -0.28498 0.86514
 C181 C -0.02825 -0.19749 0.82089
 C182 C 0.00724 -0.18061 0.80558
 C183 C 0.00221 -0.14472 0.78735
 C184 C -0.03838 -0.12476 0.78414
 C185 C -0.07385 -0.14178 0.79938
 C186 C -0.06888 -0.17774 0.81745
 H187 H 0.05940 -0.34015 0.89997
 H188 H 0.06442 -0.39931 0.93535
 H189 H -0.07486 -0.40875 0.93643
 H190 H -0.07986 -0.35039 0.90157
 H191 H 0.03892 -0.19517 0.80759
 H192 H 0.03007 -0.13277 0.77560
 H193 H -0.10538 -0.12678 0.79780
 H194 H -0.09691 -0.18969 0.82902
 C195 C 0.00931 0.34095 0.89754
 C196 C 0.04664 0.36126 0.90825
 C197 C 0.04361 0.39472 0.92838
 C198 C 0.00316 0.40889 0.93846
 C199 C -0.03439 0.38917 0.92749
 C200 C -0.03134 0.35551 0.90718
 C201 C 0.01347 0.30430 0.87695
 N202 N -0.02181 0.28571 0.86456
 N203 N -0.01751 0.25232 0.84645
 C204 C 0.02221 0.23610 0.84008
 N205 N 0.05737 0.25478 0.85244
 N206 N 0.05308 0.28813 0.87044
 C207 C 0.02738 0.19845 0.82045
 C208 C 0.06802 0.17869 0.81717
 C209 C 0.07306 0.14273 0.79919
 C210 C 0.03766 0.12571 0.78386
 C211 C -0.00293 0.14569 0.78689
 C212 C -0.00804 0.18158 0.80503
 H213 H 0.07848 0.35117 0.90127
 H214 H 0.07324 0.40922 0.93625
 H215 H -0.06601 0.39939 0.93483
 H216 H -0.06075 0.34056 0.89934
 H217 H 0.09599 0.19064 0.82882
 H218 H 0.10459 0.12771 0.79776
 H219 H -0.03073 0.13374 0.77506
 H220 H -0.03973 0.19615 0.80692
 C221 C -0.34064 0.00989 0.39756
 C222 C -0.36101 0.04721 0.40819
 C223 C -0.39449 0.04418 0.42831
 C224 C -0.40863 0.00373 0.43847
 C225 C -0.38885 -0.03381 0.42758
 C226 C -0.35517 -0.03076 0.40727
 C227 C -0.30396 0.01405 0.37698
 N228 N -0.28530 -0.02122 0.36467
 N229 N -0.25190 -0.01691 0.34657
 C230 C -0.23573 0.02282 0.34011
 N231 N -0.25448 0.05797 0.35238
 N232 N -0.28785 0.05368 0.37038
 C233 C -0.19806 0.02799 0.32047
 C234 C -0.17840 0.06866 0.31708
 C235 C -0.14243 0.07372 0.29908
 C236 C -0.12532 0.03831 0.28385
 C237 C -0.14521 -0.00231 0.28700
 C238 C -0.18111 -0.00744 0.30516
 H239 H -0.35095 0.07905 0.40114
 H240 H -0.40904 0.07380 0.43611
 H241 H -0.39905 -0.06543 0.43498
 H242 H -0.34017 -0.06016 0.39950
 H243 H -0.19041 0.09664 0.32865
 H244 H -0.12749 0.10527 0.29755
 H245 H -0.13320 -0.03013 0.27526
 H246 H -0.19560 -0.03915 0.30714
 C247 C 0.34065 -0.01009 0.39796
 C248 C 0.36090 -0.04750 0.40865
 C249 C 0.39451 -0.04460 0.42871
 C250 C 0.40890 -0.00422 0.43877
 C251 C 0.38922 0.03340 0.42785
 C252 C 0.35541 0.03050 0.40758
 C253 C 0.30390 -0.01410 0.37739
 N254 N 0.28539 0.02124 0.36497
 N255 N 0.25196 0.01705 0.34686
 C256 C 0.23559 -0.02261 0.34048
 N257 N 0.25418 -0.05783 0.35287
 N258 N 0.28758 -0.05366 0.37088
 C259 C 0.19791 -0.02765 0.32080
 C260 C 0.17808 -0.06825 0.31749
 C261 C 0.14212 -0.07320 0.29943
 C262 C 0.12518 -0.03775 0.28408
 C263 C 0.14522 0.00279 0.28716
 C264 C 0.18111 0.00781 0.30538
 H265 H 0.35066 -0.07929 0.40167
 H266 H 0.40896 -0.07429 0.43655
 H267 H 0.39961 0.06499 0.43517
 H268 H 0.34051 0.05996 0.39976
 H269 H 0.18997 -0.09626 0.32914
 H270 H 0.12706 -0.10470 0.29796
 H271 H 0.13333 0.03064 0.27532
 H272 H 0.19574 0.03947 0.30729
   
