data_POSCAR
  _audit_creation_date              2014-09-24
  _audit_creation_method            'ToBaCCo'
  _symmetry_space_group_name_H-M    'P1'
  _symmetry_Int_Tables_number       1
  _symmetry_cell_setting            triclinic
  loop_
  _symmetry_equiv_pos_as_xyz
 x,y,z
_cell_length_a 37.5153
_cell_length_b 46.6825
_cell_length_c 21.5241
_cell_angle_alpha 89.565600
_cell_angle_beta 90.567400
_cell_angle_gamma 129.154200
loop_
  _atom_site_label
  _atom_site_type_symbol
  _atom_site_fract_x
  _atom_site_fract_y
  _atom_site_fract_z
C1 C 0.50961 0.92364 0.50314
 C2 C 0.51994 0.94314 0.55896
 C3 C 0.52120 0.97389 0.55861
 C4 C 0.50901 0.98380 0.50531
 C5 C 0.49717 0.96287 0.45086
 C6 C 0.49889 0.93375 0.44879
 C7 C 0.50755 1.01521 0.50705
 C8 C 0.51369 1.03486 0.45262
 C9 C 0.51030 1.06321 0.45328
 C10 C 0.50439 1.07402 0.51066
 C11 C 0.50028 1.05597 0.56593
 C12 C 0.50023 1.02599 0.56331
 H13 H 0.50703 0.89929 0.50229
 H14 H 0.53156 0.98993 0.60074
 H15 H 0.48603 0.96872 0.40964
 H16 H 0.52109 1.02816 0.40911
 H17 H 0.50612 1.09795 0.51314
 H18 H 0.49459 1.01131 0.60598
 C19 C 0.11958 0.56783 0.48595
 C20 C 0.09903 0.56506 0.54247
 C21 C 0.05069 0.54056 0.54575
 C22 C 0.02312 0.51600 0.49651
 C23 C 0.04556 0.51770 0.44253
 C24 C 0.09305 0.54481 0.43576
 C25 C -0.02858 0.48911 0.50091
 C26 C -0.05625 0.47391 0.44674
 C27 C -0.10448 0.44834 0.44962
 C28 C -0.12548 0.43898 0.50826
 C29 C -0.09899 0.45398 0.56283
 C30 C -0.05093 0.47848 0.55894
 H31 H 0.15624 0.58795 0.47960
 H32 H 0.03499 0.54065 0.58747
 H33 H 0.02659 0.49874 0.40444
 H34 H -0.04068 0.48250 0.40132
 H35 H -0.16237 0.42004 0.51243
 H36 H -0.03153 0.48835 0.60190
 C37 C 0.50458 0.58028 0.50647
 C38 C 0.49616 0.55933 0.55995
 C39 C 0.49774 0.53014 0.55495
 C40 C 0.51180 0.52393 0.49951
 C41 C 0.52165 0.54641 0.44748
 C42 C 0.51570 0.57310 0.44985
 C43 C 0.51534 0.49372 0.49587
 C44 C 0.50943 0.47642 0.43887
 C45 C 0.51306 0.44837 0.43517
 C46 C 0.52059 0.43612 0.48973
 C47 C 0.52596 0.45254 0.54707
 C48 C 0.52483 0.48195 0.54946
 H49 H 0.50105 0.60149 0.50746
 H50 H 0.48839 0.51251 0.59493
 H51 H 0.53284 0.54279 0.40427
 H52 H 0.50168 0.48438 0.39677
 H53 H 0.52477 0.41525 0.48740
 H54 H 0.53152 0.49556 0.59356
 O55 O 0.47351 0.70776 -0.06280
 O56 O 0.48724 0.76905 -0.04708
 C57 C 0.46470 0.77466 -0.08215
 O58 O 0.42194 0.75728 -0.07685
 O59 O 0.33771 0.69533 -0.06970
 C60 C 0.32958 0.66846 -0.10015
 O61 O 0.34386 0.65123 -0.08345
 O62 O 0.40945 0.64959 -0.05093
 C63 C 0.44773 0.67396 -0.07721
 O64 O 0.46380 0.69438 0.06096
 O65 O 0.47333 0.75435 0.07638
 C66 C 0.45597 0.77010 0.08408
 O67 O 0.42607 0.76580 0.04747
 O68 O 0.34392 0.70286 0.05524
 C69 C 0.31722 0.66852 0.06562
 O70 O 0.31964 0.64606 0.03695
 O71 O 0.38833 0.64847 0.06950
 C72 C 0.42928 0.66573 0.08803
 Cr73 Cr 0.47202 0.73037 0.00654
 Cr74 Cr 0.38331 0.72931 -0.01075
 Cr75 Cr 0.36684 0.65083 -0.00688
 O76 O 0.40742 0.70354 -0.00373
 O77 O 0.51332 0.28655 -0.05643
 O78 O 0.51252 0.23068 -0.06718
 C79 C 0.53338 0.21790 -0.07597
 O80 O 0.56734 0.22677 -0.04283
 O81 O 0.64415 0.29232 -0.06239
 C82 C 0.66650 0.32579 -0.07739
 O83 O 0.66207 0.34747 -0.04999
 O84 O 0.58589 0.33619 -0.07526
 C85 C 0.54336 0.31525 -0.08804
 O86 O 0.51367 0.27977 0.06890
 O87 O 0.50856 0.22188 0.05792
 C88 C 0.53637 0.22106 0.09062
 O89 O 0.57905 0.24157 0.08013
 O90 O 0.65814 0.30637 0.06142
 C91 C 0.66342 0.33273 0.08971
 O92 O 0.64439 0.34614 0.07248
 O93 O 0.57140 0.33875 0.04647
 C94 C 0.53641 0.31394 0.07835
 Cr95 Cr 0.51446 0.25592 0.00085
 Cr96 Cr 0.61105 0.26759 0.00886
 Cr97 Cr 0.61470 0.34016 -0.00147
 O98 O 0.58003 0.28784 0.00266
 C99 C 0.52522 0.93139 -0.38371
 C100 C 0.52737 0.90273 -0.37589
 C101 C 0.51782 0.88441 -0.31528
 N102 N 0.52772 0.86135 -0.30518
 N103 N 0.51517 0.84201 -0.25252
 C104 C 0.49182 0.84477 -0.20842
 N105 N 0.48204 0.86786 -0.21851
 N106 N 0.49496 0.88743 -0.27078
 C107 C 0.47322 0.82084 -0.15328
 C108 C 0.48928 0.80263 -0.13152
 H109 H 0.53406 0.89215 -0.41459
 H110 H 0.44512 0.81693 -0.12940
 H111 H 0.52555 0.94438 -0.34189
 H112 H 0.52016 0.80902 -0.15072
 C113 C 0.12506 0.58543 -0.40418
 C114 C 0.17246 0.60473 -0.39832
 C115 C 0.19808 0.62111 -0.33978
 N116 N 0.23969 0.62943 -0.33380
 N117 N 0.26328 0.64297 -0.28083
 C118 C 0.24638 0.64905 -0.23182
 N119 N 0.20506 0.64142 -0.23803
 N120 N 0.18117 0.62749 -0.29104
 C121 C 0.27195 0.66258 -0.17260
 C122 C 0.30282 0.65633 -0.15806
 H123 H 0.19171 0.60485 -0.43533
 H124 H 0.26477 0.67553 -0.13914
 H125 H 0.10696 0.58366 -0.36347
 H126 H 0.30610 0.64011 -0.18955
 C127 C 0.48513 0.56611 -0.38247
 C128 C 0.49302 0.59893 -0.36858
 C129 C 0.48008 0.60552 -0.30948
 N130 N 0.49773 0.64044 -0.29489
 N131 N 0.48555 0.64731 -0.24285
 C132 C 0.45496 0.61950 -0.20347
 N133 N 0.43705 0.58443 -0.21811
 N134 N 0.44951 0.57755 -0.27015
 C135 C 0.44031 0.62722 -0.14717
 C136 C 0.46367 0.66345 -0.12735
 H137 H 0.51195 0.62212 -0.40022
 H138 H 0.41049 0.60445 -0.12213
 H139 H 0.47222 0.54582 -0.34568
 H140 H 0.49468 0.68571 -0.15124
 C141 C 0.50064 0.06989 -0.37221
 C142 C 0.48903 0.09257 -0.36233
 C143 C 0.49874 0.11178 -0.30295
 N144 N 0.48355 0.13114 -0.29357
 N145 N 0.49432 0.15043 -0.24157
 C146 C 0.52095 0.15129 -0.19710
 N147 N 0.53611 0.13189 -0.20642
 N148 N 0.52516 0.11245 -0.25834
 C149 C 0.53493 0.17404 -0.14091
 C150 C 0.51690 0.19177 -0.12761
 H151 H 0.47349 0.09729 -0.39927
 H152 H 0.56052 0.17751 -0.11035
 H153 H 0.51206 0.06285 -0.33288
 H154 H 0.49018 0.18710 -0.15730
 C155 C 0.87878 0.44516 -0.37570
 C156 C 0.83690 0.41070 -0.36286
 C157 C 0.81107 0.40230 -0.30538
 N158 N 0.77419 0.36682 -0.29307
 N159 N 0.74890 0.35843 -0.24281
 C160 C 0.75920 0.38519 -0.20301
 N161 N 0.79601 0.42082 -0.21542
 N162 N 0.82157 0.42924 -0.26570
 C163 C 0.73048 0.37558 -0.14785
 C164 C 0.69846 0.33882 -0.12941
 H165 H 0.82213 0.38860 -0.39635
 H166 H 0.73475 0.39728 -0.12158
 H167 H 0.89604 0.46603 -0.33969
 H168 H 0.69658 0.31786 -0.15450
 C169 C 0.53516 0.44069 -0.39534
 C170 C 0.51545 0.40392 -0.38385
 C171 C 0.52544 0.39260 -0.32670
 N172 N 0.49921 0.35630 -0.31113
 N173 N 0.50855 0.34573 -0.26004
 C174 C 0.54470 0.37112 -0.22293
 N175 N 0.57101 0.40736 -0.23870
 N176 N 0.56148 0.41793 -0.28947
 C177 C 0.55703 0.36022 -0.16781
 C178 C 0.52811 0.32494 -0.14166
 H179 H 0.49109 0.38271 -0.41677
 H180 H 0.59021 0.38116 -0.14650
 H181 H 0.55582 0.46112 -0.35942
 H182 H 0.49366 0.30449 -0.15990
 C183 C 0.87032 0.43268 0.39373
 C184 C 0.82253 0.41089 0.38848
 C185 C 0.79789 0.39386 0.32952
 N186 N 0.75502 0.38299 0.32213
 N187 N 0.73188 0.36746 0.26932
 C188 C 0.75047 0.36175 0.22207
 N189 N 0.79311 0.37204 0.22974
 N190 N 0.81652 0.38797 0.28249
 C191 C 0.72497 0.34536 0.16326
 C192 C 0.69199 0.34881 0.14598
 H193 H 0.80200 0.40763 0.42695
 H194 H 0.73338 0.33215 0.13255
 H195 H 0.88924 0.43839 0.35137
 H196 H 0.68739 0.36518 0.17482
 C197 C 0.51487 0.08073 0.39687
 C198 C 0.50321 0.10368 0.38822
 C199 C 0.51187 0.12313 0.32911
 N200 N 0.49097 0.13795 0.31655
 N201 N 0.49992 0.15678 0.26411
 C202 C 0.53038 0.16165 0.22260
 N203 N 0.55134 0.14694 0.23530
 N204 N 0.54212 0.12789 0.28741
 C205 C 0.54342 0.18443 0.16664
 C206 C 0.51847 0.19502 0.14311
 H207 H 0.48576 0.10664 0.42407
 H208 H 0.57430 0.19335 0.14297
 H209 H 0.52628 0.07481 0.35647
 H210 H 0.48556 0.18389 0.16289
 C211 C 0.51282 0.43468 0.37322
 C212 C 0.50110 0.40013 0.36381
 C213 C 0.50928 0.38981 0.30444
 N214 N 0.49280 0.35462 0.29548
 N215 N 0.50215 0.34527 0.24351
 C216 C 0.52862 0.37083 0.19867
 N217 N 0.54511 0.40605 0.20759
 N218 N 0.53554 0.41536 0.25947
 C219 C 0.54114 0.36113 0.14263
 C220 C 0.52103 0.32458 0.12918
 H221 H 0.48636 0.38018 0.40131
 H222 H 0.56737 0.38314 0.11239
 H223 H 0.52317 0.45287 0.33371
 H224 H 0.49358 0.30267 0.15836
 C225 C 0.11488 0.54958 0.37551
 C226 C 0.14954 0.58487 0.35265
 C227 C 0.17403 0.59234 0.29434
 N228 N 0.20341 0.62760 0.27346
 N229 N 0.22781 0.63581 0.22234
 C230 C 0.22397 0.60910 0.19006
 N231 N 0.19443 0.57368 0.21080
 N232 N 0.16979 0.56540 0.26204
 C233 C 0.25295 0.61881 0.13524
 C234 C 0.28232 0.65512 0.11358
 H235 H 0.15902 0.60864 0.37851
 H236 H 0.25270 0.59780 0.11366
 H237 H 0.10159 0.52557 0.34726
 H238 H 0.28167 0.67566 0.13529
 C239 C 0.48679 0.91308 0.38993
 C240 C 0.50319 0.89427 0.37471
 C241 C 0.49070 0.87360 0.31636
 N242 N 0.50913 0.85702 0.30329
 N243 N 0.49778 0.83770 0.25117
 C244 C 0.46752 0.83423 0.21013
 N245 N 0.44911 0.85085 0.22315
 N246 N 0.46050 0.87020 0.27529
 C247 C 0.45385 0.81221 0.15310
 C248 C 0.47176 0.79452 0.13823
 H249 H 0.52670 0.89515 0.40579
 H250 H 0.42837 0.80920 0.12297
 H251 H 0.46605 0.91420 0.35622
 H252 H 0.49733 0.79769 0.16842
 C253 C 0.51895 0.59220 0.39230
 C254 C 0.48863 0.59951 0.38167
 C255 C 0.48713 0.61584 0.32420
 N256 N 0.45063 0.61477 0.31382
 N257 N 0.44790 0.62921 0.26233
 C258 C 0.48175 0.64557 0.21930
 N259 N 0.51866 0.64706 0.22990
 N260 N 0.52126 0.63233 0.28141
 C261 C 0.47813 0.66113 0.16210
 C262 C 0.43592 0.65122 0.14372
 H263 H 0.46244 0.59075 0.41574
 H264 H 0.50825 0.67946 0.13348
 H265 H 0.54186 0.59709 0.35573
 H266 H 0.40555 0.63082 0.17061
   
