data_POSCAR
  _audit_creation_date              2014-09-24
  _audit_creation_method            'ToBaCCo'
  _symmetry_space_group_name_H-M    'P1'
  _symmetry_Int_Tables_number       1
  _symmetry_cell_setting            triclinic
  loop_
  _symmetry_equiv_pos_as_xyz
 x,y,z
_cell_length_a 35.4586
_cell_length_b 40.0371
_cell_length_c 44.6373
_cell_angle_alpha 89.746800
_cell_angle_beta 90.165300
_cell_angle_gamma 90.219500
loop_
  _atom_site_label
  _atom_site_type_symbol
  _atom_site_fract_x
  _atom_site_fract_y
  _atom_site_fract_z
B1 B 0.27916 0.24184 0.27763
 B2 B 0.23470 0.22807 0.27158
 B3 B 0.24258 0.26837 0.28127
 B4 B 0.28295 0.28131 0.26445
 B5 B 0.29954 0.24873 0.24412
 B6 B 0.26958 0.21559 0.24886
 B7 B 0.23015 0.26575 0.22150
 B8 B 0.27451 0.27912 0.22709
 B9 B 0.26682 0.23910 0.21788
 B10 B 0.22641 0.22619 0.23451
 B11 B 0.20980 0.25902 0.25491
 B12 B 0.24003 0.29176 0.25010
 B13 B 0.74138 0.76413 0.21798
 B14 B 0.73371 0.72477 0.22965
 B15 B 0.77797 0.73755 0.22262
 B16 B 0.78244 0.77779 0.23330
 B17 B 0.73995 0.78955 0.24752
 B18 B 0.70937 0.75654 0.24520
 B19 B 0.76731 0.73868 0.28239
 B20 B 0.77517 0.77797 0.27074
 B21 B 0.73085 0.76528 0.27774
 B22 B 0.72634 0.72502 0.26704
 B23 B 0.76881 0.71328 0.25290
 B24 B 0.79941 0.74623 0.25519
 B25 B 0.72884 0.23444 -0.28022
 B26 B 0.77401 0.22892 -0.27012
 B27 B 0.75880 0.26733 -0.27892
 B28 B 0.71408 0.27150 -0.26656
 B29 B 0.70213 0.23485 -0.24944
 B30 B 0.73955 0.20823 -0.25168
 B31 B 0.76177 0.26231 -0.21883
 B32 B 0.71659 0.26783 -0.22893
 B33 B 0.73182 0.22942 -0.22013
 B34 B 0.77652 0.22526 -0.23250
 B35 B 0.78847 0.26191 -0.24961
 B36 B 0.75106 0.28853 -0.24736
 B37 B 0.26536 0.76080 -0.28169
 B38 B 0.21978 0.76604 -0.27296
 B39 B 0.23583 0.72757 -0.28020
 B40 B 0.28016 0.72430 -0.26655
 B41 B 0.29093 0.76154 -0.25022
 B42 B 0.25325 0.78762 -0.25421
 B43 B 0.23068 0.73413 -0.22036
 B44 B 0.27629 0.72895 -0.22911
 B45 B 0.26020 0.76737 -0.22184
 B46 B 0.21587 0.77066 -0.23550
 B47 B 0.20508 0.73343 -0.25185
 B48 B 0.24281 0.70732 -0.24782
 B49 B 1.23230 1.26660 0.77829
 B50 B 1.27671 1.27911 0.77155
 B51 B 1.26858 1.23967 0.78259
 B52 B 1.22759 1.22655 0.76707
 B53 B 1.21085 1.25866 0.74552
 B54 B 1.24168 1.29125 0.74850
 B55 B 1.27922 1.23959 0.72265
 B56 B 1.23478 1.22664 0.72990
 B57 B 1.24300 1.26638 0.71837
 B58 B 1.28403 1.27951 0.73407
 B59 B 1.30070 1.24765 0.75556
 B60 B 1.27015 1.21472 0.75264
 B61 B 0.77445 0.74341 0.78025
 B62 B 0.73469 0.72350 0.76988
 B63 B 0.73331 0.76425 0.77936
 B64 B 0.77309 0.78310 0.76689
 B65 B 0.79883 0.75333 0.74917
 B66 B 0.77502 0.71629 0.75127
 B67 B 0.73197 0.76000 0.71893
 B68 B 0.77181 0.77990 0.72926
 B69 B 0.77308 0.73918 0.71980
 B70 B 0.73336 0.72032 0.73230
 B71 B 0.70764 0.75005 0.75001
 B72 B 0.73144 0.78716 0.74785
 B73 B 1.22879 0.73224 0.22116
 B74 B 1.27416 0.72621 0.23053
 B75 B 1.25966 0.76451 0.22066
 B76 B 1.21549 0.77019 0.23380
 B77 B 1.20317 0.73459 0.25248
 B78 B 1.23984 0.70710 0.25039
 B79 B 1.26459 0.76211 0.28081
 B80 B 1.21924 0.76818 0.27148
 B81 B 1.23374 0.72984 0.28132
 B82 B 1.27788 0.72419 0.26817
 B83 B 1.29018 0.75980 0.24952
 B84 B 1.25356 0.78726 0.25158
 B85 B 0.76266 1.26192 0.21836
 B86 B 0.71713 1.26671 0.22752
 B87 B 0.73376 1.22832 0.22083
 B88 B 0.77837 1.22597 0.23403
 B89 B 0.78876 1.26374 0.24951
 B90 B 0.75056 1.28923 0.24544
 B91 B 0.72953 1.23627 0.28058
 B92 B 0.77506 1.23149 0.27142
 B93 B 0.75842 1.26988 0.27812
 B94 B 0.71382 1.27223 0.26491
 B95 B 0.70342 1.23447 0.24943
 B96 B 0.74164 1.20897 0.25350
 N97 N 0.56669 1.02655 0.03264
 N98 N 0.59546 1.04649 0.03844
 N99 N 0.53499 0.95824 0.05376
 N100 N 0.54317 0.93652 0.07523
 N101 N 0.56023 0.95675 0.03229
 N102 N 0.58596 0.93404 0.03848
 N103 N 0.54125 1.02826 0.05394
 N104 N 0.55218 1.04947 0.07487
 C105 C 0.58573 1.06090 0.06455
 C106 C 0.57459 0.92123 0.06494
 N107 N 0.42712 0.96616 0.03327
 N108 N 0.39893 0.94551 0.03887
 N109 N 0.45950 1.03401 0.05469
 N110 N 0.45271 1.05594 0.07610
 N111 N 0.43354 1.03598 0.03368
 N112 N 0.40862 1.05922 0.04014
 N113 N 0.45320 0.96392 0.05415
 N114 N 0.44333 0.94162 0.07462
 Mn115 Mn 0.49722 0.99610 0.05448
 C116 C 0.40970 0.93016 0.06443
 C117 C 0.42125 1.07178 0.06631
 N118 N 0.55917 0.95743 -0.03204
 N119 N 0.58396 0.93405 -0.03845
 N120 N 0.53956 1.02944 -0.05254
 N121 N 0.54947 1.05157 -0.07313
 N122 N 0.56563 1.02728 -0.03166
 N123 N 0.59389 1.04782 -0.03739
 N124 N 0.53314 0.95937 -0.05299
 N125 N 0.53972 0.93730 -0.07430
 Mn126 Mn 0.56309 0.99199 0.00030
 C127 C 0.57111 0.92138 -0.06453
 C128 C 0.58313 1.06303 -0.06302
 N129 N 0.43264 1.03675 -0.03070
 N130 N 0.40792 1.06051 -0.03638
 N131 N 0.45152 0.96519 -0.05230
 N132 N 0.44066 0.94398 -0.07325
 N133 N 0.42603 0.96691 -0.03106
 N134 N 0.39726 0.94696 -0.03692
 N135 N 0.45805 1.03524 -0.05202
 N136 N 0.45113 1.05800 -0.07287
 Mn137 Mn 0.42965 1.00147 0.00131
 Mn138 Mn 0.49556 0.99730 -0.05280
 Cl139 Cl 0.49638 0.99671 0.00083
 C140 C 0.42017 1.07383 -0.06243
 C141 C 0.40709 0.93255 -0.06301
 N142 N 1.06873 0.52564 0.53195
 N143 N 1.09777 0.54536 0.53759
 N144 N 1.03530 0.45792 0.55302
 N145 N 1.04277 0.43595 0.57444
 N146 N 1.06052 0.45594 0.53159
 N147 N 1.08556 0.43262 0.53775
 N148 N 1.04336 0.52780 0.55324
 N149 N 1.05455 0.54910 0.57400
 C150 C 1.08824 0.56007 0.56361
 C151 C 1.07371 0.41997 0.56415
 N152 N 0.92776 0.46785 0.53270
 N153 N 0.89904 0.44782 0.53845
 N154 N 0.96203 0.53511 0.55394
 N155 N 0.95682 0.55796 0.57481
 N156 N 0.93596 0.53756 0.53308
 N157 N 0.91243 0.56205 0.53911
 N158 N 0.95384 0.46517 0.55354
 N159 N 0.94345 0.44319 0.57411
 Mn160 Mn 0.99861 0.49649 0.55377
 C161 C 0.90950 0.43237 0.56405
 C162 C 0.92614 0.57480 0.56490
 N163 N 1.05950 0.45673 0.46726
 N164 N 1.08446 0.43367 0.46042
 N165 N 1.04150 0.52913 0.44682
 N166 N 1.05153 0.55163 0.42659
 N167 N 1.06756 0.52643 0.46766
 N168 N 1.09594 0.54695 0.46228
 N169 N 1.03365 0.45921 0.44621
 N170 N 1.04063 0.43786 0.42437
 Mn171 Mn 1.06425 0.49117 0.49961
 C172 C 1.07195 0.42169 0.43400
 C173 C 1.08529 0.56268 0.43686
 N174 N 0.93483 0.53828 0.46875
 N175 N 0.91037 0.56221 0.46298
 N176 N 0.95204 0.46642 0.44708
 N177 N 0.94067 0.44540 0.42615
 N178 N 0.92662 0.46861 0.46835
 N179 N 0.89740 0.44917 0.46252
 N180 N 0.96010 0.53633 0.44736
 N181 N 0.95331 0.55896 0.42636
 Mn182 Mn 0.93109 0.50308 0.50073
 Mn183 Mn 0.99681 0.49776 0.44653
 Cl184 Cl 0.99769 0.49709 0.50015
 C185 C 0.92263 0.57520 0.43682
 C186 C 0.90686 0.43458 0.43643
 N187 N 1.06418 0.53178 0.03122
 N188 N 1.08929 0.55567 0.03612
 N189 N 1.03608 0.46140 0.05165
 N190 N 1.04134 0.43669 0.07093
 N191 N 1.06219 0.46113 0.03083
 N192 N 1.08593 0.43619 0.03540
 N193 N 1.03810 0.53192 0.05207
 N194 N 1.04470 0.55588 0.07166
 C195 C 1.07650 0.57060 0.06128
 C196 C 1.07229 0.42104 0.06033
 N197 N 0.92817 0.46388 0.03145
 N198 N 0.90325 0.43977 0.03613
 N199 N 0.95683 0.53362 0.05238
 N200 N 0.95252 0.55827 0.07163
 N201 N 0.93032 0.53450 0.03176
 N202 N 0.90723 0.55981 0.03647
 N203 N 0.95473 0.46309 0.05202
 N204 N 0.94862 0.43847 0.07123
 Mn205 Mn 0.99643 0.49749 0.05233
 C206 C 0.91661 0.42405 0.06086
 C207 C 0.92168 0.57447 0.06128
 N208 N 1.06149 0.46197 -0.03394
 N209 N 1.08535 0.43736 -0.03909
 N210 N 1.03690 0.53323 -0.05422
 N211 N 1.04307 0.55774 -0.07352
 N212 N 1.06342 0.53255 -0.03360
 N213 N 1.08838 0.55660 -0.03836
 N214 N 1.03498 0.46269 -0.05457
 N215 N 1.04013 0.43861 -0.07429
 Mn216 Mn 1.06326 0.49686 -0.00138
 C217 C 1.07140 0.42287 -0.06415
 C218 C 1.07506 0.57220 -0.06318
 N219 N 0.92939 0.53513 -0.03304
 N220 N 0.90515 0.55960 -0.03795
 N221 N 0.95357 0.46428 -0.05409
 N222 N 0.94724 0.43984 -0.07327
 N223 N 0.92750 0.46459 -0.03323
 N224 N 0.90272 0.44034 -0.03766
 N225 N 0.95541 0.53480 -0.05394
 N226 N 0.94957 0.55903 -0.07361
 Mn227 Mn 0.92841 0.49955 -0.00075
 Mn228 Mn 0.99522 0.49875 -0.05452
 Cl229 Cl 0.99584 0.49818 -0.00109
 C230 C 0.91833 0.57440 -0.06319
 C231 C 0.91563 0.42506 -0.06257
 N232 N 0.56766 1.03201 0.53191
 N233 N 0.59194 1.05665 0.53634
 N234 N 0.54117 0.96123 0.55251
 N235 N 0.54793 0.93731 0.57230
 N236 N 0.56717 0.96150 0.53159
 N237 N 0.59228 0.93776 0.53659
 N238 N 0.54175 1.03174 0.55290
 N239 N 0.54765 1.05619 0.57214
 C240 C 0.57884 1.07157 0.56138
 C241 C 0.57965 0.92273 0.56188
 N242 N 0.43280 0.96248 0.53252
 N243 N 0.40810 0.93823 0.53726
 N244 N 0.46046 1.03223 0.55365
 N245 N 0.45482 1.05560 0.57393
 N246 N 0.43388 1.03303 0.53307
 N247 N 0.40939 1.05699 0.53889
 N248 N 0.45954 0.96178 0.55297
 N249 N 0.45372 0.93710 0.57217
 Mn250 Mn 0.50073 0.99670 0.55331
 C251 C 0.42175 0.92251 0.56189
 C252 C 0.42312 1.07098 0.56428
 N253 N 0.56597 0.96210 0.46694
 N254 N 0.58981 0.93742 0.46205
 N255 N 0.54018 1.03294 0.44660
 N256 N 0.54571 1.05766 0.42738
 N257 N 0.56672 1.03271 0.46719
 N258 N 0.59106 1.05727 0.46251
 N259 N 0.53927 0.96240 0.44646
 N260 N 0.54424 0.93797 0.42709
 Mn261 Mn 0.56730 0.99710 0.49939
 C262 C 0.57563 0.92249 0.43727
 C263 C 0.57735 1.07270 0.43775
 N264 N 0.43292 1.03386 0.46797
 N265 N 0.40843 1.05810 0.46275
 N266 N 0.45790 0.96308 0.44701
 N267 N 0.45148 0.93892 0.42757
 N268 N 0.43179 0.96325 0.46784
 N269 N 0.40691 0.93914 0.46313
 N270 N 0.45895 1.03351 0.44707
 N271 N 0.45298 1.05744 0.42720
 Mn272 Mn 0.43240 0.99822 0.50036
 Mn273 Mn 0.49908 0.99796 0.44650
 Cl274 Cl 0.49985 0.99750 0.49990
 C275 C 0.42163 1.07271 0.43738
 C276 C 0.41982 0.92409 0.43810
 N277 N 1.07422 1.02655 0.53544
 N278 N 1.10330 1.04525 0.54360
 N279 N 1.03378 0.95964 0.55049
 N280 N 1.03641 0.93575 0.57067
 N281 N 1.06111 0.95756 0.53080
 N282 N 1.08336 0.93212 0.53734
 N283 N 1.04716 1.02834 0.55539
 N284 N 1.05684 1.04824 0.57752
 C285 C 1.09158 1.05880 0.56972
 C286 C 1.06683 0.91846 0.56183
 N287 N 0.92824 0.97679 0.52973
 N288 N 0.89726 0.95969 0.53618
 N289 N 0.96785 1.03996 0.55455
 N290 N 0.96475 1.06083 0.57707
 N291 N 0.94181 1.04565 0.53421
 N292 N 0.92002 1.07063 0.54251
 N293 N 0.95440 0.97124 0.55003
 N294 N 0.94218 0.95017 0.57056
 Mn295 Mn 1.00081 0.99977 0.55275
 C296 C 0.90694 0.94273 0.56137
 C297 C 0.93539 1.08008 0.56896
 N298 N 1.06277 0.96303 0.46613
 N299 N 1.08455 0.93803 0.45781
 N300 N 1.04981 1.03744 0.45045
 N301 N 1.06125 1.05941 0.43044
 N302 N 1.07610 1.03199 0.47064
 N303 N 1.10651 1.05009 0.46462
 N304 N 1.03668 0.96870 0.44582
 N305 N 1.03975 0.94782 0.42330
 Mn306 Mn 1.06910 0.99471 0.50077
 C307 C 1.06917 0.92859 0.43135
 C308 C 1.09620 1.06746 0.43979
 N309 N 0.94345 1.05115 0.46961
 N310 N 0.92098 1.07637 0.46287
 N311 N 0.95737 0.98039 0.44497
 N312 N 0.94728 0.96144 0.42230
 N313 N 0.93021 0.98226 0.46482
 N314 N 0.90062 0.96456 0.45603
 N315 N 0.97075 1.04903 0.44991
 N316 N 0.96789 1.07270 0.42954
 Mn317 Mn 0.93541 1.01402 0.49958
 Mn318 Mn 1.00365 1.00888 0.44767
 Cl319 Cl 1.00223 1.00430 0.50020
 C320 C 0.93739 1.08992 0.43829
 C321 C 0.91219 0.95151 0.42966
 N322 N 0.57839 0.52227 0.03521
 N323 N 0.60918 0.53817 0.04414
 N324 N 0.53347 0.45783 0.04999
 N325 N 0.53432 0.43371 0.07005
 N326 N 0.56048 0.45422 0.03023
 N327 N 0.58079 0.42749 0.03662
 N328 N 0.55134 0.52564 0.05499
 N329 N 0.56271 0.54386 0.07775
 C330 C 0.59847 0.55174 0.07053
 C331 C 0.56330 0.41468 0.06106
 N332 N 0.42945 0.48010 0.02945
 N333 N 0.39765 0.46428 0.03609
 N334 N 0.47290 0.54144 0.05420
 N335 N 0.47012 0.56169 0.07722
 N336 N 0.44708 0.54822 0.03394
 N337 N 0.42584 0.57332 0.04281
 N338 N 0.45541 0.47347 0.04963
 N339 N 0.44238 0.45289 0.07018
 Mn340 Mn 0.50331 0.49963 0.05230
 C341 C 0.40676 0.44697 0.06125
 C342 C 0.44132 0.58179 0.06947
 N343 N 0.56243 0.45988 -0.03434
 N344 N 0.58185 0.43331 -0.04240
 N345 N 0.55473 0.53503 -0.04973
 N346 N 0.56798 0.55603 -0.06988
 N347 N 0.58059 0.52793 -0.02959
 N348 N 0.61242 0.54390 -0.03575
 N349 N 0.53691 0.46713 -0.05469
 N350 N 0.53799 0.44580 -0.07699
 Mn351 Mn 0.57101 0.49097 0.00038
 C352 C 0.56560 0.42467 -0.06875
 C353 C 0.60356 0.56177 -0.06063
 N354 N 0.44902 0.55379 -0.03061
 N355 N 0.42748 0.57953 -0.03765
 N356 N 0.45861 0.48280 -0.05556
 N357 N 0.44780 0.46369 -0.07791
 N358 N 0.43172 0.48556 -0.03557
 N359 N 0.40156 0.46836 -0.04396
 N360 N 0.47629 0.55067 -0.05024
 N361 N 0.47424 0.57415 -0.07087
 Mn362 Mn 0.43879 0.51696 -0.00073
 Mn363 Mn 0.50665 0.50895 -0.05268
 Cl364 Cl 0.50493 0.50415 -0.00018
 C365 C 0.44438 0.59237 -0.06231
 C366 C 0.41248 0.45472 -0.07028
 C367 C 0.28192 1.17416 0.15394
 C368 C 0.31928 1.18094 0.14565
 C369 C 0.33766 1.20888 0.15737
 C370 C 0.31976 1.22886 0.17847
 C371 C 0.28274 1.22158 0.18819
 C372 C 0.26373 1.19435 0.17503
 C373 C 0.34029 1.15786 0.12745
 C374 C 0.35913 1.13854 0.11320
 C375 C 0.38170 1.11576 0.09709
 C376 C 0.40047 1.09597 0.08332
 H377 H 0.26743 1.15244 0.14514
 H378 H 0.36661 1.21435 0.15130
 H379 H 0.33592 1.24901 0.18833
 H380 H 0.23566 1.18738 0.18222
 C381 C 0.85305 0.70172 0.67059
 C382 C 0.83284 0.68629 0.64760
 C383 C 0.79363 0.69012 0.64602
 C384 C 0.77467 0.70856 0.66792
 C385 C 0.79471 0.72364 0.69162
 C386 C 0.83427 0.71991 0.69247
 C387 C 0.85235 0.66404 0.62769
 C388 C 0.86961 0.64464 0.61238
 C389 C 0.89012 0.62110 0.59552
 C390 C 0.90717 0.60034 0.58155
 H391 H 0.88331 0.69848 0.67238
 H392 H 0.77756 0.67784 0.62854
 H393 H 0.74420 0.70977 0.66696
 H394 H 0.85093 0.72951 0.71085
 C395 C 0.72218 0.82607 0.15188
 C396 C 0.68494 0.81776 0.14429
 C397 C 0.66808 0.78963 0.15713
 C398 C 0.68732 0.77103 0.17869
 C399 C 0.72426 0.77980 0.18769
 C400 C 0.74176 0.80721 0.17341
 C401 C 0.66228 0.83961 0.12591
 C402 C 0.64188 0.85782 0.11166
 C403 C 0.61741 0.87930 0.09565
 C404 C 0.59706 0.89806 0.08194
 H405 H 0.73546 0.84801 0.14223
 H406 H 0.63920 0.78308 0.15167
 H407 H 0.67208 0.75093 0.18957
 H408 H 0.76965 0.81538 0.18010
 C409 C 1.21484 0.33664 0.66202
 C410 C 1.18725 0.32086 0.64466
 C411 C 1.18220 0.28635 0.64711
 C412 C 1.20259 0.26813 0.66841
 C413 C 1.22805 0.28406 0.68803
 C414 C 1.23528 0.31842 0.68330
 C415 C 1.16223 0.34046 0.62623
 C416 C 1.14080 0.35744 0.61176
 C417 C 1.11595 0.37816 0.59538
 C418 C 1.09572 0.39670 0.58137
 H419 H 1.21937 0.36335 0.66011
 H420 H 1.16148 0.27367 0.63331
 H421 H 1.19766 0.24178 0.66948
 H422 H 1.25502 0.33190 0.69735
 C423 C 0.72358 1.16980 -0.15052
 C424 C 0.68434 1.16795 -0.14706
 C425 C 0.66092 1.18685 -0.16557
 C426 C 0.67624 1.20682 -0.18798
 C427 C 0.71561 1.20876 -0.19221
 C428 C 0.73919 1.19020 -0.17299
 C429 C 0.66690 1.14532 -0.12618
 C430 C 0.64939 1.12656 -0.11024
 C431 C 0.62677 1.10473 -0.09308
 C432 C 0.60674 1.08594 -0.07919
 H433 H 0.74198 1.15500 -0.13637
 H434 H 0.63053 1.18551 -0.16320
 H435 H 0.65686 1.22047 -0.20218
 H436 H 0.76948 1.19067 -0.17578
 C437 C 1.22583 0.67000 0.35065
 C438 C 1.18678 0.66992 0.35546
 C439 C 1.16362 0.69067 0.33839
 C440 C 1.17892 0.71049 0.31586
 C441 C 1.21803 0.71048 0.31013
 C442 C 1.24144 0.69027 0.32811
 C443 C 1.16911 0.64683 0.37580
 C444 C 1.15152 0.62763 0.39124
 C445 C 1.12889 0.60528 0.40782
 C446 C 1.10887 0.58604 0.42123
 H447 H 1.24399 0.65371 0.36363
 H448 H 1.13336 0.69064 0.34176
 H449 H 1.15966 0.72527 0.30249
 H450 H 1.27147 0.68909 0.32409
 C451 C 0.26605 0.82755 -0.15272
 C452 C 0.30521 0.83012 -0.14873
 C453 C 0.32929 0.81175 -0.16688
 C454 C 0.31474 0.79155 -0.18934
 C455 C 0.27547 0.78878 -0.19407
 C456 C 0.25121 0.80689 -0.17528
 C457 C 0.32204 0.85264 -0.12747
 C458 C 0.33942 0.87109 -0.11120
 C459 C 0.36226 0.89235 -0.09363
 C460 C 0.38270 0.91052 -0.07944
 H461 H 0.24712 0.84189 -0.13884
 H462 H 0.35961 0.81358 -0.16410
 H463 H 0.33469 0.77824 -0.20311
 H464 H 0.22097 0.80575 -0.17843
 C465 C 0.76446 0.33015 0.34719
 C466 C 0.80365 0.33371 0.35039
 C467 C 0.82773 0.31631 0.33150
 C468 C 0.81314 0.29596 0.30918
 C469 C 0.77385 0.29212 0.30530
 C470 C 0.74959 0.30937 0.32473
 C471 C 0.82048 0.35599 0.37183
 C472 C 0.83802 0.37421 0.38822
 C473 C 0.86118 0.39512 0.40584
 C474 C 0.88198 0.41296 0.42003
 H475 H 0.74552 0.34371 0.36168
 H476 H 0.85805 0.31888 0.33371
 H477 H 0.83310 0.28322 0.29498
 H478 H 0.71931 0.30731 0.32227
 C479 C 1.17780 0.33135 0.17142
 C480 C 1.16275 0.31227 0.14825
 C481 C 1.16846 0.27753 0.14826
 C482 C 1.18940 0.26224 0.17147
 C483 C 1.20486 0.28156 0.19484
 C484 C 1.19839 0.31639 0.19432
 C485 C 1.14169 0.32970 0.12520
 C486 C 1.12492 0.34774 0.10791
 C487 C 1.10612 0.37168 0.08971
 C488 C 1.09057 0.39362 0.07564
 H489 H 1.17375 0.35818 0.17179
 H490 H 1.15689 0.26236 0.13042
 H491 H 1.19359 0.23551 0.17105
 H492 H 1.20969 0.33277 0.21133
 C493 C 0.70776 0.79780 0.63997
 C494 C 0.66977 0.80634 0.64367
 C495 C 0.65056 0.79518 0.66912
 C496 C 0.66964 0.77774 0.69168
 C497 C 0.70863 0.77119 0.68943
 C498 C 0.72692 0.78004 0.66249
 C499 C 0.65124 0.82926 0.62327
 C500 C 0.63514 0.84958 0.60770
 C501 C 0.61586 0.87438 0.59081
 C502 C 0.59931 0.89614 0.57726
 H503 H 0.72309 0.80626 0.62038
 H504 H 0.62114 0.80145 0.67229
 H505 H 0.65399 0.77128 0.71166
 H506 H 0.75676 0.77564 0.65966
 C507 C 1.20006 0.66741 -0.16115
 C508 C 1.17086 0.68326 -0.14598
 C509 C 1.16247 0.71669 -0.15273
 C510 C 1.18268 0.73378 -0.17518
 C511 C 1.21145 0.71758 -0.19121
 C512 C 1.21987 0.68416 -0.18357
 C513 C 1.14838 0.66368 -0.12536
 C514 C 1.13061 0.64489 -0.10942
 C515 C 1.11074 0.62083 -0.09213
 C516 C 1.09432 0.59912 -0.07842
 H517 H 1.20674 0.64153 -0.15637
 H518 H 1.13966 0.72921 -0.14131
 H519 H 1.17476 0.75914 -0.18071
 H520 H 1.24122 0.67032 -0.19547
 C521 C 0.70098 1.17030 0.34104
 C522 C 0.67103 1.18567 0.35568
 C523 C 0.66164 1.21873 0.34834
 C524 C 0.68156 1.23588 0.32576
 C525 C 0.71102 1.22009 0.31019
 C526 C 0.72047 1.18708 0.31848
 C527 C 0.64873 1.16581 0.37620
 C528 C 0.63123 1.14670 0.39200
 C529 C 0.61181 1.12220 0.40910
 C530 C 0.59589 1.10009 0.42266
 H531 H 0.70841 1.14469 0.34626
 H532 H 0.63823 1.23086 0.35933
 H533 H 0.67281 1.26087 0.31970
 H534 H 0.74226 1.17347 0.30687
 C535 C 0.83175 0.67031 0.17628
 C536 C 0.84069 0.68708 0.14980
 C537 C 0.83139 0.72099 0.14671
 C538 C 0.81258 0.73770 0.17000
 C539 C 0.80253 0.72055 0.19647
 C540 C 0.81309 0.68667 0.19926
 C541 C 0.85879 0.66818 0.12639
 C542 C 0.87352 0.64931 0.10890
 C543 C 0.89040 0.62469 0.09059
 C544 C 0.90463 0.60230 0.07650
 H545 H 0.83882 0.64416 0.17909
 H546 H 0.83828 0.73438 0.12630
 H547 H 0.80529 0.76369 0.16704
 H548 H 0.80642 0.67207 0.21897
 C549 C 0.31077 1.20556 0.64409
 C550 C 0.34201 1.18606 0.65190
 C551 C 0.35550 1.18680 0.68135
 C552 C 0.33697 1.20558 0.70312
 C553 C 0.30426 1.22406 0.69599
 C554 C 0.29222 1.22454 0.66586
 C555 C 0.35885 1.16346 0.63058
 C556 C 0.37306 1.14344 0.61383
 C557 C 0.39001 1.11895 0.59538
 C558 C 0.40482 1.09738 0.58063
 H559 H 0.29994 1.20525 0.62137
 H560 H 0.37964 1.17186 0.68780
 H561 H 0.34744 1.20421 0.72588
 H562 H 0.26747 1.23806 0.65914
 C563 C 0.82757 0.27990 -0.14970
 C564 C 0.81983 0.31364 -0.14413
 C565 C 0.79167 0.32973 -0.16054
 C566 C 0.77230 0.31288 -0.18308
 C567 C 0.78015 0.27914 -0.18957
 C568 C 0.80780 0.26271 -0.17226
 C569 C 0.84216 0.33324 -0.12353
 C570 C 0.85996 0.35207 -0.10777
 C571 C 0.87991 0.37621 -0.09082
 C572 C 0.89639 0.39803 -0.07743
 H573 H 0.84959 0.26720 -0.13729
 H574 H 0.78553 0.35585 -0.15665
 H575 H 0.75185 0.32687 -0.19601
 H576 H 0.81527 0.23708 -0.17688
 C577 C 0.29797 0.83107 0.33654
 C578 C 0.32418 0.81434 0.35443
 C579 C 0.32992 0.78001 0.35029
 C580 C 0.30998 0.76278 0.32784
 C581 C 0.28414 0.77973 0.30922
 C582 C 0.27841 0.81415 0.31414
 C583 C 0.34629 0.83363 0.37543
 C584 C 0.36397 0.85215 0.39159
 C585 C 0.38387 0.87592 0.40903
 C586 C 0.40040 0.89741 0.42282
 H587 H 0.29333 0.85762 0.33935
 H588 H 0.35038 0.76677 0.36388
 H589 H 0.31571 0.73655 0.32450
 H590 H 0.25919 0.82846 0.30032
 C591 C 1.22087 1.15487 0.32832
 C592 C 1.18312 1.15862 0.33631
 C593 C 1.16038 1.18142 0.32080
 C594 C 1.17606 1.20204 0.29870
 C595 C 1.21501 1.20077 0.29263
 C596 C 1.23652 1.17536 0.30628
 C597 C 1.16799 1.13949 0.36079
 C598 C 1.15486 1.12354 0.38118
 C599 C 1.13774 1.10459 0.40407
 C600 C 1.12053 1.08789 0.42188
 H601 H 1.23843 1.13656 0.33953
 H602 H 1.13083 1.18397 0.32640
 H603 H 1.15820 1.22037 0.28788
 H604 H 1.26579 1.17166 0.30062
 C605 C 0.72652 0.64659 -0.17667
 C606 C 0.69072 0.65126 -0.16442
 C607 C 0.66711 0.67608 -0.17599
 C608 C 0.68004 0.69752 -0.19848
 C609 C 0.71707 0.69490 -0.20930
 C610 C 0.73946 0.66799 -0.19924
 C611 C 0.67800 0.63110 -0.13973
 C612 C 0.66548 0.61490 -0.11926
 C613 C 0.64782 0.59635 -0.09635
 C614 C 0.62952 0.58056 -0.07856
 H615 H 0.74481 0.62708 -0.16820
 H616 H 0.63893 0.67934 -0.16717
 H617 H 0.66123 0.71657 -0.20673
 H618 H 0.76788 0.66457 -0.20744
 C619 C 0.82327 1.19670 0.65785
 C620 C 0.85027 1.17507 0.66942
 C621 C 0.85402 1.17081 0.70043
 C622 C 0.83026 1.18819 0.71987
 C623 C 0.80245 1.20976 0.70833
 C624 C 0.79959 1.21378 0.67701
 C625 C 0.87191 1.15594 0.64877
 C626 C 0.88786 1.13994 0.63007
 C627 C 0.90471 1.12068 0.60770
 C628 C 0.91857 1.10302 0.58917
 H629 H 0.81995 1.19989 0.63385
 H630 H 0.87481 1.15376 0.70951
 H631 H 0.83337 1.18435 0.74376
 H632 H 0.77858 1.22970 0.66687
 C633 C 0.35517 0.66869 0.20177
 C634 C 0.35041 0.67137 0.17071
 C635 C 0.32159 0.69090 0.15887
 C636 C 0.29749 0.70784 0.17782
 C637 C 0.30165 0.70569 0.20919
 C638 C 0.33090 0.68585 0.22098
 C639 C 0.37368 0.65340 0.15033
 C640 C 0.39107 0.63845 0.13172
 C641 C 0.40942 0.62043 0.10925
 C642 C 0.42417 0.60375 0.09040
 H643 H 0.37742 0.65333 0.21109
 H644 H 0.31761 0.69298 0.13485
 H645 H 0.27578 0.72287 0.16751
 H646 H 0.33514 0.68357 0.24492
 C647 C 1.17393 0.79642 0.65245
 C648 C 1.14716 0.81904 0.66244
 C649 C 1.14205 0.82416 0.69317
 C650 C 1.16437 0.80681 0.71393
 C651 C 1.19213 0.78441 0.70401
 C652 C 1.19622 0.77939 0.67292
 C653 C 1.12744 0.83851 0.64058
 C654 C 1.11291 0.85504 0.62131
 C655 C 1.09725 0.87526 0.59883
 C656 C 1.08383 0.89401 0.58074
 H657 H 1.17836 0.79259 0.62870
 H658 H 1.12144 0.84197 0.70103
 H659 H 1.16039 0.81148 0.73757
 H660 H 1.21742 0.76297 0.66397
 C661 C 0.63675 0.32170 0.19337
 C662 C 0.64146 0.31584 0.16270
 C663 C 0.66890 0.29377 0.15289
 C664 C 0.69225 0.27806 0.17344
 C665 C 0.68856 0.28384 0.20445
 C666 C 0.66012 0.30563 0.21422
 C667 C 0.62114 0.33448 0.14065
 C668 C 0.60655 0.35056 0.12112
 C669 C 0.59136 0.37062 0.09835
 C670 C 0.57880 0.38959 0.08007
 H671 H 0.61569 0.33918 0.20108
 H672 H 0.67308 0.28944 0.12917
 H673 H 0.71392 0.26207 0.16457
 H674 H 0.65640 0.31083 0.23780
 C675 C 0.83284 0.85490 0.30012
 C676 C 0.82592 0.85305 0.33098
 C677 C 0.80359 0.82743 0.34251
 C678 C 0.78810 0.80369 0.32349
 C679 C 0.79453 0.80496 0.29232
 C680 C 0.81714 0.83099 0.28084
 C681 C 0.84239 0.87643 0.35150
 C682 C 0.85615 0.89464 0.36992
 C683 C 0.87321 0.91481 0.39187
 C684 C 0.88962 0.93161 0.41000
 H685 H 0.85035 0.87468 0.29101
 H686 H 0.79822 0.82566 0.36636
 H687 H 0.77099 0.78438 0.33359
 H688 H 0.82265 0.83300 0.25706
 C689 C 0.33360 0.35617 -0.19836
 C690 C 0.32691 0.35386 -0.16749
 C691 C 0.30527 0.32766 -0.15613
 C692 C 0.29013 0.30391 -0.17535
 C693 C 0.29625 0.30572 -0.20655
 C694 C 0.31830 0.33225 -0.21782
 C695 C 0.34273 0.37757 -0.14689
 C696 C 0.35612 0.39623 -0.12864
 C697 C 0.37299 0.41706 -0.10704
 C698 C 0.38949 0.43439 -0.08934
 H699 H 0.35055 0.37640 -0.20736
 H700 H 0.30001 0.32555 -0.13229
 H701 H 0.27317 0.28435 -0.16545
 H702 H 0.32352 0.33473 -0.24160
 C703 C 1.16757 0.28039 -0.15101
 C704 C 1.16477 0.31539 -0.15058
 C705 C 1.18351 0.33418 -0.17232
 C706 C 1.20460 0.31856 -0.19438
 C707 C 1.20793 0.28342 -0.19535
 C708 C 1.18905 0.26448 -0.17329
 C709 C 1.14266 0.33318 -0.12865
 C710 C 1.12516 0.35110 -0.11197
 C711 C 1.10568 0.37461 -0.09407
 C712 C 1.08977 0.39607 -0.07993
 H713 H 1.15309 0.26546 -0.13431
 H714 H 1.18172 0.36121 -0.17232
 H715 H 1.21861 0.33451 -0.21053
 H716 H 1.19061 0.23751 -0.17336
 C717 C 0.66959 0.77937 0.35016
 C718 C 0.66520 0.81421 0.34968
 C719 C 0.68121 0.83281 0.32648
 C720 C 0.70143 0.81713 0.30396
 C721 C 0.70650 0.78215 0.30399
 C722 C 0.69011 0.76340 0.32740
 C723 C 0.64440 0.83205 0.37230
 C724 C 0.62779 0.85006 0.38943
 C725 C 0.60914 0.87374 0.40762
 C726 C 0.59372 0.89541 0.42178
 H727 H 0.65721 0.76461 0.36802
 H728 H 0.67812 0.85973 0.32578
 H729 H 0.71355 0.83293 0.28677
 H730 H 0.69312 0.73655 0.32814
 C731 C 0.85435 0.70564 -0.16997
 C732 C 0.83466 0.69507 -0.14454
 C733 C 0.79715 0.70508 -0.14076
 C734 C 0.77882 0.72363 -0.16321
 C735 C 0.79745 0.73188 -0.19016
 C736 C 0.83609 0.72392 -0.19246
 C737 C 0.85195 0.67121 -0.12427
 C738 C 0.86682 0.65010 -0.10876
 C739 C 0.88459 0.62436 -0.09190
 C740 C 0.89992 0.60184 -0.07840
 H741 H 0.88341 0.69823 -0.17322
 H742 H 0.78143 0.69707 -0.12122
 H743 H 0.74918 0.72890 -0.16039
 H744 H 0.85192 0.72980 -0.21249
 C745 C 0.35447 1.18800 0.31951
 C746 C 0.34266 1.18957 0.34931
 C747 C 0.31364 1.21152 0.35703
 C748 C 0.29532 1.23044 0.33483
 C749 C 0.30520 1.22732 0.30441
 C750 C 0.33614 1.20668 0.29735
 C751 C 0.35877 1.16687 0.37117
 C752 C 0.37238 1.14660 0.38822
 C753 C 0.38874 1.12166 0.40684
 C754 C 0.40327 1.09967 0.42150
 H755 H 0.37697 1.17125 0.31314
 H756 H 0.30429 1.21321 0.38005
 H757 H 0.27247 1.24618 0.34160
 H758 H 0.34507 1.20339 0.27439
 C759 C 1.16440 0.71418 0.15107
 C760 C 1.17030 0.67986 0.14695
 C761 C 1.19610 0.66314 0.16522
 C762 C 1.21518 0.68008 0.18789
 C763 C 1.20935 0.71450 0.19273
 C764 C 1.18384 0.73142 0.17381
 C765 C 1.14887 0.66060 0.12545
 C766 C 1.13172 0.64213 0.10886
 C767 C 1.11229 0.61846 0.09093
 C768 C 1.09598 0.59710 0.07680
 H769 H 1.14426 0.72743 0.13718
 H770 H 1.20088 0.63661 0.16244
 H771 H 1.23423 0.66580 0.20188
 H772 H 1.17807 0.75767 0.17705
 C773 C 0.66410 1.21706 0.64994
 C774 C 0.67183 1.18330 0.64444
 C775 C 0.69946 1.16705 0.66130
 C776 C 0.71836 1.18380 0.68413
 C777 C 0.71059 1.21758 0.69049
 C778 C 0.68341 1.23414 0.67281
 C779 C 0.65009 1.16382 0.62337
 C780 C 0.63283 1.14499 0.60724
 C781 C 0.61353 1.12076 0.58994
 C782 C 0.59756 1.09881 0.57634
 H783 H 0.64247 1.22987 0.63719
 H784 H 0.70557 1.14092 0.65747
 H785 H 0.73850 1.16972 0.69730
 H786 H 0.67602 1.25981 0.67732
 C787 C 0.83035 0.27911 0.15041
 C788 C 0.82123 0.31225 0.14313
 C789 C 0.79147 0.32779 0.15787
 C790 C 0.77193 0.31111 0.18047
 C791 C 0.78116 0.27804 0.18872
 C792 C 0.81040 0.26207 0.17303
 C793 C 0.84364 0.33196 0.12256
 C794 C 0.86134 0.35089 0.10671
 C795 C 0.88111 0.37513 0.08955
 C796 C 0.89745 0.39698 0.07596
 H797 H 0.85360 0.26683 0.13933
 H798 H 0.78423 0.35345 0.15268
 H799 H 0.75028 0.32483 0.19214
 H800 H 0.81895 0.23700 0.17903
 C801 C 0.33345 0.77773 0.65056
 C802 C 0.32552 0.81129 0.64398
 C803 C 0.29655 0.82738 0.65923
 C804 C 0.27657 0.81074 0.68160
 C805 C 0.28457 0.77722 0.68912
 C806 C 0.31304 0.76076 0.67296
 C807 C 0.34829 0.83076 0.62350
 C808 C 0.36628 0.84953 0.60772
 C809 C 0.38630 0.87364 0.59063
 C810 C 0.40271 0.89545 0.57706
 H811 H 0.35606 0.76502 0.63906
 H812 H 0.29023 0.85335 0.65456
 H813 H 0.25547 0.82478 0.69361
 H814 H 0.32061 0.73528 0.67837
 C815 C 0.28237 1.17869 -0.14980
 C816 C 0.32022 1.18460 -0.14237
 C817 C 0.33962 1.21095 -0.15601
 C818 C 0.32212 1.23009 -0.17816
 C819 C 0.28458 1.22351 -0.18701
 C820 C 0.26461 1.19805 -0.17192
 C821 C 0.34066 1.16174 -0.12337
 C822 C 0.35900 1.14229 -0.10868
 C823 C 0.38103 1.11908 -0.09241
 C824 C 0.39949 1.09877 -0.07881
 H825 H 0.26713 1.15816 -0.13952
 H826 H 0.36897 1.21566 -0.15062
 H827 H 0.33890 1.24895 -0.18941
 H828 H 0.23605 1.19168 -0.17835
 C829 C 0.78283 0.67789 0.34985
 C830 C 0.82047 0.68470 0.35732
 C831 C 0.83902 0.71162 0.34387
 C832 C 0.82095 0.73045 0.32180
 C833 C 0.78362 0.72300 0.31289
 C834 C 0.76448 0.69693 0.32783
 C835 C 0.84165 0.66216 0.37610
 C836 C 0.86056 0.64298 0.39060
 C837 C 0.88314 0.62006 0.40671
 C838 C 0.90189 0.59996 0.42029
 H839 H 0.76826 0.65688 0.35998
 H840 H 0.86823 0.71700 0.34926
 H841 H 0.83721 0.74967 0.31058
 H842 H 0.73618 0.68980 0.32128
 C843 C 0.66434 1.18177 0.16765
 C844 C 0.68836 1.16373 0.14921
 C845 C 0.72755 1.16701 0.15253
 C846 C 0.74250 1.18814 0.17470
 C847 C 0.71830 1.20599 0.19373
 C848 C 0.67899 1.20245 0.18970
 C849 C 0.67144 1.14099 0.12821
 C850 C 0.65389 1.12241 0.11217
 C851 C 0.63082 1.10109 0.09488
 C852 C 0.61020 1.08292 0.08088
 H853 H 0.63400 1.17942 0.16535
 H854 H 0.74644 1.15294 0.13839
 H855 H 0.77278 1.18994 0.17729
 H856 H 0.65908 1.21562 0.20362
 C857 C 1.16676 0.68309 0.66495
 C858 C 1.19075 0.66387 0.64745
 C859 C 1.22990 0.66600 0.65172
 C860 C 1.24480 0.68705 0.67396
 C861 C 1.22060 0.70598 0.69214
 C862 C 1.18136 0.70368 0.68710
 C863 C 1.17383 0.64090 0.62665
 C864 C 1.15636 0.62212 0.61074
 C865 C 1.13341 0.60057 0.59357
 C866 C 1.11283 0.58223 0.57971
 H867 H 1.13646 0.68160 0.66194
 H868 H 1.24876 0.65099 0.63835
 H869 H 1.27501 0.68780 0.67739
 H870 H 1.16148 0.71760 0.70044
 C871 C 0.65207 0.80047 -0.17187
 C872 C 0.67163 0.81609 -0.14865
 C873 C 0.71096 0.81312 -0.14691
 C874 C 0.73061 0.79516 -0.16881
 C875 C 0.71115 0.77973 -0.19263
 C876 C 0.67152 0.78283 -0.19373
 C877 C 0.65107 0.83734 -0.12849
 C878 C 0.63257 0.85567 -0.11300
 C879 C 0.61035 0.87779 -0.09592
 C880 C 0.59179 0.89729 -0.08167
 H881 H 0.62174 0.80304 -0.17379
 H882 H 0.72652 0.82555 -0.12924
 H883 H 0.76109 0.79444 -0.16767
 H884 H 0.65520 0.77302 -0.21220
 C885 C 1.21064 0.34069 0.33351
 C886 C 1.18587 0.32439 0.35303
 C887 C 1.18444 0.28951 0.35339
 C888 C 1.20545 0.27116 0.33275
 C889 C 1.22780 0.28727 0.31095
 C890 C 1.23165 0.32236 0.31290
 C891 C 1.16038 0.34360 0.37119
 C892 C 1.13872 0.36029 0.38556
 C893 C 1.11377 0.38066 0.40200
 C894 C 1.09363 0.39888 0.41625
 H895 H 1.21254 0.36771 0.33330
 H896 H 1.16616 0.27648 0.36899
 H897 H 1.20371 0.24448 0.33407
 H898 H 1.24915 0.33611 0.29725
 C899 C 0.26816 0.82410 0.15112
 C900 C 0.30725 0.82408 0.14647
 C901 C 0.33023 0.80336 0.16371
 C902 C 0.31473 0.78366 0.18623
 C903 C 0.27557 0.78373 0.19180
 C904 C 0.25234 0.80393 0.17366
 C905 C 0.32519 0.84699 0.12609
 C906 C 0.34304 0.86597 0.11061
 C907 C 0.36596 0.88803 0.09393
 C908 C 0.38612 0.90702 0.08037
 H909 H 0.25013 0.84037 0.13802
 H910 H 0.36052 0.80331 0.16048
 H911 H 0.33392 0.76898 0.19976
 H912 H 0.22229 0.80517 0.17757
 C913 C 0.76739 0.32704 0.65153
 C914 C 0.80665 0.32869 0.64806
 C915 C 0.82994 0.30965 0.66656
 C916 C 0.81449 0.28974 0.68894
 C917 C 0.77511 0.28796 0.69317
 C918 C 0.75165 0.30669 0.67398
 C919 C 0.82428 0.35120 0.62716
 C920 C 0.84204 0.36978 0.61123
 C921 C 0.86503 0.39132 0.59408
 C922 C 0.88542 0.40983 0.58020
 H923 H 0.74909 0.34196 0.63740
 H924 H 0.86034 0.31084 0.66418
 H925 H 0.83381 0.27599 0.70313
 H926 H 0.72136 0.30639 0.67679
 C927 C 1.15714 1.17716 0.68637
 C928 C 1.17876 1.15361 0.67106
 C929 C 1.21718 1.15061 0.67732
 C930 C 1.23446 1.17246 0.69738
 C931 C 1.21384 1.19847 0.71069
 C932 C 1.17443 1.19911 0.70650
 C933 C 1.16193 1.13323 0.64822
 C934 C 1.14784 1.11641 0.62889
 C935 C 1.13043 1.09671 0.60672
 C936 C 1.11391 1.07961 0.58885
 H937 H 1.12714 1.17921 0.68210
 H938 H 1.23398 1.13182 0.66624
 H939 H 1.26417 1.16922 0.70184
 H940 H 1.15727 1.21783 0.71727
 C941 C 0.67873 0.64617 0.20067
 C942 C 0.68575 0.64798 0.16983
 C943 C 0.70711 0.67418 0.15818
 C944 C 0.72152 0.69852 0.17707
 C945 C 0.71501 0.69732 0.20821
 C946 C 0.69341 0.67069 0.21982
 C947 C 0.66990 0.62429 0.14933
 C948 C 0.65637 0.60614 0.13079
 C949 C 0.63916 0.58644 0.10861
 C950 C 0.62219 0.57037 0.09030
 H951 H 0.66189 0.62597 0.20985
 H952 H 0.71242 0.67598 0.13432
 H953 H 0.73769 0.71836 0.16685
 H954 H 0.68793 0.66868 0.24361
 C955 C 1.14381 0.83111 0.30078
 C956 C 1.14859 0.82807 0.33182
 C957 C 1.17463 0.80557 0.34348
 C958 C 1.19636 0.78647 0.32438
 C959 C 1.19247 0.78925 0.29301
 C960 C 1.16560 0.81170 0.28141
 C961 C 1.12882 0.84899 0.35231
 C962 C 1.11422 0.86626 0.37084
 C963 C 1.09861 0.88671 0.39298
 C964 C 1.08549 0.90510 0.41133
 H965 H 1.12374 0.84876 0.29159
 H966 H 1.17874 0.80325 0.36748
 H967 H 1.21677 0.76999 0.33457
 H968 H 1.16180 0.81470 0.25748
 C969 C 0.63786 0.32724 -0.19942
 C970 C 0.64159 0.32296 -0.16841
 C971 C 0.66783 0.30058 -0.15687
 C972 C 0.69096 0.28294 -0.17606
 C973 C 0.68823 0.28709 -0.20738
 C974 C 0.66101 0.30925 -0.21888
 C975 C 0.62133 0.34326 -0.14778
 C976 C 0.60681 0.36040 -0.12915
 C977 C 0.59193 0.38114 -0.10696
 C978 C 0.57997 0.40013 -0.08864
 H979 H 0.61773 0.34490 -0.20849
 H980 H 0.67122 0.29743 -0.13288
 H981 H 0.71168 0.26671 -0.16593
 H982 H 0.65805 0.31324 -0.24277
 C983 C 0.85637 1.17743 0.30541
 C984 C 0.85169 1.18326 0.33608
 C985 C 0.82377 1.20482 0.34597
 C986 C 0.80002 1.22015 0.32548
 C987 C 0.80375 1.21447 0.29446
 C988 C 0.83256 1.19309 0.28462
 C989 C 0.87304 1.16547 0.35809
 C990 C 0.88878 1.15026 0.37761
 C991 C 0.90560 1.13138 0.40048
 C992 C 0.91977 1.11356 0.41894
 H993 H 0.87786 1.16041 0.29764
 H994 H 0.81968 1.20915 0.36969
 H995 H 0.77814 1.23588 0.33439
 H996 H 0.83635 1.18801 0.26102
 C997 C 0.35936 0.67653 -0.19574
 C998 C 0.35422 0.68145 -0.16498
 C999 C 0.32474 0.70113 -0.15479
 C1000 C 0.30020 0.71582 -0.17508
 C1001 C 0.30462 0.71127 -0.20619
 C1002 C 0.33470 0.69149 -0.21632
 C1003 C 0.37720 0.66491 -0.14323
 C1004 C 0.39424 0.65067 -0.12380
 C1005 C 0.41226 0.63277 -0.10088
 C1006 C 0.42695 0.61557 -0.08219
 H1007 H 0.38208 0.66096 -0.20375
 H1008 H 0.32037 0.70482 -0.13101
 H1009 H 0.27770 0.73073 -0.16601
 H1010 H 0.33914 0.68742 -0.24000
 C1011 C 0.78184 0.85667 0.67565
 C1012 C 0.81808 0.85198 0.66419
 C1013 C 0.84110 0.82696 0.67615
 C1014 C 0.82730 0.80549 0.69828
 C1015 C 0.78995 0.80827 0.70843
 C1016 C 0.76800 0.83523 0.69790
 C1017 C 0.83191 0.87231 0.63994
 C1018 C 0.84525 0.88863 0.61984
 C1019 C 0.86347 0.90734 0.59727
 C1020 C 0.88172 0.92338 0.57957
 H1021 H 0.76395 0.87630 0.66687
 H1022 H 0.86955 0.82359 0.66793
 H1023 H 0.84574 0.78632 0.70684
 H1024 H 0.73936 0.83873 0.70557
 C1025 C 0.29844 0.32468 0.15197
 C1026 C 0.31924 0.35217 0.16158
 C1027 C 0.32697 0.35632 0.19216
 C1028 C 0.31349 0.33295 0.21309
 C1029 C 0.29235 0.30509 0.20357
 C1030 C 0.28517 0.30147 0.17263
 C1031 C 0.33375 0.37492 0.13946
 C1032 C 0.34657 0.39254 0.12007
 C1033 C 0.36367 0.41200 0.09752
 C1034 C 0.38130 0.42814 0.07956
 H1035 H 0.29248 0.32109 0.12837
 H1036 H 0.34337 0.37754 0.19980
 H1037 H 0.31941 0.33685 0.23662
 H1038 H 0.26888 0.28082 0.16398
   
