data_POSCAR
  _audit_creation_date              2014-09-24
  _audit_creation_method            'ToBaCCo'
  _symmetry_space_group_name_H-M    'P1'
  _symmetry_Int_Tables_number       1
  _symmetry_cell_setting            triclinic
  loop_
  _symmetry_equiv_pos_as_xyz
 x,y,z
_cell_length_a 37.2248
_cell_length_b 38.0334
_cell_length_c 15.8372
_cell_angle_alpha 89.074800
_cell_angle_beta 90.548400
_cell_angle_gamma 121.151300
loop_
  _atom_site_label
  _atom_site_type_symbol
  _atom_site_fract_x
  _atom_site_fract_y
  _atom_site_fract_z
C1 C 0.30807 0.42629 0.47428
 C2 C 0.30356 0.41978 0.55970
 C3 C 0.27560 0.43120 0.58632
 N4 N 0.26170 0.44292 0.51839
 C5 C 0.28282 0.44153 0.45020
 C6 C 0.26723 0.43506 0.67284
 C7 C 0.22971 0.43356 0.69640
 C8 C 0.20870 0.41830 0.77224
 C9 C 0.17793 0.42811 0.77522
 C10 C 0.17945 0.44755 0.69909
 N11 N 0.21114 0.45034 0.65169
 C12 C 0.15608 0.46648 0.67596
 C13 C 0.16492 0.48661 0.59574
 C14 C 0.17039 0.52503 0.57925
 C15 C 0.17461 0.53096 0.49326
 C16 C 0.17085 0.49574 0.46027
 N17 N 0.16595 0.46902 0.52294
 C18 C 0.17024 0.48702 0.37380
 C19 C 0.19479 0.47072 0.34601
 C20 C 0.19569 0.45775 0.26487
 C21 C 0.22715 0.44900 0.26345
 C22 C 0.24533 0.45770 0.34282
 N23 N 0.22507 0.47023 0.39305
 C24 C 0.28046 0.45499 0.36690
 H25 H 0.32785 0.42032 0.43490
 H26 H 0.32003 0.40871 0.59776
 H27 H 0.23466 0.48270 0.45292
 H28 H 0.21585 0.40305 0.82207
 H29 H 0.15904 0.42319 0.83023
 H30 H 0.17136 0.54651 0.62454
 H31 H 0.18005 0.55812 0.45892
 H32 H 0.23576 0.43769 0.20972
 H33 H 0.22322 0.46763 0.59658
 H34 H 0.17697 0.45583 0.21070
 C35 C 0.46990 -0.35641 0.50936
 C36 C 0.47528 -0.35108 0.42370
 C37 C 0.51356 -0.31486 0.41072
 N38 N 0.53136 -0.29759 0.48466
 C39 C 0.50503 -0.32328 0.54447
 C40 C 0.53598 -0.30123 0.33416
 C41 C 0.55339 -0.25923 0.31161
 C42 C 0.57592 -0.23856 0.23943
 C43 C 0.58270 -0.19943 0.24238
 C44 C 0.56244 -0.19778 0.31353
 N45 N 0.54568 -0.23373 0.35602
 C46 C 0.55661 -0.16533 0.33546
 C47 C 0.55449 -0.15659 0.42244
 C48 C 0.55730 -0.12096 0.45045
 C49 C 0.55196 -0.12485 0.53584
 C50 C 0.54505 -0.16324 0.55922
 N51 N 0.54835 -0.18191 0.48973
 C52 C 0.53529 -0.18019 0.64343
 C53 C 0.53664 -0.21585 0.66659
 C54 C 0.54741 -0.22423 0.74532
 C55 C 0.54050 -0.26355 0.74335
 C56 C 0.52741 -0.27778 0.66210
 N57 N 0.52523 -0.24827 0.61627
 C58 C 0.51511 -0.31745 0.63024
 H59 H 0.44391 -0.38196 0.54221
 H60 H 0.45438 -0.37222 0.37657
 H61 H 0.51234 -0.25158 0.55616
 H62 H 0.58528 -0.24966 0.18706
 H63 H 0.59985 -0.17527 0.19605
 H64 H 0.56290 -0.09432 0.41413
 H65 H 0.55348 -0.10123 0.57531
 H66 H 0.54408 -0.27941 0.79688
 H67 H 0.52508 -0.24228 0.40672
 H68 H 0.55910 -0.20417 0.79920
 C69 C 1.14890 0.67320 0.45498
 C70 C 1.15165 0.67375 0.54108
 C71 C 1.15999 0.71205 0.56661
 N72 N 1.16354 0.73547 0.49779
 C73 C 1.15626 0.71135 0.42946
 C74 C 1.16163 0.72360 0.65290
 C75 C 1.19612 0.76210 0.68116
 C76 C 1.20805 0.77386 0.76455
 C77 C 1.24666 0.80966 0.76313
 C78 C 1.25833 0.81898 0.67921
 N79 N 1.22698 0.79021 0.63045
 C80 C 1.29935 0.84828 0.64910
 C81 C 1.30965 0.84246 0.56688
 C82 C 1.34313 0.83774 0.54742
 C83 C 1.34241 0.83355 0.46170
 C84 C 1.30906 0.83675 0.43183
 N85 N 1.28858 0.84166 0.49623
 C86 C 1.30031 0.83939 0.34571
 C87 C 1.25870 0.81281 0.31567
 C88 C 1.24569 0.80596 0.23204
 C89 C 1.20497 0.77315 0.23147
 C90 C 1.19371 0.76053 0.31484
 N91 N 1.22676 0.78512 0.36486
 C92 C 1.15747 0.72354 0.34341
 H93 H 1.14346 0.64792 0.41562
 H94 H 1.14813 0.64867 0.58052
 H95 H 1.22936 0.78033 0.42860
 H96 H 1.19353 0.75705 0.82199
 H97 H 1.26545 0.82394 0.81859
 H98 H 1.36547 0.83702 0.59051
 H99 H 1.36439 0.82955 0.42496
 H100 H 1.18811 0.75864 0.17449
 H101 H 1.22789 0.78782 0.56570
 H102 H 1.26417 0.82010 0.17591
 C103 C 0.89166 0.58447 0.47618
 C104 C 0.89216 0.59010 0.56131
 C105 C 0.85207 0.58053 0.58407
 N106 N 0.82761 0.57038 0.51414
 C107 C 0.85121 0.57093 0.44874
 C108 C 0.83723 0.57565 0.66917
 C109 C 0.80159 0.57828 0.68804
 C110 C 0.79526 0.59350 0.76155
 C111 C 0.75436 0.58462 0.75988
 C112 C 0.73704 0.56540 0.68358
 N113 N 0.76659 0.56227 0.64042
 C114 C 0.69425 0.54626 0.65741
 C115 C 0.68370 0.52542 0.57955
 C116 C 0.65028 0.48588 0.56548
 C117 C 0.64990 0.47930 0.48048
 C118 C 0.68273 0.51518 0.44620
 N119 N 0.70397 0.54310 0.50669
 C120 C 0.69168 0.52381 0.35980
 C121 C 0.73364 0.53976 0.33330
 C122 C 0.74919 0.55134 0.25187
 C123 C 0.79039 0.56105 0.25444
 C124 C 0.79856 0.55425 0.33678
 N125 N 0.76409 0.54186 0.38429
 C126 C 0.83594 0.55681 0.36584
 H127 H 0.91816 0.58920 0.43936
 H128 H 0.91905 0.59908 0.60154
 H129 H 0.75985 0.53041 0.44584
 H130 H 0.81732 0.60798 0.81286
 H131 H 0.73948 0.58984 0.81217
 H132 H 0.62847 0.46421 0.61159
 H133 H 0.62772 0.45174 0.44723
 H134 H 0.81167 0.57119 0.20128
 H135 H 0.76143 0.54481 0.58691
 H136 H 0.73270 0.55151 0.19551
 C137 C 0.52813 0.16854 0.52582
 C138 C 0.52652 0.16878 0.43979
 C139 C 0.49283 0.17319 0.41824
 N140 N 0.47352 0.17524 0.48741
 C141 C 0.49453 0.17144 0.55309
 C142 C 0.47688 0.17009 0.33660
 C143 C 0.46873 0.20030 0.30769
 C144 C 0.48106 0.21902 0.22942
 C145 C 0.47592 0.25204 0.23074
 C146 C 0.45847 0.25159 0.30846
 N147 N 0.45513 0.22020 0.35591
 C148 C 0.44861 0.28114 0.33498
 C149 C 0.45201 0.29247 0.42257
 C150 C 0.45650 0.32906 0.44972
 C151 C 0.46044 0.33000 0.53484
 C152 C 0.46058 0.29501 0.56032
 N153 N 0.45497 0.27173 0.49102
 C154 C 0.46483 0.28521 0.64694
 C155 C 0.45945 0.24618 0.66852
 C156 C 0.44277 0.22413 0.74298
 C157 C 0.44846 0.19107 0.74244
 C158 C 0.46623 0.19198 0.66512
 N159 N 0.47264 0.22587 0.62095
 C160 C 0.47916 0.16473 0.63586
 H161 H 0.55022 0.16476 0.56392
 H162 H 0.54744 0.16540 0.39850
 H163 H 0.48934 0.23733 0.56471
 H164 H 0.49636 0.21238 0.17977
 H165 H 0.48763 0.27544 0.18186
 H166 H 0.45922 0.35458 0.41367
 H167 H 0.46298 0.35467 0.57217
 H168 H 0.44101 0.17021 0.79514
 H169 H 0.44241 0.21143 0.41624
 H170 H 0.42810 0.23106 0.79341
 C171 C 0.68598 0.11011 0.55302
 C172 C 0.68396 0.11022 0.46714
 C173 C 0.71585 0.14840 0.43991
 N174 N 0.73823 0.17131 0.50698
 C175 C 0.71891 0.14853 0.57703
 C176 C 0.72349 0.16149 0.35407
 C177 C 0.76381 0.19230 0.32875
 C178 C 0.78331 0.19216 0.25487
 C179 C 0.82120 0.22854 0.25233
 C180 C 0.82310 0.24981 0.32401
 N181 N 0.78865 0.22696 0.37184
 C182 C 0.85442 0.29045 0.34137
 C183 C 0.86803 0.30302 0.42573
 C184 C 0.90358 0.33987 0.44741
 C185 C 0.90332 0.34263 0.53285
 C186 C 0.86765 0.30739 0.56203
 N187 N 0.84689 0.28235 0.49647
 C188 C 0.85413 0.29982 0.64761
 C189 C 0.82413 0.25964 0.67581
 C190 C 0.82577 0.24258 0.75248
 C191 C 0.79091 0.20357 0.75608
 C192 C 0.76841 0.19801 0.68207
 N193 N 0.78976 0.23196 0.63212
 C194 C 0.72900 0.16250 0.66241
 H195 H 0.66483 0.08423 0.59244
 H196 H 0.66163 0.08454 0.42953
 H197 H 0.77914 0.23797 0.57578
 H198 H 0.77157 0.16822 0.20816
 H199 H 0.84456 0.23841 0.20307
 H200 H 0.92734 0.36316 0.40660
 H201 H 0.92702 0.36833 0.56837
 H202 H 0.78347 0.18149 0.80687
 H203 H 0.77985 0.23678 0.42455
 H204 H 0.85021 0.25641 0.79983
 O205 O 0.95068 0.52662 -0.14752
 O206 O 1.03971 0.55869 0.16166
 O207 O 0.90907 0.48275 0.10550
 O208 O 1.08052 0.57886 -0.07704
 O209 O 0.96613 0.52766 0.16442
 O210 O 1.02489 0.57688 -0.12116
 O211 O 1.05344 0.58975 0.04766
 O212 O 0.91168 0.51386 -0.03660
 C213 C 0.92185 0.52797 -0.10994
 C214 C 1.05431 0.59198 0.12502
 C215 C 0.92768 0.51125 0.15607
 C216 C 1.06421 0.59502 -0.12090
 O217 O 1.04158 0.51736 -0.15065
 O218 O 0.95831 0.45373 0.14488
 O219 O 0.91090 0.45170 -0.10577
 O220 O 1.09420 0.54939 0.07836
 O221 O 1.03750 0.49128 0.12198
 O222 O 0.96997 0.46687 -0.15633
 O223 O 1.05636 0.50041 -0.03383
 O224 O 0.91596 0.42519 0.03794
 Co225 Co 0.99594 0.52122 -0.13194
 Co226 Co 0.99887 0.50753 0.13392
 Co227 Co 0.91954 0.47265 0.00014
 Co228 Co 1.05156 0.54289 0.01063
 O229 O 0.98916 0.51129 -0.00077
 C230 C 1.05733 0.49982 -0.11234
 C231 C 0.92900 0.42255 0.10954
 C232 C 0.93197 0.44169 -0.14833
 C233 C 1.07734 0.51677 0.12835
 O234 O 0.46330 0.41801 -0.11406
 O235 O 0.42953 0.46640 0.16021
 O236 O 0.46674 0.40849 0.03484
 O237 O 0.41784 0.50078 -0.07539
 O238 O 0.47537 0.43625 0.15534
 O239 O 0.41381 0.44376 -0.10991
 O240 O 0.42449 0.51175 0.07994
 O241 O 0.52160 0.42210 -0.06977
 C242 C 0.49023 0.40691 -0.12366
 C243 C 0.41084 0.48496 0.13972
 C244 C 0.46310 0.40489 0.11291
 C245 C 0.39737 0.46521 -0.10608
 O246 O 0.47093 0.51434 -0.18069
 O247 O 0.54222 0.51096 0.14345
 O248 O 0.55912 0.49959 -0.05530
 O249 O 0.50644 0.57247 0.05250
 O250 O 0.49462 0.53719 0.16483
 O251 O 0.52343 0.49334 -0.16632
 O252 O 0.50212 0.55942 -0.08922
 O253 O 0.54470 0.46244 0.08048
 Co254 Co 0.46956 0.46944 -0.12922
 Co255 Co 0.48540 0.48743 0.14110
 Co256 Co 0.51139 0.45615 -0.01132
 Co257 Co 0.46394 0.53190 -0.00799
 O258 O 0.48287 0.48868 0.00352
 C259 C 0.49230 0.55149 -0.16322
 C260 C 0.56002 0.49119 0.13261
 C261 C 0.55840 0.50605 -0.13222
 C262 C 0.50845 0.57092 0.12967
 O263 O 0.58128 0.02655 -0.11553
 O264 O 0.51862 -0.04364 0.15232
 O265 O 0.57566 0.08370 0.07295
 O266 O 0.47042 -0.10391 -0.07499
 O267 O 0.56966 0.03207 0.15038
 O268 O 0.52996 -0.04908 -0.11643
 O269 O 0.52388 -0.06561 0.03262
 O270 O 0.57888 0.08026 -0.08199
 C271 C 0.59859 0.06476 -0.11281
 C272 C 0.52758 -0.06541 0.11081
 C273 C 0.59002 0.06925 0.12837
 C274 C 0.50250 -0.08724 -0.12735
 O275 O 0.47107 -0.03345 -0.17193
 O276 O 0.50972 0.04414 0.16297
 O277 O 0.49461 0.05448 -0.08891
 O278 O 0.44783 -0.08378 0.07697
 O279 O 0.45636 -0.03035 0.14381
 O280 O 0.52400 0.04056 -0.18383
 O281 O 0.43484 -0.06259 -0.06172
 O282 O 0.49245 0.06256 0.05180
 Co283 Co 0.52520 -0.00341 -0.13405
 Co284 Co 0.51325 0.00027 0.13709
 Co285 Co 0.53406 0.06504 -0.01130
 Co286 Co 0.48168 -0.05946 -0.01586
 O287 O 0.51330 0.00261 -0.00130
 C288 C 0.43585 -0.05555 -0.13862
 C289 C 0.49395 0.06225 0.12886
 C290 C 0.50269 0.05583 -0.16370
 C291 C 0.43538 -0.06814 0.13042
 C292 C 1.14435 0.49566 0.30944
 C293 C 1.11697 0.51207 0.34301
 C294 C 1.09630 0.52005 0.28179
 C295 C 1.10281 0.50939 0.19242
 C296 C 1.15050 0.53420 0.17976
 C297 C 1.17212 0.52725 0.24096
 C298 C 1.11226 0.45711 0.26071
 C299 C 1.09117 0.46438 0.19890
 H300 H 1.11058 0.51396 0.40870
 H301 H 1.07640 0.53210 0.29660
 H302 H 1.16607 0.55562 0.12772
 H303 H 1.20615 0.54300 0.24104
 H304 H 1.10590 0.42641 0.27517
 H305 H 1.06739 0.44002 0.16010
 C306 C 0.53340 0.66790 0.27798
 C307 C 0.49427 0.65155 0.22186
 C308 C 0.48698 0.61985 0.17281
 C309 C 0.51975 0.60727 0.18214
 C310 C 0.56231 0.64661 0.16516
 C311 C 0.57001 0.67832 0.21703
 C312 C 0.52905 0.63010 0.32620
 C313 C 0.52104 0.59842 0.27667
 H314 H 0.47376 0.66399 0.22103
 H315 H 0.46011 0.60507 0.13075
 H316 H 0.58621 0.64775 0.12453
 H317 H 0.60144 0.70481 0.22327
 H318 H 0.53568 0.62962 0.39303
 H319 H 0.52022 0.57138 0.30242
 C320 C 0.33504 -0.13598 0.28826
 C321 C 0.37589 -0.10255 0.33121
 C322 C 0.40870 -0.08184 0.27825
 C323 C 0.39809 -0.09403 0.18551
 C324 C 0.38064 -0.14043 0.18475
 C325 C 0.34786 -0.16226 0.23842
 C326 C 0.32755 -0.11060 0.22090
 C327 C 0.36031 -0.08918 0.16646
 H328 H 0.37822 -0.09270 0.39600
 H329 H 0.43846 -0.05651 0.30007
 H330 H 0.39303 -0.15497 0.14587
 H331 H 0.33234 -0.19543 0.24502
 H332 H 0.29980 -0.10809 0.21850
 H333 H 0.36006 -0.06924 0.11690
 C334 C 0.86012 0.54383 0.30759
 C335 C 0.89800 0.58037 0.26359
 C336 C 0.92032 0.56974 0.21333
 C337 C 0.90303 0.52334 0.21096
 C338 C 0.90101 0.51003 0.30345
 C339 C 0.87804 0.51989 0.35344
 C340 C 0.83432 0.51428 0.23551
 C341 C 0.85676 0.50422 0.18464
 H342 H 0.90643 0.61206 0.27127
 H343 H 0.94780 0.59235 0.17830
 H344 H 0.91441 0.49225 0.32669
 H345 H 0.87133 0.50951 0.41876
 H346 H 0.80052 0.49921 0.22902
 H347 H 0.84197 0.48232 0.13402
 C348 C 0.44708 0.31016 0.26694
 C349 C 0.43424 0.29581 0.17394
 C350 C 0.43915 0.32626 0.11860
 C351 C 0.45427 0.36736 0.16222
 C352 C 0.42204 0.35666 0.23294
 C353 C 0.41746 0.32611 0.28599
 C354 C 0.49133 0.34793 0.26054
 C355 C 0.49505 0.37721 0.20689
 H356 H 0.41895 0.26399 0.15470
 H357 H 0.42953 0.32055 0.05291
 H358 H 0.40207 0.36961 0.23669
 H359 H 0.39319 0.31280 0.33403
 H360 H 0.51824 0.35100 0.29476
 H361 H 0.52520 0.40494 0.19581
 C362 C 0.68893 0.13882 0.28754
 C363 C 0.68442 0.09800 0.26219
 C364 C 0.65274 0.07602 0.20697
 C365 C 0.62771 0.09646 0.18145
 C366 C 0.61355 0.10545 0.26476
 C367 C 0.64531 0.12807 0.31913
 C368 C 0.69269 0.16141 0.20240
 C369 C 0.66067 0.13898 0.14667
 H370 H 0.70518 0.08771 0.28450
 H371 H 0.64665 0.04700 0.18200
 H372 H 0.58142 0.09695 0.27780
 H373 H 0.64002 0.13915 0.37771
 H374 H 0.71674 0.19306 0.18884
 H375 H 0.65807 0.15120 0.08608
 C376 C 0.48230 0.13419 -0.31189
 C377 C 0.52381 0.15449 -0.26257
 C378 C 0.53033 0.12808 -0.21612
 C379 C 0.49459 0.08312 -0.22061
 C380 C 0.45457 0.08351 -0.19734
 C381 C 0.44776 0.10950 -0.24599
 C382 C 0.48168 0.09868 -0.36181
 C383 C 0.48907 0.07285 -0.31429
 H384 H 0.54694 0.18716 -0.26590
 H385 H 0.55928 0.13829 -0.18140
 H386 H 0.43096 0.06149 -0.15386
 H387 H 0.41747 0.10717 -0.24614
 H388 H 0.47227 0.09194 -0.42748
 H389 H 0.48731 0.04571 -0.33995
 C390 C 0.66031 0.53947 -0.28625
 C391 C 0.61931 0.52913 -0.33299
 C392 C 0.58632 0.51873 -0.28180
 C393 C 0.59663 0.52065 -0.18707
 C394 C 0.61521 0.49307 -0.17549
 C395 C 0.64819 0.50291 -0.22641
 C396 C 0.66688 0.57489 -0.22840
 C397 C 0.63383 0.56466 -0.17521
 H398 H 0.61713 0.53320 -0.40049
 H399 H 0.55668 0.51331 -0.30706
 H400 H 0.60371 0.46795 -0.12998
 H401 H 0.66451 0.48609 -0.22404
 H402 H 0.69279 0.60636 -0.23492
 H403 H 0.63274 0.58688 -0.13486
 C404 C 0.87377 0.33646 -0.29104
 C405 C 0.87383 0.37411 -0.32966
 C406 C 0.89382 0.40856 -0.28265
 C407 C 0.91082 0.40273 -0.19876
 C408 C 0.87251 0.36597 -0.15580
 C409 C 0.85283 0.33149 -0.20420
 C410 C 0.91993 0.35161 -0.26942
 C411 C 0.93930 0.38623 -0.22215
 H412 H 0.85828 0.37337 -0.38853
 H413 H 0.89594 0.43701 -0.30235
 H414 H 0.86053 0.36757 -0.09468
 H415 H 0.82355 0.30469 -0.18419
 H416 H 0.93584 0.33590 -0.28887
 H417 H 0.97169 0.39996 -0.20154
 C418 C 0.52486 -0.15747 -0.28970
 C419 C 0.50452 -0.17954 -0.20499
 C420 C 0.49799 -0.15611 -0.14992
 C421 C 0.51077 -0.11327 -0.18510
 C422 C 0.55700 -0.09390 -0.21026
 C423 C 0.56427 -0.11698 -0.26387
 C424 C 0.49310 -0.14558 -0.32194
 C425 C 0.48657 -0.12188 -0.26833
 H426 H 0.49134 -0.21203 -0.19251
 H427 H 0.48164 -0.16840 -0.09047
 H428 H 0.58224 -0.06486 -0.18643
 H429 H 0.59563 -0.10750 -0.28555
 H430 H 0.47576 -0.15646 -0.38072
 H431 H 0.46436 -0.11213 -0.28207
 C432 C 0.29916 0.44229 -0.26363
 C433 C 0.30021 0.40337 -0.23964
 C434 C 0.33197 0.41001 -0.18618
 C435 C 0.35985 0.45496 -0.15989
 C436 C 0.37487 0.47963 -0.24291
 C437 C 0.34367 0.47389 -0.29551
 C438 C 0.29833 0.46099 -0.17752
 C439 C 0.32957 0.46676 -0.12306
 H440 H 0.27733 0.37293 -0.26202
 H441 H 0.33611 0.38531 -0.16307
 H442 H 0.40729 0.50220 -0.25736
 H443 H 0.35020 0.49230 -0.35282
 H444 H 0.27842 0.47311 -0.16308
 H445 H 0.33425 0.48151 -0.06246
 C446 C 1.13495 0.69147 -0.28590
 C447 C 1.09315 0.65647 -0.32238
 C448 C 1.07042 0.62493 -0.26775
 C449 C 1.09006 0.63107 -0.17942
 C450 C 1.13440 0.63918 -0.19433
 C451 C 1.15760 0.67046 -0.24908
 C452 C 1.11907 0.70393 -0.20832
 C453 C 1.09645 0.67249 -0.15175
 H454 H 1.08002 0.65836 -0.38263
 H455 H 1.03872 0.60121 -0.28327
 H456 H 1.14681 0.62180 -0.16424
 H457 H 1.18961 0.67957 -0.26513
 H458 H 1.12250 0.73386 -0.20141
 H459 H 1.08192 0.67612 -0.09612
 C460 C 0.85704 0.56360 -0.26560
 C461 C 0.90117 0.59863 -0.24066
 C462 C 0.92218 0.58702 -0.18746
 C463 C 0.89708 0.54154 -0.16140
 C464 C 0.85590 0.53476 -0.12468
 C465 C 0.83444 0.54561 -0.17949
 C466 C 0.86259 0.52855 -0.29739
 C467 C 0.88367 0.51764 -0.24414
 H468 H 0.91445 0.63026 -0.26187
 H469 H 0.95334 0.60863 -0.16363
 H470 H 0.84299 0.51966 -0.06438
 H471 H 0.80264 0.53748 -0.16518
 H472 H 0.84876 0.51178 -0.35521
 H473 H 0.88793 0.49215 -0.25752
 C474 C 0.47231 0.31548 -0.28748
 C475 C 0.43380 0.32012 -0.27695
 C476 C 0.43951 0.35014 -0.22351
 C477 C 0.48300 0.37294 -0.18226
 C478 C 0.48822 0.33895 -0.14091
 C479 C 0.48368 0.30951 -0.19585
 C480 C 0.50965 0.35909 -0.30866
 C481 C 0.51436 0.38891 -0.25546
 H482 H 0.40404 0.30078 -0.30872
 H483 H 0.41466 0.35619 -0.21015
 H484 H 0.49905 0.34029 -0.07648
 H485 H 0.49377 0.28842 -0.17723
 H486 H 0.53156 0.36570 -0.35986
 H487 H 0.53970 0.42067 -0.26228
 C488 C 0.69761 0.13909 -0.27172
 C489 C 0.65375 0.13002 -0.29934
 C490 C 0.62224 0.10481 -0.24666
 C491 C 0.63645 0.09184 -0.16703
 C492 C 0.66075 0.07224 -0.19913
 C493 C 0.69275 0.09691 -0.25260
 C494 C 0.70174 0.15785 -0.18308
 C495 C 0.67008 0.13278 -0.12828
 H496 H 0.64811 0.14391 -0.35442
 H497 H 0.59026 0.09711 -0.25850
 H498 H 0.65433 0.04207 -0.17936
 H499 H 0.71343 0.08754 -0.27822
 H500 H 0.72426 0.18937 -0.16666
 H501 H 0.66749 0.14259 -0.06587
 C502 C 1.12884 0.47162 -0.26507
 C503 C 1.10007 0.43579 -0.20352
 C504 C 1.07684 0.44436 -0.14960
 C505 C 1.08300 0.48720 -0.16407
 C506 C 1.13039 0.51720 -0.15621
 C507 C 1.15408 0.50911 -0.20813
 C508 C 1.09635 0.47887 -0.31061
 C509 C 1.07331 0.48742 -0.25904
 H510 H 1.09412 0.40482 -0.20874
 H511 H 1.05333 0.42143 -0.10734
 H512 H 1.14428 0.54258 -0.11239
 H513 H 1.18813 0.52773 -0.20831
 H514 H 1.08864 0.47338 -0.37727
 H515 H 1.04720 0.48954 -0.28393
 C516 C 0.51046 0.64810 -0.31801
 C517 C 0.47104 0.62921 -0.26261
 C518 C 0.46503 0.59688 -0.21383
 C519 C 0.49919 0.58597 -0.22270
 C520 C 0.50019 0.57848 -0.31689
 C521 C 0.50664 0.61086 -0.36677
 C522 C 0.54705 0.65851 -0.25711
 C523 C 0.54093 0.62644 -0.20677
 H524 H 0.44857 0.63930 -0.26439
 H525 H 0.43696 0.57914 -0.17598
 H526 H 0.49930 0.55163 -0.34188
 H527 H 0.51270 0.61114 -0.43370
 H528 H 0.57679 0.68749 -0.25817
 H529 H 0.56510 0.62884 -0.16414
 C530 C 0.33364 -0.12509 -0.29376
 C531 C 0.37235 -0.08922 -0.33884
 C532 C 0.40547 -0.06608 -0.28735
 C533 C 0.39748 -0.07957 -0.19402
 C534 C 0.35762 -0.07905 -0.17192
 C535 C 0.32436 -0.10237 -0.22476
 C536 C 0.35054 -0.14880 -0.24537
 C537 C 0.38354 -0.12530 -0.19413
 H538 H 0.37291 -0.08087 -0.40492
 H539 H 0.43367 -0.03888 -0.31051
 H540 H 0.35621 -0.06063 -0.12192
 H541 H 0.29488 -0.10317 -0.21990
 H542 H 0.33741 -0.18168 -0.25076
 H543 H 0.39824 -0.13847 -0.15646
 C544 C 0.54968 -0.14030 0.26586
 C545 C 0.54123 -0.15513 0.17250
 C546 C 0.53520 -0.13025 0.11779
 C547 C 0.53663 -0.09383 0.16131
 C548 C 0.50390 -0.11414 0.23239
 C549 C 0.51048 -0.13827 0.28575
 C550 C 0.58624 -0.09548 0.25956
 C551 C 0.57927 -0.07128 0.20614
 H552 H 0.53490 -0.18481 0.15196
 H553 H 0.52624 -0.13807 0.05224
 H554 H 0.47612 -0.11179 0.23742
 H555 H 0.48818 -0.15632 0.33521
 H556 H 0.61559 -0.08391 0.29368
 H557 H 0.60263 -0.03915 0.19475
 C558 C 0.31508 0.46422 0.30136
 C559 C 0.31934 0.49168 0.22378
 C560 C 0.35008 0.49816 0.16795
 C561 C 0.37474 0.47767 0.19512
 C562 C 0.39051 0.49407 0.28425
 C563 C 0.35977 0.48774 0.33888
 C564 C 0.31039 0.42514 0.26328
 C565 C 0.34131 0.43209 0.20816
 H566 H 0.30238 0.50767 0.21637
 H567 H 0.35771 0.51811 0.11285
 H568 H 0.42351 0.51156 0.30154
 H569 H 0.36698 0.50044 0.40192
 H570 H 0.28446 0.39444 0.27794
 H571 H 0.34168 0.40732 0.17586
 C572 C 1.12795 0.69043 0.27956
 C573 C 1.14896 0.66812 0.24448
 C574 C 1.12459 0.63701 0.19166
 C575 C 1.08070 0.63024 0.17642
 C576 C 1.06199 0.62519 0.26524
 C577 C 1.08617 0.65643 0.31829
 C578 C 1.11254 0.70356 0.20026
 C579 C 1.08846 0.67210 0.14544
 H580 H 1.18084 0.67635 0.26002
 H581 H 1.13600 0.61901 0.16266
 H582 H 1.03078 0.60050 0.28310
 H583 H 1.07493 0.65815 0.38017
 H584 H 1.11745 0.73407 0.19101
 H585 H 1.07411 0.67619 0.08913
 C586 C 0.47954 0.14097 0.27598
 C587 C 0.52369 0.15842 0.23955
 C588 C 0.52749 0.13186 0.19014
 C589 C 0.48667 0.09029 0.17999
 C590 C 0.47226 0.07372 0.26985
 C591 C 0.46818 0.09992 0.31969
 C592 C 0.45015 0.12712 0.19810
 C593 C 0.45425 0.10072 0.14712
 H594 H 0.54960 0.18945 0.25054
 H595 H 0.55682 0.14007 0.15935
 H596 H 0.46383 0.04312 0.29129
 H597 H 0.45601 0.09134 0.38354
 H598 H 0.42737 0.13622 0.18537
 H599 H 0.43535 0.08761 0.09083
 C600 C 0.65621 0.51521 0.29723
 C601 C 0.61375 0.50329 0.33806
 C602 C 0.58259 0.49423 0.28227
 C603 C 0.59605 0.49949 0.18965
 C604 C 0.63387 0.54363 0.18307
 C605 C 0.66507 0.55198 0.23978
 C606 C 0.64584 0.48001 0.23619
 C607 C 0.61457 0.47186 0.17989
 H608 H 0.60891 0.50617 0.40430
 H609 H 0.55183 0.48683 0.30310
 H610 H 0.63544 0.56665 0.13933
 H611 H 0.69284 0.58238 0.24511
 H612 H 0.66196 0.46303 0.23714
 H613 H 0.60415 0.44803 0.13292
 C614 C 0.87230 0.32303 0.27008
 C615 C 0.91853 0.33823 0.25084
 C616 C 0.93686 0.37031 0.19533
 C617 C 0.90732 0.38425 0.16223
 C618 C 0.86958 0.34555 0.12504
 C619 C 0.85075 0.31348 0.18179
 C620 C 0.87088 0.36114 0.29584
 C621 C 0.88958 0.39296 0.24082
 H622 H 0.93523 0.32428 0.27777
 H623 H 0.96918 0.38379 0.17487
 H624 H 0.85688 0.34433 0.06247
 H625 H 0.82109 0.28613 0.16676
 H626 H 0.85441 0.36227 0.35101
 H627 H 0.88928 0.42106 0.24994
   
