data_POSCAR
  _audit_creation_date              2014-09-24
  _audit_creation_method            'ToBaCCo'
  _symmetry_space_group_name_H-M    'P1'
  _symmetry_Int_Tables_number       1
  _symmetry_cell_setting            triclinic
  loop_
  _symmetry_equiv_pos_as_xyz
 x,y,z
_cell_length_a 53.5752
_cell_length_b 53.8033
_cell_length_c 53.5961
_cell_angle_alpha 90.017700
_cell_angle_beta 90.007900
_cell_angle_gamma 89.946800
loop_
  _atom_site_label
  _atom_site_type_symbol
  _atom_site_fract_x
  _atom_site_fract_y
  _atom_site_fract_z
C1 C 0.18505 0.15252 0.18541
 C2 C 0.17397 0.14179 0.20655
 C3 C 0.15232 0.15216 0.21760
 C4 C 0.14190 0.17360 0.20635
 C5 C 0.15269 0.18436 0.18509
 C6 C 0.17445 0.17388 0.17470
 C7 C 0.20673 0.14214 0.17499
 C8 C 0.21827 0.15273 0.15374
 C9 C 0.20719 0.17422 0.14327
 C10 C 0.18565 0.18484 0.15363
 C11 C 0.17511 0.20632 0.14316
 C12 C 0.15342 0.21686 0.15339
 C13 C 0.14222 0.20572 0.17427
 H14 H 0.18198 0.12474 0.21364
 H15 H 0.12598 0.18289 0.21455
 H16 H 0.21503 0.12640 0.18442
 H17 H 0.21454 0.18245 0.12640
 H18 H 0.18365 0.21480 0.12692
 H19 H 0.12559 0.21398 0.18230
 C20 C -0.18359 0.84850 0.18235
 C21 C -0.17276 0.85955 0.20347
 C22 C -0.15361 0.84745 0.21697
 C23 C -0.14511 0.82413 0.20826
 C24 C -0.15530 0.81321 0.18682
 C25 C -0.17482 0.82528 0.17399
 C26 C -0.20346 0.86012 0.16983
 C27 C -0.21529 0.84858 0.14929
 C28 C -0.20578 0.82557 0.14083
 C29 C -0.18557 0.81410 0.15278
 C30 C -0.17593 0.79156 0.14381
 C31 C -0.15604 0.77977 0.15612
 C32 C -0.14610 0.79046 0.17786
 H33 H -0.18032 0.87705 0.21004
 H34 H -0.12975 0.81477 0.21746
 H35 H -0.21056 0.87749 0.17719
 H36 H -0.21352 0.81679 0.12437
 H37 H -0.18394 0.78307 0.12731
 H38 H -0.13077 0.78135 0.18741
 C39 C -0.18368 0.15304 -0.18328
 C40 C -0.17270 0.14235 -0.20451
 C41 C -0.15160 0.15322 -0.21557
 C42 C -0.14124 0.17478 -0.20506
 C43 C -0.15181 0.18549 -0.18368
 C44 C -0.17324 0.17469 -0.17285
 C45 C -0.20513 0.14255 -0.17260
 C46 C -0.21655 0.15318 -0.15127
 C47 C -0.20555 0.17481 -0.14100
 C48 C -0.18427 0.18562 -0.15167
 C49 C -0.17382 0.20723 -0.14141
 C50 C -0.15238 0.21794 -0.15197
 C51 C -0.14140 0.20693 -0.17304
 H52 H -0.18080 0.12581 -0.21275
 H53 H -0.12483 0.18308 -0.21346
 H54 H -0.21333 0.12668 -0.18186
 H55 H -0.21280 0.18304 -0.12407
 H56 H -0.18221 0.21567 -0.12506
 H57 H -0.12500 0.21532 -0.18136
 C58 C 0.18433 0.84686 -0.18565
 C59 C 0.17337 0.85717 -0.20706
 C60 C 0.15207 0.84631 -0.21829
 C61 C 0.14212 0.82461 -0.20715
 C62 C 0.15305 0.81402 -0.18587
 C63 C 0.17419 0.82520 -0.17503
 C64 C 0.20550 0.85784 -0.17486
 C65 C 0.21694 0.84730 -0.15370
 C66 C 0.20658 0.82565 -0.14319
 C67 C 0.18524 0.81467 -0.15358
 C68 C 0.17489 0.79318 -0.14299
 C69 C 0.15384 0.78191 -0.15376
 C70 C 0.14306 0.79238 -0.17521
 H71 H 0.18240 0.87310 -0.21540
 H72 H 0.12524 0.81618 -0.21426
 H73 H 0.21292 0.87478 -0.18286
 H74 H 0.21536 0.81703 -0.12717
 H75 H 0.18337 0.78498 -0.12657
 H76 H 0.12673 0.78376 -0.18344
 C77 C 0.15170 1.18522 0.81519
 C78 C 0.14085 1.17399 0.79416
 C79 C 0.15122 1.15231 0.78330
 C80 C 0.17281 1.14207 0.79457
 C81 C 0.18368 1.15301 0.81568
 C82 C 0.17319 1.17476 0.82593
 C83 C 0.14131 1.20690 0.82548
 C84 C 0.15198 1.21854 0.84664
 C85 C 0.17361 1.20759 0.85713
 C86 C 0.18426 1.18607 0.84689
 C87 C 0.20586 1.17564 0.85739
 C88 C 0.21639 1.15394 0.84731
 C89 C 0.20515 1.14266 0.82653
 H90 H 0.12372 1.18191 0.78704
 H91 H 0.18213 1.12616 0.78647
 H92 H 0.12546 1.21508 0.81604
 H93 H 0.18192 1.21503 0.87393
 H94 H 0.21443 1.18426 0.87355
 H95 H 0.21340 1.12603 0.81859
 C96 C 0.84694 0.81277 0.81389
 C97 C 0.85648 0.82218 0.79142
 C98 C 0.84450 0.84189 0.77876
 C99 C 0.82240 0.85180 0.78919
 C100 C 0.81310 0.84301 0.81201
 C101 C 0.82554 0.82359 0.82454
 C102 C 0.85848 0.79257 0.82576
 C103 C 0.84939 0.78320 0.84865
 C104 C 0.82863 0.79513 0.85970
 C105 C 0.81653 0.81494 0.84768
 C106 C 0.79522 0.82594 0.85822
 C107 C 0.78260 0.84515 0.84571
 C108 C 0.79161 0.85355 0.82260
 H109 H 0.87278 0.81334 0.78337
 H110 H 0.81301 0.86732 0.78038
 H111 H 0.87511 0.78471 0.81738
 H112 H 0.82078 0.78818 0.87696
 H113 H 0.78813 0.81924 0.87593
 H114 H 0.78205 0.86855 0.81304
 C115 C 0.15406 0.81372 1.18551
 C116 C 0.14271 0.82514 1.20614
 C117 C 0.15204 0.84760 1.21571
 C118 C 0.17270 0.85889 1.20423
 C119 C 0.18443 0.84753 1.18378
 C120 C 0.17514 0.82478 1.17447
 C121 C 0.14456 0.79143 1.17581
 C122 C 0.15597 0.77947 1.15521
 C123 C 0.17755 0.79061 1.14487
 C124 C 0.18703 0.81304 1.15422
 C125 C 0.20840 0.82382 1.14369
 C126 C 0.21773 0.84646 1.15282
 C127 C 0.20553 0.85834 1.17273
 H128 H 0.12658 0.81659 1.21481
 H129 H 0.18002 0.87615 1.21166
 H130 H 0.12756 0.78422 1.18392
 H131 H 0.18778 0.78159 1.13000
 H132 H 0.21766 0.81479 1.12815
 H133 H 0.21283 0.87570 1.17996
 C134 C 0.84816 1.18447 1.18454
 C135 C 0.85873 1.17370 1.20591
 C136 C 0.84799 1.15251 1.21732
 C137 C 0.82618 1.14243 1.20636
 C138 C 0.81533 1.15317 1.18512
 C139 C 0.82637 1.17422 1.17411
 C140 C 0.85898 1.20556 1.17360
 C141 C 0.84815 1.21682 1.15249
 C142 C 0.82639 1.20635 1.14217
 C143 C 0.81556 1.18508 1.15271
 C144 C 0.79394 1.17463 1.14233
 C145 C 0.78282 1.15367 1.15327
 C146 C 0.79357 1.14307 1.17467
 H147 H 0.87475 1.18280 1.21410
 H148 H 0.81784 1.12561 1.21359
 H149 H 0.87601 1.21306 1.18145
 H150 H 0.81756 1.21500 1.12618
 H151 H 0.78552 1.18297 1.12595
 H152 H 0.78506 1.12679 1.18303
 N153 N 0.47387 1.04382 1.02673
 N154 N 0.45461 1.05881 1.02982
 N155 N 0.52654 1.02632 1.04363
 N156 N 0.54600 1.02881 1.05853
 N157 N 0.52629 1.04397 1.02672
 N158 N 0.54545 1.05906 1.02977
 N159 N 0.47388 1.02627 1.04373
 N160 N 0.45451 1.02873 1.05875
 C161 C 0.44270 1.04918 1.04989
 C162 C 0.55758 1.04939 1.04971
 N163 N 0.52663 0.95597 1.02522
 N164 N 0.54657 0.94165 1.02708
 N165 N 0.47406 0.97283 1.04305
 N166 N 0.45469 0.96998 1.05798
 N167 N 0.47390 0.95598 1.02534
 N168 N 0.45430 0.94130 1.02763
 N169 N 0.52649 0.97278 1.04298
 N170 N 0.54614 0.97016 1.05760
 Mn171 Mn 0.50025 0.99955 1.04367
 C172 C 0.55846 0.95062 1.04748
 C173 C 0.44255 0.95020 1.04816
 N174 N 0.52634 1.04474 0.97296
 N175 N 0.54576 1.05964 0.97057
 N176 N 0.47403 1.02766 0.95526
 N177 N 0.45475 1.03061 0.94021
 N178 N 0.47377 1.04448 0.97301
 N179 N 0.45420 1.05922 0.97063
 N180 N 0.52656 1.02760 0.95552
 N181 N 0.54618 1.03028 0.94090
 Mn182 Mn 0.50006 1.04457 0.99985
 C183 C 0.55794 1.05041 0.95044
 C184 C 0.44256 1.05041 0.95002
 N185 N 0.47389 0.95678 0.97172
 N186 N 0.45427 0.94220 0.96910
 N187 N 0.52667 0.97417 0.95469
 N188 N 0.54627 0.97176 0.93994
 N189 N 0.52642 0.95655 0.97161
 N190 N 0.54574 0.94159 0.96876
 N191 N 0.47408 0.97407 0.95444
 N192 N 0.45466 0.97159 0.93946
 Mn193 Mn 0.50020 0.95600 0.99848
 Mn194 Mn 0.50034 1.00088 0.95465
 Cl195 Cl 0.50021 1.00025 0.99916
 C196 C 0.44250 0.95159 0.94883
 C197 C 0.55794 0.95128 0.94890
 N198 N 0.02801 0.47358 0.04465
 N199 N 0.03096 0.45429 0.05956
 N200 N 0.04515 0.52590 0.02752
 N201 N 0.06033 0.54500 0.03037
 N202 N 0.02806 0.52578 0.04507
 N203 N 0.03124 0.54470 0.06043
 N204 N 0.04497 0.47348 0.02696
 N205 N 0.05979 0.45399 0.02926
 C206 C 0.05087 0.44225 0.04975
 C207 C 0.05147 0.55652 0.05103
 N208 N 0.02696 0.52684 -0.04308
 N209 N 0.02944 0.54640 -0.05772
 N210 N 0.04447 0.47418 -0.02680
 N211 N 0.05934 0.45486 -0.02990
 N212 N 0.02688 0.47440 -0.04385
 N213 N 0.02920 0.45512 -0.05891
 N214 N 0.04466 0.52642 -0.02615
 N215 N 0.05977 0.54559 -0.02892
 Mn216 Mn 0.04513 0.49998 0.00039
 C217 C 0.05004 0.55788 -0.04872
 C218 C 0.04961 0.44315 -0.05005
 N219 N -0.02574 0.52591 0.04560
 N220 N -0.02867 0.54483 0.06102
 N221 N -0.04307 0.47350 0.02793
 N222 N -0.05768 0.45392 0.03033
 N223 N -0.02576 0.47357 0.04527
 N224 N -0.02825 0.45411 0.06006
 N225 N -0.04344 0.52578 0.02865
 N226 N -0.05898 0.54449 0.03217
 Mn227 Mn 0.00114 0.49974 0.04546
 C228 C -0.04953 0.55622 0.05244
 C229 C -0.04829 0.44205 0.05052
 N230 N -0.02681 0.47459 -0.04335
 N231 N -0.02958 0.45544 -0.05851
 N232 N -0.04406 0.52647 -0.02514
 N233 N -0.05882 0.54604 -0.02717
 N234 N -0.02665 0.52695 -0.04238
 N235 N -0.02891 0.54696 -0.05641
 N236 N -0.04373 0.47413 -0.02567
 N237 N -0.05838 0.45458 -0.02819
 Mn238 Mn 0.00009 0.50071 -0.04348
 Mn239 Mn -0.04389 0.49996 0.00144
 Cl240 Cl 0.00062 0.50010 0.00096
 C241 C -0.04940 0.44316 -0.04884
 C242 C -0.04915 0.55861 -0.04682
 N243 N 0.95566 0.02686 0.52670
 N244 N 0.94082 0.02951 0.54618
 N245 N 0.97296 0.04439 0.47423
 N246 N 0.97057 0.05921 0.45476
 N247 N 0.95534 0.02744 0.47426
 N248 N 0.94041 0.03037 0.45490
 N249 N 0.97322 0.04386 0.52685
 N250 N 0.97094 0.05840 0.54655
 C251 C 0.95058 0.04929 0.55839
 C252 C 0.95010 0.05031 0.44293
 N253 N 1.04405 0.02677 0.47406
 N254 N 1.05893 0.02948 0.45461
 N255 N 1.02684 0.04354 0.52659
 N256 N 1.02956 0.05823 0.54612
 N257 N 1.04389 0.02601 0.52663
 N258 N 1.05861 0.02823 0.54626
 N259 N 1.02666 0.04397 0.47407
 N260 N 1.02914 0.05876 0.45459
 Mn261 Mn 0.99991 0.04425 0.50042
 C262 C 1.04943 0.04956 0.44267
 C263 C 1.04950 0.04849 0.55821
 N264 N 0.95491 -0.02609 0.47353
 N265 N 0.93980 -0.02842 0.45421
 N266 N 0.97233 -0.04433 0.52538
 N267 N 0.96907 -0.06011 0.54394
 N268 N 0.95539 -0.02669 0.52608
 N269 N 0.94031 -0.02983 0.54528
 N270 N 0.97240 -0.04318 0.47291
 N271 N 0.96983 -0.05744 0.45304
 Mn272 Mn 0.95501 0.00038 0.50017
 C273 C 0.94934 -0.04809 0.44162
 C274 C 0.94904 -0.05080 0.55621
 N275 N 1.04347 -0.02744 0.52582
 N276 N 1.05814 -0.03030 0.54538
 N277 N 1.02604 -0.04364 0.47283
 N278 N 1.02827 -0.05787 0.45289
 N279 N 1.04368 -0.02673 0.47329
 N280 N 1.05849 -0.02910 0.45375
 N281 N 1.02616 -0.04470 0.52539
 N282 N 1.02869 -0.05985 0.54461
 Mn283 Mn 1.04410 -0.00035 0.49997
 Mn284 Mn 0.99924 -0.04428 0.49911
 Cl285 Cl 0.99956 -0.00000 0.49992
 C286 C 1.04878 -0.05065 0.55688
 C287 C 1.04867 -0.04866 0.44122
 C288 C 1.12019 0.12052 0.28326
 C289 C 1.10571 0.13515 0.26719
 C290 C 1.11610 0.14534 0.24558
 C291 C 1.14152 0.14146 0.23944
 C292 C 1.15586 0.12668 0.25595
 C293 C 1.14530 0.11630 0.27737
 C294 C 1.10922 0.10984 0.30625
 C295 C 1.11357 0.08490 0.31261
 C296 C 1.10348 0.07491 0.33446
 C297 C 1.08906 0.08973 0.35061
 C298 C 1.08473 0.11472 0.34415
 C299 C 1.09458 0.12461 0.32214
 C300 C 1.07877 0.07925 0.37417
 C301 C 1.05523 0.08677 0.38307
 C302 C 1.04577 0.07722 0.40539
 C303 C 1.05950 0.05973 0.41916
 C304 C 1.08286 0.05198 0.41025
 C305 C 1.09247 0.06174 0.38808
 H306 H 1.08613 0.13832 0.27112
 H307 H 1.10364 0.15543 0.23338
 H308 H 1.17564 0.12379 0.25324
 H309 H 1.15701 0.10544 0.28974
 H310 H 1.12454 0.07305 0.30050
 H311 H 1.10679 0.05548 0.33854
 H312 H 1.07413 0.12682 0.35632
 H313 H 1.09120 0.14398 0.31779
 H314 H 1.04393 0.09983 0.37264
 H315 H 1.02758 0.08334 0.41173
 H316 H 1.09387 0.03858 0.42057
 H317 H 1.11083 0.05583 0.38207
 C318 C 0.87749 -0.12010 0.28261
 C319 C 0.86856 -0.10507 0.26310
 C320 C 0.85808 -0.11565 0.24169
 C321 C 0.85673 -0.14170 0.23879
 C322 C 0.86593 -0.15666 0.25838
 C323 C 0.87583 -0.14604 0.27999
 C324 C 0.88844 -0.10886 0.30560
 C325 C 0.90772 -0.12100 0.31862
 C326 C 0.91758 -0.11084 0.34048
 C327 C 0.90886 -0.08794 0.34971
 C328 C 0.88986 -0.07558 0.33647
 C329 C 0.87963 -0.08601 0.31487
 C330 C 0.91939 -0.07719 0.37312
 C331 C 0.90433 -0.06308 0.38939
 C332 C 0.91417 -0.05328 0.41146
 C333 C 0.93909 -0.05782 0.41804
 C334 C 0.95419 -0.07185 0.40195
 C335 C 0.94455 -0.08118 0.37962
 H336 H 0.87007 -0.08504 0.26406
 H337 H 0.85216 -0.10322 0.22697
 H338 H 0.86447 -0.17671 0.25773
 H339 H 0.88174 -0.15830 0.29487
 H340 H 0.91539 -0.13837 0.31190
 H341 H 0.93185 -0.12120 0.35028
 H342 H 0.88290 -0.05773 0.34266
 H343 H 0.86458 -0.07622 0.30566
 H344 H 0.88478 -0.05997 0.38539
 H345 H 0.90213 -0.04260 0.42366
 H346 H 0.97358 -0.07535 0.40649
 H347 H 0.95695 -0.09136 0.36738
 C348 C 0.88018 0.12134 0.71793
 C349 C 0.87438 0.14684 0.71909
 C350 C 0.86432 0.15720 0.74077
 C351 C 0.85943 0.14225 0.76164
 C352 C 0.86498 0.11679 0.76056
 C353 C 0.87544 0.10647 0.73901
 C354 C 0.89100 0.11033 0.69481
 C355 C 0.88476 0.08605 0.68737
 C356 C 0.89479 0.07581 0.66559
 C357 C 0.91107 0.08970 0.65046
 C358 C 0.91728 0.11400 0.65789
 C359 C 0.90754 0.12410 0.67984
 C360 C 0.92136 0.07902 0.62695
 C361 C 0.94562 0.08508 0.61892
 C362 C 0.95504 0.07553 0.59657
 C363 C 0.94059 0.05938 0.58196
 C364 C 0.91655 0.05296 0.59004
 C365 C 0.90695 0.06283 0.61218
 H366 H 0.87723 0.15879 0.70311
 H367 H 0.85989 0.17685 0.74110
 H368 H 0.86158 0.10495 0.77654
 H369 H 0.88009 0.08689 0.73904
 H370 H 0.87183 0.07498 0.69818
 H371 H 0.88986 0.05692 0.66073
 H372 H 0.92944 0.12543 0.64658
 H373 H 0.91314 0.14269 0.68513
 H374 H 0.95750 0.09702 0.63001
 H375 H 0.97377 0.08056 0.59088
 H376 H 0.90498 0.04062 0.57904
 H377 H 0.88805 0.05807 0.61747
 C378 C 1.11992 -0.12250 0.71582
 C379 C 1.11608 -0.14755 0.72179
 C380 C 1.12660 -0.15781 0.74331
 C381 C 1.14113 -0.14321 0.75982
 C382 C 1.14452 -0.11786 0.75364
 C383 C 1.13421 -0.10777 0.73193
 C384 C 1.10923 -0.11181 0.69268
 C385 C 1.12398 -0.09701 0.67696
 C386 C 1.11405 -0.08715 0.65498
 C387 C 1.08903 -0.09161 0.64837
 C388 C 1.07426 -0.10633 0.66426
 C389 C 1.08430 -0.11644 0.68610
 C390 C 1.07845 -0.08102 0.62497
 C391 C 1.06101 -0.09449 0.61074
 C392 C 1.05121 -0.08456 0.58871
 C393 C 1.05887 -0.06108 0.58028
 C394 C 1.07626 -0.04758 0.59440
 C395 C 1.08583 -0.05736 0.61657
 H396 H 1.10546 -0.15942 0.70940
 H397 H 1.12405 -0.17752 0.74611
 H398 H 1.15433 -0.10522 0.76585
 H399 H 1.13705 -0.08824 0.72797
 H400 H 1.14336 -0.09345 0.68146
 H401 H 1.12613 -0.07635 0.64298
 H402 H 1.05481 -0.10979 0.66003
 H403 H 1.07247 -0.12758 0.69806
 H404 H 1.05520 -0.11291 0.61638
 H405 H 1.03789 -0.09539 0.57811
 H406 H 1.08229 -0.02931 0.58844
 H407 H 1.09881 -0.04622 0.62726
 C408 C 0.28476 1.12126 1.12277
 C409 C 0.27871 1.14631 1.11872
 C410 C 0.25705 1.15664 1.12888
 C411 C 0.24040 1.14219 1.14333
 C412 C 0.24663 1.11690 1.14710
 C413 C 0.26844 1.10670 1.13710
 C414 C 0.30802 1.11041 1.11214
 C415 C 0.30848 1.08576 1.10333
 C416 C 0.33035 1.07563 1.09337
 C417 C 0.35215 1.08998 1.09173
 C418 C 0.35176 1.11458 1.10044
 C419 C 0.33000 1.12464 1.11068
 C420 C 0.37525 1.07939 1.08090
 C421 C 0.38904 1.09291 1.06323
 C422 C 0.41086 1.08299 1.05301
 C423 C 0.41950 1.05950 1.06053
 C424 C 0.40575 1.04599 1.07823
 C425 C 0.38373 1.05578 1.08820
 H426 H 0.29071 1.15807 1.10756
 H427 H 0.25418 1.17630 1.12597
 H428 H 0.23440 1.10438 1.15704
 H429 H 0.27257 1.08735 1.14078
 H430 H 0.29183 1.07440 1.10373
 H431 H 0.33012 1.05669 1.08652
 H432 H 0.36844 1.12592 1.09968
 H433 H 0.33052 1.14348 1.11775
 H434 H 0.38275 1.11106 1.05713
 H435 H 0.42108 1.09377 1.03936
 H436 H 0.41196 1.02780 1.08428
 H437 H 0.37349 1.04507 1.10191
 C438 C 0.28336 0.88005 0.87788
 C439 C 0.27929 0.88059 0.85203
 C440 C 0.25786 0.86987 0.84180
 C441 C 0.23978 0.85875 0.85724
 C442 C 0.24383 0.85853 0.88320
 C443 C 0.26549 0.86888 0.89337
 C444 C 0.30635 0.89090 0.88862
 C445 C 0.32091 0.87718 0.90545
 C446 C 0.34291 0.88718 0.91521
 C447 C 0.35062 0.91134 0.90869
 C448 C 0.33575 0.92513 0.89201
 C449 C 0.31398 0.91493 0.88193
 C450 C 0.37409 0.92199 0.91911
 C451 C 0.38906 0.93803 0.90474
 C452 C 0.41115 0.94789 0.91449
 C453 C 0.41898 0.94158 0.93865
 C454 C 0.40417 0.92558 0.95305
 C455 C 0.38187 0.91607 0.94348
 H456 H 0.29298 0.88886 0.83970
 H457 H 0.25570 0.86995 0.82172
 H458 H 0.23015 0.85061 0.89574
 H459 H 0.26814 0.86848 0.91340
 H460 H 0.31553 0.85848 0.91065
 H461 H 0.35408 0.87577 0.92754
 H462 H 0.34074 0.94394 0.88692
 H463 H 0.30287 0.92595 0.86917
 H464 H 0.38398 0.94269 0.88576
 H465 H 0.42231 0.96011 0.90297
 H466 H 0.40966 0.92064 0.97186
 H467 H 0.37063 0.90427 0.95534
 C468 C 0.72023 0.88101 1.11576
 C469 C 0.73909 0.89607 1.12597
 C470 C 0.76020 0.88551 1.13708
 C471 C 0.76350 0.85949 1.13777
 C472 C 0.74473 0.84452 1.12703
 C473 C 0.72337 0.85509 1.11653
 C474 C 0.69719 0.89216 1.10475
 C475 C 0.68463 0.88036 1.08497
 C476 C 0.66240 0.89012 1.07548
 C477 C 0.65233 0.91232 1.08506
 C478 C 0.66526 0.92449 1.10438
 C479 C 0.68719 0.91442 1.11426
 C480 C 0.62831 0.92246 1.07525
 C481 C 0.61185 0.93555 1.09101
 C482 C 0.58931 0.94494 1.08188
 C483 C 0.58238 0.94093 1.05698
 C484 C 0.59855 0.92778 1.04120
 C485 C 0.62140 0.91890 1.05013
 H486 H 0.73777 0.91612 1.12515
 H487 H 0.77437 0.89796 1.14417
 H488 H 0.74568 0.82444 1.12786
 H489 H 0.70900 0.84275 1.10962
 H490 H 0.69192 0.86350 1.07671
 H491 H 0.65293 0.87992 1.06088
 H492 H 0.65850 0.94188 1.11196
 H493 H 0.69601 0.92396 1.12970
 H494 H 0.61611 0.93823 1.11056
 H495 H 0.57704 0.95493 1.09445
 H496 H 0.59373 0.92472 1.02181
 H497 H 0.63371 0.90949 1.03721
 C498 C 0.71751 1.12155 0.88025
 C499 C 0.72336 1.14658 0.88432
 C500 C 0.74488 1.15699 0.87398
 C501 C 0.76151 1.14256 0.85940
 C502 C 0.75541 1.11721 0.85571
 C503 C 0.73370 1.10698 0.86585
 C504 C 0.69441 1.11073 0.89083
 C505 C 0.67865 1.09609 0.87594
 C506 C 0.65662 1.08625 0.88575
 C507 C 0.64999 1.09057 0.91079
 C508 C 0.66596 1.10505 0.92572
 C509 C 0.68784 1.11514 0.91580
 C510 C 0.62646 1.08015 0.92120
 C511 C 0.61232 1.09367 0.93870
 C512 C 0.59016 1.08393 0.94835
 C513 C 0.58148 1.06061 0.94048
 C514 C 0.59550 1.04705 0.92303
 C515 C 0.61781 1.05664 0.91361
 H516 H 0.71090 1.15833 0.89501
 H517 H 0.74759 1.17670 0.87671
 H518 H 0.76770 1.10470 0.84582
 H519 H 0.72980 1.08746 0.86282
 H520 H 0.68315 1.09269 0.85653
 H521 H 0.64456 1.07563 0.87355
 H522 H 0.66174 1.10836 0.94519
 H523 H 0.69985 1.12613 0.92774
 H524 H 0.61814 1.11199 0.94467
 H525 H 0.57964 1.09480 0.96173
 H526 H 0.58934 1.02890 0.91683
 H527 H 0.62842 1.04548 0.90056
 C528 C 0.12219 0.28333 0.12126
 C529 C 0.14772 0.28199 0.12734
 C530 C 0.15785 0.26035 0.13759
 C531 C 0.14264 0.23969 0.14238
 C532 C 0.11713 0.24096 0.13658
 C533 C 0.10704 0.26246 0.12595
 C534 C 0.11143 0.30639 0.11022
 C535 C 0.08704 0.31403 0.11621
 C536 C 0.07704 0.33576 0.10600
 C537 C 0.09126 0.35066 0.08980
 C538 C 0.11565 0.34302 0.08381
 C539 C 0.12553 0.32110 0.09373
 C540 C 0.08081 0.37416 0.07940
 C541 C 0.08706 0.38206 0.05515
 C542 C 0.07751 0.40430 0.04558
 C543 C 0.06121 0.41892 0.05990
 C544 C 0.05473 0.41102 0.08398
 C545 C 0.06457 0.38900 0.09371
 H546 H 0.15987 0.29780 0.12454
 H547 H 0.17753 0.25988 0.14219
 H548 H 0.10510 0.22513 0.13989
 H549 H 0.08743 0.26258 0.12111
 H550 H 0.07572 0.30342 0.12908
 H551 H 0.05806 0.34078 0.11074
 H552 H 0.12732 0.35413 0.07169
 H553 H 0.14421 0.31564 0.08833
 H554 H 0.09909 0.37092 0.04338
 H555 H 0.08262 0.40987 0.02685
 H556 H 0.04230 0.42204 0.09546
 H557 H 0.05971 0.38384 0.11260
 C558 C -0.12097 0.28453 -0.12043
 C559 C -0.10583 0.26368 -0.12526
 C560 C -0.11599 0.24212 -0.13567
 C561 C -0.14157 0.24079 -0.14109
 C562 C -0.15680 0.26143 -0.13614
 C563 C -0.14659 0.28313 -0.12611
 C564 C -0.11014 0.30763 -0.10958
 C565 C -0.12403 0.32232 -0.09288
 C566 C -0.11405 0.34419 -0.08302
 C567 C -0.08974 0.35181 -0.08928
 C568 C -0.07573 0.33698 -0.10575
 C569 C -0.08585 0.31528 -0.11590
 C570 C -0.07914 0.37518 -0.07879
 C571 C -0.06307 0.39015 -0.09312
 C572 C -0.05322 0.41212 -0.08330
 C573 C -0.05954 0.41982 -0.05911
 C574 C -0.07559 0.40501 -0.04474
 C575 C -0.08513 0.38284 -0.05439
 H576 H -0.08615 0.26384 -0.12069
 H577 H -0.10395 0.22631 -0.13911
 H578 H -0.17654 0.26091 -0.14047
 H579 H -0.15876 0.29894 -0.12318
 H580 H -0.14263 0.31686 -0.08724
 H581 H -0.12557 0.35527 -0.07071
 H582 H -0.05682 0.34200 -0.11073
 H583 H -0.07469 0.30469 -0.12895
 H584 H -0.05838 0.38515 -0.11211
 H585 H -0.04095 0.42328 -0.09480
 H586 H -0.08054 0.41041 -0.02591
 H587 H -0.09698 0.37158 -0.04259
 C588 C 0.12246 0.71558 -0.12160
 C589 C 0.12746 0.73652 -0.10666
 C590 C 0.13787 0.75797 -0.11706
 C591 C 0.14315 0.75910 -0.14267
 C592 C 0.13810 0.73834 -0.15768
 C593 C 0.12806 0.71675 -0.14725
 C594 C 0.11148 0.69264 -0.11055
 C595 C 0.09467 0.67796 -0.12428
 C596 C 0.08465 0.65625 -0.11408
 C597 C 0.09087 0.64879 -0.08971
 C598 C 0.10747 0.66363 -0.07586
 C599 C 0.11777 0.68515 -0.08620
 C600 C 0.08024 0.62558 -0.07889
 C601 C 0.09450 0.61066 -0.06268
 C602 C 0.08458 0.58881 -0.05267
 C603 C 0.06036 0.58117 -0.05896
 C604 C 0.04606 0.59593 -0.07514
 C605 C 0.05581 0.61799 -0.08484
 H606 H 0.12297 0.73654 -0.08697
 H607 H 0.14139 0.77387 -0.10517
 H608 H 0.14230 0.73870 -0.17744
 H609 H 0.12502 0.70087 -0.15926
 H610 H 0.08904 0.68330 -0.14292
 H611 H 0.07225 0.64517 -0.12549
 H612 H 0.11242 0.65874 -0.05691
 H613 H 0.13090 0.69574 -0.07514
 H614 H 0.11352 0.61559 -0.05802
 H615 H 0.09604 0.57768 -0.04031
 H616 H 0.02722 0.59058 -0.08008
 H617 H 0.04406 0.62921 -0.09680
 C618 C -0.12453 0.71245 0.12611
 C619 C -0.13116 0.71398 0.15148
 C620 C -0.14126 0.73587 0.16130
 C621 C -0.14531 0.75655 0.14588
 C622 C -0.13885 0.75509 0.12056
 C623 C -0.12840 0.73337 0.11082
 C624 C -0.11364 0.68922 0.11557
 C625 C -0.11923 0.68181 0.09104
 C626 C -0.10873 0.66026 0.08097
 C627 C -0.09264 0.64529 0.09526
 C628 C -0.08722 0.65257 0.11988
 C629 C -0.09747 0.67432 0.12986
 C630 C -0.08159 0.62224 0.08450
 C631 C -0.05721 0.61477 0.09083
 C632 C -0.04686 0.59318 0.08061
 C633 C -0.06053 0.57879 0.06359
 C634 C -0.08481 0.58619 0.05715
 C635 C -0.09530 0.60755 0.06763
 H636 H -0.12888 0.69815 0.16373
 H637 H -0.14631 0.73652 0.18086
 H638 H -0.14148 0.77095 0.10839
 H639 H -0.12304 0.73314 0.09135
 H640 H -0.13190 0.69255 0.07958
 H641 H -0.11307 0.65551 0.06183
 H642 H -0.07521 0.64136 0.13160
 H643 H -0.09244 0.67958 0.14869
 H644 H -0.04591 0.62581 0.10338
 H645 H -0.02802 0.58796 0.08574
 H646 H -0.09582 0.57532 0.04420
 H647 H -0.11428 0.61238 0.06270
 C648 C 1.11951 0.11951 0.71798
 C649 C 1.13420 0.10531 0.73422
 C650 C 1.14436 0.11591 0.75575
 C651 C 1.14041 0.14128 0.76161
 C652 C 1.12549 0.15533 0.74498
 C653 C 1.11513 0.14456 0.72363
 C654 C 1.10896 0.10833 0.69502
 C655 C 1.08393 0.11247 0.68849
 C656 C 1.07407 0.10222 0.66665
 C657 C 1.08913 0.08786 0.65066
 C658 C 1.11420 0.08370 0.65731
 C659 C 1.12395 0.09370 0.67932
 C660 C 1.07883 0.07758 0.62700
 C661 C 1.08652 0.05418 0.61810
 C662 C 1.07711 0.04477 0.59567
 C663 C 1.05961 0.05843 0.58181
 C664 C 1.05172 0.08166 0.59073
 C665 C 1.06133 0.09121 0.61298
 H666 H 1.13747 0.08578 0.73049
 H667 H 1.15451 0.10365 0.76809
 H668 H 1.12250 0.17503 0.74751
 H669 H 1.10419 0.15604 0.71113
 H670 H 1.07190 0.12342 0.70046
 H671 H 1.05457 0.10539 0.66243
 H672 H 1.12647 0.07313 0.64527
 H673 H 1.14340 0.09048 0.68380
 H674 H 1.09961 0.04296 0.62860
 H675 H 1.08334 0.02668 0.58932
 H676 H 1.03830 0.09262 0.58035
 H677 H 1.05531 0.10947 0.61898
 C678 C 0.87494 -0.12772 0.71187
 C679 C 0.84900 -0.12822 0.71580
 C680 C 0.83898 -0.13803 0.73776
 C681 C 0.85456 -0.14831 0.75633
 C682 C 0.88055 -0.14823 0.75205
 C683 C 0.89055 -0.13781 0.73038
 C684 C 0.88568 -0.11657 0.68874
 C685 C 0.90802 -0.12576 0.67845
 C686 C 0.91837 -0.11496 0.65713
 C687 C 0.90640 -0.09501 0.64507
 C688 C 0.88387 -0.08606 0.65515
 C689 C 0.87382 -0.09648 0.67680
 C690 C 0.91737 -0.08361 0.62217
 C691 C 0.91411 -0.05812 0.61704
 C692 C 0.92415 -0.04754 0.59545
 C693 C 0.93818 -0.06203 0.57881
 C694 C 0.94178 -0.08732 0.58393
 C695 C 0.93124 -0.09808 0.60519
 H696 H 0.83624 -0.12136 0.70173
 H697 H 0.81887 -0.13846 0.73954
 H698 H 0.89350 -0.15498 0.76599
 H699 H 0.91065 -0.13717 0.72849
 H700 H 0.91755 -0.14146 0.68673
 H701 H 0.93595 -0.12218 0.65031
 H702 H 0.87378 -0.07105 0.64625
 H703 H 0.85684 -0.08853 0.68428
 H704 H 0.90411 -0.04618 0.62984
 H705 H 0.92133 -0.02790 0.59199
 H706 H 0.95237 -0.09892 0.57124
 H707 H 0.93372 -0.11783 0.60806
 C708 C 1.11927 -0.11985 0.28144
 C709 C 1.12570 -0.14521 0.28082
 C710 C 1.13608 -0.15575 0.25938
 C711 C 1.14062 -0.14114 0.23819
 C712 C 1.13445 -0.11580 0.23874
 C713 C 1.12371 -0.10529 0.26007
 C714 C 1.10814 -0.10871 0.30434
 C715 C 1.11398 -0.08425 0.31153
 C716 C 1.10384 -0.07400 0.33327
 C717 C 1.08784 -0.08804 0.34856
 C718 C 1.08195 -0.11247 0.34130
 C719 C 1.09181 -0.12258 0.31942
 C720 C 1.07757 -0.07744 0.37211
 C721 C 1.05342 -0.08376 0.38026
 C722 C 1.04410 -0.07447 0.40276
 C723 C 1.05854 -0.05835 0.41742
 C724 C 1.08245 -0.05163 0.40918
 C725 C 1.09194 -0.06121 0.38686
 H726 H 1.12312 -0.15690 0.29704
 H727 H 1.14103 -0.17528 0.25952
 H728 H 1.13759 -0.10421 0.22252
 H729 H 1.11862 -0.08582 0.25968
 H730 H 1.12671 -0.07308 0.30059
 H731 H 1.10850 -0.05501 0.33801
 H732 H 1.06999 -0.12400 0.35273
 H733 H 1.08652 -0.14132 0.31430
 H734 H 1.04158 -0.09574 0.36918
 H735 H 1.02547 -0.07973 0.40856
 H736 H 1.09400 -0.03928 0.42020
 H737 H 1.11075 -0.05625 0.38145
 C738 C 0.87976 0.12096 0.28319
 C739 C 0.85458 0.11706 0.27738
 C740 C 0.84414 0.12740 0.25587
 C741 C 0.85866 0.14180 0.23921
 C742 C 0.88415 0.14530 0.24526
 C743 C 0.89443 0.13517 0.26696
 C744 C 0.89061 0.11038 0.30628
 C745 C 0.90544 0.12512 0.32200
 C746 C 0.91522 0.11533 0.34408
 C747 C 0.91063 0.09047 0.35079
 C748 C 0.89601 0.07567 0.33482
 C749 C 0.88599 0.08557 0.31290
 C750 C 0.92085 0.08009 0.37443
 C751 C 0.90695 0.06292 0.38853
 C752 C 0.91653 0.05316 0.41071
 C753 C 0.94005 0.06059 0.41946
 C754 C 0.95395 0.07778 0.40553
 C755 C 0.94452 0.08732 0.38318
 H756 H 0.84275 0.10651 0.28987
 H757 H 0.82432 0.12480 0.25319
 H758 H 0.89674 0.15505 0.23294
 H759 H 0.91406 0.13806 0.27083
 H760 H 0.90902 0.14441 0.31745
 H761 H 0.92599 0.12741 0.35612
 H762 H 0.89250 0.05633 0.33910
 H763 H 0.87486 0.07374 0.30092
 H764 H 0.88849 0.05726 0.38263
 H765 H 0.90538 0.04001 0.42117
 H766 H 0.97226 0.08365 0.41175
 H767 H 0.95594 0.10013 0.37261
 C768 C 0.12027 0.28459 -0.12234
 C769 C 0.14541 0.27871 -0.11825
 C770 C 0.15586 0.25721 -0.12851
 C771 C 0.14136 0.24060 -0.14300
 C772 C 0.11595 0.24679 -0.14682
 C773 C 0.10568 0.26849 -0.13678
 C774 C 0.10936 0.30754 -0.11160
 C775 C 0.09462 0.32335 -0.12634
 C776 C 0.08478 0.34527 -0.11634
 C777 C 0.08921 0.35171 -0.09128
 C778 C 0.10372 0.33562 -0.07649
 C779 C 0.11381 0.31388 -0.08659
 C780 C 0.07895 0.37519 -0.08066
 C781 C 0.09270 0.38894 -0.06305
 C782 C 0.08309 0.41093 -0.05303
 C783 C 0.05967 0.41986 -0.06062
 C784 C 0.04592 0.40629 -0.07826
 C785 C 0.05539 0.38412 -0.08807
 H786 H 0.15720 0.29111 -0.10755
 H787 H 0.17564 0.25447 -0.12571
 H788 H 0.10338 0.23456 -0.15669
 H789 H 0.08608 0.27242 -0.13985
 H790 H 0.09115 0.31901 -0.14577
 H791 H 0.07409 0.35739 -0.12842
 H792 H 0.10709 0.33967 -0.05699
 H793 H 0.12484 0.30181 -0.07475
 H794 H 0.11109 0.38293 -0.05724
 H795 H 0.09413 0.42110 -0.03953
 H796 H 0.02771 0.41266 -0.08427
 H797 H 0.04407 0.37383 -0.10122
 C798 C -0.11948 0.28303 0.12062
 C799 C -0.11880 0.27905 0.14647
 C800 C -0.12942 0.25770 0.15680
 C801 C -0.14058 0.23961 0.14144
 C802 C -0.14097 0.24359 0.11548
 C803 C -0.13073 0.26517 0.10521
 C804 C -0.10865 0.30590 0.10980
 C805 C -0.12253 0.32041 0.09304
 C806 C -0.11258 0.34237 0.08334
 C807 C -0.08833 0.35010 0.08985
 C808 C -0.07437 0.33526 0.10640
 C809 C -0.08451 0.31353 0.11642
 C810 C -0.07778 0.37361 0.07963
 C811 C -0.06175 0.38847 0.09414
 C812 C -0.05194 0.41057 0.08458
 C813 C -0.05830 0.41853 0.06049
 C814 C -0.07432 0.40385 0.04595
 C815 C -0.08378 0.38154 0.05533
 H816 H -0.11049 0.29274 0.15874
 H817 H -0.12923 0.25560 0.17688
 H818 H -0.14894 0.22990 0.10301
 H819 H -0.13124 0.26777 0.08518
 H820 H -0.14131 0.31501 0.08789
 H821 H -0.12411 0.35350 0.07108
 H822 H -0.05547 0.34027 0.11145
 H823 H -0.07337 0.30247 0.12912
 H824 H -0.05705 0.38329 0.11308
 H825 H -0.03971 0.42165 0.09621
 H826 H -0.07930 0.40946 0.02719
 H827 H -0.09560 0.37039 0.04337
 C828 C -0.11815 0.71889 -0.11787
 C829 C -0.11833 0.72194 -0.14392
 C830 C -0.12848 0.74323 -0.15481
 C831 C -0.13949 0.76203 -0.14009
 C832 C -0.13947 0.75879 -0.11395
 C833 C -0.12869 0.73775 -0.10304
 C834 C -0.10729 0.69603 -0.10636
 C835 C -0.11714 0.68616 -0.08414
 C836 C -0.10724 0.66447 -0.07369
 C837 C -0.08755 0.65169 -0.08544
 C838 C -0.07770 0.66159 -0.10765
 C839 C -0.08720 0.68357 -0.11776
 C840 C -0.07754 0.62801 -0.07486
 C841 C -0.05228 0.62145 -0.07809
 C842 C -0.04316 0.59881 -0.06914
 C843 C -0.05887 0.58250 -0.05615
 C844 C -0.08388 0.58914 -0.05228
 C845 C -0.09321 0.61149 -0.06179
 H846 H -0.11116 0.70757 -0.15610
 H847 H -0.12883 0.74413 -0.17498
 H848 H -0.14682 0.77297 -0.10165
 H849 H -0.12834 0.73650 -0.08290
 H850 H -0.13281 0.69492 -0.07491
 H851 H -0.11507 0.65781 -0.05633
 H852 H -0.06285 0.65220 -0.11757
 H853 H -0.07868 0.69075 -0.13458
 H854 H -0.03940 0.63384 -0.08740
 H855 H -0.02369 0.59422 -0.07207
 H856 H -0.09638 0.57675 -0.04242
 H857 H -0.11284 0.61551 -0.05931
 C858 C 0.12557 0.71267 0.12473
 C859 C 0.14070 0.72814 0.11016
 C860 C 0.15065 0.75000 0.12009
 C861 C 0.14599 0.75704 0.14512
 C862 C 0.13086 0.74104 0.15964
 C863 C 0.12074 0.71933 0.14954
 C864 C 0.11473 0.68970 0.11401
 C865 C 0.08948 0.68390 0.11788
 C866 C 0.07917 0.66239 0.10754
 C867 C 0.09395 0.64604 0.09332
 C868 C 0.11929 0.65185 0.08962
 C869 C 0.12951 0.67351 0.09973
 C870 C 0.08301 0.62305 0.08242
 C871 C 0.09067 0.61447 0.05883
 C872 C 0.08051 0.59278 0.04868
 C873 C 0.06229 0.57935 0.06179
 C874 C 0.05446 0.58794 0.08524
 C875 C 0.06480 0.60947 0.09552
 H876 H 0.14434 0.72363 0.09080
 H877 H 0.16105 0.76174 0.10749
 H878 H 0.12740 0.74449 0.17920
 H879 H 0.10949 0.70743 0.16132
 H880 H 0.07761 0.69626 0.12854
 H881 H 0.05950 0.65878 0.11038
 H882 H 0.13134 0.63948 0.07919
 H883 H 0.14911 0.67742 0.09673
 H884 H 0.10429 0.62468 0.04801
 H885 H 0.08674 0.58667 0.03046
 H886 H 0.04051 0.57787 0.09579
 H887 H 0.05875 0.61527 0.11389
 C888 C 0.28321 1.12260 0.87907
 C889 C 0.26215 1.10762 0.87456
 C890 C 0.24051 1.11777 0.86412
 C891 C 0.23929 1.14317 0.85834
 C892 C 0.26013 1.15824 0.86303
 C893 C 0.28191 1.14805 0.87309
 C894 C 0.30643 1.11174 0.88985
 C895 C 0.32141 1.12563 0.90628
 C896 C 0.34341 1.11562 0.91605
 C897 C 0.35088 1.09129 0.90994
 C898 C 0.33576 1.07730 0.89373
 C899 C 0.31394 1.08745 0.88369
 C900 C 0.37438 1.08064 0.92032
 C901 C 0.38918 1.06439 0.90598
 C902 C 0.41122 1.05441 0.91572
 C903 C 0.41917 1.06076 0.93983
 C904 C 0.40455 1.07703 0.95417
 C905 C 0.38231 1.08672 0.94461
 H906 H 0.26223 1.08808 0.87936
 H907 H 0.22455 1.10585 0.86090
 H908 H 0.25971 1.17784 0.85844
 H909 H 0.29787 1.16008 0.87579
 H910 H 0.31608 1.14425 0.91179
 H911 H 0.35471 1.12712 0.92816
 H912 H 0.34065 1.05839 0.88888
 H913 H 0.30312 1.07628 0.87083
 H914 H 0.38398 1.05964 0.88706
 H915 H 0.42223 1.04200 0.90422
 H916 H 0.41015 1.08204 0.97293
 H917 H 0.37120 1.09873 0.95640
 C918 C 0.28379 0.87840 1.12023
 C919 C 0.26228 0.89297 1.12400
 C920 C 0.24089 0.88267 1.13478
 C921 C 0.24043 0.85751 1.14168
 C922 C 0.26179 0.84290 1.13786
 C923 C 0.28329 0.85325 1.12741
 C924 C 0.30669 0.88935 1.10896
 C925 C 0.32198 0.87514 1.09308
 C926 C 0.34379 0.88520 1.08298
 C927 C 0.35075 0.90985 1.08822
 C928 C 0.33526 0.92418 1.10380
 C929 C 0.31361 0.91402 1.11415
 C930 C 0.37419 0.92043 1.07775
 C931 C 0.38869 0.93716 1.09180
 C932 C 0.41078 0.94696 1.08209
 C933 C 0.41908 0.94000 1.05826
 C934 C 0.40474 0.92329 1.04416
 C935 C 0.38245 0.91374 1.05373
 H936 H 0.26179 0.91226 1.11831
 H937 H 0.22453 0.89424 1.13733
 H938 H 0.26198 0.82352 1.14334
 H939 H 0.29962 0.84159 1.12533
 H940 H 0.31707 0.85622 1.08831
 H941 H 0.35538 0.87347 1.07135
 H942 H 0.33978 0.94335 1.10795
 H943 H 0.30251 0.92545 1.12653
 H944 H 0.38321 0.94239 1.11052
 H945 H 0.42155 0.95974 1.09338
 H946 H 0.41060 0.91781 1.02562
 H947 H 0.37157 0.90132 1.04216
 C948 C 0.71609 1.12191 1.12187
 C949 C 0.71744 1.12771 1.14745
 C950 C 0.73916 1.13788 1.15764
 C951 C 0.75987 1.14286 1.14244
 C952 C 0.75857 1.13736 1.11688
 C953 C 0.73700 1.12681 1.10674
 C954 C 0.69300 1.11087 1.11106
 C955 C 0.68530 1.11695 1.08672
 C956 C 0.66361 1.10663 1.07661
 C957 C 0.64880 1.09023 1.09068
 C958 C 0.65647 1.08419 1.11504
 C959 C 0.67836 1.09422 1.12501
 C960 C 0.62539 1.07964 1.08009
 C961 C 0.61776 1.05535 1.08615
 C962 C 0.59561 1.04559 1.07646
 C963 C 0.58081 1.05975 1.06019
 C964 C 0.58844 1.08388 1.05389
 C965 C 0.61036 1.09380 1.06388
 H966 H 0.70159 1.12474 1.15961
 H967 H 0.73966 1.14224 1.17737
 H968 H 0.77444 1.14082 1.10486
 H969 H 0.73689 1.12217 1.08709
 H970 H 0.69585 1.12995 1.07551
 H971 H 0.65856 1.11144 1.05766
 H972 H 0.64542 1.07192 1.12659
 H973 H 0.68386 1.08874 1.14365
 H974 H 0.62905 1.04369 1.09815
 H975 H 0.59025 1.02682 1.08143
 H976 H 0.57727 1.09524 1.04149
 H977 H 0.61531 1.11272 1.05916
 C978 C 0.71649 0.87813 0.87734
 C979 C 0.71688 0.87025 0.85230
 C980 C 0.73837 0.85965 0.84205
 C981 C 0.75986 0.85638 0.85666
 C982 C 0.75951 0.86398 0.88171
 C983 C 0.73812 0.87489 0.89190
 C984 C 0.69360 0.88955 0.88820
 C985 C 0.68686 0.88499 0.91314
 C986 C 0.66523 0.89550 0.92323
 C987 C 0.64959 0.91061 0.90858
 C988 C 0.65637 0.91522 0.88366
 C989 C 0.67815 0.90495 0.87365
 C990 C 0.62618 0.92124 0.91912
 C991 C 0.61783 0.94501 0.91196
 C992 C 0.59558 0.95473 0.92152
 C993 C 0.58137 0.94103 0.93867
 C994 C 0.58976 0.91745 0.94608
 C995 C 0.61182 0.90759 0.93629
 H996 H 0.70045 0.87193 0.84067
 H997 H 0.73809 0.85364 0.82276
 H998 H 0.77596 0.86189 0.89327
 H999 H 0.73869 0.88112 0.91110
 H1000 H 0.69809 0.87300 0.92484
 H1001 H 0.66085 0.89184 0.94260
 H1002 H 0.64466 0.92648 0.87169
 H1003 H 0.68291 0.90921 0.85450
 H1004 H 0.62860 0.95626 0.89916
 H1005 H 0.58965 0.97308 0.91568
 H1006 H 0.57910 0.90646 0.95922
 H1007 H 0.61737 0.88907 0.94191
   
