data_POSCAR
  _audit_creation_date              2014-09-24
  _audit_creation_method            'ToBaCCo'
  _symmetry_space_group_name_H-M    'P1'
  _symmetry_Int_Tables_number       1
  _symmetry_cell_setting            triclinic
  loop_
  _symmetry_equiv_pos_as_xyz
 x,y,z
_cell_length_a 33.3650
_cell_length_b 33.4090
_cell_length_c 33.4777
_cell_angle_alpha 89.617100
_cell_angle_beta 88.988700
_cell_angle_gamma 89.107400
loop_
  _atom_site_label
  _atom_site_type_symbol
  _atom_site_fract_x
  _atom_site_fract_y
  _atom_site_fract_z
C1 C 0.74961 0.61733 1.00060
 C2 C 0.75158 0.36859 0.50392
 C3 C 0.24449 -0.12652 0.00527
 C4 C 0.25600 0.11172 0.50199
 C5 C 0.12398 0.50758 0.26123
 C6 C -0.13123 0.01408 0.24243
 C7 C 0.37423 0.50400 0.75637
 C8 C 0.62606 0.99751 0.74902
 C9 C 0.00096 0.26173 -0.12604
 C10 C 0.49521 0.23966 0.11562
 C11 C 0.99884 0.76586 0.61842
 C12 C 0.51102 0.73893 0.37288
 C13 C 0.44864 -0.05460 0.27664
 H14 H 0.45794 -0.02500 0.28499
 C15 C 0.47029 -0.08810 0.28983
 H16 H 0.49594 -0.08377 0.30850
 C17 C 0.40344 -0.09596 0.24294
 H18 H 0.37716 -0.09922 0.22510
 C19 C 0.42434 -0.13030 0.25540
 H20 H 0.41358 -0.15957 0.24747
 N21 N 0.41471 -0.05908 0.25532
 C22 C 0.40232 0.06840 0.24943
 H23 H 0.37873 0.07104 0.27186
 C24 C 0.42043 0.10291 0.23434
 H25 H 0.41087 0.13200 0.24536
 C26 C 0.44156 0.02772 0.20557
 H27 H 0.44875 -0.00164 0.19376
 C28 C 0.46031 0.06145 0.18958
 H29 H 0.48223 0.05757 0.16571
 Zn30 Zn 0.38099 -0.01297 0.24824
 N31 N 0.41239 0.03187 0.23416
 C32 C 0.31370 0.00652 0.29818
 N33 N 0.35374 -0.00185 0.29739
 C34 C 0.37572 0.00017 0.33118
 C35 C 0.35781 0.01203 0.36727
 C36 C 0.29466 0.01891 0.33362
 C37 C 0.34716 -0.00033 0.17192
 C38 C 0.32439 -0.01022 0.13887
 C39 C 0.29281 -0.06183 0.17855
 C40 C 0.31597 -0.05082 0.21093
 N41 N 0.34378 -0.02167 0.20662
 H42 H 0.29680 0.00535 0.27100
 H43 H 0.40752 -0.00601 0.33001
 H44 H 0.37600 0.01495 0.39354
 H45 H 0.26316 0.02692 0.33323
 H46 H 0.36883 0.02321 0.16906
 H47 H 0.32932 0.00530 0.11077
 H48 H 0.27282 -0.08694 0.18158
 H49 H 0.31326 -0.06695 0.23895
 C50 C 0.44882 0.09968 0.20316
 C51 C 0.45701 -0.12656 0.28070
 C52 C 0.29773 -0.04206 0.14177
 C53 C 0.31709 0.02264 0.36845
 C54 C 0.06421 1.04817 0.79569
 H55 H 0.05791 1.01960 0.80965
 C56 C 0.04432 1.08271 0.80909
 H57 H 0.02283 1.08013 0.83345
 C58 C 0.10132 1.08592 0.74816
 H59 H 0.12356 1.08723 0.72444
 C60 C 0.08232 1.12134 0.76092
 H61 H 0.09053 1.14965 0.74738
 N62 N 0.09311 1.05047 0.76670
 C63 C 0.09072 0.92391 0.76159
 H64 H 0.11186 0.91851 0.78509
 C65 C 0.06973 0.89175 0.74620
 H66 H 0.07526 0.86180 0.75762
 C67 C 0.05922 0.96863 0.71630
 H68 H 0.05634 0.99850 0.70387
 C69 C 0.03756 0.93742 0.70018
 H70 H 0.01790 0.94378 0.67555
 Zn71 Zn 0.12302 1.00267 0.75579
 N72 N 0.08668 0.96106 0.74501
 C73 C 0.17988 0.95653 0.79779
 N74 N 0.15507 0.98910 0.80052
 C75 C 0.15192 1.01056 0.83495
 C76 C 0.17178 0.99759 0.86925
 C77 C 0.19995 0.94235 0.83141
 C78 C 0.15083 0.98861 0.67614
 C79 C 0.17180 0.99801 0.64089
 C80 C 0.20708 1.04849 0.67702
 C81 C 0.18565 1.03800 0.71157
 N82 N 0.15683 1.00980 0.71013
 H83 H 0.18248 0.94039 0.76992
 H84 H 0.13294 1.03698 0.83641
 H85 H 0.16730 1.01371 0.89695
 H86 H 0.21764 0.91495 0.82946
 H87 H 0.12872 0.96541 0.67570
 H88 H 0.16504 0.98266 0.61350
 H89 H 0.22790 1.07298 0.67802
 H90 H 0.19033 1.05395 0.73908
 C91 C 0.04420 0.89816 0.71395
 C92 C 0.05422 1.12003 0.79244
 C93 C 0.19952 1.02894 0.64101
 C94 C 0.19522 0.96251 0.86783
 C95 C 0.57097 0.52496 0.29244
 H96 H 0.56639 0.49652 0.30734
 C97 C 0.55284 0.55969 0.30767
 H98 H 0.53404 0.55731 0.33415
 C99 C 0.60354 0.56259 0.24149
 H100 H 0.62441 0.56383 0.21650
 C101 C 0.58623 0.59811 0.25596
 H102 H 0.59356 0.62639 0.24183
 N103 N 0.59624 0.52707 0.26030
 C104 C 0.61934 0.40617 0.21771
 H105 H 0.65162 0.40883 0.21660
 C106 C 0.60184 0.37145 0.20436
 H107 H 0.62127 0.34777 0.19321
 C108 C 0.55564 0.43471 0.23375
 H109 H 0.53792 0.45975 0.24485
 C110 C 0.53667 0.40032 0.21999
 H111 H 0.50426 0.39906 0.22018
 Zn112 Zn 0.62742 0.48134 0.24668
 N113 N 0.59637 0.43688 0.23215
 C114 C 0.65309 0.42970 0.30730
 N115 N 0.65851 0.46701 0.29185
 C116 C 0.68211 0.49386 0.31052
 C117 C 0.70119 0.48331 0.34630
 C118 C 0.67194 0.41788 0.34208
 C119 C 0.63734 0.49475 0.16671
 C120 C 0.65503 0.50740 0.13103
 C121 C 0.71705 0.51638 0.16583
 C122 C 0.69820 0.50292 0.20105
 N123 N 0.65865 0.49368 0.20093
 H124 H 0.63314 0.40910 0.29355
 H125 H 0.68521 0.52372 0.29828
 H126 H 0.71938 0.50487 0.36140
 H127 H 0.66700 0.38802 0.35379
 H128 H 0.60595 0.48710 0.16750
 H129 H 0.63706 0.50915 0.10447
 H130 H 0.74795 0.52574 0.16649
 H131 H 0.71457 0.50159 0.22861
 C132 C 0.55999 0.36844 0.20455
 C133 C 0.56125 0.59695 0.28992
 C134 C 0.69486 0.51990 0.13066
 C135 C 0.69577 0.44488 0.36232
 C136 C 0.93921 0.47036 0.78416
 H137 H 0.94060 0.49904 0.79886
 C138 C 0.96058 0.43755 0.79925
 H139 H 0.97844 0.44156 0.82549
 C140 C 0.91125 0.42992 0.73419
 H141 H 0.89101 0.42685 0.70959
 C142 C 0.93184 0.39618 0.74860
 H143 H 0.92727 0.36727 0.73511
 N144 N 0.91443 0.46582 0.75282
 C145 C 0.88049 0.58437 0.70935
 H146 H 0.84859 0.57919 0.70847
 C147 C 0.89543 0.62111 0.69713
 H148 H 0.87465 0.64363 0.68635
 C149 C 0.94575 0.56065 0.72492
 H150 H 0.96512 0.53692 0.73582
 C151 C 0.96211 0.59723 0.71268
 H152 H 0.99420 0.60139 0.71353
 Zn153 Zn 0.87868 0.50839 0.74061
 N154 N 0.90550 0.55509 0.72311
 C155 C 0.85230 0.55938 0.80188
 N156 N 0.84932 0.52129 0.78827
 C157 C 0.82893 0.49317 0.80989
 C158 C 0.80961 0.50348 0.84607
 C159 C 0.83356 0.57082 0.83736
 C160 C 0.85749 0.50138 0.66072
 C161 C 0.83686 0.48710 0.62803
 C162 C 0.79028 0.45526 0.67369
 C163 C 0.81147 0.47069 0.70562
 N164 N 0.84492 0.49261 0.69865
 H165 H 0.87001 0.58111 0.78598
 H166 H 0.82846 0.46257 0.79964
 H167 H 0.79358 0.48106 0.86320
 H168 H 0.83640 0.60134 0.84755
 H169 H 0.88458 0.51816 0.65573
 H170 H 0.84812 0.49306 0.59807
 H171 H 0.76472 0.43656 0.67983
 H172 H 0.80200 0.46383 0.73583
 C173 C 0.93672 0.62782 0.69842
 C174 C 0.95592 0.39964 0.78220
 C175 C 0.80367 0.46266 0.63440
 C176 C 0.81199 0.54284 0.85986
 C177 C 0.27183 0.45024 -0.03528
 H178 H 0.27423 0.46436 -0.00647
 C179 C 0.28583 0.46993 -0.06971
 H180 H 0.29878 0.49925 -0.06709
 C181 C 0.25501 0.39358 -0.07344
 H182 H 0.24400 0.36334 -0.07450
 C183 C 0.26857 0.41215 -0.10846
 H184 H 0.26798 0.39612 -0.13646
 N185 N 0.25740 0.41248 -0.03772
 C186 C 0.25052 0.40246 0.09004
 H187 H 0.27024 0.37672 0.09212
 C188 C 0.23885 0.42243 0.12500
 H189 H 0.24919 0.41146 0.15359
 C190 C 0.21101 0.44683 0.05112
 H191 H 0.19994 0.45609 0.02230
 C192 C 0.19874 0.46775 0.08532
 H193 H 0.17751 0.49239 0.08258
 Zn194 Zn 0.24477 0.38129 0.00810
 N195 N 0.23541 0.41396 0.05411
 C196 C 0.28488 0.31543 0.04447
 N197 N 0.28871 0.34581 0.01747
 C198 C 0.32461 0.35349 -0.00074
 C199 C 0.35886 0.33145 0.00948
 C200 C 0.31842 0.29277 0.05564
 C201 C 0.16217 0.37247 -0.00433
 C202 C 0.12789 0.35388 -0.01789
 C203 C 0.16702 0.29335 -0.02834
 C204 C 0.20061 0.31304 -0.01426
 N205 N 0.19781 0.35218 -0.00327
 H206 H 0.25610 0.31010 0.05875
 H207 H 0.32720 0.37799 -0.02180
 H208 H 0.38759 0.33928 -0.00366
 H209 H 0.31538 0.27018 0.07879
 H210 H 0.16050 0.40363 0.00374
 H211 H 0.10014 0.37093 -0.02015
 H212 H 0.17020 0.26288 -0.03879
 H213 H 0.22933 0.29765 -0.01424
 C214 C 0.21204 0.45495 0.12287
 C215 C 0.28500 0.45036 -0.10666
 C216 C 0.13042 0.31426 -0.03111
 C217 C 0.35598 0.30118 0.03844
 C218 C 0.79268 0.07391 1.03156
 H219 H 0.80883 0.06828 1.00381
 C220 C 0.80579 0.05633 1.06694
 H221 H 0.83219 0.03705 1.06636
 C222 C 0.74044 0.10842 1.06664
 H223 H 0.71577 0.12977 1.06650
 C224 C 0.75233 0.09107 1.10274
 H225 H 0.73674 0.09908 1.13023
 N226 N 0.76129 0.10031 1.03222
 C227 C 0.75953 0.10384 0.90402
 H228 H 0.77645 0.13065 0.89895
 C229 C 0.74809 0.08131 0.87122
 H230 H 0.75578 0.09141 0.84128
 C231 C 0.72661 0.05916 0.94840
 H232 H 0.71765 0.05108 0.97855
 C233 C 0.71438 0.03594 0.91650
 H234 H 0.69598 0.01018 0.92255
 Zn235 Zn 0.75040 0.12962 0.98512
 N236 N 0.74681 0.09364 0.94155
 C237 C 0.78990 0.19299 0.94481
 N238 N 0.79222 0.16696 0.97613
 C239 C 0.82510 0.16568 0.99971
 C240 C 0.85879 0.18818 0.98979
 C241 C 0.82302 0.21580 0.93366
 C242 C 0.66636 0.13460 0.99132
 C243 C 0.62959 0.15160 1.00296
 C244 C 0.66304 0.21395 1.01446
 C245 C 0.69920 0.19585 1.00226
 N246 N 0.70040 0.15649 0.99216
 H247 H 0.76303 0.19445 0.92721
 H248 H 0.82615 0.14588 1.02526
 H249 H 0.88564 0.18473 1.00724
 H250 H 0.82188 0.23416 0.90691
 H251 H 0.66786 0.10332 0.98368
 H252 H 0.60315 0.13320 1.00434
 H253 H 0.66311 0.24461 1.02456
 H254 H 0.72665 0.21257 1.00322
 C255 C 0.72333 0.04829 0.87728
 C256 C 0.78587 0.06540 1.10306
 C257 C 0.62803 0.19119 1.01625
 C258 C 0.85832 0.21245 0.95561
 C259 C 0.29172 0.56965 0.54988
 H260 H 0.30686 0.56412 0.52161
 C261 C 0.30421 0.54930 0.58407
 H262 H 0.32922 0.52835 0.58192
 C263 C 0.24304 0.60617 0.58777
 H264 H 0.22027 0.62950 0.58932
 C265 C 0.25454 0.58631 0.62277
 H266 H 0.24056 0.59445 0.65106
 N267 N 0.26223 0.59808 0.55241
 C268 C 0.23567 0.62152 0.42755
 H269 H 0.24269 0.65302 0.42710
 C270 C 0.22305 0.60311 0.39288
 H271 H 0.21992 0.62061 0.36573
 C272 C 0.22984 0.56071 0.46403
 H273 H 0.23208 0.54461 0.49204
 C274 C 0.21640 0.54120 0.43000
 H275 H 0.20811 0.51007 0.43209
 Zn276 Zn 0.25351 0.63074 0.50688
 N277 N 0.23853 0.60034 0.46222
 C278 C 0.32535 0.63225 0.46749
 N279 N 0.30303 0.65518 0.49307
 C280 C 0.31741 0.69031 0.50708
 C281 C 0.35377 0.70530 0.49189
 C282 C 0.36171 0.64551 0.45239
 C283 C 0.17437 0.64605 0.51952
 C284 C 0.13879 0.66613 0.52928
 C285 C 0.17551 0.72767 0.53293
 C286 C 0.21048 0.70648 0.52181
 N287 N 0.20951 0.66605 0.51694
 H288 H 0.31479 0.60338 0.45838
 H289 H 0.30102 0.70680 0.52980
 H290 H 0.36430 0.73402 0.50177
 H291 H 0.37809 0.62630 0.43187
 H292 H 0.17425 0.61403 0.51504
 H293 H 0.11134 0.64941 0.53251
 H294 H 0.17689 0.75943 0.53879
 H295 H 0.23814 0.72233 0.51820
 C296 C 0.21237 0.56280 0.39414
 C297 C 0.28597 0.55808 0.62109
 C298 C 0.13943 0.70706 0.53763
 C299 C 0.37569 0.68314 0.46328
 C300 C 0.77447 0.95266 0.44852
 H301 H 0.78393 0.96138 0.47789
 C302 C 0.78573 0.97545 0.41517
 H303 H 0.80465 1.00110 0.41906
 C304 C 0.74052 0.90728 0.40744
 H305 H 0.72342 0.88048 0.40416
 C306 C 0.75127 0.92910 0.37332
 H307 H 0.74307 0.91835 0.34417
 N308 N 0.75380 0.91825 0.44396
 C309 C 0.75088 0.90147 0.57061
 H310 H 0.77315 0.87766 0.57164
 C311 C 0.73723 0.91915 0.60612
 H312 H 0.74911 0.90896 0.63439
 C313 C 0.70633 0.94210 0.53294
 H314 H 0.69382 0.95015 0.50434
 C315 C 0.69185 0.96053 0.56772
 H316 H 0.66829 0.98294 0.56540
 Zn317 Zn 0.74846 0.88314 0.48872
 N318 N 0.73471 0.91259 0.53509
 C319 C 0.79917 0.81685 0.50629
 N320 N 0.79821 0.85667 0.49752
 C321 C 0.83197 0.87894 0.49886
 C322 C 0.86813 0.86164 0.51096
 C323 C 0.83469 0.79842 0.51873
 C324 C 0.67237 0.84775 0.50022
 C325 C 0.64009 0.82413 0.48963
 C326 C 0.68194 0.79379 0.43824
 C327 C 0.71347 0.81777 0.44993
 N328 N 0.70773 0.84526 0.47937
 H329 H 0.77194 0.79980 0.50587
 H330 H 0.83058 0.91058 0.49240
 H331 H 0.89429 0.88013 0.51383
 H332 H 0.83430 0.76721 0.52744
 H333 H 0.66841 0.86939 0.52382
 H334 H 0.61141 0.82823 0.50479
 H335 H 0.68610 0.77398 0.41298
 H336 H 0.74198 0.81600 0.43408
 C337 C 0.70667 0.94828 0.60493
 C338 C 0.77518 0.96284 0.37697
 C339 C 0.64452 0.79765 0.45757
 C340 C 0.86932 0.82129 0.52234
 C341 C -0.03784 0.29099 0.43632
 H342 H -0.01112 0.30891 0.43675
 C343 C -0.07241 0.30374 0.45693
 H344 H -0.07220 0.33163 0.47321
 C345 C -0.07184 0.23471 0.41168
 H346 H -0.07178 0.20840 0.39307
 C347 C -0.10706 0.24628 0.43208
 H348 H -0.13396 0.22899 0.42884
 N349 N -0.03848 0.25761 0.41341
 C350 C 0.08217 0.21570 0.38206
 H351 H 0.07924 0.21775 0.34997
 C352 C 0.11755 0.20092 0.39815
 H353 H 0.14144 0.19151 0.37797
 C354 C 0.05392 0.22588 0.44674
 H355 H 0.02890 0.23567 0.46538
 C356 C 0.08908 0.21098 0.46422
 H357 H 0.09093 0.20880 0.49643
 Zn358 Zn 0.00567 0.24731 0.37854
 N359 N 0.05120 0.22779 0.40624
 C360 C 0.05781 0.30947 0.35802
 N361 N 0.01987 0.29645 0.35252
 C362 C -0.00705 0.31922 0.33171
 C363 C 0.00449 0.35580 0.31434
 C364 C 0.07047 0.34525 0.34116
 C365 C 0.00257 0.16865 0.34997
 C366 C -0.01202 0.13699 0.32785
 C367 C -0.04987 0.18462 0.28857
 C368 C -0.03428 0.21552 0.31126
 N369 N -0.00906 0.20707 0.34178
 H370 H 0.07850 0.29273 0.37617
 H371 H -0.03765 0.30958 0.32926
 H372 H -0.01695 0.37368 0.29780
 H373 H 0.10094 0.35475 0.34576
 H374 H 0.02145 0.16215 0.37514
 H375 H -0.00391 0.10650 0.33590
 H376 H -0.07124 0.19183 0.26561
 H377 H -0.04385 0.24597 0.30558
 C378 C 0.12120 0.19795 0.43968
 C379 C -0.10772 0.28171 0.45417
 C380 C -0.03948 0.14477 0.29761
 C381 C 0.04384 0.36880 0.31901
 C382 C 1.03281 0.79360 0.07054
 H383 H 1.00412 0.80865 0.06708
 C384 C 1.06651 0.80747 0.04974
 H385 H 1.06318 0.83323 0.03033
 C386 C 1.07203 0.74338 0.10230
 H387 H 1.07420 0.71889 0.12343
 C388 C 1.10664 0.75657 0.08232
 H389 H 1.13530 0.74234 0.08836
 N390 N 1.03626 0.76267 0.09686
 C391 C 0.91353 0.72490 0.12183
 H392 H 0.91339 0.72860 0.15392
 C393 C 0.87951 0.71108 0.10327
 H394 H 0.85321 0.70385 0.12116
 C395 C 0.94848 0.72894 0.05966
 H396 H 0.97559 0.73569 0.04296
 C397 C 0.91519 0.71419 0.03990
 H398 H 0.91693 0.70947 0.00798
 Zn399 Zn 0.99112 0.75149 0.13001
 N400 N 0.94706 0.73378 0.09999
 C401 C 0.93864 0.81555 0.14785
 N402 N 0.97560 0.80023 0.15621
 C403 C 1.00118 0.82088 0.17955
 C404 C 0.98912 0.85757 0.19661
 C405 C 0.92538 0.85136 0.16451
 C406 C 0.99092 0.67214 0.15824
 C407 C 1.00450 0.63888 0.17976
 C408 C 1.04500 0.68270 0.21875
 C409 C 1.03044 0.71525 0.19663
 N410 N 1.00454 0.70942 0.16637
 H411 H 0.91938 0.80081 0.12737
 H412 H 1.03123 0.80957 0.18421
 H413 H 1.00951 0.87381 0.21509
 H414 H 0.89566 0.86265 0.15765
 H415 H 0.97130 0.66756 0.13345
 H416 H 0.99496 0.60925 0.17157
 H417 H 1.06702 0.68784 0.24138
 H418 H 1.04155 0.74476 0.20233
 C419 C 0.88038 0.70488 0.06201
 C420 C 1.10419 0.78958 0.05642
 C421 C 1.03288 0.64386 0.20944
 C422 C 0.95063 0.87282 0.18909
 C423 C 0.54165 0.29490 0.57483
 H424 H 0.51438 0.31276 0.57350
 C425 C 0.57663 0.30824 0.55585
 H426 H 0.57617 0.33644 0.53971
 C427 C 0.57642 0.23791 0.59996
 H428 H 0.57656 0.21113 0.61821
 C429 C 0.61201 0.25001 0.58114
 H430 H 0.63920 0.23243 0.58496
 N431 N 0.54235 0.26072 0.59704
 C432 C 0.42189 0.21895 0.62236
 H433 H 0.42445 0.21924 0.65454
 C434 C 0.38751 0.20436 0.60534
 H435 H 0.36403 0.19362 0.62503
 C436 C 0.45048 0.23247 0.55847
 H437 H 0.47545 0.24312 0.54054
 C438 C 0.41640 0.21746 0.53999
 H439 H 0.41526 0.21626 0.50771
 Zn440 Zn 0.49692 0.24867 0.62933
 N441 N 0.45250 0.23268 0.59906
 C442 C 0.44408 0.31006 0.65314
 N443 N 0.48172 0.29527 0.65909
 C444 C 0.50766 0.31482 0.68296
 C445 C 0.49558 0.35043 0.70224
 C446 C 0.43077 0.34464 0.67216
 C447 C 0.50742 0.16818 0.64357
 C448 C 0.51942 0.13313 0.66285
 C449 C 0.53534 0.17215 0.72080
 C450 C 0.52231 0.20669 0.70053
 N451 N 0.50967 0.20411 0.66221
 H452 H 0.42419 0.29573 0.63291
 H453 H 0.53786 0.30325 0.68644
 H454 H 0.51631 0.36602 0.72092
 H455 H 0.40054 0.35559 0.66704
 H456 H 0.49765 0.16692 0.61299
 H457 H 0.51900 0.10500 0.64695
 H458 H 0.54732 0.17470 0.75048
 H459 H 0.52385 0.23553 0.71478
 C460 C 0.38465 0.20273 0.56367
 C461 C 0.61242 0.28601 0.55956
 C462 C 0.53473 0.13506 0.70137
 C463 C 0.45659 0.36546 0.69671
 C464 C 0.45619 0.78342 0.94594
 H465 H 0.48526 0.79381 0.95466
 C466 C 0.42187 0.79649 0.96682
 H467 H 0.42512 0.81723 0.99113
 C468 C 0.41687 0.74441 0.90331
 H469 H 0.41471 0.72450 0.87827
 C470 C 0.38176 0.75678 0.92338
 H471 H 0.35298 0.74668 0.91326
 N472 N 0.45307 0.75915 0.91373
 C473 C 0.58111 0.73951 0.89245
 H474 H 0.58277 0.75143 0.86237
 C475 C 0.61593 0.72589 0.91089
 H476 H 0.64439 0.72726 0.89490
 C477 C 0.54166 0.72067 0.94890
 H478 H 0.51244 0.71764 0.96299
 C479 C 0.57585 0.70647 0.96842
 H480 H 0.57265 0.69264 0.99757
 Zn481 Zn 0.49944 0.74941 0.88063
 N482 N 0.54487 0.73619 0.91132
 C483 C 0.51280 0.83189 0.87004
 N484 N 0.51166 0.79637 0.85046
 C485 C 0.52256 0.79382 0.81113
 C486 C 0.53606 0.82763 0.79036
 C487 C 0.52588 0.86636 0.85038
 C488 C 0.50490 0.66895 0.85536
 C489 C 0.49207 0.63512 0.83515
 C490 C 0.44959 0.67802 0.79517
 C491 C 0.46310 0.71096 0.81615
 N492 N 0.48932 0.70578 0.84644
 H493 H 0.50490 0.83338 0.90135
 H494 H 0.52264 0.76520 0.79629
 H495 H 0.54610 0.82472 0.75960
 H496 H 0.52792 0.89409 0.86675
 H497 H 0.52553 0.66541 0.87971
 H498 H 0.50285 0.60570 0.84406
 H499 H 0.42729 0.68278 0.77255
 H500 H 0.45092 0.74047 0.80982
 C501 C 0.61336 0.70828 0.94888
 C502 C 0.38396 0.78437 0.95449
 C503 C 0.46299 0.63940 0.80571
 C504 C 0.53848 0.86422 0.81036
 C505 C 0.49750 -0.19875 0.28505
 C506 C 0.52551 -0.19735 0.32148
 C507 C 0.49749 -0.22592 0.34491
 C508 C 0.46975 -0.22779 0.30846
 C509 C 0.47315 -0.18968 0.36121
 C510 C 0.50126 -0.16115 0.33817
 C511 C 0.47348 -0.16290 0.30211
 C512 C 0.44543 -0.19150 0.32499
 H513 H 0.50756 -0.20226 0.25348
 H514 H 0.55864 -0.19882 0.31879
 H515 H 0.45684 -0.25494 0.29520
 H516 H 0.46178 -0.18425 0.39199
 H517 H 0.51498 -0.13445 0.35153
 H518 H 0.41222 -0.18914 0.32656
 C519 C 0.99481 0.32637 0.78677
 C520 C 1.02064 0.32600 0.82483
 C521 C 0.99045 0.29785 0.84590
 C522 C 0.96490 0.29768 0.80781
 C523 C 0.96633 0.33450 0.86164
 C524 C 0.99657 0.36259 0.84097
 C525 C 0.97086 0.36254 0.80336
 C526 C 0.94076 0.33431 0.82379
 H527 H 1.00659 0.32330 0.75571
 H528 H 1.05379 0.32346 0.82409
 H529 H 0.95201 0.27120 0.79327
 H530 H 0.95334 0.33997 0.89179
 H531 H 1.01064 0.38844 0.85553
 H532 H 0.90762 0.33774 0.82344
 C533 C 0.06652 1.18673 0.83272
 C534 C 0.04517 1.22319 0.81313
 C535 C 0.01495 1.22468 0.84868
 C536 C 0.03634 1.18830 0.86808
 C537 C -0.01291 1.19624 0.82625
 C538 C 0.01751 1.19423 0.79080
 C539 C 0.03855 1.15830 0.81099
 C540 C 0.00830 1.15997 0.84608
 H541 H 0.09946 1.18276 0.83545
 H542 H 0.06028 1.24904 0.79878
 H543 H 0.04539 1.18380 0.89946
 H544 H -0.04572 1.19902 0.82224
 H545 H 0.00974 1.19643 0.75875
 H546 H -0.00805 1.13499 0.86062
 C547 C 0.57602 0.66474 0.32839
 C548 C 0.55259 0.70049 0.30981
 C549 C 0.52475 0.70195 0.34725
 C550 C 0.54828 0.66636 0.36568
 C551 C 0.49609 0.67248 0.32719
 C552 C 0.52408 0.67056 0.28991
 C553 C 0.54711 0.63538 0.30918
 C554 C 0.51934 0.63706 0.34617
 H555 H 0.60916 0.66142 0.32888
 H556 H 0.56618 0.72643 0.29412
 H557 H 0.55982 0.66276 0.39632
 H558 H 0.46308 0.67404 0.32468
 H559 H 0.51409 0.67205 0.25848
 H560 H 0.50447 0.61209 0.36226
 C561 C 0.51071 0.33891 0.15063
 C562 C 0.53528 0.30864 0.12537
 C563 C 0.51020 0.27401 0.14289
 C564 C 0.48534 0.30436 0.16830
 C565 C 0.54000 0.26881 0.17737
 C566 C 0.56529 0.30302 0.15936
 C567 C 0.54086 0.33348 0.18445
 C568 C 0.51560 0.29959 0.20277
 H569 H 0.49852 0.36793 0.13950
 H570 H 0.54446 0.31500 0.09408
 H571 H 0.45233 0.30543 0.17263
 H572 H 0.55232 0.24041 0.18971
 H573 H 0.59811 0.30053 0.15395
 H574 H 0.50757 0.29604 0.23489
 C575 C 0.00477 0.86575 0.65258
 C576 C 0.03482 0.83659 0.63213
 C577 C 0.00949 0.80089 0.64669
 C578 C -0.02059 0.83006 0.66741
 C579 C 0.03395 0.79812 0.68540
 C580 C 0.05934 0.83384 0.67067
 C581 C 0.02935 0.86300 0.69093
 C582 C 0.00414 0.82771 0.70615
 H583 H -0.00808 0.89292 0.63814
 H584 H 0.04837 0.84177 0.60214
 H585 H -0.05377 0.82945 0.66709
 H586 H 0.04577 0.77043 0.69972
 H587 H 0.09250 0.83545 0.67198
 H588 H -0.00855 0.82431 0.73683
 C589 C 0.92866 0.69748 0.65871
 C590 C 0.95282 0.73080 0.67868
 C591 C 0.98327 0.72937 0.64341
 C592 C 0.95925 0.69578 0.62381
 C593 C 1.00851 0.69756 0.66608
 C594 C 0.97770 0.69851 0.70127
 C595 C 0.95372 0.66563 0.68089
 C596 C 0.98439 0.66410 0.64624
 H597 H 0.89578 0.69919 0.65459
 H598 H 0.93969 0.75789 0.69308
 H599 H 0.95057 0.69205 0.59233
 H600 H 1.04142 0.69684 0.67003
 H601 H 0.98517 0.69939 0.73342
 H602 H 0.99752 0.63650 0.63274
 C603 C 0.43328 0.16719 0.16359
 C604 C 0.45790 0.20200 0.18039
 C605 C 0.48360 0.20240 0.14153
 C606 C 0.45902 0.16765 0.12486
 C607 C 0.51329 0.17194 0.16027
 C608 C 0.48738 0.17117 0.19913
 C609 C 0.46300 0.13685 0.18186
 C610 C 0.48873 0.13725 0.14335
 H611 H 0.40011 0.16520 0.16490
 H612 H 0.44543 0.22846 0.19644
 H613 H 0.44635 0.16441 0.09474
 H614 H 0.54648 0.17265 0.15992
 H615 H 0.49912 0.17238 0.22990
 H616 H 0.50213 0.11137 0.12707
 C617 C 0.34267 0.44490 -0.16081
 C618 C 0.32557 0.45054 -0.20308
 C619 C 0.34771 0.49072 -0.20710
 C620 C 0.36462 0.48503 -0.16472
 C621 C 0.31057 0.51297 -0.18937
 C622 C 0.28849 0.47263 -0.18499
 C623 C 0.30595 0.46716 -0.14306
 C624 C 0.32763 0.50731 -0.14686
 H625 H 0.35603 0.41668 -0.14899
 H626 H 0.32358 0.42631 -0.22536
 H627 H 0.39563 0.48930 -0.15451
 H628 H 0.29627 0.54072 -0.20112
 H629 H 0.25689 0.46754 -0.19314
 H630 H 0.32875 0.53127 -0.12415
 C631 C 0.78014 0.98511 0.29809
 C632 C 0.80327 1.02494 0.29429
 C633 C 0.84051 1.00178 0.27797
 C634 C 0.81733 0.96215 0.28137
 C635 C 0.85578 0.99597 0.32097
 C636 C 0.81873 1.01913 0.33742
 C637 C 0.79607 0.97954 0.34063
 C638 C 0.83284 0.95640 0.32421
 H639 H 0.74873 0.98073 0.28888
 H640 H 0.79011 1.05295 0.28186
 H641 H 0.81558 0.93776 0.25926
 H642 H 0.88637 0.99948 0.33256
 H643 H 0.81930 1.04308 0.36020
 H644 H 0.84513 0.92795 0.33660
 C645 C 0.78523 0.04958 1.18396
 C646 C 0.80553 0.00799 1.19008
 C647 C 0.84328 0.02834 1.20613
 C648 C 0.82289 0.06985 1.20046
 C649 C 0.86115 0.03075 1.16328
 C650 C 0.82364 0.01021 1.14724
 C651 C 0.80377 0.05153 1.14161
 C652 C 0.84095 0.07211 1.15765
 H653 H 0.75374 0.05725 1.19243
 H654 H 0.78985 -0.01818 1.20311
 H655 H 0.82155 0.09524 1.22158
 H656 H 0.89211 0.02400 1.15266
 H657 H 0.82388 -0.01461 1.12535
 H658 H 0.85555 0.09873 1.14417
 C659 C 0.32557 0.50132 0.66252
 C660 C 0.36323 0.52204 0.67793
 C661 C 0.34687 0.51825 0.72127
 C662 C 0.30894 0.49765 0.70590
 C663 C 0.32552 0.55953 0.71728
 C664 C 0.34217 0.56319 0.67407
 C665 C 0.30483 0.54246 0.65861
 C666 C 0.28770 0.53906 0.70145
 H667 H 0.32550 0.47704 0.64005
 H668 H 0.39388 0.51601 0.66604
 H669 H 0.29422 0.47089 0.71886
 H670 H 0.32409 0.58449 0.73887
 H671 H 0.35596 0.59040 0.66091
 H672 H 0.25636 0.54597 0.71104
 C673 C 0.15443 0.56630 0.34262
 C674 C 0.17135 0.56214 0.29962
 C675 C 0.15085 0.52111 0.29637
 C676 C 0.13424 0.52534 0.33958
 C677 C 0.18907 0.50012 0.31233
 C678 C 0.20945 0.54134 0.31595
 C679 C 0.19220 0.54535 0.35864
 C680 C 0.17228 0.50435 0.35565
 H681 H 0.13990 0.59371 0.35512
 H682 H 0.17254 0.58700 0.27762
 H683 H 0.10366 0.51967 0.35142
 H684 H 0.20435 0.47315 0.29983
 H685 H 0.24071 0.54793 0.30644
 H686 H 0.17237 0.48004 0.37839
 C687 C 0.66462 0.00398 0.84673
 C688 C 0.64058 0.03278 0.81977
 C689 C 0.65542 0.00936 0.78260
 C690 C 0.67979 -0.01944 0.80957
 C691 C 0.69207 0.03693 0.77851
 C692 C 0.67695 0.06036 0.81564
 C693 C 0.70085 0.03167 0.84270
 C694 C 0.71647 0.00845 0.80595
 H695 H 0.65229 -0.01034 0.87419
 H696 H 0.61005 0.04408 0.82733
 H697 H 0.68198 -0.05251 0.80786
 H698 H 0.70446 0.05047 0.75069
 H699 H 0.67558 0.09348 0.81805
 H700 H 0.74794 -0.00162 0.80050
 C701 C 0.65087 0.99123 0.64590
 C702 C 0.63093 0.96226 0.67601
 C703 C 0.65036 0.98468 0.71075
 C704 C 0.67065 1.01354 0.68055
 C705 C 0.68734 0.95628 0.70813
 C706 C 0.66775 0.93389 0.67333
 C707 C 0.68745 0.96285 0.64326
 C708 C 0.70755 0.98495 0.67753
 H709 H 0.63487 1.00648 0.62119
 H710 H 0.59978 0.95173 0.67357
 H711 H 0.67311 1.04650 0.68224
 H712 H 0.70321 0.94194 0.73342
 H713 H 0.66652 0.90087 0.67027
 H714 H 0.73930 0.99432 0.67790
 C715 C 0.21026 0.47569 0.20211
 C716 C 0.18747 0.51627 0.20676
 C717 C 0.15083 0.49429 0.22477
 C718 C 0.17371 0.45386 0.22054
 C719 C 0.13371 0.48938 0.18250
 C720 C 0.17012 0.51144 0.16442
 C721 C 0.19246 0.47108 0.16033
 C722 C 0.15636 0.44903 0.17841
 H723 H 0.24203 0.47013 0.21002
 H724 H 0.20140 0.54367 0.21841
 H725 H 0.17637 0.42930 0.24277
 H726 H 0.10262 0.49413 0.17228
 H727 H 0.16863 0.53563 0.14159
 H728 H 0.14343 0.42113 0.16667
 C729 C -0.15158 0.32228 0.50899
 C730 C -0.16926 0.35838 0.48597
 C731 C -0.21180 0.34124 0.49156
 C732 C -0.19418 0.30487 0.51452
 C733 C -0.20671 0.31807 0.45188
 C734 C -0.16436 0.33554 0.44639
 C735 C -0.14656 0.29976 0.46936
 C736 C -0.18858 0.28180 0.47463
 H737 H -0.12887 0.32398 0.53272
 H738 H -0.15867 0.38934 0.48944
 H739 H -0.20653 0.29130 0.54235
 H740 H -0.22854 0.31511 0.42757
 H741 H -0.15208 0.34830 0.41811
 H742 H -0.19648 0.25003 0.47009
 C743 C 0.34576 0.84075 0.99845
 C744 C 0.31745 0.86314 0.96977
 C745 C 0.28088 0.84594 0.99265
 C746 C 0.30929 0.82312 1.02122
 C747 C 0.28124 0.80940 0.96451
 C748 C 0.31782 0.82685 0.94165
 C749 C 0.34626 0.80467 0.97023
 C750 C 0.31016 0.78663 0.99281
 H751 H 0.37138 0.85480 1.01332
 H752 H 0.32256 0.89403 0.95893
 H753 H 0.30680 0.82026 1.05415
 H754 H 0.25489 0.79556 0.95069
 H755 H 0.32130 0.82853 0.90865
 H756 H 0.30741 0.75490 1.00234
 C757 C 1.14274 0.84531 0.01247
 C758 C 1.17150 0.86591 0.04110
 C759 C 1.20770 0.84751 0.01794
 C760 C 1.17886 0.82652 -0.01059
 C761 C 1.20701 0.81046 0.04588
 C762 C 1.17080 0.82908 0.06905
 C763 C 1.14193 0.80874 0.04053
 C764 C 1.17765 0.78954 0.01760
 H765 H 1.11720 0.86055 -0.00236
 H766 H 1.16690 0.89689 0.05196
 H767 H 1.18123 0.82428 -0.04355
 H768 H 1.23322 0.79519 0.05950
 H769 H 1.16748 0.83023 0.10207
 H770 H 1.17993 0.75788 0.00790
 C771 C 0.69361 0.28498 0.54140
 C772 C 0.69927 0.30436 0.49948
 C773 C 0.71555 0.34259 0.51889
 C774 C 0.71036 0.32310 0.56069
 C775 C 0.67246 0.36024 0.52207
 C776 C 0.65616 0.32225 0.50251
 C777 C 0.65104 0.30338 0.54415
 C778 C 0.66742 0.34101 0.56373
 H779 H 0.70239 0.25378 0.54926
 H780 H 0.71240 0.28825 0.47338
 H781 H 0.73179 0.32219 0.58558
 H782 H 0.66141 0.39086 0.51516
 H783 H 0.63378 0.32188 0.47838
 H784 H 0.65427 0.35623 0.59038
 C785 C 0.35563 0.14504 0.51827
 C786 C 0.32375 0.12298 0.54352
 C787 C 0.29057 0.13919 0.51590
 C788 C 0.32253 0.16133 0.49034
 C789 C 0.28506 0.17656 0.54240
 C790 C 0.31780 0.15991 0.57030
 C791 C 0.34986 0.18179 0.54521
 C792 C 0.31744 0.19872 0.51734
 H793 H 0.38487 0.13196 0.50824
 H794 H 0.32891 0.09231 0.55518
 H795 H 0.32506 0.16253 0.45730
 H796 H 0.25634 0.19079 0.55226
 H797 H 0.31373 0.15780 0.60318
 H798 H 0.31502 0.23015 0.50662
 C799 C 0.82960 0.64573 0.06196
 C800 C 0.78631 0.66218 0.05823
 C801 C 0.78428 0.64368 0.01612
 C802 C 0.82773 0.62750 0.01994
 C803 C 0.80022 0.68298 -0.00246
 C804 C 0.80260 0.70138 0.03983
 C805 C 0.84557 0.68462 0.04337
 C806 C 0.84378 0.66666 0.00135
 H807 H 0.84174 0.63010 0.08861
 H808 H 0.76354 0.66165 0.08268
 H809 H 0.84011 0.59741 0.01282
 H810 H 0.78815 0.69928 -0.02871
 H811 H 0.79250 0.73209 0.04805
 H812 H 0.86718 0.66819 -0.02255
 C813 C 0.65227 0.66320 1.00465
 C814 C 0.67109 0.62765 0.98137
 C815 C 0.71334 0.64448 0.98795
 C816 C 0.69464 0.68020 1.01121
 C817 C 0.71043 0.66879 0.94859
 C818 C 0.66832 0.65172 0.94207
 C819 C 0.64958 0.68700 0.96532
 C820 C 0.69136 0.70444 0.97169
 H821 H 0.62876 0.66056 1.02833
 H822 H 0.66076 0.59644 0.98449
 H823 H 0.70546 0.69296 1.03948
 H824 H 0.73343 0.67240 0.92464
 H825 H 0.65745 0.63982 0.91340
 H826 H 0.69949 0.73632 0.96773
 C827 C 0.15453 0.14175 0.48558
 C828 C 0.18719 0.11994 0.46050
 C829 C 0.21990 0.13773 0.48690
 C830 C 0.18714 0.15967 0.51220
 C831 C 0.22281 0.17449 0.45887
 C832 C 0.19041 0.15636 0.43225
 C833 C 0.15766 0.17796 0.45729
 C834 C 0.18966 0.19640 0.48379
 H835 H 0.12627 0.12817 0.49669
 H836 H 0.18374 0.08886 0.45005
 H837 H 0.18493 0.16187 0.54518
 H838 H 0.25062 0.18904 0.44797
 H839 H 0.19341 0.15376 0.39933
 H840 H 0.19047 0.22814 0.49329
 C841 C 0.53846 0.05659 0.72367
 C842 C 0.57441 0.03888 0.69960
 C843 C 0.59853 0.03426 0.73842
 C844 C 0.56248 0.05164 0.76272
 C845 C 0.61512 0.07692 0.73260
 C846 C 0.59135 0.08125 0.69379
 C847 C 0.55570 0.09869 0.71792
 C848 C 0.57921 0.09443 0.75679
 H849 H 0.50661 0.04845 0.72006
 H850 H 0.57079 0.01722 0.67510
 H851 H 0.54958 0.03949 0.79097
 H852 H 0.64615 0.08762 0.73548
 H853 H 0.60352 0.09345 0.66521
 H854 H 0.58136 0.11702 0.78077
 C855 C 1.07636 0.57851 0.19759
 C856 C 1.11307 0.57952 0.22474
 C857 C 1.09645 0.54362 0.24881
 C858 C 1.05949 0.54266 0.22169
 C859 C 1.07380 0.57274 0.27734
 C860 C 1.09075 0.60859 0.25328
 C861 C 1.05425 0.60764 0.22605
 C862 C 1.03685 0.57223 0.24991
 H863 H 1.07754 0.58089 0.16450
 H864 H 1.14382 0.58464 0.21310
 H865 H 1.04565 0.51576 0.20888
 H866 H 1.07161 0.57128 0.31038
 H867 H 1.10450 0.63504 0.26709
 H868 H 1.00524 0.56954 0.26031
 C869 C 0.89734 0.91181 0.23307
 C870 C 0.91518 0.94569 0.25814
 C871 C 0.89526 0.97696 0.23014
 C872 C 0.87777 0.94290 0.20515
 C873 C 0.93349 0.97681 0.20332
 C874 C 0.95333 0.94495 0.23093
 C875 C 0.93489 0.91161 0.20595
 C876 C 0.91564 0.94296 0.17821
 H877 H 0.88237 0.88491 0.24553
 H878 H 0.91589 0.94584 0.29121
 H879 H 0.84720 0.93941 0.19354
 H880 H 0.94921 1.00330 0.19101
 H881 H 0.98465 0.94561 0.24151
 H882 H 0.91584 0.94201 0.14507
 C883 C 0.45967 0.43668 0.74037
 C884 C 0.43813 0.46871 0.71424
 C885 C 0.40098 0.46760 0.74251
 C886 C 0.42259 0.43617 0.76906
 C887 C 0.38315 0.43369 0.71757
 C888 C 0.41992 0.43505 0.68920
 C889 C 0.44087 0.40347 0.71546
 C890 C 0.40441 0.40240 0.74402
 H891 H 0.49137 0.43772 0.74973
 H892 H 0.45290 0.49568 0.70183
 H893 H 0.42453 0.43584 0.80207
 H894 H 0.35217 0.42988 0.70714
 H895 H 0.41877 0.43484 0.65608
 H896 H 0.39045 0.37498 0.75650
 C897 C 0.46030 0.56732 0.76688
 C898 C 0.43825 0.53807 0.79560
 C899 C 0.40117 0.53953 0.76857
 C900 C 0.42323 0.56829 0.73957
 C901 C 0.38400 0.57563 0.79221
 C902 C 0.42087 0.57422 0.81927
 C903 C 0.44238 0.60301 0.79029
 C904 C 0.40571 0.60434 0.76316
 H905 H 0.49192 0.56417 0.75640
 H906 H 0.45248 0.51092 0.80874
 H907 H 0.42527 0.56683 0.70655
 H908 H 0.35314 0.58107 0.80380
 H909 H 0.41982 0.57668 0.85232
 H910 H 0.39123 0.63075 0.74888
 C911 C -0.08544 0.08228 0.30739
 C912 C -0.12099 0.08555 0.27875
 C913 C -0.10412 0.04909 0.25543
 C914 C -0.06834 0.04591 0.28399
 C915 C -0.07984 0.07733 0.22772
 C916 C -0.09689 0.11382 0.25113
 C917 C -0.06156 0.11052 0.27983
 C918 C -0.04405 0.07454 0.25660
 H919 H -0.08789 0.08431 0.34043
 H920 H -0.15217 0.09198 0.28887
 H921 H -0.05552 0.01821 0.29739
 H922 H -0.07676 0.07594 0.19474
 H923 H -0.10928 0.14132 0.23692
 H924 H -0.01214 0.07029 0.24745
 C925 C 0.03967 0.44146 0.27717
 C926 C 0.06091 0.47238 0.30365
 C927 C 0.09787 0.47142 0.27510
 C928 C 0.07654 0.44110 0.24826
 C929 C 0.11639 0.43657 0.29945
 C930 C 0.07978 0.43768 0.32809
 C931 C 0.05912 0.40726 0.30145
 C932 C 0.09542 0.40639 0.27265
 H933 H 0.00788 0.44331 0.26804
 H934 H 0.04581 0.49932 0.31641
 H935 H 0.07430 0.44159 0.21528
 H936 H 0.14752 0.43217 0.30966
 H937 H 0.08112 0.43640 0.36119
 H938 H 0.10971 0.37909 0.25967
 C939 C 0.57767 0.90277 0.74932
 C940 C 0.56106 0.94626 0.74582
 C941 C 0.59991 0.96196 0.76429
 C942 C 0.61642 0.91862 0.76775
 C943 C 0.58061 0.95849 0.80649
 C944 C 0.54184 0.94248 0.78817
 C945 C 0.55889 0.89960 0.79148
 C946 C 0.59736 0.91530 0.80991
 H947 H 0.57667 0.88018 0.72524
 H948 H 0.54512 0.95897 0.71973
 H949 H 0.64679 0.90697 0.75996
 H950 H 0.58039 0.98034 0.83121
 H951 H 0.51087 0.95213 0.79659
 H952 H 0.61252 0.90250 0.83647
 C953 C 0.68353 0.56571 0.06615
 C954 C 0.70997 0.60271 0.07044
 C955 C 0.73623 0.58826 0.03477
 C956 C 0.70989 0.55098 0.03057
 C957 C 0.76380 0.56485 0.06370
 C958 C 0.73741 0.57951 0.09933
 C959 C 0.71096 0.54263 0.09509
 C960 C 0.73715 0.52750 0.05994
 H961 H 0.65027 0.56704 0.06646
 H962 H 0.69773 0.63302 0.07679
 H963 H 0.69859 0.53830 0.00246
 H964 H 0.79700 0.56355 0.06348
 H965 H 0.74894 0.59164 0.12762
 H966 H 0.74830 0.49631 0.05584
 C967 C 0.25599 1.06729 0.59864
 C968 C 0.26269 1.04884 0.55665
 C969 C 0.24100 1.08546 0.53794
 C970 C 0.23406 1.10358 0.57993
 C971 C 0.20062 1.06346 0.54172
 C972 C 0.22215 1.02692 0.56100
 C973 C 0.21577 1.04586 0.60249
 C974 C 0.19388 1.08181 0.58360
 H975 H 0.27922 1.06886 0.62188
 H976 H 0.29079 1.03426 0.54553
 H977 H 0.23734 1.13468 0.59033
 H978 H 0.17713 1.06107 0.51890
 H979 H 0.21729 0.99510 0.55342
 H980 H 0.16532 1.09547 0.59478
 C981 C 0.25089 0.92142 0.90966
 C982 C 0.25426 0.93806 0.95261
 C983 C 0.23225 0.90089 0.96922
 C984 C 0.22888 0.88443 0.92635
 C985 C 0.19160 0.92328 0.96481
 C986 C 0.21344 0.96033 0.94781
 C987 C 0.21028 0.94317 0.90545
 C988 C 0.18829 0.90652 0.92213
 H989 H 0.27548 0.92073 0.88690
 H990 H 0.28118 0.95207 0.96510
 H991 H 0.23447 0.85365 0.91536
 H992 H 0.16622 0.92564 0.98645
 H993 H 0.20728 0.99180 0.95672
 H994 H 0.16091 0.89339 0.90956
 C995 C 0.68627 0.41178 0.43293
 C996 C 0.71439 0.37484 0.43322
 C997 C 0.73880 0.39398 0.46668
 C998 C 0.71080 0.43132 0.46612
 C999 C 0.76637 0.41397 0.43488
 C1000 C 0.74189 0.39445 0.40161
 C1001 C 0.71357 0.43105 0.40101
 C1002 C 0.73795 0.45118 0.43371
 H1003 H 0.65304 0.41085 0.43235
 H1004 H 0.70370 0.34384 0.43032
 H1005 H 0.69801 0.44741 0.49239
 H1006 H 0.79950 0.41582 0.43476
 H1007 H 0.75492 0.37918 0.37492
 H1008 H 0.74763 0.48281 0.43369
 C1009 C 0.81522 0.41682 0.57149
 C1010 C 0.78715 0.38078 0.57483
 C1011 C 0.76373 0.39678 0.53851
 C1012 C 0.79171 0.43311 0.53527
 C1013 C 0.73526 0.42073 0.56680
 C1014 C 0.75875 0.40449 0.60311
 C1015 C 0.78689 0.44034 0.59980
 C1016 C 0.76359 0.45706 0.56398
 H1017 H 0.84839 0.41499 0.57336
 H1018 H 0.79789 0.34993 0.58122
 H1019 H 0.80497 0.44611 0.50757
 H1020 H 0.70215 0.42335 0.56564
 H1021 H 0.74459 0.39190 0.63056
 H1022 H 0.75386 0.48870 0.55980
 C1023 C 0.27720 -0.04198 0.06253
 C1024 C 0.29824 -0.07971 0.04518
 C1025 C 0.25722 -0.10018 0.04129
 C1026 C 0.23597 -0.06231 0.05831
 C1027 C 0.26094 -0.11748 0.08406
 C1028 C 0.30190 -0.09734 0.08769
 C1029 C 0.28075 -0.05995 0.10479
 C1030 C 0.23976 -0.07977 0.10120
 H1031 H 0.28366 -0.01065 0.05362
 H1032 H 0.32347 -0.07796 0.02337
 H1033 H 0.20909 -0.04692 0.04615
 H1034 H 0.25495 -0.14817 0.09502
 H1035 H 0.32927 -0.11195 0.09979
 H1036 H 0.21551 -0.07967 0.12433
 C1037 C 0.25839 0.06374 0.40771
 C1038 C 0.25259 0.04695 0.45065
 C1039 C 0.27247 0.08466 0.46735
 C1040 C 0.27851 0.10118 0.42447
 C1041 C 0.31392 0.06337 0.46471
 C1042 C 0.29419 0.02567 0.44749
 C1043 C 0.29968 0.04284 0.40501
 C1044 C 0.31977 0.08006 0.42185
 H1045 H 0.23465 0.06460 0.38492
 H1046 H 0.22523 0.03229 0.46255
 H1047 H 0.27348 0.13186 0.41278
 H1048 H 0.33748 0.06244 0.48763
 H1049 H 0.30068 -0.00569 0.45673
 H1050 H 0.34761 0.09389 0.40995
 C1051 C 0.81886 0.57635 0.93011
 C1052 C 0.78997 0.61273 0.93012
 C1053 C 0.76469 0.59284 0.96360
 C1054 C 0.79350 0.55613 0.96344
 C1055 C 0.73874 0.57248 0.93194
 C1056 C 0.76403 0.59270 0.89860
 C1057 C 0.79309 0.55664 0.89840
 C1058 C 0.76793 0.53587 0.93121
 H1059 H 0.85207 0.57791 0.92942
 H1060 H 0.80016 0.64401 0.92744
 H1061 H 0.80563 0.54023 0.98990
 H1062 H 0.70566 0.57008 0.93175
 H1063 H 0.75169 0.60782 0.87176
 H1064 H 0.75891 0.50404 0.93147
 C1065 C 0.08272 0.70544 0.59212
 C1066 C 0.07831 0.74612 0.61316
 C1067 C 0.03685 0.75225 0.59401
 C1068 C 0.04151 0.71152 0.57266
 C1069 C 0.05683 0.77333 0.55770
 C1070 C 0.09850 0.76705 0.57692
 C1071 C 0.10271 0.72630 0.55610
 C1072 C 0.06178 0.73234 0.53645
 H1073 H 0.09333 0.67733 0.60664
 H1074 H 0.08699 0.75084 0.64452
 H1075 H 0.01930 0.68754 0.56945
 H1076 H 0.04614 0.80117 0.54282
 H1077 H 0.12182 0.79024 0.57881
 H1078 H 0.05521 0.72668 0.50462
 C1079 C 0.57669 0.18229 1.07546
 C1080 C 0.57336 0.22163 1.09896
 C1081 C 0.52950 0.22701 1.08552
 C1082 C 0.53295 0.18751 1.06173
 C1083 C 0.54398 0.25050 1.04812
 C1084 C 0.58786 0.24531 1.06192
 C1085 C 0.59134 0.20594 1.03864
 C1086 C 0.54796 0.21086 1.02437
 H1087 H 0.59020 0.15400 1.08695
 H1088 H 0.58642 0.22475 1.12890
 H1089 H 0.51112 0.16293 1.06048
 H1090 H 0.53066 0.27842 1.03567
 H1091 H 0.60972 0.26996 1.06268
 H1092 H 0.53773 0.20646 0.99337
 C1093 C 0.93798 0.23187 0.95748
 C1094 C 0.95725 0.20973 0.92143
 C1095 C 0.96301 0.25008 0.89931
 C1096 C 0.94406 0.27243 0.93551
 C1097 C 0.92112 0.24649 0.88073
 C1098 C 0.91562 0.20617 0.90253
 C1099 C 0.89665 0.22842 0.93825
 C1100 C 0.90206 0.26876 0.91677
 H1101 H 0.94502 0.22613 0.98930
 H1102 H 0.97864 0.18437 0.92500
 H1103 H 0.95567 0.29949 0.95012
 H1104 H 0.91206 0.25185 0.84948
 H1105 H 0.90389 0.17865 0.88880
 H1106 H 0.87923 0.29320 0.91499
 C1107 C 0.43172 0.67891 0.40616
 C1108 C 0.43308 0.71941 0.38411
 C1109 C 0.47522 0.72632 0.40081
 C1110 C 0.47341 0.68597 0.42358
 C1111 C 0.45608 0.74771 0.43755
 C1112 C 0.41377 0.74044 0.42071
 C1113 C 0.41231 0.69985 0.44258
 C1114 C 0.45382 0.70704 0.46016
 H1115 H 0.42368 0.65086 0.39094
 H1116 H 0.42205 0.72413 0.35343
 H1117 H 0.49661 0.66224 0.42696
 H1118 H 0.46618 0.77587 0.45124
 H1119 H 0.38902 0.76298 0.41956
 H1120 H 0.46223 0.70187 0.49173
 C1121 C 0.60659 0.73802 0.41965
 C1122 C 0.56344 0.73311 0.43684
 C1123 C 0.54645 0.75317 0.39881
 C1124 C 0.58945 0.75797 0.38173
 C1125 C 0.54865 0.79458 0.41895
 C1126 C 0.56595 0.77473 0.45685
 C1127 C 0.60849 0.77940 0.43919
 C1128 C 0.59147 0.79936 0.40158
 H1129 H 0.63055 0.71461 0.42012
 H1130 H 0.55203 0.70606 0.45236
 H1131 H 0.60079 0.75157 0.35111
 H1132 H 0.52589 0.81901 0.42026
 H1133 H 0.55619 0.78137 0.48800
 H1134 H 0.60306 0.82687 0.38693
 C1135 C 0.08188 0.31850 -0.09145
 C1136 C 0.07935 0.27757 -0.11213
 C1137 C 0.03526 0.27430 -0.09770
 C1138 C 0.03796 0.31526 -0.07672
 C1139 C 0.04914 0.25299 -0.05906
 C1140 C 0.09339 0.25633 -0.07360
 C1141 C 0.09582 0.29729 -0.05320
 C1142 C 0.05218 0.29412 -0.03817
 H1143 H 0.09540 0.34566 -0.10501
 H1144 H 0.09233 0.27133 -0.14215
 H1145 H 0.01621 0.34061 -0.07635
 H1146 H 0.03563 0.22629 -0.04469
 H1147 H 0.11587 0.23154 -0.07253
 H1148 H 0.04117 0.30092 -0.00745
 C1149 C 0.43481 0.27777 0.03561
 C1150 C 0.45399 0.29699 0.07240
 C1151 C 0.45802 0.25528 0.09235
 C1152 C 0.43914 0.23591 0.05548
 C1153 C 0.41602 0.26060 0.11195
 C1154 C 0.41208 0.30223 0.09214
 C1155 C 0.39324 0.28283 0.05568
 C1156 C 0.39699 0.24123 0.07519
 H1157 H 0.44250 0.28469 0.00395
 H1158 H 0.47651 0.32095 0.07031
 H1159 H 0.45025 0.20888 0.03945
 H1160 H 0.40662 0.25437 0.14323
 H1161 H 0.40082 0.32976 0.10729
 H1162 H 0.37354 0.21803 0.07621
 C1163 C 0.91838 0.82588 0.58239
 C1164 C 0.92118 0.78478 0.60326
 C1165 C 0.96547 0.78068 0.58940
 C1166 C 0.96261 0.82194 0.56829
 C1167 C 0.95236 0.76011 0.55060
 C1168 C 0.90802 0.76402 0.56476
 C1169 C 0.90512 0.80513 0.54412
 C1170 C 0.94898 0.80149 0.52953
 H1171 H 0.90432 0.85316 0.59567
 H1172 H 0.90748 0.77901 0.63304
 H1173 H 0.98441 0.84660 0.56862
 H1174 H 0.96628 0.73328 0.53641
 H1175 H 0.88627 0.73928 0.56394
 H1176 H 0.96020 0.80838 0.49888
   
