data_POSCAR
  _audit_creation_date              2014-09-24
  _audit_creation_method            'ToBaCCo'
  _symmetry_space_group_name_H-M    'P1'
  _symmetry_Int_Tables_number       1
  _symmetry_cell_setting            triclinic
  loop_
  _symmetry_equiv_pos_as_xyz
 x,y,z
_cell_length_a 53.6749
_cell_length_b 50.6490
_cell_length_c 42.4243
_cell_angle_alpha 88.603900
_cell_angle_beta 89.896300
_cell_angle_gamma 89.525100
loop_
  _atom_site_label
  _atom_site_type_symbol
  _atom_site_fract_x
  _atom_site_fract_y
  _atom_site_fract_z
C1 C 0.26851 0.27800 0.23461
 C2 C 0.24831 0.26459 0.24836
 C3 C 0.22898 0.27893 0.26243
 C4 C 0.22997 0.30659 0.26357
 C5 C 0.25021 0.31977 0.24942
 C6 C 0.26947 0.30571 0.23460
 C7 C 0.24770 0.23548 0.24877
 C8 C 0.26659 0.22088 0.26410
 C9 C 0.26588 0.19314 0.26556
 C10 C 0.24609 0.18018 0.25090
 C11 C 0.22723 0.19458 0.23500
 C12 C 0.22809 0.22230 0.23431
 H13 H 0.28327 0.26673 0.22366
 H14 H 0.21362 0.26837 0.27336
 H15 H 0.28161 0.23130 0.27527
 H16 H 0.21359 0.23374 0.22244
 H17 H 0.25089 0.34112 0.24984
 H18 H 0.24546 0.15881 0.25160
 C19 C 0.76803 0.77863 0.23352
 C20 C 0.74786 0.76508 0.24707
 C21 C 0.72837 0.77922 0.26102
 C22 C 0.72910 0.80695 0.26241
 C23 C 0.74944 0.82026 0.24839
 C24 C 0.76891 0.80640 0.23352
 C25 C 0.74744 0.73595 0.24740
 C26 C 0.76635 0.72147 0.26284
 C27 C 0.76580 0.69373 0.26427
 C28 C 0.74614 0.68065 0.24948
 C29 C 0.72726 0.69493 0.23348
 C30 C 0.72797 0.72266 0.23280
 H31 H 0.78284 0.76731 0.22269
 H32 H 0.71306 0.76835 0.27161
 H33 H 0.78126 0.73198 0.27413
 H34 H 0.71345 0.73401 0.22085
 H35 H 0.75006 0.84161 0.24894
 H36 H 0.74564 0.65927 0.25016
 C37 C 0.76829 0.27742 0.73463
 C38 C 0.74806 0.26392 0.74810
 C39 C 0.72852 0.27815 0.76189
 C40 C 0.72928 0.30589 0.76315
 C41 C 0.74969 0.31910 0.74919
 C42 C 0.76913 0.30512 0.73462
 C43 C 0.74759 0.23479 0.74850
 C44 C 0.76651 0.22030 0.76392
 C45 C 0.76600 0.19248 0.76544
 C46 C 0.74624 0.17949 0.75056
 C47 C 0.72737 0.19382 0.73459
 C48 C 0.72811 0.22153 0.73392
 H49 H 0.78320 0.26622 0.72387
 H50 H 0.71315 0.26733 0.77244
 H51 H 0.78136 0.23096 0.77516
 H52 H 0.71360 0.23290 0.72198
 H53 H 0.75048 0.34045 0.74951
 H54 H 0.74558 0.15812 0.75107
 C55 C 0.26838 0.77864 0.73425
 C56 C 0.24822 0.76521 0.74806
 C57 C 0.22891 0.77950 0.76221
 C58 C 0.22988 0.80714 0.76341
 C59 C 0.25007 0.82039 0.74922
 C60 C 0.26940 0.80643 0.73420
 C61 C 0.24763 0.73609 0.74847
 C62 C 0.26654 0.72152 0.76377
 C63 C 0.26587 0.69378 0.76521
 C64 C 0.24608 0.68080 0.75057
 C65 C 0.22719 0.69518 0.73471
 C66 C 0.22802 0.72290 0.73402
 H67 H 0.28305 0.76723 0.72329
 H68 H 0.21359 0.76891 0.77318
 H69 H 0.28157 0.73195 0.77493
 H70 H 0.21350 0.73433 0.72217
 H71 H 0.25059 0.84174 0.74982
 H72 H 0.24548 0.65943 0.75126
 C73 C 0.03438 0.04259 0.01332
 H74 H 0.03390 0.04547 -0.01202
 C75 C 0.04941 0.05865 0.03148
 H76 H 0.06030 0.07394 0.01987
 C77 C 0.02142 0.01851 0.05896
 H78 H 0.01074 0.00263 0.06956
 C79 C 0.03648 0.03387 0.07796
 H80 H 0.03700 0.02977 0.10312
 N81 N 0.02066 0.02303 0.02722
 C82 C 0.01410 -0.03965 -0.04180
 H83 H -0.00561 -0.04363 -0.04195
 C84 C 0.03010 -0.05476 -0.06032
 H85 H 0.02237 -0.06984 -0.07500
 C86 C 0.04823 -0.01603 -0.02179
 H87 H 0.05549 -0.00135 -0.00639
 C88 C 0.06481 -0.03040 -0.04016
 H89 H 0.08454 -0.02631 -0.03870
 Zn90 Zn 0.00138 0.00048 0.00170
 N91 N 0.02329 -0.02048 -0.02320
 C92 C -0.03655 0.00774 -0.04365
 N93 N -0.02072 0.02081 -0.02460
 C94 C -0.02173 0.04761 -0.02295
 C95 C -0.03847 0.06228 -0.04163
 C96 C -0.05365 0.02162 -0.06264
 C97 C -0.01477 -0.04780 0.03127
 C98 C -0.03061 -0.06312 0.05034
 C99 C -0.05358 -0.02349 0.06287
 C100 C -0.03741 -0.00901 0.04353
 N101 N -0.01857 -0.02128 0.02810
 H102 H -0.03636 -0.01354 -0.04368
 H103 H -0.00999 0.05778 -0.00671
 H104 H -0.03889 0.08357 -0.03983
 H105 H -0.06604 0.01071 -0.07755
 H106 H 0.00051 -0.05712 0.01907
 H107 H -0.02740 -0.08422 0.05244
 H108 H -0.06855 -0.01324 0.07471
 H109 H -0.03994 0.01212 0.04059
 C110 C 0.05582 -0.05000 -0.05988
 C111 C 0.05076 0.05422 0.06423
 C112 C -0.05042 -0.05097 0.06634
 C113 C -0.05473 0.04930 -0.06187
 C114 C 0.03445 0.54286 0.51318
 H115 H 0.03377 0.54593 0.48786
 C116 C 0.04944 0.55895 0.53134
 H117 H 0.06012 0.57443 0.51977
 C118 C 0.02199 0.51835 0.55871
 H119 H 0.01150 0.50230 0.56927
 C120 C 0.03702 0.53373 0.57771
 H121 H 0.03771 0.52948 0.60283
 N122 N 0.02101 0.52306 0.52702
 C123 C 0.01444 0.46020 0.45828
 H124 H -0.00522 0.45595 0.45857
 C125 C 0.03040 0.44511 0.43970
 H126 H 0.02269 0.42976 0.42541
 C127 C 0.04851 0.48447 0.47733
 H128 H 0.05577 0.49941 0.49237
 C129 C 0.06506 0.47011 0.45888
 H130 H 0.08475 0.47447 0.45994
 Zn131 Zn 0.00172 0.50053 0.50150
 N132 N 0.02361 0.47967 0.47645
 C133 C -0.03584 0.50795 0.45562
 N134 N -0.02044 0.52089 0.47534
 C135 C -0.02186 0.54763 0.47770
 C136 C -0.03860 0.56238 0.45911
 C137 C -0.05292 0.52192 0.43667
 C138 C -0.01416 0.45218 0.53120
 C139 C -0.02990 0.43681 0.55032
 C140 C -0.05307 0.47632 0.56278
 C141 C -0.03700 0.49087 0.54337
 N142 N -0.01811 0.47867 0.52793
 H143 H -0.03530 0.48670 0.45496
 H144 H -0.01046 0.55765 0.49445
 H145 H -0.03935 0.58361 0.46149
 H146 H -0.06495 0.51111 0.42121
 H147 H 0.00118 0.44293 0.51904
 H148 H -0.02657 0.41573 0.55250
 H149 H -0.06809 0.48651 0.57461
 H150 H -0.03964 0.51198 0.54038
 C151 C 0.05607 0.45018 0.43964
 C152 C 0.05103 0.55432 0.56404
 C153 C -0.04976 0.44887 0.56632
 C154 C -0.05441 0.54954 0.43819
 C155 C 0.53456 0.04162 0.51274
 H156 H 0.53353 0.04499 0.48750
 C157 C 0.54958 0.05768 0.53091
 H158 H 0.55995 0.07344 0.51940
 C159 C 0.52286 0.01646 0.55811
 H160 H 0.51265 0.00017 0.56860
 C161 C 0.53793 0.03181 0.57710
 H162 H 0.53892 0.02729 0.60215
 N163 N 0.52150 0.02150 0.52651
 C164 C 0.51466 -0.04196 0.45867
 H165 H 0.49510 -0.04667 0.45989
 C166 C 0.53048 -0.05706 0.43989
 H167 H 0.52276 -0.07289 0.42638
 C168 C 0.54864 -0.01641 0.47552
 H169 H 0.55593 -0.00092 0.48972
 C170 C 0.56501 -0.03071 0.45676
 H171 H 0.58461 -0.02580 0.45678
 Zn172 Zn 0.50213 -0.00099 0.50107
 N173 N 0.52386 -0.02189 0.47587
 C174 C 0.46524 0.00668 0.45431
 N175 N 0.48000 0.01943 0.47497
 C176 C 0.47797 0.04603 0.47829
 C177 C 0.46123 0.06088 0.45981
 C178 C 0.44817 0.02073 0.43545
 C179 C 0.48620 -0.04918 0.53134
 C180 C 0.47036 -0.06436 0.55056
 C181 C 0.44716 -0.02470 0.56229
 C182 C 0.46333 -0.01035 0.54281
 N183 N 0.48226 -0.02272 0.52763
 H184 H 0.46635 -0.01451 0.45275
 H185 H 0.48888 0.05585 0.49575
 H186 H 0.45996 0.08199 0.46298
 H187 H 0.43666 0.01008 0.41922
 H188 H 0.50162 -0.05855 0.51947
 H189 H 0.47368 -0.08542 0.55305
 H190 H 0.43210 -0.01438 0.57388
 H191 H 0.46071 0.01074 0.53953
 C192 C 0.55599 -0.05129 0.43854
 C193 C 0.55158 0.05271 0.56351
 C194 C 0.45042 -0.05213 0.56621
 C195 C 0.44603 0.04824 0.43800
 C196 C 0.53484 0.54212 0.01168
 H197 H 0.53376 0.54550 -0.01356
 C198 C 0.54986 0.55821 0.02981
 H199 H 0.56019 0.57399 0.01829
 C200 C 0.52323 0.51694 0.05707
 H201 H 0.51304 0.50064 0.06758
 C202 C 0.53829 0.53232 0.07603
 H203 H 0.53932 0.52780 0.10108
 N204 N 0.52182 0.52198 0.02548
 C205 C 0.51484 0.45849 -0.04228
 H206 H 0.49528 0.45379 -0.04097
 C207 C 0.53062 0.44331 -0.06102
 H208 H 0.52287 0.42743 -0.07442
 C209 C 0.54886 0.48408 -0.02565
 H210 H 0.55618 0.49962 -0.01154
 C211 C 0.56519 0.46971 -0.04438
 H212 H 0.58479 0.47460 -0.04442
 Zn213 Zn 0.50240 0.49949 0.00008
 N214 N 0.52408 0.47860 -0.02518
 C215 C 0.46547 0.50720 -0.04662
 N216 N 0.48022 0.51993 -0.02594
 C217 C 0.47817 0.54652 -0.02253
 C218 C 0.46139 0.56138 -0.04094
 C219 C 0.44838 0.52127 -0.06543
 C220 C 0.48664 0.45130 0.03044
 C221 C 0.47088 0.43608 0.04971
 C222 C 0.44757 0.47567 0.06147
 C223 C 0.46366 0.49006 0.04192
 N224 N 0.48260 0.47775 0.02671
 H225 H 0.46661 0.48602 -0.04827
 H226 H 0.48907 0.55630 -0.00504
 H227 H 0.46011 0.58248 -0.03770
 H228 H 0.43687 0.51065 -0.08169
 H229 H 0.50207 0.44197 0.01856
 H230 H 0.47427 0.41503 0.05223
 H231 H 0.43250 0.48594 0.07308
 H232 H 0.46098 0.51114 0.03863
 C233 C 0.55613 0.44906 -0.06245
 C234 C 0.55189 0.55325 0.06241
 C235 C 0.45093 0.44825 0.06541
 C236 C 0.44620 0.54877 -0.06278
 C237 C 0.17534 -0.15025 -0.18756
 N238 N 0.19697 -0.13868 -0.19669
 N239 N 0.21409 -0.15215 -0.21254
 C240 C 0.21035 -0.17779 -0.21980
 N241 N 0.18864 -0.18935 -0.21067
 N242 N 0.17144 -0.17582 -0.19492
 C243 C 0.15688 -0.13537 -0.16941
 N244 N 0.13421 -0.14572 -0.16238
 N245 N 0.11774 -0.13217 -0.14548
 C246 C 0.12341 -0.10785 -0.13488
 N247 N 0.14606 -0.09755 -0.14194
 N248 N 0.16245 -0.11102 -0.15894
 C249 C 0.10565 -0.09294 -0.11570
 N250 N 0.11281 -0.07030 -0.10204
 N251 N 0.09697 -0.05675 -0.08434
 C252 C 0.07327 -0.06522 -0.07968
 N253 N 0.06607 -0.08786 -0.09351
 N254 N 0.08198 -0.10151 -0.11111
 C255 C 0.17541 0.34943 0.31225
 N256 N 0.19696 0.36102 0.30285
 N257 N 0.21408 0.34747 0.28711
 C258 C 0.21042 0.32174 0.28022
 N259 N 0.18878 0.31016 0.28962
 N260 N 0.17158 0.32377 0.30527
 C261 C 0.15695 0.36441 0.33031
 N262 N 0.13438 0.35398 0.33770
 N263 N 0.11793 0.36761 0.35454
 C264 C 0.12352 0.39209 0.36470
 N265 N 0.14607 0.40247 0.35729
 N266 N 0.16245 0.38891 0.34035
 C267 C 0.10579 0.40708 0.38384
 N268 N 0.11288 0.42994 0.39704
 N269 N 0.09707 0.44355 0.41473
 C270 C 0.07348 0.43492 0.41982
 N271 N 0.06635 0.41206 0.40645
 N272 N 0.08222 0.39835 0.38886
 C273 C 0.67478 -0.15144 0.30978
 N274 N 0.69467 -0.13888 0.29684
 N275 N 0.71198 -0.15229 0.28124
 C276 C 0.71025 -0.17886 0.27805
 N277 N 0.69018 -0.19136 0.29096
 N278 N 0.67277 -0.17792 0.30646
 C279 C 0.65624 -0.13657 0.32784
 N280 N 0.63492 -0.14813 0.33829
 N281 N 0.61847 -0.13458 0.35523
 C282 C 0.62285 -0.10906 0.36248
 N283 N 0.64415 -0.09755 0.35200
 N284 N 0.66050 -0.11102 0.33493
 C285 C 0.60522 -0.09415 0.38185
 N286 N 0.61167 -0.07025 0.39290
 N287 N 0.59601 -0.05672 0.41087
 C288 C 0.57320 -0.06646 0.41839
 N289 N 0.56669 -0.09034 0.40716
 N290 N 0.58244 -0.10398 0.38931
 C291 C 0.67489 0.34788 -0.19009
 N292 N 0.67283 0.32138 -0.19323
 N293 N 0.69027 0.30782 -0.20853
 C294 C 0.71040 0.32020 -0.22143
 N295 N 0.71217 0.34679 -0.21843
 N296 N 0.69485 0.36032 -0.20303
 C297 C 0.65633 0.36290 -0.17224
 N298 N 0.66062 0.38849 -0.16538
 N299 N 0.64427 0.40211 -0.14849
 C300 C 0.62293 0.39071 -0.13796
 N301 N 0.61852 0.36515 -0.14499
 N302 N 0.63497 0.35145 -0.16175
 C303 C 0.60531 0.40578 -0.11876
 N304 N 0.58251 0.39603 -0.11123
 N305 N 0.56678 0.40981 -0.09352
 C306 C 0.57332 0.43376 -0.08250
 N307 N 0.59614 0.44342 -0.09009
 N308 N 0.61179 0.42975 -0.10793
 C309 C -0.17949 0.15008 -0.18632
 N310 N -0.19809 0.13746 -0.20127
 N311 N -0.21561 0.15114 -0.21693
 C312 C -0.21527 0.17800 -0.21833
 N313 N -0.19651 0.19051 -0.20338
 N314 N -0.17900 0.17685 -0.18768
 C315 C -0.16040 0.13503 -0.16860
 N316 N -0.14247 0.14770 -0.15242
 N317 N -0.12539 0.13406 -0.13594
 C318 C -0.12558 0.10725 -0.13508
 N319 N -0.14346 0.09457 -0.15134
 N320 N -0.16057 0.10822 -0.16778
 C321 C -0.10698 0.09223 -0.11651
 N322 N -0.10682 0.06543 -0.11618
 N323 N -0.09015 0.05181 -0.09899
 C324 C -0.07302 0.06445 -0.08140
 N325 N -0.07321 0.09129 -0.08185
 N326 N -0.08984 0.10491 -0.09907
 C327 C -0.17883 0.65063 0.31354
 N328 N -0.19675 0.63800 0.29734
 N329 N -0.21424 0.65166 0.28161
 C330 C -0.21450 0.67850 0.28140
 N331 N -0.19646 0.69108 0.29757
 N332 N -0.17899 0.67743 0.31335
 C333 C -0.15980 0.63557 0.33133
 N334 N -0.14251 0.64821 0.34861
 N335 N -0.12547 0.63454 0.36514
 C336 C -0.12508 0.60774 0.36496
 N337 N -0.14232 0.59510 0.34761
 N338 N -0.15938 0.60877 0.33111
 C339 C -0.10653 0.59267 0.38355
 N340 N -0.10584 0.56589 0.38296
 N341 N -0.08923 0.55222 0.40017
 C342 C -0.07266 0.56477 0.41868
 N343 N -0.07338 0.59159 0.41916
 N344 N -0.08997 0.60527 0.40193
 C345 C 0.32130 0.14979 0.31441
 N346 N 0.30344 0.13724 0.29800
 N347 N 0.28593 0.15099 0.28240
 C348 C 0.28559 0.17782 0.28255
 N349 N 0.30355 0.19031 0.29894
 N350 N 0.32105 0.17658 0.31457
 C351 C 0.34037 0.13465 0.33204
 N352 N 0.35748 0.14720 0.34968
 N353 N 0.37456 0.13348 0.36606
 C354 C 0.37519 0.10670 0.36535
 N355 N 0.35813 0.09414 0.34763
 N356 N 0.34102 0.10787 0.33129
 C357 C 0.39379 0.09156 0.38378
 N358 N 0.39484 0.06483 0.38251
 N359 N 0.41151 0.05110 0.39957
 C360 C 0.42775 0.06354 0.41863
 N361 N 0.42667 0.09032 0.41980
 N362 N 0.41004 0.10406 0.40270
 C363 C 0.32136 0.65044 -0.18605
 N364 N 0.32107 0.67722 -0.18584
 N365 N 0.30356 0.69095 -0.20144
 C366 C 0.28560 0.67847 -0.21784
 N367 N 0.28597 0.65163 -0.21804
 N368 N 0.30351 0.63789 -0.20248
 C369 C 0.34045 0.63529 -0.16847
 N370 N 0.34112 0.60852 -0.16928
 N371 N 0.35824 0.59477 -0.15299
 C372 C 0.37530 0.60731 -0.13524
 N373 N 0.37465 0.63409 -0.13446
 N374 N 0.35755 0.64783 -0.15080
 C375 C 0.39392 0.59216 -0.11685
 N376 N 0.41015 0.60463 -0.09790
 N377 N 0.42680 0.59087 -0.08085
 C378 C 0.42790 0.56410 -0.08210
 N379 N 0.41167 0.55168 -0.10119
 N380 N 0.39499 0.56543 -0.11821
 C381 C -0.17410 -0.15296 0.18889
 N382 N -0.19255 -0.13985 0.20396
 N383 N -0.21077 -0.15300 0.21855
 C384 C -0.21136 -0.17984 0.21873
 N385 N -0.19271 -0.19292 0.20373
 N386 N -0.17446 -0.17976 0.18909
 C387 C -0.15455 -0.13820 0.17201
 N388 N -0.13621 -0.15093 0.15615
 N389 N -0.11896 -0.13731 0.14017
 C390 C -0.11945 -0.11048 0.13949
 N391 N -0.13772 -0.09780 0.15546
 N392 N -0.15493 -0.11140 0.17142
 C393 C -0.10102 -0.09525 0.12118
 N394 N -0.10248 -0.06850 0.11975
 N395 N -0.08629 -0.05452 0.10256
 C396 C -0.06795 -0.06669 0.08609
 N397 N -0.06643 -0.09350 0.08769
 N398 N -0.08267 -0.10752 0.10488
 C399 C -0.17288 0.34647 0.68929
 N400 N -0.17342 0.31968 0.68907
 N401 N -0.19165 0.30650 0.70372
 C402 C -0.21005 0.31958 0.71912
 N403 N -0.20933 0.34638 0.71939
 N404 N -0.19113 0.35955 0.70478
 C405 C -0.15337 0.36127 0.67238
 N406 N -0.15366 0.38807 0.67208
 N407 N -0.13651 0.40172 0.65607
 C408 C -0.11840 0.38910 0.63976
 N409 N -0.11801 0.36227 0.64014
 N410 N -0.13520 0.34860 0.65617
 C411 C -0.10006 0.40440 0.62138
 N412 N -0.08181 0.39218 0.60484
 N413 N -0.06566 0.40626 0.58758
 C414 C -0.06718 0.43308 0.58615
 N415 N -0.08542 0.44519 0.60285
 N416 N -0.10152 0.43115 0.62012
 C417 C 0.32641 -0.15326 0.68924
 N418 N 0.32594 -0.18005 0.68948
 N419 N 0.30767 -0.19311 0.70421
 C420 C 0.28912 -0.17992 0.71926
 N421 N 0.28982 -0.15309 0.71904
 N422 N 0.30805 -0.14004 0.70435
 C423 C 0.34601 -0.13862 0.67229
 N424 N 0.34571 -0.11182 0.67157
 N425 N 0.36298 -0.09833 0.65556
 C426 C 0.38122 -0.11113 0.63967
 N427 N 0.38162 -0.13796 0.64048
 N428 N 0.36431 -0.15147 0.65651
 C429 C 0.39971 -0.09603 0.62131
 N430 N 0.41808 -0.10843 0.60517
 N431 N 0.43436 -0.09453 0.58790
 C432 C 0.43287 -0.06772 0.58608
 N433 N 0.41451 -0.05543 0.60239
 N434 N 0.39828 -0.06928 0.61966
 C435 C 0.32744 0.34678 0.18886
 N436 N 0.32687 0.31999 0.18885
 N437 N 0.30864 0.30690 0.20360
 C438 C 0.29026 0.32008 0.21892
 N439 N 0.29100 0.34689 0.21898
 N440 N 0.30919 0.35997 0.20426
 C441 C 0.34698 0.36147 0.17187
 N442 N 0.34672 0.38827 0.17134
 N443 N 0.36392 0.40180 0.15528
 C444 C 0.38206 0.38905 0.13915
 N445 N 0.38243 0.36222 0.13978
 N446 N 0.36518 0.34867 0.15586
 C447 C 0.40046 0.40421 0.12072
 N448 N 0.41877 0.39186 0.10440
 N449 N 0.43497 0.40581 0.08708
 C450 C 0.43346 0.43262 0.08535
 N451 N 0.41518 0.44486 0.10183
 N452 N 0.39902 0.43095 0.11917
 C453 C 0.17060 0.15481 0.18785
 N454 N 0.17550 0.18051 0.18068
 N455 N 0.19326 0.19322 0.19593
 C456 C 0.20693 0.18069 0.21879
 N457 N 0.20196 0.15497 0.22594
 N458 N 0.18409 0.14230 0.21084
 C459 C 0.15151 0.14056 0.17046
 N460 N 0.14447 0.11596 0.18007
 N461 N 0.12762 0.10275 0.16383
 C462 C 0.11730 0.11359 0.13729
 N463 N 0.12431 0.13820 0.12771
 N464 N 0.14105 0.15148 0.14405
 C465 C 0.09941 0.09864 0.11878
 N466 N 0.09237 0.10742 0.08963
 N467 N 0.07679 0.09341 0.07240
 C468 C 0.06750 0.07017 0.08373
 N469 N 0.07441 0.06154 0.11303
 N470 N 0.09012 0.07546 0.13018
 C471 C 0.17060 0.65530 0.68762
 N472 N 0.17541 0.68102 0.68049
 N473 N 0.19316 0.69378 0.69572
 C474 C 0.20690 0.68126 0.71852
 N475 N 0.20200 0.65552 0.72564
 N476 N 0.18415 0.64281 0.71056
 C477 C 0.15153 0.64100 0.67025
 N478 N 0.14463 0.61634 0.67979
 N479 N 0.12782 0.60307 0.66357
 C480 C 0.11739 0.61392 0.63709
 N481 N 0.12426 0.63860 0.62757
 N482 N 0.14096 0.65193 0.64392
 C483 C 0.09954 0.59891 0.61859
 N484 N 0.09236 0.60774 0.58952
 N485 N 0.07682 0.59368 0.57229
 C486 C 0.06772 0.57032 0.58354
 N487 N 0.07479 0.56164 0.61276
 N488 N 0.09046 0.57561 0.62991
 C489 C 0.67102 0.15380 0.68720
 N490 N 0.67577 0.17954 0.68012
 N491 N 0.69345 0.19234 0.69544
 C492 C 0.70717 0.17984 0.71828
 N493 N 0.70233 0.15408 0.72534
 N494 N 0.68456 0.14133 0.71017
 C495 C 0.65201 0.13946 0.66977
 N496 N 0.64524 0.11473 0.67921
 N497 N 0.62846 0.10144 0.66294
 C498 C 0.61795 0.11233 0.63655
 N499 N 0.62470 0.13707 0.62713
 N500 N 0.64137 0.15043 0.64351
 C501 C 0.60012 0.09730 0.61803
 N502 N 0.59274 0.10626 0.58910
 N503 N 0.57719 0.09220 0.57188
 C504 C 0.56830 0.06871 0.58299
 N505 N 0.57557 0.05989 0.61208
 N506 N 0.59124 0.07387 0.62923
 C507 C 0.67104 0.65473 0.18608
 N508 N 0.67568 0.68051 0.17905
 N509 N 0.69332 0.69336 0.19437
 C510 C 0.70710 0.68090 0.21717
 N511 N 0.70237 0.65510 0.22418
 N512 N 0.68464 0.64229 0.20901
 C513 C 0.65208 0.64033 0.16865
 N514 N 0.64540 0.61557 0.17805
 N515 N 0.62867 0.60222 0.16179
 C516 C 0.61812 0.61307 0.13541
 N517 N 0.62477 0.63785 0.12602
 N518 N 0.64139 0.65127 0.14240
 C519 C 0.60033 0.59798 0.11690
 N520 N 0.59291 0.60692 0.08797
 N521 N 0.57740 0.59281 0.07076
 C522 C 0.56858 0.56929 0.08187
 N523 N 0.57590 0.56049 0.11095
 N524 N 0.59153 0.57452 0.12809
   
