data_POSCAR
  _audit_creation_date              2014-09-24
  _audit_creation_method            'ToBaCCo'
  _symmetry_space_group_name_H-M    'P1'
  _symmetry_Int_Tables_number       1
  _symmetry_cell_setting            triclinic
  loop_
  _symmetry_equiv_pos_as_xyz
 x,y,z
_cell_length_a 24.4223
_cell_length_b 25.2256
_cell_length_c 31.0377
_cell_angle_alpha 89.979500
_cell_angle_beta 90.138800
_cell_angle_gamma 90.018400
loop_
  _atom_site_label
  _atom_site_type_symbol
  _atom_site_fract_x
  _atom_site_fract_y
  _atom_site_fract_z
Zr1 Zr 0.24762 0.24869 0.32587
 O2 O 0.29174 0.28956 0.37442
 O3 O 0.19386 0.20150 0.36211
 O4 O 0.19588 0.29923 0.36151
 O5 O 0.34722 0.15394 0.30948
 O6 O 0.15142 0.34803 0.31033
 O7 O 0.29914 0.19798 0.36145
 O8 O 0.14173 0.16079 0.31064
 O9 O 0.17518 0.25225 0.28994
 O10 O 0.24511 0.17949 0.28877
 O11 O 0.25367 0.31883 0.28957
 O12 O 0.32051 0.24879 0.28922
 Zr13 Zr 0.24913 0.25251 0.17526
 Zr14 Zr 0.18283 0.31997 0.25163
 Zr15 Zr 0.31481 0.18108 0.25015
 Zr16 Zr 0.17477 0.18464 0.25121
 O17 O 0.40135 0.18452 0.24830
 O18 O 0.08949 0.20047 0.24964
 O19 O 0.24411 0.18161 0.21133
 O20 O 0.17734 0.25236 0.21257
 O21 O 0.25205 0.32217 0.21195
 O22 O 0.32129 0.24873 0.21167
 C23 C 0.15489 0.17071 0.34989
 C24 C 0.33573 0.16475 0.34904
 C25 C 0.16159 0.33506 0.34952
 O26 O 0.09627 0.31642 0.24922
 O27 O 0.15483 0.35358 0.19412
 O28 O 0.19834 0.30670 0.14132
 C29 C 0.16460 0.34252 0.15463
 O30 O 0.36202 0.34351 0.30662
 Zr31 Zr 0.32263 0.31648 0.24957
 O32 O 0.30040 0.30106 0.13831
 O33 O 0.19412 0.40306 0.25498
 O34 O 0.31303 0.39998 0.25185
 O35 O 0.40820 0.30308 0.24542
 O36 O 0.34815 0.34710 0.18943
 C37 C 0.33523 0.33626 0.15017
 O38 O 0.20347 0.21406 0.12634
 O39 O 0.30460 0.09780 0.25158
 O40 O 0.29743 0.19821 0.13971
 O41 O 0.34037 0.14802 0.19106
 O42 O 0.18150 0.10089 0.25421
 O43 O 0.14345 0.15080 0.19348
 C44 C 0.32968 0.16040 0.15168
 H45 H 0.24442 0.14682 0.30644
 H46 H 0.14421 0.25309 0.19414
 H47 H 0.35461 0.24710 0.19363
 H48 H 0.25590 0.35031 0.30854
 H49 H 0.07021 0.16707 0.25691
 H50 H 0.08271 0.35339 0.25095
 H51 H 0.15719 0.41932 0.25438
 H52 H 0.34851 0.41605 0.24356
 H53 H 0.14473 0.08666 0.26114
 H54 H 0.34180 0.08221 0.25303
 H55 H 0.41457 0.14739 0.24773
 H56 H 0.42562 0.33729 0.23776
 H57 H 0.11200 0.12753 0.20035
 H58 H 0.21731 0.22742 0.09833
 H59 H 0.27758 0.27729 0.40267
 H60 H 0.38808 0.37221 0.29934
 Zr61 Zr 0.75504 0.74955 0.32381
 O62 O 0.71361 0.70381 0.37081
 O63 O 0.80694 0.79669 0.36170
 O64 O 0.80929 0.69935 0.35721
 O65 O 0.64985 0.83957 0.31167
 O66 O 0.85605 0.65585 0.30425
 O67 O 0.70189 0.79593 0.36167
 O68 O 0.85500 0.84386 0.31161
 O69 O 0.82702 0.75255 0.28741
 O70 O 0.75243 0.82089 0.28952
 O71 O 0.75345 0.68141 0.28483
 O72 O 0.68155 0.74717 0.28789
 Zr73 Zr 0.75068 0.75433 0.17356
 Zr74 Zr 0.82360 0.68689 0.24636
 Zr75 Zr 0.68219 0.81723 0.25133
 Zr76 Zr 0.82215 0.82233 0.25147
 O77 O 0.59603 0.80849 0.24994
 O78 O 0.90827 0.81212 0.24839
 O79 O 0.75197 0.82327 0.21217
 O80 O 0.82322 0.75713 0.21025
 O81 O 0.75351 0.68248 0.20739
 O82 O 0.67925 0.75148 0.21052
 C83 C 0.84366 0.83033 0.35045
 C84 C 0.66328 0.82788 0.35069
 C85 C 0.84495 0.66565 0.34398
 O86 O 0.90975 0.69578 0.24563
 O87 O 0.85450 0.66207 0.18640
 O88 O 0.80481 0.70812 0.13636
 C89 C 0.84270 0.67542 0.14749
 O90 O 0.64781 0.64953 0.30258
 Zr91 Zr 0.68350 0.68174 0.24591
 O92 O 0.70194 0.70378 0.13550
 O93 O 0.81815 0.60325 0.24420
 O94 O 0.69844 0.59892 0.24504
 O95 O 0.59710 0.68976 0.24303
 O96 O 0.65814 0.65275 0.18548
 C97 C 0.66939 0.66612 0.14656
 O98 O 0.79181 0.79903 0.12573
 O99 O 0.68684 0.90083 0.25573
 O100 O 0.69846 0.80708 0.14053
 O101 O 0.65382 0.85228 0.19374
 O102 O 0.81019 0.90520 0.25823
 O103 O 0.84959 0.86197 0.19505
 C104 C 0.66474 0.84256 0.15399
 H105 H 0.75159 0.85247 0.30842
 H106 H 0.85596 0.76023 0.19169
 H107 H 0.64551 0.75203 0.19279
 H108 H 0.75346 0.64867 0.30242
 H109 H 0.92544 0.84610 0.25704
 H110 H 0.92555 0.65960 0.24496
 H111 H 0.85620 0.58972 0.24280
 H112 H 0.66368 0.58114 0.23703
 H113 H 0.84612 0.92109 0.26564
 H114 H 0.64872 0.91402 0.25783
 H115 H 0.58040 0.84472 0.25072
 H116 H 0.58177 0.65473 0.23501
 H117 H 0.87974 0.88655 0.20261
 H118 H 0.77806 0.78699 0.09724
 H119 H 0.72735 0.71514 0.39949
 H120 H 0.62346 0.61963 0.29475
 Zr121 Zr 0.75320 0.24749 -0.32540
 O122 O 0.70929 0.28819 -0.37418
 O123 O 0.80717 0.20031 -0.36146
 O124 O 0.80485 0.29819 -0.36102
 O125 O 0.65306 0.15308 -0.30885
 O126 O 0.84938 0.34695 -0.30984
 O127 O 0.70135 0.19682 -0.36089
 O128 O 0.85910 0.15965 -0.30984
 O129 O 0.82557 0.25097 -0.28935
 O130 O 0.75545 0.17833 -0.28821
 O131 O 0.74736 0.31769 -0.28915
 O132 O 0.68028 0.24786 -0.28880
 Zr133 Zr 0.75150 0.25161 -0.17474
 Zr134 Zr 0.81816 0.31875 -0.25111
 Zr135 Zr 0.68570 0.18021 -0.24962
 Zr136 Zr 0.82572 0.18339 -0.25054
 O137 O 0.59917 0.18379 -0.24781
 O138 O 0.91107 0.19890 -0.24868
 O139 O 0.75633 0.18064 -0.21070
 O140 O 0.82334 0.25116 -0.21198
 O141 O 0.74887 0.32124 -0.21152
 O142 O 0.67941 0.24794 -0.21126
 C143 C 0.84617 0.16963 -0.34912
 C144 C 0.66452 0.16379 -0.34843
 C145 C 0.83908 0.33410 -0.34903
 O146 O 0.90470 0.31489 -0.24897
 O147 O 0.84658 0.35207 -0.19356
 O148 O 0.80261 0.30554 -0.14075
 C149 C 0.83671 0.34109 -0.15404
 O150 O 0.63925 0.34276 -0.30641
 Zr151 Zr 0.67835 0.31562 -0.24925
 O152 O 0.70028 0.30040 -0.13797
 O153 O 0.80715 0.40188 -0.25427
 O154 O 0.68825 0.39909 -0.25157
 O155 O 0.59272 0.30238 -0.24531
 O156 O 0.65260 0.34627 -0.18924
 C157 C 0.66542 0.33552 -0.14994
 O158 O 0.79682 0.21303 -0.12568
 O159 O 0.69577 0.09691 -0.25090
 O160 O 0.70284 0.19761 -0.13918
 O161 O 0.65989 0.14739 -0.19050
 O162 O 0.81867 0.09967 -0.25363
 O163 O 0.85661 0.14940 -0.19271
 C164 C 0.67047 0.15990 -0.15115
 H165 H 0.75606 0.14567 -0.30587
 H166 H 0.85645 0.25178 -0.19353
 H167 H 0.64603 0.24643 -0.19327
 H168 H 0.74521 0.34917 -0.30813
 H169 H 0.93025 0.16542 -0.25581
 H170 H 0.91840 0.35182 -0.25064
 H171 H 0.84414 0.41803 -0.25371
 H172 H 0.65280 0.41526 -0.24337
 H173 H 0.85542 0.08534 -0.26048
 H174 H 0.65854 0.08137 -0.25231
 H175 H 0.58584 0.14669 -0.24714
 H176 H 0.57534 0.33663 -0.23776
 H177 H 0.88790 0.12592 -0.19950
 H178 H 0.78296 0.22646 -0.09771
 H179 H 0.72349 0.27577 -0.40236
 H180 H 0.61326 0.37153 -0.29920
 Zr181 Zr 0.24467 0.75186 -0.32491
 O182 O 0.28584 0.70659 -0.37230
 O183 O 0.19288 0.79966 -0.36248
 O184 O 0.19023 0.70188 -0.35849
 O185 O 0.35023 0.84148 -0.31216
 O186 O 0.14353 0.65797 -0.30566
 O187 O 0.29810 0.79859 -0.36245
 O188 O 0.14521 0.84656 -0.31214
 O189 O 0.17271 0.75463 -0.28844
 O190 O 0.24759 0.82280 -0.29015
 O191 O 0.24608 0.68335 -0.28622
 O192 O 0.31814 0.74882 -0.28894
 Zr193 Zr 0.24913 0.75495 -0.17449
 Zr194 Zr 0.17596 0.68858 -0.24768
 Zr195 Zr 0.31780 0.81850 -0.25196
 Zr196 Zr 0.17787 0.82405 -0.25210
 O197 O 0.40391 0.80946 -0.25062
 O198 O 0.09172 0.81391 -0.24923
 O199 O 0.24804 0.82426 -0.21275
 O200 O 0.17663 0.75847 -0.21120
 O201 O 0.24603 0.68345 -0.20872
 O202 O 0.32053 0.75236 -0.21149
 C203 C 0.15638 0.83349 -0.35112
 C204 C 0.33685 0.83038 -0.35132
 C205 C 0.15459 0.66803 -0.34535
 O206 O 0.08984 0.69772 -0.24709
 O207 O 0.14455 0.66346 -0.18792
 O208 O 0.19451 0.70868 -0.13765
 C209 C 0.15623 0.67642 -0.14889
 O210 O 0.35150 0.65108 -0.30413
 Zr211 Zr 0.31604 0.68299 -0.24729
 O212 O 0.29784 0.70382 -0.13675
 O213 O 0.18119 0.60492 -0.24583
 O214 O 0.30074 0.60021 -0.24687
 O215 O 0.40246 0.69091 -0.24452
 O216 O 0.34159 0.65330 -0.18704
 C217 C 0.33043 0.66626 -0.14800
 O218 O 0.20834 0.79915 -0.12621
 O219 O 0.31349 0.90216 -0.25584
 O220 O 0.30139 0.80742 -0.14120
 O221 O 0.34613 0.85304 -0.19416
 O222 O 0.19028 0.90695 -0.25815
 O223 O 0.15041 0.86318 -0.19548
 C224 C 0.33512 0.84303 -0.15446
 H225 H 0.24856 0.85459 -0.30884
 H226 H 0.14389 0.76153 -0.19265
 H227 H 0.35428 0.75268 -0.19376
 H228 H 0.24597 0.65076 -0.30398
 H229 H 0.07464 0.84800 -0.25768
 H230 H 0.07389 0.66159 -0.24663
 H231 H 0.14311 0.59145 -0.24450
 H232 H 0.33541 0.58223 -0.23897
 H233 H 0.15447 0.92309 -0.26553
 H234 H 0.35166 0.91526 -0.25788
 H235 H 0.41969 0.84564 -0.25111
 H236 H 0.41777 0.65581 -0.23669
 H237 H 0.12028 0.88781 -0.20293
 H238 H 0.22208 0.78666 -0.09784
 H239 H 0.27207 0.71833 -0.40086
 H240 H 0.37585 0.62114 -0.29644
 Zr241 Zr 1.25507 1.25083 0.82325
 O242 O 1.21101 1.21001 0.87170
 O243 O 1.30911 1.29724 0.85978
 O244 O 1.30690 1.19961 0.85809
 O245 O 1.15863 1.34922 0.80827
 O246 O 1.34955 1.15030 0.80641
 O247 O 1.20583 1.30260 0.85944
 O248 O 1.36128 1.33789 0.80846
 O249 O 1.32683 1.24561 0.78683
 O250 O 1.25888 1.32020 0.78651
 O251 O 1.24657 1.18112 0.78677
 O252 O 1.18135 1.25304 0.78756
 Zr253 Zr 1.25029 1.24876 0.67318
 Zr254 Zr 1.31654 1.17847 0.74803
 Zr255 Zr 1.18832 1.32088 0.74877
 Zr256 Zr 1.32853 1.31357 0.74864
 O257 O 1.10169 1.31945 0.74830
 O258 O 1.41304 1.29434 0.74801
 O259 O 1.25831 1.31908 0.70946
 O260 O 1.32315 1.24633 0.70939
 O261 O 1.24623 1.17889 0.70947
 O262 O 1.17898 1.25378 0.71015
 C263 C 1.34776 1.32832 0.84773
 C264 C 1.17065 1.33758 0.84756
 C265 C 1.34052 1.16350 0.84572
 O266 O 1.40292 1.17918 0.74287
 O267 O 1.33887 1.14335 0.68931
 O268 O 1.29558 1.19245 0.63756
 C269 C 1.32711 1.15444 0.64999
 O270 O 1.13747 1.15997 0.80505
 Zr271 Zr 1.17667 1.18573 0.74767
 O272 O 1.19716 1.20231 0.63623
 O273 O 1.30364 1.09569 0.75261
 O274 O 1.18386 1.10200 0.75010
 O275 O 1.09135 1.20065 0.74351
 O276 O 1.15050 1.15561 0.68745
 C277 C 1.16285 1.16681 0.64817
 O278 O 1.29716 1.28675 0.62489
 O279 O 1.20078 1.40389 0.74994
 O280 O 1.20248 1.30396 0.63834
 O281 O 1.16191 1.35466 0.69030
 O282 O 1.32483 1.39754 0.75073
 O283 O 1.36124 1.34639 0.69111
 C284 C 1.17127 1.34212 0.65087
 H285 H 1.26064 1.35288 0.80409
 H286 H 1.35557 1.24450 0.69036
 H287 H 1.14532 1.25627 0.69244
 H288 H 1.24404 1.14963 0.80571
 H289 H 1.43355 1.32684 0.75589
 H290 H 1.41512 1.14175 0.74423
 H291 H 1.34011 1.07864 0.75067
 H292 H 1.14781 1.08693 0.74197
 H293 H 1.36209 1.41065 0.75766
 H294 H 1.16407 1.42046 0.75178
 H295 H 1.08935 1.35687 0.74782
 H296 H 1.07330 1.16672 0.73588
 H297 H 1.39454 1.36715 0.69804
 H298 H 1.28246 1.27484 0.59668
 H299 H 1.22571 1.22186 0.89993
 H300 H 1.11046 1.13198 0.79801
 Zr301 Zr 0.74970 0.74703 0.82687
 O302 O 0.79438 0.78687 0.87563
 O303 O 0.69464 0.70115 0.86271
 O304 O 0.69813 0.79862 0.86201
 O305 O 0.84598 0.64824 0.81122
 O306 O 0.65522 0.84825 0.81042
 O307 O 0.79903 0.69403 0.86286
 O308 O 0.64217 0.66162 0.81083
 O309 O 0.67788 0.75255 0.79017
 O310 O 0.74582 0.67804 0.78956
 O311 O 0.75771 0.81710 0.79059
 O312 O 0.82314 0.74532 0.79093
 Zr313 Zr 0.75340 0.75077 0.67653
 Zr314 Zr 0.68747 0.82014 0.75180
 Zr315 Zr 0.81623 0.67775 0.75170
 Zr316 Zr 0.67610 0.68496 0.75152
 O317 O 0.90284 0.67937 0.75155
 O318 O 0.59139 0.70337 0.74965
 O319 O 0.74603 0.67997 0.71234
 O320 O 0.68087 0.75259 0.71283
 O321 O 0.75751 0.82042 0.71311
 O322 O 0.82495 0.74540 0.71351
 C323 C 0.65529 0.67112 0.85017
 C324 C 0.83419 0.65900 0.85076
 C325 C 0.66438 0.83496 0.84978
 O326 O 0.60096 0.81913 0.74786
 O327 O 0.66265 0.85433 0.69302
 O328 O 0.70623 0.80604 0.64112
 C329 C 0.67357 0.84306 0.65358
 O330 O 0.86668 0.83860 0.80892
 Zr331 Zr 0.82733 0.81311 0.75138
 O332 O 0.80595 0.79806 0.63989
 O333 O 0.70063 0.90290 0.75581
 O334 O 0.81997 0.89680 0.75416
 O335 O 0.91267 0.79832 0.74740
 O336 O 0.85360 0.84366 0.69133
 C337 C 0.84083 0.83302 0.65197
 O338 O 0.70678 0.71249 0.62806
 O339 O 0.80380 0.59473 0.75197
 O340 O 0.80123 0.69656 0.64109
 O341 O 0.84250 0.64515 0.69247
 O342 O 0.68000 0.60103 0.75433
 O343 O 0.64445 0.65190 0.69360
 C344 C 0.83270 0.65831 0.65307
 H345 H 0.74389 0.64528 0.80705
 H346 H 0.64821 0.75421 0.69393
 H347 H 0.85852 0.74325 0.69579
 H348 H 0.76036 0.84847 0.80964
 H349 H 0.57103 0.67060 0.75696
 H350 H 0.58864 0.85654 0.74904
 H351 H 0.66411 0.91993 0.75415
 H352 H 0.85593 0.91201 0.74609
 H353 H 0.64268 0.58791 0.76090
 H354 H 0.84056 0.57820 0.75342
 H355 H 0.91520 0.64199 0.75050
 H356 H 0.93069 0.83232 0.74002
 H357 H 0.61166 0.63030 0.70018
 H358 H 0.72096 0.72484 0.59985
 H359 H 0.77958 0.77484 0.90373
 H360 H 0.89358 0.86672 0.80204
 Zr361 Zr 1.25017 0.74602 0.17291
 O362 O 1.20505 0.78542 0.12416
 O363 O 1.30579 0.70080 0.13714
 O364 O 1.30139 0.79804 0.13785
 O365 O 1.15513 0.64587 0.18828
 O366 O 1.34398 0.84786 0.18949
 O367 O 1.20186 0.69216 0.13678
 O368 O 1.35835 0.66147 0.18908
 O369 O 1.32188 0.75209 0.20972
 O370 O 1.25452 0.67707 0.21025
 O371 O 1.24165 0.81603 0.20919
 O372 O 1.17662 0.74383 0.20869
 Zr373 Zr 1.24617 0.74969 0.32320
 Zr374 Zr 1.31181 0.81959 0.24809
 Zr375 Zr 1.18395 0.67626 0.24790
 Zr376 Zr 1.32410 0.68449 0.24837
 O377 O 1.09734 0.67748 0.24748
 O378 O 1.40866 0.70358 0.25036
 O379 O 1.25405 0.67897 0.28739
 O380 O 1.31880 0.75205 0.28706
 O381 O 1.24167 0.81934 0.28663
 O382 O 1.17472 0.74386 0.28611
 C383 C 1.34530 0.67100 0.14972
 C384 C 1.16720 0.65653 0.14875
 C385 C 1.33493 0.83454 0.15013
 O386 O 1.39831 0.81923 0.25216
 O387 O 1.33624 0.85394 0.30697
 O388 O 1.29292 0.80518 0.35876
 C389 C 1.32530 0.84252 0.34641
 O390 O 1.13238 0.83659 0.19071
 Zr391 Zr 1.17196 0.81159 0.24829
 O392 O 1.19356 0.79685 0.35984
 O393 O 1.29807 0.90225 0.24401
 O394 O 1.17868 0.89532 0.24512
 O395 O 1.08672 0.79636 0.25259
 O396 O 1.14591 0.84240 0.30838
 C397 C 1.15880 0.83191 0.34777
 O398 O 1.29285 0.71145 0.37166
 O399 O 1.19687 0.59332 0.24812
 O400 O 1.19838 0.69537 0.35853
 O401 O 1.15745 0.64377 0.30711
 O402 O 1.32096 0.60053 0.24556
 O403 O 1.35574 0.65156 0.30635
 C404 C 1.16704 0.65706 0.34650
 H405 H 1.25686 0.64431 0.19283
 H406 H 1.35140 0.75389 0.30602
 H407 H 1.14113 0.74160 0.30380
 H408 H 1.23883 0.84738 0.19011
 H409 H 1.42929 0.67098 0.24308
 H410 H 1.41035 0.85673 0.25100
 H411 H 1.33446 0.91953 0.24573
 H412 H 1.14263 0.91029 0.25322
 H413 H 1.35841 0.58776 0.23907
 H414 H 1.16022 0.57653 0.24658
 H415 H 1.08516 0.64004 0.24865
 H416 H 1.06858 0.83029 0.25996
 H417 H 1.38887 0.63042 0.29987
 H418 H 1.27861 0.72370 0.39986
 H419 H 1.22002 0.77359 0.09608
 H420 H 1.10509 0.86436 0.19754
 Zr421 Zr 0.74434 1.25002 0.17734
 O422 O 0.78798 1.20900 0.12880
 O423 O 0.69065 1.29698 0.14082
 O424 O 0.69223 1.19912 0.14247
 O425 O 0.84188 1.34743 0.19249
 O426 O 0.64933 1.14986 0.19410
 O427 O 0.79433 1.30129 0.14125
 O428 O 0.63876 1.33785 0.19215
 O429 O 0.67253 1.24511 0.21375
 O430 O 0.74105 1.31935 0.21412
 O431 O 0.75238 1.18020 0.21381
 O432 O 0.81803 1.25168 0.21310
 Zr433 Zr 0.74909 1.24750 0.32750
 Zr434 Zr 0.68238 1.17784 0.25253
 Zr435 Zr 0.81155 1.31948 0.25194
 Zr436 Zr 0.67132 1.31303 0.25196
 O437 O 0.89818 1.31765 0.25269
 O438 O 0.58667 1.29428 0.25249
 O439 O 0.74153 1.31794 0.29122
 O440 O 0.67625 1.24566 0.29121
 O441 O 0.75268 1.17770 0.29114
 O442 O 0.82042 1.25226 0.29052
 C443 C 0.65219 1.32831 0.15285
 C444 C 0.82994 1.33583 0.15318
 C445 C 0.65848 1.16308 0.15480
 O446 O 0.59600 1.17911 0.25761
 O447 O 0.65965 1.14269 0.31119
 O448 O 0.70344 1.19123 0.36301
 C449 C 0.67156 1.15349 0.35055
 O450 O 0.86114 1.15809 0.19557
 Zr451 Zr 0.82228 1.18427 0.25294
 O452 O 0.80220 1.20083 0.36439
 O453 O 0.69468 1.09498 0.24791
 O454 O 0.81439 1.10059 0.25075
 O455 O 0.90770 1.19886 0.25676
 O456 O 0.84878 1.15422 0.31312
 C457 C 0.83663 1.16545 0.35243
 O458 O 0.70239 1.28547 0.37587
 O459 O 0.79962 1.40255 0.25062
 O460 O 0.79709 1.30254 0.36239
 O461 O 0.83796 1.35313 0.31046
 O462 O 0.67577 1.39697 0.25006
 O463 O 0.63868 1.34586 0.30949
 C464 C 0.82846 1.34063 0.34989
 H465 H 0.73961 1.35205 0.19652
 H466 H 0.64380 1.24397 0.31023
 H467 H 0.85411 1.25460 0.30822
 H468 H 0.75471 1.14872 0.19487
 H469 H 0.56640 1.32692 0.24464
 H470 H 0.58351 1.14177 0.25616
 H471 H 0.65809 1.07815 0.24982
 H472 H 0.85034 1.08528 0.25885
 H473 H 0.63866 1.41040 0.24308
 H474 H 0.83644 1.41891 0.24882
 H475 H 0.91073 1.35501 0.25318
 H476 H 0.92564 1.16488 0.26437
 H477 H 0.60561 1.36692 0.30253
 H478 H 0.71706 1.27342 0.40405
 H479 H 0.77339 1.22106 0.10058
 H480 H 0.88788 1.12987 0.20262
 O481 O 0.43580 1.10249 0.02924
 O482 O 0.56227 0.90006 0.03063
 O483 O 0.39417 0.93975 0.02855
 O484 O 0.60340 1.06246 0.03083
 O485 O 0.46927 0.90961 0.05311
 O486 O 0.52735 1.09135 0.05400
 O487 O 0.59286 0.97327 0.05454
 O488 O 0.40499 1.02935 0.05292
 C489 C 0.41003 1.07770 0.05743
 C490 C 0.58665 0.92518 0.05940
 C491 C 0.41933 0.91475 0.05702
 C492 C 0.57698 1.08594 0.05926
 O493 O 0.56348 1.10251 -0.02894
 O494 O 0.43687 0.90018 -0.03061
 O495 O 0.39580 1.06260 -0.03053
 O496 O 0.60500 0.93978 -0.02844
 O497 O 0.52990 0.90981 -0.05312
 O498 O 0.47187 1.09153 -0.05372
 O499 O 0.59414 1.02937 -0.05264
 O500 O 0.40619 0.97344 -0.05437
 Co501 Co 0.49963 1.08741 0.00014
 Co502 Co 0.49958 0.91436 0.00001
 Co503 Co 0.41012 1.00128 -0.00073
 Co504 Co 0.58901 1.00122 0.00094
 O505 O 0.49958 1.00102 0.00009
 C506 C 0.58925 1.07772 -0.05710
 C507 C 0.41253 0.92539 -0.05936
 C508 C 0.42222 1.08615 -0.05894
 C509 C 0.57986 0.91488 -0.05698
 O510 O 0.93511 0.60252 0.52784
 O511 O 1.06330 0.39949 0.52998
 O512 O 0.89517 0.44024 0.52967
 O513 O 1.10291 0.56225 0.53182
 O514 O 0.97071 0.40968 0.55352
 O515 O 1.02638 0.59166 0.55387
 O516 O 1.09295 0.47274 0.55442
 O517 O 0.90539 0.52966 0.55235
 C518 C 0.91056 0.57786 0.55672
 C519 C 1.08857 0.42436 0.55841
 C520 C 0.92089 0.41511 0.55779
 C521 C 1.07592 0.58639 0.55970
 O522 O 1.06407 0.60239 0.47159
 O523 O 0.93648 0.39898 0.47069
 O524 O 0.89643 0.56162 0.46786
 O525 O 1.10448 0.44032 0.47089
 O526 O 1.02911 0.40948 0.44701
 O527 O 0.97290 0.59111 0.44567
 O528 O 1.09385 0.52933 0.44762
 O529 O 0.90637 0.47188 0.44592
 Co530 Co 0.99963 0.58738 0.49978
 Co531 Co 0.99989 0.41409 0.50027
 Co532 Co 0.91048 0.50095 0.49908
 Co533 Co 1.08890 0.50123 0.50106
 O534 O 0.99972 0.50086 0.50005
 C535 C 1.08866 0.57746 0.44291
 C536 C 0.91098 0.42350 0.44218
 C537 C 0.92343 0.58538 0.43974
 C538 C 1.07892 0.41512 0.44274
 O539 O 1.02671 0.45057 0.08597
 O540 O 1.06884 0.55881 -0.05710
 O541 O 1.04227 0.39421 -0.04678
 O542 O 1.07313 0.57784 0.02273
 O543 O 1.08317 0.46599 -0.06045
 O544 O 1.03542 0.54745 0.08107
 O545 O 1.02926 0.63184 -0.03576
 O546 O 1.06136 0.40226 0.03317
 C547 C 1.06210 0.41771 0.07158
 C548 C 1.06176 0.60810 -0.06272
 C549 C 1.08133 0.41754 -0.06350
 C550 C 1.07413 0.57193 0.06289
 O551 O 0.92746 0.55263 0.05429
 O552 O 0.97476 0.44928 -0.08568
 O553 O 0.95948 0.39207 0.04760
 O554 O 0.93711 0.58458 -0.02630
 O555 O 0.96357 0.54569 -0.08344
 O556 O 0.91750 0.46296 0.05993
 O557 O 0.97947 0.61671 0.04174
 O558 O 0.93925 0.40273 -0.03219
 Co559 Co 0.97859 0.50289 0.06530
 Co560 Co 1.02056 0.50406 -0.06572
 Co561 Co 1.00034 0.40772 0.00040
 Co562 Co 1.00551 0.57673 -0.00340
 O563 O 0.99940 0.49556 0.00097
 C564 C 0.93805 0.59986 0.06024
 C565 C 0.93904 0.41696 -0.07094
 C566 C 0.92020 0.41483 0.06408
 C567 C 0.93060 0.57584 -0.06527
 O568 O 0.56743 0.97223 0.57563
 O569 O 0.56994 1.01956 0.42710
 O570 O 0.56463 0.90442 0.47455
 O571 O 0.56530 1.08579 0.52809
 O572 O 0.52956 0.93172 0.41676
 O573 O 0.52794 1.06014 0.58528
 O574 O 0.54470 1.09374 0.45444
 O575 O 0.54287 0.89777 0.54804
 C576 C 0.57585 0.92421 0.57045
 C577 C 0.57815 1.06759 0.43259
 C578 C 0.56648 0.90697 0.43502
 C579 C 0.56606 1.08384 0.56771
 O580 O 0.42805 1.02029 0.57382
 O581 O 0.43017 0.97215 0.42537
 O582 O 0.43183 0.90547 0.52745
 O583 O 0.43352 1.08650 0.47294
 O584 O 0.47042 1.05988 0.41584
 O585 O 0.46766 0.93242 0.58503
 O586 O 0.45407 1.09425 0.54654
 O587 O 0.45368 0.89778 0.45377
 Co588 Co 0.49783 0.99627 0.57140
 Co589 Co 0.49995 0.99587 0.42975
 Co590 Co 0.49827 0.91014 0.50093
 Co591 Co 0.49935 1.08134 0.50053
 O592 O 0.49884 0.99590 0.50063
 C593 C 0.42022 1.06833 0.56821
 C594 C 0.42141 0.92417 0.43066
 C595 C 0.43043 0.90776 0.56702
 C596 C 0.43267 1.08413 0.43334
 O597 O 1.10140 1.04220 0.45236
 O598 O 0.90100 1.04214 0.54821
 O599 O 0.93324 1.02791 0.41756
 O600 O 1.06915 1.02773 0.58294
 O601 O 0.90739 1.06320 0.47517
 O602 O 1.09560 1.06287 0.52540
 O603 O 0.97833 1.06639 0.57475
 O604 O 1.02388 1.06659 0.42623
 C605 C 1.07340 1.07488 0.43142
 C606 C 0.92884 1.07466 0.56943
 C607 C 0.91057 1.06529 0.43574
 C608 C 1.09161 1.06524 0.56476
 O609 O 1.10363 0.95525 0.54544
 O610 O 0.89896 0.95559 0.45513
 O611 O 1.06514 0.97033 0.41554
 O612 O 0.93721 0.97000 0.58501
 O613 O 0.90853 0.93459 0.52811
 O614 O 1.09371 0.93435 0.47220
 O615 O 1.02743 0.93162 0.57413
 O616 O 0.97521 0.93177 0.42681
 Co617 Co 1.08969 0.99863 0.49898
 Co618 Co 0.91287 0.99887 0.50151
 Co619 Co 0.99954 0.99914 0.42970
 Co620 Co 1.00284 0.99896 0.57109
 O621 O 1.00123 0.99891 0.50034
 C622 C 1.07668 0.92329 0.56787
 C623 C 0.92606 0.92329 0.43325
 C624 C 1.08857 0.93265 0.43282
 C625 C 0.91347 0.93267 0.56748
 O626 O 0.60102 0.54293 -0.04742
 O627 O 0.39948 0.54385 0.04667
 O628 O 0.43322 0.53017 -0.08402
 O629 O 0.56729 0.53013 0.08315
 O630 O 0.40644 0.56471 -0.02630
 O631 O 0.59421 0.56413 0.02524
 O632 O 0.47667 0.56823 0.07353
 O633 O 0.52397 0.56789 -0.07402
 C634 C 0.57342 0.57584 -0.06848
 C635 C 0.42726 0.57642 0.06797
 C636 C 0.40905 0.56681 -0.06573
 C637 C 0.59139 0.56662 0.06461
 O638 O 0.60175 0.45667 0.04642
 O639 O 0.39835 0.45716 -0.04684
 O640 O 0.56516 0.47107 -0.08437
 O641 O 0.43497 0.47178 0.08391
 O642 O 0.40684 0.43631 0.02672
 O643 O 0.59257 0.43546 -0.02701
 O644 O 0.52491 0.43354 0.07398
 O645 O 0.47514 0.43347 -0.07415
 Co646 Co 0.58847 0.49976 -0.00064
 Co647 Co 0.41169 0.50043 0.00001
 Co648 Co 0.49943 0.50066 -0.07089
 Co649 Co 0.50091 0.50089 0.07045
 O650 O 0.50012 0.50039 -0.00025
 C651 C 0.57417 0.42493 0.06867
 C652 C 0.42587 0.42506 -0.06872
 C653 C 0.58899 0.43389 -0.06649
 C654 C 0.41087 0.43469 0.06617
 C655 C 0.35728 1.13039 0.11862
 C656 C 0.38128 1.10575 0.09102
 C657 C 0.86022 0.62903 0.61971
 C658 C 0.88341 0.60538 0.59123
 C659 C 0.63654 0.87306 0.12188
 C660 C 0.61336 0.89761 0.09395
 C661 C 1.14291 0.37206 0.61849
 C662 C 1.11806 0.39653 0.59140
 C663 C 0.64254 1.13017 -0.11810
 C664 C 0.61825 1.10571 -0.09056
 C665 C 1.13930 0.62798 0.37981
 C666 C 1.11593 0.60461 0.40832
 C667 C 0.36313 0.87343 -0.12217
 C668 C 0.38608 0.89791 -0.09409
 C669 C 0.85679 0.37062 0.38230
 C670 C 0.88157 0.39528 0.40932
 C671 C 1.13222 0.37096 0.12384
 C672 C 1.10124 0.39382 0.10000
 C673 C 0.64435 0.87283 0.62142
 C674 C 0.61545 0.89715 0.59677
 C675 C 1.12570 0.65619 -0.11876
 C676 C 1.09627 0.63617 -0.09223
 C677 C 0.64471 1.12171 0.38249
 C678 C 0.61722 1.09558 0.40673
 C679 C 0.87569 0.65256 0.11429
 C680 C 0.90457 0.63088 0.08834
 C681 C 0.35377 1.12268 0.61803
 C682 C 0.38119 1.09650 0.59385
 C683 C 0.86925 0.36940 -0.12319
 C684 C 0.90016 0.39237 -0.09930
 C685 C 0.35406 0.87253 0.37876
 C686 C 0.38240 0.89699 0.40378
 C687 C 1.12507 1.14243 0.38193
 C688 C 1.10048 1.11405 0.40616
 C689 C 0.62527 0.64299 -0.11795
 C690 C 0.60074 0.61475 -0.09368
 C691 C 0.87644 1.14165 0.61893
 C692 C 0.90145 1.11355 0.59475
 C693 C 0.37553 0.64318 0.11781
 C694 C 0.40007 0.61516 0.09339
 C695 C 1.12967 0.85846 0.61903
 C696 C 1.10487 0.88550 0.59384
 C697 C 0.62397 0.35777 0.12030
 C698 C 0.60096 0.38638 0.09509
 C699 C 0.87324 0.85734 0.38328
 C700 C 0.89809 0.88486 0.40796
 C701 C 0.37603 0.35763 -0.11980
 C702 C 0.39906 0.38631 -0.09475
 C703 C 1.14240 0.36608 -0.11937
 C704 C 1.11641 0.38993 -0.09277
 C705 C 0.63287 0.85365 0.38420
 C706 C 0.60458 0.87718 0.40960
 C707 C 0.86321 0.62938 -0.11639
 C708 C 0.89111 0.60442 -0.09115
 C709 C 0.36643 1.13728 0.38173
 C710 C 0.39471 1.11350 0.40718
 C711 C 1.13935 0.62598 0.11567
 C712 C 1.11258 0.60052 0.08991
 C713 C 0.63334 1.13651 0.61898
 C714 C 0.60456 1.11290 0.59372
 C715 C 0.85885 0.36382 0.12014
 C716 C 0.88518 0.38731 0.09350
 C717 C 0.36455 0.85414 0.61837
 C718 C 0.39256 0.87781 0.59273
 C719 C 0.37017 1.13566 -0.12152
 C720 C 0.39448 1.11265 -0.09342
 C721 C 0.87373 0.63619 0.37643
 C722 C 0.89671 0.61225 0.40481
 C723 C 0.62889 1.13530 0.12198
 C724 C 0.60466 1.11234 0.09380
 C725 C 1.12582 0.63846 0.62225
 C726 C 1.10273 0.61407 0.59417
 C727 C 0.63446 0.86314 -0.11749
 C728 C 0.60925 0.88697 -0.09016
 C729 C 1.13240 0.36324 0.38229
 C730 C 1.10776 0.38721 0.40963
 C731 C 0.36478 0.86285 0.11744
 C732 C 0.38996 0.88676 0.09016
 C733 C 0.86792 0.36261 0.61819
 C734 C 0.89226 0.38691 0.59086
 C735 C 1.13770 1.13551 0.61536
 C736 C 1.11696 1.10552 0.59010
 C737 C 0.64339 0.63537 0.11358
 C738 C 0.62014 0.60579 0.08920
 C739 C 1.13382 0.86337 0.38066
 C740 C 1.11347 0.89298 0.40644
 C741 C 0.63915 0.36623 -0.11723
 C742 C 0.61662 0.39519 -0.09210
 C743 C 0.86249 1.13455 0.38522
 C744 C 0.88411 1.10502 0.41042
 C745 C 0.35666 0.63528 -0.11509
 C746 C 0.38009 0.60578 -0.09063
 C747 C 0.86643 0.86405 0.61915
 C748 C 0.88760 0.89335 0.59357
 C749 C 0.36125 0.36701 0.11732
 C750 C 0.38349 0.39598 0.09200
   
