data_POSCAR
  _audit_creation_date              2014-09-24
  _audit_creation_method            'ToBaCCo'
  _symmetry_space_group_name_H-M    'P1'
  _symmetry_Int_Tables_number       1
  _symmetry_cell_setting            triclinic
  loop_
  _symmetry_equiv_pos_as_xyz
 x,y,z
_cell_length_a 34.7186
_cell_length_b 31.9868
_cell_length_c 33.4642
_cell_angle_alpha 90.427100
_cell_angle_beta 89.118300
_cell_angle_gamma 86.645300
loop_
  _atom_site_label
  _atom_site_type_symbol
  _atom_site_fract_x
  _atom_site_fract_y
  _atom_site_fract_z
C1 C 1.26098 0.25661 0.23712
 C2 C 0.75156 -0.25374 0.22755
 C3 C 0.75798 0.24062 -0.27407
 C4 C 1.24854 -0.24854 -0.25812
 C5 C 0.24549 0.25127 0.76736
 C6 C 0.75344 0.75439 0.77086
 C7 C 0.74150 0.25303 0.26961
 C8 C 0.25064 0.74627 0.26465
 N9 N 1.07364 0.04610 0.03795
 N10 N 1.10634 0.06417 0.04314
 N11 N 1.04036 -0.02495 0.08704
 N12 N 1.04749 -0.04411 0.12113
 N13 N 1.06568 -0.03796 0.05947
 N14 N 1.09046 -0.06672 0.07407
 N15 N 1.04819 0.05873 0.06565
 N16 N 1.06338 0.08554 0.09034
 C17 C 1.09945 0.08928 0.07535
 C18 C 1.07828 -0.07073 0.11246
 N19 N 0.93044 -0.01425 0.06232
 N20 N 0.90528 -0.04083 0.07465
 N21 N 0.96459 0.07306 0.06724
 N22 N 0.95625 0.10536 0.09136
 N23 N 0.93708 0.06968 0.04099
 N24 N 0.90960 0.09949 0.04681
 N25 N 0.95786 -0.01105 0.08850
 N26 N 0.95219 -0.03545 0.11937
 Mn27 Mn 1.00269 0.02416 0.07733
 C28 C 0.91915 -0.05365 0.11037
 C29 C 0.92253 0.12233 0.07739
 N30 N 1.06316 -0.06085 -0.02368
 N31 N 1.09034 -0.09101 -0.02857
 N32 N 1.04308 0.01988 -0.07176
 N33 N 1.05127 0.03992 -0.10483
 N34 N 1.07040 0.02337 -0.04543
 N35 N 1.09776 0.04636 -0.05978
 N36 N 1.03644 -0.06386 -0.05075
 N37 N 1.04537 -0.09583 -0.07513
 Mn38 Mn 1.06842 -0.00737 0.00702
 C39 C 1.07863 -0.11309 -0.06025
 C40 C 1.08533 0.05654 -0.09686
 N41 N 0.93440 0.04597 -0.04254
 N42 N 0.90646 0.06990 -0.05855
 N43 N 0.95327 -0.05030 -0.04794
 N44 N 0.94144 -0.08268 -0.06812
 N45 N 0.92762 -0.03794 -0.02044
 N46 N 0.89786 -0.06170 -0.02104
 N47 N 0.95999 0.03325 -0.07006
 N48 N 0.94979 0.04793 -0.10530
 Mn49 Mn 0.93215 0.01598 0.01011
 Mn50 Mn 0.99819 -0.01534 -0.06036
 Cl51 Cl 1.00040 0.00456 0.00849
 C52 C 0.91689 0.07150 -0.09760
 C53 C 0.90705 -0.08985 -0.05055
 N54 N 1.07036 0.54504 0.53482
 N55 N 1.10013 0.56868 0.53676
 N56 N 1.03500 0.47322 0.58100
 N57 N 1.04088 0.45396 0.61519
 N58 N 1.06135 0.46066 0.55429
 N59 N 1.08610 0.43257 0.56997
 N60 N 1.04401 0.55702 0.56169
 N61 N 1.05535 0.58877 0.58302
 C62 C 1.09018 0.59610 0.56666
 C63 C 1.07248 0.42826 0.60787
 N64 N 0.92640 0.48493 0.55383
 N65 N 0.90281 0.45556 0.56357
 N66 N 0.96161 0.57227 0.56141
 N67 N 0.95503 0.60567 0.58444
 N68 N 0.93414 0.56968 0.53516
 N69 N 0.90798 0.60102 0.54001
 N70 N 0.95332 0.48756 0.58064
 N71 N 0.94912 0.45985 0.60907
 Mn72 Mn 0.99841 0.52275 0.57141
 C73 C 0.91726 0.44047 0.59835
 C74 C 0.92208 0.62394 0.56996
 N75 N 1.06126 0.44000 0.46926
 N76 N 1.09076 0.41380 0.45935
 N77 N 1.04375 0.52377 0.42384
 N78 N 1.05593 0.54234 0.39097
 N79 N 1.07022 0.52427 0.45147
 N80 N 1.10075 0.54278 0.43833
 N81 N 1.03441 0.43874 0.44194
 N82 N 1.04534 0.41143 0.41368
 Mn83 Mn 1.06594 0.49229 0.50254
 C84 C 1.08008 0.39512 0.42525
 C85 C 1.09146 0.55458 0.40089
 N86 N 0.93349 0.54920 0.45131
 N87 N 0.90580 0.57356 0.43557
 N88 N 0.95119 0.45359 0.44212
 N89 N 0.93915 0.42223 0.42044
 N90 N 0.92547 0.46471 0.46999
 N91 N 0.89566 0.44114 0.46826
 N92 N 0.95985 0.53793 0.42401
 N93 N 0.95022 0.55386 0.38909
 Mn94 Mn 0.92959 0.51717 0.50262
 Mn95 Mn 0.99730 0.48855 0.43270
 Cl96 Cl 0.99786 0.50513 0.50216
 C97 C 0.91703 0.57682 0.39695
 C98 C 0.90463 0.41442 0.43759
 N99 N 0.57136 0.01991 0.54125
 N100 N 0.60073 0.04410 0.54222
 N101 N 0.52850 -0.05364 0.57660
 N102 N 0.53649 -0.07341 0.61010
 N103 N 0.55446 -0.06454 0.54872
 N104 N 0.58070 -0.09177 0.56334
 N105 N 0.54599 0.03075 0.56948
 N106 N 0.55773 0.06251 0.59077
 C107 C 0.59201 0.07047 0.57324
 C108 C 0.56845 -0.09793 0.60134
 N109 N 0.42110 -0.02388 0.55047
 N110 N 0.38845 -0.03920 0.56201
 N111 N 0.46452 0.05509 0.57128
 N112 N 0.45986 0.08438 0.59924
 N113 N 0.43791 0.06035 0.54400
 N114 N 0.41468 0.09338 0.55264
 N115 N 0.44722 -0.02926 0.57823
 N116 N 0.43284 -0.04870 0.60941
 Mn117 Mn 0.49663 0.00078 0.57415
 C118 C 0.39619 -0.05511 0.59851
 C119 C 0.42944 0.10873 0.58644
 N120 N 0.55330 -0.07127 0.46101
 N121 N 0.58000 -0.09913 0.44705
 N122 N 0.54403 0.02015 0.42876
 N123 N 0.55744 0.04379 0.39988
 N124 N 0.57043 0.01294 0.45593
 N125 N 0.60231 0.03110 0.44630
 N126 N 0.52625 -0.06465 0.43419
 N127 N 0.53382 -0.08836 0.40241
 Mn128 Mn 0.56249 -0.02604 0.50182
 C129 C 0.56689 -0.11042 0.41088
 C130 C 0.59389 0.05060 0.41156
 N131 N 0.43668 0.05371 0.45884
 N132 N 0.41582 0.08810 0.45014
 N133 N 0.44522 -0.04068 0.43601
 N134 N 0.43386 -0.07189 0.41378
 N135 N 0.41989 -0.03129 0.46467
 N136 N 0.39070 -0.05583 0.46279
 N137 N 0.46219 0.04425 0.43040
 N138 N 0.45902 0.07175 0.40119
 Mn139 Mn 0.42864 0.01470 0.50441
 Mn140 Mn 0.49438 -0.01011 0.43202
 Cl141 Cl 0.49557 -0.00540 0.50311
 C142 C 0.43059 0.09939 0.41453
 C143 C 0.39972 -0.08105 0.43087
 N144 N 0.57345 0.52816 0.03525
 N145 N 0.60286 0.55216 0.03713
 N146 N 0.52754 0.45730 0.07125
 N147 N 0.53167 0.43814 0.10581
 N148 N 0.55535 0.44437 0.04617
 N149 N 0.57879 0.41597 0.06338
 N150 N 0.54611 0.54092 0.06084
 N151 N 0.55651 0.57394 0.08119
 C152 C 0.59206 0.58052 0.06584
 C153 C 0.56309 0.41165 0.10033
 N154 N 0.42304 0.48668 0.03281
 N155 N 0.39377 0.46274 0.03674
 N156 N 0.46471 0.56590 0.05463
 N157 N 0.45569 0.59461 0.08240
 N158 N 0.44106 0.57031 0.02441
 N159 N 0.41560 0.60208 0.03115
 N160 N 0.44673 0.48157 0.06280
 N161 N 0.43419 0.45350 0.08795
 Mn162 Mn 0.49626 0.51150 0.06273
 C163 C 0.40090 0.44234 0.07121
 C164 C 0.42585 0.61779 0.06680
 N165 N 0.56161 0.43134 -0.03988
 N166 N 0.58941 0.40265 -0.04883
 N167 N 0.55563 0.51993 -0.07904
 N168 N 0.57077 0.54196 -0.10796
 N169 N 0.57985 0.51476 -0.04950
 N170 N 0.61229 0.53258 -0.05767
 N171 N 0.53773 0.43573 -0.06994
 N172 N 0.54901 0.40979 -0.09929
 Mn173 Mn 0.56767 0.47952 -0.00187
 C174 C 0.58064 0.38831 -0.08548
 C175 C 0.60607 0.54977 -0.09396
 N176 N 0.44770 0.55760 -0.06124
 N177 N 0.42218 0.58341 -0.07838
 N178 N 0.45695 0.46052 -0.07613
 N179 N 0.44769 0.42690 -0.09604
 N180 N 0.42868 0.47392 -0.05197
 N181 N 0.39899 0.45021 -0.05531
 N182 N 0.47443 0.54432 -0.08744
 N183 N 0.46680 0.56063 -0.12292
 Mn184 Mn 0.43503 0.52229 -0.01401
 Mn185 Mn 0.50620 0.49015 -0.07831
 Cl186 Cl 0.50133 0.50091 -0.00788
 C187 C 0.43475 0.58605 -0.11657
 C188 C 0.41138 0.42109 -0.08285
 C189 C 1.18771 0.18745 0.18641
 C190 C 1.21281 0.16176 0.16396
 C191 C 1.25251 0.16238 0.16664
 C192 C 1.26713 0.19147 0.19283
 C193 C 1.24231 0.21954 0.21630
 C194 C 1.20163 0.21679 0.21292
 O195 O 1.15094 0.18302 0.17755
 C196 C 1.15310 0.15407 0.14875
 C197 C 1.19041 0.14041 0.13923
 C198 C 1.19982 0.11215 0.10847
 C199 C 1.16944 0.09666 0.08694
 C200 C 1.13050 0.10918 0.09670
 C201 C 1.12221 0.13849 0.12806
 H202 H 1.27162 0.14223 0.14811
 H203 H 1.29813 0.19369 0.19358
 H204 H 1.18112 0.23854 0.22780
 H205 H 1.22951 0.10248 0.10119
 H206 H 1.17636 0.07420 0.06316
 H207 H 1.09281 0.14885 0.13594
 C208 C 1.17322 0.69896 0.67664
 C209 C 1.19320 0.69641 0.64084
 C210 C 1.22988 0.71054 0.63590
 C211 C 1.24659 0.72843 0.66914
 C212 C 1.22649 0.73290 0.70665
 C213 C 1.18922 0.71692 0.71024
 O214 O 1.13985 0.68075 0.67548
 C215 C 1.13890 0.66650 0.63815
 C216 C 1.17090 0.67532 0.61576
 C217 C 1.17717 0.66108 0.57673
 C218 C 1.14953 0.63611 0.56023
 C219 C 1.11650 0.62610 0.58286
 C220 C 1.11078 0.64220 0.62214
 H221 H 1.24546 0.70707 0.60770
 H222 H 1.27565 0.73869 0.66587
 H223 H 1.17367 0.71644 0.73841
 H224 H 1.20290 0.66800 0.55997
 H225 H 1.15427 0.62383 0.53020
 H226 H 1.08627 0.63432 0.64039
 C227 C 0.67685 0.18854 0.66752
 C228 C 0.69375 0.18399 0.63036
 C229 C 0.72975 0.19785 0.62136
 C230 C 0.74944 0.21700 0.65191
 C231 C 0.73279 0.22423 0.69114
 C232 C 0.69545 0.20893 0.69827
 O233 O 0.64446 0.16844 0.67099
 C234 C 0.64113 0.15083 0.63515
 C235 C 0.67060 0.15967 0.60924
 C236 C 0.67490 0.14210 0.57127
 C237 C 0.64793 0.11380 0.55953
 C238 C 0.61748 0.10340 0.58573
 C239 C 0.61361 0.12281 0.62393
 H240 H 0.74337 0.19176 0.59241
 H241 H 0.77903 0.22312 0.64498
 H242 H 0.68149 0.21010 0.72705
 H243 H 0.69877 0.14910 0.55173
 H244 H 0.65131 0.09933 0.53023
 H245 H 0.59115 0.11484 0.64484
 C246 C 0.67480 0.69597 0.16391
 C247 C 0.69365 0.69103 0.12771
 C248 C 0.73063 0.70376 0.12097
 C249 C 0.74901 0.72251 0.15281
 C250 C 0.72994 0.73004 0.19062
 C251 C 0.69218 0.71541 0.19578
 O252 O 0.64164 0.67724 0.16544
 C253 C 0.63966 0.66001 0.12937
 C254 C 0.67080 0.66770 0.10516
 C255 C 0.67648 0.64991 0.06741
 C256 C 0.64925 0.62254 0.05426
 C257 C 0.61722 0.61335 0.07888
 C258 C 0.61190 0.63310 0.11669
 H259 H 0.74572 0.69733 0.09284
 H260 H 0.77914 0.72826 0.14850
 H261 H 0.67734 0.71707 0.22444
 H262 H 0.70160 0.65586 0.04924
 H263 H 0.65373 0.60763 0.02526
 H264 H 0.58827 0.62588 0.13646
 C265 C 0.81488 -0.17454 0.17323
 C266 C 0.84505 -0.17246 0.19889
 C267 C 0.84747 -0.19535 0.23369
 C268 C 0.81767 -0.22168 0.24238
 C269 C 0.78585 -0.22596 0.21612
 C270 C 0.78496 -0.20045 0.18120
 O271 O 0.81753 -0.14943 0.14207
 C272 C 0.85023 -0.13117 0.14835
 C273 C 0.86819 -0.14411 0.18281
 C274 C 0.90258 -0.12857 0.19544
 C275 C 0.91921 -0.09851 0.17139
 C276 C 0.90125 -0.08481 0.13561
 C277 C 0.86623 -0.10145 0.12401
 H278 H 0.87126 -0.19261 0.25389
 H279 H 0.82030 -0.23773 0.27022
 H280 H 0.76138 -0.19987 0.16049
 H281 H 0.91609 -0.13918 0.22278
 H282 H 0.94605 -0.08606 0.18058
 H283 H 0.85180 -0.09158 0.09691
 C284 C 0.81771 0.31621 0.66415
 C285 C 0.85356 0.30981 0.68040
 C286 C 0.86156 0.28045 0.70984
 C287 C 0.83128 0.25695 0.72357
 C288 C 0.79317 0.26302 0.70805
 C289 C 0.78710 0.29349 0.67739
 O290 O 0.81577 0.34678 0.63752
 C291 C 0.85125 0.36008 0.63713
 C292 C 0.87544 0.33860 0.66304
 C293 C 0.91326 0.34883 0.66910
 C294 C 0.92671 0.38259 0.64754
 C295 C 0.90243 0.40498 0.62033
 C296 C 0.86422 0.39331 0.61486
 H297 H 0.89005 0.27629 0.72241
 H298 H 0.83810 0.23496 0.74704
 H299 H 0.75864 0.30063 0.66555
 H300 H 0.93157 0.33184 0.69008
 H301 H 0.95606 0.39118 0.65196
 H302 H 0.84492 0.41021 0.59471
 C303 C 0.31266 -0.15767 0.71107
 C304 C 0.28701 -0.13591 0.68704
 C305 C 0.24890 -0.14520 0.68383
 C306 C 0.23719 -0.18024 0.70402
 C307 C 0.26344 -0.20634 0.72688
 C308 C 0.30069 -0.19146 0.73383
 O309 O 0.34870 -0.14616 0.70600
 C310 C 0.34538 -0.11705 0.67773
 C311 C 0.30796 -0.10951 0.66571
 C312 C 0.29763 -0.08362 0.63412
 C313 C 0.32717 -0.06508 0.61331
 C314 C 0.36629 -0.07277 0.62407
 C315 C 0.37556 -0.09844 0.65742
 H316 H 0.22933 -0.12762 0.66447
 H317 H 0.20787 -0.18850 0.69934
 H318 H 0.31998 -0.20514 0.75562
 H319 H 0.26795 -0.07904 0.62489
 H320 H 0.31948 -0.04544 0.58811
 H321 H 0.40523 -0.10549 0.66575
 C322 C 0.33011 0.31594 0.16867
 C323 C 0.30462 0.32952 0.13993
 C324 C 0.26662 0.31881 0.13933
 C325 C 0.25388 0.29410 0.17046
 C326 C 0.27905 0.28003 0.20169
 C327 C 0.31852 0.28978 0.19919
 O328 O 0.36405 0.33290 0.16545
 C329 C 0.35961 0.35784 0.13410
 C330 C 0.32381 0.35645 0.11729
 C331 C 0.31197 0.38128 0.08546
 C332 C 0.33810 0.40894 0.07029
 C333 C 0.37502 0.41171 0.08746
 C334 C 0.38608 0.38554 0.11970
 H335 H 0.24696 0.33059 0.11669
 H336 H 0.22368 0.28740 0.17132
 H337 H 0.33964 0.27907 0.22066
 H338 H 0.28343 0.37985 0.07312
 H339 H 0.32917 0.42879 0.04564
 H340 H 0.41397 0.38718 0.13347
 C341 C 0.80558 0.17269 -0.19140
 C342 C 0.81835 0.13817 -0.21350
 C343 C 0.80927 0.13275 -0.25323
 C344 C 0.78701 0.16474 -0.27154
 C345 C 0.77381 0.20196 -0.25031
 C346 C 0.78315 0.20511 -0.20898
 O347 O 0.82002 0.17287 -0.15479
 C348 C 0.84258 0.13781 -0.15409
 C349 C 0.84273 0.11574 -0.18951
 C350 C 0.86674 0.08019 -0.19695
 C351 C 0.89144 0.06647 -0.16645
 C352 C 0.89134 0.08798 -0.12923
 C353 C 0.86632 0.12406 -0.12282
 H354 H 0.82041 0.10559 -0.27015
 H355 H 0.78223 0.16093 -0.30307
 H356 H 0.77629 0.23338 -0.19177
 H357 H 0.86693 0.06398 -0.22546
 H358 H 0.91034 0.03876 -0.17168
 H359 H 0.86618 0.14138 -0.09489
 C360 C 0.80166 0.67633 0.30789
 C361 C 0.81468 0.64270 0.28483
 C362 C 0.80468 0.63793 0.24537
 C363 C 0.78152 0.66994 0.22826
 C364 C 0.76847 0.70688 0.25028
 C365 C 0.77833 0.70864 0.29155
 O366 O 0.81711 0.67632 0.34397
 C367 C 0.84064 0.64204 0.34329
 C368 C 0.84040 0.62062 0.30754
 C369 C 0.86539 0.58617 0.29866
 C370 C 0.89136 0.57280 0.32816
 C371 C 0.89144 0.59358 0.36572
 C372 C 0.86560 0.62861 0.37350
 H373 H 0.81576 0.61127 0.22770
 H374 H 0.77590 0.66584 0.19703
 H375 H 0.77205 0.73647 0.30956
 H376 H 0.86525 0.57052 0.26988
 H377 H 0.91088 0.54577 0.32203
 H378 H 0.86555 0.64527 0.40179
 C379 C 0.32595 0.18686 0.30566
 C380 C 0.34644 0.21645 0.32454
 C381 C 0.33965 0.25906 0.31813
 C382 C 0.31147 0.27144 0.29024
 C383 C 0.29099 0.24141 0.26849
 C384 C 0.29749 0.19842 0.27848
 O385 O 0.33627 0.14797 0.31606
 C386 C 0.36406 0.15304 0.34201
 C387 C 0.37140 0.19435 0.34852
 C388 C 0.39891 0.20652 0.37547
 C389 C 0.41932 0.17477 0.39670
 C390 C 0.41213 0.13219 0.39004
 C391 C 0.38431 0.12117 0.36227
 H392 H 0.35562 0.28198 0.33382
 H393 H 0.30617 0.30457 0.28475
 H394 H 0.28115 0.17395 0.26597
 H395 H 0.40402 0.23919 0.38041
 H396 H 0.44026 0.18321 0.41856
 H397 H 0.37791 0.08879 0.35745
 C398 C 0.33840 0.67842 -0.23069
 C399 C 0.31940 0.64530 -0.21589
 C400 C 0.27985 0.64324 -0.21698
 C401 C 0.25867 0.67764 -0.23217
 C402 C 0.27670 0.71352 -0.24739
 C403 C 0.31787 0.71170 -0.24949
 O404 O 0.37540 0.67711 -0.22041
 C405 C 0.37940 0.64256 -0.19844
 C406 C 0.34593 0.62166 -0.19576
 C407 C 0.34167 0.58726 -0.17147
 C408 C 0.37277 0.57444 -0.14778
 C409 C 0.40700 0.59643 -0.14814
 C410 C 0.41104 0.63028 -0.17468
 H411 H 0.26547 0.61742 -0.20384
 H412 H 0.22760 0.67717 -0.23008
 H413 H 0.33413 0.73463 -0.26435
 H414 H 0.31469 0.57202 -0.16941
 H415 H 0.36951 0.54859 -0.12747
 H416 H 0.43651 0.64825 -0.17448
 C417 C 1.16800 -0.20399 -0.18520
 C418 C 1.18575 -0.21081 -0.14928
 C419 C 1.22300 -0.22823 -0.14633
 C420 C 1.24260 -0.23999 -0.18179
 C421 C 1.22453 -0.23619 -0.21986
 C422 C 1.18675 -0.21625 -0.22107
 O423 O 1.13387 -0.18310 -0.18137
 C424 C 1.13016 -0.17678 -0.14214
 C425 C 1.16111 -0.19344 -0.12124
 C426 C 1.16472 -0.18830 -0.08024
 C427 C 1.13574 -0.16390 -0.06000
 C428 C 1.10411 -0.14507 -0.08092
 C429 C 1.10072 -0.15259 -0.12247
 H430 H 1.23702 -0.23143 -0.11775
 H431 H 1.27232 -0.25170 -0.17927
 H432 H 1.17228 -0.20985 -0.24886
 H433 H 1.18966 -0.20134 -0.06462
 H434 H 1.13877 -0.15823 -0.02828
 H435 H 1.07747 -0.13770 -0.13939
 C436 C 1.18524 0.30065 0.31457
 C437 C 1.18544 0.34268 0.30674
 C438 C 1.20790 0.35912 0.27705
 C439 C 1.23141 0.33120 0.25411
 C440 C 1.23183 0.28687 0.26017
 C441 C 1.20862 0.27188 0.29193
 O442 O 1.16192 0.29224 0.34509
 C443 C 1.14732 0.32997 0.35652
 C444 C 1.16114 0.36171 0.33388
 C445 C 1.15062 0.40374 0.34035
 C446 C 1.12424 0.41367 0.37131
 C447 C 1.10902 0.38178 0.39489
 C448 C 1.12069 0.33922 0.38772
 H449 H 1.20803 0.39254 0.27225
 H450 H 1.25020 0.34523 0.23270
 H451 H 1.20923 0.23886 0.29894
 H452 H 1.16217 0.42800 0.32212
 H453 H 1.11525 0.44627 0.37680
 H454 H 1.10926 0.31449 0.40545
 C455 C 0.67729 -0.20801 0.30757
 C456 C 0.66736 -0.17031 0.29027
 C457 C 0.68168 -0.15850 0.25364
 C458 C 0.70842 -0.18616 0.23429
 C459 C 0.72159 -0.22502 0.25163
 C460 C 0.70333 -0.23678 0.28816
 O461 O 0.65955 -0.21284 0.34270
 C462 C 0.63811 -0.17717 0.34736
 C463 C 0.64176 -0.15050 0.31567
 C464 C 0.62174 -0.11189 0.31315
 C465 C 0.59682 -0.09995 0.34480
 C466 C 0.59273 -0.12625 0.37835
 C467 C 0.61382 -0.16545 0.37994
 H468 H 0.67238 -0.12902 0.24017
 H469 H 0.71785 -0.17698 0.20514
 H470 H 0.70785 -0.26752 0.30088
 H471 H 0.62518 -0.09165 0.28772
 H472 H 0.58113 -0.06970 0.34352
 H473 H 0.61111 -0.18599 0.40527
 C474 C 0.68418 0.28881 -0.19463
 C475 C 0.69228 0.33015 -0.19606
 C476 C 0.72086 0.34492 -0.22021
 C477 C 0.74184 0.31617 -0.24471
 C478 C 0.73399 0.27257 -0.24610
 C479 C 0.70514 0.25914 -0.21875
 O480 O 0.65585 0.28174 -0.16861
 C481 C 0.64609 0.31972 -0.15362
 C482 C 0.66793 0.35020 -0.16950
 C483 C 0.66341 0.39213 -0.15848
 C484 C 0.63477 0.40343 -0.13005
 C485 C 0.61132 0.37303 -0.11344
 C486 C 0.61696 0.33041 -0.12515
 H487 H 0.72723 0.37766 -0.21988
 H488 H 0.76476 0.32939 -0.26135
 H489 H 0.70014 0.22640 -0.21483
 H490 H 0.68113 0.41538 -0.17151
 H491 H 0.63039 0.43607 -0.12123
 H492 H 0.59918 0.30679 -0.11288
 C493 C 1.18967 0.17200 -0.17062
 C494 C 1.16971 0.15346 -0.20040
 C495 C 1.17380 0.16375 -0.24037
 C496 C 1.19948 0.19446 -0.25008
 C497 C 1.22095 0.21446 -0.22012
 C498 C 1.21509 0.20299 -0.17950
 O499 O 1.18084 0.15841 -0.13438
 C500 C 1.15466 0.13075 -0.14151
 C501 C 1.14663 0.12680 -0.18143
 C502 C 1.11893 0.10092 -0.19548
 C503 C 1.09874 0.07807 -0.16721
 C504 C 1.10688 0.08108 -0.12590
 C505 C 1.13540 0.10774 -0.11292
 H506 H 1.15740 0.14907 -0.26327
 H507 H 1.20236 0.20329 -0.28111
 H508 H 1.22854 0.21843 -0.15501
 H509 H 1.11282 0.09869 -0.22701
 H510 H 1.07699 0.05781 -0.17757
 H511 H 1.14188 0.11106 -0.08155
 C512 C 1.17710 0.66892 0.30115
 C513 C 1.20199 0.63779 0.31526
 C514 C 1.24172 0.63955 0.31298
 C515 C 1.25666 0.67483 0.29546
 C516 C 1.23233 0.70791 0.27883
 C517 C 1.19133 0.70418 0.28240
 O518 O 1.14027 0.66274 0.31009
 C519 C 1.14217 0.62685 0.33020
 C520 C 1.17943 0.61038 0.33387
 C521 C 1.18890 0.57476 0.35591
 C522 C 1.15891 0.55570 0.37582
 C523 C 1.12019 0.57220 0.37355
 C524 C 1.11148 0.60789 0.34961
 H525 H 1.26069 0.61522 0.32562
 H526 H 1.28772 0.67682 0.29511
 H527 H 1.17068 0.72860 0.27310
 H528 H 1.21853 0.56281 0.35878
 H529 H 1.16602 0.52862 0.39413
 H530 H 1.08237 0.62188 0.34832
 C531 C 0.67380 0.17054 0.31203
 C532 C 0.70061 0.14412 0.33022
 C533 C 0.73989 0.14964 0.32838
 C534 C 0.75222 0.18412 0.30728
 C535 C 0.72563 0.21267 0.28777
 C536 C 0.68548 0.20513 0.29035
 O537 O 0.63763 0.16067 0.31960
 C538 C 0.64190 0.12737 0.34317
 C539 C 0.67998 0.11620 0.35049
 C540 C 0.69145 0.08401 0.37605
 C541 C 0.66255 0.06249 0.39519
 C542 C 0.62290 0.07306 0.38846
 C543 C 0.61239 0.10575 0.36158
 H544 H 0.76034 0.12872 0.34358
 H545 H 0.78278 0.18929 0.30669
 H546 H 0.66360 0.22616 0.27755
 H547 H 0.72163 0.07625 0.38168
 H548 H 0.67116 0.03763 0.41556
 H549 H 0.58240 0.11502 0.35642
 C550 C 0.68588 0.67146 -0.18912
 C551 C 0.71285 0.64310 -0.17373
 C552 C 0.75220 0.64758 -0.17702
 C553 C 0.76439 0.68300 -0.19667
 C554 C 0.73746 0.71358 -0.21285
 C555 C 0.69732 0.70721 -0.20878
 O556 O 0.64981 0.66226 -0.18070
 C557 C 0.65426 0.62747 -0.15937
 C558 C 0.69234 0.61467 -0.15410
 C559 C 0.70389 0.58093 -0.13032
 C560 C 0.67496 0.55956 -0.11097
 C561 C 0.63547 0.57181 -0.11618
 C562 C 0.62491 0.60594 -0.14115
 H563 H 0.77283 0.62511 -0.16406
 H564 H 0.79505 0.68742 -0.19852
 H565 H 0.67536 0.73000 -0.21857
 H566 H 0.73409 0.57200 -0.12606
 H567 H 0.68330 0.53351 -0.09183
 H568 H 0.59496 0.61643 -0.14485
 C569 C 0.82672 -0.19951 -0.15667
 C570 C 0.80282 -0.18931 -0.12456
 C571 C 0.76422 -0.19818 -0.12343
 C572 C 0.74938 -0.21725 -0.15725
 C573 C 0.77278 -0.22657 -0.19210
 C574 C 0.81285 -0.21945 -0.19025
 O575 O 0.86186 -0.18583 -0.15288
 C576 C 0.85996 -0.16628 -0.11773
 C577 C 0.82452 -0.16780 -0.09903
 C578 C 0.81539 -0.14715 -0.06312
 C579 C 0.84363 -0.12313 -0.04629
 C580 C 0.88000 -0.11994 -0.06567
 C581 C 0.88852 -0.14271 -0.10146
 H582 H 0.74586 -0.18968 -0.09787
 H583 H 0.71904 -0.22340 -0.15704
 H584 H 0.83311 -0.22826 -0.21398
 H585 H 0.78712 -0.14839 -0.04923
 H586 H 0.83663 -0.10586 -0.01893
 H587 H 0.91571 -0.14037 -0.11731
 C588 C 0.81817 0.30676 0.33361
 C589 C 0.79809 0.31258 0.36900
 C590 C 0.76128 0.29888 0.37489
 C591 C 0.74411 0.27920 0.34268
 C592 C 0.76321 0.27390 0.30459
 C593 C 0.80194 0.28659 0.30134
 O594 O 0.85224 0.32373 0.33361
 C595 C 0.85353 0.34091 0.36980
 C596 C 0.82112 0.33475 0.39268
 C597 C 0.81549 0.35162 0.43084
 C598 C 0.84404 0.37651 0.44575
 C599 C 0.87745 0.38420 0.42252
 C600 C 0.88253 0.36541 0.38418
 H601 H 0.74595 0.30387 0.40308
 H602 H 0.71507 0.26923 0.34696
 H603 H 0.81968 0.28171 0.27489
 H604 H 0.78959 0.34665 0.44815
 H605 H 0.83964 0.39058 0.47512
 H606 H 0.90735 0.37118 0.36547
 C607 C 0.32521 -0.20268 0.33020
 C608 C 0.30413 -0.19723 0.36501
 C609 C 0.26834 -0.21347 0.37047
 C610 C 0.25267 -0.23428 0.33807
 C611 C 0.27220 -0.23831 0.29980
 C612 C 0.31076 -0.22443 0.29780
 O613 O 0.35752 -0.18226 0.33016
 C614 C 0.35650 -0.16316 0.36561
 C615 C 0.32443 -0.17145 0.38814
 C616 C 0.31607 -0.15245 0.42502
 C617 C 0.34160 -0.12343 0.43912
 C618 C 0.37473 -0.11383 0.41633
 C619 C 0.38249 -0.13454 0.37921
 H620 H 0.25210 -0.20855 0.39815
 H621 H 0.22364 -0.24441 0.34195
 H622 H 0.32930 -0.22833 0.27184
 H623 H 0.29031 -0.15895 0.44192
 H624 H 0.33513 -0.10792 0.46751
 H625 H 0.40713 -0.12745 0.36079
 C626 C 0.29651 0.32518 -0.16156
 C627 C 0.32346 0.29736 -0.14535
 C628 C 0.32444 0.25466 -0.15320
 C629 C 0.29699 0.24013 -0.17940
 C630 C 0.26908 0.26810 -0.19773
 C631 C 0.26919 0.31154 -0.18804
 O632 O 0.30209 0.36479 -0.15237
 C633 C 0.33343 0.36192 -0.13013
 C634 C 0.34789 0.32133 -0.12524
 C635 C 0.38269 0.31144 -0.10641
 C636 C 0.40338 0.34476 -0.09216
 C637 C 0.38859 0.38667 -0.09629
 C638 C 0.35293 0.39540 -0.11507
 H639 H 0.34638 0.23341 -0.14067
 H640 H 0.29850 0.20712 -0.18703
 H641 H 0.25070 0.33490 -0.20257
 H642 H 0.39404 0.27934 -0.10386
 H643 H 0.43092 0.33807 -0.07809
 H644 H 0.34173 0.42732 -0.11950
 C645 C 1.17595 -0.19313 0.20125
 C646 C 1.16916 -0.15745 0.22376
 C647 C 1.18740 -0.15060 0.25935
 C648 C 1.21407 -0.18160 0.27259
 C649 C 1.22124 -0.22085 0.25163
 C650 C 1.20089 -0.22590 0.21497
 O651 O 1.15810 -0.19118 0.16624
 C652 C 1.13959 -0.15344 0.16717
 C653 C 1.14508 -0.13201 0.20216
 C654 C 1.12876 -0.09204 0.20999
 C655 C 1.10580 -0.07310 0.18043
 C656 C 1.10058 -0.09360 0.14340
 C657 C 1.11773 -0.13446 0.13656
 H658 H 1.18263 -0.12132 0.27561
 H659 H 1.22944 -0.17304 0.29880
 H660 H 1.20554 -0.25405 0.19695
 H661 H 1.13363 -0.07595 0.23786
 H662 H 1.09304 -0.04182 0.18590
 H663 H 1.11418 -0.15072 0.10848
 C664 C 1.18253 0.32054 0.69660
 C665 C 1.15538 0.33757 0.72316
 C666 C 1.15620 0.32922 0.76381
 C667 C 1.18631 0.30218 0.77763
 C668 C 1.21544 0.28432 0.75108
 C669 C 1.21246 0.29340 0.70955
 O670 O 1.17631 0.33197 0.65907
 C671 C 1.14446 0.35688 0.66201
 C672 C 1.13038 0.36113 0.70057
 C673 C 1.09701 0.38532 0.71042
 C674 C 1.07772 0.40647 0.67934
 C675 C 1.09209 0.40331 0.63935
 C676 C 1.12585 0.37780 0.63061
 H677 H 1.13420 0.34263 0.78413
 H678 H 1.18683 0.29461 0.80911
 H679 H 1.23174 0.27887 0.68722
 H680 H 1.08635 0.38802 0.74094
 H681 H 1.05190 0.42582 0.68662
 H682 H 1.13752 0.37472 0.60047
 C683 C 0.67502 -0.19781 0.70186
 C684 C 0.66878 -0.15847 0.71809
 C685 C 0.68824 -0.14483 0.75107
 C686 C 0.71543 -0.17286 0.76831
 C687 C 0.72170 -0.21492 0.75380
 C688 C 0.70094 -0.22696 0.71949
 O689 O 0.65540 -0.20316 0.66851
 C690 C 0.63625 -0.16629 0.66390
 C691 C 0.64327 -0.13815 0.69384
 C692 C 0.62659 -0.09770 0.69541
 C693 C 0.60144 -0.08560 0.66485
 C694 C 0.59413 -0.11351 0.63310
 C695 C 0.61190 -0.15448 0.63238
 H696 H 0.68376 -0.11305 0.76225
 H697 H 0.73210 -0.16047 0.79209
 H698 H 0.70571 -0.25789 0.70634
 H699 H 0.63269 -0.07622 0.71932
 H700 H 0.58820 -0.05407 0.66543
 H701 H 0.60677 -0.17624 0.60837
 C702 C 0.66382 0.30326 0.20017
 C703 C 0.65194 0.33865 0.22136
 C704 C 0.66697 0.34863 0.25805
 C705 C 0.69577 0.32128 0.27368
 C706 C 0.70829 0.28310 0.25362
 C707 C 0.69098 0.27419 0.21622
 O708 O 0.64847 0.30195 0.16396
 C709 C 0.62625 0.33728 0.16260
 C710 C 0.62697 0.36037 0.19737
 C711 C 0.60630 0.39853 0.20278
 C712 C 0.58412 0.41385 0.17091
 C713 C 0.58386 0.39169 0.13404
 C714 C 0.60520 0.35269 0.12980
 H715 H 0.65801 0.37755 0.27345
 H716 H 0.70831 0.33143 0.30100
 H717 H 0.69966 0.24615 0.19929
 H718 H 0.60746 0.41609 0.23047
 H719 H 0.56827 0.44387 0.17446
 H720 H 0.60568 0.33530 0.10190
 C721 C 0.80633 0.19362 0.18953
 C722 C 0.82274 0.22639 0.17079
 C723 C 0.81224 0.26791 0.18025
 C724 C 0.78482 0.27577 0.21118
 C725 C 0.76932 0.24246 0.23341
 C726 C 0.77910 0.20067 0.22018
 O727 O 0.82016 0.15640 0.17648
 C728 C 0.84619 0.16580 0.14911
 C729 C 0.84909 0.20821 0.14438
 C730 C 0.87573 0.22462 0.11805
 C731 C 0.90023 0.19612 0.09585
 C732 C 0.89736 0.15244 0.10036
 C733 C 0.86990 0.13713 0.12719
 H734 H 0.82500 0.29338 0.16473
 H735 H 0.77678 0.30801 0.21916
 H736 H 0.76662 0.17369 0.23306
 H737 H 0.87783 0.25808 0.11502
 H738 H 0.92131 0.20790 0.07527
 H739 H 0.86746 0.10381 0.13122
 C740 C 0.81144 0.69862 0.68449
 C741 C 0.83348 0.73012 0.67118
 C742 C 0.82962 0.77046 0.68701
 C743 C 0.80273 0.77812 0.71846
 C744 C 0.78194 0.74511 0.73534
 C745 C 0.78529 0.70528 0.71599
 O746 O 0.81911 0.66245 0.66571
 C747 C 0.84704 0.67104 0.64026
 C748 C 0.85726 0.71193 0.64243
 C749 C 0.88798 0.72646 0.62022
 C750 C 0.90913 0.69746 0.59531
 C751 C 0.89850 0.65548 0.59263
 C752 C 0.86682 0.64229 0.61501
 H753 H 0.84660 0.79517 0.67557
 H754 H 0.79892 0.80954 0.73072
 H755 H 0.76822 0.67960 0.72470
 H756 H 0.89612 0.75849 0.62295
 H757 H 0.93391 0.70737 0.57862
 H758 H 0.85903 0.60999 0.61425
 C759 C 0.31669 0.18644 0.69797
 C760 C 0.33733 0.21770 0.68171
 C761 C 0.32982 0.25963 0.69148
 C762 C 0.29967 0.26970 0.71888
 C763 C 0.27681 0.23820 0.73551
 C764 C 0.28667 0.19566 0.72525
 O765 O 0.32858 0.14851 0.68509
 C766 C 0.35725 0.15600 0.66004
 C767 C 0.36392 0.19783 0.65687
 C768 C 0.39255 0.21248 0.63185
 C769 C 0.41487 0.18273 0.60894
 C770 C 0.40809 0.13967 0.61181
 C771 C 0.37908 0.12609 0.63775
 H772 H 0.34672 0.28373 0.67870
 H773 H 0.29385 0.30226 0.72721
 H774 H 0.27235 0.16995 0.73850
 H775 H 0.39721 0.24555 0.62972
 H776 H 0.43698 0.19308 0.58875
 H777 H 0.37333 0.09326 0.63997
 C778 C 0.31124 0.68887 0.18169
 C779 C 0.32955 0.72153 0.16511
 C780 C 0.32133 0.76274 0.17727
 C781 C 0.29442 0.77027 0.20881
 C782 C 0.27681 0.73679 0.22933
 C783 C 0.28404 0.69563 0.21250
 O784 O 0.32318 0.65183 0.16646
 C785 C 0.34995 0.66121 0.13982
 C786 C 0.35498 0.70349 0.13756
 C787 C 0.38240 0.71982 0.11205
 C788 C 0.40555 0.69140 0.08825
 C789 C 0.40093 0.64778 0.09058
 C790 C 0.37262 0.63257 0.11657
 H791 H 0.33553 0.78826 0.16340
 H792 H 0.28846 0.80240 0.21857
 H793 H 0.26956 0.66861 0.22247
 H794 H 0.38613 0.75314 0.11084
 H795 H 0.42726 0.70320 0.06843
 H796 H 0.36876 0.59932 0.11897
   
