data_POSCAR
  _audit_creation_date              2014-09-24
  _audit_creation_method            'ToBaCCo'
  _symmetry_space_group_name_H-M    'P1'
  _symmetry_Int_Tables_number       1
  _symmetry_cell_setting            triclinic
  loop_
  _symmetry_equiv_pos_as_xyz
 x,y,z
_cell_length_a 28.0473
_cell_length_b 27.9605
_cell_length_c 45.7844
_cell_angle_alpha 89.439200
_cell_angle_beta 90.645500
_cell_angle_gamma 91.166900
loop_
  _atom_site_label
  _atom_site_type_symbol
  _atom_site_fract_x
  _atom_site_fract_y
  _atom_site_fract_z
O1 O 0.03903 0.54618 1.02850
 O2 O 0.03990 0.45357 0.97181
 O3 O 0.04058 0.54680 0.97173
 O4 O 0.03932 0.45291 1.02859
 O5 O -0.03932 0.45136 1.02750
 O6 O -0.03799 0.54552 0.97062
 O7 O -0.03875 0.45230 0.97072
 O8 O -0.03962 0.54463 1.02740
 Cu9 Cu 0.04758 0.50001 1.00027
 Cu10 Cu -0.04679 0.49832 0.99896
 C11 C -0.00049 0.56142 1.03757
 C12 C 0.00068 0.43694 0.96163
 C13 C 0.00156 0.56251 0.96145
 C14 C -0.00018 0.43585 1.03769
 O15 O 0.45525 0.04255 0.52812
 O16 O 0.54675 0.04175 0.47098
 O17 O 0.45378 0.04228 0.47132
 O18 O 0.54821 0.04313 0.52776
 O19 O 0.54681 -0.03576 0.52864
 O20 O 0.45210 -0.03662 0.47220
 O21 O 0.54504 -0.03707 0.47187
 O22 O 0.45388 -0.03634 0.52898
 Cu23 Cu 0.50115 0.05033 0.49945
 Cu24 Cu 0.49930 -0.04434 0.50051
 C25 C 0.43877 0.00318 0.53826
 C26 C 0.56183 0.00216 0.46169
 C27 C 0.43657 0.00273 0.46219
 C28 C 0.56386 0.00387 0.53779
 Si29 Si -0.00635 -0.00474 0.25097
 Si30 Si 0.00513 0.00153 0.74980
 C31 C -0.04502 -0.34614 0.09025
 C32 C -0.00214 -0.32638 0.10096
 C33 C 0.04132 -0.34392 0.09140
 C34 C 0.04194 -0.38081 0.07101
 C35 C -0.00101 -0.40061 0.05988
 C36 C -0.04452 -0.38302 0.06987
 C37 C -0.00277 -0.28735 0.12121
 C38 C -0.00335 -0.25426 0.13788
 C39 C -0.00402 -0.21507 0.15705
 C40 C -0.00448 -0.18122 0.17314
 C41 C -0.00478 -0.14038 0.19203
 C42 C 0.03543 -0.11009 0.19394
 C43 C 0.03492 -0.06981 0.21176
 C44 C -0.00568 -0.05951 0.22800
 C45 C -0.04607 -0.08985 0.22581
 C46 C -0.04555 -0.13017 0.20799
 H47 H -0.07887 -0.33278 0.09747
 H48 H 0.07474 -0.32881 0.09951
 H49 H 0.07602 -0.39351 0.06377
 H50 H -0.07819 -0.39745 0.06175
 H51 H 0.06704 -0.11738 0.18149
 H52 H 0.06612 -0.04660 0.21247
 H53 H -0.07835 -0.08223 0.23741
 H54 H -0.07706 -0.15310 0.20644
 C55 C -0.04404 0.33943 0.09031
 C56 C -0.00097 0.32152 0.10106
 C57 C 0.04231 0.34166 0.09159
 C58 C 0.04258 0.37926 0.07124
 C59 C -0.00052 0.39720 0.06004
 C60 C -0.04387 0.37705 0.06995
 C61 C -0.00113 0.28164 0.12118
 C62 C -0.00121 0.24779 0.13770
 C63 C -0.00135 0.20766 0.15663
 C64 C -0.00160 0.17297 0.17247
 C65 C -0.00216 0.13106 0.19098
 C66 C 0.00612 0.13515 0.22108
 C67 C 0.00507 0.09432 0.23897
 C68 C -0.00427 0.04913 0.22688
 C69 C -0.01240 0.04518 0.19671
 C70 C -0.01134 0.08599 0.17885
 H71 H -0.07775 0.32404 0.09746
 H72 H 0.07586 0.32800 0.09973
 H73 H 0.07656 0.39395 0.06407
 H74 H -0.07765 0.39001 0.06177
 H75 H 0.01322 0.16984 0.23071
 H76 H 0.01133 0.09798 0.26224
 H77 H -0.02004 0.01078 0.18691
 H78 H -0.01789 0.08242 0.15560
 C79 C 0.34596 -0.04015 0.59253
 C80 C 0.32785 0.00310 0.60221
 C81 C 0.34667 0.04645 0.59144
 C82 C 0.38317 0.04658 0.57088
 C83 C 0.40127 0.00325 0.56078
 C84 C 0.38243 -0.04014 0.57198
 C85 C 0.28911 0.00289 0.62256
 C86 C 0.25618 0.00250 0.63926
 C87 C 0.21710 0.00190 0.65841
 C88 C 0.18326 0.00136 0.67441
 C89 C 0.14230 0.00080 0.69308
 C90 C 0.13514 0.03856 0.71230
 C91 C 0.09444 0.03883 0.72966
 C92 C 0.06037 0.00152 0.72772
 C93 C 0.06827 -0.03681 0.70895
 C94 C 0.10895 -0.03707 0.69160
 H95 H 0.33160 -0.07392 0.60068
 H96 H 0.33283 0.08015 0.59874
 H97 H 0.39686 0.08057 0.56269
 H98 H 0.39555 -0.07411 0.56467
 H99 H 0.16085 0.06791 0.71374
 H100 H 0.08977 0.06827 0.74440
 H101 H 0.04263 -0.06620 0.70745
 H102 H 0.11417 -0.06655 0.67688
 C103 C -0.34124 -0.03814 0.59128
 C104 C -0.32162 0.00543 0.60089
 C105 C -0.34008 0.04847 0.59035
 C106 C -0.37772 0.04800 0.57007
 C107 C -0.39737 0.00437 0.56002
 C108 C -0.37889 -0.03873 0.57099
 C109 C -0.28174 0.00600 0.62095
 C110 C -0.24787 0.00645 0.63740
 C111 C -0.20771 0.00684 0.65625
 C112 C -0.17297 0.00697 0.67199
 C113 C -0.13097 0.00675 0.69033
 C114 C -0.08577 0.00686 0.67767
 C115 C -0.04485 0.00565 0.69532
 C116 C -0.04878 0.00392 0.72584
 C117 C -0.09410 0.00485 0.73847
 C118 C -0.13506 0.00603 0.72079
 H119 H -0.32715 -0.07168 0.59926
 H120 H -0.32510 0.08241 0.59761
 H121 H -0.39110 0.08179 0.56207
 H122 H -0.39319 -0.07290 0.56371
 H123 H -0.08218 0.00775 0.65413
 H124 H -0.01038 0.00610 0.68500
 H125 H -0.09776 0.00420 0.76199
 H126 H -0.16983 0.00616 0.73084
 C127 C 0.04640 -0.34415 0.90938
 C128 C 0.00360 -0.32590 0.89850
 C129 C -0.03990 -0.34530 0.90810
 C130 C -0.04069 -0.38255 0.92871
 C131 C 0.00220 -0.40096 0.94012
 C132 C 0.04580 -0.38138 0.92998
 C133 C 0.00436 -0.28648 0.87805
 C134 C 0.00505 -0.25302 0.86125
 C135 C 0.00583 -0.21333 0.84197
 C136 C 0.00637 -0.17901 0.82583
 C137 C 0.00676 -0.13751 0.80698
 C138 C -0.03124 -0.12977 0.78753
 C139 C -0.03177 -0.08852 0.77003
 C140 C 0.00554 -0.05447 0.77205
 C141 C 0.04412 -0.06297 0.79103
 C142 C 0.04462 -0.10419 0.80853
 H143 H 0.08028 -0.32933 0.90211
 H144 H -0.07325 -0.33137 0.89984
 H145 H -0.07497 -0.39654 0.93584
 H146 H 0.07959 -0.39444 0.93810
 H147 H -0.06061 -0.15545 0.78604
 H148 H -0.06140 -0.08341 0.75511
 H149 H 0.07351 -0.03735 0.79259
 H150 H 0.07429 -0.10987 0.82344
 C151 C -0.04225 0.34293 0.90773
 C152 C 0.00094 0.32466 0.89826
 C153 C 0.04409 0.34378 0.90901
 C154 C 0.04410 0.38073 0.92938
 C155 C 0.00084 0.39899 0.93929
 C156 C -0.04235 0.37986 0.92810
 C157 C 0.00090 0.28540 0.87816
 C158 C 0.00081 0.25203 0.86169
 C159 C 0.00071 0.21238 0.84285
 C160 C 0.00073 0.17802 0.82715
 C161 C 0.00101 0.13643 0.80890
 C162 C 0.00128 0.14138 0.77843
 C163 C 0.00224 0.10078 0.76086
 C164 C 0.00340 0.05498 0.77360
 C165 C 0.00221 0.05018 0.80412
 C166 C 0.00122 0.09074 0.82167
 H167 H -0.07586 0.32832 0.89959
 H168 H 0.07773 0.32983 0.90187
 H169 H 0.07794 0.39464 0.93757
 H170 H -0.07626 0.39309 0.93526
 H171 H 0.00087 0.17654 0.76830
 H172 H 0.00246 0.10511 0.73733
 H173 H 0.00194 0.01533 0.81452
 H174 H 0.00067 0.08648 0.84521
 C175 C -0.34854 -0.04247 0.40960
 C176 C -0.32893 0.00051 0.39889
 C177 C -0.34628 0.04409 0.40854
 C178 C -0.38280 0.04476 0.42907
 C179 C -0.40252 0.00167 0.44035
 C180 C -0.38504 -0.04200 0.43012
 C181 C -0.29014 -0.00019 0.37858
 C182 C -0.25720 -0.00098 0.36192
 C183 C -0.21810 -0.00206 0.34282
 C184 C -0.18428 -0.00300 0.32684
 C185 C -0.14339 -0.00405 0.30816
 C186 C -0.13356 0.03423 0.28908
 C187 C -0.09293 0.03393 0.27166
 C188 C -0.06160 -0.00454 0.27331
 C189 C -0.07214 -0.04322 0.29208
 C190 C -0.11274 -0.04292 0.30949
 H191 H -0.33531 -0.07642 0.40228
 H192 H -0.33128 0.07759 0.40040
 H193 H -0.39517 0.07910 0.43627
 H194 H -0.39916 -0.07594 0.43813
 H195 H -0.15710 0.06444 0.28782
 H196 H -0.08611 0.06394 0.25715
 H197 H -0.04871 -0.07350 0.29342
 H198 H -0.12004 -0.07280 0.32412
 C199 C 0.34189 0.04571 0.40887
 C200 C 0.32164 0.00237 0.39936
 C201 C 0.33964 -0.04090 0.40988
 C202 C 0.37745 -0.04087 0.43006
 C203 C 0.39771 0.00255 0.44001
 C204 C 0.37969 0.04585 0.42904
 C205 C 0.28157 0.00232 0.37944
 C206 C 0.24756 0.00226 0.36311
 C207 C 0.20723 0.00206 0.34440
 C208 C 0.17237 0.00168 0.32876
 C209 C 0.13025 0.00087 0.31050
 C210 C 0.13367 0.00931 0.28041
 C211 C 0.09264 0.00791 0.26277
 C212 C 0.04785 -0.00242 0.27498
 C213 C 0.04459 -0.00969 0.30528
 C214 C 0.08559 -0.00831 0.32291
 H215 H 0.32817 0.07942 0.40090
 H216 H 0.32417 -0.07467 0.40271
 H217 H 0.39046 -0.07481 0.43807
 H218 H 0.39446 0.07988 0.43625
 H219 H 0.16797 0.01706 0.27061
 H220 H 0.09595 0.01555 0.23967
 H221 H 0.01067 -0.01642 0.31557
 H222 H 0.08245 -0.01442 0.34622
   
