data_POSCAR
  _audit_creation_date              2014-09-24
  _audit_creation_method            'ToBaCCo'
  _symmetry_space_group_name_H-M    'P1'
  _symmetry_Int_Tables_number       1
  _symmetry_cell_setting            triclinic
  loop_
  _symmetry_equiv_pos_as_xyz
 x,y,z
_cell_length_a 24.1885
_cell_length_b 24.2586
_cell_length_c 56.6932
_cell_angle_alpha 81.879100
_cell_angle_beta 93.638300
_cell_angle_gamma 120.210100
loop_
  _atom_site_label
  _atom_site_type_symbol
  _atom_site_fract_x
  _atom_site_fract_y
  _atom_site_fract_z
C1 C -0.00191 0.12333 0.52831
 H2 H 0.04267 0.12349 0.52721
 C3 C -0.00574 0.16456 0.54202
 H4 H 0.03595 0.19566 0.55176
 C5 C -0.11036 0.08178 0.51695
 H6 H -0.15056 0.04992 0.50684
 C7 C -0.11643 0.12231 0.53061
 H8 H -0.16157 0.12142 0.53095
 N9 N -0.05364 0.08303 0.51617
 C10 C -0.01656 -0.07042 0.50686
 H11 H -0.01268 -0.06526 0.48767
 C12 C -0.01772 -0.12340 0.52078
 H13 H -0.01425 -0.15862 0.51214
 C14 C -0.03110 -0.03346 0.54121
 H15 H -0.03850 0.00034 0.54909
 C16 C -0.03246 -0.08554 0.55575
 H17 H -0.03903 -0.09004 0.57478
 Zn18 Zn -0.03801 0.03403 0.49732
 N19 N -0.02411 -0.02730 0.51720
 C20 C 0.08830 0.09010 0.47756
 N21 N 0.03408 0.09366 0.47820
 C22 C 0.02938 0.14309 0.46558
 C23 C 0.07988 0.19096 0.45119
 C24 C 0.14029 0.13725 0.46334
 C25 C -0.16173 -0.06388 0.48811
 C26 C -0.20880 -0.10835 0.47438
 C27 C -0.14565 -0.04531 0.43922
 C28 C -0.09977 -0.00266 0.45369
 N29 N -0.10784 -0.01320 0.47768
 H30 H 0.09132 0.05090 0.48805
 H31 H -0.01396 0.14521 0.46678
 H32 H 0.07518 0.23014 0.44148
 H33 H 0.18284 0.13338 0.46270
 H34 H -0.16687 -0.07142 0.50731
 H35 H -0.25094 -0.14712 0.48370
 H36 H -0.13347 -0.03618 0.42054
 H37 H -0.05584 0.03674 0.44569
 C38 C -0.02729 -0.13222 0.54552
 C39 C -0.06338 0.16476 0.54322
 C40 C -0.20093 -0.10135 0.44934
 C41 C 0.13622 0.18836 0.44982
 C42 C 1.18102 0.08382 0.13500
 H43 H 1.18321 0.12944 0.13511
 C44 C 1.22391 0.07998 0.12100
 H45 H 1.25946 0.12315 0.11051
 C46 C 1.13263 -0.02736 0.14916
 H47 H 1.09703 -0.06885 0.16027
 C48 C 1.17483 -0.03341 0.13536
 H49 H 1.17077 -0.08004 0.13569
 N50 N 1.13612 0.03057 0.14848
 C51 C 0.97958 0.06656 0.15541
 H52 H 0.97855 0.06677 0.17445
 C53 C 0.92951 0.06536 0.14131
 H54 H 0.89035 0.06516 0.14965
 C55 C 1.02878 0.06015 0.12186
 H56 H 1.06603 0.05553 0.11443
 C57 C 0.97992 0.05907 0.10713
 H58 H 0.98135 0.05557 0.08837
 Zn59 Zn 1.08190 0.04429 0.16637
 N60 N 1.02710 0.06249 0.14561
 C61 C 1.13223 0.16721 0.18284
 N62 N 1.13581 0.11276 0.18384
 C63 C 1.18083 0.10518 0.19715
 C64 C 1.22413 0.15301 0.21048
 C65 C 1.17473 0.21647 0.19599
 C66 C 0.98002 -0.08104 0.17787
 C67 C 0.92979 -0.13033 0.19219
 C68 C 0.97943 -0.07345 0.22612
 C69 C 1.02848 -0.02525 0.21117
 N70 N 1.02723 -0.02916 0.18743
 H71 H 1.09666 0.17255 0.17182
 H72 H 1.18276 0.06148 0.19745
 H73 H 1.25870 0.14528 0.22132
 H74 H 1.17158 0.25971 0.19497
 H75 H 0.97930 -0.08218 0.15884
 H76 H 0.89086 -0.16949 0.18403
 H77 H 0.98048 -0.06860 0.24487
 H78 H 1.06550 0.01687 0.21841
 C79 C 0.92832 0.05954 0.11695
 C80 C 1.22091 0.02074 0.12088
 C81 C 0.92811 -0.12584 0.21655
 C82 C 1.22149 0.20961 0.21005
 C83 C 0.04013 0.88592 0.86761
 H84 H -0.00292 0.84010 0.86649
 C85 C 0.09055 0.88888 0.88174
 H86 H 0.08610 0.84489 0.89129
 C87 C 0.09829 0.99847 0.85582
 H88 H 0.10101 1.04084 0.84554
 C89 C 0.15017 1.00365 0.86978
 H90 H 0.19232 1.05046 0.87043
 N91 N 0.04445 0.94021 0.85525
 C92 C -0.15101 0.90206 0.84712
 H93 H -0.15603 0.90552 0.82795
 C94 C -0.19697 0.90083 0.86131
 H95 H -0.23635 0.90374 0.85233
 C96 C -0.08876 0.90203 0.88099
 H97 H -0.04569 0.90447 0.88864
 C98 C -0.13344 0.90042 0.89584
 H99 H -0.12462 0.89782 0.91478
 Zn100 Zn -0.02786 0.92746 0.83677
 N101 N -0.09733 0.90454 0.85705
 C102 C -0.10076 0.80763 0.81715
 N103 N -0.04387 0.86312 0.81778
 C104 C 0.00757 0.87545 0.80496
 C105 C 0.00288 0.83192 0.79030
 C106 C -0.10757 0.76234 0.80267
 C107 C -0.00677 1.05356 0.82723
 C108 C -0.00864 1.10509 0.81338
 C109 C -0.02382 1.05232 0.77849
 C110 C -0.02176 1.00192 0.79296
 N111 N -0.01426 1.00290 0.81691
 H112 H -0.14074 0.79860 0.82778
 H113 H 0.05246 0.91958 0.80613
 H114 H 0.04469 0.84269 0.78037
 H115 H -0.15329 0.71873 0.80200
 H116 H -0.00252 1.05240 0.84638
 H117 H -0.00528 1.14371 0.82201
 H118 H -0.03086 1.05004 0.75952
 H119 H -0.02920 0.96074 0.78508
 C120 C -0.18756 0.90281 0.88613
 C121 C 0.14639 0.94833 0.88311
 C122 C -0.01887 1.10403 0.78873
 C123 C -0.05531 0.77467 0.78885
 O124 O 0.56586 -0.05891 0.02933
 O125 O 0.43942 -0.07975 -0.01466
 O126 O 0.54457 -0.08547 -0.01438
 O127 O 0.45618 -0.06250 0.02992
 O128 O 0.50725 0.04221 0.01815
 O129 O 0.59697 0.01917 -0.02622
 O130 O 0.49196 0.02495 -0.02643
 O131 O 0.61695 0.04574 0.01748
 Cu132 Cu 0.49640 -0.08217 0.00872
 Cu133 Cu 0.55856 0.04352 -0.00543
 C134 C 0.61295 -0.00280 0.03071
 C135 C 0.44426 -0.03051 -0.02781
 C136 C 0.58593 -0.03729 -0.02766
 C137 C 0.46604 -0.00664 0.03137
 O138 O -0.11273 0.50191 0.64431
 O139 O -0.11098 0.37944 0.69085
 O140 O -0.11579 0.48486 0.69061
 O141 O -0.11755 0.39171 0.64453
 O142 O -0.01177 0.44458 0.64359
 O143 O -0.01000 0.53882 0.68968
 O144 O -0.00520 0.43358 0.68983
 O145 O -0.00693 0.55446 0.64348
 Cu146 Cu -0.12490 0.43405 0.66768
 Cu147 Cu 0.00211 0.49812 0.66658
 C148 C -0.05975 0.54920 0.63620
 C149 C -0.05743 0.38593 0.69806
 C150 C -0.06284 0.52801 0.69774
 C151 C -0.06520 0.40203 0.63635
 O152 O 0.58965 0.57491 0.35991
 O153 O 0.50270 0.46587 0.31450
 O154 O 0.61250 0.57194 0.31596
 O155 O 0.48473 0.46396 0.35931
 O156 O 0.43294 0.51673 0.34815
 O157 O 0.56223 0.62617 0.30471
 O158 O 0.45253 0.52027 0.30338
 O159 O 0.53797 0.62770 0.34863
 Cu160 Cu 0.55260 0.51389 0.33854
 Cu161 Cu 0.49140 0.57817 0.32511
 C162 C 0.57842 0.61996 0.36181
 C163 C 0.46242 0.47458 0.30142
 C164 C 0.60936 0.61741 0.30311
 C165 C 0.43697 0.47142 0.36091
 C166 C -0.06941 0.29051 0.58798
 C167 C -0.12153 0.22819 0.58763
 C168 C -0.12063 0.18769 0.57254
 C169 C -0.06734 0.20904 0.55773
 C170 C -0.01603 0.27237 0.55776
 C171 C -0.01707 0.31273 0.57280
 C172 C -0.06821 0.33073 0.60463
 C173 C -0.06665 0.36386 0.61892
 H174 H -0.16224 0.21047 0.59937
 H175 H -0.16054 0.13906 0.57305
 H176 H 0.02523 0.29050 0.54628
 H177 H 0.02344 0.36090 0.57288
 C178 C 0.76112 0.74084 0.25920
 C179 C 0.78414 0.71844 0.24297
 C180 C 0.83871 0.76154 0.22914
 C181 C 0.87106 0.82755 0.23149
 C182 C 0.84732 0.84943 0.24783
 C183 C 0.79285 0.80638 0.26157
 C184 C 0.70609 0.69673 0.27396
 C185 C 0.66109 0.66042 0.28692
 H186 H 0.76013 0.66769 0.24110
 H187 H 0.85601 0.74321 0.21683
 H188 H 0.87026 0.90008 0.24972
 H189 H 0.77549 0.82425 0.27407
 C190 C 0.30046 -0.04379 -0.07251
 C191 C 0.23705 -0.08309 -0.06464
 C192 C 0.18712 -0.08523 -0.07902
 C193 C 0.19988 -0.04801 -0.10151
 C194 C 0.26383 -0.00833 -0.10924
 C195 C 0.31380 -0.00629 -0.09481
 C196 C 0.35165 -0.04052 -0.05728
 C197 C 0.39406 -0.03691 -0.04405
 H198 H 0.22622 -0.11182 -0.04732
 H199 H 0.13849 -0.11547 -0.07240
 H200 H 0.27513 0.02035 -0.12656
 H201 H 0.36278 0.02454 -0.10102
 C202 C -0.05051 0.69750 0.58936
 C203 C -0.00423 0.72731 0.57116
 C204 C 0.00327 0.78252 0.55675
 C205 C -0.03526 0.80877 0.56049
 C206 C -0.08213 0.77792 0.57865
 C207 C -0.08958 0.72279 0.59298
 C208 C -0.05582 0.64307 0.60515
 C209 C -0.05886 0.59906 0.61900
 H210 H 0.02662 0.70840 0.56832
 H211 H 0.04000 0.80540 0.54302
 H212 H -0.11337 0.79619 0.58169
 H213 H -0.12545 0.70021 0.60704
 C214 C 0.35058 0.35058 0.25447
 C215 C 0.28702 0.33671 0.25215
 C216 C 0.24532 0.29194 0.23729
 C217 C 0.26668 0.26029 0.22459
 C218 C 0.33104 0.27553 0.22668
 C219 C 0.37265 0.32033 0.24154
 C220 C 0.39236 0.39455 0.27062
 C221 C 0.42563 0.43109 0.28451
 H222 H 0.26941 0.35977 0.26213
 H223 H 0.19595 0.28073 0.23628
 H224 H 0.34915 0.25265 0.21687
 H225 H 0.42180 0.33086 0.24314
 C226 C 0.69282 -0.06746 -0.07147
 C227 C 0.66913 -0.09591 -0.09235
 C228 C 0.70786 -0.10667 -0.10622
 C229 C 0.77141 -0.08928 -0.09942
 C230 C 0.79390 -0.06108 -0.07805
 C231 C 0.75508 -0.05041 -0.06435
 C232 C 0.65358 -0.05627 -0.05696
 C233 C 0.62217 -0.04704 -0.04402
 H234 H 0.62056 -0.11007 -0.09788
 H235 H 0.68670 -0.13044 -0.12183
 H236 H 0.84260 -0.04390 -0.07219
 H237 H 0.77405 -0.02806 -0.04824
 C238 C 0.35159 0.00962 0.07638
 C239 C 0.33660 -0.02458 0.09930
 C240 C 0.29375 -0.02147 0.11380
 C241 C 0.26544 0.01599 0.10551
 C242 C 0.28067 0.04988 0.08239
 C243 C 0.32341 0.04669 0.06796
 C244 C 0.39408 0.00519 0.06109
 C245 C 0.42812 0.00069 0.04776
 H246 H 0.35795 -0.05367 0.10595
 H247 H 0.28347 -0.04757 0.13158
 H248 H 0.25891 0.07829 0.07533
 H249 H 0.33416 0.07282 0.05016
 C250 C 0.67949 0.75394 0.40686
 C251 C 0.71759 0.81716 0.39641
 C252 C 0.75569 0.86561 0.41048
 C253 C 0.75735 0.85223 0.43566
 C254 C 0.71587 0.78781 0.44586
 C255 C 0.67793 0.73952 0.43160
 C256 C 0.64287 0.70423 0.39193
 C257 C 0.61319 0.66449 0.37862
 H258 H 0.71810 0.82917 0.37724
 H259 H 0.78197 0.91374 0.40121
 H260 H 0.71499 0.77235 0.46471
 H261 H 0.64843 0.69053 0.43990
 C262 C -0.04503 0.24913 0.74509
 C263 C 0.00189 0.26669 0.76276
 C264 C 0.01029 0.21961 0.77714
 C265 C -0.02794 0.15442 0.77389
 C266 C -0.07551 0.13731 0.75630
 C267 C -0.08387 0.18435 0.74200
 C268 C -0.05128 0.29756 0.72926
 C269 C -0.05526 0.33783 0.71535
 H270 H 0.03254 0.31680 0.76519
 H271 H 0.04750 0.23427 0.79044
 H272 H -0.10655 0.08744 0.75366
 H273 H -0.12024 0.17021 0.72836
 C274 C 0.76250 0.02566 0.07476
 C275 C 0.79427 -0.00802 0.07234
 C276 C 0.84828 0.00338 0.08597
 C277 C 0.87153 0.04888 0.10223
 C278 C 0.83909 0.08234 0.10467
 C279 C 0.78497 0.07089 0.09095
 C280 C 0.70812 0.01488 0.06003
 C281 C 0.66378 0.00616 0.04703
 H282 H 0.77733 -0.04311 0.05987
 H283 H 0.87130 -0.02418 0.08402
 H284 H 0.85602 0.11786 0.11694
 H285 H 0.76091 0.09752 0.09287
 C286 C 0.29132 0.33736 0.40532
 C287 C 0.22823 0.31211 0.39742
 C288 C 0.17795 0.26331 0.41181
 C289 C 0.19008 0.23900 0.43436
 C290 C 0.25374 0.26438 0.44211
 C291 C 0.30404 0.31330 0.42766
 C292 C 0.34294 0.38646 0.39012
 C293 C 0.38589 0.42630 0.37699
 H294 H 0.21790 0.32992 0.38007
 H295 H 0.12958 0.24411 0.40518
 H296 H 0.26452 0.24715 0.45947
 H297 H 0.35278 0.33235 0.43390
 C298 C -0.06323 0.64350 0.74335
 C299 C -0.03258 0.70951 0.73561
 C300 C -0.03124 0.75182 0.75024
 C301 C -0.06052 0.72875 0.77291
 C302 C -0.09235 0.66214 0.78041
 C303 C -0.09357 0.61975 0.76570
 C304 C -0.06339 0.60077 0.72810
 C305 C -0.06295 0.56676 0.71462
 H306 H -0.00943 0.72835 0.71827
 H307 H -0.00726 0.80272 0.74381
 H308 H -0.11484 0.64308 0.79784
 H309 H -0.11763 0.56866 0.77183
   
