data_POSCAR
  _audit_creation_date              2014-09-24
  _audit_creation_method            'ToBaCCo'
  _symmetry_space_group_name_H-M    'P1'
  _symmetry_Int_Tables_number       1
  _symmetry_cell_setting            triclinic
  loop_
  _symmetry_equiv_pos_as_xyz
 x,y,z
_cell_length_a 54.7749
_cell_length_b 52.7765
_cell_length_c 24.0020
_cell_angle_alpha 89.761300
_cell_angle_beta 89.654400
_cell_angle_gamma 118.044500
loop_
  _atom_site_label
  _atom_site_type_symbol
  _atom_site_fract_x
  _atom_site_fract_y
  _atom_site_fract_z
C1 C 0.13548 0.40174 0.50833
 C2 C 0.15186 0.41300 0.46008
 C3 C 0.18035 0.42177 0.46404
 C4 C 0.19223 0.41892 0.51414
 C5 C 0.17519 0.40898 0.56214
 C6 C 0.14703 0.40235 0.56094
 C7 C 0.22273 0.42821 0.51679
 C8 C 0.23744 0.43735 0.56731
 C9 C 0.26599 0.44656 0.56921
 C10 C 0.28031 0.44802 0.51982
 C11 C 0.26646 0.43968 0.46901
 C12 C 0.23766 0.42880 0.46811
 H13 H 0.11328 0.39177 0.50452
 H14 H 0.19370 0.43258 0.42900
 H15 H 0.18436 0.40763 0.60070
 H16 H 0.22725 0.43822 0.60538
 H17 H 0.30237 0.45516 0.52106
 H18 H 0.22718 0.42138 0.42887
 C19 C 0.60162 -0.26776 0.49956
 C20 C 0.60555 -0.25292 0.44859
 C21 C 0.60743 -0.22538 0.44984
 C22 C 0.60266 -0.21390 0.49923
 C23 C 0.59732 -0.23017 0.54879
 C24 C 0.59763 -0.25673 0.55020
 C25 C 0.60223 -0.18556 0.49861
 C26 C 0.60622 -0.16947 0.54785
 C27 C 0.60351 -0.14428 0.54811
 C28 C 0.59901 -0.13372 0.49769
 C29 C 0.59591 -0.14862 0.44788
 C30 C 0.59668 -0.17481 0.44895
 H31 H 0.59845 -0.28956 0.49917
 H32 H 0.61327 -0.21265 0.41209
 H33 H 0.59345 -0.22188 0.58680
 H34 H 0.61134 -0.17623 0.58660
 H35 H 0.59651 -0.11454 0.49751
 H36 H 0.59265 -0.18671 0.41063
 C37 C 1.28819 0.84550 0.49977
 C38 C 1.27509 0.83870 0.44765
 C39 C 1.24752 0.81630 0.44595
 C40 C 1.23455 0.79888 0.49333
 C41 C 1.24917 0.80578 0.54398
 C42 C 1.27555 0.82930 0.54752
 C43 C 1.20683 0.77246 0.48905
 C44 C 1.19016 0.75973 0.53698
 C45 C 1.16598 0.73288 0.53454
 C46 C 1.15708 0.72076 0.48160
 C47 C 1.17275 0.73316 0.43354
 C48 C 1.19770 0.75851 0.43748
 H49 H 1.30824 0.86413 0.50428
 H50 H 1.23666 0.81144 0.40702
 H51 H 1.24091 0.79253 0.58078
 H52 H 1.19685 0.77002 0.57664
 H53 H 1.13740 0.70168 0.47678
 H54 H 1.21022 0.76633 0.40017
 C55 C 0.85364 0.58349 0.51275
 C56 C 0.83919 0.57673 0.46244
 C57 C 0.81167 0.57182 0.46204
 C58 C 0.79877 0.57493 0.51074
 C59 C 0.81435 0.58300 0.56028
 C60 C 0.84121 0.58600 0.56218
 C61 C 0.76877 0.56796 0.51065
 C62 C 0.75287 0.55947 0.56039
 C63 C 0.72440 0.55137 0.56104
 C64 C 0.71162 0.55044 0.50984
 C65 C 0.72665 0.55813 0.45977
 C66 C 0.75528 0.56800 0.46064
 H67 H 0.87411 0.58513 0.51388
 H68 H 0.80044 0.56506 0.42350
 H69 H 0.80572 0.58658 0.59818
 H70 H 0.76215 0.55734 0.59844
 H71 H 0.68998 0.54503 0.50837
 H72 H 0.76660 0.57492 0.42175
 C73 C 0.39446 0.26996 0.49850
 C74 C 0.38734 0.25337 0.45011
 C75 C 0.38526 0.22595 0.45200
 C76 C 0.39311 0.21595 0.49963
 C77 C 0.40072 0.23331 0.54770
 C78 C 0.40102 0.26027 0.54829
 C79 C 0.39534 0.18862 0.49714
 C80 C 0.39422 0.17290 0.54585
 C81 C 0.39866 0.14857 0.54367
 C82 C 0.40099 0.13840 0.49065
 C83 C 0.40194 0.15340 0.44187
 C84 C 0.40010 0.17886 0.44558
 H85 H 0.39479 0.29057 0.49668
 H86 H 0.37815 0.21288 0.41512
 H87 H 0.40841 0.22691 0.58346
 H88 H 0.39130 0.18056 0.58557
 H89 H 0.40229 0.11867 0.48662
 H90 H 0.40261 0.19096 0.40764
 C91 C 0.72194 0.14957 0.49669
 C92 C 0.73245 0.16377 0.44584
 C93 C 0.75889 0.18759 0.44404
 C94 C 0.77552 0.19680 0.49206
 C95 C 0.76453 0.18167 0.54256
 C96 C 0.73756 0.15868 0.54544
 C97 C 0.80361 0.22270 0.48966
 C98 C 0.81528 0.23943 0.53752
 C99 C 0.84156 0.26398 0.53598
 C100 C 0.85536 0.27239 0.48408
 C101 C 0.84384 0.25674 0.43554
 C102 C 0.81858 0.23148 0.43905
 H103 H 0.70121 0.13168 0.49854
 H104 H 0.76584 0.19936 0.40521
 H105 H 0.77668 0.18744 0.58013
 H106 H 0.80404 0.23297 0.57639
 H107 H 0.87421 0.29252 0.48008
 H108 H 0.81073 0.21894 0.40170
 O109 O 0.96943 0.50270 -0.10910
 O110 O 1.03259 0.53255 0.09886
 O111 O 0.94777 0.49161 0.06126
 O112 O 1.05405 0.54072 -0.07160
 O113 O 0.98629 0.52402 0.09008
 O114 O 1.01633 0.53777 -0.09990
 O115 O 1.04907 0.55348 0.02143
 O116 O 0.95368 0.50927 -0.03265
 C117 C 0.95794 0.51464 -0.08300
 C118 C 1.04565 0.55534 0.07183
 C119 C 0.96104 0.51454 0.08694
 C120 C 1.04163 0.55213 -0.09600
 O121 O 1.03143 0.49534 -0.10938
 O122 O 0.96866 0.46653 0.10083
 O123 O 0.94672 0.45733 -0.06866
 O124 O 1.05332 0.50714 0.05959
 O125 O 1.01493 0.47483 0.09022
 O126 O 0.98447 0.46041 -0.09849
 O127 O 1.04682 0.48870 -0.03305
 O128 O 0.95188 0.44483 0.02516
 Co129 Co 1.00044 0.49909 -0.09485
 Co130 Co 1.00064 0.49946 0.08549
 Co131 Co 0.95505 0.47811 -0.00385
 Co132 Co 1.04580 0.52017 -0.00588
 O133 O 1.00047 0.49924 -0.00476
 C134 C 1.04215 0.48280 -0.08284
 C135 C 0.95635 0.44344 0.07524
 C136 C 0.95912 0.44625 -0.09436
 C137 C 1.04010 0.48407 0.08554
 O138 O 0.47045 0.46313 -0.08263
 O139 O 0.45941 0.48008 0.10781
 O140 O 0.48457 0.44231 0.04469
 O141 O 0.44631 0.50292 -0.01924
 O142 O 0.49468 0.46555 0.11907
 O143 O 0.46793 0.50731 -0.09451
 O144 O 0.45582 0.51581 0.07489
 O145 O 0.49865 0.44975 -0.04932
 C146 C 0.47720 0.44398 -0.07648
 C147 C 0.44521 0.49235 0.10096
 C148 C 0.48073 0.44241 0.09519
 C149 C 0.44544 0.49930 -0.06999
 O150 O 0.52297 0.53721 -0.08399
 O151 O 0.53371 0.52045 0.10675
 O152 O 0.54702 0.49782 -0.01954
 O153 O 0.50848 0.55834 0.04374
 O154 O 0.49827 0.53485 0.11865
 O155 O 0.52561 0.49325 -0.09447
 O156 O 0.49492 0.55087 -0.05039
 O157 O 0.53722 0.48465 0.07471
 Co158 Co 0.49672 0.50021 -0.07877
 Co159 Co 0.49654 0.50024 0.10330
 Co160 Co 0.51493 0.47159 0.01273
 Co161 Co 0.47832 0.52902 0.01236
 O162 O 0.49663 0.50027 0.01236
 C163 C 0.51652 0.55654 -0.07763
 C164 C 0.54790 0.50813 0.09995
 C165 C 0.54803 0.50153 -0.07034
 C166 C 0.51195 0.55816 0.09433
 O167 O 0.53028 0.04067 -0.11638
 O168 O 0.50137 -0.02810 0.10166
 O169 O 0.54472 0.05987 0.05097
 O170 O 0.50219 -0.04640 -0.06601
 O171 O 0.53913 0.02030 0.08766
 O172 O 0.52938 -0.00553 -0.10303
 O173 O 0.51294 -0.04130 0.02868
 O174 O 0.55276 0.05592 -0.04319
 C175 C 0.55317 0.05310 -0.09392
 C176 C 0.51457 -0.03907 0.07960
 C177 C 0.55417 0.04631 0.07908
 C178 C 0.52366 -0.03087 -0.09399
 O179 O 0.47494 -0.03079 -0.11484
 O180 O 0.50281 0.03986 0.09897
 O181 O 0.50305 0.05669 -0.06968
 O182 O 0.45978 -0.04851 0.05404
 O183 O 0.46512 -0.00866 0.08798
 O184 O 0.47566 0.01546 -0.10367
 O185 O 0.45246 -0.04558 -0.04041
 O186 O 0.49182 0.05253 0.02476
 Co187 Co 0.50255 0.00500 -0.09923
 Co188 Co 0.50214 0.00581 0.08372
 Co189 Co 0.52124 0.05168 -0.00918
 Co190 Co 0.48373 -0.04083 -0.00608
 O191 O 0.50242 0.00541 -0.00771
 C192 C 0.45216 -0.04421 -0.09141
 C193 C 0.48960 0.05045 0.07574
 C194 C 0.48127 0.04081 -0.09557
 C195 C 0.45000 -0.03466 0.08030
 C196 C 1.11712 0.42710 0.31237
 C197 C 1.14083 0.42356 0.30881
 C198 C 1.15220 0.41852 0.35713
 C199 C 1.14003 0.41693 0.41015
 C200 C 1.11592 0.42041 0.41229
 C201 C 1.10471 0.42536 0.36411
 C202 C 1.10575 0.43379 0.26403
 C203 C 1.09517 0.44014 0.22633
 C204 C 1.08157 0.44863 0.18475
 C205 C 1.05265 0.43486 0.18274
 C206 C 1.03908 0.44566 0.14854
 C207 C 1.05433 0.47052 0.11611
 C208 C 1.08341 0.48347 0.11645
 C209 C 1.09693 0.47264 0.15078
 H210 H 1.15060 0.42483 0.26878
 H211 H 1.17011 0.41517 0.35224
 H212 H 1.10622 0.42091 0.45134
 H213 H 1.08657 0.42850 0.36746
 H214 H 1.04054 0.41639 0.20919
 H215 H 1.01669 0.43516 0.14898
 H216 H 1.09569 0.50260 0.09183
 H217 H 1.11932 0.48362 0.15235
 C218 C 0.59471 0.69917 0.30097
 C219 C 0.60732 0.69424 0.34716
 C220 C 0.61261 0.71119 0.39462
 C221 C 0.60510 0.73340 0.39727
 C222 C 0.59446 0.73957 0.34835
 C223 C 0.58905 0.72239 0.30101
 C224 C 0.58429 0.67810 0.25741
 C225 C 0.57411 0.65879 0.22437
 C226 C 0.56043 0.63394 0.18946
 C227 C 0.54995 0.60670 0.21394
 C228 C 0.53460 0.58218 0.18252
 C229 C 0.52948 0.58446 0.12589
 C230 C 0.54070 0.61186 0.10093
 C231 C 0.55601 0.63653 0.13272
 H232 H 0.61202 0.67646 0.34747
 H233 H 0.62234 0.70649 0.42940
 H234 H 0.58788 0.75595 0.34769
 H235 H 0.57908 0.72630 0.26559
 H236 H 0.55319 0.60441 0.25778
 H237 H 0.52647 0.56139 0.20281
 H238 H 0.53714 0.61422 0.05732
 H239 H 0.56394 0.65753 0.11336
 C240 C 0.32064 -0.11942 0.30095
 C241 C 0.29183 -0.13104 0.30153
 C242 C 0.27658 -0.14471 0.34974
 C243 C 0.28998 -0.14685 0.39850
 C244 C 0.31916 -0.13491 0.39642
 C245 C 0.33414 -0.12141 0.34847
 C246 C 0.33707 -0.10546 0.25231
 C247 C 0.35300 -0.09333 0.21451
 C248 C 0.37424 -0.07846 0.17322
 C249 C 0.38915 -0.04846 0.17404
 C250 C 0.41311 -0.03405 0.14153
 C251 C 0.42258 -0.04952 0.10802
 C252 C 0.40665 -0.07955 0.10512
 C253 C 0.38269 -0.09392 0.13775
 H254 H 0.28115 -0.12948 0.26490
 H255 H 0.25446 -0.15261 0.34876
 H256 H 0.33077 -0.13705 0.43076
 H257 H 0.35643 -0.11281 0.34831
 H258 H 0.38300 -0.03628 0.20175
 H259 H 0.42485 -0.01090 0.14452
 H260 H 0.41335 -0.09202 0.07955
 H261 H 0.37148 -0.11716 0.13720
 C262 C 0.87882 0.56534 0.31670
 C263 C 0.89325 0.58890 0.35141
 C264 C 0.88019 0.59288 0.39825
 C265 C 0.85251 0.57328 0.41103
 C266 C 0.83802 0.54994 0.37533
 C267 C 0.85113 0.54600 0.32851
 C268 C 0.89289 0.55995 0.27116
 C269 C 0.90478 0.55461 0.23433
 C270 C 0.91898 0.54710 0.19221
 C271 C 0.94793 0.56072 0.19056
 C272 C 0.96175 0.55099 0.15433
 C273 C 0.94672 0.52738 0.11955
 C274 C 0.91767 0.51465 0.11975
 C275 C 0.90391 0.52443 0.15599
 H276 H 0.91472 0.60393 0.34279
 H277 H 0.89176 0.61119 0.42471
 H278 H 0.81684 0.53425 0.38450
 H279 H 0.83985 0.52753 0.30221
 H280 H 0.95980 0.57823 0.21857
 H281 H 0.98414 0.56126 0.15500
 H282 H 0.90555 0.49649 0.09335
 H283 H 0.88149 0.51367 0.15708
 C284 C 0.39392 0.30027 0.30005
 C285 C 0.40407 0.28042 0.30168
 C286 C 0.40004 0.26352 0.34923
 C287 C 0.38591 0.26638 0.39599
 C288 C 0.37405 0.28490 0.39241
 C289 C 0.37816 0.30184 0.34476
 C290 C 0.40373 0.32214 0.25744
 C291 C 0.41404 0.34187 0.22480
 C292 C 0.42848 0.36689 0.19001
 C293 C 0.43313 0.36447 0.13327
 C294 C 0.44975 0.38911 0.10167
 C295 C 0.46209 0.41628 0.12687
 C296 C 0.45678 0.41845 0.18353
 C297 C 0.44009 0.39395 0.21477
 H298 H 0.41660 0.27929 0.26765
 H299 H 0.40975 0.24978 0.35086
 H300 H 0.36278 0.28730 0.42744
 H301 H 0.37038 0.31729 0.34410
 H302 H 0.42442 0.34358 0.11382
 H303 H 0.45344 0.38687 0.05803
 H304 H 0.46578 0.43909 0.20396
 H305 H 0.43678 0.39605 0.25870
 C306 C 0.68210 0.13160 0.30045
 C307 C 0.71040 0.13992 0.29734
 C308 C 0.72702 0.15113 0.34429
 C309 C 0.71542 0.15391 0.39488
 C310 C 0.68710 0.14613 0.39709
 C311 C 0.67059 0.13505 0.35020
 C312 C 0.66430 0.11825 0.25392
 C313 C 0.64811 0.10628 0.21713
 C314 C 0.62726 0.09123 0.17619
 C315 C 0.61298 0.06120 0.17734
 C316 C 0.58996 0.04644 0.14350
 C317 C 0.58085 0.06159 0.10822
 C318 C 0.59616 0.09171 0.10524
 C319 C 0.61918 0.10644 0.13924
 H320 H 0.71948 0.13724 0.25906
 H321 H 0.74874 0.15679 0.34158
 H322 H 0.67770 0.14847 0.43523
 H323 H 0.64872 0.12873 0.35302
 H324 H 0.61896 0.04923 0.20603
 H325 H 0.57864 0.02325 0.14666
 H326 H 0.58967 0.10394 0.07843
 H327 H 0.63000 0.12969 0.13826
 C328 C 0.41267 0.11150 -0.30994
 C329 C 0.39648 0.12551 -0.30663
 C330 C 0.39137 0.13745 -0.35470
 C331 C 0.40237 0.13552 -0.40718
 C332 C 0.41856 0.12106 -0.40904
 C333 C 0.42352 0.10925 -0.36123
 C334 C 0.41928 0.09983 -0.26150
 C335 C 0.42655 0.08954 -0.22431
 C336 C 0.43704 0.07681 -0.18423
 C337 C 0.42785 0.04719 -0.18533
 C338 C 0.44147 0.03523 -0.15436
 C339 C 0.46460 0.05283 -0.12208
 C340 C 0.47278 0.08235 -0.11885
 C341 C 0.45914 0.09428 -0.15000
 H342 H 0.38786 0.12726 -0.26698
 H343 H 0.37814 0.14739 -0.35038
 H344 H 0.42896 0.12002 -0.44671
 H345 H 0.43641 0.09879 -0.36418
 H346 H 0.41096 0.03350 -0.21213
 H347 H 0.43458 0.01240 -0.15749
 H348 H 0.49044 0.09642 -0.09416
 H349 H 0.46663 0.11727 -0.14928
 C350 C 0.67694 0.53531 -0.29021
 C351 C 0.66445 0.52131 -0.33936
 C352 C 0.68016 0.52579 -0.38777
 C353 C 0.70894 0.54459 -0.38834
 C354 C 0.72149 0.55743 -0.33738
 C355 C 0.70554 0.55300 -0.28894
 C356 C 0.65958 0.53284 -0.24314
 C357 C 0.64298 0.53019 -0.20743
 C358 C 0.62084 0.52615 -0.16998
 C359 C 0.62105 0.51916 -0.11366
 C360 C 0.59773 0.51226 -0.07994
 C361 C 0.57399 0.51199 -0.10270
 C362 C 0.57447 0.52008 -0.15869
 C363 C 0.59773 0.52714 -0.19197
 H364 H 0.64232 0.50730 -0.34064
 H365 H 0.66954 0.51403 -0.42445
 H366 H 0.74332 0.57245 -0.33528
 H367 H 0.71540 0.56411 -0.25108
 H368 H 0.63884 0.51825 -0.09630
 H369 H 0.59785 0.50610 -0.03688
 H370 H 0.55659 0.52030 -0.17719
 H371 H 0.59734 0.53251 -0.23548
 C372 C 0.87795 0.31466 -0.32066
 C373 C 0.84924 0.29823 -0.32371
 C374 C 0.83714 0.28117 -0.37033
 C375 C 0.85360 0.28038 -0.41535
 C376 C 0.88267 0.29682 -0.41068
 C377 C 0.89461 0.31373 -0.36399
 C378 C 0.89046 0.33376 -0.27472
 C379 C 0.90157 0.35074 -0.23795
 C380 C 0.91554 0.37223 -0.19641
 C381 C 0.90081 0.38255 -0.16408
 C382 C 0.91491 0.40591 -0.12876
 C383 C 0.94394 0.41932 -0.12574
 C384 C 0.95845 0.40801 -0.15657
 C385 C 0.94432 0.38465 -0.19177
 H386 H 0.83612 0.29907 -0.29059
 H387 H 0.81481 0.27001 -0.37175
 H388 H 0.89655 0.29620 -0.44226
 H389 H 0.91692 0.32630 -0.36192
 H390 H 0.87854 0.37317 -0.16753
 H391 H 0.90318 0.41412 -0.10544
 H392 H 0.98079 0.41777 -0.15486
 H393 H 0.95593 0.37688 -0.21672
 C394 C 0.59357 -0.10446 -0.30400
 C395 C 0.58242 -0.13434 -0.30629
 C396 C 0.58701 -0.14723 -0.35319
 C397 C 0.60270 -0.13038 -0.39864
 C398 C 0.61493 -0.10029 -0.39477
 C399 C 0.61034 -0.08744 -0.34780
 C400 C 0.58533 -0.09152 -0.25996
 C401 C 0.57723 -0.08071 -0.22517
 C402 C 0.56630 -0.06776 -0.18634
 C403 C 0.54445 -0.08501 -0.15040
 C404 C 0.53129 -0.07284 -0.11825
 C405 C 0.53975 -0.04325 -0.12199
 C406 C 0.56252 -0.02591 -0.15638
 C407 C 0.57563 -0.03812 -0.18840
 H408 H 0.56919 -0.14775 -0.27291
 H409 H 0.57700 -0.17045 -0.35519
 H410 H 0.62732 -0.08674 -0.42885
 H411 H 0.61901 -0.06429 -0.34661
 H412 H 0.53695 -0.10801 -0.14868
 H413 H 0.51388 -0.08673 -0.09209
 H414 H 0.56960 -0.00305 -0.16006
 H415 H 0.59242 -0.02456 -0.21625
 C416 C 0.31379 0.46417 -0.28173
 C417 C 0.32329 0.48359 -0.32651
 C418 C 0.30710 0.47861 -0.37397
 C419 C 0.28112 0.45411 -0.37732
 C420 C 0.27107 0.43543 -0.33108
 C421 C 0.28742 0.44036 -0.28361
 C422 C 0.33253 0.46738 -0.23722
 C423 C 0.34990 0.47059 -0.20332
 C424 C 0.37255 0.47520 -0.16735
 C425 C 0.39608 0.47545 -0.19083
 C426 C 0.41940 0.48243 -0.15846
 C427 C 0.41958 0.48928 -0.10189
 C428 C 0.39551 0.48797 -0.07781
 C429 C 0.37211 0.48109 -0.11056
 H430 H 0.34370 0.50202 -0.32565
 H431 H 0.31522 0.49346 -0.40881
 H432 H 0.25123 0.41627 -0.33285
 H433 H 0.27995 0.42505 -0.24942
 H434 H 0.39666 0.47093 -0.23468
 H435 H 0.43753 0.48302 -0.17805
 H436 H 0.39510 0.49314 -0.03431
 H437 H 0.35401 0.48100 -0.09197
 C438 C 1.12496 0.68541 -0.31930
 C439 C 1.13988 0.71537 -0.31714
 C440 C 1.15317 0.73129 -0.36516
 C441 C 1.15172 0.71746 -0.41648
 C442 C 1.13635 0.68711 -0.41719
 C443 C 1.12319 0.67147 -0.36944
 C444 C 1.11172 0.66819 -0.27070
 C445 C 1.10006 0.65158 -0.23301
 C446 C 1.08559 0.62957 -0.19175
 C447 C 1.10015 0.61951 -0.15841
 C448 C 1.08583 0.59494 -0.12526
 C449 C 1.05674 0.58001 -0.12546
 C450 C 1.04228 0.59104 -0.15708
 C451 C 1.05664 0.61560 -0.19015
 H452 H 1.14128 0.72643 -0.27843
 H453 H 1.16379 0.75441 -0.36179
 H454 H 1.13544 0.67481 -0.45374
 H455 H 1.11198 0.64824 -0.37147
 H456 H 1.12255 0.62998 -0.15973
 H457 H 1.09751 0.58703 -0.10113
 H458 H 1.01989 0.58009 -0.15789
 H459 H 1.04514 0.62300 -0.21618
 C460 C 0.88242 0.58378 -0.28796
 C461 C 0.89750 0.60264 -0.33125
 C462 C 0.88393 0.60493 -0.37870
 C463 C 0.85509 0.58820 -0.38361
 C464 C 0.83996 0.57062 -0.33841
 C465 C 0.85357 0.56837 -0.29102
 C466 C 0.89669 0.57701 -0.24491
 C467 C 0.90868 0.56967 -0.21182
 C468 C 0.92309 0.55908 -0.17642
 C469 C 0.94349 0.55356 -0.20005
 C470 C 0.95537 0.53993 -0.16883
 C471 C 0.94706 0.53160 -0.11330
 C472 C 0.92736 0.53824 -0.08890
 C473 C 0.91529 0.55178 -0.12051
 H474 H 0.91986 0.61453 -0.32956
 H475 H 0.89611 0.61887 -0.41254
 H476 H 0.81781 0.55714 -0.34113
 H477 H 0.84170 0.55343 -0.25813
 H478 H 0.94960 0.55898 -0.24329
 H479 H 0.97062 0.53529 -0.18865
 H480 H 0.92059 0.53206 -0.04621
 H481 H 0.89938 0.55578 -0.10189
 C482 C 0.42122 0.31233 -0.30685
 C483 C 0.41008 0.28255 -0.30144
 C484 C 0.40390 0.26534 -0.34900
 C485 C 0.40850 0.27763 -0.40311
 C486 C 0.42038 0.30789 -0.40725
 C487 C 0.42656 0.32488 -0.35980
 C488 C 0.42739 0.33053 -0.25879
 C489 C 0.43326 0.34730 -0.22093
 C490 C 0.44127 0.36899 -0.17865
 C491 C 0.43063 0.38847 -0.17961
 C492 C 0.44131 0.41217 -0.14420
 C493 C 0.46293 0.41676 -0.10755
 C494 C 0.47254 0.39630 -0.10490
 C495 C 0.46183 0.37262 -0.14040
 H496 H 0.40585 0.27257 -0.26052
 H497 H 0.39429 0.24233 -0.34287
 H498 H 0.42598 0.31895 -0.44700
 H499 H 0.43564 0.34799 -0.36451
 H500 H 0.41483 0.38598 -0.20927
 H501 H 0.43346 0.42751 -0.14719
 H502 H 0.48912 0.39920 -0.07703
 H503 H 0.47033 0.35778 -0.13948
 C504 C 0.69151 0.12179 -0.30448
 C505 C 0.70943 0.15134 -0.30766
 C506 C 0.72596 0.16318 -0.35517
 C507 C 0.72449 0.14558 -0.40027
 C508 C 0.70761 0.11574 -0.39532
 C509 C 0.69121 0.10395 -0.34776
 C510 C 0.67079 0.11021 -0.26107
 C511 C 0.65189 0.10014 -0.22794
 C512 C 0.62766 0.08762 -0.19260
 C513 C 0.62918 0.09332 -0.13538
 C514 C 0.60498 0.08192 -0.10267
 C515 C 0.57907 0.06491 -0.12713
 C516 C 0.57790 0.05911 -0.18443
 C517 C 0.60198 0.07034 -0.21680
 H518 H 0.70963 0.16541 -0.27471
 H519 H 0.73853 0.18626 -0.35811
 H520 H 0.70625 0.10167 -0.42923
 H521 H 0.67731 0.08107 -0.34593
 H522 H 0.64895 0.10675 -0.11623
 H523 H 0.60648 0.08664 -0.05858
 H524 H 0.55831 0.04592 -0.20441
 H525 H 0.60053 0.06581 -0.26101
 C526 C 1.10463 0.40290 -0.29015
 C527 C 1.12685 0.39689 -0.28703
 C528 C 1.13988 0.39470 -0.33598
 C529 C 1.13130 0.39920 -0.38920
 C530 C 1.10770 0.40367 -0.39063
 C531 C 1.09465 0.40533 -0.34198
 C532 C 1.09378 0.41043 -0.24196
 C533 C 1.08386 0.41915 -0.20681
 C534 C 1.07130 0.43193 -0.17183
 C535 C 1.05237 0.43936 -0.19609
 C536 C 1.04252 0.45535 -0.16645
 C537 C 1.05134 0.46409 -0.11176
 C538 C 1.06955 0.45563 -0.08658
 C539 C 1.07968 0.43977 -0.11674
 H540 H 1.13469 0.39480 -0.24689
 H541 H 1.15677 0.38979 -0.33108
 H542 H 1.10017 0.40841 -0.42864
 H543 H 1.07761 0.41032 -0.34490
 H544 H 1.04592 0.43361 -0.23882
 H545 H 1.02838 0.46135 -0.18680
 H546 H 1.07662 0.46206 -0.04442
 H547 H 1.09454 0.43437 -0.09775
 C548 C 0.58129 0.69280 -0.30221
 C549 C 0.57083 0.71225 -0.30756
 C550 C 0.57665 0.72942 -0.35542
 C551 C 0.59289 0.72724 -0.39941
 C552 C 0.60389 0.70796 -0.39218
 C553 C 0.59809 0.69097 -0.34425
 C554 C 0.57318 0.67309 -0.25583
 C555 C 0.56573 0.65538 -0.21899
 C556 C 0.55594 0.63285 -0.17771
 C557 C 0.53420 0.62884 -0.14171
 C558 C 0.52215 0.60461 -0.10698
 C559 C 0.53162 0.58404 -0.10823
 C560 C 0.55431 0.58894 -0.14272
 C561 C 0.56632 0.61317 -0.17733
 H562 H 0.55749 0.71356 -0.27546
 H563 H 0.56683 0.74296 -0.35875
 H564 H 0.61753 0.70623 -0.42297
 H565 H 0.60640 0.67604 -0.34041
 H566 H 0.52592 0.64387 -0.14191
 H567 H 0.50475 0.60144 -0.08079
 H568 H 0.56211 0.57353 -0.14451
 H569 H 0.58305 0.61599 -0.20525
 C570 C 0.32246 -0.14063 -0.30315
 C571 C 0.29458 -0.14697 -0.30321
 C572 C 0.27865 -0.15831 -0.35105
 C573 C 0.29068 -0.16297 -0.39922
 C574 C 0.31830 -0.15769 -0.39783
 C575 C 0.33404 -0.14662 -0.35010
 C576 C 0.34038 -0.12526 -0.25804
 C577 C 0.35743 -0.11109 -0.22416
 C578 C 0.37997 -0.09304 -0.18882
 C579 C 0.37889 -0.09756 -0.13111
 C580 C 0.40214 -0.08103 -0.09860
 C581 C 0.42667 -0.06009 -0.12382
 C582 C 0.42720 -0.05525 -0.18149
 C583 C 0.40402 -0.07159 -0.21367
 H584 H 0.28548 -0.14219 -0.26722
 H585 H 0.25743 -0.16209 -0.35142
 H586 H 0.32792 -0.16132 -0.43436
 H587 H 0.35562 -0.14169 -0.35057
 H588 H 0.36037 -0.11418 -0.11151
 H589 H 0.40122 -0.08517 -0.05419
 H590 H 0.44572 -0.03914 -0.20196
 H591 H 0.40508 -0.06794 -0.25830
 C592 C 0.57916 -0.11425 0.29910
 C593 C 0.56423 -0.14370 0.31067
 C594 C 0.57009 -0.15513 0.35835
 C595 C 0.59086 -0.13713 0.39517
 C596 C 0.60623 -0.10772 0.38233
 C597 C 0.60038 -0.09637 0.33465
 C598 C 0.57089 -0.10178 0.25446
 C599 C 0.56320 -0.09056 0.21989
 C600 C 0.55297 -0.07638 0.18268
 C601 C 0.55025 -0.08220 0.12547
 C602 C 0.53844 -0.06945 0.09102
 C603 C 0.52907 -0.05101 0.11380
 C604 C 0.53258 -0.04481 0.17097
 C605 C 0.54444 -0.05739 0.20505
 H606 H 0.54751 -0.15766 0.28382
 H607 H 0.55772 -0.17780 0.36750
 H608 H 0.62254 -0.09344 0.40962
 H609 H 0.61192 -0.07352 0.32633
 H610 H 0.55678 -0.09691 0.10777
 H611 H 0.53599 -0.07454 0.04707
 H612 H 0.52577 -0.03053 0.18961
 H613 H 0.54647 -0.05272 0.24922
 C614 C 0.31466 0.45077 0.32043
 C615 C 0.28979 0.42541 0.32841
 C616 C 0.27371 0.42180 0.37635
 C617 C 0.28253 0.44344 0.41687
 C618 C 0.30727 0.46898 0.40781
 C619 C 0.32319 0.47257 0.36001
 C620 C 0.33251 0.45426 0.27362
 C621 C 0.34901 0.45836 0.23674
 C622 C 0.37042 0.46447 0.19590
 C623 C 0.38389 0.44760 0.19432
 C624 C 0.40755 0.45600 0.16128
 C625 C 0.41815 0.48153 0.12961
 C626 C 0.40371 0.49761 0.12927
 C627 C 0.38002 0.48916 0.16245
 H628 H 0.28310 0.40832 0.29815
 H629 H 0.25481 0.40186 0.38244
 H630 H 0.31434 0.48619 0.43785
 H631 H 0.34240 0.49226 0.35430
 H632 H 0.37676 0.42857 0.22035
 H633 H 0.41812 0.44307 0.16217
 H634 H 0.41133 0.51729 0.10517
 H635 H 0.36986 0.50249 0.16369
 C636 C 1.13897 0.68830 0.28189
 C637 C 1.14266 0.67399 0.32764
 C638 C 1.15464 0.68892 0.37617
 C639 C 1.16319 0.71845 0.37961
 C640 C 1.16064 0.73308 0.33272
 C641 C 1.14836 0.71797 0.28404
 C642 C 1.12338 0.67145 0.23551
 C643 C 1.10910 0.65484 0.20063
 C644 C 1.09104 0.63229 0.16436
 C645 C 1.09825 0.63126 0.10862
 C646 C 1.08251 0.60674 0.07691
 C647 C 1.05975 0.58298 0.10115
 C648 C 1.05198 0.58485 0.15623
 C649 C 1.06750 0.60935 0.18751
 H650 H 1.13543 0.65103 0.32645
 H651 H 1.15666 0.67729 0.41161
 H652 H 1.16701 0.75584 0.33466
 H653 H 1.14546 0.72921 0.24892
 H654 H 1.11656 0.64884 0.09045
 H655 H 1.08894 0.60580 0.03454
 H656 H 1.03446 0.56693 0.17581
 H657 H 1.06182 0.60986 0.23067
 C658 C 0.41860 0.12172 0.28967
 C659 C 0.43290 0.15110 0.30139
 C660 C 0.42670 0.16170 0.34982
 C661 C 0.40629 0.14294 0.38730
 C662 C 0.39130 0.11366 0.37401
 C663 C 0.39746 0.10314 0.32556
 C664 C 0.42785 0.11000 0.24521
 C665 C 0.43651 0.09941 0.21119
 C666 C 0.44799 0.08593 0.17510
 C667 C 0.45131 0.09168 0.11769
 C668 C 0.46426 0.07960 0.08447
 C669 C 0.47418 0.06191 0.10869
 C670 C 0.47011 0.05581 0.16606
 C671 C 0.45712 0.06771 0.19890
 H672 H 0.44955 0.16561 0.27429
 H673 H 0.43875 0.18429 0.35929
 H674 H 0.37526 0.09881 0.40184
 H675 H 0.38641 0.08033 0.31717
 H676 H 0.44433 0.10581 0.09886
 H677 H 0.46710 0.08458 0.04033
 H678 H 0.47730 0.04208 0.18583
 H679 H 0.45465 0.06309 0.24323
 C680 C 0.68009 0.54840 0.31081
 C681 C 0.67147 0.52607 0.34987
 C682 C 0.68711 0.52912 0.39736
 C683 C 0.71169 0.55462 0.40667
 C684 C 0.72086 0.57668 0.36633
 C685 C 0.70501 0.57362 0.31869
 C686 C 0.66205 0.54561 0.26518
 C687 C 0.64521 0.54184 0.22966
 C688 C 0.62334 0.53587 0.19060
 C689 C 0.61384 0.51165 0.15653
 C690 C 0.58988 0.50325 0.12501
 C691 C 0.57503 0.51890 0.12754
 C692 C 0.58542 0.54392 0.15997
 C693 C 0.60936 0.55227 0.19140
 H694 H 0.65226 0.50647 0.34427
 H695 H 0.67980 0.51164 0.42737
 H696 H 0.73968 0.59655 0.37264
 H697 H 0.71182 0.59111 0.28879
 H698 H 0.62434 0.49864 0.15596
 H699 H 0.58245 0.48395 0.10031
 H700 H 0.57451 0.55648 0.16265
 H701 H 0.61636 0.57090 0.21797
 C702 C 0.88244 0.30027 0.28324
 C703 C 0.85356 0.28556 0.28781
 C704 C 0.84089 0.26975 0.33608
 C705 C 0.85700 0.26867 0.38060
 C706 C 0.88595 0.28215 0.37424
 C707 C 0.89856 0.29790 0.32593
 C708 C 0.89556 0.32100 0.23914
 C709 C 0.90694 0.34011 0.20546
 C710 C 0.92099 0.36488 0.16970
 C711 C 0.91300 0.36471 0.11426
 C712 C 0.92511 0.39007 0.08231
 C713 C 0.94506 0.41583 0.10592
 C714 C 0.95349 0.41546 0.16100
 C715 C 0.94157 0.39020 0.19252
 H716 H 0.84087 0.28752 0.25536
 H717 H 0.81859 0.25990 0.33998
 H718 H 0.89887 0.28147 0.40760
 H719 H 0.92094 0.30936 0.32307
 H720 H 0.89698 0.34524 0.09623
 H721 H 0.91829 0.38974 0.03994
 H722 H 0.96897 0.43487 0.18020
 H723 H 0.94788 0.39064 0.23537
   
