data_POSCAR
  _audit_creation_date              2014-09-24
  _audit_creation_method            'ToBaCCo'
  _symmetry_space_group_name_H-M    'P1'
  _symmetry_Int_Tables_number       1
  _symmetry_cell_setting            triclinic
  loop_
  _symmetry_equiv_pos_as_xyz
 x,y,z
_cell_length_a 40.2334
_cell_length_b 31.1812
_cell_length_c 30.4992
_cell_angle_alpha 90.072100
_cell_angle_beta 90.032600
_cell_angle_gamma 89.978400
loop_
  _atom_site_label
  _atom_site_type_symbol
  _atom_site_fract_x
  _atom_site_fract_y
  _atom_site_fract_z
C1 C 0.24981 0.26439 0.25249
 C2 C 0.24599 0.22112 0.25702
 C3 C 0.22034 0.19675 0.23205
 C4 C 0.26727 0.19625 0.28754
 C5 C 0.27754 0.28826 0.27387
 C6 C 0.22549 0.29021 0.22736
 C7 C 0.21698 0.20159 0.18661
 C8 C 0.19232 0.17944 0.16368
 C9 C 0.17082 0.15022 0.18511
 C10 C 0.17531 0.14470 0.23091
 C11 C 0.19959 0.16772 0.25380
 C12 C 0.26832 0.20648 0.33230
 C13 C 0.29061 0.18555 0.36016
 C14 C 0.31247 0.15410 0.34367
 C15 C 0.31001 0.14253 0.29914
 C16 C 0.28751 0.16326 0.27142
 C17 C 0.31060 0.27389 0.27068
 C18 C 0.33600 0.29501 0.29329
 C19 C 0.32901 0.33188 0.31809
 C20 C 0.29637 0.34766 0.31933
 C21 C 0.27082 0.32586 0.29771
 C22 C 0.23545 0.31147 0.18908
 C23 C 0.21242 0.33498 0.16464
 C24 C 0.17935 0.33858 0.17892
 C25 C 0.16968 0.31839 0.21799
 C26 C 0.19252 0.29395 0.24181
 H27 H 0.23354 0.22252 0.16867
 H28 H 0.19080 0.18493 0.12867
 H29 H 0.15975 0.12401 0.25036
 H30 H 0.20182 0.16328 0.28890
 H31 H 0.25228 0.23125 0.34546
 H32 H 0.29054 0.19426 0.39446
 H33 H 0.28680 0.15473 0.23700
 H34 H 0.31671 0.24603 0.25107
 H35 H 0.36116 0.28287 0.29101
 H36 H 0.29050 0.37621 0.33805
 H37 H 0.24565 0.33792 0.30033
 H38 H 0.26090 0.30911 0.17776
 H39 H 0.22048 0.35078 0.13490
 H40 H 0.14431 0.32090 0.22959
 H41 H 0.18459 0.27805 0.27158
 H42 H 0.32615 0.11824 0.28532
 C43 C 0.74878 0.21854 0.25309
 C44 C 0.74867 0.26224 0.25457
 C45 C 0.77265 0.28768 0.22831
 C46 C 0.72507 0.28682 0.28226
 C47 C 0.72358 0.19160 0.27599
 C48 C 0.77531 0.19554 0.22895
 C49 C 0.79494 0.31551 0.24926
 C50 C 0.81817 0.33867 0.22480
 C51 C 0.81953 0.33437 0.17893
 C52 C 0.79638 0.30742 0.15796
 C53 C 0.77311 0.28444 0.18244
 C54 C 0.72278 0.27941 0.32752
 C55 C 0.69966 0.30193 0.35287
 C56 C 0.67838 0.33235 0.33339
 C57 C 0.68165 0.34059 0.28826
 C58 C 0.70481 0.31816 0.26303
 C59 C 0.68940 0.20097 0.27362
 C60 C 0.66632 0.17591 0.29635
 C61 C 0.67681 0.13991 0.32016
 C62 C 0.71073 0.12955 0.32129
 C63 C 0.73389 0.15529 0.29967
 C64 C 0.76815 0.17521 0.18905
 C65 C 0.79342 0.15491 0.16542
 C66 C 0.82591 0.15343 0.18218
 C67 C 0.83287 0.17307 0.22262
 C68 C 0.80778 0.19438 0.24564
 H69 H 0.79470 0.31872 0.28463
 H70 H 0.83550 0.35935 0.24188
 H71 H 0.79587 0.30444 0.12262
 H72 H 0.75539 0.26410 0.16561
 H73 H 0.73883 0.25607 0.34313
 H74 H 0.69885 0.29569 0.38772
 H75 H 0.70642 0.32458 0.22819
 H76 H 0.68052 0.22768 0.25425
 H77 H 0.64019 0.18413 0.29469
 H78 H 0.71937 0.10203 0.33969
 H79 H 0.75998 0.14705 0.30190
 H80 H 0.74316 0.17590 0.17584
 H81 H 0.78758 0.13991 0.13430
 H82 H 0.85784 0.17267 0.23591
 H83 H 0.81360 0.20995 0.27647
 H84 H 0.66586 0.36391 0.27219
 C85 C 0.76038 0.76474 0.73858
 C86 C 0.75614 0.72177 0.74501
 C87 C 0.72977 0.69758 0.72149
 C88 C 0.77783 0.69640 0.77463
 C89 C 0.78863 0.78929 0.75797
 C90 C 0.73593 0.78932 0.71224
 C91 C 0.70618 0.67400 0.74519
 C92 C 0.68124 0.65127 0.72328
 C93 C 0.67964 0.65148 0.67718
 C94 C 0.70355 0.67485 0.65361
 C95 C 0.72856 0.69730 0.67552
 C96 C 0.78204 0.70779 0.81882
 C97 C 0.80373 0.68444 0.84559
 C98 C 0.82125 0.64895 0.82884
 C99 C 0.81647 0.63738 0.78464
 C100 C 0.79478 0.66064 0.75802
 C101 C 0.82128 0.77339 0.75690
 C102 C 0.84695 0.79507 0.77839
 C103 C 0.84099 0.83450 0.79981
 C104 C 0.80872 0.85205 0.79735
 C105 C 0.78285 0.82944 0.77736
 C106 C 0.74522 0.80676 0.67172
 C107 C 0.72167 0.82749 0.64551
 C108 C 0.68869 0.83195 0.65999
 C109 C 0.67980 0.81587 0.70134
 C110 C 0.70317 0.79434 0.72710
 H111 H 0.70682 0.67375 0.78069
 H112 H 0.66287 0.63438 0.74255
 H113 H 0.70313 0.67539 0.61811
 H114 H 0.74705 0.71443 0.65661
 H115 H 0.76885 0.73503 0.83237
 H116 H 0.80679 0.69418 0.87945
 H117 H 0.79196 0.65147 0.72395
 H118 H 0.82696 0.74385 0.73980
 H119 H 0.87156 0.78125 0.77669
 H120 H 0.80289 0.88245 0.81276
 H121 H 0.75807 0.84299 0.77795
 H122 H 0.77048 0.80327 0.65996
 H123 H 0.72926 0.84023 0.61406
 H124 H 0.65455 0.81903 0.71321
 H125 H 0.69572 0.78124 0.75847
 H126 H 0.83012 0.61117 0.76997
 C127 C 0.24797 0.71817 0.75641
 C128 C 0.24517 0.76163 0.75254
 C129 C 0.27194 0.78651 0.73097
 C130 C 0.21650 0.78647 0.77047
 C131 C 0.22494 0.69220 0.78376
 C132 C 0.27401 0.69437 0.73185
 C133 C 0.30313 0.79043 0.75116
 C134 C 0.32837 0.81403 0.73107
 C135 C 0.32294 0.83330 0.69010
 C136 C 0.29181 0.82897 0.66974
 C137 C 0.26627 0.80633 0.69043
 C138 C 0.22202 0.82588 0.79154
 C139 C 0.19561 0.84899 0.80958
 C140 C 0.16295 0.83264 0.80842
 C141 C 0.15736 0.79390 0.78555
 C142 C 0.18367 0.77180 0.76595
 C143 C 0.20936 0.65617 0.76562
 C144 C 0.18630 0.63262 0.78986
 C145 C 0.17813 0.64436 0.83339
 C146 C 0.19475 0.68014 0.85166
 C147 C 0.21808 0.70335 0.82738
 C148 C 0.27550 0.69694 0.68598
 C149 C 0.30002 0.67481 0.66282
 C150 C 0.32324 0.64902 0.68497
 C151 C 0.32142 0.64609 0.73099
 C152 C 0.29689 0.66842 0.75416
 H153 H 0.30777 0.77537 0.78256
 H154 H 0.35229 0.81667 0.74713
 H155 H 0.28715 0.84367 0.63817
 H156 H 0.24227 0.80359 0.67455
 H157 H 0.24695 0.83856 0.79488
 H158 H 0.20121 0.87879 0.82629
 H159 H 0.17832 0.74290 0.74756
 H160 H 0.21431 0.64694 0.73200
 H161 H 0.17438 0.60638 0.77303
 H162 H 0.18989 0.69048 0.88495
 H163 H 0.23037 0.73054 0.84241
 H164 H 0.25755 0.71599 0.66808
 H165 H 0.30057 0.67752 0.62743
 H166 H 0.33926 0.62730 0.74929
 H167 H 0.29603 0.66599 0.78956
 H168 H 0.13263 0.78105 0.78119
 O169 O 1.03196 -0.03090 -0.03362
 O170 O 0.96734 0.02464 0.03013
 O171 O 0.96815 -0.03052 -0.03479
 O172 O 1.03200 0.02434 0.03112
 O173 O 1.03250 0.07780 -0.01630
 O174 O 0.96826 0.02327 -0.08193
 O175 O 0.96742 0.07770 -0.01779
 O176 O 1.03336 0.02315 -0.08042
 Cu177 Cu 0.99980 -0.00837 0.00313
 Cu178 Cu 1.00046 0.05590 -0.05384
 C179 C 1.04359 -0.01336 -0.06785
 C180 C 0.95616 0.06043 0.01684
 C181 C 0.95748 -0.01304 -0.06963
 C182 C 1.04327 0.06031 0.01852
 O183 O 0.53199 0.57538 0.48427
 O184 O 0.46634 0.51970 0.42282
 O185 O 0.46741 0.57534 0.48614
 O186 O 0.53132 0.51824 0.42217
 O187 O 0.53216 0.46672 0.47176
 O188 O 0.46717 0.52268 0.53446
 O189 O 0.46759 0.46650 0.47054
 O190 O 0.53188 0.52390 0.53390
 Cu191 Cu 0.49923 0.55234 0.44889
 Cu192 Cu 0.49965 0.48972 0.50759
 C193 C 0.54305 0.55935 0.51963
 C194 C 0.45587 0.48356 0.43602
 C195 C 0.45637 0.55868 0.52123
 C196 C 0.54283 0.48287 0.43628
 O197 O 0.03088 0.52540 -0.02008
 O198 O -0.03418 0.46939 0.04210
 O199 O -0.03389 0.52599 -0.02036
 O200 O 0.03054 0.46915 0.04246
 O201 O 0.02934 0.52011 0.09280
 O202 O -0.03301 0.57892 0.02777
 O203 O -0.03508 0.52211 0.09048
 O204 O 0.03190 0.57678 0.02978
 Cu205 Cu -0.00169 0.49230 0.00607
 Cu206 Cu -0.00169 0.55480 0.06508
 C207 C 0.04274 0.56040 -0.00562
 C208 C -0.04581 0.48617 0.07681
 C209 C -0.04432 0.56222 -0.00720
 C210 C 0.04063 0.48467 0.07858
 O211 O 0.46084 1.03739 0.49450
 O212 O 0.52753 0.99022 0.56147
 O213 O 0.52476 1.04739 0.49846
 O214 O 0.46361 0.98038 0.55653
 O215 O 0.46961 0.92985 0.50633
 O216 O 0.53226 0.99569 0.44990
 O217 O 0.53425 0.93895 0.51226
 O218 O 0.46795 0.98678 0.44466
 Cu219 Cu 0.49364 1.01897 0.53273
 Cu220 Cu 0.50178 0.95763 0.47340
 C221 C 0.45297 1.02014 0.45821
 C222 C 0.54212 0.95641 0.54845
 C223 C 0.53885 1.03299 0.46419
 C224 C 0.45583 0.94397 0.54092
 C225 C 1.11752 0.12155 0.09405
 C226 C 1.09844 0.08836 0.11178
 N227 N 1.10370 0.07604 0.15379
 C228 C 1.12709 0.09547 0.17919
 C229 C 1.14685 0.12911 0.16169
 N230 N 1.14115 0.14061 0.11907
 N231 N 1.11197 0.13451 0.05222
 C232 C 1.08808 0.11563 0.02724
 C233 C 1.06908 0.08188 0.04474
 N234 N 1.07485 0.06904 0.08675
 H235 H 1.13026 0.08330 0.21196
 H236 H 1.08423 0.12657 -0.00604
 C237 C 0.61813 0.62403 0.59062
 C238 C 0.60384 0.58630 0.60700
 N239 N 0.61438 0.57036 0.64600
 C240 C 0.63852 0.59054 0.66950
 C241 C 0.65295 0.62849 0.65322
 N242 N 0.64230 0.64406 0.61392
 N243 N 0.60766 0.64006 0.55167
 C244 C 0.58348 0.62001 0.52822
 C245 C 0.56913 0.58203 0.54437
 N246 N 0.57977 0.56611 0.58354
 H247 H 0.64671 0.57654 0.70007
 H248 H 0.57567 0.63356 0.49723
 C249 C -0.12000 0.41910 0.14698
 C250 C -0.10709 0.40273 0.10767
 N251 N -0.11826 0.36458 0.09215
 C252 C -0.14189 0.34202 0.11405
 C253 C -0.15509 0.35829 0.15352
 N254 N -0.14352 0.39654 0.16898
 N255 N -0.10871 0.45720 0.16259
 C256 C -0.08501 0.47969 0.14066
 C257 C -0.07189 0.46329 0.10130
 N258 N -0.08338 0.42506 0.08584
 H259 H -0.14968 0.31131 0.10114
 H260 H -0.07644 0.50993 0.15395
 C261 C 0.38096 0.87214 0.60434
 C262 C 0.39895 0.90366 0.62712
 N263 N 0.39219 0.91117 0.67005
 C264 C 0.36817 0.88862 0.69126
 C265 C 0.34966 0.85760 0.66834
 N266 N 0.35654 0.85020 0.62526
 N267 N 0.38828 0.86391 0.56171
 C268 C 0.41270 0.88593 0.54071
 C269 C 0.43028 0.91819 0.56314
 N270 N 0.42288 0.92624 0.60595
 H271 H 0.36314 0.89536 0.72544
 H272 H 0.41789 0.87889 0.50663
 C273 C -0.11706 0.62620 -0.08300
 C274 C -0.10827 0.58357 -0.09195
 N275 N -0.12323 0.56246 -0.12545
 C276 C -0.14633 0.58221 -0.15094
 C277 C -0.15474 0.62543 -0.14294
 N278 N -0.13994 0.64611 -0.10865
 N279 N -0.10233 0.64712 -0.04910
 C280 C -0.07906 0.62733 -0.02380
 C281 C -0.06986 0.58472 -0.03306
 N282 N -0.08487 0.56392 -0.06700
 H283 H -0.15810 0.56400 -0.17681
 H284 H -0.06765 0.64483 0.00292
 C285 C 0.37616 1.07629 0.38299
 C286 C 0.38776 1.09603 0.42135
 N287 N 0.37460 1.13407 0.43414
 C288 C 0.35022 1.15335 0.41037
 C289 C 0.33818 1.13360 0.37185
 N290 N 0.35178 1.09543 0.35926
 N291 N 0.38973 1.03856 0.36977
 C292 C 0.41448 1.01967 0.39325
 C293 C 0.42618 1.03937 0.43181
 N294 N 0.41238 1.07717 0.44487
 H295 H 0.34118 1.18424 0.42111
 H296 H 0.42483 0.98959 0.38192
 C297 C 1.11718 -0.07996 -0.13890
 C298 C 1.08843 -0.10093 -0.12443
 N299 N 1.08417 -0.14313 -0.13358
 C300 C 1.10741 -0.16553 -0.15646
 C301 C 1.13705 -0.14508 -0.17005
 N302 N 1.14089 -0.10255 -0.16053
 N303 N 1.12092 -0.03733 -0.13114
 C304 C 1.09720 -0.01478 -0.10920
 C305 C 1.06894 -0.03610 -0.09332
 N306 N 1.06524 -0.07878 -0.10137
 H307 H 1.10323 -0.19937 -0.16171
 H308 H 1.10074 0.01914 -0.10324
 C309 C 0.61768 0.41664 0.36630
 C310 C 0.60425 0.39962 0.40492
 N311 N 0.61519 0.36116 0.41987
 C312 C 0.63909 0.33890 0.39802
 C313 C 0.65288 0.35588 0.35925
 N314 N 0.64152 0.39447 0.34445
 N315 N 0.60650 0.45492 0.35108
 C316 C 0.58243 0.47701 0.37280
 C317 C 0.56888 0.46005 0.41160
 N318 N 0.58025 0.42163 0.42665
 H319 H 0.64651 0.30790 0.41045
 H320 H 0.57402 0.50746 0.35991
 C321 C 0.88573 -0.07873 -0.14486
 C322 C 0.91326 -0.10039 -0.12750
 N323 N 0.91706 -0.14289 -0.13544
 C324 C 0.89454 -0.16493 -0.15992
 C325 C 0.86613 -0.14372 -0.17661
 N326 N 0.86270 -0.10091 -0.16819
 N327 N 0.88252 -0.03584 -0.13827
 C328 C 0.90561 -0.01367 -0.11482
 C329 C 0.93265 -0.03559 -0.09621
 N330 N 0.93580 -0.07855 -0.10303
 H331 H 0.89827 -0.19899 -0.16413
 H332 H 0.90254 0.02050 -0.10993
 C333 C 0.38138 0.41908 0.36391
 C334 C 0.40378 0.39613 0.39028
 N335 N 0.40180 0.35271 0.39198
 C336 C 0.37837 0.33115 0.36852
 C337 C 0.35553 0.35409 0.34266
 N338 N 0.35760 0.39765 0.34115
 N339 N 0.38389 0.46239 0.36127
 C340 C 0.40780 0.48389 0.38387
 C341 C 0.42992 0.46113 0.41094
 N342 N 0.42728 0.41765 0.41351
 H343 H 0.37714 0.29654 0.37073
 H344 H 0.40923 0.51845 0.38117
 C345 C 0.11893 0.62079 -0.07841
 C346 C 0.10442 0.58256 -0.09292
 N347 N 0.11484 0.56460 -0.13095
 C348 C 0.13892 0.58329 -0.15564
 C349 C 0.15359 0.62237 -0.14179
 N350 N 0.14302 0.63956 -0.10294
 N351 N 0.10847 0.63881 -0.04027
 C352 C 0.08403 0.62021 -0.01600
 C353 C 0.06934 0.58179 -0.03056
 N354 N 0.08008 0.56394 -0.06879
 H355 H 0.14645 0.56678 -0.18504
 H356 H 0.07617 0.63529 0.01424
 C357 C 0.60762 1.10906 0.39416
 C358 C 0.60744 1.06425 0.38968
 N359 N 0.62983 1.04501 0.36282
 C360 C 0.65249 1.06858 0.34021
 C361 C 0.65248 1.11351 0.34413
 N362 N 0.62987 1.13268 0.37102
 N363 N 0.58580 1.12816 0.42195
 C364 C 0.56370 1.10447 0.44542
 C365 C 0.56305 1.05963 0.44044
 N366 N 0.58502 1.04066 0.41251
 H367 H 0.67008 1.05248 0.31897
 H368 H 0.54649 1.12054 0.46721
 C369 C 0.11188 0.41522 0.15147
 C370 C 0.10856 0.40903 0.10608
 N371 N 0.12862 0.38055 0.08526
 C372 C 0.15189 0.35789 0.10780
 C373 C 0.15493 0.36345 0.15338
 N374 N 0.13469 0.39202 0.17414
 N375 N 0.09238 0.44450 0.17208
 C376 C 0.06957 0.46781 0.14937
 C377 C 0.06571 0.46107 0.10405
 N378 N 0.08538 0.43169 0.08355
 H379 H 0.16746 0.33519 0.09048
 H380 H 0.05425 0.49083 0.16664
 C381 C 0.61704 0.89958 0.62638
 C382 C 0.61476 0.89049 0.58139
 N383 N 0.63695 0.86324 0.56271
 C384 C 0.66132 0.84456 0.58700
 C385 C 0.66339 0.85303 0.63225
 N386 N 0.64101 0.88037 0.65080
 N387 N 0.59527 0.92747 0.64491
 C388 C 0.57120 0.94665 0.62051
 C389 C 0.56842 0.93705 0.57557
 N390 N 0.59038 0.90907 0.55714
 H391 H 0.67844 0.82258 0.57134
 H392 H 0.55411 0.96865 0.63619
 C393 C 0.88021 0.12150 0.08939
 C394 C 0.90172 0.09199 0.10948
 N395 N 0.89835 0.08343 0.15288
 C396 C 0.87440 0.10304 0.17716
 C397 C 0.85247 0.13208 0.15700
 N398 N 0.85592 0.14050 0.11342
 N399 N 0.88416 0.13097 0.04628
 C400 C 0.90864 0.11218 0.02225
 C401 C 0.92985 0.08201 0.04204
 N402 N 0.92577 0.07263 0.08532
 H403 H 0.87215 0.09554 0.21167
 H404 H 0.91118 0.12023 -0.01210
 C405 C 0.38328 0.62306 0.59609
 C406 C 0.39698 0.58424 0.61060
 N407 N 0.38659 0.56711 0.64911
 C408 C 0.36315 0.58712 0.67393
 C409 C 0.34931 0.62620 0.65959
 N410 N 0.35983 0.64297 0.62074
 N411 N 0.39360 0.64022 0.55757
 C412 C 0.41707 0.62027 0.53279
 C413 C 0.43085 0.58124 0.54712
 N414 N 0.42035 0.56420 0.58584
 H415 H 0.35502 0.57209 0.70400
 H416 H 0.42481 0.63474 0.50222
   
