data_POSCAR
  _audit_creation_date              2014-09-24
  _audit_creation_method            'ToBaCCo'
  _symmetry_space_group_name_H-M    'P1'
  _symmetry_Int_Tables_number       1
  _symmetry_cell_setting            triclinic
  loop_
  _symmetry_equiv_pos_as_xyz
 x,y,z
_cell_length_a 34.0364
_cell_length_b 35.1581
_cell_length_c 34.0344
_cell_angle_alpha 91.128500
_cell_angle_beta 90.930700
_cell_angle_gamma 91.321100
loop_
  _atom_site_label
  _atom_site_type_symbol
  _atom_site_fract_x
  _atom_site_fract_y
  _atom_site_fract_z
N1 N 0.27508 0.16414 0.18862
 N2 N 0.26882 0.19181 0.16401
 C3 C 0.29133 0.18689 0.13228
 C4 C 0.31309 0.15464 0.13755
 C5 C 0.30221 0.14093 0.17366
 H6 H 0.29244 0.20571 0.10756
 H7 H 0.31328 0.11613 0.18811
 Cu8 Cu 0.23285 0.23211 0.17672
 Cu9 Cu 0.24838 0.16125 0.23870
 Cu10 Cu 0.16707 0.21897 0.24689
 N11 N 0.19831 0.27271 0.19242
 N12 N 0.17122 0.26656 0.21880
 C13 C 0.14725 0.29639 0.22022
 C14 C 0.16050 0.32290 0.19381
 C15 C 0.19307 0.30716 0.17677
 H16 H 0.12137 0.29809 0.23816
 H17 H 0.20981 0.31873 0.15287
 N18 N 0.17795 0.17722 0.28288
 N19 N 0.20850 0.15496 0.27949
 C20 C 0.20701 0.12866 0.30767
 C21 C 0.17445 0.13530 0.33024
 C22 C 0.15677 0.16631 0.31393
 H23 H 0.22813 0.10649 0.31165
 H24 H 0.13018 0.17960 0.32361
 H25 H 0.19968 0.18138 0.21227
 H26 H 0.22638 0.21628 0.24563
 N27 N 0.73788 -0.20922 0.18569
 N28 N 0.72945 -0.24602 0.18710
 C29 C 0.69654 -0.25375 0.16577
 C30 C 0.68431 -0.22038 0.14918
 C31 C 0.71117 -0.19261 0.16242
 H32 H 0.68414 -0.28203 0.16052
 H33 H 0.71119 -0.16262 0.15592
 Cu34 Cu 0.76582 -0.28302 0.20926
 Cu35 Cu 0.78205 -0.18536 0.21596
 Cu36 Cu 0.84643 -0.24594 0.25322
 N37 N 0.81424 -0.31147 0.21301
 N38 N 0.84669 -0.29586 0.22811
 C39 C 0.87662 -0.31959 0.22265
 C40 C 0.86193 -0.35207 0.20340
 C41 C 0.82212 -0.34619 0.19822
 H42 H 0.90679 -0.31341 0.23153
 H43 H 0.80086 -0.36464 0.18289
 N44 N 0.83795 -0.19692 0.27825
 N45 N 0.81402 -0.17216 0.26291
 C46 C 0.81374 -0.14089 0.28649
 C47 C 0.83822 -0.14700 0.31853
 C48 C 0.85308 -0.18277 0.31231
 H49 H 0.79568 -0.11644 0.28166
 H50 H 0.87300 -0.19767 0.33136
 H51 H 0.80236 -0.23866 0.19691
 H52 H 0.77624 -0.23453 0.24448
 N53 N 0.71092 0.18230 0.80538
 N54 N 0.71884 0.20753 0.83358
 C55 C 0.69529 0.20050 0.86412
 C56 C 0.67119 0.16945 0.85419
 C57 C 0.68178 0.15868 0.81668
 H58 H 0.69505 0.21723 0.89112
 H59 H 0.66921 0.13556 0.79881
 Cu60 Cu 0.75718 0.24866 0.82648
 Cu61 Cu 0.73825 0.18270 0.75584
 Cu62 Cu 0.82689 0.23335 0.75958
 N63 N 0.80142 0.28401 0.82081
 N64 N 0.82908 0.27723 0.79526
 C65 C 0.85743 0.30438 0.79901
 C66 C 0.84676 0.32984 0.82823
 C67 C 0.81094 0.31615 0.84139
 H68 H 0.88374 0.30545 0.78163
 H69 H 0.79361 0.32808 0.86474
 N70 N 0.81277 0.19601 0.71754
 N71 N 0.77928 0.17630 0.71664
 C72 C 0.77917 0.15158 0.68597
 C73 C 0.81385 0.15669 0.66618
 C74 C 0.83442 0.18517 0.68668
 H75 H 0.75576 0.13117 0.67876
 H76 H 0.86350 0.19622 0.68034
 H77 H 0.78668 0.19788 0.78806
 H78 H 0.76750 0.23631 0.75639
 N79 N 0.27790 -0.17417 0.82655
 N80 N 0.27267 -0.20311 0.84996
 C81 C 0.30381 -0.20494 0.87465
 C82 C 0.32999 -0.17583 0.86588
 C83 C 0.31272 -0.15684 0.83521
 H84 H 0.30703 -0.22553 0.89761
 H85 H 0.32385 -0.13148 0.82128
 Cu86 Cu 0.22485 -0.23450 0.84700
 Cu87 Cu 0.23731 -0.15918 0.78942
 Cu88 Cu 0.17237 -0.23293 0.76289
 N89 N 0.17921 -0.26802 0.83806
 N90 N 0.15788 -0.26618 0.80563
 C91 C 0.12802 -0.29184 0.80684
 C92 C 0.13109 -0.31112 0.84178
 C93 C 0.16400 -0.29538 0.86086
 H94 H 0.10639 -0.29670 0.78354
 H95 H 0.17588 -0.30309 0.88919
 N96 N 0.18076 -0.18766 0.73069
 N97 N 0.20372 -0.15856 0.74197
 C98 C 0.20133 -0.13109 0.71509
 C99 C 0.17594 -0.14379 0.68535
 C100 C 0.16347 -0.17971 0.69607
 H101 H 0.21744 -0.10421 0.71664
 H102 H 0.14265 -0.19830 0.68030
 H103 H 0.18784 -0.19276 0.80404
 H104 H 0.22979 -0.21544 0.77870
 N105 N 0.73718 -0.15012 0.82378
 N106 N 0.74065 -0.18128 0.84416
 C107 C 0.71739 -0.17924 0.87570
 C108 C 0.69798 -0.14512 0.87483
 C109 C 0.71113 -0.12735 0.84139
 H110 H 0.71403 -0.20138 0.89708
 H111 H 0.70221 -0.10013 0.83046
 Cu112 Cu 0.77285 -0.22298 0.82610
 Cu113 Cu 0.76606 -0.14280 0.77525
 Cu114 Cu 0.84935 -0.19788 0.77066
 N115 N 0.81399 -0.25856 0.81383
 N116 N 0.84502 -0.24792 0.79396
 C117 C 0.87074 -0.27645 0.79314
 C118 C 0.85452 -0.30689 0.81297
 C119 C 0.81836 -0.29460 0.82551
 H120 H 0.89895 -0.27513 0.77899
 H121 H 0.79754 -0.31005 0.84321
 N122 N 0.84074 -0.15372 0.73688
 N123 N 0.80900 -0.13287 0.73841
 C124 C 0.81096 -0.10638 0.71040
 C125 C 0.84529 -0.11126 0.68990
 C126 C 0.86342 -0.14148 0.70741
 H127 H 0.78849 -0.08591 0.70451
 H128 H 0.89063 -0.15425 0.69873
 H129 H 0.78965 -0.19659 0.76256
 H130 H 0.80995 -0.16708 0.80472
 N131 N 0.25838 0.18901 0.81048
 N132 N 0.25074 0.21442 0.83800
 C133 C 0.27932 0.21406 0.86589
 C134 C 0.30651 0.18745 0.85467
 C135 C 0.29244 0.17227 0.81931
 H136 H 0.28077 0.23232 0.89185
 H137 H 0.30558 0.15020 0.80165
 Cu138 Cu 0.20562 0.24709 0.83278
 Cu139 Cu 0.22339 0.17906 0.76553
 Cu140 Cu 0.13195 0.22032 0.77100
 N141 N 0.16384 0.28174 0.81932
 N142 N 0.13425 0.27063 0.79621
 C143 C 0.10817 0.29875 0.79408
 C144 C 0.12256 0.32934 0.81654
 C145 C 0.15797 0.31764 0.83210
 H146 H 0.08086 0.29707 0.77736
 H147 H 0.17744 0.33363 0.85206
 N148 N 0.14303 0.17777 0.73465
 N149 N 0.17788 0.16218 0.73263
 C150 C 0.17615 0.13355 0.70577
 C151 C 0.13864 0.13150 0.68968
 C152 C 0.11840 0.16003 0.70846
 H153 H 0.20047 0.11568 0.69826
 H154 H 0.08800 0.16719 0.70360
 H155 H 0.19003 0.22837 0.76477
 H156 H 0.17652 0.19039 0.79999
 N157 N 0.27056 -0.16530 0.17943
 N158 N 0.26826 -0.19560 0.15614
 C159 C 0.29932 -0.19542 0.13216
 C160 C 0.32242 -0.16349 0.14115
 C161 C 0.30339 -0.14499 0.17132
 H162 H 0.30481 -0.21682 0.10979
 H163 H 0.31215 -0.11828 0.18557
 Cu164 Cu 0.22461 -0.23211 0.15907
 Cu165 Cu 0.22895 -0.15320 0.21610
 Cu166 Cu 0.16728 -0.22965 0.23797
 N167 N 0.18019 -0.26749 0.16395
 N168 N 0.15749 -0.26593 0.19481
 C169 C 0.13013 -0.29411 0.19199
 C170 C 0.13611 -0.31454 0.15759
 C171 C 0.16813 -0.29695 0.14049
 H172 H 0.10828 -0.29995 0.21393
 H173 H 0.18191 -0.30537 0.11337
 N174 N 0.17071 -0.18250 0.27006
 N175 N 0.19326 -0.15294 0.26120
 C176 C 0.18795 -0.12483 0.28794
 C177 C 0.16073 -0.13741 0.31479
 C178 C 0.15044 -0.17403 0.30259
 H179 H 0.20297 -0.09739 0.28806
 H180 H 0.12940 -0.19298 0.31610
 H181 H 0.22459 -0.20922 0.22734
 H182 H 0.18293 -0.19053 0.19771
 N183 N 0.73299 0.17263 0.17501
 N184 N 0.73935 0.19992 0.14985
 C185 C 0.70855 0.20115 0.12460
 C186 C 0.68129 0.17359 0.13492
 C187 C 0.69759 0.15605 0.16707
 H188 H 0.70595 0.22066 0.10059
 H189 H 0.68505 0.13245 0.18290
 Cu190 Cu 0.78702 0.23147 0.15269
 Cu191 Cu 0.77169 0.15976 0.21519
 Cu192 Cu 0.85310 0.22047 0.22557
 N193 N 0.83596 0.26117 0.15525
 N194 N 0.86195 0.25628 0.18359
 C195 C 0.89227 0.28101 0.17943
 C196 C 0.88476 0.30270 0.14685
 C197 C 0.84883 0.28939 0.13215
 H198 H 0.91728 0.28385 0.19936
 H199 H 0.83295 0.30003 0.10706
 N200 N 0.84449 0.17602 0.25889
 N201 N 0.81419 0.15214 0.25417
 C202 C 0.81726 0.12430 0.28064
 C203 C 0.85091 0.13124 0.30315
 C204 C 0.86745 0.16419 0.28863
 H205 H 0.79621 0.10113 0.28391
 H206 H 0.89432 0.17837 0.29888
 H207 H 0.79191 0.21446 0.22192
 H208 H 0.82126 0.18323 0.18908
 C209 C 0.14291 -0.00244 0.40147
 C210 C 0.14440 0.03114 0.42432
 C211 C 0.14078 0.02923 0.46518
 C212 C 0.13389 -0.00581 0.48358
 C213 C 0.13019 -0.03900 0.45964
 C214 C 0.13577 -0.03768 0.41887
 C215 C 0.13253 -0.00786 0.52755
 C216 C 0.14334 -0.04126 0.54685
 C217 C 0.14407 -0.04301 0.58797
 C218 C 0.13650 -0.01019 0.61036
 C219 C 0.12545 0.02331 0.59194
 C220 C 0.12217 0.02394 0.55081
 H221 H 0.14590 -0.00099 0.36990
 H222 H 0.14468 0.05523 0.48243
 H223 H 0.12374 -0.06616 0.47262
 H224 H 0.15240 -0.06594 0.53020
 H225 H 0.13769 -0.01099 0.64216
 H226 H 0.11249 0.04972 0.53724
 C227 C 0.84952 0.01852 0.59769
 C228 C 0.84578 0.05011 0.57362
 C229 C 0.84946 0.04569 0.53288
 C230 C 0.85881 0.01025 0.51574
 C231 C 0.86502 -0.02061 0.54093
 C232 C 0.85943 -0.01688 0.58163
 C233 C 0.86084 0.00534 0.47188
 C234 C 0.85332 -0.03049 0.45364
 C235 C 0.85405 -0.03522 0.41261
 C236 C 0.85950 -0.00324 0.38919
 C237 C 0.86700 0.03271 0.40655
 C238 C 0.86898 0.03658 0.44766
 H239 H 0.84659 0.02192 0.62921
 H240 H 0.84394 0.07002 0.51484
 H241 H 0.87372 -0.04784 0.52912
 H242 H 0.84598 -0.05491 0.47107
 H243 H 0.85957 -0.00645 0.35748
 H244 H 0.87612 0.06430 0.46046
 C245 C 0.38664 0.14973 -0.00812
 C246 C 0.40594 0.13869 0.02639
 C247 C 0.44689 0.13497 0.02674
 C248 C 0.46922 0.14441 -0.00632
 C249 C 0.44908 0.15548 -0.04067
 C250 C 0.40792 0.15706 -0.04214
 C251 C 0.51327 0.14397 -0.00470
 C252 C 0.53493 0.13877 -0.03928
 C253 C 0.57603 0.14243 -0.03869
 C254 C 0.59605 0.14897 -0.00287
 C255 C 0.57542 0.15183 0.03230
 C256 C 0.53418 0.15019 0.03114
 H257 H 0.35489 0.15131 -0.00878
 H258 H 0.46124 0.12554 0.05326
 H259 H 0.46518 0.16390 -0.06631
 H260 H 0.52000 0.13278 -0.06705
 H261 H 0.62787 0.15054 -0.00231
 H262 H 0.51872 0.15499 0.05822
 C263 C 0.61831 0.84216 0.01652
 C264 C 0.59472 0.82769 0.04631
 C265 C 0.55398 0.83187 0.04420
 C266 C 0.53643 0.85155 0.01317
 C267 C 0.56061 0.86626 -0.01647
 C268 C 0.60139 0.86062 -0.01556
 C269 C 0.49278 0.85379 0.01049
 C270 C 0.47315 0.84988 -0.02616
 C271 C 0.43199 0.84789 -0.02850
 C272 C 0.41025 0.84942 0.00608
 C273 C 0.42910 0.85433 0.04277
 C274 C 0.47028 0.85712 0.04478
 H275 H 0.64970 0.83766 0.01760
 H276 H 0.53595 0.81892 0.06646
 H277 H 0.54755 0.88077 -0.04102
 H278 H 0.48975 0.84670 -0.05284
 H279 H 0.37845 0.84808 0.00435
 H280 H 0.48478 0.86085 0.07319
 C281 C 0.02419 0.39009 0.14659
 C282 C 0.05700 0.41391 0.15494
 C283 C 0.05325 0.45348 0.15332
 C284 C 0.01712 0.46947 0.14273
 C285 C -0.01483 0.44490 0.13229
 C286 C -0.01175 0.40535 0.13509
 C287 C 0.01186 0.51146 0.14530
 C288 C -0.02428 0.52605 0.15725
 C289 C -0.02951 0.56529 0.16157
 C290 C 0.00237 0.59033 0.15549
 C291 C 0.03873 0.57650 0.14354
 C292 C 0.04307 0.53715 0.13776
 H293 H 0.02686 0.35950 0.14798
 H294 H 0.07812 0.47165 0.16199
 H295 H -0.04262 0.45653 0.12324
 H296 H -0.04828 0.50686 0.16445
 H297 H -0.00139 0.62072 0.15879
 H298 H 0.07102 0.52659 0.12817
 C299 C -0.01275 0.61290 0.84020
 C300 C 0.02168 0.59429 0.85070
 C301 C 0.02100 0.55461 0.85400
 C302 C -0.01333 0.53284 0.84458
 C303 C -0.04780 0.55232 0.83447
 C304 C -0.04797 0.59223 0.83344
 C305 C -0.01298 0.49015 0.84443
 C306 C -0.04774 0.46857 0.85056
 C307 C -0.04817 0.42874 0.84705
 C308 C -0.01308 0.41000 0.83976
 C309 C 0.02233 0.43055 0.83568
 C310 C 0.02196 0.47050 0.83699
 H311 H -0.01238 0.64369 0.83929
 H312 H 0.04761 0.54094 0.86338
 H313 H -0.07460 0.53672 0.82662
 H314 H -0.07483 0.48252 0.85737
 H315 H -0.01322 0.37920 0.83865
 H316 H 0.04893 0.48605 0.83115
 N317 N 0.39306 0.10811 0.09102
 N318 N 0.36836 0.11225 0.12030
 C319 C 0.34291 0.13958 0.11107
 C320 C 0.35136 0.15307 0.07421
 C321 C 0.38347 0.13251 0.06253
 H322 H 0.33735 0.17588 0.05882
 H323 H 0.41619 0.08910 0.09093
 H324 H 0.36975 0.09727 0.14646
 N325 N 0.59914 0.77024 0.08730
 N326 N 0.62505 0.75633 0.11541
 C327 C 0.65277 0.78361 0.12304
 C328 C 0.64563 0.81496 0.09999
 C329 C 0.61215 0.80527 0.07790
 H330 H 0.66318 0.84094 0.09841
 H331 H 0.57533 0.75496 0.07464
 H332 H 0.62264 0.72948 0.12784
 N333 N 0.58727 0.11995 -0.10784
 N334 N 0.61257 0.12697 -0.13599
 C335 C 0.63966 0.15267 -0.12229
 C336 C 0.63159 0.16211 -0.08370
 C337 C 0.59807 0.14081 -0.07564
 H338 H 0.64708 0.18260 -0.06462
 H339 H 0.56309 0.10123 -0.11089
 H340 H 0.61067 0.11487 -0.16425
 N341 N 0.42329 0.86192 -0.09984
 N342 N 0.39600 0.85627 -0.12757
 C343 C 0.36668 0.83471 -0.11298
 C344 C 0.37546 0.82640 -0.07437
 C345 C 0.41148 0.84446 -0.06700
 H346 H 0.35742 0.81070 -0.05408
 H347 H 0.44869 0.87873 -0.10304
 H348 H 0.39731 0.86749 -0.15572
 N349 N 0.13031 0.41111 0.15360
 N350 N 0.15769 0.38678 0.16335
 C351 C 0.14049 0.35740 0.18178
 C352 C 0.10054 0.36307 0.18374
 C353 C 0.09516 0.39728 0.16516
 H354 H 0.07832 0.34397 0.19520
 H355 H 0.13553 0.43575 0.13768
 H356 H 0.18741 0.38992 0.15663
 N357 N 0.08353 0.61082 0.88841
 N358 N 0.11380 0.63814 0.88630
 C359 C 0.10664 0.65932 0.85448
 C360 C 0.07187 0.64667 0.83622
 C361 C 0.05833 0.61653 0.85831
 H362 H 0.05806 0.65781 0.81012
 H363 H 0.08093 0.59047 0.91021
 H364 H 0.13780 0.64055 0.90577
 N365 N -0.10289 0.56227 0.16067
 N366 N -0.13331 0.58577 0.17197
 C367 C -0.11694 0.61700 0.18969
 C368 C -0.07630 0.61425 0.19016
 C369 C -0.06865 0.57983 0.17144
 H370 H -0.05499 0.63510 0.20161
 H371 H -0.10670 0.53679 0.14464
 H372 H -0.16312 0.57982 0.16658
 N373 N -0.11531 0.41566 0.87366
 N374 N -0.14461 0.38744 0.86857
 C375 C -0.13193 0.36205 0.84170
 C376 C -0.09475 0.37304 0.82954
 C377 C -0.08531 0.40648 0.85020
 H378 H -0.07679 0.35870 0.80817
 H379 H -0.11667 0.43895 0.89307
 H380 H -0.17143 0.38701 0.88304
 N381 N 0.13028 0.10006 0.41742
 N382 N 0.13749 0.12732 0.39218
 C383 C 0.16098 0.11363 0.36405
 C384 C 0.16893 0.07602 0.37143
 C385 C 0.14868 0.06841 0.40548
 H386 H 0.18608 0.05669 0.35392
 H387 H 0.11196 0.10287 0.44158
 H388 H 0.12625 0.15467 0.39419
 N389 N 0.85926 0.11999 0.57979
 N390 N 0.85175 0.14799 0.60482
 C391 C 0.82722 0.13460 0.63219
 C392 C 0.81892 0.09646 0.62458
 C393 C 0.84010 0.08820 0.59122
 H394 H 0.80148 0.07712 0.64191
 H395 H 0.87860 0.12233 0.55639
 H396 H 0.86371 0.17555 0.60340
 N397 N 0.14022 -0.11387 0.59171
 N398 N 0.14790 -0.14032 0.61756
 C399 C 0.16433 -0.12348 0.64986
 C400 C 0.16714 -0.08458 0.64451
 C401 C 0.15132 -0.07960 0.60720
 H402 H 0.17822 -0.06300 0.66519
 H403 H 0.12637 -0.11929 0.56450
 H404 H 0.14165 -0.16932 0.61310
 N405 N 0.86392 -0.10534 0.41250
 N406 N 0.86052 -0.13449 0.38757
 C407 C 0.84530 -0.12235 0.35342
 C408 C 0.83873 -0.08368 0.35664
 C409 C 0.85114 -0.07390 0.39468
 H410 H 0.82746 -0.06526 0.33421
 H411 H 0.87615 -0.10697 0.44074
 H412 H 0.86885 -0.16213 0.39395
 N413 N 0.61880 0.89920 -0.07452
 N414 N 0.64440 0.89769 -0.10332
 C415 C 0.66797 0.86797 -0.09755
 C416 C 0.65724 0.85012 -0.06334
 C417 C 0.62585 0.87069 -0.04960
 H418 H 0.66929 0.82458 -0.05120
 H419 H 0.59669 0.91921 -0.07240
 H420 H 0.64485 0.91611 -0.12702
 N421 N 0.40045 0.15347 -0.11523
 N422 N 0.37352 0.16078 -0.14224
 C423 C 0.34288 0.17714 -0.12464
 C424 C 0.35049 0.18029 -0.08458
 C425 C 0.38734 0.16465 -0.07975
 H426 H 0.33132 0.19110 -0.06211
 H427 H 0.42660 0.13960 -0.12105
 H428 H 0.37603 0.15415 -0.17213
 N429 N 0.41408 0.87804 0.11079
 N430 N 0.38558 0.87385 0.13644
 C431 C 0.35862 0.84868 0.12145
 C432 C 0.37023 0.83655 0.08463
 C433 C 0.40547 0.85597 0.07882
 H434 H 0.35496 0.81669 0.06469
 H435 H 0.43842 0.89640 0.11488
 H436 H 0.38478 0.88798 0.16368
 N437 N 0.58541 0.13957 0.10392
 N438 N 0.61369 0.14449 0.13076
 C439 C 0.64372 0.16405 0.11479
 C440 C 0.63428 0.17185 0.07616
 C441 C 0.59712 0.15557 0.07024
 H442 H 0.65254 0.18611 0.05498
 H443 H 0.55931 0.12414 0.10830
 H444 H 0.61252 0.13412 0.15927
 N445 N -0.12009 0.59978 0.84183
 N446 N -0.14711 0.62867 0.83732
 C447 C -0.12845 0.65811 0.82030
 C448 C -0.08965 0.64880 0.81354
 C449 C -0.08538 0.61234 0.82793
 H450 H -0.06689 0.66699 0.80161
 H451 H -0.12560 0.57446 0.85652
 H452 H -0.17617 0.62729 0.84665
 N453 N -0.07641 0.38708 0.10278
 N454 N -0.10353 0.35979 0.10571
 C455 C -0.09153 0.33510 0.13294
 C456 C -0.05504 0.34688 0.14764
 C457 C -0.04650 0.38005 0.12787
 H458 H -0.03789 0.33408 0.17072
 H459 H -0.07867 0.41013 0.08405
 H460 H -0.13014 0.35881 0.08997
 N461 N 0.09511 0.42389 0.84435
 N462 N 0.12135 0.39705 0.83998
 C463 C 0.10338 0.36585 0.82386
 C464 C 0.06400 0.37310 0.81767
 C465 C 0.05977 0.41023 0.83136
 H466 H 0.04143 0.35357 0.80615
 H467 H 0.10122 0.45048 0.85754
 H468 H 0.15087 0.40001 0.84859
 N469 N 0.10103 0.59821 0.11158
 N470 N 0.12639 0.62720 0.11497
 C471 C 0.11440 0.65098 0.14365
 C472 C 0.07976 0.63676 0.15892
 C473 C 0.07223 0.60321 0.13781
 H474 H 0.06289 0.64868 0.18267
 H475 H 0.10348 0.57561 0.09146
 H476 H 0.15173 0.63014 0.09831
 N477 N 0.88991 -0.07789 0.60181
 N478 N 0.88658 -0.10234 0.63065
 C479 C 0.85843 -0.09051 0.65512
 C480 C 0.84339 -0.05691 0.64146
 C481 C 0.86418 -0.04981 0.60755
 H482 H 0.82028 -0.04022 0.65414
 H483 H 0.90988 -0.08032 0.57897
 H484 H 0.90309 -0.12688 0.63310
 N485 N 0.11494 -0.10536 0.40331
 N486 N 0.12152 -0.13148 0.37589
 C487 C 0.14589 -0.11649 0.34919
 C488 C 0.15503 -0.07912 0.35991
 C489 C 0.13485 -0.07310 0.39451
 H490 H 0.17434 -0.05939 0.34508
 H491 H 0.09681 -0.10974 0.42733
 H492 H 0.10963 -0.15912 0.37582
 N493 N 0.89684 0.09612 0.39032
 N494 N 0.89279 0.12188 0.36287
 C495 C 0.86525 0.10922 0.33658
 C496 C 0.85151 0.07365 0.34744
 C497 C 0.87226 0.06639 0.38175
 H498 H 0.82877 0.05607 0.33316
 H499 H 0.91612 0.09905 0.41443
 H500 H 0.90808 0.14797 0.36281
 N501 N 0.08953 0.08271 0.60873
 N502 N 0.09270 0.11096 0.63492
 C503 C 0.12395 0.10494 0.65860
 C504 C 0.14108 0.07117 0.64742
 C505 C 0.11835 0.05795 0.61571
 H506 H 0.16703 0.05851 0.65989
 H507 H 0.06798 0.08056 0.58654
 H508 H 0.07432 0.13433 0.63580
   
