data_POSCAR
  _audit_creation_date              2014-09-24
  _audit_creation_method            'ToBaCCo'
  _symmetry_space_group_name_H-M    'P1'
  _symmetry_Int_Tables_number       1
  _symmetry_cell_setting            triclinic
  loop_
  _symmetry_equiv_pos_as_xyz
 x,y,z
_cell_length_a 53.9965
_cell_length_b 54.4096
_cell_length_c 55.1301
_cell_angle_alpha 90.030500
_cell_angle_beta 90.360300
_cell_angle_gamma 89.754100
loop_
  _atom_site_label
  _atom_site_type_symbol
  _atom_site_fract_x
  _atom_site_fract_y
  _atom_site_fract_z
C1 C 0.21608 0.52110 1.03133
 H2 H 0.21615 0.53645 1.01886
 C3 C 0.20015 0.52132 1.05118
 H4 H 0.18787 0.53693 1.05313
 C5 C 0.23091 0.48160 1.04206
 H6 H 0.24268 0.46598 1.03827
 C7 C 0.21509 0.48087 1.06197
 H8 H 0.21605 0.46490 1.07361
 N9 N 0.23113 0.50151 1.02722
 C10 C 0.28715 0.53123 0.97872
 H11 H 0.28569 0.51818 0.96397
 C12 C 0.30414 0.55042 0.97739
 H13 H 0.31537 0.55221 0.96130
 C14 C 0.27399 0.54465 1.01746
 H15 H 0.26258 0.54202 1.03326
 C16 C 0.29089 0.56402 1.01698
 H17 H 0.29227 0.57609 1.03254
 Zn18 Zn 0.25057 0.50166 0.99878
 N19 N 0.27231 0.52885 0.99839
 C20 C 0.22809 0.52227 0.95649
 N21 N 0.22828 0.50297 0.97218
 C22 C 0.21160 0.48444 0.97007
 C23 C 0.19426 0.48446 0.95119
 C24 C 0.21094 0.52312 0.93743
 C25 C 0.28760 0.46995 1.01529
 C26 C 0.30317 0.44942 1.01543
 C27 C 0.28368 0.43572 0.97827
 C28 C 0.26845 0.45654 0.97886
 N29 N 0.27048 0.47299 0.99735
 H30 H 0.24100 0.53719 0.95885
 H31 H 0.21179 0.46961 0.98314
 H32 H 0.18104 0.46960 0.94988
 H33 H 0.21117 0.53850 0.92498
 H34 H 0.28912 0.48356 1.02953
 H35 H 0.31682 0.44748 1.02977
 H36 H 0.28156 0.42266 0.96360
 H37 H 0.25516 0.45955 0.96444
 C38 C 0.30627 0.56713 0.99673
 C39 C 0.19910 0.50085 1.06691
 C40 C 0.30128 0.43191 0.99678
 C41 C 0.19380 0.50399 0.93457
 C42 C 0.78319 0.51663 -0.03019
 H43 H 0.78357 0.53119 -0.01682
 C44 C 0.79940 0.51721 -0.04980
 H45 H 0.81233 0.53227 -0.05136
 C46 C 0.76653 0.47875 -0.04372
 H47 H 0.75400 0.46359 -0.04105
 C48 C 0.78254 0.47852 -0.06352
 H49 H 0.78185 0.46333 -0.07620
 N50 N 0.76709 0.49768 -0.02760
 C51 C 0.71074 0.52773 0.02040
 H52 H 0.71148 0.51420 0.03476
 C53 C 0.69396 0.54725 0.02172
 H54 H 0.68218 0.54881 0.03747
 C55 C 0.72540 0.54195 -0.01747
 H56 H 0.73729 0.53950 -0.03298
 C57 C 0.70873 0.56168 -0.01699
 H58 H 0.70802 0.57419 -0.03223
 Zn59 Zn 0.74706 0.49752 0.00039
 N60 N 0.72616 0.52554 0.00112
 C61 C 0.76921 0.51642 0.04339
 N62 N 0.76872 0.49726 0.02753
 C63 C 0.78493 0.47817 0.02965
 C64 C 0.80228 0.47765 0.04854
 C65 C 0.78635 0.51672 0.06246
 C66 C 0.70883 0.46889 -0.01774
 C67 C 0.69158 0.44992 -0.01859
 C68 C 0.71008 0.43288 0.01775
 C69 C 0.72697 0.45230 0.01795
 N70 N 0.72607 0.46976 0.00030
 H71 H 0.75668 0.53176 0.04105
 H72 H 0.78453 0.46346 0.01644
 H73 H 0.81525 0.46247 0.04973
 H74 H 0.78643 0.53209 0.07494
 H75 H 0.70838 0.48317 -0.03139
 H76 H 0.67804 0.44955 -0.03315
 H77 H 0.71071 0.41939 0.03217
 H78 H 0.74041 0.45362 0.03248
 C79 C 0.69264 0.56449 0.00278
 C80 C 0.79930 0.49790 -0.06670
 C81 C 0.69193 0.43168 -0.00058
 C82 C 0.80322 0.49719 0.06517
 C83 C -0.01388 0.29296 0.47279
 H84 H -0.02721 0.29474 0.48727
 C85 C -0.01477 0.30908 0.45315
 H86 H -0.02859 0.32349 0.45357
 C87 C 0.02116 0.27279 0.45654
 H88 H 0.03522 0.25868 0.45801
 C89 C 0.02100 0.28851 0.43650
 H90 H 0.03464 0.28525 0.42260
 N91 N 0.00372 0.27513 0.47404
 C92 C -0.02867 0.21923 0.52042
 H93 H -0.01487 0.21826 0.53470
 C94 C -0.04903 0.20351 0.52080
 H95 H -0.05071 0.19035 0.53542
 C96 C -0.04249 0.23681 0.48339
 H97 H -0.03965 0.24948 0.46860
 C98 C -0.06307 0.22136 0.48299
 H99 H -0.07615 0.22264 0.46807
 Zn100 Zn 0.00333 0.25468 0.50175
 N101 N -0.02581 0.23549 0.50194
 C102 C -0.01481 0.27661 0.54491
 N103 N 0.00449 0.27553 0.52921
 C104 C 0.02432 0.29064 0.53171
 C105 C 0.02548 0.30743 0.55082
 C106 C -0.01455 0.29331 0.56415
 C107 C 0.03048 0.21527 0.48364
 C108 C 0.04893 0.19726 0.48294
 C109 C 0.06704 0.21492 0.51911
 C110 C 0.04813 0.23254 0.51920
 N111 N 0.03040 0.23246 0.50154
 H112 H -0.03077 0.26501 0.54220
 H113 H 0.03920 0.28972 0.51868
 H114 H 0.04164 0.31900 0.55263
 H115 H -0.03043 0.29432 0.57600
 H116 H 0.01596 0.21542 0.47002
 H117 H 0.04868 0.18375 0.46852
 H118 H 0.08076 0.21497 0.53353
 H119 H 0.04740 0.24590 0.53366
 C120 C -0.06646 0.20432 0.50180
 C121 C 0.00279 0.30716 0.43432
 C122 C 0.06745 0.19685 0.50092
 C123 C 0.00576 0.30911 0.56728
 C124 C 0.97988 0.70858 0.52700
 H125 H 0.96649 0.70705 0.51240
 C126 C 0.97866 0.69272 0.54684
 H127 H 0.96436 0.67885 0.54719
 C128 C 1.01551 0.72780 0.54345
 H129 H 1.03012 0.74117 0.54189
 C130 C 1.01486 0.71246 0.56373
 H131 H 1.02872 0.71469 0.57781
 N132 N 0.99805 0.72573 0.52568
 C133 C 0.97022 0.78288 0.47738
 H134 H 0.98456 0.78263 0.46376
 C135 C 0.95142 0.80052 0.47626
 H136 H 0.95121 0.81364 0.46150
 C137 C 0.95348 0.76633 0.51347
 H138 H 0.95472 0.75339 0.52828
 C139 C 0.93425 0.78361 0.51300
 H140 H 0.92083 0.78377 0.52750
 Zn141 Zn 0.99891 0.74532 0.49736
 N142 N 0.97101 0.76636 0.49586
 C143 C 0.98059 0.72345 0.45392
 N144 N 0.99928 0.72360 0.47057
 C145 C 1.01827 0.70719 0.46938
 C146 C 1.01928 0.69003 0.45061
 C147 C 0.98069 0.70637 0.43497
 C148 C 1.02924 0.78289 0.51511
 C149 C 1.04930 0.79899 0.51564
 C150 C 1.06465 0.77994 0.47908
 C151 C 1.04438 0.76410 0.47933
 N152 N 1.02729 0.76568 0.49730
 H153 H 0.96532 0.73623 0.45556
 H154 H 1.03271 0.70751 0.48307
 H155 H 1.03489 0.67753 0.44979
 H156 H 0.96534 0.70620 0.42225
 H157 H 1.01507 0.78416 0.52884
 H158 H 1.05040 0.81272 0.52983
 H159 H 1.07815 0.77832 0.46472
 H160 H 1.04219 0.75081 0.46493
 C161 C 0.93329 0.80122 0.49440
 C162 C 0.99633 0.69451 0.56558
 C163 C 1.06730 0.79766 0.49742
 C164 C 1.00023 0.68931 0.43312
 C165 C 0.46917 -0.01698 0.28886
 H166 H 0.48265 -0.03175 0.28901
 C167 C 0.44952 -0.01724 0.30516
 H168 H 0.44802 -0.03228 0.31792
 C169 C 0.45541 0.02106 0.27260
 H170 H 0.45801 0.03612 0.26012
 C171 C 0.43557 0.02164 0.28875
 H172 H 0.42276 0.03700 0.28829
 N173 N 0.47165 0.00187 0.27290
 C174 C 0.51867 -0.03047 0.21729
 H175 H 0.53386 -0.01756 0.21742
 C176 C 0.51897 -0.05038 0.20131
 H177 H 0.53444 -0.05192 0.18904
 C178 C 0.47954 -0.04232 0.23220
 H179 H 0.46405 -0.03897 0.24407
 C180 C 0.47886 -0.06230 0.21630
 H181 H 0.46307 -0.07441 0.21721
 Zn182 Zn 0.49976 0.00122 0.25265
 N183 N 0.49930 -0.02696 0.23250
 C184 C 0.54387 -0.01845 0.27377
 N185 N 0.52783 0.00091 0.27340
 C186 C 0.53038 0.02000 0.28914
 C187 C 0.54997 0.02039 0.30577
 C188 C 0.56363 -0.01889 0.29023
 C189 C 0.48143 0.03035 0.21517
 C190 C 0.48065 0.04964 0.19852
 C191 C 0.51807 0.06578 0.21658
 C192 C 0.51823 0.04605 0.23281
 N193 N 0.49994 0.02894 0.23193
 H194 H 0.54114 -0.03380 0.26165
 H195 H 0.51699 0.03485 0.28888
 H196 H 0.55153 0.03562 0.31833
 H197 H 0.57627 -0.03440 0.29023
 H198 H 0.46737 0.01625 0.21461
 H199 H 0.46600 0.05004 0.18503
 H200 H 0.53260 0.07938 0.21781
 H201 H 0.53309 0.04436 0.24590
 C202 C 0.49877 -0.06677 0.20036
 C203 C 0.43246 0.00229 0.30530
 C204 C 0.49913 0.06774 0.19907
 C205 C 0.56685 0.00071 0.30651
 C206 C 0.53468 -0.02022 0.71285
 H207 H 0.52166 -0.03529 0.71279
 C208 C 0.55448 -0.02027 0.69667
 H209 H 0.55657 -0.03545 0.68413
 C210 C 0.54699 0.01844 0.72851
 H211 H 0.54374 0.03374 0.74058
 C212 C 0.56693 0.01922 0.71253
 H213 H 0.57915 0.03495 0.71283
 N214 N 0.53138 -0.00112 0.72844
 C215 C 0.48485 -0.02969 0.78616
 H216 H 0.47050 -0.01575 0.78590
 C217 C 0.48452 -0.04811 0.80373
 H218 H 0.46965 -0.04842 0.81681
 C219 C 0.52193 -0.04583 0.76962
 H220 H 0.53682 -0.04450 0.75671
 C221 C 0.52222 -0.06473 0.78682
 H222 H 0.53736 -0.07785 0.78693
 Zn223 Zn 0.50304 -0.00142 0.74848
 N224 N 0.50338 -0.02881 0.76962
 C225 C 0.45896 -0.02163 0.72831
 N226 N 0.47498 -0.00241 0.72776
 C227 C 0.47213 0.01616 0.71146
 C228 C 0.45228 0.01610 0.69511
 C229 C 0.43896 -0.02253 0.71212
 C230 C 0.52096 0.02968 0.78476
 C231 C 0.52087 0.04933 0.80105
 C232 C 0.48186 0.06277 0.78383
 C233 C 0.48276 0.04291 0.76777
 N234 N 0.50217 0.02690 0.76847
 H235 H 0.46183 -0.03646 0.74105
 H236 H 0.48542 0.03098 0.71112
 H237 H 0.45046 0.03091 0.68211
 H238 H 0.42634 -0.03793 0.71283
 H239 H 0.53591 0.01637 0.78527
 H240 H 0.53580 0.05097 0.81414
 H241 H 0.46628 0.07534 0.78301
 H242 H 0.46768 0.04008 0.75513
 C243 C 0.50350 -0.06581 0.80435
 C244 C 0.57081 -0.00026 0.69626
 C245 C 0.50105 0.06611 0.80081
 C246 C 0.43544 -0.00349 0.69525
 Si247 Si 0.24960 -0.00451 0.50064
 Si248 Si 0.75341 0.00442 0.50105
 Si249 Si 0.49574 0.24538 0.99935
 Si250 Si 0.49988 0.75493 0.00316
 Si251 Si 1.00248 0.49671 0.24712
 Si252 Si -0.00415 0.50303 0.75168
 C253 C 0.12243 0.13918 0.50196
 C254 C 0.12927 0.16367 0.50651
 C255 C 0.11145 0.18244 0.50623
 C256 C 0.08650 0.17713 0.50116
 C257 C 0.07971 0.15268 0.49652
 C258 C 0.09743 0.13394 0.49698
 C259 C 0.14107 0.11909 0.50245
 N260 N 0.13378 0.09527 0.50128
 N261 N 0.15034 0.07710 0.50164
 C262 C 0.17496 0.08191 0.50314
 N263 N 0.18231 0.10575 0.50430
 N264 N 0.16570 0.12396 0.50401
 C265 C 0.19321 0.06147 0.50327
 C266 C 0.21876 0.06595 0.50140
 C267 C 0.23568 0.04638 0.50085
 C268 C 0.22741 0.02200 0.50210
 C269 C 0.20198 0.01762 0.50472
 C270 C 0.18509 0.03706 0.50513
 H271 H 0.14835 0.16835 0.51043
 H272 H 0.11722 0.20116 0.50971
 H273 H 0.06058 0.14798 0.49289
 H274 H 0.09148 0.11530 0.49338
 H275 H 0.22568 0.08455 0.50015
 H276 H 0.25516 0.05045 0.49954
 H277 H 0.19489 -0.00080 0.50660
 H278 H 0.16560 0.03289 0.50698
 C279 C 0.63866 0.62326 0.00461
 C280 C 0.63297 0.59984 0.01370
 C281 C 0.65042 0.58085 0.01300
 C282 C 0.67413 0.58482 0.00339
 C283 C 0.67985 0.60827 -0.00569
 C284 C 0.66229 0.62725 -0.00516
 C285 C 0.61991 0.64323 0.00529
 N286 N 0.62325 0.66451 -0.00715
 N287 N 0.60607 0.68219 -0.00680
 C288 C 0.58491 0.67936 0.00610
 N289 N 0.58168 0.65814 0.01862
 N290 N 0.59878 0.64046 0.01820
 C291 C 0.56540 0.69862 0.00615
 C292 C 0.54517 0.69674 0.02197
 C293 C 0.52612 0.71412 0.02135
 C294 C 0.52681 0.73365 0.00485
 C295 C 0.54709 0.73599 -0.01068
 C296 C 0.56632 0.71864 -0.00999
 H297 H 0.61488 0.59603 0.02115
 H298 H 0.64516 0.56293 0.01968
 H299 H 0.69803 0.61206 -0.01293
 H300 H 0.66731 0.64510 -0.01221
 H301 H 0.54390 0.68168 0.03473
 H302 H 0.51057 0.71206 0.03349
 H303 H 0.54800 0.75098 -0.02352
 H304 H 0.58163 0.72065 -0.02241
 C305 C 0.87877 -0.14071 0.49617
 C306 C 0.87192 -0.16511 0.50108
 C307 C 0.88954 -0.18404 0.50040
 C308 C 0.91430 -0.17898 0.49459
 C309 C 0.92107 -0.15465 0.48946
 C310 C 0.90356 -0.13575 0.49030
 C311 C 0.86043 -0.12040 0.49739
 N312 N 0.86795 -0.09667 0.49602
 N313 N 0.85166 -0.07829 0.49718
 C314 C 0.82711 -0.08280 0.49973
 N315 N 0.81952 -0.10655 0.50107
 N316 N 0.83585 -0.12497 0.49998
 C317 C 0.80915 -0.06215 0.50082
 C318 C 0.78347 -0.06632 0.49992
 C319 C 0.76678 -0.04656 0.50027
 C320 C 0.77540 -0.02229 0.50148
 C321 C 0.80099 -0.01822 0.50314
 C322 C 0.81766 -0.03785 0.50265
 H323 H 0.85299 -0.16956 0.50567
 H324 H 0.88378 -0.20266 0.50428
 H325 H 0.94008 -0.15013 0.48527
 H326 H 0.90951 -0.11720 0.48640
 H327 H 0.77627 -0.08482 0.49875
 H328 H 0.74721 -0.05040 0.49971
 H329 H 0.80838 0.00011 0.50493
 H330 H 0.83727 -0.03393 0.50377
 C331 C 0.35097 0.36964 0.99634
 C332 C 0.34462 0.38171 0.97460
 C333 C 0.32826 0.40169 0.97469
 C334 C 0.31787 0.41007 0.99651
 C335 C 0.32386 0.39773 1.01817
 C336 C 0.34021 0.37776 1.01809
 C337 C 0.36934 0.34929 0.99645
 N338 N 0.37659 0.33860 1.01760
 N339 N 0.39392 0.32110 1.01785
 C340 C 0.40473 0.31352 0.99694
 N341 N 0.39729 0.32403 0.97576
 N342 N 0.37997 0.34154 0.97552
 C343 C 0.42509 0.29513 0.99738
 C344 C 0.43662 0.28774 0.97574
 C345 C 0.45710 0.27197 0.97633
 C346 C 0.46629 0.26316 0.99850
 C347 C 0.45458 0.26999 1.02009
 C348 C 0.43407 0.28574 1.01954
 H349 H 0.35258 0.37600 0.95752
 H350 H 0.32423 0.41097 0.95774
 H351 H 0.31584 0.40350 1.03521
 H352 H 0.34457 0.36884 1.03515
 H353 H 0.43025 0.29462 0.95835
 H354 H 0.46618 0.26721 0.95950
 H355 H 0.46170 0.26378 1.03744
 H356 H 0.42572 0.29108 1.03656
 C357 C 0.87416 0.15164 0.50002
 C358 C 0.88050 0.16364 0.52177
 C359 C 0.89955 0.18097 0.52232
 C360 C 0.91257 0.18680 0.50111
 C361 C 0.90590 0.17518 0.47928
 C362 C 0.88696 0.15778 0.47874
 C363 C 0.85493 0.13226 0.49959
 N364 N 0.85100 0.11868 0.47927
 N365 N 0.83447 0.10060 0.47907
 C366 C 0.82109 0.09533 0.49917
 N367 N 0.82484 0.10906 0.51945
 N368 N 0.84143 0.12713 0.51966
 C369 C 0.80356 0.07444 0.49919
 C370 C 0.78807 0.07012 0.51916
 C371 C 0.77249 0.04965 0.51956
 C372 C 0.77213 0.03315 0.50002
 C373 C 0.78739 0.03751 0.48002
 C374 C 0.80282 0.05801 0.47951
 H375 H 0.87101 0.15939 0.53849
 H376 H 0.90411 0.18984 0.53936
 H377 H 0.91578 0.17905 0.46270
 H378 H 0.88258 0.14893 0.46166
 H379 H 0.78821 0.08238 0.53464
 H380 H 0.76122 0.04650 0.53539
 H381 H 0.78772 0.02474 0.46495
 H382 H 0.81458 0.06063 0.46390
 C383 C 0.36006 0.62559 -0.00527
 C384 C 0.33676 0.62943 0.00534
 C385 C 0.31926 0.61057 0.00586
 C386 C 0.32472 0.58736 -0.00405
 C387 C 0.34805 0.58355 -0.01463
 C388 C 0.36546 0.60245 -0.01532
 C389 C 0.37882 0.64541 -0.00554
 N390 N 0.39975 0.64302 -0.01888
 N391 N 0.41692 0.66052 -0.01871
 C392 C 0.41392 0.68115 -0.00515
 N393 N 0.39293 0.68361 0.00812
 N394 N 0.37572 0.66613 0.00788
 C395 C 0.43356 0.70010 -0.00419
 C396 C 0.43288 0.71889 0.01332
 C397 C 0.45225 0.73577 0.01523
 C398 C 0.47243 0.73453 -0.00063
 C399 C 0.47299 0.71599 -0.01829
 C400 C 0.45377 0.69898 -0.02010
 H401 H 0.33195 0.64708 0.01313
 H402 H 0.30134 0.61426 0.01381
 H403 H 0.35309 0.56580 -0.02203
 H404 H 0.38329 0.59878 -0.02345
 H405 H 0.41773 0.72015 0.02604
 H406 H 0.45153 0.74928 0.02953
 H407 H 0.48876 0.71400 -0.03015
 H408 H 0.45499 0.68467 -0.03371
 C409 C 0.12711 -0.15014 0.49683
 C410 C 0.12004 -0.16157 0.51858
 C411 C 0.10078 -0.17867 0.51875
 C412 C 0.08829 -0.18484 0.49717
 C413 C 0.09563 -0.17376 0.47538
 C414 C 0.11477 -0.15657 0.47522
 C415 C 0.14665 -0.13109 0.49675
 N416 N 0.15086 -0.11753 0.47654
 N417 N 0.16770 -0.09972 0.47665
 C418 C 0.18113 -0.09475 0.49696
 N419 N 0.17711 -0.10847 0.51713
 N420 N 0.16021 -0.12624 0.51704
 C421 C 0.19896 -0.07411 0.49734
 C422 C 0.21495 -0.07049 0.51726
 C423 C 0.23077 -0.05019 0.51804
 C424 C 0.23083 -0.03319 0.49895
 C425 C 0.21508 -0.03687 0.47899
 C426 C 0.19945 -0.05720 0.47808
 H427 H 0.12915 -0.15708 0.53555
 H428 H 0.09569 -0.18712 0.53577
 H429 H 0.08617 -0.17795 0.45851
 H430 H 0.11973 -0.14815 0.45814
 H431 H 0.21502 -0.08314 0.53241
 H432 H 0.24241 -0.04756 0.53385
 H433 H 0.21450 -0.02368 0.46429
 H434 H 0.18728 -0.05928 0.46253
 C435 C 0.63606 0.37528 0.99949
 C436 C 0.66091 0.36934 1.00471
 C437 C 0.67910 0.38762 1.00481
 C438 C 0.67283 0.41214 0.99950
 C439 C 0.64802 0.41803 0.99430
 C440 C 0.62987 0.39986 0.99433
 C441 C 0.61654 0.35618 0.99948
 N442 N 0.59238 0.36265 0.99676
 N443 N 0.57468 0.34572 0.99675
 C444 C 0.58032 0.32152 0.99940
 N445 N 0.60450 0.31497 1.00208
 N446 N 0.62225 0.33196 1.00215
 C447 C 0.56033 0.30290 0.99943
 C448 C 0.56571 0.27757 0.99959
 C449 C 0.54653 0.26030 0.99948
 C450 C 0.52170 0.26803 0.99934
 C451 C 0.51638 0.29328 0.99926
 C452 C 0.53542 0.31048 0.99925
 H453 H 0.66632 0.35060 1.00879
 H454 H 0.69812 0.38253 1.00872
 H455 H 0.64255 0.43682 0.99051
 H456 H 0.61094 0.40516 0.99028
 H457 H 0.58469 0.27109 0.99968
 H458 H 0.55109 0.24090 0.99951
 H459 H 0.49750 0.29996 0.99924
 H460 H 0.53052 0.32980 0.99920
 C461 C 0.49814 0.12542 1.14530
 C462 C 0.47598 0.11692 1.15549
 C463 C 0.47635 0.09860 1.17324
 C464 C 0.49888 0.08815 1.18110
 C465 C 0.52107 0.09694 1.17116
 C466 C 0.52072 0.11542 1.15354
 C467 C 0.49762 0.14405 1.12569
 N468 N 0.51871 0.15533 1.11843
 N469 N 0.51828 0.17151 1.10029
 C470 C 0.49674 0.17701 1.08858
 N471 N 0.47565 0.16580 1.09592
 N472 N 0.47607 0.14972 1.11411
 C473 C 0.49634 0.19426 1.06779
 C474 C 0.47558 0.19551 1.05234
 C475 C 0.47552 0.21099 1.03215
 C476 C 0.49611 0.22566 1.02703
 C477 C 0.51657 0.22507 1.04282
 C478 C 0.51679 0.20935 1.06289
 H479 H 0.45828 0.12439 1.14973
 H480 H 0.45894 0.09265 1.18084
 H481 H 0.53873 0.08909 1.17651
 H482 H 0.53812 0.12146 1.14599
 H483 H 0.45945 0.18426 1.05562
 H484 H 0.45922 0.21160 1.02069
 H485 H 0.53250 0.23653 1.03972
 H486 H 0.53297 0.20905 1.07460
 C487 C -0.00528 0.64342 0.62542
 C488 C 0.01738 0.65173 0.61618
 C489 C 0.01790 0.66840 0.59692
 C490 C -0.00424 0.67736 0.58658
 C491 C -0.02691 0.66937 0.59616
 C492 C -0.02742 0.65252 0.61527
 C493 C -0.00579 0.62488 0.64508
 N494 N -0.02697 0.61260 0.65024
 N495 N -0.02722 0.59530 0.66731
 C496 C -0.00635 0.58962 0.68003
 N497 N 0.01477 0.60206 0.67503
 N498 N 0.01505 0.61929 0.65788
 C499 C -0.00639 0.56972 0.69835
 C500 C 0.01370 0.56670 0.71446
 C501 C 0.01414 0.54724 0.73100
 C502 C -0.00545 0.53047 0.73168
 C503 C -0.02551 0.53339 0.71571
 C504 C -0.02612 0.55298 0.69934
 H505 H 0.03478 0.64496 0.62347
 H506 H 0.03569 0.67380 0.58977
 H507 H -0.04431 0.67623 0.58896
 H508 H -0.04520 0.64664 0.62210
 H509 H 0.02922 0.57923 0.71413
 H510 H 0.03010 0.54506 0.74277
 H511 H -0.04061 0.52034 0.71571
 H512 H -0.04178 0.55463 0.68708
 C513 C 0.50546 0.88002 -0.13864
 C514 C 0.49998 0.90478 -0.13356
 C515 C 0.49929 0.92222 -0.15209
 C516 C 0.50423 0.91542 -0.17616
 C517 C 0.50992 0.89074 -0.18130
 C518 C 0.51040 0.87318 -0.16274
 C519 C 0.50591 0.86165 -0.11878
 N520 N 0.50710 0.83715 -0.12355
 N521 N 0.50710 0.82078 -0.10555
 C522 C 0.50601 0.82825 -0.08204
 N523 N 0.50494 0.85272 -0.07733
 N524 N 0.50486 0.86905 -0.09529
 C525 C 0.50557 0.81026 -0.06184
 C526 C 0.50762 0.81841 -0.03773
 C527 C 0.50637 0.80181 -0.01852
 C528 C 0.50274 0.77669 -0.02288
 C529 C 0.50133 0.76834 -0.04692
 C530 C 0.50272 0.78496 -0.06626
 H531 H 0.49607 0.91073 -0.11523
 H532 H 0.49519 0.94117 -0.14754
 H533 H 0.51368 0.88499 -0.19973
 H534 H 0.51472 0.85428 -0.16727
 H535 H 0.51019 0.83770 -0.03362
 H536 H 0.50832 0.80884 -0.00028
 H537 H 0.49903 0.74904 -0.05087
 H538 H 0.50123 0.77802 -0.08462
 C539 C 1.00130 0.35748 0.37486
 C540 C 1.02321 0.34498 0.38109
 C541 C 1.02371 0.32830 0.40039
 C542 C 1.00223 0.32355 0.41416
 C543 C 0.98018 0.33592 0.40733
 C544 C 0.97977 0.35259 0.38808
 C545 C 1.00095 0.37596 0.35508
 N546 N 0.98050 0.39001 0.35099
 N547 N 0.98036 0.40716 0.33378
 C548 C 1.00064 0.41098 0.31985
 N549 N 1.02104 0.39680 0.32380
 N550 N 1.02120 0.37967 0.34107
 C551 C 1.00070 0.43071 0.30131
 C552 C 1.02087 0.43351 0.28553
 C553 C 1.02128 0.45279 0.26876
 C554 C 1.00152 0.46953 0.26747
 C555 C 0.98138 0.46679 0.28309
 C556 C 0.98085 0.44747 0.29973
 H557 H 1.04021 0.34843 0.37137
 H558 H 1.04142 0.32019 0.40498
 H559 H 0.96277 0.33235 0.41619
 H560 H 0.96244 0.36162 0.38356
 H561 H 1.03650 0.42100 0.28630
 H562 H 1.03729 0.45485 0.25728
 H563 H 0.96613 0.47979 0.28259
 H564 H 0.96509 0.44599 0.31167
 C565 C 0.49733 0.87484 0.14871
 C566 C 0.47522 0.88493 0.15759
 C567 C 0.47564 0.90373 0.17487
 C568 C 0.49829 0.91334 0.18360
 C569 C 0.52043 0.90279 0.17475
 C570 C 0.51992 0.88377 0.15772
 C571 C 0.49683 0.85567 0.12961
 N572 N 0.51755 0.84262 0.12410
 N573 N 0.51731 0.82605 0.10630
 C574 C 0.49635 0.82192 0.09318
 N575 N 0.47560 0.83487 0.09878
 N576 N 0.47581 0.85134 0.11666
 C577 C 0.49641 0.80449 0.07253
 C578 C 0.47733 0.80519 0.05508
 C579 C 0.47819 0.78992 0.03474
 C580 C 0.49785 0.77333 0.03165
 C581 C 0.51669 0.77221 0.04923
 C582 C 0.51602 0.78770 0.06947
 H583 H 0.45746 0.87848 0.15099
 H584 H 0.45803 0.91142 0.18026
 H585 H 0.53837 0.90857 0.18140
 H586 H 0.53733 0.87628 0.15136
 H587 H 0.46208 0.81805 0.05674
 H588 H 0.46376 0.79147 0.02109
 H589 H 0.53228 0.75987 0.04711
 H590 H 0.53101 0.78670 0.08258
 C591 C 0.00536 0.36368 0.62417
 C592 C 0.01605 0.36880 0.60157
 C593 C 0.01624 0.35111 0.58322
 C594 C 0.00599 0.32772 0.58707
 C595 C -0.00444 0.32251 0.60981
 C596 C -0.00486 0.34032 0.62811
 C597 C 0.00463 0.38275 0.64334
 N598 N -0.01031 0.38028 0.66293
 N599 N -0.01132 0.39775 0.67985
 C600 C 0.00267 0.41835 0.67796
 N601 N 0.01771 0.42072 0.65845
 N602 N 0.01863 0.40333 0.64149
 C603 C 0.00130 0.43805 0.69646
 C604 C 0.01900 0.45693 0.69686
 C605 C 0.01738 0.47593 0.71379
 C606 C -0.00195 0.47650 0.73059
 C607 C -0.01968 0.45777 0.73034
 C608 C -0.01796 0.43857 0.71352
 H609 H 0.02391 0.38668 0.59786
 H610 H 0.02398 0.35597 0.56581
 H611 H -0.01214 0.30458 0.61357
 H612 H -0.01307 0.33573 0.64538
 H613 H 0.03410 0.45708 0.68403
 H614 H 0.03114 0.49036 0.71363
 H615 H -0.03504 0.45804 0.74282
 H616 H -0.03200 0.42443 0.71358
 C617 C 0.49838 0.12352 0.85470
 C618 C 0.47690 0.11044 0.84830
 C619 C 0.47770 0.09214 0.83053
 C620 C 0.50001 0.08640 0.81880
 C621 C 0.52142 0.09968 0.82492
 C622 C 0.52061 0.11808 0.84262
 C623 C 0.49770 0.14222 0.87428
 N624 N 0.51790 0.15609 0.87954
 N625 N 0.51744 0.17237 0.89761
 C626 C 0.49676 0.17543 0.91122
 N627 N 0.47654 0.16164 0.90588
 N628 N 0.47699 0.14541 0.88780
 C629 C 0.49640 0.19294 0.93185
 C630 C 0.47611 0.19365 0.94768
 C631 C 0.47605 0.20951 0.96760
 C632 C 0.49622 0.22498 0.97216
 C633 C 0.51622 0.22487 0.95606
 C634 C 0.51640 0.20888 0.93617
 H635 H 0.45946 0.11414 0.85719
 H636 H 0.46096 0.08204 0.82640
 H637 H 0.53882 0.09584 0.81599
 H638 H 0.53750 0.12781 0.84705
 H639 H 0.46029 0.18181 0.94484
 H640 H 0.46006 0.20975 0.97928
 H641 H 0.53177 0.23699 0.95872
 H642 H 0.53222 0.20901 0.92420
 C643 C 1.00155 0.63486 0.37611
 C644 C 0.99200 0.65850 0.37162
 C645 C 0.99163 0.67620 0.39004
 C646 C 1.00056 0.67057 0.41343
 C647 C 1.00984 0.64680 0.41790
 C648 C 1.01047 0.62923 0.39945
 C649 C 1.00224 0.61607 0.35667
 N650 N 1.01658 0.59566 0.35916
 N651 N 1.01713 0.57859 0.34187
 C652 C 1.00327 0.58112 0.32138
 N653 N 0.98891 0.60154 0.31885
 N654 N 0.98847 0.61871 0.33611
 C655 C 1.00353 0.56173 0.30252
 C656 C 0.98491 0.56071 0.28458
 C657 C 0.98459 0.54159 0.26760
 C658 C 1.00311 0.52347 0.26804
 C659 C 1.02191 0.52465 0.28560
 C660 C 1.02211 0.54355 0.30273
 H661 H 0.98511 0.66344 0.35378
 H662 H 0.98469 0.69440 0.38582
 H663 H 1.01635 0.64159 0.43579
 H664 H 1.01770 0.61111 0.40359
 H665 H 0.97024 0.57433 0.28404
 H666 H 0.96964 0.54083 0.25449
 H667 H 1.03627 0.51071 0.28631
 H668 H 1.03677 0.54382 0.31622
 C669 C 1.14664 0.49867 0.12442
 C670 C 1.15583 0.52120 0.11607
 C671 C 1.17317 0.52196 0.09737
 C672 C 1.18211 0.50013 0.08652
 C673 C 1.17315 0.47755 0.09551
 C674 C 1.15562 0.47688 0.11402
 C675 C 1.12733 0.49791 0.14339
 N676 N 1.11479 0.47683 0.14790
 N677 N 1.09687 0.47629 0.16437
 C678 C 1.09078 0.49678 0.17712
 N679 N 1.10345 0.51782 0.17276
 N680 N 1.12131 0.51839 0.15621
 C681 C 1.07029 0.49636 0.19487
 C682 C 1.06662 0.51611 0.21095
 C683 C 1.04675 0.51604 0.22709
 C684 C 1.03019 0.49629 0.22736
 C685 C 1.03374 0.47658 0.21139
 C686 C 1.05373 0.47648 0.19543
 H687 H 1.14943 0.53836 0.12381
 H688 H 1.17998 0.53981 0.09206
 H689 H 1.17854 0.46018 0.08756
 H690 H 1.14889 0.45918 0.12000
 H691 H 1.07900 0.53171 0.21097
 H692 H 1.04413 0.53166 0.23895
 H693 H 1.02091 0.46133 0.21115
 H694 H 1.05588 0.46107 0.18319
 C695 C 0.62884 0.00241 0.64299
 C696 C 0.62423 -0.01938 0.65588
 C697 C 0.60552 -0.02024 0.67329
 C698 C 0.59117 0.00072 0.67834
 C699 C 0.59601 0.02259 0.66574
 C700 C 0.61457 0.02341 0.64823
 C701 C 0.64795 0.00318 0.62381
 N702 N 0.64964 0.02291 0.60885
 N703 N 0.66631 0.02342 0.59117
 C704 C 0.68209 0.00426 0.58772
 N705 N 0.68055 -0.01543 0.60278
 N706 N 0.66381 -0.01597 0.62043
 C707 C 0.70009 0.00462 0.56752
 C708 C 0.71879 -0.01338 0.56576
 C709 C 0.73525 -0.01331 0.54625
 C710 C 0.73313 0.00463 0.52813
 C711 C 0.71469 0.02270 0.52990
 C712 C 0.69840 0.02280 0.54945
 H713 H 0.63487 -0.03590 0.65230
 H714 H 0.60234 -0.03729 0.68289
 H715 H 0.58506 0.03896 0.66903
 H716 H 0.61761 0.04051 0.63869
 H717 H 0.72069 -0.02757 0.57942
 H718 H 0.74941 -0.02738 0.54530
 H719 H 0.71276 0.03666 0.51600
 H720 H 0.68422 0.03690 0.55016
 C721 C -0.14739 0.49755 0.87545
 C722 C -0.15267 0.47588 0.88828
 C723 C -0.17025 0.47592 0.90677
 C724 C -0.18287 0.49765 0.91294
 C725 C -0.17784 0.51925 0.89996
 C726 C -0.16036 0.51918 0.88137
 C727 C -0.12807 0.49771 0.85646
 N728 N -0.12438 0.51796 0.84257
 N729 N -0.10656 0.51833 0.82598
 C730 C -0.09162 0.49848 0.82261
 N731 N -0.09538 0.47819 0.83643
 N732 N -0.11324 0.47780 0.85297
 C733 C -0.07125 0.49918 0.80472
 C734 C -0.05365 0.48007 0.80374
 C735 C -0.03390 0.48121 0.78755
 C736 C -0.03157 0.50123 0.77179
 C737 C -0.04906 0.52030 0.77259
 C738 C -0.06876 0.51927 0.78889
 H739 H -0.14306 0.45888 0.88420
 H740 H -0.17355 0.45905 0.91663
 H741 H -0.18748 0.53620 0.90416
 H742 H -0.15680 0.53620 0.87185
 H743 H -0.05487 0.46440 0.81577
 H744 H -0.02029 0.46652 0.78746
 H745 H -0.04734 0.53624 0.76105
 H746 H -0.08189 0.53436 0.78922
 C747 C 0.37449 0.00277 0.35865
 C748 C 0.38774 0.02433 0.35350
 C749 C 0.40621 0.02431 0.33585
 C750 C 0.41197 0.00269 0.32309
 C751 C 0.39852 -0.01876 0.32798
 C752 C 0.37993 -0.01871 0.34548
 C753 C 0.35555 0.00249 0.37801
 N754 N 0.34087 -0.01744 0.38120
 N755 N 0.32433 -0.01801 0.39901
 C756 C 0.32181 0.00129 0.41445
 N757 N 0.33642 0.02127 0.41120
 N758 N 0.35292 0.02187 0.39334
 C759 C 0.30388 0.00030 0.43468
 C760 C 0.30393 0.01842 0.45288
 C761 C 0.28755 0.01697 0.47236
 C762 C 0.27045 -0.00228 0.47383
 C763 C 0.27058 -0.02054 0.45585
 C764 C 0.28702 -0.01921 0.43644
 H765 H 0.38399 0.04121 0.36325
 H766 H 0.41644 0.04105 0.33260
 H767 H 0.40240 -0.03562 0.31823
 H768 H 0.37008 -0.03563 0.34894
 H769 H 0.31698 0.03346 0.45237
 H770 H 0.28884 0.03057 0.48658
 H771 H 0.25843 -0.03619 0.45686
 H772 H 0.28663 -0.03364 0.42291
 C773 C 0.13903 0.50529 0.87739
 C774 C 0.14462 0.52675 0.89051
 C775 C 0.16259 0.52640 0.90886
 C776 C 0.17525 0.50454 0.91461
 C777 C 0.16982 0.48312 0.90142
 C778 C 0.15197 0.48350 0.88295
 C779 C 0.11953 0.50550 0.85834
 N780 N 0.11580 0.48557 0.84394
 N781 N 0.09792 0.48558 0.82718
 C782 C 0.08296 0.50549 0.82415
 N783 N 0.08674 0.52545 0.83850
 N784 N 0.10466 0.52546 0.85521
 C785 C 0.06260 0.50524 0.80599
 C786 C 0.04491 0.52429 0.80539
 C787 C 0.02523 0.52361 0.78886
 C788 C 0.02304 0.50410 0.77242
 C789 C 0.04065 0.48513 0.77279
 C790 C 0.06028 0.48568 0.78943
 H791 H 0.13503 0.54385 0.88670
 H792 H 0.16623 0.54313 0.91890
 H793 H 0.17950 0.46608 0.90529
 H794 H 0.14816 0.46664 0.87321
 H795 H 0.04603 0.53956 0.81795
 H796 H 0.01159 0.53827 0.78899
 H797 H 0.03911 0.46966 0.76056
 H798 H 0.07353 0.47069 0.78942
 C799 C 0.62505 0.00009 0.36035
 C800 C 0.61153 -0.02135 0.35525
 C801 C 0.59290 -0.02123 0.33754
 C802 C 0.58726 0.00036 0.32464
 C803 C 0.60089 0.02174 0.32957
 C804 C 0.61964 0.02159 0.34716
 C805 C 0.64433 0.00017 0.37962
 N806 N 0.65917 0.02000 0.38294
 N807 N 0.67613 0.02027 0.40058
 C808 C 0.67894 0.00074 0.41571
 N809 N 0.66416 -0.01912 0.41234
 N810 N 0.64724 -0.01942 0.39466
 C811 C 0.69739 0.00130 0.43573
 C812 C 0.69776 -0.01720 0.45352
 C813 C 0.71466 -0.01624 0.47278
 C814 C 0.73188 0.00291 0.47445
 C815 C 0.73135 0.02156 0.45689
 C816 C 0.71438 0.02072 0.43767
 H817 H 0.61522 -0.03823 0.36503
 H818 H 0.58252 -0.03791 0.33430
 H819 H 0.59710 0.03857 0.31972
 H820 H 0.62969 0.03843 0.35059
 H821 H 0.68465 -0.03219 0.45286
 H822 H 0.71370 -0.03015 0.48671
 H823 H 0.74361 0.03713 0.45808
 H824 H 0.71445 0.03543 0.42445
 C825 C 0.85908 0.49804 0.12138
 C826 C 0.84607 0.47634 0.11603
 C827 C 0.82787 0.47608 0.09788
 C828 C 0.82216 0.49753 0.08478
 C829 C 0.83497 0.51927 0.09028
 C830 C 0.85326 0.51952 0.10832
 C831 C 0.87884 0.49821 0.14019
 N832 N 0.89335 0.51830 0.14341
 N833 N 0.91139 0.51833 0.16000
 C834 C 0.91566 0.49830 0.17413
 N835 N 0.90107 0.47825 0.17099
 N836 N 0.88307 0.47820 0.15436
 C837 C 0.93604 0.49817 0.19229
 C838 C 0.93902 0.47834 0.20842
 C839 C 0.95857 0.47799 0.22516
 C840 C 0.97543 0.49748 0.22613
 C841 C 0.97266 0.51720 0.21002
 C842 C 0.95305 0.51767 0.19336
 H843 H 0.85005 0.45947 0.12573
 H844 H 0.81812 0.45912 0.09419
 H845 H 0.83119 0.53602 0.08029
 H846 H 0.86290 0.53655 0.11195
 H847 H 0.92635 0.46298 0.20804
 H848 H 0.96063 0.46227 0.23700
 H849 H 0.98577 0.53222 0.21024
 H850 H 0.95145 0.53315 0.18111
 C851 C 0.37647 -0.00552 0.64224
 C852 C 0.38184 0.01631 0.65484
 C853 C 0.40084 0.01693 0.67217
 C854 C 0.41474 -0.00431 0.67746
 C855 C 0.40909 -0.02624 0.66520
 C856 C 0.39024 -0.02682 0.64772
 C857 C 0.35706 -0.00596 0.62309
 N858 N 0.35490 -0.02557 0.60797
 N859 N 0.33798 -0.02572 0.59029
 C860 C 0.32241 -0.00632 0.58701
 N861 N 0.32443 0.01322 0.60224
 N862 N 0.34142 0.01341 0.61987
 C863 C 0.30411 -0.00624 0.56684
 C864 C 0.28547 0.01188 0.56549
 C865 C 0.26871 0.01225 0.54603
 C866 C 0.27044 -0.00534 0.52756
 C867 C 0.28883 -0.02351 0.52889
 C868 C 0.30544 -0.02407 0.54841
 H869 H 0.37160 0.03305 0.65108
 H870 H 0.40464 0.03403 0.68152
 H871 H 0.41965 -0.04284 0.66873
 H872 H 0.38658 -0.04396 0.63840
 H873 H 0.28386 0.02581 0.57943
 H874 H 0.25460 0.02641 0.54541
 H875 H 0.29047 -0.03720 0.51471
 H876 H 0.31958 -0.03824 0.54880
   
