data_POSCAR
  _audit_creation_date              2014-09-24
  _audit_creation_method            'ToBaCCo'
  _symmetry_space_group_name_H-M    'P1'
  _symmetry_Int_Tables_number       1
  _symmetry_cell_setting            triclinic
  loop_
  _symmetry_equiv_pos_as_xyz
 x,y,z
_cell_length_a 46.4915
_cell_length_b 44.9489
_cell_length_c 40.7779
_cell_angle_alpha 89.427900
_cell_angle_beta 90.239400
_cell_angle_gamma 90.006000
loop_
  _atom_site_label
  _atom_site_type_symbol
  _atom_site_fract_x
  _atom_site_fract_y
  _atom_site_fract_z
C1 C 1.20792 0.26612 0.29514
 H2 H 1.20694 0.24220 0.29824
 C3 C 1.19055 0.28438 0.31427
 H4 H 1.17662 0.27409 0.33222
 C5 C 1.22816 0.30812 0.26837
 H6 H 1.24317 0.31739 0.25093
 C7 C 1.21125 0.32718 0.28697
 H8 H 1.21319 0.35100 0.28324
 N9 N 1.22571 0.27815 0.27217
 C10 C 1.23421 0.20571 0.20230
 H11 H 1.25734 0.20329 0.20121
 C12 C 1.21649 0.18658 0.18445
 H13 H 1.22645 0.16949 0.16994
 C14 C 1.19361 0.23106 0.22305
 H15 H 1.18470 0.24867 0.23766
 C16 C 1.17516 0.21253 0.20562
 H17 H 1.15215 0.21593 0.20742
 Zn18 Zn 1.24742 0.25161 0.24629
 N19 N 1.22255 0.22702 0.22162
 C20 C 1.26682 0.19850 0.27836
 N21 N 1.27012 0.22848 0.27566
 C22 C 1.28941 0.24320 0.29465
 C23 C 1.30736 0.22759 0.31624
 C24 C 1.28406 0.18197 0.30001
 C25 C 1.25880 0.29208 0.19453
 C26 C 1.27586 0.30937 0.17357
 C27 C 1.31795 0.28530 0.19636
 C28 C 1.30010 0.26874 0.21700
 N29 N 1.27117 0.27289 0.21639
 H30 H 1.25083 0.18726 0.26373
 H31 H 1.29120 0.26714 0.29251
 H32 H 1.32299 0.23984 0.33056
 H33 H 1.28113 0.15815 0.30075
 H34 H 1.23565 0.29452 0.19400
 H35 H 1.26551 0.32508 0.15699
 H36 H 1.34077 0.28155 0.19869
 H37 H 1.30954 0.25267 0.23368
 C38 C 1.18643 0.18976 0.18623
 C39 C 1.19176 0.31541 0.30983
 C40 C 1.30597 0.30647 0.17440
 C41 C 1.30501 0.19650 0.31919
 C42 C 0.70494 -0.23442 0.30168
 H43 H 0.70335 -0.25843 0.30147
 C44 C 0.68696 -0.21797 0.32188
 H45 H 0.67144 -0.22946 0.33718
 C46 C 0.72683 -0.19032 0.28151
 H47 H 0.74243 -0.17965 0.26577
 C48 C 0.70940 -0.17296 0.30162
 H49 H 0.71142 -0.14900 0.30044
 N50 N 0.72386 -0.22044 0.28141
 C51 C 0.73276 -0.28559 0.20322
 H52 H 0.75586 -0.28841 0.20260
 C53 C 0.71520 -0.30233 0.18244
 H54 H 0.72524 -0.31768 0.16580
 C55 C 0.69209 -0.26141 0.22537
 H56 H 0.68309 -0.24515 0.24170
 C57 C 0.67379 -0.27755 0.20503
 H58 H 0.65082 -0.27375 0.20632
 Zn59 Zn 0.74564 -0.24524 0.25365
 N60 N 0.72096 -0.26617 0.22472
 C61 C 0.76280 -0.30193 0.27853
 N62 N 0.76620 -0.27203 0.28108
 C63 C 0.78468 -0.26022 0.30337
 C64 C 0.80206 -0.27868 0.32278
 C65 C 0.77957 -0.32124 0.29757
 C66 C 0.76154 -0.20149 0.20706
 C67 C 0.78043 -0.18467 0.18775
 C68 C 0.81993 -0.21303 0.21070
 C69 C 0.80033 -0.22917 0.22950
 N70 N 0.77178 -0.22286 0.22785
 H71 H 0.74735 -0.31094 0.26148
 H72 H 0.78648 -0.23631 0.30536
 H73 H 0.81681 -0.26825 0.33963
 H74 H 0.77687 -0.34501 0.29456
 H75 H 0.73863 -0.19739 0.20565
 H76 H 0.77136 -0.16773 0.17186
 H77 H 0.84259 -0.21845 0.21273
 H78 H 0.80807 -0.24695 0.24516
 C79 C 0.68517 -0.29872 0.18363
 C80 C 0.68892 -0.18687 0.32189
 C81 C 0.81026 -0.19022 0.18960
 C82 C 0.80007 -0.30982 0.31956
 C83 C 0.70609 0.26026 -0.20511
 H84 H 0.70309 0.23664 -0.20847
 C85 C 0.68694 0.27598 -0.18548
 H86 H 0.66964 0.26419 -0.17328
 C87 C 0.73086 0.30469 -0.21870
 H88 H 0.74718 0.31615 -0.23261
 C89 C 0.71232 0.32124 -0.19917
 H90 H 0.71490 0.34514 -0.19849
 N91 N 0.72782 0.27464 -0.22091
 C92 C 0.73154 0.19991 -0.27950
 H93 H 0.74876 0.18883 -0.26633
 C94 C 0.71257 0.18329 -0.29863
 H95 H 0.71527 0.15942 -0.29948
 C96 C 0.70643 0.24435 -0.29282
 H97 H 0.70407 0.26813 -0.29002
 C98 C 0.68687 0.22858 -0.31202
 H99 H 0.66944 0.24037 -0.32413
 Zn100 Zn 0.75194 0.25193 -0.24871
 N101 N 0.72805 0.22982 -0.27686
 C102 C 0.80353 0.22284 -0.23391
 N103 N 0.77576 0.22556 -0.22406
 C104 C 0.76555 0.20930 -0.19831
 C105 C 0.78367 0.18984 -0.18097
 C106 C 0.82236 0.20391 -0.21728
 C107 C 0.77678 0.27660 -0.30668
 C108 C 0.79685 0.29359 -0.32417
 C109 C 0.81509 0.31218 -0.27270
 C110 C 0.79515 0.29444 -0.25630
 N111 N 0.77636 0.27730 -0.27335
 H112 H 0.81117 0.23512 -0.25502
 H113 H 0.74335 0.21132 -0.19109
 H114 H 0.77474 0.17757 -0.16053
 H115 H 0.84440 0.20239 -0.22568
 H116 H 0.76195 0.26241 -0.31972
 H117 H 0.79641 0.29257 -0.35062
 H118 H 0.82978 0.32565 -0.25844
 H119 H 0.79489 0.29395 -0.22977
 C120 C 0.68978 0.19768 -0.31508
 C121 C 0.69010 0.30680 -0.18207
 C122 C 0.81655 0.31165 -0.30708
 C123 C 0.81270 0.18703 -0.19037
 C124 C 1.20433 -0.24479 -0.20777
 H125 H 1.20081 -0.26834 -0.21083
 C126 C 1.18557 -0.22846 -0.18837
 H127 H 1.16762 -0.23962 -0.17668
 C128 C 1.23163 -0.20152 -0.21962
 H129 H 1.24956 -0.19110 -0.23197
 C130 C 1.21344 -0.18432 -0.20026
 H131 H 1.21739 -0.16068 -0.19860
 N132 N 1.22658 -0.23112 -0.22332
 C133 C 1.21734 -0.26946 -0.30977
 H134 H 1.22519 -0.24909 -0.32066
 C135 C 1.19904 -0.28785 -0.32794
 H136 H 1.19331 -0.28140 -0.35275
 C137 C 1.21598 -0.30325 -0.26485
 H138 H 1.22266 -0.30926 -0.24024
 C139 C 1.19805 -0.32232 -0.28217
 H140 H 1.19105 -0.34291 -0.27068
 Zn141 Zn 1.24966 -0.25407 -0.25164
 N142 N 1.22524 -0.27733 -0.27867
 C143 C 1.28798 -0.30120 -0.24406
 N144 N 1.27238 -0.28116 -0.22688
 C145 C 1.27252 -0.28128 -0.19354
 C146 C 1.28914 -0.30208 -0.17612
 C147 C 1.30522 -0.32197 -0.22776
 C148 C 1.26287 -0.20702 -0.29657
 C149 C 1.28091 -0.18809 -0.31460
 C150 C 1.32184 -0.21352 -0.29086
 C151 C 1.30308 -0.23182 -0.27338
 N152 N 1.27414 -0.22864 -0.27675
 H153 H 1.28718 -0.30079 -0.27058
 H154 H 1.25984 -0.26517 -0.18041
 H155 H 1.28910 -0.30111 -0.14966
 H156 H 1.31775 -0.33742 -0.24210
 H157 H 1.23981 -0.20410 -0.29798
 H158 H 1.27103 -0.17126 -0.32999
 H159 H 1.34479 -0.21671 -0.28765
 H160 H 1.31186 -0.24833 -0.25678
 C161 C 1.18914 -0.31464 -0.31396
 C162 C 1.18990 -0.19784 -0.18453
 C163 C 1.31101 -0.19128 -0.31196
 C164 C 1.30598 -0.32281 -0.19332
 C165 C 0.26005 0.20909 0.70691
 H166 H 0.23730 0.20409 0.70787
 C167 C 0.27815 0.19216 0.68706
 H168 H 0.26881 0.17445 0.67283
 C169 C 0.29942 0.23830 0.72466
 H170 H 0.30772 0.25637 0.73917
 C171 C 0.31821 0.22205 0.70520
 H172 H 0.34084 0.22778 0.70519
 N173 N 0.27095 0.23147 0.72548
 C174 C 0.20345 0.23921 0.79903
 H175 H 0.19937 0.26278 0.79820
 C176 C 0.18601 0.22102 0.81836
 H177 H 0.16858 0.23119 0.83182
 C178 C 0.23115 0.19782 0.78281
 H179 H 0.24899 0.18889 0.76917
 C180 C 0.21442 0.17870 0.80220
 H181 H 0.21976 0.15532 0.80221
 Zn182 Zn 0.24685 0.25365 0.75393
 N183 N 0.22513 0.22742 0.78112
 C184 C 0.20688 0.30035 0.74484
 N185 N 0.22092 0.27816 0.72912
 C186 C 0.21578 0.27283 0.69681
 C187 C 0.19538 0.28965 0.67934
 C188 C 0.18671 0.31793 0.72830
 C189 C 0.28612 0.26199 0.80475
 C190 C 0.30481 0.27715 0.82561
 C191 C 0.29098 0.32324 0.79899
 C192 C 0.27298 0.30706 0.77816
 N193 N 0.27059 0.27703 0.78165
 H194 H 0.21144 0.30468 0.77035
 H195 H 0.22722 0.25533 0.68450
 H196 H 0.19203 0.28468 0.65375
 H197 H 0.17594 0.33545 0.74158
 H198 H 0.28418 0.23806 0.80670
 H199 H 0.31708 0.26456 0.84364
 H200 H 0.29260 0.34697 0.79498
 H201 H 0.26141 0.31853 0.75880
 C202 C 0.19105 0.19019 0.82012
 C203 C 0.30780 0.19846 0.68629
 C204 C 0.30729 0.30826 0.82328
 C205 C 0.18029 0.31256 0.69520
 C206 C 0.76807 0.70635 0.70101
 H207 H 0.74535 0.70263 0.69738
 C208 C 0.78800 0.68921 0.68379
 H209 H 0.78045 0.67213 0.66730
 C210 C 0.80581 0.73278 0.72684
 H211 H 0.81296 0.75030 0.74279
 C212 C 0.82635 0.71554 0.71102
 H213 H 0.84899 0.71951 0.71559
 N214 N 0.77721 0.72751 0.72240
 C215 C 0.72548 0.71978 0.80265
 H216 H 0.74065 0.73218 0.81714
 C217 C 0.70705 0.69977 0.81847
 H218 H 0.70895 0.69780 0.84479
 C219 C 0.70409 0.70936 0.75136
 H220 H 0.70271 0.71354 0.72526
 C221 C 0.68482 0.68953 0.76621
 H222 H 0.66908 0.67841 0.75095
 Zn223 Zn 0.75020 0.75002 0.74743
 N224 N 0.72426 0.72371 0.76954
 C225 C 0.70851 0.79380 0.73266
 N226 N 0.72828 0.77533 0.71920
 C227 C 0.73189 0.77423 0.68615
 C228 C 0.71520 0.79211 0.66529
 C229 C 0.69217 0.81298 0.71280
 C230 C 0.78876 0.75835 0.80007
 C231 C 0.80604 0.77397 0.82199
 C232 C 0.78662 0.81989 0.80013
 C233 C 0.76999 0.80332 0.77826
 N234 N 0.77121 0.77307 0.77862
 H235 H 0.70559 0.79380 0.75897
 H236 H 0.74757 0.75936 0.67580
 H237 H 0.71828 0.79059 0.63903
 H238 H 0.67655 0.82719 0.72440
 H239 H 0.78994 0.73432 0.79949
 H240 H 0.82015 0.76160 0.83838
 H241 H 0.78542 0.84385 0.79842
 H242 H 0.75669 0.81482 0.76048
 C243 C 0.68635 0.68387 0.80021
 C244 C 0.81751 0.69351 0.68924
 C245 C 0.80524 0.80520 0.82235
 C246 C 0.69536 0.81226 0.67845
 C247 C 0.77480 0.19299 0.22187
 H248 H 0.75838 0.18213 0.23634
 C249 C 0.79342 0.17590 0.20288
 H250 H 0.79119 0.15195 0.20322
 C251 C 0.79855 0.23726 0.20519
 H252 H 0.80042 0.26122 0.20638
 C253 C 0.81775 0.22107 0.18622
 H254 H 0.83445 0.23269 0.17279
 N255 N 0.77759 0.22312 0.22247
 C256 C 0.72819 0.22267 0.30615
 H257 H 0.74373 0.23542 0.31984
 C258 C 0.70854 0.20458 0.32295
 H259 H 0.70918 0.20380 0.34947
 C260 C 0.70749 0.20934 0.25518
 H261 H 0.70725 0.21135 0.22872
 C262 C 0.68727 0.19136 0.27096
 H263 H 0.67143 0.17957 0.25649
 Zn264 Zn 0.75381 0.24771 0.24805
 N265 N 0.72761 0.22431 0.27280
 C266 C 0.71648 0.29572 0.23243
 N267 N 0.73191 0.27289 0.21972
 C268 C 0.73100 0.26694 0.18710
 C269 C 0.71463 0.28465 0.16580
 C270 C 0.70065 0.31472 0.21184
 C271 C 0.79572 0.25615 0.29768
 C272 C 0.81606 0.27201 0.31591
 C273 C 0.80211 0.31661 0.28649
 C274 C 0.78193 0.29999 0.26917
 N275 N 0.77893 0.27034 0.27504
 H276 H 0.71677 0.29940 0.25861
 H277 H 0.74264 0.24812 0.17757
 H278 H 0.71413 0.27931 0.13995
 H279 H 0.68865 0.33261 0.22285
 H280 H 0.79368 0.23236 0.30119
 H281 H 0.82924 0.26017 0.33372
 H282 H 0.80309 0.34014 0.28116
 H283 H 0.76930 0.31081 0.25029
 C284 C 0.68787 0.18847 0.30519
 C285 C 0.81521 0.19006 0.18471
 C286 C 0.81999 0.30262 0.31006
 C287 C 0.69962 0.30933 0.17785
 C288 C 0.26763 0.70930 0.20318
 H289 H 0.24457 0.70610 0.20240
 C290 C 0.28541 0.69289 0.18247
 H291 H 0.27562 0.67738 0.16570
 C292 C 0.30796 0.73426 0.22546
 H293 H 0.31674 0.75076 0.24173
 C294 C 0.32645 0.71850 0.20516
 H295 H 0.34936 0.72280 0.20646
 N296 N 0.27917 0.72897 0.22473
 C297 C 0.21579 0.73549 0.30330
 H298 H 0.21463 0.75943 0.30540
 C299 C 0.19881 0.71741 0.32345
 H300 H 0.18504 0.72785 0.34125
 C301 C 0.23605 0.69325 0.27792
 H302 H 0.25083 0.68387 0.26050
 C303 C 0.21952 0.67434 0.29760
 H304 H 0.22155 0.65049 0.29483
 Zn305 Zn 0.25437 0.74986 0.25345
 N306 N 0.23343 0.72325 0.28059
 C307 C 0.19987 0.76743 0.22922
 N308 N 0.22858 0.77283 0.22755
 C309 C 0.23926 0.79416 0.20710
 C310 C 0.22070 0.81192 0.18821
 C311 C 0.18058 0.78453 0.21083
 C312 C 0.29543 0.76067 0.30182
 C313 C 0.31267 0.77721 0.32293
 C314 C 0.28851 0.82183 0.30405
 C315 C 0.27198 0.80437 0.28293
 N316 N 0.27605 0.77444 0.28180
 H317 H 0.19176 0.74978 0.24476
 H318 H 0.26226 0.79762 0.20580
 H319 H 0.23012 0.82885 0.17268
 H320 H 0.15778 0.77991 0.21293
 H321 H 0.29781 0.73675 0.30091
 H322 H 0.32838 0.76569 0.33811
 H323 H 0.28502 0.84557 0.30359
 H324 H 0.25594 0.81484 0.26745
 C325 C 0.20020 0.68634 0.32029
 C326 C 0.31537 0.69712 0.18372
 C327 C 0.30953 0.80827 0.32430
 C328 C 0.19073 0.80740 0.19016
 O329 O 1.04242 0.04716 0.05746
 O330 O 1.07395 0.02093 0.02565
 C331 C 1.06822 0.03992 0.04848
 O332 O 0.96141 -0.05832 0.05633
 O333 O 0.92941 -0.02956 0.02709
 C334 C 0.93548 -0.05043 0.04814
 O335 O 1.04176 -0.05599 0.05866
 O336 O 1.07357 -0.03008 0.02630
 C337 C 1.06764 -0.04902 0.04950
 O338 O 0.96238 0.05116 0.05482
 O339 O 0.92981 0.02283 0.02646
 C340 C 0.93629 0.04366 0.04699
 Zr341 Zr 1.00204 0.03358 0.03904
 O342 O 1.00029 0.03479 0.09085
 O343 O 1.00383 0.08047 0.03514
 Zr344 Zr 1.00150 -0.04133 0.04039
 O345 O 1.00074 -0.03788 0.09203
 O346 O 1.00403 -0.08832 0.04292
 O347 O 1.02765 -0.00410 0.04589
 O348 O 0.97666 -0.00366 0.04608
 O349 O 0.96098 0.05084 -0.05833
 O350 O 0.92910 0.02197 -0.02925
 C351 C 0.93508 0.04306 -0.05004
 O352 O 1.04031 -0.05671 -0.06078
 O353 O 1.07284 -0.02983 -0.03066
 C354 C 1.06639 -0.04930 -0.05275
 O355 O 0.95989 -0.05866 -0.05672
 O356 O 0.92858 -0.02910 -0.02831
 C357 C 0.93415 -0.05034 -0.04860
 O358 O 1.04117 0.04755 -0.06233
 O359 O 1.07324 0.02010 -0.03162
 C360 C 1.06711 0.03962 -0.05421
 Zr361 Zr 1.00115 0.03316 -0.04348
 O362 O 0.99737 0.03209 -0.09523
 O363 O 1.00403 0.08014 -0.04475
 Zr364 Zr 1.00048 -0.04167 -0.04234
 O365 O 0.99659 -0.04091 -0.09410
 O366 O 1.00328 -0.08868 -0.04242
 Zr367 Zr 1.04446 -0.00447 -0.00198
 Zr368 Zr 0.95817 -0.00371 -0.00104
 O369 O 0.97562 -0.00404 -0.04862
 O370 O 1.02656 -0.00451 -0.04962
 O371 O 0.97589 0.03942 -0.00201
 O372 O 1.02596 -0.04723 -0.00114
 O373 O 1.02680 0.03862 -0.00250
 O374 O 0.97526 -0.04718 -0.00060
 H375 H 0.96390 -0.00345 0.06548
 H376 H 1.03856 -0.06500 -0.00097
 H377 H 0.96245 -0.00399 -0.06780
 H378 H 1.03981 0.05609 -0.00288
 H379 H 0.98950 -0.09625 0.02755
 H380 H 0.98801 -0.09644 -0.02786
 H381 H 1.01345 -0.03014 -0.10298
 H382 H 1.01406 0.02095 -0.10371
 H383 H 0.99196 0.08765 -0.02671
 H384 H 1.00429 0.08799 0.05790
 H385 H 1.01230 0.01816 0.09918
 H386 H 1.00069 -0.05855 0.10070
 O387 O 0.94909 0.46056 0.43317
 O388 O 0.97306 0.42619 0.46504
 C389 C 0.95558 0.43341 0.44132
 O390 O 1.05194 0.54239 0.44165
 O391 O 1.02424 0.57523 0.47043
 C392 C 1.04496 0.56909 0.45034
 O393 O 1.04844 0.45997 0.43618
 O394 O 1.02253 0.42599 0.46631
 C395 C 1.04146 0.43292 0.44421
 O396 O 0.94556 0.54293 0.43885
 O397 O 0.97338 0.57549 0.46817
 C398 C 0.95297 0.56958 0.44741
 Zr399 Zr 0.96202 0.50125 0.45375
 O400 O 0.96161 0.50535 0.40200
 O401 O 0.91663 0.49957 0.45589
 Zr402 Zr 1.03410 0.50090 0.45495
 O403 O 1.03094 0.50379 0.40330
 O404 O 1.07947 0.49786 0.45280
 O405 O 0.99810 0.47447 0.44741
 O406 O 0.99829 0.52744 0.44876
 O407 O 0.94394 0.53999 0.55201
 O408 O 0.97116 0.57392 0.52325
 C409 C 0.95091 0.56702 0.54382
 O410 O 1.04703 0.45708 0.55562
 O411 O 1.02201 0.42463 0.52304
 C412 C 1.04025 0.43044 0.54632
 O413 O 1.04978 0.54012 0.55398
 O414 O 1.02229 0.57411 0.52553
 C415 C 1.04251 0.56719 0.54624
 O416 O 0.94696 0.45722 0.55363
 O417 O 0.97261 0.42468 0.52204
 C418 C 0.95396 0.43058 0.54463
 Zr419 Zr 0.96113 0.49911 0.53625
 O420 O 0.96139 0.50124 0.58812
 O421 O 0.91569 0.49644 0.53564
 Zr422 Zr 1.03326 0.49899 0.53769
 O423 O 1.03173 0.50125 0.58952
 O424 O 1.07867 0.49552 0.53935
 Zr425 Zr 0.99758 0.45528 0.49476
 Zr426 Zr 0.99780 0.54484 0.49642
 O427 O 0.99714 0.52508 0.54342
 O428 O 0.99708 0.47208 0.54292
 O429 O 0.95600 0.52678 0.49534
 O430 O 1.03904 0.47411 0.49594
 O431 O 0.95617 0.47415 0.49431
 O432 O 1.03954 0.52642 0.49693
 H433 H 0.99867 0.54139 0.42980
 H434 H 1.05617 0.46101 0.49601
 H435 H 0.99679 0.53813 0.56286
 H436 H 0.93914 0.46090 0.49358
 H437 H 1.08721 0.50975 0.47108
 H438 H 1.08663 0.51216 0.52618
 H439 H 1.02118 0.48354 0.59759
 H440 H 0.97195 0.48365 0.59657
 H441 H 0.90883 0.50972 0.51776
 H442 H 0.90973 0.50012 0.43287
 H443 H 0.97738 0.49274 0.39370
 H444 H 1.05095 0.50408 0.39505
 O445 O 0.53687 0.05672 0.56366
 O446 O 0.56926 0.03017 0.53327
 C447 C 0.56291 0.04941 0.55559
 O448 O 0.45753 -0.05094 0.55933
 O449 O 0.42552 -0.02228 0.52997
 C450 C 0.43159 -0.04340 0.55075
 O451 O 0.53750 -0.04808 0.56355
 O452 O 0.56954 -0.01969 0.53407
 C453 C 0.56341 -0.03980 0.55602
 O454 O 0.45663 0.05910 0.55916
 O455 O 0.42504 0.02993 0.53039
 C456 C 0.43080 0.05106 0.55085
 Zr457 Zr 0.49694 0.04224 0.54443
 O458 O 0.49407 0.04288 0.59621
 O459 O 0.49801 0.08919 0.54109
 Zr460 Zr 0.49753 -0.03261 0.54529
 O461 O 0.49635 -0.02767 0.59674
 O462 O 0.49786 -0.07950 0.55042
 O463 O 0.52300 0.00495 0.55165
 O464 O 0.47193 0.00455 0.55055
 O465 O 0.45757 0.05971 0.44624
 O466 O 0.42559 0.02992 0.47404
 C467 C 0.43164 0.05131 0.45364
 O468 O 0.53846 -0.04686 0.44488
 O469 O 0.57007 -0.01959 0.47580
 C470 C 0.56428 -0.03904 0.45343
 O471 O 0.45816 -0.05009 0.44696
 O472 O 0.42579 -0.02122 0.47468
 C473 C 0.43213 -0.04228 0.45444
 O474 O 0.53790 0.05720 0.44403
 O475 O 0.56984 0.03080 0.47606
 C476 C 0.56383 0.05003 0.45309
 Zr477 Zr 0.49768 0.04234 0.46194
 O478 O 0.49479 0.04171 0.41011
 O479 O 0.50006 0.08935 0.46123
 Zr480 Zr 0.49815 -0.03266 0.46267
 O481 O 0.49535 -0.03228 0.41083
 O482 O 0.50118 -0.07966 0.46321
 Zr483 Zr 0.54077 0.00508 0.50416
 Zr484 Zr 0.45442 0.00450 0.50292
 O485 O 0.47289 0.00469 0.45586
 O486 O 0.52374 0.00503 0.45614
 O487 O 0.47148 0.04791 0.50277
 O488 O 0.52302 -0.03795 0.50435
 O489 O 0.52245 0.04790 0.50356
 O490 O 0.47223 -0.03868 0.50364
 H491 H 0.45873 0.00432 0.56957
 H492 H 0.53614 -0.05531 0.50449
 H493 H 0.46013 0.00466 0.43634
 H494 H 0.53518 0.06558 0.50366
 H495 H 0.50557 -0.08769 0.52987
 H496 H 0.48587 -0.08732 0.47783
 H497 H 0.51159 -0.02026 0.40240
 H498 H 0.51166 0.03069 0.40189
 H499 H 0.48747 0.09657 0.47896
 H500 H 0.49780 0.09650 0.56394
 H501 H 0.50775 0.02782 0.60481
 H502 H 0.49555 -0.04809 0.60606
 O503 O 0.54165 0.55457 0.05829
 O504 O 0.57380 0.52821 0.02735
 C505 C 0.56761 0.54796 0.04924
 O506 O 0.46538 0.44332 0.05959
 O507 O 0.43129 0.47046 0.03160
 C508 C 0.43892 0.44942 0.05193
 O509 O 0.54486 0.44919 0.06126
 O510 O 0.57532 0.47768 0.02977
 C511 C 0.57033 0.45779 0.05235
 O512 O 0.46151 0.55490 0.05701
 O513 O 0.42961 0.52366 0.03152
 C514 C 0.43560 0.54586 0.05047
 Zr515 Zr 0.50164 0.53756 0.04239
 O516 O 0.50211 0.53280 0.09399
 O517 O 0.50114 0.58442 0.04638
 Zr518 Zr 0.50405 0.46338 0.04449
 O519 O 0.50408 0.46982 0.09574
 O520 O 0.50682 0.41679 0.05140
 O521 O 0.52903 0.50144 0.04900
 O522 O 0.47738 0.49964 0.05015
 O523 O 0.45877 0.55207 -0.05547
 O524 O 0.42831 0.52396 -0.02365
 C525 C 0.43331 0.54430 -0.04568
 O526 O 0.54187 0.44783 -0.05696
 O527 O 0.57393 0.47629 -0.02794
 C528 C 0.56780 0.45617 -0.04948
 O529 O 0.46167 0.44323 -0.05214
 O530 O 0.42962 0.47173 -0.02347
 C531 C 0.43572 0.45069 -0.04382
 O532 O 0.53895 0.55197 -0.06069
 O533 O 0.57242 0.52702 -0.02933
 C534 C 0.56529 0.54564 -0.05247
 Zr535 Zr 0.49969 0.53649 -0.04051
 O536 O 0.49525 0.53494 -0.09218
 O537 O 0.50106 0.58356 -0.04217
 Zr538 Zr 0.50181 0.46172 -0.03825
 O539 O 0.49744 0.46160 -0.08997
 O540 O 0.50581 0.41480 -0.03730
 Zr541 Zr 0.54497 0.50120 0.00064
 Zr542 Zr 0.45855 0.49841 0.00321
 O543 O 0.47543 0.49827 -0.04463
 O544 O 0.52644 0.49979 -0.04663
 O545 O 0.47495 0.54218 0.00147
 O546 O 0.52810 0.45779 0.00252
 O547 O 0.52543 0.54343 0.00003
 O548 O 0.47757 0.45579 0.00401
 H549 H 0.46450 0.49927 0.06947
 H550 H 0.54138 0.44055 0.00267
 H551 H 0.46201 0.49769 -0.06355
 H552 H 0.53765 0.56146 -0.00106
 H553 H 0.50877 0.40804 0.02940
 H554 H 0.49068 0.40687 -0.02260
 H555 H 0.51389 0.47277 -0.09925
 H556 H 0.51181 0.52369 -0.10080
 H557 H 0.48561 0.59094 -0.02773
 H558 H 0.50431 0.59261 0.02413
 H559 H 0.50094 0.55323 0.10277
 H560 H 0.50391 0.44966 0.10577
 C561 C 1.16591 0.16994 0.16913
 C562 C 1.17345 0.14729 0.14754
 C563 C 1.15130 0.12835 0.13240
 N564 N 1.15869 0.10740 0.11018
 N565 N 1.13861 0.09039 0.09630
 C566 C 1.11045 0.09371 0.10428
 N567 N 1.10315 0.11454 0.12655
 N568 N 1.12316 0.13151 0.14035
 C569 C 1.08763 0.07596 0.08902
 C570 C 1.09250 0.05488 0.06479
 H571 H 1.19564 0.14328 0.14122
 H572 H 1.06580 0.08051 0.09671
 H573 H 1.14328 0.17348 0.17398
 H574 H 1.11422 0.05003 0.05696
 C575 C 1.17052 0.66426 0.66828
 C576 C 1.15223 0.67212 0.64237
 C577 C 1.13336 0.64980 0.62709
 N578 N 1.11354 0.65803 0.60416
 N579 N 1.09632 0.63780 0.59057
 C580 C 1.09836 0.60865 0.59946
 N581 N 1.11820 0.60049 0.62225
 N582 N 1.13532 0.62066 0.63584
 C583 C 1.08019 0.58564 0.58469
 C584 C 1.05850 0.59160 0.56182
 H585 H 1.15084 0.69497 0.63394
 H586 H 1.08448 0.56283 0.59203
 H587 H 1.17005 0.64154 0.67742
 H588 H 1.05368 0.61433 0.55468
 C589 C 0.66776 0.18114 0.66620
 C590 C 0.67216 0.15283 0.65339
 C591 C 0.64888 0.13639 0.63707
 N592 N 0.65459 0.11047 0.62158
 N593 N 0.63355 0.09522 0.60714
 C594 C 0.60600 0.10528 0.60785
 N595 N 0.60030 0.13110 0.62347
 N596 N 0.62133 0.14639 0.63778
 C597 C 0.58239 0.08890 0.59220
 C598 C 0.58692 0.06429 0.57234
 H599 H 0.69313 0.14247 0.65489
 H600 H 0.56075 0.09721 0.59563
 H601 H 0.64725 0.19200 0.66195
 H602 H 0.60860 0.05656 0.56783
 C603 C 0.66484 0.68374 0.16344
 C604 C 0.67207 0.65820 0.14599
 C605 C 0.64991 0.64041 0.12922
 N606 N 0.65737 0.61594 0.11190
 N607 N 0.63730 0.59940 0.09733
 C608 C 0.60903 0.60673 0.09969
 N609 N 0.60162 0.63116 0.11696
 N610 N 0.62165 0.64768 0.13142
 C611 C 0.58626 0.58884 0.08443
 C612 C 0.59154 0.56450 0.06434
 H613 H 0.69400 0.65027 0.14536
 H614 H 0.56427 0.59559 0.08894
 H615 H 0.64249 0.69055 0.16374
 H616 H 0.61343 0.55804 0.05888
 C617 C 0.83094 -0.17419 0.17157
 C618 C 0.82522 -0.15067 0.14976
 C619 C 0.84871 -0.13481 0.13289
 N620 N 0.84273 -0.11210 0.11175
 N621 N 0.86391 -0.09749 0.09662
 C622 C 0.89182 -0.10508 0.10214
 N623 N 0.89776 -0.12776 0.12324
 N624 N 0.87662 -0.14235 0.13832
 C625 C 0.91559 -0.08926 0.08602
 C626 C 0.91123 -0.06595 0.06377
 H627 H 0.80354 -0.14324 0.14480
 H628 H 0.93729 -0.09631 0.09198
 H629 H 0.85327 -0.18045 0.17511
 H630 H 0.88957 -0.05896 0.05754
 C631 C 0.83746 0.32934 0.67740
 C632 C 0.84459 0.32827 0.64414
 C633 C 0.86602 0.34883 0.63019
 N634 N 0.87702 0.34414 0.59988
 N635 N 0.89599 0.36312 0.58695
 C636 C 0.90451 0.38749 0.60387
 N637 N 0.89345 0.39218 0.63407
 N638 N 0.87466 0.37316 0.64704
 C639 C 0.92375 0.40987 0.58948
 C640 C 0.93896 0.40557 0.56055
 H641 H 0.83531 0.31184 0.62809
 H642 H 0.92536 0.43101 0.60191
 H643 H 0.84969 0.34444 0.69265
 H644 H 0.93925 0.38394 0.54908
 C645 C 0.33089 -0.17331 0.67104
 C646 C 0.32410 -0.15015 0.64912
 C647 C 0.34693 -0.13262 0.63296
 N648 N 0.34011 -0.11027 0.61166
 N649 N 0.36072 -0.09434 0.59709
 C650 C 0.38891 -0.10022 0.60335
 N651 N 0.39568 -0.12253 0.62460
 N652 N 0.37512 -0.13842 0.63911
 C653 C 0.41219 -0.08311 0.58784
 C654 C 0.40743 -0.05985 0.56557
 H655 H 0.30208 -0.14440 0.64340
 H656 H 0.43403 -0.08922 0.59436
 H657 H 0.35351 -0.17782 0.67534
 H658 H 0.38568 -0.05364 0.55882
 C659 C 0.32278 0.32516 0.15408
 C660 C 0.35272 0.32338 0.15156
 C661 C 0.37031 0.34484 0.13297
 N662 N 0.39918 0.34095 0.13248
 N663 N 0.41604 0.36031 0.11694
 C664 C 0.40475 0.38435 0.10126
 N665 N 0.37577 0.38835 0.10153
 N666 N 0.35881 0.36890 0.11719
 C667 C 0.42455 0.40526 0.08516
 C668 C 0.41649 0.43053 0.06709
 H669 H 0.36458 0.30583 0.16371
 H670 H 0.44719 0.39997 0.08770
 H671 H 0.31190 0.34219 0.13967
 H672 H 0.39399 0.43589 0.06341
 C673 C 0.83261 0.16838 -0.17428
 C674 C 0.82663 0.14923 -0.14792
 C675 C 0.84959 0.13129 -0.13253
 N676 N 0.84331 0.11115 -0.10858
 N677 N 0.86410 0.09497 -0.09455
 C678 C 0.89192 0.09843 -0.10397
 N679 N 0.89817 0.11859 -0.12781
 N680 N 0.87742 0.13468 -0.14184
 C681 C 0.91536 0.08125 -0.08881
 C682 C 0.91083 0.05915 -0.06520
 H683 H 0.80514 0.14680 -0.13831
 H684 H 0.93706 0.08633 -0.09666
 H685 H 0.85454 0.16879 -0.18322
 H686 H 0.88917 0.05360 -0.05760
 C687 C 0.81789 0.66999 0.33666
 C688 C 0.84064 0.67767 0.35758
 C689 C 0.85958 0.65477 0.37210
 N690 N 0.88196 0.66265 0.39171
 N691 N 0.89944 0.64200 0.40446
 C692 C 0.89515 0.61275 0.39793
 N693 N 0.87280 0.60493 0.37838
 N694 N 0.85537 0.62552 0.36569
 C695 C 0.91369 0.58931 0.41166
 C696 C 0.93681 0.59461 0.43276
 H697 H 0.84561 0.70057 0.36295
 H698 H 0.90830 0.56665 0.40525
 H699 H 0.81430 0.64650 0.33241
 H700 H 0.94241 0.61714 0.43946
 C701 C 0.32416 0.18139 0.34038
 C702 C 0.32295 0.15102 0.34817
 C703 C 0.34556 0.13644 0.36797
 N704 N 0.34154 0.10842 0.37981
 N705 N 0.36221 0.09471 0.39694
 C706 C 0.38773 0.10847 0.40266
 N707 N 0.39178 0.13642 0.39073
 N708 N 0.37107 0.15019 0.37378
 C709 C 0.41123 0.09340 0.42040
 C710 C 0.40741 0.06670 0.43752
 H711 H 0.30515 0.13736 0.34031
 H712 H 0.43223 0.10387 0.42012
 H713 H 0.34115 0.19431 0.35171
 H714 H 0.38614 0.05702 0.43949
 C715 C 0.32415 0.65631 -0.17784
 C716 C 0.32513 0.65029 -0.14413
 C717 C 0.34698 0.63009 -0.13013
 N718 N 0.34418 0.61922 -0.09911
 N719 N 0.36435 0.60155 -0.08609
 C720 C 0.38811 0.59432 -0.10359
 N721 N 0.39094 0.60531 -0.13448
 N722 N 0.37072 0.62275 -0.14755
 C723 C 0.41141 0.57628 -0.08933
 C724 C 0.40848 0.55976 -0.06043
 H725 H 0.30961 0.65977 -0.12758
 H726 H 0.43172 0.57603 -0.10226
 H727 H 0.33836 0.64352 -0.19333
 H728 H 0.38775 0.55810 -0.04854
 C729 C 1.16853 -0.18073 -0.16568
 C730 C 1.17371 -0.15269 -0.15250
 C731 C 1.15086 -0.13608 -0.13580
 N732 N 1.15709 -0.11056 -0.11973
 N733 N 1.13640 -0.09529 -0.10484
 C734 C 1.10872 -0.10496 -0.10567
 N735 N 1.10250 -0.13036 -0.12188
 N736 N 1.12317 -0.14565 -0.13662
 C737 C 1.08543 -0.08860 -0.08964
 C738 C 1.09028 -0.06430 -0.06937
 H739 H 1.19487 -0.14277 -0.15389
 H740 H 1.06369 -0.09662 -0.09330
 H741 H 1.14776 -0.19103 -0.16161
 H742 H 1.11204 -0.05678 -0.06470
 C743 C 1.17346 0.33633 0.32831
 C744 C 1.14934 0.32806 0.34661
 C745 C 1.13108 0.35048 0.36240
 N746 N 1.10826 0.34197 0.38096
 N747 N 1.09153 0.36223 0.39506
 C748 C 1.09700 0.39172 0.39094
 N749 N 1.11974 0.40017 0.37235
 N750 N 1.13646 0.37996 0.35836
 C751 C 1.07927 0.41471 0.40624
 C752 C 1.05672 0.40858 0.42775
 H753 H 1.14302 0.30501 0.34890
 H754 H 1.08499 0.43762 0.40095
 H755 H 1.17861 0.35977 0.32613
 H756 H 1.05103 0.38577 0.43360
 C757 C 0.66810 -0.16992 0.34166
 C758 C 0.67228 -0.14066 0.35182
 C759 C 0.64962 -0.12454 0.36946
 N760 N 0.65534 -0.09799 0.38371
 N761 N 0.63472 -0.08321 0.39933
 C762 C 0.60761 -0.09441 0.40105
 N763 N 0.60190 -0.12082 0.38665
 N764 N 0.62250 -0.13563 0.37123
 C765 C 0.58425 -0.07854 0.41754
 C766 C 0.58859 -0.05358 0.43700
 H767 H 0.69249 -0.12946 0.34730
 H768 H 0.56275 -0.08753 0.41486
 H769 H 0.64860 -0.18135 0.34902
 H770 H 0.61015 -0.04523 0.44112
 C771 C 0.66888 0.32332 -0.16237
 C772 C 0.67413 0.35136 -0.14917
 C773 C 0.65164 0.36794 -0.13184
 N774 N 0.65807 0.39392 -0.11675
 N775 N 0.63767 0.40936 -0.10155
 C776 C 0.61009 0.39939 -0.10109
 N777 N 0.60369 0.37348 -0.11623
 N778 N 0.62407 0.35803 -0.13130
 C779 C 0.58703 0.41598 -0.08495
 C780 C 0.59181 0.44121 -0.06602
 H781 H 0.69518 0.36146 -0.15125
 H782 H 0.56537 0.40739 -0.08755
 H783 H 0.64839 0.31266 -0.15766
 H784 H 0.61348 0.44939 -0.06227
 C785 C 1.17293 0.17325 -0.16174
 C786 C 1.17533 0.14254 -0.15601
 C787 C 1.15255 0.12616 -0.13845
 N788 N 1.15751 0.09836 -0.12636
 N789 N 1.13680 0.08344 -0.11073
 C790 C 1.11033 0.09573 -0.10690
 N791 N 1.10535 0.12336 -0.11925
 N792 N 1.12606 0.13833 -0.13464
 C793 C 1.08693 0.07978 -0.09022
 C794 C 1.09122 0.05411 -0.07136
 H795 H 1.19398 0.13008 -0.16358
 H796 H 1.06561 0.08941 -0.09191
 H797 H 1.15478 0.18428 -0.15045
 H798 H 1.11271 0.04527 -0.06799
 C799 C 1.18227 0.66569 0.34002
 C800 C 1.15757 0.67407 0.35708
 C801 C 1.13942 0.65190 0.37394
 N802 N 1.11519 0.66043 0.38983
 N803 N 1.09832 0.64030 0.40443
 C804 C 1.10513 0.61093 0.40356
 N805 N 1.12935 0.60248 0.38778
 N806 N 1.14618 0.62255 0.37327
 C807 C 1.08687 0.58796 0.41857
 C808 C 1.06202 0.59383 0.43653
 H809 H 1.15053 0.69698 0.35716
 H810 H 1.09361 0.56512 0.41525
 H811 H 1.18801 0.64234 0.33959
 H812 H 1.05542 0.61654 0.44094
 C813 C 0.66603 0.16948 0.32137
 C814 C 0.67014 0.15564 0.35185
 C815 C 0.64778 0.13667 0.36677
 N816 N 0.65360 0.12057 0.39437
 N817 N 0.63339 0.10356 0.40816
 C818 C 0.60658 0.10211 0.39485
 N819 N 0.60078 0.11826 0.36734
 N820 N 0.62099 0.13514 0.35351
 C821 C 0.58354 0.08439 0.41009
 C822 C 0.58802 0.06533 0.43685
 H823 H 0.69042 0.15796 0.36469
 H824 H 0.56210 0.08680 0.39991
 H825 H 0.64643 0.16496 0.30783
 H826 H 0.60955 0.06192 0.44641
 C827 C 0.66781 0.66402 -0.18619
 C828 C 0.66870 0.65391 -0.15351
 C829 C 0.64693 0.63346 -0.13982
 N830 N 0.65168 0.62003 -0.11032
 N831 N 0.63191 0.60220 -0.09704
 C832 C 0.60654 0.59725 -0.11269
 N833 N 0.60175 0.61073 -0.14215
 N834 N 0.62160 0.62843 -0.15553
 C835 C 0.58387 0.57881 -0.09758
 C836 C 0.58875 0.56127 -0.06967
 H837 H 0.68613 0.65989 -0.13728
 H838 H 0.56261 0.57944 -0.10856
 H839 H 0.65133 0.65447 -0.20179
 H840 H 0.61032 0.55935 -0.05972
 C841 C 0.82396 -0.17977 -0.15624
 C842 C 0.82397 -0.14906 -0.15091
 C843 C 0.84661 -0.13478 -0.13121
 N844 N 0.84338 -0.10628 -0.12115
 N845 N 0.86420 -0.09284 -0.10429
 C846 C 0.88911 -0.10737 -0.09711
 N847 N 0.89236 -0.13580 -0.10728
 N848 N 0.87148 -0.14929 -0.12392
 C849 C 0.91288 -0.09258 -0.07988
 C850 C 0.90956 -0.06558 -0.06382
 H851 H 0.80717 -0.13494 -0.16076
 H852 H 0.93366 -0.10349 -0.07969
 H853 H 0.83960 -0.19300 -0.14272
 H854 H 0.88845 -0.05555 -0.06203
 C855 C 0.84152 0.31796 0.32761
 C856 C 0.85061 0.34683 0.31978
 C857 C 0.87225 0.36335 0.33869
 N858 N 0.88054 0.39050 0.32754
 N859 N 0.89910 0.40682 0.34450
 C860 C 0.91018 0.39666 0.37329
 N861 N 0.90210 0.36934 0.38453
 N862 N 0.88345 0.35293 0.36747
 C863 C 0.92889 0.41657 0.39212
 C864 C 0.94161 0.40962 0.42231
 H865 H 0.84240 0.35824 0.29829
 H866 H 0.93173 0.43875 0.38196
 H867 H 0.85244 0.30642 0.34754
 H868 H 0.94071 0.38719 0.43220
 C869 C 0.32802 -0.17570 0.34506
 C870 C 0.32607 -0.14521 0.35135
 C871 C 0.34819 -0.12981 0.37079
 N872 N 0.34349 -0.10174 0.38152
 N873 N 0.36373 -0.08736 0.39836
 C874 C 0.38947 -0.10050 0.40487
 N875 N 0.39419 -0.12848 0.39401
 N876 N 0.37392 -0.14291 0.37738
 C877 C 0.41255 -0.08475 0.42226
 C878 C 0.40817 -0.05806 0.43861
 H879 H 0.30810 -0.13212 0.34256
 H880 H 0.43374 -0.09480 0.42241
 H881 H 0.34512 -0.18797 0.35730
 H882 H 0.38672 -0.04880 0.44029
 C883 C 0.32655 0.32283 -0.15552
 C884 C 0.32822 0.35368 -0.15159
 C885 C 0.35041 0.36741 -0.13074
 N886 N 0.34739 0.39600 -0.12090
 N887 N 0.36773 0.40895 -0.10284
 C888 C 0.39195 0.39384 -0.09420
 N889 N 0.39503 0.36532 -0.10420
 N890 N 0.37460 0.35230 -0.12200
 C891 C 0.41530 0.40825 -0.07578
 C892 C 0.41149 0.43494 -0.05921
 H893 H 0.31255 0.36835 -0.16286
 H894 H 0.43615 0.39749 -0.07532
 H895 H 0.34069 0.30916 -0.14044
 H896 H 0.39022 0.44464 -0.05759
 C897 C 1.17038 -0.17539 0.17278
 C898 C 1.17660 -0.15171 0.15138
 C899 C 1.15345 -0.13451 0.13528
 N900 N 1.15988 -0.11239 0.11360
 N901 N 1.13900 -0.09673 0.09900
 C902 C 1.11094 -0.10262 0.10566
 N903 N 1.10455 -0.12465 0.12737
 N904 N 1.12538 -0.14029 0.14189
 C905 C 1.08742 -0.08600 0.08978
 C906 C 1.09192 -0.06398 0.06602
 H907 H 1.19847 -0.14527 0.14603
 H908 H 1.06566 -0.09189 0.09668
 H909 H 1.14788 -0.18079 0.17650
 H910 H 1.11361 -0.05814 0.05879
 C911 C 1.15944 0.33057 0.67964
 C912 C 1.14849 0.32655 0.64792
 C913 C 1.12752 0.34763 0.63350
 N914 N 1.11448 0.34168 0.60441
 N915 N 1.09604 0.36105 0.59094
 C916 C 1.09005 0.38710 0.60610
 N917 N 1.10308 0.39300 0.63512
 N918 N 1.12137 0.37363 0.64861
 C919 C 1.07130 0.40981 0.59107
 C920 C 1.05505 0.40533 0.56268
 H921 H 1.15468 0.30770 0.63334
 H922 H 1.07094 0.43141 0.60261
 H923 H 1.15070 0.34882 0.69365
 H924 H 1.05386 0.38345 0.55187
 C925 C 0.67887 -0.16992 0.65692
 C926 C 0.66379 -0.14448 0.66623
 C927 C 0.64481 -0.12850 0.64309
 N928 N 0.64065 -0.09874 0.64597
 N929 N 0.62248 -0.08436 0.62599
 C930 C 0.60750 -0.09935 0.60274
 N931 N 0.61149 -0.12913 0.60006
 N932 N 0.62998 -0.14341 0.61967
 C933 C 0.58555 -0.08437 0.58248
 C934 C 0.58733 -0.05444 0.57347
 H935 H 0.66693 -0.13498 0.69025
 H936 H 0.56757 -0.09753 0.57383
 H937 H 0.67879 -0.17543 0.63108
 H938 H 0.60676 -0.04195 0.57842
 C939 C 0.68340 0.32685 0.15579
 C940 C 0.67260 0.35514 0.16264
 C941 C 0.65327 0.37070 0.13952
 N942 N 0.65136 0.40085 0.13956
 N943 N 0.63291 0.41493 0.11965
 C944 C 0.61549 0.39930 0.09928
 N945 N 0.61730 0.36918 0.09942
 N946 N 0.63599 0.35514 0.11897
 C947 C 0.59317 0.41407 0.07943
 C948 C 0.59499 0.44360 0.06888
 H949 H 0.67913 0.36679 0.18452
 H950 H 0.57453 0.40099 0.07258
 H951 H 0.67985 0.31838 0.13128
 H952 H 0.61475 0.45602 0.07210
 C953 C 0.83645 0.17335 0.16530
 C954 C 0.83138 0.14520 0.15237
 C955 C 0.85362 0.12949 0.13368
 N956 N 0.84718 0.10390 0.11782
 N957 N 0.86734 0.08946 0.10110
 C958 C 0.89468 0.10009 0.09975
 N959 N 0.90110 0.12558 0.11569
 N960 N 0.88096 0.14004 0.13227
 C961 C 0.91754 0.08433 0.08226
 C962 C 0.91247 0.05953 0.06279
 H963 H 0.81058 0.13470 0.15521
 H964 H 0.93926 0.09275 0.08486
 H965 H 0.85666 0.18433 0.15989
 H966 H 0.89070 0.05163 0.05904
 C967 C 0.83935 0.67423 0.67426
 C968 C 0.83856 0.66625 0.64135
 C969 C 0.86053 0.64647 0.62755
 N970 N 0.86635 0.64716 0.59494
 N971 N 0.88590 0.62886 0.58233
 C972 C 0.90010 0.60903 0.60187
 N973 N 0.89409 0.60820 0.63438
 N974 N 0.87484 0.62672 0.64703
 C975 C 0.92007 0.58711 0.58821
 C976 C 0.93431 0.59132 0.55850
 H977 H 0.82222 0.67557 0.62525
 H978 H 0.92376 0.56686 0.60223
 H979 H 0.85772 0.66773 0.68914
 H980 H 0.93318 0.61261 0.54588
 C981 C 0.32883 0.18126 0.66679
 C982 C 0.32251 0.15588 0.64856
 C983 C 0.34536 0.13925 0.63168
 N984 N 0.33881 0.11493 0.61360
 N985 N 0.35949 0.09956 0.59875
 C986 C 0.38747 0.10798 0.60152
 N987 N 0.39396 0.13226 0.61956
 N988 N 0.37334 0.14760 0.63433
 C989 C 0.41087 0.09138 0.58589
 C990 C 0.40642 0.06686 0.56577
 H991 H 0.30079 0.14750 0.64686
 H992 H 0.43260 0.09905 0.59042
 H993 H 0.35097 0.18875 0.66759
 H994 H 0.38475 0.05936 0.56054
 C995 C 0.33588 0.68021 0.16330
 C996 C 0.32931 0.65396 0.14675
 C997 C 0.35168 0.63702 0.12945
 N998 N 0.34493 0.61138 0.11381
 N999 N 0.36524 0.59561 0.09882
 C1000 C 0.39305 0.60494 0.09900
 N1001 N 0.39973 0.63056 0.11456
 N1002 N 0.37947 0.64629 0.12947
 C1003 C 0.41612 0.58789 0.08331
 C1004 C 0.41145 0.56194 0.06553
 H1005 H 0.30781 0.64483 0.14736
 H1006 H 0.43780 0.59642 0.08585
 H1007 H 0.35789 0.68812 0.16275
 H1008 H 0.38980 0.55358 0.06216
   
