data_POSCAR
  _audit_creation_date              2014-09-24
  _audit_creation_method            'ToBaCCo'
  _symmetry_space_group_name_H-M    'P1'
  _symmetry_Int_Tables_number       1
  _symmetry_cell_setting            triclinic
  loop_
  _symmetry_equiv_pos_as_xyz
 x,y,z
_cell_length_a 14.3212
_cell_length_b 14.2296
_cell_length_c 14.5069
_cell_angle_alpha 92.003000
_cell_angle_beta 89.403300
_cell_angle_gamma 91.511000
loop_
  _atom_site_label
  _atom_site_type_symbol
  _atom_site_fract_x
  _atom_site_fract_y
  _atom_site_fract_z
O1 O 0.42116 0.94353 -0.61200
 O2 O 0.57465 0.91631 -0.41332
 O3 O 0.39493 0.92641 -0.43529
 O4 O 0.59899 0.93167 -0.59194
 O5 O 0.61250 1.08620 -0.57334
 O6 O 0.41448 1.07960 -0.40936
 O7 O 0.59235 1.07060 -0.39588
 O8 O 0.42945 1.09761 -0.58721
 Cu9 Cu 0.49697 0.91388 -0.51534
 Cu10 Cu 0.51377 1.09927 -0.49051
 C11 C 0.39760 1.02565 -0.63190
 C12 C 0.60742 0.98846 -0.36956
 C13 C 0.37144 1.00248 -0.39390
 C14 C 0.63917 1.00926 -0.61038
 O15 O -0.59944 1.38569 0.04274
 O16 O -0.44424 1.58222 0.12712
 O17 O -0.62175 1.56647 0.07331
 O18 O -0.42969 1.40344 0.09632
 O19 O -0.37822 1.43774 -0.04304
 O20 O -0.58261 1.58631 -0.07252
 O21 O -0.41227 1.61514 -0.01770
 O22 O -0.54887 1.40982 -0.09916
 Cu23 Cu -0.52898 1.48355 0.09984
 Cu24 Cu -0.47595 1.51571 -0.07232
 C25 C -0.59733 1.36262 -0.04271
 C26 C -0.40142 1.63132 0.06792
 C27 C -0.63757 1.60009 -0.00464
 C28 C -0.37110 1.39306 0.03091
 O29 O -0.02571 0.39840 0.39574
 O30 O -0.11500 0.55248 0.58146
 O31 O -0.08678 0.56592 0.40239
 O32 O -0.04926 0.38323 0.57140
 O33 O 0.09049 0.44522 0.60258
 O34 O 0.05641 0.62202 0.42688
 O35 O 0.02653 0.61247 0.60715
 O36 O 0.11881 0.44743 0.42587
 Cu37 Cu -0.08373 0.47020 0.48546
 Cu38 Cu 0.08746 0.53871 0.51707
 C39 C 0.06137 0.39465 0.38048
 C40 C -0.05994 0.60690 0.62729
 C41 C -0.02061 0.62346 0.38427
 C42 C 0.02660 0.38371 0.61630
 O43 O -0.16981 0.97703 -0.21139
 O44 O -0.07719 1.05949 0.25046
 O45 O -0.25527 0.92350 0.04656
 O46 O -0.20466 1.16912 0.02066
 O47 O -0.07618 1.25947 -0.02095
 O48 O -0.16677 0.79108 0.05079
 O49 O -0.20669 1.06216 0.15774
 O50 O -0.25400 1.01775 -0.08034
 Zr51 Zr -0.15526 1.03173 0.02434
 O52 O -0.04826 1.11260 0.08032
 O53 O -0.11063 0.92207 -0.05850
 C54 C -0.24759 0.99111 -0.16600
 C55 C -0.16604 1.06783 0.23710
 C56 C -0.24555 0.83385 0.05270
 C57 C -0.16420 1.24826 -0.00003
 H58 H -0.11868 0.91949 0.15501
 O59 O -0.08019 0.94645 0.10500
 H60 H -0.11948 1.12461 -0.12102
 O61 O -0.07936 1.08577 -0.08341
 O62 O 0.16633 1.01401 0.20855
 O63 O 0.08293 0.94863 -0.25697
 O64 O -0.01698 0.78422 0.15296
 O65 O 0.05755 1.25617 0.08558
 O66 O 0.02796 1.21499 -0.16066
 O67 O -0.07801 0.75063 -0.08848
 O68 O 0.20621 0.82402 -0.02718
 O69 O 0.25626 1.07275 -0.06337
 O70 O 0.07161 0.73927 0.00658
 O71 O 0.17140 1.20869 -0.05954
 O72 O 0.02989 0.91143 0.24559
 O73 O -0.06801 0.84002 -0.21808
 O74 O -0.02227 1.08917 -0.25365
 O75 O 0.06174 1.16148 0.21117
 O76 O 0.25443 0.96468 0.08292
 O77 O 0.21224 0.94498 -0.16351
 Zr78 Zr 0.03145 1.02519 0.15564
 Zr79 Zr -0.02921 0.97540 -0.16315
 Zr80 Zr -0.03041 0.84054 0.02084
 Zr81 Zr 0.03301 1.16087 -0.02728
 Zr82 Zr 0.15957 0.96593 -0.02866
 O83 O 0.08311 1.05227 -0.10967
 O84 O 0.08227 0.91265 0.07829
 C85 C 0.24349 0.98692 0.16998
 C86 C 0.17233 0.94371 -0.24340
 C87 C 0.00914 0.82287 0.23134
 C88 C 0.06300 1.24282 0.17336
 C89 C 0.00244 1.17693 -0.23941
 C90 C -0.08748 0.76262 -0.17604
 C91 C 0.15914 0.74566 -0.01432
 C92 C 0.24780 1.16217 -0.07319
 H93 H 0.07343 0.83727 -0.12790
 O94 O 0.05046 0.88873 -0.08686
 H95 H 0.16698 1.11661 0.07889
 O96 O 0.11436 1.07860 0.05235
 N97 N 0.32977 1.03718 0.29857
 N98 N 0.32171 0.98037 0.22923
 N99 N -0.28890 1.00907 0.32144
 N100 N -0.22630 1.07363 0.31541
 N101 N -0.35619 0.97846 -0.28873
 N102 N -0.33531 0.96850 -0.20778
 N103 N 0.30015 1.00185 -0.32433
 N104 N 0.23321 0.94123 -0.32203
 N105 N 0.36060 1.28533 -0.07303
 N106 N 0.32939 1.21025 -0.10613
 N107 N 0.28155 0.63635 -0.01868
 N108 N 0.20056 0.65718 -0.03366
 N109 N -0.33374 0.70099 0.09560
 N110 N -0.32788 0.77625 0.05124
 N111 N -0.30093 1.32482 0.03931
 N112 N -0.22324 1.32739 -0.00403
 N113 N 0.09311 1.32623 0.31409
 N114 N 0.05809 1.32376 0.23383
 N115 N 0.03920 1.31715 -0.31382
 N116 N -0.00374 1.23770 -0.31537
 N117 N -0.09237 0.65125 -0.29928
 N118 N -0.12721 0.68479 -0.22786
 N119 N -0.03242 0.68785 0.31231
 N120 N 0.01675 0.76330 0.30793
   
