data_POSCAR
  _audit_creation_date              2014-09-24
  _audit_creation_method            'ToBaCCo'
  _symmetry_space_group_name_H-M    'P1'
  _symmetry_Int_Tables_number       1
  _symmetry_cell_setting            triclinic
  loop_
  _symmetry_equiv_pos_as_xyz
 x,y,z
_cell_length_a 18.8634
_cell_length_b 18.7414
_cell_length_c 41.9093
_cell_angle_alpha 81.441600
_cell_angle_beta 94.544100
_cell_angle_gamma 121.251600
loop_
  _atom_site_label
  _atom_site_type_symbol
  _atom_site_fract_x
  _atom_site_fract_y
  _atom_site_fract_z
C1 C 0.02765 0.16490 0.53782
 H2 H 0.08500 0.16709 0.53434
 C3 C 0.02562 0.21534 0.55854
 H4 H 0.08169 0.25629 0.57108
 C5 C -0.11546 0.10744 0.52602
 H6 H -0.17023 0.06445 0.51346
 C7 C -0.12005 0.15797 0.54630
 H8 H -0.17905 0.15259 0.54956
 N9 N -0.04247 0.11115 0.52258
 C10 C -0.01048 -0.09754 0.50999
 H11 H -0.01815 -0.09905 0.48420
 C12 C -0.00700 -0.16283 0.52970
 H13 H -0.01028 -0.21349 0.51890
 C14 C -0.00124 -0.03236 0.55571
 H15 H -0.00214 0.01639 0.56612
 C16 C 0.00492 -0.09482 0.57611
 H17 H 0.00979 -0.09269 0.60193
 Zn18 Zn -0.03113 0.04353 0.49654
 N19 N -0.00947 -0.03490 0.52326
 C20 C 0.11344 0.09770 0.45947
 N21 N 0.05791 0.11708 0.46803
 C22 C 0.06441 0.19211 0.45669
 C23 C 0.12894 0.25155 0.43612
 C24 C 0.17846 0.15506 0.43846
 C25 C -0.17862 -0.10092 0.48183
 C26 C -0.23849 -0.15329 0.46108
 C27 C -0.20086 -0.03131 0.42170
 C28 C -0.14014 0.01838 0.44303
 N29 N -0.12834 -0.01752 0.47202
 H30 H 0.10741 0.03792 0.46878
 H31 H 0.01919 0.20583 0.46370
 H32 H 0.13197 0.31024 0.42702
 H33 H 0.22200 0.13885 0.43155
 H34 H -0.16948 -0.12801 0.50526
 H35 H -0.27271 -0.21962 0.46971
 H36 H -0.20650 -0.00137 0.39822
 H37 H -0.09968 0.08490 0.43569
 C38 C -0.00048 -0.16219 0.56325
 C39 C -0.04869 0.21227 0.56304
 C40 C -0.24883 -0.11929 0.42981
 C41 C 0.18728 0.23342 0.42694
 C42 C 1.20933 0.08716 0.12302
 H43 H 1.20946 0.14520 0.12223
 C44 C 1.26290 0.08328 0.10329
 H45 H 1.30421 0.13854 0.08718
 C46 C 1.15362 -0.05600 0.14461
 H47 H 1.11017 -0.11007 0.16057
 C48 C 1.20734 -0.06235 0.12554
 H49 H 1.20385 -0.12215 0.12662
 N50 N 1.15497 0.01778 0.14260
 C51 C 0.94610 0.05077 0.15090
 H52 H 0.94440 0.05071 0.17665
 C53 C 0.88020 0.04551 0.13143
 H54 H 0.82936 0.04423 0.14231
 C55 C 1.01295 0.04880 0.10577
 H56 H 1.06255 0.04622 0.09590
 C57 C 0.94921 0.04482 0.08542
 H58 H 0.95157 0.04104 0.06002
 Zn59 Zn 1.08378 0.03234 0.16645
 N60 N 1.00980 0.05038 0.13796
 C61 C 1.14656 0.19470 0.18655
 N62 N 1.15268 0.12483 0.18919
 C63 C 1.21161 0.11842 0.20805
 C64 C 1.26479 0.18184 0.22657
 C65 C 1.19982 0.26073 0.20434
 C66 C 0.94897 -0.12934 0.18295
 C67 C 0.88499 -0.19291 0.20301
 C68 C 0.96347 -0.12605 0.24909
 C69 C 1.02492 -0.06260 0.22814
 N70 N 1.01591 -0.06435 0.19565
 H71 H 1.09998 0.19884 0.17098
 H72 H 1.21600 0.06279 0.20916
 H73 H 1.30974 0.17451 0.24222
 H74 H 1.19273 0.31485 0.20282
 H75 H 0.94266 -0.12872 0.15705
 H76 H 0.83028 -0.24211 0.19245
 H77 H 0.96983 -0.12201 0.27478
 H78 H 1.07722 -0.00988 0.23791
 C79 C 0.88044 0.04006 0.09834
 C80 C 1.26233 0.00803 0.10436
 C81 C 0.89102 -0.18993 0.23644
 C82 C 1.25923 0.25389 0.22491
 C83 C 0.08545 0.89451 0.87535
 H84 H 0.03081 0.83345 0.87335
 C85 C 0.15293 0.90035 0.89349
 H86 H 0.14912 0.84337 0.90573
 C87 C 0.15428 1.04294 0.86294
 H88 H 0.15397 1.09809 0.85107
 C89 C 0.22284 1.05178 0.88151
 H90 H 0.27529 1.11402 0.88400
 N91 N 0.08720 0.96502 0.86052
 C92 C -0.16846 0.90686 0.85738
 H93 H -0.18558 0.89881 0.83235
 C94 C -0.22373 0.90434 0.87859
 H95 H -0.28320 0.89267 0.86915
 C96 C -0.06735 0.93676 0.89867
 H97 H -0.00565 0.95161 0.90631
 C98 C -0.11955 0.93666 0.92041
 H99 H -0.09725 0.94993 0.94471
 Zn100 Zn -0.01048 0.94559 0.83773
 N101 N -0.09181 0.92338 0.86767
 C102 C -0.11797 0.78299 0.81612
 N103 N -0.04162 0.85405 0.81460
 C104 C 0.02005 0.86292 0.79667
 C105 C 0.00600 0.80003 0.77869
 C106 C -0.13489 0.71813 0.79835
 C107 C 0.01189 1.10674 0.82112
 C108 C 0.01189 1.17287 0.80063
 C109 C 0.00503 1.10448 0.75501
 C110 C 0.00351 1.03902 0.77631
 N111 N 0.00643 1.04091 0.80874
 H112 H -0.16575 0.77653 0.83096
 H113 H 0.08035 0.91988 0.79609
 H114 H 0.05568 0.81088 0.76375
 H115 H -0.19619 0.66229 0.79935
 H116 H 0.01317 1.10631 0.84700
 H117 H 0.01508 1.22412 0.81093
 H118 H 0.00112 1.10123 0.72928
 H119 H -0.00259 0.98571 0.76679
 C120 C -0.19859 0.92167 0.91056
 C121 C 0.22274 0.97979 0.89679
 C122 C 0.00685 1.17113 0.76710
 C123 C -0.07231 0.72601 0.77949
 C124 C 0.27969 -0.09930 0.02333
 C125 C 0.27390 -0.10317 -0.00925
 C126 C 0.35273 -0.07675 -0.01966
 N127 N 0.40658 -0.05621 0.00534
 C128 C 0.36205 -0.06988 0.03166
 C129 C 0.37478 -0.06727 -0.05208
 C130 C 0.44933 -0.05909 -0.06124
 C131 C 0.47938 -0.03557 -0.09250
 C132 C 0.55019 -0.03972 -0.09170
 C133 C 0.56126 -0.06646 -0.05993
 N134 N 0.49933 -0.07799 -0.04156
 C135 C 0.62541 -0.08237 -0.04862
 C136 C 0.64332 -0.08889 -0.01509
 C137 C 0.68255 -0.13003 0.00038
 C138 C 0.69515 -0.11326 0.03176
 C139 C 0.66007 -0.06560 0.03478
 N140 N 0.62793 -0.05109 0.00628
 C141 C 0.66191 -0.03236 0.06310
 C142 C 0.59828 -0.01924 0.07059
 C143 C 0.59828 0.01816 0.09678
 C144 C 0.52197 0.01122 0.09705
 C145 C 0.47813 -0.02922 0.07080
 N146 N 0.52479 -0.04807 0.05497
 C147 C 0.39619 -0.05014 0.06261
 H148 H 0.22913 -0.11560 0.03898
 H149 H 0.21797 -0.12328 -0.02362
 H150 H 0.50449 -0.08620 0.03663
 H151 H 0.45304 -0.01721 -0.11371
 H152 H 0.58914 -0.02395 -0.11228
 H153 H 0.70011 -0.16846 -0.00976
 H154 H 0.72494 -0.13517 0.05045
 H155 H 0.50127 0.03369 0.11450
 H156 H 0.48731 -0.10546 -0.01763
 H157 H 0.64746 0.04627 0.11420
 C158 C -0.13221 0.22699 0.65464
 C159 C -0.11948 0.22330 0.68737
 C160 C -0.08246 0.30500 0.69468
 N161 N -0.07269 0.35831 0.66757
 C162 C -0.10284 0.31075 0.64307
 C163 C -0.05277 0.33038 0.72551
 C164 C -0.03548 0.40831 0.73377
 C165 C 0.00416 0.44137 0.76184
 C166 C 0.00443 0.51499 0.76164
 C167 C -0.03443 0.52530 0.73331
 N168 N -0.05935 0.45955 0.71666
 C169 C -0.05044 0.59140 0.72440
 C170 C -0.07069 0.61173 0.69245
 C171 C -0.09170 0.67248 0.68269
 C172 C -0.09638 0.67971 0.64968
 C173 C -0.07659 0.62438 0.64019
 N174 N -0.06134 0.58264 0.66638
 C175 C -0.06588 0.61830 0.60783
 C176 C -0.06484 0.54928 0.59860
 C177 C -0.04437 0.54541 0.56808
 C178 C -0.05400 0.46726 0.56860
 C179 C -0.07951 0.42578 0.59948
 N180 N -0.08696 0.47572 0.61749
 C181 C -0.09686 0.34320 0.61010
 H182 H -0.15919 0.17419 0.64088
 H183 H -0.13532 0.16689 0.70384
 H184 H -0.11287 0.45751 0.64039
 H185 H 0.02962 0.41490 0.78070
 H186 H 0.02997 0.55585 0.78037
 H187 H -0.10101 0.70949 0.69748
 H188 H -0.11132 0.72207 0.63443
 H189 H -0.04268 0.44402 0.54859
 H190 H -0.09806 0.44607 0.69656
 H191 H -0.02450 0.59378 0.54751
 C192 C 0.26655 0.39048 0.30102
 C193 C 0.25707 0.38443 0.33359
 C194 C 0.33599 0.43115 0.34615
 N195 N 0.39318 0.46550 0.32250
 C196 C 0.35090 0.44066 0.29490
 C197 C 0.35523 0.43621 0.37917
 C198 C 0.43368 0.49548 0.39047
 C199 C 0.46050 0.49174 0.42203
 C200 C 0.53644 0.56354 0.42393
 C201 C 0.55411 0.60990 0.39340
 N202 N 0.49116 0.56718 0.37308
 C203 C 0.62244 0.69279 0.38547
 C204 C 0.65787 0.71946 0.35387
 C205 C 0.73436 0.79019 0.34487
 C206 C 0.74726 0.78857 0.31340
 C207 C 0.68050 0.71513 0.30410
 N208 N 0.62640 0.67282 0.32892
 C209 C 0.67294 0.68688 0.27366
 C210 C 0.60046 0.61707 0.26289
 C211 C 0.59614 0.58234 0.23521
 C212 C 0.51573 0.51771 0.23249
 C213 C 0.47302 0.51425 0.25864
 N214 N 0.52476 0.57568 0.27683
 C215 C 0.38821 0.45533 0.26493
 H216 H 0.21720 0.36013 0.28389
 H217 H 0.19891 0.34888 0.34655
 H218 H 0.50768 0.59274 0.29603
 H219 H 0.42842 0.44256 0.44174
 H220 H 0.57402 0.57856 0.44554
 H221 H 0.78027 0.83613 0.35946
 H222 H 0.80135 0.83563 0.29942
 H223 H 0.49178 0.47725 0.21362
 H224 H 0.48299 0.59093 0.34990
 H225 H 0.64591 0.60121 0.21869
 C226 C -0.04976 0.26261 0.58677
 C227 C -0.10216 0.29096 0.58560
 H228 H -0.00295 0.27987 0.60562
 H229 H -0.14438 0.28197 0.56546
 C230 C 0.82058 0.75229 0.25827
 C231 C 0.74334 0.73468 0.25053
 H232 H 0.83372 0.73236 0.28249
 H233 H 0.73030 0.75568 0.22648
 C234 C 0.29195 -0.01176 -0.08172
 C235 C 0.31537 -0.06888 -0.07770
 H236 H 0.32275 0.04136 -0.06802
 H237 H 0.29022 -0.11854 -0.09299
 C238 C -0.00229 0.76835 0.58567
 C239 C -0.05518 0.68727 0.58218
 H240 H 0.03395 0.78419 0.60765
 H241 H -0.09214 0.67057 0.56041
 C242 C 0.31158 0.31655 0.24687
 C243 C 0.33821 0.39867 0.24048
 H244 H 0.33048 0.29410 0.26937
 H245 H 0.32685 0.42505 0.21725
 C246 C 0.75331 -0.07226 -0.06709
 C247 C 0.67121 -0.09047 -0.07175
 H248 H 0.78436 -0.04803 -0.04500
 H249 H 0.64284 -0.10633 -0.09497
 C250 C 0.31541 0.00400 0.08149
 C251 C 0.34550 -0.04746 0.08718
 H252 H 0.33169 0.04637 0.05909
 H253 H 0.33702 -0.08474 0.11047
 C254 C 0.70228 0.83279 0.40682
 C255 C 0.65690 0.74434 0.41081
 H256 H 0.69945 0.86475 0.38341
 H257 H 0.63952 0.71439 0.43512
 C258 C 0.00100 0.23570 0.74405
 C259 C -0.03954 0.27314 0.75054
 H260 H 0.02444 0.24727 0.71987
 H261 H -0.06363 0.26228 0.77451
 C262 C 0.80994 0.02662 0.07664
 C263 C 0.73094 -0.01408 0.08651
 H264 H 0.82288 0.04553 0.05102
 H265 H 0.71597 -0.03406 0.11189
 C266 C 0.25494 0.29356 0.40429
 C267 C 0.29059 0.37701 0.40324
 H268 H 0.27682 0.26868 0.38826
 H269 H 0.27526 0.40318 0.42107
 C270 C -0.09137 0.65941 0.75935
 C271 C -0.03262 0.64958 0.74829
 H272 H -0.15540 0.61881 0.75255
 H273 H 0.03074 0.68460 0.75665
   
