data_POSCAR
  _audit_creation_date              2014-09-24
  _audit_creation_method            'ToBaCCo'
  _symmetry_space_group_name_H-M    'P1'
  _symmetry_Int_Tables_number       1
  _symmetry_cell_setting            triclinic
  loop_
  _symmetry_equiv_pos_as_xyz
 x,y,z
_cell_length_a 62.0106
_cell_length_b 62.2423
_cell_length_c 53.8112
_cell_angle_alpha 90.081300
_cell_angle_beta 89.910300
_cell_angle_gamma 119.882400
loop_
  _atom_site_label
  _atom_site_type_symbol
  _atom_site_fract_x
  _atom_site_fract_y
  _atom_site_fract_z
O1 O 0.03176 0.49296 0.00443
 O2 O 0.00136 0.51958 -0.03336
 O3 O 0.03219 0.53493 0.00410
 O4 O 0.00096 0.47765 -0.03306
 O5 O -0.03084 0.46227 -0.00697
 O6 O 0.00039 0.51955 0.03020
 O7 O -0.03043 0.50422 -0.00725
 O8 O -0.00004 0.47760 0.03053
 Cu9 Cu 0.01978 0.50783 -0.01710
 Cu10 Cu -0.01844 0.48935 0.01426
 C11 C 0.02107 0.48094 0.02396
 C12 C -0.01974 0.51626 -0.02676
 C13 C 0.02162 0.53684 0.02351
 C14 C -0.02028 0.46036 -0.02639
 O15 O 0.50707 0.53730 0.00567
 O16 O 0.48098 0.47969 -0.03096
 O17 O 0.46538 0.49551 0.00607
 O18 O 0.52261 0.52153 -0.03146
 O19 O 0.53874 0.50624 -0.00500
 O20 O 0.48148 0.48023 0.03258
 O21 O 0.49709 0.46440 -0.00446
 O22 O 0.52319 0.52200 0.03214
 Cu23 Cu 0.49239 0.51005 -0.01535
 Cu24 Cu 0.51175 0.49168 0.01648
 C25 C 0.51939 0.53929 0.02519
 C26 C 0.48477 0.46239 -0.02397
 C27 C 0.46383 0.48362 0.02574
 C28 C 0.54028 0.51815 -0.02467
 O29 O 0.49682 1.03380 -0.00442
 O30 O 0.52272 1.00213 0.03240
 O31 O 0.53866 1.03368 -0.00435
 O32 O 0.48090 1.00225 0.03233
 O33 O 0.46536 0.97118 0.00551
 O34 O 0.52313 1.00262 -0.03117
 O35 O 0.50719 0.97106 0.00559
 O36 O 0.48128 1.00273 -0.03124
 Cu37 Cu 0.51134 1.02110 0.01669
 Cu38 Cu 0.49268 0.98376 -0.01554
 C39 C 0.48481 1.02368 -0.02412
 C40 C 0.51917 0.98117 0.02531
 C41 C 0.54059 1.02353 -0.02404
 C42 C 0.46345 0.98133 0.02521
 O43 O 1.03065 0.53546 0.49242
 O44 O 0.99984 0.47855 0.53006
 O45 O 1.03056 0.49368 0.49248
 O46 O 0.99997 0.52036 0.53007
 O47 O 0.96809 0.50455 0.50414
 O48 O 0.99869 0.47788 0.46654
 O49 O 0.96796 0.46273 0.50412
 O50 O 0.99876 0.51964 0.46649
 Cu51 Cu 1.01847 0.50861 0.51388
 Cu52 Cu 0.98016 0.48961 0.48270
 C53 C 1.01997 0.53708 0.47300
 C54 C 0.97864 0.46110 0.52353
 C55 C 1.01986 0.48141 0.47308
 C56 C 0.97880 0.51682 0.52354
 O57 O 0.46313 0.49437 0.49523
 O58 O 0.52026 0.52119 0.53290
 O59 O 0.50452 0.53646 0.49561
 O60 O 0.47887 0.47908 0.53249
 O61 O 0.49540 0.46399 0.50617
 O62 O 0.52105 0.52134 0.46931
 O63 O 0.53680 0.50608 0.50660
 O64 O 0.47967 0.47927 0.46892
 Cu65 Cu 0.49003 0.50930 0.51672
 Cu66 Cu 0.50990 0.49115 0.48510
 C67 C 0.46182 0.48243 0.47563
 C68 C 0.53810 0.51802 0.52620
 C69 C 0.51696 0.53851 0.47614
 C70 C 0.48293 0.46191 0.52563
 O71 O 0.53522 0.03095 0.50571
 O72 O 0.47782 -0.00002 0.46851
 O73 O 0.49331 0.03096 0.50581
 O74 O 0.51969 -0.00003 0.46842
 O75 O 0.50394 -0.03150 0.49472
 O76 O 0.47756 -0.00052 0.53210
 O77 O 0.46207 -0.03149 0.49481
 O78 O 0.51947 -0.00053 0.53201
 Cu79 Cu 0.50810 0.01865 0.48446
 Cu80 Cu 0.48917 -0.01918 0.51606
 C81 C 0.53697 0.02051 0.52523
 C82 C 0.46033 -0.02106 0.47529
 C83 C 0.48112 0.02052 0.52536
 C84 C 0.51611 -0.02108 0.47516
 C85 C 0.13954 0.41218 0.26274
 C86 C 0.13970 0.41229 0.23725
 C87 C 0.16327 0.41744 0.22999
 N88 N 0.17748 0.42056 0.25018
 C89 C 0.16300 0.41724 0.27023
 C90 C 0.17185 0.42119 0.20520
 C91 C 0.19537 0.42486 0.19797
 C92 C 0.20604 0.43322 0.17475
 C93 C 0.22840 0.43361 0.17484
 C94 C 0.23082 0.42547 0.19811
 N95 N 0.21046 0.41988 0.21197
 C96 C 0.25104 0.42252 0.20552
 C97 C 0.25575 0.41880 0.23033
 C98 C 0.27445 0.41414 0.23772
 C99 C 0.27419 0.41384 0.26322
 C100 C 0.25535 0.41833 0.27057
 N101 N 0.24421 0.42147 0.25044
 C102 C 0.25016 0.42149 0.29542
 C103 C 0.22987 0.42441 0.30273
 C104 C 0.22709 0.43214 0.32612
 C105 C 0.20481 0.43193 0.32603
 C106 C 0.19455 0.42406 0.30259
 N107 N 0.20979 0.41920 0.28863
 C108 C 0.17122 0.42070 0.29512
 H109 H 0.12404 0.40913 0.27443
 H110 H 0.12436 0.40935 0.22541
 H111 H 0.20559 0.41051 0.27142
 H112 H 0.19852 0.43852 0.15931
 H113 H 0.24139 0.43924 0.15949
 H114 H 0.28720 0.41161 0.22597
 H115 H 0.28672 0.41105 0.27500
 H116 H 0.19707 0.43700 0.34149
 H117 H 0.20598 0.41086 0.22900
 H118 H 0.23980 0.43743 0.34165
 C119 C 0.57586 0.72091 0.26336
 C120 C 0.57724 0.72155 0.23792
 C121 C 0.57691 0.74271 0.23046
 N122 N 0.57550 0.75499 0.25055
 C123 C 0.57481 0.74175 0.27071
 C124 C 0.57639 0.74936 0.20546
 C125 C 0.57541 0.77061 0.19773
 C126 C 0.57067 0.77471 0.17352
 C127 C 0.57059 0.79672 0.17350
 C128 C 0.57530 0.80564 0.19769
 N129 N 0.57871 0.78983 0.21226
 C130 C 0.57618 0.82785 0.20537
 C131 C 0.57671 0.83512 0.23036
 C132 C 0.57698 0.85661 0.23777
 C133 C 0.57565 0.85600 0.26321
 C134 C 0.57467 0.83419 0.27061
 N135 N 0.57538 0.82156 0.25048
 C136 C 0.57317 0.82653 0.29561
 C137 C 0.57326 0.80485 0.30346
 C138 C 0.57442 0.79897 0.32811
 C139 C 0.57444 0.77690 0.32814
 C140 C 0.57329 0.76977 0.30350
 N141 N 0.57226 0.78677 0.28865
 C142 C 0.57325 0.74799 0.29569
 H143 H 0.57561 0.70667 0.27509
 H144 H 0.57803 0.70778 0.22624
 H145 H 0.56942 0.78532 0.26968
 H146 H 0.56722 0.76288 0.15752
 H147 H 0.56706 0.80501 0.15748
 H148 H 0.57772 0.87109 0.22606
 H149 H 0.57538 0.87003 0.27491
 H150 H 0.57544 0.76734 0.34450
 H151 H 0.58478 0.79289 0.23053
 H152 H 0.57541 0.80958 0.34445
 C153 C 0.14343 0.72102 0.23552
 C154 C 0.14267 0.72148 0.26098
 C155 C 0.16456 0.74212 0.26861
 N156 N 0.17853 0.75422 0.24863
 C157 C 0.16574 0.74143 0.22834
 C158 C 0.17189 0.74835 0.29366
 C159 C 0.19432 0.76933 0.30147
 C160 C 0.20351 0.77292 0.32553
 C161 C 0.22554 0.79501 0.32570
 C162 C 0.22935 0.80445 0.30175
 N163 N 0.20996 0.78890 0.28719
 C164 C 0.25035 0.82702 0.29429
 C165 C 0.25683 0.83468 0.26936
 C166 C 0.27747 0.85672 0.26207
 C167 C 0.27823 0.85630 0.23661
 C168 C 0.25799 0.83405 0.22908
 N169 N 0.24501 0.82095 0.24917
 C170 C 0.25224 0.82626 0.20403
 C171 C 0.23093 0.80421 0.19597
 C172 C 0.22485 0.79757 0.17124
 C173 C 0.20281 0.77543 0.17107
 C174 C 0.19590 0.76900 0.19569
 N175 N 0.21328 0.78656 0.21065
 C176 C 0.17385 0.74749 0.20340
 H177 H 0.12921 0.70714 0.22367
 H178 H 0.12785 0.70792 0.27255
 H179 H 0.21352 0.78611 0.22979
 H180 H 0.19536 0.76073 0.34132
 H181 H 0.23754 0.80304 0.34167
 H182 H 0.29083 0.87142 0.27387
 H183 H 0.29219 0.87072 0.22499
 H184 H 0.19290 0.76536 0.15460
 H185 H 0.20656 0.79244 0.26924
 H186 H 0.23506 0.80773 0.15493
 C187 C 0.72736 0.58758 0.73797
 C188 C 0.72748 0.58748 0.76347
 C189 C 0.74597 0.58240 0.77059
 N190 N 0.75703 0.57931 0.75032
 C191 C 0.74579 0.58258 0.73036
 C192 C 0.75088 0.57866 0.79532
 C193 C 0.77091 0.57525 0.80241
 C194 C 0.77340 0.56701 0.82559
 C195 C 0.79554 0.56694 0.82537
 C196 C 0.80600 0.57513 0.80205
 N197 N 0.79100 0.58044 0.78828
 C198 C 0.82928 0.57837 0.79451
 C199 C 0.83758 0.58200 0.76963
 C200 C 0.86097 0.58684 0.76205
 C201 C 0.86082 0.58685 0.73655
 C202 C 0.83735 0.58205 0.72939
 N203 N 0.82317 0.57897 0.74963
 C204 C 0.82879 0.57856 0.70463
 C205 C 0.80547 0.57544 0.69751
 C206 C 0.79479 0.56744 0.67426
 C207 C 0.77269 0.56758 0.67449
 C208 C 0.77043 0.57567 0.69788
 N209 N 0.79064 0.58071 0.71169
 C210 C 0.75050 0.57907 0.70545
 H211 H 0.71486 0.59058 0.72637
 H212 H 0.71510 0.59041 0.77539
 H213 H 0.79523 0.58957 0.72882
 H214 H 0.76060 0.56160 0.84109
 H215 H 0.80307 0.56147 0.84066
 H216 H 0.87640 0.58967 0.77368
 H217 H 0.87610 0.58967 0.72465
 H218 H 0.75974 0.56230 0.65916
 H219 H 0.79541 0.58942 0.77123
 H220 H 0.80214 0.56204 0.65871
 C221 C 0.41370 0.14089 0.76315
 C222 C 0.41356 0.14087 0.73765
 C223 C 0.41831 0.16419 0.73033
 N224 N 0.42144 0.17843 0.75049
 C225 C 0.41851 0.16422 0.77057
 C226 C 0.42172 0.17256 0.70551
 C227 C 0.42498 0.19581 0.69824
 C228 C 0.43291 0.20625 0.67488
 C229 C 0.43292 0.22834 0.67496
 C230 C 0.42500 0.23084 0.69837
 N231 N 0.41992 0.21079 0.71233
 C232 C 0.42175 0.25084 0.70581
 C233 C 0.41825 0.25569 0.73068
 C234 C 0.41345 0.27425 0.73813
 C235 C 0.41352 0.27425 0.76363
 C236 C 0.41833 0.25568 0.77091
 N237 N 0.42133 0.24447 0.75073
 C238 C 0.42192 0.25079 0.79570
 C239 C 0.42524 0.23080 0.80295
 C240 C 0.43333 0.22833 0.82623
 C241 C 0.43339 0.20627 0.82615
 C242 C 0.42533 0.19582 0.80281
 N243 N 0.42011 0.21076 0.78890
 C244 C 0.42214 0.17261 0.79540
 H245 H 0.41100 0.12563 0.77488
 H246 H 0.41071 0.12557 0.72585
 H247 H 0.41124 0.20637 0.77179
 H248 H 0.43813 0.19872 0.65935
 H249 H 0.43816 0.24110 0.65950
 H250 H 0.41063 0.28677 0.72643
 H251 H 0.41079 0.28678 0.77546
 H252 H 0.43874 0.19878 0.84155
 H253 H 0.41116 0.20641 0.72952
 H254 H 0.43866 0.24109 0.84171
 C255 C 0.72158 0.14330 0.76269
 C256 C 0.72084 0.14395 0.73726
 C257 C 0.74184 0.16562 0.72982
 N258 N 0.75531 0.17812 0.74992
 C259 C 0.74298 0.16462 0.77006
 C260 C 0.74808 0.17320 0.70482
 C261 C 0.76996 0.19477 0.69694
 C262 C 0.77727 0.20040 0.67231
 C263 C 0.79934 0.22248 0.67225
 C264 C 0.80504 0.22986 0.69685
 N265 N 0.78685 0.21301 0.71172
 C266 C 0.82662 0.25178 0.70463
 C267 C 0.83430 0.25811 0.72961
 C268 C 0.85599 0.27915 0.73694
 C269 C 0.85673 0.27850 0.76237
 C270 C 0.83543 0.25713 0.76985
 N271 N 0.82186 0.24472 0.74977
 C272 C 0.82837 0.25039 0.79488
 C273 C 0.80628 0.22897 0.80266
 C274 C 0.79759 0.22468 0.82695
 C275 C 0.77556 0.20261 0.82700
 C276 C 0.77123 0.19388 0.80274
 N277 N 0.79034 0.20983 0.78810
 C278 C 0.74983 0.17176 0.79505
 H279 H 0.70772 0.12892 0.77442
 H280 H 0.70643 0.13003 0.72559
 H281 H 0.79321 0.20695 0.76972
 H282 H 0.76782 0.18962 0.65600
 H283 H 0.81008 0.23189 0.65590
 H284 H 0.86986 0.29352 0.72521
 H285 H 0.87115 0.29240 0.77404
 H286 H 0.76383 0.19420 0.84308
 H287 H 0.78512 0.21476 0.73060
 H288 H 0.80603 0.23642 0.84299
 C289 C 0.03338 0.47151 0.03928
 C290 C 0.04400 0.46417 0.05253
 C291 C 0.05698 0.45609 0.06876
 C292 C 0.05163 0.45333 0.09421
 C293 C 0.06510 0.44680 0.11028
 C294 C 0.08418 0.44296 0.10109
 C295 C 0.08916 0.44539 0.07541
 C296 C 0.07565 0.45193 0.05936
 C297 C 0.09933 0.43729 0.11839
 C298 C 0.12525 0.44857 0.11523
 C299 C 0.13969 0.44425 0.13223
 C300 C 0.12845 0.42861 0.15258
 C301 C 0.10264 0.41700 0.15569
 C302 C 0.08816 0.42127 0.13870
 C303 C 0.14352 0.42535 0.17080
 C304 C 0.15630 0.42317 0.18630
 H305 H 0.03731 0.45664 0.10170
 H306 H 0.06104 0.44541 0.12998
 H307 H 0.10351 0.44225 0.06773
 H308 H 0.07994 0.45401 0.03969
 H309 H 0.13446 0.46126 0.10000
 H310 H 0.15968 0.45347 0.12976
 H311 H 0.09375 0.40486 0.17140
 H312 H 0.06823 0.41211 0.14149
 C313 C 0.52863 0.56125 0.04008
 C314 C 0.53580 0.57935 0.05303
 C315 C 0.54368 0.60054 0.06898
 C316 C 0.54856 0.59895 0.09408
 C317 C 0.55486 0.61898 0.11000
 C318 C 0.55630 0.64088 0.10102
 C319 C 0.55174 0.64244 0.07565
 C320 C 0.54545 0.62238 0.05975
 C321 C 0.56160 0.66161 0.11825
 C322 C 0.54842 0.67452 0.11623
 C323 C 0.55244 0.69315 0.13324
 C324 C 0.56969 0.69915 0.15246
 C325 C 0.58321 0.68674 0.15439
 C326 C 0.57922 0.66809 0.13740
 C327 C 0.57269 0.71728 0.17079
 C328 C 0.57467 0.73206 0.18641
 H329 H 0.54707 0.58207 0.10145
 H330 H 0.55789 0.61704 0.12948
 H331 H 0.55298 0.65914 0.06811
 H332 H 0.54168 0.62379 0.04035
 H333 H 0.53448 0.66974 0.10194
 H334 H 0.54178 0.70257 0.13165
 H335 H 0.59662 0.69126 0.16920
 H336 H 0.58989 0.65872 0.13926
 C337 C 0.44142 0.96860 0.04010
 C338 C 0.42323 0.95761 0.05302
 C339 C 0.40195 0.94416 0.06891
 C340 C 0.40374 0.94981 0.09426
 C341 C 0.38362 0.93588 0.11007
 C342 C 0.36141 0.91603 0.10072
 C343 C 0.35966 0.91074 0.07512
 C344 C 0.37982 0.92472 0.05934
 C345 C 0.34056 0.90040 0.11778
 C346 C 0.32722 0.87448 0.11491
 C347 C 0.30848 0.85963 0.13175
 C348 C 0.30280 0.87046 0.15163
 C349 C 0.31565 0.89624 0.15443
 C350 C 0.33439 0.91114 0.13760
 C351 C 0.28454 0.85506 0.16974
 C352 C 0.26966 0.84204 0.18518
 H353 H 0.42085 0.96471 0.10190
 H354 H 0.38571 0.94019 0.12973
 H355 H 0.34273 0.89577 0.06732
 H356 H 0.37825 0.92017 0.03974
 H357 H 0.33174 0.86562 0.10007
 H358 H 0.29873 0.83968 0.12950
 H359 H 0.31140 0.90481 0.16977
 H360 H 0.34410 0.93105 0.14012
 C361 C 0.96645 0.52636 0.53874
 C362 C 0.95582 0.53382 0.55188
 C363 C 0.94282 0.54206 0.56799
 C364 C 0.94904 0.54626 0.59320
 C365 C 0.93559 0.55294 0.60921
 C366 C 0.91567 0.55546 0.60021
 C367 C 0.90981 0.55157 0.57475
 C368 C 0.92330 0.54489 0.55876
 C369 C 0.90058 0.56128 0.61751
 C370 C 0.87451 0.54906 0.61523
 C371 C 0.86018 0.55358 0.63224
 C372 C 0.87167 0.57039 0.65172
 C373 C 0.89760 0.58295 0.65393
 C374 C 0.91198 0.57846 0.63693
 C375 C 0.85676 0.57390 0.67002
 C376 C 0.84413 0.57630 0.68561
 H377 H 0.96402 0.54396 0.60056
 H378 H 0.94035 0.55545 0.62876
 H379 H 0.89478 0.55367 0.56721
 H380 H 0.91831 0.54165 0.53927
 H381 H 0.86515 0.53548 0.60071
 H382 H 0.84010 0.54363 0.63046
 H383 H 0.90668 0.59598 0.66897
 H384 H 0.93201 0.58839 0.63899
 C385 C 0.47376 0.43995 0.54048
 C386 C 0.46664 0.42175 0.55326
 C387 C 0.45883 0.40037 0.56887
 C388 C 0.47191 0.38743 0.56838
 C389 C 0.46525 0.36744 0.58442
 C390 C 0.44538 0.36012 0.60122
 C391 C 0.43210 0.37302 0.60131
 C392 C 0.43881 0.39302 0.58524
 C393 C 0.43913 0.33966 0.61909
 C394 C 0.43321 0.34169 0.64392
 C395 C 0.42856 0.32303 0.66108
 C396 C 0.42970 0.30206 0.65365
 C397 C 0.43520 0.29966 0.62893
 C398 C 0.43987 0.31832 0.61173
 C399 C 0.42626 0.28357 0.67167
 C400 C 0.42392 0.26848 0.68704
 H401 H 0.48753 0.39305 0.55588
 H402 H 0.47607 0.35814 0.58414
 H403 H 0.41653 0.36765 0.61381
 H404 H 0.42855 0.40291 0.58577
 H405 H 0.43284 0.35803 0.65026
 H406 H 0.42449 0.32513 0.68022
 H407 H 0.43615 0.28351 0.62300
 H408 H 0.44408 0.31608 0.59269
 C409 C 0.55889 0.03301 0.54028
 C410 C 0.57701 0.04379 0.55330
 C411 C 0.59825 0.05699 0.56927
 C412 C 0.62072 0.07590 0.55966
 C413 C 0.64091 0.08962 0.57548
 C414 C 0.63885 0.08461 0.60115
 C415 C 0.61629 0.06529 0.61053
 C416 C 0.59615 0.05162 0.59469
 C417 C 0.65978 0.09997 0.61822
 C418 C 0.66532 0.08906 0.63830
 C419 C 0.68412 0.10375 0.65514
 C420 C 0.69766 0.12949 0.65212
 C421 C 0.69259 0.14048 0.63198
 C422 C 0.67381 0.12584 0.61512
 C423 C 0.71592 0.14473 0.67029
 C424 C 0.73077 0.15760 0.68581
 H425 H 0.62255 0.08022 0.54001
 H426 H 0.65811 0.10417 0.56766
 H427 H 0.61397 0.06121 0.63023
 H428 H 0.57878 0.03713 0.60235
 H429 H 0.65507 0.06919 0.64101
 H430 H 0.68788 0.09507 0.67069
 H431 H 0.70287 0.16041 0.62957
 H432 H 0.66979 0.13484 0.60008
 C433 C 0.47556 0.03644 0.96103
 C434 C 0.46835 0.04746 0.94823
 C435 C 0.46042 0.06096 0.93259
 C436 C 0.47356 0.08689 0.93278
 C437 C 0.46677 0.10013 0.91671
 C438 C 0.44671 0.08759 0.90019
 C439 C 0.43338 0.06151 0.90039
 C440 C 0.44022 0.04830 0.91648
 C441 C 0.44032 0.10170 0.88229
 C442 C 0.43411 0.09354 0.85756
 C443 C 0.42931 0.10744 0.84037
 C444 C 0.43058 0.12964 0.84763
 C445 C 0.43635 0.13774 0.87226
 C446 C 0.44117 0.12386 0.88950
 C447 C 0.42697 0.14457 0.82956
 C448 C 0.42448 0.15722 0.81417
 H449 H 0.48932 0.09687 0.94506
 H450 H 0.47763 0.12017 0.91676
 H451 H 0.41768 0.05134 0.88810
 H452 H 0.42993 0.02823 0.91618
 H453 H 0.43364 0.07676 0.85134
 H454 H 0.42499 0.10108 0.82131
 H455 H 0.43738 0.15490 0.87808
 H456 H 0.44560 0.13048 0.90846
 C457 C 0.56096 0.52694 0.96096
 C458 C 0.57903 0.53426 0.94781
 C459 C 0.60019 0.54237 0.93165
 C460 C 0.59773 0.54520 0.90620
 C461 C 0.61784 0.55183 0.89019
 C462 C 0.64073 0.55570 0.89942
 C463 C 0.64312 0.55314 0.92510
 C464 C 0.62296 0.54651 0.94110
 C465 C 0.66169 0.56157 0.88218
 C466 C 0.67643 0.55040 0.88531
 C467 C 0.69531 0.55489 0.86834
 C468 C 0.69975 0.57061 0.84806
 C469 C 0.68548 0.58215 0.84501
 C470 C 0.66660 0.57770 0.86196
 C471 C 0.71820 0.57406 0.82984
 C472 C 0.73327 0.57643 0.81431
 H473 H 0.58014 0.54190 0.89866
 H474 H 0.61527 0.55327 0.87048
 H475 H 0.66057 0.55627 0.93282
 H476 H 0.62506 0.54435 0.96077
 H477 H 0.67291 0.53766 0.90048
 H478 H 0.70616 0.54577 0.87080
 H479 H 0.68877 0.59435 0.82936
 H480 H 0.65581 0.58684 0.85925
 C481 C 0.96781 0.43967 0.95938
 C482 C 0.95700 0.42156 0.94640
 C483 C 0.94381 0.40031 0.93050
 C484 C 0.92441 0.37814 0.94001
 C485 C 0.91074 0.35796 0.92422
 C486 C 0.91632 0.35971 0.89868
 C487 C 0.93613 0.38197 0.88940
 C488 C 0.94974 0.40211 0.90521
 C489 C 0.90105 0.33879 0.88161
 C490 C 0.91225 0.33286 0.86202
 C491 C 0.89769 0.31405 0.84516
 C492 C 0.87178 0.30090 0.84766
 C493 C 0.86050 0.30635 0.86733
 C494 C 0.87501 0.32514 0.88421
 C495 C 0.85669 0.28263 0.82944
 C496 C 0.84390 0.26776 0.81389
 H497 H 0.91966 0.37655 0.95957
 H498 H 0.89581 0.34099 0.93198
 H499 H 0.94066 0.38404 0.86979
 H500 H 0.96464 0.41924 0.89764
 H501 H 0.93226 0.34280 0.85972
 H502 H 0.90662 0.30998 0.82999
 H503 H 0.84045 0.29638 0.86936
 H504 H 0.86580 0.32947 0.89887
 C505 C 0.52494 0.96704 0.46085
 C506 C 0.53223 0.95621 0.44779
 C507 C 0.54022 0.94297 0.43179
 C508 C 0.54410 0.94876 0.40648
 C509 C 0.55047 0.93503 0.39056
 C510 C 0.55300 0.91525 0.39977
 C511 C 0.54943 0.90981 0.42533
 C512 C 0.54308 0.92359 0.44122
 C513 C 0.55840 0.89982 0.38257
 C514 C 0.54599 0.87389 0.38527
 C515 C 0.55003 0.85923 0.36830
 C516 C 0.56656 0.87027 0.34847
 C517 C 0.57934 0.89606 0.34588
 C518 C 0.57530 0.91077 0.36280
 C519 C 0.56954 0.85504 0.33021
 C520 C 0.57149 0.84216 0.31464
 H521 H 0.54178 0.96362 0.39896
 H522 H 0.55272 0.93946 0.37094
 H523 H 0.55153 0.89488 0.43302
 H524 H 0.54009 0.91893 0.46080
 H525 H 0.53260 0.86488 0.40005
 H526 H 0.53994 0.83927 0.37040
 H527 H 0.59217 0.90479 0.33058
 H528 H 0.58537 0.93069 0.36042
 C529 C 0.43997 0.47284 0.46043
 C530 C 0.42190 0.46537 0.44731
 C531 C 0.40069 0.45714 0.43122
 C532 C 0.40308 0.45414 0.40578
 C533 C 0.38295 0.44749 0.38984
 C534 C 0.36013 0.44380 0.39914
 C535 C 0.35780 0.44651 0.42481
 C536 C 0.37797 0.45315 0.44074
 C537 C 0.33919 0.43803 0.38197
 C538 C 0.32464 0.44942 0.38513
 C539 C 0.30578 0.44503 0.36823
 C540 C 0.30116 0.42918 0.34799
 C541 C 0.31521 0.41741 0.34491
 C542 C 0.33410 0.42178 0.36179
 C543 C 0.28275 0.42586 0.32982
 C544 C 0.26773 0.42360 0.31434
 H545 H 0.42064 0.45735 0.39819
 H546 H 0.38547 0.44591 0.37013
 H547 H 0.34039 0.44352 0.43257
 H548 H 0.37592 0.45545 0.46040
 H549 H 0.32831 0.46227 0.40026
 H550 H 0.29509 0.45432 0.37071
 H551 H 0.31177 0.40510 0.32930
 H552 H 0.34475 0.41250 0.35903
 C553 C 0.03239 0.55880 0.45777
 C554 C 0.04306 0.57674 0.44458
 C555 C 0.05607 0.59776 0.42840
 C556 C 0.07239 0.62118 0.43824
 C557 C 0.08592 0.64131 0.42235
 C558 C 0.08328 0.63823 0.39641
 C559 C 0.06656 0.61466 0.38675
 C560 C 0.05308 0.59459 0.40265
 C561 C 0.09842 0.65926 0.37942
 C562 C 0.08800 0.66253 0.35753
 C563 C 0.10264 0.68148 0.34086
 C564 C 0.12787 0.69745 0.34585
 C565 C 0.13831 0.69468 0.36779
 C566 C 0.12370 0.67574 0.38450
 C567 C 0.14327 0.71589 0.32790
 C568 C 0.15623 0.73088 0.31253
 H569 H 0.07484 0.62384 0.45815
 H570 H 0.09841 0.65927 0.43036
 H571 H 0.06436 0.61159 0.36688
 H572 H 0.04060 0.57650 0.39485
 H573 H 0.06853 0.65038 0.35327
 H574 H 0.09437 0.68348 0.32393
 H575 H 0.15785 0.70687 0.37178
 H576 H 0.13235 0.67353 0.40102
 C577 C 0.96798 0.52579 0.95801
 C578 C 0.95736 0.53323 0.94490
 C579 C 0.94434 0.54145 0.92890
 C580 C 0.92583 0.54570 0.93857
 C581 C 0.91229 0.55242 0.92277
 C582 C 0.91708 0.55493 0.89705
 C583 C 0.93598 0.55096 0.88758
 C584 C 0.94948 0.54425 0.90341
 C585 C 0.90192 0.56086 0.88003
 C586 C 0.91303 0.57695 0.85976
 C587 C 0.89852 0.58148 0.84304
 C588 C 0.87276 0.57007 0.84640
 C589 C 0.86158 0.55437 0.86672
 C590 C 0.87605 0.54979 0.88345
 C591 C 0.85765 0.57362 0.82845
 C592 C 0.84484 0.57606 0.81316
 H593 H 0.92169 0.54356 0.95828
 H594 H 0.89807 0.55563 0.93067
 H595 H 0.93988 0.55240 0.86784
 H596 H 0.96366 0.54084 0.89570
 H597 H 0.93293 0.58600 0.85681
 H598 H 0.90735 0.59366 0.82735
 H599 H 0.84163 0.54532 0.86941
 H600 H 0.86689 0.53706 0.89866
 C601 C 0.47545 0.44035 0.96125
 C602 C 0.46819 0.42210 0.94851
 C603 C 0.46018 0.40062 0.93296
 C604 C 0.47334 0.38777 0.93308
 C605 C 0.46646 0.36768 0.91709
 C606 C 0.44628 0.36017 0.90071
 C607 C 0.43291 0.37298 0.90100
 C608 C 0.43985 0.39310 0.91701
 C609 C 0.43984 0.33965 0.88282
 C610 C 0.43350 0.34155 0.85814
 C611 C 0.42869 0.32284 0.84094
 C612 C 0.43008 0.30197 0.84816
 C613 C 0.43600 0.29972 0.87274
 C614 C 0.44084 0.31843 0.88999
 C615 C 0.42653 0.28347 0.83005
 C616 C 0.42413 0.26839 0.81459
 H617 H 0.48919 0.39352 0.94526
 H618 H 0.47736 0.35847 0.91705
 H619 H 0.41709 0.36744 0.88885
 H620 H 0.42955 0.40294 0.91675
 H621 H 0.43297 0.35782 0.85194
 H622 H 0.42431 0.32485 0.82190
 H623 H 0.43718 0.28367 0.87851
 H624 H 0.44543 0.31632 0.90890
 C625 C 0.56149 0.03556 0.96194
 C626 C 0.57980 0.04650 0.94918
 C627 C 0.60129 0.05986 0.93354
 C628 C 0.61486 0.08576 0.93444
 C629 C 0.63488 0.09891 0.91829
 C630 C 0.64159 0.08630 0.90096
 C631 C 0.62808 0.06022 0.90047
 C632 C 0.60804 0.04711 0.91666
 C633 C 0.66197 0.10036 0.88288
 C634 C 0.65934 0.09279 0.85788
 C635 C 0.67790 0.10676 0.84054
 C636 C 0.69933 0.12843 0.84792
 C637 C 0.70232 0.13592 0.87281
 C638 C 0.68378 0.12198 0.89020
 C639 C 0.71765 0.14351 0.82971
 C640 C 0.73252 0.15627 0.81413
 H641 H 0.60969 0.09582 0.94734
 H642 H 0.64465 0.11896 0.91888
 H643 H 0.63296 0.04998 0.88755
 H644 H 0.59764 0.02706 0.91579
 H645 H 0.64262 0.07648 0.85158
 H646 H 0.67531 0.10092 0.82127
 H647 H 0.71883 0.15270 0.87871
 H648 H 0.68644 0.12815 0.90935
 C649 C 0.03155 0.47238 0.45873
 C650 C 0.04218 0.46486 0.44565
 C651 C 0.05518 0.45656 0.42963
 C652 C 0.05088 0.45485 0.40400
 C653 C 0.06440 0.44810 0.38817
 C654 C 0.08248 0.44301 0.39779
 C655 C 0.08639 0.44440 0.42364
 C656 C 0.07282 0.45115 0.43945
 C657 C 0.09773 0.43711 0.38079
 C658 C 0.12341 0.44733 0.38492
 C659 C 0.13803 0.44289 0.36820
 C660 C 0.12719 0.42814 0.34719
 C661 C 0.10160 0.41752 0.34314
 C662 C 0.08695 0.42195 0.35983
 C663 C 0.14252 0.42486 0.32921
 C664 C 0.15549 0.42267 0.31387
 H665 H 0.03736 0.45914 0.39620
 H666 H 0.06119 0.44754 0.36835
 H667 H 0.09995 0.44030 0.43163
 H668 H 0.07628 0.45241 0.45927
 H669 H 0.13233 0.45935 0.40069
 H670 H 0.15785 0.45131 0.37144
 H671 H 0.09303 0.40607 0.32692
 H672 H 0.06719 0.41356 0.35631
 C673 C 0.52601 0.56036 0.46115
 C674 C 0.53306 0.57838 0.44813
 C675 C 0.54081 0.59948 0.43212
 C676 C 0.54523 0.59768 0.40691
 C677 C 0.55144 0.61765 0.39098
 C678 C 0.55327 0.63972 0.40006
 C679 C 0.54915 0.64147 0.42553
 C680 C 0.54294 0.62146 0.44144
 C681 C 0.55859 0.66042 0.38285
 C682 C 0.54568 0.67359 0.38515
 C683 C 0.54969 0.69219 0.36816
 C684 C 0.56665 0.69791 0.34867
 C685 C 0.57990 0.68523 0.34644
 C686 C 0.57593 0.66662 0.36343
 C687 C 0.56963 0.71602 0.33037
 C688 C 0.57157 0.73076 0.31476
 H689 H 0.54347 0.58069 0.39947
 H690 H 0.55412 0.61557 0.37142
 H691 H 0.55069 0.65829 0.43314
 H692 H 0.53953 0.62303 0.46093
 H693 H 0.53197 0.66905 0.39967
 H694 H 0.53924 0.70181 0.36996
 H695 H 0.59308 0.68952 0.33142
 H696 H 0.58639 0.65705 0.36135
 C697 C 0.43844 0.96641 0.46022
 C698 C 0.42036 0.95560 0.44717
 C699 C 0.39919 0.94240 0.43113
 C700 C 0.37710 0.92263 0.44038
 C701 C 0.35703 0.90893 0.42443
 C702 C 0.35884 0.91484 0.39899
 C703 C 0.38102 0.93500 0.38997
 C704 C 0.40105 0.94865 0.40595
 C705 C 0.33808 0.89954 0.38173
 C706 C 0.33189 0.91066 0.36235
 C707 C 0.31321 0.89609 0.34535
 C708 C 0.30046 0.87025 0.34749
 C709 C 0.30615 0.85903 0.36695
 C710 C 0.32481 0.87356 0.38397
 C711 C 0.28233 0.85519 0.32912
 C712 C 0.26758 0.84246 0.31344
 H713 H 0.37548 0.91762 0.45985
 H714 H 0.34012 0.89370 0.43198
 H715 H 0.38316 0.93979 0.37044
 H716 H 0.41813 0.96381 0.39858
 H717 H 0.34152 0.93062 0.36034
 H718 H 0.30893 0.90497 0.33036
 H719 H 0.29646 0.83904 0.36872
 H720 H 0.32935 0.86441 0.39846
 C721 C 0.52832 0.96836 0.04024
 C722 C 0.53541 0.95731 0.05316
 C723 C 0.54319 0.94382 0.06899
 C724 C 0.54326 0.92273 0.06006
 C725 C 0.54944 0.90882 0.07590
 C726 C 0.55561 0.91584 0.10090
 C727 C 0.55588 0.93732 0.10957
 C728 C 0.54969 0.95118 0.09371
 C729 C 0.56087 0.90038 0.11813
 C730 C 0.57968 0.91146 0.13619
 C731 C 0.58374 0.89686 0.15318
 C732 C 0.56908 0.87102 0.15234
 C733 C 0.55058 0.85980 0.13422
 C734 C 0.54650 0.87435 0.11721
 C735 C 0.57225 0.85602 0.17068
 C736 C 0.57434 0.84331 0.18630
 H737 H 0.53824 0.91686 0.04095
 H738 H 0.54936 0.89256 0.06859
 H739 H 0.56020 0.94303 0.12879
 H740 H 0.54954 0.96740 0.10086
 H741 H 0.59124 0.93142 0.13719
 H742 H 0.59811 0.90574 0.16714
 H743 H 0.53902 0.83982 0.13351
 H744 H 0.53165 0.86525 0.10378
 C745 C 0.44192 0.47435 0.04087
 C746 C 0.42374 0.46716 0.05384
 C747 C 0.40233 0.45927 0.06961
 C748 C 0.38236 0.46204 0.06171
 C749 C 0.36219 0.45573 0.07757
 C750 C 0.36175 0.44658 0.10158
 C751 C 0.38175 0.44348 0.10919
 C752 C 0.40190 0.44980 0.09330
 C753 C 0.34096 0.44107 0.11892
 C754 C 0.33141 0.42031 0.13472
 C755 C 0.31250 0.41575 0.15170
 C756 C 0.30291 0.43187 0.15312
 C757 C 0.31208 0.45240 0.13730
 C758 C 0.33094 0.45696 0.12029
 C759 C 0.28429 0.42792 0.17133
 C760 C 0.26902 0.42517 0.18677
 H761 H 0.38251 0.46936 0.04341
 H762 H 0.34695 0.45804 0.07106
 H763 H 0.38215 0.43681 0.12767
 H764 H 0.41733 0.44771 0.09965
 H765 H 0.33852 0.40757 0.13391
 H766 H 0.30551 0.39979 0.16386
 H767 H 0.30489 0.46507 0.13835
 H768 H 0.33810 0.47328 0.10864
 C769 C 0.03420 0.55873 0.03852
 C770 C 0.04505 0.57684 0.05150
 C771 C 0.05829 0.59806 0.06742
 C772 C 0.07792 0.62012 0.05799
 C773 C 0.09164 0.64025 0.07382
 C774 C 0.08590 0.63855 0.09932
 C775 C 0.06588 0.61640 0.10852
 C776 C 0.05220 0.59631 0.09266
 C777 C 0.10123 0.65941 0.11644
 C778 C 0.09007 0.66551 0.13592
 C779 C 0.10467 0.68426 0.15282
 C780 C 0.13059 0.69717 0.15045
 C781 C 0.14185 0.69156 0.13088
 C782 C 0.12729 0.67283 0.11397
 C783 C 0.14569 0.71538 0.16870
 C784 C 0.15843 0.73020 0.18431
 H785 H 0.08282 0.62166 0.03848
 H786 H 0.10677 0.65713 0.06613
 H787 H 0.06123 0.61435 0.12810
 H788 H 0.03715 0.57926 0.10018
 H789 H 0.07005 0.65576 0.13811
 H790 H 0.09578 0.68846 0.16792
 H791 H 0.16191 0.70137 0.12896
 H792 H 0.13648 0.66836 0.09940
 C793 C 0.47175 0.03306 0.54049
 C794 C 0.46446 0.04387 0.55357
 C795 C 0.45645 0.05709 0.56959
 C796 C 0.45384 0.07664 0.56023
 C797 C 0.44736 0.09033 0.57613
 C798 C 0.44345 0.08465 0.60163
 C799 C 0.44574 0.06469 0.61075
 C800 C 0.45222 0.05105 0.59483
 C801 C 0.43788 0.09995 0.61882
 C802 C 0.42067 0.08886 0.63833
 C803 C 0.41644 0.10343 0.65525
 C804 C 0.42928 0.12925 0.65287
 C805 C 0.44613 0.14044 0.63333
 C806 C 0.45041 0.12592 0.61639
 C807 C 0.42599 0.14432 0.67107
 C808 C 0.42376 0.15708 0.68658
 H809 H 0.45710 0.08149 0.54072
 H810 H 0.44544 0.10537 0.56849
 H811 H 0.44320 0.06006 0.63033
 H812 H 0.45434 0.03605 0.60230
 H813 H 0.41053 0.06892 0.64053
 H814 H 0.40337 0.09458 0.67034
 H815 H 0.45629 0.16043 0.63142
 H816 H 0.46403 0.13505 0.60182
 C817 C 0.55992 0.52756 0.54143
 C818 C 0.57795 0.53500 0.55461
 C819 C 0.59911 0.54321 0.57074
 C820 C 0.59625 0.54452 0.59640
 C821 C 0.61642 0.55125 0.61231
 C822 C 0.63975 0.55673 0.60275
 C823 C 0.64252 0.55570 0.57688
 C824 C 0.62231 0.54897 0.56099
 C825 C 0.66081 0.56262 0.61980
 C826 C 0.67651 0.55269 0.61552
 C827 C 0.69550 0.55713 0.63227
 C828 C 0.69909 0.57157 0.65347
 C829 C 0.68388 0.58191 0.65768
 C830 C 0.66487 0.57748 0.64096
 C831 C 0.71764 0.57486 0.67145
 C832 C 0.73278 0.57707 0.68677
 H833 H 0.57833 0.53994 0.60416
 H834 H 0.61358 0.55151 0.63214
 H835 H 0.66031 0.56009 0.56893
 H836 H 0.62471 0.54799 0.54115
 H837 H 0.67366 0.54091 0.59961
 H838 H 0.70710 0.54894 0.62891
 H839 H 0.68653 0.59313 0.67404
 H840 H 0.65331 0.58565 0.64460
 C841 C 0.96622 0.43936 0.53874
 C842 C 0.95550 0.42138 0.55188
 C843 C 0.94234 0.40028 0.56794
 C844 C 0.92260 0.37821 0.55867
 C845 C 0.90888 0.35820 0.57462
 C846 C 0.91473 0.36004 0.60008
 C847 C 0.93487 0.38219 0.60912
 C848 C 0.94855 0.40217 0.59314
 C849 C 0.89939 0.33932 0.61733
 C850 C 0.91056 0.33325 0.63676
 C851 C 0.89596 0.31465 0.65378
 C852 C 0.87003 0.30184 0.65157
 C853 C 0.85875 0.30742 0.63206
 C854 C 0.87331 0.32601 0.61502
 C855 C 0.85492 0.28375 0.66991
 C856 C 0.84214 0.26901 0.68554
 H857 H 0.91762 0.37657 0.53919
 H858 H 0.89368 0.34132 0.56704
 H859 H 0.93962 0.38435 0.62867
 H860 H 0.96369 0.41923 0.60054
 H861 H 0.93059 0.34293 0.63883
 H862 H 0.90487 0.31047 0.66884
 H863 H 0.83868 0.29772 0.63028
 H864 H 0.86411 0.33044 0.60048
   
