data_POSCAR
  _audit_creation_date              2014-09-24
  _audit_creation_method            'ToBaCCo'
  _symmetry_space_group_name_H-M    'P1'
  _symmetry_Int_Tables_number       1
  _symmetry_cell_setting            triclinic
  loop_
  _symmetry_equiv_pos_as_xyz
 x,y,z
_cell_length_a 47.9254
_cell_length_b 49.1409
_cell_length_c 27.1677
_cell_angle_alpha 90.042600
_cell_angle_beta 90.465000
_cell_angle_gamma 90.202000
loop_
  _atom_site_label
  _atom_site_type_symbol
  _atom_site_fract_x
  _atom_site_fract_y
  _atom_site_fract_z
C1 C 0.77271 0.20219 0.45821
 C2 C 0.77769 0.19014 0.50428
 C3 C 0.77227 0.20360 0.54878
 C4 C 0.75889 0.22940 0.54722
 C5 C 0.75180 0.24124 0.50106
 C6 C 0.75883 0.22773 0.45652
 C7 C 0.75012 0.23928 0.41159
 C8 C 0.73689 0.26433 0.40993
 C9 C 0.73009 0.27825 0.45328
 C10 C 0.73716 0.26649 0.49940
 C11 C 0.75091 0.24298 0.59046
 C12 C 0.73771 0.26806 0.58876
 C13 C 0.72957 0.27985 0.54378
 C14 C 0.71522 0.30522 0.54178
 C15 C 0.71002 0.31700 0.49552
 C16 C 0.71644 0.30368 0.45166
 H17 H 0.75298 0.22890 0.37692
 H18 H 0.73187 0.27253 0.37403
 H19 H 0.75438 0.23431 0.62649
 H20 H 0.73412 0.27808 0.62353
 H21 H 0.78916 0.17116 0.50565
 H22 H 0.69853 0.33595 0.49316
 C23 C 0.20352 0.79509 0.54057
 C24 C 0.19966 0.80846 0.49561
 C25 C 0.21129 0.79873 0.45207
 C26 C 0.22820 0.77521 0.45340
 C27 C 0.23290 0.76162 0.49885
 C28 C 0.22024 0.77139 0.54249
 C29 C 0.22364 0.75654 0.58624
 C30 C 0.24018 0.73335 0.58780
 C31 C 0.25432 0.72407 0.54578
 C32 C 0.24969 0.73780 0.50037
 C33 C 0.24044 0.76490 0.41051
 C34 C 0.25616 0.74120 0.41172
 C35 C 0.26118 0.72739 0.45620
 C36 C 0.27670 0.70301 0.45746
 C37 C 0.28111 0.68977 0.50231
 C38 C 0.27114 0.70023 0.54700
 H39 H 0.21312 0.76237 0.61967
 H40 H 0.24098 0.72228 0.62215
 H41 H 0.23780 0.77492 0.37535
 H42 H 0.26414 0.73376 0.37715
 H43 H 0.18660 0.82645 0.49421
 H44 H 0.29422 0.67182 0.50243
 C45 C 0.29110 0.29550 -0.53814
 C46 C 0.29421 0.30766 -0.49157
 C47 C 0.28263 0.29650 -0.44925
 C48 C 0.26659 0.27245 -0.45273
 C49 C 0.26248 0.25977 -0.49921
 C50 C 0.27521 0.27095 -0.54196
 C51 C 0.27385 0.25581 -0.58588
 C52 C 0.25826 0.23197 -0.58918
 C53 C 0.24353 0.22177 -0.54857
 C54 C 0.24663 0.23517 -0.50248
 C55 C 0.25510 0.26048 -0.41068
 C56 C 0.24042 0.23616 -0.41366
 C57 C 0.23499 0.22349 -0.45926
 C58 C 0.22026 0.19833 -0.46234
 C59 C 0.21793 0.18540 -0.50828
 C60 C 0.22809 0.19707 -0.55180
 H61 H 0.28568 0.26152 -0.61792
 H62 H 0.25892 0.22096 -0.62364
 H63 H 0.25783 0.26947 -0.37460
 H64 H 0.23417 0.22715 -0.37924
 H65 H 0.30581 0.32657 -0.48784
 H66 H 0.20530 0.16709 -0.51088
 C67 C -0.19282 0.77883 -0.54060
 C68 C -0.18539 0.78837 -0.49355
 C69 C -0.19480 0.77610 -0.45051
 C70 C -0.21318 0.75368 -0.45364
 C71 C -0.22164 0.74367 -0.50055
 C72 C -0.21089 0.75579 -0.54417
 C73 C -0.21626 0.74278 -0.58938
 C74 C -0.23362 0.72013 -0.59244
 C75 C -0.24654 0.70925 -0.55048
 C76 C -0.23965 0.72053 -0.50370
 C77 C -0.22196 0.74005 -0.41117
 C78 C -0.23948 0.71757 -0.41427
 C79 C -0.24953 0.70797 -0.45994
 C80 C -0.26708 0.68461 -0.46309
 C81 C -0.27293 0.67355 -0.50970
 C82 C -0.26382 0.68571 -0.55351
 H83 H -0.20613 0.74912 -0.62286
 H84 H -0.23578 0.71057 -0.62812
 H85 H -0.21477 0.74616 -0.37496
 H86 H -0.24410 0.70720 -0.38022
 H87 H -0.17238 0.80639 -0.48989
 H88 H -0.28729 0.65648 -0.51223
 N89 N 0.02885 1.03646 0.08636
 N90 N 0.05002 1.04053 0.11675
 N91 N -0.03074 1.05584 0.05836
 N92 N -0.05012 1.07390 0.06916
 N93 N -0.02975 1.03668 0.09198
 N94 N -0.04850 1.04105 0.12630
 N95 N 0.02781 1.05565 0.05280
 N96 N 0.04818 1.07348 0.05984
 C97 C 0.06201 1.06359 0.09971
 C98 C -0.06118 1.06425 0.11151
 N99 N -0.03588 1.03621 -0.08117
 N100 N -0.05625 1.04092 -0.11287
 N101 N 0.02400 1.05540 -0.05358
 N102 N 0.04308 1.07367 -0.06555
 N103 N 0.02270 1.03601 -0.08681
 N104 N 0.04098 1.04039 -0.12193
 N105 N -0.03446 1.05563 -0.04801
 N106 N -0.05373 1.07425 -0.05666
 Mn107 Mn -0.00334 1.05598 0.00242
 C108 C -0.06738 1.06458 -0.09697
 C109 C 0.05370 1.06383 -0.10810
 N110 N -0.03008 0.97808 0.09263
 N111 N -0.04763 0.97283 0.12856
 N112 N 0.02705 0.95878 0.05344
 N113 N 0.04633 0.94015 0.06167
 N114 N 0.02846 0.97801 0.08693
 N115 N 0.04882 0.97310 0.11861
 N116 N -0.03152 0.95905 0.05874
 N117 N -0.05020 0.94041 0.07065
 Mn118 Mn -0.00062 1.00734 0.08993
 C119 C -0.06032 0.94945 0.11410
 C120 C 0.05997 0.94954 0.10218
 N121 N 0.02220 0.97747 -0.08669
 N122 N 0.03907 0.97169 -0.12327
 N123 N -0.03519 0.95868 -0.04715
 N124 N -0.05320 0.93901 -0.05737
 N125 N -0.03617 0.97763 -0.08118
 N126 N -0.05469 0.97124 -0.11547
 N127 N 0.02346 0.95855 -0.05266
 N128 N 0.04140 0.93943 -0.06519
 Mn129 Mn -0.00681 1.00687 -0.08431
 Mn130 Mn -0.00405 0.95850 0.00312
 Cl131 Cl -0.00371 1.00716 0.00278
 C132 C 0.05122 0.94811 -0.10914
 C133 C -0.06553 0.94735 -0.09975
 N134 N 0.52554 0.55331 -0.06009
 N135 N 0.54568 0.57056 -0.07160
 N136 N 0.46513 0.53513 -0.08675
 N137 N 0.44422 0.53955 -0.11745
 N138 N 0.46702 0.55475 -0.05404
 N139 N 0.44749 0.57321 -0.06197
 N140 N 0.52365 0.53381 -0.09302
 N141 N 0.54253 0.53710 -0.12752
 C142 C 0.55623 0.56001 -0.11366
 C143 C 0.43326 0.56326 -0.10146
 N144 N 0.46450 0.45774 -0.05127
 N145 N 0.44468 0.43944 -0.05868
 N146 N 0.52212 0.47539 -0.09150
 N147 N 0.54062 0.47046 -0.12599
 N148 N 0.52294 0.45647 -0.05745
 N149 N 0.54192 0.43798 -0.06813
 N150 N 0.46355 0.47664 -0.08535
 N151 N 0.44295 0.47179 -0.11669
 Mn152 Mn 0.49358 0.50526 -0.08960
 C153 C 0.43118 0.44865 -0.09934
 C154 C 0.55294 0.44715 -0.11087
 N155 N 0.47115 0.55556 0.05228
 N156 N 0.45236 0.57419 0.06313
 N157 N 0.53032 0.53508 0.08006
 N158 N 0.55157 0.53886 0.11038
 N159 N 0.52962 0.55418 0.04632
 N160 N 0.55029 0.57172 0.05323
 N161 N 0.47176 0.53650 0.08613
 N162 N 0.45328 0.54150 0.12063
 Mn163 Mn 0.49835 0.55481 -0.00390
 C164 C 0.44121 0.56498 0.10572
 C165 C 0.56396 0.56167 0.09316
 N166 N 0.52694 0.45724 0.04876
 N167 N 0.54589 0.43833 0.05735
 N168 N 0.47028 0.47794 0.08787
 N169 N 0.45254 0.47352 0.12384
 N170 N 0.46842 0.45861 0.05462
 N171 N 0.44927 0.44053 0.06710
 N172 N 0.52880 0.47671 0.08173
 N173 N 0.54917 0.47173 0.11332
 Mn174 Mn 0.49571 0.45721 -0.00133
 Mn175 Mn 0.50029 0.50659 0.08438
 Cl176 Cl 0.49698 0.50597 -0.00261
 C177 C 0.55984 0.44784 0.09745
 C178 C 0.43933 0.45028 0.11020
 C179 C 0.33012 0.33940 0.34636
 C180 C 0.34402 0.33465 0.39108
 C181 C 0.33147 0.31941 0.42797
 C182 C 0.30441 0.30850 0.42164
 C183 C 0.29058 0.31306 0.37633
 C184 C 0.30347 0.32807 0.33885
 C185 C 0.34337 0.35703 0.30915
 N186 N 0.33762 0.35429 0.26031
 N187 N 0.35053 0.36991 0.22731
 C188 C 0.36941 0.38906 0.24200
 N189 N 0.37483 0.39191 0.29081
 N190 N 0.36216 0.37620 0.32363
 C191 C 0.38478 0.40592 0.20610
 C192 C 0.39749 0.43030 0.22160
 C193 C 0.41432 0.44516 0.18968
 C194 C 0.41912 0.43583 0.14167
 C195 C 0.40568 0.41196 0.12542
 C196 C 0.38848 0.39720 0.15730
 H197 H 0.36475 0.34279 0.39771
 H198 H 0.34317 0.31600 0.46168
 H199 H 0.26930 0.30620 0.37061
 H200 H 0.29216 0.33173 0.30484
 H201 H 0.39482 0.43771 0.25882
 H202 H 0.42426 0.46356 0.20320
 H203 H 0.40896 0.40438 0.08848
 H204 H 0.37897 0.37846 0.14437
 C205 C -0.15986 0.82719 0.34401
 C206 C -0.14309 0.81905 0.38374
 C207 C -0.15369 0.80214 0.42015
 C208 C -0.18162 0.79299 0.41844
 C209 C -0.19828 0.80071 0.37770
 C210 C -0.18737 0.81738 0.34054
 C211 C -0.14862 0.84692 0.30826
 N212 N -0.15674 0.84677 0.26022
 N213 N -0.14546 0.86419 0.22830
 C214 C -0.12596 0.88263 0.24343
 N215 N -0.11820 0.88292 0.29155
 N216 N -0.12922 0.86539 0.32323
 C217 C -0.11217 0.90125 0.20843
 C218 C -0.09950 0.92526 0.22581
 C219 C -0.08369 0.94152 0.19445
 C220 C -0.07985 0.93392 0.14519
 C221 C -0.09338 0.91048 0.12716
 C222 C -0.10960 0.89437 0.15847
 H223 H -0.12165 0.82595 0.38693
 H224 H -0.13987 0.79624 0.45002
 H225 H -0.22015 0.79517 0.37582
 H226 H -0.20080 0.82363 0.31040
 H227 H -0.10133 0.93122 0.26404
 H228 H -0.07363 0.95954 0.20933
 H229 H -0.09085 0.90424 0.08922
 H230 H -0.11909 0.87594 0.14412
 C231 C 0.70029 0.65067 0.31764
 C232 C 0.70147 0.67910 0.32310
 C233 C 0.71432 0.69084 0.36451
 C234 C 0.72634 0.67440 0.40150
 C235 C 0.72565 0.64596 0.39508
 C236 C 0.71307 0.63431 0.35366
 C237 C 0.68419 0.63782 0.27685
 N238 N 0.68280 0.61030 0.27315
 N239 N 0.66649 0.59844 0.23954
 C240 C 0.65082 0.61354 0.20801
 N241 N 0.65259 0.64111 0.21095
 N242 N 0.66893 0.65301 0.24470
 C243 C 0.63061 0.60003 0.17423
 C244 C 0.61542 0.61494 0.13887
 C245 C 0.59444 0.60229 0.11066
 C246 C 0.58810 0.57467 0.11788
 C247 C 0.60393 0.55962 0.15183
 C248 C 0.62503 0.57208 0.17942
 H249 H 0.69168 0.69231 0.29621
 H250 H 0.71342 0.71273 0.36886
 H251 H 0.73488 0.63259 0.42237
 H252 H 0.71270 0.61234 0.35072
 H253 H 0.61929 0.63647 0.13379
 H254 H 0.58250 0.61433 0.08466
 H255 H 0.59962 0.53823 0.15785
 H256 H 0.63631 0.55990 0.20611
 C257 C 0.19705 1.15813 0.31931
 C258 C 0.20945 1.14294 0.35736
 C259 C 0.22081 1.15585 0.39867
 C260 C 0.22054 1.18442 0.40300
 C261 C 0.20937 1.19968 0.36360
 C262 C 0.19776 1.18669 0.32231
 C263 C 0.18147 1.14406 0.27922
 N264 N 0.16671 1.15830 0.24500
 N265 N 0.15054 1.14548 0.21214
 C266 C 0.14841 1.11789 0.21220
 N267 N 0.16361 1.10369 0.24578
 N268 N 0.17976 1.11648 0.27852
 C269 C 0.12828 1.10357 0.17936
 C270 C 0.12237 1.07586 0.18702
 C271 C 0.10135 1.06282 0.16006
 C272 C 0.08592 1.07705 0.12438
 C273 C 0.09257 1.10439 0.11491
 C274 C 0.11348 1.11760 0.14238
 H275 H 0.20953 1.12091 0.35622
 H276 H 0.22961 1.14334 0.42769
 H277 H 0.20782 1.22162 0.36604
 H278 H 0.18832 1.19902 0.29373
 H279 H 0.13335 1.06436 0.21505
 H280 H 0.09681 1.04166 0.16786
 H281 H 0.08099 1.11581 0.08752
 H282 H 0.11760 1.13893 0.13539
 C283 C 0.67744 0.34663 -0.33869
 C284 C 0.69339 0.36086 -0.37342
 C285 C 0.70644 0.34710 -0.41179
 C286 C 0.70426 0.31860 -0.41635
 C287 C 0.68842 0.30436 -0.38116
 C288 C 0.67539 0.31817 -0.34264
 C289 C 0.66184 0.36164 -0.30040
 N290 N 0.64766 0.34822 -0.26468
 N291 N 0.63244 0.36182 -0.23204
 C292 C 0.63072 0.38940 -0.23385
 N293 N 0.64513 0.40279 -0.26924
 N294 N 0.66038 0.38922 -0.30173
 C295 C 0.61234 0.40453 -0.19986
 C296 C 0.60600 0.43198 -0.20908
 C297 C 0.58711 0.44587 -0.17948
 C298 C 0.57435 0.43276 -0.13964
 C299 C 0.58133 0.40563 -0.12921
 C300 C 0.60004 0.39158 -0.15923
 H301 H 0.69551 0.38278 -0.37150
 H302 H 0.71848 0.35884 -0.43791
 H303 H 0.68490 0.28266 -0.38470
 H304 H 0.66294 0.30660 -0.31693
 H305 H 0.61506 0.44262 -0.23999
 H306 H 0.58223 0.46684 -0.18820
 H307 H 0.57178 0.39506 -0.09868
 H308 H 0.60458 0.37050 -0.15097
 C309 C 0.15971 0.83354 -0.34100
 C310 C 0.14527 0.82325 -0.38220
 C311 C 0.15948 0.80961 -0.41929
 C312 C 0.18849 0.80620 -0.41632
 C313 C 0.20297 0.81588 -0.37465
 C314 C 0.18862 0.82918 -0.33692
 C315 C 0.14472 0.85025 -0.30458
 N316 N 0.15383 0.85251 -0.25723
 N317 N 0.14023 0.86809 -0.22517
 C318 C 0.11725 0.88227 -0.23948
 N319 N 0.10827 0.88002 -0.28680
 N320 N 0.12165 0.86427 -0.31860
 C321 C 0.10211 0.89996 -0.20486
 C322 C 0.08719 0.92242 -0.22295
 C323 C 0.07148 0.93851 -0.19135
 C324 C 0.06987 0.93220 -0.14108
 C325 C 0.08514 0.91003 -0.12262
 C326 C 0.10141 0.89419 -0.15422
 H327 H 0.12297 0.82614 -0.38616
 H328 H 0.14793 0.80236 -0.45117
 H329 H 0.22543 0.81385 -0.37207
 H330 H 0.20027 0.83708 -0.30570
 H331 H 0.08755 0.92748 -0.26173
 H332 H 0.05994 0.95547 -0.20663
 H333 H 0.08428 0.90481 -0.08394
 H334 H 0.11269 0.87694 -0.13939
 C335 C 0.30359 0.66021 -0.32649
 C336 C 0.30243 0.68877 -0.32815
 C337 C 0.29064 0.70207 -0.36884
 C338 C 0.27968 0.68711 -0.40893
 C339 C 0.28027 0.65848 -0.40631
 C340 C 0.29180 0.64527 -0.36560
 C341 C 0.31869 0.64591 -0.28627
 N342 N 0.31995 0.61832 -0.28584
 N343 N 0.33539 0.60531 -0.25250
 C344 C 0.35028 0.61929 -0.21803
 N345 N 0.34865 0.64690 -0.21779
 N346 N 0.33318 0.65994 -0.25123
 C347 C 0.36949 0.60466 -0.18417
 C348 C 0.38457 0.61857 -0.14719
 C349 C 0.40463 0.60494 -0.11870
 C350 C 0.41013 0.57728 -0.12708
 C351 C 0.39438 0.56321 -0.16270
 C352 C 0.37422 0.57668 -0.19072
 H353 H 0.31147 0.70092 -0.29879
 H354 H 0.29164 0.72408 -0.37012
 H355 H 0.27176 0.64619 -0.43600
 H356 H 0.29217 0.62324 -0.36559
 H357 H 0.38136 0.64010 -0.14103
 H358 H 0.41649 0.61625 -0.09139
 H359 H 0.39802 0.54181 -0.16968
 H360 H 0.36298 0.56524 -0.21865
 C361 C -0.19270 1.16460 -0.32573
 C362 C -0.20947 1.15007 -0.35935
 C363 C -0.22165 1.16313 -0.39967
 C364 C -0.21781 1.19125 -0.40730
 C365 C -0.20131 1.20585 -0.37308
 C366 C -0.18909 1.19273 -0.33266
 C367 C -0.17769 1.15004 -0.28574
 N368 N -0.16164 1.16372 -0.25241
 N369 N -0.14667 1.15032 -0.21875
 C370 C -0.14710 1.12268 -0.21709
 N371 N -0.16345 1.10907 -0.24996
 N372 N -0.17843 1.12245 -0.28348
 C373 C -0.12866 1.10753 -0.18272
 C374 C -0.12453 1.07946 -0.18928
 C375 C -0.10517 1.06546 -0.16035
 C376 C -0.08972 1.07910 -0.12377
 C377 C -0.09465 1.10687 -0.11552
 C378 C -0.11384 1.12102 -0.14497
 H379 H -0.21277 1.12839 -0.35520
 H380 H -0.23421 1.15116 -0.42506
 H381 H -0.19662 1.22719 -0.37887
 H382 H -0.17600 1.20449 -0.30783
 H383 H -0.13558 1.06838 -0.21791
 H384 H -0.10190 1.04400 -0.16729
 H385 H -0.08299 1.11786 -0.08752
 H386 H -0.11665 1.14261 -0.13878
 C387 C 0.68950 0.64774 -0.34440
 C388 C 0.70324 0.63180 -0.37957
 C389 C 0.71799 0.64397 -0.41780
 C390 C 0.71980 0.67251 -0.42181
 C391 C 0.70614 0.68845 -0.38622
 C392 C 0.69135 0.67622 -0.34787
 C393 C 0.67232 0.63458 -0.30590
 N394 N 0.65957 0.64953 -0.27052
 N395 N 0.64308 0.63765 -0.23754
 C396 C 0.63860 0.61032 -0.23862
 N397 N 0.65156 0.59540 -0.27368
 N398 N 0.66808 0.60725 -0.30653
 C399 C 0.61892 0.59713 -0.20413
 C400 C 0.61054 0.57001 -0.21191
 C401 C 0.59058 0.55792 -0.18182
 C402 C 0.57870 0.57254 -0.14292
 C403 C 0.58763 0.59934 -0.13392
 C404 C 0.60747 0.61159 -0.16443
 H405 H 0.70235 0.60979 -0.37803
 H406 H 0.72833 0.63091 -0.44408
 H407 H 0.70582 0.71043 -0.38918
 H408 H 0.68072 0.68913 -0.32177
 H409 H 0.61889 0.55822 -0.24205
 H410 H 0.58419 0.53716 -0.18944
 H411 H 0.57879 0.61105 -0.10412
 H412 H 0.61357 0.63247 -0.15728
 C413 C 0.17727 1.15970 -0.34501
 C414 C 0.19450 1.14473 -0.37655
 C415 C 0.20888 1.15757 -0.41451
 C416 C 0.20675 1.18588 -0.42184
 C417 C 0.18919 1.20079 -0.39045
 C418 C 0.17486 1.18791 -0.35224
 C419 C 0.16118 1.14564 -0.30611
 N420 N 0.14664 1.15990 -0.27201
 N421 N 0.13145 1.14707 -0.23824
 C422 C 0.13012 1.11944 -0.23726
 N423 N 0.14482 1.10523 -0.27114
 N424 N 0.16005 1.11804 -0.30473
 C425 C 0.11203 1.10500 -0.20174
 C426 C 0.10584 1.07727 -0.20861
 C427 C 0.08734 1.06388 -0.17744
 C428 C 0.07483 1.07778 -0.13831
 C429 C 0.08165 1.10524 -0.13021
 C430 C 0.09997 1.11880 -0.16186
 H431 H 0.19686 1.12296 -0.37212
 H432 H 0.22212 1.14531 -0.43779
 H433 H 0.18572 1.22231 -0.39645
 H434 H 0.16137 1.19998 -0.32915
 H435 H 0.11473 1.06599 -0.23889
 H436 H 0.08255 1.04266 -0.18439
 H437 H 0.07225 1.11643 -0.10029
 H438 H 0.10442 1.14013 -0.15541
 C439 C 0.30896 0.33980 -0.31968
 C440 C 0.29098 0.35209 -0.35419
 C441 C 0.28118 0.33750 -0.39497
 C442 C 0.28911 0.31033 -0.40199
 C443 C 0.30621 0.29767 -0.36676
 C444 C 0.31587 0.31219 -0.32572
 C445 C 0.32234 0.35626 -0.28028
 N446 N 0.33789 0.34427 -0.24438
 N447 N 0.35206 0.35926 -0.21176
 C448 C 0.35139 0.38688 -0.21381
 N449 N 0.33548 0.39885 -0.24920
 N450 N 0.32122 0.38386 -0.28167
 C451 C 0.36943 0.40350 -0.18093
 C452 C 0.37465 0.43102 -0.19182
 C453 C 0.39415 0.44592 -0.16432
 C454 C 0.40858 0.43373 -0.12501
 C455 C 0.40242 0.40667 -0.11252
 C456 C 0.38314 0.39164 -0.14038
 H457 H 0.28517 0.37327 -0.35058
 H458 H 0.26820 0.34766 -0.42207
 H459 H 0.31295 0.27686 -0.37206
 H460 H 0.32976 0.30212 -0.30000
 H461 H 0.36445 0.44081 -0.22276
 H462 H 0.39838 0.46682 -0.17454
 H463 H 0.41321 0.39680 -0.08229
 H464 H 0.37946 0.37055 -0.13083
 C465 C -0.16151 0.81781 -0.32452
 C466 C -0.19054 0.81465 -0.32963
 C467 C -0.20169 0.79980 -0.36931
 C468 C -0.18389 0.78742 -0.40346
 C469 C -0.15492 0.78921 -0.39631
 C470 C -0.14384 0.80439 -0.35747
 C471 C -0.14941 0.83714 -0.28863
 N472 N -0.12638 0.85168 -0.30089
 N473 N -0.11555 0.86989 -0.26994
 C474 C -0.12713 0.87416 -0.22523
 N475 N -0.15007 0.85948 -0.21259
 N476 N -0.16118 0.84145 -0.24395
 C477 C -0.11450 0.89432 -0.19152
 C478 C -0.11291 0.88954 -0.14063
 C479 C -0.09761 0.90723 -0.11012
 C480 C -0.08434 0.93023 -0.13003
 C481 C -0.08736 0.93573 -0.18047
 C482 C -0.10201 0.91778 -0.21097
 H483 H -0.20456 0.82499 -0.30484
 H484 H -0.22410 0.79902 -0.37466
 H485 H -0.14085 0.77989 -0.42234
 H486 H -0.12139 0.80637 -0.35409
 H487 H -0.12232 0.87151 -0.12488
 H488 H -0.09562 0.90262 -0.07128
 H489 H -0.07737 0.95329 -0.19684
 H490 H -0.10314 0.92200 -0.25007
 C491 C 0.31690 0.66467 0.33473
 C492 C 0.32392 0.69151 0.34812
 C493 C 0.31044 0.70429 0.38730
 C494 C 0.28934 0.69066 0.41310
 C495 C 0.28191 0.66411 0.39917
 C496 C 0.29554 0.65123 0.36040
 C497 C 0.33270 0.65018 0.29613
 N498 N 0.33105 0.62267 0.29220
 N499 N 0.34639 0.60934 0.25950
 C500 C 0.36393 0.62295 0.22910
 N501 N 0.36532 0.65051 0.23252
 N502 N 0.35007 0.66384 0.26545
 C503 C 0.38224 0.60787 0.19501
 C504 C 0.39585 0.62127 0.15623
 C505 C 0.41438 0.60715 0.12600
 C506 C 0.41997 0.57952 0.13457
 C507 C 0.40599 0.56602 0.17267
 C508 C 0.38717 0.57998 0.20232
 H509 H 0.34042 0.70234 0.32938
 H510 H 0.31683 0.72460 0.39817
 H511 H 0.26586 0.65319 0.41898
 H512 H 0.28958 0.63058 0.35100
 H513 H 0.39237 0.64271 0.14952
 H514 H 0.42492 0.61802 0.09686
 H515 H 0.40983 0.54468 0.17992
 H516 H 0.37710 0.56905 0.23190
 C517 C -0.18891 1.16161 0.33828
 C518 C -0.18722 1.19006 0.34259
 C519 C -0.20050 1.20357 0.38117
 C520 C -0.21624 1.18903 0.41611
 C521 C -0.21819 1.16054 0.41104
 C522 C -0.20485 1.14707 0.37261
 C523 C -0.17288 1.14695 0.30009
 N524 N -0.17077 1.11941 0.30140
 N525 N -0.15506 1.10622 0.26908
 C526 C -0.14082 1.11997 0.23389
 N527 N -0.14321 1.14749 0.23211
 N528 N -0.15888 1.16071 0.26458
 C529 C -0.12193 1.10530 0.20010
 C530 C -0.10983 1.11859 0.15963
 C531 C -0.09066 1.10503 0.12979
 C532 C -0.08300 1.07808 0.14022
 C533 C -0.09553 1.06463 0.17992
 C534 C -0.11488 1.07802 0.20936
 H535 H -0.17480 1.20187 0.31718
 H536 H -0.19721 1.22529 0.38500
 H537 H -0.23020 1.14856 0.43683
 H538 H -0.20672 1.12514 0.37034
 H539 H -0.11491 1.13955 0.15135
 H540 H -0.08130 1.11586 0.09936
 H541 H -0.09012 1.04380 0.18866
 H542 H -0.12376 1.06715 0.24017
 C543 C 0.68271 0.34360 0.32371
 C544 C 0.67457 0.31685 0.33534
 C545 C 0.68620 0.30352 0.37601
 C546 C 0.70658 0.31645 0.40520
 C547 C 0.71531 0.34284 0.39291
 C548 C 0.70352 0.35629 0.35254
 C549 C 0.66825 0.35882 0.28398
 N550 N 0.67094 0.38628 0.28068
 N551 N 0.65629 0.40031 0.24752
 C552 C 0.63842 0.38747 0.21607
 N553 N 0.63609 0.35996 0.21877
 N554 N 0.65065 0.34593 0.25210
 C555 C 0.62039 0.40332 0.18216
 C556 C 0.60515 0.39035 0.14434
 C557 C 0.58623 0.40503 0.11532
 C558 C 0.58193 0.43286 0.12405
 C559 C 0.59777 0.44601 0.16071
 C560 C 0.61693 0.43145 0.18924
 H561 H 0.65846 0.30656 0.31418
 H562 H 0.67875 0.28339 0.38556
 H563 H 0.73079 0.35325 0.41536
 H564 H 0.71029 0.37685 0.34458
 H565 H 0.60745 0.36874 0.13775
 H566 H 0.57427 0.39442 0.08723
 H567 H 0.59498 0.46750 0.16801
 H568 H 0.62832 0.44209 0.21801
 C569 C 0.18229 0.84255 0.32495
 C570 C 0.19921 0.85546 0.36058
 C571 C 0.20974 0.84086 0.40069
 C572 C 0.20370 0.81308 0.40589
 C573 C 0.18756 0.79991 0.36967
 C574 C 0.17713 0.81445 0.32935
 C575 C 0.16840 0.85869 0.28576
 N576 N 0.15316 0.84631 0.24972
 N577 N 0.13879 0.86094 0.21700
 C578 C 0.13896 0.88856 0.21905
 N579 N 0.15453 0.90093 0.25462
 N580 N 0.16897 0.88631 0.28721
 C581 C 0.12091 0.90480 0.18571
 C582 C 0.11611 0.93249 0.19548
 C583 C 0.09687 0.94719 0.16736
 C584 C 0.08222 0.93463 0.12855
 C585 C 0.08787 0.90733 0.11724
 C586 C 0.10693 0.89250 0.14572
 H587 H 0.20367 0.87703 0.35830
 H588 H 0.22195 0.85141 0.42854
 H589 H 0.18225 0.77858 0.37354
 H590 H 0.16410 0.80388 0.30274
 H591 H 0.12651 0.94264 0.22592
 H592 H 0.09303 0.96828 0.17668
 H593 H 0.07689 0.89716 0.08743
 H594 H 0.11027 0.87126 0.13702
   
