data_POSCAR
  _audit_creation_date              2014-09-24
  _audit_creation_method            'ToBaCCo'
  _symmetry_space_group_name_H-M    'P1'
  _symmetry_Int_Tables_number       1
  _symmetry_cell_setting            triclinic
  loop_
  _symmetry_equiv_pos_as_xyz
 x,y,z
_cell_length_a 43.2725
_cell_length_b 42.9754
_cell_length_c 37.2612
_cell_angle_alpha 89.953200
_cell_angle_beta 89.745200
_cell_angle_gamma 92.519400
loop_
  _atom_site_label
  _atom_site_type_symbol
  _atom_site_fract_x
  _atom_site_fract_y
  _atom_site_fract_z
O1 O -0.00502 0.29885 0.02051
 O2 O 0.04870 0.30683 -0.05658
 O3 O -0.01043 0.29231 -0.04939
 O4 O 0.05370 0.31434 0.01174
 O5 O 0.06425 0.26473 0.01708
 O6 O 0.00063 0.24292 -0.04382
 O7 O 0.05893 0.25723 -0.05141
 O8 O 0.00660 0.24956 0.02598
 Cu9 Cu 0.02034 0.30802 -0.01898
 Cu10 Cu 0.03342 0.24860 -0.01253
 C11 C -0.00767 0.27292 0.03693
 C12 C 0.06340 0.28341 -0.06687
 C13 C -0.01542 0.26385 -0.05758
 C14 C 0.07009 0.29321 0.02454
 O15 O 0.44203 0.78799 0.55673
 O16 O 0.50628 0.81441 0.49696
 O17 O 0.44523 0.80942 0.49141
 O18 O 0.50190 0.79070 0.56146
 O19 O 0.50356 0.74305 0.53948
 O20 O 0.44789 0.76190 0.46968
 O21 O 0.50828 0.76694 0.47484
 O22 O 0.44484 0.74043 0.53489
 Cu23 Cu 0.47372 0.80557 0.52845
 Cu24 Cu 0.47649 0.74848 0.50212
 C25 C 0.43305 0.75944 0.55659
 C26 C 0.51848 0.79509 0.47601
 C27 C 0.43637 0.78853 0.46907
 C28 C 0.51153 0.76319 0.56294
 O29 O 0.99855 0.67431 0.05174
 O30 O 0.93653 0.68852 -0.01440
 O31 O 0.99221 0.67541 -0.01847
 O32 O 0.93591 0.67897 0.05330
 O33 O 0.94508 0.72955 0.05948
 O34 O 1.00599 0.72503 -0.01145
 O35 O 0.94845 0.73884 -0.00979
 O36 O 1.00581 0.72486 0.05919
 Cu37 Cu 0.96541 0.67446 0.01904
 Cu38 Cu 0.97740 0.73453 0.02528
 C39 C 1.01335 0.69736 0.06610
 C40 C 0.93307 0.71653 -0.02437
 C41 C 1.00880 0.69912 -0.02772
 C42 C 0.92960 0.70459 0.06772
 O43 O 0.49957 0.20154 0.44620
 O44 O 0.55468 0.21987 0.51965
 O45 O 0.49758 0.19719 0.51510
 O46 O 0.55735 0.22170 0.44920
 O47 O 0.54109 0.26965 0.45064
 O48 O 0.48213 0.24545 0.51779
 O49 O 0.53866 0.26789 0.52109
 O50 O 0.48429 0.24989 0.44845
 Cu51 Cu 0.52917 0.20530 0.48241
 Cu52 Cu 0.51018 0.26309 0.48486
 C53 C 0.48242 0.22277 0.43502
 C54 C 0.55567 0.24706 0.53320
 C55 C 0.47939 0.21705 0.52731
 C56 C 0.55888 0.24961 0.43791
 O57 O 0.69006 0.04284 -0.02695
 O58 O 0.70510 -0.01694 0.04144
 O59 O 0.70940 0.04369 0.03908
 O60 O 0.68486 -0.01842 -0.02408
 O61 O 0.73285 -0.02116 -0.04357
 O62 O 0.75744 0.04109 0.01926
 O63 O 0.75330 -0.01802 0.02221
 O64 O 0.73784 0.03991 -0.04710
 Cu65 Cu 0.69245 0.01305 0.00904
 Cu66 Cu 0.75004 0.01025 -0.01474
 C67 C 0.71154 0.05182 -0.04844
 C68 C 0.73218 -0.02711 0.04411
 C69 C 0.73780 0.05236 0.04050
 C70 C 0.70470 -0.03088 -0.04405
 O71 O 0.18786 0.51215 0.46470
 O72 O 0.21253 0.45288 0.52968
 O73 O 0.18631 0.50680 0.53373
 O74 O 0.21217 0.45721 0.45934
 O75 O 0.25840 0.48087 0.46190
 O76 O 0.23317 0.52922 0.53645
 O77 O 0.25885 0.47642 0.53148
 O78 O 0.23470 0.53460 0.46733
 Cu79 Cu 0.19505 0.47970 0.49661
 Cu80 Cu 0.25093 0.50746 0.49951
 C81 C 0.20732 0.53368 0.45525
 C82 C 0.23997 0.45487 0.54189
 C83 C 0.20539 0.52663 0.54751
 C84 C 0.23970 0.46097 0.44764
 O85 O 0.31832 1.02636 0.01981
 O86 O 0.30900 0.95808 -0.03664
 O87 O 0.30058 1.01914 -0.04827
 O88 O 0.31739 0.96755 0.02841
 O89 O 0.26780 0.96615 0.04269
 O90 O 0.25095 1.01346 -0.03555
 O91 O 0.25891 0.95427 -0.02452
 O92 O 0.26830 1.02609 0.03114
 Cu93 Cu 0.31570 0.99407 -0.01152
 Cu94 Cu 0.25647 0.99000 0.00458
 C95 C 0.29554 1.03816 0.03536
 C96 C 0.28301 0.94353 -0.03893
 C97 C 0.27257 1.02463 -0.05535
 C98 C 0.29500 0.95748 0.04817
 O99 O 0.78839 0.54610 0.54129
 O100 O 0.80460 0.50076 0.45968
 O101 O 0.78116 0.55429 0.47225
 O102 O 0.81087 0.49119 0.52858
 O103 O 0.76341 0.47040 0.53328
 O104 O 0.73481 0.53084 0.47417
 O105 O 0.75860 0.47669 0.46461
 O106 O 0.74141 0.52389 0.54363
 Cu107 Cu 0.80099 0.52540 0.50025
 Cu108 Cu 0.74478 0.49842 0.50403
 C109 C 0.76214 0.54243 0.55649
 C110 C 0.78441 0.48074 0.44856
 C111 C 0.75288 0.55288 0.46303
 C112 C 0.79194 0.47028 0.54087
 O113 O 0.27115 0.29276 0.17759
 O114 O 0.33003 0.26377 0.23894
 O115 O 0.30658 0.24497 0.17884
 O116 O 0.29653 0.31169 0.23715
 O117 O 0.26065 0.28538 0.26828
 O118 O 0.26956 0.21775 0.20728
 O119 O 0.29373 0.23563 0.26755
 O120 O 0.23499 0.26582 0.20774
 Cu121 Cu 0.30454 0.28103 0.20496
 Cu122 Cu 0.26086 0.24866 0.24076
 C123 C 0.24298 0.28403 0.18221
 C124 C 0.32189 0.24445 0.26341
 C125 C 0.29049 0.21986 0.18322
 C126 C 0.27758 0.31001 0.26316
 O127 O 0.67993 0.78357 0.28324
 O128 O 0.73729 0.74877 0.22465
 O129 O 0.70536 0.73079 0.28013
 O130 O 0.71183 0.80264 0.22603
 O131 O 0.74998 0.82028 0.26068
 O132 O 0.74349 0.74852 0.31469
 O133 O 0.77531 0.76755 0.25882
 O134 O 0.71738 0.80227 0.31817
 Cu135 Cu 0.70475 0.76497 0.24992
 Cu136 Cu 0.75008 0.78677 0.29183
 C137 C 0.68873 0.79790 0.31141
 C138 C 0.76595 0.75207 0.23164
 C139 C 0.72335 0.72730 0.30655
 C140 C 0.73292 0.82312 0.23334
 O141 O 0.82683 0.26034 0.24408
 O142 O 0.74891 0.25347 0.28409
 O143 O 0.78173 0.21984 0.24064
 O144 O 0.79454 0.29403 0.28784
 O145 O 0.77851 0.31945 0.24034
 O146 O 0.76135 0.24421 0.19486
 O147 O 0.73093 0.28039 0.23888
 O148 O 0.80808 0.28393 0.19680
 Cu149 Cu 0.78975 0.25443 0.26886
 Cu150 Cu 0.76762 0.28443 0.21309
 C151 C 0.83062 0.27244 0.21314
 C152 C 0.72681 0.26678 0.26891
 C153 C 0.77011 0.21934 0.20942
 C154 C 0.78883 0.31936 0.27221
 O155 O 0.23760 0.70124 0.27312
 O156 O 0.26651 0.75990 0.20875
 O157 O 0.27985 0.74524 0.27425
 O158 O 0.22110 0.71631 0.20898
 O159 O 0.18880 0.75055 0.22938
 O160 O 0.24656 0.77819 0.29536
 O161 O 0.23381 0.79341 0.22989
 O162 O 0.20349 0.73351 0.29396
 Cu163 Cu 0.25450 0.72744 0.23877
 Cu164 Cu 0.21481 0.76723 0.26413
 C165 C 0.21583 0.70717 0.29459
 C166 C 0.25588 0.78694 0.20891
 C167 C 0.27306 0.76663 0.29613
 C168 C 0.19469 0.72823 0.20854
 O169 O 0.79585 0.27268 0.78574
 O170 O 0.72288 0.27816 0.73581
 O171 O 0.74051 0.24600 0.79016
 O172 O 0.77649 0.30604 0.73156
 O173 O 0.79191 0.26984 0.69432
 O174 O 0.75591 0.20925 0.75364
 O175 O 0.73753 0.24151 0.69879
 O176 O 0.81020 0.23618 0.74837
 Cu177 Cu 0.75769 0.27941 0.76468
 Cu178 Cu 0.77545 0.23560 0.72001
 C179 C 0.81523 0.25295 0.77591
 C180 C 0.71784 0.26089 0.70860
 C181 C 0.74203 0.21744 0.78202
 C182 C 0.78953 0.29836 0.70252
 O183 O 0.27100 0.70876 0.76018
 O184 O 0.20025 0.69810 0.81313
 O185 O 0.22195 0.67482 0.75530
 O186 O 0.25052 0.73443 0.81888
 O187 O 0.22902 0.77095 0.78705
 O188 O 0.19849 0.71085 0.72451
 O189 O 0.17851 0.73576 0.78322
 O190 O 0.24967 0.74488 0.72753
 Cu191 Cu 0.23821 0.70075 0.79063
 Cu192 Cu 0.21191 0.74456 0.75254
 C193 C 0.27197 0.72729 0.73367
 C194 C 0.17719 0.71445 0.80689
 C195 C 0.20553 0.68270 0.72893
 C196 C 0.24470 0.76281 0.81390
 O197 O 0.28281 0.20280 0.77433
 O198 O 0.28717 0.27665 0.72412
 O199 O 0.25387 0.25520 0.77668
 O200 O 0.31601 0.22588 0.72023
 O201 O 0.28122 0.20531 0.68294
 O202 O 0.21895 0.23601 0.73854
 O203 O 0.25256 0.25757 0.68574
 O204 O 0.24704 0.18438 0.73695
 Cu205 Cu 0.28855 0.24171 0.75287
 Cu206 Cu 0.24661 0.21868 0.70711
 C207 C 0.26353 0.18130 0.76471
 C208 C 0.27059 0.27977 0.69642
 C209 C 0.22594 0.25103 0.76688
 C210 C 0.30922 0.21122 0.69159
 O211 O 0.69079 0.75542 0.73101
 O212 O 0.76418 0.75280 0.77988
 O213 O 0.73677 0.71845 0.73019
 O214 O 0.71761 0.78881 0.78163
 O215 O 0.69335 0.75875 0.82181
 O216 O 0.71514 0.68913 0.77282
 O217 O 0.74168 0.72387 0.82227
 O218 O 0.66857 0.72408 0.77141
 Cu219 Cu 0.72971 0.75685 0.75158
 Cu220 Cu 0.70253 0.72109 0.80143
 C221 C 0.66731 0.73955 0.74238
 C222 C 0.76553 0.73836 0.80954
 C223 C 0.72873 0.69171 0.74264
 C224 C 0.70181 0.78561 0.81033
 C225 C 0.28471 0.10566 0.09654
 C226 C 0.31457 0.11791 0.09709
 C227 C 0.33868 0.10490 0.07872
 C228 C 0.33189 0.07807 0.05868
 C229 C 0.30117 0.06472 0.05681
 C230 C 0.27719 0.07889 0.07630
 O231 O 0.26544 0.12210 0.11614
 C232 C 0.28368 0.14520 0.12905
 C233 C 0.31388 0.14359 0.11788
 C234 C 0.33694 0.16557 0.12696
 C235 C 0.32859 0.19049 0.14844
 C236 C 0.29771 0.19286 0.16077
 C237 C 0.27488 0.16968 0.15119
 H238 H 0.36198 0.11511 0.07971
 H239 H 0.35081 0.06802 0.04426
 H240 H 0.25355 0.06954 0.07570
 H241 H 0.36050 0.16376 0.11756
 H242 H 0.34634 0.20787 0.15573
 H243 H 0.25110 0.17107 0.16000
 C244 C 0.75869 0.60481 0.62763
 C245 C 0.74157 0.58890 0.65349
 C246 C 0.73068 0.55823 0.64929
 C247 C 0.73766 0.54329 0.61704
 C248 C 0.75562 0.55895 0.59009
 C249 C 0.76657 0.59010 0.59560
 O250 O 0.76511 0.63441 0.63627
 C251 C 0.75182 0.63713 0.66829
 C252 C 0.73738 0.60984 0.68006
 C253 C 0.72139 0.60742 0.71239
 C254 C 0.71980 0.63435 0.73332
 C255 C 0.73375 0.66317 0.72154
 C256 C 0.75032 0.66440 0.68860
 H257 H 0.71688 0.54639 0.66986
 H258 H 0.72925 0.51943 0.61310
 H259 H 0.77990 0.60270 0.57519
 H260 H 0.71010 0.58567 0.72094
 H261 H 0.70687 0.63285 0.75825
 H262 H 0.76100 0.68599 0.67866
 C263 C 0.72404 0.91697 0.12027
 C264 C 0.75470 0.91316 0.12784
 C265 C 0.77865 0.92739 0.10811
 C266 C 0.77076 0.94662 0.07949
 C267 C 0.73927 0.95213 0.07173
 C268 C 0.71558 0.93696 0.09271
 O269 O 0.70498 0.89973 0.14104
 C270 C 0.72409 0.88497 0.16236
 C271 C 0.75473 0.89283 0.15568
 C272 C 0.77874 0.88047 0.17490
 C273 C 0.77091 0.85869 0.20180
 C274 C 0.73958 0.84915 0.20832
 C275 C 0.71577 0.86263 0.18840
 H276 H 0.80261 0.92356 0.11426
 H277 H 0.78937 0.95783 0.06405
 H278 H 0.69133 0.94008 0.08736
 H279 H 0.80267 0.88710 0.16915
 H280 H 0.78934 0.84825 0.21651
 H281 H 0.69170 0.85561 0.19270
 C282 C 0.24524 0.38303 0.59988
 C283 C 0.27185 0.39062 0.61859
 C284 C 0.28878 0.41849 0.61369
 C285 C 0.27792 0.43942 0.58835
 C286 C 0.25045 0.43231 0.56867
 C287 C 0.23379 0.40368 0.57474
 O288 O 0.23296 0.35511 0.60837
 C289 C 0.25223 0.34496 0.63298
 C290 C 0.27634 0.36588 0.64024
 C291 C 0.29913 0.36017 0.66524
 C292 C 0.29698 0.33169 0.68364
 C293 C 0.27243 0.30954 0.67657
 C294 C 0.24978 0.31635 0.65073
 H295 H 0.30969 0.42387 0.62872
 H296 H 0.29091 0.46125 0.58422
 H297 H 0.21288 0.39749 0.56005
 H298 H 0.31786 0.37706 0.67047
 H299 H 0.31455 0.32686 0.70323
 H300 H 0.23069 0.30005 0.64483
 C301 C 0.92890 0.28305 0.10525
 C302 C 0.93784 0.26289 0.13158
 C303 C 0.96398 0.24541 0.12849
 C304 C 0.98165 0.24886 0.09698
 C305 C 0.97319 0.26983 0.06964
 C306 C 0.94653 0.28737 0.07402
 O307 O 0.90224 0.29590 0.11253
 C308 C 0.89426 0.28364 0.14414
 C309 C 0.91540 0.26353 0.15711
 C310 C 0.91120 0.24741 0.18925
 C311 C 0.88378 0.25174 0.20850
 C312 C 0.86107 0.27157 0.19514
 C313 C 0.86675 0.28812 0.16269
 H314 H 0.97028 0.22933 0.14932
 H315 H 1.00206 0.23537 0.09398
 H316 H 0.93929 0.30316 0.05334
 H317 H 0.92812 0.23157 0.19879
 H318 H 0.87977 0.23870 0.23308
 H319 H 0.84982 0.30319 0.15156
 C320 C 0.36737 0.75503 0.62419
 C321 C 0.36888 0.72450 0.63481
 C322 C 0.38974 0.70427 0.62030
 C323 C 0.41016 0.71601 0.59385
 C324 C 0.40975 0.74762 0.58285
 C325 C 0.38796 0.76744 0.59829
 O326 O 0.34532 0.76998 0.64115
 C327 C 0.33284 0.74839 0.66308
 C328 C 0.34674 0.72030 0.66034
 C329 C 0.33810 0.69458 0.68115
 C330 C 0.31395 0.69777 0.70574
 C331 C 0.29859 0.72621 0.70880
 C332 C 0.30816 0.75195 0.68701
 H333 H 0.39032 0.68029 0.62909
 H334 H 0.42683 0.70064 0.58255
 H335 H 0.38708 0.79163 0.59036
 H336 H 0.34954 0.67279 0.67854
 H337 H 0.30672 0.67774 0.72185
 H338 H 0.29690 0.77390 0.68876
 C339 C 0.08120 0.71462 0.12441
 C340 C 0.09381 0.68586 0.12611
 C341 C 0.07965 0.65948 0.11053
 C342 C 0.05180 0.66308 0.09182
 C343 C 0.03900 0.69289 0.08836
 C344 C 0.05396 0.71883 0.10563
 O345 O 0.09786 0.73673 0.14119
 C346 C 0.12172 0.72173 0.15360
 C347 C 0.12062 0.69060 0.14488
 C348 C 0.14392 0.67089 0.15453
 C349 C 0.16900 0.68373 0.17438
 C350 C 0.17004 0.71558 0.18459
 C351 C 0.14605 0.73479 0.17375
 H352 H 0.08984 0.63699 0.11237
 H353 H 0.04096 0.64284 0.07896
 H354 H 0.04508 0.74196 0.10401
 H355 H 0.14279 0.64651 0.14718
 H356 H 0.18708 0.66869 0.18271
 H357 H 0.14621 0.75920 0.18097
 C358 C 0.62033 0.24459 0.60097
 C359 C 0.61438 0.27042 0.62122
 C360 C 0.58997 0.28939 0.61413
 C361 C 0.57089 0.28145 0.58495
 C362 C 0.57632 0.25477 0.56370
 C363 C 0.60140 0.23601 0.57203
 O364 O 0.64528 0.23030 0.61165
 C365 C 0.65520 0.24747 0.63926
 C366 C 0.63701 0.27219 0.64632
 C367 C 0.64333 0.29334 0.67380
 C368 C 0.66967 0.28900 0.69472
 C369 C 0.68918 0.26396 0.68768
 C370 C 0.68160 0.24279 0.65959
 H371 H 0.58589 0.30972 0.63033
 H372 H 0.55175 0.29601 0.57908
 H373 H 0.60632 0.21568 0.55620
 H374 H 0.62867 0.31266 0.67875
 H375 H 0.67513 0.30550 0.71595
 H376 H 0.69598 0.22350 0.65341
 C377 C 0.72381 0.10894 0.87521
 C378 C 0.69941 0.12787 0.88062
 C379 C 0.67739 0.12233 0.90745
 C380 C 0.68087 0.09643 0.92989
 C381 C 0.70634 0.07701 0.92548
 C382 C 0.72786 0.08327 0.89735
 O383 O 0.74284 0.11892 0.84921
 C384 C 0.73034 0.14486 0.83811
 C385 C 0.70383 0.15150 0.85660
 C386 C 0.68829 0.17876 0.85113
 C387 C 0.70078 0.20014 0.82588
 C388 C 0.72800 0.19371 0.80637
 C389 C 0.74270 0.16543 0.81224
 H390 H 0.65853 0.13771 0.91141
 H391 H 0.66431 0.09215 0.95139
 H392 H 0.74767 0.06911 0.89339
 H393 H 0.66779 0.18377 0.86645
 H394 H 0.68945 0.22182 0.82172
 H395 H 0.76395 0.16033 0.79841
 C396 C 0.21420 0.59837 0.38780
 C397 C 0.18484 0.60945 0.38851
 C398 C 0.16107 0.59539 0.40901
 C399 C 0.16811 0.56933 0.42995
 C400 C 0.19858 0.55839 0.43034
 C401 C 0.22171 0.57299 0.40856
 O402 O 0.23364 0.61475 0.36691
 C403 C 0.21635 0.63684 0.35423
 C404 C 0.18635 0.63499 0.36669
 C405 C 0.16485 0.65683 0.35741
 C406 C 0.17470 0.68121 0.33413
 C407 C 0.20539 0.68290 0.32044
 C408 C 0.22639 0.66038 0.33088
 H409 H 0.13809 0.60439 0.40923
 H410 H 0.15025 0.55844 0.44678
 H411 H 0.24517 0.56516 0.40826
 H412 H 0.14142 0.65521 0.36775
 H413 H 0.15839 0.69833 0.32627
 H414 H 0.25008 0.66122 0.32128
 C415 C 0.25980 0.87495 0.90225
 C416 C 0.28340 0.85558 0.90997
 C417 C 0.30683 0.86341 0.93407
 C418 C 0.30609 0.89255 0.95070
 C419 C 0.28193 0.91292 0.94350
 C420 C 0.25818 0.90387 0.91923
 O421 O 0.24057 0.86333 0.87748
 C422 C 0.25228 0.83606 0.86959
 C423 C 0.27834 0.83016 0.88897
 C424 C 0.29428 0.80296 0.88525
 C425 C 0.28284 0.78080 0.86053
 C426 C 0.25626 0.78645 0.83976
 C427 C 0.24082 0.81458 0.84434
 H428 H 0.32525 0.84785 0.93947
 H429 H 0.32430 0.89928 0.96938
 H430 H 0.23973 0.91919 0.91302
 H431 H 0.31472 0.79889 0.90091
 H432 H 0.29489 0.75941 0.85725
 H433 H 0.22034 0.81940 0.82907
 C434 C 0.78580 0.41313 0.38478
 C435 C 0.80020 0.42684 0.35539
 C436 C 0.81093 0.45788 0.35525
 C437 C 0.80643 0.47542 0.38657
 C438 C 0.79078 0.46189 0.41666
 C439 C 0.78042 0.43028 0.41569
 O440 O 0.77770 0.38336 0.37982
 C441 C 0.78693 0.37814 0.34649
 C442 C 0.80053 0.40401 0.33009
 C443 C 0.81057 0.40381 0.29450
 C444 C 0.80641 0.37580 0.27519
 C445 C 0.79317 0.34876 0.29203
 C446 C 0.78342 0.35000 0.32819
 H447 H 0.82233 0.46819 0.33193
 H448 H 0.81435 0.49967 0.38708
 H449 H 0.76859 0.41935 0.43840
 H450 H 0.82085 0.42452 0.28195
 H451 H 0.81380 0.37502 0.24741
 H452 H 0.77272 0.32980 0.34143
 C453 C 0.12315 0.26384 0.86627
 C454 C 0.13129 0.29294 0.85306
 C455 C 0.11688 0.31961 0.86412
 C456 C 0.09339 0.31619 0.89019
 C457 C 0.08517 0.28645 0.90514
 C458 C 0.10026 0.25992 0.89244
 O459 O 0.13972 0.24148 0.85252
 C460 C 0.15894 0.25679 0.83027
 C461 C 0.15493 0.28840 0.82974
 C462 C 0.17358 0.30895 0.80937
 C463 C 0.19725 0.29635 0.78874
 C464 C 0.20133 0.26384 0.78860
 C465 C 0.18188 0.24376 0.80948
 H466 H 0.12364 0.34229 0.85330
 H467 H 0.08229 0.33687 0.89932
 H468 H 0.09477 0.23680 0.90290
 H469 H 0.17026 0.33377 0.80966
 H470 H 0.21226 0.31175 0.77274
 H471 H 0.18492 0.21888 0.80997
 C472 C 0.57908 0.79646 0.40286
 C473 C 0.59797 0.82135 0.41340
 C474 C 0.59142 0.83942 0.44326
 C475 C 0.56452 0.83128 0.46312
 C476 C 0.54519 0.80514 0.45326
 C477 C 0.55258 0.78772 0.42244
 O478 O 0.58965 0.78178 0.37436
 C479 C 0.61590 0.79756 0.36683
 C480 C 0.62229 0.82189 0.38998
 C481 C 0.64976 0.84005 0.38816
 C482 C 0.67153 0.83256 0.36167
 C483 C 0.66521 0.80769 0.33740
 C484 C 0.63676 0.79028 0.33990
 H485 H 0.60665 0.85881 0.45124
 H486 H 0.55930 0.84473 0.48678
 H487 H 0.53840 0.76761 0.41423
 H488 H 0.65459 0.85875 0.40703
 H489 H 0.69334 0.84587 0.36026
 H490 H 0.63159 0.77061 0.32246
 C491 C 0.86469 0.71604 0.91237
 C492 C 0.87385 0.74051 0.89038
 C493 C 0.90160 0.75751 0.89465
 C494 C 0.92073 0.74909 0.92290
 C495 C 0.91215 0.72381 0.94592
 C496 C 0.88380 0.70677 0.94035
 O497 O 0.83676 0.70393 0.90428
 C498 C 0.82828 0.72112 0.87657
 C499 C 0.85032 0.74364 0.86698
 C500 C 0.84644 0.76439 0.83895
 C501 C 0.81858 0.76197 0.81997
 C502 C 0.79508 0.73931 0.82946
 C503 C 0.80010 0.71852 0.85826
 H504 H 0.90811 0.77683 0.87714
 H505 H 0.94241 0.76222 0.92676
 H506 H 0.87653 0.68762 0.95778
 H507 H 0.86418 0.78193 0.83202
 H508 H 0.81518 0.77817 0.79821
 H509 H 0.78266 0.70098 0.86618
 C510 C 0.42666 0.23482 0.35987
 C511 C 0.41171 0.20594 0.35819
 C512 C 0.42017 0.18098 0.37933
 C513 C 0.44467 0.18622 0.40357
 C514 C 0.45954 0.21617 0.40661
 C515 C 0.45062 0.24061 0.38403
 O516 O 0.41469 0.25565 0.33833
 C517 C 0.39146 0.23972 0.32289
 C518 C 0.38841 0.20925 0.33430
 C519 C 0.36420 0.18913 0.32338
 C520 C 0.34228 0.20095 0.29986
 C521 C 0.34533 0.23214 0.28739
 C522 C 0.37046 0.25166 0.29884
 H523 H 0.40800 0.15848 0.37770
 H524 H 0.45117 0.16740 0.42094
 H525 H 0.46149 0.26374 0.38586
 H526 H 0.36190 0.16542 0.33319
 H527 H 0.32302 0.18585 0.29127
 H528 H 0.37292 0.27575 0.29031
 C529 C 0.70679 0.90348 0.88852
 C530 C 0.67826 0.88899 0.89450
 C531 C 0.65692 0.90025 0.91869
 C532 C 0.66545 0.92737 0.93784
 C533 C 0.69507 0.94240 0.93290
 C534 C 0.71585 0.93035 0.90747
 O535 O 0.72405 0.88834 0.86536
 C536 C 0.70611 0.86363 0.85673
 C537 C 0.67791 0.86285 0.87401
 C538 C 0.65641 0.83800 0.87088
 C539 C 0.66440 0.81282 0.84929
 C540 C 0.69322 0.81317 0.83099
 C541 C 0.71421 0.83917 0.83440
 H542 H 0.63469 0.88829 0.92313
 H543 H 0.64929 0.93607 0.95728
 H544 H 0.73870 0.94104 0.90323
 H545 H 0.63460 0.83766 0.88524
 H546 H 0.64824 0.79296 0.84698
 H547 H 0.73666 0.83967 0.82140
 C548 C 0.24649 0.39792 0.37729
 C549 C 0.27215 0.40943 0.35895
 C550 C 0.28798 0.43707 0.36802
 C551 C 0.27698 0.45367 0.39736
 C552 C 0.25041 0.44263 0.41681
 C553 C 0.23483 0.41433 0.40644
 O554 O 0.23547 0.37076 0.36446
 C555 C 0.25463 0.36514 0.33741
 C556 C 0.27732 0.38827 0.33299
 C557 C 0.29993 0.38747 0.30660
 C558 C 0.29929 0.36171 0.28372
 C559 C 0.27640 0.33713 0.28758
 C560 C 0.25365 0.33896 0.31495
 H561 H 0.30822 0.44548 0.35316
 H562 H 0.28910 0.47529 0.40473
 H563 H 0.21464 0.40521 0.42090
 H564 H 0.31753 0.40601 0.30378
 H565 H 0.31702 0.36086 0.26318
 H566 H 0.23592 0.32066 0.31869
 C567 C 0.27871 0.08203 0.86996
 C568 C 0.24848 0.08108 0.85866
 C569 C 0.22549 0.06207 0.87441
 C570 C 0.23390 0.04334 0.90321
 C571 C 0.26512 0.04318 0.91518
 C572 C 0.28793 0.06260 0.89770
 O573 O 0.29629 0.10367 0.85319
 C574 C 0.27670 0.11646 0.83072
 C575 C 0.24727 0.10311 0.83273
 C576 C 0.22293 0.11307 0.81210
 C577 C 0.22905 0.13810 0.78864
 C578 C 0.25891 0.15306 0.78689
 C579 C 0.28316 0.14192 0.80812
 H580 H 0.20174 0.06224 0.86546
 H581 H 0.21596 0.02876 0.91594
 H582 H 0.31178 0.06371 0.90647
 H583 H 0.19995 0.10221 0.81431
 H584 H 0.21023 0.14657 0.77283
 H585 H 0.30611 0.15301 0.80744
 C586 C 0.74707 0.62499 0.40541
 C587 C 0.71824 0.61960 0.39071
 C588 C 0.69949 0.59348 0.39900
 C589 C 0.71097 0.57192 0.42330
 C590 C 0.74084 0.57664 0.43858
 C591 C 0.75907 0.60373 0.42946
 O592 O 0.76113 0.65126 0.39390
 C593 C 0.74074 0.66262 0.37137
 C594 C 0.71418 0.64405 0.36836
 C595 C 0.69005 0.65119 0.34572
 C596 C 0.69341 0.67861 0.32533
 C597 C 0.72047 0.69839 0.32811
 C598 C 0.74444 0.69019 0.35164
 H599 H 0.67687 0.58976 0.38707
 H600 H 0.69670 0.55134 0.42979
 H601 H 0.78193 0.60808 0.44058
 H602 H 0.66942 0.63612 0.34369
 H603 H 0.67480 0.68453 0.30759
 H604 H 0.76546 0.70462 0.35423
 C605 C 0.07147 0.71577 0.90498
 C606 C 0.07293 0.68672 0.88981
 C607 C 0.05384 0.66156 0.90003
 C608 C 0.03228 0.66631 0.92724
 C609 C 0.03016 0.69593 0.94412
 C610 C 0.05008 0.72115 0.93241
 O611 O 0.09272 0.73607 0.89182
 C612 C 0.10787 0.71929 0.86804
 C613 C 0.09659 0.68892 0.86602
 C614 C 0.10985 0.66658 0.84470
 C615 C 0.13617 0.67578 0.82483
 C616 C 0.14829 0.70689 0.82621
 C617 C 0.13378 0.72919 0.84772
 H618 H 0.05568 0.63890 0.88774
 H619 H 0.01750 0.64652 0.93532
 H620 H 0.04941 0.74398 0.94459
 H621 H 0.10073 0.64273 0.84409
 H622 H 0.14736 0.65865 0.80855
 H623 H 0.14315 0.75290 0.84972
 C624 C 0.62656 0.24949 0.37370
 C625 C 0.61965 0.27375 0.35145
 C626 C 0.59404 0.29166 0.35680
 C627 C 0.57457 0.28401 0.38603
 C628 C 0.58079 0.25860 0.40887
 C629 C 0.60727 0.24116 0.40255
 O630 O 0.65254 0.23611 0.36465
 C631 C 0.66216 0.25218 0.33598
 C632 C 0.64272 0.27528 0.32658
 C633 C 0.64844 0.29493 0.29741
 C634 C 0.67561 0.29096 0.27750
 C635 C 0.69657 0.26794 0.28734
 C636 C 0.68945 0.24805 0.31683
 H637 H 0.58922 0.31083 0.33912
 H638 H 0.55430 0.29745 0.39039
 H639 H 0.61273 0.22177 0.41962
 H640 H 0.63278 0.31293 0.29051
 H641 H 0.68080 0.30655 0.25523
 H642 H 0.70498 0.23035 0.32514
 C643 C 0.91601 0.26645 0.88008
 C644 C 0.91791 0.23815 0.86321
 C645 C 0.94018 0.21704 0.87165
 C646 C 0.96158 0.22554 0.89841
 C647 C 0.96060 0.25487 0.91582
 C648 C 0.93734 0.27558 0.90649
 O649 O 0.89274 0.28282 0.86833
 C650 C 0.87980 0.26448 0.84339
 C651 C 0.89451 0.23699 0.83910
 C652 C 0.88520 0.21452 0.81417
 C653 C 0.85947 0.22048 0.79294
 C654 C 0.84340 0.24838 0.79722
 C655 C 0.85386 0.27074 0.82285
 H656 H 0.94109 0.19485 0.85806
 H657 H 0.97929 0.20947 0.90504
 H658 H 0.93591 0.29807 0.91932
 H659 H 0.89725 0.19312 0.81123
 H660 H 0.85171 0.20301 0.77367
 H661 H 0.84216 0.29224 0.82673
 C662 C 0.37836 0.77719 0.39421
 C663 C 0.36187 0.80364 0.39773
 C664 C 0.36941 0.82673 0.42279
 C665 C 0.39472 0.82213 0.44543
 C666 C 0.41172 0.79469 0.44285
 C667 C 0.40349 0.77213 0.41644
 O668 O 0.36698 0.75770 0.36948
 C669 C 0.34265 0.77208 0.35719
 C670 C 0.33841 0.80022 0.37366
 C671 C 0.31354 0.81848 0.36590
 C672 C 0.29217 0.80723 0.34021
 C673 C 0.29610 0.77831 0.32268
 C674 C 0.32192 0.76064 0.33126
 H675 H 0.35598 0.84729 0.42523
 H676 H 0.40050 0.83956 0.46557
 H677 H 0.41574 0.75081 0.41382
 H678 H 0.31048 0.84040 0.37944
 H679 H 0.27260 0.82110 0.33397
 H680 H 0.32541 0.73832 0.31875
 C681 C 0.27806 0.89890 0.12147
 C682 C 0.30418 0.88185 0.11990
 C683 C 0.32933 0.89011 0.09793
 C684 C 0.32707 0.91650 0.07593
 C685 C 0.29982 0.93374 0.07608
 C686 C 0.27534 0.92512 0.09995
 O687 O 0.25616 0.88640 0.14272
 C688 C 0.26860 0.86073 0.15467
 C689 C 0.29789 0.85676 0.14139
 C690 C 0.31436 0.83046 0.14870
 C691 C 0.30013 0.80745 0.17073
 C692 C 0.27004 0.81117 0.18511
 C693 C 0.25418 0.83837 0.17701
 H694 H 0.34954 0.87617 0.09688
 H695 H 0.34585 0.92251 0.05756
 H696 H 0.25405 0.93744 0.10043
 H697 H 0.33719 0.82758 0.13753
 H698 H 0.31268 0.78684 0.17677
 H699 H 0.23109 0.84176 0.18718
 C700 C 0.79196 0.40979 0.61347
 C701 C 0.81764 0.39366 0.60437
 C702 C 0.83720 0.40286 0.57608
 C703 C 0.82962 0.42935 0.55616
 C704 C 0.80252 0.44537 0.56437
 C705 C 0.78375 0.43560 0.59372
 O706 O 0.77585 0.39709 0.64046
 C707 C 0.79144 0.37220 0.64850
 C708 C 0.81706 0.36870 0.62710
 C709 C 0.83514 0.34270 0.62945
 C710 C 0.82630 0.31949 0.65469
 C711 C 0.80023 0.32307 0.67731
 C712 C 0.78286 0.35001 0.67427
 H713 H 0.85722 0.38982 0.56920
 H714 H 0.84397 0.43653 0.53349
 H715 H 0.76284 0.44734 0.60042
 H716 H 0.85483 0.34001 0.61189
 H717 H 0.83958 0.29878 0.65657
 H718 H 0.76232 0.35295 0.69042
 C719 C 0.74267 0.12046 0.10452
 C720 C 0.76859 0.11329 0.12354
 C721 C 0.78579 0.08752 0.11593
 C722 C 0.77574 0.06815 0.08769
 C723 C 0.74858 0.07444 0.06834
 C724 C 0.73172 0.10095 0.07692
 O725 O 0.73054 0.14680 0.11528
 C726 C 0.74911 0.15627 0.14183
 C727 C 0.77247 0.13630 0.14816
 C728 C 0.79433 0.14128 0.17494
 C729 C 0.79232 0.16819 0.19584
 C730 C 0.76912 0.18981 0.18921
 C731 C 0.74709 0.18368 0.16181
 H732 H 0.80630 0.08260 0.13106
 H733 H 0.78864 0.04780 0.08141
 H734 H 0.71102 0.10632 0.06233
 H735 H 0.81242 0.12512 0.17944
 H736 H 0.80954 0.17271 0.21640
 H737 H 0.72920 0.19979 0.15611
 C738 C 0.20791 0.58073 0.62659
 C739 C 0.17889 0.59254 0.62512
 C740 C 0.15676 0.58218 0.60034
 C741 C 0.16511 0.55911 0.57579
 C742 C 0.19534 0.54760 0.57606
 C743 C 0.21683 0.55834 0.60216
 O744 O 0.22585 0.59406 0.65141
 C745 C 0.20794 0.61498 0.66579
 C746 C 0.17905 0.61531 0.65052
 C747 C 0.15754 0.63711 0.65995
 C748 C 0.16627 0.65941 0.68606
 C749 C 0.19575 0.65897 0.70248
 C750 C 0.21669 0.63625 0.69235
 H751 H 0.13410 0.59186 0.59952
 H752 H 0.14857 0.55123 0.55568
 H753 H 0.24010 0.55006 0.60285
 H754 H 0.13517 0.63739 0.64711
 H755 H 0.15019 0.67692 0.69355
 H756 H 0.23964 0.63594 0.70381
 C757 C 0.87149 0.72905 0.13790
 C758 C 0.85123 0.70348 0.13715
 C759 C 0.85555 0.67784 0.11546
 C760 C 0.88181 0.67851 0.09342
 C761 C 0.90306 0.70473 0.09297
 C762 C 0.89777 0.73043 0.11570
 O763 O 0.86260 0.75100 0.16039
 C764 C 0.83614 0.73898 0.17385
 C765 C 0.82815 0.71002 0.16023
 C766 C 0.80075 0.69368 0.16911
 C767 C 0.78055 0.70783 0.19292
 C768 C 0.78829 0.73749 0.20777
 C769 C 0.81666 0.75320 0.19837
 H770 H 0.83918 0.65806 0.11533
 H771 H 0.88519 0.65869 0.07613
 H772 H 0.91341 0.75079 0.11593
 H773 H 0.79488 0.67107 0.15762
 H774 H 0.75888 0.69569 0.19990
 H775 H 0.82279 0.77614 0.20884
 C776 C 0.41818 0.21806 0.59937
 C777 C 0.40418 0.18891 0.59514
 C778 C 0.41455 0.16748 0.57036
 C779 C 0.44018 0.17660 0.54892
 C780 C 0.45431 0.20691 0.55209
 C781 C 0.44320 0.22781 0.57787
 O782 O 0.40460 0.23508 0.62400
 C783 C 0.38136 0.21643 0.63537
 C784 C 0.37981 0.18800 0.61837
 C785 C 0.35591 0.16583 0.62457
 C786 C 0.33264 0.17343 0.64912
 C787 C 0.33420 0.20239 0.66733
 C788 C 0.35908 0.22401 0.66057
 H789 H 0.40316 0.14471 0.56740
 H790 H 0.44836 0.16047 0.52908
 H791 H 0.45351 0.25108 0.58084
 H792 H 0.35483 0.14384 0.61040
 H793 H 0.31346 0.15689 0.65395
 H794 H 0.36032 0.24663 0.67342
 C795 C 0.13297 0.28680 0.09297
 C796 C 0.14935 0.31466 0.08803
 C797 C 0.14009 0.33722 0.06397
 C798 C 0.11312 0.33053 0.04395
 C799 C 0.09654 0.30149 0.04790
 C800 C 0.10654 0.27953 0.07305
 O801 O 0.14564 0.26833 0.11670
 C802 C 0.17072 0.28472 0.12685
 C803 C 0.17431 0.31315 0.10997
 C804 C 0.20001 0.33322 0.11549
 C805 C 0.22281 0.32351 0.13933
 C806 C 0.21917 0.29449 0.15739
 C807 C 0.19263 0.27499 0.15109
 H808 H 0.15332 0.35897 0.06045
 H809 H 0.10577 0.34746 0.02459
 H810 H 0.09435 0.25718 0.07667
 H811 H 0.20262 0.35530 0.10157
 H812 H 0.24311 0.33860 0.14391
 H813 H 0.18949 0.25246 0.16397
 C814 C 0.57322 0.76291 0.63437
 C815 C 0.56606 0.73459 0.65034
 C816 C 0.54195 0.71471 0.63876
 C817 C 0.52446 0.72441 0.60953
 C818 C 0.53093 0.75375 0.59305
 C819 C 0.55555 0.77342 0.60583
 O820 O 0.59809 0.77743 0.64835
 C821 C 0.60666 0.75792 0.67378
 C822 C 0.58760 0.73154 0.67634
 C823 C 0.59236 0.70795 0.70100
 C824 C 0.61808 0.71147 0.72368
 C825 C 0.63870 0.73798 0.72085
 C826 C 0.63269 0.76165 0.69565
 H827 H 0.53701 0.69237 0.65146
 H828 H 0.50557 0.70927 0.60001
 H829 H 0.56115 0.79575 0.59340
 H830 H 0.57703 0.68739 0.70245
 H831 H 0.62250 0.69305 0.74258
 H832 H 0.64804 0.78210 0.69280
   
