data_POSCAR
  _audit_creation_date              2014-09-24
  _audit_creation_method            'ToBaCCo'
  _symmetry_space_group_name_H-M    'P1'
  _symmetry_Int_Tables_number       1
  _symmetry_cell_setting            triclinic
  loop_
  _symmetry_equiv_pos_as_xyz
 x,y,z
_cell_length_a 45.9869
_cell_length_b 45.0558
_cell_length_c 47.9662
_cell_angle_alpha 91.655400
_cell_angle_beta 91.641600
_cell_angle_gamma 87.347200
loop_
  _atom_site_label
  _atom_site_type_symbol
  _atom_site_fract_x
  _atom_site_fract_y
  _atom_site_fract_z
N1 N 0.15539 0.20120 0.23652
 N2 N 0.16545 0.17682 0.24856
 C3 C 0.14821 0.17124 0.26995
 C4 C 0.12638 0.19349 0.27128
 C5 C 0.13174 0.21207 0.24984
 H6 H 0.15127 0.15248 0.28343
 H7 H 0.11893 0.23178 0.24403
 Cu8 Cu 0.20003 0.15504 0.23469
 Cu9 Cu 0.17246 0.21663 0.20368
 Cu10 Cu 0.23397 0.17890 0.17869
 N11 N 0.23567 0.13501 0.22114
 N12 N 0.24840 0.14420 0.19897
 C13 C 0.27218 0.12655 0.19391
 C14 C 0.27464 0.10515 0.21406
 C15 C 0.25114 0.11125 0.23107
 H16 H 0.28683 0.12945 0.17709
 H17 H 0.24581 0.09920 0.24927
 N18 N 0.21609 0.21452 0.16110
 N19 N 0.19262 0.22889 0.17065
 C20 C 0.18571 0.25212 0.15429
 C21 C 0.20587 0.25242 0.13349
 C22 C 0.22482 0.22832 0.13847
 H23 H 0.16752 0.26778 0.15744
 H24 H 0.24361 0.22146 0.12644
 H25 H 0.19089 0.17664 0.18902
 H26 H 0.21431 0.19991 0.21248
 N27 N 0.65836 0.72338 0.74687
 N28 N 0.66930 0.69826 0.75691
 C29 C 0.65450 0.69167 0.77959
 C30 C 0.63318 0.71386 0.78410
 C31 C 0.63635 0.73368 0.76298
 H32 H 0.65909 0.67233 0.79206
 H33 H 0.62341 0.75396 0.75951
 Cu34 Cu 0.70213 0.67656 0.73983
 Cu35 Cu 0.67336 0.74066 0.71350
 Cu36 Cu 0.73278 0.70320 0.68375
 N37 N 0.73603 0.65634 0.72303
 N38 N 0.74773 0.66697 0.70096
 C39 C 0.77053 0.64909 0.69333
 C40 C 0.77342 0.62593 0.71163
 C41 C 0.75119 0.63127 0.73028
 H42 H 0.78405 0.65285 0.67584
 H43 H 0.74646 0.61780 0.74775
 N44 N 0.71492 0.74008 0.66898
 N45 N 0.69192 0.75433 0.67966
 C46 C 0.68492 0.77836 0.66414
 C47 C 0.70472 0.77913 0.64292
 C48 C 0.72330 0.75463 0.64676
 H49 H 0.66708 0.79424 0.66815
 H50 H 0.74158 0.74789 0.63401
 H51 H 0.68990 0.70145 0.69624
 H52 H 0.71495 0.72303 0.71955
 N53 N 0.34739 0.77558 0.74997
 N54 N 0.33753 0.79511 0.76870
 C55 C 0.35472 0.79327 0.79190
 C56 C 0.37619 0.77119 0.78736
 C57 C 0.37090 0.76056 0.76050
 H58 H 0.35207 0.80712 0.81054
 H59 H 0.38365 0.74381 0.74903
 Cu60 Cu 0.30406 0.82169 0.75968
 Cu61 Cu 0.33051 0.77247 0.71259
 Cu62 Cu 0.25950 0.80097 0.70652
 N63 N 0.26840 0.84484 0.75047
 N64 N 0.25164 0.83713 0.72904
 C65 C 0.22904 0.85703 0.72674
 C66 C 0.23158 0.87835 0.74798
 C67 C 0.25687 0.86980 0.76274
 H68 H 0.21185 0.85590 0.71091
 H69 H 0.26645 0.88105 0.78071
 N70 N 0.27633 0.77090 0.68005
 N71 N 0.30376 0.76111 0.68207
 C72 C 0.30904 0.74055 0.66181
 C73 C 0.28368 0.73704 0.64613
 C74 C 0.26337 0.75678 0.65819
 H75 H 0.32965 0.72836 0.65945
 H76 H 0.24072 0.76011 0.65186
 H77 H 0.30177 0.81016 0.70948
 H78 H 0.29135 0.77857 0.73087
 N79 N 0.83701 0.29656 0.21130
 N80 N 0.83398 0.32394 0.22130
 C81 C 0.85100 0.32708 0.24432
 C82 C 0.86581 0.30015 0.24905
 C83 C 0.85649 0.28130 0.22753
 H84 H 0.85219 0.34750 0.25659
 H85 H 0.86307 0.25814 0.22421
 Cu86 Cu 0.80744 0.35297 0.20434
 Cu87 Cu 0.81483 0.28322 0.17828
 Cu88 Cu 0.75877 0.33132 0.15525
 N89 N 0.77220 0.37642 0.19636
 N90 N 0.75233 0.36744 0.17819
 C91 C 0.72892 0.38657 0.17923
 C92 C 0.73478 0.40874 0.19894
 C93 C 0.76244 0.40157 0.20933
 H94 H 0.70905 0.38435 0.16688
 H95 H 0.77406 0.41290 0.22609
 N96 N 0.76927 0.29336 0.13571
 N97 N 0.78986 0.27451 0.14516
 C98 C 0.79170 0.25066 0.12764
 C99 C 0.77173 0.25494 0.10592
 C100 C 0.75787 0.28223 0.11164
 H101 H 0.80708 0.23194 0.12994
 H102 H 0.74074 0.29311 0.09923
 H103 H 0.80353 0.32407 0.16100
 H104 H 0.77962 0.31108 0.18879
 N105 N 0.84816 0.73213 0.27478
 N106 N 0.83471 0.71813 0.25413
 C107 C 0.85291 0.71422 0.23262
 C108 C 0.87923 0.72618 0.24048
 C109 C 0.87533 0.73738 0.26733
 H110 H 0.84756 0.70326 0.21290
 H111 H 0.89088 0.74909 0.28030
 Cu112 Cu 0.79496 0.70603 0.25794
 Cu113 Cu 0.82915 0.74417 0.30917
 Cu114 Cu 0.76203 0.71568 0.31999
 N115 N 0.76082 0.68458 0.26681
 N116 N 0.74784 0.68833 0.29081
 C117 C 0.72557 0.66990 0.29133
 C118 C 0.72474 0.65357 0.26641
 C119 C 0.74744 0.66361 0.25137
 H120 H 0.71155 0.66785 0.30883
 H121 H 0.75421 0.65593 0.23091
 N122 N 0.78079 0.74366 0.34671
 N123 N 0.80660 0.75412 0.34254
 C124 C 0.81343 0.77304 0.36366
 C125 C 0.79087 0.77469 0.38213
 C126 C 0.77053 0.75572 0.37075
 H127 H 0.83310 0.78527 0.36507
 H128 H 0.74956 0.75155 0.37913
 H129 H 0.80410 0.70680 0.30797
 H130 H 0.78571 0.74227 0.29574
 N131 N 0.34250 0.22253 -0.23179
 N132 N 0.32935 0.21237 -0.25454
 C133 C 0.34514 0.21871 -0.27677
 C134 C 0.36975 0.23317 -0.26712
 C135 C 0.36726 0.23487 -0.23840
 H136 H 0.33948 0.21284 -0.29821
 H137 H 0.38159 0.24531 -0.22322
 Cu138 Cu 0.29375 0.19054 -0.25153
 Cu139 Cu 0.32565 0.22154 -0.19529
 Cu140 Cu 0.25203 0.20945 -0.19672
 N141 N 0.26006 0.16782 -0.24286
 N142 N 0.24299 0.17622 -0.22224
 C143 C 0.22130 0.15727 -0.22108
 C144 C 0.22530 0.13538 -0.24162
 C145 C 0.25015 0.14277 -0.25509
 H146 H 0.20457 0.15856 -0.20562
 H147 H 0.26032 0.13082 -0.27238
 N148 N 0.27163 0.23121 -0.16575
 N149 N 0.30002 0.23434 -0.16483
 C150 C 0.30724 0.25077 -0.14207
 C151 C 0.28218 0.25847 -0.12784
 C152 C 0.25998 0.24542 -0.14329
 H153 H 0.32905 0.25752 -0.13696
 H154 H 0.23699 0.24695 -0.13898
 H155 H 0.29236 0.19169 -0.20046
 H156 H 0.28677 0.22934 -0.21548
 N157 N 0.65562 0.26811 -0.23603
 N158 N 0.66209 0.28936 -0.25272
 C159 C 0.63936 0.29527 -0.27023
 C160 C 0.61757 0.27634 -0.26472
 C161 C 0.62862 0.25935 -0.24276
 H162 H 0.63894 0.31151 -0.28642
 H163 H 0.61814 0.24177 -0.23260
 Cu164 Cu 0.70012 0.30603 -0.25073
 Cu165 Cu 0.68343 0.25298 -0.20747
 Cu166 Cu 0.74709 0.29145 -0.19826
 N167 N 0.73730 0.32450 -0.24838
 N168 N 0.75521 0.31919 -0.22708
 C169 C 0.77827 0.33623 -0.22864
 C170 C 0.77468 0.35304 -0.25220
 C171 C 0.74844 0.34507 -0.26433
 H172 H 0.79603 0.33694 -0.21339
 H173 H 0.73766 0.35458 -0.28253
 N174 N 0.73493 0.26209 -0.17191
 N175 N 0.71111 0.24696 -0.17540
 C176 C 0.70982 0.22805 -0.15420
 C177 C 0.73403 0.23146 -0.13671
 C178 C 0.74936 0.25325 -0.14862
 H179 H 0.69272 0.21272 -0.15173
 H180 H 0.76981 0.26178 -0.14118
 H181 H 0.70171 0.29336 -0.20202
 H182 H 0.72224 0.26519 -0.22387
 N183 N 0.16784 0.75585 0.27757
 N184 N 0.17994 0.76758 0.25624
 C185 C 0.16089 0.76795 0.23439
 C186 C 0.13542 0.75612 0.24268
 C187 C 0.14061 0.74861 0.27017
 H188 H 0.16497 0.77681 0.21422
 H189 H 0.12584 0.73836 0.28372
 Cu190 Cu 0.21870 0.78280 0.25945
 Cu191 Cu 0.18844 0.74980 0.31301
 Cu192 Cu 0.25406 0.78332 0.32210
 N193 N 0.25133 0.80785 0.26737
 N194 N 0.26509 0.80768 0.29175
 C195 C 0.28561 0.82795 0.29223
 C196 C 0.28461 0.84181 0.26684
 C197 C 0.26262 0.82836 0.25142
 H198 H 0.29958 0.83299 0.31010
 H199 H 0.25470 0.83360 0.23061
 N200 N 0.23833 0.75820 0.35031
 N201 N 0.21286 0.74604 0.34715
 C202 C 0.20807 0.73028 0.36985
 C203 C 0.23170 0.73256 0.38811
 C204 C 0.25049 0.75046 0.37506
 H205 H 0.18917 0.71738 0.37264
 H206 H 0.27156 0.75714 0.38282
 H207 H 0.21096 0.78812 0.30914
 H208 H 0.23061 0.75201 0.29952
 N209 N 0.48238 0.43141 0.47820
 N210 N 0.46380 0.44299 0.49629
 C211 C 0.46139 0.42416 0.51726
 C212 C 0.47928 0.39925 0.51218
 C213 C 0.49237 0.40459 0.48715
 H214 H 0.44724 0.42805 0.53475
 H215 H 0.50801 0.39017 0.47630
 Cu216 Cu 0.44298 0.48079 0.49054
 Cu217 Cu 0.49217 0.45247 0.44456
 Cu218 Cu 0.45369 0.51951 0.43394
 N219 N 0.41457 0.51117 0.47803
 N220 N 0.41885 0.52589 0.45540
 C221 C 0.39661 0.54578 0.45126
 C222 C 0.37714 0.54340 0.47244
 C223 C 0.38927 0.52123 0.48916
 H224 H 0.39516 0.56113 0.43432
 H225 H 0.38042 0.51315 0.50802
 N226 N 0.48322 0.50322 0.40850
 N227 N 0.49844 0.47800 0.41218
 C228 C 0.51685 0.47375 0.39075
 C229 C 0.51230 0.49717 0.37268
 C230 C 0.49091 0.51529 0.38472
 H231 H 0.53200 0.45486 0.38814
 H232 H 0.48167 0.53597 0.37676
 H233 H 0.48209 0.49388 0.45982
 H234 H 0.45201 0.47471 0.44097
 N235 N 0.00793 -0.09331 0.99794
 N236 N -0.01420 -0.08497 1.01352
 C237 C -0.01680 -0.10488 1.03356
 C238 C 0.00467 -0.12706 1.03031
 C239 C 0.02006 -0.11899 1.00750
 H240 H -0.03366 -0.10387 1.04887
 H241 H 0.03835 -0.13111 0.99825
 Cu242 Cu -0.03953 -0.05046 1.00532
 Cu243 Cu 0.01805 -0.07053 0.96596
 Cu244 Cu -0.02525 -0.01185 0.94629
 N245 N -0.06291 -0.01513 0.99359
 N246 N -0.05815 -0.00093 0.97060
 C247 C -0.07881 0.02107 0.96755
 C248 C -0.09725 0.02078 0.98981
 C249 C -0.08650 -0.00246 1.00587
 H250 H -0.08044 0.03620 0.95043
 H251 H -0.09568 -0.01012 1.02471
 N252 N 0.00841 -0.02588 0.92509
 N253 N 0.02568 -0.04838 0.93286
 C254 C 0.04711 -0.05263 0.91435
 C255 C 0.04295 -0.03165 0.89390
 C256 C 0.01817 -0.01512 0.90140
 H257 H 0.06415 -0.06992 0.91545
 H258 H 0.00801 0.00339 0.89036
 H259 H -0.00969 -0.02705 0.98420
 H260 H -0.03277 -0.05261 0.96273
 N261 N 1.01238 0.58217 0.97855
 N262 N 1.03356 0.57116 0.99469
 C263 C 1.03675 0.58943 1.01727
 C264 C 1.01664 0.61314 1.01477
 C265 C 1.00154 0.60769 0.99002
 H266 H 1.05291 0.58624 1.03386
 H267 H 0.98390 0.62122 0.98096
 Cu268 Cu 1.05573 0.53505 0.98324
 Cu269 Cu 0.99966 0.56280 0.94409
 Cu270 Cu 1.04221 0.50273 0.92021
 N271 N 1.07728 0.49894 0.97085
 N272 N 1.07211 0.48705 0.94595
 C273 C 1.09042 0.46334 0.94187
 C274 C 1.10829 0.46010 0.96538
 C275 C 1.09931 0.48308 0.98343
 H276 H 1.09070 0.44966 0.92301
 H277 H 1.10852 0.48813 1.00393
 N278 N 1.01061 0.52176 0.89758
 N279 N 0.99437 0.54465 0.90679
 C280 C 0.97397 0.55191 0.88718
 C281 C 0.97736 0.53241 0.86462
 C282 C 1.00074 0.51359 0.87193
 H283 H 0.95727 0.56938 0.88960
 H284 H 1.00931 0.49480 0.85971
 H285 H 1.01671 0.51966 0.95122
 H286 H 1.04113 0.54622 0.93542
 N287 N 0.50332 0.09917 0.49621
 N288 N 0.52509 0.09243 0.51357
 C289 C 0.52530 0.11291 0.53462
 C290 C 0.50222 0.13319 0.53020
 C291 C 0.48875 0.12377 0.50567
 H292 H 0.54111 0.11327 0.55174
 H293 H 0.47039 0.13462 0.49494
 Cu294 Cu 0.55095 0.05781 0.50630
 Cu295 Cu 0.49658 0.07724 0.46156
 Cu296 Cu 0.54246 0.01593 0.44734
 N297 N 0.57562 0.02237 0.49903
 N298 N 0.57279 0.00668 0.47562
 C299 C 0.59328 -0.01564 0.47537
 C300 C 0.60958 -0.01408 0.50002
 C301 C 0.59776 0.01030 0.51459
 H302 H 0.59612 -0.03191 0.45852
 H303 H 0.60521 0.01898 0.53465
 N304 N 0.51019 0.02921 0.42171
 N305 N 0.49292 0.05264 0.42748
 C306 C 0.47281 0.05607 0.40684
 C307 C 0.47737 0.03370 0.38698
 C308 C 0.50127 0.01697 0.39707
 H309 H 0.45567 0.07326 0.40666
 H310 H 0.51104 -0.00288 0.38735
 H311 H 0.51438 0.03654 0.47492
 H312 H 0.53919 0.06067 0.45653
 N313 N -0.01426 0.07915 0.49664
 N314 N -0.03712 0.07126 0.48167
 C315 C -0.03912 0.08750 0.45845
 C316 C -0.01605 0.10622 0.45894
 C317 C -0.00074 0.10026 0.48346
 H318 H -0.05637 0.08639 0.44270
 H319 H 0.01793 0.11157 0.49185
 Cu320 Cu -0.06227 0.04131 0.49493
 Cu321 Cu -0.00550 0.06442 0.53356
 Cu322 Cu -0.05127 0.01332 0.55925
 N323 N -0.08769 0.01229 0.50923
 N324 N -0.08373 0.00172 0.53441
 C325 C -0.10456 -0.01761 0.53880
 C326 C -0.12235 -0.01940 0.51503
 C327 C -0.11097 -0.00007 0.49674
 H328 H -0.10646 -0.02979 0.55771
 H329 H -0.11915 0.00477 0.47595
 N330 N -0.01700 0.02811 0.58074
 N331 N 0.00021 0.04749 0.57051
 C332 C 0.02131 0.05366 0.58943
 C333 C 0.01750 0.03744 0.61289
 C334 C -0.00697 0.02130 0.60666
 H335 H 0.03843 0.06869 0.58620
 H336 H -0.01667 0.00583 0.62006
 H337 H -0.02456 0.02343 0.52794
 H338 H -0.04803 0.05451 0.54287
 N339 N 0.46637 0.57882 0.00561
 N340 N 0.44472 0.57006 -0.01063
 C341 C 0.44264 0.58712 -0.03329
 C342 C 0.46427 0.60753 -0.03115
 C343 C 0.47900 0.60147 -0.00629
 H344 H 0.42635 0.58519 -0.04985
 H345 H 0.49674 0.61359 0.00302
 Cu346 Cu 0.42080 0.53787 0.00003
 Cu347 Cu 0.47466 0.56238 0.04229
 Cu348 Cu 0.43152 0.50601 0.06226
 N349 N 0.39780 0.50501 0.01075
 N350 N 0.40194 0.49294 0.03526
 C351 C 0.38323 0.47111 0.03760
 C352 C 0.36650 0.46925 0.01324
 C353 C 0.37633 0.49114 -0.00338
 H354 H 0.38189 0.45747 0.05566
 H355 H 0.36834 0.49669 -0.02407
 N356 N 0.46269 0.52220 0.08657
 N357 N 0.47954 0.54316 0.07866
 C358 C 0.49917 0.54880 0.09930
 C359 C 0.49440 0.53068 0.12131
 C360 C 0.47109 0.51406 0.11252
 H361 H 0.51583 0.56489 0.09847
 H362 H 0.46134 0.49693 0.12394
 H363 H 0.45896 0.52085 0.03295
 H364 H 0.43302 0.54908 0.04892
 N365 N 0.55182 -0.09252 0.03572
 N366 N 0.57675 -0.08604 0.02522
 C367 C 0.58270 -0.10477 0.00355
 C368 C 0.56023 -0.12411 0.00034
 C369 C 0.54109 -0.11573 0.02118
 H370 H 0.60157 -0.10378 -0.00925
 H371 H 0.52048 -0.12533 0.02497
 Cu372 Cu 0.59820 -0.05261 0.03949
 Cu373 Cu 0.53452 -0.06942 0.06652
 Cu374 Cu 0.57052 -0.00682 0.08922
 N375 N 0.61206 -0.01295 0.04583
 N376 N 0.60100 0.00508 0.06519
 C377 C 0.61487 0.03073 0.06558
 C378 C 0.63570 0.02864 0.04524
 C379 C 0.63326 0.00063 0.03310
 H380 H 0.61026 0.04926 0.07984
 H381 H 0.64615 -0.00924 0.01643
 N382 N 0.53433 -0.01885 0.10567
 N383 N 0.52090 -0.04298 0.09744
 C384 C 0.49775 -0.04584 0.11356
 C385 C 0.49638 -0.02220 0.13255
 C386 C 0.51987 -0.00548 0.12694
 H387 H 0.48306 -0.06391 0.11186
 H388 H 0.52646 0.01442 0.13805
 H389 H 0.55272 -0.03011 0.05613
 H390 H 0.57201 -0.05292 0.08338
 N391 N 1.01007 0.40914 0.48927
 N392 N 1.03226 0.41799 0.47549
 C393 C 1.03812 0.39858 0.45440
 C394 C 1.01844 0.37630 0.45469
 C395 C 1.00074 0.38383 0.47700
 H396 H 1.05536 0.40078 0.43985
 H397 H 0.98278 0.37157 0.48406
 Cu398 Cu 1.05189 0.45402 0.48574
 Cu399 Cu 0.99603 0.43140 0.52236
 Cu400 Cu 1.04702 0.47834 0.55192
 N401 N 1.07957 0.48105 0.50209
 N402 N 1.07799 0.48969 0.52840
 C403 C 1.09919 0.50852 0.53459
 C404 C 1.11497 0.51188 0.51093
 C405 C 1.10196 0.49404 0.49058
 H406 H 1.10240 0.51970 0.55463
 H407 H 1.10788 0.49109 0.46899
 N408 N 1.01386 0.46493 0.57220
 N409 N 0.99330 0.44861 0.56081
 C410 C 0.97248 0.44573 0.57977
 C411 C 0.98077 0.46069 0.60417
 C412 C 1.00698 0.47253 0.59852
 H413 H 0.95301 0.43341 0.57624
 H414 H 1.01963 0.48655 0.61238
 H415 H 1.01628 0.47164 0.52059
 H416 H 1.03855 0.43810 0.53134
 C417 C 0.38702 -0.02545 0.25599
 C418 C 0.11161 0.00814 0.75081
 C419 C 0.61159 0.52666 0.24510
 C420 C 0.87960 0.48502 0.73443
 C421 C 0.24247 0.35331 0.00836
 C422 C 0.76002 0.12574 -0.00864
 C423 C 0.23404 0.63234 0.52025
 C424 C 0.74593 0.87328 0.51446
 C425 C -0.01533 0.23845 0.35487
 C426 C 0.00527 0.73860 0.13282
 C427 C 0.48679 0.27706 0.62762
 C428 C 0.50981 0.75085 0.89315
 C429 C 0.06158 0.22728 0.30609
 C430 C 0.05376 0.20463 0.32343
 N431 N 0.07028 0.17884 0.32412
 C432 C 0.09418 0.17464 0.30809
 C433 C 0.10174 0.19717 0.29030
 N434 N 0.08515 0.22298 0.28991
 N435 N 0.04526 0.25308 0.30534
 C436 C 0.02128 0.25728 0.32109
 C437 C 0.01289 0.23453 0.33843
 N438 N 0.02957 0.20864 0.33896
 H439 H 0.10675 0.15377 0.30889
 H440 H 0.00855 0.27803 0.31985
 C441 C 0.57569 0.74477 0.83111
 C442 C 0.57073 0.72037 0.84756
 N443 N 0.58638 0.69445 0.84329
 C444 C 0.60676 0.69176 0.82326
 C445 C 0.61162 0.71608 0.80646
 N446 N 0.59584 0.74205 0.81091
 N447 N 0.56013 0.77072 0.83546
 C448 C 0.53970 0.77335 0.85543
 C449 C 0.53425 0.74883 0.87191
 N450 N 0.55011 0.72287 0.86732
 H451 H 0.61868 0.67071 0.82032
 H452 H 0.52745 0.79427 0.85822
 C453 C 0.43292 0.77432 0.84380
 C454 C 0.44850 0.74717 0.83961
 N455 N 0.43987 0.72807 0.81897
 C456 C 0.41643 0.73503 0.80212
 C457 C 0.40080 0.76234 0.80614
 N458 N 0.40941 0.78128 0.82709
 N459 N 0.44209 0.79372 0.86393
 C460 C 0.46605 0.78718 0.88025
 C461 C 0.48167 0.75955 0.87661
 N462 N 0.47234 0.74052 0.85593
 H463 H 0.41010 0.71933 0.78583
 H464 H 0.47290 0.80385 0.89533
 C465 C -0.08052 0.25846 0.29151
 C466 C -0.07440 0.27922 0.31296
 N467 N -0.08821 0.30644 0.31297
 C468 C -0.10789 0.31397 0.29243
 C469 C -0.11424 0.29321 0.27076
 N470 N -0.10032 0.26583 0.27104
 N471 N -0.06610 0.23150 0.29116
 C472 C -0.04579 0.22438 0.31132
 C473 C -0.03975 0.24503 0.33319
 N474 N -0.05428 0.27209 0.33314
 H475 H -0.11839 0.33592 0.29330
 H476 H -0.03425 0.20290 0.31030
 C477 C -0.07174 0.72699 0.18009
 C478 C -0.04501 0.73240 0.19354
 N479 N -0.04329 0.73500 0.22173
 C480 C -0.06726 0.73270 0.23723
 C481 C -0.09431 0.72751 0.22395
 N482 N -0.09584 0.72456 0.19555
 N483 N -0.07321 0.72494 0.15178
 C484 C -0.04913 0.72813 0.13639
 C485 C -0.02205 0.73362 0.14984
 N486 N -0.02118 0.73552 0.17821
 H487 H -0.06507 0.73482 0.25969
 H488 H -0.05110 0.72678 0.11386
 C489 C 0.41209 0.25419 0.67364
 C490 C 0.43746 0.26363 0.68729
 N491 N 0.43965 0.26372 0.71547
 C492 C 0.41767 0.25445 0.73081
 C493 C 0.39230 0.24389 0.71737
 N494 N 0.39016 0.24421 0.68889
 N495 N 0.40996 0.25501 0.64536
 C496 C 0.43252 0.26378 0.63016
 C497 C 0.45909 0.27106 0.64374
 N498 N 0.46007 0.27158 0.67217
 H499 H 0.42067 0.25466 0.75323
 H500 H 0.42988 0.26454 0.60773
 C501 C 0.56035 0.29174 0.68305
 C502 C 0.54152 0.26893 0.68727
 N503 N 0.54736 0.24972 0.70820
 C504 C 0.57155 0.25205 0.72496
 C505 C 0.59120 0.27432 0.72019
 N506 N 0.58478 0.29377 0.69938
 N507 N 0.55446 0.31090 0.66211
 C508 C 0.53066 0.30810 0.64487
 C509 C 0.51178 0.28465 0.64847
 N510 N 0.51816 0.26572 0.66980
 H511 H 0.57561 0.23614 0.74122
 H512 H 0.52735 0.32348 0.62809
 C513 C 0.08457 0.74926 0.18162
 C514 C 0.05799 0.74651 0.19458
 N515 N 0.05706 0.74677 0.22280
 C516 C 0.08168 0.74966 0.23877
 C517 C 0.10844 0.75271 0.22591
 N518 N 0.10920 0.75251 0.19752
 N519 N 0.08535 0.74827 0.15335
 C520 C 0.06066 0.74480 0.13748
 C521 C 0.03359 0.74250 0.15036
 N522 N 0.03346 0.74340 0.17875
 H523 H 0.08020 0.74998 0.26124
 H524 H 0.06222 0.74354 0.11503
 C525 C 0.32059 0.04405 0.24521
 C526 C 0.34035 0.03695 0.22403
 N527 N 0.33836 0.05215 0.19999
 C528 C 0.31753 0.07420 0.19616
 C529 C 0.29757 0.08134 0.21732
 N530 N 0.29966 0.06591 0.24136
 N531 N 0.32269 0.02903 0.26933
 C532 C 0.34368 0.00720 0.27327
 C533 C 0.36370 -0.00022 0.25208
 N534 N 0.36121 0.01500 0.22785
 H535 H 0.31651 0.08577 0.17670
 H536 H 0.34475 -0.00440 0.29274
 C537 C 0.81653 0.55849 0.73368
 C538 C 0.83601 0.55392 0.71183
 N539 N 0.83487 0.57294 0.69037
 C540 C 0.81510 0.59633 0.68973
 C541 C 0.79539 0.60094 0.71156
 N542 N 0.79670 0.58175 0.73303
 N543 N 0.81781 0.53968 0.75526
 C544 C 0.83756 0.51633 0.75592
 C545 C 0.85699 0.51117 0.73381
 N546 N 0.85573 0.53054 0.71240
 H547 H 0.81476 0.61095 0.67225
 H548 H 0.83820 0.50195 0.77362
 C549 C 0.83012 0.40972 0.75327
 C550 C 0.82756 0.42276 0.72714
 N551 N 0.80807 0.41250 0.70780
 C552 C 0.79087 0.38980 0.71357
 C553 C 0.79340 0.37675 0.73986
 N554 N 0.81314 0.38705 0.75899
 N555 N 0.84872 0.42061 0.77295
 C556 C 0.86517 0.44393 0.76769
 C557 C 0.86342 0.45699 0.74111
 N558 N 0.84409 0.44597 0.72178
 H559 H 0.77546 0.38211 0.69782
 H560 H 0.87853 0.45253 0.78464
 C561 C 0.33748 -0.10090 0.27398
 C562 C 0.33438 -0.08702 0.24829
 N563 N 0.31504 -0.09724 0.22877
 C564 C 0.29855 -0.12072 0.23388
 C565 C 0.30147 -0.13460 0.25985
 N566 N 0.32105 -0.12418 0.27914
 N567 N 0.35642 -0.09056 0.29366
 C568 C 0.37276 -0.06704 0.28880
 C569 C 0.37037 -0.05310 0.26270
 N570 N 0.35062 -0.06343 0.24334
 H571 H 0.28332 -0.12818 0.21788
 H572 H 0.38681 -0.05920 0.30556
 C573 C 0.17137 -0.06748 0.73735
 C574 C 0.17390 -0.04885 0.76106
 N575 N 0.19580 -0.05441 0.78005
 C576 C 0.21525 -0.07785 0.77640
 C577 C 0.21247 -0.09698 0.75275
 N578 N 0.19041 -0.09109 0.73387
 N579 N 0.15019 -0.06145 0.71790
 C580 C 0.13107 -0.03781 0.72113
 C581 C 0.13260 -0.01924 0.74549
 N582 N 0.15454 -0.02542 0.76461
 H583 H 0.23233 -0.08157 0.79203
 H584 H 0.11524 -0.03382 0.70449
 C585 C 0.66755 0.45414 0.21494
 C586 C 0.67911 0.47921 0.22831
 N587 N 0.70834 0.48101 0.23157
 C588 C 0.72667 0.45874 0.22210
 C589 C 0.71528 0.43354 0.20854
 N590 N 0.68585 0.43189 0.20523
 N591 N 0.63822 0.45231 0.21228
 C592 C 0.61994 0.47467 0.22194
 C593 C 0.63144 0.50055 0.23446
 N594 N 0.66093 0.50152 0.23769
 H595 H 0.74991 0.46087 0.22496
 H596 H 0.59671 0.47229 0.21977
 C597 C 0.66425 0.60128 0.26772
 C598 C 0.66966 0.58344 0.24392
 N599 N 0.69231 0.58897 0.22768
 C600 C 0.71004 0.61156 0.23422
 C601 C 0.70509 0.62945 0.25833
 N602 N 0.68211 0.62382 0.27452
 N603 N 0.64130 0.59563 0.28367
 C604 C 0.62377 0.57268 0.27709
 C605 C 0.62962 0.55393 0.25351
 N606 N 0.65244 0.56052 0.23755
 H607 H 0.72800 0.61507 0.22085
 H608 H 0.60565 0.56921 0.29028
 C609 C 0.16266 0.08620 0.75890
 C610 C 0.17437 0.05967 0.74705
 N611 N 0.20220 0.05855 0.73815
 C612 C 0.21890 0.08273 0.74082
 C613 C 0.20745 0.10916 0.75344
 N614 N 0.17946 0.11015 0.76212
 N615 N 0.13463 0.08766 0.76697
 C616 C 0.11783 0.06365 0.76423
 C617 C 0.12968 0.03624 0.75358
 N618 N 0.15779 0.03544 0.74480
 H619 H 0.24109 0.08106 0.73382
 H620 H 0.09556 0.06628 0.77046
 C621 C 0.23404 0.29129 0.07358
 C622 C 0.21232 0.31363 0.06894
 N623 N 0.18871 0.31559 0.08535
 C624 C 0.18588 0.29625 0.10628
 C625 C 0.20767 0.27383 0.11100
 N626 N 0.23120 0.27197 0.09437
 N627 N 0.25772 0.28932 0.05736
 C628 C 0.26077 0.30878 0.03668
 C629 C 0.23916 0.33151 0.03190
 N630 N 0.21527 0.33309 0.04821
 H631 H 0.16679 0.29841 0.11894
 H632 H 0.27996 0.30674 0.02409
 C633 C 0.73545 0.81747 0.58421
 C634 C 0.71309 0.83819 0.57676
 N635 N 0.68829 0.83995 0.59165
 C636 C 0.68485 0.82177 0.61350
 C637 C 0.70714 0.80065 0.62058
 N638 N 0.73187 0.79926 0.60564
 N639 N 0.76035 0.81557 0.56979
 C640 C 0.76399 0.83340 0.54803
 C641 C 0.74162 0.85419 0.53995
 N642 N 0.71653 0.85597 0.55469
 H643 H 0.66481 0.82346 0.62483
 H644 H 0.78417 0.83135 0.53690
 C645 C 0.75967 0.81157 0.44548
 C646 C 0.78117 0.83145 0.45354
 N647 N 0.80581 0.83188 0.43871
 C648 C 0.80983 0.81354 0.41600
 C649 C 0.78807 0.79391 0.40750
 N650 N 0.76355 0.79339 0.42269
 N651 N 0.73500 0.81114 0.46022
 C652 C 0.73065 0.82999 0.48246
 C653 C 0.75175 0.85072 0.49030
 N654 N 0.77677 0.85049 0.47565
 H655 H 0.82968 0.81465 0.40463
 H656 H 0.71058 0.82939 0.49365
 C657 C 0.25109 0.29711 -0.06525
 C658 C 0.27386 0.31504 -0.05616
 N659 N 0.29893 0.31407 -0.07045
 C660 C 0.30229 0.29599 -0.09342
 C661 C 0.27944 0.27808 -0.10274
 N662 N 0.25431 0.27922 -0.08833
 N663 N 0.22626 0.29761 -0.05067
 C664 C 0.22307 0.31535 -0.02747
 C665 C 0.24559 0.33398 -0.01844
 N666 N 0.27062 0.33297 -0.03310
 H667 H 0.32249 0.29597 -0.10439
 H668 H 0.20314 0.31498 -0.01605
 C669 C 0.73249 0.17690 -0.08013
 C670 C 0.75845 0.18221 -0.06523
 N671 N 0.77573 0.20368 -0.07351
 C672 C 0.76830 0.22005 -0.09618
 C673 C 0.74236 0.21465 -0.11147
 N674 N 0.72503 0.19314 -0.10290
 N675 N 0.71523 0.15548 -0.07169
 C676 C 0.72283 0.13890 -0.04914
 C677 C 0.74930 0.14371 -0.03417
 N678 N 0.76616 0.16565 -0.04283
 H679 H 0.78271 0.23689 -0.10213
 H680 H 0.70816 0.12227 -0.04328
 C681 C 0.21764 0.68630 0.44846
 C682 C 0.24451 0.68590 0.46295
 N683 N 0.26646 0.70166 0.45346
 C684 C 0.26284 0.71753 0.42983
 C685 C 0.23611 0.71738 0.41481
 N686 N 0.21407 0.70187 0.42473
 N687 N 0.19565 0.67077 0.45810
 C688 C 0.19956 0.65404 0.48115
 C689 C 0.22715 0.65200 0.49498
 N690 N 0.24855 0.66900 0.48577
 H691 H 0.28088 0.72955 0.42267
 H692 H 0.18118 0.64261 0.48836
 C693 C 0.24729 0.69488 0.58824
 C694 C 0.26976 0.67480 0.57984
 N695 N 0.29626 0.67551 0.59286
 C696 C 0.30138 0.69538 0.61404
 C697 C 0.27891 0.71555 0.62276
 N698 N 0.25231 0.71475 0.60952
 N699 N 0.22090 0.69428 0.57487
 C700 C 0.21597 0.67444 0.55351
 C701 C 0.23839 0.65386 0.54520
 N702 N 0.26485 0.65500 0.55864
 H703 H 0.32280 0.69516 0.62391
 H704 H 0.19481 0.67463 0.54304
 C705 C 0.77047 0.18581 0.06228
 C706 C 0.76050 0.19642 0.03639
 N707 N 0.75363 0.22586 0.03375
 C708 C 0.75646 0.24521 0.05588
 C709 C 0.76713 0.23470 0.08172
 N710 N 0.77386 0.20514 0.08421
 N711 N 0.77615 0.15629 0.06523
 C712 C 0.77284 0.13684 0.04333
 C713 C 0.76409 0.14730 0.01670
 N714 N 0.75771 0.17708 0.01434
 H715 H 0.75104 0.26859 0.05315
 H716 H 0.77635 0.11340 0.04700
 C717 C 0.47343 0.35066 0.57296
 C718 C 0.48889 0.32469 0.56422
 N719 N 0.50101 0.32338 0.53870
 C720 C 0.49840 0.34691 0.52147
 C721 C 0.48285 0.37304 0.53010
 N722 N 0.47069 0.37411 0.55574
 N723 N 0.46187 0.35224 0.59872
 C724 C 0.46510 0.32900 0.61622
 C725 C 0.48040 0.30263 0.60756
 N726 N 0.49205 0.30144 0.58163
 H727 H 0.50825 0.34510 0.50125
 H728 H 0.45622 0.33122 0.63687
 C729 C -0.00489 0.81840 0.08552
 C730 C 0.01449 0.79505 0.07750
 N731 N 0.03073 0.79757 0.05459
 C732 C 0.02836 0.82246 0.03916
 C733 C 0.00869 0.84589 0.04691
 N734 N -0.00745 0.84319 0.07004
 N735 N -0.02069 0.81598 0.10874
 C736 C -0.01824 0.79108 0.12419
 C737 C 0.00060 0.76696 0.11581
 N738 N 0.01680 0.77017 0.09276
 H739 H 0.04147 0.82365 0.02091
 H740 H -0.03075 0.79036 0.14289
 C741 C 0.01730 0.66153 0.07883
 C742 C 0.00421 0.68803 0.06884
 N743 N -0.00459 0.68959 0.04171
 C744 C -0.00089 0.66579 0.02398
 C745 C 0.01249 0.63920 0.03373
 N746 N 0.02134 0.63775 0.06104
 N747 N 0.02551 0.65999 0.10618
 C748 C 0.02162 0.68392 0.12389
 C749 C 0.00953 0.71101 0.11370
 N750 N 0.00068 0.71193 0.08637
 H751 H -0.00794 0.66787 0.00240
 H752 H 0.02820 0.68199 0.14562
 C753 C 0.50920 0.19718 0.57975
 C754 C 0.48162 0.21153 0.57727
 N755 N 0.46117 0.20004 0.55968
 C756 C 0.46713 0.17477 0.54437
 C757 C 0.49477 0.16020 0.54690
 N758 N 0.51515 0.17182 0.56465
 N759 N 0.52974 0.20907 0.59690
 C760 C 0.52385 0.23442 0.61213
 C761 C 0.49565 0.24861 0.61063
 N762 N 0.47563 0.23666 0.59260
 H763 H 0.45034 0.16609 0.53059
 H764 H 0.54132 0.24315 0.62494
 C765 C -0.02883 0.16277 0.40473
 C766 C -0.00217 0.17667 0.40537
 N767 N 0.01975 0.16676 0.42269
 C768 C 0.01612 0.14369 0.43967
 C769 C -0.01073 0.12989 0.43941
 N770 N -0.03254 0.13973 0.42171
 N771 N -0.05089 0.17317 0.38783
 C772 C -0.04750 0.19674 0.37135
 C773 C -0.02050 0.21064 0.37146
 N774 N 0.00125 0.20020 0.38901
 H775 H 0.03403 0.13635 0.45326
 H776 H -0.06604 0.20479 0.35897
 C777 C 0.49958 0.67035 0.93706
 C778 C 0.47757 0.68118 0.91873
 N779 N 0.45216 0.66705 0.91609
 C780 C 0.44762 0.64270 0.93123
 C781 C 0.46928 0.63228 0.95032
 N782 N 0.49485 0.64640 0.95261
 N783 N 0.52503 0.68440 0.93955
 C784 C 0.52931 0.70911 0.92484
 C785 C 0.50689 0.72084 0.90706
 N786 N 0.48158 0.70619 0.90450
 H787 H 0.42696 0.63223 0.92895
 H788 H 0.54965 0.72013 0.92762
 C789 C 0.52698 0.81479 0.95903
 C790 C 0.54623 0.81040 0.93699
 N791 N 0.57014 0.82690 0.93631
 C792 C 0.57557 0.84780 0.95658
 C793 C 0.55606 0.85260 0.97853
 N794 N 0.53226 0.83577 0.97916
 N795 N 0.50313 0.79828 0.95981
 C796 C 0.49746 0.77772 0.93935
 C797 C 0.51629 0.77362 0.91666
 N798 N 0.54050 0.79001 0.91643
 H799 H 0.59471 0.86068 0.95529
 H800 H 0.47818 0.76495 0.94043
 C801 C -0.00964 0.31082 0.41508
 C802 C 0.01368 0.30298 0.39771
 N803 N 0.03810 0.31870 0.39954
 C804 C 0.04026 0.34214 0.41781
 C805 C 0.01689 0.35034 0.43521
 N806 N -0.00752 0.33422 0.43348
 N807 N -0.03414 0.29514 0.41297
 C808 C -0.03645 0.27210 0.39417
 C809 C -0.01319 0.26424 0.37640
 N810 N 0.01143 0.27997 0.37903
 H811 H 0.06013 0.35409 0.41873
 H812 H -0.05630 0.26008 0.39289
 C813 C 0.31133 0.57702 0.50629
 C814 C 0.30003 0.59610 0.48568
 N815 N 0.31366 0.59733 0.46109
 C816 C 0.33831 0.58046 0.45619
 C817 C 0.34995 0.56140 0.47684
 N818 N 0.33597 0.56008 0.50143
 N819 N 0.29759 0.57592 0.53088
 C820 C 0.27314 0.59323 0.53585
 C821 C 0.26186 0.61287 0.51536
 N822 N 0.27569 0.61330 0.49061
 H823 H 0.34855 0.58198 0.43631
 H824 H 0.26258 0.59182 0.55561
 C825 C 0.84008 0.07428 -0.02278
 C826 C 0.82672 0.07522 0.00308
 N827 N 0.83846 0.05886 0.02422
 C828 C 0.86301 0.04139 0.02062
 C829 C 0.87654 0.04020 -0.00536
 N830 N 0.86470 0.05689 -0.02646
 N831 N 0.82780 0.09019 -0.04399
 C832 C 0.80282 0.10716 -0.04050
 C833 C 0.78934 0.10872 -0.01423
 N834 N 0.80192 0.09213 0.00658
 H835 H 0.87183 0.02871 0.03795
 H836 H 0.79354 0.11849 -0.05839
 C837 C 0.69636 0.06327 0.01092
 C838 C 0.69748 0.09076 0.02523
 N839 N 0.67825 0.09777 0.04559
 C840 C 0.65796 0.07840 0.05241
 C841 C 0.65687 0.05067 0.03824
 N842 N 0.67617 0.04390 0.01773
 N843 N 0.71548 0.05635 -0.00954
 C844 C 0.73592 0.07562 -0.01619
 C845 C 0.73764 0.10313 -0.00149
 N846 N 0.71787 0.10998 0.01866
 H847 H 0.64302 0.08466 0.06878
 H848 H 0.75057 0.06960 -0.03289
 C849 C 0.16779 0.56942 0.52910
 C850 C 0.18253 0.57148 0.50416
 N851 N 0.17550 0.55365 0.48191
 C852 C 0.15412 0.53393 0.48344
 C853 C 0.13904 0.53201 0.50837
 N854 N 0.14647 0.54980 0.53065
 N855 N 0.17490 0.58719 0.55133
 C856 C 0.19579 0.60740 0.54964
 C857 C 0.21012 0.61038 0.52427
 N858 N 0.20333 0.59162 0.50242
 H859 H 0.14895 0.52013 0.46533
 H860 H 0.20114 0.62058 0.56808
 C861 C 0.16996 0.41636 -0.00131
 C862 C 0.17799 0.39654 -0.02309
 N863 N 0.16319 0.39751 -0.04788
 C864 C 0.14061 0.41750 -0.05201
 C865 C 0.13242 0.43769 -0.03036
 N866 N 0.14742 0.43656 -0.00540
 N867 N 0.18505 0.41525 0.02344
 C868 C 0.20779 0.39517 0.02733
 C869 C 0.21594 0.37509 0.00547
 N870 N 0.20068 0.37674 -0.01926
 H871 H 0.12948 0.41760 -0.07213
 H872 H 0.21963 0.39502 0.04715
 C873 C 0.67203 0.93150 0.49378
 C874 C 0.68227 0.92914 0.52148
 N875 N 0.66876 0.94569 0.54185
 C876 C 0.64543 0.96437 0.53571
 C877 C 0.63491 0.96636 0.50794
 N878 N 0.64863 0.94978 0.48771
 N879 N 0.68592 0.91590 0.47325
 C880 C 0.70931 0.89749 0.47908
 C881 C 0.71914 0.89361 0.50709
 N882 N 0.70553 0.91039 0.52750
 H883 H 0.63503 0.97718 0.55238
 H884 H 0.72012 0.88633 0.46174
 C885 C 0.81751 0.93094 0.52857
 C886 C 0.80544 0.92612 0.50175
 N887 N 0.81680 0.93945 0.47978
 C888 C 0.83979 0.95728 0.48340
 C889 C 0.85226 0.96187 0.51027
 N890 N 0.84063 0.94851 0.53222
 N891 N 0.80584 0.91812 0.55059
 C892 C 0.78303 0.90014 0.54703
 C893 C 0.77147 0.89388 0.51989
 N894 N 0.78279 0.90792 0.49806
 H895 H 0.84841 0.96735 0.46539
 H896 H 0.77413 0.89105 0.56538
 C897 C 0.31352 0.41113 0.02333
 C898 C 0.29904 0.40957 -0.00272
 N899 N 0.30686 0.42741 -0.02332
 C900 C 0.32851 0.44680 -0.01899
 C901 C 0.34306 0.44845 0.00721
 N902 N 0.33509 0.43041 0.02768
 N903 N 0.30543 0.39380 0.04409
 C904 C 0.28355 0.37476 0.04005
 C905 C 0.26897 0.37255 0.01371
 N906 N 0.27713 0.39056 -0.00687
 H907 H 0.33422 0.46066 -0.03583
 H908 H 0.27735 0.36221 0.05760
 C909 C 0.56867 0.50036 0.31865
 C910 C 0.55365 0.51720 0.29822
 N911 N 0.52548 0.52618 0.30201
 C912 C 0.51165 0.51934 0.32546
 C913 C 0.52658 0.50266 0.34620
 N914 N 0.55484 0.49335 0.34217
 N915 N 0.59712 0.49218 0.31504
 C916 C 0.61114 0.49987 0.29187
 C917 C 0.59598 0.51622 0.27085
 N918 N 0.56758 0.52478 0.27510
 H919 H 0.48917 0.52693 0.32786
 H920 H 0.63398 0.49347 0.28998
 C921 C 0.06464 -0.00358 0.82603
 C922 C 0.09116 -0.01930 0.82149
 N923 N 0.10169 -0.03886 0.84075
 C924 C 0.08683 -0.04341 0.86431
 C925 C 0.06018 -0.02760 0.86889
 N926 N 0.04988 -0.00800 0.84950
 N927 N 0.05379 0.01558 0.80674
 C928 C 0.06823 0.01985 0.78302
 C929 C 0.09516 0.00431 0.77807
 N930 N 0.10575 -0.01500 0.79778
 H931 H 0.09581 -0.05910 0.87924
 H932 H 0.05843 0.03494 0.76795
 C933 C 0.05104 0.01457 0.68094
 C934 C 0.07314 0.03489 0.68482
 N935 N 0.07609 0.05609 0.66577
 C936 C 0.05819 0.05774 0.64281
 C937 C 0.03627 0.03708 0.63846
 N938 N 0.03315 0.01608 0.65790
 N939 N 0.04828 -0.00677 0.69992
 C940 C 0.06672 -0.00885 0.72251
 C941 C 0.08929 0.01130 0.72643
 N942 N 0.09168 0.03277 0.70727
 H943 H 0.06126 0.07501 0.62816
 H944 H 0.06431 -0.02647 0.73702
 C945 C 0.55434 0.54134 0.17362
 C946 C 0.54603 0.52419 0.19565
 N947 N 0.52066 0.50992 0.19344
 C948 C 0.50332 0.51187 0.17002
 C949 C 0.51176 0.52884 0.14767
 N950 N 0.53710 0.54331 0.15024
 N951 N 0.58008 0.55479 0.17546
 C952 C 0.59809 0.55180 0.19827
 C953 C 0.59002 0.53464 0.22085
 N954 N 0.56399 0.52115 0.21846
 H955 H 0.48330 0.50017 0.16890
 H956 H 0.61871 0.56211 0.19803
 C957 C 0.44143 -0.03736 0.18471
 C958 C 0.43794 -0.00979 0.19874
 N959 N 0.45315 0.01345 0.19068
 C960 C 0.47190 0.01027 0.16926
 C961 C 0.47554 -0.01741 0.15518
 N962 N 0.45999 -0.04053 0.16324
 N963 N 0.42699 -0.06080 0.19336
 C964 C 0.40908 -0.05801 0.21542
 C965 C 0.40499 -0.03016 0.22955
 N966 N 0.41997 -0.00688 0.22067
 H967 H 0.48375 0.02919 0.16333
 H968 H 0.39903 -0.07769 0.22206
 C969 C 0.92164 0.46979 0.65557
 C970 C 0.93773 0.47528 0.68028
 N971 N 0.96715 0.47511 0.67985
 C972 C 0.98135 0.46990 0.65569
 C973 C 0.96544 0.46450 0.63071
 N974 N 0.93580 0.46444 0.63126
 N975 N 0.89212 0.47044 0.65629
 C976 C 0.87804 0.47580 0.68068
 C977 C 0.89418 0.48047 0.70588
 N978 N 0.92374 0.48047 0.70447
 H979 H 1.00489 0.46989 0.65610
 H980 H 0.85451 0.47661 0.68030
 C981 C 0.94291 0.50066 0.80043
 C982 C 0.92069 0.52207 0.79447
 N983 N 0.91803 0.54709 0.81081
 C984 C 0.93638 0.55146 0.83314
 C985 C 0.95835 0.52974 0.83952
 N986 N 0.96117 0.50495 0.82274
 N987 N 0.94523 0.47538 0.78449
 C988 C 0.92605 0.47033 0.76301
 C989 C 0.90311 0.49143 0.75714
 N990 N 0.90146 0.51703 0.77308
 H991 H 0.93355 0.57154 0.84586
 H992 H 0.92801 0.44958 0.75112
 C993 C 0.44676 -0.00378 0.32331
 C994 C 0.42315 0.01568 0.31632
 N995 N 0.41841 0.04108 0.33163
 C996 C 0.43594 0.04777 0.35395
 C997 C 0.45924 0.02797 0.36162
 N998 N 0.46421 0.00271 0.34582
 N999 N 0.45145 -0.02915 0.30783
 C1000 C 0.43329 -0.03615 0.28598
 C1001 C 0.40880 -0.01722 0.27949
 N1002 N 0.40487 0.00855 0.29477
 H1003 H 0.43135 0.06822 0.36562
 H1004 H 0.43735 -0.05670 0.27420
   
