data_POSCAR
  _audit_creation_date              2014-09-24
  _audit_creation_method            'ToBaCCo'
  _symmetry_space_group_name_H-M    'P1'
  _symmetry_Int_Tables_number       1
  _symmetry_cell_setting            triclinic
  loop_
  _symmetry_equiv_pos_as_xyz
 x,y,z
_cell_length_a 29.2431
_cell_length_b 29.2431
_cell_length_c 29.2431
_cell_angle_alpha 77.966700
_cell_angle_beta 102.032700
_cell_angle_gamma 77.965500
loop_
  _atom_site_label
  _atom_site_type_symbol
  _atom_site_fract_x
  _atom_site_fract_y
  _atom_site_fract_z
O1 O 0.57054 0.48709 0.04651
 O2 O 0.43961 0.50223 0.03212
 O3 O 0.51366 0.42896 0.04764
 O4 O 0.49649 0.56033 0.03093
 O5 O 0.48481 0.57095 -0.04818
 O6 O 0.50199 0.43960 -0.03147
 O7 O 0.42792 0.51283 -0.04698
 O8 O 0.55886 0.49770 -0.03259
 Cu9 Cu 0.50622 0.49361 0.04727
 Cu10 Cu 0.49224 0.50631 -0.04778
 C11 C 0.58673 0.49031 0.00928
 C12 C 0.41173 0.50963 -0.00974
 C13 C 0.51026 0.41218 0.01078
 C14 C 0.48823 0.58774 -0.01133
 O15 O -0.04663 0.57218 0.48700
 O16 O -0.03223 0.44125 0.50213
 O17 O -0.03105 0.49812 0.56023
 O18 O -0.04776 0.51529 0.42886
 O19 O 0.03134 0.50362 0.43950
 O20 O 0.04806 0.48644 0.57085
 O21 O 0.04687 0.42956 0.51274
 O22 O 0.03247 0.56050 0.49761
 Cu23 Cu -0.04739 0.50786 0.49351
 Cu24 Cu 0.04766 0.49388 0.50621
 C25 C -0.00939 0.58838 0.49022
 C26 C 0.00963 0.41338 0.50954
 C27 C 0.01120 0.48985 0.58764
 C28 C -0.01090 0.51188 0.41208
 O29 O 0.50234 0.03198 0.56054
 O30 O 0.48721 0.04637 0.42961
 O31 O 0.42909 0.04751 0.48649
 O32 O 0.56046 0.03080 0.50366
 O33 O 0.57108 -0.04831 0.51533
 O34 O 0.43973 -0.03159 0.49816
 O35 O 0.49782 -0.03273 0.44129
 O36 O 0.51295 -0.04712 0.57223
 Cu37 Cu 0.49374 0.04714 0.49393
 Cu38 Cu 0.50644 -0.04791 0.50791
 C39 C 0.50973 -0.00988 0.58842
 C40 C 0.49041 0.00914 0.41342
 C41 C 0.41231 0.01066 0.48988
 C42 C 0.58787 -0.01145 0.51191
 C43 C 0.50327 -0.00848 -0.04549
 C44 C 0.49546 -0.04446 -0.00996
 C45 C 0.49208 -0.03584 0.03474
 C46 C 0.49629 0.00823 0.04448
 C47 C 0.50407 0.04423 0.00894
 C48 C 0.50748 0.03560 -0.03576
 H49 H 0.51334 0.06341 -0.06318
 H50 H 0.48621 -0.06365 0.06217
 C51 C -0.00899 0.50481 1.04435
 C52 C -0.04452 0.49700 1.00836
 C53 C -0.03478 0.49280 0.96428
 C54 C 0.00991 0.49620 0.95566
 C55 C 0.04545 0.50398 0.99165
 C56 C 0.03571 0.50820 1.03572
 H57 H 0.06314 0.51407 1.06354
 H58 H -0.06221 0.48693 0.93647
 C59 C 0.04431 0.00896 0.49597
 C60 C 0.00832 0.04449 0.50375
 C61 C -0.03576 0.03476 0.50797
 C62 C -0.04438 -0.00995 0.50458
 C63 C -0.00839 -0.04547 0.49677
 C64 C 0.03569 -0.03574 0.49257
 H65 H 0.06350 -0.06316 0.48670
 H66 H -0.06357 0.06218 0.51384
 C67 C -0.27090 0.48520 1.02078
 N68 N -0.24201 0.45100 1.00688
 N69 N -0.19663 0.45225 1.00729
 C70 C -0.17873 0.48769 1.02164
 N71 N -0.20757 0.52182 1.03566
 N72 N -0.25296 0.52057 1.03525
 C73 C -0.32059 0.48549 1.01779
 C74 C -0.36271 0.48693 1.01433
 C75 C -0.13091 0.49068 1.01910
 C76 C -0.09127 0.49350 1.01522
 C77 C 0.27197 0.51506 0.97905
 N78 N 0.25373 0.47999 0.96426
 N79 N 0.20832 0.47892 0.96391
 C80 C 0.17974 0.51293 0.97831
 N81 N 0.19794 0.54807 0.99298
 N82 N 0.24336 0.54914 0.99333
 C83 C 0.32171 0.51453 0.98201
 C84 C 0.36388 0.51290 0.98549
 C85 C 0.13190 0.51010 0.98090
 C86 C 0.09223 0.50740 0.98480
 C87 C -0.02072 -0.27191 0.48513
 N88 N -0.03547 -0.25385 0.52032
 N89 N -0.03590 -0.20845 0.52151
 C90 C -0.02164 -0.17971 0.48752
 N91 N -0.00701 -0.19774 0.45226
 N92 N -0.00657 -0.24314 0.45106
 C93 C -0.01769 -0.32163 0.48551
 C94 C -0.01417 -0.36379 0.48703
 C95 C -0.01912 -0.13188 0.49048
 C96 C -0.01525 -0.09224 0.49328
 C97 C 0.02100 0.27096 0.51500
 N98 N 0.03556 0.25282 0.47977
 N99 N 0.03589 0.20742 0.47865
 C100 C 0.02169 0.17876 0.51276
 N101 N 0.00724 0.19685 0.54806
 N102 N 0.00691 0.24225 0.54918
 C103 C 0.01809 0.32067 0.51455
 C104 C 0.01467 0.36281 0.51301
 C105 C 0.01908 0.13093 0.50991
 C106 C 0.01517 0.09127 0.50718
 C107 C 0.51487 -0.02109 -0.27188
 N108 N 0.47967 -0.03578 -0.25379
 N109 N 0.47848 -0.03613 -0.20840
 C110 C 0.51249 -0.02185 -0.17971
 N111 N 0.54776 -0.00729 -0.19776
 N112 N 0.54895 -0.00692 -0.24315
 C113 C 0.51447 -0.01813 -0.32159
 C114 C 0.51293 -0.01465 -0.36375
 C115 C 0.50954 -0.01926 -0.13189
 C116 C 0.50676 -0.01535 -0.09225
 C117 C 0.48500 0.02063 0.27099
 N118 N 0.45080 0.00664 0.24222
 N119 N 0.45193 0.00705 0.19681
 C120 C 0.48725 0.02149 0.17877
 N121 N 0.52139 0.03560 0.20749
 N122 N 0.52026 0.03520 0.25291
 C123 C 0.48543 0.01766 0.32071
 C124 C 0.48695 0.01420 0.36285
 C125 C 0.49013 0.01895 0.13092
 C126 C 0.49286 0.01508 0.09126
 C127 C 0.48184 -0.26953 -0.02472
 N128 N 0.44787 -0.24072 -0.01051
 N129 N 0.44921 -0.19538 -0.01088
 C130 C 0.48452 -0.17747 -0.02550
 N131 N 0.51841 -0.20622 -0.03986
 N132 N 0.51707 -0.25157 -0.03949
 C133 C 0.48238 -0.31930 -0.02128
 C134 C 0.48420 -0.36154 -0.01724
 C135 C 0.48795 -0.12994 -0.02241
 C136 C 0.49125 -0.09066 -0.01785
 C137 C 0.51702 0.26940 0.02401
 N138 N 0.55103 0.24078 0.00966
 N139 N 0.54984 0.19541 0.00994
 C140 C 0.51465 0.17730 0.02459
 N141 N 0.48073 0.20587 0.03908
 N142 N 0.48192 0.25124 0.03881
 C143 C 0.51632 0.31919 0.02066
 C144 C 0.51438 0.36145 0.01668
 C145 C 0.51139 0.12976 0.02142
 C146 C 0.50819 0.09045 0.01682
 C147 C -0.26941 -0.02480 0.51827
 N148 N -0.25146 -0.03955 0.48302
 N149 N -0.20612 -0.03989 0.48167
 C150 C -0.17736 -0.02553 0.51555
 N151 N -0.19527 -0.01093 0.55088
 N152 N -0.24061 -0.01059 0.55223
 C153 C -0.31917 -0.02139 0.51774
 C154 C -0.36142 -0.01736 0.51593
 C155 C -0.12985 -0.02242 0.51212
 C156 C -0.09057 -0.01784 0.50880
 C157 C 0.26952 0.02393 0.48308
 N158 N 0.24089 0.00960 0.44908
 N159 N 0.19552 0.00990 0.45025
 C160 C 0.17740 0.02456 0.48543
 N161 N 0.20598 0.03904 0.51935
 N162 N 0.25135 0.03875 0.51818
 C163 C 0.31931 0.02056 0.48381
 C164 C 0.36158 0.01656 0.48575
 C165 C 0.12985 0.02142 0.48868
 C166 C 0.09054 0.01683 0.49186
 C167 C -0.02412 0.51834 1.26936
 N168 N -0.00976 0.55227 1.24066
 N169 N -0.01003 0.55095 1.19533
 C170 C -0.02468 0.51570 1.17732
 N171 N -0.03919 0.48186 1.20598
 N172 N -0.03893 0.48318 1.25131
 C173 C -0.02078 0.51777 1.31912
 C174 C -0.01680 0.51593 1.36136
 C175 C -0.02150 0.51230 1.12982
 C176 C -0.01689 0.50901 1.09054
 C177 C 0.02461 0.48316 0.73043
 N178 N 0.03939 0.51831 0.74851
 N179 N 0.03977 0.51952 0.79389
 C180 C 0.02541 0.48557 0.82256
 N181 N 0.01077 0.45033 0.80453
 N182 N 0.01039 0.44912 0.75915
 C183 C 0.02117 0.48383 0.68063
 C184 C 0.01712 0.48575 0.63837
 C185 C 0.02233 0.48886 0.87012
 C186 C 0.01778 0.49207 0.90943
   
