data_POSCAR
  _audit_creation_date              2014-09-24
  _audit_creation_method            'ToBaCCo'
  _symmetry_space_group_name_H-M    'P1'
  _symmetry_Int_Tables_number       1
  _symmetry_cell_setting            triclinic
  loop_
  _symmetry_equiv_pos_as_xyz
 x,y,z
_cell_length_a 38.8331
_cell_length_b 38.5891
_cell_length_c 52.4077
_cell_angle_alpha 91.238200
_cell_angle_beta 88.662800
_cell_angle_gamma 84.272100
loop_
  _atom_site_label
  _atom_site_type_symbol
  _atom_site_fract_x
  _atom_site_fract_y
  _atom_site_fract_z
C1 C 0.00809 0.50044 0.98639
 C2 C 0.00928 0.50190 1.01234
 C3 C 0.00911 0.53552 1.02670
 C4 C 0.00996 0.46993 1.02774
 C5 C 0.00465 0.46724 0.97244
 C6 C 0.00914 0.53187 0.97066
 C7 C 0.03533 0.54019 1.04397
 C8 C 0.03538 0.57143 1.05791
 C9 C 0.00889 0.59888 1.05509
 C10 C -0.01761 0.59372 1.03777
 C11 C -0.01752 0.56238 1.02387
 C12 C 0.03522 0.44170 1.02309
 C13 C 0.03520 0.41164 1.03748
 C14 C 0.01040 0.40953 1.05722
 C15 C -0.01427 0.43821 1.06229
 C16 C -0.01449 0.46807 1.04767
 C17 C -0.02609 0.45113 0.97434
 C18 C -0.02911 0.41981 0.96104
 C19 C -0.00116 0.40386 0.94611
 C20 C 0.02960 0.42008 0.94434
 C21 C 0.03227 0.45182 0.95709
 C22 C -0.01733 0.54044 0.95348
 C23 C -0.01716 0.57020 0.93884
 C24 C 0.00970 0.59192 0.94089
 C25 C 0.03659 0.58292 0.95780
 C26 C 0.03635 0.55310 0.97250
 H27 H 0.05597 0.51962 1.04653
 H28 H 0.05632 0.57380 1.07093
 H29 H -0.03867 0.61374 1.03490
 H30 H -0.03840 0.55899 1.01099
 H31 H 0.05504 0.44298 1.00836
 H32 H 0.05483 0.39019 1.03331
 H33 H -0.03402 0.48966 1.05173
 H34 H -0.04770 0.46291 0.98602
 H35 H -0.05306 0.40778 0.96275
 H36 H 0.05140 0.40846 0.93280
 H37 H 0.05609 0.46409 0.95539
 H38 H -0.03850 0.52433 0.95170
 H39 H -0.03821 0.57619 0.92595
 H40 H 0.05775 0.59896 0.95979
 H41 H 0.05734 0.54660 0.98535
 H42 H -0.03371 0.43746 1.07737
 C43 C 0.49737 -0.00586 0.48621
 C44 C 0.49730 -0.00828 0.51211
 C45 C 0.46509 -0.01084 0.52747
 C46 C 0.52961 -0.00740 0.52654
 C47 C 0.53023 -0.00538 0.47116
 C48 C 0.46490 -0.00337 0.47155
 C49 C 0.45604 0.01347 0.54735
 C50 C 0.42544 0.01219 0.56162
 C51 C 0.40331 -0.01368 0.55647
 C52 C 0.41282 -0.03855 0.53688
 C53 C 0.44351 -0.03719 0.52255
 C54 C 0.54796 0.02212 0.52631
 C55 C 0.57828 0.02276 0.54010
 C56 C 0.59089 -0.00623 0.55417
 C57 C 0.57232 -0.03571 0.55436
 C58 C 0.54176 -0.03613 0.54087
 C59 C 0.55682 -0.03267 0.47255
 C60 C 0.58768 -0.03178 0.45843
 C61 C 0.59242 -0.00372 0.44244
 C62 C 0.56545 0.02329 0.44082
 C63 C 0.53465 0.02237 0.45498
 C64 C 0.46224 -0.02579 0.45042
 C65 C 0.43214 -0.02372 0.43624
 C66 C 0.40397 0.00080 0.44295
 C67 C 0.40678 0.02352 0.46397
 C68 C 0.43712 0.02172 0.47795
 H69 H 0.47242 0.03391 0.55153
 H70 H 0.41908 0.03165 0.57663
 H71 H 0.39647 -0.05891 0.53247
 H72 H 0.45034 -0.05655 0.50753
 H73 H 0.53869 0.04465 0.51553
 H74 H 0.59200 0.04583 0.53955
 H75 H 0.52776 -0.05903 0.54132
 H76 H 0.55362 -0.05469 0.48455
 H77 H 0.60778 -0.05312 0.46003
 H78 H 0.56812 0.04523 0.42866
 H79 H 0.51432 0.04356 0.45353
 H80 H 0.48344 -0.04515 0.44500
 H81 H 0.43084 -0.04160 0.42017
 H82 H 0.38572 0.04297 0.46945
 H83 H 0.43895 0.03997 0.49373
 H84 H 0.58121 -0.05835 0.56515
 C85 C 0.07428 0.00647 0.25916
 H86 H 0.07602 0.00497 0.23853
 C87 C 0.10432 0.00661 0.27324
 H88 H 0.12915 0.00513 0.26322
 C89 C 0.03956 0.01074 0.29710
 H90 H 0.01424 0.01282 0.30631
 C91 C 0.06895 0.01136 0.31194
 H92 H 0.06589 0.01343 0.33252
 N93 N 0.04277 0.00790 0.27122
 C94 C -0.02022 -0.03720 0.21379
 H95 H -0.04125 -0.01669 0.21284
 C96 C -0.02031 -0.06730 0.19853
 H97 H -0.04156 -0.06962 0.18579
 C98 C 0.03264 -0.05903 0.23197
 H99 H 0.05288 -0.05608 0.24539
 C100 C 0.03357 -0.08958 0.21708
 H101 H 0.05490 -0.10957 0.21906
 Zn102 Zn 0.00363 0.00782 0.25038
 N103 N 0.00620 -0.03343 0.22988
 C104 C 0.00719 0.04434 0.20394
 N105 N 0.00324 0.04752 0.22977
 C106 C 0.00069 0.07926 0.24182
 C107 C 0.00094 0.10955 0.22776
 C108 C 0.00800 0.07395 0.18914
 C109 C -0.04092 -0.01800 0.28627
 C110 C -0.07103 -0.01928 0.30116
 C111 C -0.09412 0.03502 0.28313
 C112 C -0.06355 0.03525 0.26859
 N113 N -0.03757 0.00914 0.27059
 H114 H 0.01019 0.01886 0.19475
 H115 H -0.00165 0.08099 0.26243
 H116 H -0.00132 0.13455 0.23776
 H117 H 0.01111 0.07087 0.16861
 H118 H -0.02010 -0.03874 0.28714
 H119 H -0.07304 -0.04112 0.31354
 H120 H -0.11446 0.05606 0.28122
 H121 H -0.06089 0.05607 0.25548
 C122 C 0.00688 -0.09401 0.20002
 C123 C 0.10191 0.00900 0.30001
 C124 C -0.09818 0.00749 0.29972
 C125 C 0.00466 0.10712 0.20105
 C126 C -0.01994 0.06868 0.76046
 H127 H -0.02328 0.07095 0.74011
 C128 C -0.02180 0.09867 0.77600
 H129 H -0.02661 0.12396 0.76748
 C130 C -0.00903 0.03300 0.79620
 H131 H -0.00423 0.00739 0.80406
 C132 C -0.00978 0.06237 0.81234
 H133 H -0.00557 0.05907 0.83254
 N134 N -0.01378 0.03660 0.77071
 C135 C 0.04095 -0.03429 0.71385
 H136 H 0.02643 -0.05669 0.71489
 C137 C 0.07136 -0.03627 0.69884
 H138 H 0.07945 -0.06005 0.68805
 C139 C 0.04917 0.02299 0.72777
 H140 H 0.04100 0.04588 0.73935
 C141 C 0.07972 0.02211 0.71312
 H142 H 0.09425 0.04463 0.71352
 Zn143 Zn -0.01067 -0.00356 0.74865
 N144 N 0.03019 -0.00480 0.72771
 C145 C -0.05212 -0.02822 0.70985
 N146 N -0.05066 -0.00275 0.72806
 C147 C -0.07770 0.02219 0.73219
 C148 C -0.10702 0.02281 0.71722
 C149 C -0.08117 -0.02889 0.69470
 C150 C 0.02246 -0.05470 0.77977
 C151 C 0.02532 -0.08481 0.79424
 C152 C -0.03396 -0.09289 0.78466
 C153 C -0.03571 -0.06261 0.77047
 N154 N -0.00773 -0.04424 0.76829
 H155 H -0.03097 -0.04840 0.70726
 H156 H -0.07701 0.04140 0.74737
 H157 H -0.12817 0.04292 0.72085
 H158 H -0.08171 -0.04941 0.68033
 H159 H 0.04433 -0.03960 0.77767
 H160 H 0.04959 -0.09269 0.80322
 H161 H -0.05661 -0.10704 0.78615
 H162 H -0.05953 -0.05370 0.76133
 C163 C 0.09119 -0.00778 0.69834
 C164 C -0.01631 0.09569 0.80225
 C165 C -0.00316 -0.10439 0.79680
 C166 C -0.10901 -0.00299 0.69818
 C167 C 0.00866 -0.31027 0.09640
 N168 N 0.03428 -0.33643 0.09897
 N169 N 0.03436 -0.36604 0.08544
 C170 C 0.00884 -0.37086 0.06873
 N171 N -0.01675 -0.34443 0.06623
 N172 N -0.01686 -0.31479 0.07977
 C173 C 0.00850 -0.27776 0.11152
 N174 N -0.01734 -0.25166 0.10930
 N175 N -0.01752 -0.22229 0.12319
 C176 C 0.00812 -0.21796 0.13979
 N177 N 0.03397 -0.24405 0.14197
 N178 N 0.03416 -0.27341 0.12810
 C179 C 0.00786 -0.18573 0.15525
 N180 N 0.03357 -0.18152 0.17179
 N181 N 0.03328 -0.15239 0.18594
 C182 C 0.00727 -0.12633 0.18414
 N183 N -0.01843 -0.13062 0.16754
 N184 N -0.01814 -0.15974 0.15337
 C185 C 0.00942 0.31907 0.10020
 N186 N 0.02780 0.31855 0.07783
 N187 N 0.02826 0.34730 0.06425
 C188 C 0.01022 0.37764 0.07244
 N189 N -0.00820 0.37805 0.09483
 N190 N -0.00852 0.34936 0.10848
 C191 C 0.00884 0.28741 0.11519
 N192 N -0.00618 0.28889 0.13890
 N193 N -0.00675 0.26019 0.15252
 C194 C 0.00750 0.22894 0.14289
 N195 N 0.02244 0.22744 0.11916
 N196 N 0.02318 0.25618 0.10558
 C197 C 0.00674 0.19733 0.15791
 N198 N 0.01720 0.16551 0.14731
 N199 N 0.01642 0.13686 0.16096
 C200 C 0.00534 0.13892 0.18579
 N201 N -0.00504 0.17083 0.19636
 N202 N -0.00444 0.19946 0.18268
 C203 C 0.30992 -0.01442 0.59847
 N204 N 0.31993 -0.04027 0.58108
 N205 N 0.34960 -0.04016 0.56776
 C206 C 0.37042 -0.01425 0.57136
 N207 N 0.36029 0.01150 0.58881
 N208 N 0.33065 0.01144 0.60208
 C209 C 0.27717 -0.01406 0.61312
 N210 N 0.26698 0.01284 0.62959
 N211 N 0.23731 0.01352 0.64292
 C212 C 0.21672 -0.01269 0.64034
 N213 N 0.22689 -0.03966 0.62388
 N214 N 0.25659 -0.04031 0.61049
 C215 C 0.18407 -0.01164 0.65518
 N216 N 0.16378 -0.03827 0.65369
 N217 N 0.13427 -0.03709 0.66735
 C218 C 0.12388 -0.00923 0.68298
 N219 N 0.14425 0.01736 0.68435
 N220 N 0.17374 0.01618 0.67075
 C221 C -0.31810 -0.00487 0.59565
 N222 N -0.33535 0.02529 0.58799
 N223 N -0.36414 0.02486 0.57468
 C224 C -0.37691 -0.00573 0.56868
 N225 N -0.35960 -0.03587 0.57641
 N226 N -0.33070 -0.03547 0.58957
 C227 C -0.28651 -0.00443 0.61047
 N228 N -0.26659 -0.03452 0.61498
 N229 N -0.23806 -0.03418 0.62858
 C230 C -0.22854 -0.00377 0.63831
 N231 N -0.24849 0.02631 0.63384
 N232 N -0.27690 0.02600 0.62009
 C233 C -0.19737 -0.00347 0.65362
 N234 N -0.19081 0.02577 0.66671
 N235 N -0.16276 0.02591 0.68087
 C236 C -0.14008 -0.00312 0.68235
 N237 N -0.14663 -0.03231 0.66912
 N238 N -0.17479 -0.03252 0.65510
 C239 C 0.00811 -0.31759 0.89760
 N240 N -0.01844 -0.33789 0.89682
 N241 N -0.01780 -0.36660 0.91050
 C242 C 0.00937 -0.37620 0.92555
 N243 N 0.03595 -0.35581 0.92629
 N244 N 0.03536 -0.32708 0.91257
 C245 C 0.00705 -0.28585 0.88254
 N246 N 0.03382 -0.26573 0.88253
 N247 N 0.03256 -0.23690 0.86886
 C248 C 0.00448 -0.22716 0.85476
 N249 N -0.02224 -0.24730 0.85479
 N250 N -0.02097 -0.27611 0.86840
 C251 C 0.00277 -0.19536 0.83974
 N252 N -0.02599 -0.18532 0.82650
 N253 N -0.02780 -0.15648 0.81291
 C254 C -0.00092 -0.13651 0.81196
 N255 N 0.02789 -0.14664 0.82521
 N256 N 0.02970 -0.17550 0.83886
 C257 C -0.00885 0.30964 0.90642
 N258 N -0.03725 0.33271 0.91065
 N259 N -0.03492 0.36251 0.92353
 C260 C -0.00400 0.37053 0.93236
 N261 N 0.02441 0.34745 0.92804
 N262 N 0.02199 0.31748 0.91544
 C263 C -0.01121 0.27704 0.89191
 N264 N 0.01410 0.25026 0.89325
 N265 N 0.01234 0.22090 0.87971
 C266 C -0.01459 0.21742 0.86411
 N267 N -0.03987 0.24424 0.86273
 N268 N -0.03831 0.27345 0.87650
 C269 C -0.01585 0.18555 0.84852
 N270 N -0.03602 0.18557 0.82771
 N271 N -0.03627 0.15696 0.81306
 C272 C -0.01667 0.12715 0.81882
 N273 N 0.00323 0.12707 0.83980
 N274 N 0.00379 0.15579 0.85429
 C275 C -0.31470 -0.00033 0.40025
 N276 N -0.34086 0.02554 0.39860
 N277 N -0.37030 0.02443 0.41198
 C278 C -0.37479 -0.00258 0.42753
 N279 N -0.34853 -0.02844 0.42913
 N280 N -0.31906 -0.02735 0.41576
 C281 C -0.28227 0.00092 0.38546
 N282 N -0.25603 -0.02491 0.38707
 N283 N -0.22666 -0.02377 0.37359
 C284 C -0.22245 0.00324 0.35801
 N285 N -0.24869 0.02906 0.35641
 N286 N -0.27805 0.02793 0.36989
 C287 C -0.19016 0.00443 0.34305
 N288 N -0.18610 0.03133 0.32736
 N289 N -0.15689 0.03233 0.31366
 C290 C -0.13058 0.00650 0.31512
 N291 N -0.13472 -0.02037 0.33088
 N292 N -0.16393 -0.02139 0.34458
 C293 C 0.31330 0.00532 0.40054
 N294 N 0.34316 -0.01212 0.39121
 N295 N 0.37189 -0.01352 0.40469
 C296 C 0.37197 0.00262 0.42798
 N297 N 0.34206 0.02020 0.43725
 N298 N 0.31325 0.02145 0.42382
 C299 C 0.28164 0.00649 0.38566
 N300 N 0.25072 0.02014 0.39600
 N301 N 0.22201 0.02079 0.38248
 C302 C 0.22325 0.00797 0.35810
 N303 N 0.25420 -0.00555 0.34776
 N304 N 0.28284 -0.00636 0.36131
 C305 C 0.19173 0.00853 0.34311
 N306 N 0.19375 -0.00079 0.31797
 N307 N 0.16524 -0.00048 0.30431
 C308 C 0.13355 0.00897 0.31526
 N309 N 0.13158 0.01823 0.34046
 N310 N 0.16012 0.01809 0.35412
   
