data_POSCAR
  _audit_creation_date              2014-09-24
  _audit_creation_method            'ToBaCCo'
  _symmetry_space_group_name_H-M    'P1'
  _symmetry_Int_Tables_number       1
  _symmetry_cell_setting            triclinic
  loop_
  _symmetry_equiv_pos_as_xyz
 x,y,z
_cell_length_a 44.3182
_cell_length_b 44.3151
_cell_length_c 36.8611
_cell_angle_alpha 89.820000
_cell_angle_beta 89.822600
_cell_angle_gamma 88.503500
loop_
  _atom_site_label
  _atom_site_type_symbol
  _atom_site_fract_x
  _atom_site_fract_y
  _atom_site_fract_z
O1 O 0.00216 0.32632 -0.02018
 O2 O -0.05505 0.31673 0.05181
 O3 O 0.00377 0.32085 0.05050
 O4 O -0.05698 0.32099 -0.01819
 O5 O -0.05131 0.27142 -0.02291
 O6 O 0.00859 0.27125 0.04529
 O7 O -0.04972 0.26716 0.04662
 O8 O 0.00718 0.27671 -0.02477
 Cu9 Cu -0.02692 0.32630 0.01636
 Cu10 Cu -0.02068 0.26670 0.01047
 C11 C 0.01451 0.30303 -0.03437
 C12 C -0.06232 0.29024 0.06093
 C13 C 0.01636 0.29586 0.05945
 C14 C -0.06481 0.29597 -0.03144
 O15 O 0.49087 0.80649 0.51934
 O16 O 0.55161 0.79686 0.45087
 O17 O 0.49286 0.80272 0.44862
 O18 O 0.55011 0.80213 0.52120
 O19 O 0.54692 0.75253 0.52559
 O20 O 0.48982 0.75314 0.45338
 O21 O 0.54815 0.74730 0.45572
 O22 O 0.48811 0.75686 0.52370
 Cu23 Cu 0.52163 0.80709 0.48463
 Cu24 Cu 0.51788 0.74751 0.49016
 C25 C 0.47913 0.78313 0.53286
 C26 C 0.56015 0.77032 0.44191
 C27 C 0.48173 0.77798 0.43873
 C28 C 0.55846 0.77713 0.53528
 O29 O 0.99545 0.68045 -0.05087
 O30 O 1.05634 0.68004 0.01770
 O31 O 0.99721 0.67462 0.01977
 O32 O 1.05427 0.68451 -0.05228
 O33 O 1.04895 0.73406 -0.04681
 O34 O 0.99218 0.72421 0.02467
 O35 O 1.05067 0.72959 0.02273
 O36 O 0.99063 0.73001 -0.04536
 Cu37 Cu 1.02621 0.67484 -0.01683
 Cu38 Cu 1.01997 0.73440 -0.01057
 C39 C 0.98283 0.70547 -0.05966
 C40 C 1.06419 0.70501 0.03109
 C41 C 0.98488 0.69785 0.03413
 C42 C 1.06152 0.71103 -0.06127
 O43 O 0.45002 0.19713 0.47920
 O44 O 0.50714 0.19674 0.55188
 O45 O 0.44836 0.20240 0.54954
 O46 O 0.50924 0.19311 0.48117
 O47 O 0.51177 0.24276 0.47689
 O48 O 0.45160 0.25197 0.54476
 O49 O 0.50996 0.24635 0.54719
 O50 O 0.45298 0.24675 0.47488
 Cu51 Cu 0.47844 0.19230 0.51582
 Cu52 Cu 0.48192 0.25191 0.51038
 C53 C 0.44159 0.22210 0.46513
 C54 C 0.51815 0.22152 0.56180
 C55 C 0.43969 0.22889 0.55852
 C56 C 0.52090 0.21654 0.46772
 O57 O 0.69360 0.00856 -0.01802
 O58 O 0.70323 -0.05231 0.05030
 O59 O 0.69746 0.00647 0.05267
 O60 O 0.69774 -0.05065 -0.02000
 O61 O 0.74733 -0.04759 -0.02453
 O62 O 0.74704 0.00939 0.04775
 O63 O 0.75277 -0.04897 0.04532
 O64 O 0.74322 0.01119 -0.02253
 Cu65 Cu 0.69296 -0.02224 0.01664
 Cu66 Cu 0.75254 -0.01864 0.01094
 C67 C 0.71696 0.02026 -0.03160
 C68 C 0.72976 -0.06094 0.05917
 C69 C 0.72225 0.01754 0.06247
 C70 C 0.72268 -0.05903 -0.03418
 O71 O 0.17396 0.49735 0.52151
 O72 O 0.18336 0.55438 0.44931
 O73 O 0.17947 0.49555 0.45083
 O74 O 0.17931 0.55650 0.51933
 O75 O 0.22889 0.55092 0.52400
 O76 O 0.22907 0.49083 0.45598
 O77 O 0.23295 0.54916 0.45442
 O78 O 0.22358 0.49241 0.52604
 Cu79 Cu 0.17395 0.52633 0.48488
 Cu80 Cu 0.23356 0.52020 0.49070
 C81 C 0.19728 0.48506 0.53570
 C82 C 0.20981 0.56166 0.44011
 C83 C 0.20447 0.48298 0.44187
 C84 C 0.20434 0.56440 0.53252
 O85 O 0.30170 0.99301 -0.05318
 O86 O 0.30155 1.05023 0.01943
 O87 O 0.30584 0.99102 0.01750
 O88 O 0.29587 1.05179 -0.05085
 O89 O 0.24635 1.04836 -0.04563
 O90 O 0.25624 0.98829 0.02225
 O91 O 0.25198 1.04708 0.02421
 O92 O 0.25215 0.99000 -0.04802
 Cu93 Cu 0.30628 1.02178 -0.01721
 Cu94 Cu 0.24674 1.01807 -0.01121
 C95 C 0.27691 0.98188 -0.06287
 C96 C 0.27664 1.05858 0.03372
 C97 C 0.28255 0.97929 0.03121
 C98 C 0.26929 1.06037 -0.05960
 O99 O 0.82175 0.50421 0.54961
 O100 O 0.82177 0.44346 0.48092
 O101 O 0.82708 0.50261 0.47891
 O102 O 0.81768 0.44538 0.55093
 O103 O 0.76810 0.45068 0.54590
 O104 O 0.77746 0.50761 0.47448
 O105 O 0.77219 0.44910 0.47635
 O106 O 0.77214 0.50900 0.54455
 Cu107 Cu 0.82715 0.47353 0.51546
 Cu108 Cu 0.76753 0.47974 0.50975
 C109 C 0.79677 0.51678 0.55865
 C110 C 0.79672 0.43562 0.46775
 C111 C 0.80375 0.51495 0.46479
 C112 C 0.79122 0.43811 0.56013
 C113 C 0.20307 0.22954 0.17246
 C114 C 0.23155 0.21930 0.18375
 C115 C 0.24534 0.23267 0.21364
 C116 C 0.23006 0.25567 0.23365
 C117 C 0.20080 0.26500 0.22220
 C118 C 0.18783 0.25253 0.19131
 C119 C 0.24437 0.26991 0.26607
 C120 C 0.23504 0.29911 0.27776
 C121 C 0.24755 0.31193 0.30872
 C122 C 0.27059 0.29660 0.32739
 C123 C 0.28082 0.26818 0.31585
 C124 C 0.26741 0.25454 0.28590
 H125 H 0.19270 0.21958 0.14887
 H126 H 0.26796 0.22512 0.22071
 H127 H 0.18771 0.28179 0.23707
 H128 H 0.21821 0.31225 0.26303
 H129 H 0.28060 0.30683 0.35104
 H130 H 0.27496 0.23196 0.27865
 C131 C 0.81078 0.75663 0.17157
 C132 C 0.78727 0.77140 0.19003
 C133 C 0.77507 0.75843 0.22124
 C134 C 0.78500 0.72947 0.23335
 C135 C 0.80860 0.71467 0.21372
 C136 C 0.82180 0.72858 0.18359
 C137 C 0.77069 0.71500 0.26596
 C138 C 0.78564 0.69142 0.28547
 C139 C 0.77185 0.67808 0.31561
 C140 C 0.74378 0.68894 0.32773
 C141 C 0.72888 0.71242 0.30938
 C142 C 0.74172 0.72476 0.27817
 H143 H 0.82057 0.76703 0.14774
 H144 H 0.75796 0.77137 0.23574
 H145 H 0.81681 0.69235 0.22122
 H146 H 0.80798 0.68333 0.27788
 H147 H 0.73348 0.67906 0.35157
 H148 H 0.72867 0.74185 0.26377
 C149 C 0.77280 0.19839 0.18944
 C150 C 0.78166 0.22636 0.20217
 C151 C 0.76875 0.23833 0.23380
 C152 C 0.74783 0.22170 0.25431
 C153 C 0.73940 0.19318 0.24115
 C154 C 0.75147 0.18195 0.20852
 C155 C 0.73524 0.23415 0.28914
 C156 C 0.70664 0.22573 0.30231
 C157 C 0.69503 0.23805 0.33464
 C158 C 0.71123 0.25964 0.35339
 C159 C 0.73931 0.26849 0.34058
 C160 C 0.75162 0.25526 0.30933
 H161 H 0.78261 0.18934 0.16462
 H162 H 0.77519 0.26066 0.24203
 H163 H 0.72382 0.17943 0.25615
 H164 H 0.69302 0.21012 0.28743
 H165 H 0.70181 0.26985 0.37777
 H166 H 0.77394 0.26179 0.30098
 C167 C 0.24046 0.78917 0.14603
 C168 C 0.23158 0.76111 0.15886
 C169 C 0.24486 0.74878 0.19008
 C170 C 0.26604 0.76513 0.21023
 C171 C 0.27447 0.79372 0.19701
 C172 C 0.26211 0.80534 0.16472
 C173 C 0.27849 0.75259 0.24510
 C174 C 0.30696 0.76114 0.25837
 C175 C 0.31813 0.74914 0.29110
 C176 C 0.30169 0.72777 0.31012
 C177 C 0.27380 0.71881 0.29728
 C178 C 0.26189 0.73164 0.26558
 H179 H 0.23023 0.79862 0.12167
 H180 H 0.23831 0.72648 0.19844
 H181 H 0.29012 0.80734 0.21185
 H182 H 0.32070 0.77675 0.24343
 H183 H 0.31069 0.71802 0.33501
 H184 H 0.23960 0.72512 0.25730
 C185 C 0.69880 0.27180 0.68938
 C186 C 0.68228 0.25050 0.70841
 C187 C 0.69338 0.23846 0.74114
 C188 C 0.72185 0.24693 0.75444
 C189 C 0.73855 0.26781 0.73398
 C190 C 0.72671 0.28068 0.70225
 C191 C 0.73415 0.23442 0.78938
 C192 C 0.75516 0.25085 0.80966
 C193 C 0.76828 0.23861 0.84101
 C194 C 0.75941 0.21054 0.85383
 C195 C 0.73791 0.19428 0.83500
 C196 C 0.72570 0.20583 0.80258
 H197 H 0.68984 0.28158 0.66450
 H198 H 0.67958 0.22292 0.75609
 H199 H 0.76085 0.27427 0.74232
 H200 H 0.76170 0.27316 0.80128
 H201 H 0.76954 0.20117 0.87829
 H202 H 0.71016 0.19217 0.78764
 C203 C 0.28882 0.74079 0.64721
 C204 C 0.30491 0.76252 0.66586
 C205 C 0.29314 0.77504 0.69800
 C206 C 0.26449 0.76667 0.71107
 C207 C 0.24822 0.74541 0.69094
 C208 C 0.26070 0.73198 0.65989
 C209 C 0.25176 0.77929 0.74577
 C210 C 0.23070 0.76279 0.76620
 C211 C 0.21770 0.77485 0.79772
 C212 C 0.22661 0.80280 0.81045
 C213 C 0.24809 0.81914 0.79149
 C214 C 0.26026 0.80782 0.75893
 H215 H 0.29838 0.73044 0.62297
 H216 H 0.30668 0.79075 0.71282
 H217 H 0.22587 0.73891 0.69918
 H218 H 0.22423 0.74046 0.75802
 H219 H 0.21673 0.81191 0.83521
 H220 H 0.27596 0.82148 0.74402
 C221 C 0.25629 0.31059 0.67261
 C222 C 0.22827 0.32163 0.68468
 C223 C 0.21431 0.30835 0.71474
 C224 C 0.22904 0.28464 0.73424
 C225 C 0.25798 0.27468 0.72209
 C226 C 0.27098 0.28697 0.69095
 C227 C 0.21453 0.27024 0.76675
 C228 C 0.22422 0.24119 0.77881
 C229 C 0.21184 0.22826 0.80994
 C230 C 0.18839 0.24314 0.82835
 C231 C 0.17760 0.27129 0.81638
 C232 C 0.19098 0.28517 0.78634
 H233 H 0.26671 0.32044 0.64883
 H234 H 0.19201 0.31659 0.72227
 H235 H 0.27087 0.25748 0.73650
 H236 H 0.24128 0.22816 0.76434
 H237 H 0.17847 0.23277 0.85213
 H238 H 0.18296 0.30756 0.77887
 C239 C 0.73025 0.70307 0.67255
 C240 C 0.75337 0.68788 0.69122
 C241 C 0.76589 0.70080 0.72211
 C242 C 0.75646 0.72997 0.73375
 C243 C 0.73333 0.74522 0.71391
 C244 C 0.71992 0.73148 0.68403
 C245 C 0.77071 0.74424 0.76619
 C246 C 0.75528 0.76715 0.78618
 C247 C 0.76893 0.78054 0.81612
 C248 C 0.79743 0.77043 0.82751
 C249 C 0.81282 0.74752 0.80870
 C250 C 0.79998 0.73502 0.77773
 H251 H 0.72024 0.69273 0.64897
 H252 H 0.78279 0.68774 0.73683
 H253 H 0.72570 0.76779 0.72113
 H254 H 0.73264 0.77460 0.77905
 H255 H 0.80767 0.78044 0.85115
 H256 H 0.81316 0.71829 0.76290
 C257 C 0.27591 0.08220 0.06030
 C258 C 0.27384 0.10266 0.08173
 C259 C 0.26954 0.12717 0.10577
 C260 C 0.26408 0.14838 0.12535
 C261 C 0.25538 0.17333 0.14708
 C262 C 0.24579 0.19450 0.16450
 C263 C 0.79591 0.54086 0.58455
 C264 C 0.79318 0.56180 0.60517
 C265 C 0.78788 0.58707 0.62770
 C266 C 0.78179 0.60928 0.64531
 C267 C 0.77309 0.63597 0.66377
 C268 C 0.76457 0.65933 0.67749
 C269 C 0.73399 0.91607 0.08318
 C270 C 0.73927 0.89522 0.10346
 C271 C 0.74714 0.87026 0.12569
 C272 C 0.75506 0.84845 0.14317
 C273 C 0.76549 0.82231 0.16170
 C274 C 0.77514 0.79942 0.17570
 C275 C 0.19429 0.46161 0.56231
 C276 C 0.19371 0.44106 0.58379
 C277 C 0.19541 0.41623 0.60787
 C278 C 0.19910 0.39459 0.62740
 C279 C 0.20620 0.36899 0.64894
 C280 C 0.21481 0.34720 0.66603
 C281 C 0.91521 0.28620 0.08538
 C282 C 0.89472 0.28115 0.10588
 C283 C 0.87035 0.27336 0.12843
 C284 C 0.84949 0.26507 0.14660
 C285 C 0.82528 0.25348 0.16676
 C286 C 0.80504 0.24198 0.18322
 C287 C 0.45453 0.78602 0.55815
 C288 C 0.43313 0.78656 0.57845
 C289 C 0.40729 0.78514 0.60086
 C290 C 0.38462 0.78229 0.61859
 C291 C 0.35743 0.77712 0.63743
 C292 C 0.33372 0.77123 0.65160
 C293 C 0.08987 0.70625 0.05457
 C294 C 0.11204 0.70969 0.07278
 C295 C 0.13825 0.71629 0.09260
 C296 C 0.16049 0.72391 0.10852
 C297 C 0.18608 0.73498 0.12632
 C298 C 0.20729 0.74607 0.14116
 C299 C 0.54077 0.22167 0.58954
 C300 C 0.56040 0.22287 0.61201
 C301 C 0.58424 0.22562 0.63699
 C302 C 0.60542 0.22921 0.65679
 C303 C 0.63122 0.23496 0.67775
 C304 C 0.65409 0.24127 0.69328
 C305 C 0.71410 0.04487 0.94312
 C306 C 0.71359 0.06627 0.92281
 C307 C 0.71507 0.09208 0.90035
 C308 C 0.71797 0.11472 0.88256
 C309 C 0.72321 0.14186 0.86363
 C310 C 0.72915 0.16552 0.84938
 C311 C 0.21401 0.58531 0.41414
 C312 C 0.21909 0.60579 0.39364
 C313 C 0.22689 0.63013 0.37106
 C314 C 0.23515 0.65098 0.35286
 C315 C 0.24672 0.67518 0.33268
 C316 C 0.25821 0.69542 0.31621
 C317 C 0.27670 0.96044 0.91090
 C318 C 0.27556 0.94085 0.88835
 C319 C 0.27288 0.91707 0.86325
 C320 C 0.26936 0.89594 0.84333
 C321 C 0.26366 0.87018 0.82222
 C322 C 0.25737 0.84733 0.80662
 C323 C 0.79533 0.40995 0.44430
 C324 C 0.79172 0.38778 0.42616
 C325 C 0.78488 0.36158 0.40648
 C326 C 0.77702 0.33937 0.39070
 C327 C 0.76570 0.31384 0.37306
 C328 C 0.75444 0.29270 0.35829
 C329 C 0.03800 0.30604 0.93906
 C330 C 0.05856 0.30659 0.91758
 C331 C 0.08337 0.30478 0.89348
 C332 C 0.10497 0.30098 0.87390
 C333 C 0.13048 0.29371 0.85229
 C334 C 0.15218 0.28495 0.83512
 C335 C 0.58436 0.76582 0.41645
 C336 C 0.60517 0.76041 0.39617
 C337 C 0.63009 0.75244 0.37394
 C338 C 0.65187 0.74447 0.35645
 C339 C 0.67798 0.73404 0.33788
 C340 C 0.70085 0.72444 0.32382
 C341 C 0.96000 0.70636 0.91587
 C342 C 0.93908 0.70893 0.89517
 C343 C 0.91382 0.71398 0.87252
 C344 C 0.89160 0.71983 0.85480
 C345 C 0.86488 0.72824 0.83620
 C346 C 0.84146 0.73653 0.82240
 C347 C 0.41800 0.22292 0.43855
 C348 C 0.39753 0.22509 0.41715
 C349 C 0.37301 0.22954 0.39319
 C350 C 0.35179 0.23517 0.37373
 C351 C 0.32681 0.24407 0.35217
 C352 C 0.30563 0.25381 0.33492
 C353 C 0.72347 0.91739 0.93923
 C354 C 0.72563 0.89694 0.91780
 C355 C 0.73010 0.87245 0.89381
 C356 C 0.73575 0.85127 0.87429
 C357 C 0.74470 0.82636 0.85265
 C358 C 0.75450 0.80525 0.83532
 C359 C 0.20539 0.45887 0.41599
 C360 C 0.20813 0.43792 0.39536
 C361 C 0.21339 0.41266 0.37276
 C362 C 0.21941 0.39049 0.35505
 C363 C 0.22801 0.36383 0.33643
 C364 C 0.23644 0.34048 0.32257
 C365 C 0.26496 0.08335 0.91641
 C366 C 0.25960 0.10420 0.89617
 C367 C 0.25168 0.12918 0.87401
 C368 C 0.24375 0.15101 0.85661
 C369 C 0.23336 0.17721 0.83816
 C370 C 0.22380 0.20015 0.82423
 C371 C 0.80670 0.53843 0.43820
 C372 C 0.80721 0.55899 0.41671
 C373 C 0.80538 0.58380 0.39261
 C374 C 0.80156 0.60540 0.37303
 C375 C 0.79429 0.63092 0.35143
 C376 C 0.78553 0.65263 0.33428
 C377 C 0.08395 0.71516 0.91426
 C378 C 0.10443 0.72025 0.89376
 C379 C 0.12880 0.72805 0.87123
 C380 C 0.14968 0.73632 0.85310
 C381 C 0.17393 0.74788 0.83299
 C382 C 0.19423 0.75932 0.81659
 C383 C 0.54554 0.21380 0.44246
 C384 C 0.56696 0.21340 0.42219
 C385 C 0.59280 0.21499 0.39979
 C386 C 0.61545 0.21798 0.38206
 C387 C 0.64260 0.22329 0.36320
 C388 C 0.66627 0.22927 0.34900
 C389 C 0.90954 0.29462 0.94509
 C390 C 0.88738 0.29103 0.92691
 C391 C 0.86121 0.28421 0.90718
 C392 C 0.83902 0.27637 0.89134
 C393 C 0.81353 0.26505 0.87363
 C394 C 0.79243 0.25378 0.85880
 C395 C 0.45914 0.77789 0.41092
 C396 C 0.43958 0.77675 0.38834
 C397 C 0.41584 0.77407 0.36318
 C398 C 0.39476 0.77052 0.34319
 C399 C 0.36907 0.76479 0.32200
 C400 C 0.34627 0.75846 0.30631
 C401 C 0.28555 0.95471 0.05651
 C402 C 0.28616 0.93333 0.07685
 C403 C 0.28480 0.90753 0.09934
 C404 C 0.28196 0.88490 0.11714
 C405 C 0.27678 0.85776 0.13608
 C406 C 0.27087 0.83410 0.15034
 C407 C 0.78699 0.41435 0.58598
 C408 C 0.78185 0.39381 0.60636
 C409 C 0.77395 0.36940 0.62880
 C410 C 0.76560 0.34852 0.64689
 C411 C 0.75394 0.32430 0.66697
 C412 C 0.74238 0.30405 0.68337
 C413 C 0.72244 0.04018 0.09018
 C414 C 0.72368 0.05984 0.11260
 C415 C 0.72647 0.08373 0.13751
 C416 C 0.73011 0.10495 0.15724
 C417 C 0.73591 0.13080 0.17808
 C418 C 0.74224 0.15372 0.19351
 C419 C 0.20566 0.59011 0.55595
 C420 C 0.20918 0.61231 0.57411
 C421 C 0.21585 0.63854 0.59385
 C422 C 0.22352 0.66079 0.60970
 C423 C 0.23462 0.68640 0.62743
 C424 C 0.24570 0.70764 0.64223
 C425 C 0.96144 0.69470 0.06073
 C426 C 0.94092 0.69402 0.08224
 C427 C 0.91613 0.69567 0.10637
 C428 C 0.89453 0.69933 0.12598
 C429 C 0.86900 0.70644 0.14762
 C430 C 0.84727 0.71507 0.16482
 C431 C 0.41544 0.23328 0.58396
 C432 C 0.39460 0.23864 0.60423
 C433 C 0.36967 0.24660 0.62645
 C434 C 0.34790 0.25459 0.64395
 C435 C 0.32181 0.26509 0.66251
 C436 C 0.29896 0.27478 0.67655
 C437 C 0.04045 0.29496 0.08533
 C438 C 0.06143 0.29220 0.10590
 C439 C 0.08676 0.28690 0.12834
 C440 C 0.10902 0.28082 0.14585
 C441 C 0.13578 0.27215 0.16417
 C442 C 0.15921 0.26366 0.17777
 C443 C 0.58215 0.77623 0.56176
 C444 C 0.60270 0.77403 0.58306
 C445 C 0.62732 0.76960 0.60690
 C446 C 0.64862 0.76405 0.62629
 C447 C 0.67370 0.75529 0.64778
 C448 C 0.69498 0.74568 0.66499
   
