data_POSCAR
  _audit_creation_date              2014-09-24
  _audit_creation_method            'ToBaCCo'
  _symmetry_space_group_name_H-M    'P1'
  _symmetry_Int_Tables_number       1
  _symmetry_cell_setting            triclinic
  loop_
  _symmetry_equiv_pos_as_xyz
 x,y,z
_cell_length_a 38.5633
_cell_length_b 27.5656
_cell_length_c 29.4254
_cell_angle_alpha 90.120400
_cell_angle_beta 89.807900
_cell_angle_gamma 84.447000
loop_
  _atom_site_label
  _atom_site_type_symbol
  _atom_site_fract_x
  _atom_site_fract_y
  _atom_site_fract_z
C1 C 1.22671 0.21810 0.19642
 C2 C 1.24898 0.25172 0.17007
 C3 C 1.26762 0.28027 0.19681
 C4 C 1.26223 0.27204 0.24842
 C5 C 1.25297 0.18898 0.22733
 C6 C 1.27105 0.21668 0.25551
 C7 C 1.20442 0.25177 0.22848
 C8 C 1.22261 0.27949 0.25598
 H9 H 1.25283 0.24941 0.13371
 H10 H 1.27658 0.29545 0.27091
 H11 H 1.25682 0.14957 0.22665
 H12 H 1.17646 0.25090 0.23163
 C13 C 0.72885 -0.28526 0.19383
 C14 C 0.75193 -0.25420 0.16606
 C15 C 0.77132 -0.22552 0.19148
 C16 C 0.76587 -0.23073 0.24318
 C17 C 0.75388 -0.31387 0.22686
 C18 C 0.77352 -0.28571 0.25240
 C19 C 0.70730 -0.24901 0.22454
 C20 C 0.72634 -0.22050 0.25005
 H21 H 0.75362 -0.25639 0.12936
 H22 H 0.78111 -0.20694 0.26410
 H23 H 0.75407 -0.35240 0.23313
 H24 H 0.67919 -0.24764 0.22751
 C25 C 0.72942 0.21394 -0.31022
 C26 C 0.74718 0.25095 -0.33365
 C27 C 0.76515 0.28170 -0.30392
 C28 C 0.76084 0.26926 -0.25542
 C29 C 0.75679 0.18754 -0.28339
 C30 C 0.77389 0.21734 -0.25195
 C31 C 0.70649 0.24048 -0.27785
 C32 C 0.72313 0.27060 -0.24691
 H33 H 0.75335 0.24797 -0.36949
 H34 H 0.77369 0.29335 -0.23228
 H35 H 0.76242 0.14844 -0.28581
 H36 H 0.67839 0.24047 -0.27969
 C37 C 1.22755 -0.28112 -0.30420
 C38 C 1.25147 -0.25068 -0.33174
 C39 C 1.27110 -0.22282 -0.30568
 C40 C 1.26523 -0.22838 -0.25408
 C41 C 1.25241 -0.31073 -0.27195
 C42 C 1.27212 -0.28359 -0.24554
 C43 C 1.20641 -0.24418 -0.27392
 C44 C 1.22579 -0.21690 -0.24765
 H45 H 1.25496 -0.25349 -0.36811
 H46 H 1.28078 -0.20536 -0.23275
 H47 H 1.25367 -0.35007 -0.26998
 H48 H 1.17818 -0.24089 -0.27245
 C49 C 0.22905 0.21811 0.80391
 C50 C 0.25124 0.24710 0.83033
 C51 C 0.27153 0.27780 0.80366
 C52 C 0.26558 0.27289 0.75453
 C53 C 0.20714 0.25463 0.77445
 C54 C 0.22588 0.28315 0.74849
 C55 C 0.25412 0.18956 0.77076
 C56 C 0.27331 0.21782 0.74457
 H57 H 0.25712 0.23930 0.86557
 H58 H 0.27993 0.29658 0.73245
 H59 H 0.17893 0.25672 0.77324
 H60 H 0.25612 0.15020 0.76822
 C61 C 0.72719 0.71699 0.80541
 C62 C 0.75108 0.74419 0.83113
 C63 C 0.76960 0.77701 0.80412
 C64 C 0.76051 0.77473 0.75526
 C65 C 0.70469 0.75354 0.78161
 C66 C 0.72241 0.78525 0.75326
 C67 C 0.74922 0.69185 0.77077
 C68 C 0.76735 0.72307 0.74207
 H69 H 0.75866 0.73429 0.86547
 H70 H 0.77351 0.80024 0.73380
 H71 H 0.67665 0.75253 0.78090
 H72 H 0.75550 0.65270 0.77140
 C73 C 0.72720 0.21937 0.30378
 C74 C 0.75056 0.24984 0.33205
 C75 C 0.76997 0.27874 0.30676
 C76 C 0.76452 0.27404 0.25497
 C77 C 0.70583 0.25649 0.27423
 C78 C 0.72500 0.28474 0.24857
 C79 C 0.75251 0.19096 0.27095
 C80 C 0.77206 0.21905 0.24518
 H81 H 0.75384 0.24647 0.36836
 H82 H 0.77994 0.29786 0.23427
 H83 H 0.67764 0.25890 0.27247
 H84 H 0.75391 0.15169 0.26781
 C85 C 0.22518 0.71794 0.30475
 C86 C 0.24906 0.74888 0.33179
 C87 C 0.26816 0.77733 0.30551
 C88 C 0.26177 0.77180 0.25394
 C89 C 0.20338 0.75453 0.27518
 C90 C 0.22206 0.78246 0.24847
 C91 C 0.25000 0.68896 0.27162
 C92 C 0.26926 0.71659 0.24488
 H93 H 0.25316 0.74562 0.36797
 H94 H 0.27686 0.79529 0.23244
 H95 H 0.17516 0.75690 0.27435
 H96 H 0.25162 0.64961 0.26947
 O97 O 1.04371 0.08279 0.07930
 O98 O 1.08396 0.03487 0.03709
 C99 C 1.07543 0.06783 0.06756
 O100 O 0.95213 -0.08591 0.07590
 O101 O 0.91231 -0.03632 0.03505
 C102 C 0.92056 -0.07072 0.06423
 O103 O 1.04902 -0.08685 0.08270
 O104 O 1.08636 -0.04649 0.03901
 C105 C 1.07990 -0.07599 0.07146
 O106 O 0.94657 0.09372 0.07414
 O107 O 0.90955 0.04928 0.03378
 C108 C 0.91584 0.08289 0.06279
 Zr109 Zr 0.99599 0.06088 0.05461
 O110 O 0.99489 0.05177 0.12587
 O111 O 0.99391 0.13745 0.06184
 Zr112 Zr 1.00000 -0.06137 0.05489
 O113 O 0.99713 -0.05522 0.12646
 O114 O 1.00630 -0.13846 0.05692
 O115 O 1.02910 -0.00224 0.06387
 O116 O 0.96718 0.00205 0.06240
 O117 O 0.94814 0.09166 -0.08289
 O118 O 0.91034 0.04845 -0.04260
 C119 C 0.91717 0.08132 -0.07199
 O120 O 1.05135 -0.08660 -0.08626
 O121 O 1.08780 -0.04628 -0.04114
 C122 C 1.08198 -0.07577 -0.07386
 O123 O 0.95373 -0.08610 -0.08340
 O124 O 0.91309 -0.03650 -0.04336
 C125 C 0.92186 -0.07093 -0.07256
 O126 O 1.04538 0.08112 -0.08438
 O127 O 1.08476 0.03398 -0.04082
 C128 C 1.07682 0.06631 -0.07177
 Zr129 Zr 0.99711 0.06055 -0.06013
 O130 O 0.99443 0.05945 -0.13201
 O131 O 0.99759 0.13729 -0.06043
 Zr132 Zr 1.00131 -0.06257 -0.05975
 O133 O 0.99856 -0.06639 -0.13142
 O134 O 1.00824 -0.13963 -0.05616
 Zr135 Zr 1.05049 -0.00401 -0.00213
 Zr136 Zr 0.94634 0.00311 -0.00361
 O137 O 0.96909 0.00109 -0.06881
 O138 O 1.03022 -0.00307 -0.06863
 O139 O 0.96522 0.07247 -0.00324
 O140 O 1.03145 -0.07297 -0.00200
 O141 O 1.02638 0.06776 -0.00244
 O142 O 0.96973 -0.06935 -0.00290
 H143 H 0.95105 0.00355 0.08877
 H144 H 1.04848 -0.10229 -0.00162
 H145 H 0.95392 0.00217 -0.09597
 H146 H 1.04088 0.09551 -0.00247
 H147 H 0.98941 -0.15025 0.03530
 H148 H 0.98682 -0.15077 -0.04278
 H149 H 1.01273 -0.04134 -0.14359
 H150 H 1.01584 0.04066 -0.14347
 H151 H 0.97830 0.15103 -0.04059
 H152 H 0.99978 0.15063 0.03190
 H153 H 0.99275 0.08506 0.13896
 H154 H 0.99803 -0.08897 0.13825
 O155 O 1.04333 0.58300 0.58536
 O156 O 1.08310 0.53422 0.54318
 C157 C 1.07487 0.56763 0.57327
 O158 O 0.95112 0.41512 0.58597
 O159 O 0.91123 0.46453 0.54502
 C160 C 0.91944 0.43057 0.57470
 O161 O 1.04885 0.41314 0.58973
 O162 O 1.08592 0.45353 0.54535
 C163 C 1.07968 0.42399 0.57786
 O164 O 0.94620 0.59556 0.58100
 O165 O 0.90888 0.55051 0.54194
 C166 C 0.91533 0.58500 0.56991
 Zr167 Zr 0.99537 0.56127 0.56173
 O168 O 0.99443 0.55371 0.63317
 O169 O 0.99417 0.63786 0.56775
 Zr170 Zr 0.99903 0.43925 0.56403
 O171 O 0.99764 0.44893 0.63530
 O172 O 1.00127 0.36261 0.57108
 O173 O 1.02845 0.49816 0.57151
 O174 O 0.96635 0.50293 0.57091
 O175 O 0.94673 0.58976 0.42430
 O176 O 0.90909 0.54738 0.46575
 C177 C 0.91583 0.57964 0.43577
 O178 O 1.04938 0.41054 0.42252
 O179 O 1.08626 0.45192 0.46593
 C180 C 1.08017 0.42150 0.43404
 O181 O 0.95200 0.41198 0.42711
 O182 O 0.91171 0.46196 0.46742
 C183 C 0.92029 0.42740 0.43833
 O184 O 1.04387 0.57920 0.42148
 O185 O 1.08335 0.53244 0.46510
 C186 C 1.07536 0.56445 0.43383
 Zr187 Zr 0.99583 0.55899 0.44676
 O188 O 0.99259 0.55628 0.37497
 O189 O 0.99659 0.63567 0.44502
 Zr190 Zr 0.99964 0.43599 0.44923
 O191 O 0.99621 0.43192 0.37760
 O192 O 1.00564 0.35896 0.45321
 Zr193 Zr 1.04927 0.49508 0.50508
 Zr194 Zr 0.94521 0.50298 0.50511
 O195 O 0.96748 0.49959 0.43960
 O196 O 1.02870 0.49504 0.43885
 O197 O 0.96437 0.57214 0.50397
 O198 O 1.03005 0.42631 0.50672
 O199 O 1.02541 0.56697 0.50406
 O200 O 0.96850 0.43048 0.50673
 H201 H 0.95028 0.50517 0.59735
 H202 H 1.04723 0.39718 0.50687
 H203 H 0.95206 0.50012 0.41270
 H204 H 1.03999 0.59464 0.50341
 H205 H 1.01401 0.34784 0.54452
 H206 H 0.98642 0.34905 0.47242
 H207 H 1.01158 0.45528 0.36497
 H208 H 1.01402 0.53750 0.36353
 H209 H 0.97715 0.65001 0.46433
 H210 H 0.99764 0.65057 0.53690
 H211 H 0.99265 0.58727 0.64564
 H212 H 0.99824 0.41582 0.64848
 O213 O 0.54678 0.08091 0.57710
 O214 O 0.58645 0.03214 0.53477
 C215 C 0.57834 0.06578 0.56468
 O216 O 0.45566 -0.08836 0.57979
 O217 O 0.41517 -0.03962 0.53912
 C218 C 0.42390 -0.07346 0.56865
 O219 O 0.55313 -0.08778 0.58336
 O220 O 0.58985 -0.04819 0.53779
 C221 C 0.58387 -0.07693 0.57109
 O222 O 0.44952 0.09138 0.57471
 O223 O 0.41208 0.04593 0.53626
 C224 C 0.41865 0.08020 0.56440
 Zr225 Zr 0.49869 0.05824 0.55435
 O226 O 0.49869 0.05058 0.62580
 O227 O 0.49659 0.13494 0.56019
 Zr228 Zr 0.50316 -0.06398 0.55696
 O229 O 0.50135 -0.05677 0.62849
 O230 O 0.50979 -0.14099 0.56046
 O231 O 0.53210 -0.00451 0.56398
 O232 O 0.47024 -0.00055 0.56414
 O233 O 0.44876 0.08601 0.41765
 O234 O 0.41176 0.04346 0.45997
 C235 C 0.41800 0.07580 0.42980
 O236 O 0.55164 -0.09202 0.41394
 O237 O 0.58864 -0.05125 0.45755
 C238 C 0.58239 -0.08107 0.42533
 O239 O 0.45460 -0.09110 0.42021
 O240 O 0.41454 -0.04115 0.46081
 C241 C 0.42290 -0.07573 0.43165
 O242 O 0.54602 0.07605 0.41376
 O243 O 0.58606 0.02971 0.45700
 C244 C 0.57762 0.06158 0.42583
 Zr245 Zr 0.49822 0.05564 0.43957
 O246 O 0.49457 0.05293 0.36781
 O247 O 0.49850 0.13238 0.43768
 Zr248 Zr 0.50252 -0.06758 0.44247
 O249 O 0.49890 -0.07429 0.37111
 O250 O 0.50953 -0.14445 0.44872
 Zr251 Zr 0.55251 -0.00761 0.49743
 Zr252 Zr 0.44842 -0.00084 0.49873
 O253 O 0.47018 -0.00411 0.43294
 O254 O 0.53123 -0.00813 0.43152
 O255 O 0.46712 0.06861 0.49712
 O256 O 0.53370 -0.07668 0.49946
 O257 O 0.52823 0.06408 0.49634
 O258 O 0.47189 -0.07324 0.50029
 H259 H 0.45451 0.00143 0.59092
 H260 H 0.55088 -0.10583 0.49995
 H261 H 0.45465 -0.00356 0.40615
 H262 H 0.54262 0.09194 0.49539
 H263 H 0.49275 -0.15337 0.53939
 H264 H 0.48767 -0.15531 0.46104
 H265 H 0.50987 -0.04660 0.35785
 H266 H 0.51606 0.03450 0.35613
 H267 H 0.47940 0.14647 0.45767
 H268 H 0.50153 0.14757 0.52971
 H269 H 0.49682 0.08414 0.63828
 H270 H 0.50305 -0.09038 0.64074
 O271 O 0.54487 0.58061 0.08092
 O272 O 0.58489 0.53280 0.03827
 C273 C 0.57648 0.56595 0.06853
 O274 O 0.45368 0.41143 0.07961
 O275 O 0.41367 0.46064 0.03867
 C276 C 0.42199 0.42660 0.06821
 O277 O 0.55130 0.41133 0.08437
 O278 O 0.58826 0.45186 0.03999
 C279 C 0.58206 0.42245 0.07259
 O280 O 0.44776 0.59064 0.07743
 O281 O 0.41076 0.54598 0.03737
 C282 C 0.41700 0.57962 0.06637
 Zr283 Zr 0.49716 0.55810 0.05712
 O284 O 0.49674 0.54894 0.12840
 O285 O 0.49476 0.63470 0.06426
 Zr286 Zr 0.50157 0.43577 0.05763
 O287 O 0.49931 0.44147 0.12925
 O288 O 0.50799 0.35868 0.05960
 O289 O 0.53050 0.49512 0.06616
 O290 O 0.46867 0.49910 0.06535
 O291 O 0.44866 0.58847 -0.07987
 O292 O 0.41126 0.54503 -0.03908
 C293 C 0.41783 0.57789 -0.06854
 O294 O 0.55216 0.41000 -0.08380
 O295 O 0.58874 0.45095 -0.03956
 C296 C 0.58288 0.42081 -0.07178
 O297 O 0.45466 0.41093 -0.08025
 O298 O 0.41416 0.46030 -0.03972
 C299 C 0.42288 0.42608 -0.06911
 O300 O 0.54603 0.57894 -0.08204
 O301 O 0.58555 0.53176 -0.03878
 C302 C 0.57754 0.56437 -0.06948
 Zr303 Zr 0.49788 0.55766 -0.05779
 O304 O 0.49494 0.55577 -0.12964
 O305 O 0.49806 0.63443 -0.05877
 Zr306 Zr 0.50226 0.43455 -0.05714
 O307 O 0.49914 0.43120 -0.12882
 O308 O 0.50915 0.35747 -0.05384
 Zr309 Zr 0.55146 0.49329 -0.00011
 Zr310 Zr 0.44750 0.50003 -0.00044
 O311 O 0.46987 0.49808 -0.06592
 O312 O 0.53107 0.49411 -0.06648
 O313 O 0.46619 0.56952 -0.00054
 O314 O 0.53264 0.42421 0.00040
 O315 O 0.52720 0.56502 -0.00028
 O316 O 0.47101 0.42765 0.00010
 H317 H 0.45273 0.50060 0.09192
 H318 H 0.54975 0.39498 0.00068
 H319 H 0.45456 0.49908 -0.09295
 H320 H 0.54147 0.59302 -0.00053
 H321 H 0.49056 0.34688 0.03876
 H322 H 0.48810 0.34639 -0.03942
 H323 H 0.51384 0.45562 -0.14102
 H324 H 0.51676 0.53807 -0.14114
 H325 H 0.47916 0.64814 -0.03831
 H326 H 0.50030 0.64791 0.03421
 H327 H 0.49459 0.58223 0.14150
 H328 H 0.50081 0.40761 0.14087
 C329 C 1.15367 0.13450 0.12640
 C330 C 1.16336 0.12359 0.17116
 C331 C 1.18798 0.14950 0.19264
 C332 C 1.20378 0.18648 0.16958
 C333 C 1.19394 0.19686 0.12425
 C334 C 1.16921 0.17081 0.10283
 C335 C 1.12636 0.11030 0.10570
 C336 C 1.10311 0.09059 0.08859
 H337 H 1.15118 0.09597 0.18991
 H338 H 1.19385 0.14171 0.22799
 H339 H 1.20398 0.22623 0.10567
 H340 H 1.16147 0.17995 0.06828
 C341 C 1.15334 0.63471 0.62963
 C342 C 1.15987 0.62963 0.67601
 C343 C 1.18463 0.65596 0.69639
 C344 C 1.20358 0.68758 0.67066
 C345 C 1.19697 0.69200 0.62370
 C346 C 1.17204 0.66552 0.60337
 C347 C 1.12604 0.61029 0.60971
 C348 C 1.10268 0.59044 0.59336
 H349 H 1.14524 0.60620 0.69666
 H350 H 1.18839 0.65264 0.73276
 H351 H 1.20982 0.71681 0.60263
 H352 H 1.16674 0.66998 0.56739
 C353 C 0.65852 0.13172 0.61912
 C354 C 0.67022 0.17272 0.59837
 C355 C 0.69520 0.19835 0.61973
 C356 C 0.70944 0.18288 0.66220
 C357 C 0.69743 0.14071 0.68200
 C358 C 0.67260 0.11532 0.66050
 C359 C 0.63032 0.10836 0.59981
 C360 C 0.60642 0.08890 0.58414
 H361 H 0.65899 0.18607 0.56652
 H362 H 0.70158 0.23170 0.60387
 H363 H 0.70576 0.12871 0.71559
 H364 H 0.66330 0.08400 0.67716
 C365 C 0.65524 0.63565 0.12084
 C366 C 0.68361 0.60959 0.14180
 C367 C 0.70892 0.63436 0.16317
 C368 C 0.70572 0.68578 0.16458
 C369 C 0.67847 0.71132 0.14001
 C370 C 0.65321 0.68644 0.11873
 C371 C 0.62759 0.61044 0.10287
 C372 C 0.60414 0.58976 0.08782
 H373 H 0.68576 0.57011 0.14254
 H374 H 0.73032 0.61261 0.17884
 H375 H 0.67583 0.75079 0.13920
 H376 H 0.63157 0.70687 0.10181
 C377 C 0.84486 -0.13914 0.12814
 C378 C 0.81292 -0.14441 0.10726
 C379 C 0.78866 -0.17155 0.12837
 C380 C 0.79606 -0.19396 0.17067
 C381 C 0.82788 -0.18751 0.19192
 C382 C 0.85215 -0.16035 0.17071
 C383 C 0.87072 -0.11373 0.10511
 C384 C 0.89299 -0.09349 0.08600
 H385 H 0.80694 -0.12811 0.07439
 H386 H 0.76414 -0.17514 0.11146
 H387 H 0.83453 -0.20475 0.22417
 H388 H 0.87688 -0.15667 0.18711
 C389 C 0.84083 0.36654 0.63852
 C390 C 0.81172 0.35615 0.61352
 C391 C 0.78622 0.33004 0.63319
 C392 C 0.78919 0.31314 0.67855
 C393 C 0.81791 0.32607 0.70413
 C394 C 0.84352 0.35217 0.68413
 C395 C 0.86840 0.39004 0.61653
 C396 C 0.89153 0.40883 0.59740
 H397 H 0.80897 0.36756 0.57839
 H398 H 0.76405 0.32340 0.61245
 H399 H 0.82218 0.31375 0.73867
 H400 H 0.86595 0.35996 0.70397
 C401 C 0.34750 -0.14001 0.63287
 C402 C 0.31542 -0.14327 0.61164
 C403 C 0.29028 -0.16928 0.63215
 C404 C 0.29691 -0.19253 0.67421
 C405 C 0.32889 -0.18812 0.69586
 C406 C 0.35407 -0.16209 0.67522
 C407 C 0.37407 -0.11560 0.61034
 C408 C 0.39657 -0.09594 0.59117
 H409 H 0.31001 -0.12625 0.57893
 H410 H 0.26567 -0.17137 0.61498
 H411 H 0.33491 -0.20607 0.72796
 H412 H 0.37889 -0.15993 0.69188
 C413 C 0.34416 0.36305 0.13385
 C414 C 0.34988 0.34382 0.17754
 C415 C 0.32447 0.31865 0.19892
 C416 C 0.29301 0.31194 0.17681
 C417 C 0.28700 0.33311 0.13360
 C418 C 0.31238 0.35827 0.11231
 C419 C 0.37125 0.38612 0.11050
 C420 C 0.39419 0.40476 0.09090
 H421 H 0.37433 0.34733 0.19471
 H422 H 0.33013 0.30297 0.23191
 H423 H 0.26280 0.32971 0.11586
 H424 H 0.30742 0.37325 0.07869
 C425 C 0.84343 0.15180 -0.15304
 C426 C 0.83792 0.12788 -0.19378
 C427 C 0.81583 0.15004 -0.22663
 C428 C 0.79832 0.19696 -0.21956
 C429 C 0.80491 0.22133 -0.17857
 C430 C 0.82721 0.19880 -0.14562
 C431 C 0.86737 0.12829 -0.12061
 C432 C 0.88902 0.10702 -0.09650
 H433 H 0.85103 0.09198 -0.20045
 H434 H 0.81353 0.13030 -0.25805
 H435 H 0.79186 0.25675 -0.17047
 H436 H 0.83159 0.21792 -0.11427
 C437 C 0.84223 0.64831 0.35417
 C438 C 0.83677 0.62364 0.31372
 C439 C 0.81514 0.64568 0.28037
 C440 C 0.79831 0.69281 0.28702
 C441 C 0.80461 0.71794 0.32737
 C442 C 0.82643 0.69570 0.36086
 C443 C 0.86601 0.62540 0.38686
 C444 C 0.88765 0.60472 0.41118
 H445 H 0.84949 0.58737 0.30777
 H446 H 0.81182 0.62578 0.24918
 H447 H 0.79233 0.75429 0.33353
 H448 H 0.83101 0.71543 0.39181
 C449 C 0.34083 0.14923 0.35591
 C450 C 0.31125 0.12716 0.34303
 C451 C 0.28819 0.14971 0.31130
 C452 C 0.29452 0.19460 0.29151
 C453 C 0.32360 0.21739 0.30610
 C454 C 0.34671 0.19470 0.33787
 C455 C 0.36652 0.12352 0.38466
 C456 C 0.38921 0.10156 0.40664
 H457 H 0.30637 0.09203 0.35682
 H458 H 0.26546 0.13173 0.30220
 H459 H 0.32922 0.25192 0.29214
 H460 H 0.36963 0.21208 0.34751
 C461 C 0.34296 0.64786 -0.14753
 C462 C 0.32691 0.69479 -0.13913
 C463 C 0.30431 0.71775 -0.17138
 C464 C 0.29750 0.69384 -0.21221
 C465 C 0.31446 0.64712 -0.22054
 C466 C 0.33688 0.62434 -0.18840
 C467 C 0.36742 0.62430 -0.11603
 C468 C 0.38946 0.60328 -0.09252
 H469 H 0.33189 0.71359 -0.10781
 H470 H 0.29184 0.75371 -0.16392
 H471 H 0.31073 0.62816 -0.25213
 H472 H 0.34974 0.58842 -0.19563
 C473 C 1.16285 -0.13278 -0.15249
 C474 C 1.16079 -0.12120 -0.19872
 C475 C 1.18361 -0.14599 -0.22961
 C476 C 1.20886 -0.18238 -0.21449
 C477 C 1.21235 -0.19175 -0.16781
 C478 C 1.18929 -0.16706 -0.13683
 C479 C 1.13556 -0.11301 -0.12252
 C480 C 1.11143 -0.09650 -0.09939
 H481 H 1.14036 -0.09487 -0.21119
 H482 H 1.18029 -0.13887 -0.26561
 H483 H 1.23100 -0.22065 -0.15572
 H484 H 1.19092 -0.17650 -0.10113
 C485 C 1.16035 0.35489 0.35882
 C486 C 1.18093 0.38112 0.33018
 C487 C 1.20349 0.35643 0.29841
 C488 C 1.20521 0.30550 0.29491
 C489 C 1.18590 0.27943 0.32535
 C490 C 1.16366 0.30396 0.35709
 C491 C 1.13334 0.37956 0.38679
 C492 C 1.10947 0.39888 0.40899
 H493 H 1.17845 0.42059 0.33108
 H494 H 1.21795 0.37707 0.27492
 H495 H 1.18690 0.24008 0.32309
 H496 H 1.14788 0.28326 0.37891
 C497 C 0.66268 -0.13796 0.34560
 C498 C 0.66054 -0.12614 0.29942
 C499 C 0.68355 -0.15044 0.26843
 C500 C 0.70908 -0.18652 0.28341
 C501 C 0.71252 -0.19625 0.33003
 C502 C 0.68931 -0.17204 0.36110
 C503 C 0.63546 -0.11839 0.37577
 C504 C 0.61151 -0.10192 0.39924
 H505 H 0.63997 -0.09997 0.28707
 H506 H 0.68021 -0.14314 0.23246
 H507 H 0.73131 -0.22504 0.34199
 H508 H 0.69100 -0.18167 0.39676
 C509 C 0.66057 0.34880 -0.14712
 C510 C 0.65144 0.30470 -0.16427
 C511 C 0.67277 0.27856 -0.19573
 C512 C 0.70404 0.29584 -0.21136
 C513 C 0.71424 0.33898 -0.19163
 C514 C 0.69234 0.36564 -0.16014
 C515 C 0.63559 0.37684 -0.11854
 C516 C 0.61230 0.39775 -0.09637
 H517 H 0.62726 0.29081 -0.15398
 H518 H 0.66456 0.24418 -0.20721
 H519 H 0.73781 0.35403 -0.20239
 H520 H 0.69971 0.39988 -0.14698
 C521 C 1.15549 0.13299 -0.12889
 C522 C 1.17195 0.16713 -0.10366
 C523 C 1.19668 0.19383 -0.12428
 C524 C 1.20561 0.18613 -0.17045
 C525 C 1.18866 0.15150 -0.19522
 C526 C 1.16406 0.12496 -0.17454
 C527 C 1.12818 0.10844 -0.10888
 C528 C 1.10479 0.08869 -0.09227
 H529 H 1.16494 0.17412 -0.06840
 H530 H 1.20749 0.22156 -0.10427
 H531 H 1.19369 0.14600 -0.23118
 H532 H 1.15102 0.09912 -0.19451
 C533 C 1.15307 0.63155 0.37394
 C534 C 1.17153 0.66345 0.39926
 C535 C 1.19567 0.69067 0.37791
 C536 C 1.20185 0.68601 0.33076
 C537 C 1.18311 0.65342 0.30591
 C538 C 1.15911 0.62633 0.32732
 C539 C 1.12632 0.60651 0.39508
 C540 C 1.10326 0.58661 0.41256
 H541 H 1.16663 0.66822 0.43536
 H542 H 1.20825 0.71625 0.39842
 H543 H 1.18646 0.64983 0.26946
 H544 H 1.14464 0.60217 0.30728
 C545 C 0.65487 0.13049 0.36831
 C546 C 0.66080 0.12766 0.32158
 C547 C 0.68484 0.15567 0.30166
 C548 C 0.70362 0.18678 0.32817
 C549 C 0.69759 0.18894 0.37543
 C550 C 0.67340 0.16079 0.39529
 C551 C 0.62815 0.10467 0.38805
 C552 C 0.60517 0.08423 0.40478
 H553 H 0.64625 0.10467 0.30039
 H554 H 0.68825 0.15394 0.26512
 H555 H 0.71036 0.21312 0.39724
 H556 H 0.66854 0.16356 0.43154
 C557 C 0.65631 0.63202 -0.12615
 C558 C 0.66605 0.62161 -0.17101
 C559 C 0.69037 0.64806 -0.19246
 C560 C 0.70634 0.68508 -0.16919
 C561 C 0.69601 0.69510 -0.12365
 C562 C 0.67149 0.66846 -0.10233
 C563 C 0.62893 0.60747 -0.10593
 C564 C 0.60551 0.58740 -0.08958
 H565 H 0.65394 0.59411 -0.19003
 H566 H 0.69557 0.64067 -0.22812
 H567 H 0.70553 0.72483 -0.10486
 H568 H 0.66351 0.67741 -0.06773
 C569 C 0.84522 -0.13955 -0.13538
 C570 C 0.84462 -0.14575 -0.18260
 C571 C 0.81948 -0.17231 -0.20297
 C572 C 0.79447 -0.19389 -0.17640
 C573 C 0.79512 -0.18595 -0.12880
 C574 C 0.82015 -0.15938 -0.10874
 C575 C 0.87195 -0.11414 -0.11379
 C576 C 0.89448 -0.09390 -0.09500
 H577 H 0.86394 -0.13064 -0.20375
 H578 H 0.82102 -0.17702 -0.23931
 H579 H 0.77589 -0.19917 -0.10640
 H580 H 0.81998 -0.15449 -0.07218
 C581 C 0.84461 0.36151 0.37204
 C582 C 0.85194 0.34077 0.32911
 C583 C 0.82728 0.31496 0.30711
 C584 C 0.79508 0.30940 0.32797
 C585 C 0.78764 0.33149 0.37055
 C586 C 0.81225 0.35726 0.39241
 C587 C 0.87068 0.38562 0.39590
 C588 C 0.89293 0.40505 0.41578
 H589 H 0.87696 0.34375 0.31304
 H590 H 0.83390 0.29798 0.27461
 H591 H 0.76283 0.32856 0.38715
 H592 H 0.80621 0.37328 0.42550
 C593 C 0.34560 -0.14132 0.36746
 C594 C 0.35157 -0.16215 0.32426
 C595 C 0.32603 -0.18744 0.30337
 C596 C 0.29423 -0.19245 0.32556
 C597 C 0.28817 -0.17032 0.36844
 C598 C 0.31365 -0.14507 0.38918
 C599 C 0.37252 -0.11747 0.39020
 C600 C 0.39524 -0.09813 0.40941
 H601 H 0.37621 -0.15961 0.30707
 H602 H 0.33168 -0.20444 0.27063
 H603 H 0.26375 -0.17280 0.38615
 H604 H 0.30857 -0.12901 0.42247
 C605 C 0.34651 0.35952 -0.13366
 C606 C 0.34902 0.34887 -0.18015
 C607 C 0.32405 0.32286 -0.20137
 C608 C 0.29611 0.30652 -0.17625
 C609 C 0.29370 0.31880 -0.12953
 C610 C 0.31860 0.34482 -0.10862
 C611 C 0.37307 0.38403 -0.11109
 C612 C 0.39553 0.40365 -0.09175
 H613 H 0.37067 0.35988 -0.19991
 H614 H 0.32803 0.31387 -0.23686
 H615 H 0.27221 0.30933 -0.10873
 H616 H 0.31615 0.35320 -0.07268
 C617 C 1.15866 -0.13402 0.15295
 C618 C 1.15403 -0.12564 0.19959
 C619 C 1.17657 -0.15021 0.23073
 C620 C 1.20420 -0.18334 0.21564
 C621 C 1.21002 -0.18956 0.16878
 C622 C 1.18724 -0.16508 0.13750
 C623 C 1.13225 -0.11381 0.12192
 C624 C 1.10881 -0.09693 0.09791
 H625 H 1.13202 -0.10179 0.21200
 H626 H 1.17144 -0.14526 0.26675
 H627 H 1.23056 -0.21582 0.15645
 H628 H 1.19100 -0.17206 0.10149
 C629 C 1.16064 0.36652 0.65574
 C630 C 1.18787 0.33387 0.63906
 C631 C 1.21161 0.30958 0.66924
 C632 C 1.20808 0.31773 0.71618
 C633 C 1.18193 0.35253 0.73235
 C634 C 1.15842 0.37689 0.70228
 C635 C 1.13309 0.38629 0.62630
 C636 C 1.10894 0.40294 0.60342
 H637 H 1.18971 0.32540 0.60311
 H638 H 1.23094 0.28190 0.65627
 H639 H 1.17852 0.35870 0.76854
 H640 H 1.13745 0.40199 0.71558
 C641 C 0.66005 -0.13324 0.65693
 C642 C 0.64750 -0.14053 0.70063
 C643 C 0.66886 -0.16484 0.73301
 C644 C 0.70351 -0.18283 0.72252
 C645 C 0.71685 -0.17192 0.67935
 C646 C 0.69505 -0.14780 0.64657
 C647 C 0.63574 -0.11309 0.62319
 C648 C 0.61296 -0.09675 0.59787
 H649 H 0.62070 -0.12864 0.70941
 H650 H 0.65786 -0.16980 0.76637
 H651 H 0.74310 -0.18516 0.66934
 H652 H 0.70513 -0.14209 0.61280
 C653 C 0.66197 0.36695 0.15284
 C654 C 0.65896 0.37830 0.19914
 C655 C 0.68172 0.35421 0.23027
 C656 C 0.70787 0.31876 0.21535
 C657 C 0.71217 0.30957 0.16866
 C658 C 0.68920 0.33357 0.13744
 C659 C 0.63500 0.38614 0.12238
 C660 C 0.61118 0.40219 0.09874
 H661 H 0.63792 0.40393 0.21143
 H662 H 0.67772 0.36115 0.26626
 H663 H 0.73143 0.28127 0.15667
 H664 H 0.69158 0.32427 0.10170
 C665 C 0.84157 0.15279 0.14348
 C666 C 0.83577 0.12818 0.18381
 C667 C 0.81398 0.15032 0.21724
 C668 C 0.79730 0.19752 0.21078
 C669 C 0.80400 0.22263 0.17059
 C670 C 0.82599 0.20028 0.13703
 C671 C 0.86550 0.12967 0.11075
 C672 C 0.88734 0.10863 0.08664
 H673 H 0.84836 0.09185 0.18962
 H674 H 0.81046 0.13041 0.24830
 H675 H 0.79189 0.25905 0.16459
 H676 H 0.83085 0.22000 0.10621
 C677 C 0.83692 0.66084 0.64091
 C678 C 0.80979 0.63555 0.65688
 C679 C 0.78634 0.65686 0.68893
 C680 C 0.78955 0.70415 0.70632
 C681 C 0.81593 0.73039 0.68778
 C682 C 0.83961 0.70863 0.65573
 C683 C 0.86359 0.63565 0.61286
 C684 C 0.88661 0.61282 0.59180
 H685 H 0.80722 0.59869 0.64539
 H686 H 0.76552 0.63580 0.69957
 H687 H 0.81995 0.76651 0.69948
 H688 H 0.86070 0.72854 0.64368
 C689 C 0.34427 0.15129 0.64456
 C690 C 0.32755 0.19793 0.63674
 C691 C 0.30503 0.22042 0.66971
 C692 C 0.29896 0.19631 0.71066
 C693 C 0.31673 0.15004 0.71845
 C694 C 0.33904 0.12776 0.68564
 C695 C 0.36845 0.12782 0.61222
 C696 C 0.39032 0.10642 0.58834
 H697 H 0.33186 0.21680 0.60527
 H698 H 0.29196 0.25608 0.66269
 H699 H 0.31360 0.13098 0.75009
 H700 H 0.35241 0.09212 0.69247
 C701 C 0.34127 0.64938 0.14588
 C702 C 0.32529 0.69648 0.13833
 C703 C 0.30231 0.71895 0.17082
 C704 C 0.29495 0.69442 0.21112
 C705 C 0.31188 0.64752 0.21860
 C706 C 0.33467 0.62524 0.18623
 C707 C 0.36609 0.62615 0.11407
 C708 C 0.38835 0.60522 0.09036
 H709 H 0.33062 0.71585 0.10748
 H710 H 0.29004 0.75509 0.16394
 H711 H 0.30790 0.62799 0.24975
 H712 H 0.34743 0.58920 0.19291
   
