data_POSCAR
  _audit_creation_date              2014-09-24
  _audit_creation_method            'ToBaCCo'
  _symmetry_space_group_name_H-M    'P1'
  _symmetry_Int_Tables_number       1
  _symmetry_cell_setting            triclinic
  loop_
  _symmetry_equiv_pos_as_xyz
 x,y,z
_cell_length_a 20.2639
_cell_length_b 28.1880
_cell_length_c 14.2376
_cell_angle_alpha 89.085400
_cell_angle_beta 92.202400
_cell_angle_gamma 118.784800
loop_
  _atom_site_label
  _atom_site_type_symbol
  _atom_site_fract_x
  _atom_site_fract_y
  _atom_site_fract_z
O1 O 0.37505 0.93057 0.59185
 O2 O 0.39213 1.01252 0.38681
 O3 O 0.40085 0.92419 0.41468
 O4 O 0.38453 1.02423 0.56564
 O5 O 0.50803 1.06576 0.59081
 O6 O 0.52432 0.96964 0.43853
 O7 O 0.51571 1.05875 0.40831
 O8 O 0.49851 0.97153 0.61719
 Cu9 Cu 0.37604 0.96838 0.48710
 Cu10 Cu 0.52398 1.02058 0.51542
 C11 C 0.43223 0.93738 0.64096
 C12 C 0.45539 1.05009 0.36274
 C13 C 0.46643 0.93068 0.40091
 C14 C 0.44411 1.06141 0.60532
 O15 O -0.08447 0.45184 0.58145
 O16 O 0.06155 0.53381 0.40520
 O17 O -0.07652 0.45115 0.39561
 O18 O 0.03459 0.54706 0.57907
 O19 O 0.09128 0.49922 0.61874
 O20 O -0.01631 0.40432 0.42182
 O21 O 0.11911 0.48683 0.44663
 O22 O -0.02658 0.40304 0.60227
 Cu23 Cu -0.02200 0.50024 0.48689
 Cu24 Cu 0.04736 0.44405 0.52511
 C25 C -0.07947 0.41249 0.62083
 C26 C 0.11629 0.52365 0.39817
 C27 C -0.06594 0.41182 0.37615
 C28 C 0.08067 0.53982 0.63141
 O29 O 0.59350 0.49427 0.41471
 O30 O 0.60878 0.59925 0.58147
 O31 O 0.58851 0.50002 0.59892
 O32 O 0.62263 0.59523 0.40235
 O33 O 0.49960 0.56261 0.38277
 O34 O 0.46634 0.47198 0.58419
 O35 O 0.48624 0.56914 0.56262
 O36 O 0.47028 0.46284 0.40529
 Cu37 Cu 0.61576 0.55000 0.50132
 Cu38 Cu 0.46848 0.51381 0.48174
 C39 C 0.52830 0.46024 0.38279
 C40 C 0.54971 0.60200 0.59953
 C41 C 0.52171 0.47012 0.62545
 C42 C 0.56649 0.59483 0.35914
 O43 O 0.52302 0.73487 -0.10362
 O44 O 0.46868 0.80360 -0.09977
 C45 C 0.41458 0.81419 -0.09453
 O46 O 0.36277 0.79175 -0.03547
 O47 O 0.26346 0.69144 -0.07148
 C48 C 0.24947 0.64648 -0.10719
 O49 O 0.28401 0.62070 -0.08159
 O50 O 0.42101 0.65624 -0.13475
 C51 C 0.48690 0.69241 -0.15312
 O52 O 0.53425 0.73762 0.08462
 O53 O 0.48970 0.81030 0.08864
 C54 C 0.44203 0.80218 0.15068
 O55 O 0.37420 0.76496 0.14402
 O56 O 0.27023 0.66494 0.11069
 C57 C 0.28571 0.62827 0.13821
 O58 O 0.33187 0.61811 0.09750
 O59 O 0.46670 0.65031 0.04402
 C60 C 0.51781 0.68830 0.09364
 Cr61 Cr 0.50000 0.76946 -0.00751
 Cr62 Cr 0.32063 0.72760 0.03554
 Cr63 Cr 0.37659 0.63911 -0.01803
 O64 O 0.39883 0.71188 0.00308
 O65 O 0.49530 0.32079 -0.07203
 O66 O 0.47835 0.22614 -0.11761
 C67 C 0.50368 0.19482 -0.14011
 O68 O 0.55856 0.19349 -0.09555
 O69 O 0.69147 0.27594 -0.11913
 C70 C 0.73212 0.32582 -0.13646
 O71 O 0.73089 0.36339 -0.08925
 O72 O 0.61429 0.37881 -0.10240
 C73 C 0.54425 0.36070 -0.11675
 O74 O 0.50325 0.29714 0.10948
 O75 O 0.47761 0.20019 0.06438
 C76 C 0.51885 0.18419 0.10852
 O77 O 0.58817 0.20341 0.09357
 O78 O 0.72302 0.28291 0.06645
 C79 C 0.74638 0.32604 0.11415
 O80 O 0.72127 0.35914 0.10086
 O81 O 0.60595 0.37711 0.08854
 C82 C 0.54706 0.34589 0.13315
 Cr83 Cr 0.49292 0.26225 -0.00389
 Cr84 Cr 0.63869 0.24087 -0.01342
 Cr85 Cr 0.66551 0.36664 -0.00068
 O86 O 0.59939 0.29013 -0.00608
 N87 N 0.35415 0.86486 -0.15153
 N88 N 0.35733 0.89762 -0.22044
 C89 C 0.41761 0.90751 -0.27056
 C90 C 0.45181 0.87941 -0.23019
 N91 N 0.40972 0.85308 -0.15611
 H92 H 0.49905 0.87585 -0.25504
 N93 N 0.15272 0.64773 -0.21088
 N94 N 0.10718 0.62002 -0.28204
 C95 C 0.11857 0.57743 -0.29731
 C96 C 0.17261 0.57965 -0.23266
 N97 N 0.19232 0.62424 -0.18021
 H98 H 0.19624 0.55249 -0.22559
 N99 N 0.59756 0.71084 -0.24109
 N100 N 0.61735 0.68703 -0.30553
 C101 C 0.55370 0.64281 -0.33469
 C102 C 0.49438 0.64032 -0.28677
 N103 N 0.52399 0.68338 -0.22893
 H104 H 0.43627 0.60849 -0.28939
 N105 N 0.39976 0.14496 -0.25348
 N106 N 0.38114 0.10872 -0.32172
 C107 C 0.44009 0.09943 -0.32911
 C108 C 0.49509 0.13070 -0.26324
 N109 N 0.46782 0.15843 -0.21750
 H110 H 0.54921 0.13259 -0.24914
 N111 N 0.81614 0.30838 -0.22565
 N112 N 0.86764 0.33096 -0.28956
 C113 C 0.86935 0.37782 -0.31501
 C114 C 0.81688 0.38364 -0.26362
 N115 N 0.78545 0.33927 -0.20838
 H116 H 0.80468 0.41705 -0.26379
 N117 N 0.44622 0.37217 -0.20020
 N118 N 0.43815 0.40099 -0.26954
 C119 C 0.50772 0.43436 -0.30008
 C120 C 0.55910 0.42526 -0.24688
 N121 N 0.51817 0.38607 -0.18548
 H122 H 0.61963 0.44440 -0.25306
 N123 N 0.83780 0.30826 0.20337
 N124 N 0.88902 0.32998 0.27301
 C125 C 0.88753 0.37510 0.29984
 C126 C 0.83394 0.38036 0.24471
 N127 N 0.80421 0.33795 0.18550
 H128 H 0.81799 0.41186 0.24758
 N129 N 0.40936 0.11078 0.17582
 N130 N 0.39070 0.07407 0.24274
 C131 C 0.45529 0.08137 0.28611
 C132 C 0.51502 0.12406 0.24287
 N133 N 0.48337 0.14113 0.17443
 H134 H 0.57470 0.14126 0.25978
 N135 N 0.45931 0.33963 0.24903
 N136 N 0.45211 0.36890 0.31536
 C137 C 0.51725 0.41587 0.32080
 C138 C 0.56505 0.41476 0.25505
 N139 N 0.52628 0.36635 0.21162
 H140 H 0.62072 0.44643 0.23812
 N141 N 0.27967 0.56902 0.26463
 N142 N 0.23665 0.54160 0.33439
 C143 C 0.17862 0.55235 0.33423
 C144 C 0.18763 0.58801 0.26138
 N145 N 0.25149 0.59698 0.21969
 H146 H 0.15041 0.60379 0.23860
 N147 N 0.53868 0.86609 0.25700
 N148 N 0.54713 0.90073 0.32390
 C149 C 0.47813 0.89439 0.33938
 C150 C 0.42649 0.85416 0.28018
 N151 N 0.46693 0.83779 0.22991
 H152 H 0.36687 0.84081 0.27016
 N153 N 0.62511 0.70532 0.19966
 N154 N 0.64043 0.68086 0.27101
 C155 C 0.57825 0.63249 0.28164
 C156 C 0.52486 0.62778 0.21473
 N157 N 0.55616 0.67375 0.16492
 H158 H 0.46745 0.59530 0.20602
   
