data_POSCAR
  _audit_creation_date              2014-09-24
  _audit_creation_method            'ToBaCCo'
  _symmetry_space_group_name_H-M    'P1'
  _symmetry_Int_Tables_number       1
  _symmetry_cell_setting            triclinic
  loop_
  _symmetry_equiv_pos_as_xyz
 x,y,z
_cell_length_a 53.3749
_cell_length_b 53.3719
_cell_length_c 53.4175
_cell_angle_alpha 90.003000
_cell_angle_beta 89.993400
_cell_angle_gamma 90.033400
loop_
  _atom_site_label
  _atom_site_type_symbol
  _atom_site_fract_x
  _atom_site_fract_y
  _atom_site_fract_z
N1 N 0.16711 0.22667 0.23260
 N2 N 0.17403 0.20685 0.24550
 C3 C 0.15798 0.20354 0.26471
 C4 C 0.14025 0.22230 0.26361
 C5 C 0.14649 0.23668 0.24311
 H6 H 0.15909 0.18868 0.27844
 H7 H 0.13680 0.25317 0.23637
 Cu8 Cu 0.20340 0.18747 0.23581
 Cu9 Cu 0.18539 0.23804 0.20317
 Cu10 Cu 0.23765 0.20345 0.18563
 N11 N 0.23264 0.16804 0.22585
 N12 N 0.24598 0.17446 0.20615
 C13 C 0.26505 0.15819 0.20334
 C14 C 0.26347 0.14074 0.22230
 C15 C 0.24279 0.14740 0.23628
 H16 H 0.27902 0.15902 0.18867
 H17 H 0.23572 0.13795 0.25274
 N18 N 0.22617 0.23337 0.16729
 N19 N 0.20629 0.24652 0.17398
 C20 C 0.20329 0.26565 0.15781
 C21 C 0.22213 0.26436 0.14028
 C22 C 0.23633 0.24382 0.14668
 H23 H 0.18854 0.27951 0.15863
 H24 H 0.25279 0.23705 0.13700
 H25 H 0.19967 0.20338 0.19336
 H26 H 0.21990 0.22368 0.21357
 N27 N 0.66761 0.72692 0.73277
 N28 N 0.67486 0.70742 0.74599
 C29 C 0.65878 0.70401 0.76515
 C30 C 0.64071 0.72242 0.76374
 C31 C 0.64675 0.73664 0.74308
 H32 H 0.66006 0.68934 0.77906
 H33 H 0.63675 0.75282 0.73610
 Cu34 Cu 0.70449 0.68857 0.73623
 Cu35 Cu 0.68569 0.73833 0.70316
 Cu36 Cu 0.73803 0.70367 0.68551
 N37 N 0.73335 0.66867 0.72628
 N38 N 0.74635 0.67476 0.70624
 C39 C 0.76512 0.65821 0.70318
 C40 C 0.76370 0.64094 0.72228
 C41 C 0.74340 0.64795 0.73663
 H42 H 0.77878 0.65871 0.68822
 H43 H 0.73655 0.63866 0.75328
 N44 N 0.72645 0.73356 0.66716
 N45 N 0.70657 0.74672 0.67388
 C46 C 0.70363 0.76592 0.65778
 C47 C 0.72250 0.76464 0.64029
 C48 C 0.73666 0.74406 0.64662
 H49 H 0.68893 0.77983 0.65867
 H50 H 0.75315 0.73733 0.63697
 H51 H 0.70013 0.70373 0.69344
 H52 H 0.72042 0.72444 0.71288
 N53 N 0.33205 0.77343 0.73287
 N54 N 0.32481 0.79295 0.74609
 C55 C 0.34092 0.79633 0.76524
 C56 C 0.35898 0.77790 0.76382
 C57 C 0.35290 0.76369 0.74316
 H58 H 0.33967 0.81100 0.77916
 H59 H 0.36287 0.74749 0.73618
 Cu60 Cu 0.29516 0.81186 0.73635
 Cu61 Cu 0.31394 0.76201 0.70327
 Cu62 Cu 0.26162 0.79672 0.68568
 N63 N 0.26626 0.83181 0.72642
 N64 N 0.25325 0.82571 0.70638
 C65 C 0.23445 0.84227 0.70331
 C66 C 0.23589 0.85956 0.72242
 C67 C 0.25620 0.85256 0.73678
 H68 H 0.22079 0.84174 0.68836
 H69 H 0.26307 0.86185 0.75342
 N70 N 0.27316 0.76678 0.66729
 N71 N 0.29304 0.75360 0.67399
 C72 C 0.29595 0.73439 0.65789
 C73 C 0.27706 0.73565 0.64041
 C74 C 0.26293 0.75626 0.64675
 H75 H 0.31063 0.72047 0.65878
 H76 H 0.24644 0.76300 0.63712
 H77 H 0.29960 0.79656 0.69360
 H78 H 0.27932 0.77588 0.71306
 N79 N 0.83324 0.27313 0.23321
 N80 N 0.82633 0.29301 0.24605
 C81 C 0.84225 0.29629 0.26537
 C82 C 0.85992 0.27749 0.26435
 C83 C 0.85380 0.26310 0.24383
 H84 H 0.84109 0.31112 0.27912
 H85 H 0.86356 0.24664 0.23711
 Cu86 Cu 0.79710 0.31241 0.23615
 Cu87 Cu 0.81510 0.26176 0.20366
 Cu88 Cu 0.76285 0.29641 0.18599
 N89 N 0.76785 0.33181 0.22627
 N90 N 0.75450 0.32536 0.20658
 C91 C 0.73543 0.34163 0.20380
 C92 C 0.73698 0.35904 0.22277
 C93 C 0.75765 0.35239 0.23675
 H94 H 0.72152 0.34088 0.18909
 H95 H 0.76464 0.36182 0.25326
 N96 N 0.77441 0.26652 0.16764
 N97 N 0.79427 0.25335 0.17436
 C98 C 0.79725 0.23419 0.15822
 C99 C 0.77842 0.23549 0.14068
 C100 C 0.76425 0.25606 0.14704
 H101 H 0.81195 0.22028 0.15911
 H102 H 0.74778 0.26282 0.13738
 H103 H 0.80087 0.29632 0.19353
 H104 H 0.78068 0.27620 0.21372
 N105 N 0.83259 0.72701 0.26725
 N106 N 0.82569 0.70711 0.25443
 C107 C 0.84162 0.70385 0.23512
 C108 C 0.85931 0.72265 0.23611
 C109 C 0.85314 0.73705 0.25662
 H110 H 0.84050 0.68900 0.22139
 H111 H 0.86285 0.75356 0.26327
 Cu112 Cu 0.79648 0.68767 0.26436
 Cu113 Cu 0.81441 0.73839 0.29676
 Cu114 Cu 0.76214 0.70367 0.31442
 N115 N 0.76722 0.66826 0.27419
 N116 N 0.75384 0.67469 0.29386
 C117 C 0.73477 0.65840 0.29662
 C118 C 0.73638 0.64098 0.27766
 C119 C 0.75705 0.64766 0.26370
 H120 H 0.72081 0.65917 0.31127
 H121 H 0.76408 0.63821 0.24721
 N122 N 0.77368 0.73358 0.33274
 N123 N 0.79354 0.74678 0.32602
 C124 C 0.79647 0.76598 0.34211
 C125 C 0.77760 0.76468 0.35960
 C126 C 0.76346 0.74407 0.35328
 H127 H 0.81115 0.77993 0.34122
 H128 H 0.74698 0.73731 0.36293
 H129 H 0.80013 0.70383 0.30694
 H130 H 0.77996 0.72388 0.28669
 N131 N 0.33273 0.22678 -0.23304
 N132 N 0.32579 0.20692 -0.24594
 C133 C 0.34182 0.20361 -0.26519
 C134 C 0.35959 0.22237 -0.26412
 C135 C 0.35337 0.23677 -0.24361
 H136 H 0.34070 0.18873 -0.27890
 H137 H 0.36303 0.25332 -0.23698
 Cu138 Cu 0.29643 0.18751 -0.23609
 Cu139 Cu 0.31441 0.23815 -0.20351
 Cu140 Cu 0.26201 0.20350 -0.18595
 N141 N 0.26709 0.16811 -0.22625
 N142 N 0.25373 0.17453 -0.20655
 C143 C 0.23464 0.15825 -0.20378
 C144 C 0.23621 0.14080 -0.22271
 C145 C 0.25690 0.14747 -0.23668
 H146 H 0.22060 0.15911 -0.18920
 H147 H 0.26394 0.13799 -0.25313
 N148 N 0.27352 0.23343 -0.16759
 N149 N 0.29342 0.24661 -0.17425
 C150 C 0.29631 0.26580 -0.15810
 C151 C 0.27739 0.26448 -0.14064
 C152 C 0.26326 0.24389 -0.14705
 H153 H 0.31102 0.27971 -0.15891
 H154 H 0.24676 0.23711 -0.13744
 H155 H 0.29988 0.20368 -0.19339
 H156 H 0.27979 0.22381 -0.21358
 N157 N 0.66741 0.27304 -0.23284
 N158 N 0.67438 0.29283 -0.24580
 C159 C 0.65831 0.29617 -0.26500
 C160 C 0.64055 0.27740 -0.26391
 C161 C 0.64678 0.26300 -0.24339
 H162 H 0.65941 0.31104 -0.27871
 H163 H 0.63723 0.24637 -0.23682
 Cu164 Cu 0.70368 0.31232 -0.23593
 Cu165 Cu 0.68576 0.26172 -0.20331
 Cu166 Cu 0.73804 0.29646 -0.18573
 N167 N 0.73299 0.33175 -0.22607
 N168 N 0.74628 0.32543 -0.20630
 C169 C 0.76530 0.34176 -0.20350
 C170 C 0.76368 0.35922 -0.22242
 C171 C 0.74306 0.35247 -0.23644
 H172 H 0.77941 0.34086 -0.18898
 H173 H 0.73602 0.36194 -0.25290
 N174 N 0.72661 0.26651 -0.16740
 N175 N 0.70674 0.25329 -0.17407
 C176 C 0.70388 0.23411 -0.15790
 C177 C 0.72277 0.23547 -0.14042
 C178 C 0.73687 0.25608 -0.14684
 H179 H 0.68918 0.22018 -0.15870
 H180 H 0.75334 0.26292 -0.13721
 H181 H 0.70024 0.29628 -0.19336
 H182 H 0.72043 0.27609 -0.21349
 N183 N 0.16755 0.77344 0.26708
 N184 N 0.17484 0.79295 0.25386
 C185 C 0.15878 0.79632 0.23467
 C186 C 0.14070 0.77790 0.23607
 C187 C 0.14671 0.76370 0.25675
 H188 H 0.16008 0.81098 0.22075
 H189 H 0.13670 0.74750 0.26372
 Cu190 Cu 0.20449 0.81185 0.26365
 Cu191 Cu 0.18558 0.76204 0.29672
 Cu192 Cu 0.23791 0.79676 0.31440
 N193 N 0.23338 0.83181 0.27363
 N194 N 0.24634 0.82574 0.29370
 C195 C 0.26514 0.84230 0.29678
 C196 C 0.26375 0.85957 0.27765
 C197 C 0.24346 0.85255 0.26326
 H198 H 0.27878 0.84179 0.31175
 H199 H 0.23663 0.86182 0.24660
 N200 N 0.22628 0.76682 0.33278
 N201 N 0.20640 0.75365 0.32604
 C202 C 0.20341 0.73445 0.34214
 C203 C 0.22223 0.73573 0.35969
 C204 C 0.23643 0.75632 0.35336
 H205 H 0.18870 0.72054 0.34121
 H206 H 0.25291 0.76305 0.36303
 H207 H 0.19996 0.79661 0.30640
 H208 H 0.22026 0.77591 0.28700
 N209 N 0.47668 0.41703 0.48285
 N210 N 0.45683 0.42393 0.49574
 C211 C 0.45352 0.40786 0.51495
 C212 C 0.47229 0.39015 0.51391
 C213 C 0.48668 0.39642 0.49341
 H214 H 0.43864 0.40892 0.52865
 H215 H 0.50321 0.38677 0.48674
 Cu216 Cu 0.43738 0.45317 0.48585
 Cu217 Cu 0.48804 0.43532 0.45332
 Cu218 Cu 0.45328 0.48750 0.43567
 N219 N 0.41792 0.48237 0.47596
 N220 N 0.42428 0.49570 0.45623
 C221 C 0.40791 0.51467 0.45340
 C222 C 0.39046 0.51300 0.47233
 C223 C 0.39721 0.49240 0.48634
 H224 H 0.40867 0.52865 0.43876
 H225 H 0.38774 0.48533 0.50279
 N226 N 0.48327 0.47610 0.41736
 N227 N 0.49648 0.45627 0.42406
 C228 C 0.51563 0.45335 0.40788
 C229 C 0.51428 0.47218 0.39034
 C230 C 0.49367 0.48630 0.39674
 H231 H 0.52954 0.43865 0.40872
 H232 H 0.48684 0.50272 0.38706
 H233 H 0.47362 0.46987 0.46344
 H234 H 0.45350 0.44963 0.44330
 N235 N -0.02359 -0.08253 0.98275
 N236 N -0.04339 -0.07558 0.99568
 C237 C -0.04668 -0.09154 1.01496
 C238 C -0.02796 -0.10929 1.01388
 C239 C -0.01360 -0.10312 0.99334
 H240 H -0.06150 -0.09042 1.02872
 H241 H 0.00293 -0.11279 0.98672
 Cu242 Cu -0.06278 -0.04637 0.98589
 Cu243 Cu -0.01225 -0.06433 0.95319
 Cu244 Cu -0.04692 -0.01204 0.93562
 N245 N -0.08213 -0.01716 0.97605
 N246 N -0.07578 -0.00383 0.95632
 C247 C -0.09207 0.01521 0.95359
 C248 C -0.10943 0.01358 0.97258
 C249 C -0.10272 -0.00703 0.98656
 H250 H -0.09128 0.02925 0.93901
 H251 H -0.11213 -0.01406 1.00307
 N252 N -0.01705 -0.02355 0.91720
 N253 N -0.00386 -0.04342 0.92386
 C254 C 0.01527 -0.04634 0.90765
 C255 C 0.01392 -0.02746 0.89014
 C256 C -0.00665 -0.01333 0.89660
 H257 H 0.02918 -0.06104 0.90847
 H258 H -0.01347 0.00314 0.88698
 H259 H -0.02658 -0.02970 0.96324
 H260 H -0.04676 -0.04986 0.94316
 N261 N 1.02364 0.58251 0.98278
 N262 N 1.04349 0.57561 0.99566
 C263 C 1.04675 0.59155 1.01496
 C264 C 1.02795 0.60923 1.01394
 C265 C 1.01361 0.60307 0.99339
 H266 H 1.06156 0.59041 1.02873
 H267 H 0.99716 0.61281 0.98668
 Cu268 Cu 1.06288 0.54640 0.98579
 Cu269 Cu 1.01232 0.56432 0.95323
 Cu270 Cu 1.04697 0.51208 0.93561
 N271 N 1.08224 0.51719 0.97596
 N272 N 1.07585 0.50384 0.95625
 C273 C 1.09210 0.48478 0.95350
 C274 C 1.10946 0.48637 0.97250
 C275 C 1.10282 0.50704 0.98646
 H276 H 1.09138 0.47084 0.93881
 H277 H 1.11222 0.51403 1.00298
 N278 N 1.01711 0.52359 0.91722
 N279 N 1.00393 0.54345 0.92391
 C280 C 0.98479 0.54639 0.90773
 C281 C 0.98613 0.52753 0.89021
 C282 C 1.00670 0.51339 0.89662
 H283 H 0.97087 0.56108 0.90858
 H284 H 1.01350 0.49692 0.88699
 H285 H 1.02679 0.52980 0.96330
 H286 H 1.04693 0.54998 0.94312
 N287 N 0.52374 0.08242 0.48315
 N288 N 0.54325 0.07518 0.49636
 C289 C 0.54664 0.09124 0.51556
 C290 C 0.52822 0.10932 0.51418
 C291 C 0.51401 0.10326 0.49349
 H292 H 0.56131 0.08996 0.52946
 H293 H 0.49781 0.11324 0.48653
 Cu294 Cu 0.56214 0.04562 0.48654
 Cu295 Cu 0.51241 0.06427 0.45345
 Cu296 Cu 0.54714 0.01204 0.43572
 N297 N 0.58203 0.01685 0.47655
 N298 N 0.57600 0.00385 0.45649
 C299 C 0.59259 -0.01486 0.45342
 C300 C 0.60982 -0.01336 0.47252
 C301 C 0.60277 0.00687 0.48691
 H302 H 0.59215 -0.02852 0.43847
 H303 H 0.61203 0.01372 0.50356
 N304 N 0.51723 0.02355 0.41735
 N305 N 0.50403 0.04340 0.42407
 C306 C 0.48485 0.04630 0.40792
 C307 C 0.48619 0.02745 0.39037
 C308 C 0.50680 0.01334 0.39676
 H309 H 0.47091 0.06095 0.40882
 H310 H 0.51360 -0.00314 0.38713
 H311 H 0.52645 0.02944 0.46310
 H312 H 0.54712 0.04980 0.44369
 N313 N -0.02400 0.08272 0.51692
 N314 N -0.04388 0.07583 0.50407
 C315 C -0.04721 0.09182 0.48483
 C316 C -0.02841 0.10950 0.48581
 C317 C -0.01401 0.10332 0.50631
 H318 H -0.06209 0.09072 0.47111
 H319 H 0.00240 0.11312 0.51304
 Cu320 Cu -0.06326 0.04663 0.51395
 Cu321 Cu -0.01260 0.06449 0.54645
 Cu322 Cu -0.04731 0.01224 0.56411
 N323 N -0.08265 0.01747 0.52380
 N324 N -0.07625 0.00410 0.54348
 C325 C -0.09259 -0.01490 0.54627
 C326 C -0.10998 -0.01323 0.52733
 C327 C -0.10331 0.00740 0.51336
 H328 H -0.09195 -0.02880 0.56099
 H329 H -0.11277 0.01445 0.49690
 N330 N -0.01736 0.02370 0.58243
 N331 N -0.00415 0.04356 0.57573
 C332 C 0.01499 0.04650 0.59193
 C333 C 0.01362 0.02766 0.60947
 C334 C -0.00697 0.01351 0.60304
 H335 H 0.02890 0.06121 0.59108
 H336 H -0.01381 -0.00294 0.61269
 H337 H -0.02711 0.02993 0.53649
 H338 H -0.04717 0.05009 0.55667
 N339 N 0.47655 0.58278 0.01720
 N340 N 0.45632 0.57624 0.00469
 C341 C 0.45310 0.59215 -0.01464
 C342 C 0.47228 0.60946 -0.01399
 C343 C 0.48684 0.60308 0.00633
 H344 H 0.43805 0.59126 -0.02817
 H345 H 0.50363 0.61248 0.01271
 Cu346 Cu 0.43674 0.54733 0.01512
 Cu347 Cu 0.48808 0.56448 0.04667
 Cu348 Cu 0.45327 0.51223 0.06432
 N349 N 0.41744 0.51787 0.02441
 N350 N 0.42417 0.50416 0.04376
 C351 C 0.40808 0.48489 0.04627
 C352 C 0.39049 0.48672 0.02751
 C353 C 0.39684 0.50772 0.01389
 H354 H 0.40910 0.47064 0.06063
 H355 H 0.38721 0.51497 -0.00239
 N356 N 0.48331 0.52364 0.08260
 N357 N 0.49653 0.54349 0.07589
 C358 C 0.51568 0.54643 0.09207
 C359 C 0.51431 0.52759 0.10961
 C360 C 0.49371 0.51346 0.10321
 H361 H 0.52959 0.56115 0.09124
 H362 H 0.48685 0.49703 0.11289
 H363 H 0.47324 0.53017 0.03645
 H364 H 0.45378 0.55021 0.05736
 N365 N 0.52346 -0.08267 0.01730
 N366 N 0.54334 -0.07578 0.00445
 C367 C 0.54663 -0.09175 -0.01482
 C368 C 0.52781 -0.10942 -0.01384
 C369 C 0.51342 -0.10323 0.00667
 H370 H 0.56150 -0.09065 -0.02853
 H371 H 0.49697 -0.11300 0.01337
 Cu372 Cu 0.56280 -0.04659 0.01435
 Cu373 Cu 0.51209 -0.06446 0.04684
 Cu374 Cu 0.54691 -0.01226 0.06452
 N375 N 0.58227 -0.01741 0.02422
 N376 N 0.57590 -0.00405 0.04392
 C377 C 0.59228 0.01495 0.04671
 C378 C 0.60969 0.01329 0.02775
 C379 C 0.60295 -0.00734 0.01378
 H380 H 0.59163 0.02886 0.06143
 H381 H 0.61237 -0.01440 -0.00270
 N382 N 0.51693 -0.02371 0.08287
 N383 N 0.50369 -0.04355 0.07615
 C384 C 0.48453 -0.04647 0.09234
 C385 C 0.48590 -0.02764 0.10989
 C386 C 0.50652 -0.01352 0.10349
 H387 H 0.47059 -0.06116 0.09148
 H388 H 0.51338 0.00291 0.11315
 H389 H 0.52659 -0.02998 0.03684
 H390 H 0.54664 -0.05020 0.05699
 N391 N 1.02335 0.41754 0.51684
 N392 N 1.04322 0.42443 0.50396
 C393 C 1.04644 0.40851 0.48464
 C394 C 1.02762 0.39084 0.48566
 C395 C 1.01328 0.39700 0.50621
 H396 H 1.06126 0.40964 0.47088
 H397 H 0.99680 0.38727 0.51291
 Cu398 Cu 1.06267 0.45360 0.51388
 Cu399 Cu 1.01206 0.43573 0.54641
 Cu400 Cu 1.04682 0.48793 0.56405
 N401 N 1.08209 0.48279 0.52369
 N402 N 1.07571 0.49615 0.54340
 C403 C 1.09200 0.51519 0.54616
 C404 C 1.10936 0.51359 0.52717
 C405 C 1.10267 0.49295 0.51318
 H406 H 1.09130 0.52912 0.56085
 H407 H 1.11208 0.48594 0.49667
 N408 N 1.01695 0.47643 0.58244
 N409 N 1.00372 0.45658 0.57574
 C410 C 0.98457 0.45367 0.59192
 C411 C 0.98596 0.47252 0.60945
 C412 C 1.00656 0.48664 0.60304
 H413 H 0.97062 0.43900 0.59107
 H414 H 1.01339 0.50310 0.61266
 H415 H 1.02662 0.47025 0.53636
 H416 H 1.04671 0.45003 0.55655
 Si417 Si 0.37419 -0.00045 0.25032
 Si418 Si 0.12544 -0.00052 0.74956
 Si419 Si 0.62573 0.49980 0.24995
 Si420 Si 0.87470 0.50015 0.74987
 Si421 Si 0.24995 0.37551 -0.00006
 Si422 Si 0.75023 0.12457 0.00023
 Si423 Si 0.25006 0.62438 0.49991
 Si424 Si 0.74991 0.87555 0.49993
 Si425 Si -0.00053 0.25013 0.37463
 Si426 Si 0.00003 0.75000 0.12491
 Si427 Si 0.50018 0.24979 0.62601
 Si428 Si 0.49989 0.75009 0.87473
 C429 C 0.11964 0.22619 0.28044
 C430 C 0.10235 0.22953 0.29456
 C431 C 0.08206 0.23356 0.31102
 C432 C 0.06466 0.23706 0.32497
 C433 C 0.04417 0.24118 0.34116
 C434 C 0.02651 0.24471 0.35476
 C435 C 0.62003 0.72626 0.78051
 C436 C 0.60269 0.72965 0.79456
 C437 C 0.58239 0.73372 0.81099
 C438 C 0.56502 0.73721 0.82497
 C439 C 0.54456 0.74129 0.84121
 C440 C 0.52693 0.74477 0.85485
 C441 C 0.37968 0.77402 0.78057
 C442 C 0.39705 0.77058 0.79458
 C443 C 0.41738 0.76647 0.81098
 C444 C 0.43476 0.76295 0.82495
 C445 C 0.45522 0.75886 0.84119
 C446 C 0.47286 0.75538 0.85484
 C447 C -0.12057 0.27387 0.28030
 C448 C -0.10324 0.27057 0.29439
 C449 C -0.08293 0.26661 0.31083
 C450 C -0.06557 0.26314 0.32482
 C451 C -0.04515 0.25904 0.34109
 C452 C -0.02754 0.25551 0.35474
 C453 C -0.12006 0.72648 0.21927
 C454 C -0.10273 0.72976 0.20519
 C455 C -0.08240 0.73367 0.18874
 C456 C -0.06502 0.73708 0.17474
 C457 C -0.04459 0.74113 0.15847
 C458 C -0.02698 0.74464 0.14480
 C459 C 0.37915 0.22605 0.71989
 C460 C 0.39654 0.22936 0.70580
 C461 C 0.41702 0.23331 0.68942
 C462 C 0.43455 0.23674 0.67553
 C463 C 0.45520 0.24083 0.65940
 C464 C 0.47297 0.24437 0.64586
 C465 C 0.62107 0.27362 0.72003
 C466 C 0.60373 0.27025 0.70589
 C467 C 0.58328 0.26629 0.68949
 C468 C 0.56576 0.26284 0.67560
 C469 C 0.54513 0.25873 0.65945
 C470 C 0.52738 0.25519 0.64589
 C471 C 0.12003 0.77401 0.21928
 C472 C 0.10270 0.77058 0.20523
 C473 C 0.08242 0.76647 0.18878
 C474 C 0.06507 0.76295 0.17477
 C475 C 0.04465 0.75886 0.15849
 C476 C 0.02704 0.75536 0.14482
 C477 C 0.28009 0.12002 0.22664
 C478 C 0.29411 0.10267 0.23020
 C479 C 0.31057 0.08236 0.23426
 C480 C 0.32457 0.06497 0.23764
 C481 C 0.34079 0.04443 0.24160
 C482 C 0.35436 0.02671 0.24503
 C483 C 0.78024 0.62015 0.72647
 C484 C 0.79429 0.60281 0.72988
 C485 C 0.81082 0.58257 0.73381
 C486 C 0.82489 0.56525 0.73718
 C487 C 0.84120 0.54483 0.74115
 C488 C 0.85484 0.52720 0.74460
 C489 C 0.78035 0.37990 0.77322
 C490 C 0.79439 0.39725 0.76975
 C491 C 0.81083 0.41761 0.76586
 C492 C 0.82484 0.43501 0.76255
 C493 C 0.84114 0.45546 0.75859
 C494 C 0.85481 0.47310 0.75514
 C495 C 0.27945 -0.12071 0.27368
 C496 C 0.29352 -0.10333 0.27028
 C497 C 0.31009 -0.08303 0.26636
 C498 C 0.32418 -0.06567 0.26302
 C499 C 0.34054 -0.04521 0.25906
 C500 C 0.35424 -0.02756 0.25563
 C501 C 0.22020 -0.12072 0.72639
 C502 C 0.20613 -0.10335 0.72978
 C503 C 0.18956 -0.08306 0.73367
 C504 C 0.17546 -0.06571 0.73698
 C505 C 0.15910 -0.04526 0.74090
 C506 C 0.14539 -0.02762 0.74429
 C507 C 0.72043 0.37983 0.22700
 C508 C 0.70642 0.39721 0.23038
 C509 C 0.68992 0.41751 0.23422
 C510 C 0.67583 0.43484 0.23749
 C511 C 0.65943 0.45522 0.24135
 C512 C 0.64569 0.47280 0.24472
 C513 C 0.71986 0.62016 0.27341
 C514 C 0.70591 0.60274 0.26998
 C515 C 0.68951 0.58236 0.26605
 C516 C 0.67552 0.56496 0.26271
 C517 C 0.65925 0.54450 0.25872
 C518 C 0.64559 0.52686 0.25526
 C519 C 0.21954 0.12008 0.77299
 C520 C 0.20548 0.10272 0.76956
 C521 C 0.18901 0.08235 0.76567
 C522 C 0.17503 0.06491 0.76233
 C523 C 0.15883 0.04436 0.75833
 C524 C 0.14526 0.02663 0.75485
 C525 C 0.22616 0.28108 0.11965
 C526 C 0.22952 0.29518 0.10237
 C527 C 0.23347 0.31171 0.08216
 C528 C 0.23690 0.32577 0.06487
 C529 C 0.24100 0.34205 0.04450
 C530 C 0.24456 0.35568 0.02691
 C531 C 0.72659 0.78141 0.61974
 C532 C 0.72998 0.79553 0.60251
 C533 C 0.73391 0.81203 0.58232
 C534 C 0.73727 0.82605 0.56500
 C535 C 0.74124 0.84224 0.54458
 C536 C 0.74466 0.85581 0.52693
 C537 C 0.77349 0.78144 0.38015
 C538 C 0.77008 0.79555 0.39738
 C539 C 0.76610 0.81205 0.41757
 C540 C 0.76270 0.82606 0.43488
 C541 C 0.75869 0.84225 0.45530
 C542 C 0.75522 0.85581 0.47294
 C543 C 0.27321 0.28121 -0.12002
 C544 C 0.26974 0.29528 -0.10274
 C545 C 0.26573 0.31176 -0.08250
 C546 C 0.26236 0.32579 -0.06517
 C547 C 0.25847 0.34205 -0.04473
 C548 C 0.25513 0.35568 -0.02709
 C549 C 0.72696 0.21878 -0.11979
 C550 C 0.73044 0.20473 -0.10249
 C551 C 0.73446 0.18827 -0.08223
 C552 C 0.73783 0.17427 -0.06488
 C553 C 0.74173 0.15803 -0.04443
 C554 C 0.74506 0.14441 -0.02679
 C555 C 0.22625 0.71893 0.38027
 C556 C 0.22958 0.70479 0.39752
 C557 C 0.23351 0.68822 0.41770
 C558 C 0.23695 0.67415 0.43499
 C559 C 0.24107 0.65787 0.45535
 C560 C 0.24466 0.64423 0.47294
 C561 C 0.27294 0.71885 0.61984
 C562 C 0.26954 0.70470 0.60260
 C563 C 0.26563 0.68815 0.58240
 C564 C 0.26234 0.67410 0.56507
 C565 C 0.25851 0.65783 0.54462
 C566 C 0.25521 0.64420 0.52696
 C567 C 0.77436 0.21876 0.12006
 C568 C 0.77096 0.20468 0.10278
 C569 C 0.76694 0.18819 0.08255
 C570 C 0.76344 0.17418 0.06523
 C571 C 0.75927 0.15796 0.04483
 C572 C 0.75566 0.14436 0.02722
 C573 C 0.47623 0.36953 0.53081
 C574 C 0.47964 0.35223 0.54496
 C575 C 0.48372 0.33197 0.56153
 C576 C 0.48722 0.31466 0.57564
 C577 C 0.49132 0.29430 0.59208
 C578 C 0.49482 0.27676 0.60589
 C579 C -0.02405 0.87014 0.03077
 C580 C -0.02067 0.85283 0.04485
 C581 C -0.01663 0.83247 0.06124
 C582 C -0.01312 0.81507 0.07517
 C583 C -0.00895 0.79462 0.09139
 C584 C -0.00537 0.77701 0.10503
 C585 C 0.02410 0.62986 0.03077
 C586 C 0.02075 0.64720 0.04483
 C587 C 0.01670 0.66753 0.06123
 C588 C 0.01318 0.68492 0.07518
 C589 C 0.00900 0.70537 0.09140
 C590 C 0.00543 0.72299 0.10503
 C591 C 0.52435 0.13000 0.53101
 C592 C 0.52093 0.14732 0.54512
 C593 C 0.51680 0.16759 0.56165
 C594 C 0.51324 0.18489 0.57575
 C595 C 0.50908 0.20524 0.59218
 C596 C 0.50555 0.22278 0.60597
 C597 C -0.02459 0.13014 0.46899
 C598 C -0.02125 0.14745 0.45489
 C599 C -0.01718 0.16771 0.43840
 C600 C -0.01366 0.18506 0.42440
 C601 C -0.00953 0.20551 0.40816
 C602 C -0.00598 0.22313 0.39453
 C603 C 0.47624 0.63003 0.96913
 C604 C 0.47964 0.64735 0.95505
 C605 C 0.48366 0.66766 0.93861
 C606 C 0.48710 0.68504 0.92462
 C607 C 0.49114 0.70548 0.90834
 C608 C 0.49460 0.72308 0.89466
 C609 C 0.52395 0.86996 0.96930
 C610 C 0.52056 0.85267 0.95518
 C611 C 0.51647 0.83243 0.93866
 C612 C 0.51295 0.81510 0.92462
 C613 C 0.50882 0.79469 0.90832
 C614 C 0.50527 0.77709 0.89465
 C615 C 0.02373 0.37023 0.46882
 C616 C 0.02035 0.35290 0.45475
 C617 C 0.01627 0.33258 0.43833
 C618 C 0.01272 0.31519 0.42438
 C619 C 0.00851 0.29475 0.40816
 C620 C 0.00491 0.27713 0.39453
 C621 C 0.36969 0.52952 0.47663
 C622 C 0.35233 0.54352 0.48010
 C623 C 0.33208 0.56002 0.48406
 C624 C 0.31479 0.57413 0.48740
 C625 C 0.29447 0.59055 0.49129
 C626 C 0.27695 0.60435 0.49467
 C627 C 0.86991 0.03016 -0.02306
 C628 C 0.85261 0.04418 -0.01960
 C629 C 0.83236 0.06064 -0.01572
 C630 C 0.81505 0.07469 -0.01241
 C631 C 0.79471 0.09101 -0.00847
 C632 C 0.77715 0.10471 -0.00504
 C633 C 0.63053 0.02975 0.02351
 C634 C 0.64792 0.04373 0.02007
 C635 C 0.66817 0.06025 0.01613
 C636 C 0.68546 0.07437 0.01280
 C637 C 0.70579 0.09078 0.00889
 C638 C 0.72332 0.10457 0.00549
 C639 C 0.13013 0.53008 0.52293
 C640 C 0.14750 0.54405 0.51954
 C641 C 0.16778 0.56050 0.51569
 C642 C 0.18511 0.57455 0.51242
 C643 C 0.20549 0.59086 0.50854
 C644 C 0.22308 0.60454 0.50515
 C645 C 0.13019 0.46987 -0.02324
 C646 C 0.14754 0.45589 -0.01983
 C647 C 0.16779 0.43944 -0.01594
 C648 C 0.18510 0.42539 -0.01262
 C649 C 0.20544 0.40907 -0.00870
 C650 C 0.22301 0.39538 -0.00530
 C651 C 0.63060 0.97020 0.47671
 C652 C 0.64792 0.95620 0.48010
 C653 C 0.66809 0.93969 0.48400
 C654 C 0.68532 0.92557 0.48734
 C655 C 0.70556 0.90918 0.49127
 C656 C 0.72305 0.89542 0.49468
 C657 C 0.86924 0.97032 0.52310
 C658 C 0.85191 0.95632 0.51967
 C659 C 0.83175 0.93979 0.51574
 C660 C 0.81452 0.92566 0.51241
 C661 C 0.79425 0.90926 0.50851
 C662 C 0.77674 0.89550 0.50514
 C663 C 0.36974 0.47017 0.02322
 C664 C 0.35237 0.45617 0.01981
 C665 C 0.33207 0.43971 0.01592
 C666 C 0.31474 0.42564 0.01261
 C667 C 0.29440 0.40926 0.00867
 C668 C 0.27686 0.39549 0.00524
 C669 C 0.53100 0.47630 0.36969
 C670 C 0.54510 0.47971 0.35241
 C671 C 0.56164 0.48369 0.33218
 C672 C 0.57573 0.48708 0.31488
 C673 C 0.59208 0.49107 0.29451
 C674 C 0.60580 0.49451 0.27693
 C675 C 0.03060 -0.02334 0.86944
 C676 C 0.04465 -0.01992 0.85211
 C677 C 0.06117 -0.01600 0.83184
 C678 C 0.07526 -0.01271 0.81452
 C679 C 0.09167 -0.00891 0.79414
 C680 C 0.10545 -0.00564 0.77656
 C681 C 0.03033 0.02354 0.63014
 C682 C 0.04441 0.02008 0.64744
 C683 C 0.06096 0.01603 0.66765
 C684 C 0.07510 0.01254 0.68489
 C685 C 0.09158 0.00841 0.70515
 C686 C 0.10540 0.00485 0.72263
 C687 C 0.53102 0.52349 0.13027
 C688 C 0.54510 0.52006 0.14756
 C689 C 0.56164 0.51605 0.16777
 C690 C 0.57573 0.51261 0.18505
 C691 C 0.59209 0.50856 0.20540
 C692 C 0.60581 0.50509 0.22296
 C693 C 0.46917 -0.02352 0.13056
 C694 C 0.45508 -0.02012 0.14786
 C695 C 0.43852 -0.01618 0.16810
 C696 C 0.42440 -0.01285 0.18540
 C697 C 0.40797 -0.00898 0.20576
 C698 C 0.39419 -0.00564 0.22332
 C699 C 0.96927 0.47665 0.63010
 C700 C 0.95523 0.48010 0.64741
 C701 C 0.93874 0.48410 0.66765
 C702 C 0.92468 0.48751 0.68496
 C703 C 0.90833 0.49148 0.70532
 C704 C 0.89462 0.49490 0.72289
 C705 C 0.96943 0.52342 0.86956
 C706 C 0.95537 0.52002 0.85226
 C707 C 0.93885 0.51608 0.83202
 C708 C 0.92476 0.51273 0.81473
 C709 C 0.90839 0.50880 0.79438
 C710 C 0.89465 0.50540 0.77682
 C711 C 0.46944 0.02331 0.36973
 C712 C 0.45532 0.01988 0.35246
 C713 C 0.43872 0.01588 0.33227
 C714 C 0.42455 0.01245 0.31503
 C715 C 0.40807 0.00840 0.29475
 C716 C 0.39424 0.00489 0.27726
   
