data_POSCAR
  _audit_creation_date              2014-09-24
  _audit_creation_method            'ToBaCCo'
  _symmetry_space_group_name_H-M    'P1'
  _symmetry_Int_Tables_number       1
  _symmetry_cell_setting            triclinic
  loop_
  _symmetry_equiv_pos_as_xyz
 x,y,z
_cell_length_a 67.2139
_cell_length_b 67.2733
_cell_length_c 38.9476
_cell_angle_alpha 90.197200
_cell_angle_beta 89.968100
_cell_angle_gamma 90.056100
loop_
  _atom_site_label
  _atom_site_type_symbol
  _atom_site_fract_x
  _atom_site_fract_y
  _atom_site_fract_z
C1 C 0.00272 0.26200 -0.02362
 C2 C 0.00291 0.26330 0.01134
 C3 C -0.01573 0.26553 0.03151
 C4 C 0.02181 0.26239 0.03102
 C5 C 0.02145 0.26142 -0.04386
 C6 C -0.01614 0.26077 -0.04339
 C7 C -0.02927 0.28075 0.02439
 C8 C -0.04723 0.28207 0.04231
 C9 C -0.05227 0.26825 0.06843
 C10 C -0.03788 0.25345 0.07608
 C11 C -0.02000 0.25219 0.05794
 C12 C 0.02707 0.27807 0.05303
 C13 C 0.04529 0.27785 0.07029
 C14 C 0.05851 0.26182 0.06613
 C15 C 0.05291 0.24584 0.04485
 C16 C 0.03470 0.24609 0.02755
 C17 C 0.02498 0.24552 -0.06643
 C18 C 0.04287 0.24433 -0.08457
 C19 C 0.05752 0.25910 -0.08065
 C20 C 0.05371 0.27529 -0.05867
 C21 C 0.03579 0.27649 -0.04059
 C22 C -0.03018 0.24580 -0.03669
 C23 C -0.04788 0.24487 -0.05544
 C24 C -0.05182 0.25882 -0.08137
 C25 C -0.03759 0.27360 -0.08832
 C26 C -0.01988 0.27449 -0.06962
 H27 H -0.02593 0.29165 0.00482
 H28 H -0.05657 0.29461 0.03618
 H29 H -0.04059 0.24180 0.09449
 H30 H -0.00971 0.24029 0.06382
 H31 H 0.01724 0.29069 0.05625
 H32 H 0.04905 0.29021 0.08695
 H33 H 0.03077 0.23371 0.01105
 H34 H 0.01407 0.23378 -0.06935
 H35 H 0.04544 0.23158 -0.10101
 H36 H 0.06456 0.28707 -0.05559
 H37 H 0.03315 0.28909 -0.02383
 H38 H -0.02741 0.23487 -0.01692
 H39 H -0.05861 0.23339 -0.04937
 H40 H -0.04005 0.28435 -0.10851
 H41 H -0.00915 0.28603 -0.07539
 H42 H 0.06281 0.23335 0.04094
 C43 C 0.49739 0.76598 0.47701
 C44 C 0.49735 0.76664 0.51202
 C45 C 0.47848 0.76818 0.53173
 C46 C 0.51597 0.76513 0.53231
 C47 C 0.51614 0.76625 0.45670
 C48 C 0.47850 0.76420 0.45747
 C49 C 0.46500 0.78369 0.52557
 C50 C 0.44675 0.78429 0.54275
 C51 C 0.44173 0.76949 0.56667
 C52 C 0.45555 0.75433 0.57353
 C53 C 0.47377 0.75373 0.55631
 C54 C 0.52041 0.77961 0.55713
 C55 C 0.53795 0.77843 0.57623
 C56 C 0.55129 0.76261 0.57108
 C57 C 0.54661 0.74790 0.54664
 C58 C 0.52907 0.74911 0.52753
 C59 C 0.51924 0.75192 0.43102
 C60 C 0.53699 0.75155 0.41243
 C61 C 0.55210 0.76551 0.41913
 C62 C 0.54876 0.78021 0.44427
 C63 C 0.53089 0.78067 0.46265
 C64 C 0.46551 0.74823 0.46339
 C65 C 0.44744 0.74698 0.44585
 C66 C 0.44210 0.76160 0.42186
 C67 C 0.45537 0.77733 0.41543
 C68 C 0.47347 0.77855 0.43295
 H69 H 0.46853 0.79519 0.50715
 H70 H 0.43659 0.79636 0.53739
 H71 H 0.45205 0.74261 0.59153
 H72 H 0.48399 0.74166 0.56144
 H73 H 0.51037 0.79196 0.56144
 H74 H 0.54098 0.78979 0.59527
 H75 H 0.52572 0.73758 0.50893
 H76 H 0.50799 0.74078 0.42570
 H77 H 0.53886 0.74032 0.39271
 H78 H 0.56009 0.79112 0.45023
 H79 H 0.52865 0.79216 0.48180
 H80 H 0.46929 0.73686 0.48187
 H81 H 0.43748 0.73477 0.45155
 H82 H 0.45177 0.78864 0.39672
 H83 H 0.48341 0.79088 0.42786
 H84 H 0.55664 0.73560 0.54196
 C85 C 0.99820 0.74036 -0.02349
 C86 C 0.99835 0.73943 0.01142
 C87 C 1.01729 0.73886 0.03094
 C88 C 0.97969 0.73949 0.03189
 C89 C 0.97956 0.74323 -0.04326
 C90 C 1.01684 0.73872 -0.04360
 C91 C 1.02096 0.72329 0.05391
 C92 C 1.03857 0.72286 0.07294
 C93 C 1.05274 0.73812 0.06955
 C94 C 1.04892 0.75379 0.04669
 C95 C 1.03132 0.75420 0.02768
 C96 C 0.96460 0.72547 0.02580
 C97 C 0.94697 0.72602 0.04486
 C98 C 0.94419 0.74050 0.07057
 C99 C 0.95950 0.75427 0.07696
 C100 C 0.97709 0.75371 0.05792
 C101 C 0.96696 0.75940 -0.03644
 C102 C 0.94926 0.76171 -0.05479
 C103 C 0.94395 0.74801 -0.08057
 C104 C 0.95684 0.73208 -0.08780
 C105 C 0.97450 0.72977 -0.06939
 C106 C 1.02370 0.75502 -0.06239
 C107 C 1.04155 0.75387 -0.08064
 C108 C 1.05278 0.73611 -0.08133
 C109 C 1.04536 0.71960 -0.06293
 C110 C 1.02772 0.72099 -0.04404
 H111 H 1.01018 0.71145 0.05703
 H112 H 1.04096 0.71076 0.09072
 H113 H 1.05961 0.76568 0.04334
 H114 H 1.02856 0.76655 0.01059
 H115 H 0.96648 0.71412 0.00628
 H116 H 0.93559 0.71501 0.03970
 H117 H 0.98856 0.76465 0.06303
 H118 H 0.97083 0.77022 -0.01688
 H119 H 0.93982 0.77433 -0.04907
 H120 H 0.95307 0.72118 -0.10726
 H121 H 0.98407 0.71724 -0.07511
 H122 H 1.01532 0.76877 -0.06254
 H123 H 1.04602 0.76677 -0.09525
 H124 H 1.05354 0.70579 -0.06163
 H125 H 1.02256 0.70824 -0.02961
 H126 H 0.95773 0.76577 0.09625
 C127 C 0.50339 0.23197 0.47713
 C128 C 0.50305 0.22965 0.51187
 C129 C 0.52169 0.22765 0.53199
 C130 C 0.48404 0.22962 0.53128
 C131 C 0.48478 0.23253 0.45681
 C132 C 0.52235 0.23430 0.45807
 C133 C 0.53554 0.21269 0.52424
 C134 C 0.55383 0.21205 0.54125
 C135 C 0.55854 0.22628 0.56653
 C136 C 0.54427 0.24075 0.57514
 C137 C 0.52599 0.24137 0.55812
 C138 C 0.47897 0.21329 0.55177
 C139 C 0.46072 0.21280 0.56899
 C140 C 0.44728 0.22873 0.56617
 C141 C 0.45267 0.24530 0.54630
 C142 C 0.47092 0.24578 0.52918
 C143 C 0.47960 0.24986 0.43905
 C144 C 0.46134 0.25112 0.42211
 C145 C 0.44816 0.23490 0.42207
 C146 C 0.45370 0.21729 0.43882
 C147 C 0.47184 0.21615 0.45622
 C148 C 0.53562 0.24973 0.46626
 C149 C 0.55405 0.25099 0.44985
 C150 C 0.55950 0.23690 0.42482
 C151 C 0.54591 0.22184 0.41594
 C152 C 0.52745 0.22062 0.43230
 H153 H 0.53233 0.20175 0.50454
 H154 H 0.56433 0.20048 0.53451
 H155 H 0.54749 0.25204 0.59424
 H156 H 0.51548 0.25301 0.56446
 H157 H 0.48897 0.20073 0.55379
 H158 H 0.45694 0.19977 0.58387
 H159 H 0.47478 0.25872 0.51412
 H160 H 0.48945 0.26262 0.43925
 H161 H 0.45744 0.26478 0.40913
 H162 H 0.44373 0.20463 0.43926
 H163 H 0.47569 0.20263 0.46968
 H164 H 0.53182 0.26056 0.48583
 H165 H 0.56426 0.26268 0.45738
 H166 H 0.54960 0.21097 0.39639
 H167 H 0.51733 0.20870 0.42552
 H168 H 0.44283 0.25797 0.54421
 C169 C 0.73069 0.01122 -0.01424
 C170 C 0.72902 0.01049 0.02065
 C171 C 0.72978 -0.00871 0.03927
 C172 C 0.72733 0.02886 0.04180
 C173 C 0.73303 0.03039 -0.03261
 C174 C 0.73078 -0.00713 -0.03564
 C175 C 0.71403 -0.01434 0.06062
 C176 C 0.71425 -0.03276 0.07708
 C177 C 0.73044 -0.04600 0.07300
 C178 C 0.74650 -0.03977 0.05212
 C179 C 0.74615 -0.02140 0.03559
 C180 C 0.71290 0.04333 0.03451
 C181 C 0.71276 0.06139 0.05237
 C182 C 0.72685 0.06520 0.07826
 C183 C 0.74061 0.05024 0.08667
 C184 C 0.74083 0.03226 0.06864
 C185 C 0.74839 0.04358 -0.02403
 C186 C 0.74999 0.06193 -0.04045
 C187 C 0.73639 0.06753 -0.06638
 C188 C 0.72137 0.05373 -0.07547
 C189 C 0.71978 0.03544 -0.05884
 C190 C 0.74631 -0.01048 -0.05888
 C191 C 0.74697 -0.02791 -0.07840
 C192 C 0.73199 -0.04260 -0.07534
 C193 C 0.71614 -0.03876 -0.05234
 C194 C 0.71550 -0.02123 -0.03299
 H195 H 0.70140 -0.00456 0.06417
 H196 H 0.70190 -0.03618 0.09385
 H197 H 0.75907 -0.04934 0.04692
 H198 H 0.75856 -0.01718 0.01940
 H199 H 0.70210 0.04085 0.01431
 H200 H 0.70202 0.07259 0.04511
 H201 H 0.75196 0.02123 0.07493
 H202 H 0.75915 0.03967 -0.00449
 H203 H 0.76242 0.07130 -0.03336
 H204 H 0.71008 0.05723 -0.09423
 H205 H 0.70782 0.02541 -0.06582
 H206 H 0.75829 0.00023 -0.06126
 H207 H 0.75988 -0.03009 -0.09452
 H208 H 0.70371 -0.04886 -0.04987
 H209 H 0.70305 -0.01866 -0.01590
 H210 H 0.75137 0.05252 0.10699
 C211 C 0.23519 0.49062 0.49404
 C212 C 0.23600 0.49011 0.52903
 C213 C 0.23561 0.47101 0.54816
 C214 C 0.23771 0.50859 0.54981
 C215 C 0.23359 0.50963 0.47491
 C216 C 0.23597 0.47214 0.47312
 C217 C 0.22054 0.45691 0.54237
 C218 C 0.22100 0.43856 0.55903
 C219 C 0.23632 0.43411 0.58231
 C220 C 0.25095 0.44854 0.58908
 C221 C 0.25059 0.46682 0.57215
 C222 C 0.22395 0.51242 0.57609
 C223 C 0.22519 0.52992 0.59539
 C224 C 0.24032 0.54387 0.58892
 C225 C 0.25435 0.53976 0.56305
 C226 C 0.25312 0.52225 0.54380
 C227 C 0.24736 0.51401 0.44894
 C228 C 0.24620 0.53192 0.43102
 C229 C 0.23114 0.54576 0.43853
 C230 C 0.21715 0.54118 0.46420
 C231 C 0.21830 0.52324 0.48210
 C232 C 0.25190 0.45879 0.47632
 C233 C 0.25207 0.44107 0.45750
 C234 C 0.23636 0.43644 0.43501
 C235 C 0.22069 0.45008 0.43125
 C236 C 0.22056 0.46782 0.45000
 H237 H 0.20855 0.46004 0.52463
 H238 H 0.20934 0.42785 0.55381
 H239 H 0.26298 0.44547 0.60675
 H240 H 0.26229 0.47752 0.57713
 H241 H 0.21202 0.50200 0.58122
 H242 H 0.21406 0.53273 0.61492
 H243 H 0.26416 0.51934 0.52417
 H244 H 0.25923 0.50369 0.44296
 H245 H 0.25734 0.53509 0.41170
 H246 H 0.20516 0.55137 0.47016
 H247 H 0.20727 0.51995 0.50154
 H248 H 0.26407 0.46201 0.49369
 H249 H 0.26427 0.43080 0.46109
 H250 H 0.20855 0.44704 0.41373
 H251 H 0.20823 0.47802 0.44700
 H252 H 0.26641 0.55002 0.55790
 C253 C 0.26751 0.99039 -0.00497
 C254 C 0.26551 0.98987 0.02987
 C255 C 0.26564 1.00832 0.05093
 C256 C 0.26272 0.97081 0.04841
 C257 C 0.26916 0.97188 -0.02563
 C258 C 0.26765 1.00947 -0.02404
 C259 C 0.28121 1.02209 0.04826
 C260 C 0.28059 1.03995 0.06658
 C261 C 0.26446 1.04448 0.08860
 C262 C 0.24931 1.03002 0.09214
 C263 C 0.24993 1.01223 0.07355
 C264 C 0.27609 0.96534 0.07433
 C265 C 0.27403 0.94710 0.09103
 C266 C 0.25840 0.93411 0.08238
 C267 C 0.24473 0.93987 0.05698
 C268 C 0.24685 0.95808 0.04021
 C269 C 0.25568 0.96822 -0.05226
 C270 C 0.25617 0.95026 -0.07032
 C271 C 0.27029 0.93538 -0.06232
 C272 C 0.28431 0.93968 -0.03623
 C273 C 0.28378 0.95769 -0.01832
 C274 C 0.25171 1.02277 -0.02136
 C275 C 0.25222 1.04098 -0.03848
 C276 C 0.26877 1.04644 -0.05886
 C277 C 0.28455 1.03262 -0.06182
 C278 C 0.28389 1.01437 -0.04485
 H279 H 0.29383 1.01905 0.03174
 H280 H 0.29318 1.04986 0.06400
 H281 H 0.23626 1.03268 0.10771
 H282 H 0.23776 1.00176 0.07601
 H283 H 0.28833 0.97506 0.08117
 H284 H 0.28459 0.94320 0.11086
 H285 H 0.23622 0.96218 0.02058
 H286 H 0.24425 0.97901 -0.05825
 H287 H 0.24462 0.94784 -0.08917
 H288 H 0.29615 0.92946 -0.02995
 H289 H 0.29471 0.96050 0.00155
 H290 H 0.23894 1.01915 -0.00558
 H291 H 0.23992 1.05103 -0.03417
 H292 H 0.29725 1.03544 -0.07815
 H293 H 0.29622 1.00413 -0.04759
 H294 H 0.23261 0.93013 0.04965
 C295 C 0.75630 0.51085 0.48530
 C296 C 0.75622 0.51023 0.52028
 C297 C 0.75694 0.52866 0.54140
 C298 C 0.75501 0.49114 0.53919
 C299 C 0.75756 0.49247 0.46416
 C300 C 0.75492 0.52996 0.46648
 C301 C 0.77226 0.54264 0.53710
 C302 C 0.77242 0.56018 0.55643
 C303 C 0.75735 0.56399 0.58065
 C304 C 0.74227 0.54974 0.58535
 C305 C 0.74213 0.53222 0.56602
 C306 C 0.76937 0.48657 0.56404
 C307 C 0.76843 0.46863 0.58193
 C308 C 0.75299 0.45500 0.57553
 C309 C 0.73843 0.45977 0.55099
 C310 C 0.73940 0.47771 0.53307
 C311 C 0.74316 0.48871 0.43891
 C312 C 0.74390 0.47127 0.41938
 C313 C 0.75917 0.45732 0.42453
 C314 C 0.77382 0.46134 0.44937
 C315 C 0.77308 0.47880 0.46889
 C316 C 0.73912 0.54315 0.47256
 C317 C 0.73827 0.56134 0.45543
 C318 C 0.75309 0.56659 0.43161
 C319 C 0.76862 0.55311 0.42498
 C320 C 0.76947 0.53494 0.44217
 H321 H 0.78405 0.53997 0.51869
 H322 H 0.78441 0.57070 0.55263
 H323 H 0.73032 0.55232 0.60346
 H324 H 0.73020 0.52161 0.56974
 H325 H 0.78141 0.49684 0.56936
 H326 H 0.77967 0.46551 0.60107
 H327 H 0.72798 0.48112 0.51440
 H328 H 0.73111 0.49910 0.43482
 H329 H 0.73226 0.46852 0.40075
 H330 H 0.78596 0.45106 0.45353
 H331 H 0.78458 0.48164 0.48775
 H332 H 0.72749 0.53938 0.49067
 H333 H 0.72593 0.57124 0.46061
 H334 H 0.78036 0.55680 0.40705
 H335 H 0.78172 0.52491 0.43704
 H336 H 0.72643 0.44952 0.54536
 O337 O 0.25038 0.21413 0.24656
 O338 O 0.24430 0.26345 0.28659
 O339 O 0.22228 0.24074 0.24745
 O340 O 0.27208 0.23669 0.28600
 O341 O 0.28531 0.25024 0.23977
 O342 O 0.23532 0.25499 0.20176
 O343 O 0.25773 0.27740 0.24096
 O344 O 0.26327 0.22821 0.20056
 Cu345 Cu 0.24589 0.23737 0.27122
 Cu346 Cu 0.26166 0.25417 0.21616
 C347 C 0.25793 0.21273 0.21672
 C348 C 0.25023 0.27885 0.27080
 C349 C 0.22026 0.24847 0.21795
 C350 C 0.28723 0.24265 0.26943
 O351 O 0.75439 0.78897 0.24525
 O352 O 0.75648 0.73930 0.28414
 O353 O 0.77916 0.75933 0.24247
 O354 O 0.73150 0.76880 0.28645
 O355 O 0.71541 0.75600 0.24226
 O356 O 0.76293 0.74717 0.19788
 O357 O 0.74054 0.72675 0.23957
 O358 O 0.73789 0.77665 0.20110
 Cu359 Cu 0.75701 0.76535 0.26902
 Cu360 Cu 0.73758 0.75041 0.21573
 C361 C 0.74578 0.79135 0.21654
 C362 C 0.74888 0.72451 0.26858
 C363 C 0.77919 0.75170 0.21256
 C364 C 0.71529 0.76387 0.27195
 O365 O 0.78801 0.25385 0.25916
 O366 O 0.73803 0.24961 0.29757
 O367 O 0.75999 0.22718 0.25817
 O368 O 0.76633 0.27598 0.29946
 O369 O 0.75348 0.29059 0.25398
 O370 O 0.74673 0.24156 0.21282
 O371 O 0.72515 0.26432 0.25222
 O372 O 0.77493 0.26825 0.21369
 Cu373 Cu 0.76439 0.25019 0.28313
 Cu374 Cu 0.74879 0.26761 0.22859
 C375 C 0.79001 0.26176 0.22978
 C376 C 0.72304 0.25636 0.28151
 C377 C 0.75228 0.22597 0.22848
 C378 C 0.76097 0.29165 0.28390
 O379 O 0.21781 0.73831 0.24295
 O380 O 0.26701 0.74406 0.28347
 O381 O 0.24531 0.76548 0.24244
 O382 O 0.23930 0.71705 0.28484
 O383 O 0.25317 0.70217 0.24034
 O384 O 0.25946 0.75073 0.19806
 O385 O 0.28093 0.72909 0.23910
 O386 O 0.23187 0.72355 0.19850
 Cu387 Cu 0.24094 0.74269 0.26788
 Cu388 Cu 0.25774 0.72489 0.21454
 C389 C 0.21644 0.73005 0.21365
 C390 C 0.28240 0.73751 0.26822
 C391 C 0.25342 0.76643 0.21302
 C392 C 0.24527 0.70132 0.26996
 O393 O 0.76202 0.27444 0.70072
 O394 O 0.75662 0.22573 0.74221
 O395 O 0.73475 0.24685 0.70122
 O396 O 0.78367 0.25332 0.74269
 O397 O 0.76913 0.26798 0.78677
 O398 O 0.72030 0.26097 0.74592
 O399 O 0.74238 0.24006 0.78691
 O400 O 0.74723 0.28880 0.74486
 Cu401 Cu 0.76074 0.24870 0.71722
 Cu402 Cu 0.74332 0.26593 0.77054
 C403 C 0.75544 0.28996 0.71553
 C404 C 0.74863 0.22453 0.77169
 C405 C 0.71912 0.25269 0.71663
 C406 C 0.78474 0.26166 0.77197
 O407 O 0.28145 0.73934 0.75209
 O408 O 0.23314 0.73498 0.79577
 O409 O 0.25370 0.71237 0.75364
 O410 O 0.26089 0.76172 0.79314
 O411 O 0.24580 0.77558 0.74903
 O412 O 0.23922 0.72642 0.70912
 O413 O 0.21823 0.74832 0.75094
 O414 O 0.26681 0.75352 0.70784
 Cu415 Cu 0.25871 0.73562 0.77810
 Cu416 Cu 0.24099 0.75232 0.72480
 C417 C 0.28246 0.74732 0.72263
 C418 C 0.21745 0.74104 0.78097
 C419 C 0.24545 0.71098 0.72437
 C420 C 0.25458 0.77711 0.77780
 O421 O 0.26723 0.22181 0.80411
 O422 O 0.26421 0.27148 0.76467
 O423 O 0.24159 0.25078 0.80533
 O424 O 0.29012 0.24276 0.76388
 O425 O 0.27511 0.22984 0.71869
 O426 O 0.22649 0.23776 0.76029
 O427 O 0.24895 0.25844 0.71979
 O428 O 0.25211 0.20889 0.75901
 Cu429 Cu 0.26734 0.24798 0.78901
 Cu430 Cu 0.24923 0.23238 0.73489
 C431 C 0.26001 0.20686 0.78841
 C432 C 0.25592 0.27347 0.73556
 C433 C 0.22572 0.24570 0.78991
 C434 C 0.29095 0.23506 0.73411
 O435 O 0.72960 0.77143 0.70768
 O436 O 0.77721 0.76702 0.75361
 O437 O 0.75800 0.74522 0.70905
 O438 O 0.74873 0.79313 0.75224
 O439 O 0.73345 0.77749 0.79439
 O440 O 0.74295 0.72959 0.75146
 O441 O 0.76202 0.75145 0.79593
 O442 O 0.71442 0.75568 0.74981
 Cu443 Cu 0.75492 0.77076 0.72641
 Cu444 Cu 0.73669 0.75198 0.77713
 C445 C 0.71386 0.76428 0.72083
 C446 C 0.77776 0.75857 0.78272
 C447 C 0.75200 0.72919 0.72282
 C448 C 0.73951 0.79352 0.78073
 C449 C 0.25233 0.06525 0.13676
 C450 C 0.25082 0.08367 0.15324
 C451 C 0.26023 0.10053 0.13981
 C452 C 0.27118 0.09857 0.10921
 C453 C 0.27282 0.08015 0.09278
 C454 C 0.26333 0.06306 0.10605
 C455 C 0.25755 0.11986 0.15777
 C456 C 0.26919 0.13580 0.15266
 C457 C 0.26592 0.15524 0.16979
 C458 C 0.27300 0.17247 0.15368
 C459 C 0.27030 0.19112 0.16880
 C460 C 0.26063 0.19294 0.20066
 C461 C 0.25379 0.17567 0.21709
 C462 C 0.25642 0.15700 0.20188
 H463 H 0.24531 0.05268 0.14907
 H464 H 0.24230 0.08471 0.17680
 H465 H 0.27805 0.11124 0.09704
 H466 H 0.28070 0.07979 0.06858
 H467 H 0.24534 0.12085 0.17579
 H468 H 0.28136 0.13503 0.13456
 H469 H 0.28051 0.17151 0.12911
 H470 H 0.27586 0.20412 0.15554
 H471 H 0.24645 0.17656 0.24181
 H472 H 0.25133 0.14403 0.21568
 C473 C 0.75150 0.58296 0.63537
 C474 C 0.75056 0.60079 0.65379
 C475 C 0.75543 0.61890 0.63810
 C476 C 0.76116 0.61882 0.60331
 C477 C 0.76204 0.60097 0.58485
 C478 C 0.75714 0.58285 0.60062
 C479 C 0.75335 0.63749 0.65837
 C480 C 0.76312 0.65439 0.65115
 C481 C 0.76050 0.67322 0.67069
 C482 C 0.76632 0.69112 0.65519
 C483 C 0.76376 0.70927 0.67218
 C484 C 0.75537 0.70993 0.70523
 C485 C 0.74997 0.69200 0.72112
 C486 C 0.75259 0.67384 0.70419
 H487 H 0.74784 0.56924 0.64839
 H488 H 0.74601 0.60043 0.68048
 H489 H 0.76436 0.63249 0.58988
 H490 H 0.76602 0.60144 0.55792
 H491 H 0.74331 0.63696 0.68003
 H492 H 0.77321 0.65476 0.62951
 H493 H 0.77262 0.69109 0.62958
 H494 H 0.76815 0.72281 0.65926
 H495 H 0.74370 0.69198 0.74675
 H496 H 0.74857 0.66044 0.71773
 C497 C 0.71253 0.92521 0.09741
 C498 C 0.71262 0.90639 0.11248
 C499 C 0.73056 0.89687 0.12023
 C500 C 0.74853 0.90639 0.11199
 C501 C 0.74851 0.92514 0.09670
 C502 C 0.73050 0.93502 0.08904
 C503 C 0.73000 0.87677 0.13565
 C504 C 0.74463 0.86962 0.15547
 C505 C 0.74417 0.84954 0.17094
 C506 C 0.75519 0.84611 0.20091
 C507 C 0.75554 0.82729 0.21591
 C508 C 0.74507 0.81137 0.20094
 C509 C 0.73418 0.81473 0.17072
 C510 C 0.73374 0.83361 0.15583
 H511 H 0.69821 0.93150 0.09103
 H512 H 0.69855 0.89921 0.11806
 H513 H 0.76270 0.89932 0.11683
 H514 H 0.76281 0.93201 0.09205
 H515 H 0.71663 0.86805 0.13181
 H516 H 0.75706 0.87913 0.16213
 H517 H 0.76350 0.85808 0.21286
 H518 H 0.76416 0.82517 0.23908
 H519 H 0.72608 0.80275 0.15843
 H520 H 0.72558 0.83553 0.13214
 C521 C 0.23406 0.39698 0.57956
 C522 C 0.23549 0.37830 0.59490
 C523 C 0.24018 0.37646 0.62990
 C524 C 0.24307 0.39392 0.64942
 C525 C 0.24179 0.41261 0.63397
 C526 C 0.23731 0.41433 0.59889
 C527 C 0.24147 0.35615 0.64468
 C528 C 0.24925 0.35197 0.67561
 C529 C 0.25068 0.33157 0.69006
 C530 C 0.26277 0.32857 0.71901
 C531 C 0.26451 0.30974 0.73382
 C532 C 0.25421 0.29342 0.71992
 C533 C 0.24202 0.29637 0.69111
 C534 C 0.24012 0.31522 0.67649
 H535 H 0.23077 0.39785 0.55239
 H536 H 0.23307 0.36518 0.57921
 H537 H 0.24608 0.39341 0.67664
 H538 H 0.24404 0.42578 0.64958
 H539 H 0.23637 0.34415 0.62841
 H540 H 0.25560 0.36379 0.69091
 H541 H 0.27096 0.34085 0.73023
 H542 H 0.27399 0.30797 0.75606
 H543 H 0.23368 0.28414 0.68008
 H544 H 0.23011 0.31676 0.65500
 C545 C 0.91312 0.27902 0.07084
 C546 C 0.89463 0.27915 0.08725
 C547 C 0.89190 0.26957 0.11872
 C548 C 0.90812 0.25966 0.13347
 C549 C 0.92664 0.25941 0.11713
 C550 C 0.92971 0.26899 0.08513
 C551 C 0.87175 0.26949 0.13429
 C552 C 0.86827 0.26651 0.16784
 C553 C 0.84804 0.26582 0.18315
 C554 C 0.84553 0.25641 0.21499
 C555 C 0.82673 0.25515 0.23024
 C556 C 0.81001 0.26338 0.21403
 C557 C 0.81255 0.27314 0.18249
 C558 C 0.83134 0.27445 0.16728
 H559 H 0.91364 0.28591 0.04585
 H560 H 0.88228 0.28664 0.07499
 H561 H 0.90662 0.25171 0.15742
 H562 H 0.93855 0.25220 0.13088
 H563 H 0.85942 0.27202 0.11703
 H564 H 0.88064 0.26403 0.18504
 H565 H 0.85813 0.24980 0.22796
 H566 H 0.82531 0.24760 0.25464
 H567 H 0.80000 0.27987 0.16954
 H568 H 0.83262 0.28249 0.14341
 C569 C 0.40471 0.77441 0.56537
 C570 C 0.38605 0.77374 0.58120
 C571 C 0.38422 0.76800 0.61565
 C572 C 0.40156 0.76363 0.63441
 C573 C 0.42022 0.76434 0.61860
 C574 C 0.42199 0.76955 0.58382
 C575 C 0.36410 0.76705 0.63120
 C576 C 0.35958 0.75501 0.65750
 C577 C 0.33954 0.75355 0.67334
 C578 C 0.33794 0.74490 0.70597
 C579 C 0.31944 0.74290 0.72195
 C580 C 0.30203 0.74942 0.70554
 C581 C 0.30354 0.75790 0.67272
 C582 C 0.32206 0.75990 0.65671
 H583 H 0.40555 0.77830 0.53845
 H584 H 0.37295 0.77733 0.56627
 H585 H 0.40087 0.75994 0.66139
 H586 H 0.43330 0.76099 0.63372
 H587 H 0.35273 0.77625 0.61979
 H588 H 0.37108 0.74571 0.66834
 H589 H 0.35110 0.73973 0.71927
 H590 H 0.31882 0.73624 0.74720
 H591 H 0.29038 0.76292 0.65928
 H592 H 0.32245 0.76608 0.63115
 C593 C 0.07875 0.75535 0.10498
 C594 C 0.09634 0.75510 0.12406
 C595 C 0.10705 0.73739 0.12830
 C596 C 0.09950 0.71974 0.11379
 C597 C 0.08187 0.71998 0.09477
 C598 C 0.07137 0.73781 0.08999
 C599 C 0.12573 0.73790 0.14849
 C600 C 0.14047 0.72466 0.14443
 C601 C 0.15959 0.72589 0.16324
 C602 C 0.17657 0.71733 0.14841
 C603 C 0.19500 0.71854 0.16487
 C604 C 0.19679 0.72818 0.19680
 C605 C 0.17968 0.73629 0.21213
 C606 C 0.16125 0.73513 0.19560
 H607 H 0.07080 0.76925 0.10228
 H608 H 0.10170 0.76885 0.13531
 H609 H 0.10697 0.70566 0.11735
 H610 H 0.07656 0.70623 0.08347
 H611 H 0.12786 0.75044 0.16560
 H612 H 0.13917 0.71325 0.12491
 H613 H 0.17566 0.70995 0.12369
 H614 H 0.20786 0.71203 0.15245
 H615 H 0.18052 0.74365 0.23687
 H616 H 0.14838 0.74131 0.20842
 C617 C 0.59569 0.22269 0.56357
 C618 C 0.61451 0.22376 0.57872
 C619 C 0.61658 0.22887 0.61348
 C620 C 0.59934 0.23216 0.63322
 C621 C 0.58051 0.23103 0.61810
 C622 C 0.57847 0.22649 0.58303
 C623 C 0.63687 0.23033 0.62826
 C624 C 0.64132 0.24213 0.65504
 C625 C 0.66154 0.24429 0.66998
 C626 C 0.66333 0.25302 0.70262
 C627 C 0.68198 0.25571 0.71775
 C628 C 0.69937 0.24982 0.70048
 C629 C 0.69767 0.24121 0.66768
 C630 C 0.67899 0.23852 0.65251
 H631 H 0.59466 0.21936 0.53642
 H632 H 0.62754 0.22099 0.56302
 H633 H 0.60026 0.23536 0.66041
 H634 H 0.56752 0.23358 0.63396
 H635 H 0.64841 0.22180 0.61574
 H636 H 0.62960 0.25079 0.66691
 H637 H 0.65020 0.25773 0.71659
 H638 H 0.68275 0.26243 0.74302
 H639 H 0.71079 0.23665 0.65359
 H640 H 0.67847 0.23228 0.62694
 C641 C 0.74654 0.10285 0.93434
 C642 C 0.74761 0.12145 0.91861
 C643 C 0.74015 0.12428 0.88544
 C644 C 0.73116 0.10816 0.86845
 C645 C 0.72999 0.08955 0.88414
 C646 C 0.73770 0.08643 0.91746
 C647 C 0.74145 0.14432 0.86991
 C648 C 0.74160 0.14741 0.83590
 C649 C 0.74329 0.16740 0.82031
 C650 C 0.75096 0.16899 0.78694
 C651 C 0.75273 0.18753 0.77119
 C652 C 0.74666 0.20490 0.78838
 C653 C 0.73866 0.20329 0.82161
 C654 C 0.73695 0.18474 0.83741
 H655 H 0.75196 0.10180 0.96040
 H656 H 0.75430 0.13373 0.93252
 H657 H 0.72477 0.10984 0.84315
 H658 H 0.72358 0.07756 0.86927
 H659 H 0.74344 0.15678 0.88723
 H660 H 0.74162 0.13480 0.81857
 H661 H 0.75576 0.15585 0.77309
 H662 H 0.75886 0.18824 0.74549
 H663 H 0.73368 0.21637 0.83542
 H664 H 0.73034 0.18406 0.86271
 C665 C 0.22550 0.58267 0.43722
 C666 C 0.22508 0.60077 0.41972
 C667 C 0.22950 0.60162 0.38453
 C668 C 0.23373 0.58382 0.36689
 C669 C 0.23411 0.56572 0.38438
 C670 C 0.23017 0.56494 0.41980
 C671 C 0.22920 0.62123 0.36719
 C672 C 0.23977 0.62523 0.33875
 C673 C 0.24027 0.64493 0.32161
 C674 C 0.24782 0.64603 0.28804
 C675 C 0.24925 0.66426 0.27111
 C676 C 0.24322 0.68190 0.28745
 C677 C 0.23564 0.68086 0.32104
 C678 C 0.23425 0.66263 0.33801
 H679 H 0.22255 0.58261 0.46456
 H680 H 0.22163 0.61422 0.43387
 H681 H 0.23644 0.58370 0.33952
 H682 H 0.23728 0.55226 0.37006
 H683 H 0.22037 0.63274 0.37916
 H684 H 0.24872 0.61361 0.32728
 H685 H 0.25270 0.63269 0.27484
 H686 H 0.25521 0.66453 0.24527
 H687 H 0.23103 0.69421 0.33448
 H688 H 0.22889 0.66271 0.36416
 C689 C 0.27779 0.89942 0.93665
 C690 C 0.27684 0.88086 0.92053
 C691 C 0.26842 0.87878 0.88783
 C692 C 0.26082 0.89576 0.87153
 C693 C 0.26170 0.91434 0.88760
 C694 C 0.27009 0.91661 0.92067
 C695 C 0.26704 0.85858 0.87255
 C696 C 0.26464 0.85508 0.83886
 C697 C 0.26247 0.83488 0.82393
 C698 C 0.25303 0.83285 0.79198
 C699 C 0.25045 0.81413 0.77700
 C700 C 0.25743 0.79697 0.79356
 C701 C 0.26722 0.79899 0.82526
 C702 C 0.26979 0.81773 0.84026
 H703 H 0.28370 0.89984 0.96245
 H704 H 0.28256 0.86798 0.93393
 H705 H 0.25378 0.89484 0.84663
 H706 H 0.25618 0.92692 0.87330
 H707 H 0.26799 0.84622 0.89015
 H708 H 0.26367 0.86741 0.82122
 H709 H 0.24742 0.84581 0.77870
 H710 H 0.24295 0.81311 0.75247
 H711 H 0.27297 0.78609 0.83849
 H712 H 0.27778 0.81864 0.86429
 C713 C 0.75454 0.43835 0.36941
 C714 C 0.75434 0.42055 0.35081
 C715 C 0.75937 0.40253 0.36664
 C716 C 0.76440 0.40267 0.40173
 C717 C 0.76457 0.42047 0.42033
 C718 C 0.75959 0.43851 0.40442
 C719 C 0.75821 0.38392 0.34620
 C720 C 0.76842 0.36740 0.35396
 C721 C 0.76666 0.34837 0.33474
 C722 C 0.77280 0.33083 0.35099
 C723 C 0.77108 0.31247 0.33441
 C724 C 0.76329 0.31121 0.30100
 C725 C 0.75755 0.32880 0.28436
 C726 C 0.75927 0.34719 0.30095
 H727 H 0.75082 0.45202 0.35631
 H728 H 0.75028 0.42085 0.32390
 H729 H 0.76765 0.38905 0.41527
 H730 H 0.76808 0.42004 0.44745
 H731 H 0.74851 0.38408 0.32408
 H732 H 0.77823 0.36747 0.37598
 H733 H 0.77870 0.33129 0.37686
 H734 H 0.77574 0.29922 0.34793
 H735 H 0.75168 0.32836 0.25847
 H736 H 0.75499 0.36035 0.28695
 C737 C 0.07761 0.25051 0.86701
 C738 C 0.09585 0.24827 0.85026
 C739 C 0.11373 0.25300 0.86701
 C740 C 0.11298 0.25986 0.90119
 C741 C 0.09472 0.26209 0.91795
 C742 C 0.07684 0.25739 0.90109
 C743 C 0.13274 0.24972 0.84849
 C744 C 0.14981 0.25899 0.85657
 C745 C 0.16896 0.25537 0.83861
 C746 C 0.18671 0.26045 0.85549
 C747 C 0.20512 0.25729 0.83975
 C748 C 0.20621 0.24908 0.80658
 C749 C 0.18846 0.24425 0.78942
 C750 C 0.17003 0.24743 0.80516
 H751 H 0.06408 0.24693 0.85323
 H752 H 0.09601 0.24286 0.82402
 H753 H 0.12640 0.26299 0.91552
 H754 H 0.09463 0.26698 0.94447
 H755 H 0.13240 0.23927 0.82735
 H756 H 0.15008 0.26947 0.87768
 H757 H 0.18633 0.26674 0.88113
 H758 H 0.21851 0.26126 0.85363
 H759 H 0.18877 0.23811 0.76369
 H760 H 0.15676 0.24394 0.79067
 C761 C 0.57981 0.74607 0.39178
 C762 C 0.59769 0.74507 0.37357
 C763 C 0.60768 0.76246 0.36383
 C764 C 0.59926 0.78099 0.37220
 C765 C 0.58126 0.78201 0.39019
 C766 C 0.57131 0.76455 0.40019
 C767 C 0.62636 0.76064 0.34390
 C768 C 0.64084 0.77435 0.34440
 C769 C 0.65967 0.77187 0.32507
 C770 C 0.67721 0.78033 0.33809
 C771 C 0.69530 0.77782 0.32084
 C772 C 0.69612 0.76705 0.28987
 C773 C 0.67843 0.75908 0.27634
 C774 C 0.66041 0.76145 0.29373
 H775 H 0.57275 0.73233 0.39954
 H776 H 0.60383 0.73062 0.36733
 H777 H 0.60625 0.79471 0.36419
 H778 H 0.57493 0.79648 0.39563
 H779 H 0.62867 0.74689 0.32990
 H780 H 0.63952 0.78717 0.36114
 H781 H 0.67697 0.78861 0.36200
 H782 H 0.70863 0.78427 0.33180
 H783 H 0.67853 0.75084 0.25240
 H784 H 0.64706 0.75527 0.28238
 C785 C 0.92426 0.74659 0.86475
 C786 C 0.90635 0.74834 0.84683
 C787 C 0.88875 0.75357 0.86401
 C788 C 0.88954 0.75755 0.89950
 C789 C 0.90746 0.75582 0.91742
 C790 C 0.92500 0.75022 0.90028
 C791 C 0.87011 0.75521 0.84389
 C792 C 0.85191 0.75348 0.85777
 C793 C 0.83325 0.75478 0.83760
 C794 C 0.81586 0.74630 0.85115
 C795 C 0.79788 0.74740 0.83327
 C796 C 0.79686 0.75715 0.80146
 C797 C 0.81422 0.76580 0.78800
 C798 C 0.83220 0.76472 0.80590
 H799 H 0.93759 0.74259 0.85072
 H800 H 0.90622 0.74545 0.81945
 H801 H 0.87647 0.76224 0.91353
 H802 H 0.90755 0.75864 0.94481
 H803 H 0.87162 0.75682 0.81638
 H804 H 0.85047 0.74996 0.88475
 H805 H 0.81620 0.73872 0.87563
 H806 H 0.78476 0.74065 0.84443
 H807 H 0.81389 0.77361 0.76373
 H808 H 0.84506 0.77206 0.79506
 C809 C 0.41614 0.25294 0.41271
 C810 C 0.39727 0.25434 0.39790
 C811 C 0.39051 0.23967 0.37504
 C812 C 0.40282 0.22328 0.36778
 C813 C 0.42157 0.22170 0.38307
 C814 C 0.42843 0.23657 0.40552
 C815 C 0.37030 0.24147 0.36038
 C816 C 0.36561 0.23487 0.32891
 C817 C 0.34542 0.23703 0.31426
 C818 C 0.34327 0.23989 0.27880
 C819 C 0.32438 0.24195 0.26424
 C820 C 0.30724 0.24073 0.28482
 C821 C 0.30939 0.23748 0.32024
 C822 C 0.32829 0.23574 0.33486
 H823 H 0.42102 0.26445 0.43031
 H824 H 0.38797 0.26699 0.40414
 H825 H 0.39781 0.21147 0.35091
 H826 H 0.43078 0.20893 0.37724
 H827 H 0.35929 0.24949 0.37527
 H828 H 0.37712 0.22874 0.31255
 H829 H 0.35627 0.24075 0.26239
 H830 H 0.32317 0.24428 0.23682
 H831 H 0.29645 0.23639 0.33672
 H832 H 0.32944 0.23302 0.36217
 C833 C 0.74369 0.93812 0.87438
 C834 C 0.74510 0.92024 0.85622
 C835 C 0.73583 0.90296 0.86828
 C836 C 0.72511 0.90394 0.89924
 C837 C 0.72362 0.92182 0.91745
 C838 C 0.73298 0.93933 0.90557
 C839 C 0.73849 0.88423 0.84852
 C840 C 0.72675 0.86819 0.85181
 C841 C 0.73003 0.84938 0.83265
 C842 C 0.72265 0.83161 0.84653
 C843 C 0.72565 0.81349 0.82966
 C844 C 0.73596 0.81276 0.79827
 C845 C 0.74295 0.83060 0.78393
 C846 C 0.73998 0.84872 0.80084
 H847 H 0.75055 0.95105 0.86299
 H848 H 0.75343 0.91995 0.83238
 H849 H 0.71834 0.89086 0.91028
 H850 H 0.71593 0.92142 0.94183
 H851 H 0.75079 0.88381 0.83061
 H852 H 0.71451 0.86842 0.86982
 H853 H 0.71477 0.83172 0.87080
 H854 H 0.71997 0.80004 0.84132
 H855 H 0.75076 0.83057 0.75960
 H856 H 0.74526 0.86212 0.78860
 C857 C 0.21853 0.40620 0.41314
 C858 C 0.21837 0.38802 0.39568
 C859 C 0.23575 0.38066 0.38027
 C860 C 0.25346 0.39173 0.38320
 C861 C 0.25363 0.40988 0.40081
 C862 C 0.23616 0.41732 0.41591
 C863 C 0.23504 0.36108 0.36275
 C864 C 0.24772 0.35575 0.33777
 C865 C 0.24729 0.33603 0.32066
 C866 C 0.25572 0.33410 0.28786
 C867 C 0.25634 0.31562 0.27138
 C868 C 0.24871 0.29859 0.28755
 C869 C 0.24025 0.30051 0.32041
 C870 C 0.23958 0.31900 0.33685
 H871 H 0.20491 0.41139 0.42502
 H872 H 0.20461 0.37967 0.39418
 H873 H 0.26731 0.38629 0.37260
 H874 H 0.26744 0.41814 0.40249
 H875 H 0.22306 0.35113 0.36984
 H876 H 0.25844 0.36645 0.32837
 H877 H 0.26191 0.34693 0.27496
 H878 H 0.26305 0.31464 0.24615
 H879 H 0.23440 0.28765 0.33370
 H880 H 0.23353 0.31972 0.36255
 C881 C 0.28800 0.07430 0.91647
 C882 C 0.28879 0.09285 0.90046
 C883 C 0.27131 0.10278 0.89123
 C884 C 0.25291 0.09398 0.89906
 C885 C 0.25205 0.07553 0.91538
 C886 C 0.26959 0.06520 0.92438
 C887 C 0.27279 0.12254 0.87469
 C888 C 0.25890 0.12956 0.85322
 C889 C 0.26019 0.14931 0.83659
 C890 C 0.25003 0.15234 0.80560
 C891 C 0.25028 0.17091 0.78965
 C892 C 0.26049 0.18699 0.80464
 C893 C 0.27063 0.18399 0.83576
 C894 C 0.27049 0.16536 0.85159
 H895 H 0.30199 0.06766 0.92389
 H896 H 0.30317 0.09947 0.89524
 H897 H 0.23908 0.10142 0.89307
 H898 H 0.23747 0.06921 0.91969
 H899 H 0.28624 0.13104 0.87909
 H900 H 0.24645 0.12017 0.84616
 H901 H 0.24185 0.14027 0.79366
 H902 H 0.24222 0.17273 0.76581
 H903 H 0.27852 0.19611 0.84809
 H904 H 0.27802 0.16376 0.87597
 C905 C 0.74724 0.60340 0.43235
 C906 C 0.74704 0.62187 0.41608
 C907 C 0.75193 0.62352 0.38117
 C908 C 0.75734 0.60626 0.36290
 C909 C 0.75755 0.58778 0.37920
 C910 C 0.75251 0.58614 0.41410
 C911 C 0.75195 0.64353 0.36529
 C912 C 0.75041 0.64664 0.33138
 C913 C 0.75032 0.66674 0.31586
 C914 C 0.74137 0.66934 0.28364
 C915 C 0.74094 0.68806 0.26818
 C916 C 0.74962 0.70458 0.28454
 C917 C 0.75892 0.70191 0.31650
 C918 C 0.75935 0.68320 0.33194
 H919 H 0.74363 0.60269 0.45942
 H920 H 0.74305 0.63495 0.43086
 H921 H 0.76179 0.60692 0.33625
 H922 H 0.76161 0.57473 0.36442
 H923 H 0.75233 0.65615 0.38259
 H924 H 0.74809 0.63416 0.31425
 H925 H 0.73451 0.65688 0.27053
 H926 H 0.73373 0.68960 0.24348
 H927 H 0.76594 0.71428 0.32962
 H928 H 0.76704 0.68170 0.35618
 C929 C 0.07766 0.71679 0.88596
 C930 C 0.09546 0.71579 0.86743
 C931 C 0.10741 0.73269 0.86356
 C932 C 0.10100 0.75080 0.87762
 C933 C 0.08298 0.75198 0.89540
 C934 C 0.07097 0.73495 0.90019
 C935 C 0.12621 0.73128 0.84401
 C936 C 0.14265 0.74103 0.85376
 C937 C 0.16158 0.73987 0.83457
 C938 C 0.17956 0.74038 0.85276
 C939 C 0.19772 0.74016 0.83530
 C940 C 0.19822 0.74002 0.79924
 C941 C 0.18020 0.73964 0.78097
 C942 C 0.16202 0.73938 0.79848
 H943 H 0.06880 0.70339 0.88769
 H944 H 0.10002 0.70172 0.85635
 H945 H 0.10981 0.76416 0.87456
 H946 H 0.07901 0.76619 0.90652
 H947 H 0.12680 0.72119 0.82229
 H948 H 0.14255 0.74942 0.87758
 H949 H 0.17954 0.74093 0.88056
 H950 H 0.21139 0.74064 0.85000
 H951 H 0.18018 0.73958 0.75316
 H952 H 0.14835 0.73940 0.78381
 C953 C 0.59054 0.22016 0.40385
 C954 C 0.60953 0.22088 0.38928
 C955 C 0.61776 0.23904 0.37875
 C956 C 0.60673 0.25660 0.38372
 C957 C 0.58778 0.25589 0.39845
 C958 C 0.57946 0.23766 0.40860
 C959 C 0.63807 0.23917 0.36389
 C960 C 0.64447 0.25321 0.34216
 C961 C 0.66469 0.25331 0.32697
 C962 C 0.66770 0.26319 0.29574
 C963 C 0.68658 0.26399 0.28083
 C964 C 0.70298 0.25511 0.29707
 C965 C 0.70003 0.24536 0.32853
 C966 C 0.68110 0.24448 0.34338
 H967 H 0.58466 0.20594 0.41199
 H968 H 0.61781 0.20718 0.38613
 H969 H 0.61280 0.27095 0.37691
 H970 H 0.57957 0.26961 0.40179
 H971 H 0.64760 0.22668 0.36977
 H972 H 0.63426 0.26460 0.33363
 H973 H 0.65535 0.27026 0.28275
 H974 H 0.68835 0.27172 0.25667
 H975 H 0.71238 0.23852 0.34183
 H976 H 0.67951 0.23726 0.36800
 C977 C 0.92158 0.23970 0.88752
 C978 C 0.90389 0.23897 0.86870
 C979 C 0.89339 0.25644 0.86118
 C980 C 0.90122 0.27479 0.87223
 C981 C 0.91896 0.27553 0.89092
 C982 C 0.92931 0.25799 0.89886
 C983 C 0.87471 0.25499 0.84107
 C984 C 0.86012 0.26855 0.84288
 C985 C 0.84113 0.26673 0.82380
 C986 C 0.82413 0.27608 0.83708
 C987 C 0.80586 0.27454 0.82016
 C988 C 0.80425 0.26381 0.78925
 C989 C 0.82139 0.25485 0.77546
 C990 C 0.83964 0.25629 0.79252
 H991 H 0.92938 0.22597 0.89276
 H992 H 0.89830 0.22467 0.86016
 H993 H 0.89391 0.28864 0.86609
 H994 H 0.92450 0.28984 0.89941
 H995 H 0.87250 0.24166 0.82589
 H996 H 0.86148 0.28088 0.86067
 H997 H 0.82491 0.28438 0.86093
 H998 H 0.79298 0.28171 0.83139
 H999 H 0.82067 0.24659 0.75157
 H1000 H 0.85256 0.24943 0.78090
 C1001 C 0.41106 0.77768 0.39955
 C1002 C 0.39252 0.77656 0.38344
 C1003 C 0.38527 0.75834 0.37101
 C1004 C 0.39685 0.74112 0.37556
 C1005 C 0.41535 0.74223 0.39176
 C1006 C 0.42266 0.76051 0.40394
 C1007 C 0.36534 0.75772 0.35479
 C1008 C 0.35989 0.74371 0.33209
 C1009 C 0.33993 0.74290 0.31599
 C1010 C 0.33777 0.73294 0.28451
 C1011 C 0.31915 0.73136 0.26885
 C1012 C 0.30218 0.73954 0.28456
 C1013 C 0.30429 0.74939 0.31623
 C1014 C 0.32294 0.75103 0.33185
 H1015 H 0.41616 0.79192 0.40918
 H1016 H 0.38380 0.78999 0.38064
 H1017 H 0.39154 0.72669 0.36731
 H1018 H 0.42399 0.72876 0.39470
 H1019 H 0.35523 0.76977 0.36072
 H1020 H 0.37068 0.73281 0.32361
 H1021 H 0.35058 0.72639 0.27192
 H1022 H 0.31803 0.72359 0.24452
 H1023 H 0.29148 0.75571 0.32913
 H1024 H 0.32387 0.75825 0.35664
 C1025 C 0.23770 0.90759 0.11019
 C1026 C 0.23588 0.88919 0.12644
 C1027 C 0.25266 0.87724 0.13207
 C1028 C 0.27145 0.88429 0.12175
 C1029 C 0.27329 0.90275 0.10568
 C1030 C 0.25643 0.91457 0.09963
 C1031 C 0.25007 0.85794 0.14980
 C1032 C 0.26260 0.84258 0.14591
 C1033 C 0.25987 0.82326 0.16351
 C1034 C 0.26803 0.80606 0.14866
 C1035 C 0.26589 0.78759 0.16462
 C1036 C 0.25575 0.78597 0.19606
 C1037 C 0.24787 0.80325 0.21121
 C1038 C 0.24992 0.82169 0.19518
 H1039 H 0.22449 0.91650 0.10632
 H1040 H 0.22127 0.88421 0.13450
 H1041 H 0.28481 0.87579 0.12655
 H1042 H 0.28790 0.90771 0.09770
 H1043 H 0.23679 0.85610 0.16521
 H1044 H 0.27479 0.84371 0.12783
 H1045 H 0.27594 0.80689 0.12447
 H1046 H 0.27224 0.77459 0.15235
 H1047 H 0.24011 0.80254 0.23556
 H1048 H 0.24401 0.83469 0.20801
 C1049 C 0.73383 0.42862 0.60679
 C1050 C 0.73300 0.41067 0.62470
 C1051 C 0.75031 0.39949 0.63029
 C1052 C 0.76861 0.40688 0.61824
 C1053 C 0.76945 0.42487 0.60044
 C1054 C 0.75207 0.43590 0.59443
 C1055 C 0.74875 0.38058 0.64954
 C1056 C 0.76181 0.36564 0.64608
 C1057 C 0.75997 0.34651 0.66460
 C1058 C 0.76873 0.32948 0.65027
 C1059 C 0.76729 0.31113 0.66681
 C1060 C 0.75724 0.30947 0.69833
 C1061 C 0.74880 0.32661 0.71306
 C1062 C 0.75017 0.34494 0.69643
 H1063 H 0.72023 0.43695 0.60304
 H1064 H 0.71875 0.40543 0.63405
 H1065 H 0.78238 0.39903 0.62293
 H1066 H 0.78371 0.43007 0.59113
 H1067 H 0.73574 0.37858 0.66557
 H1068 H 0.77372 0.36687 0.62749
 H1069 H 0.77653 0.33032 0.62597
 H1070 H 0.77405 0.29825 0.65484
 H1071 H 0.74110 0.32585 0.73745
 H1072 H 0.74380 0.35786 0.70886
 C1073 C 0.71024 0.09541 0.10371
 C1074 C 0.71124 0.11415 0.11928
 C1075 C 0.72969 0.12272 0.12743
 C1076 C 0.74719 0.11235 0.11897
 C1077 C 0.74620 0.09369 0.10326
 C1078 C 0.72772 0.08493 0.09556
 C1079 C 0.73025 0.14270 0.14359
 C1080 C 0.74509 0.14859 0.16428
 C1081 C 0.74601 0.16849 0.18059
 C1082 C 0.75686 0.17073 0.21111
 C1083 C 0.75867 0.18933 0.22683
 C1084 C 0.74992 0.20622 0.21205
 C1085 C 0.73916 0.20405 0.18131
 C1086 C 0.73720 0.18537 0.16572
 H1087 H 0.69576 0.08904 0.09833
 H1088 H 0.69755 0.12191 0.12529
 H1089 H 0.76169 0.11880 0.12368
 H1090 H 0.75996 0.08630 0.09644
 H1091 H 0.71760 0.15237 0.13957
 H1092 H 0.75667 0.13812 0.17098
 H1093 H 0.76394 0.15800 0.22290
 H1094 H 0.76715 0.19050 0.25039
 H1095 H 0.73233 0.21680 0.16920
 H1096 H 0.72921 0.18432 0.14169
 C1097 C 0.23755 0.56295 0.64429
 C1098 C 0.23827 0.58077 0.66282
 C1099 C 0.24257 0.59877 0.64628
 C1100 C 0.24668 0.59850 0.61083
 C1101 C 0.24597 0.58069 0.59231
 C1102 C 0.24132 0.56273 0.60878
 C1103 C 0.24322 0.61735 0.66690
 C1104 C 0.24025 0.63541 0.65334
 C1105 C 0.24103 0.65424 0.67327
 C1106 C 0.23249 0.67131 0.65885
 C1107 C 0.23361 0.68962 0.67574
 C1108 C 0.24340 0.69133 0.70748
 C1109 C 0.25184 0.67424 0.72214
 C1110 C 0.25076 0.65590 0.70518
 H1111 H 0.23426 0.54931 0.65782
 H1112 H 0.23532 0.58052 0.69017
 H1113 H 0.25073 0.61192 0.59728
 H1114 H 0.24887 0.58102 0.56497
 H1115 H 0.24531 0.61583 0.69430
 H1116 H 0.23633 0.63660 0.62648
 H1117 H 0.22502 0.67052 0.63424
 H1118 H 0.22698 0.70249 0.66368
 H1119 H 0.25965 0.67510 0.74641
 H1120 H 0.25804 0.64329 0.71681
 C1121 C 0.92555 0.74588 0.12572
 C1122 C 0.90779 0.74752 0.14414
 C1123 C 0.88939 0.74458 0.12788
 C1124 C 0.88913 0.74007 0.09254
 C1125 C 0.90692 0.73847 0.07409
 C1126 C 0.92533 0.74144 0.09043
 C1127 C 0.87094 0.74731 0.14826
 C1128 C 0.85341 0.73900 0.13996
 C1129 C 0.83474 0.74219 0.15965
 C1130 C 0.81655 0.73794 0.14352
 C1131 C 0.79854 0.74093 0.16071
 C1132 C 0.79830 0.74817 0.19459
 C1133 C 0.81649 0.75208 0.21104
 C1134 C 0.83452 0.74905 0.19388
 H1135 H 0.93949 0.74802 0.13917
 H1136 H 0.90842 0.75110 0.17126
 H1137 H 0.87528 0.73837 0.07874
 H1138 H 0.90623 0.73546 0.04679
 H1139 H 0.87213 0.75651 0.17096
 H1140 H 0.85241 0.72970 0.11731
 H1141 H 0.81625 0.73249 0.11732
 H1142 H 0.78479 0.73769 0.14732
 H1143 H 0.81682 0.75745 0.23728
 H1144 H 0.84812 0.75187 0.20784
 C1145 C 0.41049 0.23499 0.56689
 C1146 C 0.39202 0.23454 0.58335
 C1147 C 0.39026 0.22731 0.61697
 C1148 C 0.40736 0.21998 0.63352
 C1149 C 0.42584 0.22041 0.61703
 C1150 C 0.42764 0.22804 0.58362
 C1151 C 0.37036 0.22739 0.63348
 C1152 C 0.36766 0.22742 0.66762
 C1153 C 0.34779 0.22872 0.68410
 C1154 C 0.34652 0.23622 0.71769
 C1155 C 0.32810 0.23813 0.73400
 C1156 C 0.31051 0.23239 0.71717
 C1157 C 0.31180 0.22440 0.68385
 C1158 C 0.33024 0.22252 0.66750
 H1159 H 0.41131 0.24059 0.54090
 H1160 H 0.37907 0.24003 0.56984
 H1161 H 0.40657 0.21370 0.65899
 H1162 H 0.43879 0.21498 0.63060
 H1163 H 0.35761 0.22882 0.61672
 H1164 H 0.38046 0.22790 0.68442
 H1165 H 0.35981 0.24092 0.73120
 H1166 H 0.32765 0.24424 0.75975
 H1167 H 0.29854 0.21965 0.67031
 H1168 H 0.33063 0.21601 0.64208
 C1169 C 0.08967 0.27940 0.08464
 C1170 C 0.10837 0.27946 0.10031
 C1171 C 0.11595 0.26216 0.11548
 C1172 C 0.10452 0.24462 0.11409
 C1173 C 0.08584 0.24455 0.09830
 C1174 C 0.07819 0.26194 0.08344
 C1175 C 0.13604 0.26280 0.13120
 C1176 C 0.14201 0.25020 0.15575
 C1177 C 0.16212 0.25070 0.17144
 C1178 C 0.16479 0.24215 0.20392
 C1179 C 0.18358 0.24169 0.21922
 C1180 C 0.20023 0.24962 0.20220
 C1181 C 0.19760 0.25814 0.16961
 C1182 C 0.17878 0.25864 0.15433
 H1183 H 0.08434 0.29295 0.07288
 H1184 H 0.11696 0.29310 0.10063
 H1185 H 0.11006 0.23081 0.12453
 H1186 H 0.07733 0.23087 0.09784
 H1187 H 0.14584 0.27470 0.12321
 H1188 H 0.13153 0.23955 0.16605
 H1189 H 0.15227 0.23578 0.21754
 H1190 H 0.18509 0.23493 0.24428
 H1191 H 0.21014 0.26422 0.15568
 H1192 H 0.17750 0.26480 0.12882
 C1193 C 0.57673 0.74327 0.60421
 C1194 C 0.59439 0.74227 0.62304
 C1195 C 0.60586 0.75940 0.62882
 C1196 C 0.59905 0.77771 0.61601
 C1197 C 0.58136 0.77871 0.59727
 C1198 C 0.57004 0.76150 0.59107
 C1199 C 0.62445 0.75767 0.64906
 C1200 C 0.63967 0.77048 0.64627
 C1201 C 0.65843 0.76856 0.66597
 C1202 C 0.67578 0.77729 0.65281
 C1203 C 0.69377 0.77590 0.67058
 C1204 C 0.69476 0.76590 0.70215
 C1205 C 0.67731 0.75744 0.71566
 C1206 C 0.65932 0.75879 0.69783
 H1207 H 0.56815 0.72981 0.60034
 H1208 H 0.59917 0.72803 0.63297
 H1209 H 0.60712 0.79135 0.62080
 H1210 H 0.57663 0.79296 0.58735
 H1211 H 0.62594 0.74476 0.66535
 H1212 H 0.63895 0.78227 0.62747
 H1213 H 0.67546 0.78507 0.62851
 H1214 H 0.70692 0.78266 0.65954
 H1215 H 0.67752 0.74979 0.74007
 H1216 H 0.64614 0.75245 0.70941
   
