data_POSCAR
  _audit_creation_date              2014-09-24
  _audit_creation_method            'ToBaCCo'
  _symmetry_space_group_name_H-M    'P1'
  _symmetry_Int_Tables_number       1
  _symmetry_cell_setting            triclinic
  loop_
  _symmetry_equiv_pos_as_xyz
 x,y,z
_cell_length_a 21.2002
_cell_length_b 21.0933
_cell_length_c 21.1322
_cell_angle_alpha 90.116400
_cell_angle_beta 90.619700
_cell_angle_gamma 89.569400
loop_
  _atom_site_label
  _atom_site_type_symbol
  _atom_site_fract_x
  _atom_site_fract_y
  _atom_site_fract_z
C1 C 0.53039 1.00341 -0.50902
 C2 C 0.46644 1.00818 -0.50545
 C3 C 0.42409 1.01189 -0.56247
 C4 C 0.43534 1.01050 -0.44264
 C5 C 0.57136 1.00191 -0.45179
 C6 C 0.56510 0.99864 -0.56914
 C7 C 0.37383 1.05565 -0.56305
 C8 C 0.33112 1.05819 -0.61383
 C9 C 0.33811 1.01817 -0.66677
 C10 C 0.38857 0.97388 -0.66598
 C11 C 0.43004 0.97012 -0.61400
 C12 C 0.44730 1.05979 -0.39939
 C13 C 0.41754 1.06089 -0.34053
 C14 C 0.37456 1.01341 -0.32432
 C15 C 0.36365 0.96353 -0.36747
 C16 C 0.39332 0.96251 -0.42615
 C17 C 0.56985 0.95080 -0.40944
 C18 C 0.61322 0.94739 -0.35914
 C19 C 0.65931 0.99433 -0.35131
 C20 C 0.65908 1.04657 -0.39252
 C21 C 0.61570 1.05009 -0.44240
 C22 C 0.59049 0.93967 -0.58675
 C23 C 0.63487 0.93548 -0.63489
 C24 C 0.65675 0.99049 -0.66419
 C25 C 0.62995 1.04950 -0.64803
 C26 C 0.58396 1.05344 -0.60106
 H27 H 0.36727 1.08796 -0.52372
 H28 H 0.29288 1.09255 -0.61183
 H29 H 0.39496 0.93966 -0.70354
 H30 H 0.46547 0.93306 -0.61355
 H31 H 0.47936 1.09752 -0.41143
 H32 H 0.42701 1.09963 -0.30815
 H33 H 0.38401 0.92380 -0.45862
 H34 H 0.53619 0.91297 -0.41630
 H35 H 0.61207 0.90710 -0.32749
 H36 H 0.69238 1.08480 -0.38641
 H37 H 0.61712 1.09027 -0.47413
 H38 H 0.57743 0.89712 -0.56158
 H39 H 0.65464 0.88956 -0.64692
 H40 H 0.64537 1.09250 -0.67088
 H41 H 0.56574 1.09945 -0.58713
 H42 H 0.33262 0.92484 -0.35595
 C43 C -0.53211 1.49961 -0.00917
 C44 C -0.46841 1.50210 -0.00279
 C45 C -0.43312 1.56195 0.00404
 C46 C -0.42867 1.44427 -0.00402
 C47 C -0.56483 1.43778 -0.01281
 C48 C -0.57255 1.55745 -0.01135
 C49 C -0.43177 1.60654 -0.04500
 C50 C -0.38970 1.65729 -0.04190
 C51 C -0.34848 1.66401 0.01051
 C52 C -0.35151 1.62014 0.06008
 C53 C -0.39337 1.56966 0.05690
 C54 C -0.38447 1.43717 -0.05234
 C55 C -0.34227 1.38634 -0.05169
 C56 C -0.34297 1.34216 -0.00198
 C57 C -0.38896 1.34788 0.04505
 C58 C -0.43131 1.39900 0.04438
 C59 C -0.60639 1.42127 0.03535
 C60 C -0.63674 1.36288 0.03401
 C61 C -0.62698 1.32020 -0.01636
 C62 C -0.58453 1.33642 -0.06410
 C63 C -0.55402 1.39504 -0.06266
 C64 C -0.56873 1.60458 0.03550
 C65 C -0.60836 1.65790 0.03294
 C66 C -0.65367 1.66467 -0.01624
 C67 C -0.65774 1.61652 -0.06224
 C68 C -0.61767 1.56381 -0.05991
 H69 H -0.46106 1.60035 -0.08684
 H70 H -0.38772 1.68910 -0.08186
 H71 H -0.32022 1.62403 0.10077
 H72 H -0.39335 1.53520 0.09485
 H73 H -0.38225 1.47158 -0.09024
 H74 H -0.30903 1.38196 -0.08999
 H75 H -0.46494 1.40422 0.08229
 H76 H -0.61459 1.45337 0.07455
 H77 H -0.66738 1.35114 0.07282
 H78 H -0.57601 1.30426 -0.10316
 H79 H -0.52211 1.40718 -0.10035
 H80 H -0.53577 1.59966 0.07471
 H81 H -0.60407 1.69211 0.07078
 H82 H -0.69210 1.61955 -0.10050
 H83 H -0.62190 1.52776 -0.09627
 H84 H -0.39070 1.31398 0.08341
 C85 C -0.00274 0.52925 0.50186
 C86 C -0.00291 0.46479 0.50206
 C87 C -0.00557 0.42616 0.44322
 C88 C -0.00005 0.42762 0.56173
 C89 C -0.00499 0.56695 0.56125
 C90 C -0.00136 0.56725 0.44281
 C91 C -0.05175 0.37921 0.43794
 C92 C -0.04994 0.33472 0.38917
 C93 C -0.00131 0.33581 0.34408
 C94 C 0.04255 0.38570 0.34717
 C95 C 0.04104 0.42990 0.39679
 C96 C -0.04755 0.43213 0.60726
 C97 C -0.04682 0.39185 0.65992
 C98 C 0.00133 0.34558 0.66759
 C99 C 0.04897 0.34221 0.62187
 C100 C 0.04829 0.38263 0.56978
 C101 C 0.04278 0.56260 0.60751
 C102 C 0.04208 0.60274 0.66041
 C103 C -0.00635 0.64866 0.66757
 C104 C -0.05415 0.65199 0.62100
 C105 C -0.05349 0.61172 0.56868
 C106 C 0.04569 0.61316 0.43643
 C107 C 0.04320 0.65669 0.38690
 C108 C -0.00689 0.65561 0.34281
 C109 C -0.05230 0.60763 0.34725
 C110 C -0.04998 0.56409 0.39729
 H111 H -0.08855 0.37591 0.47295
 H112 H -0.08717 0.30007 0.38752
 H113 H 0.08006 0.38878 0.31291
 H114 H 0.07769 0.46525 0.40034
 H115 H -0.08611 0.46558 0.60109
 H116 H -0.08530 0.39632 0.69271
 H117 H 0.08511 0.37803 0.53487
 H118 H 0.08142 0.52927 0.60185
 H119 H 0.08071 0.59838 0.69385
 H120 H -0.09212 0.68648 0.62454
 H121 H -0.09056 0.61611 0.53324
 H122 H 0.08366 0.61630 0.47100
 H123 H 0.08028 0.69147 0.38361
 H124 H -0.09095 0.60542 0.31339
 H125 H -0.08730 0.52969 0.40186
 H126 H 0.08676 0.30749 0.62583
 O127 O -0.16453 0.99617 -0.08797
 O128 O 0.16058 0.99795 -0.08925
 O129 O -0.00731 1.08286 -0.16514
 O130 O 0.00161 0.91103 -0.16465
 O131 O 0.00622 0.83425 -0.08708
 O132 O -0.00983 1.16020 -0.08788
 O133 O 0.08129 0.99488 -0.16497
 O134 O -0.08840 0.99761 -0.16503
 Zr135 Zr -0.00256 0.99715 -0.11344
 O136 O 0.05696 0.94136 -0.05923
 O137 O -0.06083 1.05364 -0.06005
 C138 C -0.14656 0.99772 -0.14635
 C139 C 0.13994 0.99467 -0.14746
 C140 C -0.01084 1.14141 -0.14639
 C141 C 0.00601 0.85266 -0.14565
 H142 H 0.07952 1.08349 -0.08684
 O143 O 0.05371 1.05593 -0.05973
 H144 H -0.08332 0.91116 -0.08686
 O145 O -0.05717 0.93881 -0.05954
 O146 O 0.16210 1.00219 0.08379
 O147 O -0.16289 0.99175 0.08214
 O148 O 0.07820 1.16223 0.00082
 O149 O 0.08859 0.83666 -0.00337
 O150 O -0.08265 0.83297 -0.00088
 O151 O -0.09125 1.15817 -0.00537
 O152 O -0.00102 1.08473 0.16022
 O153 O -0.00012 0.91211 0.16084
 O154 O -0.00344 1.16132 0.08244
 O155 O 0.00132 0.83477 0.08343
 O156 O 0.15881 1.08805 -0.00005
 O157 O -0.16612 1.07948 -0.00525
 O158 O -0.16118 0.90920 -0.00187
 O159 O 0.16379 0.91532 -0.00309
 O160 O 0.08554 1.00351 0.16071
 O161 O -0.08625 0.99640 0.16045
 Zr162 Zr 0.11034 1.00029 -0.00242
 Zr163 Zr -0.11204 0.99523 -0.00267
 Zr164 Zr -0.00463 1.10863 -0.00255
 Zr165 Zr 0.00174 0.88628 -0.00190
 Zr166 Zr -0.00056 0.99825 0.10941
 O167 O -0.05656 0.93913 0.05542
 O168 O 0.05483 1.05638 0.05507
 C169 C 0.14387 1.00386 0.14237
 C170 C -0.14455 0.99345 0.14075
 C171 C 0.13712 1.14587 0.00211
 C172 C 0.14641 0.85638 -0.00355
 C173 C -0.14141 0.85094 -0.00132
 C174 C -0.14902 1.13829 -0.00677
 C175 C -0.00207 1.14325 0.14103
 C176 C 0.00016 0.85338 0.14190
 H177 H -0.08708 1.08061 0.08118
 O178 O -0.05950 1.05380 0.05463
 H179 H 0.08523 0.91586 0.08231
 O180 O 0.05766 0.94236 0.05498
 C181 C 0.29532 1.02256 0.28520
 C182 C 0.30146 0.99354 0.22559
 C183 C 0.25413 0.99374 0.17867
 C184 C 0.18999 1.00524 0.19021
 H185 H 0.34639 0.97354 0.21190
 H186 H 0.26809 0.97918 0.13161
 H187 H 0.25480 1.05338 0.29199
 H188 H 0.17415 1.01109 0.23842
 C189 C -0.29174 0.98491 0.28959
 C190 C -0.24324 1.02539 0.28885
 C191 C -0.18958 1.01907 0.24503
 C192 C -0.19551 0.99327 0.18738
 H193 H -0.24084 1.06298 0.32377
 H194 H -0.14549 1.04104 0.25885
 H195 H -0.29103 0.94323 0.25960
 H196 H -0.24114 0.97672 0.17116
 C197 C -0.29299 0.98803 -0.30008
 C198 C -0.23425 1.01040 -0.30593
 C199 C -0.18487 1.00533 -0.25647
 C200 C -0.19700 0.99928 -0.19472
 H201 H -0.21994 1.03116 -0.35027
 H202 H -0.13662 1.01055 -0.27187
 H203 H -0.30567 0.96125 -0.25854
 H204 H -0.24519 0.99760 -0.17846
 C205 C 0.34096 1.01748 -0.26301
 C206 C 0.28265 0.99482 -0.25636
 C207 C 0.24592 1.00186 -0.19769
 C208 C 0.18436 0.98888 -0.20016
 H209 H 0.25936 0.97306 -0.29668
 H210 H 0.26797 1.01866 -0.15437
 H211 H 0.36262 1.04337 -0.22422
 H212 H 0.16380 0.97461 -0.24521
 C213 C 0.33850 1.25945 -0.02047
 C214 C 0.27988 1.25426 0.00141
 C215 C 0.24255 1.19596 -0.00487
 C216 C 0.18097 1.19911 0.00729
 H217 H 0.25707 1.29538 0.02212
 H218 H 0.26436 1.15203 -0.02034
 H219 H 0.35974 1.21994 -0.04551
 H220 H 0.16038 1.24453 0.02024
 C221 C 0.30341 0.71592 -0.02053
 C222 C 0.30477 0.76828 0.01585
 C223 C 0.25618 0.81876 0.01123
 C224 C 0.19566 0.80683 -0.00316
 H225 H 0.34338 0.77709 0.04833
 H226 H 0.27006 0.86626 0.02477
 H227 H 0.26705 0.71316 -0.05689
 H228 H 0.18065 0.75853 -0.01147
 C229 C -0.29873 0.71280 0.01358
 C230 C -0.30043 0.76648 -0.02004
 C231 C -0.25032 0.81448 -0.01647
 C232 C -0.18964 0.80111 -0.00273
 H233 H -0.34149 0.77828 -0.04855
 H234 H -0.26409 0.86245 -0.02896
 H235 H -0.26008 0.70476 0.04661
 H236 H -0.17438 0.75264 0.00508
 C237 C -0.29583 1.29044 0.00210
 C238 C -0.23708 1.29719 -0.01963
 C239 C -0.18780 1.24786 -0.01522
 C240 C -0.19983 1.18592 -0.00963
 H241 H -0.22248 1.34230 -0.03866
 H242 H -0.13957 1.26374 -0.01966
 H243 H -0.30876 1.24793 0.02728
 H244 H -0.24790 1.16909 -0.00873
 C245 C 0.00540 1.28872 0.29698
 C246 C -0.02396 1.23231 0.29821
 C247 C -0.01609 1.18235 0.24983
 C248 C -0.00346 1.19404 0.18903
 H249 H -0.05189 1.21871 0.33831
 H250 H -0.02616 1.13432 0.26448
 H251 H 0.03912 1.29709 0.25979
 H252 H 0.00206 1.24238 0.17299
 C253 C 0.00330 1.30099 -0.28275
 C254 C -0.03597 1.29981 -0.23326
 C255 C -0.03167 1.25042 -0.18382
 C256 C -0.01512 1.19013 -0.19612
 H257 H -0.06998 1.33727 -0.22546
 H258 H -0.04581 1.26381 -0.13650
 H259 H 0.04021 1.26516 -0.28433
 H260 H -0.00612 1.17538 -0.24433
 C261 C -0.00843 0.69297 -0.28245
 C262 C 0.03098 0.69415 -0.23223
 C263 C 0.02677 0.74355 -0.18273
 C264 C 0.00994 0.80372 -0.19524
 H265 H 0.06517 0.65682 -0.22405
 H266 H 0.04128 0.73033 -0.13523
 H267 H -0.04555 0.72860 -0.28444
 H268 H 0.00052 0.81829 -0.24357
 C269 C -0.01262 0.70407 0.29229
 C270 C 0.00717 0.76394 0.30068
 C271 C 0.00303 0.81417 0.25204
 C272 C 0.00013 0.80257 0.18975
 H273 H 0.02527 0.77845 0.34652
 H274 H 0.00646 0.86263 0.26869
 H275 H -0.03679 0.69081 0.24893
 H276 H 0.00001 0.75421 0.17255
   
