data_POSCAR
  _audit_creation_date              2014-09-24
  _audit_creation_method            'ToBaCCo'
  _symmetry_space_group_name_H-M    'P1'
  _symmetry_Int_Tables_number       1
  _symmetry_cell_setting            triclinic
  loop_
  _symmetry_equiv_pos_as_xyz
 x,y,z
_cell_length_a 36.9115
_cell_length_b 35.5861
_cell_length_c 35.8194
_cell_angle_alpha 89.734600
_cell_angle_beta 90.029600
_cell_angle_gamma 90.316500
loop_
  _atom_site_label
  _atom_site_type_symbol
  _atom_site_fract_x
  _atom_site_fract_y
  _atom_site_fract_z
N1 N 0.19179 1.26438 0.16411
 N2 N 0.16916 1.26763 0.19223
 C3 C 0.14497 1.29476 0.18434
 C4 C 0.15282 1.30900 0.14923
 C5 C 0.18272 1.28915 0.13723
 H6 H 0.12278 1.30275 0.20230
 H7 H 0.19642 1.29205 0.11068
 Cu8 Cu 0.17217 1.23463 0.23541
 Cu9 Cu 0.23037 1.22726 0.16371
 Cu10 Cu 0.22950 1.16142 0.23518
 N11 N 0.16747 1.19369 0.27111
 N12 N 0.19064 1.16576 0.27168
 C13 C 0.18099 1.14122 0.29863
 C14 C 0.14980 1.15425 0.31548
 C15 C 0.14195 1.18767 0.29737
 H16 H 0.19480 1.11513 0.30459
 H17 H 0.11911 1.20586 0.30245
 N18 N 0.26639 1.16201 0.19539
 N19 N 0.26699 1.18742 0.16840
 C20 C 0.29425 1.17948 0.14478
 C21 C 0.31131 1.14739 0.15734
 C22 C 0.29305 1.13704 0.18944
 H23 H 0.30039 1.19493 0.11949
 H24 H 0.29823 1.11253 0.20653
 H25 H 0.20015 1.18903 0.19443
 H26 H 0.23446 1.21747 0.22054
 N27 N 0.82181 0.74089 0.15478
 N28 N 0.85036 0.74727 0.17582
 C29 C 0.87605 0.72182 0.16787
 C30 C 0.86282 0.69830 0.14041
 C31 C 0.82832 0.71112 0.13277
 H32 H 0.90258 0.72079 0.18065
 H33 H 0.80974 0.70016 0.11210
 Cu34 Cu 0.85217 0.78895 0.21065
 Cu35 Cu 0.77946 0.77317 0.15588
 Cu36 Cu 0.77686 0.83999 0.22559
 N37 N 0.84791 0.82257 0.25299
 N38 N 0.81832 0.84200 0.25914
 C39 C 0.82340 0.86385 0.28932
 C40 C 0.85811 0.85787 0.30259
 C41 C 0.87285 0.83138 0.27899
 H42 H 0.80378 0.88350 0.30008
 H43 H 0.89995 0.82001 0.28019
 N44 N 0.73779 0.83371 0.18861
 N45 N 0.73909 0.80858 0.16165
 C46 C 0.71055 0.81361 0.13876
 C47 C 0.69037 0.84324 0.15201
 C48 C 0.70825 0.85526 0.18370
 H49 H 0.70561 0.79800 0.11342
 H50 H 0.70128 0.87921 0.20065
 H51 H 0.80305 0.82109 0.17826
 H52 H 0.78654 0.78451 0.21208
 N53 N 0.80532 1.26184 -0.15851
 N54 N 0.82494 1.26616 -0.18887
 C55 C 0.84955 1.29366 -0.18328
 C56 C 0.84505 1.30713 -0.14745
 C57 C 0.81676 1.28638 -0.13254
 H58 H 0.86983 1.30244 -0.20334
 H59 H 0.80584 1.28851 -0.10462
 Cu60 Cu 0.81807 1.23386 -0.23186
 Cu61 Cu 0.76729 1.22390 -0.15442
 Cu62 Cu 0.76263 1.15857 -0.22538
 N63 N 0.82085 1.19262 -0.26704
 N64 N 0.79931 1.16318 -0.26423
 C65 C 0.80869 1.13780 -0.29017
 C66 C 0.83772 1.15210 -0.31021
 C67 C 0.84463 1.18707 -0.29496
 H68 H 0.79614 1.11046 -0.29339
 H69 H 0.86622 1.20633 -0.30254
 N70 N 0.72839 1.15895 -0.18319
 N71 N 0.73065 1.18347 -0.15572
 C72 C 0.70511 1.17525 -0.13008
 C73 C 0.68585 1.14420 -0.14209
 C74 C 0.70119 1.13462 -0.17587
 H75 H 0.70110 1.19030 -0.10427
 H76 H 0.69372 1.11101 -0.19320
 H77 H 0.79531 1.18713 -0.18821
 H78 H 0.75797 1.21460 -0.21069
 N79 N 0.19780 0.72706 -0.17787
 N80 N 0.17134 0.72962 -0.20231
 C81 C 0.14556 0.70407 -0.19388
 C82 C 0.15667 0.68431 -0.16262
 C83 C 0.19003 0.69944 -0.15330
 H84 H 0.12032 0.70066 -0.20888
 H85 H 0.20678 0.69190 -0.12966
 Cu86 Cu 0.17250 0.76689 -0.24209
 Cu87 Cu 0.23905 0.76140 -0.17865
 Cu88 Cu 0.22373 0.84383 -0.22835
 N89 N 0.16517 0.81230 -0.27114
 N90 N 0.18453 0.84273 -0.26480
 C91 C 0.17295 0.87055 -0.28732
 C92 C 0.14481 0.85674 -0.30891
 C93 C 0.14060 0.81961 -0.29799
 H94 H 0.18409 0.89872 -0.28792
 H95 H 0.12075 0.79969 -0.30822
 N96 N 0.26237 0.83870 -0.19064
 N97 N 0.26893 0.80698 -0.17265
 C98 C 0.29670 0.81244 -0.14882
 C99 C 0.30807 0.84937 -0.15204
 C100 C 0.28584 0.86517 -0.17877
 H101 H 0.30714 0.79146 -0.12978
 H102 H 0.28648 0.89401 -0.18841
 H103 H 0.20307 0.80222 -0.19354
 H104 H 0.23527 0.78794 -0.23084
 C105 C 0.55010 1.04602 -0.00344
 H106 H 0.54877 1.04809 0.02665
 C107 C 0.57513 1.06775 -0.02333
 H108 H 0.59294 1.08658 -0.00822
 C109 C 0.52904 1.01797 -0.05932
 H110 H 0.51154 0.99797 -0.07314
 C111 C 0.55400 1.03886 -0.08029
 H112 H 0.55502 1.03506 -0.11025
 N113 N 0.52746 1.02203 -0.02161
 C114 C 0.44479 1.00505 0.06381
 H115 H 0.44585 0.97481 0.06682
 C116 C 0.42075 1.02577 0.08550
 H117 H 0.40344 1.01119 0.10527
 C118 C 0.46525 1.06042 0.03326
 H119 H 0.48200 1.07371 0.01224
 C120 C 0.44125 1.08219 0.05401
 H121 H 0.44027 1.11221 0.04910
 Zn122 Zn 0.49622 0.99208 0.00814
 N123 N 0.46665 1.02258 0.03855
 C124 C 0.52928 0.96533 0.07500
 N125 N 0.52639 0.96084 0.03742
 C126 C 0.54756 0.93597 0.01890
 C127 C 0.57258 0.91401 0.03826
 C128 C 0.55428 0.94424 0.09544
 C129 C 0.44264 0.98305 -0.04557
 C130 C 0.41755 0.96438 -0.06804
 C131 C 0.43733 0.90549 -0.04133
 C132 C 0.46224 0.92534 -0.01946
 N133 N 0.46459 0.96343 -0.02217
 H134 H 0.51306 0.98610 0.08906
 H135 H 0.54535 0.93364 -0.01112
 H136 H 0.58940 0.89469 0.02283
 H137 H 0.55656 0.94861 0.12524
 H138 H 0.44463 1.01338 -0.04664
 H139 H 0.40040 0.98069 -0.08643
 H140 H 0.43580 0.87521 -0.03868
 H141 H 0.47919 0.91032 0.00007
 C142 C 0.41852 1.06486 0.08049
 C143 C 0.57749 1.06415 -0.06227
 C144 C 0.41455 0.92505 -0.06606
 C145 C 0.57649 0.91830 0.07701
 C146 C -0.00458 0.55412 1.04760
 H147 H 0.02461 0.55241 1.04969
 C148 C -0.02334 0.58071 1.06848
 H149 H -0.00828 0.59928 1.08671
 C150 C -0.05930 0.53255 1.02027
 H151 H -0.07312 0.51434 1.00081
 C152 C -0.07912 0.55893 1.04043
 H153 H -0.10819 0.56025 1.03658
 N154 N -0.02271 0.53055 1.02430
 C155 C 0.05712 0.44230 1.00811
 H156 H 0.05912 0.44297 0.97798
 C157 C 0.07816 0.41716 1.02865
 H158 H 0.09639 0.39860 1.01402
 C159 C 0.03002 0.46513 1.06345
 H160 H 0.01072 0.48338 1.07681
 C161 C 0.05020 0.44002 1.08508
 H162 H 0.04657 0.43963 1.11507
 Zn163 Zn 0.00532 0.49744 0.99508
 N164 N 0.03398 0.46594 1.02569
 C165 C 0.07144 0.52909 0.96834
 N166 N 0.03484 0.52785 0.96390
 C167 C 0.01789 0.55042 0.93873
 C168 C 0.03791 0.57496 0.91617
 C169 C 0.09249 0.55352 0.94662
 C170 C -0.04833 0.44312 0.98594
 C171 C -0.07078 0.41777 0.96725
 C172 C -0.04382 0.43782 0.90897
 C173 C -0.02204 0.46305 0.92881
 N174 N -0.02489 0.46541 0.96659
 H175 H 0.08433 0.51184 0.98931
 H176 H -0.01132 0.54951 0.93640
 H177 H 0.02380 0.59276 0.89642
 H178 H 0.12154 0.55427 0.95078
 H179 H -0.04950 0.44505 1.01605
 H180 H -0.08924 0.40035 0.98331
 H181 H -0.04109 0.43628 0.87892
 H182 H -0.00249 0.48019 0.91401
 C183 C 0.07471 0.41565 1.06767
 C184 C -0.06113 0.58355 1.06485
 C185 C -0.06865 0.41478 0.92822
 C186 C 0.07573 0.57692 0.92013
 C187 C 1.04440 -0.00385 0.55929
 H188 H 1.04598 0.02650 0.55826
 C189 C 1.06554 -0.02376 0.58480
 H190 H 1.08340 -0.00838 0.60330
 C191 C 1.01853 -0.06042 0.53666
 H192 H 0.99971 -0.07453 0.51827
 C193 C 1.03898 -0.08147 0.56201
 H194 H 1.03598 -0.11175 0.56246
 N195 N 1.02183 -0.02234 0.53557
 C196 C 1.00851 0.06446 0.45050
 H197 H 0.97947 0.06831 0.45141
 C198 C 1.02954 0.08593 0.42590
 H199 H 1.01646 0.10641 0.40806
 C200 C 1.06050 0.03186 0.47161
 H201 H 1.07234 0.01012 0.48877
 C202 C 1.08246 0.05224 0.44697
 H203 H 1.11120 0.04637 0.44596
 Zn204 Zn 0.99378 0.00772 0.50299
 N205 N 1.02424 0.03831 0.47296
 C206 C 0.96722 0.07494 0.53623
 N207 N 0.96322 0.03702 0.53351
 C208 C 0.93860 0.01809 0.55474
 C209 C 0.91615 0.03737 0.57932
 C210 C 0.94557 0.09534 0.56082
 C211 C 0.98510 -0.04624 0.44759
 C212 C 0.96707 -0.06796 0.42103
 C213 C 0.91072 -0.03971 0.44014
 C214 C 0.92984 -0.01869 0.46656
 N215 N 0.96636 -0.02243 0.46989
 H216 H 0.98774 0.08936 0.52004
 H217 H 0.93658 -0.01217 0.55266
 H218 H 0.89683 0.02163 0.59599
 H219 H 0.94932 0.12547 0.56279
 H220 H 1.01424 -0.04807 0.45030
 H221 H 0.98265 -0.08657 0.40349
 H222 H 0.88171 -0.03609 0.43773
 H223 H 0.91554 0.00121 0.48372
 C224 C 1.06699 0.07961 0.42364
 C225 C 1.06298 -0.06312 0.58644
 C226 C 0.92938 -0.06469 0.41685
 C227 C 0.91961 0.07652 0.58278
 N228 N 0.14356 0.34535 1.09389
 C229 C 0.13385 0.33632 1.12938
 N230 N 0.10497 0.35391 1.14480
 N231 N 0.08644 0.37943 1.12540
 C232 C 0.09594 0.38823 1.08975
 N233 N 0.12492 0.37070 1.07445
 N234 N -0.08251 0.66097 1.12959
 C235 C -0.11784 0.66772 1.12170
 N236 N -0.13471 0.64639 1.09556
 N237 N -0.11684 0.61938 1.07784
 C238 C -0.08137 0.61271 1.08548
 N239 N -0.06463 0.63403 1.11180
 N240 N -0.10640 0.35471 0.85346
 C241 C -0.13307 0.33575 0.87173
 N242 N -0.13880 0.34311 0.90838
 N243 N -0.11849 0.36834 0.92617
 C244 C -0.09168 0.38732 0.90804
 N245 N -0.08614 0.38005 0.87126
 N246 N 0.10135 0.64742 0.84861
 C247 C 0.13616 0.65544 0.85797
 N248 N 0.15131 0.63716 0.88736
 N249 N 0.13229 0.61186 0.90678
 C250 C 0.09732 0.60399 0.89768
 N251 N 0.08229 0.62224 0.86814
 N252 N 1.14145 0.10384 0.35892
 C253 C 1.12968 0.13641 0.34336
 N254 N 1.09754 0.15073 0.35483
 N255 N 1.07776 0.13289 0.38056
 C256 C 1.08947 0.10021 0.39606
 N257 N 1.12180 0.08617 0.38484
 N258 N 1.09785 -0.14084 0.64506
 C259 C 1.12465 -0.12357 0.66464
 N260 N 1.13129 -0.08655 0.65822
 N261 N 1.11177 -0.06747 0.63334
 C262 C 1.08490 -0.08464 0.61375
 N263 N 1.07841 -0.12176 0.62006
 N264 N 0.85772 -0.09751 0.35232
 C265 C 0.87537 -0.12381 0.33200
 N266 N 0.91053 -0.13121 0.34019
 N267 N 0.92750 -0.11274 0.36738
 C268 C 0.91000 -0.08621 0.38758
 N269 N 0.87469 -0.07911 0.37959
 N270 N 0.84877 0.09818 0.65215
 C271 C 0.85731 0.13393 0.66203
 N272 N 0.88590 0.15113 0.64515
 N273 N 0.90536 0.13314 0.61957
 C274 C 0.89710 0.09719 0.60997
 N275 N 0.86832 0.08016 0.62672
 N276 N 0.35728 1.14163 0.10823
 C277 C 0.34033 1.12671 0.13851
 N278 N 0.34967 1.09175 0.15020
 N279 N 0.37480 1.07228 0.13205
 C280 C 0.39169 1.08708 0.10161
 N281 N 0.38254 1.12224 0.09020
 N282 N 0.63879 1.09525 -0.13813
 C283 C 0.65689 1.12420 -0.12193
 N284 N 0.64845 1.13378 -0.08638
 N285 N 0.62304 1.11491 -0.06759
 C286 C 0.60494 1.08582 -0.08365
 N287 N 0.61324 1.07648 -0.11938
 N288 N 0.35637 0.84960 -0.10471
 C289 C 0.33635 0.86858 -0.13031
 N290 N 0.34235 0.90594 -0.13505
 N291 N 0.36733 0.92372 -0.11482
 C292 C 0.38736 0.90489 -0.08907
 N293 N 0.38143 0.86741 -0.08451
 N294 N 0.64897 0.85043 0.09890
 C295 C 0.65935 0.86122 0.13360
 N296 N 0.64174 0.89008 0.15015
 N297 N 0.61490 0.90769 0.13252
 C298 C 0.60475 0.89725 0.09757
 N299 N 0.62225 0.86815 0.08122
   
