data_POSCAR
  _audit_creation_date              2014-09-24
  _audit_creation_method            'ToBaCCo'
  _symmetry_space_group_name_H-M    'P1'
  _symmetry_Int_Tables_number       1
  _symmetry_cell_setting            triclinic
  loop_
  _symmetry_equiv_pos_as_xyz
 x,y,z
_cell_length_a 16.8214
_cell_length_b 16.8214
_cell_length_c 43.9955
_cell_angle_alpha 89.674500
_cell_angle_beta 90.325600
_cell_angle_gamma 119.796800
loop_
  _atom_site_label
  _atom_site_type_symbol
  _atom_site_fract_x
  _atom_site_fract_y
  _atom_site_fract_z
Si1 Si 0.00405 0.00102 0.50013
 Si2 Si 1.00104 0.00404 0.16653
 Si3 Si -0.00410 0.99589 0.83333
 O4 O 0.60846 0.06782 -0.03078
 O5 O 0.45332 0.06952 0.02843
 O6 O 0.61543 0.08427 0.02817
 O7 O 0.46089 0.08262 -0.03067
 O8 O 0.38403 -0.06843 -0.03029
 O9 O 0.54211 -0.06677 0.02909
 O10 O 0.38002 -0.08153 0.02878
 O11 O 0.53157 -0.08321 -0.02988
 Cu12 Cu 0.54182 0.09077 -0.00129
 Cu13 Cu 0.45214 -0.08969 -0.00053
 C14 C 0.59620 -0.00895 -0.04032
 C15 C 0.38962 -0.00668 0.03864
 C16 C 0.60632 0.00998 0.03869
 C17 C 0.39577 0.00776 -0.04051
 O18 O 0.06783 0.60845 0.69744
 O19 O 0.06953 0.45330 0.63823
 O20 O 0.08428 0.61542 0.63849
 O21 O 0.08263 0.46088 0.69734
 O22 O -0.06841 0.38402 0.69695
 O23 O -0.06675 0.54210 0.63757
 O24 O -0.08152 0.38001 0.63788
 O25 O -0.08320 0.53156 0.69655
 Cu26 Cu 0.09079 0.54181 0.66795
 Cu27 Cu -0.08968 0.45212 0.66719
 C28 C -0.00893 0.59619 0.70698
 C29 C -0.00667 0.38961 0.62802
 C30 C 0.00999 0.60630 0.62798
 C31 C 0.00777 0.39576 0.70718
 O32 O 0.54616 0.61510 0.30368
 O33 O 0.39051 0.45838 0.36296
 O34 O 0.53755 0.62009 0.36270
 O35 O 0.38444 0.46804 0.30393
 O36 O 0.45840 0.39049 0.30370
 O37 O 0.61511 0.54614 0.36298
 O38 O 0.46805 0.38442 0.36273
 O39 O 0.62010 0.53753 0.30396
 Cu40 Cu 0.45727 0.54778 0.33331
 Cu41 Cu 0.54779 0.45726 0.33335
 C42 C 0.61032 0.60274 0.29380
 C43 C 0.40306 0.39405 0.37288
 C44 C 0.60275 0.61031 0.37286
 C45 C 0.39406 0.40305 0.29378
 C46 C -0.01617 0.19730 0.56224
 C47 C 0.06844 0.26796 0.57260
 C48 C 0.07200 0.33147 0.59373
 C49 C -0.01569 0.07595 0.52450
 C50 C -0.09397 0.25426 0.59394
 C51 C -0.09731 0.19086 0.57284
 C52 C -0.01882 0.13029 0.54146
 C53 C -0.00926 0.32496 0.60479
 H54 H 0.13174 0.27340 0.56456
 H55 H 0.13817 0.38495 0.60162
 H56 H -0.15788 0.24725 0.60198
 H57 H -0.16312 0.13640 0.56503
 C58 C 0.80411 0.78655 0.22841
 C59 C 0.81068 0.71179 0.23925
 C60 C 0.74676 0.65136 0.26020
 C61 C 0.92616 0.90906 0.19090
 C62 C 0.66874 0.73981 0.25933
 C63 C 0.73277 0.80015 0.23835
 C64 C 0.87159 0.85129 0.20777
 C65 C 0.67540 0.66504 0.27066
 H66 H 0.86565 0.70071 0.23176
 H67 H 0.75391 0.59445 0.26846
 H68 H 0.61477 0.75227 0.26691
 H69 H 0.72720 0.85802 0.23011
 C70 C 0.21005 0.01682 -0.10601
 C71 C 0.19737 -0.06770 -0.09574
 C72 C 0.25832 -0.07108 -0.07473
 C73 C 0.08616 0.01518 -0.14357
 C74 C 0.34561 0.09491 -0.07447
 C75 C 0.28454 0.09808 -0.09546
 C76 C 0.14462 0.01912 -0.12668
 C77 C 0.33284 0.01026 -0.06369
 H78 H 0.13971 -0.13108 -0.10375
 H79 H 0.24656 -0.13720 -0.06689
 H80 H 0.40229 0.15888 -0.06644
 H81 H 0.29491 0.16381 -0.10320
 C82 C 0.02282 0.80193 0.56216
 C83 C 0.10344 0.80807 0.57350
 C84 C 0.09906 0.74359 0.59460
 C85 C 0.02370 0.92521 0.52449
 C86 C -0.06687 0.66591 0.59290
 C87 C -0.06227 0.73049 0.57177
 C88 C 0.02638 0.87006 0.54142
 C89 C 0.01381 0.67211 0.60472
 H90 H 0.16962 0.86314 0.56628
 H91 H 0.16255 0.75039 0.60324
 H92 H -0.13343 0.61185 0.60021
 H93 H -0.12517 0.72527 0.56316
 C94 C 0.19932 0.22064 0.22828
 C95 C 0.27083 0.20686 0.23826
 C96 C 0.33516 0.26674 0.25928
 C97 C 0.07655 0.09877 0.19079
 C98 C 0.25709 0.35512 0.26012
 C99 C 0.19287 0.29514 0.23913
 C100 C 0.13147 0.15627 0.20765
 C101 C 0.32864 0.34123 0.27061
 H102 H 0.27629 0.14917 0.23003
 H103 H 0.38926 0.25414 0.26689
 H104 H 0.25005 0.41182 0.26837
 H105 H 0.13776 0.30635 0.23161
 C106 C 0.77875 -0.02213 -0.10538
 C107 C 0.70448 -0.10267 -0.09427
 C108 C 0.64442 -0.09815 -0.07345
 C109 C 0.90093 -0.02340 -0.14254
 C110 C 0.73221 0.06777 -0.07499
 C111 C 0.79217 0.06304 -0.09584
 C112 C 0.84326 -0.02587 -0.12582
 C113 C 0.65798 -0.01285 -0.06338
 H114 H 0.69354 -0.16889 -0.10145
 H115 H 0.58792 -0.16159 -0.06498
 H116 H 0.74456 0.13436 -0.06771
 H117 H 0.84967 0.12587 -0.10428
 C118 C 0.19731 -0.01618 0.10442
 C119 C 0.19088 -0.09733 0.09382
 C120 C 0.25427 -0.09399 0.07272
 C121 C 0.07597 -0.01570 0.14217
 C122 C 0.33149 0.07198 0.07293
 C123 C 0.26797 0.06843 0.09406
 C124 C 0.13030 -0.01883 0.12520
 C125 C 0.32497 -0.00927 0.06187
 H126 H 0.13641 -0.16313 0.10163
 H127 H 0.24726 -0.15790 0.06468
 H128 H 0.38497 0.13815 0.06504
 H129 H 0.27342 0.13173 0.10210
 C130 C 0.78657 0.80410 0.43826
 C131 C 0.80016 0.73276 0.42831
 C132 C 0.73983 0.66873 0.40733
 C133 C 0.90907 0.92615 0.47577
 C134 C 0.65137 0.74675 0.40646
 C135 C 0.71180 0.81067 0.42741
 C136 C 0.85131 0.87158 0.45889
 C137 C 0.66505 0.67539 0.39601
 H138 H 0.85804 0.72719 0.43655
 H139 H 0.75228 0.61476 0.39975
 H140 H 0.59446 0.75389 0.39821
 H141 H 0.70072 0.86564 0.43490
 C142 C 0.01683 0.21003 0.77267
 C143 C -0.06769 0.19736 0.76240
 C144 C -0.07107 0.25831 0.74139
 C145 C 0.01519 0.08614 0.81023
 C146 C 0.09492 0.34560 0.74113
 C147 C 0.09809 0.28452 0.76212
 C148 C 0.01913 0.14461 0.79334
 C149 C 0.01027 0.33282 0.73035
 H150 H -0.13106 0.13970 0.77042
 H151 H -0.13719 0.24654 0.73356
 H152 H 0.15889 0.40228 0.73311
 H153 H 0.16383 0.29490 0.76987
 C154 C 0.80194 0.02281 0.10450
 C155 C 0.80808 0.10343 0.09316
 C156 C 0.74360 0.09904 0.07206
 C157 C 0.92522 0.02369 0.14218
 C158 C 0.66592 -0.06689 0.07376
 C159 C 0.73050 -0.06229 0.09489
 C160 C 0.87007 0.02637 0.12524
 C161 C 0.67212 0.01380 0.06195
 H162 H 0.86316 0.16960 0.10038
 H163 H 0.75040 0.16253 0.06343
 H164 H 0.61186 -0.13345 0.06646
 H165 H 0.72529 -0.12519 0.10351
 C166 C 0.22065 0.19930 0.43838
 C167 C 0.29515 0.19286 0.42754
 C168 C 0.35513 0.25708 0.40655
 C169 C 0.09878 0.07654 0.47587
 C170 C 0.26675 0.33515 0.40738
 C171 C 0.20687 0.27082 0.42840
 C172 C 0.15629 0.13146 0.45902
 C173 C 0.34125 0.32862 0.39606
 H174 H 0.30637 0.13775 0.43505
 H175 H 0.41184 0.25003 0.39830
 H176 H 0.25415 0.38925 0.39977
 H177 H 0.14919 0.27628 0.43663
 C178 C -0.02212 0.77874 0.77204
 C179 C 0.06305 0.79216 0.76250
 C180 C 0.06778 0.73220 0.74165
 C181 C -0.02339 0.90091 0.80921
 C182 C -0.09814 0.64440 0.74011
 C183 C -0.10266 0.70447 0.76094
 C184 C -0.02586 0.84325 0.79249
 C185 C -0.01284 0.65796 0.73005
 H186 H 0.12589 0.84966 0.77094
 H187 H 0.13437 0.74455 0.73437
 H188 H -0.16158 0.58791 0.73164
 H189 H -0.16888 0.69353 0.76811
   
