data_POSCAR
  _audit_creation_date              2014-09-24
  _audit_creation_method            'ToBaCCo'
  _symmetry_space_group_name_H-M    'P1'
  _symmetry_Int_Tables_number       1
  _symmetry_cell_setting            triclinic
  loop_
  _symmetry_equiv_pos_as_xyz
 x,y,z
_cell_length_a 11.2023
_cell_length_b 11.1744
_cell_length_c 21.7394
_cell_angle_alpha 89.870300
_cell_angle_beta 90.494300
_cell_angle_gamma 119.944300
loop_
  _atom_site_label
  _atom_site_type_symbol
  _atom_site_fract_x
  _atom_site_fract_y
  _atom_site_fract_z
C1 C -0.16423 -0.15036 0.46307
 C2 C -0.04504 -0.07867 0.49991
 C3 C 0.00263 -0.14944 0.53725
 C4 C -0.07366 -0.29330 0.54069
 C5 C -0.18887 -0.36405 0.50141
 C6 C -0.23279 -0.29451 0.46104
 C7 C 0.03051 0.07154 0.49953
 C8 C -0.00927 0.14401 0.53935
 C9 C 0.06513 0.28805 0.54045
 C10 C 0.17608 0.35766 0.49987
 C11 C 0.21510 0.28586 0.45916
 C12 C 0.14297 0.14180 0.45989
 H13 H -0.19605 -0.09370 0.43296
 H14 H 0.09237 -0.09192 0.56658
 H15 H -0.09389 0.08829 0.57085
 H16 H 0.17027 0.08449 0.42835
 H17 H -0.24525 -0.47617 0.50193
 H18 H 0.23297 0.46967 0.49990
 C19 C 1.15297 -0.01536 0.12780
 C20 C 1.07878 0.02606 0.16574
 C21 C 1.14634 0.14341 0.20359
 C22 C 1.28934 0.22182 0.20334
 C23 C 1.36257 0.18543 0.16249
 C24 C 1.29621 0.06725 0.12423
 C25 C 0.92921 -0.04911 0.16421
 C26 C 0.85647 -0.16117 0.20416
 C27 C 0.71311 -0.22637 0.20595
 C28 C 0.64469 -0.18033 0.16606
 C29 C 0.71669 -0.06922 0.12541
 C30 C 0.86009 -0.00237 0.12527
 H31 H 1.09835 -0.10488 0.09815
 H32 H 1.08782 0.16980 0.23470
 H33 H 0.91161 -0.19224 0.23560
 H34 H 0.91769 0.08235 0.09380
 H35 H 1.47408 0.24813 0.16227
 H36 H 0.53305 -0.23211 0.16655
 C37 C 0.15573 1.00894 0.87318
 C38 C 0.03834 0.96593 0.83549
 C39 C -0.01012 0.84974 0.79707
 C40 C 0.05792 0.77422 0.79669
 C41 C 0.16882 0.81157 0.83769
 C42 C 0.22008 0.92933 0.87600
 C43 C -0.03334 1.04408 0.83577
 C44 C 0.01417 1.16101 0.79810
 C45 C -0.05321 1.23719 0.79850
 C46 C -0.16200 1.20018 0.83983
 C47 C -0.21249 1.08133 0.87723
 C48 C -0.14945 1.00072 0.87333
 H49 H 0.19097 1.09896 0.90248
 H50 H -0.09539 0.82319 0.76560
 H51 H 0.09801 1.18753 0.76646
 H52 H -0.18420 0.90995 0.90199
 H53 H 0.21989 0.75076 0.83740
 H54 H -0.21278 1.26127 0.84023
 O55 O 0.67376 0.15643 -0.06287
 O56 O 0.48260 0.15224 0.06306
 O57 O 0.66645 0.07553 0.05679
 O58 O 0.40248 0.07228 -0.05452
 O59 O 0.34086 -0.14559 -0.06779
 O60 O 0.53357 -0.15062 0.05707
 O61 O 0.34069 -0.07110 0.05450
 O62 O 0.60308 -0.06505 -0.05658
 Cu63 Cu 0.56430 0.13002 -0.00038
 Cu64 Cu 0.44352 -0.12405 -0.00262
 C65 C 0.68369 0.05469 -0.07996
 C66 C 0.37481 0.04641 0.07985
 C67 C 0.63654 -0.04439 0.07778
 C68 C 0.32579 -0.04485 -0.08142
 O69 O 0.14789 0.47623 0.60669
 O70 O 0.14624 0.68618 0.72579
 O71 O 0.08180 0.42635 0.72738
 O72 O 0.07049 0.66893 0.60934
 O73 O -0.15218 0.52256 0.60422
 O74 O -0.14513 0.32165 0.72650
 O75 O -0.08057 0.58393 0.72558
 O76 O -0.07636 0.33565 0.60956
 Cu77 Cu 0.12853 0.57218 0.66654
 Cu78 Cu -0.13034 0.43366 0.66645
 C79 C 0.04254 0.36943 0.58765
 C80 C 0.03774 0.67582 0.74705
 C81 C -0.03561 0.33427 0.74863
 C82 C -0.04895 0.63123 0.58576
 O83 O 0.66539 0.51969 0.39815
 O84 O 0.46595 0.31478 0.27527
 O85 O 0.65915 0.58209 0.27652
 O86 O 0.40562 0.33268 0.39122
 O87 O 0.31789 0.47044 0.39152
 O88 O 0.52951 0.67899 0.27316
 O89 O 0.33918 0.41490 0.27205
 O90 O 0.58675 0.66431 0.39055
 Cu91 Cu 0.55871 0.43071 0.33501
 Cu92 Cu 0.43415 0.56456 0.33216
 C93 C 0.66863 0.62827 0.41562
 C94 C 0.36736 0.32319 0.25228
 C95 C 0.63138 0.67244 0.25403
 C96 C 0.31853 0.36553 0.41183
   
