data_POSCAR
  _audit_creation_date              2014-09-24
  _audit_creation_method            'ToBaCCo'
  _symmetry_space_group_name_H-M    'P1'
  _symmetry_Int_Tables_number       1
  _symmetry_cell_setting            triclinic
  loop_
  _symmetry_equiv_pos_as_xyz
 x,y,z
_cell_length_a 41.7227
_cell_length_b 40.4268
_cell_length_c 23.5130
_cell_angle_alpha 89.908700
_cell_angle_beta 90.021300
_cell_angle_gamma 119.529000
loop_
  _atom_site_label
  _atom_site_type_symbol
  _atom_site_fract_x
  _atom_site_fract_y
  _atom_site_fract_z
C1 C 0.47620 0.91668 0.55339
 C2 C 0.46486 0.89804 0.50074
 C3 C 0.47508 0.91782 0.44926
 C4 C 0.49714 0.95782 0.44928
 C5 C 0.50922 0.97756 0.50158
 C6 C 0.49986 0.95690 0.55362
 C7 C 0.51720 0.97665 0.60362
 C8 C 0.53935 1.01590 0.60377
 C9 C 0.54522 1.03752 0.55399
 C10 C 0.53165 1.01797 0.50173
 C11 C 0.50799 0.97848 0.39825
 C12 C 0.53041 1.01771 0.39836
 C13 C 0.54146 1.03846 0.44953
 C14 C 0.56444 1.07872 0.44989
 C15 C 0.57766 1.09722 0.50224
 C16 C 0.56719 1.07783 0.55448
 H17 H 0.51497 0.96191 0.64307
 H18 H 0.55284 1.02898 0.64332
 H19 H 0.49979 0.96449 0.35741
 H20 H 0.53968 1.03127 0.35743
 H21 H 0.44660 0.86753 0.49938
 H22 H 0.59335 1.12803 0.50249
 C23 C -0.08020 0.48223 0.44775
 C24 C -0.09928 0.47418 0.49927
 C25 C -0.08108 0.48217 0.55202
 C26 C -0.04179 0.50130 0.55249
 C27 C -0.02207 0.50959 0.50028
 C28 C -0.04134 0.50009 0.44783
 C29 C -0.02121 0.50989 0.39673
 C30 C 0.01703 0.52781 0.39695
 C31 C 0.03679 0.53685 0.44829
 C32 C 0.01712 0.52827 0.50043
 C33 C -0.02150 0.51508 0.60322
 C34 C 0.01675 0.53302 0.60340
 C35 C 0.03661 0.53905 0.55266
 C36 C 0.07557 0.55712 0.55257
 C37 C 0.09448 0.56530 0.50082
 C38 C 0.07576 0.55542 0.44888
 H39 H -0.03479 0.50435 0.35586
 H40 H 0.03095 0.53507 0.35627
 H41 H -0.03484 0.51319 0.64342
 H42 H 0.03064 0.54296 0.64379
 H43 H -0.12915 0.45904 0.49786
 H44 H 0.12432 0.57901 0.50096
 C45 C 0.53534 0.45725 0.44667
 C46 C 0.54690 0.44912 0.49794
 C47 C 0.53363 0.45349 0.55071
 C48 C 0.50922 0.46875 0.55179
 C49 C 0.49826 0.47840 0.49990
 C50 C 0.51128 0.47248 0.44727
 C51 C 0.50084 0.48300 0.39654
 C52 C 0.47729 0.49808 0.39714
 C53 C 0.46344 0.50362 0.44854
 C54 C 0.47468 0.49464 0.50056
 C55 C 0.49709 0.47674 0.60314
 C56 C 0.47322 0.49145 0.60369
 C57 C 0.46266 0.50211 0.55314
 C58 C 0.43919 0.51850 0.55340
 C59 C 0.42715 0.52529 0.50110
 C60 C 0.43929 0.51872 0.44924
 H61 H 0.51116 0.48014 0.35570
 H62 H 0.47042 0.50576 0.35669
 H63 H 0.50618 0.47233 0.64399
 H64 H 0.46309 0.49409 0.64473
 H65 H 0.56473 0.43666 0.49622
 H66 H 0.40966 0.53816 0.50032
 O67 O 0.37701 0.65715 -0.06506
 O68 O 0.38487 0.72425 -0.04689
 C69 C 0.36357 0.73250 -0.07448
 O70 O 0.32969 0.71873 -0.06341
 O71 O 0.26465 0.66012 -0.04707
 C72 C 0.25713 0.63057 -0.07572
 O73 O 0.27076 0.60933 -0.06556
 O74 O 0.32773 0.60024 -0.04943
 C75 C 0.35679 0.62235 -0.07679
 O76 O 0.37718 0.64519 0.04804
 O77 O 0.38206 0.71103 0.06624
 C78 C 0.36716 0.73092 0.07762
 O79 O 0.34015 0.72906 0.05003
 O80 O 0.27647 0.66843 0.06630
 C81 C 0.25741 0.63322 0.07655
 O82 O 0.25959 0.60778 0.04792
 O83 O 0.31835 0.60190 0.06409
 C84 C 0.35233 0.61712 0.07535
 Cr85 Cr 0.37823 0.68353 0.00058
 Cr86 Cr 0.30360 0.69285 0.00143
 Cr87 Cr 0.29529 0.60692 -0.00071
 O88 O 0.32571 0.66109 0.00044
 O89 O 0.61339 0.32802 -0.06588
 O90 O 0.61751 0.26679 -0.04673
 C91 C 0.64210 0.26360 -0.07409
 O92 O 0.67614 0.28262 -0.06303
 O93 O 0.73549 0.34786 -0.04796
 C94 C 0.73795 0.37549 -0.07711
 O95 O 0.71927 0.39175 -0.06716
 O96 O 0.65608 0.38857 -0.05111
 C97 C 0.62882 0.36299 -0.07822
 O98 O 0.61123 0.33921 0.04718
 O99 O 0.61831 0.27967 0.06631
 C100 C 0.63831 0.26519 0.07828
 O101 O 0.66708 0.27205 0.05063
 O102 O 0.72460 0.33878 0.06567
 C103 C 0.73859 0.37398 0.07533
 O104 O 0.73139 0.39601 0.04625
 O105 O 0.66681 0.38953 0.06236
 C106 C 0.63296 0.36931 0.07397
 Cr107 Cr 0.61716 0.30461 0.00021
 Cr108 Cr 0.69966 0.31125 0.00127
 Cr109 Cr 0.69250 0.38935 -0.00234
 O110 O 0.66976 0.33506 -0.00027
 C111 C 0.44618 0.83622 -0.34367
 C112 C 0.43331 0.84885 -0.29844
 C113 C 0.43457 0.88401 -0.30211
 C114 C 0.44888 0.90658 -0.35074
 C115 C 0.46261 0.89454 -0.39639
 C116 C 0.46044 0.85864 -0.39231
 C117 C 0.41843 0.82533 -0.24873
 C118 C 0.40597 0.80497 -0.20774
 C119 C 0.39134 0.78041 -0.16052
 C120 C 0.37874 0.75885 -0.12086
 H121 H 0.44524 0.80898 -0.34134
 H122 H 0.42416 0.89381 -0.26764
 H123 H 0.44822 0.93299 -0.35325
 H124 H 0.47078 0.84827 -0.42612
 C125 C 0.11572 0.54775 -0.30778
 C126 C 0.14233 0.58560 -0.29724
 C127 C 0.14650 0.61420 -0.33517
 C128 C 0.12433 0.60498 -0.38364
 C129 C 0.09764 0.56708 -0.39446
 C130 C 0.09355 0.53850 -0.35626
 C131 C 0.16607 0.59498 -0.24846
 C132 C 0.18637 0.60295 -0.20811
 C133 C 0.21059 0.61241 -0.16143
 C134 C 0.23165 0.62063 -0.12203
 H135 H 0.11243 0.52537 -0.27890
 H136 H 0.16711 0.64354 -0.32756
 H137 H 0.12807 0.62733 -0.41291
 H138 H 0.07349 0.50905 -0.36443
 C139 C 0.38144 0.53475 -0.34118
 C140 C 0.40750 0.55591 -0.29962
 C141 C 0.44413 0.56461 -0.30652
 C142 C 0.45466 0.55202 -0.35466
 C143 C 0.42854 0.52999 -0.39645
 C144 C 0.39186 0.52217 -0.38936
 C145 C 0.39673 0.56944 -0.25066
 C146 C 0.38753 0.58098 -0.21010
 C147 C 0.37669 0.59484 -0.16311
 C148 C 0.36750 0.60711 -0.12344
 H149 H 0.35303 0.52807 -0.33646
 H150 H 0.46468 0.58157 -0.27506
 H151 H 0.48350 0.56056 -0.36002
 H152 H 0.37096 0.50552 -0.42055
 C153 C 0.55999 0.11432 -0.30253
 C154 C 0.59514 0.14593 -0.29691
 C155 C 0.62118 0.15471 -0.34004
 C156 C 0.61216 0.13204 -0.38869
 C157 C 0.57695 0.09973 -0.39482
 C158 C 0.55088 0.09154 -0.35110
 C159 C 0.60427 0.16997 -0.24760
 C160 C 0.61221 0.19057 -0.20681
 C161 C 0.62196 0.21530 -0.15973
 C162 C 0.63081 0.23700 -0.12020
 H163 H 0.53942 0.10760 -0.26977
 H164 H 0.64846 0.17922 -0.33620
 H165 H 0.63312 0.13938 -0.42099
 H166 H 0.52293 0.06828 -0.35526
 C167 C 0.84296 0.45913 -0.34406
 C168 C 0.85153 0.44087 -0.30103
 C169 C 0.88246 0.43625 -0.30651
 C170 C 0.90491 0.45006 -0.35470
 C171 C 0.89706 0.46923 -0.39803
 C172 C 0.86529 0.47292 -0.39228
 C173 C 0.82819 0.42651 -0.25170
 C174 C 0.80820 0.41463 -0.21086
 C175 C 0.78427 0.40087 -0.16361
 C176 C 0.76338 0.38923 -0.12379
 H177 H 0.81897 0.46273 -0.34035
 H178 H 0.88903 0.42161 -0.27383
 H179 H 0.92782 0.44471 -0.35879
 H180 H 0.85818 0.48743 -0.42443
 C181 C 0.53022 0.40550 -0.31127
 C182 C 0.56745 0.41665 -0.30375
 C183 C 0.59323 0.43944 -0.34469
 C184 C 0.58199 0.45150 -0.39262
 C185 C 0.54474 0.44154 -0.40001
 C186 C 0.51888 0.41756 -0.35921
 C187 C 0.57938 0.40463 -0.25430
 C188 C 0.59002 0.39491 -0.21325
 C189 C 0.60308 0.38378 -0.16565
 C190 C 0.61466 0.37433 -0.12545
 H191 H 0.50992 0.38729 -0.28030
 H192 H 0.62210 0.44803 -0.33949
 H193 H 0.60271 0.46962 -0.42315
 H194 H 0.48974 0.40742 -0.36499
 C195 C 0.85291 0.47223 0.33133
 C196 C 0.85313 0.44389 0.29741
 C197 C 0.87570 0.42860 0.31210
 C198 C 0.89782 0.44144 0.36067
 C199 C 0.89775 0.46990 0.39476
 C200 C 0.87504 0.48510 0.37990
 C201 C 0.82944 0.42976 0.24848
 C202 C 0.80921 0.41754 0.20798
 C203 C 0.78509 0.40281 0.16113
 C204 C 0.76409 0.38985 0.12164
 H205 H 0.83539 0.48410 0.32053
 H206 H 0.87590 0.40649 0.28638
 H207 H 0.91475 0.42900 0.37206
 H208 H 0.87437 0.50678 0.40608
 C209 C 0.61861 0.15491 0.34358
 C210 C 0.59144 0.14918 0.30382
 C211 C 0.55514 0.12025 0.31253
 C212 C 0.54611 0.09685 0.36052
 C213 C 0.57341 0.10162 0.40029
 C214 C 0.60967 0.13161 0.39160
 C215 C 0.60084 0.17336 0.25451
 C216 C 0.60908 0.19390 0.21351
 C217 C 0.61906 0.21831 0.16590
 C218 C 0.62778 0.23951 0.12564
 H219 H 0.64677 0.17739 0.33745
 H220 H 0.53375 0.11599 0.28249
 H221 H 0.51755 0.07562 0.36724
 H222 H 0.63144 0.13643 0.42125
 C223 C 0.59710 0.45398 0.33144
 C224 C 0.57133 0.42577 0.29556
 C225 C 0.53373 0.40852 0.30841
 C226 C 0.52195 0.41923 0.35715
 C227 C 0.54768 0.44750 0.39328
 C228 C 0.58535 0.46472 0.38020
 C229 C 0.58359 0.41376 0.24655
 C230 C 0.59413 0.40351 0.20605
 C231 C 0.60695 0.39145 0.15928
 C232 C 0.61845 0.38123 0.11996
 H233 H 0.62628 0.46736 0.32206
 H234 H 0.51358 0.38649 0.28116
 H235 H 0.49283 0.40521 0.36715
 H236 H 0.60558 0.48627 0.40794
 C237 C 0.11846 0.54517 0.31255
 C238 C 0.14283 0.58329 0.29913
 C239 C 0.14483 0.61219 0.33426
 C240 C 0.12266 0.60305 0.38271
 C241 C 0.09811 0.56491 0.39629
 C242 C 0.09626 0.53599 0.36105
 C243 C 0.16639 0.59289 0.25006
 C244 C 0.18658 0.60143 0.20947
 C245 C 0.21074 0.61199 0.16253
 C246 C 0.23181 0.62145 0.12297
 H247 H 0.11685 0.52260 0.28583
 H248 H 0.16370 0.64176 0.32441
 H249 H 0.12465 0.62566 0.40973
 H250 H 0.07783 0.50642 0.37140
 C251 C 0.41021 0.85370 0.33555
 C252 C 0.43452 0.84953 0.29913
 C253 C 0.47231 0.86841 0.31117
 C254 C 0.48570 0.89117 0.35969
 C255 C 0.46138 0.89537 0.39633
 C256 C 0.42356 0.87644 0.38403
 C257 C 0.42049 0.82502 0.25036
 C258 C 0.40845 0.80403 0.21004
 C259 C 0.39413 0.77898 0.16341
 C260 C 0.38182 0.75722 0.12402
 H261 H 0.38091 0.83908 0.32678
 H262 H 0.49133 0.86521 0.28344
 H263 H 0.51490 0.90523 0.36905
 H264 H 0.40444 0.87914 0.41219
 C265 C 0.42860 0.58016 0.33802
 C266 C 0.40504 0.55295 0.29889
 C267 C 0.39273 0.51432 0.30872
 C268 C 0.40396 0.50298 0.35759
 C269 C 0.42772 0.53026 0.39676
 C270 C 0.43983 0.56888 0.38678
 C271 C 0.39327 0.56493 0.24924
 C272 C 0.38369 0.57586 0.20833
 C273 C 0.37271 0.58955 0.16121
 C274 C 0.36342 0.60187 0.12163
 H275 H 0.43819 0.61009 0.33094
 H276 H 0.37438 0.49303 0.27882
 H277 H 0.39413 0.47305 0.36502
 H278 H 0.45800 0.59023 0.41677
   
