data_POSCAR
  _audit_creation_date              2014-09-24
  _audit_creation_method            'ToBaCCo'
  _symmetry_space_group_name_H-M    'P1'
  _symmetry_Int_Tables_number       1
  _symmetry_cell_setting            triclinic
  loop_
  _symmetry_equiv_pos_as_xyz
 x,y,z
_cell_length_a 35.7095
_cell_length_b 41.3991
_cell_length_c 36.4298
_cell_angle_alpha 90.245200
_cell_angle_beta 90.597300
_cell_angle_gamma 90.079300
loop_
  _atom_site_label
  _atom_site_type_symbol
  _atom_site_fract_x
  _atom_site_fract_y
  _atom_site_fract_z
C1 C 0.36348 0.32890 1.41393
 C2 C 0.33727 0.34167 1.43849
 C3 C 0.31973 0.37202 1.43234
 C4 C 0.33355 0.39087 1.40292
 C5 C 0.36102 0.37897 1.37913
 C6 C 0.37480 0.34738 1.38374
 C7 C 0.37739 0.29733 1.41842
 C8 C 0.40066 0.28315 1.39170
 C9 C 0.41202 0.30228 1.36180
 C10 C 0.39977 0.33421 1.35800
 C11 C 0.41198 0.35313 1.32862
 C12 C 0.39986 0.38514 1.32496
 C13 C 0.37419 0.39792 1.35003
 H14 H 0.33086 0.32720 1.46215
 H15 H 0.32217 0.41430 1.39656
 H16 H 0.36752 0.28308 1.44124
 H17 H 0.43138 0.29273 1.34180
 H18 H 0.43162 0.34328 1.30902
 H19 H 0.36440 0.42252 1.34665
 C20 C 1.14906 0.66852 0.90299
 C21 C 1.17482 0.64786 0.92003
 C22 C 1.17956 0.61586 0.90771
 C23 C 1.15719 0.60471 0.87805
 C24 C 1.13221 0.62558 0.85992
 C25 C 1.12787 0.65756 0.87271
 C26 C 1.14515 0.70033 0.91538
 C27 C 1.12083 0.72224 0.89754
 C28 C 1.09940 0.71081 0.86730
 C29 C 1.10326 0.67889 0.85452
 C30 C 1.08459 0.66854 0.82252
 C31 C 1.09065 0.63737 0.80817
 C32 C 1.11336 0.61563 0.82782
 H33 H 1.19070 0.65671 0.94353
 H34 H 1.16106 0.58054 0.86721
 H35 H 1.16067 0.70751 0.93976
 H36 H 1.08142 0.72708 0.85205
 H37 H 1.06664 0.68524 0.80775
 H38 H 1.11845 0.59170 0.81678
 C39 C 0.64132 -0.17121 0.09206
 C40 C 0.66927 -0.16003 0.06843
 C41 C 0.68852 -0.13071 0.07552
 C42 C 0.67616 -0.11125 0.10501
 C43 C 0.64669 -0.12121 0.12751
 C44 C 0.63028 -0.15186 0.12188
 C45 C 0.62540 -0.20207 0.08714
 C46 C 0.60001 -0.21467 0.11295
 C47 C 0.58855 -0.19448 0.14205
 C48 C 0.60310 -0.16330 0.14640
 C49 C 0.59115 -0.14351 0.17526
 C50 C 0.60591 -0.11237 0.17982
 C51 C 0.63393 -0.10136 0.15620
 H52 H 0.67630 -0.17483 0.04501
 H53 H 0.69002 -0.08877 0.11177
 H54 H 0.63526 -0.21710 0.06484
 H55 H 0.56752 -0.20267 0.16113
 H56 H 0.56982 -0.15202 0.19388
 H57 H 0.64578 -0.07748 0.16031
 C58 C -0.15626 1.17145 -0.38562
 C59 C -0.18527 1.15289 -0.40141
 C60 C -0.18862 1.11967 -0.39355
 C61 C -0.16410 1.10619 -0.36722
 C62 C -0.13608 1.12483 -0.35030
 C63 C -0.13151 1.15745 -0.35993
 C64 C -0.15012 1.20314 -0.39714
 C65 C -0.11842 1.22058 -0.38505
 C66 C -0.09507 1.20727 -0.35761
 C67 C -0.10153 1.17572 -0.34475
 C68 C -0.07751 1.16135 -0.31856
 C69 C -0.08261 1.12882 -0.30866
 C70 C -0.11183 1.11087 -0.32467
 H71 H -0.20312 1.16382 -0.42212
 H72 H -0.16710 1.08115 -0.35919
 H73 H -0.16887 1.21362 -0.41742
 H74 H -0.07069 1.22057 -0.34800
 H75 H -0.05446 1.17500 -0.30665
 H76 H -0.11563 1.08578 -0.31707
 C77 C 0.65152 0.66795 0.61178
 C78 C 0.68070 0.65075 0.59538
 C79 C 0.69194 0.62069 0.60916
 C80 C 0.67488 0.60849 0.64069
 C81 C 0.64541 0.62548 0.65723
 C82 C 0.63354 0.65538 0.64274
 C83 C 0.63886 0.69664 0.59619
 C84 C 0.60737 0.71313 0.60996
 C85 C 0.59047 0.70124 0.64222
 C86 C 0.60287 0.67203 0.65824
 C87 C 0.58373 0.65794 0.68786
 C88 C 0.59472 0.62749 0.70127
 C89 C 0.62610 0.61198 0.68652
 H90 H 0.69393 0.66019 0.57098
 H91 H 0.68317 0.58503 0.65107
 H92 H 0.65400 0.70614 0.57296
 H93 H 0.56607 0.71318 0.65330
 H94 H 0.55925 0.66965 0.69911
 H95 H 0.63446 0.58854 0.69697
 C96 C 0.86435 0.33442 0.09414
 C97 C 0.83588 0.34827 0.07267
 C98 C 0.82247 0.37977 0.08003
 C99 C 0.83970 0.39767 0.10880
 C100 C 0.86897 0.38443 0.12994
 C101 C 0.88072 0.35246 0.12298
 C102 C 0.87566 0.30229 0.08807
 C103 C 0.90171 0.28733 0.11187
 C104 C 0.91840 0.30598 0.14003
 C105 C 0.90862 0.33834 0.14522
 C106 C 0.92620 0.35664 0.17270
 C107 C 0.91594 0.38885 0.17891
 C108 C 0.88666 0.40251 0.15806
 H109 H 0.82257 0.33332 0.05185
 H110 H 0.83125 0.42232 0.11427
 H111 H 0.86210 0.28836 0.06645
 H112 H 0.93991 0.29558 0.15754
 H113 H 0.94788 0.34572 0.18961
 H114 H 0.87824 0.42724 0.16328
 C115 C 0.34511 0.17381 0.88465
 C116 C 0.31776 0.15596 0.90301
 C117 C 0.31443 0.12235 0.89763
 C118 C 0.33853 0.10710 0.87243
 C119 C 0.36479 0.12502 0.85258
 C120 C 0.36851 0.15845 0.85910
 C121 C 0.34960 0.20680 0.89186
 C122 C 0.37705 0.22495 0.87376
 C123 C 0.39993 0.20968 0.84774
 C124 C 0.39560 0.17654 0.84007
 C125 C 0.41763 0.16123 0.81351
 C126 C 0.41322 0.12802 0.80594
 C127 C 0.38712 0.11004 0.82606
 H128 H 0.30038 0.16813 0.92297
 H129 H 0.33574 0.08148 0.86681
 H130 H 0.33216 0.21827 0.91231
 H131 H 0.42078 0.22364 0.83329
 H132 H 0.43755 0.17536 0.79808
 H133 H 0.38416 0.08433 0.82101
 C134 C 0.13281 0.82505 0.40377
 C135 C 0.16558 0.83451 0.42249
 C136 C 0.18625 0.86190 0.41147
 C137 C 0.17239 0.88032 0.38174
 C138 C 0.13846 0.87227 0.36420
 C139 C 0.11883 0.84435 0.37509
 C140 C 0.11383 0.79655 0.41339
 C141 C 0.08082 0.78674 0.39455
 C142 C 0.06674 0.80718 0.36666
 C143 C 0.08516 0.83573 0.35722
 C144 C 0.07037 0.85569 0.32981
 C145 C 0.08913 0.88390 0.31948
 C146 C 0.12366 0.89175 0.33603
 H147 H 0.17456 0.82037 0.44584
 H148 H 0.18786 0.90090 0.37175
 H149 H 0.12470 0.78253 0.43612
 H150 H 0.04243 0.80040 0.35043
 H151 H 0.04412 0.84933 0.31636
 H152 H 0.13828 0.91346 0.32776
 Zn153 Zn 0.04550 0.98596 0.02366
 Zn154 Zn 0.01542 1.04400 -0.01457
 Zn155 Zn -0.01204 0.97746 -0.03505
 Zn156 Zn -0.03222 1.00648 0.03718
 O157 O 0.00406 1.00353 0.00263
 O158 O 0.08594 1.00977 0.01739
 O159 O 0.00293 1.04851 -0.06199
 O160 O 0.01721 0.94253 -0.04203
 O161 O 0.06518 1.05258 -0.01253
 O162 O 0.05809 0.94870 0.00336
 O163 O -0.01370 0.99867 -0.07792
 O164 O -0.07413 0.98480 0.02502
 O165 O -0.00806 1.07572 0.01023
 O166 O -0.05809 0.96158 -0.02742
 O167 O -0.04434 1.04717 0.04704
 O168 O -0.01768 0.99115 0.08090
 O169 O 0.04144 0.97835 0.07162
 C170 C 0.09201 1.03600 0.00072
 C171 C -0.00756 1.02804 -0.08604
 C172 C 0.04568 0.93293 -0.02402
 C173 C -0.08141 0.96600 -0.00177
 C174 C -0.03205 1.07404 0.03567
 C175 C 0.01357 0.98076 0.09272
 Zn176 Zn 0.46786 0.00074 0.45895
 Zn177 Zn 0.48174 -0.02670 0.53452
 Zn178 Zn 0.54248 -0.02480 0.47933
 Zn179 Zn 0.51613 0.03654 0.51225
 O180 O 0.50185 -0.00353 0.49639
 O181 O 0.42507 -0.02079 0.46746
 O182 O 0.50578 -0.06464 0.54341
 O183 O 0.54168 -0.03099 0.43085
 O184 O 0.43523 -0.03987 0.52356
 O185 O 0.48525 -0.01342 0.41567
 O186 O 0.54672 -0.06386 0.49830
 O187 O 0.56589 0.04255 0.51090
 O188 O 0.48017 -0.00375 0.57708
 O189 O 0.58532 -0.00459 0.48978
 O190 O 0.50552 0.04249 0.55921
 O191 O 0.49415 0.06910 0.48727
 O192 O 0.45653 0.04180 0.44963
 C193 C 0.41488 -0.03740 0.49489
 C194 C 0.53088 -0.07842 0.52444
 C195 C 0.51660 -0.02542 0.40687
 C196 C 0.59219 0.02327 0.50280
 C197 C 0.49146 0.02487 0.58389
 C198 C 0.46975 0.06831 0.46164
 Zn199 Zn 1.01450 0.46177 0.48214
 Zn200 Zn 1.04380 0.52182 0.50393
 Zn201 Zn 0.96952 0.51514 0.46685
 Zn202 Zn 0.97907 0.49087 0.54372
 O203 O 1.00131 0.49887 0.50010
 O204 O 1.05878 0.44990 0.49945
 O205 O 1.04279 0.55736 0.47529
 O206 O 0.96516 0.49105 0.42570
 O207 O 1.08602 0.49778 0.49615
 O208 O 1.01677 0.46252 0.43313
 O209 O 0.98507 0.55380 0.45237
 O210 O 0.93123 0.50524 0.54315
 O211 O 1.04739 0.53737 0.54927
 O212 O 0.92417 0.52084 0.48527
 O213 O 1.00235 0.51295 0.58078
 O214 O 0.97553 0.44738 0.55287
 O215 O 0.98163 0.43222 0.49488
 C216 C 1.08817 0.46713 0.49915
 C217 C 1.01561 0.56920 0.45683
 C218 C 0.99022 0.47261 0.41277
 C219 C 0.91118 0.51682 0.51726
 C220 C 1.02922 0.53324 0.57873
 C221 C 0.97113 0.42633 0.52739
 Zn222 Zn 0.48288 0.53874 0.99021
 Zn223 Zn 0.45547 0.47765 1.02492
 Zn224 Zn 0.51713 0.47452 0.97117
 Zn225 Zn 0.52987 0.50350 1.04559
 O226 O 0.49641 0.49872 1.00785
 O227 O 0.43263 0.54442 0.98985
 O228 O 0.44597 0.44120 1.00099
 O229 O 0.52008 0.49667 0.92923
 O230 O 0.41384 0.49964 1.01712
 O231 O 0.49703 0.54474 0.94350
 O232 O 0.49078 0.43848 0.95970
 O233 O 0.57401 0.48427 1.03679
 O234 O 0.45747 0.46836 1.07291
 O235 O 0.56390 0.46206 0.98216
 O236 O 0.51330 0.48760 1.08805
 O237 O 0.53888 0.54488 1.05610
 O238 O 0.50319 0.57152 1.01637
 C239 C 0.40663 0.52602 1.00109
 C240 C 0.46092 0.42757 0.97366
 C241 C 0.51144 0.52541 0.92050
 C242 C 0.58512 0.46742 1.00976
 C243 C 0.48282 0.47401 1.09674
 C244 C 0.52598 0.57113 1.04338
 C245 C 1.23953 0.42176 0.46848
 C246 C 1.22178 0.39924 0.48955
 C247 C 1.23539 0.36826 0.49436
 C248 C 1.26835 0.35975 0.47621
 C249 C 1.28807 0.38222 0.45356
 C250 C 1.27307 0.41425 0.45095
 O251 O 1.21992 0.44887 0.46457
 C252 C 1.18897 0.44311 0.48347
 C253 C 1.18897 0.41307 0.49946
 C254 C 1.15837 0.40073 0.51796
 C255 C 1.12603 0.41975 0.51928
 C256 C 1.12468 0.45049 0.50215
 C257 C 1.15705 0.46273 0.48480
 H258 H 1.22017 0.35062 0.51023
 H259 H 1.27628 0.33477 0.47870
 H260 H 1.28595 0.43325 0.43539
 H261 H 1.15887 0.37679 0.52978
 H262 H 1.10155 0.41001 0.53263
 H263 H 1.15654 0.48566 0.47064
 C264 C 0.26871 0.58905 0.95164
 C265 C 0.26185 0.55660 0.95527
 C266 C 0.22869 0.54214 0.94343
 C267 C 0.20137 0.56198 0.92721
 C268 C 0.20712 0.59591 0.92398
 C269 C 0.24156 0.60939 0.93679
 O270 O 0.30312 0.59759 0.96196
 C271 C 0.31826 0.56989 0.97266
 C272 C 0.29393 0.54418 0.96956
 C273 C 0.30398 0.51284 0.97864
 C274 C 0.34079 0.50767 0.99084
 C275 C 0.36699 0.53354 0.99301
 C276 C 0.35534 0.56522 0.98408
 H277 H 0.22422 0.51640 0.94607
 H278 H 0.17531 0.55091 0.91837
 H279 H 0.24815 0.63473 0.93346
 H280 H 0.28438 0.49299 0.97584
 H281 H 0.34925 0.48317 0.99711
 H282 H 0.37469 0.58537 0.98511
 C283 C -0.22954 0.91731 0.03657
 C284 C -0.21095 0.89358 0.01772
 C285 C -0.22368 0.86195 0.01587
 C286 C -0.25672 0.85434 0.03449
 C287 C -0.27742 0.87843 0.05374
 C288 C -0.26340 0.91068 0.05384
 O289 O -0.21074 0.94501 0.03823
 C290 C -0.17962 0.93857 0.01994
 C291 C -0.17866 0.90755 0.00631
 C292 C -0.14818 0.89531 -0.01266
 C293 C -0.11710 0.91565 -0.01714
 C294 C -0.11663 0.94724 -0.00183
 C295 C -0.14866 0.95898 0.01653
 H296 H -0.20782 0.84338 0.00196
 H297 H -0.26482 0.82922 0.03479
 H298 H -0.27758 0.93029 0.06749
 H299 H -0.14798 0.87074 -0.02292
 H300 H -0.09267 0.90620 -0.03089
 H301 H -0.14896 0.98282 0.02885
 C302 C 0.72477 0.09151 0.55782
 C303 C 0.73450 0.06012 0.55021
 C304 C 0.76873 0.04700 0.56046
 C305 C 0.79405 0.06702 0.57941
 C306 C 0.78523 0.09991 0.58739
 C307 C 0.74992 0.11222 0.57572
 O308 O 0.68970 0.09838 0.54822
 C309 C 0.67718 0.07073 0.53410
 C310 C 0.70369 0.04668 0.53431
 C311 C 0.69634 0.01548 0.52205
 C312 C 0.65988 0.00854 0.50978
 C313 C 0.63149 0.03255 0.51055
 C314 C 0.64059 0.06430 0.52232
 H315 H 0.77555 0.02207 0.55450
 H316 H 0.82106 0.05692 0.58663
 H317 H 0.74122 0.13661 0.58216
 H318 H 0.71766 -0.00307 0.52274
 H319 H 0.65348 -0.01593 0.50114
 H320 H 0.61958 0.08308 0.52366
 C321 C 0.42674 0.20184 0.42843
 C322 C 0.42955 0.18480 0.39617
 C323 C 0.42406 0.19873 0.36199
 C324 C 0.41521 0.23165 0.36087
 C325 C 0.41106 0.25014 0.39373
 C326 C 0.41679 0.23452 0.42810
 O327 O 0.43445 0.18407 0.45790
 C328 C 0.44191 0.15512 0.44381
 C329 C 0.43880 0.15431 0.40615
 C330 C 0.44434 0.12643 0.38559
 C331 C 0.45364 0.09817 0.40458
 C332 C 0.45807 0.09840 0.44333
 C333 C 0.45224 0.12737 0.46329
 H334 H 0.42653 0.18472 0.33698
 H335 H 0.40987 0.24215 0.33417
 H336 H 0.41504 0.24753 0.45386
 H337 H 0.44148 0.12641 0.35598
 H338 H 0.45826 0.07620 0.38902
 H339 H 0.45528 0.12814 0.49288
 C340 C 0.91659 0.30506 0.59183
 C341 C 0.91143 0.30434 0.55440
 C342 C 0.89758 0.27770 0.53552
 C343 C 0.88823 0.25052 0.55602
 C344 C 0.89235 0.25034 0.59488
 C345 C 0.90722 0.27805 0.61306
 O346 O 0.93111 0.33293 0.60375
 C347 C 0.93510 0.34996 0.57305
 C348 C 0.92331 0.33333 0.54230
 C349 C 0.92523 0.34574 0.50714
 C350 C 0.94039 0.37659 0.50320
 C351 C 0.95343 0.39456 0.53414
 C352 C 0.95029 0.38114 0.56981
 H353 H 0.89441 0.27772 0.50594
 H354 H 0.87820 0.22935 0.54138
 H355 H 0.91104 0.27862 0.64257
 H356 H 0.91571 0.33202 0.48346
 H357 H 0.94214 0.38636 0.47574
 H358 H 0.96016 0.39410 0.59391
 C359 C 0.08481 0.80515 -0.08174
 C360 C 0.11545 0.81801 -0.06391
 C361 C 0.14863 0.80126 -0.05897
 C362 C 0.15032 0.76966 -0.07253
 C363 C 0.11888 0.75490 -0.09053
 C364 C 0.08578 0.77365 -0.09566
 O365 O 0.05562 0.82506 -0.08240
 C366 C 0.06828 0.85099 -0.06452
 C367 C 0.10475 0.84775 -0.05265
 C368 C 0.12335 0.87119 -0.03212
 C369 C 0.10349 0.89919 -0.02321
 C370 C 0.06575 0.90334 -0.03499
 C371 C 0.04800 0.87894 -0.05632
 H372 H 0.17247 0.81213 -0.04507
 H373 H 0.17684 0.75730 -0.06973
 H374 H 0.06066 0.76374 -0.10816
 H375 H 0.15199 0.86788 -0.02288
 H376 H 0.11759 0.91766 -0.00706
 H377 H 0.01915 0.88126 -0.06536
 C378 C 0.57119 0.70430 1.07648
 C379 C 0.56544 0.68826 1.10885
 C380 C 0.56976 0.70282 1.14296
 C381 C 0.58054 0.73534 1.14391
 C382 C 0.58765 0.75279 1.11098
 C383 C 0.58296 0.73654 1.07669
 O384 O 0.56454 0.68601 1.04701
 C385 C 0.55474 0.65775 1.06124
 C386 C 0.55531 0.65785 1.09901
 C387 C 0.54728 0.63069 1.11976
 C388 C 0.53824 0.60216 1.10083
 C389 C 0.53656 0.60150 1.06192
 C390 C 0.54474 0.62977 1.04178
 H391 H 0.56510 0.68957 1.16806
 H392 H 0.58506 0.74623 1.17064
 H393 H 0.58701 0.74874 1.05083
 H394 H 0.54824 0.63136 1.14946
 H395 H 0.53191 0.58067 1.11646
 H396 H 0.54396 0.62978 1.01206
 C397 C 0.42659 0.41549 1.23141
 C398 C 0.44883 0.44140 1.24103
 C399 C 0.45479 0.45091 1.27732
 C400 C 0.43742 0.43273 1.30481
 C401 C 0.41524 0.40542 1.29556
 C402 C 0.40966 0.39674 1.25833
 O403 O 0.42408 0.41083 1.19538
 C404 C 0.44541 0.43418 1.18196
 C405 C 0.46151 0.45334 1.20876
 C406 C 0.48568 0.47866 1.20083
 C407 C 0.49331 0.48466 1.16376
 C408 C 0.47627 0.46580 1.13554
 C409 C 0.45198 0.44014 1.14489
 H410 H 0.47227 0.47148 1.28421
 H411 H 0.44194 0.43934 1.33332
 H412 H 0.39283 0.37594 1.25069
 H413 H 0.49824 0.49326 1.22240
 H414 H 0.51178 0.50449 1.15700
 H415 H 0.43874 0.42524 1.12397
 C416 C 0.57799 -0.08133 0.27280
 C417 C 0.55620 -0.05530 0.26297
 C418 C 0.55143 -0.04565 0.22666
 C419 C 0.56941 -0.06387 0.19940
 C420 C 0.59101 -0.09133 0.20891
 C421 C 0.59554 -0.10005 0.24613
 O422 O 0.57909 -0.08642 0.30872
 C423 C 0.55732 -0.06325 0.32190
 C424 C 0.54227 -0.04374 0.29507
 C425 C 0.51759 -0.01870 0.30286
 C426 C 0.50840 -0.01337 0.33982
 C427 C 0.52444 -0.03262 0.36802
 C428 C 0.54920 -0.05795 0.35878
 H429 H 0.53423 -0.02506 0.21956
 H430 H 0.56559 -0.05732 0.17085
 H431 H 0.61172 -0.12109 0.25394
 H432 H 0.50579 -0.00385 0.28128
 H433 H 0.48954 0.00619 0.34656
 H434 H 0.56162 -0.07320 0.37969
 C435 C -0.04045 1.10223 -0.21880
 C436 C -0.02625 1.07268 -0.22909
 C437 C -0.02556 1.06221 -0.26536
 C438 C -0.04145 1.08248 -0.29197
 C439 C -0.05787 1.11240 -0.28193
 C440 C -0.05625 1.12290 -0.24495
 O441 O -0.04078 1.10645 -0.18263
 C442 C -0.02684 1.07889 -0.16990
 C443 C -0.01778 1.05734 -0.19723
 C444 C -0.00599 1.02597 -0.19011
 C445 C -0.00313 1.01646 -0.15327
 C446 C -0.01159 1.03839 -0.12454
 C447 C -0.02336 1.07017 -0.13303
 H448 H -0.01469 1.03869 -0.27271
 H449 H -0.04290 1.07414 -0.32018
 H450 H -0.06967 1.14511 -0.23645
 H451 H 0.00012 1.00921 -0.21213
 H452 H 0.00598 0.99211 -0.14711
 H453 H -0.03069 1.08719 -0.11164
 C454 C 1.05653 0.59088 0.72424
 C455 C 1.06264 0.61368 0.69765
 C456 C 1.07556 0.64462 0.70539
 C457 C 1.08311 0.65239 0.74213
 C458 C 1.07792 0.62927 0.77033
 C459 C 1.06406 0.59806 0.76116
 O460 O 1.04509 0.56263 0.71052
 C461 C 1.04428 0.56777 0.67448
 C462 C 1.05507 0.59861 0.66541
 C463 C 1.05833 0.60907 0.62949
 C464 C 1.05006 0.58686 0.60159
 C465 C 1.03833 0.55492 0.60983
 C466 C 1.03504 0.54526 0.64694
 H467 H 1.08045 0.66196 0.68381
 H468 H 1.09452 0.67605 0.74839
 H469 H 1.06010 0.57982 0.78197
 H470 H 1.06730 0.63338 0.62316
 H471 H 1.05235 0.59475 0.57338
 H472 H 1.02644 0.52100 0.65400
 C473 C 0.77684 0.57116 0.58387
 C474 C 0.77014 0.56680 0.54692
 C475 C 0.73847 0.57866 0.52911
 C476 C 0.71270 0.59595 0.55019
 C477 C 0.71895 0.60101 0.58832
 C478 C 0.75126 0.58800 0.60553
 O479 O 0.80986 0.55968 0.59475
 C480 C 0.82426 0.54792 0.56396
 C481 C 0.80094 0.55164 0.53400
 C482 C 0.81110 0.54289 0.49865
 C483 C 0.84709 0.53030 0.49379
 C484 C 0.87211 0.52667 0.52406
 C485 C 0.86016 0.53505 0.55982
 H486 H 0.73411 0.57526 0.49990
 H487 H 0.68794 0.60563 0.53683
 H488 H 0.75691 0.59196 0.63446
 H489 H 0.79237 0.54644 0.47547
 H490 H 0.85574 0.52401 0.46626
 H491 H 0.87884 0.53320 0.58332
 C492 C 0.73408 0.42378 1.05685
 C493 C 0.72768 0.41281 1.02171
 C494 C 0.75213 0.39225 1.00375
 C495 C 0.78420 0.38206 1.02299
 C496 C 0.79156 0.39239 1.05983
 C497 C 0.76605 0.41435 1.07640
 O498 O 0.70634 0.44185 1.06960
 C499 C 0.68194 0.44227 1.04184
 C500 C 0.69371 0.42493 1.01185
 C501 C 0.67190 0.42109 0.98031
 C502 C 0.63640 0.43560 0.97970
 C503 C 0.62332 0.45346 1.01041
 C504 C 0.64676 0.45697 1.04183
 H505 H 0.74649 0.38397 0.97602
 H506 H 0.80350 0.36654 1.00856
 H507 H 0.76921 0.42224 1.10461
 H508 H 0.68164 0.40706 0.95717
 H509 H 0.61899 0.43256 0.95542
 H510 H 0.63764 0.47012 1.06588
 C511 C 0.22633 1.09909 -0.05529
 C512 C 0.23565 1.06866 -0.04354
 C513 C 0.26998 1.05441 -0.05083
 C514 C 0.29594 1.07232 -0.07099
 C515 C 0.28773 1.10436 -0.08266
 C516 C 0.25219 1.11784 -0.07418
 O517 O 0.19102 1.10695 -0.04834
 C518 C 0.17788 1.08094 -0.03155
 C519 C 0.20435 1.05707 -0.02748
 C520 C 0.19666 1.02745 -0.01159
 C521 C 0.15993 1.02182 -0.00021
 C522 C 0.13142 1.04537 -0.00561
 C523 C 0.14083 1.07567 -0.02095
 H524 H 0.27635 1.03013 -0.04182
 H525 H 0.32294 1.06147 -0.07622
 H526 H 0.24394 1.14153 -0.08374
 H527 H 0.21796 1.00903 -0.00883
 H528 H 0.15343 0.99838 0.01117
 H529 H 0.11977 1.09398 -0.02588
 C530 C 0.27005 -0.08962 0.44737
 C531 C 0.28884 -0.11285 0.46699
 C532 C 0.27654 -0.14458 0.46901
 C533 C 0.24337 -0.15274 0.45020
 C534 C 0.22215 -0.12901 0.43079
 C535 C 0.23613 -0.09680 0.42978
 O536 O 0.28814 -0.06156 0.44643
 C537 C 0.31895 -0.06723 0.46610
 C538 C 0.32035 -0.09812 0.47983
 C539 C 0.35013 -0.10940 0.50097
 C540 C 0.38009 -0.08820 0.50763
 C541 C 0.38025 -0.05673 0.49230
 C542 C 0.34899 -0.04598 0.47153
 H543 H 0.29255 -0.16272 0.48361
 H544 H 0.23507 -0.17783 0.45035
 H545 H 0.22138 -0.07757 0.41589
 H546 H 0.35057 -0.13383 0.51145
 H547 H 0.40404 -0.09687 0.52318
 H548 H 0.34853 -0.02222 0.45923
 C549 C 0.56548 -0.20628 0.58653
 C550 C 0.57105 -0.20656 0.54930
 C551 C 0.58589 -0.23262 0.53063
 C552 C 0.59655 -0.25946 0.55118
 C553 C 0.59283 -0.26010 0.59017
 C554 C 0.57555 -0.23322 0.60785
 O555 O 0.55232 -0.17803 0.59854
 C556 C 0.54981 -0.16033 0.56809
 C557 C 0.56108 -0.17693 0.53739
 C558 C 0.56294 -0.16319 0.50285
 C559 C 0.55286 -0.13079 0.49955
 C560 C 0.54088 -0.11267 0.53045
 C561 C 0.53888 -0.12779 0.56533
 H562 H 0.58960 -0.23219 0.50118
 H563 H 0.60724 -0.28003 0.53616
 H564 H 0.57241 -0.23223 0.63734
 H565 H 0.57237 -0.17684 0.47928
 H566 H 0.55423 -0.11981 0.47265
 H567 H 0.53020 -0.11450 0.58943
 C568 C 1.06435 0.70087 0.42239
 C569 C 1.02750 0.69737 0.41213
 C570 C 1.00624 0.72250 0.39814
 C571 C 1.02385 0.75242 0.39366
 C572 C 1.06265 0.75694 0.40242
 C573 C 1.08271 0.73039 0.41789
 O574 O 1.07920 0.67386 0.43575
 C575 C 1.05098 0.65294 0.43375
 C576 C 1.01884 0.66618 0.41923
 C577 C 0.98593 0.64878 0.41432
 C578 C 0.98583 0.61647 0.42549
 C579 C 1.01825 0.60222 0.44159
 C580 C 1.05150 0.62078 0.44535
 H581 H 0.97693 0.71927 0.39114
 H582 H 1.00644 0.77208 0.38418
 H583 H 1.11224 0.73167 0.42453
 H584 H 0.96106 0.65978 0.40265
 H585 H 0.96006 0.60288 0.42240
 H586 H 1.07664 0.61079 0.45764
 C587 C -0.07781 1.20596 0.07253
 C588 C -0.07259 1.18877 0.10433
 C589 C -0.07524 1.20251 0.13896
 C590 C -0.08343 1.23549 0.14105
 C591 C -0.08986 1.25411 0.10875
 C592 C -0.08751 1.23865 0.07390
 O593 O -0.07171 1.18848 0.04246
 C594 C -0.06279 1.15960 0.05573
 C595 C -0.06351 1.15851 0.09345
 C596 C -0.05560 1.13078 0.11334
 C597 C -0.04636 1.10293 0.09355
 C598 C -0.04424 1.10352 0.05470
 C599 C -0.05251 1.13230 0.03542
 H600 H -0.07069 1.18842 0.16357
 H601 H -0.08609 1.24613 0.16810
 H602 H -0.09113 1.25191 0.04857
 H603 H -0.05649 1.13060 0.14303
 H604 H -0.03982 1.08107 0.10853
 H605 H -0.05112 1.13329 0.00577
 C606 C 0.42006 0.30492 0.90256
 C607 C 0.38812 0.32250 0.90882
 C608 C 0.35237 0.31067 0.90167
 C609 C 0.34926 0.27902 0.88831
 C610 C 0.38159 0.25970 0.88288
 C611 C 0.41761 0.27320 0.88933
 O612 O 0.45118 0.32050 0.91255
 C613 C 0.43847 0.34841 0.92563
 C614 C 0.40003 0.35059 0.92413
 C615 C 0.38037 0.37656 0.93844
 C616 C 0.40114 0.40143 0.95496
 C617 C 0.44085 0.40021 0.95647
 C618 C 0.45990 0.37342 0.94123
 H619 H 0.32770 0.32506 0.90689
 H620 H 0.32156 0.26928 0.88298
 H621 H 0.44276 0.25895 0.88604
 H622 H 0.35009 0.37742 0.93741
 H623 H 0.38626 0.42191 0.96628
 H624 H 0.49014 0.37174 0.94242
 C625 C 0.55119 0.59932 0.78970
 C626 C 0.53964 0.56894 0.77897
 C627 C 0.54229 0.55775 0.74312
 C628 C 0.55846 0.57836 0.71736
 C629 C 0.57184 0.60939 0.72779
 C630 C 0.56732 0.62040 0.76432
 O631 O 0.54810 0.60426 0.82564
 C632 C 0.53461 0.57633 0.83776
 C633 C 0.52919 0.55392 0.81023
 C634 C 0.51820 0.52228 0.81686
 C635 C 0.51249 0.51328 0.85341
 C636 C 0.51733 0.53595 0.88237
 C637 C 0.52818 0.56808 0.87437
 H638 H 0.53337 0.53362 0.73549
 H639 H 0.56198 0.56971 0.68950
 H640 H 0.57814 0.64365 0.77310
 H641 H 0.51490 0.50493 0.79474
 H642 H 0.50418 0.48867 0.85918
 H643 H 0.53278 0.58567 0.89605
 C644 C 0.43910 0.07673 0.72364
 C645 C 0.47586 0.08564 0.71926
 C646 C 0.49408 0.10735 0.74259
 C647 C 0.47349 0.12062 0.77156
 C648 C 0.43529 0.11228 0.77650
 C649 C 0.41807 0.08968 0.75224
 O650 O 0.42660 0.05697 0.69737
 C651 C 0.45612 0.05343 0.67582
 C652 C 0.48691 0.07058 0.68804
 C653 C 0.52002 0.07229 0.66850
 C654 C 0.52129 0.05612 0.63469
 C655 C 0.48995 0.03835 0.62131
 C656 C 0.45707 0.03646 0.64251
 H657 H 0.52298 0.11415 0.73837
 H658 H 0.48728 0.13750 0.79004
 H659 H 0.38880 0.08329 0.75467
 H660 H 0.54363 0.08639 0.67837
 H661 H 0.54650 0.05785 0.61852
 H662 H 0.43247 0.02378 0.63244
 C663 C 0.07109 0.92867 0.23128
 C664 C 0.03478 0.93863 0.23666
 C665 C 0.01564 0.93300 0.26904
 C666 C 0.03447 0.91590 0.29675
 C667 C 0.07173 0.90505 0.29168
 C668 C 0.09055 0.91205 0.25872
 O669 O 0.08330 0.93473 0.19772
 C670 C 0.05406 0.94873 0.18159
 C671 C 0.02371 0.95175 0.20425
 C672 C -0.01037 0.96440 0.19246
 C673 C -0.01333 0.97429 0.15575
 C674 C 0.01750 0.97122 0.13165
 C675 C 0.05177 0.95842 0.14504
 H676 H -0.01308 0.94069 0.27245
 H677 H 0.01985 0.91046 0.32189
 H678 H 0.11867 0.90335 0.25393
 H679 H -0.03399 0.96621 0.21073
 H680 H -0.03977 0.98398 0.14608
 H681 H 0.07575 0.95545 0.12740
 C682 C 0.93730 0.43478 0.26634
 C683 C 0.97575 0.43245 0.26717
 C684 C 0.99613 0.41888 0.23876
 C685 C 0.97602 0.40636 0.20868
 C686 C 0.93627 0.40740 0.20764
 C687 C 0.91669 0.42263 0.23649
 O688 O 0.92334 0.44664 0.29724
 C689 C 0.95360 0.45166 0.31804
 C690 C 0.98634 0.44324 0.30095
 C691 C 1.02103 0.44406 0.31865
 C692 C 1.02202 0.45396 0.35552
 C693 C 0.98869 0.46304 0.37373
 C694 C 0.95403 0.46217 0.35450
 H695 H 1.02633 0.41701 0.24023
 H696 H 0.99127 0.39476 0.18673
 H697 H 0.88637 0.42301 0.23682
 H698 H 1.04631 0.43668 0.30481
 H699 H 1.04871 0.45450 0.36990
 H700 H 0.92806 0.46831 0.36790
   
