data_POSCAR
  _audit_creation_date              2014-09-24
  _audit_creation_method            'ToBaCCo'
  _symmetry_space_group_name_H-M    'P1'
  _symmetry_Int_Tables_number       1
  _symmetry_cell_setting            triclinic
  loop_
  _symmetry_equiv_pos_as_xyz
 x,y,z
_cell_length_a 38.0946
_cell_length_b 37.7152
_cell_length_c 48.2403
_cell_angle_alpha 87.944800
_cell_angle_beta 89.874700
_cell_angle_gamma 90.674000
loop_
  _atom_site_label
  _atom_site_type_symbol
  _atom_site_fract_x
  _atom_site_fract_y
  _atom_site_fract_z
C1 C 1.18277 0.27427 0.29206
 H2 H 1.18203 0.24576 0.29544
 C3 C 1.16154 0.29549 0.30812
 H4 H 1.14479 0.28287 0.32380
 C5 C 1.20764 0.32511 0.26910
 H6 H 1.22610 0.33673 0.25428
 C7 C 1.18658 0.34732 0.28447
 H8 H 1.18869 0.37574 0.28076
 N9 N 1.20565 0.28926 0.27323
 C10 C 1.23109 0.21396 0.21001
 H11 H 1.25868 0.22040 0.20760
 C12 C 1.21483 0.19188 0.19120
 H13 H 1.23025 0.18171 0.17444
 C14 C 1.17728 0.22167 0.23354
 H15 H 1.16251 0.23368 0.24974
 C16 C 1.16001 0.19931 0.21537
 H17 H 1.13226 0.19392 0.21833
 Zn18 Zn 1.23712 0.25968 0.25392
 N19 N 1.21231 0.22838 0.23070
 C20 C 1.28808 0.20906 0.27017
 N21 N 1.26473 0.23270 0.27975
 C22 C 1.26123 0.23750 0.30737
 C23 C 1.28068 0.21741 0.32654
 C24 C 1.30895 0.18911 0.28855
 C25 C 1.25238 0.30510 0.20826
 C26 C 1.27344 0.32407 0.18909
 C27 C 1.32441 0.30730 0.21605
 C28 C 1.30231 0.28912 0.23497
 N29 N 1.26705 0.28796 0.23057
 H30 H 1.29073 0.20572 0.24813
 H31 H 1.24374 0.25737 0.31476
 H32 H 1.27761 0.22346 0.34815
 H33 H 1.32614 0.16990 0.27970
 H34 H 1.22430 0.30344 0.20514
 H35 H 1.26146 0.33705 0.17116
 H36 H 1.35249 0.30762 0.21955
 H37 H 1.31344 0.27553 0.25291
 C38 C 1.17876 0.18421 0.19368
 C39 C 1.16350 0.33264 0.30467
 C40 C 1.30997 0.32485 0.19270
 C41 C 1.30532 0.19241 0.31756
 C42 C 0.67562 -0.22978 0.28721
 H43 H 0.66966 -0.25786 0.28660
 C44 C 0.65695 -0.20864 0.30510
 H45 H 0.63674 -0.22074 0.31824
 C46 C 0.71067 -0.18049 0.27200
 H47 H 0.73194 -0.16973 0.25934
 C48 C 0.69276 -0.15839 0.28972
 H49 H 0.70018 -0.13063 0.29029
 N50 N 0.70237 -0.21565 0.27150
 C51 C 0.71824 -0.30099 0.21371
 H52 H 0.74608 -0.30504 0.21588
 C53 C 0.69912 -0.32167 0.19554
 H54 H 0.71266 -0.34134 0.18386
 C55 C 0.66736 -0.26888 0.22480
 H56 H 0.65519 -0.24764 0.23559
 C57 C 0.64720 -0.28900 0.20684
 H58 H 0.61950 -0.28351 0.20458
 Zn59 Zn 0.73059 -0.24626 0.25064
 N60 N 0.70225 -0.27519 0.22796
 C61 C 0.78584 -0.29274 0.26517
 N62 N 0.75783 -0.27517 0.27528
 C63 C 0.74997 -0.27697 0.30283
 C64 C 0.76999 -0.29760 0.32121
 C65 C 0.80673 -0.31360 0.28291
 C66 C 0.75184 -0.21255 0.20057
 C67 C 0.77398 -0.19304 0.18258
 C68 C 0.81517 -0.18675 0.22017
 C69 C 0.79211 -0.20631 0.23753
 N70 N 0.76125 -0.21890 0.22743
 H71 H 0.79249 -0.29001 0.24341
 H72 H 0.72838 -0.26221 0.31083
 H73 H 0.76347 -0.29828 0.34309
 H74 H 0.82882 -0.32751 0.27449
 H75 H 0.72711 -0.22273 0.19307
 H76 H 0.76627 -0.18880 0.16113
 H77 H 0.83961 -0.17682 0.22850
 H78 H 0.79884 -0.21159 0.25904
 C79 C 0.66313 -0.31566 0.19176
 C80 C 0.66592 -0.17259 0.30691
 C81 C 0.80617 -0.17993 0.19228
 C82 C 0.79874 -0.31631 0.31132
 C83 C 0.69440 0.25386 -0.20355
 H84 H 0.69499 0.22533 -0.20033
 C85 C 0.67518 0.27429 -0.18543
 H86 H 0.66135 0.26105 -0.16833
 C87 C 0.71421 0.30555 -0.22840
 H88 H 0.73005 0.31787 -0.24471
 C89 C 0.69484 0.32694 -0.21112
 H90 H 0.69544 0.35538 -0.21501
 N91 N 0.71390 0.26967 -0.22429
 C92 C 0.73249 0.19613 -0.29015
 H93 H 0.76006 0.20161 -0.29388
 C94 C 0.71342 0.17642 -0.30905
 H95 H 0.72672 0.16699 -0.32716
 C96 C 0.68135 0.20467 -0.26336
 H97 H 0.66866 0.21636 -0.24594
 C98 C 0.66135 0.18473 -0.28155
 H99 H 0.63362 0.18074 -0.27741
 Zn100 Zn 0.74348 0.24104 -0.24609
 N101 N 0.71628 0.21011 -0.26796
 C102 C 0.79408 0.18823 -0.23217
 N103 N 0.77403 0.21460 -0.22216
 C104 C 0.77562 0.22293 -0.19497
 C105 C 0.79670 0.20359 -0.17650
 C106 C 0.81611 0.16854 -0.21442
 C107 C 0.75306 0.28829 -0.29149
 C108 C 0.77145 0.30942 -0.31104
 C109 C 0.82542 0.29240 -0.28843
 C110 C 0.80579 0.27202 -0.26909
 N111 N 0.77032 0.27027 -0.27100
 H112 H 0.79293 0.18234 -0.25390
 H113 H 0.76072 0.24478 -0.18746
 H114 H 0.79734 0.21040 -0.15488
 H115 H 0.83161 0.14736 -0.22253
 H116 H 0.72473 0.28647 -0.29248
 H117 H 0.75565 0.32448 -0.32565
 H118 H 0.85356 0.29084 -0.28647
 H119 H 0.81908 0.25708 -0.25280
 C120 C 0.67720 0.17080 -0.30510
 C121 C 0.67550 0.31149 -0.18886
 C122 C 0.80868 0.31186 -0.31033
 C123 C 0.81707 0.17588 -0.18613
 C124 C 1.18401 -0.24307 -0.20897
 H125 H 1.17972 -0.27148 -0.20883
 C126 C 1.16680 -0.22272 -0.18965
 H127 H 1.14920 -0.23566 -0.17470
 C128 C 1.21377 -0.19206 -0.22760
 H129 H 1.23293 -0.18035 -0.24180
 C130 C 1.19737 -0.17075 -0.20846
 H131 H 1.20339 -0.14260 -0.20864
 N132 N 1.20672 -0.22752 -0.22762
 C133 C 1.21672 -0.31080 -0.28772
 H134 H 1.24506 -0.31239 -0.28823
 C135 C 1.19648 -0.33285 -0.30409
 H136 H 1.20952 -0.35113 -0.31739
 C137 C 1.16560 -0.28379 -0.27057
 H138 H 1.15372 -0.26419 -0.25786
 C139 C 1.14430 -0.30531 -0.28672
 H140 H 1.11607 -0.30247 -0.28587
 Zn141 Zn 1.23169 -0.25781 -0.25094
 N142 N 1.20113 -0.28706 -0.27125
 C143 C 1.25538 -0.32112 -0.22317
 N144 N 1.26072 -0.28562 -0.22738
 C145 C 1.28631 -0.26808 -0.21366
 C146 C 1.30853 -0.28642 -0.19542
 C147 C 1.27662 -0.34045 -0.20466
 C148 C 1.24411 -0.20548 -0.29292
 C149 C 1.26392 -0.18497 -0.31203
 C150 C 1.31480 -0.21949 -0.29934
 C151 C 1.29414 -0.23895 -0.28018
 N152 N 1.25960 -0.23127 -0.27698
 H153 H 1.23420 -0.33436 -0.23367
 H154 H 1.28963 -0.23974 -0.21713
 H155 H 1.32935 -0.27191 -0.18543
 H156 H 1.27132 -0.36850 -0.20107
 H157 H 1.21641 -0.20043 -0.29040
 H158 H 1.25124 -0.16373 -0.32371
 H159 H 1.34207 -0.22651 -0.30181
 H160 H 1.30567 -0.26055 -0.26820
 C161 C 1.15974 -0.33025 -0.30379
 C162 C 1.17362 -0.18609 -0.18912
 C163 C 1.29988 -0.19176 -0.31540
 C164 C 1.30370 -0.32312 -0.19047
 C165 C 0.27075 0.19788 0.70958
 H166 H 0.24250 0.19653 0.70865
 C167 C 0.29037 0.17596 0.69305
 H168 H 0.27694 0.15851 0.67911
 C169 C 0.32255 0.22202 0.72882
 H170 H 0.33506 0.23963 0.74302
 C171 C 0.34330 0.20085 0.71226
 H172 H 0.37163 0.20254 0.71370
 N173 N 0.28690 0.22059 0.72689
 C174 C 0.19938 0.23774 0.78288
 H175 H 0.19564 0.26601 0.77989
 C176 C 0.17793 0.21813 0.80147
 H177 H 0.15870 0.23269 0.81277
 C178 C 0.23168 0.18659 0.77307
 H179 H 0.25306 0.17439 0.76235
 C180 C 0.21043 0.16578 0.79092
 H181 H 0.21541 0.13765 0.79196
 Zn182 Zn 0.25745 0.25055 0.74742
 N183 N 0.22616 0.22196 0.76963
 C184 C 0.20446 0.26164 0.70821
 N185 N 0.23078 0.27851 0.72165
 C186 C 0.23864 0.31324 0.71555
 C187 C 0.22080 0.33176 0.69436
 C188 C 0.18617 0.27901 0.68683
 C189 C 0.27851 0.27699 0.79879
 C190 C 0.29745 0.29768 0.81700
 C191 C 0.33029 0.32285 0.77807
 C192 C 0.31034 0.30190 0.76047
 N193 N 0.28482 0.27962 0.77100
 H194 H 0.19779 0.23443 0.71390
 H195 H 0.25906 0.32661 0.72674
 H196 H 0.22751 0.35933 0.68980
 H197 H 0.16623 0.26444 0.67586
 H198 H 0.25894 0.25863 0.80707
 H199 H 0.29207 0.29499 0.83904
 H200 H 0.35040 0.34052 0.76940
 H201 H 0.31542 0.30322 0.73838
 C202 C 0.18340 0.18134 0.80638
 C203 C 0.32709 0.17756 0.69406
 C204 C 0.32364 0.32104 0.80672
 C205 C 0.19449 0.31447 0.67937
 C206 C 0.77098 0.70814 0.70944
 H207 H 0.74285 0.70537 0.71198
 C208 C 0.78843 0.68804 0.69013
 H209 H 0.77346 0.66985 0.67778
 C210 C 0.82433 0.73634 0.72178
 H211 H 0.83811 0.75579 0.73369
 C212 C 0.84286 0.71683 0.70260
 H213 H 0.87094 0.72078 0.70049
 N214 N 0.78910 0.73132 0.72509
 C215 C 0.71400 0.74568 0.79177
 H216 H 0.71277 0.77434 0.79054
 C217 C 0.69250 0.72651 0.81042
 H218 H 0.67566 0.74125 0.82380
 C219 C 0.73930 0.69283 0.77643
 H220 H 0.75767 0.67988 0.76314
 C221 C 0.71888 0.67252 0.79538
 H222 H 0.72134 0.64397 0.79554
 Zn223 Zn 0.76258 0.75824 0.74978
 N224 N 0.73610 0.72869 0.77473
 C225 C 0.69693 0.77979 0.72805
 N226 N 0.73205 0.78674 0.72783
 C227 C 0.74628 0.81215 0.71036
 C228 C 0.72487 0.83195 0.69230
 C229 C 0.67461 0.79887 0.71034
 C230 C 0.81732 0.76865 0.78657
 C231 C 0.83856 0.78673 0.80497
 C232 C 0.80670 0.84027 0.79350
 C233 C 0.78654 0.82126 0.77481
 N234 N 0.79213 0.78608 0.77180
 H235 H 0.68617 0.75872 0.74132
 H236 H 0.77439 0.81657 0.71015
 H237 H 0.73672 0.85152 0.67811
 H238 H 0.64675 0.79285 0.71078
 H239 H 0.82071 0.74048 0.78416
 H240 H 0.85887 0.77228 0.81603
 H241 H 0.80085 0.86791 0.79638
 H242 H 0.76558 0.83433 0.76354
 C243 C 0.69437 0.68917 0.81250
 C244 C 0.82489 0.69213 0.68661
 C245 C 0.83301 0.82295 0.80909
 C246 C 0.68855 0.82511 0.69196
 C247 C 0.77070 0.19889 0.20584
 H248 H 0.74238 0.20010 0.20467
 C249 C 0.78915 0.17769 0.18786
 H250 H 0.77487 0.16254 0.17282
 C251 C 0.82384 0.21831 0.22618
 H252 H 0.83725 0.23447 0.24096
 C253 C 0.84335 0.19777 0.20838
 H254 H 0.87172 0.19791 0.20983
 N255 N 0.78818 0.21835 0.22469
 C256 C 0.71790 0.23790 0.29338
 H257 H 0.72320 0.26592 0.29542
 C258 C 0.69609 0.21986 0.31250
 H259 H 0.68512 0.23421 0.32945
 C260 C 0.72707 0.18513 0.26929
 H261 H 0.73943 0.17160 0.25260
 C262 C 0.70511 0.16609 0.28782
 H263 H 0.70036 0.13815 0.28477
 Zn264 Zn 0.76188 0.24777 0.24759
 N265 N 0.73266 0.22050 0.27217
 C266 C 0.69910 0.28091 0.22970
 N267 N 0.73398 0.27764 0.22444
 C268 C 0.74915 0.29396 0.20178
 C269 C 0.72894 0.31420 0.18312
 C270 C 0.67803 0.30119 0.21179
 C271 C 0.80834 0.25776 0.29125
 C272 C 0.82800 0.27684 0.31016
 C273 C 0.81567 0.33050 0.28324
 C274 C 0.79588 0.31045 0.26505
 N275 N 0.79229 0.27482 0.26954
 H276 H 0.68737 0.26753 0.24763
 H277 H 0.77686 0.29055 0.19788
 H278 H 0.74136 0.32597 0.16474
 H279 H 0.65041 0.30364 0.21658
 H280 H 0.80473 0.22941 0.29443
 H281 H 0.83910 0.26291 0.32802
 H282 H 0.81805 0.35888 0.27937
 H283 H 0.78280 0.32348 0.24772
 C284 C 0.68921 0.18347 0.30978
 C285 C 0.82595 0.17708 0.18897
 C286 C 0.83134 0.31385 0.30657
 C287 C 0.69275 0.31781 0.18789
 C288 C 0.27557 0.68716 0.21773
 H289 H 0.24831 0.68247 0.22320
 C290 C 0.29169 0.66604 0.19832
 H291 H 0.27676 0.64454 0.18964
 C292 C 0.32766 0.72129 0.22230
 H293 H 0.34122 0.74360 0.23101
 C294 C 0.34463 0.70124 0.20260
 H295 H 0.37116 0.70856 0.19649
 N296 N 0.29372 0.71396 0.22947
 C297 C 0.22547 0.73848 0.29899
 H298 H 0.22460 0.76693 0.29539
 C299 C 0.20712 0.72265 0.32129
 H300 H 0.19216 0.73920 0.33476
 C301 C 0.24708 0.68272 0.28620
 H302 H 0.26326 0.66736 0.27281
 C303 C 0.22910 0.66573 0.30839
 H304 H 0.23083 0.63722 0.31138
 Zn305 Zn 0.26903 0.74418 0.25307
 N306 N 0.24448 0.71844 0.28169
 C307 C 0.20221 0.76694 0.23261
 N308 N 0.23767 0.77074 0.23026
 C309 C 0.25235 0.79281 0.21044
 C310 C 0.23120 0.81272 0.19231
 C311 C 0.18003 0.78612 0.21467
 C312 C 0.32700 0.76046 0.28582
 C313 C 0.34823 0.78128 0.30243
 C314 C 0.31352 0.83206 0.28890
 C315 C 0.29337 0.81023 0.27221
 N316 N 0.30013 0.77508 0.27122
 H317 H 0.19105 0.74869 0.24809
 H318 H 0.28063 0.79487 0.20873
 H319 H 0.24341 0.82990 0.17652
 H320 H 0.15187 0.78285 0.21681
 H321 H 0.33172 0.73230 0.28479
 H322 H 0.37006 0.76803 0.31231
 H323 H 0.30491 0.85911 0.29008
 H324 H 0.27107 0.82116 0.26120
 C325 C 0.20848 0.68575 0.32611
 C326 C 0.32660 0.67323 0.19014
 C327 C 0.34134 0.81791 0.30528
 C328 C 0.19452 0.80943 0.19423
 O329 O 1.07519 0.03690 0.02263
 O330 O 0.94038 -0.04596 0.02270
 O331 O 0.96803 0.06247 0.02289
 O332 O 1.04700 -0.07180 0.02499
 O333 O 0.94807 0.01269 0.03813
 O334 O 1.06806 -0.02339 0.03924
 O335 O 0.98784 -0.06492 0.03969
 O336 O 1.02674 0.05644 0.03708
 C337 C 1.05844 0.05235 0.04082
 C338 C 0.95602 -0.06078 0.04248
 C339 C 0.95249 0.04465 0.04161
 C340 C 1.06287 -0.05552 0.04336
 O341 O 1.07456 -0.04506 -0.01386
 O342 O 0.94145 0.03774 -0.01489
 O343 O 1.04862 0.06348 -0.01660
 O344 O 0.96682 -0.07067 -0.01471
 O345 O 0.94884 -0.02105 -0.03069
 O346 O 1.06935 0.01513 -0.03038
 O347 O 1.02592 -0.06429 -0.02883
 O348 O 0.98946 0.05670 -0.03169
 Co349 Co 1.06560 -0.00411 0.00440
 Co350 Co 0.95084 -0.00418 0.00380
 Co351 Co 1.00809 0.05368 0.00293
 Co352 Co 1.00692 -0.06184 0.00526
 O353 O 1.00795 -0.00409 0.00415
 C354 C 1.05775 -0.06006 -0.03240
 C355 C 0.95754 0.05285 -0.03451
 C356 C 1.06410 0.04704 -0.03491
 C357 C 0.95281 -0.05302 -0.03400
 O358 O 1.04462 0.51032 0.53752
 O359 O 0.92570 0.45922 0.51861
 O360 O 0.96144 0.56968 0.51881
 O361 O 1.03479 0.44713 0.52727
 O362 O 0.92909 0.52339 0.53203
 O363 O 1.08207 0.47117 0.50920
 O364 O 0.97425 0.44292 0.53614
 O365 O 1.02486 0.56249 0.52544
 C366 C 1.03907 0.54190 0.54334
 C367 C 0.94199 0.44455 0.53807
 C368 C 0.93950 0.55461 0.53552
 C369 C 1.06777 0.44535 0.52394
 O370 O 1.04912 0.48968 0.46469
 O371 O 0.92437 0.54297 0.48083
 O372 O 1.03087 0.55485 0.46849
 O373 O 0.96017 0.43340 0.48055
 O374 O 0.92949 0.47964 0.46695
 O375 O 1.07223 0.53846 0.49375
 O376 O 1.02289 0.43986 0.47165
 O377 O 0.97215 0.56087 0.46257
 Co378 Co 1.04456 0.49879 0.50113
 Co379 Co 0.93326 0.50132 0.49948
 Co380 Co 0.99707 0.55752 0.49436
 Co381 Co 0.99752 0.44601 0.50331
 O382 O 0.99118 0.50259 0.49878
 C383 C 1.04151 0.45987 0.45638
 C384 C 0.94001 0.55801 0.46110
 C385 C 1.06231 0.55804 0.47422
 C386 C 0.93899 0.44841 0.46363
 O387 O 0.56253 0.04462 0.51880
 O388 O 0.42772 -0.04135 0.51813
 O389 O 0.45530 0.06737 0.52012
 O390 O 0.53489 -0.06437 0.52313
 O391 O 0.43484 0.01732 0.53471
 O392 O 0.55551 -0.01527 0.53661
 O393 O 0.47521 -0.05841 0.53622
 O394 O 0.51410 0.06296 0.53369
 C395 C 0.54580 0.05921 0.53737
 C396 C 0.44305 -0.05643 0.53794
 C397 C 0.44038 0.04903 0.53891
 C398 C 0.55069 -0.04735 0.54116
 O399 O 0.56337 -0.03852 0.48438
 O400 O 0.42809 0.04344 0.48226
 O401 O 0.53521 0.06978 0.47934
 O402 O 0.45650 -0.06431 0.48116
 O403 O 0.43677 -0.01521 0.46532
 O404 O 0.55706 0.02121 0.46663
 O405 O 0.51551 -0.05767 0.46849
 O406 O 0.47598 0.06242 0.46518
 Co407 Co 0.55333 0.00290 0.50155
 Co408 Co 0.43819 0.00113 0.50013
 Co409 Co 0.49514 0.05970 0.49961
 Co410 Co 0.49551 -0.05528 0.50221
 O411 O 0.49564 0.00214 0.50090
 C412 C 0.54729 -0.05317 0.46537
 C413 C 0.44392 0.05941 0.46292
 C414 C 0.55188 0.05307 0.46176
 C415 C 0.44275 -0.04684 0.46162
 O416 O 0.56088 0.51885 0.03247
 O417 O 0.44142 0.47862 0.03114
 O418 O 0.48146 0.55782 0.03040
 O419 O 0.52042 0.43769 0.03337
 O420 O 0.43393 0.53775 0.01436
 O421 O 0.56886 0.45940 0.01852
 O422 O 0.46182 0.42993 0.01790
 O423 O 0.54063 0.56677 0.01538
 C424 C 0.55482 0.55058 0.03525
 C425 C 0.44564 0.44663 0.03574
 C426 C 0.44964 0.55283 0.03339
 C427 C 0.55202 0.44299 0.03725
 O428 O 0.56390 0.48194 -0.03555
 O429 O 0.44330 0.51559 -0.03865
 O430 O 0.51993 0.56020 -0.03802
 O431 O 0.48525 0.43781 -0.03604
 O432 O 0.43650 0.45576 -0.02153
 O433 O 0.56849 0.54168 -0.02186
 O434 O 0.54386 0.43250 -0.01973
 O435 O 0.46044 0.56504 -0.02386
 Co436 Co 0.55940 0.50034 -0.00166
 Co437 Co 0.44490 0.49712 -0.00364
 Co438 Co 0.50067 0.55631 -0.00384
 Co439 Co 0.50267 0.44065 -0.00132
 O440 O 0.50195 0.49857 -0.00262
 C441 C 0.55947 0.44986 -0.03862
 C442 C 0.44585 0.54798 -0.04241
 C443 C 0.55190 0.55700 -0.04103
 C444 C 0.45361 0.44167 -0.04013
 C445 C 1.12847 0.12122 0.13157
 C446 C 1.11016 0.14903 0.14396
 C447 C 1.12646 0.16910 0.16437
 C448 C 1.16081 0.16162 0.17318
 C449 C 1.17827 0.13300 0.16168
 C450 C 1.16246 0.11313 0.14115
 C451 C 1.11089 0.10189 0.10864
 C452 C 1.12782 0.07576 0.09341
 C453 C 1.11070 0.05953 0.07153
 C454 C 1.07622 0.06864 0.06448
 C455 C 1.05893 0.09415 0.07980
 C456 C 1.07610 0.11117 0.10141
 C457 C 1.07576 0.15685 0.13582
 C458 C 1.05894 0.13802 0.11525
 H459 H 1.06159 0.17790 0.14549
 H460 H 1.03231 0.14513 0.10969
 H461 H 1.11261 0.19120 0.17284
 H462 H 1.20436 0.12585 0.16857
 H463 H 1.12453 0.03983 0.06006
 H464 H 1.03233 0.10157 0.07438
 H465 H 1.17729 0.09159 0.13310
 H466 H 1.15444 0.06790 0.09771
 C467 C 1.10105 0.60700 0.63881
 C468 C 1.09154 0.64251 0.64340
 C469 C 1.10982 0.66233 0.66295
 C470 C 1.13803 0.64756 0.67784
 C471 C 1.14665 0.61202 0.67389
 C472 C 1.12842 0.59194 0.65474
 C473 C 1.08269 0.58768 0.61622
 C474 C 1.09088 0.55266 0.60937
 C475 C 1.07546 0.53715 0.58643
 C476 C 1.05148 0.55609 0.56981
 C477 C 1.04156 0.59011 0.57744
 C478 C 1.05703 0.60604 0.60033
 C479 C 1.06468 0.65848 0.62781
 C480 C 1.04783 0.64066 0.60671
 H481 H 1.05716 0.68554 0.63149
 H482 H 1.02784 0.65453 0.59476
 H483 H 1.10312 0.68986 0.66560
 H484 H 1.16788 0.59976 0.68549
 H485 H 1.08337 0.51074 0.58109
 H486 H 1.02264 0.60480 0.56495
 H487 H 1.13669 0.56498 0.65237
 H488 H 1.10975 0.53711 0.62097
 C489 C 0.61625 0.12122 0.63100
 C490 C 0.65043 0.10917 0.63740
 C491 C 0.66967 0.12449 0.65885
 C492 C 0.65581 0.15254 0.67372
 C493 C 0.62190 0.16437 0.66722
 C494 C 0.60234 0.14893 0.64631
 C495 C 0.59687 0.10474 0.60758
 C496 C 0.56224 0.11390 0.60031
 C497 C 0.54577 0.09876 0.57773
 C498 C 0.56337 0.07431 0.56163
 C499 C 0.59753 0.06430 0.56906
 C500 C 0.61420 0.07899 0.59204
 C501 C 0.66555 0.08253 0.62192
 C502 C 0.64799 0.06805 0.59955
 H503 H 0.69171 0.07323 0.62680
 H504 H 0.66111 0.04799 0.58792
 H505 H 0.69567 0.11476 0.66375
 H506 H 0.61070 0.18645 0.67776
 H507 H 0.51923 0.10664 0.57263
 H508 H 0.61108 0.04490 0.55704
 H509 H 0.57674 0.15971 0.64208
 H510 H 0.54735 0.13263 0.61175
 C511 C 0.60853 0.62782 0.12831
 C512 C 0.63221 0.60981 0.14631
 C513 C 0.64904 0.62805 0.16751
 C514 C 0.64298 0.66429 0.17100
 C515 C 0.61884 0.68179 0.15357
 C516 C 0.60176 0.66388 0.13258
 C517 C 0.59259 0.60794 0.10498
 C518 C 0.56957 0.62377 0.08549
 C519 C 0.55707 0.60483 0.06320
 C520 C 0.56692 0.56956 0.05979
 C521 C 0.58880 0.55305 0.07960
 C522 C 0.60187 0.57201 0.10199
 C523 C 0.63953 0.57395 0.14268
 C524 C 0.62469 0.55546 0.12100
 H525 H 0.65748 0.56009 0.15656
 H526 H 0.63164 0.52790 0.11884
 H527 H 0.66724 0.61410 0.18113
 H528 H 0.61393 0.70981 0.15555
 H529 H 0.53979 0.61801 0.04841
 H530 H 0.59637 0.52569 0.07724
 H531 H 0.58394 0.67903 0.11966
 H532 H 0.56120 0.65086 0.08679
 C533 C 0.87535 -0.12505 0.13375
 C534 C 0.83901 -0.11756 0.13417
 C535 C 0.81692 -0.13477 0.15382
 C536 C 0.83026 -0.15980 0.17312
 C537 C 0.86640 -0.16650 0.17322
 C538 C 0.88871 -0.14939 0.15383
 C539 C 0.89766 -0.10743 0.11143
 C540 C 0.93395 -0.11360 0.10865
 C541 C 0.95308 -0.09791 0.08659
 C542 C 0.93654 -0.07577 0.06678
 C543 C 0.90075 -0.06858 0.06986
 C544 C 0.88127 -0.08420 0.09185
 C545 C 0.82471 -0.09348 0.11467
 C546 C 0.84538 -0.07717 0.09396
 H547 H 0.79694 -0.08757 0.11513
 H548 H 0.83293 -0.05916 0.07909
 H549 H 0.78912 -0.12893 0.15390
 H550 H 0.87732 -0.18585 0.18781
 H551 H 0.98078 -0.10365 0.08476
 H552 H 0.88780 -0.05115 0.05483
 H553 H 0.91613 -0.15608 0.15464
 H554 H 0.94796 -0.13076 0.12303
 C555 C 0.86743 0.37101 0.62865
 C556 C 0.83161 0.36309 0.62435
 C557 C 0.81230 0.34342 0.64455
 C558 C 0.82752 0.33165 0.67005
 C559 C 0.86320 0.34118 0.67422
 C560 C 0.88266 0.36022 0.65401
 C561 C 0.88749 0.39066 0.60599
 C562 C 0.92392 0.39747 0.60735
 C563 C 0.94148 0.41512 0.58536
 C564 C 0.92319 0.42673 0.56160
 C565 C 0.88690 0.42035 0.56012
 C566 C 0.86913 0.40198 0.58184
 C567 C 0.81509 0.37473 0.59978
 C568 C 0.83331 0.39417 0.57918
 H569 H 0.78752 0.36891 0.59648
 H570 H 0.81925 0.40268 0.56064
 H571 H 0.78577 0.33620 0.63913
 H572 H 0.87660 0.33555 0.69353
 H573 H 0.96953 0.41966 0.58696
 H574 H 0.87259 0.42888 0.54170
 H575 H 0.90953 0.36668 0.65891
 H576 H 0.93945 0.38892 0.62495
 C577 C 0.36374 -0.13118 0.62521
 C578 C 0.32783 -0.13801 0.61978
 C579 C 0.30731 -0.15783 0.63907
 C580 C 0.32165 -0.17041 0.66430
 C581 C 0.35698 -0.16254 0.67001
 C582 C 0.37779 -0.14334 0.65076
 C583 C 0.38509 -0.11120 0.60350
 C584 C 0.42160 -0.10539 0.60586
 C585 C 0.44039 -0.08740 0.58467
 C586 C 0.42321 -0.07444 0.56079
 C587 C 0.38686 -0.07976 0.55837
 C588 C 0.36787 -0.09846 0.57922
 C589 C 0.31252 -0.12495 0.59517
 C590 C 0.33200 -0.10519 0.57550
 H591 H 0.28496 -0.12992 0.59110
 H592 H 0.31888 -0.09555 0.55684
 H593 H 0.28020 -0.16387 0.63416
 H594 H 0.36862 -0.17096 0.68957
 H595 H 0.46847 -0.08369 0.58693
 H596 H 0.37341 -0.07016 0.53984
 H597 H 0.40468 -0.13810 0.65640
 H598 H 0.43625 -0.11501 0.62363
 C599 C 0.37410 0.37543 0.12880
 C600 C 0.34587 0.39380 0.14067
 C601 C 0.32530 0.37727 0.16168
 C602 C 0.33286 0.34285 0.17161
 C603 C 0.36171 0.32524 0.16074
 C604 C 0.38205 0.34120 0.13953
 C605 C 0.39406 0.39325 0.10523
 C606 C 0.42057 0.37622 0.09036
 C607 C 0.43748 0.39362 0.06792
 C608 C 0.42867 0.42847 0.05995
 C609 C 0.40271 0.44583 0.07486
 C610 C 0.38502 0.42837 0.09701
 C611 C 0.33828 0.42849 0.13150
 C612 C 0.35774 0.44558 0.11040
 H613 H 0.31694 0.44269 0.14079
 H614 H 0.35082 0.47246 0.10405
 H615 H 0.30337 0.39122 0.17040
 H616 H 0.36799 0.29863 0.16818
 H617 H 0.45747 0.37974 0.05672
 H618 H 0.39550 0.47271 0.06871
 H619 H 0.40373 0.32627 0.13180
 H620 H 0.42821 0.34932 0.09539
 C621 C 0.88019 0.11845 -0.12613
 C622 C 0.84359 0.12206 -0.12205
 C623 C 0.82328 0.14035 -0.14195
 C624 C 0.83860 0.15465 -0.16636
 C625 C 0.87447 0.14966 -0.17113
 C626 C 0.89514 0.13192 -0.15122
 C627 C 0.90124 0.10069 -0.10341
 C628 C 0.93818 0.09831 -0.10415
 C629 C 0.95653 0.08261 -0.08189
 C630 C 0.93850 0.06862 -0.05852
 C631 C 0.90177 0.07039 -0.05780
 C632 C 0.88317 0.08671 -0.07969
 C633 C 0.82741 0.10760 -0.09808
 C634 C 0.84670 0.08990 -0.07753
 H635 H 0.79934 0.11005 -0.09513
 H636 H 0.83292 0.07923 -0.05935
 H637 H 0.79538 0.14359 -0.13846
 H638 H 0.88671 0.16041 -0.18995
 H639 H 0.98490 0.08150 -0.08294
 H640 H 0.88758 0.05986 -0.03975
 H641 H 0.92269 0.12920 -0.15577
 H642 H 0.95339 0.10893 -0.12148
 C643 C 0.86264 0.62601 0.37072
 C644 C 0.82557 0.62345 0.37208
 C645 C 0.80500 0.64154 0.35221
 C646 C 0.82071 0.66244 0.33087
 C647 C 0.85742 0.66413 0.32905
 C648 C 0.87818 0.64618 0.34867
 C649 C 0.88359 0.60771 0.39318
 C650 C 0.92053 0.60961 0.39431
 C651 C 0.93873 0.59320 0.41622
 C652 C 0.92065 0.57442 0.43754
 C653 C 0.88393 0.57176 0.43634
 C654 C 0.86534 0.58834 0.41450
 C655 C 0.80918 0.60334 0.39348
 C656 C 0.82864 0.58608 0.41419
 H657 H 0.78080 0.60120 0.39440
 H658 H 0.81469 0.57114 0.43045
 H659 H 0.77661 0.63958 0.35348
 H660 H 0.87017 0.68026 0.31286
 H661 H 0.96710 0.59551 0.41658
 H662 H 0.86971 0.55715 0.45265
 H663 H 0.90624 0.64889 0.34636
 H664 H 0.93590 0.62391 0.37871
 C665 C 0.36606 0.13333 0.37569
 C666 C 0.33253 0.14566 0.38293
 C667 C 0.31271 0.16558 0.36362
 C668 C 0.32476 0.17261 0.33617
 C669 C 0.35750 0.15819 0.32885
 C670 C 0.37788 0.13932 0.34828
 C671 C 0.38712 0.11380 0.39748
 C672 C 0.42243 0.10415 0.39358
 C673 C 0.44099 0.08653 0.41483
 C674 C 0.42459 0.07757 0.44020
 C675 C 0.38953 0.08703 0.44426
 C676 C 0.37106 0.10574 0.42347
 C677 C 0.31848 0.13746 0.40928
 C678 C 0.33704 0.11729 0.42890
 H679 H 0.29253 0.14645 0.41475
 H680 H 0.32486 0.11137 0.44888
 H681 H 0.28676 0.17356 0.36990
 H682 H 0.36899 0.16305 0.30854
 H683 H 0.46817 0.07971 0.41140
 H684 H 0.37692 0.08083 0.46405
 H685 H 0.40283 0.12959 0.34139
 H686 H 0.43633 0.11057 0.37451
 C687 C 0.36829 0.61929 -0.13100
 C688 C 0.35976 0.65517 -0.12705
 C689 C 0.33853 0.67351 -0.14631
 C690 C 0.32626 0.65712 -0.17019
 C691 C 0.33569 0.62185 -0.17448
 C692 C 0.35629 0.60311 -0.15516
 C693 C 0.38966 0.60020 -0.10919
 C694 C 0.39712 0.56370 -0.10989
 C695 C 0.41591 0.54691 -0.08843
 C696 C 0.42811 0.56614 -0.06598
 C697 C 0.42148 0.60258 -0.06537
 C698 C 0.40187 0.61952 -0.08642
 C699 C 0.37249 0.67266 -0.10394
 C700 C 0.39351 0.65536 -0.08428
 H701 H 0.36622 0.70025 -0.10106
 H702 H 0.40274 0.67010 -0.06678
 H703 H 0.33119 0.70054 -0.14239
 H704 H 0.32744 0.60869 -0.19299
 H705 H 0.42062 0.51869 -0.08929
 H706 H 0.43046 0.61755 -0.04791
 H707 H 0.36272 0.57615 -0.15967
 H708 H 0.38804 0.54749 -0.12644
 C709 C 1.12662 -0.12590 -0.12464
 C710 C 1.10606 -0.14987 -0.13990
 C711 C 1.12141 -0.16896 -0.16114
 C712 C 1.15710 -0.16442 -0.16772
 C713 C 1.17720 -0.13990 -0.15316
 C714 C 1.16225 -0.12090 -0.13188
 C715 C 1.10955 -0.10733 -0.10122
 C716 C 1.12800 -0.08434 -0.08381
 C717 C 1.11112 -0.06877 -0.06164
 C718 C 1.07543 -0.07552 -0.05636
 C719 C 1.05666 -0.09777 -0.07389
 C720 C 1.07343 -0.11392 -0.09597
 C721 C 1.07036 -0.15490 -0.13378
 C722 C 1.05435 -0.13714 -0.11241
 H723 H 1.05457 -0.17303 -0.14560
 H724 H 1.02668 -0.14211 -0.10840
 H725 H 1.10557 -0.18744 -0.17262
 H726 H 1.20485 -0.13607 -0.15776
 H727 H 1.12610 -0.05149 -0.04851
 H728 H 1.02902 -0.10318 -0.07000
 H729 H 1.17913 -0.10271 -0.12127
 H730 H 1.15554 -0.07837 -0.08670
 C731 C 1.10744 0.39715 0.36207
 C732 C 1.09203 0.36553 0.35248
 C733 C 1.10964 0.34556 0.33283
 C734 C 1.14321 0.35581 0.32315
 C735 C 1.15820 0.38739 0.33254
 C736 C 1.14058 0.40787 0.35156
 C737 C 1.08871 0.41661 0.38422
 C738 C 1.10142 0.44867 0.39485
 C739 C 1.08489 0.46379 0.41739
 C740 C 1.05540 0.44731 0.42988
 C741 C 1.04119 0.41673 0.41828
 C742 C 1.05744 0.40143 0.39555
 C743 C 1.05981 0.35324 0.36334
 C744 C 1.04311 0.37055 0.38465
 H745 H 1.04789 0.32913 0.35592
 H746 H 1.01885 0.35927 0.39301
 H747 H 1.09744 0.32154 0.32554
 H748 H 1.18428 0.39577 0.32595
 H749 H 1.09614 0.48762 0.42581
 H750 H 1.01804 0.40415 0.42752
 H751 H 1.15389 0.43136 0.35842
 H752 H 1.12445 0.46209 0.38647
 C753 C 0.61764 -0.11375 0.37156
 C754 C 0.59699 -0.13575 0.35467
 C755 C 0.61266 -0.15393 0.33307
 C756 C 0.64884 -0.15068 0.32791
 C757 C 0.66903 -0.12795 0.34405
 C758 C 0.65372 -0.10968 0.36556
 C759 C 0.60025 -0.09648 0.39545
 C760 C 0.61866 -0.07538 0.41428
 C761 C 0.60146 -0.06115 0.43688
 C762 C 0.56550 -0.06744 0.44119
 C763 C 0.54679 -0.08773 0.42224
 C764 C 0.56383 -0.10245 0.39966
 C765 C 0.56095 -0.14001 0.35971
 C766 C 0.54470 -0.12360 0.38165
 H767 H 0.54510 -0.15662 0.34666
 H768 H 0.51678 -0.12802 0.38484
 H769 H 0.59674 -0.17100 0.32041
 H770 H 0.69705 -0.12518 0.34064
 H771 H 0.61637 -0.04529 0.45108
 H772 H 0.51892 -0.09265 0.42531
 H773 H 0.67073 -0.09303 0.37746
 H774 H 0.64639 -0.06986 0.41217
 C775 C 0.62505 0.37593 -0.12821
 C776 C 0.61041 0.34266 -0.13491
 C777 C 0.62617 0.32241 -0.15533
 C778 C 0.65735 0.33405 -0.16861
 C779 C 0.67201 0.36686 -0.16152
 C780 C 0.65607 0.38760 -0.14180
 C781 C 0.60764 0.39660 -0.10613
 C782 C 0.61875 0.43096 -0.09920
 C783 C 0.60259 0.44846 -0.07767
 C784 C 0.57523 0.43206 -0.06233
 C785 C 0.56320 0.39837 -0.06962
 C786 C 0.57878 0.38083 -0.09162
 C787 C 0.58073 0.32933 -0.12065
 C788 C 0.56561 0.34772 -0.09917
 H789 H 0.56952 0.30382 -0.12570
 H790 H 0.54319 0.33587 -0.08834
 H791 H 0.61424 0.29734 -0.16063
 H792 H 0.69651 0.37627 -0.17067
 H793 H 0.61205 0.47465 -0.07264
 H794 H 0.54153 0.38585 -0.05824
 H795 H 0.66899 0.41220 -0.13699
 H796 H 0.63980 0.44480 -0.11014
 C797 C 1.12595 0.12346 -0.12989
 C798 C 1.15710 0.10958 -0.14083
 C799 C 1.17568 0.12850 -0.16188
 C800 C 1.16343 0.16118 -0.17329
 C801 C 1.13105 0.17343 -0.16320
 C802 C 1.11282 0.15511 -0.14189
 C803 C 1.10843 0.10380 -0.10595
 C804 C 1.07963 0.11743 -0.09152
 C805 C 1.06524 0.09880 -0.06860
 C806 C 1.07877 0.06592 -0.05973
 C807 C 1.10705 0.05181 -0.07417
 C808 C 1.12244 0.07083 -0.09672
 C809 C 1.16978 0.07692 -0.13060
 C810 C 1.15245 0.05766 -0.10939
 H811 H 1.19345 0.06597 -0.13919
 H812 H 1.16329 0.03250 -0.10228
 H813 H 1.20059 0.11793 -0.16811
 H814 H 1.11876 0.19690 -0.17199
 H815 H 1.04340 0.11019 -0.05773
 H816 H 1.11796 0.02660 -0.06720
 H817 H 1.08827 0.16605 -0.13529
 H818 H 1.06837 0.14276 -0.09718
 C819 C 1.14648 0.63671 0.39245
 C820 C 1.18109 0.62511 0.38767
 C821 C 1.20133 0.64100 0.36600
 C822 C 1.18754 0.66851 0.34901
 C823 C 1.15324 0.67984 0.35393
 C824 C 1.13301 0.66431 0.37527
 C825 C 1.12535 0.61860 0.41523
 C826 C 1.09042 0.62770 0.42088
 C827 C 1.07093 0.60865 0.44088
 C828 C 1.08569 0.58037 0.45626
 C829 C 1.12099 0.57191 0.45181
 C830 C 1.14080 0.59059 0.43114
 C831 C 1.19513 0.59765 0.40445
 C832 C 1.17545 0.58080 0.42570
 H833 H 1.22169 0.58881 0.40093
 H834 H 1.18742 0.55944 0.43781
 H835 H 1.22793 0.63222 0.36255
 H836 H 1.14172 0.70058 0.34092
 H837 H 1.04373 0.61565 0.44389
 H838 H 1.13244 0.54977 0.46340
 H839 H 1.10686 0.67429 0.37774
 H840 H 1.07719 0.64884 0.40971
 C841 C 0.62364 0.12820 0.37081
 C842 C 0.65259 0.11099 0.35898
 C843 C 0.67358 0.12893 0.33891
 C844 C 0.66600 0.16387 0.33003
 C845 C 0.63643 0.18029 0.34101
 C846 C 0.61556 0.16282 0.36112
 C847 C 0.60323 0.10894 0.39342
 C848 C 0.57568 0.12469 0.40798
 C849 C 0.55869 0.10626 0.42984
 C850 C 0.56845 0.07161 0.43757
 C851 C 0.59517 0.05529 0.42275
 C852 C 0.61294 0.07383 0.40112
 C853 C 0.66063 0.07610 0.36740
 C854 C 0.64100 0.05779 0.38780
 H855 H 0.68257 0.06278 0.35814
 H856 H 0.64840 0.03090 0.39369
 H857 H 0.69641 0.11590 0.33075
 H858 H 0.62930 0.20683 0.33400
 H859 H 0.53801 0.11931 0.44090
 H860 H 0.60302 0.02853 0.42867
 H861 H 0.59330 0.17694 0.36877
 H862 H 0.56730 0.15142 0.40326
 C863 C 0.62885 0.63140 -0.12954
 C864 C 0.66239 0.61853 -0.13633
 C865 C 0.68340 0.63692 -0.15623
 C866 C 0.67242 0.66936 -0.16866
 C867 C 0.63912 0.68206 -0.16133
 C868 C 0.61766 0.66337 -0.14233
 C869 C 0.60734 0.61125 -0.10807
 C870 C 0.57262 0.62037 -0.10142
 C871 C 0.55438 0.60203 -0.08017
 C872 C 0.57036 0.57439 -0.06486
 C873 C 0.60437 0.56410 -0.07205
 C874 C 0.62270 0.58193 -0.09378
 C875 C 0.67534 0.58814 -0.12244
 C876 C 0.65620 0.57064 -0.10127
 H877 H 0.70110 0.57829 -0.12748
 H878 H 0.66778 0.54784 -0.09065
 H879 H 0.70932 0.62692 -0.16051
 H880 H 0.62877 0.70611 -0.17091
 H881 H 0.52796 0.61013 -0.07525
 H882 H 0.61659 0.54222 -0.06069
 H883 H 0.59263 0.67482 -0.13763
 H884 H 0.55906 0.64157 -0.11231
 C885 C 0.88931 -0.12128 -0.12769
 C886 C 0.88196 -0.15803 -0.12428
 C887 C 0.86370 -0.17587 -0.14489
 C888 C 0.85336 -0.15802 -0.16956
 C889 C 0.86201 -0.12188 -0.17337
 C890 C 0.87962 -0.10369 -0.15274
 C891 C 0.90692 -0.10282 -0.10437
 C892 C 0.91238 -0.06577 -0.10452
 C893 C 0.92759 -0.04972 -0.08176
 C894 C 0.93810 -0.07019 -0.05847
 C895 C 0.93338 -0.10711 -0.05830
 C896 C 0.91731 -0.12342 -0.08073
 C897 C 0.89278 -0.17684 -0.10030
 C898 C 0.91057 -0.16000 -0.07919
 H899 H 0.88749 -0.20508 -0.09783
 H900 H 0.91842 -0.17575 -0.06107
 H901 H 0.85693 -0.20364 -0.14133
 H902 H 0.85530 -0.10753 -0.19242
 H903 H 0.93098 -0.02114 -0.08233
 H904 H 0.94114 -0.12309 -0.04025
 H905 H 0.88551 -0.07596 -0.15688
 H906 H 0.90445 -0.04865 -0.12169
 C907 C 0.87796 0.37481 0.37135
 C908 C 0.89256 0.34194 0.36448
 C909 C 0.87805 0.32259 0.34280
 C910 C 0.84861 0.33522 0.32811
 C911 C 0.83428 0.36779 0.33513
 C912 C 0.84872 0.38737 0.35629
 C913 C 0.89371 0.39443 0.39482
 C914 C 0.88157 0.42775 0.40255
 C915 C 0.89643 0.44478 0.42482
 C916 C 0.92379 0.42920 0.44021
 C917 C 0.93646 0.39611 0.43257
 C918 C 0.92183 0.37882 0.40984
 C919 C 0.92105 0.32830 0.37964
 C920 C 0.93517 0.34619 0.40197
 H921 H 0.93229 0.30313 0.37442
 H922 H 0.95688 0.33429 0.41325
 H923 H 0.88955 0.29756 0.33752
 H924 H 0.81106 0.37785 0.32476
 H925 H 0.88620 0.47039 0.43004
 H926 H 0.95780 0.38397 0.44415
 H927 H 0.83601 0.41188 0.36080
 H928 H 0.86074 0.44136 0.39167
 C929 C 0.39129 -0.11993 0.36559
 C930 C 0.39534 -0.15709 0.36609
 C931 C 0.37960 -0.17748 0.34563
 C932 C 0.35943 -0.16179 0.32383
 C933 C 0.35784 -0.12421 0.32281
 C934 C 0.37323 -0.10384 0.34324
 C935 C 0.40590 -0.09954 0.38922
 C936 C 0.40090 -0.06280 0.39187
 C937 C 0.41330 -0.04554 0.41516
 C938 C 0.43101 -0.06444 0.43630
 C939 C 0.43695 -0.10076 0.43347
 C940 C 0.42425 -0.11843 0.41040
 C941 C 0.41443 -0.17402 0.38744
 C942 C 0.42888 -0.15506 0.40895
 H943 H 0.41797 -0.20251 0.38771
 H944 H 0.44310 -0.16949 0.42510
 H945 H 0.38161 -0.20589 0.34844
 H946 H 0.34555 -0.10957 0.30591
 H947 H 0.40856 -0.01742 0.41679
 H948 H 0.45078 -0.11562 0.44962
 H949 H 0.37065 -0.07542 0.34107
 H950 H 0.38690 -0.04705 0.37654
 C951 C 0.38302 0.37873 -0.13335
 C952 C 0.34585 0.37835 -0.13266
 C953 C 0.32678 0.36037 -0.15276
 C954 C 0.34405 0.34274 -0.17385
 C955 C 0.38078 0.34445 -0.17532
 C956 C 0.40011 0.36215 -0.15532
 C957 C 0.40237 0.39615 -0.11031
 C958 C 0.43926 0.39602 -0.10795
 C959 C 0.45586 0.41117 -0.08536
 C960 C 0.43617 0.42696 -0.06462
 C961 C 0.39953 0.42796 -0.06711
 C962 C 0.38254 0.41242 -0.08950
 C963 C 0.32788 0.39541 -0.11170
 C964 C 0.34583 0.41231 -0.09071
 H965 H 0.29943 0.39541 -0.11135
 H966 H 0.33068 0.42486 -0.07482
 H967 H 0.29832 0.35971 -0.15184
 H968 H 0.39465 0.33104 -0.19145
 H969 H 0.48421 0.41024 -0.08401
 H970 H 0.38406 0.44015 -0.05121
 H971 H 0.42831 0.36211 -0.15724
 H972 H 0.45576 0.38389 -0.12304
 C973 C 1.13103 -0.13390 0.13369
 C974 C 1.15883 -0.11637 0.14726
 C975 C 1.17897 -0.13480 0.16731
 C976 C 1.17175 -0.17058 0.17436
 C977 C 1.14343 -0.18753 0.16161
 C978 C 1.12333 -0.16954 0.14153
 C979 C 1.11150 -0.11385 0.11123
 C980 C 1.08490 -0.12947 0.09528
 C981 C 1.06880 -0.11023 0.07365
 C982 C 1.07849 -0.07484 0.06747
 C983 C 1.10419 -0.05866 0.08373
 C984 C 1.12103 -0.07796 0.10522
 C985 C 1.16661 -0.08069 0.14056
 C986 C 1.14796 -0.06183 0.12016
 H987 H 1.18767 -0.06716 0.15113
 H988 H 1.15522 -0.03436 0.11562
 H989 H 1.20043 -0.12129 0.17743
 H990 H 1.13738 -0.21516 0.16661
 H991 H 1.04887 -0.12326 0.06152
 H992 H 1.11195 -0.03133 0.07907
 H993 H 1.10217 -0.18415 0.13226
 H994 H 1.07657 -0.15668 0.09877
 C995 C 1.13993 0.36551 0.61060
 C996 C 1.17576 0.37345 0.61526
 C997 C 1.19349 0.35686 0.63768
 C998 C 1.17576 0.33295 0.65606
 C999 C 1.13991 0.32623 0.65182
 C1000 C 1.12225 0.34212 0.62946
 C1001 C 1.12200 0.38331 0.58634
 C1002 C 1.08707 0.37547 0.57918
 C1003 C 1.07051 0.39459 0.55788
 C1004 C 1.08823 0.42188 0.54288
 C1005 C 1.12383 0.42842 0.54854
 C1006 C 1.14083 0.40924 0.57015
 C1007 C 1.19345 0.39825 0.59776
 C1008 C 1.17623 0.41615 0.57597
 H1009 H 1.22088 0.40448 0.60133
 H1010 H 1.19087 0.43570 0.56349
 H1011 H 1.22120 0.36234 0.64063
 H1012 H 1.12523 0.30881 0.66603
 H1013 H 1.04318 0.38864 0.55374
 H1014 H 1.13787 0.44927 0.53694
 H1015 H 1.09465 0.33605 0.62762
 H1016 H 1.07181 0.35505 0.58998
 C1017 C 0.62310 -0.12194 0.63088
 C1018 C 0.64875 -0.10250 0.64542
 C1019 C 0.66972 -0.11974 0.66556
 C1020 C 0.66555 -0.15624 0.67155
 C1021 C 0.63976 -0.17526 0.65741
 C1022 C 0.61879 -0.15844 0.63741
 C1023 C 0.60227 -0.10293 0.60873
 C1024 C 0.57695 -0.12014 0.59252
 C1025 C 0.55969 -0.10177 0.57108
 C1026 C 0.56697 -0.06575 0.56532
 C1027 C 0.59114 -0.04798 0.58200
 C1028 C 0.60900 -0.06631 0.60342
 C1029 C 0.65359 -0.06612 0.63955
 C1030 C 0.63410 -0.04840 0.61904
 H1031 H 0.67304 -0.05117 0.65078
 H1032 H 0.63915 -0.02033 0.61505
 H1033 H 0.68932 -0.10473 0.67662
 H1034 H 0.63628 -0.20353 0.66137
 H1035 H 0.54089 -0.11598 0.55868
 H1036 H 0.59689 -0.02008 0.57777
 H1037 H 0.59972 -0.17468 0.62713
 H1038 H 0.57043 -0.14787 0.59568
 C1039 C 0.62751 0.37308 0.12759
 C1040 C 0.66191 0.38560 0.13301
 C1041 C 0.68272 0.36808 0.15311
 C1042 C 0.67018 0.33747 0.16756
 C1043 C 0.63616 0.32501 0.16190
 C1044 C 0.61506 0.34255 0.14234
 C1045 C 0.60637 0.39211 0.10562
 C1046 C 0.57140 0.38265 0.09945
 C1047 C 0.55351 0.39989 0.07775
 C1048 C 0.57003 0.42685 0.06157
 C1049 C 0.60428 0.43754 0.06828
 C1050 C 0.62240 0.42062 0.09026
 C1051 C 0.67564 0.41501 0.11788
 C1052 C 0.65647 0.43188 0.09675
 H1053 H 0.70196 0.42466 0.12202
 H1054 H 0.66859 0.45401 0.08524
 H1055 H 0.70882 0.37822 0.15737
 H1056 H 0.62598 0.30103 0.17216
 H1057 H 0.52692 0.39147 0.07321
 H1058 H 0.61698 0.45889 0.05623
 H1059 H 0.58942 0.33128 0.13869
 H1060 H 0.55743 0.36190 0.11097
 C1061 C 0.88237 0.11524 0.13058
 C1062 C 0.89301 0.15055 0.13552
 C1063 C 0.87512 0.17021 0.15516
 C1064 C 0.84602 0.15556 0.16951
 C1065 C 0.83546 0.12066 0.16454
 C1066 C 0.85342 0.10065 0.14545
 C1067 C 0.90158 0.09547 0.10894
 C1068 C 0.89388 0.05984 0.10319
 C1069 C 0.91111 0.04322 0.08178
 C1070 C 0.93630 0.06167 0.06547
 C1071 C 0.94522 0.09667 0.07171
 C1072 C 0.92830 0.11355 0.09342
 C1073 C 0.92073 0.16638 0.12028
 C1074 C 0.93775 0.14841 0.09948
 H1075 H 0.92890 0.19340 0.12407
 H1076 H 0.95854 0.16209 0.08786
 H1077 H 0.88306 0.19740 0.15859
 H1078 H 0.81318 0.10878 0.17552
 H1079 H 0.90408 0.01602 0.07759
 H1080 H 0.96516 0.11088 0.05952
 H1081 H 0.84378 0.07410 0.14233
 H1082 H 0.87455 0.04437 0.11481
 C1083 C 0.87688 0.62958 0.62601
 C1084 C 0.88634 0.66569 0.62871
 C1085 C 0.86989 0.68587 0.64887
 C1086 C 0.84379 0.67062 0.66631
 C1087 C 0.83510 0.63466 0.66393
 C1088 C 0.85136 0.61438 0.64415
 C1089 C 0.89387 0.60932 0.60354
 C1090 C 0.88555 0.57358 0.59892
 C1091 C 0.90079 0.55618 0.57709
 C1092 C 0.92487 0.57372 0.55913
 C1093 C 0.93414 0.60913 0.56392
 C1094 C 0.91872 0.62704 0.58590
 C1095 C 0.91170 0.68153 0.61100
 C1096 C 0.92756 0.66262 0.59009
 H1097 H 0.91913 0.70912 0.61314
 H1098 H 0.94674 0.67620 0.57677
 H1099 H 0.87666 0.71372 0.65043
 H1100 H 0.81559 0.62208 0.67749
 H1101 H 0.89332 0.52876 0.57416
 H1102 H 0.95292 0.62290 0.55034
 H1103 H 0.84326 0.58697 0.64338
 H1104 H 0.86709 0.55851 0.61169
 C1105 C 0.38153 0.11636 0.63439
 C1106 C 0.39110 0.15227 0.63816
 C1107 C 0.37464 0.17155 0.65880
 C1108 C 0.34794 0.15587 0.67527
 C1109 C 0.33914 0.12009 0.67201
 C1110 C 0.35580 0.10047 0.65198
 C1111 C 0.39800 0.09740 0.61096
 C1112 C 0.39021 0.06171 0.60543
 C1113 C 0.40447 0.04595 0.58231
 C1114 C 0.42677 0.06532 0.56408
 C1115 C 0.43575 0.10044 0.56993
 C1116 C 0.42167 0.11652 0.59320
 C1117 C 0.41593 0.16915 0.62060
 C1118 C 0.43074 0.15173 0.59850
 H1119 H 0.42338 0.19658 0.62355
 H1120 H 0.44922 0.16622 0.58512
 H1121 H 0.38126 0.19935 0.66104
 H1122 H 0.31877 0.10743 0.68472
 H1123 H 0.39751 0.01863 0.57844
 H1124 H 0.45342 0.11544 0.55617
 H1125 H 0.34740 0.07326 0.65018
 H1126 H 0.37294 0.04555 0.61848
 C1127 C 0.37543 0.61663 0.12395
 C1128 C 0.39587 0.62906 0.14614
 C1129 C 0.37974 0.64642 0.16803
 C1130 C 0.34344 0.65288 0.16781
 C1131 C 0.32345 0.64095 0.14547
 C1132 C 0.33907 0.62294 0.12398
 C1133 C 0.39365 0.59843 0.10090
 C1134 C 0.37548 0.58333 0.07870
 C1135 C 0.39372 0.56799 0.05714
 C1136 C 0.43051 0.56742 0.05704
 C1137 C 0.44885 0.58128 0.07951
 C1138 C 0.43073 0.59640 0.10148
 C1139 C 0.43238 0.62492 0.14601
 C1140 C 0.44948 0.60943 0.12398
 H1141 H 0.44809 0.63453 0.16294
 H1142 H 0.47784 0.60756 0.12459
 H1143 H 0.39563 0.65512 0.18516
 H1144 H 0.29564 0.64629 0.14413
 H1145 H 0.37894 0.55702 0.04024
 H1146 H 0.47729 0.58037 0.07988
 H1147 H 0.32229 0.61498 0.10728
 H1148 H 0.34722 0.58307 0.07755
   
