data_POSCAR
  _audit_creation_date              2014-09-24
  _audit_creation_method            'ToBaCCo'
  _symmetry_space_group_name_H-M    'P1'
  _symmetry_Int_Tables_number       1
  _symmetry_cell_setting            triclinic
  loop_
  _symmetry_equiv_pos_as_xyz
 x,y,z
_cell_length_a 49.2802
_cell_length_b 28.6276
_cell_length_c 21.6075
_cell_angle_alpha 89.990600
_cell_angle_beta 89.854900
_cell_angle_gamma 90.106300
loop_
  _atom_site_label
  _atom_site_type_symbol
  _atom_site_fract_x
  _atom_site_fract_y
  _atom_site_fract_z
C1 C 0.79884 0.19693 0.44449
 C2 C 0.81069 0.18454 0.50078
 C3 C 0.79884 0.19703 0.55716
 C4 C 0.77434 0.22271 0.55789
 C5 C 0.76206 0.23553 0.50097
 C6 C 0.77435 0.22263 0.44395
 C7 C 0.76183 0.23577 0.38816
 C8 C 0.73770 0.26100 0.38828
 C9 C 0.72517 0.27405 0.44416
 C10 C 0.73744 0.26127 0.50106
 C11 C 0.76180 0.23592 0.61377
 C12 C 0.73766 0.26110 0.61383
 C13 C 0.72510 0.27411 0.55802
 C14 C 0.70052 0.29960 0.55740
 C15 C 0.68869 0.31193 0.50102
 C16 C 0.70066 0.29954 0.44476
 H17 H 0.77062 0.22660 0.34383
 H18 H 0.72892 0.27019 0.34405
 H19 H 0.77059 0.22683 0.65803
 H20 H 0.72888 0.27033 0.65815
 H21 H 0.82954 0.16484 0.50070
 H22 H 0.66980 0.33145 0.50079
 C23 C 0.29801 0.69793 0.44455
 C24 C 0.30987 0.68556 0.50077
 C25 C 0.29800 0.69801 0.55709
 C26 C 0.27354 0.72365 0.55784
 C27 C 0.26126 0.73645 0.50097
 C28 C 0.27355 0.72355 0.44399
 C29 C 0.26107 0.73657 0.38818
 C30 C 0.23693 0.76177 0.38825
 C31 C 0.22439 0.77490 0.44413
 C32 C 0.23666 0.76217 0.50105
 C33 C 0.26106 0.73679 0.61373
 C34 C 0.23692 0.76202 0.61385
 C35 C 0.22436 0.77507 0.55803
 C36 C 0.19981 0.80065 0.55740
 C37 C 0.18796 0.81292 0.50100
 C38 C 0.19989 0.80041 0.44473
 H39 H 0.26990 0.72733 0.34392
 H40 H 0.22814 0.77091 0.34401
 H41 H 0.26989 0.72762 0.65793
 H42 H 0.22815 0.77125 0.65818
 H43 H 0.32869 0.66589 0.50070
 H44 H 0.16910 0.83250 0.50077
 C45 C 0.19964 0.19961 -0.44521
 C46 C 0.18776 0.18731 -0.50157
 C47 C 0.19969 0.19981 -0.55793
 C48 C 0.22429 0.22540 -0.55854
 C49 C 0.23658 0.23813 -0.50158
 C50 C 0.22423 0.22519 -0.44461
 C51 C 0.23680 0.23820 -0.38876
 C52 C 0.26098 0.26344 -0.38879
 C53 C 0.27351 0.27665 -0.44462
 C54 C 0.26124 0.26389 -0.50158
 C55 C 0.23691 0.23863 -0.61438
 C56 C 0.26109 0.26385 -0.61436
 C57 C 0.27361 0.27688 -0.55850
 C58 C 0.29817 0.30255 -0.55775
 C59 C 0.30997 0.31485 -0.50135
 C60 C 0.29801 0.30230 -0.44517
 H61 H 0.22801 0.22894 -0.34445
 H62 H 0.26979 0.27256 -0.34455
 H63 H 0.22815 0.22954 -0.65869
 H64 H 0.26994 0.27312 -0.65863
 H65 H 0.16884 0.16770 -0.50156
 H66 H 0.32885 0.33454 -0.50105
 C67 C -0.20188 0.80255 -0.55778
 C68 C -0.19008 0.81500 -0.50143
 C69 C -0.20200 0.80248 -0.44519
 C70 C -0.22646 0.77672 -0.44454
 C71 C -0.23872 0.76380 -0.50143
 C72 C -0.22639 0.77673 -0.55841
 C73 C -0.23888 0.76351 -0.61421
 C74 C -0.26303 0.73820 -0.61412
 C75 C -0.27564 0.72508 -0.55822
 C76 C -0.26335 0.73794 -0.50132
 C77 C -0.23896 0.76357 -0.38865
 C78 C -0.26310 0.73825 -0.38851
 C79 C -0.27567 0.72508 -0.44429
 C80 C -0.30024 0.69944 -0.44478
 C81 C -0.31214 0.68703 -0.50107
 C82 C -0.30023 0.69947 -0.55749
 H83 H -0.23005 0.77269 -0.65852
 H84 H -0.27178 0.72896 -0.65839
 H85 H -0.23015 0.77280 -0.34445
 H86 H -0.27188 0.72905 -0.34415
 H87 H -0.17124 0.83479 -0.50121
 H88 H -0.33105 0.66740 -0.50097
 O89 O -0.03779 0.92076 0.11479
 O90 O -0.06781 0.96202 0.05492
 C91 C -0.06212 0.93299 0.09894
 O92 O 0.03822 1.08512 0.10903
 O93 O 0.06820 1.04124 0.05201
 C94 C 0.06255 1.07257 0.09330
 O95 O -0.03763 1.08075 0.11501
 O96 O -0.06774 1.03963 0.05498
 C97 C -0.06198 1.06854 0.09914
 O98 O 0.03809 0.91671 0.10896
 O99 O 0.06816 0.96078 0.05214
 C100 C 0.06245 0.92935 0.09332
 Zr101 Zr 0.00009 0.94171 0.07747
 O102 O 0.00289 0.93858 0.17510
 O103 O -0.00301 0.86799 0.07294
 Zr104 Zr 0.00019 1.06016 0.07730
 O105 O 0.00295 1.06410 0.17485
 O106 O -0.00281 1.13386 0.07198
 O107 O -0.02392 1.00092 0.08981
 O108 O 0.02352 1.00095 0.08894
 O109 O 0.03821 0.91661 -0.10955
 O110 O 0.06821 0.96075 -0.05299
 C111 C 0.06255 0.92929 -0.09407
 O112 O -0.03750 1.08079 -0.11532
 O113 O -0.06767 1.03962 -0.05514
 C114 C -0.06187 1.06856 -0.09932
 O115 O 0.03837 1.08504 -0.10977
 O116 O 0.06830 1.04097 -0.05314
 C117 C 0.06269 1.07236 -0.09433
 O118 O -0.03764 0.92079 -0.11509
 O119 O -0.06774 0.96202 -0.05503
 C120 C -0.06199 0.93302 -0.09911
 Zr121 Zr 0.00018 0.94164 -0.07783
 O122 O 0.00311 0.93819 -0.17544
 O123 O -0.00296 0.86793 -0.07288
 Zr124 Zr 0.00029 1.06008 -0.07794
 O125 O 0.00321 1.06358 -0.17554
 O126 O -0.00271 1.13379 -0.07293
 Zr127 Zr -0.04054 1.00086 -0.00014
 Zr128 Zr 0.04077 1.00091 -0.00036
 O129 O 0.02362 1.00086 -0.08955
 O130 O -0.02381 1.00084 -0.09017
 O131 O 0.02462 0.93261 -0.00024
 O132 O -0.02369 1.06849 -0.00025
 O133 O -0.02379 0.93327 -0.00011
 O134 O 0.02475 1.06921 -0.00039
 H135 H 0.03536 1.00096 0.12591
 H136 H -0.03623 1.09552 -0.00023
 H137 H 0.03548 1.00083 -0.12663
 H138 H -0.03634 0.90618 -0.00008
 H139 H 0.01427 1.14579 0.05370
 H140 H 0.01430 1.14573 -0.05450
 H141 H -0.00936 1.03991 -0.19249
 H142 H -0.00954 0.96165 -0.19242
 H143 H 0.01398 0.85602 -0.05415
 H144 H 0.01386 0.85606 0.05380
 H145 H -0.01013 0.96150 0.19206
 H146 H -0.00916 1.03974 0.19195
 O147 O 0.46293 0.41984 0.11543
 O148 O 0.43283 0.46046 0.05495
 C149 C 0.43858 0.43176 0.09935
 O150 O 0.53870 0.58363 0.10933
 O151 O 0.56876 0.53970 0.05254
 C152 C 0.56305 0.57108 0.09372
 O153 O 0.46287 0.57957 0.11455
 O154 O 0.43282 0.53803 0.05485
 C155 C 0.43854 0.56718 0.09876
 O156 O 0.53866 0.41501 0.10869
 O157 O 0.56876 0.45918 0.05198
 C158 C 0.56303 0.42768 0.09310
 Zr159 Zr 0.50072 0.43985 0.07680
 O160 O 0.50156 0.43191 0.17406
 O161 O 0.49964 0.36661 0.06513
 Zr162 Zr 0.50075 0.55830 0.07781
 O163 O 0.50322 0.55969 0.17559
 O164 O 0.49785 0.63207 0.07476
 O165 O 0.47672 0.49900 0.08970
 O166 O 0.52416 0.49911 0.08892
 O167 O 0.53884 0.41512 -0.10941
 O168 O 0.56883 0.45947 -0.05303
 C169 C 0.56318 0.42790 -0.09401
 O170 O 0.46308 0.57964 -0.11485
 O171 O 0.43292 0.53822 -0.05494
 C172 C 0.43872 0.56734 -0.09891
 O173 O 0.53892 0.58401 -0.10928
 O174 O 0.56888 0.53994 -0.05275
 C175 C 0.56324 0.57142 -0.09381
 O176 O 0.46299 0.41930 -0.11525
 O177 O 0.43288 0.46061 -0.05532
 C178 C 0.43865 0.43160 -0.09940
 Zr179 Zr 0.50081 0.44040 -0.07816
 O180 O 0.50381 0.43807 -0.17584
 O181 O 0.49803 0.36662 -0.07434
 Zr182 Zr 0.50088 0.55883 -0.07762
 O183 O 0.50383 0.56248 -0.17520
 O184 O 0.49784 0.63253 -0.07246
 Zr185 Zr 0.46006 0.49931 -0.00020
 Zr186 Zr 0.54138 0.49957 -0.00028
 O187 O 0.52426 0.49969 -0.08950
 O188 O 0.47679 0.49960 -0.09020
 O189 O 0.52529 0.43125 -0.00068
 O190 O 0.47693 0.56692 0.00015
 O191 O 0.47672 0.43168 -0.00055
 O192 O 0.52528 0.56777 0.00010
 H193 H 0.53611 0.49910 0.12569
 H194 H 0.46447 0.59405 0.00022
 H195 H 0.53619 0.49975 -0.12647
 H196 H 0.46414 0.40462 -0.00049
 H197 H 0.51430 0.64405 0.05370
 H198 H 0.51481 0.64448 -0.05387
 H199 H 0.49131 0.53877 -0.19223
 H200 H 0.49042 0.46042 -0.19253
 H201 H 0.51376 0.35517 -0.05035
 H202 H 0.49903 0.35323 0.10739
 H203 H 0.50464 0.46328 0.19170
 H204 H 0.48930 0.53790 0.19176
 C205 C 0.31135 0.31616 0.38946
 C206 C 0.32404 0.32913 0.34487
 C207 C 0.34048 0.34568 0.29429
 C208 C 0.34217 0.39369 0.28224
 C209 C 0.36060 0.41053 0.23825
 C210 C 0.37743 0.37942 0.20613
 C211 C 0.37520 0.33129 0.21690
 C212 C 0.35676 0.31445 0.26093
 C213 C 0.39837 0.39719 0.16599
 C214 C 0.41649 0.41263 0.13446
 H215 H 0.32986 0.41819 0.30821
 H216 H 0.36229 0.44783 0.23063
 H217 H 0.38826 0.30696 0.19264
 H218 H 0.35580 0.27730 0.27030
 C219 C -0.18878 0.81623 0.38936
 C220 C -0.17618 0.82928 0.34467
 C221 C -0.15986 0.84593 0.29395
 C222 C -0.14328 0.81491 0.26099
 C223 C -0.12496 0.83194 0.21683
 C224 C -0.12316 0.88005 0.20551
 C225 C -0.14028 0.91093 0.23722
 C226 C -0.15859 0.89390 0.28136
 C227 C -0.10231 0.89808 0.16533
 C228 C -0.08422 0.91369 0.13385
 H229 H -0.14391 0.77781 0.27080
 H230 H -0.11167 0.80781 0.19292
 H231 H -0.13889 0.94823 0.22921
 H232 H -0.17111 0.91824 0.30702
 C233 C 0.68673 0.68619 0.38952
 C234 C 0.67443 0.67375 0.34422
 C235 C 0.65871 0.65793 0.29222
 C236 C 0.65796 0.61028 0.27755
 C237 C 0.64037 0.59397 0.23169
 C238 C 0.62343 0.62522 0.20029
 C239 C 0.62476 0.67307 0.21363
 C240 C 0.64237 0.68940 0.25953
 C241 C 0.60296 0.60750 0.15905
 C242 C 0.58509 0.59154 0.12745
 H243 H 0.67033 0.58559 0.30288
 H244 H 0.63933 0.55684 0.22216
 H245 H 0.61159 0.69749 0.19000
 H246 H 0.64263 0.72626 0.27082
 C247 C 0.18666 1.18661 0.38902
 C248 C 0.17434 1.17423 0.34373
 C249 C 0.15855 1.15848 0.29179
 C250 C 0.15745 1.11077 0.27758
 C251 C 0.13977 1.09458 0.23181
 C252 C 0.12310 1.12603 0.19999
 C253 C 0.12476 1.17392 0.21293
 C254 C 0.14246 1.19012 0.25874
 C255 C 0.10257 1.10856 0.15872
 C256 C 0.08463 1.09284 0.12708
 H257 H 0.16962 1.08595 0.30320
 H258 H 0.13847 1.05743 0.22266
 H259 H 0.11177 1.19849 0.18905
 H260 H 0.14298 1.22703 0.26969
 C261 C 0.68741 0.31282 -0.38956
 C262 C 0.67503 0.32522 -0.34425
 C263 C 0.65919 0.34097 -0.29226
 C264 C 0.64238 0.30961 -0.26030
 C265 C 0.62467 0.32596 -0.21447
 C266 C 0.62372 0.37372 -0.20044
 C267 C 0.64112 0.40485 -0.23115
 C268 C 0.65882 0.38851 -0.27693
 C269 C 0.60320 0.39151 -0.15926
 C270 C 0.58527 0.40747 -0.12769
 H271 H 0.64235 0.27283 -0.27211
 H272 H 0.61113 0.30164 -0.19143
 H273 H 0.64038 0.44192 -0.22113
 H274 H 0.67157 0.41312 -0.30169
 C275 C 0.18677 0.81411 -0.38958
 C276 C 0.17444 0.82676 -0.34433
 C277 C 0.15865 0.84286 -0.29248
 C278 C 0.14307 0.81123 -0.25782
 C279 C 0.12534 0.82761 -0.21204
 C280 C 0.12315 0.87566 -0.20077
 C281 C 0.13931 0.90714 -0.23421
 C282 C 0.15702 0.89078 -0.27994
 C283 C 0.10258 0.89315 -0.15949
 C284 C 0.08463 0.90894 -0.12786
 H285 H 0.14401 0.77413 -0.26747
 H286 H 0.11275 0.80299 -0.18687
 H287 H 0.13758 0.94440 -0.22634
 H288 H 0.16878 0.91558 -0.30681
 C289 C 0.31180 0.68361 -0.38721
 C290 C 0.32447 0.67048 -0.34286
 C291 C 0.34085 0.65367 -0.29259
 C292 C 0.34305 0.60553 -0.28215
 C293 C 0.36142 0.58860 -0.23839
 C294 C 0.37769 0.61976 -0.20489
 C295 C 0.37495 0.66798 -0.21406
 C296 C 0.35657 0.68491 -0.25786
 C297 C 0.39859 0.60204 -0.16496
 C298 C 0.41667 0.58657 -0.13366
 H299 H 0.33118 0.58104 -0.30916
 H300 H 0.36351 0.55124 -0.23200
 H301 H 0.38757 0.69235 -0.18870
 H302 H 0.35521 0.72218 -0.26596
 C303 C -0.18810 1.18357 -0.39002
 C304 C -0.17553 1.17077 -0.34534
 C305 C -0.15925 1.15447 -0.29459
 C306 C -0.15832 1.10665 -0.28092
 C307 C -0.14008 1.08991 -0.23674
 C308 C -0.12268 1.12092 -0.20605
 C309 C -0.12414 1.16889 -0.21845
 C310 C -0.14239 1.18564 -0.26265
 C311 C -0.10191 1.10311 -0.16581
 C312 C -0.08389 1.08767 -0.13428
 H313 H -0.17108 1.08219 -0.30576
 H314 H -0.13896 1.05270 -0.22788
 H315 H -0.11063 1.19312 -0.19534
 H316 H -0.14276 1.22262 -0.27329
 C317 C 0.68671 0.68615 -0.39164
 C318 C 0.67443 0.67376 -0.34614
 C319 C 0.65875 0.65807 -0.29383
 C320 C 0.64217 0.68951 -0.26154
 C321 C 0.62463 0.67325 -0.21525
 C322 C 0.62362 0.62551 -0.20109
 C323 C 0.64078 0.59430 -0.23214
 C324 C 0.65830 0.61055 -0.27839
 C325 C 0.60320 0.60780 -0.15949
 C326 C 0.58532 0.59186 -0.12766
 H327 H 0.64220 0.72627 -0.27344
 H328 H 0.61126 0.69762 -0.19198
 H329 H 0.63996 0.55725 -0.22204
 H330 H 0.67086 0.58588 -0.30341
 C331 C 0.18657 1.18622 -0.39215
 C332 C 0.17425 1.17369 -0.34678
 C333 C 0.15850 1.15779 -0.29468
 C334 C 0.15670 1.10991 -0.28189
 C335 C 0.13909 1.09378 -0.23576
 C336 C 0.12318 1.12545 -0.20216
 C337 C 0.12553 1.17346 -0.21371
 C338 C 0.14318 1.18961 -0.25989
 C339 C 0.10270 1.10818 -0.16039
 C340 C 0.08479 1.09254 -0.12840
 H341 H 0.16827 1.08497 -0.30885
 H342 H 0.13723 1.05655 -0.22766
 H343 H 0.11315 1.19822 -0.18841
 H344 H 0.14425 1.22667 -0.26972
 C345 C 0.31179 0.31659 -0.38934
 C346 C 0.32444 0.32962 -0.34489
 C347 C 0.34082 0.34632 -0.29448
 C348 C 0.35597 0.31488 -0.25889
 C349 C 0.37434 0.33160 -0.21482
 C350 C 0.37761 0.37980 -0.20624
 C351 C 0.36192 0.41117 -0.24065
 C352 C 0.34357 0.39447 -0.28467
 C353 C 0.39850 0.39725 -0.16595
 C354 C 0.41658 0.41252 -0.13439
 H355 H 0.35419 0.27760 -0.26651
 H356 H 0.38652 0.30706 -0.18878
 H357 H 0.36445 0.44852 -0.23475
 H358 H 0.33216 0.41909 -0.31236
 C359 C -0.18825 0.81691 -0.38940
 C360 C -0.17567 0.82997 -0.34486
 C361 C -0.15940 0.84662 -0.29426
 C362 C -0.14327 0.81544 -0.26059
 C363 C -0.12503 0.83235 -0.21640
 C364 C -0.12286 0.88049 -0.20576
 C365 C -0.13953 0.91155 -0.23820
 C366 C -0.15776 0.89465 -0.28236
 C367 C -0.10208 0.89832 -0.16550
 C368 C -0.08404 0.91382 -0.13400
 H369 H -0.14419 0.77827 -0.26984
 H370 H -0.11208 0.80806 -0.19191
 H371 H -0.13786 0.94887 -0.23069
 H372 H -0.16995 0.91911 -0.30854
 C373 C 0.31182 0.68350 0.38871
 C374 C 0.32446 0.67042 0.34416
 C375 C 0.34079 0.65372 0.29355
 C376 C 0.35689 0.68491 0.25947
 C377 C 0.37520 0.66798 0.21532
 C378 C 0.37748 0.61980 0.20514
 C379 C 0.36083 0.58872 0.23798
 C380 C 0.34253 0.60564 0.28209
 C381 C 0.39835 0.60197 0.16498
 C382 C 0.41644 0.58644 0.13355
 H383 H 0.35588 0.72211 0.26837
 H384 H 0.38813 0.69228 0.19051
 H385 H 0.36258 0.55138 0.23083
 H386 H 0.33037 0.58119 0.30860
 C387 C -0.18812 1.18335 0.39155
 C388 C -0.17560 1.17044 0.34672
 C389 C -0.15938 1.15400 0.29576
 C390 C -0.15779 1.10602 0.28358
 C391 C -0.13958 1.08931 0.23910
 C392 C -0.12288 1.12053 0.20662
 C393 C -0.12501 1.16863 0.21753
 C394 C -0.14323 1.18534 0.26205
 C395 C -0.10209 1.10290 0.16606
 C396 C -0.08404 1.08758 0.13431
 H397 H -0.16999 1.08144 0.30980
 H398 H -0.13794 1.05202 0.23139
 H399 H -0.11204 1.19304 0.19302
 H400 H -0.14411 1.22247 0.27151
 C401 C 0.68691 0.31352 0.38874
 C402 C 0.67457 0.32594 0.34353
 C403 C 0.65879 0.34165 0.29162
 C404 C 0.65787 0.38933 0.27718
 C405 C 0.64022 0.40547 0.23138
 C406 C 0.62342 0.37402 0.19976
 C407 C 0.62488 0.32617 0.21295
 C408 C 0.64255 0.31000 0.25879
 C409 C 0.60294 0.39152 0.15847
 C410 C 0.58506 0.40733 0.12684
 H411 H 0.67014 0.41416 0.30263
 H412 H 0.63904 0.44261 0.22206
 H413 H 0.61178 0.30160 0.18926
 H414 H 0.64294 0.27311 0.26994
 C415 C 0.18616 0.81442 0.38872
 C416 C 0.17384 0.82691 0.34353
 C417 C 0.15810 0.84282 0.29166
 C418 C 0.14203 0.81126 0.25827
 C419 C 0.12441 0.82759 0.21246
 C420 C 0.12281 0.87553 0.19988
 C421 C 0.13945 0.90691 0.23207
 C422 C 0.15705 0.89059 0.27783
 C423 C 0.10236 0.89313 0.15862
 C424 C 0.08448 0.90899 0.12701
 H425 H 0.14252 0.77429 0.26895
 H426 H 0.11144 0.80308 0.18830
 H427 H 0.13817 0.94410 0.22320
 H428 H 0.16920 0.91535 0.30374
   
