data_POSCAR
  _audit_creation_date              2014-09-24
  _audit_creation_method            'ToBaCCo'
  _symmetry_space_group_name_H-M    'P1'
  _symmetry_Int_Tables_number       1
  _symmetry_cell_setting            triclinic
  loop_
  _symmetry_equiv_pos_as_xyz
 x,y,z
_cell_length_a 36.5650
_cell_length_b 36.2577
_cell_length_c 36.0470
_cell_angle_alpha 89.931100
_cell_angle_beta 90.017900
_cell_angle_gamma 89.947500
loop_
  _atom_site_label
  _atom_site_type_symbol
  _atom_site_fract_x
  _atom_site_fract_y
  _atom_site_fract_z
N1 N 0.16176 1.23827 0.13529
 N2 N 0.13628 1.23769 0.16104
 C3 C 0.11382 1.26677 0.15611
 C4 C 0.12607 1.28663 0.12578
 C5 C 0.15647 1.26773 0.11316
 H6 H 0.09057 1.27331 0.17344
 H7 H 0.17362 1.27506 0.08984
 Cu8 Cu 0.13609 1.19958 0.19908
 Cu9 Cu 0.20066 1.20153 0.13298
 Cu10 Cu 0.20020 1.13339 0.20071
 N11 N 0.13588 1.16139 0.23705
 N12 N 0.16120 1.13560 0.23748
 C13 C 0.15574 1.11340 0.26691
 C14 C 0.12538 1.12597 0.28594
 C15 C 0.11333 1.15640 0.26619
 H16 H 0.17277 1.09005 0.27413
 H17 H 0.09019 1.17374 0.27286
 N18 N 0.23735 1.13594 0.16117
 N19 N 0.23761 1.16193 0.13546
 C20 C 0.26679 1.15675 0.11323
 C21 C 0.28570 1.12614 0.12561
 C22 C 0.26630 1.11356 0.15593
 H23 H 0.27400 1.17404 0.08989
 H24 H 0.27309 1.09001 0.17304
 H25 H 0.17191 1.15964 0.15862
 H26 H 0.20115 1.18914 0.18890
 N27 N 0.83790 0.76220 0.13608
 N28 N 0.86306 0.76242 0.16217
 C29 C 0.88540 0.73322 0.15733
 C30 C 0.87348 0.71380 0.12667
 C31 C 0.84338 0.73296 0.11379
 H32 H 0.90846 0.72637 0.17483
 H33 H 0.82655 0.72594 0.09016
 Cu34 Cu 0.86317 0.80027 0.20040
 Cu35 Cu 0.79923 0.79912 0.13347
 Cu36 Cu 0.79973 0.86725 0.20094
 N37 N 0.86337 0.83866 0.23810
 N38 N 0.83846 0.86486 0.23797
 C39 C 0.84405 0.88730 0.26712
 C40 C 0.87399 0.87440 0.28666
 C41 C 0.88568 0.84353 0.26747
 H42 H 0.82736 0.91101 0.27385
 H43 H 0.90852 0.82592 0.27458
 N44 N 0.76276 0.86488 0.16122
 N45 N 0.76246 0.83885 0.13562
 C46 C 0.73329 0.84403 0.11335
 C47 C 0.71441 0.87467 0.12561
 C48 C 0.73383 0.88729 0.15588
 H49 H 0.72601 0.82666 0.09013
 H50 H 0.72702 0.91081 0.17295
 H51 H 0.82830 0.84060 0.15934
 H52 H 0.79835 0.81148 0.18935
 N53 N 0.83817 1.23685 -0.13530
 N54 N 0.86357 1.23627 -0.16109
 C55 C 0.88609 1.26524 -0.15615
 C56 C 0.87407 1.28492 -0.12570
 C57 C 0.84367 1.26614 -0.11305
 H58 H 0.90942 1.27166 -0.17337
 H59 H 0.82663 1.27353 -0.08969
 Cu60 Cu 0.86423 1.19814 -0.19902
 Cu61 Cu 0.79928 1.20026 -0.13304
 Cu62 Cu 0.79912 1.13277 -0.20123
 N63 N 0.86353 1.16046 -0.23739
 N64 N 0.83800 1.13496 -0.23807
 C65 C 0.84349 1.11281 -0.26751
 C66 C 0.87407 1.12522 -0.28632
 C67 C 0.88616 1.15544 -0.26644
 H68 H 0.82636 1.08964 -0.27491
 H69 H 0.90962 1.17245 -0.27273
 N70 N 0.76203 1.13531 -0.16161
 N71 N 0.76216 1.16093 -0.13559
 C72 C 0.73306 1.15580 -0.11326
 C73 C 0.71372 1.12565 -0.12593
 C74 C 0.73282 1.11325 -0.15651
 H75 H 0.72613 1.17288 -0.08972
 H76 H 0.72569 1.09003 -0.17386
 H77 H 0.82768 1.15823 -0.15894
 H78 H 0.79885 1.18836 -0.18901
 N79 N 0.16196 0.76272 -0.13559
 N80 N 0.13665 0.76317 -0.16152
 C81 C 0.11427 0.73405 -0.15663
 C82 C 0.12638 0.71437 -0.12614
 C83 C 0.15661 0.73334 -0.11340
 H84 H 0.09114 0.72735 -0.17404
 H85 H 0.17359 0.72608 -0.08992
 Cu86 Cu 0.13659 0.80119 -0.19966
 Cu87 Cu 0.20082 0.79942 -0.13321
 Cu88 Cu 0.20075 0.86719 -0.20130
 N89 N 0.13654 0.83919 -0.23781
 N90 N 0.16184 0.86496 -0.23820
 C91 C 0.15643 0.88713 -0.26768
 C92 C 0.12614 0.87453 -0.28681
 C93 C 0.11409 0.84414 -0.26706
 H94 H 0.17340 0.91049 -0.27484
 H95 H 0.09096 0.82682 -0.27377
 N96 N 0.23779 0.86468 -0.16159
 N97 N 0.23779 0.83892 -0.13565
 C98 C 0.26688 0.84407 -0.11329
 C99 C 0.28606 0.87439 -0.12586
 C100 C 0.26689 0.88687 -0.15640
 H101 H 0.27390 0.82689 -0.08981
 H102 H 0.27391 0.91019 -0.17369
 H103 H 0.17225 0.84125 -0.15925
 H104 H 0.20160 0.81152 -0.18918
 Si105 Si 0.49981 1.00012 -0.00006
 Si106 Si 0.00033 0.49963 1.00025
 Si107 Si 0.99999 0.00022 0.49977
 C108 C 0.08141 0.38110 1.08185
 N109 N 0.11183 0.36586 1.06666
 N110 N 0.12645 0.33537 1.08106
 C111 C 0.11113 0.31890 1.11114
 N112 N 0.08083 0.33431 1.12648
 N113 N 0.06620 0.36479 1.11205
 C114 C 0.06395 0.41328 1.06450
 N115 N 0.03196 0.42678 1.07799
 N116 N 0.01444 0.45385 1.06037
 C117 C 0.02850 0.46869 1.02892
 N118 N 0.06054 0.45539 1.01550
 N119 N 0.07807 0.42830 1.03309
 C120 C -0.08108 0.61794 1.08155
 N121 N -0.11095 0.63383 1.06585
 N122 N -0.12558 0.66421 1.08041
 C123 C -0.11078 0.67988 1.11111
 N124 N -0.08103 0.66390 1.12694
 N125 N -0.06640 0.63351 1.11238
 C126 C -0.06362 0.58586 1.06409
 N127 N -0.03256 0.57116 1.07857
 N128 N -0.01499 0.54413 1.06099
 C129 C -0.02808 0.53060 1.02855
 N130 N -0.05918 0.54511 1.01414
 N131 N -0.07677 0.57212 1.03171
 C132 C -0.08028 0.38086 0.91892
 N133 N -0.11086 0.36583 0.93398
 N134 N -0.12553 0.33541 0.91959
 C135 C -0.11010 0.31886 0.88968
 N136 N -0.07964 0.33400 0.87447
 N137 N -0.06495 0.36440 0.88888
 C138 C -0.06281 0.41300 0.93623
 N139 N -0.03058 0.42613 0.92303
 N140 N -0.01313 0.45322 0.94060
 C141 C -0.02752 0.46841 0.97170
 N142 N -0.05981 0.45549 0.98482
 N143 N -0.07726 0.42837 0.96729
 C144 C 0.08109 0.61829 0.91871
 N145 N 0.06598 0.63441 0.88833
 N146 N 0.08056 0.66486 0.87385
 C147 C 0.11070 0.68038 0.88932
 N148 N 0.12592 0.66415 0.91957
 N149 N 0.11135 0.63370 0.93404
 C150 C 0.06368 0.58615 0.93612
 N151 N 0.07764 0.57141 0.96775
 N152 N 0.06017 0.54433 0.98535
 C153 C 0.02836 0.53076 0.97172
 N154 N 0.01444 0.54530 0.94004
 N155 N 0.03191 0.57238 0.92241
 C156 C 1.08055 0.08171 0.38051
 N157 N 1.11095 0.06664 0.36512
 N158 N 1.12562 0.08115 0.33460
 C159 C 1.11037 0.11123 0.31823
 N160 N 1.08009 0.12645 0.33379
 N161 N 1.06540 0.11191 0.36431
 C162 C 1.06309 0.06428 0.41275
 N163 N 1.03103 0.07755 0.42629
 N164 N 1.01359 0.05993 0.45348
 C165 C 1.02781 0.02869 0.46837
 N166 N 1.05992 0.01550 0.45503
 N167 N 1.07736 0.03309 0.42782
 C168 C 1.08143 -0.08131 0.61844
 N169 N 1.11162 -0.06606 0.63405
 N170 N 1.12624 -0.08054 0.66464
 C171 C 1.11116 -0.11074 0.68085
 N172 N 1.08107 -0.12611 0.66509
 N173 N 1.06644 -0.11163 0.63450
 C174 C 1.06396 -0.06389 0.58617
 N175 N 1.03250 -0.07781 0.57190
 N176 N 1.01492 -0.06019 0.54476
 C177 C 1.02841 -0.02830 0.53066
 N178 N 1.05992 -0.01445 0.54474
 N179 N 1.07751 -0.03205 0.57187
 C180 C 0.91850 -0.08092 0.38111
 N181 N 0.88888 -0.06521 0.36478
 N182 N 0.87430 -0.07988 0.33432
 C183 C 0.88891 -0.11071 0.31891
 N184 N 0.91845 -0.12654 0.33536
 N185 N 0.93301 -0.11188 0.36587
 C186 C 0.93589 -0.06336 0.41329
 N187 N 0.96613 -0.07842 0.42912
 N188 N 0.98368 -0.06085 0.45626
 C189 C 0.97140 -0.02781 0.46872
 N190 N 0.94112 -0.01282 0.45306
 N191 N 0.92353 -0.03039 0.42598
 C192 C 0.91933 0.08123 0.61925
 N193 N 0.88865 0.06637 0.63427
 N194 N 0.87385 0.08079 0.66475
 C195 C 0.88923 0.11055 0.68144
 N196 N 0.91979 0.12556 0.66625
 N197 N 0.93462 0.11111 0.63578
 C198 C 0.93691 0.06392 0.58702
 N199 N 0.96931 0.07683 0.57402
 N200 N 0.98680 0.05931 0.54682
 C201 C 0.97228 0.02855 0.53136
 N202 N 0.93981 0.01573 0.54414
 N203 N 0.92234 0.03320 0.57138
 C204 C 0.38107 1.08061 0.08080
 N205 N 0.36463 1.06484 0.11062
 N206 N 0.33441 1.07952 0.12505
 C207 C 0.31942 1.11040 0.11009
 N208 N 0.33593 1.12627 0.08036
 N209 N 0.36618 1.11162 0.06595
 C210 C 0.41312 1.06317 0.06360
 N211 N 0.42886 1.07819 0.03299
 N212 N 0.45600 1.06078 0.01561
 C213 C 0.46856 1.02796 0.02844
 N214 N 0.45299 1.01300 0.05907
 N215 N 0.42590 1.03041 0.07650
 C216 C 0.61792 1.08122 -0.08099
 N217 N 0.63409 1.11102 -0.06519
 N218 N 0.66445 1.12533 -0.07967
 C219 C 0.67986 1.11028 -0.11038
 N220 N 0.66361 1.08058 -0.12629
 N221 N 0.63323 1.06628 -0.11183
 C222 C 0.58580 1.06406 -0.06367
 N223 N 0.57071 1.03317 -0.07843
 N224 N 0.54363 1.01575 -0.06098
 C225 C 0.53042 1.02884 -0.02841
 N226 N 0.54534 1.05977 -0.01371
 N227 N 0.57239 1.07723 -0.03116
 C228 C 0.38178 0.91901 -0.08098
 N229 N 0.36619 0.93417 -0.11160
 N230 N 0.33583 0.91981 -0.12604
 C231 C 0.31988 0.88984 -0.11031
 N232 N 0.33555 0.87456 -0.07979
 N233 N 0.36590 0.88893 -0.06534
 C234 C 0.41390 0.93621 -0.06371
 N235 N 0.42782 0.92263 -0.03154
 N236 N 0.45487 0.94009 -0.01412
 C237 C 0.46927 0.97145 -0.02850
 N238 N 0.45554 0.98496 -0.06072
 N239 N 0.42848 0.96753 -0.07815
 C240 C 0.61873 0.91986 0.08096
 N241 N 0.63528 0.93575 0.11063
 N242 N 0.66560 0.92118 0.12500
 C243 C 0.68059 0.89030 0.11013
 N244 N 0.66398 0.87431 0.08056
 N245 N 0.63362 0.88885 0.06621
 C246 C 0.58660 0.93721 0.06378
 N247 N 0.57071 0.92206 0.03334
 N248 N 0.54351 0.93941 0.01594
 C249 C 0.53103 0.97231 0.02857
 N250 N 0.54676 0.98740 0.05904
 N251 N 0.57390 0.97005 0.07649
   
