data_POSCAR
  _audit_creation_date              2014-09-24
  _audit_creation_method            'ToBaCCo'
  _symmetry_space_group_name_H-M    'P1'
  _symmetry_Int_Tables_number       1
  _symmetry_cell_setting            triclinic
  loop_
  _symmetry_equiv_pos_as_xyz
 x,y,z
_cell_length_a 31.8281
_cell_length_b 31.8302
_cell_length_c 16.9308
_cell_angle_alpha 89.903200
_cell_angle_beta 90.097600
_cell_angle_gamma 120.124800
loop_
  _atom_site_label
  _atom_site_type_symbol
  _atom_site_fract_x
  _atom_site_fract_y
  _atom_site_fract_z
C1 C 0.43426 0.86940 0.49913
 C2 C 0.44952 0.89449 0.57049
 C3 C 0.47618 0.94540 0.57080
 C4 C 0.48581 0.97240 0.49974
 C5 C 0.46860 0.94575 0.42842
 C6 C 0.44433 0.89490 0.42818
 C7 C 0.51337 1.02744 0.50001
 C8 C 0.53081 1.05445 0.42898
 C9 C 0.55512 1.10536 0.42928
 C10 C 0.56496 1.13044 0.50062
 C11 C 0.54946 1.10492 0.57155
 C12 C 0.52281 1.05408 0.57130
 H13 H 0.41453 0.82996 0.49866
 H14 H 0.48915 0.96294 0.62718
 H15 H 0.47329 0.96343 0.37213
 H16 H 0.52623 1.03692 0.37263
 H17 H 0.58472 1.16987 0.50109
 H18 H 0.50977 1.03638 0.62756
 C19 C 0.13063 0.56475 0.49905
 C20 C 0.10555 0.55482 0.57039
 C21 C 0.05464 0.53051 0.57070
 C22 C 0.02762 0.51318 0.49965
 C23 C 0.05426 0.52271 0.42834
 C24 C 0.10511 0.54934 0.42811
 C25 C -0.02744 0.48563 0.49990
 C26 C -0.05444 0.47593 0.42882
 C27 C -0.10535 0.44928 0.42911
 C28 C -0.13045 0.43409 0.50045
 C29 C -0.10496 0.44422 0.57143
 C30 C -0.05411 0.46850 0.57122
 H31 H 0.17007 0.58450 0.49858
 H32 H 0.03712 0.52584 0.62708
 H33 H 0.03659 0.50977 0.37205
 H34 H -0.03689 0.48882 0.37241
 H35 H -0.16989 0.41437 0.50090
 H36 H -0.03645 0.47325 0.62755
 C37 C 0.43495 0.56616 0.50025
 C38 C 0.44492 0.55104 0.57168
 C39 C 0.46917 0.52447 0.57214
 C40 C 0.48632 0.51471 0.50113
 C41 C 0.47671 0.53176 0.42972
 C42 C 0.45021 0.55601 0.42936
 C43 C 0.51374 0.48719 0.50150
 C44 C 0.52341 0.46999 0.43046
 C45 C 0.54988 0.44570 0.43087
 C46 C 0.56505 0.43571 0.50212
 C47 C 0.55503 0.45099 0.57307
 C48 C 0.53082 0.47754 0.57287
 H49 H 0.41527 0.58585 0.49968
 H50 H 0.47391 0.51168 0.62861
 H51 H 0.48949 0.52695 0.37344
 H52 H 0.51070 0.47469 0.37393
 H53 H 0.58469 0.41600 0.50235
 H54 H 0.52608 0.49034 0.62919
 O55 O 0.40671 0.65625 -0.06961
 O56 O 0.40446 0.73587 -0.09307
 C57 C 0.38096 0.75714 -0.10898
 O58 O 0.34404 0.75080 -0.07028
 O59 O 0.26431 0.66872 -0.09347
 C60 C 0.24295 0.62386 -0.10912
 O61 O 0.24920 0.59327 -0.07014
 O62 O 0.33121 0.59575 -0.09292
 C63 C 0.37608 0.61932 -0.10849
 O64 O 0.40450 0.66938 0.08792
 O65 O 0.40642 0.75110 0.06447
 C66 C 0.37565 0.75708 0.10319
 O67 O 0.33080 0.73550 0.08731
 O68 O 0.24900 0.65548 0.06411
 C69 C 0.24292 0.61869 0.10310
 O70 O 0.26442 0.59541 0.08751
 O71 O 0.34434 0.59372 0.06474
 C72 C 0.38114 0.62452 0.10371
 Cr73 Cr 0.40284 0.70180 -0.00258
 Cr74 Cr 0.29838 0.70129 -0.00308
 Cr75 Cr 0.29863 0.59722 -0.00271
 O76 O 0.33328 0.66677 -0.00279
 O77 O 0.59375 0.34411 -0.06466
 O78 O 0.59550 0.26422 -0.08776
 C79 C 0.61878 0.24274 -0.10345
 O80 O 0.65560 0.24882 -0.06455
 O81 O 0.73559 0.33065 -0.08782
 C82 C 0.75715 0.37550 -0.10365
 O83 O 0.75116 0.40624 -0.06486
 O84 O 0.66937 0.40429 -0.08802
 C85 C 0.62447 0.38099 -0.10353
 O86 O 0.59591 0.33090 0.09286
 O87 O 0.59348 0.24892 0.06985
 C88 C 0.62412 0.24270 0.10875
 O89 O 0.66897 0.26409 0.09303
 O90 O 0.75101 0.34385 0.06976
 C91 C 0.75734 0.38074 0.10854
 O92 O 0.73604 0.40421 0.09273
 O93 O 0.65635 0.40641 0.06948
 C94 C 0.61942 0.37578 0.10833
 Cr95 Cr 0.59734 0.29837 0.00257
 Cr96 Cr 0.70146 0.29820 0.00260
 Cr97 Cr 0.70189 0.40261 0.00234
 O98 O 0.66690 0.33306 0.00251
 C99 C 0.43746 0.86904 -0.36040
 C100 C 0.42550 0.84535 -0.30047
 C101 C 0.41035 0.81613 -0.23195
 C102 C 0.39695 0.78990 -0.17491
 C103 C 0.13100 0.56823 -0.36050
 C104 C 0.15470 0.57998 -0.30058
 C105 C 0.18395 0.59411 -0.23207
 C106 C 0.21019 0.60701 -0.17504
 C107 C 0.43161 0.56309 -0.35929
 C108 C 0.41991 0.57503 -0.29946
 C109 C 0.40580 0.59011 -0.23109
 C110 C 0.39292 0.60343 -0.17421
 C111 C 0.56204 0.13142 -0.35516
 C112 C 0.57402 0.15491 -0.29512
 C113 C 0.58921 0.18396 -0.22649
 C114 C 0.60267 0.21007 -0.16939
 C115 C 0.86853 0.43032 -0.35529
 C116 C 0.84501 0.41879 -0.29528
 C117 C 0.81594 0.40488 -0.22667
 C118 C 0.78981 0.39217 -0.16959
 C119 C 0.56901 0.43829 -0.35375
 C120 C 0.58069 0.42617 -0.29398
 C121 C 0.59481 0.41081 -0.22578
 C122 C 0.60768 0.39721 -0.16908
 C123 C 0.86922 0.43720 0.35998
 C124 C 0.84555 0.42523 0.30003
 C125 C 0.81634 0.41009 0.23149
 C126 C 0.79011 0.39671 0.17445
 C127 C 0.56857 0.13081 0.36018
 C128 C 0.58034 0.15449 0.30025
 C129 C 0.59446 0.18372 0.23172
 C130 C 0.60733 0.20995 0.17468
 C131 C 0.56257 0.43159 0.35798
 C132 C 0.57464 0.41981 0.29841
 C133 C 0.58991 0.40561 0.23039
 C134 C 0.60338 0.39265 0.17379
 C135 C 0.13161 0.56198 0.35481
 C136 C 0.15510 0.57398 0.29477
 C137 C 0.18414 0.58917 0.22612
 C138 C 0.21025 0.60262 0.16903
 C139 C 0.43040 0.86841 0.35488
 C140 C 0.41886 0.84491 0.29485
 C141 C 0.40497 0.81587 0.22622
 C142 C 0.39228 0.78975 0.16913
 C143 C 0.43757 0.56988 0.35599
 C144 C 0.42561 0.58138 0.29586
 C145 C 0.41049 0.59524 0.22708
 C146 C 0.39711 0.60791 0.16984
   
