data_POSCAR
  _audit_creation_date              2014-09-24
  _audit_creation_method            'ToBaCCo'
  _symmetry_space_group_name_H-M    'P1'
  _symmetry_Int_Tables_number       1
  _symmetry_cell_setting            triclinic
  loop_
  _symmetry_equiv_pos_as_xyz
 x,y,z
_cell_length_a 40.5332
_cell_length_b 40.2871
_cell_length_c 35.3944
_cell_angle_alpha 89.892300
_cell_angle_beta 90.188000
_cell_angle_gamma 119.825400
loop_
  _atom_site_label
  _atom_site_type_symbol
  _atom_site_fract_x
  _atom_site_fract_y
  _atom_site_fract_z
O1 O 0.04236 0.49967 -0.00112
 O2 O -0.01413 0.54143 -0.03742
 O3 O 0.03483 0.55807 0.01655
 O4 O -0.01169 0.48199 -0.05412
 O5 O -0.04904 0.44273 -0.00992
 O6 O -0.01241 0.52447 0.05587
 O7 O -0.06202 0.50099 -0.00191
 O8 O -0.00060 0.46878 0.04299
 Cu9 Cu 0.01781 0.52351 -0.02301
 Cu10 Cu -0.03621 0.48112 0.02557
 C11 C 0.03147 0.47861 0.02817
 C12 C -0.04866 0.52658 -0.02752
 C13 C 0.01887 0.55441 0.04830
 C14 C -0.03822 0.44924 -0.04407
 O15 O 0.50562 0.56385 0.00997
 O16 O 0.46306 0.48008 -0.05360
 O17 O 0.44151 0.50000 0.00838
 O18 O 0.52701 0.54440 -0.05143
 O19 O 0.55163 0.51601 -0.01763
 O20 O 0.46684 0.47274 0.04293
 O21 O 0.48829 0.45288 -0.01877
 O22 O 0.53155 0.53671 0.04382
 Cu23 Cu 0.48159 0.52470 -0.02508
 Cu24 Cu 0.51194 0.49180 0.01619
 C25 C 0.52591 0.56459 0.03775
 C26 C 0.46932 0.45257 -0.04752
 C27 C 0.43984 0.47938 0.03632
 C28 C 0.55375 0.53721 -0.04524
 O29 O 0.48659 1.04195 -0.01465
 O30 O 0.52851 0.99304 0.03904
 O31 O 0.54946 1.04095 -0.01828
 O32 O 0.46703 0.99796 0.04487
 O33 O 0.43841 0.94768 0.00741
 O34 O 0.52197 0.99073 -0.05579
 O35 O 0.49935 0.94327 0.00105
 O36 O 0.45816 0.99179 -0.05228
 Cu37 Cu 0.51082 1.02341 0.01661
 Cu38 Cu 0.47665 0.96348 -0.02879
 C39 C 0.46552 1.02520 -0.04303
 C40 C 0.52029 0.95931 0.02954
 C41 C 0.54982 1.02375 -0.04815
 C42 C 0.43878 0.96540 0.03727
 O43 O 1.01042 0.47195 0.46366
 O44 O 0.95755 0.50676 0.52096
 O45 O 1.00158 0.53162 0.46192
 O46 O 0.96294 0.44515 0.52051
 O47 O 1.01200 0.47355 0.55925
 O48 O 1.05198 0.55988 0.49889
 O49 O 1.00749 0.53648 0.55839
 O50 O 1.05914 0.50040 0.50283
 Cu51 Cu 0.97817 0.48591 0.48801
 Cu52 Cu 1.03734 0.52045 0.53399
 C53 C 1.04419 0.48096 0.47320
 C54 C 0.97378 0.52782 0.54950
 C55 C 1.03387 0.56023 0.46957
 C56 C 0.98051 0.44451 0.54997
 O57 O 0.53434 0.52295 0.43387
 O58 O 0.48876 0.43710 0.49476
 O59 O 0.46804 0.46064 0.43491
 O60 O 0.55550 0.49603 0.49053
 O61 O 0.53582 0.52514 0.52959
 O62 O 0.44816 0.49083 0.47226
 O63 O 0.46772 0.46637 0.53203
 O64 O 0.51452 0.55210 0.47270
 Cu65 Cu 0.51355 0.47628 0.45954
 Cu66 Cu 0.48962 0.51164 0.50539
 C67 C 0.53184 0.55218 0.44290
 C68 C 0.47101 0.43745 0.52421
 C69 C 0.44330 0.46983 0.44359
 C70 C 0.56026 0.51561 0.52014
 O71 O 0.45992 -0.02366 0.56859
 O72 O 0.50034 -0.07231 0.51333
 O73 O 0.52461 -0.02296 0.56863
 O74 O 0.43663 -0.07296 0.51263
 O75 O 0.45919 -0.02493 0.47231
 O76 O 0.54775 0.02471 0.52775
 O77 O 0.52372 -0.02457 0.47249
 O78 O 0.48389 0.02428 0.52803
 Cu79 Cu 0.47801 -0.05264 0.54503
 Cu80 Cu 0.50587 0.00458 0.49598
 C81 C 0.46559 0.00896 0.55812
 C82 C 0.51849 -0.05697 0.48318
 C83 C 0.55115 0.00954 0.55792
 C84 C 0.43304 -0.05792 0.48243
 C85 C 0.32062 0.46615 0.26281
 C86 C 0.32039 0.46618 0.22403
 C87 C 0.28254 0.44713 0.21295
 N88 N 0.25970 0.43540 0.24362
 C89 C 0.28291 0.44716 0.27413
 C90 C 0.26947 0.43958 0.17515
 C91 C 0.23104 0.42604 0.16530
 C92 C 0.21481 0.41042 0.13059
 C93 C 0.17870 0.40554 0.13074
 C94 C 0.17396 0.41837 0.16552
 N95 N 0.20585 0.43049 0.18650
 C96 C 0.14257 0.42253 0.17573
 C97 C 0.13557 0.42845 0.21351
 C98 C 0.11085 0.44101 0.22461
 C99 C 0.11123 0.44144 0.26334
 C100 C 0.13610 0.42904 0.27461
 N101 N 0.15090 0.42105 0.24410
 C102 C 0.14382 0.42386 0.31244
 C103 C 0.17523 0.41945 0.32245
 C104 C 0.18036 0.40677 0.35724
 C105 C 0.21640 0.41141 0.35718
 C106 C 0.23221 0.42675 0.32232
 N107 N 0.20684 0.43127 0.30125
 C108 C 0.27035 0.43959 0.31203
 H109 H 0.34571 0.47897 0.28058
 H110 H 0.34528 0.47906 0.20613
 H111 H 0.21273 0.44659 0.27613
 H112 H 0.22799 0.40413 0.10723
 H113 H 0.15861 0.39480 0.10753
 H114 H 0.09459 0.44946 0.20673
 H115 H 0.09533 0.45033 0.28107
 H116 H 0.22977 0.40508 0.38046
 H117 H 0.21204 0.44602 0.21149
 H118 H 0.16057 0.39622 0.38060
 C119 C 0.54857 0.68529 0.22542
 C120 C 0.54928 0.68391 0.26413
 C121 C 0.56980 0.72147 0.27655
 N122 N 0.58175 0.74567 0.24676
 C123 C 0.56867 0.72363 0.21548
 C124 C 0.57815 0.73309 0.31468
 C125 C 0.59145 0.77134 0.32598
 C126 C 0.60721 0.78652 0.36096
 C127 C 0.61055 0.82223 0.36283
 C128 C 0.59686 0.82783 0.32889
 N129 N 0.58573 0.79692 0.30646
 C130 C 0.59037 0.85850 0.32098
 C131 C 0.58461 0.86733 0.28375
 C132 C 0.57012 0.89098 0.27414
 C133 C 0.57019 0.89270 0.23544
 C134 C 0.58467 0.87000 0.22270
 N135 N 0.59360 0.85464 0.25226
 C136 C 0.59026 0.86424 0.18442
 C137 C 0.59609 0.83397 0.17292
 C138 C 0.60883 0.83066 0.13757
 C139 C 0.60447 0.79454 0.13568
 C140 C 0.58929 0.77691 0.16996
 N141 N 0.58473 0.80129 0.19262
 C142 C 0.57577 0.73790 0.17811
 H143 H 0.53436 0.66083 0.20683
 H144 H 0.53567 0.65819 0.28111
 H145 H 0.56921 0.79390 0.21759
 H146 H 0.61424 0.77273 0.38333
 H147 H 0.62067 0.84133 0.38688
 H148 H 0.55990 0.90503 0.29294
 H149 H 0.56001 0.90829 0.21870
 H150 H 0.61056 0.78219 0.11140
 H151 H 0.56968 0.79121 0.28187
 H152 H 0.61884 0.85156 0.11500
 C153 C 0.32818 0.86667 0.23170
 C154 C 0.32914 0.86945 0.27041
 C155 C 0.29167 0.85000 0.28252
 N156 N 0.26795 0.83552 0.25260
 C157 C 0.29018 0.84557 0.22154
 C158 C 0.27941 0.84678 0.32037
 C159 C 0.24206 0.81928 0.33127
 C160 C 0.22499 0.81935 0.36514
 C161 C 0.19159 0.78487 0.36733
 C162 C 0.18919 0.76483 0.33467
 N163 N 0.21974 0.78623 0.31262
 C164 C 0.16202 0.72607 0.32781
 C165 C 0.15476 0.71057 0.29089
 C166 C 0.13460 0.67196 0.28185
 C167 C 0.13298 0.66971 0.24309
 C168 C 0.15241 0.70697 0.22981
 N169 N 0.16552 0.73185 0.25902
 C170 C 0.15732 0.71798 0.19142
 C171 C 0.18427 0.75544 0.17995
 C172 C 0.18534 0.77097 0.14465
 C173 C 0.21939 0.80475 0.14246
 C174 C 0.23800 0.80888 0.17654
 N175 N 0.21617 0.77906 0.19941
 C176 C 0.27607 0.83675 0.18421
 H177 H 0.35269 0.87842 0.21329
 H178 H 0.35458 0.88369 0.28759
 H179 H 0.22523 0.77217 0.22425
 H180 H 0.23609 0.84137 0.38664
 H181 H 0.17194 0.77514 0.39081
 H182 H 0.12272 0.64786 0.30103
 H183 H 0.11961 0.64361 0.22665
 H184 H 0.22989 0.82341 0.11810
 H185 H 0.22771 0.77639 0.28912
 H186 H 0.16447 0.75845 0.12225
 C187 C 0.86709 0.54835 0.76789
 C188 C 0.86449 0.54456 0.72930
 C189 C 0.84199 0.55954 0.71719
 N190 N 0.83067 0.57219 0.74708
 C191 C 0.84583 0.56521 0.77809
 C192 C 0.83373 0.56326 0.67908
 C193 C 0.80582 0.57297 0.66894
 C194 C 0.80265 0.58641 0.63382
 C195 C 0.76988 0.58875 0.63449
 C196 C 0.75378 0.57630 0.66989
 N197 N 0.77609 0.56710 0.69079
 C198 C 0.71747 0.56978 0.68087
 C199 C 0.70549 0.56352 0.71894
 C200 C 0.66810 0.54720 0.73089
 C201 C 0.66900 0.54740 0.76965
 C202 C 0.70697 0.56423 0.78007
 N203 N 0.72921 0.57404 0.74900
 C204 C 0.72098 0.57186 0.81754
 C205 C 0.75907 0.58281 0.82621
 C206 C 0.77755 0.59979 0.85972
 C207 C 0.81197 0.60075 0.85906
 C208 C 0.81340 0.58421 0.82523
 N209 N 0.78124 0.57376 0.80523
 C210 C 0.84180 0.57529 0.81530
 H211 H 0.88251 0.53933 0.78632
 H212 H 0.87759 0.53204 0.71223
 H213 H 0.77245 0.55633 0.78141
 H214 H 0.82164 0.59323 0.61001
 H215 H 0.75867 0.59761 0.61120
 H216 H 0.64276 0.53574 0.71353
 H217 H 0.64442 0.53611 0.78791
 H218 H 0.83301 0.61131 0.88144
 H219 H 0.76882 0.55270 0.71651
 H220 H 0.76685 0.60947 0.88267
 C221 C 0.45999 0.33273 0.75945
 C222 C 0.45990 0.33049 0.72070
 C223 C 0.44339 0.29198 0.71174
 N224 N 0.43316 0.27069 0.74362
 C225 C 0.44353 0.29553 0.77282
 C226 C 0.43718 0.27672 0.67477
 C227 C 0.42693 0.23828 0.66762
 C228 C 0.41224 0.21926 0.63374
 C229 C 0.41205 0.18506 0.63612
 C230 C 0.42666 0.18422 0.67135
 N231 N 0.43515 0.21651 0.69055
 C232 C 0.43625 0.15658 0.68328
 C233 C 0.44270 0.15209 0.72171
 C234 C 0.45918 0.13137 0.73516
 C235 C 0.45907 0.13351 0.77385
 C236 C 0.44260 0.15553 0.78268
 N237 N 0.43245 0.16668 0.75080
 C238 C 0.43596 0.16410 0.81959
 C239 C 0.42669 0.19293 0.82692
 C240 C 0.41251 0.19768 0.86082
 C241 C 0.41286 0.23196 0.85838
 C242 C 0.42725 0.24712 0.82305
 N243 N 0.43512 0.22291 0.80390
 C244 C 0.43770 0.28462 0.81128
 H245 H 0.47143 0.35882 0.77580
 H246 H 0.47128 0.35453 0.70145
 H247 H 0.45097 0.22938 0.77919
 H248 H 0.40385 0.22960 0.60936
 H249 H 0.40342 0.16384 0.61396
 H250 H 0.47059 0.11668 0.71891
 H251 H 0.47033 0.12074 0.79317
 H252 H 0.40481 0.24496 0.88058
 H253 H 0.45123 0.22585 0.71521
 H254 H 0.40409 0.17906 0.88525
 C255 C 0.67319 0.13675 0.76920
 C256 C 0.67438 0.13524 0.73058
 C257 C 0.71246 0.15258 0.72078
 N258 N 0.73455 0.16444 0.75206
 C259 C 0.71059 0.15482 0.78171
 C260 C 0.72632 0.15587 0.68362
 C261 C 0.76470 0.18111 0.67411
 C262 C 0.78133 0.18142 0.63984
 C263 C 0.81692 0.21345 0.63985
 C264 C 0.82113 0.23151 0.67427
 N265 N 0.78934 0.21149 0.69508
 C266 C 0.85159 0.26805 0.68368
 C267 C 0.86085 0.28076 0.72160
 C268 C 0.88927 0.31677 0.73253
 C269 C 0.88983 0.31701 0.77112
 C270 C 0.86044 0.28179 0.78298
 N271 N 0.84352 0.25926 0.75254
 C272 C 0.84996 0.27106 0.82132
 C273 C 0.81747 0.23599 0.83196
 C274 C 0.80988 0.22038 0.86810
 C275 C 0.77422 0.18871 0.86729
 C276 C 0.76014 0.18626 0.83111
 N277 N 0.78681 0.21487 0.80965
 C278 C 0.72213 0.16064 0.81996
 H279 H 0.64768 0.12606 0.78605
 H280 H 0.64998 0.12314 0.71188
 H281 H 0.78223 0.22279 0.78308
 H282 H 0.76863 0.16144 0.61669
 H283 H 0.83703 0.22303 0.61675
 H284 H 0.90795 0.34076 0.71498
 H285 H 0.90983 0.34088 0.78811
 H286 H 0.75981 0.17045 0.89118
 H287 H 0.78268 0.22132 0.71940
 H288 H 0.82724 0.23067 0.89318
 C289 C 0.09658 0.48905 0.04133
 C290 C 0.05707 0.46725 0.04671
 C291 C 0.04255 0.43717 0.07308
 C292 C 0.06722 0.43045 0.09550
 C293 C 0.10699 0.45410 0.09151
 C294 C 0.12136 0.48260 0.06363
 C295 C 0.13161 0.45001 0.11659
 C296 C 0.11693 0.42262 0.14562
 C297 C 0.07751 0.39769 0.14785
 C298 C 0.05281 0.40164 0.12307
 H299 H 0.01209 0.41996 0.07721
 H300 H 0.15176 0.50078 0.05998
 H301 H 0.16203 0.46930 0.11478
 H302 H 0.02242 0.38302 0.12627
 H303 H 0.10843 0.51240 0.02121
 H304 H 0.06582 0.37618 0.16986
 C305 C 0.56972 0.60190 0.09084
 C306 C 0.54235 0.59769 0.06385
 C307 C 0.52958 0.62438 0.06311
 C308 C 0.54288 0.65401 0.08981
 C309 C 0.56998 0.65761 0.11717
 C310 C 0.58360 0.63173 0.11708
 C311 C 0.58208 0.68625 0.14485
 C312 C 0.56657 0.71060 0.14623
 C313 C 0.54022 0.70728 0.11850
 C314 C 0.52868 0.67941 0.09035
 H315 H 0.50836 0.62138 0.04258
 H316 H 0.60437 0.63406 0.13783
 H317 H 0.60250 0.68880 0.16615
 H318 H 0.50788 0.67707 0.06964
 H319 H 0.58017 0.58186 0.09191
 H320 H 0.52786 0.72571 0.11925
 C321 C 0.40177 0.97003 0.09141
 C322 C 0.40682 0.94755 0.06423
 C323 C 0.38280 0.90766 0.06471
 C324 C 0.35513 0.89028 0.09293
 C325 C 0.35061 0.91314 0.12044
 C326 C 0.37368 0.95301 0.11905
 C327 C 0.32386 0.89567 0.14945
 C328 C 0.30233 0.85561 0.15193
 C329 C 0.30676 0.83319 0.12424
 C330 C 0.33271 0.85035 0.09483
 H331 H 0.38669 0.89001 0.04412
 H332 H 0.37063 0.97098 0.13989
 H333 H 0.32042 0.91309 0.17067
 H334 H 0.33585 0.83238 0.07408
 H335 H 0.41987 1.00084 0.09155
 H336 H 0.29051 0.80225 0.12581
 C337 C 0.97326 0.57162 0.59921
 C338 C 0.95321 0.54189 0.57314
 C339 C 0.91337 0.52472 0.57107
 C340 C 0.89373 0.53608 0.59576
 C341 C 0.91423 0.56563 0.62222
 C342 C 0.95399 0.58358 0.62331
 C343 C 0.89458 0.57585 0.64800
 C344 C 0.85463 0.55598 0.64863
 C345 C 0.83450 0.52728 0.62168
 C346 C 0.85388 0.51758 0.59527
 H347 H 0.89755 0.50164 0.55123
 H348 H 0.97014 0.60628 0.64340
 H349 H 0.91022 0.59818 0.66862
 H350 H 0.83768 0.49488 0.57521
 H351 H 1.00395 0.58548 0.60123
 H352 H 0.80370 0.51165 0.62179
 C353 C 0.42794 0.39985 0.57733
 C354 C 0.45585 0.40493 0.55085
 C355 C 0.47195 0.38111 0.55244
 C356 C 0.46177 0.35387 0.58131
 C357 C 0.43416 0.34943 0.60827
 C358 C 0.41689 0.37206 0.60557
 C359 C 0.42524 0.32335 0.63812
 C360 C 0.44432 0.30244 0.64186
 C361 C 0.47137 0.30676 0.61469
 C362 C 0.47981 0.33202 0.58450
 H363 H 0.49385 0.38512 0.53245
 H364 H 0.39568 0.36906 0.62595
 H365 H 0.40426 0.31998 0.65899
 H366 H 0.50111 0.33513 0.56418
 H367 H 0.41514 0.41789 0.57662
 H368 H 0.48641 0.29092 0.61724
 C369 C 0.59303 0.01187 0.61123
 C370 C 0.58570 0.03047 0.58147
 C371 C 0.61041 0.06984 0.57576
 C372 C 0.64099 0.09070 0.60047
 C373 C 0.64763 0.07181 0.63076
 C374 C 0.62390 0.03230 0.63549
 C375 C 0.67697 0.09299 0.65661
 C376 C 0.69895 0.13296 0.65330
 C377 C 0.69272 0.15139 0.62268
 C378 C 0.66418 0.13038 0.59626
 H379 H 0.60496 0.08458 0.55305
 H380 H 0.62860 0.01739 0.65854
 H381 H 0.68174 0.07873 0.68026
 H382 H 0.65946 0.14532 0.57325
 H383 H 0.57453 -0.01844 0.61612
 H384 H 0.70929 0.18221 0.61987
 C385 C 0.42165 0.02471 0.90689
 C386 C 0.45077 0.04523 0.93333
 C387 C 0.46786 0.08530 0.93471
 C388 C 0.45759 0.10479 0.90853
 C389 C 0.42903 0.08389 0.88134
 C390 C 0.41065 0.04385 0.88133
 C391 C 0.42053 0.10342 0.85361
 C392 C 0.44104 0.14354 0.85199
 C393 C 0.46856 0.16410 0.87974
 C394 C 0.47658 0.14489 0.90799
 H395 H 0.49052 0.10145 0.95480
 H396 H 0.38866 0.02740 0.86075
 H397 H 0.39920 0.08753 0.83224
 H398 H 0.49853 0.16136 0.92859
 H399 H 0.40790 -0.00619 0.90542
 H400 H 0.48467 0.19506 0.87879
 C401 C 0.58928 0.57683 0.90075
 C402 C 0.58508 0.55148 0.93027
 C403 C 0.61168 0.53876 0.93341
 C404 C 0.64033 0.54912 0.90637
 C405 C 0.64387 0.57410 0.87660
 C406 C 0.61868 0.58839 0.87449
 C407 C 0.67160 0.58317 0.84869
 C408 C 0.69453 0.56606 0.84920
 C409 C 0.69101 0.54161 0.87918
 C410 C 0.66451 0.53362 0.90779
 H411 H 0.60904 0.51915 0.95578
 H412 H 0.62097 0.60755 0.85185
 H413 H 0.67439 0.60228 0.82576
 H414 H 0.66208 0.51429 0.93034
 H415 H 0.56957 0.58745 0.89757
 H416 H 0.70831 0.52803 0.88000
 C417 C 0.93013 0.43073 0.89557
 C418 C 0.94263 0.42115 0.92875
 C419 C 0.93377 0.38307 0.93476
 C420 C 0.91366 0.35521 0.90705
 C421 C 0.89777 0.36439 0.87596
 C422 C 0.90628 0.40224 0.87034
 C423 C 0.87467 0.33584 0.85025
 C424 C 0.87198 0.29970 0.85143
 C425 C 0.89112 0.29198 0.88034
 C426 C 0.91012 0.31878 0.90904
 H427 H 0.94435 0.37574 0.95976
 H428 H 0.89521 0.40995 0.84600
 H429 H 0.86038 0.34234 0.82791
 H430 H 0.92333 0.31161 0.93187
 H431 H 0.93652 0.45989 0.89051
 H432 H 0.89101 0.26506 0.88096
 C433 C 0.51420 0.88213 0.46137
 C434 C 0.53216 0.92224 0.45944
 C435 C 0.56131 0.94189 0.43294
 C436 C 0.57136 0.92161 0.40763
 C437 C 0.55170 0.88116 0.40857
 C438 C 0.52373 0.86175 0.43602
 C439 C 0.55933 0.86079 0.38120
 C440 C 0.58653 0.88028 0.35297
 C441 C 0.60755 0.92046 0.35364
 C442 C 0.59987 0.94099 0.38060
 H443 H 0.57559 0.97285 0.43148
 H444 H 0.50859 0.83077 0.43730
 H445 H 0.54302 0.82978 0.38082
 H446 H 0.61553 0.97197 0.37972
 H447 H 0.49165 0.86637 0.48153
 H448 H 0.62891 0.93591 0.33231
 C449 C 0.40089 0.42871 0.39150
 C450 C 0.40924 0.45677 0.41927
 C451 C 0.38616 0.47364 0.42200
 C452 C 0.35610 0.46369 0.39639
 C453 C 0.34852 0.43597 0.36815
 C454 C 0.37071 0.41826 0.36634
 C455 C 0.31958 0.42718 0.34155
 C456 C 0.29858 0.44630 0.34230
 C457 C 0.30575 0.47324 0.37085
 C458 C 0.33416 0.48175 0.39780
 H459 H 0.39238 0.49543 0.44314
 H460 H 0.36526 0.39692 0.34493
 H461 H 0.31400 0.40628 0.31959
 H462 H 0.33952 0.50306 0.41920
 H463 H 0.41806 0.41512 0.38886
 H464 H 0.28983 0.48828 0.37174
 C465 C 0.02878 0.59390 0.41427
 C466 C 0.05014 0.59155 0.44463
 C467 C 0.08883 0.61968 0.44782
 C468 C 0.10638 0.64783 0.41983
 C469 C 0.08466 0.64944 0.38929
 C470 C 0.04573 0.62289 0.38727
 C471 C 0.10253 0.67651 0.36046
 C472 C 0.14221 0.70063 0.36062
 C473 C 0.16347 0.69904 0.39134
 C474 C 0.14567 0.67330 0.42095
 H475 H 0.10596 0.61839 0.47077
 H476 H 0.02864 0.62367 0.36404
 H477 H 0.08587 0.67777 0.33704
 H478 H 0.16284 0.67238 0.44401
 H479 H -0.00111 0.57304 0.41102
 H480 H 0.19409 0.71720 0.39197
 C481 C 0.88646 0.51637 0.95723
 C482 C 0.92604 0.53708 0.95174
 C483 C 0.94092 0.56472 0.92284
 C484 C 0.91661 0.56981 0.89821
 C485 C 0.87680 0.54749 0.90287
 C486 C 0.86206 0.52160 0.93306
 C487 C 0.85248 0.55039 0.87642
 C488 C 0.86751 0.57513 0.84528
 C489 C 0.90707 0.59823 0.84170
 C490 C 0.93146 0.59563 0.86797
 H491 H 0.97136 0.58101 0.91826
 H492 H 0.83162 0.50443 0.93718
 H493 H 0.82192 0.53249 0.87920
 H494 H 0.96191 0.61307 0.86408
 H495 H 0.87423 0.49490 0.97921
 H496 H 0.91902 0.61763 0.81799
 C497 C 0.42916 0.41488 0.89707
 C498 C 0.45621 0.42071 0.92507
 C499 C 0.47287 0.39734 0.92536
 C500 C 0.46353 0.36926 0.89763
 C501 C 0.43636 0.36355 0.86950
 C502 C 0.41906 0.38631 0.86971
 C503 C 0.42747 0.33561 0.84146
 C504 C 0.44601 0.31394 0.84096
 C505 C 0.47312 0.32017 0.86897
 C506 C 0.48162 0.34735 0.89719
 H507 H 0.49414 0.40182 0.94648
 H508 H 0.39823 0.38244 0.84836
 H509 H 0.40650 0.33089 0.81992
 H510 H 0.50266 0.35153 0.91843
 H511 H 0.41600 0.43259 0.89617
 H512 H 0.48786 0.30394 0.86887
 C513 C 0.58481 0.02203 0.89621
 C514 C 0.58064 0.04195 0.92681
 C515 C 0.60712 0.08126 0.93099
 C516 C 0.63608 0.10056 0.90439
 C517 C 0.64029 0.08011 0.87421
 C518 C 0.61476 0.04078 0.87061
 C519 C 0.66935 0.09955 0.84764
 C520 C 0.69294 0.13954 0.84967
 C521 C 0.68783 0.15963 0.87937
 C522 C 0.66018 0.14026 0.90688
 H523 H 0.60427 0.09742 0.95397
 H524 H 0.61740 0.02469 0.84747
 H525 H 0.67302 0.08383 0.82475
 H526 H 0.65702 0.15646 0.92959
 H527 H 0.56507 -0.00818 0.89211
 H528 H 0.70526 0.19047 0.88116
 C529 C 0.10720 0.49140 0.45205
 C530 C 0.06733 0.47066 0.44888
 C531 C 0.05043 0.44210 0.42107
 C532 C 0.07321 0.43519 0.39604
 C533 C 0.11328 0.45748 0.39856
 C534 C 0.12995 0.48504 0.42702
 C535 C 0.13607 0.45268 0.37195
 C536 C 0.11946 0.42554 0.34295
 C537 C 0.07970 0.40210 0.34175
 C538 C 0.05672 0.40706 0.36791
 H539 H 0.01972 0.42576 0.41855
 H540 H 0.16061 0.50218 0.42949
 H541 H 0.16672 0.47089 0.37298
 H542 H 0.02610 0.38942 0.36572
 H543 H 0.12096 0.51362 0.47315
 H544 H 0.06645 0.38077 0.31976
 C545 C 0.57310 0.59085 0.38873
 C546 C 0.54782 0.58620 0.41802
 C547 C 0.53610 0.61348 0.42242
 C548 C 0.54831 0.64420 0.39723
 C549 C 0.57351 0.64854 0.36766
 C550 C 0.58612 0.62197 0.36395
 C551 C 0.58466 0.67867 0.34172
 C552 C 0.56988 0.70364 0.34428
 C553 C 0.54513 0.69917 0.37402
 C554 C 0.53474 0.66998 0.40048
 H555 H 0.51634 0.61009 0.44467
 H556 H 0.60537 0.62478 0.34142
 H557 H 0.60379 0.68202 0.31883
 H558 H 0.51530 0.66695 0.42291
 H559 H 0.58257 0.57026 0.38480
 H560 H 0.53319 0.71790 0.37626
 C561 C 0.37510 0.88255 0.46689
 C562 C 0.40076 0.92148 0.45946
 C563 C 0.39457 0.93852 0.42738
 C564 C 0.36440 0.91673 0.40245
 C565 C 0.34050 0.87720 0.40911
 C566 C 0.34562 0.86058 0.44174
 C567 C 0.31242 0.85475 0.38260
 C568 C 0.30711 0.87142 0.34990
 C569 C 0.32950 0.91117 0.34470
 C570 C 0.35822 0.93357 0.37049
 H571 H 0.41350 0.96858 0.42138
 H572 H 0.32720 0.83040 0.44751
 H573 H 0.29530 0.82412 0.38690
 H574 H 0.37590 0.96395 0.36518
 H575 H 0.37868 0.86844 0.49136
 H576 H 0.32543 0.92469 0.32002
 C577 C 0.51503 0.89735 0.04872
 C578 C 0.53334 0.93737 0.05262
 C579 C 0.56210 0.95537 0.08002
 C580 C 0.57153 0.93342 0.10399
 C581 C 0.55164 0.89309 0.10073
 C582 C 0.52394 0.87543 0.07264
 C583 C 0.55890 0.87093 0.12630
 C584 C 0.58614 0.88841 0.15499
 C585 C 0.60717 0.92856 0.15698
 C586 C 0.59976 0.95091 0.13182
 H587 H 0.57659 0.98621 0.08312
 H588 H 0.50863 0.84457 0.06963
 H589 H 0.54247 0.83997 0.12471
 H590 H 0.61557 0.98177 0.13458
 H591 H 0.49275 0.88272 0.02792
 H592 H 0.62849 0.94250 0.17879
 C593 C 0.40151 0.43690 0.08982
 C594 C 0.40690 0.46430 0.06222
 C595 C 0.38199 0.47912 0.06110
 C596 C 0.35302 0.46788 0.08800
 C597 C 0.34821 0.44075 0.11599
 C598 C 0.37226 0.42503 0.11631
 C599 C 0.32009 0.43059 0.14373
 C600 C 0.29737 0.44791 0.14429
 C601 C 0.30208 0.47446 0.11608
 C602 C 0.32950 0.48420 0.08802
 H603 H 0.38596 0.50046 0.04015
 H604 H 0.36898 0.40419 0.13753
 H605 H 0.31643 0.40999 0.16542
 H606 H 0.33284 0.50508 0.06682
 H607 H 0.42026 0.42499 0.09126
 H608 H 0.28486 0.48813 0.11619
 C609 C 0.01770 0.58910 0.10674
 C610 C 0.03810 0.58457 0.07710
 C611 C 0.07782 0.60788 0.07598
 C612 C 0.09711 0.63494 0.10436
 C613 C 0.07645 0.63974 0.13390
 C614 C 0.03669 0.61679 0.13470
 C615 C 0.09601 0.66708 0.16221
 C616 C 0.13595 0.68895 0.16168
 C617 C 0.15608 0.68328 0.13253
 C618 C 0.13686 0.65682 0.10394
 H619 H 0.09390 0.60416 0.05360
 H620 H 0.02036 0.61990 0.15720
 H621 H 0.08035 0.67130 0.18468
 H622 H 0.15311 0.65322 0.08168
 H623 H -0.01293 0.57129 0.10820
 H624 H 0.18686 0.69954 0.13191
 C625 C 0.42541 0.01140 0.61066
 C626 C 0.45220 0.03009 0.58186
 C627 C 0.46808 0.06982 0.57730
 C628 C 0.45851 0.09086 0.60201
 C629 C 0.43183 0.07188 0.63114
 C630 C 0.41503 0.03207 0.63487
 C631 C 0.42333 0.09321 0.65669
 C632 C 0.44213 0.13335 0.65419
 C633 C 0.46828 0.15181 0.62487
 C634 C 0.47614 0.13075 0.59880
 H635 H 0.48906 0.08466 0.55545
 H636 H 0.39457 0.01704 0.65705
 H637 H 0.40306 0.07883 0.67921
 H638 H 0.49675 0.14575 0.57672
 H639 H 0.41274 -0.01918 0.61471
 H640 H 0.48321 0.18272 0.62264
 C641 C 0.61389 0.50573 0.53993
 C642 C 0.59362 0.52542 0.54456
 C643 C 0.60402 0.55227 0.57396
 C644 C 0.63360 0.55855 0.59900
 C645 C 0.65267 0.53740 0.59482
 C646 C 0.64297 0.51152 0.56489
 C647 C 0.68053 0.54181 0.62110
 C648 C 0.69013 0.56755 0.65132
 C649 C 0.67213 0.58958 0.65444
 C650 C 0.64394 0.58496 0.62865
 H651 H 0.58876 0.56776 0.57773
 H652 H 0.65744 0.49525 0.56115
 H653 H 0.69414 0.52457 0.61864
 H654 H 0.62989 0.60165 0.63219
 H655 H 0.60647 0.48481 0.51762
 H656 H 0.67936 0.60975 0.67744
 C657 C 0.98558 0.40161 0.59847
 C658 C 0.96326 0.40996 0.57406
 C659 C 0.92365 0.38569 0.57361
 C660 C 0.90629 0.35445 0.59831
 C661 C 0.92884 0.34618 0.62287
 C662 C 0.96855 0.36962 0.62229
 C663 C 0.91113 0.31577 0.64873
 C664 C 0.87125 0.29547 0.65209
 C665 C 0.84929 0.30352 0.62685
 C666 C 0.86660 0.33231 0.59984
 H667 H 0.90611 0.39210 0.55519
 H668 H 0.98632 0.36389 0.64102
 H669 H 0.92825 0.30937 0.66775
 H670 H 0.84892 0.33831 0.58123
 H671 H 1.01619 0.41986 0.59914
 H672 H 0.81856 0.28825 0.62889
   
