data_POSCAR
  _audit_creation_date              2014-09-24
  _audit_creation_method            'ToBaCCo'
  _symmetry_space_group_name_H-M    'P1'
  _symmetry_Int_Tables_number       1
  _symmetry_cell_setting            triclinic
  loop_
  _symmetry_equiv_pos_as_xyz
 x,y,z
_cell_length_a 29.8697
_cell_length_b 29.9511
_cell_length_c 29.6123
_cell_angle_alpha 90.804700
_cell_angle_beta 91.344300
_cell_angle_gamma 92.797300
loop_
  _atom_site_label
  _atom_site_type_symbol
  _atom_site_fract_x
  _atom_site_fract_y
  _atom_site_fract_z
C1 C -0.07015 0.51298 0.26114
 C2 C -0.02782 0.52538 0.24480
 C3 C -0.01877 0.56937 0.23064
 C4 C -0.05175 0.60157 0.23285
 C5 C -0.09366 0.58834 0.25087
 C6 C -0.10342 0.54429 0.26527
 C7 C 0.00727 0.49215 0.24446
 C8 C -0.00199 0.44976 0.22463
 C9 C 0.02990 0.41686 0.22634
 C10 C 0.07142 0.42688 0.24853
 C11 C 0.08101 0.46896 0.26908
 C12 C 0.04884 0.50160 0.26651
 H13 H -0.07571 0.47936 0.27353
 H14 H 0.01451 0.57831 0.21902
 H15 H -0.03401 0.44263 0.20741
 H16 H 0.05572 0.53404 0.28254
 H17 H -0.12046 0.61130 0.25010
 H18 H 0.09571 0.40129 0.25135
 C19 C -0.04901 0.48888 0.73096
 C20 C -0.00761 0.47868 0.75035
 C21 C -0.00053 0.43477 0.76385
 C22 C -0.03498 0.40065 0.75912
 C23 C -0.07615 0.41205 0.73880
 C24 C -0.08330 0.45573 0.72468
 C25 C 0.02750 0.51478 0.75790
 C26 C 0.01752 0.55293 0.78285
 C27 C 0.04873 0.58956 0.78834
 C28 C 0.09096 0.58651 0.76798
 C29 C 0.10181 0.54815 0.74294
 C30 C 0.06958 0.51236 0.73836
 H31 H -0.05423 0.52270 0.72014
 H32 H 0.03217 0.42776 0.77769
 H33 H -0.01589 0.55443 0.79602
 H34 H 0.07627 0.48322 0.71802
 H35 H -0.10431 0.38800 0.73640
 H36 H 0.11638 0.61315 0.77323
 C37 C 0.27240 -0.07498 0.51369
 C38 C 0.25591 -0.03335 0.52480
 C39 C 0.23625 -0.02673 0.56659
 C40 C 0.23261 -0.06183 0.59732
 C41 C 0.24987 -0.10314 0.58610
 C42 C 0.26932 -0.11066 0.54402
 C43 C 0.25589 0.00182 0.49073
 C44 C 0.23398 -0.00702 0.44913
 C45 C 0.23365 0.02526 0.41503
 C46 C 0.25683 0.06689 0.42410
 C47 C 0.27870 0.07625 0.46605
 C48 C 0.27757 0.04350 0.49944
 H49 H 0.28558 -0.07966 0.48029
 H50 H 0.22203 0.00505 0.57412
 H51 H 0.21536 -0.03875 0.44495
 H52 H 0.29381 0.05014 0.53211
 H53 H 0.24958 -0.12893 0.61132
 H54 H 0.26009 0.09158 0.39794
 C55 C 0.72737 -0.04977 0.48154
 C56 C 0.74490 -0.00605 0.47500
 C57 C 0.76253 0.00563 0.43298
 C58 C 0.76270 -0.02614 0.39763
 C59 C 0.74471 -0.06969 0.40470
 C60 C 0.72659 -0.08241 0.44659
 C61 C 0.74330 0.02739 0.51227
 C62 C 0.76160 0.01827 0.55521
 C63 C 0.75611 0.04733 0.59248
 C64 C 0.73209 0.08606 0.58515
 C65 C 0.71356 0.09569 0.54255
 C66 C 0.71984 0.06639 0.50606
 H67 H 0.71525 -0.05806 0.51466
 H68 H 0.77589 0.03941 0.42781
 H69 H 0.77826 -0.01273 0.55957
 H70 H 0.70469 0.07273 0.47332
 H71 H 0.74390 -0.09307 0.37652
 H72 H 0.72936 0.11038 0.61218
 C73 C 0.50778 0.26384 1.06063
 C74 C 0.49940 0.25121 1.01533
 C75 C 0.45718 0.23252 1.00186
 C76 C 0.42338 0.22470 1.03359
 C77 C 0.43248 0.23815 1.07887
 C78 C 0.47420 0.25780 1.09256
 C79 C 0.53560 0.25456 0.98237
 C80 C 0.57544 0.23313 0.99080
 C81 C 0.60990 0.23366 0.95903
 C82 C 0.60378 0.25806 0.91900
 C83 C 0.56361 0.27937 0.91001
 C84 C 0.52958 0.27715 0.94184
 H85 H 0.54045 0.27833 1.07095
 H86 H 0.45229 0.22121 0.96713
 H87 H 0.57935 0.21645 1.02275
 H88 H 0.49860 0.29365 0.93553
 H89 H 0.40628 0.23575 1.10349
 H90 H 0.62877 0.25813 0.89312
 C91 C 0.50311 0.73670 1.06447
 C92 C 0.50970 0.75760 1.02296
 C93 C 0.55103 0.77996 1.01423
 C94 C 0.58573 0.78310 1.04754
 C95 C 0.57828 0.76114 1.08876
 C96 C 0.53784 0.73728 1.09708
 C97 C 0.47390 0.75409 0.98778
 C98 C 0.43345 0.77520 0.99372
 C99 C 0.39934 0.77268 0.95972
 C100 C 0.40622 0.74609 0.92088
 C101 C 0.44609 0.72389 0.91536
 C102 C 0.48019 0.72889 0.94854
 H103 H 0.47175 0.71820 1.07039
 H104 H 0.55488 0.79641 0.98214
 H105 H 0.43019 0.79560 1.02382
 H106 H 0.51113 0.71191 0.94462
 H107 H 0.60479 0.76051 1.11423
 H108 H 0.38015 0.74137 0.89502
 B109 B 1.00732 1.04914 0.02548
 B110 B 1.03240 1.00197 0.04489
 B111 B 0.97474 1.00420 0.04357
 B112 B 0.95908 1.03179 -0.00440
 B113 B 1.00675 1.04797 -0.03269
 B114 B 1.05285 1.02872 -0.00242
 B115 B 0.99943 0.95446 -0.03244
 B116 B 0.97439 1.00163 -0.05125
 B117 B 1.03237 1.00001 -0.04958
 B118 B 1.04818 0.97154 -0.00156
 B119 B 0.99994 0.95573 0.02636
 B120 B 0.95481 0.97367 -0.00423
 B121 B 0.54519 0.50096 0.47269
 B122 B 0.54661 0.49969 0.53063
 B123 B 0.53000 0.54790 0.50311
 B124 B 0.49937 0.53045 0.45529
 B125 B 0.49612 0.47248 0.45330
 B126 B 0.52472 0.45378 0.50006
 B127 B 0.45249 0.50050 0.53068
 B128 B 0.45131 0.50138 0.47204
 B129 B 0.46728 0.45416 0.49977
 B130 B 0.49800 0.47132 0.54787
 B131 B 0.50149 0.52871 0.55023
 B132 B 0.47201 0.54751 0.50248
 C133 C 0.97732 1.35002 0.20906
 C134 C 0.96821 1.30775 0.18907
 C135 C 1.00125 1.28684 0.16489
 C136 C 1.04371 1.30884 0.16105
 C137 C 1.05284 1.35088 0.18102
 C138 C 1.01982 1.37202 0.20527
 N139 N 0.99145 1.24360 0.14433
 N140 N 1.02116 1.22509 0.12150
 C141 C 1.01553 1.18230 0.09949
 C142 C 1.05129 1.16774 0.07528
 C143 C 1.04847 1.12663 0.05300
 C144 C 1.00992 1.09752 0.05372
 C145 C 0.97362 1.11309 0.07875
 C146 C 0.97630 1.15483 0.10134
 H147 H 0.95132 1.36524 0.22797
 H148 H 0.93541 1.29127 0.19244
 H149 H 1.06996 1.29365 0.14249
 H150 H 1.08565 1.36715 0.17695
 H151 H 1.08203 1.18838 0.07395
 H152 H 1.07860 1.11749 0.03723
 H153 H 0.94208 1.09422 0.07986
 H154 H 0.94777 1.16563 0.11974
 C155 C 0.93247 0.68193 0.23322
 C156 C 0.93745 0.72443 0.21454
 C157 C 0.96583 0.73211 0.17840
 C158 C 0.99074 0.69695 0.16214
 C159 C 0.98620 0.65442 0.18098
 C160 C 0.95603 0.64563 0.21625
 N161 N 0.96777 0.77533 0.15804
 N162 N 0.98981 0.78294 0.12248
 C163 C 0.99174 0.82545 0.10081
 C164 C 1.01559 0.82981 0.06125
 C165 C 1.01801 0.87034 0.03872
 C166 C 0.99630 0.90835 0.05429
 C167 C 0.97339 0.90344 0.09542
 C168 C 0.97072 0.86264 0.11809
 H169 H 0.91068 0.67816 0.26172
 H170 H 0.91856 0.75140 0.22789
 H171 H 1.01308 0.70206 0.13421
 H172 H 1.00452 0.62809 0.16573
 H173 H 1.03244 0.80156 0.04764
 H174 H 1.03730 0.87147 0.00837
 H175 H 0.95945 0.93145 0.11204
 H176 H 0.95290 0.86048 0.14946
 C177 C 0.94408 1.31952 -0.24122
 C178 C 0.94673 1.27731 -0.22206
 C179 C 0.97595 1.27075 -0.18559
 C180 C 1.00365 1.30686 -0.16912
 C181 C 1.00107 1.34920 -0.18805
 C182 C 0.97047 1.35682 -0.22400
 N183 N 0.97595 1.22769 -0.16496
 N184 N 1.00287 1.21981 -0.13243
 C185 C 1.00304 1.17777 -0.11001
 C186 C 1.03540 1.17188 -0.07661
 C187 C 1.03603 1.13211 -0.05283
 C188 C 1.00538 1.09553 -0.06157
 C189 C 0.97123 1.10368 -0.09428
 C190 C 0.97046 1.14346 -0.11863
 H191 H 0.92175 1.32220 -0.27021
 H192 H 0.92564 1.24960 -0.23556
 H193 H 1.02654 1.30272 -0.14076
 H194 H 1.02142 1.37614 -0.17226
 H195 H 1.06028 1.19852 -0.06858
 H196 H 1.06165 1.13134 -0.02810
 H197 H 0.94226 1.08197 -0.09908
 H198 H 0.94340 1.14793 -0.14287
 C199 C 1.00562 0.62618 -0.15242
 C200 C 0.99259 0.66474 -0.13006
 C201 C 1.00973 0.70688 -0.14245
 C202 C 1.04150 0.70993 -0.17668
 C203 C 1.05538 0.67138 -0.19852
 C204 C 1.03709 0.62862 -0.18747
 N205 N 0.99539 0.74597 -0.11931
 N206 N 1.00243 0.78476 -0.13547
 C207 C 0.99154 0.82523 -0.11271
 C208 C 1.00089 0.86559 -0.13382
 C209 C 0.99833 0.90581 -0.11001
 C210 C 0.99065 0.90741 -0.06326
 C211 C 0.97085 0.86718 -0.04628
 C212 C 0.97349 0.82614 -0.06949
 H213 H 0.99188 0.59437 -0.14090
 H214 H 0.96872 0.66176 -0.10317
 H215 H 1.05566 0.74217 -0.18663
 H216 H 1.07876 0.67571 -0.22565
 H217 H 1.01173 0.86594 -0.16848
 H218 H 1.00516 0.93499 -0.12878
 H219 H 0.95386 0.86658 -0.01465
 H220 H 0.96218 0.79550 -0.05344
 C221 C 1.20132 0.97175 0.35714
 C222 C 1.17687 0.96293 0.31696
 C223 C 1.16115 0.99793 0.29149
 C224 C 1.16997 1.04216 0.30673
 C225 C 1.19403 1.05117 0.34700
 C226 C 1.21020 1.01616 0.37332
 N227 N 1.13719 0.98820 0.24983
 N228 N 1.12847 1.01957 0.22309
 C229 C 1.10516 1.01286 0.18080
 C230 C 1.10507 1.04825 0.15143
 C231 C 1.08384 1.04338 0.10942
 C232 C 1.06087 1.00344 0.09419
 C233 C 1.06112 0.96801 0.12547
 C234 C 1.08324 0.97229 0.16776
 H235 H 1.21445 0.94339 0.37427
 H236 H 1.17084 0.92871 0.30522
 H237 H 1.15779 1.06993 0.28778
 H238 H 1.19795 1.08572 0.35803
 H239 H 1.12260 1.07970 0.16067
 H240 H 1.08872 1.07078 0.08832
 H241 H 1.04530 0.93628 0.11868
 H242 H 1.08283 0.94409 0.19024
 C243 C 1.18276 0.90788 -0.34258
 C244 C 1.16177 0.91209 -0.30141
 C245 C 1.16616 0.95220 -0.27689
 C246 C 1.19221 0.98833 -0.29362
 C247 C 1.21397 0.98394 -0.33454
 C248 C 1.20949 0.94358 -0.35942
 N249 N 1.14341 0.95534 -0.23532
 N250 N 1.13818 0.99254 -0.21553
 C251 C 1.11496 0.99446 -0.17410
 C252 C 1.09766 1.03455 -0.16048
 C253 C 1.07174 1.03641 -0.12205
 C254 C 1.06348 0.99859 -0.09474
 C255 C 1.08235 0.95858 -0.10921
 C256 C 1.10738 0.95636 -0.14812
 H257 H 1.17768 0.87672 -0.36140
 H258 H 1.14144 0.88424 -0.28883
 H259 H 1.19613 1.01962 -0.27487
 H260 H 1.23473 1.01182 -0.34635
 H261 H 1.10248 1.06405 -0.18089
 H262 H 1.05609 1.06718 -0.11645
 H263 H 1.07835 0.92834 -0.09002
 H264 H 1.12079 0.92479 -0.15784
 C265 C 0.75825 0.97259 0.31282
 C266 C 0.77769 0.97958 0.27082
 C267 C 0.82104 0.99912 0.26803
 C268 C 0.84423 1.01325 0.30804
 C269 C 0.82458 1.00669 0.35017
 C270 C 0.78173 0.98543 0.35302
 N271 N 0.84119 1.00224 0.22452
 N272 N 0.88202 1.01521 0.21965
 C273 C 0.90257 1.01660 0.17627
 C274 C 0.94832 1.02694 0.17396
 C275 C 0.96987 1.02535 0.13261
 C276 C 0.94741 1.01115 0.09177
 C277 C 0.90021 1.00678 0.09467
 C278 C 0.87822 1.00787 0.13596
 H279 H 0.72500 0.95658 0.31395
 H280 H 0.75935 0.96864 0.24034
 H281 H 0.87776 1.02855 0.30683
 H282 H 0.84352 1.01668 0.38058
 H283 H 0.96746 1.03668 0.20433
 H284 H 1.00339 1.03874 0.13354
 H285 H 0.87921 1.00056 0.06578
 H286 H 0.84221 1.00165 0.13622
 C287 C 0.75366 1.05395 -0.32432
 C288 C 0.77253 1.04722 -0.28144
 C289 C 0.81260 1.02549 -0.27663
 C290 C 0.83270 1.00864 -0.31535
 C291 C 0.81345 1.01446 -0.35830
 C292 C 0.77409 1.03833 -0.36382
 N293 N 0.83305 1.02233 -0.23252
 N294 N 0.87387 1.01269 -0.22768
 C295 C 0.89634 1.00972 -0.18463
 C296 C 0.94249 1.00717 -0.18366
 C297 C 0.96614 1.00457 -0.14280
 C298 C 0.94523 1.00247 -0.10043
 C299 C 0.89799 1.00601 -0.10276
 C300 C 0.87388 1.00945 -0.14376
 H301 H 0.72229 1.07051 -0.32604
 H302 H 0.75633 1.05988 -0.25188
 H303 H 0.86368 0.99146 -0.31250
 H304 H 0.83117 1.00240 -0.38711
 H305 H 0.96056 1.00777 -0.21497
 H306 H 1.00086 1.00349 -0.14664
 H307 H 0.87849 1.00426 -0.07348
 H308 H 0.83779 1.01129 -0.14341
 C309 C 1.36318 1.20611 -0.02329
 C310 C 1.32177 1.18465 -0.03499
 C311 C 1.29858 1.15892 -0.00334
 C312 C 1.31698 1.15511 0.04037
 C313 C 1.35775 1.17685 0.05235
 C314 C 1.38175 1.20295 0.02088
 N315 N 1.25608 1.13741 -0.01537
 N316 N 1.23839 1.10880 0.01095
 C317 C 1.19521 1.08735 0.00343
 C318 C 1.18112 1.05490 0.03345
 C319 C 1.13790 1.03578 0.02998
 C320 C 1.10557 1.04996 -0.00193
 C321 C 1.12290 1.07913 -0.03510
 C322 C 1.16645 1.09857 -0.03200
 H323 H 1.37943 1.22661 -0.04848
 H324 H 1.30772 1.18814 -0.06873
 H325 H 1.29979 1.13532 0.06556
 H326 H 1.37105 1.17140 0.08602
 H327 H 1.20384 1.04415 0.05973
 H328 H 1.13136 1.00840 0.05211
 H329 H 1.10368 1.08827 -0.06366
 H330 H 1.17735 1.12255 -0.05698
 C331 C 0.64662 1.16965 -0.00759
 C332 C 0.68443 1.14486 -0.00061
 C333 C 0.72556 1.15904 -0.01809
 C334 C 0.72857 1.19827 -0.04344
 C335 C 0.69053 1.22279 -0.05136
 C336 C 0.64877 1.20914 -0.03327
 N337 N 0.76328 1.13220 -0.01073
 N338 N 0.80328 1.14650 -0.01772
 C339 C 0.84039 1.11850 -0.01176
 C340 C 0.88381 1.13750 -0.01189
 C341 C 0.92056 1.11066 -0.00801
 C342 C 0.91546 1.06349 -0.00532
 C343 C 0.87100 1.04544 -0.00392
 C344 C 0.83414 1.07223 -0.00702
 H345 H 0.61531 1.15628 0.00549
 H346 H 0.68162 1.11429 0.01845
 H347 H 0.76017 1.20974 -0.05745
 H348 H 0.69456 1.25330 -0.07028
 H349 H 0.88928 1.17334 -0.01493
 H350 H 0.95296 1.12792 -0.00709
 H351 H 0.86355 1.01009 -0.00272
 H352 H 0.80074 1.05648 -0.00703
 C353 C 1.33680 0.81162 -0.07511
 C354 C 1.29820 0.83570 -0.07153
 C355 C 1.28055 0.84482 -0.02938
 C356 C 1.30247 0.83014 0.00971
 C357 C 1.34183 0.80677 0.00638
 C358 C 1.35962 0.79662 -0.03624
 N359 N 1.24091 0.86974 -0.02766
 N360 N 1.21725 0.87277 0.00736
 C361 C 1.17814 0.89873 0.00684
 C362 C 1.14628 0.89299 0.04009
 C363 C 1.10688 0.91654 0.03828
 C364 C 1.09625 0.94481 0.00204
 C365 C 1.13276 0.95488 -0.02655
 C366 C 1.17176 0.93114 -0.02575
 H367 H 1.34964 0.80678 -0.10859
 H368 H 1.28187 0.84737 -0.10189
 H369 H 1.28937 0.83697 0.04274
 H370 H 1.35707 0.79524 0.03732
 H371 H 1.15179 0.87013 0.06745
 H372 H 1.08547 0.91203 0.06605
 H373 H 1.13338 0.98314 -0.04836
 H374 H 1.19760 0.93931 -0.04974
 C375 C 0.65292 0.82544 0.07721
 C376 C 0.69525 0.84564 0.07125
 C377 C 0.71363 0.84795 0.02850
 C378 C 0.68842 0.83106 -0.00908
 C379 C 0.64551 0.81091 -0.00333
 C380 C 0.62742 0.80659 0.04027
 N381 N 0.75808 0.86742 0.02529
 N382 N 0.77978 0.87096 -0.01108
 C383 C 0.82441 0.89117 -0.00975
 C384 C 0.84679 0.90056 -0.04958
 C385 C 0.88877 0.92379 -0.04794
 C386 C 0.90847 0.94085 -0.00676
 C387 C 0.88807 0.92479 0.03249
 C388 C 0.84649 0.90176 0.03144
 H389 H 0.64003 0.82582 0.11104
 H390 H 0.71411 0.85941 0.10033
 H391 H 0.70209 0.83277 -0.04259
 H392 H 0.62794 0.79665 -0.03288
 H393 H 0.83176 0.89013 -0.08188
 H394 H 0.90575 0.92719 -0.07937
 H395 H 0.90285 0.93063 0.06494
 H396 H 0.83150 0.89263 0.06316
 C397 C 0.83555 0.48807 0.28010
 C398 C 0.79469 0.47626 0.29998
 C399 C 0.77271 0.50762 0.32553
 C400 C 0.79109 0.55153 0.32965
 C401 C 0.83119 0.56377 0.30897
 C402 C 0.85466 0.53214 0.28428
 N403 N 0.73203 0.49468 0.34752
 N404 N 0.72029 0.51647 0.38207
 C405 C 0.67919 0.50754 0.40468
 C406 C 0.67372 0.52806 0.44628
 C407 C 0.63270 0.52443 0.46743
 C408 C 0.59455 0.50092 0.44765
 C409 C 0.60191 0.47880 0.40614
 C410 C 0.64337 0.48195 0.38493
 H411 H 0.85123 0.46282 0.26026
 H412 H 0.78056 0.44239 0.29614
 H413 H 0.77447 0.57647 0.34907
 H414 H 0.84471 0.59763 0.31456
 H415 H 0.70110 0.54821 0.46193
 H416 H 0.63085 0.54318 0.49853
 H417 H 0.57611 0.46024 0.38813
 H418 H 0.64682 0.46579 0.35235
 C419 C 0.12342 0.49718 0.33869
 C420 C 0.16323 0.50339 0.36432
 C421 C 0.20401 0.49104 0.34678
 C422 C 0.20458 0.47237 0.30297
 C423 C 0.16468 0.46560 0.27751
 C424 C 0.12367 0.47785 0.29516
 N425 N 0.24396 0.49662 0.37454
 N426 N 0.28281 0.49141 0.35907
 C427 C 0.32263 0.49566 0.38713
 C428 C 0.36427 0.49648 0.36714
 C429 C 0.40362 0.49977 0.39368
 C430 C 0.40369 0.50220 0.44143
 C431 C 0.36056 0.50059 0.46053
 C432 C 0.32098 0.49801 0.43419
 H433 H 0.09224 0.50642 0.35334
 H434 H 0.16228 0.51762 0.39808
 H435 H 0.23567 0.46240 0.28871
 H436 H 0.16582 0.45082 0.24399
 H437 H 0.36638 0.49500 0.33069
 H438 H 0.43369 0.50255 0.37562
 H439 H 0.35568 0.50029 0.49571
 H440 H 0.28906 0.49678 0.45083
 C441 C 0.85162 0.50551 0.71714
 C442 C 0.80988 0.51506 0.69813
 C443 C 0.78896 0.48625 0.66560
 C444 C 0.81032 0.44756 0.65224
 C445 C 0.85181 0.43784 0.67138
 C446 C 0.87289 0.46665 0.70407
 N447 N 0.74608 0.49657 0.64678
 N448 N 0.72748 0.47267 0.61511
 C449 C 0.68453 0.48108 0.59550
 C450 C 0.66888 0.45492 0.55902
 C451 C 0.62710 0.46162 0.53913
 C452 C 0.59742 0.49358 0.55556
 C453 C 0.61577 0.52083 0.59149
 C454 C 0.65798 0.51465 0.61147
 H455 H 0.86691 0.52806 0.74260
 H456 H 0.79376 0.54492 0.70881
 H457 H 0.79492 0.42469 0.62714
 H458 H 0.86765 0.40793 0.66036
 H459 H 0.68978 0.42993 0.54489
 H460 H 0.62118 0.44375 0.50798
 H461 H 0.59725 0.54471 0.60766
 H462 H 0.66935 0.53564 0.63995
 C463 C 0.16770 0.58454 0.70296
 C464 C 0.20857 0.58223 0.68102
 C465 C 0.22858 0.54130 0.67534
 C466 C 0.20757 0.50254 0.69293
 C467 C 0.16702 0.50488 0.71557
 C468 C 0.14618 0.54587 0.72056
 N469 N 0.26983 0.54012 0.65141
 N470 N 0.28587 0.50378 0.63775
 C471 C 0.32707 0.50305 0.61366
 C472 C 0.33773 0.46413 0.59072
 C473 C 0.37643 0.46306 0.56498
 C474 C 0.40689 0.50059 0.56191
 C475 C 0.39556 0.53928 0.58652
 C476 C 0.35649 0.54071 0.61154
 H477 H 0.15258 0.61658 0.70520
 H478 H 0.22430 0.61238 0.66755
 H479 H 0.22257 0.47054 0.68942
 H480 H 0.15219 0.47450 0.72939
 H481 H 0.31508 0.43480 0.59146
 H482 H 0.38022 0.43314 0.54573
 H483 H 0.41677 0.56950 0.58605
 H484 H 0.34933 0.57139 0.62911
 C485 C 0.56910 0.68525 0.15346
 C486 C 0.56673 0.66206 0.19383
 C487 C 0.52887 0.66389 0.22042
 C488 C 0.49264 0.68874 0.20581
 C489 C 0.49497 0.71212 0.16519
 C490 C 0.53355 0.71103 0.13896
 N491 N 0.52870 0.64032 0.26206
 N492 N 0.49578 0.63906 0.28856
 C493 C 0.49769 0.61473 0.32983
 C494 C 0.45951 0.60930 0.35556
 C495 C 0.46014 0.58356 0.39455
 C496 C 0.49910 0.56240 0.40984
 C497 C 0.53738 0.56945 0.38324
 C498 C 0.53686 0.59492 0.34422
 H499 H 0.59885 0.68301 0.13349
 H500 H 0.59465 0.64272 0.20463
 H501 H 0.46294 0.69046 0.22589
 H502 H 0.46718 0.73181 0.15479
 H503 H 0.42885 0.62447 0.34506
 H504 H 0.42929 0.58088 0.41253
 H505 H 0.56723 0.55240 0.38933
 H506 H 0.56699 0.59799 0.32465
 C507 C 0.41746 0.66376 0.86087
 C508 C 0.42259 0.63679 0.82262
 C509 C 0.46176 0.64085 0.79772
 C510 C 0.49635 0.67174 0.81205
 C511 C 0.49146 0.69839 0.85058
 C512 C 0.45178 0.69496 0.87510
 N513 N 0.46507 0.61436 0.75738
 N514 N 0.49713 0.62090 0.73035
 C515 C 0.50042 0.59568 0.68927
 C516 C 0.53149 0.60992 0.65787
 C517 C 0.53333 0.58815 0.61607
 C518 C 0.50329 0.55227 0.60243
 C519 C 0.47633 0.53516 0.63790
 C520 C 0.47363 0.55710 0.67971
 H521 H 0.38678 0.66008 0.87953
 H522 H 0.39573 0.61311 0.81195
 H523 H 0.52701 0.67547 0.79339
 H524 H 0.51830 0.72230 0.86074
 H525 H 0.55454 0.63816 0.66573
 H526 H 0.56089 0.59904 0.59624
 H527 H 0.45556 0.50506 0.63400
 H528 H 0.45062 0.54378 0.70443
 C529 C 0.46564 0.24828 0.17612
 C530 C 0.46754 0.26596 0.22016
 C531 C 0.48458 0.30970 0.22845
 C532 C 0.50185 0.33485 0.19241
 C533 C 0.50031 0.31713 0.14856
 C534 C 0.48125 0.27407 0.13980
 N535 N 0.48240 0.32889 0.27293
 N536 N 0.49014 0.37068 0.27892
 C537 C 0.48894 0.39334 0.32158
 C538 C 0.49784 0.43909 0.32235
 C539 C 0.49944 0.46294 0.36288
 C540 C 0.49184 0.44285 0.40504
 C541 C 0.48229 0.39584 0.40310
 C542 C 0.48077 0.37146 0.36218
 H543 H 0.45119 0.21477 0.17027
 H544 H 0.45439 0.24611 0.24758
 H545 H 0.51563 0.36865 0.19792
 H546 H 0.51224 0.33783 0.12123
 H547 H 0.50450 0.45649 0.29119
 H548 H 0.50770 0.49727 0.35982
 H549 H 0.47973 0.37627 0.43297
 H550 H 0.47462 0.33555 0.36255
 C551 C 0.59146 0.33138 0.85011
 C552 C 0.58493 0.35458 0.81009
 C553 C 0.54397 0.35012 0.78614
 C554 C 0.50929 0.32200 0.80264
 C555 C 0.51569 0.29889 0.84285
 C556 C 0.55686 0.30339 0.86704
 N557 N 0.53880 0.37479 0.74545
 N558 N 0.50367 0.37174 0.72015
 C559 C 0.50066 0.39753 0.67983
 C560 C 0.46404 0.39077 0.65000
 C561 C 0.46194 0.41462 0.60963
 C562 C 0.49706 0.44479 0.59668
 C563 C 0.53122 0.45371 0.62980
 C564 C 0.53373 0.43020 0.66987
 H565 H 0.62332 0.33588 0.86822
 H566 H 0.61186 0.37626 0.79769
 H567 H 0.47737 0.31800 0.78462
 H568 H 0.48861 0.27715 0.85483
 H569 H 0.43718 0.36672 0.65779
 H570 H 0.43281 0.40803 0.58885
 H571 H 0.55524 0.48037 0.62667
 H572 H 0.56138 0.43819 0.69336
 C573 C 0.72151 0.83676 0.42724
 C574 C 0.70231 0.79379 0.43297
 C575 C 0.66898 0.78595 0.46456
 C576 C 0.65519 0.82173 0.49099
 C577 C 0.67433 0.86485 0.48546
 C578 C 0.70779 0.87351 0.45315
 N579 N 0.64925 0.74160 0.46825
 N580 N 0.61872 0.73145 0.49616
 C581 C 0.59891 0.68693 0.49828
 C582 C 0.56501 0.67746 0.52858
 C583 C 0.54404 0.63466 0.52958
 C584 C 0.55746 0.59829 0.50260
 C585 C 0.58920 0.61074 0.46978
 C586 C 0.61049 0.65324 0.46836
 H587 H 0.74827 0.84032 0.40341
 H588 H 0.71353 0.76634 0.41263
 H589 H 0.62913 0.81655 0.51544
 H590 H 0.66095 0.89144 0.50530
 H591 H 0.55340 0.70371 0.55023
 H592 H 0.51448 0.63136 0.54964
 H593 H 0.59750 0.58923 0.44313
 H594 H 0.63499 0.66002 0.44264
 C595 C 0.65822 0.14875 0.57159
 C596 C 0.63538 0.18815 0.56855
 C597 C 0.64014 0.21544 0.53094
 C598 C 0.66762 0.20246 0.49564
 C599 C 0.69089 0.16304 0.49878
 C600 C 0.68693 0.13607 0.53716
 N601 N 0.61778 0.25664 0.53048
 N602 N 0.61679 0.28193 0.49634
 C603 C 0.59499 0.32351 0.49789
 C604 C 0.58793 0.34672 0.45820
 C605 C 0.56634 0.38709 0.45899
 C606 C 0.54988 0.40559 0.49913
 C607 C 0.56078 0.38283 0.53927
 C608 C 0.58178 0.34221 0.53869
 H609 H 0.65359 0.12829 0.60113
 H610 H 0.61410 0.19768 0.59582
 H611 H 0.67186 0.22317 0.46624
 H612 H 0.71292 0.15435 0.47185
 H613 H 0.59922 0.33354 0.42641
 H614 H 0.56331 0.40323 0.42752
 H615 H 0.55433 0.39598 0.57186
 H616 H 0.58851 0.32596 0.57039
 C617 C 0.26536 0.80761 0.55118
 C618 C 0.28241 0.76606 0.54215
 C619 C 0.31960 0.76272 0.51501
 C620 C 0.33860 0.80114 0.49505
 C621 C 0.32131 0.84276 0.50349
 C622 C 0.28505 0.84695 0.53275
 N623 N 0.33924 0.72049 0.51080
 N624 N 0.37687 0.71656 0.49245
 C625 C 0.39758 0.67473 0.49074
 C626 C 0.44117 0.67331 0.47599
 C627 C 0.46344 0.63361 0.47812
 C628 C 0.44432 0.59428 0.49770
 C629 C 0.39805 0.59571 0.50572
 C630 C 0.37538 0.63523 0.50414
 H631 H 0.23607 0.80843 0.57195
 H632 H 0.26730 0.73645 0.55732
 H633 H 0.36754 0.79920 0.47389
 H634 H 0.33843 0.87171 0.48917
 H635 H 0.45799 0.70298 0.46265
 H636 H 0.49511 0.63416 0.46177
 H637 H 0.37800 0.56679 0.51292
 H638 H 0.34042 0.63471 0.51312
 C639 C 0.34480 0.12217 0.49846
 C640 C 0.36830 0.16322 0.50590
 C641 C 0.35114 0.20259 0.48942
 C642 C 0.30972 0.20061 0.46577
 C643 C 0.28606 0.15966 0.45855
 C644 C 0.30343 0.11991 0.47458
 N645 N 0.37655 0.24397 0.49652
 N646 N 0.36441 0.28004 0.47882
 C647 C 0.38937 0.32172 0.48515
 C648 C 0.37639 0.35841 0.46082
 C649 C 0.40056 0.39932 0.46509
 C650 C 0.43773 0.40606 0.49547
 C651 C 0.45100 0.36754 0.51834
 C652 C 0.42719 0.32632 0.51382
 H653 H 0.35943 0.09213 0.51070
 H654 H 0.40024 0.16431 0.52405
 H655 H 0.29560 0.23066 0.45291
 H656 H 0.25398 0.15916 0.44069
 H657 H 0.34820 0.35492 0.43714
 H658 H 0.39085 0.42358 0.44163
 H659 H 0.47945 0.36852 0.54071
 H660 H 0.43853 0.29812 0.53267
   
