data_POSCAR
  _audit_creation_date              2014-09-24
  _audit_creation_method            'ToBaCCo'
  _symmetry_space_group_name_H-M    'P1'
  _symmetry_Int_Tables_number       1
  _symmetry_cell_setting            triclinic
  loop_
  _symmetry_equiv_pos_as_xyz
 x,y,z
_cell_length_a 38.7008
_cell_length_b 37.9211
_cell_length_c 38.5677
_cell_angle_alpha 90.451500
_cell_angle_beta 88.359100
_cell_angle_gamma 90.053100
loop_
  _atom_site_label
  _atom_site_type_symbol
  _atom_site_fract_x
  _atom_site_fract_y
  _atom_site_fract_z
N1 N 0.22946 0.22484 0.22729
 N2 N 0.70840 0.71904 0.72438
 N3 N 0.28434 0.78005 0.71231
 N4 N 0.81793 0.30108 0.18423
 N5 N 0.79306 0.70082 0.28947
 N6 N 0.29618 0.19714 -0.20890
 N7 N 0.69204 0.32036 -0.19779
 N8 N 0.20432 0.80412 0.30114
 N9 N 0.45306 0.44899 0.44122
 N10 N -0.06124 -0.06302 0.94233
 N11 N 1.05733 0.54613 0.95928
 N12 N 0.53040 0.01935 0.49131
 N13 N -0.04166 0.04405 0.53896
 N14 N 0.48127 0.51935 0.01730
 N15 N 0.53304 -0.02679 0.04273
 N16 N 1.02614 0.47133 0.53841
 C17 C 0.44219 0.01967 0.22504
 H18 H 0.44563 0.04159 0.24273
 C19 C 0.46522 0.01483 0.19688
 H20 H 0.48641 0.03315 0.19284
 C21 C 0.41028 -0.03087 0.20865
 H22 H 0.38907 -0.04883 0.21340
 C23 C 0.43248 -0.03647 0.17997
 H24 H 0.42771 -0.05826 0.16243
 N25 N 0.41509 -0.00276 0.23012
 C26 C 0.33365 0.05653 0.28499
 H27 H 0.32873 0.03958 0.30702
 C28 C 0.31352 0.08662 0.28067
 H29 H 0.29306 0.09294 0.29944
 C30 C 0.36550 0.06840 0.23294
 H31 H 0.38536 0.06092 0.21408
 C32 C 0.34590 0.09868 0.22757
 H33 H 0.35096 0.11455 0.20476
 Zn34 Zn 0.38468 0.00632 0.26853
 N35 N 0.35934 0.04825 0.26151
 C36 C 0.40713 0.03714 0.33166
 N37 N 0.41166 0.01017 0.30851
 C38 C 0.43553 -0.01548 0.31342
 C39 C 0.45540 -0.01516 0.34305
 C40 C 0.42603 0.03813 0.36194
 C41 C 0.32929 -0.03689 0.24915
 C42 C 0.30413 -0.06306 0.25331
 C43 C 0.32584 -0.07499 0.31016
 C44 C 0.35092 -0.04901 0.30471
 N45 N 0.35225 -0.03064 0.27453
 H46 H 0.38855 0.05765 0.32703
 H47 H 0.43887 -0.03638 0.29438
 H48 H 0.47440 -0.03566 0.34665
 H49 H 0.42170 0.05931 0.38056
 H50 H 0.33055 -0.02148 0.22566
 H51 H 0.28632 -0.06821 0.23271
 H52 H 0.32484 -0.08922 0.33441
 H53 H 0.36892 -0.04320 0.32486
 C54 C 0.31983 0.10816 0.25181
 C55 C 0.46041 -0.01352 0.17395
 C56 C 0.30189 -0.08198 0.28440
 C57 C 0.45002 0.01137 0.36816
 C58 C 0.09392 -0.01825 0.67758
 H59 H 0.10979 -0.04163 0.67791
 C60 C 0.07349 -0.01196 0.64903
 H61 H 0.07399 -0.03035 0.62739
 C62 C 0.07208 0.03312 0.70593
 H63 H 0.07139 0.05026 0.72850
 C64 C 0.05132 0.04046 0.67786
 H65 H 0.03468 0.06342 0.67872
 N66 N 0.09320 0.00444 0.70512
 C67 C 0.14485 -0.07204 0.76118
 H68 H 0.12693 -0.07042 0.78314
 C69 C 0.16618 -0.10152 0.75710
 H70 H 0.16460 -0.12244 0.77603
 C71 C 0.17046 -0.04590 0.71105
 H72 H 0.17235 -0.02372 0.69362
 C73 C 0.19174 -0.07525 0.70556
 H74 H 0.20984 -0.07577 0.68362
 Zn75 Zn 0.11951 -0.00445 0.74485
 N76 N 0.14711 -0.04515 0.73809
 C77 C 0.06142 -0.03468 0.77570
 N78 N 0.08772 -0.01206 0.78240
 C79 C 0.09076 0.00307 0.81430
 C80 C 0.06767 -0.00586 0.84141
 C81 C 0.03732 -0.04358 0.80174
 C82 C 0.15317 0.06074 0.73083
 C83 C 0.17786 0.08707 0.73577
 C84 C 0.19566 0.05706 0.78729
 C85 C 0.17109 0.03097 0.78104
 N86 N 0.15017 0.03343 0.75342
 H87 H 0.05933 -0.04601 0.75001
 H88 H 0.11128 0.02161 0.81903
 H89 H 0.07084 0.00566 0.86690
 H90 H 0.01632 -0.06133 0.79582
 H91 H 0.13711 0.06173 0.70844
 H92 H 0.18028 0.10843 0.71738
 H93 H 0.21175 0.05506 0.80971
 H94 H 0.16894 0.00847 0.79803
 C95 C 0.18942 -0.10370 0.72855
 C96 C 0.05222 0.01793 0.64887
 C97 C 0.19975 0.08513 0.76405
 C98 C 0.04097 -0.03006 0.83540
 C99 C 0.57880 0.47266 0.18953
 H100 H 0.57453 0.45098 0.20721
 C101 C 0.55922 0.47525 0.15982
 H102 H 0.53960 0.45564 0.15473
 C103 C 0.60907 0.52513 0.17495
 H104 H 0.62832 0.54467 0.18107
 C105 C 0.59034 0.52850 0.14476
 H106 H 0.59539 0.55056 0.12766
 N107 N 0.60338 0.49722 0.19632
 C108 C 0.68448 0.44750 0.25473
 H109 H 0.68352 0.46268 0.27861
 C110 C 0.71036 0.42225 0.24907
 H111 H 0.72913 0.41763 0.26883
 C112 C 0.66194 0.43570 0.19929
 H113 H 0.64350 0.44147 0.17964
 C114 C 0.68749 0.41042 0.19251
 H115 H 0.68840 0.39669 0.16777
 Zn116 Zn 0.62925 0.49142 0.23673
 N117 N 0.66100 0.45380 0.22992
 C118 C 0.60165 0.45425 0.29526
 N119 N 0.59771 0.48244 0.27411
 C120 C 0.57031 0.50468 0.27832
 C121 C 0.54571 0.49926 0.30493
 C122 C 0.57774 0.44798 0.32235
 C123 C 0.68333 0.53900 0.22450
 C124 C 0.70411 0.56847 0.23015
 C125 C 0.66680 0.58442 0.27907
 C126 C 0.64690 0.55445 0.27270
 N127 N 0.65525 0.53265 0.24555
 H128 H 0.62321 0.43651 0.29115
 H129 H 0.56758 0.52664 0.26087
 H130 H 0.52401 0.51712 0.30812
 H131 H 0.58107 0.42555 0.33915
 H132 H 0.68972 0.52090 0.20346
 H133 H 0.72674 0.57291 0.21358
 H134 H 0.65990 0.60162 0.30073
 H135 H 0.62493 0.54863 0.28957
 C136 C 0.71241 0.40400 0.21731
 C137 C 0.56546 0.50306 0.13671
 C138 C 0.69563 0.59179 0.25748
 C139 C 0.54936 0.47057 0.32716
 C140 C 0.92695 0.53210 0.71225
 H141 H 0.93071 0.55554 0.72786
 C142 C 0.94600 0.52740 0.68129
 H143 H 0.96435 0.54741 0.67296
 C144 C 0.89854 0.47735 0.70421
 H145 H 0.88032 0.45773 0.71348
 C146 C 0.91746 0.47134 0.67332
 H147 H 0.91371 0.44707 0.65892
 N148 N 0.90323 0.50760 0.72269
 C149 C 0.83078 0.56647 0.78950
 H150 H 0.83054 0.54986 0.81218
 C151 C 0.80917 0.59587 0.78862
 H152 H 0.79218 0.60194 0.81066
 C153 C 0.85215 0.57799 0.73245
 H154 H 0.86812 0.57040 0.71024
 C155 C 0.83104 0.60769 0.73053
 H156 H 0.83093 0.62285 0.70685
 Zn157 Zn 0.87801 0.51631 0.76467
 N158 N 0.85176 0.55818 0.76172
 C159 C 0.91370 0.55231 0.81705
 N160 N 0.91023 0.52081 0.80037
 C161 C 0.93098 0.49298 0.80742
 C162 C 0.95594 0.49602 0.83274
 C163 C 0.93859 0.55662 0.84217
 C164 C 0.81943 0.47696 0.75132
 C165 C 0.79325 0.45215 0.75681
 C166 C 0.82216 0.43270 0.80796
 C167 C 0.84762 0.45825 0.80176
 N168 N 0.84590 0.47959 0.77365
 H169 H 0.89767 0.57442 0.81047
 H170 H 0.92815 0.46845 0.79328
 H171 H 0.97203 0.47359 0.83851
 H172 H 0.94130 0.58191 0.85506
 H173 H 0.81851 0.49453 0.72941
 H174 H 0.77222 0.45051 0.73894
 H175 H 0.82399 0.41550 0.83012
 H176 H 0.86844 0.46114 0.81958
 C177 C 0.80929 0.61683 0.75888
 C178 C 0.94095 0.49694 0.66119
 C179 C 0.79428 0.42991 0.78562
 C180 C 0.96023 0.52835 0.85000
 C181 C 0.19264 0.40123 0.01867
 H182 H 0.19409 0.38593 0.04208
 C183 C 0.16456 0.42374 0.01432
 H184 H 0.14463 0.42593 0.03452
 C185 C 0.21660 0.41752 -0.03617
 H186 H 0.23696 0.41481 -0.05582
 C187 C 0.18904 0.44030 -0.04156
 H188 H 0.18824 0.45531 -0.06531
 N189 N 0.21816 0.39884 -0.00626
 C190 C 0.25273 0.35872 0.07200
 H191 H 0.25764 0.38679 0.07322
 C192 C 0.24837 0.33947 0.10254
 H193 H 0.24981 0.35272 0.12744
 C194 C 0.24501 0.30701 0.03807
 H195 H 0.24369 0.29450 0.01287
 C196 C 0.24059 0.28678 0.06792
 H197 H 0.23608 0.25867 0.06565
 Zn198 Zn 0.25696 0.36910 -0.00015
 N199 N 0.25077 0.34232 0.04062
 C200 C 0.29835 0.43111 -0.00592
 N201 N 0.29771 0.39668 0.00389
 C202 C 0.32613 0.38113 0.01709
 C203 C 0.35702 0.39993 0.01965
 C204 C 0.32875 0.45075 -0.00404
 C205 C 0.23548 0.33416 -0.06109
 C206 C 0.23897 0.31167 -0.08981
 C207 C 0.29626 0.29651 -0.07159
 C208 C 0.29174 0.31935 -0.04328
 N209 N 0.26190 0.33800 -0.03878
 H210 H 0.27551 0.44350 -0.01546
 H211 H 0.32479 0.35409 0.02572
 H212 H 0.37963 0.38725 0.02980
 H213 H 0.32917 0.47794 -0.01245
 H214 H 0.21154 0.34829 -0.05655
 H215 H 0.21792 0.30892 -0.10755
 H216 H 0.32023 0.28203 -0.07513
 H217 H 0.31213 0.32217 -0.02496
 C218 C 0.24184 0.30316 0.10056
 C219 C 0.16267 0.44349 -0.01612
 C220 C 0.26983 0.29296 -0.09538
 C221 C 0.35849 0.43493 0.00848
 C222 C 0.69352 0.08451 -0.02826
 H223 H 0.70604 0.08427 -0.05370
 C224 C 0.66366 0.06459 -0.02214
 H225 H 0.65326 0.04876 -0.04288
 C226 C 0.69264 0.10439 0.03022
 H227 H 0.70444 0.11933 0.05070
 C228 C 0.66259 0.08501 0.03740
 H229 H 0.65117 0.08539 0.06337
 N230 N 0.70730 0.10393 -0.00227
 C231 C 0.76393 0.17048 -0.07413
 H232 H 0.79023 0.16138 -0.07258
 C233 C 0.75535 0.19358 -0.10062
 H234 H 0.77478 0.19988 -0.12035
 C235 C 0.70762 0.17523 -0.04918
 H236 H 0.68910 0.16819 -0.02888
 C237 C 0.69890 0.20056 -0.07344
 H238 H 0.67409 0.21355 -0.07065
 Zn239 Zn 0.74860 0.12850 -0.01345
 N240 N 0.73954 0.16024 -0.05015
 C241 C 0.79669 0.08847 -0.05732
 N242 N 0.78208 0.09307 -0.02506
 C243 C 0.78916 0.07043 0.00100
 C244 C 0.81253 0.04277 -0.00447
 C245 C 0.82121 0.06201 -0.06355
 C246 C 0.74021 0.18135 0.03707
 C247 C 0.74972 0.20457 0.06335
 C248 C 0.80544 0.17599 0.06433
 C249 C 0.79488 0.15325 0.03791
 N250 N 0.76273 0.15637 0.02478
 H251 H 0.78906 0.10455 -0.07862
 H252 H 0.77647 0.07388 0.02616
 H253 H 0.81773 0.02501 0.01660
 H254 H 0.83367 0.05980 -0.08897
 H255 H 0.71492 0.18354 0.02614
 H256 H 0.73172 0.22462 0.07261
 H257 H 0.83126 0.17376 0.07421
 H258 H 0.81273 0.13382 0.02733
 C259 C 0.72223 0.20887 -0.10080
 C260 C 0.64770 0.06500 0.01095
 C261 C 0.78285 0.20231 0.07683
 C262 C 0.82896 0.03830 -0.03712
 C263 C 0.19851 0.57002 0.47906
 H264 H 0.21297 0.56840 0.45467
 C265 C 0.16881 0.54953 0.48425
 H266 H 0.16024 0.53214 0.46381
 C267 C 0.19175 0.59476 0.53550
 H268 H 0.20098 0.61189 0.55569
 C269 C 0.16185 0.57492 0.54169
 H270 H 0.14791 0.57728 0.56635
 N271 N 0.20891 0.59270 0.50422
 C272 C 0.26503 0.67569 0.44869
 H273 H 0.28914 0.67538 0.46220
 C274 C 0.25969 0.70069 0.42301
 H275 H 0.27972 0.71971 0.41659
 C276 C 0.20890 0.65212 0.44129
 H277 H 0.18885 0.63376 0.44904
 C278 C 0.20257 0.67654 0.41532
 H279 H 0.17780 0.67671 0.40294
 Zn280 Zn 0.24832 0.62115 0.49442
 N281 N 0.23981 0.65205 0.45730
 C282 C 0.30048 0.59051 0.45050
 N283 N 0.28558 0.59054 0.48289
 C284 C 0.29565 0.56736 0.50736
 C285 C 0.32213 0.54328 0.49986
 C286 C 0.32673 0.56649 0.44174
 C287 C 0.23334 0.67284 0.54429
 C288 C 0.23787 0.69356 0.57384
 C289 C 0.29491 0.66860 0.57890
 C290 C 0.28909 0.64790 0.54949
 N291 N 0.25831 0.64974 0.53337
 H292 H 0.29164 0.60865 0.43121
 H293 H 0.28305 0.56765 0.53277
 H294 H 0.33027 0.52532 0.51973
 H295 H 0.33817 0.56646 0.41578
 H296 H 0.20949 0.67445 0.53044
 H297 H 0.21736 0.71107 0.58284
 H298 H 0.31939 0.66684 0.59170
 H299 H 0.30914 0.63041 0.53966
 C300 C 0.22808 0.70125 0.40626
 C301 C 0.14997 0.55245 0.51566
 C302 C 0.26866 0.69097 0.59191
 C303 C 0.33752 0.54225 0.46648
 C304 C 0.68402 0.88143 0.50350
 H305 H 0.68308 0.85329 0.50755
 C306 C 0.65326 0.90056 0.50306
 H307 H 0.62870 0.88700 0.50589
 C308 C 0.71687 0.93382 0.49684
 H309 H 0.74150 0.94704 0.49541
 C310 C 0.68671 0.95395 0.49611
 H311 H 0.68840 0.98233 0.49356
 N312 N 0.71507 0.89808 0.49983
 C313 C 0.74257 0.80524 0.53755
 H314 H 0.74197 0.79348 0.51202
 C315 C 0.73591 0.78427 0.56654
 H316 H 0.72940 0.75676 0.56281
 C317 C 0.74844 0.85577 0.57335
 H318 H 0.75224 0.88395 0.57572
 C319 C 0.74399 0.83537 0.60312
 H320 H 0.74510 0.84798 0.62835
 Zn321 Zn 0.75521 0.86932 0.50189
 N322 N 0.74881 0.84033 0.54139
 C323 C 0.81662 0.89375 0.53367
 N324 N 0.79568 0.89765 0.50617
 C325 C 0.80301 0.92191 0.48116
 C326 C 0.83037 0.94553 0.48490
 C327 C 0.84435 0.91670 0.53833
 C328 C 0.73314 0.82174 0.44924
 C329 C 0.73785 0.79830 0.42140
 C330 C 0.79786 0.81561 0.41729
 C331 C 0.79216 0.83833 0.44550
 N332 N 0.76028 0.84072 0.46121
 H333 H 0.81175 0.87317 0.55232
 H334 H 0.78689 0.92359 0.45878
 H335 H 0.83513 0.96571 0.46563
 H336 H 0.86011 0.91421 0.56095
 H337 H 0.70803 0.82380 0.46189
 H338 H 0.71627 0.78264 0.41277
 H339 H 0.82342 0.81378 0.40521
 H340 H 0.81354 0.85332 0.45536
 C341 C 0.73793 0.79896 0.59998
 C342 C 0.65456 0.93722 0.49937
 C343 C 0.77072 0.79451 0.40566
 C344 C 0.85068 0.94351 0.51428
 C345 C -0.04017 0.21279 0.41717
 H346 H -0.05929 0.23316 0.41444
 C347 C -0.04686 0.18503 0.43997
 H348 H -0.07070 0.18462 0.45538
 C349 C 0.01352 0.18739 0.39977
 H350 H 0.03678 0.18786 0.38375
 C351 C 0.00778 0.15904 0.42209
 H352 H 0.02691 0.13831 0.42357
 N353 N -0.00972 0.21431 0.39867
 C354 C 0.04391 0.25274 0.31153
 H355 H 0.02056 0.25811 0.29782
 C356 C 0.07525 0.24958 0.29294
 H357 H 0.07594 0.25225 0.26499
 C358 C 0.07215 0.24371 0.36451
 H359 H 0.07076 0.24201 0.39250
 C360 C 0.10397 0.24009 0.34690
 H361 H 0.12714 0.23538 0.36126
 Zn362 Zn 0.00008 0.25528 0.37177
 N363 N 0.04284 0.24964 0.34669
 C364 C 0.03264 0.31544 0.40055
 N365 N 0.00323 0.29564 0.40154
 C366 C -0.02368 0.30425 0.42354
 C367 C -0.02096 0.33255 0.44671
 C368 C 0.03642 0.34393 0.42326
 C369 C -0.04468 0.23386 0.31969
 C370 C -0.06915 0.23809 0.29411
 C371 C -0.07557 0.29911 0.31179
 C372 C -0.05088 0.29378 0.33691
 N373 N -0.03573 0.26165 0.34011
 H374 H 0.05335 0.30928 0.38219
 H375 H -0.04739 0.28940 0.42314
 H376 H -0.04239 0.33892 0.46433
 H377 H 0.06015 0.35910 0.42256
 H378 H -0.03213 0.20864 0.32277
 H379 H -0.07560 0.21609 0.27743
 H380 H -0.08698 0.32495 0.30889
 H381 H -0.04316 0.31556 0.35320
 C382 C 0.10558 0.24320 0.31078
 C383 C -0.02224 0.15834 0.44312
 C384 C -0.08441 0.27119 0.28977
 C385 C 0.00965 0.35221 0.44710
 C386 C -0.00298 0.71193 0.07130
 H387 H -0.02428 0.72963 0.06699
 C388 C 0.00387 0.68442 0.04786
 H389 H -0.01252 0.68058 0.02585
 C390 C 0.04536 0.69609 0.10419
 H391 H 0.06194 0.70096 0.12570
 C392 C 0.05303 0.66816 0.08145
 H393 H 0.07526 0.65159 0.08577
 N394 N 0.01751 0.71714 0.09900
 C395 C -0.03281 0.75669 0.19092
 H396 H -0.01118 0.77111 0.20107
 C397 C -0.06100 0.74871 0.21284
 H398 H -0.06080 0.75663 0.23988
 C399 C -0.05997 0.72930 0.14342
 H400 H -0.05959 0.72187 0.11637
 C401 C -0.08872 0.72083 0.16444
 H402 H -0.11034 0.70693 0.15347
 Zn403 Zn 0.00729 0.75626 0.12870
 N404 N -0.03248 0.74642 0.15701
 C405 C -0.02959 0.81623 0.10748
 N406 N -0.00161 0.79545 0.10039
 C407 C 0.01848 0.80010 0.07126
 C408 C 0.00950 0.82521 0.04682
 C409 C -0.03918 0.84204 0.08398
 C410 C 0.05243 0.74094 0.18193
 C411 C 0.07958 0.74635 0.20435
 C412 C 0.09071 0.80256 0.17707
 C413 C 0.06334 0.79602 0.15500
 N414 N 0.04501 0.76547 0.15769
 H415 H -0.04511 0.81206 0.13085
 H416 H 0.04055 0.78312 0.06628
 H417 H 0.02473 0.82759 0.02295
 H418 H -0.06204 0.85783 0.08936
 H419 H 0.03706 0.71716 0.18389
 H420 H 0.08529 0.72657 0.22347
 H421 H 0.10508 0.82700 0.17496
 H422 H 0.05667 0.81536 0.13588
 C423 C -0.08904 0.73006 0.19968
 C424 C 0.03228 0.66238 0.05283
 C425 C 0.09920 0.77731 0.20182
 C426 C -0.02028 0.84568 0.05262
 C427 C 0.49654 0.21008 0.56919
 H428 H 0.47817 0.22953 0.56087
 C429 C 0.49989 0.17813 0.55131
 H430 H 0.48436 0.17306 0.52889
 C431 C 0.53813 0.19222 0.60955
 H432 H 0.55223 0.19764 0.63280
 C433 C 0.54217 0.15978 0.59249
 H434 H 0.55965 0.14026 0.60244
 N435 N 0.51518 0.21626 0.59796
 C436 C 0.45032 0.27293 0.67325
 H437 H 0.46178 0.29896 0.67354
 C438 C 0.42244 0.26526 0.69573
 H439 H 0.41218 0.28551 0.71310
 C440 C 0.45033 0.21435 0.65130
 H441 H 0.46151 0.19434 0.63437
 C442 C 0.42255 0.20554 0.67344
 H443 H 0.41250 0.17888 0.67338
 Zn444 Zn 0.50451 0.25698 0.62428
 N445 N 0.46399 0.24745 0.65190
 C446 C 0.46584 0.31223 0.59402
 N447 N 0.49649 0.29456 0.59306
 C448 C 0.52136 0.30193 0.56849
 C449 C 0.51634 0.32858 0.54437
 C450 C 0.45979 0.33912 0.57044
 C451 C 0.53607 0.26752 0.68883
 C452 C 0.56224 0.27681 0.71124
 C453 C 0.60085 0.28494 0.66166
 C454 C 0.57378 0.27566 0.64007
 N455 N 0.54186 0.26793 0.65384
 H456 H 0.44573 0.30525 0.61263
 H457 H 0.54481 0.28656 0.56701
 H458 H 0.53630 0.33415 0.52492
 H459 H 0.43527 0.35289 0.57136
 H460 H 0.51116 0.26004 0.69962
 H461 H 0.55708 0.27706 0.73900
 H462 H 0.62596 0.29168 0.65049
 H463 H 0.57837 0.27469 0.61237
 C464 C 0.40888 0.23098 0.69646
 C465 C 0.52218 0.15227 0.56361
 C466 C 0.59482 0.28617 0.69760
 C467 C 0.48540 0.34772 0.54552
 C468 C 0.48050 0.71532 0.94426
 H469 H 0.48229 0.74031 0.95769
 C470 C 0.47897 0.68417 0.96340
 H471 H 0.48002 0.68525 0.99142
 C472 C 0.47735 0.68289 0.89165
 H473 H 0.47713 0.68255 0.86360
 C474 C 0.47592 0.65120 0.90972
 H475 H 0.47462 0.62644 0.89562
 N476 N 0.48086 0.71409 0.90894
 C477 C 0.54214 0.77859 0.83637
 H478 H 0.52937 0.80379 0.83901
 C479 C 0.57119 0.77528 0.81420
 H480 H 0.58025 0.79770 0.79927
 C481 C 0.54732 0.71903 0.85351
 H482 H 0.53886 0.69729 0.86939
 C483 C 0.57622 0.71451 0.83151
 H484 H 0.58925 0.68924 0.83020
 Zn485 Zn 0.48849 0.75561 0.88208
 N486 N 0.53008 0.75036 0.85470
 C487 C 0.52058 0.79528 0.93379
 N488 N 0.49396 0.79541 0.91152
 C489 C 0.47254 0.82371 0.90954
 C490 C 0.47748 0.85331 0.93061
 C491 C 0.52571 0.82384 0.95616
 C492 C 0.42298 0.73987 0.85410
 C493 C 0.39623 0.74261 0.83072
 C494 C 0.42518 0.79286 0.80514
 C495 C 0.45164 0.78885 0.82863
 N496 N 0.45051 0.76228 0.85219
 H497 H 0.53763 0.77271 0.93442
 H498 H 0.45173 0.82355 0.89149
 H499 H 0.46079 0.87600 0.92805
 H500 H 0.54659 0.82300 0.97423
 H501 H 0.42169 0.71963 0.87359
 H502 H 0.37488 0.72414 0.83210
 H503 H 0.42641 0.81420 0.78663
 H504 H 0.47298 0.80713 0.82804
 C505 C 0.58792 0.74267 0.81116
 C506 C 0.47764 0.65174 0.94591
 C507 C 0.39759 0.76888 0.80538
 C508 C 0.50375 0.85322 0.95499
 C509 C 0.15289 0.20663 0.28586
 C510 C 0.18329 0.20219 0.26618
 C511 C 0.20079 0.23125 0.25161
 C512 C 0.18847 0.26576 0.25962
 C513 C 0.15705 0.27015 0.27903
 C514 C 0.13900 0.24023 0.29163
 C515 C 0.14496 0.30457 0.28577
 N516 N 0.16374 0.33266 0.27460
 N517 N 0.19383 0.32862 0.25744
 C518 C 0.20692 0.29623 0.24982
 H519 H 0.13949 0.18355 0.29580
 H520 H 0.19234 0.17564 0.26085
 H521 H 0.12102 0.30940 0.30017
 H522 H 0.23208 0.29480 0.23723
 C523 C 0.64980 0.75131 0.79624
 C524 C 0.67921 0.74512 0.77544
 C525 C 0.67718 0.72556 0.74462
 C526 C 0.64495 0.71206 0.73445
 C527 C 0.61502 0.71824 0.75561
 C528 C 0.61770 0.73775 0.78689
 C529 C 0.58332 0.70453 0.74470
 N530 N 0.58209 0.68550 0.71482
 N531 N 0.61036 0.67926 0.69523
 C532 C 0.64177 0.69181 0.70407
 H533 H 0.65219 0.76616 0.82017
 H534 H 0.70387 0.75551 0.78335
 H535 H 0.55955 0.70884 0.75956
 H536 H 0.66391 0.68567 0.68739
 C537 C 0.33568 0.77599 0.79271
 C538 C 0.30845 0.77951 0.77023
 C539 C 0.31417 0.77911 0.73416
 C540 C 0.34863 0.77668 0.72064
 C541 C 0.37626 0.77157 0.74354
 C542 C 0.36968 0.77183 0.77994
 C543 C 0.40963 0.76599 0.72906
 N544 N 0.41521 0.76817 0.69429
 N545 N 0.38971 0.77546 0.67306
 C546 C 0.35674 0.78002 0.68505
 H547 H 0.33015 0.77648 0.82041
 H548 H 0.28238 0.78170 0.78100
 H549 H 0.43133 0.75979 0.74492
 H550 H 0.33757 0.78709 0.66668
 C551 C -0.14363 0.28214 0.27014
 C552 C -0.16730 0.28944 0.24465
 C553 C -0.15669 0.29240 0.20968
 C554 C -0.12122 0.28762 0.20039
 C555 C -0.09718 0.27976 0.22635
 C556 C -0.10863 0.27717 0.26146
 C557 C -0.06213 0.27585 0.21639
 N558 N -0.05199 0.27976 0.18271
 N559 N -0.07444 0.28762 0.15843
 C560 C -0.10859 0.29189 0.16613
 H561 H -0.15266 0.28043 0.29692
 H562 H -0.19423 0.29289 0.25228
 H563 H -0.04263 0.27006 0.23504
 H564 H -0.12524 0.29924 0.14548
 C565 C -0.13827 0.74809 0.23778
 C566 C -0.16650 0.74102 0.25970
 C567 C -0.17635 0.70625 0.26751
 C568 C -0.15596 0.67796 0.25365
 C569 C -0.12730 0.68529 0.23092
 C570 C -0.11876 0.72068 0.22279
 C571 C -0.10730 0.65686 0.21798
 N572 N -0.11538 0.62344 0.22735
 N573 N -0.14178 0.61657 0.24910
 C574 C -0.16209 0.64259 0.26274
 H575 H -0.13182 0.77529 0.23208
 H576 H -0.18140 0.76303 0.27007
 H577 H -0.08501 0.66084 0.20094
 H578 H -0.18196 0.63517 0.28130
 C579 C 0.34940 0.21008 0.70959
 C580 C 0.32235 0.20117 0.73245
 C581 C 0.32616 0.20339 0.76849
 C582 C 0.35903 0.21245 0.78153
 C583 C 0.38651 0.22179 0.75819
 C584 C 0.38126 0.22127 0.72197
 C585 C 0.41886 0.23016 0.77192
 N586 N 0.42330 0.22896 0.80661
 N587 N 0.39776 0.21949 0.82843
 C588 C 0.36599 0.21092 0.81708
 H589 H 0.34522 0.20890 0.68195
 H590 H 0.29771 0.19377 0.72194
 H591 H 0.44088 0.23701 0.75548
 H592 H 0.34709 0.20176 0.83592
 C593 C 0.64907 0.27509 0.72825
 C594 C 0.67242 0.28316 0.75402
 C595 C 0.66915 0.31436 0.77367
 C596 C 0.64261 0.33864 0.76594
 C597 C 0.61911 0.33055 0.73949
 C598 C 0.62190 0.29807 0.72129
 C599 C 0.59309 0.35514 0.73241
 N600 N 0.59039 0.38535 0.75130
 N601 N 0.61181 0.39250 0.77682
 C602 C 0.63764 0.37013 0.78489
 H603 H 0.65146 0.25016 0.71448
 H604 H 0.69273 0.26454 0.75941
 H605 H 0.57496 0.35068 0.71201
 H606 H 0.65363 0.37712 0.80624
 C607 C 0.11952 0.78463 0.26156
 C608 C 0.14503 0.79052 0.28559
 C609 C 0.17951 0.79597 0.27490
 C610 C 0.18875 0.79293 0.23910
 C611 C 0.16265 0.78712 0.21451
 C612 C 0.12769 0.78355 0.22596
 C613 C 0.17267 0.78372 0.17928
 N614 N 0.20653 0.78579 0.16954
 N615 N 0.23104 0.79055 0.19263
 C616 C 0.22335 0.79389 0.22702
 H617 H 0.09301 0.78135 0.27079
 H618 H 0.13774 0.79198 0.31289
 H619 H 0.15408 0.77881 0.15944
 H620 H 0.24448 0.79611 0.24443
 C621 C 0.27743 0.13989 0.21695
 C622 C 0.25551 0.16812 0.21090
 C623 C 0.25374 0.19698 0.23376
 C624 C 0.27530 0.19784 0.26278
 C625 C 0.29755 0.16902 0.26909
 C626 C 0.29818 0.13963 0.24612
 C627 C 0.31908 0.17106 0.29781
 N628 N 0.31809 0.19999 0.31871
 N629 N 0.29727 0.22707 0.31268
 C630 C 0.27597 0.22705 0.28537
 H631 H 0.27773 0.11770 0.19907
 H632 H 0.23919 0.16724 0.18856
 H633 H 0.33697 0.15019 0.30362
 H634 H 0.26020 0.25005 0.28135
 C635 C 0.74904 0.63781 0.75798
 C636 C 0.72433 0.66283 0.75003
 C637 C 0.73416 0.69679 0.73951
 C638 C 0.76938 0.70679 0.74099
 C639 C 0.79464 0.68116 0.74868
 C640 C 0.78431 0.64606 0.75588
 C641 C 0.82946 0.69170 0.74929
 N642 N 0.83811 0.72576 0.74296
 N643 N 0.81431 0.74994 0.73628
 C644 C 0.78025 0.74166 0.73525
 H645 H 0.74065 0.61119 0.76385
 H646 H 0.69746 0.65490 0.74958
 H647 H 0.84977 0.67336 0.75530
 H648 H 0.76201 0.76254 0.73071
 C649 C 0.76107 0.37880 0.76442
 C650 C 0.73624 0.35247 0.76813
 C651 C 0.71638 0.34927 0.79891
 C652 C 0.72149 0.37364 0.82635
 C653 C 0.74651 0.40085 0.82242
 C654 C 0.76688 0.40297 0.79130
 C655 C 0.74952 0.42559 0.84956
 N656 N 0.72950 0.42253 0.87882
 N657 N 0.70643 0.39669 0.88265
 C658 C 0.70166 0.37224 0.85741
 H659 H 0.77632 0.37999 0.74045
 H660 H 0.73297 0.33387 0.74704
 H661 H 0.76718 0.44761 0.84769
 H662 H 0.68198 0.35237 0.86162
 C663 C 0.28637 -0.14374 0.29761
 C664 C 0.26284 -0.17114 0.30211
 C665 C 0.22728 -0.16572 0.29837
 C666 C 0.21520 -0.13100 0.29213
 C667 C 0.23928 -0.10292 0.28785
 C668 C 0.27523 -0.10969 0.28980
 C669 C 0.22641 -0.06864 0.28307
 N670 N 0.19187 -0.06305 0.28229
 N671 N 0.16932 -0.08927 0.28651
 C672 C 0.17976 -0.12288 0.29165
 H673 H 0.31369 -0.14933 0.29964
 H674 H 0.27259 -0.19726 0.30731
 H675 H 0.24332 -0.04606 0.28065
 H676 H 0.16012 -0.14245 0.29651
 C677 C 0.24821 -0.12887 0.72081
 C678 C 0.27128 -0.15693 0.71761
 C679 C 0.25948 -0.19185 0.71774
 C680 C 0.22351 -0.19852 0.72149
 C681 C 0.19986 -0.16993 0.72319
 C682 C 0.21247 -0.13476 0.72371
 C683 C 0.16427 -0.17769 0.72376
 N684 N 0.15338 -0.21165 0.72505
 N685 N 0.17564 -0.23837 0.72561
 C686 C 0.21027 -0.23295 0.72403
 H687 H 0.25840 -0.10226 0.72123
 H688 H 0.29866 -0.15141 0.71467
 H689 H 0.14495 -0.15719 0.72289
 H690 H 0.22699 -0.25559 0.72524
 C691 C 0.73197 0.34342 0.20294
 C692 C 0.75735 0.31850 0.19468
 C693 C 0.79239 0.32795 0.19263
 C694 C 0.80186 0.36354 0.19891
 C695 C 0.77597 0.38899 0.20724
 C696 C 0.74075 0.37862 0.20954
 C697 C 0.78622 0.42432 0.21180
 N698 N 0.82009 0.43323 0.20869
 N699 N 0.84434 0.40935 0.20093
 C700 C 0.83638 0.37493 0.19575
 H701 H 0.70517 0.33512 0.20435
 H702 H 0.74964 0.29145 0.19012
 H703 H 0.76772 0.44506 0.21732
 H704 H 0.85706 0.35710 0.18847
 C705 C 0.73232 0.62481 0.29787
 C706 C 0.75562 0.65140 0.30575
 C707 C 0.76608 0.67617 0.28079
 C708 C 0.75021 0.67588 0.24809
 C709 C 0.72629 0.64878 0.24006
 C710 C 0.71815 0.62244 0.26493
 C711 C 0.71046 0.64965 0.20768
 N712 N 0.71821 0.67586 0.18504
 N713 N 0.74036 0.70144 0.19274
 C714 C 0.75640 0.70248 0.22352
 H715 H 0.72611 0.60521 0.31738
 H716 H 0.76698 0.65170 0.33108
 H717 H 0.69150 0.63024 0.20038
 H718 H 0.77295 0.72465 0.22873
 C719 C 0.21509 0.14804 0.77194
 C720 C 0.23825 0.17511 0.77892
 C721 C 0.27318 0.16798 0.78437
 C722 C 0.28496 0.13260 0.78258
 C723 C 0.26165 0.10511 0.77414
 C724 C 0.22616 0.11289 0.76973
 C725 C 0.27490 0.07074 0.76995
 N726 N 0.30860 0.06419 0.77607
 N727 N 0.32996 0.08966 0.78591
 C728 C 0.31928 0.12356 0.78952
 H729 H 0.18815 0.15457 0.76862
 H730 H 0.22887 0.20200 0.78008
 H731 H 0.25897 0.04905 0.76158
 H732 H 0.33766 0.14289 0.79812
 C733 C 0.26507 0.27957 0.15467
 C734 C 0.26244 0.25969 0.18480
 C735 C 0.23168 0.24215 0.19402
 C736 C 0.20365 0.24299 0.17110
 C737 C 0.20605 0.26393 0.14079
 C738 C 0.23715 0.28219 0.13255
 C739 C 0.17697 0.26606 0.11983
 N740 N 0.14829 0.24686 0.12773
 N741 N 0.14676 0.22571 0.15512
 C742 C 0.17349 0.22296 0.17690
 H743 H 0.28914 0.29308 0.14853
 H744 H 0.28420 0.25885 0.20182
 H745 H 0.17668 0.28281 0.09729
 H746 H 0.17108 0.20453 0.19795
 C747 C 0.70915 0.79025 0.65764
 C748 C 0.70128 0.77078 0.68721
 C749 C 0.71405 0.73645 0.69119
 C750 C 0.73445 0.72135 0.66356
 C751 C 0.74553 0.74262 0.63519
 C752 C 0.73156 0.77700 0.63145
 C753 C 0.77066 0.72869 0.61179
 N754 N 0.78037 0.69448 0.61407
 N755 N 0.76685 0.67339 0.63830
 C756 C 0.74399 0.68555 0.66284
 H757 H 0.69768 0.81614 0.65538
 H758 H 0.68540 0.78302 0.70746
 H759 H 0.78292 0.74461 0.59186
 H760 H 0.73302 0.66685 0.68090
 C761 C 0.75662 0.77149 0.34748
 C762 C 0.76190 0.74877 0.31930
 C763 C 0.78759 0.72285 0.31971
 C764 C 0.80751 0.71885 0.34956
 C765 C 0.80176 0.74147 0.37859
 C766 C 0.77662 0.76865 0.37708
 C767 C 0.82082 0.73538 0.40851
 N768 N 0.84456 0.70911 0.40869
 N769 N 0.85030 0.68830 0.38116
 C770 C 0.83251 0.69220 0.35166
 H771 H 0.73712 0.79185 0.34598
 H772 H 0.74641 0.75180 0.29657
 H773 H 0.81676 0.75078 0.43195
 H774 H 0.83776 0.67416 0.33040
 C775 C 0.27589 0.23308 -0.12035
 C776 C 0.28131 0.20977 -0.14801
 C777 C 0.28624 0.22217 -0.18194
 C778 C 0.28263 0.25876 -0.18836
 C779 C 0.27760 0.28258 -0.16012
 C780 C 0.27451 0.26947 -0.12588
 C781 C 0.27613 0.31888 -0.16716
 N782 N 0.27779 0.33022 -0.20042
 N783 N 0.28079 0.30772 -0.22701
 C784 C 0.28306 0.27244 -0.22212
 H785 H 0.27318 0.22270 -0.09432
 H786 H 0.28334 0.18183 -0.14283
 H787 H 0.27358 0.33836 -0.14663
 H788 H 0.28423 0.25553 -0.24470
 C789 C 0.73861 0.26031 -0.13762
 C790 C 0.73143 0.28723 -0.16057
 C791 C 0.69786 0.29264 -0.17253
 C792 C 0.67118 0.26936 -0.16064
 C793 C 0.67963 0.23911 -0.14102
 C794 C 0.71327 0.23568 -0.12747
 C795 C 0.65393 0.21321 -0.13599
 N796 N 0.62103 0.21963 -0.14528
 N797 N 0.61223 0.25002 -0.15957
 C798 C 0.63606 0.27521 -0.16718
 H799 H 0.76442 0.25903 -0.12762
 H800 H 0.75259 0.30418 -0.16870
 H801 H 0.65964 0.18783 -0.12500
 H802 H 0.62707 0.29970 -0.17758
 C803 C 0.22408 0.71930 0.34507
 C804 C 0.21810 0.74420 0.31955
 C805 C 0.20890 0.77891 0.32849
 C806 C 0.20490 0.78845 0.36397
 C807 C 0.21138 0.76324 0.38994
 C808 C 0.22119 0.72851 0.38024
 C809 C 0.20727 0.77355 0.42492
 N810 N 0.19695 0.80682 0.43311
 N811 N 0.19033 0.83033 0.40871
 C812 C 0.19379 0.82224 0.37447
 H813 H 0.23137 0.69274 0.33736
 H814 H 0.22116 0.73656 0.29252
 H815 H 0.21192 0.75543 0.44580
 H816 H 0.18734 0.84213 0.35592
 C817 C 0.26974 0.74886 0.62166
 C818 C 0.27305 0.77031 0.65075
 C819 C 0.28056 0.75607 0.68315
 C820 C 0.28336 0.71884 0.68628
 C821 C 0.27971 0.69689 0.65654
 C822 C 0.27333 0.71224 0.62389
 C823 C 0.28111 0.66009 0.66084
 N824 N 0.28615 0.64637 0.69263
 N825 N 0.28933 0.66689 0.72050
 C826 C 0.28782 0.70251 0.71848
 H827 H 0.26449 0.76102 0.59703
 H828 H 0.27051 0.79856 0.64785
 H829 H 0.27760 0.64197 0.63949
 H830 H 0.28900 0.71738 0.74229
 C831 C 0.79965 0.21676 0.13682
 C832 C 0.80816 0.24063 0.16291
 C833 C 0.81153 0.27677 0.15597
 C834 C 0.80742 0.28872 0.12156
 C835 C 0.79853 0.26447 0.09508
 C836 C 0.79406 0.22831 0.10305
 C837 C 0.79510 0.27720 0.06117
 N838 N 0.80031 0.31186 0.05445
 N839 N 0.80898 0.33455 0.07923
 C840 C 0.81287 0.32416 0.11244
 H841 H 0.79650 0.18915 0.14321
 H842 H 0.81123 0.23099 0.18899
 H843 H 0.78881 0.25991 0.03984
 H844 H 0.82095 0.34357 0.13110
 C845 C 0.47844 0.36570 0.48468
 C846 C 0.47089 0.39030 0.45942
 C847 C 0.46354 0.42547 0.46835
 C848 C 0.46661 0.43654 0.50338
 C849 C 0.47392 0.41135 0.52922
 C850 C 0.47917 0.37553 0.51971
 C851 C 0.47686 0.42312 0.56369
 N852 N 0.47314 0.45784 0.57153
 N853 N 0.46710 0.48157 0.54720
 C854 C 0.46400 0.47217 0.51344
 H855 H 0.48287 0.33852 0.47692
 H856 H 0.46942 0.38163 0.43268
 H857 H 0.48269 0.40523 0.58440
 H858 H 0.46065 0.49282 0.49486
 C859 C -0.01097 0.89655 0.01345
 C860 C -0.02078 0.91862 -0.01326
 C861 C -0.05257 0.91410 -0.02929
 C862 C -0.07493 0.88654 -0.01794
 C863 C -0.06476 0.86376 0.00897
 C864 C -0.03261 0.86917 0.02500
 C865 C -0.08666 0.83536 0.01795
 N866 N -0.11690 0.83077 0.00164
 N867 N -0.12653 0.85230 -0.02337
 C868 C -0.10654 0.87981 -0.03382
 H869 H 0.01380 0.90082 0.02520
 H870 H -0.00342 0.93952 -0.02156
 H871 H -0.07993 0.81636 0.03733
 H872 H -0.11532 0.89551 -0.05488
 C873 C 0.03673 0.59867 0.03947
 C874 C 0.04293 0.57042 0.01686
 C875 C 0.05313 0.57614 -0.01777
 C876 C 0.05828 0.61109 -0.02954
 C877 C 0.05175 0.63988 -0.00662
 C878 C 0.04042 0.63346 0.02802
 C879 C 0.05756 0.67424 -0.01902
 N880 N 0.06912 0.67915 -0.05215
 N881 N 0.07549 0.65208 -0.07357
 C882 C 0.07063 0.61826 -0.06335
 H883 H 0.02834 0.59338 0.06597
 H884 H 0.03905 0.54379 0.02615
 H885 H 0.05344 0.69720 -0.00264
 H886 H 0.07701 0.59741 -0.08159
 C887 C 0.55452 0.10609 0.53077
 C888 C 0.55663 0.07385 0.51332
 C889 C 0.52780 0.05149 0.51166
 C890 C 0.49650 0.06154 0.52898
 C891 C 0.49437 0.09431 0.54685
 C892 C 0.52352 0.11699 0.54704
 C893 C 0.46322 0.10293 0.56466
 N894 N 0.43609 0.08031 0.56413
 N895 N 0.43810 0.04957 0.54731
 C896 C 0.46737 0.03937 0.52987
 H897 H 0.57706 0.12306 0.53092
 H898 H 0.58072 0.06667 0.50017
 H899 H 0.46025 0.12715 0.57941
 H900 H 0.46772 0.01376 0.51759
 C901 C -0.03592 0.09640 0.45715
 C902 C -0.04122 0.06896 0.48043
 C903 C -0.03784 0.07423 0.51628
 C904 C -0.03032 0.10869 0.52882
 C905 C -0.02449 0.13653 0.50495
 C906 C -0.02747 0.13016 0.46894
 C907 C -0.01579 0.17005 0.51797
 N908 N -0.01448 0.17555 0.55266
 N909 N -0.02140 0.14986 0.57513
 C910 C -0.02946 0.11679 0.56444
 H911 H -0.03836 0.09125 0.42965
 H912 H -0.04708 0.04300 0.47030
 H913 H -0.01009 0.19195 0.50095
 H914 H -0.03599 0.09767 0.58402
 C915 C 0.45116 0.60620 0.98382
 C916 C 0.45185 0.57387 1.00068
 C917 C 0.48163 0.55272 0.99933
 C918 C 0.51141 0.56476 0.98067
 C919 C 0.51075 0.59777 0.96370
 C920 C 0.48019 0.61830 0.96503
 C921 C 0.54089 0.60919 0.94583
 N922 N 0.56936 0.58838 0.94443
 N923 N 0.56969 0.55697 0.95960
 C924 C 0.54171 0.54443 0.97753
 H925 H 0.42766 0.62173 0.98505
 H926 H 0.42899 0.56525 1.01508
 H927 H 0.54212 0.63445 0.93302
 H928 H 0.54336 0.51853 0.98864
 C929 C 0.54275 0.89872 0.97880
 C930 C 0.54974 0.92819 0.99915
 C931 C 0.52352 0.94511 1.01894
 C932 C 0.48906 0.93230 1.01671
 C933 C 0.48241 0.90072 0.99792
 C934 C 0.50942 0.88432 0.97800
 C935 C 0.44885 0.88640 1.00018
 N936 N 0.42312 0.90437 1.01705
 N937 N 0.42871 0.93555 1.03191
 C938 C 0.46065 0.95022 1.03205
 H939 H 0.56376 0.88689 0.96362
 H940 H 0.57619 0.93734 1.00005
 H941 H 0.44277 0.86104 0.98896
 H942 H 0.46314 0.97612 1.04331
 C943 C 0.01736 0.41577 0.45884
 C944 C 0.02163 0.44448 0.48095
 C945 C 0.02218 0.44016 0.51701
 C946 C 0.02016 0.40560 0.53085
 C947 C 0.01542 0.37632 0.50827
 C948 C 0.01371 0.38167 0.47202
 C949 C 0.01387 0.34235 0.52268
 N950 N 0.01723 0.33813 0.55728
 N951 N 0.02245 0.36547 0.57833
 C952 C 0.02432 0.39893 0.56630
 H953 H 0.01664 0.42021 0.43115
 H954 H 0.02388 0.47061 0.46997
 H955 H 0.01059 0.31906 0.50679
 H956 H 0.03003 0.41962 0.58450
 C957 C 0.39726 0.52952 0.44534
 C958 C 0.42507 0.50697 0.43880
 C959 C 0.42226 0.47064 0.44500
 C960 C 0.38954 0.45657 0.45536
 C961 C 0.36105 0.47959 0.46173
 C962 C 0.36539 0.51652 0.45773
 C963 C 0.32874 0.46467 0.47079
 N964 N 0.32540 0.42923 0.47355
 N965 N 0.35201 0.40766 0.46738
 C966 C 0.38379 0.42006 0.45816
 H967 H 0.40096 0.55758 0.44164
 H968 H 0.44961 0.51820 0.43038
 H969 H 0.30590 0.48067 0.47497
 H970 H 0.40371 0.40109 0.45194
 C971 C 0.88147 0.00691 -0.01867
 C972 C 0.90799 -0.01755 -0.02340
 C973 C 0.90985 -0.03916 -0.05300
 C974 C 0.88377 -0.03662 -0.07788
 C975 C 0.85577 -0.01288 -0.07230
 C976 C 0.85530 0.01005 -0.04292
 C977 C 0.82870 -0.01377 -0.09592
 N978 N 0.83068 -0.03546 -0.12402
 N979 N 0.85759 -0.05674 -0.12987
 C980 C 0.88413 -0.05814 -0.10774
 H981 H 0.88180 0.02408 0.00390
 H982 H 0.92793 -0.01893 -0.00433
 H983 H 0.80566 0.00197 -0.09208
 H984 H 0.90476 -0.07668 -0.11329
 C985 C 0.61924 0.01718 0.04433
 C986 C 0.59168 -0.00534 0.05189
 C987 C 0.56098 -0.00310 0.03374
 C988 C 0.55768 0.02285 0.00796
 C989 C 0.58561 0.04609 0.00039
 C990 C 0.61686 0.04280 0.01850
 C991 C 0.58079 0.07251 -0.02441
 N992 N 0.55032 0.07485 -0.04077
 N993 N 0.52427 0.05281 -0.03380
 C994 C 0.52686 0.02699 -0.00990
 H995 H 0.64284 0.01429 0.05848
 H996 H 0.59433 -0.02501 0.07184
 H997 H 0.60069 0.09164 -0.03063
 H998 H 0.50470 0.01023 -0.00482
 C999 C 0.11919 0.49675 0.52857
 C1000 C 0.08916 0.47709 0.53417
 C1001 C 0.05649 0.49278 0.53218
 C1002 C 0.05413 0.52897 0.52377
 C1003 C 0.08470 0.54909 0.51847
 C1004 C 0.11738 0.53271 0.52102
 C1005 C 0.08149 0.58495 0.51008
 N1006 N 0.04970 0.59938 0.50693
 N1007 N 0.02101 0.58035 0.51142
 C1008 C 0.02214 0.54565 0.51956
 H1009 H 0.14406 0.48391 0.53043
 H1010 H 0.09128 0.44940 0.54041
 H1011 H 0.10391 0.60155 0.50571
 H1012 H -0.00193 0.53146 0.52215
 C1013 C 0.14205 0.50453 -0.02239
 C1014 C 0.11642 0.52947 -0.02748
 C1015 C 0.08199 0.51927 -0.03185
 C1016 C 0.07295 0.48314 -0.02854
 C1017 C 0.09921 0.45761 -0.02394
 C1018 C 0.13401 0.46858 -0.02096
 C1019 C 0.08969 0.42183 -0.02280
 N1020 N 0.05592 0.41256 -0.02429
 N1021 N 0.03113 0.43663 -0.02682
 C1022 C 0.03846 0.47154 -0.02879
 H1023 H 0.16850 0.51334 -0.01982
 H1024 H 0.12363 0.55700 -0.02945
 H1025 H 0.10869 0.40113 -0.02072
 H1026 H 0.01717 0.48976 -0.02964
 C1027 C 0.61379 0.97423 0.46776
 C1028 C 0.58342 0.99358 0.46548
 C1029 C 0.56072 0.99746 0.49426
 C1030 C 0.56888 0.98115 0.52595
 C1031 C 0.59994 0.96163 0.52833
 C1032 C 0.62235 0.95804 0.49883
 C1033 C 0.60773 0.94667 0.56044
 N1034 N 0.58527 0.95021 0.58788
 N1035 N 0.55565 0.96770 0.58536
 C1036 C 0.54666 0.98319 0.55536
 H1037 H 0.63075 0.97174 0.44503
 H1038 H 0.57783 1.00618 0.44118
 H1039 H 0.63147 0.93233 0.56407
 H1040 H 0.52208 0.99652 0.55475
 C1041 C 0.91223 0.96046 0.51757
 C1042 C 0.93836 0.98478 0.52385
 C1043 C 0.93041 1.01954 0.53371
 C1044 C 0.89538 1.02979 0.53804
 C1045 C 0.86877 1.00518 0.53134
 C1046 C 0.87744 0.97034 0.52079
 C1047 C 0.83422 1.01609 0.53628
 N1048 N 0.82709 1.04941 0.54730
 N1049 N 0.85211 1.07240 0.55393
 C1050 C 0.88597 1.06369 0.54984
 H1051 H 0.91916 0.93379 0.50988
 H1052 H 0.96509 0.97665 0.52064
 H1053 H 0.81282 0.99843 0.53184
 H1054 H 0.90506 1.08316 0.55639
 C1055 C 0.40197 0.46754 0.04168
 C1056 C 0.43172 0.48800 0.04391
 C1057 C 0.45169 0.49630 0.01411
 C1058 C 0.44170 0.48276 -0.01851
 C1059 C 0.41114 0.46234 -0.02080
 C1060 C 0.39111 0.45503 0.00957
 C1061 C 0.40190 0.44935 -0.05353
 N1062 N 0.42227 0.45615 -0.08187
 N1063 N 0.45128 0.47483 -0.07964
 C1064 C 0.46175 0.48820 -0.04896
 H1065 H 0.38686 0.46202 0.06510
 H1066 H 0.43882 0.49813 0.06904
 H1067 H 0.37890 0.43359 -0.05680
 H1068 H 0.48595 0.50230 -0.04868
 C1069 C 0.53357 0.46994 0.38968
 C1070 C 0.51023 0.46482 0.41734
 C1071 C 0.47632 0.45365 0.41167
 C1072 C 0.46597 0.44687 0.37730
 C1073 C 0.48962 0.45243 0.34908
 C1074 C 0.52361 0.46424 0.35548
 C1075 C 0.47865 0.44509 0.31532
 N1076 N 0.44621 0.43288 0.31040
 N1077 N 0.42415 0.42730 0.33692
 C1078 C 0.43297 0.43370 0.37016
 H1079 H 0.55954 0.47879 0.39495
 H1080 H 0.51851 0.46991 0.44350
 H1081 H 0.49562 0.44857 0.29285
 H1082 H 0.41426 0.42791 0.39056
 C1083 C -0.00086 -0.01334 0.88260
 C1084 C -0.02599 -0.02113 0.90794
 C1085 C -0.03566 -0.05612 0.91495
 C1086 C -0.01910 -0.08378 0.89583
 C1087 C 0.00786 -0.07591 0.87133
 C1088 C 0.01618 -0.04024 0.86380
 C1089 C 0.02588 -0.10425 0.85545
 N1090 N 0.01571 -0.13787 0.86166
 N1091 N -0.01112 -0.14510 0.88278
 C1092 C -0.02894 -0.11924 0.89988
 H1093 H 0.00506 0.01407 0.87735
 H1094 H -0.03797 0.00047 0.92228
 H1095 H 0.04814 -0.10010 0.83842
 H1096 H -0.05089 -0.12676 0.91597
 C1097 C -0.00624 0.02429 0.62566
 C1098 C -0.02895 0.02961 0.59891
 C1099 C -0.01672 0.03577 0.56492
 C1100 C 0.01943 0.03462 0.55758
 C1101 C 0.04265 0.03001 0.58505
 C1102 C 0.02955 0.02460 0.61931
 C1103 C 0.07836 0.03127 0.57724
 N1104 N 0.08984 0.03482 0.54391
 N1105 N 0.06806 0.03719 0.51795
 C1106 C 0.03332 0.03700 0.52361
 H1107 H -0.01669 0.01985 0.65163
 H1108 H -0.05647 0.03000 0.60487
 H1109 H 0.09727 0.02953 0.59724
 H1110 H 0.01711 0.03786 0.50140
 C1111 C 0.52617 0.53712 0.10022
 C1112 C 0.50587 0.54127 0.07135
 C1113 C 0.50389 0.51462 0.04610
 C1114 C 0.52355 0.48342 0.04979
 C1115 C 0.54461 0.47933 0.07901
 C1116 C 0.54531 0.50624 0.10477
 C1117 C 0.56505 0.44876 0.08088
 N1118 N 0.56376 0.42383 0.05555
 N1119 N 0.54376 0.42756 0.02831
 C1120 C 0.52376 0.45652 0.02450
 H1121 H 0.52649 0.55800 0.11956
 H1122 H 0.49089 0.56520 0.06903
 H1123 H 0.58246 0.44460 0.10186
 H1124 H 0.50885 0.45849 0.00138
 C1125 C 0.48556 0.01111 0.11972
 C1126 C 0.50336 0.00800 0.08803
 C1127 C 0.51847 -0.02405 0.07756
 C1128 C 0.51844 -0.05258 0.10110
 C1129 C 0.50045 -0.04937 0.13358
 C1130 C 0.48286 -0.01756 0.14234
 C1131 C 0.50153 -0.07789 0.15664
 N1132 N 0.51928 -0.10751 0.14754
 N1133 N 0.53632 -0.11039 0.11717
 C1134 C 0.53669 -0.08390 0.09377
 H1135 H 0.47267 0.03577 0.12607
 H1136 H 0.50383 0.03023 0.07057
 H1137 H 0.48907 -0.07671 0.18205
 H1138 H 0.55200 -0.08731 0.07017
 C1139 C 0.99733 0.49276 0.62957
 C1140 C 1.01789 0.48701 0.59991
 C1141 C 1.00321 0.47913 0.56790
 C1142 C 0.96660 0.47929 0.56564
 C1143 C 0.94559 0.48548 0.59594
 C1144 C 0.96124 0.49145 0.62831
 C1145 C 0.90949 0.48683 0.59253
 N1146 N 0.89552 0.48198 0.56103
 N1147 N 0.91516 0.47642 0.53265
 C1148 C 0.95011 0.47519 0.53382
 H1149 H 1.00978 0.49769 0.65395
 H1150 H 1.04570 0.48747 0.60219
 H1151 H 0.89220 0.49240 0.61436
 H1152 H 0.96442 0.47225 0.50966
 C1153 C 0.97557 0.54313 0.91005
 C1154 C 0.99900 0.54791 0.93629
 C1155 C 1.03449 0.54208 0.93035
 C1156 C 1.04659 0.53277 0.89632
 C1157 C 1.02257 0.52805 0.86944
 C1158 C 0.98672 0.53275 0.87669
 C1159 C 1.03546 0.52012 0.83577
 N1160 N 1.06995 0.51689 0.82961
 N1161 N 1.09246 0.52158 0.85467
 C1162 C 1.08202 0.52966 0.88762
 H1163 H 0.94832 0.54723 0.91594
 H1164 H 0.98924 0.55532 0.96190
 H1165 H 1.01861 0.51709 0.81410
 H1166 H 1.10170 0.53468 0.90614
 C1167 C 0.48926 0.04212 0.40787
 C1168 C 0.50870 0.04422 0.43759
 C1169 C 0.50977 0.01601 0.46079
 C1170 C 0.49047 -0.01491 0.45387
 C1171 C 0.47005 -0.01682 0.42391
 C1172 C 0.46997 0.01185 0.40044
 C1173 C 0.44948 -0.04703 0.41917
 N1174 N 0.45029 -0.07372 0.44230
 N1175 N 0.46988 -0.07212 0.47008
 C1176 C 0.48985 -0.04361 0.47672
 H1177 H 0.48950 0.06429 0.39031
 H1178 H 0.52349 0.06793 0.44235
 H1179 H 0.43233 -0.04955 0.39769
 H1180 H 0.50444 -0.04345 0.50013
   
