data_POSCAR
  _audit_creation_date              2014-09-24
  _audit_creation_method            'ToBaCCo'
  _symmetry_space_group_name_H-M    'P1'
  _symmetry_Int_Tables_number       1
  _symmetry_cell_setting            triclinic
  loop_
  _symmetry_equiv_pos_as_xyz
 x,y,z
_cell_length_a 33.7731
_cell_length_b 33.6956
_cell_length_c 33.3035
_cell_angle_alpha 89.278400
_cell_angle_beta 91.061000
_cell_angle_gamma 120.216500
loop_
  _atom_site_label
  _atom_site_type_symbol
  _atom_site_fract_x
  _atom_site_fract_y
  _atom_site_fract_z
C1 C 0.52311 0.07407 0.05449
 H2 H 0.55554 0.07487 0.05451
 C3 C 0.51833 0.10593 0.07706
 H4 H 0.54712 0.13075 0.09493
 C5 C 0.44634 0.04063 0.03087
 H6 H 0.41871 0.01572 0.01215
 C7 C 0.44001 0.07189 0.05310
 H8 H 0.40739 0.07071 0.05129
 N9 N 0.48741 0.04222 0.03209
 C10 C 0.51866 -0.06716 0.01538
 H11 H 0.51885 -0.06840 -0.01706
 C12 C 0.52441 -0.09893 0.03832
 H13 H 0.52883 -0.12469 0.02324
 C14 C 0.51009 -0.03354 0.07422
 H15 H 0.50356 -0.00866 0.08812
 C16 C 0.51568 -0.06463 0.09831
 H17 H 0.51437 -0.06260 0.13063
 Zn18 Zn 0.49942 0.00338 0.00042
 N19 N 0.51166 -0.03534 0.03354
 C20 C 0.58996 0.04052 -0.03009
 N21 N 0.55058 0.04227 -0.03135
 C22 C 0.54707 0.07433 -0.05384
 C23 C 0.58398 0.10623 -0.07646
 C24 C 0.62781 0.07183 -0.05237
 C25 C 0.40935 -0.06682 -0.01443
 C26 C 0.37168 -0.09846 -0.03720
 C27 C 0.41500 -0.06408 -0.09721
 C28 C 0.45171 -0.03318 -0.07316
 N29 N 0.44834 -0.03509 -0.03258
 H30 H 0.59241 0.01546 -0.01130
 H31 H 0.51550 0.07525 -0.05389
 H32 H 0.58028 0.13122 -0.09441
 H33 H 0.65917 0.07051 -0.05052
 H34 H 0.40796 -0.06830 0.01802
 H35 H 0.34283 -0.12422 -0.02061
 H36 H 0.41944 -0.05925 -0.12925
 H37 H 0.48316 -0.00797 -0.08713
 C38 C 0.52254 -0.09818 0.08039
 C39 C 0.47645 0.10533 0.07635
 C40 C 0.37365 -0.09845 -0.07975
 C41 C 0.62517 0.10547 -0.07572
 C42 C -0.06698 0.47383 0.60992
 H43 H -0.06780 0.44131 0.61092
 C44 C -0.09825 0.47889 0.58562
 H45 H -0.12328 0.44991 0.56814
 C46 C -0.03452 0.55033 0.63308
 H47 H -0.01014 0.57782 0.65213
 C48 C -0.06530 0.55686 0.60925
 H49 H -0.06368 0.58978 0.60965
 N50 N -0.03578 0.50934 0.63281
 C51 C 0.07279 0.47749 0.65582
 H52 H 0.07353 0.47746 0.68831
 C53 C 0.10430 0.47082 0.63472
 H54 H 0.12880 0.46493 0.65125
 C55 C 0.04020 0.48585 0.59495
 H56 H 0.01600 0.49292 0.57954
 C57 C 0.07108 0.47933 0.57266
 H58 H 0.07019 0.48146 0.54022
 Zn59 Zn 0.00292 0.49771 0.66661
 N60 N 0.04153 0.48473 0.63578
 C61 C -0.03427 0.40749 0.69991
 N62 N -0.03576 0.44714 0.69953
 C63 C -0.06711 0.45137 0.72131
 C64 C -0.09827 0.41505 0.74514
 C65 C -0.06493 0.37022 0.72339
 C66 C 0.07277 0.58843 0.67910
 C67 C 0.10397 0.62706 0.70099
 C68 C 0.07044 0.58519 0.76226
 C69 C 0.03985 0.54733 0.73924
 N70 N 0.04144 0.54967 0.69841
 H71 H -0.00985 0.40442 0.68167
 H72 H -0.06800 0.48301 0.71990
 H73 H -0.12319 0.41871 0.76229
 H74 H -0.06378 0.33867 0.72345
 H75 H 0.07382 0.58905 0.64663
 H76 H 0.12908 0.65763 0.68540
 H77 H 0.06932 0.58292 0.79474
 H78 H 0.01556 0.51591 0.75407
 C79 C 0.10393 0.47202 0.59254
 C80 C -0.09777 0.52081 0.58515
 C81 C 0.10287 0.62533 0.74295
 C82 C -0.09722 0.37410 0.74616
 C83 C 0.54487 0.47363 0.38897
 H84 H 0.51319 0.44097 0.38871
 C85 C 0.58222 0.47895 0.41190
 H86 H 0.57933 0.45038 0.42952
 C87 C 0.58782 0.55044 0.36545
 H88 H 0.59013 0.57789 0.34670
 C89 C 0.62608 0.55721 0.38797
 H90 H 0.65764 0.59001 0.38679
 N91 N 0.54817 0.50917 0.36653
 C92 C 0.40668 0.47654 0.34841
 H93 H 0.40479 0.47679 0.31595
 C94 C 0.36923 0.46966 0.37092
 H95 H 0.33828 0.46440 0.35580
 C96 C 0.44991 0.48486 0.40788
 H97 H 0.48173 0.49189 0.42219
 C98 C 0.41326 0.47813 0.43151
 H99 H 0.41686 0.47958 0.46393
 Zn100 Zn 0.49651 0.49717 0.33448
 N101 N 0.44596 0.48386 0.36710
 C102 C 0.44238 0.40686 0.30212
 N103 N 0.48353 0.44666 0.30145
 C104 C 0.51843 0.45108 0.27847
 C105 C 0.51254 0.41478 0.25453
 C106 C 0.43506 0.36961 0.27857
 C107 C 0.51667 0.58770 0.32214
 C108 C 0.52321 0.62618 0.30034
 C109 C 0.51281 0.58427 0.23898
 C110 C 0.50647 0.54656 0.26191
 N111 N 0.50866 0.54898 0.30273
 H112 H 0.41546 0.40366 0.32128
 H113 H 0.55100 0.48284 0.27905
 H114 H 0.54060 0.41859 0.23645
 H115 H 0.40237 0.33792 0.27938
 H116 H 0.51739 0.58838 0.35463
 H117 H 0.52914 0.65671 0.31603
 H118 H 0.51051 0.58191 0.20652
 H119 H 0.49889 0.51517 0.24703
 C120 C 0.37266 0.47069 0.41284
 C121 C 0.62322 0.52107 0.41131
 C122 C 0.52109 0.62435 0.25839
 C123 C 0.47053 0.37367 0.25462
 C124 C 0.21767 0.48646 0.56032
 C125 C 0.20544 0.46233 0.52406
 C126 C 0.15979 0.44030 0.51064
 C127 C 0.12657 0.44283 0.53316
 C128 C 0.13865 0.46749 0.56943
 C129 C 0.18455 0.48902 0.58288
 C130 C 0.24010 0.46160 0.50010
 C131 C 0.26967 0.46206 0.48004
 C132 C 0.30491 0.46381 0.45659
 C133 C 0.33552 0.46636 0.43661
 H134 H 0.25296 0.50386 0.57088
 H135 H 0.14994 0.42152 0.48261
 H136 H 0.09145 0.42545 0.52224
 H137 H 0.19510 0.50885 0.61032
 C138 C 0.49916 0.81279 0.16143
 C139 C 0.52970 0.79803 0.15136
 C140 C 0.55861 0.81776 0.11851
 C141 C 0.55671 0.85189 0.09562
 C142 C 0.52584 0.86670 0.10534
 C143 C 0.49721 0.84686 0.13862
 C144 C 0.53034 0.76182 0.17422
 C145 C 0.52979 0.73101 0.19346
 C146 C 0.52794 0.69441 0.21605
 C147 C 0.52536 0.66271 0.23536
 H148 H 0.47645 0.79757 0.18665
 H149 H 0.58239 0.80659 0.11046
 H150 H 0.57952 0.86683 0.07045
 H151 H 0.47256 0.85694 0.14651
 C152 C 0.25703 0.80891 0.88966
 C153 C 0.26476 0.80014 0.85064
 C154 C 0.30829 0.82598 0.83436
 C155 C 0.34427 0.86006 0.85709
 C156 C 0.33785 0.86932 0.89725
 C157 C 0.29283 0.84293 0.91266
 C158 C 0.22851 0.76361 0.82764
 C159 C 0.19880 0.73257 0.80829
 C160 C 0.16472 0.69573 0.78557
 C161 C 0.13621 0.66386 0.76614
 H162 H 0.22320 0.78935 0.90245
 H163 H 0.31478 0.81912 0.80421
 H164 H 0.37744 0.87665 0.84317
 H165 H 0.28384 0.84906 0.94194
 C166 C 0.81272 0.55204 0.55344
 C167 C 0.80007 0.53221 0.51527
 C168 C 0.82189 0.51006 0.49939
 C169 C 0.85571 0.50708 0.52180
 C170 C 0.86814 0.52621 0.56049
 C171 C 0.84659 0.54916 0.57591
 C172 C 0.76343 0.53280 0.49301
 C173 C 0.73212 0.53203 0.47436
 C174 C 0.69481 0.52969 0.45249
 C175 C 0.66243 0.52645 0.43376
 H176 H 0.79587 0.56906 0.56611
 H177 H 0.81238 0.49459 0.46987
 H178 H 0.87209 0.48974 0.50890
 H179 H 0.85499 0.56373 0.60577
 C180 C 0.50337 0.21868 0.12244
 C181 C 0.46346 0.20602 0.14386
 C182 C 0.42722 0.16052 0.14264
 C183 C 0.43110 0.12772 0.12033
 C184 C 0.47140 0.14008 0.09914
 C185 C 0.50734 0.18602 0.10023
 C186 C 0.46064 0.23980 0.16772
 C187 C 0.46013 0.26912 0.18770
 C188 C 0.46166 0.30453 0.21106
 C189 C 0.46475 0.33562 0.23096
 H190 H 0.53158 0.25381 0.12309
 H191 H 0.39622 0.15032 0.15922
 H192 H 0.40303 0.09255 0.12033
 H193 H 0.53847 0.19679 0.08371
 C194 C -0.26982 0.16075 0.85806
 C195 C -0.26019 0.20631 0.85673
 C196 C -0.28741 0.21898 0.87801
 C197 C -0.32437 0.18626 0.90022
 C198 C -0.33473 0.14026 0.90144
 C199 C -0.30683 0.12790 0.88037
 C200 C -0.22318 0.24017 0.83292
 C201 C -0.19298 0.26953 0.81298
 C202 C -0.15860 0.30497 0.78967
 C203 C -0.13011 0.33607 0.76980
 H204 H -0.24904 0.15055 0.84159
 H205 H -0.28021 0.25416 0.87727
 H206 H -0.34471 0.19703 0.91665
 H207 H -0.31419 0.09269 0.88046
   
