data_POSCAR
  _audit_creation_date              2014-09-24
  _audit_creation_method            'ToBaCCo'
  _symmetry_space_group_name_H-M    'P1'
  _symmetry_Int_Tables_number       1
  _symmetry_cell_setting            triclinic
  loop_
  _symmetry_equiv_pos_as_xyz
 x,y,z
_cell_length_a 40.9508
_cell_length_b 25.9992
_cell_length_c 32.8475
_cell_angle_alpha 89.922900
_cell_angle_beta 90.046100
_cell_angle_gamma 90.185100
loop_
  _atom_site_label
  _atom_site_type_symbol
  _atom_site_fract_x
  _atom_site_fract_y
  _atom_site_fract_z
C1 C 0.22680 0.21998 0.22680
 C2 C 0.22684 0.27426 0.22685
 C3 C 0.25001 0.30109 0.24999
 C4 C 0.27316 0.27433 0.27311
 C5 C 0.27314 0.22005 0.27311
 C6 C 0.24996 0.19317 0.24995
 H7 H 0.24994 0.15140 0.24993
 H8 H 0.25003 0.34281 0.25001
 C9 C 0.77362 0.27890 0.22653
 C10 C 0.77351 0.22461 0.22660
 C11 C 0.75029 0.19780 0.24971
 C12 C 0.72719 0.22463 0.27275
 C13 C 0.72730 0.27882 0.27272
 C14 C 0.75049 0.30571 0.24963
 H15 H 0.75049 0.34745 0.24968
 H16 H 0.75019 0.15608 0.24975
 C17 C 0.72724 0.72519 0.72718
 C18 C 0.72720 0.77937 0.72732
 C19 C 0.75031 0.80627 0.75052
 C20 C 0.77350 0.77946 0.77363
 C21 C 0.77352 0.72518 0.77348
 C22 C 0.75038 0.69836 0.75026
 H23 H 0.75039 0.65664 0.75014
 H24 H 0.75021 0.84801 0.75054
 C25 C 0.27267 0.77548 0.72718
 C26 C 0.27264 0.72130 0.72721
 C27 C 0.24952 0.69433 0.75037
 C28 C 0.22641 0.72106 0.77353
 C29 C 0.22646 0.77535 0.77349
 C30 C 0.24959 0.80223 0.75030
 H31 H 0.24964 0.84395 0.75026
 H32 H 0.24958 0.65259 0.75032
 O33 O 1.03221 0.06342 0.01216
 O34 O 0.96837 0.00430 -0.05167
 O35 O 0.96861 0.06399 0.01193
 O36 O 1.03196 0.00374 -0.05146
 O37 O 1.03152 -0.06456 -0.01126
 O38 O 0.96817 -0.00431 0.05214
 O39 O 0.96793 -0.06400 -0.01147
 O40 O 1.03177 -0.00489 0.05236
 Cu41 Cu 1.00033 0.04076 -0.02382
 Cu42 Cu 0.99980 -0.04133 0.02450
 C43 C 1.04276 0.03924 0.04303
 C44 C 0.95738 -0.03983 -0.04234
 C45 C 0.95770 0.04001 0.04273
 C46 C 1.04243 -0.04058 -0.04206
 O47 O 0.46821 0.50414 0.44811
 O48 O 0.53176 0.56471 0.51153
 O49 O 0.53180 0.50483 0.44803
 O50 O 0.46817 0.56403 0.51161
 O51 O 0.46838 0.49584 0.55193
 O52 O 0.53201 0.43664 0.48835
 O53 O 0.53197 0.49651 0.55185
 O54 O 0.46842 0.43596 0.48844
 Cu55 Cu 0.49997 0.54131 0.47575
 Cu56 Cu 0.50022 0.45936 0.52422
 C57 C 0.45760 0.45983 0.45757
 C58 C 0.54259 0.54083 0.54239
 C59 C 0.54264 0.46074 0.45746
 C60 C 0.45753 0.53992 0.54250
 O61 O -0.03128 0.56404 -0.01144
 O62 O 0.03214 0.50352 0.05196
 O63 O 0.03231 0.56349 -0.01162
 O64 O -0.03145 0.50410 0.05215
 O65 O -0.03193 0.43596 0.01192
 O66 O 0.03184 0.49536 -0.05185
 O67 O 0.03166 0.43539 0.01172
 O68 O -0.03176 0.49590 -0.05167
 Cu69 Cu 0.00048 0.54067 0.02433
 Cu70 Cu -0.00010 0.45877 -0.02403
 C71 C -0.04222 0.54019 -0.04225
 C72 C 0.04260 0.45924 0.04254
 C73 C 0.04283 0.53946 -0.04250
 C74 C -0.04246 0.46000 0.04279
 O75 O 0.46759 1.06393 0.48761
 O76 O 0.53128 1.00485 0.55144
 O77 O 0.53120 1.06463 0.48777
 O78 O 0.46769 1.00418 0.55131
 O79 O 0.46787 0.93592 0.51121
 O80 O 0.53138 0.99638 0.44766
 O81 O 0.53147 0.93660 0.51133
 O82 O 0.46778 0.99568 0.44751
 Cu83 Cu 0.49942 1.04129 0.52358
 Cu84 Cu 0.49964 0.95925 0.47538
 C85 C 0.45693 1.03977 0.45679
 C86 C 0.54212 0.96075 0.54216
 C87 C 0.54201 1.04070 0.45700
 C88 C 0.45707 0.95984 0.54199
 C89 C 1.15873 0.14749 0.15884
 C90 C 1.12755 0.17984 0.15530
 C91 C 1.10398 0.15776 0.13176
 C92 C 1.11388 0.10547 0.11408
 C93 C 1.12365 0.07279 0.15108
 C94 C 1.14725 0.09489 0.17462
 C95 C 1.16951 0.13792 0.11476
 C96 C 1.14593 0.11580 0.09122
 C97 C 1.18399 0.17172 0.18405
 C98 C 1.20434 0.19330 0.20437
 C99 C 1.08849 0.08171 0.08873
 C100 C 1.06761 0.06228 0.06787
 H101 H 1.12431 0.21691 0.16992
 H102 H 1.08055 0.17590 0.12622
 H103 H 1.11299 0.03555 0.15816
 H104 H 1.15680 0.07662 0.20186
 H105 H 1.19352 0.14771 0.10305
 H106 H 1.14975 0.10664 0.05935
 C107 C 0.65807 0.65095 0.65785
 C108 C 0.62687 0.68319 0.65397
 C109 C 0.60338 0.66079 0.63046
 C110 C 0.61340 0.60835 0.61315
 C111 C 0.62310 0.57607 0.65041
 C112 C 0.64660 0.59848 0.67391
 C113 C 0.66899 0.64097 0.61388
 C114 C 0.64550 0.61855 0.59038
 C115 C 0.68324 0.67542 0.68305
 C116 C 0.70356 0.69700 0.70341
 C117 C 0.58812 0.58422 0.58786
 C118 C 0.56733 0.56440 0.56709
 H119 H 0.62353 0.72038 0.66835
 H120 H 0.57995 0.67881 0.62470
 H121 H 0.61246 0.53888 0.65768
 H122 H 0.65608 0.58051 0.70131
 H123 H 0.69303 0.65071 0.60222
 H124 H 0.64943 0.60907 0.55858
 C125 C -0.15832 0.35147 0.15859
 C126 C -0.17006 0.36552 0.11562
 C127 C -0.14650 0.38767 0.09208
 C128 C -0.11351 0.39356 0.11382
 C129 C -0.10483 0.33919 0.12845
 C130 C -0.12838 0.31707 0.15199
 C131 C -0.14465 0.40169 0.17633
 C132 C -0.12108 0.42383 0.15278
 C133 C -0.18356 0.32720 0.18380
 C134 C -0.20391 0.30560 0.20411
 C135 C -0.08814 0.41737 0.08847
 C136 C -0.06728 0.43687 0.06762
 H137 H -0.19471 0.35864 0.10464
 H138 H -0.15096 0.39978 0.06093
 H139 H -0.08219 0.31976 0.12095
 H140 H -0.12590 0.27870 0.16470
 H141 H -0.15277 0.41839 0.20484
 H142 H -0.10899 0.45952 0.16113
 C143 C 0.34177 0.84980 0.65778
 C144 C 0.37387 0.86014 0.68055
 C145 C 0.39732 0.88255 0.65699
 C146 C 0.38637 0.89238 0.61296
 C147 C 0.35511 0.92449 0.61663
 C148 C 0.33165 0.90209 0.64020
 C149 C 0.35152 0.81738 0.62072
 C150 C 0.37497 0.83976 0.59716
 C151 C 0.31664 0.82534 0.68304
 C152 C 0.29634 0.80374 0.70343
 C153 C 0.41161 0.91649 0.58759
 C154 C 0.43237 0.93629 0.56675
 H155 H 0.37784 0.85064 0.71236
 H156 H 0.42138 0.89225 0.66861
 H157 H 0.35169 0.96155 0.60199
 H158 H 0.30815 0.91996 0.64578
 H159 H 0.34097 0.78007 0.61365
 H160 H 0.38451 0.82162 0.56992
 C161 C -0.15742 0.65051 -0.15754
 C162 C -0.12499 0.64223 -0.17994
 C163 C -0.10156 0.61975 -0.15649
 C164 C -0.11286 0.60779 -0.11294
 C165 C -0.14373 0.57473 -0.11799
 C166 C -0.16717 0.59720 -0.14145
 C167 C -0.14841 0.68180 -0.11951
 C168 C -0.12497 0.65934 -0.09607
 C169 C -0.18254 0.67507 -0.18266
 C170 C -0.20282 0.69676 -0.20292
 C171 C -0.08763 0.58360 -0.08769
 C172 C -0.06689 0.56376 -0.06694
 H173 H -0.12078 0.65315 -0.21142
 H174 H -0.07727 0.61138 -0.16789
 H175 H -0.14690 0.53699 -0.10434
 H176 H -0.19042 0.57874 -0.14791
 H177 H -0.15941 0.71845 -0.11175
 H178 H -0.11590 0.67674 -0.06823
 C179 C 0.34113 1.14775 0.34102
 C180 C 0.35383 1.09665 0.32402
 C181 C 0.37739 1.07461 0.34755
 C182 C 0.38593 1.10586 0.38577
 C183 C 0.35332 1.11329 0.40799
 C184 C 0.32977 1.13534 0.38447
 C185 C 0.37165 1.18155 0.34641
 C186 C 0.39519 1.15953 0.36994
 C187 C 0.31590 1.17190 0.31583
 C188 C 0.29557 1.19343 0.29552
 C189 C 0.41129 1.08217 0.41111
 C190 C 0.43213 1.06278 0.43196
 H191 H 0.34508 1.07930 0.29599
 H192 H 0.38884 1.03837 0.33967
 H193 H 0.34911 1.10227 0.43945
 H194 H 0.30539 1.14321 0.39577
 H195 H 0.37450 1.21947 0.33295
 H196 H 0.41819 1.17860 0.37665
 C197 C 1.15753 -0.15030 -0.15742
 C198 C 1.12577 -0.18168 -0.15485
 C199 C 1.10236 -0.15935 -0.13139
 C200 C 1.11300 -0.10782 -0.11279
 C201 C 1.12370 -0.07463 -0.14915
 C202 C 1.14712 -0.09698 -0.17262
 C203 C 1.16805 -0.14209 -0.11303
 C204 C 1.14464 -0.11974 -0.08956
 C205 C 1.18262 -0.17472 -0.18256
 C206 C 1.20286 -0.19632 -0.20285
 C207 C 1.08780 -0.08377 -0.08753
 C208 C 1.06708 -0.06405 -0.06675
 H209 H 1.12203 -0.21830 -0.17005
 H210 H 1.07857 -0.17683 -0.12648
 H211 H 1.11375 -0.03691 -0.15587
 H212 H 1.15724 -0.07842 -0.19944
 H213 H 1.19177 -0.15296 -0.10107
 H214 H 1.14831 -0.11144 -0.05750
 C215 C 0.65816 0.35248 0.34187
 C216 C 0.64725 0.40544 0.32645
 C217 C 0.62375 0.42753 0.34996
 C218 C 0.61348 0.39445 0.38657
 C219 C 0.64531 0.38337 0.40964
 C220 C 0.66880 0.36128 0.38614
 C221 C 0.62666 0.32049 0.34482
 C222 C 0.60318 0.34255 0.36832
 C223 C 0.68333 0.32832 0.31670
 C224 C 0.70365 0.30691 0.29638
 C225 C 0.58819 0.41820 0.41187
 C226 C 0.56739 0.43765 0.43269
 H227 H 0.65711 0.42398 0.29947
 H228 H 0.61347 0.46499 0.34310
 H229 H 0.64905 0.39203 0.44164
 H230 H 0.69266 0.35100 0.39800
 H231 H 0.62315 0.28367 0.32984
 H232 H 0.57955 0.32464 0.37348
 C233 C 0.84148 -0.14805 -0.15827
 C234 C 0.83016 -0.13619 -0.11476
 C235 C 0.85372 -0.11409 -0.09119
 C236 C 0.88629 -0.10606 -0.11344
 C237 C 0.87769 -0.07454 -0.15152
 C238 C 0.85412 -0.09664 -0.17510
 C239 C 0.87203 -0.18153 -0.15307
 C240 C 0.89558 -0.15946 -0.12950
 C241 C 0.81624 -0.17227 -0.18352
 C242 C 0.79592 -0.19385 -0.20388
 C243 C 0.91167 -0.08231 -0.08806
 C244 C 0.93254 -0.06288 -0.06719
 H245 H 0.80579 -0.14446 -0.10345
 H246 H 0.84954 -0.10342 -0.05968
 H247 H 0.88911 -0.03808 -0.15928
 H248 H 0.84533 -0.07912 -0.20304
 H249 H 0.87489 -0.21929 -0.16668
 H250 H 0.91860 -0.17832 -0.12289
 C251 C 0.34226 0.34919 0.34220
 C252 C 0.35122 0.31783 0.38022
 C253 C 0.37468 0.34037 0.40368
 C254 C 0.38687 0.39207 0.38684
 C255 C 0.35603 0.42493 0.38178
 C256 C 0.33257 0.40238 0.35830
 C257 C 0.37471 0.35779 0.31982
 C258 C 0.39817 0.38036 0.34328
 C259 C 0.31713 0.32456 0.31706
 C260 C 0.29683 0.30280 0.29677
 C261 C 0.41211 0.41633 0.41210
 C262 C 0.43288 0.43622 0.43287
 H263 H 0.34018 0.28107 0.38797
 H264 H 0.38372 0.32292 0.43153
 H265 H 0.35290 0.46259 0.39543
 H266 H 0.30935 0.42070 0.35183
 H267 H 0.37892 0.34703 0.28834
 H268 H 0.42246 0.38894 0.33190
 C269 C 0.15851 0.64827 -0.15842
 C270 C 0.12697 0.63572 -0.18171
 C271 C 0.10346 0.61349 -0.15814
 C272 C 0.11379 0.60604 -0.11359
 C273 C 0.12413 0.65974 -0.09900
 C274 C 0.14765 0.68194 -0.12256
 C275 C 0.16910 0.59720 -0.13912
 C276 C 0.14558 0.57498 -0.11554
 C277 C 0.18369 0.67262 -0.18367
 C278 C 0.20399 0.69429 -0.20402
 C279 C 0.08846 0.58216 -0.08821
 C280 C 0.06763 0.56262 -0.06733
 H281 H 0.12341 0.64363 -0.21387
 H282 H 0.07975 0.60235 -0.17011
 H283 H 0.11386 0.67870 -0.07253
 H284 H 0.15754 0.71990 -0.11625
 H285 H 0.19295 0.58000 -0.14358
 H286 H 0.14929 0.53873 -0.09978
 C287 C 0.65776 1.15050 0.34176
 C288 C 0.64709 1.18374 0.37796
 C289 C 0.62352 1.16142 0.40138
 C290 C 0.61295 1.10803 0.38632
 C291 C 0.64462 1.07671 0.38401
 C292 C 0.66819 1.09905 0.36057
 C293 C 0.62614 1.13858 0.31844
 C294 C 0.60258 1.11623 0.34187
 C295 C 0.68301 1.17490 0.31665
 C296 C 0.70341 1.19645 0.29638
 C297 C 0.58760 1.08398 0.41155
 C298 C 0.56677 1.06421 0.43229
 H299 H 0.65713 1.22153 0.38459
 H300 H 0.61337 1.18009 0.42804
 H301 H 0.64822 1.04020 0.39942
 H302 H 0.69197 1.08169 0.35590
 H303 H 0.62256 1.14699 0.28637
 H304 H 0.57882 1.10549 0.32986
 C305 C 0.15781 0.34892 0.15782
 C306 C 0.14752 0.31633 0.12101
 C307 C 0.12408 0.33878 0.09756
 C308 C 0.11324 0.39164 0.11322
 C309 C 0.14481 0.42344 0.11644
 C310 C 0.16824 0.40096 0.13990
 C311 C 0.12598 0.35978 0.18085
 C312 C 0.10254 0.38226 0.15740
 C313 C 0.18292 0.32436 0.18295
 C314 C 0.20319 0.30267 0.20322
 C315 C 0.08802 0.41582 0.08797
 C316 C 0.06728 0.43567 0.06722
 H317 H 0.15771 0.27886 0.11400
 H318 H 0.11419 0.32055 0.07050
 H319 H 0.14842 0.46035 0.10160
 H320 H 0.19193 0.41861 0.14517
 H321 H 0.12216 0.35056 0.21274
 H322 H 0.07865 0.39232 0.16921
 C323 C 0.65788 0.85289 0.65807
 C324 C 0.62591 0.86322 0.68097
 C325 C 0.60237 0.88522 0.65740
 C326 C 0.61310 0.89470 0.61325
 C327 C 0.62436 0.84201 0.59771
 C328 C 0.64791 0.82004 0.62126
 C329 C 0.66797 0.90508 0.64011
 C330 C 0.64442 0.92708 0.61654
 C331 C 0.68311 0.82882 0.68331
 C332 C 0.70347 0.80745 0.70365
 C333 C 0.58775 0.91835 0.58787
 C334 C 0.56691 0.93774 0.56700
 H335 H 0.62209 0.85400 0.71286
 H336 H 0.57837 0.89487 0.66911
 H337 H 0.61466 0.82354 0.57063
 H338 H 0.65838 0.78274 0.61435
 H339 H 0.69152 0.92317 0.64544
 H340 H 0.64780 0.96402 0.60166
 C341 C 0.84251 0.15001 0.15778
 C342 C 0.85052 0.18027 0.11885
 C343 C 0.87395 0.15785 0.09547
 C344 C 0.88707 0.10737 0.11330
 C345 C 0.85677 0.07340 0.11977
 C346 C 0.83333 0.09583 0.14316
 C347 C 0.87537 0.14369 0.17970
 C348 C 0.89880 0.12125 0.15631
 C349 C 0.81740 0.17453 0.18284
 C350 C 0.79714 0.19620 0.20304
 C351 C 0.91229 0.08325 0.08811
 C352 C 0.93303 0.06348 0.06740
 H353 H 0.83889 0.21625 0.11047
 H354 H 0.88239 0.17461 0.06706
 H355 H 0.85397 0.03509 0.10709
 H356 H 0.81046 0.07676 0.15053
 H357 H 0.87986 0.15586 0.21081
 H358 H 0.92337 0.11418 0.16740
 C359 C 0.34185 0.64788 0.65802
 C360 C 0.33079 0.63709 0.61419
 C361 C 0.35431 0.61508 0.59070
 C362 C 0.38660 0.60606 0.61334
 C363 C 0.37734 0.57392 0.65087
 C364 C 0.35380 0.59592 0.67437
 C365 C 0.37280 0.68095 0.65372
 C366 C 0.39632 0.65897 0.63022
 C367 C 0.31664 0.67194 0.68319
 C368 C 0.29631 0.69328 0.70352
 C369 C 0.41193 0.58239 0.58805
 C370 C 0.43276 0.56298 0.56725
 H371 H 0.30662 0.64601 0.60261
 H372 H 0.35029 0.60514 0.55899
 H373 H 0.38829 0.53712 0.65833
 H374 H 0.34459 0.57798 0.70195
 H375 H 0.37593 0.71839 0.66783
 H376 H 0.41959 0.67758 0.62420
   
