data_POSCAR
  _audit_creation_date              2014-09-24
  _audit_creation_method            'ToBaCCo'
  _symmetry_space_group_name_H-M    'P1'
  _symmetry_Int_Tables_number       1
  _symmetry_cell_setting            triclinic
  loop_
  _symmetry_equiv_pos_as_xyz
 x,y,z
_cell_length_a 35.5623
_cell_length_b 35.6503
_cell_length_c 89.6397
_cell_angle_alpha 89.005100
_cell_angle_beta 90.465200
_cell_angle_gamma 120.097900
loop_
  _atom_site_label
  _atom_site_type_symbol
  _atom_site_fract_x
  _atom_site_fract_y
  _atom_site_fract_z
C1 C 0.01791 0.07035 0.52044
 H2 H 0.04898 0.07172 0.52007
 C3 C 0.01247 0.09866 0.52951
 H4 H 0.03937 0.12186 0.53621
 C5 C -0.05504 0.03868 0.51205
 H6 H -0.08103 0.01560 0.50508
 C7 C -0.06187 0.06649 0.52099
 H8 H -0.09325 0.06456 0.52100
 N9 N -0.01570 0.04085 0.51207
 C10 C 0.01445 -0.06207 0.50535
 H11 H 0.01556 -0.06247 0.49330
 C12 C 0.01892 -0.09287 0.51384
 H13 H 0.02378 -0.11693 0.50834
 C14 C 0.00474 -0.03156 0.52728
 H15 H -0.00200 -0.00848 0.53249
 C16 C 0.00908 -0.06171 0.53617
 H17 H 0.00615 -0.06137 0.54818
 Zn18 Zn -0.00372 0.00505 0.50003
 N19 N 0.00747 -0.03226 0.51216
 C20 C 0.08218 0.04027 0.48818
 N21 N 0.04502 0.04243 0.48817
 C22 C 0.04161 0.07300 0.47993
 C23 C 0.07611 0.10248 0.47100
 C24 C 0.11757 0.06924 0.47937
 C25 C -0.08897 -0.06144 0.49437
 C26 C -0.12379 -0.09127 0.48574
 C27 C -0.08109 -0.05721 0.46356
 C28 C -0.04713 -0.02811 0.47260
 N29 N -0.05159 -0.03072 0.48771
 H30 H 0.08453 0.01630 0.49503
 H31 H 0.01189 0.07431 0.48030
 H32 H 0.07296 0.12653 0.46441
 H33 H 0.14701 0.06732 0.47935
 H34 H -0.09129 -0.06334 0.50642
 H35 H -0.15311 -0.11602 0.49120
 H36 H -0.07679 -0.05519 0.45155
 H37 H -0.01685 -0.00431 0.46752
 C38 C 0.01590 -0.09282 0.52939
 C39 C -0.02778 0.09666 0.52982
 C40 C -0.11966 -0.08933 0.47018
 C41 C 0.11437 0.10053 0.47069
 C42 C 1.08119 0.02985 0.14661
 H43 H 1.08245 0.06079 0.14689
 C44 C 1.11043 0.02494 0.13775
 H45 H 1.13424 0.05211 0.13112
 C46 C 1.04891 -0.04328 0.15505
 H47 H 1.02523 -0.06955 0.16195
 C48 C 1.07765 -0.04959 0.14631
 H49 H 1.07583 -0.08084 0.14640
 N50 N 1.05097 -0.00409 0.15491
 C51 C 0.94734 0.02581 0.16101
 H52 H 0.94602 0.02643 0.17306
 C53 C 0.91714 0.03068 0.15235
 H54 H 0.89263 0.03534 0.15771
 C55 C 0.97953 0.01695 0.13928
 H56 H 1.00303 0.01038 0.13421
 C57 C 0.95002 0.02169 0.13022
 H58 H 0.95126 0.01925 0.11823
 Zn59 Zn 1.01412 0.00730 0.16673
 N60 N 0.97770 0.01905 0.15438
 C61 C 1.04869 0.09250 0.17855
 N62 N 1.05072 0.05535 0.17865
 C63 C 1.08071 0.05147 0.18701
 C64 C 1.10974 0.08545 0.19597
 C65 C 1.07723 0.12738 0.18738
 C66 C 0.94711 -0.07806 0.17229
 C67 C 0.91669 -0.11323 0.18088
 C68 C 0.94906 -0.07161 0.20308
 C69 C 0.97880 -0.03725 0.19410
 N70 N 0.97733 -0.04102 0.17899
 H71 H 1.02520 0.09523 0.17160
 H72 H 1.08195 0.02178 0.18671
 H73 H 1.13337 0.08195 0.20264
 H74 H 1.07544 0.15684 0.18731
 H75 H 0.94610 -0.07987 0.16025
 H76 H 0.89231 -0.14235 0.17546
 H77 H 0.95001 -0.06806 0.21508
 H78 H 1.00219 -0.00724 0.19922
 C79 C 0.91836 0.02828 0.13682
 C80 C 1.10861 -0.01513 0.13757
 C81 C 0.91754 -0.10979 0.19641
 C82 C 1.10795 0.12370 0.19618
 C83 C 0.04238 0.96836 0.85321
 H84 H 0.01255 0.93741 0.85284
 C85 C 0.07680 0.97316 0.86212
 H86 H 0.07350 0.94588 0.86869
 C87 C 0.08330 1.04166 0.84495
 H88 H 0.08582 1.06805 0.83810
 C89 C 0.11862 1.04786 0.85374
 H90 H 0.14819 1.07914 0.85373
 N91 N 0.04600 1.00244 0.84498
 C92 C -0.08780 0.97276 0.83873
 H93 H -0.09003 0.97240 0.82668
 C94 C -0.12263 0.96783 0.84734
 H95 H -0.15190 0.96337 0.84191
 C96 C -0.04618 0.98106 0.86052
 H97 H -0.01597 0.98745 0.86562
 C98 C -0.08018 0.97625 0.86954
 H99 H -0.07607 0.97847 0.88155
 Zn100 Zn -0.00261 0.99130 0.83311
 N101 N -0.05052 0.97928 0.84541
 C102 C -0.05406 0.90640 0.82106
 N103 N -0.01467 0.94352 0.82106
 C104 C 0.01896 0.94758 0.81269
 C105 C 0.01350 0.91381 0.80363
 C106 C -0.06091 0.87173 0.81212
 C107 C 0.01596 1.07673 0.82780
 C108 C 0.02065 1.11211 0.81932
 C109 C 0.01072 1.07114 0.79698
 C110 C 0.00618 1.03655 0.80586
 N111 N 0.00884 1.03990 0.82098
 H112 H -0.08008 0.90352 0.82801
 H113 H 0.05006 0.97724 0.81307
 H114 H 0.04043 0.91746 0.79695
 H115 H -0.09233 0.84230 0.81211
 H116 H 0.01702 1.07819 0.83985
 H117 H 0.02562 1.14105 0.82483
 H118 H 0.00785 1.06793 0.78497
 H119 H -0.00068 1.00670 0.80065
 C120 C -0.11862 0.96993 0.86289
 C121 C 0.11521 1.01326 0.86241
 C122 C 0.01769 1.10910 0.80377
 C123 C -0.02679 0.87560 0.80332
 C124 C 0.38743 -0.00286 0.00752
 C125 C 0.38917 0.00175 -0.00771
 C126 C 0.42692 0.00285 -0.01225
 N127 N 0.44832 -0.00061 -0.00026
 C128 C 0.42437 -0.00403 0.01186
 C129 C 0.43972 0.00526 -0.02729
 C130 C 0.47611 0.00252 -0.03208
 C131 C 0.48342 -0.00389 -0.04676
 C132 C 0.52080 -0.00624 -0.04684
 C133 C 0.53570 -0.00092 -0.03224
 N134 N 0.50858 0.00513 -0.02336
 C135 C 0.57362 -0.00162 -0.02770
 C136 C 0.58705 -0.00043 -0.01274
 C137 C 0.62464 -0.00033 -0.00840
 C138 C 0.62530 -0.00015 0.00690
 C139 C 0.58799 -0.00037 0.01145
 N140 N 0.56483 -0.00050 -0.00058
 C141 C 0.57680 0.00065 0.02648
 C142 C 0.53842 -0.00027 0.03124
 C143 C 0.52987 0.00479 0.04593
 C144 C 0.49008 0.00235 0.04605
 C145 C 0.47531 -0.00384 0.03143
 N146 N 0.50460 -0.00623 0.02253
 C147 C 0.43584 -0.00654 0.02684
 H148 H 0.36205 -0.00462 0.01460
 H149 H 0.36505 0.00354 -0.01465
 H150 H 0.50020 -0.01459 0.01139
 H151 H 0.46344 -0.00739 -0.05639
 H152 H 0.53515 -0.01163 -0.05659
 H153 H 0.64909 -0.00038 -0.01549
 H154 H 0.65045 0.00011 0.01386
 H155 H 0.47425 0.00565 0.05579
 H156 H 0.51354 0.01373 -0.01225
 H157 H 0.55032 0.01006 0.05558
 C158 C -0.01941 0.37243 0.65914
 C159 C -0.01460 0.37431 0.67434
 C160 C -0.01328 0.41208 0.67872
 N161 N -0.01680 0.43337 0.66665
 C162 C -0.02047 0.40933 0.65465
 C163 C -0.01044 0.42511 0.69370
 C164 C -0.01315 0.46144 0.69837
 C165 C -0.01899 0.46905 0.71306
 C166 C -0.02155 0.50624 0.71301
 C167 C -0.01691 0.52072 0.69830
 N168 N -0.01109 0.49353 0.68949
 C169 C -0.01802 0.55833 0.69361
 C170 C -0.01723 0.57149 0.67858
 C171 C -0.01759 0.60875 0.67409
 C172 C -0.01745 0.60936 0.65879
 C173 C -0.01723 0.57235 0.65439
 N174 N -0.01707 0.54942 0.66652
 C175 C -0.01592 0.56130 0.63941
 C176 C -0.01657 0.52313 0.63481
 C177 C -0.01108 0.51477 0.62017
 C178 C -0.01347 0.47510 0.62021
 C179 C -0.02007 0.46021 0.63489
 N180 N -0.02276 0.48930 0.64367
 C181 C -0.02292 0.42077 0.63964
 H182 H -0.02133 0.34702 0.65218
 H183 H -0.01278 0.35028 0.68138
 H184 H -0.03155 0.48473 0.65482
 H185 H -0.02199 0.44938 0.72281
 H186 H -0.02662 0.52074 0.72274
 H187 H -0.01788 0.63305 0.68108
 H188 H -0.01746 0.63430 0.65172
 H189 H -0.00986 0.45943 0.61053
 H190 H -0.00303 0.49819 0.67828
 H191 H -0.00556 0.53527 0.61043
 C192 C 0.62413 0.62593 0.34148
 C193 C 0.62446 0.62608 0.32618
 C194 C 0.58710 0.58882 0.32178
 N195 N 0.56423 0.56601 0.33390
 C196 C 0.58668 0.58847 0.34597
 C197 C 0.57560 0.57627 0.30679
 C198 C 0.53719 0.53862 0.30218
 C199 C 0.52830 0.52473 0.28754
 C200 C 0.48861 0.48724 0.28757
 C201 C 0.47423 0.47886 0.30224
 N202 N 0.50365 0.51079 0.31103
 C203 C 0.43499 0.44200 0.30699
 C204 C 0.42395 0.42827 0.32201
 C205 C 0.38732 0.39003 0.32649
 C206 C 0.38943 0.38751 0.34172
 C207 C 0.42708 0.42448 0.34612
 N208 N 0.44806 0.44920 0.33404
 C209 C 0.44016 0.43529 0.36112
 C210 C 0.47645 0.47470 0.36576
 C211 C 0.48396 0.48882 0.38038
 C212 C 0.52122 0.52869 0.38031
 C213 C 0.53583 0.53793 0.36567
 N214 N 0.50867 0.50446 0.35691
 C215 C 0.57359 0.57654 0.36098
 H216 H 0.64870 0.65064 0.34848
 H217 H 0.64942 0.65086 0.31913
 H218 H 0.51350 0.50056 0.34581
 H219 H 0.54849 0.53981 0.27781
 H220 H 0.47260 0.46788 0.27789
 H221 H 0.36191 0.36612 0.31951
 H222 H 0.36562 0.36161 0.34876
 H223 H 0.53568 0.54872 0.38998
 H224 H 0.49952 0.51489 0.32217
 H225 H 0.46419 0.47250 0.39008
 C226 C -0.03362 0.12563 0.53924
 C227 C -0.03712 0.15036 0.54733
 C228 C -0.03984 0.18027 0.55723
 C229 C -0.03335 0.22012 0.55177
 C230 C -0.03343 0.25021 0.56156
 C231 C -0.03996 0.24081 0.57696
 C232 C -0.04706 0.20040 0.58229
 C233 C -0.04694 0.17040 0.57248
 C234 C -0.03825 0.27335 0.58748
 C235 C -0.06730 0.26042 0.59959
 C236 C -0.06455 0.29084 0.60982
 C237 C -0.03280 0.33457 0.60810
 C238 C -0.00408 0.34788 0.59601
 C239 C -0.00677 0.31751 0.58575
 C240 C -0.02915 0.36548 0.61895
 C241 C -0.02617 0.39089 0.62824
 H242 H -0.02773 0.22813 0.53999
 H243 H -0.02841 0.28080 0.55710
 H244 H -0.05156 0.19242 0.59409
 H245 H -0.05167 0.13978 0.57684
 H246 H -0.09223 0.22679 0.60112
 H247 H -0.08699 0.28021 0.61914
 H248 H 0.02072 0.38164 0.59460
 H249 H 0.01643 0.32841 0.57668
 C250 C 0.88496 0.85575 0.20551
 C251 C 0.85757 0.82786 0.21341
 C252 C 0.82487 0.79569 0.22313
 C253 C 0.83705 0.77933 0.23538
 C254 C 0.80556 0.75014 0.24537
 C255 C 0.76141 0.73698 0.24325
 C256 C 0.74942 0.75305 0.23075
 C257 C 0.78098 0.78227 0.22078
 C258 C 0.72820 0.70766 0.25426
 C259 C 0.68716 0.67456 0.24954
 C260 C 0.65576 0.64755 0.25998
 C261 C 0.66495 0.65335 0.27525
 C262 C 0.70566 0.68610 0.28006
 C263 C 0.73709 0.71307 0.26965
 C264 C 0.63278 0.62585 0.28606
 C265 C 0.60645 0.60318 0.29535
 H266 H 0.87094 0.78955 0.23732
 H267 H 0.81574 0.73789 0.25477
 H268 H 0.71580 0.74399 0.22891
 H269 H 0.77123 0.79496 0.21138
 H270 H 0.67952 0.66929 0.23777
 H271 H 0.62437 0.62219 0.25615
 H272 H 0.71306 0.69092 0.29186
 H273 H 0.76809 0.73866 0.27365
 C274 C 0.15075 0.01840 -0.12837
 C275 C 0.17960 0.02127 -0.12045
 C276 C 0.21296 0.02318 -0.11076
 C277 C 0.22931 -0.00475 -0.11298
 C278 C 0.25966 -0.00501 -0.10304
 C279 C 0.27398 0.02264 -0.09069
 C280 C 0.25790 0.05113 -0.08871
 C281 C 0.22755 0.05134 -0.09867
 C282 C 0.30446 0.02073 -0.07969
 C283 C 0.29825 0.02286 -0.06431
 C284 C 0.32615 0.01989 -0.05391
 C285 C 0.36063 0.01478 -0.05871
 C286 C 0.36728 0.01287 -0.07398
 C287 C 0.33937 0.01580 -0.08441
 C288 C 0.38889 0.01127 -0.04791
 C289 C 0.41214 0.00841 -0.03866
 H290 H 0.21799 -0.02690 -0.12225
 H291 H 0.27098 -0.02770 -0.10477
 H292 H 0.26873 0.07320 -0.07943
 H293 H 0.21506 0.07305 -0.09684
 H294 H 0.27131 0.02597 -0.06031
 H295 H 0.32065 0.02128 -0.04211
 H296 H 0.39396 0.00903 -0.07781
 H297 H 0.34527 0.01453 -0.09618
 C298 C 0.01747 0.87419 0.53839
 C299 C 0.01768 0.84643 0.54621
 C300 C 0.01681 0.81330 0.55585
 C301 C -0.01441 0.76974 0.55371
 C302 C -0.01710 0.73779 0.56363
 C303 C 0.01136 0.74905 0.57588
 C304 C 0.04312 0.79287 0.57778
 C305 C 0.04577 0.82475 0.56784
 C306 C 0.00708 0.71547 0.58687
 C307 C 0.01116 0.72410 0.60224
 C308 C 0.00631 0.69233 0.61264
 C309 C -0.00266 0.65152 0.60785
 C310 C -0.00664 0.64259 0.59259
 C311 C -0.00184 0.67434 0.58215
 C312 C -0.00773 0.61901 0.61865
 C313 C -0.01168 0.59242 0.62795
 H314 H -0.03718 0.76056 0.54452
 H315 H -0.04223 0.70445 0.56197
 H316 H 0.06587 0.80249 0.58698
 H317 H 0.07002 0.85838 0.56961
 H318 H 0.01734 0.75517 0.60624
 H319 H 0.00934 0.69953 0.62443
 H320 H -0.01344 0.61113 0.58876
 H321 H -0.00471 0.66688 0.57040
 C322 C 0.13777 0.15879 0.20544
 C323 C 0.16330 0.18722 0.21340
 C324 C 0.19425 0.22003 0.22315
 C325 C 0.23880 0.23691 0.22087
 C326 C 0.26894 0.26665 0.23087
 C327 C 0.25486 0.27981 0.24333
 C328 C 0.21001 0.26320 0.24537
 C329 C 0.17993 0.23348 0.23535
 C330 C 0.28674 0.30960 0.25439
 C331 C 0.27779 0.30225 0.26976
 C332 C 0.30818 0.32953 0.28021
 C333 C 0.34790 0.36452 0.27546
 C334 C 0.35708 0.37231 0.26020
 C335 C 0.32671 0.34502 0.24972
 C336 C 0.37916 0.39220 0.28630
 C337 C 0.40483 0.41498 0.29558
 H338 H 0.25023 0.22648 0.21152
 H339 H 0.30317 0.27838 0.22910
 H340 H 0.19819 0.27313 0.25474
 H341 H 0.14551 0.22055 0.23723
 H342 H 0.24763 0.27490 0.27372
 H343 H 0.30082 0.32315 0.29200
 H344 H 0.38770 0.39940 0.25640
 H345 H 0.33435 0.35180 0.23796
 C346 C 0.84913 -0.03191 -0.12847
 C347 C 0.82147 -0.03250 -0.12062
 C348 C 0.78956 -0.03202 -0.11098
 C349 C 0.76983 -0.00784 -0.11500
 C350 C 0.74074 -0.00529 -0.10524
 C351 C 0.73105 -0.02690 -0.09130
 C352 C 0.75059 -0.05165 -0.08746
 C353 C 0.77969 -0.05412 -0.09723
 C354 C 0.70164 -0.02274 -0.08064
 C355 C 0.67161 -0.05868 -0.07206
 C356 C 0.64502 -0.05432 -0.06166
 C357 C 0.64807 -0.01403 -0.05968
 C358 C 0.67751 0.02182 -0.06826
 C359 C 0.70411 0.01753 -0.07867
 C360 C 0.62168 -0.00934 -0.04862
 C361 C 0.59980 -0.00563 -0.03920
 H362 H 0.77730 0.00946 -0.12561
 H363 H 0.72581 0.01357 -0.10860
 H364 H 0.74428 -0.06817 -0.07674
 H365 H 0.79503 -0.07268 -0.09396
 H366 H 0.66856 -0.09021 -0.07344
 H367 H 0.62229 -0.08230 -0.05509
 H368 H 0.68025 0.05320 -0.06677
 H369 H 0.72730 0.04594 -0.08495
 C370 C 0.13864 -0.02036 0.12840
 C371 C 0.16431 -0.02328 0.12051
 C372 C 0.19539 -0.02518 0.11084
 C373 C 0.23985 0.00356 0.11282
 C374 C 0.27003 0.00383 0.10286
 C375 C 0.25609 -0.02461 0.09074
 C376 C 0.21135 -0.05393 0.08900
 C377 C 0.18123 -0.05415 0.09898
 C378 C 0.28794 -0.02266 0.07968
 C379 C 0.27831 -0.02591 0.06434
 C380 C 0.30868 -0.02283 0.05387
 C381 C 0.34905 -0.01647 0.05857
 C382 C 0.35890 -0.01345 0.07381
 C383 C 0.32856 -0.01650 0.08431
 C384 C 0.38028 -0.01280 0.04770
 C385 C 0.40587 -0.00981 0.03835
 H386 H 0.25115 0.02634 0.12190
 H387 H 0.30416 0.02715 0.10439
 H388 H 0.19965 -0.07660 0.07990
 H389 H 0.14687 -0.07649 0.09733
 H390 H 0.24764 -0.02997 0.06041
 H391 H 0.30079 -0.02508 0.04210
 H392 H 0.39002 -0.00865 0.07756
 H393 H 0.33674 -0.01433 0.09604
 C394 C 0.84940 0.88156 0.46188
 C395 C 0.82172 0.85459 0.45401
 C396 C 0.78985 0.82236 0.44433
 C397 C 0.77649 0.77851 0.44666
 C398 C 0.74759 0.74742 0.43672
 C399 C 0.73177 0.75985 0.42427
 C400 C 0.74484 0.80395 0.42217
 C401 C 0.77372 0.83497 0.43213
 C402 C 0.70281 0.72715 0.41330
 C403 C 0.70866 0.73672 0.39791
 C404 C 0.68208 0.70575 0.38753
 C405 C 0.64929 0.66482 0.39237
 C406 C 0.64303 0.65498 0.40765
 C407 C 0.66964 0.68592 0.41806
 C408 C 0.62226 0.63307 0.38160
 C409 C 0.60001 0.60706 0.37235
 H410 H 0.78902 0.76844 0.45601
 H411 H 0.73859 0.71384 0.43855
 H412 H 0.73278 0.81445 0.41281
 H413 H 0.78389 0.86883 0.43020
 H414 H 0.73431 0.76789 0.39387
 H415 H 0.68727 0.71365 0.37572
 H416 H 0.61764 0.62341 0.41151
 H417 H 0.66403 0.67775 0.42983
 C418 C 0.01951 0.14379 0.79478
 C419 C 0.01993 0.17188 0.78697
 C420 C 0.01929 0.20429 0.77735
 C421 C -0.01303 0.21533 0.77906
 C422 C -0.01539 0.24477 0.76913
 C423 C 0.01454 0.26347 0.75732
 C424 C 0.04737 0.25270 0.75585
 C425 C 0.04967 0.22328 0.76580
 C426 C 0.01071 0.29301 0.74631
 C427 C 0.01699 0.28982 0.73101
 C428 C 0.01254 0.31693 0.72058
 C429 C 0.00179 0.34759 0.72528
 C430 C -0.00438 0.35118 0.74048
 C431 C 0.00001 0.32404 0.75094
 C432 C -0.00291 0.37521 0.71445
 C433 C -0.00657 0.39799 0.70515
 H434 H -0.03690 0.20059 0.78790
 H435 H -0.04135 0.25197 0.77045
 H436 H 0.07123 0.26699 0.74700
 H437 H 0.07480 0.21492 0.76436
 H438 H 0.02458 0.26584 0.72706
 H439 H 0.01726 0.31381 0.70884
 H440 H -0.01259 0.37492 0.74423
 H441 H -0.00457 0.32758 0.76265
 C442 C 0.88598 0.03025 0.12765
 C443 C 0.85872 0.03079 0.11971
 C444 C 0.82615 0.03030 0.10995
 C445 C 0.83850 0.05860 0.09762
 C446 C 0.80710 0.05635 0.08761
 C447 C 0.76287 0.02567 0.08981
 C448 C 0.75072 -0.00215 0.10238
 C449 C 0.78219 0.00014 0.11237
 C450 C 0.72971 0.02186 0.07880
 C451 C 0.68884 0.01437 0.08355
 C452 C 0.65747 0.01002 0.07312
 C453 C 0.66652 0.01303 0.05784
 C454 C 0.70708 0.02058 0.05301
 C455 C 0.73848 0.02497 0.06341
 C456 C 0.63433 0.00836 0.04705
 C457 C 0.60790 0.00466 0.03782
 H458 H 0.87245 0.08204 0.09563
 H459 H 0.81741 0.07860 0.07816
 H460 H 0.71703 -0.02647 0.10428
 H461 H 0.77231 -0.02212 0.12183
 H462 H 0.68130 0.01229 0.09532
 H463 H 0.62620 0.00432 0.07697
 H464 H 0.71436 0.02285 0.04121
 H465 H 0.76935 0.03005 0.05939
 C466 C 0.14994 0.13070 0.46141
 C467 C 0.17884 0.15645 0.45343
 C468 C 0.21227 0.18758 0.44367
 C469 C 0.21289 0.17776 0.42866
 C470 C 0.24365 0.20884 0.41892
 C471 C 0.27421 0.25027 0.42406
 C472 C 0.27371 0.25963 0.43923
 C473 C 0.24290 0.22846 0.44895
 C474 C 0.30560 0.28387 0.41355
 C475 C 0.31503 0.32713 0.41441
 C476 C 0.34323 0.35839 0.40413
 C477 C 0.36240 0.34687 0.39288
 C478 C 0.35366 0.30408 0.39203
 C479 C 0.32548 0.27277 0.40229
 C480 C 0.39015 0.37860 0.38196
 C481 C 0.41301 0.40466 0.37260
 H482 H 0.18911 0.14632 0.42443
 H483 H 0.24277 0.20083 0.40728
 H484 H 0.29713 0.29103 0.44356
 H485 H 0.24265 0.23643 0.46055
 H486 H 0.29980 0.33658 0.42281
 H487 H 0.34964 0.39140 0.40485
 H488 H 0.36838 0.29484 0.38337
 H489 H 0.31931 0.23990 0.40145
 C490 C -0.03259 0.84075 0.79393
 C491 C -0.03602 0.81249 0.78586
 C492 C -0.03855 0.77987 0.77601
 C493 C -0.03110 0.74714 0.78145
 C494 C -0.03085 0.71710 0.77169
 C495 C -0.03800 0.71947 0.75632
 C496 C -0.04610 0.75213 0.75100
 C497 C -0.04632 0.78212 0.76078
 C498 C -0.03580 0.68889 0.74580
 C499 C -0.06512 0.67203 0.73381
 C500 C -0.06189 0.64465 0.72357
 C501 C -0.02938 0.63370 0.72518
 C502 C -0.00037 0.64985 0.73716
 C503 C -0.00354 0.67724 0.74742
 C504 C -0.02521 0.60677 0.71431
 C505 C -0.02181 0.58461 0.70501
 H506 H -0.02495 0.74516 0.79322
 H507 H -0.02505 0.69202 0.77614
 H508 H -0.05110 0.75523 0.73922
 H509 H -0.05178 0.80754 0.75643
 H510 H -0.09063 0.67994 0.73236
 H511 H -0.08455 0.63227 0.71434
 H512 H 0.02502 0.64170 0.73847
 H513 H 0.01989 0.69014 0.75640
   
