data_POSCAR
  _audit_creation_date              2014-09-24
  _audit_creation_method            'ToBaCCo'
  _symmetry_space_group_name_H-M    'P1'
  _symmetry_Int_Tables_number       1
  _symmetry_cell_setting            triclinic
  loop_
  _symmetry_equiv_pos_as_xyz
 x,y,z
_cell_length_a 45.4787
_cell_length_b 45.4919
_cell_length_c 45.4735
_cell_angle_alpha 90.053900
_cell_angle_beta 89.935800
_cell_angle_gamma 90.027200
loop_
  _atom_site_label
  _atom_site_type_symbol
  _atom_site_fract_x
  _atom_site_fract_y
  _atom_site_fract_z
N1 N 0.35353 0.34948 1.35705
 N2 N 1.14341 0.64639 0.84986
 N3 N 0.64882 -0.14175 0.14535
 N4 N -0.14486 1.14488 -0.35465
 N5 N 0.64626 0.64260 0.64980
 N6 N 0.84975 0.35323 0.14274
 N7 N 0.35747 0.14990 0.85368
 N8 N 0.14869 0.85121 0.35137
 Zn9 Zn 0.03928 0.98387 0.00444
 Zn10 Zn -0.01981 0.97846 -0.02407
 Zn11 Zn -0.01375 1.00735 0.03482
 Zn12 Zn 0.00934 1.03722 -0.01861
 O13 O 0.00372 1.00168 -0.00089
 O14 O 0.04162 0.94930 -0.01403
 O15 O -0.05326 0.96769 -0.00583
 O16 O 0.00784 0.99393 0.06487
 O17 O -0.00197 0.94494 -0.03510
 O18 O 0.04712 0.97637 0.04226
 O19 O -0.04834 0.98906 0.03759
 O20 O -0.00425 1.06739 0.00274
 O21 O -0.03075 0.99647 -0.05753
 O22 O -0.02124 1.04522 0.04249
 O23 O -0.00890 1.03969 -0.05323
 O24 O 0.04722 1.04499 -0.02594
 O25 O 0.06948 1.00532 -0.00901
 C26 C 0.02357 0.93497 -0.02977
 C27 C -0.06294 0.97328 0.01979
 C28 C 0.03269 0.98126 0.06567
 C29 C -0.01672 1.06844 0.02770
 C30 C -0.02494 1.02189 -0.06753
 C31 C 0.07049 1.03034 -0.02129
 Zn32 Zn 0.49604 -0.03934 0.48389
 Zn33 Zn 0.52432 0.01993 0.47886
 Zn34 Zn 0.46548 0.01340 0.50773
 Zn35 Zn 0.51897 -0.00954 0.53746
 O36 O 0.50124 -0.00385 0.50194
 O37 O 0.51453 -0.04141 0.44927
 O38 O 0.50596 0.05332 0.46830
 O39 O 0.43551 -0.00828 0.49420
 O40 O 0.53539 0.00232 0.44522
 O41 O 0.45824 -0.04733 0.47632
 O42 O 0.46257 0.04804 0.48964
 O43 O 0.49761 0.00385 0.56773
 O44 O 0.55775 0.03092 0.49692
 O45 O 0.45779 0.02071 0.54566
 O46 O 0.55356 0.00881 0.54001
 O47 O 0.52637 -0.04741 0.54501
 O48 O 0.50956 -0.06957 0.50517
 C49 C 0.53018 -0.02319 0.43506
 C50 C 0.48029 0.06281 0.47394
 C51 C 0.43479 -0.03304 0.48135
 C52 C 0.47261 0.01619 0.56886
 C53 C 0.56780 0.02500 0.52230
 C54 C 0.52180 -0.07064 0.53022
 Zn55 Zn 0.96249 0.48097 0.49073
 Zn56 Zn 1.02121 0.47574 0.51993
 Zn57 Zn 1.01591 0.50403 0.46073
 Zn58 Zn 0.99228 0.53451 0.51364
 O59 O 0.99802 0.49877 0.49630
 O60 O 0.96002 0.44641 0.50907
 O61 O 1.05478 0.46471 0.50214
 O62 O 0.99451 0.49049 0.43056
 O63 O 1.00320 0.44230 0.53097
 O64 O 0.95480 0.47353 0.45286
 O65 O 1.05050 0.48561 0.45846
 O66 O 1.00574 0.56450 0.49197
 O67 O 1.03192 0.49411 0.55332
 O68 O 1.02345 0.54184 0.45278
 O69 O 1.01049 0.53743 0.54824
 O70 O 0.95438 0.54213 0.52108
 O71 O 0.93226 0.50229 0.50423
 C72 C 0.97780 0.43221 0.52518
 C73 C 1.06479 0.46996 0.47657
 C74 C 0.96949 0.47816 0.42957
 C75 C 1.01849 0.56526 0.46714
 C76 C 1.02627 0.51974 0.56291
 C77 C 0.93117 0.52728 0.51660
 Zn78 Zn 0.48921 0.54080 0.98767
 Zn79 Zn 0.45933 0.48744 1.01103
 Zn80 Zn 0.51817 0.48202 0.98204
 Zn81 Zn 0.51264 0.51090 1.04094
 O82 O 0.49487 0.50526 1.00539
 O83 O 0.45130 0.54835 0.98024
 O84 O 0.45684 0.45281 0.99265
 O85 O 0.52909 0.50001 0.94862
 O86 O 0.42910 0.50877 0.99760
 O87 O 0.50756 0.54337 0.95302
 O88 O 0.50023 0.44858 0.97108
 O89 O 0.54730 0.49262 1.04339
 O90 O 0.45171 0.47996 1.04894
 O91 O 0.55161 0.47112 0.99997
 O92 O 0.49128 0.49735 1.07114
 O93 O 0.52003 0.54880 1.04862
 O94 O 0.50263 0.57101 1.00909
 C95 C 0.42806 0.53364 0.98500
 C96 C 0.47476 0.43855 0.97668
 C97 C 0.52350 0.52549 0.93868
 C98 C 0.56160 0.47671 1.02545
 C99 C 0.46641 0.48471 1.07219
 C100 C 0.51522 0.57205 1.03397
 C101 C 1.29834 0.37213 0.41432
 C102 C 1.27484 0.38126 0.39668
 C103 C 1.27732 0.37993 0.36603
 C104 C 1.30315 0.36954 0.35303
 C105 C 1.32688 0.36036 0.37054
 C106 C 1.32423 0.36172 0.40133
 C107 C 1.24815 0.39209 0.40984
 C108 C 1.22556 0.40135 0.42018
 C109 C 1.19885 0.41247 0.43144
 C110 C 1.17583 0.42224 0.44026
 C111 C 1.14812 0.43427 0.44977
 C112 C 1.13191 0.45189 0.43052
 C113 C 1.10487 0.46351 0.43930
 C114 C 1.09360 0.45766 0.46753
 C115 C 1.11009 0.43996 0.48680
 C116 C 1.13719 0.42833 0.47794
 H117 H 1.29668 0.37310 0.43807
 H118 H 1.25926 0.38689 0.35217
 H119 H 1.30457 0.36841 0.32928
 H120 H 1.34229 0.35490 0.41523
 H121 H 1.14015 0.45661 0.40866
 H122 H 1.09279 0.47704 0.42390
 H123 H 1.10204 0.43504 0.50867
 H124 H 1.14957 0.41469 0.49301
 C125 C 0.21867 0.61448 0.86135
 C126 C 0.22018 0.61364 0.89209
 C127 C 0.19620 0.62317 0.90890
 C128 C 0.17088 0.63368 0.89504
 C129 C 0.16926 0.63478 0.86418
 C130 C 0.19337 0.62499 0.84747
 C131 C 0.24652 0.60337 0.90626
 C132 C 0.26880 0.59488 0.91779
 C133 C 0.29515 0.58500 0.93083
 C134 C 0.31786 0.57656 0.94154
 C135 C 0.34523 0.56643 0.95373
 C136 C 0.37085 0.58304 0.94994
 C137 C 0.39773 0.57264 0.96057
 C138 C 0.39934 0.54540 0.97513
 C139 C 0.37335 0.52907 0.97924
 C140 C 0.34650 0.53953 0.96858
 H141 H 0.23712 0.60723 0.84813
 H142 H 0.19714 0.62260 0.93270
 H143 H 0.15250 0.64097 0.90833
 H144 H 0.19275 0.62590 0.82369
 H145 H 0.37012 0.60388 0.93844
 H146 H 0.41729 0.58576 0.95703
 H147 H 0.37382 0.50802 0.99033
 H148 H 0.32680 0.52647 0.97159
 C149 C -0.29484 0.90878 0.11224
 C150 C -0.27361 0.88868 0.10259
 C151 C -0.27814 0.85853 0.10668
 C152 C -0.30371 0.84851 0.12052
 C153 C -0.32506 0.86855 0.13046
 C154 C -0.32043 0.89879 0.12608
 C155 C -0.24678 0.89903 0.08933
 C156 C -0.22410 0.90780 0.07876
 C157 C -0.19729 0.91828 0.06712
 C158 C -0.17419 0.92750 0.05793
 C159 C -0.14638 0.93892 0.04798
 C160 C -0.12964 0.95647 0.06688
 C161 C -0.10255 0.96761 0.05766
 C162 C -0.09174 0.96134 0.02932
 C163 C -0.10874 0.94367 0.01041
 C164 C -0.13591 0.93253 0.01972
 H165 H -0.29153 0.93218 0.10925
 H166 H -0.26179 0.84278 0.09944
 H167 H -0.30666 0.82514 0.12389
 H168 H -0.33665 0.91461 0.13340
 H169 H -0.13753 0.96154 0.08880
 H170 H -0.09008 0.98113 0.07279
 H171 H -0.10105 0.93845 -0.01152
 H172 H -0.14870 0.91893 0.00492
 C173 C 0.77940 0.11346 0.63558
 C174 C 0.77734 0.11212 0.60490
 C175 C 0.80105 0.12131 0.58752
 C176 C 0.82669 0.13190 0.60080
 C177 C 0.82889 0.13341 0.63161
 C178 C 0.80499 0.12404 0.64887
 C179 C 0.75080 0.10138 0.59142
 C180 C 0.72831 0.09228 0.58075
 C181 C 0.70169 0.08141 0.56907
 C182 C 0.67872 0.07186 0.55991
 C183 C 0.65106 0.06007 0.55004
 C184 C 0.64016 0.06681 0.52206
 C185 C 0.61307 0.05540 0.51288
 C186 C 0.59657 0.03712 0.53165
 C187 C 0.60781 0.03047 0.55969
 C188 C 0.63483 0.04187 0.56878
 H189 H 0.76117 0.10645 0.64924
 H190 H 0.79971 0.12032 0.56376
 H191 H 0.84488 0.13886 0.58709
 H192 H 0.80605 0.12528 0.67262
 H193 H 0.65255 0.08091 0.50738
 H194 H 0.60505 0.06093 0.49117
 H195 H 0.59573 0.01648 0.57470
 H196 H 0.64304 0.03653 0.59049
 C197 C 0.41203 0.29614 0.38050
 C198 C 0.39498 0.27206 0.38927
 C199 C 0.36428 0.27364 0.38774
 C200 C 0.35066 0.29912 0.37737
 C201 C 0.36759 0.32338 0.36839
 C202 C 0.39842 0.32166 0.37012
 C203 C 0.40882 0.24561 0.39972
 C204 C 0.41981 0.22319 0.40856
 C205 C 0.43187 0.19664 0.41910
 C206 C 0.44135 0.17371 0.42836
 C207 C 0.45156 0.14605 0.43982
 C208 C 0.43284 0.12920 0.45746
 C209 C 0.44225 0.10219 0.46854
 C210 C 0.47061 0.09158 0.46214
 C211 C 0.48936 0.10870 0.44441
 C212 C 0.47986 0.13578 0.43332
 H213 H 0.43580 0.29517 0.38163
 H214 H 0.35087 0.25512 0.39443
 H215 H 0.32691 0.29981 0.37596
 H216 H 0.41189 0.34013 0.36347
 H217 H 0.41089 0.13692 0.46261
 H218 H 0.42724 0.08963 0.48211
 H219 H 0.51131 0.10116 0.43908
 H220 H 0.49452 0.14866 0.41965
 C221 C 0.91294 0.19901 0.62173
 C222 C 0.89556 0.22271 0.61262
 C223 C 0.86488 0.22063 0.61407
 C224 C 0.85161 0.19503 0.62466
 C225 C 0.86887 0.17115 0.63392
 C226 C 0.89967 0.17337 0.63232
 C227 C 0.90902 0.24925 0.60185
 C228 C 0.91966 0.27174 0.59272
 C229 C 0.93129 0.29835 0.58180
 C230 C 0.94042 0.32131 0.57221
 C231 C 0.95023 0.34897 0.56036
 C232 C 0.93141 0.36514 0.54225
 C233 C 0.94044 0.39215 0.53081
 C234 C 0.96851 0.40344 0.53733
 C235 C 0.98736 0.38699 0.55552
 C236 C 0.97824 0.35991 0.56697
 H237 H 0.93670 0.20037 0.62066
 H238 H 0.85122 0.23885 0.60714
 H239 H 0.82786 0.19395 0.62596
 H240 H 0.91339 0.15519 0.63921
 H241 H 0.90968 0.35689 0.53701
 H242 H 0.92537 0.40419 0.51689
 H243 H 1.00909 0.39506 0.56096
 H244 H 0.99298 0.34757 0.58100
 C245 C 0.08613 0.70150 -0.12753
 C246 C 0.10375 0.72501 -0.11833
 C247 C 0.13441 0.72257 -0.11958
 C248 C 0.14742 0.69675 -0.12998
 C249 C 0.12992 0.67301 -0.13924
 C250 C 0.09913 0.67563 -0.13793
 C251 C 0.09058 0.75169 -0.10752
 C252 C 0.08022 0.77428 -0.09828
 C253 C 0.06892 0.80098 -0.08719
 C254 C 0.06007 0.82399 -0.07745
 C255 C 0.05052 0.85169 -0.06544
 C256 C 0.06970 0.86794 -0.04773
 C257 C 0.06088 0.89497 -0.03612
 C258 C 0.03266 0.90619 -0.04206
 C259 C 0.01346 0.88965 -0.05985
 C260 C 0.02237 0.86256 -0.07147
 H261 H 0.06238 0.70314 -0.12661
 H262 H 0.14826 0.74064 -0.11257
 H263 H 0.17116 0.69536 -0.13105
 H264 H 0.08524 0.65757 -0.14482
 H265 H 0.09154 0.85975 -0.04294
 H266 H 0.07621 0.90708 -0.02253
 H267 H -0.00839 0.89766 -0.06484
 H268 H 0.00735 0.85015 -0.08518
 C269 C 0.61030 0.78520 1.14502
 C270 C 0.60587 0.78085 1.11487
 C271 C 0.61532 0.80217 1.09478
 C272 C 0.62926 0.82768 1.10479
 C273 C 0.63393 0.83215 1.13502
 C274 C 0.62423 0.81069 1.15505
 C275 C 0.59217 0.75424 1.10457
 C276 C 0.58101 0.73177 1.09601
 C277 C 0.56835 0.70526 1.08602
 C278 C 0.55793 0.68244 1.07746
 C279 C 0.54602 0.65499 1.06715
 C280 C 0.53119 0.65368 1.04023
 C281 C 0.52071 0.62678 1.02964
 C282 C 0.52499 0.60079 1.04584
 C283 C 0.53956 0.60242 1.07309
 C284 C 0.55000 0.62934 1.08363
 H285 H 0.60318 0.76879 1.16075
 H286 H 0.61203 0.79901 1.07140
 H287 H 0.63640 0.84400 1.08899
 H288 H 0.62783 0.81352 1.17841
 H289 H 0.52802 0.67340 1.02727
 H290 H 0.50961 0.62631 1.00859
 H291 H 0.54323 0.58284 1.08612
 H292 H 0.56149 0.63009 1.10448
 C293 C 0.37677 0.40847 1.30414
 C294 C 0.38632 0.39164 1.28018
 C295 C 0.38548 0.36093 1.28174
 C296 C 0.37497 0.34706 1.30707
 C297 C 0.36517 0.36378 1.33118
 C298 C 0.36626 0.39463 1.32951
 C299 C 0.39658 0.40580 1.25380
 C300 C 0.40508 0.41732 1.23149
 C301 C 0.41495 0.43037 1.20512
 C302 C 0.42340 0.44109 1.18240
 C303 C 0.43355 0.45330 1.15502
 C304 C 0.41697 0.44948 1.12940
 C305 C 0.42739 0.46016 1.10252
 C306 C 0.45462 0.47479 1.10090
 C307 C 0.47092 0.47893 1.12689
 C308 C 0.46044 0.46822 1.15375
 H309 H 0.37733 0.43226 1.30317
 H310 H 0.39274 0.34769 1.26329
 H311 H 0.37407 0.32329 1.30774
 H312 H 0.35895 0.40793 1.34787
 H313 H 0.39614 0.43793 1.13014
 H314 H 0.41430 0.45659 1.08296
 H315 H 0.49196 0.49007 1.12642
 H316 H 0.47348 0.47126 1.17344
 C317 C 0.64810 -0.10389 0.21881
 C318 C 0.61789 -0.09991 0.22324
 C319 C 0.59795 -0.10908 0.20167
 C320 C 0.60812 -0.12246 0.17591
 C321 C 0.63840 -0.12687 0.17144
 C322 C 0.65831 -0.11727 0.19306
 C323 C 0.60727 -0.08744 0.25035
 C324 C 0.59817 -0.07761 0.27325
 C325 C 0.58723 -0.06686 0.30026
 C326 C 0.57761 -0.05840 0.32348
 C327 C 0.56575 -0.04924 0.35139
 C328 C 0.54829 -0.06871 0.36758
 C329 C 0.53674 -0.06020 0.39475
 C330 C 0.54249 -0.03200 0.40618
 C331 C 0.56005 -0.01253 0.38972
 C332 C 0.57161 -0.02113 0.36249
 H333 H 0.66372 -0.09702 0.23542
 H334 H 0.57452 -0.10616 0.20489
 H335 H 0.59241 -0.12952 0.15948
 H336 H 0.68170 -0.12068 0.19022
 H337 H 0.54362 -0.09053 0.35921
 H338 H 0.52332 -0.07574 0.40680
 H339 H 0.56489 0.00931 0.39788
 H340 H 0.58511 -0.00588 0.35013
 C341 C -0.12123 1.08701 -0.30070
 C342 C -0.11205 1.10435 -0.27697
 C343 C -0.11343 1.13502 -0.27897
 C344 C -0.12404 1.14833 -0.30452
 C345 C -0.13339 1.13111 -0.32844
 C346 C -0.13184 1.10031 -0.32630
 C347 C -0.10129 1.09085 -0.25047
 C348 C -0.09217 1.08018 -0.22801
 C349 C -0.08128 1.06850 -0.20141
 C350 C -0.07172 1.05935 -0.17847
 C351 C -0.05992 1.04951 -0.15081
 C352 C -0.04184 1.06832 -0.13455
 C353 C -0.03046 1.05927 -0.10753
 C354 C -0.03701 1.03118 -0.09632
 C355 C -0.05516 1.01234 -0.11287
 C356 C -0.06655 1.02148 -0.13996
 H357 H -0.12022 1.06326 -0.29941
 H358 H -0.10644 1.14865 -0.26072
 H359 H -0.12530 1.17208 -0.30553
 H360 H -0.13879 1.08663 -0.34451
 H361 H -0.03658 1.09007 -0.14272
 H362 H -0.01657 1.07434 -0.09541
 H363 H -0.06061 0.99059 -0.10487
 H364 H -0.08056 1.00674 -0.15238
 C365 C 1.11285 0.63566 0.77392
 C366 C 1.11128 0.60497 0.77228
 C367 C 1.11999 0.58792 0.79635
 C368 C 1.13035 0.60152 0.82192
 C369 C 1.13211 0.63234 0.82370
 C370 C 1.12321 0.64927 0.79944
 C371 C 1.10083 0.59114 0.74579
 C372 C 1.09198 0.58016 0.72334
 C373 C 1.08142 0.56812 0.69676
 C374 C 1.07213 0.55865 0.67381
 C375 C 1.06062 0.54846 0.64614
 C376 C 1.06712 0.52020 0.63578
 C377 C 1.05596 0.51070 0.60869
 C378 C 1.03817 0.52942 0.59166
 C379 C 1.03178 0.55775 0.60237
 C380 C 1.04293 0.56716 0.62938
 H381 H 1.10622 0.64907 0.75540
 H382 H 1.11882 0.56415 0.79534
 H383 H 1.13695 0.58805 0.84039
 H384 H 1.12464 0.67302 0.80017
 H385 H 1.08082 0.50555 0.64858
 H386 H 1.06128 0.48878 0.60108
 H387 H 1.01816 0.57274 0.58988
 H388 H 1.03777 0.58908 0.63718
 C389 C 0.69914 0.61716 0.59163
 C390 C 0.72302 0.60812 0.60877
 C391 C 0.72136 0.60989 0.63947
 C392 C 0.69603 0.62089 0.65297
 C393 C 0.67204 0.63026 0.63592
 C394 C 0.67379 0.62816 0.60511
 C395 C 0.74944 0.59753 0.59494
 C396 C 0.77179 0.58885 0.58361
 C397 C 0.79818 0.57883 0.57073
 C398 C 0.82093 0.57031 0.56010
 C399 C 0.84832 0.56011 0.54796
 C400 C 0.84964 0.53307 0.53332
 C401 C 0.87651 0.52259 0.52264
 C402 C 0.90245 0.53905 0.52651
 C403 C 0.90078 0.56642 0.54086
 C404 C 0.87389 0.57684 0.55152
 H405 H 0.70019 0.61588 0.56786
 H406 H 0.73975 0.60303 0.65294
 H407 H 0.69530 0.62257 0.67671
 H408 H 0.65551 0.63511 0.59156
 H409 H 0.82997 0.51992 0.53048
 H410 H 0.87702 0.50144 0.51171
 H411 H 0.92031 0.57963 0.54422
 H412 H 0.87311 0.59779 0.56285
 C413 C 0.77383 0.38470 1.13513
 C414 C 0.77121 0.38675 1.10454
 C415 C 0.79454 0.37784 1.08650
 C416 C 0.82038 0.36688 1.09903
 C417 C 0.82317 0.36475 1.12976
 C418 C 0.79962 0.37376 1.14768
 C419 C 0.74454 0.39804 1.09183
 C420 C 0.72199 0.40761 1.08178
 C421 C 0.69534 0.41901 1.07074
 C422 C 0.67239 0.42893 1.06201
 C423 C 0.64478 0.44105 1.05246
 C424 C 0.63383 0.43482 1.02438
 C425 C 0.60679 0.44646 1.01545
 C426 C 0.59037 0.46447 1.03457
 C427 C 0.60167 0.47063 1.06272
 C428 C 0.62865 0.45900 1.07156
 H429 H 0.75590 0.39149 1.14930
 H430 H 0.79276 0.37937 1.06280
 H431 H 0.83829 0.36021 1.08482
 H432 H 0.80114 0.37205 1.17137
 H433 H 0.64613 0.42093 1.00943
 H434 H 0.59872 0.44130 0.99365
 H435 H 0.58963 0.48441 1.07799
 H436 H 0.63691 0.46394 1.09335
 C437 C 0.30280 1.12560 -0.08930
 C438 C 0.27960 1.11585 -0.10703
 C439 C 0.28217 1.11713 -0.13767
 C440 C 0.30778 1.12817 -0.15058
 C441 C 0.33116 1.13808 -0.13296
 C442 C 0.32845 1.13665 -0.10219
 C443 C 0.25301 1.10479 -0.09389
 C444 C 0.23053 1.09557 -0.08329
 C445 C 0.20396 1.08481 -0.07137
 C446 C 0.18108 1.07565 -0.06162
 C447 C 0.15353 1.06471 -0.05051
 C448 C 0.12778 1.08103 -0.05454
 C449 C 0.10080 1.07002 -0.04472
 C450 C 0.09923 1.04247 -0.03074
 C451 C 0.12531 1.02638 -0.02650
 C452 C 0.15227 1.03744 -0.03635
 H453 H 0.30104 1.12470 -0.06556
 H454 H 0.26431 1.10972 -0.15159
 H455 H 0.30925 1.12933 -0.17431
 H456 H 0.34625 1.14402 -0.08822
 H457 H 0.12851 1.10214 -0.06552
 H458 H 0.08117 1.08297 -0.04833
 H459 H 0.12487 1.00511 -0.01584
 H460 H 0.17207 1.02461 -0.03317
 C461 C 0.22209 -0.14748 0.38914
 C462 C 0.22625 -0.11726 0.39319
 C463 C 0.20468 -0.09746 0.38379
 C464 C 0.17910 -0.10781 0.37024
 C465 C 0.17482 -0.13812 0.36593
 C466 C 0.19653 -0.15787 0.37559
 C467 C 0.25292 -0.10657 0.40644
 C468 C 0.27542 -0.09765 0.41722
 C469 C 0.30195 -0.08719 0.42945
 C470 C 0.32476 -0.07821 0.43952
 C471 C 0.35217 -0.06741 0.45105
 C472 C 0.35314 -0.04053 0.46601
 C473 C 0.37996 -0.02951 0.47625
 C474 C 0.40620 -0.04526 0.47162
 C475 C 0.40492 -0.07245 0.45687
 C476 C 0.37808 -0.08341 0.44666
 H477 H 0.23869 -0.16300 0.39623
 H478 H 0.20769 -0.07402 0.38680
 H479 H 0.16260 -0.09223 0.36313
 H480 H 0.19384 -0.18128 0.37226
 H481 H 0.33322 -0.02794 0.46949
 H482 H 0.38016 -0.00852 0.48750
 H483 H 0.42468 -0.08512 0.45293
 H484 H 0.37758 -0.10422 0.43507
 C485 C 0.58938 -0.30284 0.62528
 C486 C 0.60716 -0.27967 0.61553
 C487 C 0.63780 -0.28223 0.61686
 C488 C 0.65064 -0.30780 0.62799
 C489 C 0.63297 -0.33115 0.63790
 C490 C 0.60221 -0.32845 0.63640
 C491 C 0.59409 -0.25312 0.60440
 C492 C 0.58355 -0.23066 0.59515
 C493 C 0.57170 -0.20411 0.58437
 C494 C 0.56201 -0.18124 0.57521
 C495 C 0.55098 -0.15368 0.56432
 C496 C 0.53693 -0.15237 0.53699
 C497 C 0.52710 -0.12541 0.52600
 C498 C 0.53127 -0.09937 0.54223
 C499 C 0.54515 -0.10100 0.56983
 C500 C 0.55494 -0.12798 0.58076
 H501 H 0.56565 -0.30109 0.62433
 H502 H 0.65176 -0.26440 0.60946
 H503 H 0.67436 -0.30927 0.62919
 H504 H 0.58820 -0.34622 0.64378
 H505 H 0.53379 -0.17214 0.52406
 H506 H 0.51651 -0.12493 0.50469
 H507 H 0.54870 -0.08140 0.58289
 H508 H 0.56583 -0.12874 0.60193
 C509 C 1.11628 0.79529 0.40278
 C510 C 1.10671 0.77376 0.38296
 C511 C 1.11064 0.77792 0.35272
 C512 C 1.12423 0.80344 0.34232
 C513 C 1.13408 0.82511 0.36207
 C514 C 1.12988 0.82083 0.39240
 C515 C 1.09341 0.74711 0.39367
 C516 C 1.08260 0.72463 0.40261
 C517 C 1.07035 0.69812 0.41307
 C518 C 1.06027 0.67532 0.42204
 C519 C 1.04873 0.64790 0.43283
 C520 C 1.05302 0.62202 0.41674
 C521 C 1.04282 0.59518 0.42768
 C522 C 1.02819 0.59386 0.45495
 C523 C 1.02366 0.62008 0.47079
 C524 C 1.03389 0.64690 0.45979
 H525 H 1.11337 0.79228 0.42623
 H526 H 1.10341 0.76135 0.33720
 H527 H 1.12747 0.80613 0.31888
 H528 H 1.13713 0.83731 0.40799
 H529 H 1.06451 0.62255 0.39586
 H530 H 1.04668 0.57543 0.41493
 H531 H 1.01251 0.61985 0.49184
 H532 H 1.03050 0.66680 0.47245
 C533 C -0.13995 1.27810 0.11004
 C534 C -0.10926 1.27643 0.10838
 C535 C -0.09210 1.30031 0.11748
 C536 C -0.10558 1.32567 0.12844
 C537 C -0.13638 1.32743 0.13044
 C538 C -0.15345 1.30345 0.12099
 C539 C -0.09543 1.24999 0.09784
 C540 C -0.08410 1.22765 0.08920
 C541 C -0.07118 1.20127 0.07922
 C542 C -0.06051 1.17854 0.07072
 C543 C -0.04830 1.15119 0.06053
 C544 C -0.05193 1.12561 0.07721
 C545 C -0.04120 1.09875 0.06680
 C546 C -0.02670 1.09713 0.03948
 C547 C -0.02276 1.12308 0.02308
 C548 C -0.03352 1.14991 0.03356
 H549 H -0.15344 1.25972 0.10312
 H550 H -0.06833 1.29925 0.11629
 H551 H -0.09202 1.34395 0.13544
 H552 H -0.17719 1.30419 0.12259
 H553 H -0.06337 1.12635 0.09811
 H554 H -0.04461 1.07922 0.07996
 H555 H -0.01172 1.12260 0.00198
 H556 H -0.03062 1.16958 0.02046
 C557 C 0.41369 0.20530 0.87814
 C558 C 0.39565 0.22863 0.88697
 C559 C 0.36507 0.22597 0.88490
 C560 C 0.35253 0.20011 0.87404
 C561 C 0.37045 0.17655 0.86513
 C562 C 0.40117 0.17939 0.86727
 C563 C 0.40836 0.25537 0.89817
 C564 C 0.41841 0.27798 0.90769
 C565 C 0.42944 0.30468 0.91901
 C566 C 0.43817 0.32767 0.92890
 C567 C 0.44771 0.35533 0.94099
 C568 C 0.42862 0.37144 0.95895
 C569 C 0.43747 0.39845 0.97058
 C570 C 0.46561 0.40978 0.96441
 C571 C 0.48472 0.39337 0.94637
 C572 C 0.47579 0.36631 0.93474
 H573 H 0.43739 0.20711 0.87968
 H574 H 0.35090 0.24391 0.89162
 H575 H 0.32884 0.19855 0.87232
 H576 H 0.41538 0.16147 0.86067
 H577 H 0.40683 0.36316 0.96391
 H578 H 0.42221 0.41047 0.98437
 H579 H 0.50652 0.40146 0.94120
 H580 H 0.49074 0.35401 0.92083
 C581 C 0.62169 0.58652 0.70526
 C582 C 0.61285 0.60460 0.72857
 C583 C 0.61491 0.63518 0.72585
 C584 C 0.62579 0.64766 0.69998
 C585 C 0.63474 0.62968 0.67644
 C586 C 0.63258 0.59898 0.67933
 C587 C 0.60166 0.59196 0.75534
 C588 C 0.59217 0.58194 0.77797
 C589 C 0.58089 0.57093 0.80471
 C590 C 0.57106 0.56219 0.82772
 C591 C 0.55904 0.55264 0.85540
 C592 C 0.54115 0.57170 0.87162
 C593 C 0.52957 0.56282 0.89865
 C594 C 0.53573 0.53467 0.90990
 C595 C 0.55370 0.51560 0.89339
 C596 C 0.56528 0.52456 0.86631
 H597 H 0.62015 0.56283 0.70711
 H598 H 0.60818 0.64938 0.74378
 H599 H 0.62752 0.67134 0.69838
 H600 H 0.63921 0.58473 0.66143
 H601 H 0.53619 0.59349 0.86340
 H602 H 0.51582 0.57806 0.91075
 H603 H 0.55887 0.49380 0.90142
 H604 H 0.57914 0.50963 0.85393
 C605 C 0.38275 0.09157 0.80092
 C606 C 0.39188 0.10864 0.77699
 C607 C 0.39023 0.13933 0.77858
 C608 C 0.37925 0.15291 0.80389
 C609 C 0.36978 0.13594 0.82793
 C610 C 0.37177 0.10514 0.82626
 C611 C 0.40244 0.09472 0.75059
 C612 C 0.41109 0.08333 0.72826
 C613 C 0.42109 0.07037 0.70188
 C614 C 0.42958 0.05970 0.67915
 C615 C 0.43976 0.04750 0.65176
 C616 C 0.42303 0.05105 0.62620
 C617 C 0.43345 0.04039 0.59930
 C618 C 0.46082 0.02605 0.59760
 C619 C 0.47726 0.02218 0.62353
 C620 C 0.46678 0.03287 0.65041
 H621 H 0.38394 0.06781 0.79993
 H622 H 0.39716 0.15274 0.76015
 H623 H 0.37766 0.17665 0.80456
 H624 H 0.36475 0.09165 0.84457
 H625 H 0.40210 0.06238 0.62700
 H626 H 0.42025 0.04374 0.57978
 H627 H 0.49841 0.01126 0.62300
 H628 H 0.47993 0.03004 0.67006
 C629 C 0.09716 0.88375 0.29574
 C630 C 0.11690 0.89327 0.27411
 C631 C 0.14715 0.88928 0.27814
 C632 C 0.15762 0.87566 0.30359
 C633 C 0.13793 0.86586 0.32535
 C634 C 0.10760 0.87013 0.32122
 C635 C 0.10613 0.90657 0.24752
 C636 C 0.09714 0.91737 0.22507
 C637 C 0.08664 0.92960 0.19858
 C638 C 0.07766 0.93966 0.17578
 C639 C 0.06688 0.95115 0.14836
 C640 C 0.08305 0.94695 0.12250
 C641 C 0.07213 0.95711 0.09564
 C642 C 0.04483 0.97160 0.09429
 C643 C 0.02891 0.97604 0.12049
 C644 C 0.03988 0.96585 0.14733
 H645 H 0.07370 0.88671 0.29284
 H646 H 0.16262 0.89647 0.26149
 H647 H 0.18105 0.87238 0.30617
 H648 H 0.09206 0.86291 0.33777
 H649 H 0.10396 0.93556 0.12304
 H650 H 0.08494 0.95332 0.07591
 H651 H 0.00783 0.98710 0.12024
 H652 H 0.02717 0.96918 0.16722
 C653 C 0.88248 0.36179 0.21803
 C654 C 0.88391 0.39242 0.22058
 C655 C 0.87428 0.41016 0.19736
 C656 C 0.86318 0.39730 0.17172
 C657 C 0.86160 0.36655 0.16903
 C658 C 0.87139 0.34892 0.19244
 C659 C 0.89502 0.40553 0.24715
 C660 C 0.90427 0.41610 0.26962
 C661 C 0.91505 0.42800 0.29617
 C662 C 0.92423 0.43774 0.31904
 C663 C 0.93518 0.44884 0.34658
 C664 C 0.96246 0.46301 0.34781
 C665 C 0.97352 0.47289 0.37476
 C666 C 0.95739 0.46865 0.40086
 C667 C 0.92983 0.45465 0.39931
 C668 C 0.91884 0.44481 0.37235
 H669 H 0.88980 0.34786 0.23590
 H670 H 0.87529 0.43389 0.19910
 H671 H 0.85590 0.41128 0.15391
 H672 H 0.87012 0.32520 0.19098
 H673 H 0.97531 0.46620 0.32799
 H674 H 0.99479 0.48357 0.37517
 H675 H 0.91686 0.45104 0.41896
 H676 H 0.89771 0.43382 0.37165
   
